drugbank_target|Q9BXA1 Hepatic peroxysomal alanine:glyoxylate aminotransferase (DB00114)
 OpenBabel12092120063D

  0  0  0     0  0            999 V3000
M  V30 BEGIN CTAB
M  V30 COUNTS 5608 5671 0 0 0
M  V30 BEGIN ATOM
M  V30 1 H -0.908 1.98254 -0.117106 0
M  V30 2 N 0 1.576 0 0
M  V30 3 C 1.225 1.95249 0.699468 0
M  V30 4 C 1.65 0.874934 1.66513 0
M  V30 5 O 1.008 -0.166929 1.8053 0
M  V30 6 C 1.056 3.31994 1.40756 0
M  V30 7 O 0.16 3.26298 2.52197 0
M  V30 8 H -0.499 0.637402 0.186051 0
M  V30 9 H 2.031 2.04531 -0.05319 0
M  V30 10 H 2.041 3.6756 1.77098 0
M  V30 11 H 0.716 4.09975 0.69953 0
M  V30 12 H -0.707 3.02408 2.18183 0
M  V30 13 N 1.4781 -0.272755 1.55222 0
M  V30 14 C 2.4261 -1.35705 1.88909 0
M  V30 15 C 3.4201 -1.5112 0.765456 0
M  V30 16 O 4.6261 -1.52901 0.949802 0
M  V30 17 H 1.0011 -0.453868 0.59959 0
M  V30 18 H 2.9721 -1.04544 2.79487 0
M  V30 19 C 1.7211 -2.71049 2.17779 0
M  V30 20 H 1.0441 -2.59979 3.03728 0
M  V30 21 H 2.4841 -3.45858 2.45272 0
M  V30 22 C 0.9431 -3.22165 0.985473 0
M  V30 23 O 1.4731 -4.01096 0.220233 0
M  V30 24 N -0.3209 -2.7985 0.783108 0
M  V30 25 H -0.7739 -2.15775 1.40708 0
M  V30 26 H -0.8159 -3.14397 -0.0130392 0
M  V30 27 N 2.9562 -1.48159 -0.537278 0
M  V30 28 C 3.8862 -1.65029 -1.6519 0
M  V30 29 C 4.8672 -0.499281 -1.62607 0
M  V30 30 O 6.0522 -0.730972 -1.79918 0
M  V30 31 C 3.1822 -1.68303 -3.03795 0
M  V30 32 C 2.1362 -2.8283 -3.21234 0
M  V30 33 C 1.4622 -2.71189 -4.60826 0
M  V30 34 C 2.7622 -4.24211 -3.04701 0
M  V30 35 H 4.4562 -2.58341 -1.51328 0
M  V30 36 H 2.0022 -1.24325 -0.726585 0
M  V30 37 H 3.9552 -1.78693 -3.81637 0
M  V30 38 H 2.6792 -0.715635 -3.18663 0
M  V30 39 H 1.3382 -2.71983 -2.45807 0
M  V30 40 H 0.9862 -1.72435 -4.7252 0
M  V30 41 H 0.6862 -3.48035 -4.7344 0
M  V30 42 H 2.2102 -2.83537 -5.40777 0
M  V30 43 H 3.6242 -4.3593 -3.72341 0
M  V30 44 H 2.0212 -5.01998 -3.28813 0
M  V30 45 H 3.0912 -4.41184 -2.01209 0
M  V30 46 N 4.4343 0.785586 -1.36625 0
M  V30 47 C 5.8453 1.36101 -1.27803 0
M  V30 48 C 6.1963 1.96035 0.0804875 0
M  V30 49 O 5.3213 1.92834 0.982042 0
M  V30 50 C 5.9163 2.47442 -2.31426 0
M  V30 51 C 4.4753 3.00789 -2.26281 0
M  V30 52 C 3.6223 1.73896 -2.15999 0
M  V30 53 H 6.5733 0.586928 -1.47448 0
M  V30 54 H 6.5943 3.2656 -1.95291 0
M  V30 55 H 6.1063 2.03791 -3.30289 0
M  V30 56 H 4.2073 3.48851 -1.30896 0
M  V30 57 H 4.3203 3.57343 -3.19128 0
M  V30 58 H 2.6843 1.9628 -1.62316 0
M  V30 59 H 3.4673 1.32368 -3.16755 0
M  V30 60 N 5.9124 1.20967 1.01018 0
M  V30 61 C 7.3234 1.02319 1.56165 0
M  V30 62 C 7.6744 -0.418546 1.91684 0
M  V30 63 O 6.7994 -1.30096 1.72928 0
M  V30 64 C 7.3944 1.85109 2.8376 0
M  V30 65 C 5.9534 1.70809 3.35412 0
M  V30 66 C 5.1004 1.82643 2.08655 0
M  V30 67 H 8.0514 1.35065 0.833255 0
M  V30 68 H 8.0724 1.35827 3.55431 0
M  V30 69 H 7.5844 2.90035 2.57878 0
M  V30 70 H 5.6854 0.685464 3.66241 0
M  V30 71 H 5.7984 2.52467 4.07182 0
M  V30 72 H 4.1624 1.25896 2.21409 0
M  V30 73 H 4.9454 2.89066 1.85191 0
M  V30 74 N 7.3905 -1.2043 1.01659 0
M  V30 75 C 8.8065 -1.41852 0.731442 0
M  V30 76 C 9.0065 -1.89358 -0.688898 0
M  V30 77 O 8.0625 -2.06247 -1.45666 0
M  V30 78 C 9.3755 -2.44019 1.75714 0
M  V30 79 C 10.9235 -2.57785 1.77527 0
M  V30 80 C 11.3985 -3.63194 2.79023 0
M  V30 81 N 12.8895 -3.70678 2.77763 0
M  V30 82 C 13.6245 -4.51897 3.52954 0
M  V30 83 N 13.1205 -5.36921 4.37821 0
M  V30 84 N 14.9135 -4.4643 3.41551 0
M  V30 85 H 7.0645 -0.879093 1.93354 0
M  V30 86 H 9.3275 -0.448425 0.835236 0
M  V30 87 H 9.0335 -2.1611 2.77469 0
M  V30 88 H 8.9075 -3.43007 1.56927 0
M  V30 89 H 11.2945 -2.85023 0.764569 0
M  V30 90 H 11.3755 -1.58992 2.00387 0
M  V30 91 H 11.0195 -3.36699 3.80258 0
M  V30 92 H 10.9495 -4.61609 2.53425 0
M  V30 93 H 13.4405 -3.09944 2.16201 0
M  V30 94 H 13.7535 -5.95981 4.91962 0
M  V30 95 H 12.0985 -5.36424 4.41899 0
M  V30 96 H 15.2895 -3.79042 2.74672 0
M  V30 97 H 15.4625 -5.09491 4.00404 0
M  V30 98 N 8.8686 -0.792821 -1.36206 0
M  V30 99 C 10.1176 -0.363353 -1.984 0
M  V30 100 C 10.4306 1.07172 -1.63626 0
M  V30 101 O 11.6366 1.60362 -2.19081 0
M  V30 102 C 10.0926 -0.59872 -3.54885 0
M  V30 103 C 9.7006 -2.04543 -3.9858 0
M  V30 104 C 11.4446 -0.233926 -4.23855 0
M  V30 105 C 9.3516 -2.22727 -5.47856 0
M  V30 106 H 8.2816 -0.13212 -0.742334 0
M  V30 107 H 10.9326 -0.974935 -1.55458 0
M  V30 108 H 9.3146 0.0826222 -3.95914 0
M  V30 109 H 10.4886 -2.76345 -3.68741 0
M  V30 110 H 8.8036 -2.36879 -3.42458 0
M  V30 111 H 11.4006 -0.348027 -5.33566 0
M  V30 112 H 11.7436 0.818351 -4.08177 0
M  V30 113 H 12.2766 -0.868639 -3.882 0
M  V30 114 H 9.0156 -3.2635 -5.68486 0
M  V30 115 H 8.5356 -1.55434 -5.7931 0
M  V30 116 H 10.2146 -2.03607 -6.14128 0
M  V30 117 N 10.3467 1.47872 -0.545128 0
M  V30 118 C 11.2797 2.2675 0.256885 0
M  V30 119 C 12.2577 1.33293 0.931228 0
M  V30 120 O 13.4417 1.62657 0.95262 0
M  V30 121 C 10.5687 3.09976 1.36501 0
M  V30 122 C 9.6147 4.1892 0.800496 0
M  V30 123 S 10.4477 5.34397 -0.343505 0
M  V30 124 C 11.6037 6.21186 0.766733 0
M  V30 125 H 11.8367 2.94425 -0.412479 0
M  V30 126 H 9.3697 1.50806 -0.331204 0
M  V30 127 H 11.3277 3.585 1.9997 0
M  V30 128 H 9.9887 2.41686 2.00616 0
M  V30 129 H 9.1817 4.76836 1.63227 0
M  V30 130 H 8.7837 3.73215 0.242217 0
M  V30 131 H 11.0757 6.56804 1.66178 0
M  V30 132 H 12.0187 7.07742 0.225204 0
M  V30 133 H 12.4267 5.54574 1.05396 0
M  V30 134 N 11.8248 0.280983 1.55075 0
M  V30 135 C 12.7878 -0.590896 2.21452 0
M  V30 136 C 13.7878 -1.07682 1.19421 0
M  V30 137 O 14.9778 -0.97605 1.44288 0
M  V30 138 C 12.1098 -1.81587 2.88511 0
M  V30 139 H 13.3028 -0.0112554 2.99898 0
M  V30 140 H 10.8558 0.0316438 1.56268 0
M  V30 141 H 11.5908 -2.43587 2.14093 0
M  V30 142 H 11.3758 -1.4753 3.63287 0
M  V30 143 H 12.8658 -2.43575 3.39206 0
M  V30 144 N 13.3029 -1.57598 0.00835791 0
M  V30 145 C 14.2659 -2.07884 -0.965242 0
M  V30 146 C 15.2659 -0.989825 -1.26725 0
M  V30 147 O 16.4559 -1.25218 -1.21104 0
M  V30 148 C 13.5879 -2.52731 -2.28779 0
M  V30 149 H 14.7809 -2.95178 -0.530112 0
M  V30 150 H 12.3339 -1.54458 -0.239283 0
M  V30 151 H 13.0689 -1.68705 -2.76964 0
M  V30 152 H 12.8539 -3.32272 -2.08177 0
M  V30 153 H 14.3439 -2.91933 -2.98605 0
M  V30 154 N 14.781 0.264519 -1.55364 0
M  V30 155 C 16.029 0.993021 -1.76021 0
M  V30 156 C 16.35 1.86511 -0.569099 0
M  V30 157 O 15.62 1.91438 0.415735 0
M  V30 158 H 14.2 0.369639 -0.649135 0
M  V30 159 H 16.862 0.286707 -1.9278 0
M  V30 160 H 15.958 1.62502 -2.66457 0
M  V30 161 N 16.2591 1.48442 0.529413 0
M  V30 162 C 17.5071 1.56179 1.28267 0
M  V30 163 C 17.8281 0.237721 1.93546 0
M  V30 164 O 17.0981 -0.740779 1.81354 0
M  V30 165 H 15.6781 0.575367 0.476405 0
M  V30 166 H 18.3401 1.84909 0.61602 0
M  V30 167 H 17.4361 2.34312 2.06165 0
M  V30 168 N 17.7372 -0.778329 1.37039 0
M  V30 169 C 18.6672 -1.90546 1.34962 0
M  V30 170 C 19.6482 -1.68681 0.219274 0
M  V30 171 O 20.8332 -1.89634 0.418624 0
M  V30 172 C 17.9632 -3.27734 1.14925 0
M  V30 173 C 16.9172 -3.64147 2.24902 0
M  V30 174 C 16.2432 -4.99806 1.89996 0
M  V30 175 C 17.5432 -3.71579 3.67051 0
M  V30 176 H 19.2372 -1.92541 2.29277 0
M  V30 177 H 16.7832 -0.924948 1.10366 0
M  V30 178 H 18.7362 -4.06215 1.12104 0
M  V30 179 H 17.4602 -3.26154 0.170631 0
M  V30 180 H 16.1192 -2.8797 2.26868 0
M  V30 181 H 15.7672 -4.94759 0.906796 0
M  V30 182 H 15.4672 -5.25139 2.63634 0
M  V30 183 H 16.9912 -5.80694 1.88749 0
M  V30 184 H 18.4052 -4.40227 3.67251 0
M  V30 185 H 16.8022 -4.08405 4.39688 0
M  V30 186 H 17.8722 -2.72404 4.01154 0
M  V30 187 N 19.2153 -1.21501 -1.00376 0
M  V30 188 C 20.1473 -0.933174 -2.09343 0
M  V30 189 C 21.1603 0.0840896 -1.62583 0
M  V30 190 O 22.3493 -0.148563 -1.77881 0
M  V30 191 C 19.4493 -0.379869 -3.36764 0
M  V30 192 C 18.6223 -1.45176 -4.12605 0
M  V30 193 C 17.6813 -0.907476 -5.18316 0
M  V30 194 O 16.7073 -1.5912 -5.46507 0
M  V30 195 N 17.9093 0.276649 -5.7984 0
M  V30 196 H 20.6743 -1.87124 -2.34104 0
M  V30 197 H 18.2353 -1.12043 -1.16867 0
M  V30 198 H 20.2273 -0.00131488 -4.047 0
M  V30 199 H 18.7973 0.463048 -3.09151 0
M  V30 200 H 18.0173 -2.00411 -3.39454 0
M  V30 201 H 19.3053 -2.17328 -4.6005 0
M  V30 202 H 18.7033 0.849147 -5.59291 0
M  V30 203 H 17.2603 0.596702 -6.49063 0
M  V30 204 N 20.6934 1.19889 -1.02296 0
M  V30 205 C 21.6264 2.21639 -0.543282 0
M  V30 206 C 22.6044 1.57275 0.412698 0
M  V30 207 O 23.7884 1.85568 0.331198 0
M  V30 208 C 20.9154 3.38057 0.208571 0
M  V30 209 C 19.9614 4.20751 -0.697933 0
M  V30 210 S 20.7944 4.89529 -2.17075 0
M  V30 211 C 21.9504 6.09363 -1.42923 0
M  V30 212 H 22.1834 2.61984 -1.40541 0
M  V30 213 H 19.7164 1.30041 -0.832387 0
M  V30 214 H 21.6744 4.05539 0.63624 0
M  V30 215 H 20.3354 2.96159 1.04635 0
M  V30 216 H 19.5284 5.03862 -0.117831 0
M  V30 217 H 19.1304 3.58556 -1.06366 0
M  V30 218 H 21.4224 6.73742 -0.712637 0
M  V30 219 H 22.3654 6.71845 -2.23673 0
M  V30 220 H 22.7734 5.56798 -0.929327 0
M  V30 221 N 22.1715 0.800033 1.35784 0
M  V30 222 C 23.4205 0.37387 1.98205 0
M  V30 223 C 23.7335 -1.06302 1.64193 0
M  V30 224 O 24.9395 -1.59198 2.19928 0
M  V30 225 C 23.3955 0.617532 3.54562 0
M  V30 226 C 23.0035 2.06654 3.9749 0
M  V30 227 C 24.7475 0.256401 4.23725 0
M  V30 228 C 22.6545 2.2563 5.46667 0
M  V30 229 H 21.5845 0.136055 0.741623 0
M  V30 230 H 24.2355 0.983166 1.54939 0
M  V30 231 H 22.6175 -0.0616248 3.95952 0
M  V30 232 H 23.7915 2.78296 3.67271 0
M  V30 233 H 22.1065 2.38691 3.41197 0
M  V30 234 H 24.7035 0.376318 5.33374 0
M  V30 235 H 25.0465 -0.796692 4.08606 0
M  V30 236 H 25.5795 0.889214 3.87734 0
M  V30 237 H 22.3185 3.2936 5.66747 0
M  V30 238 H 21.8385 1.58504 5.78478 0
M  V30 239 H 23.5175 2.06861 6.1304 0
M  V30 240 N 23.6496 -1.47581 0.552962 0
M  V30 241 C 24.8976 -2.02082 0.0272703 0
M  V30 242 C 25.2186 -1.4301 -1.32563 0
M  V30 243 O 24.4886 -0.603745 -1.86365 0
M  V30 244 H 23.0686 -0.746966 0.00709182 0
M  V30 245 H 25.7306 -1.81033 0.722008 0
M  V30 246 H 24.8266 -3.12034 -0.0639951 0
M  V30 247 N 25.1277 -0.289203 -1.54924 0
M  V30 248 C 26.3527 0.329299 -2.04769 0
M  V30 249 C 26.7777 1.4763 -1.16564 0
M  V30 250 O 26.1357 1.80527 -0.167186 0
M  V30 251 C 26.1837 0.774438 -3.52186 0
M  V30 252 O 25.2877 1.88038 -3.67036 0
M  V30 253 H 24.6287 0.0659259 -0.660719 0
M  V30 254 H 27.1587 -0.42761 -2.00082 0
M  V30 255 H 27.1687 1.06642 -3.93816 0
M  V30 256 H 25.8437 -0.0646707 -4.1585 0
M  V30 257 H 24.4207 1.58985 -3.3731 0
M  V30 258 N 26.6058 1.57591 -0.0167156 0
M  V30 259 C 27.5388 2.04944 1.00366 0
M  V30 260 C 28.5168 0.942648 1.32487 0
M  V30 261 O 29.7008 1.21205 1.44367 0
M  V30 262 C 26.8278 2.46109 2.32697 0
M  V30 263 C 25.8738 3.67686 2.16123 0
M  V30 264 S 26.7068 5.14882 1.47161 0
M  V30 265 C 27.8628 5.59332 2.80888 0
M  V30 266 H 28.0958 2.91172 0.600528 0
M  V30 267 H 25.6288 1.53168 0.194632 0
M  V30 268 H 27.5868 2.70493 3.08778 0
M  V30 269 H 26.2478 1.6025 2.70146 0
M  V30 270 H 25.4408 3.94296 3.13922 0
M  V30 271 H 25.0428 3.43391 1.48185 0
M  V30 272 H 27.3348 5.62814 3.77156 0
M  V30 273 H 28.2778 6.5905 2.58958 0
M  V30 274 H 28.6858 4.86942 2.85565 0
M  V30 275 N 28.0839 -0.256276 1.55502 0
M  V30 276 C 29.3089 -1.00766 1.81276 0
M  V30 277 C 29.7339 -1.78524 0.59252 0
M  V30 278 O 29.0919 -1.75413 -0.45827 0
M  V30 279 C 29.1399 -1.92869 3.04687 0
M  V30 280 O 28.2439 -3.019 2.80945 0
M  V30 281 H 27.5849 -0.287224 0.598664 0
M  V30 282 H 30.1149 -0.280109 2.02674 0
M  V30 283 H 30.1249 -2.34511 3.33869 0
M  V30 284 H 28.7999 -1.35689 3.93143 0
M  V30 285 H 27.3769 -2.64454 2.62904 0
M  V30 286 N 29.562 -1.4872 -0.521534 0
M  V30 287 C 30.509 -1.63871 -1.62527 0
M  V30 288 C 31.479 -0.480559 -1.58996 0
M  V30 289 O 32.664 -0.705085 -1.77294 0
M  V30 290 C 29.804 -1.69227 -3.00759 0
M  V30 291 C 28.917 -2.96207 -3.14461 0
M  V30 292 C 28.052 -2.92671 -4.43303 0
M  V30 293 C 27.091 -4.14318 -4.50563 0
M  V30 294 N 26.228 -4.0881 -5.70805 0
M  V30 295 H 31.068 -2.58123 -1.48918 0
M  V30 296 H 28.605 -1.28 -0.724878 0
M  V30 297 H 30.563 -1.70314 -3.80853 0
M  V30 298 H 29.193 -0.784586 -3.1312 0
M  V30 299 H 28.245 -3.04826 -2.27564 0
M  V30 300 H 29.557 -3.86192 -3.15686 0
M  V30 301 H 28.711 -2.92206 -5.31696 0
M  V30 302 H 27.45 -2.00429 -4.44612 0
M  V30 303 H 26.455 -4.15049 -3.60575 0
M  V30 304 H 27.68 -5.07729 -4.50986 0
M  V30 305 H 25.626 -3.19394 -5.72995 0
M  V30 306 H 25.543 -4.92509 -5.7356 0
M  V30 307 H 26.811 -4.12418 -6.61462 0
M  V30 308 N 31.0401 0.771051 -1.3745 0
M  V30 309 C 32.3171 1.519 -1.23231 0
M  V30 310 C 32.6971 2.10383 0.173809 0
M  V30 311 O 32.0451 1.95583 1.18151 0
M  V30 312 C 32.2551 2.59933 -2.32886 0
M  V30 313 C 33.6031 3.27316 -2.70461 0
M  V30 314 O 34.6271 2.70228 -2.32068 0
M  V30 315 O 33.4861 4.30531 -3.36608 0
M  V30 316 H 30.5801 0.672803 -0.480901 0
M  V30 317 H 33.1261 0.807957 -1.49232 0
M  V30 318 H 31.8981 2.14842 -3.27045 0
M  V30 319 H 31.5211 3.38637 -2.08353 0
M  V30 320 N 32.5182 1.22032 0.997298 0
M  V30 321 C 33.4512 0.929735 2.08401 0
M  V30 322 C 34.4292 -0.125681 1.62114 0
M  V30 323 O 35.6132 0.00495409 1.88499 0
M  V30 324 C 32.7402 0.397488 3.3636 0
M  V30 325 C 31.7862 1.4369 4.01566 0
M  V30 326 S 32.6192 3.00874 4.42984 0
M  V30 327 C 33.7752 2.49276 5.74119 0
M  V30 328 H 34.0082 1.84998 2.32729 0
M  V30 329 H 31.5412 1.0509 1.13117 0
M  V30 330 H 33.4992 0.0969846 4.10385 0
M  V30 331 H 32.1602 -0.501571 3.10069 0
M  V30 332 H 31.3532 1.01427 4.93689 0
M  V30 333 H 30.9552 1.68588 3.33847 0
M  V30 334 H 33.2472 1.90242 6.50242 0
M  V30 335 H 34.1902 3.39872 6.21203 0
M  V30 336 H 34.5982 1.90714 5.31308 0
M  V30 337 N 33.9963 -1.19345 1.0293 0
M  V30 338 C 35.2263 -1.92717 0.744563 0
M  V30 339 C 35.6343 -1.75751 -0.700579 0
M  V30 340 O 34.9773 -1.07703 -1.48815 0
M  V30 341 C 35.0393 -3.44828 1.01657 0
M  V30 342 C 34.7033 -3.85564 2.45335 0
M  V30 343 C 35.7003 -3.90286 3.43472 0
M  V30 344 C 33.3853 -4.1719 2.79746 0
M  V30 345 C 35.3793 -4.26065 4.74075 0
M  V30 346 C 33.0663 -4.52642 4.10559 0
M  V30 347 C 34.0643 -4.57054 5.07534 0
M  V30 348 O 33.7523 -4.91685 6.36004 0
M  V30 349 H 33.4843 -0.618977 0.271742 0
M  V30 350 H 36.0383 -1.52415 1.37691 0
M  V30 351 H 34.2683 -3.85314 0.327084 0
M  V30 352 H 35.9573 -3.99437 0.721427 0
M  V30 353 H 36.7233 -3.66002 3.18225 0
M  V30 354 H 32.6023 -4.1294 2.04943 0
M  V30 355 H 36.1463 -4.29423 5.49765 0
M  V30 356 H 32.0433 -4.76383 4.35579 0
M  V30 357 H 32.8113 -5.09631 6.40483 0
M  V30 358 N 35.4744 -0.807222 -1.35358 0
M  V30 359 C 36.4064 -0.175717 -2.28525 0
M  V30 360 C 37.4194 0.625354 -1.5031 0
M  V30 361 O 38.6084 0.457611 -1.72535 0
M  V30 362 C 35.7084 0.773471 -3.29956 0
M  V30 363 C 34.8814 0.0186296 -4.37396 0
M  V30 364 C 33.9404 0.886395 -5.18681 0
M  V30 365 O 32.9664 0.337106 -5.68201 0
M  V30 366 N 34.1684 2.20839 -5.36852 0
M  V30 367 H 36.9334 -0.976091 -2.83359 0
M  V30 368 H 34.4944 -0.662737 -1.47714 0
M  V30 369 H 36.4864 1.35824 -3.81227 0
M  V30 370 H 35.0564 1.47465 -2.75632 0
M  V30 371 H 34.2764 -0.747349 -3.87051 0
M  V30 372 H 35.5644 -0.501577 -5.06322 0
M  V30 373 H 34.9624 2.67858 -4.98265 0
M  V30 374 H 33.5194 2.74237 -5.91301 0
M  V30 375 N 36.9525 1.47285 -0.560781 0
M  V30 376 C 38.2015 2.01668 -0.035895 0
M  V30 377 C 38.5145 1.44021 1.32353 0
M  V30 378 O 39.7205 1.90088 1.93853 0
M  V30 379 C 38.1765 3.59897 -0.0136659 0
M  V30 380 C 37.7845 4.26536 -1.37006 0
M  V30 381 C 39.5285 4.22017 0.458425 0
M  V30 382 C 37.4355 5.76782 -1.30675 0
M  V30 383 H 36.3655 0.753938 -0.00964879 0
M  V30 384 H 39.0165 1.69243 -0.709166 0
M  V30 385 H 37.3985 3.89301 0.725325 0
M  V30 386 H 38.5725 4.0877 -2.12705 0
M  V30 387 H 36.8875 3.76419 -1.78038 0
M  V30 388 H 39.4845 5.32124 0.524247 0
M  V30 389 H 39.8275 3.89437 1.4712 0
M  V30 390 H 40.3605 3.97159 -0.225818 0
M  V30 391 H 37.0995 6.13988 -2.29564 0
M  V30 392 H 36.6195 5.96875 -0.591622 0
M  V30 393 H 38.2985 6.39063 -1.01033 0
M  V30 394 N 38.4306 0.297415 1.54768 0
M  V30 395 C 39.3636 -0.622188 2.19554 0
M  V30 396 C 40.3416 -1.13558 1.16376 0
M  V30 397 O 41.5256 -1.20444 1.45002 0
M  V30 398 C 38.6526 -1.8509 2.83653 0
M  V30 399 C 37.6986 -1.47106 4.00328 0
M  V30 400 S 38.5316 -0.53006 5.3287 0
M  V30 401 C 39.6876 -1.76665 6.0045 0
M  V30 402 H 39.9206 -0.0717806 2.97213 0
M  V30 403 H 37.4536 0.0815678 1.54184 0
M  V30 404 H 39.4116 -2.55605 3.21211 0
M  V30 405 H 38.0726 -2.37247 2.05846 0
M  V30 406 H 37.2656 -2.38594 4.43947 0
M  V30 407 H 36.8676 -0.845885 3.64309 0
M  V30 408 H 39.1596 -2.7077 6.21039 0
M  V30 409 H 40.1026 -1.37308 6.9466 0
M  V30 410 H 40.5106 -1.94174 5.30054 0
M  V30 411 N 39.9087 -1.5758 0.0250728 0
M  V30 412 C 41.1857 -1.82917 -0.692873 0
M  V30 413 C 41.5657 -0.908137 -1.90568 0
M  V30 414 O 40.9137 0.0372298 -2.2847 0
M  V30 415 C 41.1237 -3.32034 -1.07492 0
M  V30 416 C 42.4717 -3.98406 -1.46826 0
M  V30 417 O 43.4957 -3.36505 -1.16801 0
M  V30 418 O 42.3547 -5.07497 -2.02754 0
M  V30 419 H 39.4487 -0.754079 -0.33955 0
M  V30 420 H 41.9947 -1.69619 0.0524456 0
M  V30 421 H 40.7667 -3.90728 -0.211552 0
M  V30 422 H 40.3897 -3.50424 -1.87854 0
M  V30 423 N 41.3868 0.248026 -1.55636 0
M  V30 424 C 42.2968 1.32859 -1.93354 0
M  V30 425 C 43.3128 1.52719 -0.833838 0
M  V30 426 O 44.4888 1.66363 -1.13513 0
M  V30 427 C 41.5538 2.66337 -2.21958 0
M  V30 428 C 40.6148 2.55008 -3.45354 0
M  V30 429 C 39.8478 3.82121 -3.72584 0
M  V30 430 O 40.0708 4.83951 -3.01907 0
M  V30 431 O 39.0048 3.80822 -4.6611 0
M  V30 432 H 42.8308 1.03862 -2.85388 0
M  V30 433 H 40.4158 0.448686 -1.42503 0
M  V30 434 H 42.2978 3.45216 -2.4167 0
M  V30 435 H 40.9728 2.95068 -1.33103 0
M  V30 436 H 39.8798 1.7442 -3.30951 0
M  V30 437 H 41.2128 2.31222 -4.34508 0
M  V30 438 N 42.8649 1.48995 0.513639 0
M  V30 439 C 44.1139 1.57093 1.2651 0
M  V30 440 C 44.4269 0.257091 1.93903 0
M  V30 441 O 45.6329 0.216478 2.70636 0
M  V30 442 C 44.0889 2.77118 2.29638 0
M  V30 443 C 43.6969 4.15209 1.68241 0
M  V30 444 C 45.4409 2.94538 3.05692 0
M  V30 445 C 43.3479 5.26474 2.69406 0
M  V30 446 H 42.2779 0.584876 0.475854 0
M  V30 447 H 44.9289 1.7536 0.540487 0
M  V30 448 H 43.3109 2.52319 3.05207 0
M  V30 449 H 44.4849 4.50094 0.987505 0
M  V30 450 H 42.7999 4.03042 1.04623 0
M  V30 451 H 45.3969 3.74832 3.8132 0
M  V30 452 H 45.7399 2.04614 3.62545 0
M  V30 453 H 46.2729 3.19316 2.37238 0
M  V30 454 H 43.0119 6.18417 2.17351 0
M  V30 455 H 42.5319 4.96058 3.37175 0
M  V30 456 H 44.2109 5.55277 3.32078 0
M  V30 457 N 44.343 -0.763751 1.37857 0
M  V30 458 C 45.29 -1.87726 1.34267 0
M  V30 459 C 46.26 -1.64807 0.206879 0
M  V30 460 O 47.445 -1.86613 0.397508 0
M  V30 461 C 44.585 -3.24896 1.16346 0
M  V30 462 C 43.698 -3.59716 2.39225 0
M  V30 463 C 42.833 -4.86137 2.14114 0
M  V30 464 C 41.872 -5.13711 3.32817 0
M  V30 465 N 41.009 -6.31323 3.07206 0
M  V30 466 H 45.849 -1.90129 2.29466 0
M  V30 467 H 43.386 -0.929433 1.14017 0
M  V30 468 H 45.344 -4.04036 1.03975 0
M  V30 469 H 43.974 -3.21847 0.247909 0
M  V30 470 H 43.026 -2.75498 2.62307 0
M  V30 471 H 44.338 -3.76027 3.27728 0
M  V30 472 H 43.492 -5.73198 1.9882 0
M  V30 473 H 42.231 -4.71945 1.22961 0
M  V30 474 H 41.236 -4.25123 3.48641 0
M  V30 475 H 42.461 -5.29807 4.24832 0
M  V30 476 H 40.407 -6.18474 2.1869 0
M  V30 477 H 40.324 -6.48087 3.89254 0
M  V30 478 H 41.592 -7.213 2.95546 0
M  V30 479 N 45.8211 -1.22559 -0.990812 0
M  V30 480 C 46.7311 -1.01394 -2.11557 0
M  V30 481 C 47.7471 0.0383962 -1.73958 0
M  V30 482 O 48.9231 -0.154787 -2.00804 0
M  V30 483 C 45.9881 -0.596569 -3.41529 0
M  V30 484 C 45.0491 -1.72276 -3.93217 0
M  V30 485 C 44.2821 -1.32521 -5.16985 0
M  V30 486 O 44.5051 -0.204909 -5.70032 0
M  V30 487 O 43.4391 -2.14247 -5.62478 0
M  V30 488 H 47.2651 -1.95633 -2.32296 0
M  V30 489 H 44.8501 -1.01172 -1.0993 0
M  V30 490 H 46.7321 -0.374263 -4.19735 0
M  V30 491 H 45.4071 0.316939 -3.22145 0
M  V30 492 H 44.3141 -1.99961 -3.16174 0
M  V30 493 H 45.6471 -2.61421 -4.17037 0
M  V30 494 N 47.2992 1.18797 -1.03562 0
M  V30 495 C 48.5472 1.88278 -0.734569 0
M  V30 496 C 48.8682 1.8043 0.739586 0
M  V30 497 O 48.1382 1.21925 1.53333 0
M  V30 498 H 46.7182 0.696991 -0.268725 0
M  V30 499 H 49.3802 1.44192 -1.31129 0
M  V30 500 H 48.4762 2.94443 -1.03489 0
M  V30 501 N 48.7773 0.814389 1.34928 0
M  V30 502 C 50.0263 0.394871 1.97797 0
M  V30 503 C 50.3393 -1.04555 1.65311 0
M  V30 504 O 51.5453 -1.56856 2.21604 0
M  V30 505 C 50.0013 0.655103 3.53888 0
M  V30 506 C 49.6093 2.10858 3.95276 0
M  V30 507 C 51.3533 0.301329 4.23429 0
M  V30 508 C 49.2603 2.31415 5.44244 0
M  V30 509 H 48.1903 0.143913 0.740139 0
M  V30 510 H 50.8413 0.999544 1.53888 0
M  V30 511 H 49.2233 -0.0196253 3.95995 0
M  V30 512 H 50.3973 2.82176 3.64298 0
M  V30 513 H 48.7123 2.42297 3.38646 0
M  V30 514 H 51.3093 0.432869 5.32945 0
M  V30 515 H 51.6523 -0.75331 4.09428 0
M  V30 516 H 52.1853 0.930288 3.86769 0
M  V30 517 H 48.9243 3.35353 5.63222 0
M  V30 518 H 48.4443 1.6463 5.76764 0
M  V30 519 H 50.1233 2.13352 6.10811 0
M  V30 520 N 50.2554 -1.46986 0.568584 0
M  V30 521 C 51.1874 -2.28233 -0.210337 0
M  V30 522 C 52.2004 -1.37682 -0.868767 0
M  V30 523 O 53.3894 -1.62406 -0.740705 0
M  V30 524 C 50.4894 -3.12293 -1.3163 0
M  V30 525 C 49.6624 -4.30878 -0.7525 0
M  V30 526 C 48.7214 -4.96445 -1.74439 0
M  V30 527 O 47.7474 -5.54482 -1.286 0
M  V30 528 N 48.9494 -4.92171 -3.07812 0
M  V30 529 H 51.7144 -2.95723 0.486648 0
M  V30 530 H 49.2754 -1.56742 0.405409 0
M  V30 531 H 51.2674 -3.53022 -1.97883 0
M  V30 532 H 49.8374 -2.46971 -1.91636 0
M  V30 533 H 49.0574 -3.94104 0.0871128 0
M  V30 534 H 50.3454 -5.07558 -0.35536 0
M  V30 535 H 49.7434 -4.46239 -3.47688 0
M  V30 536 H 48.3004 -5.36884 -3.69592 0
M  V30 537 N 51.7335 -0.305618 -1.54608 0
M  V30 538 C 52.9635 0.304333 -2.04346 0
M  V30 539 C 53.3715 1.47715 -1.18224 0
M  V30 540 O 52.7145 1.82591 -0.201577 0
M  V30 541 C 52.7765 0.819031 -3.50046 0
M  V30 542 C 52.4405 -0.22912 -4.56425 0
M  V30 543 C 53.4375 -1.05914 -5.08997 0
M  V30 544 C 51.1225 -0.372148 -5.0092 0
M  V30 545 C 53.1165 -2.01809 -6.04609 0
M  V30 546 C 50.8035 -1.33454 -5.9635 0
M  V30 547 C 51.8015 -2.15599 -6.48079 0
M  V30 548 O 51.4895 -3.10205 -7.41639 0
M  V30 549 H 51.2215 0.0693996 -0.672428 0
M  V30 550 H 53.7755 -0.444548 -2.00532 0
M  V30 551 H 52.0055 1.61852 -3.51199 0
M  V30 552 H 53.6945 1.34537 -3.82955 0
M  V30 553 H 54.4605 -0.959538 -4.75413 0
M  V30 554 H 50.3395 0.257304 -4.60281 0
M  V30 555 H 53.8835 -2.65966 -6.44909 0
M  V30 556 H 49.7805 -1.43485 -6.29351 0
M  V30 557 H 50.5485 -3.05237 -7.59455 0
M  V30 558 N 53.2116 1.57565 -0.0334293 0
M  V30 559 C 54.4576 1.92262 0.645226 0
M  V30 560 C 54.7906 0.910543 1.71531 0
M  V30 561 O 54.0656 -0.066099 1.94388 0
M  V30 562 C 54.3486 3.37422 1.2577 0
M  V30 563 C 54.2016 4.49369 0.196891 0
M  V30 564 C 55.5206 3.82628 2.17449 0
M  V30 565 H 52.6396 0.699171 0.233085 0
M  V30 566 H 55.2816 1.89779 -0.0915694 0
M  V30 567 H 53.4316 3.39669 1.88566 0
M  V30 568 H 55.1036 4.59254 -0.433962 0
M  V30 569 H 53.3466 4.31168 -0.477137 0
M  V30 570 H 54.0176 5.47978 0.665124 0
M  V30 571 H 56.4936 3.82145 1.64634 0
M  V30 572 H 55.3696 4.84883 2.57254 0
M  V30 573 H 55.6306 3.18376 3.0674 0
M  V30 574 N 54.6897 -0.239769 1.55765 0
M  V30 575 C 55.9367 -0.966801 1.7793 0
M  V30 576 C 56.2647 -1.85046 0.599015 0
M  V30 577 O 55.5197 -1.91197 -0.417395 0
M  V30 578 C 55.8187 -1.852 3.05672 0
M  V30 579 C 55.4847 -1.1231 4.36689 0
M  V30 580 C 54.1467 -0.921689 4.72291 0
M  V30 581 C 56.4987 -0.607019 5.17653 0
M  V30 582 C 53.8267 -0.191996 5.86386 0
M  V30 583 C 56.1787 0.109241 6.32506 0
M  V30 584 C 54.8427 0.322073 6.66723 0
M  V30 585 H 54.1127 -0.353778 0.651093 0
M  V30 586 H 56.7597 -0.23634 1.90036 0
M  V30 587 H 55.0647 -2.64975 2.8861 0
M  V30 588 H 56.7617 -2.41635 3.20021 0
M  V30 589 H 53.3517 -1.29004 4.08725 0
M  V30 590 H 57.5357 -0.750153 4.90598 0
M  V30 591 H 52.7917 -0.0166949 6.11398 0
M  V30 592 H 56.9657 0.516737 6.9448 0
M  V30 593 H 54.5927 0.88944 7.54979 0
M  V30 594 N 56.1678 -1.49265 -0.50573 0
M  V30 595 C 57.0998 -1.617 -1.62437 0
M  V30 596 C 58.1128 -0.499924 -1.54934 0
M  V30 597 O 59.3018 -0.771785 -1.60953 0
M  V30 598 C 56.4018 -1.5533 -3.01207 0
M  V30 599 C 55.5748 -2.8249 -3.33943 0
M  V30 600 C 54.6338 -2.69238 -4.52103 0
M  V30 601 O 53.6598 -3.43167 -4.5412 0
M  V30 602 N 54.8618 -1.80468 -5.51735 0
M  V30 603 H 57.6268 -2.58177 -1.52199 0
M  V30 604 H 55.1878 -1.46294 -0.693511 0
M  V30 605 H 57.1798 -1.44125 -3.78167 0
M  V30 606 H 55.7498 -0.667297 -3.05395 0
M  V30 607 H 54.9698 -3.08081 -2.45926 0
M  V30 608 H 56.2578 -3.66802 -3.5261 0
M  V30 609 H 55.6558 -1.19653 -5.52901 0
M  V30 610 H 54.2128 -1.75188 -6.27816 0
M  V30 611 N 57.6459 0.756429 -1.3826 0
M  V30 612 C 58.8739 1.54565 -1.3754 0
M  V30 613 C 59.2889 1.88767 0.0355331 0
M  V30 614 O 58.6459 1.52572 1.0014 0
M  V30 615 C 58.6969 2.84654 -2.22833 0
M  V30 616 O 58.4179 2.51912 -3.5843 0
M  V30 617 C 59.9189 3.78807 -2.30261 0
M  V30 618 H 57.1389 0.478353 -0.470553 0
M  V30 619 H 59.6829 0.936381 -1.81803 0
M  V30 620 H 57.8379 3.41965 -1.8204 0
M  V30 621 H 58.2519 3.35325 -4.03308 0
M  V30 622 H 59.7259 4.67045 -2.94233 0
M  V30 623 H 60.2029 4.19038 -1.31545 0
M  V30 624 H 60.8089 3.2742 -2.71433 0
M  V30 625 N 59.124 1.23083 0.984299 0
M  V30 626 C 60.54 0.992637 1.24975 0
M  V30 627 C 60.74 -0.308618 1.99123 0
M  V30 628 O 59.796 -1.02905 2.30579 0
M  V30 629 C 61.109 2.19698 2.05312 0
M  V30 630 C 62.657 2.24147 2.18465 0
M  V30 631 C 63.132 3.44157 3.02192 0
M  V30 632 N 64.623 3.44372 3.09777 0
M  V30 633 C 65.358 4.33886 3.74874 0
M  V30 634 N 64.854 5.3363 4.41827 0
M  V30 635 N 66.647 4.21639 3.71721 0
M  V30 636 H 58.798 2.06731 0.487453 0
M  V30 637 H 61.061 0.906339 0.277944 0
M  V30 638 H 60.767 3.1411 1.58201 0
M  V30 639 H 60.641 2.20465 3.06064 0
M  V30 640 H 63.028 1.30277 2.64786 0
M  V30 641 H 63.109 2.27415 1.17115 0
M  V30 642 H 62.753 4.38332 2.56568 0
M  V30 643 H 62.683 3.3813 4.03702 0
M  V30 644 H 65.174 2.72201 2.62135 0
M  V30 645 H 65.487 5.98196 4.89266 0
M  V30 646 H 63.832 5.37534 4.40548 0
M  V30 647 H 67.023 3.42962 3.18582 0
M  V30 648 H 67.196 4.91604 4.22173 0
M  V30 649 N 60.6021 -1.18246 1.0419 0
M  V30 650 C 61.5501 -2.23968 0.627792 0
M  V30 651 C 62.5441 -1.65828 -0.346019 0
M  V30 652 O 63.7501 -1.78733 -0.213175 0
M  V30 653 H 60.1251 -0.728939 0.184802 0
M  V30 654 H 62.0961 -2.56202 1.52981 0
M  V30 655 C 60.8451 -3.47699 0.00796591 0
M  V30 656 H 60.1681 -3.92734 0.748347 0
M  V30 657 H 61.6081 -4.23294 -0.24455 0
M  V30 658 C 60.0671 -3.13153 -1.24246 0
M  V30 659 O 60.5971 -3.27003 -2.33307 0
M  V30 660 N 58.8031 -2.67467 -1.13622 0
M  V30 661 H 58.3501 -2.56396 -0.248734 0
M  V30 662 H 58.3081 -2.44724 -1.97377 0
M  V30 663 N 62.0802 -0.821533 -1.34494 0
M  V30 664 C 63.4912 -0.467956 -1.8074 0
M  V30 665 C 63.8422 1.01151 -1.68116 0
M  V30 666 O 62.9672 1.78707 -1.22036 0
M  V30 667 C 63.5622 -0.842627 -3.28154 0
M  V30 668 C 62.1212 -0.541439 -3.72485 0
M  V30 669 C 61.2682 -1.06028 -2.56229 0
M  V30 670 H 64.2192 -1.01183 -1.22261 0
M  V30 671 H 64.2402 -0.145876 -3.8022 0
M  V30 672 H 63.7522 -1.91945 -3.37311 0
M  V30 673 H 61.8532 0.526034 -3.68868 0
M  V30 674 H 61.9662 -1.08453 -4.66663 0
M  V30 675 H 60.3302 -0.481892 -2.501 0
M  V30 676 H 61.1132 -2.14352 -2.68157 0
M  V30 677 N 63.5583 1.46682 -0.576371 0
M  V30 678 C 64.4883 2.33028 0.148397 0
M  V30 679 C 65.4693 1.44961 0.889956 0
M  V30 680 O 66.6543 1.73789 0.866662 0
M  V30 681 C 63.7843 3.27117 1.1667 0
M  V30 682 C 62.7383 4.24575 0.540386 0
M  V30 683 C 62.0643 5.08126 1.6647 0
M  V30 684 C 63.3643 5.19722 -0.518331 0
M  V30 685 H 65.0583 2.93875 -0.572509 0
M  V30 686 H 62.6043 1.41315 -0.276768 0
M  V30 687 H 64.5573 3.86374 1.68204 0
M  V30 688 H 63.2813 2.64364 1.9178 0
M  V30 689 H 61.9403 3.66571 0.0461769 0
M  V30 690 H 61.5883 4.41762 2.40531 0
M  V30 691 H 61.2883 5.74122 1.25131 0
M  V30 692 H 62.8123 5.70246 2.18293 0
M  V30 693 H 64.2263 5.73232 -0.0883058 0
M  V30 694 H 62.6233 5.94026 -0.851679 0
M  V30 695 H 63.6933 4.64037 -1.40703 0
M  V30 696 N 65.0364 0.313813 1.54444 0
M  V30 697 C 66.2644 -0.293918 2.04802 0
M  V30 698 C 66.6794 -1.46537 1.19047 0
M  V30 699 O 66.0364 -1.81182 0.218939 0
M  V30 700 C 66.0874 -0.737806 3.53891 0
M  V30 701 O 65.8084 0.387038 4.36387 0
M  V30 702 C 67.3094 -1.40936 4.203 0
M  V30 703 H 64.5294 -0.0620057 0.668129 0
M  V30 704 H 67.0734 0.457169 1.99324 0
M  V30 705 H 65.2284 -1.43889 3.59687 0
M  V30 706 H 65.6424 0.0391274 5.24485 0
M  V30 707 H 67.1164 -1.67099 5.26101 0
M  V30 708 H 67.5934 -2.35355 3.70816 0
M  V30 709 H 68.1994 -0.751117 4.18615 0
M  V30 710 N 66.5145 -1.57545 0.0417849 0
M  V30 711 C 67.4445 -2.14009 -0.933929 0
M  V30 712 C 68.4255 -1.05938 -1.33083 0
M  V30 713 O 69.6105 -1.33833 -1.40721 0
M  V30 714 C 66.7405 -2.67747 -2.21199 0
M  V30 715 C 65.6945 -3.80718 -1.95544 0
M  V30 716 C 65.0205 -4.20935 -3.29724 0
M  V30 717 C 66.3205 -5.06258 -1.28452 0
M  V30 718 H 68.0145 -2.95788 -0.463645 0
M  V30 719 H 65.5605 -1.42285 -0.221573 0
M  V30 720 H 67.5135 -3.05886 -2.89848 0
M  V30 721 H 66.2375 -1.83147 -2.70416 0
M  V30 722 H 64.8965 -3.43037 -1.2931 0
M  V30 723 H 64.5445 -3.33298 -3.76724 0
M  V30 724 H 64.2445 -4.9707 -3.13361 0
M  V30 725 H 65.7685 -4.61666 -3.9962 0
M  V30 726 H 67.1825 -5.41903 -1.8712 0
M  V30 727 H 65.5795 -5.87475 -1.22445 0
M  V30 728 H 66.6495 -4.84207 -0.259219 0
M  V30 729 N 67.9926 0.231505 -1.5589 0
M  V30 730 C 69.2386 0.95877 -1.78705 0
M  V30 731 C 69.5716 1.8438 -0.609725 0
M  V30 732 O 68.8466 1.90521 0.391426 0
M  V30 733 C 69.1296 1.8062 -3.11526 0
M  V30 734 C 68.9826 0.948328 -4.39689 0
M  V30 735 C 70.3016 2.78585 -3.40703 0
M  V30 736 H 67.4206 0.347129 -0.650131 0
M  V30 737 H 70.0626 0.228259 -1.88624 0
M  V30 738 H 68.2126 2.42902 -3.03201 0
M  V30 739 H 69.8846 0.343016 -4.60023 0
M  V30 740 H 68.1276 0.253314 -4.3306 0
M  V30 741 H 68.7986 1.57543 -5.29041 0
M  V30 742 H 71.2746 2.26439 -3.49091 0
M  V30 743 H 70.1506 3.34988 -4.34826 0
M  V30 744 H 70.4116 3.55825 -2.62375 0
M  V30 745 N 69.4707 1.49531 0.497807 0
M  V30 746 C 70.7197 1.58426 1.24837 0
M  V30 747 C 71.0327 0.277643 1.93619 0
M  V30 748 O 72.2387 0.24517 2.70391 0
M  V30 749 C 70.6947 2.79538 2.26686 0
M  V30 750 C 70.3027 4.16971 1.63828 0
M  V30 751 C 72.0467 2.97764 3.0255 0
M  V30 752 C 69.9537 5.29301 2.63807 0
M  V30 753 H 68.8837 0.58989 0.469623 0
M  V30 754 H 71.5347 1.75923 0.521857 0
M  V30 755 H 69.9167 2.55542 3.02514 0
M  V30 756 H 71.0907 4.51116 0.939711 0
M  V30 757 H 69.4057 4.04129 1.00342 0
M  V30 758 H 72.0027 3.78856 3.77323 0
M  V30 759 H 72.3457 2.08448 3.60354 0
M  V30 760 H 72.8787 3.21815 2.33838 0
M  V30 761 H 69.6177 6.20687 2.10779 0
M  V30 762 H 69.1377 4.99606 3.31894 0
M  V30 763 H 70.8167 5.58768 3.2617 0
M  V30 764 N 70.9488 -0.749086 1.3866 0
M  V30 765 C 72.1738 -1.54344 1.38538 0
M  V30 766 C 72.5988 -1.88088 -0.0216655 0
M  V30 767 O 71.9568 -1.50899 -1.00494 0
M  V30 768 C 72.0048 -2.8164 2.25192 0
M  V30 769 O 71.1088 -3.7698 1.67212 0
M  V30 770 H 70.4498 -0.466654 0.472367 0
M  V30 771 H 72.9798 -0.925355 1.82478 0
M  V30 772 H 72.9898 -3.30519 2.3921 0
M  V30 773 H 71.6648 -2.56411 3.27454 0
M  V30 774 H 70.2418 -3.35699 1.6236 0
M  V30 775 N 72.4269 -1.23603 -0.977757 0
M  V30 776 C 73.6749 -1.06759 -1.71601 0
M  V30 777 C 73.9959 0.395929 -1.90938 0
M  V30 778 O 73.2659 1.28356 -1.47992 0
M  V30 779 H 71.8459 -0.392062 -0.635843 0
M  V30 780 H 74.5079 -1.55362 -1.1768 0
M  V30 781 H 73.6039 -1.55763 -2.70452 0
M  V30 782 N 73.905 1.17692 -1.04816 0
M  V30 783 C 75.13 1.92327 -0.776207 0
M  V30 784 C 75.555 1.76082 0.661581 0
M  V30 785 O 74.913 1.076 1.45917 0
M  V30 786 C 74.961 3.41539 -1.15687 0
M  V30 787 O 74.065 4.11402 -0.286775 0
M  V30 788 H 73.406 0.599735 -0.284981 0
M  V30 789 H 75.936 1.49201 -1.4 0
M  V30 790 H 75.946 3.92269 -1.12202 0
M  V30 791 H 74.621 3.52684 -2.20425 0
M  V30 792 H 73.198 3.70939 -0.381903 0
M  V30 793 N 75.3831 0.828654 1.34056 0
M  V30 794 C 76.6311 0.41863 1.97717 0
M  V30 795 C 76.9521 -1.02314 1.66002 0
M  V30 796 O 76.2221 -1.71119 0.953683 0
M  V30 797 H 74.8021 0.151809 0.731412 0
M  V30 798 H 77.4641 1.05936 1.63596 0
M  V30 799 H 76.5601 0.542318 3.07352 0
M  V30 800 N 76.8612 -1.46375 0.584142 0
M  V30 801 C 77.8112 -2.27371 -0.169232 0
M  V30 802 C 78.7952 -1.35955 -0.860523 0
M  V30 803 O 79.9872 -1.60119 -0.754382 0
M  V30 804 C 77.1162 -3.22334 -1.18134 0
M  V30 805 C 76.2022 -4.21235 -0.492088 0
M  V30 806 N 76.5932 -5.03766 0.453129 0
M  V30 807 C 74.8912 -4.39773 -0.742652 0
M  V30 808 C 75.5922 -5.75366 0.85609 0
M  V30 809 N 74.5682 -5.43214 0.204926 0
M  V30 810 H 78.3702 -2.88572 0.557097 0
M  V30 811 H 75.8842 -1.57242 0.406042 0
M  V30 812 H 77.8812 -3.79071 -1.73525 0
M  V30 813 H 76.5412 -2.62693 -1.90847 0
M  V30 814 H 77.5522 -5.11227 0.828723 0
M  V30 815 H 74.2292 -3.91279 -1.45625 0
M  V30 816 H 75.6192 -6.5172 1.63434 0
M  V30 817 N 78.3393 -0.321999 -1.54275 0
M  V30 818 C 79.5793 0.281657 -2.0245 0
M  V30 819 C 79.9433 1.49468 -1.20513 0
M  V30 820 O 81.1443 2.17109 -1.58484 0
M  V30 821 C 79.4153 0.609014 -3.52173 0
M  V30 822 S 80.9743 1.19255 -4.22284 0
M  V30 823 H 77.7923 0.0852825 -0.705867 0
M  V30 824 H 80.3943 -0.454758 -1.90137 0
M  V30 825 H 79.0983 -0.281982 -4.0943 0
M  V30 826 H 78.6293 1.37567 -3.68563 0
M  V30 827 H 80.6443 2.47944 -4.29812 0
M  V30 828 N 79.8174 1.5752 -0.0501392 0
M  V30 829 C 80.7804 2.1037 0.909786 0
M  V30 830 C 81.7804 1.02308 1.24056 0
M  V30 831 O 82.9704 1.28385 1.17741 0
M  V30 832 C 80.1024 2.58708 2.21998 0
M  V30 833 H 81.2954 2.96479 0.451665 0
M  V30 834 H 78.8484 1.55038 0.198248 0
M  V30 835 H 79.5834 1.75989 2.72394 0
M  V30 836 H 79.3684 3.37675 1.99295 0
M  V30 837 H 80.8584 2.99747 2.9076 0
M  V30 838 N 81.2955 -0.223234 1.56011 0
M  V30 839 C 82.2255 -1.27988 1.95298 0
M  V30 840 C 83.2065 -1.48976 0.820979 0
M  V30 841 O 84.3915 -1.61188 1.08315 0
M  V30 842 C 81.5215 -2.63 2.26822 0
M  V30 843 C 80.4755 -2.56671 3.42497 0
M  V30 844 C 79.8015 -3.95697 3.59622 0
M  V30 845 C 81.1015 -2.11601 4.77517 0
M  V30 846 H 82.7955 -0.953525 2.8381 0
M  V30 847 H 80.3415 -0.457244 1.36548 0
M  V30 848 H 82.2945 -3.37077 2.52898 0
M  V30 849 H 81.0185 -2.9732 1.35161 0
M  V30 850 H 79.6775 -1.85051 3.16467 0
M  V30 851 H 79.3255 -4.27322 2.6534 0
M  V30 852 H 79.0255 -3.92345 4.37424 0
M  V30 853 H 80.5495 -4.71438 3.88044 0
M  V30 854 H 81.9635 -2.7542 5.02809 0
M  V30 855 H 80.3605 -2.19311 5.5859 0
M  V30 856 H 81.4305 -1.06824 4.72987 0
M  V30 857 N 82.7736 -1.49793 -0.48987 0
M  V30 858 C 83.6836 -1.70036 -1.61632 0
M  V30 859 C 84.6996 -0.583102 -1.63939 0
M  V30 860 O 85.8756 -0.859169 -1.82154 0
M  V30 861 C 82.9406 -1.77277 -2.97949 0
M  V30 862 C 82.0016 -3.00918 -3.06181 0
M  V30 863 C 81.2346 -3.07804 -4.35996 0
M  V30 864 O 81.4576 -2.21982 -5.25433 0
M  V30 865 O 80.3916 -4.00369 -4.49431 0
M  V30 866 H 84.2176 -2.65486 -1.47482 0
M  V30 867 H 81.8026 -1.33666 -0.667362 0
M  V30 868 H 83.6846 -1.84329 -3.78947 0
M  V30 869 H 82.3596 -0.850076 -3.12339 0
M  V30 870 H 81.2666 -2.99377 -2.2433 0
M  V30 871 H 82.5996 -3.92704 -2.96723 0
M  V30 872 N 84.2517 0.741722 -1.39055 0
M  V30 873 C 85.2147 1.83733 -1.37021 0
M  V30 874 C 86.2147 1.58542 -0.268534 0
M  V30 875 O 87.4047 1.66067 -0.526076 0
M  V30 876 C 84.5367 3.2141 -1.13617 0
M  V30 877 H 85.7297 1.86941 -2.34506 0
M  V30 878 H 83.2827 0.944676 -1.24521 0
M  V30 879 H 84.0177 3.23865 -0.167863 0
M  V30 880 H 83.8027 3.4109 -1.93391 0
M  V30 881 H 85.2927 4.01477 -1.14918 0
M  V30 882 N 85.7298 1.2412 0.971189 0
M  V30 883 C 86.6928 1.03156 2.04674 0
M  V30 884 C 87.6928 -0.00990322 1.60797 0
M  V30 885 O 88.8828 0.230729 1.72665 0
M  V30 886 C 86.0148 0.562765 3.36223 0
M  V30 887 H 87.2078 1.98614 2.24705 0
M  V30 888 H 84.7608 1.06293 1.14593 0
M  V30 889 H 85.4958 -0.395176 3.21883 0
M  V30 890 H 85.2808 1.31441 3.69413 0
M  V30 891 H 86.7708 0.437015 4.15307 0
M  V30 892 N 87.2079 -1.17134 1.05439 0
M  V30 893 C 88.1379 -2.2342 0.678649 0
M  V30 894 C 89.1189 -1.66971 -0.32476 0
M  V30 895 O 90.3039 -1.93149 -0.201802 0
M  V30 896 C 87.4339 -3.47256 0.0552099 0
M  V30 897 C 86.3879 -4.16543 0.98365 0
M  V30 898 C 85.7139 -5.34231 0.223961 0
M  V30 899 C 87.0139 -4.68495 2.3089 0
M  V30 900 H 88.7079 -2.55105 1.56722 0
M  V30 901 H 86.2539 -1.2262 0.754998 0
M  V30 902 H 88.2069 -4.20828 -0.21946 0
M  V30 903 H 86.9309 -3.14846 -0.868319 0
M  V30 904 H 85.5899 -3.44887 1.24293 0
M  V30 905 H 85.2379 -4.98071 -0.702412 0
M  V30 906 H 84.9379 -5.81527 0.842627 0
M  V30 907 H 86.4619 -6.10585 -0.0433671 0
M  V30 908 H 87.8759 -5.33691 2.09396 0
M  V30 909 H 86.2729 -5.26379 2.88176 0
M  V30 910 H 87.3429 -3.85169 2.94572 0
M  V30 911 N 88.686 -0.835752 -1.33615 0
M  V30 912 C 89.932 -0.430596 -1.98176 0
M  V30 913 C 90.265 1.00684 -1.66061 0
M  V30 914 O 89.54 1.70339 -0.938877 0
M  V30 915 C 89.823 -0.648065 -3.5422 0
M  V30 916 C 89.676 -2.13255 -3.96033 0
M  V30 917 C 90.995 -0.0922113 -4.40003 0
M  V30 918 H 88.114 -0.157924 -0.719881 0
M  V30 919 H 90.756 -1.05069 -1.58305 0
M  V30 920 H 88.906 -0.120237 -3.88314 0
M  V30 921 H 90.578 -2.725 -3.72211 0
M  V30 922 H 88.821 -2.61823 -3.45878 0
M  V30 923 H 89.492 -2.23547 -5.04708 0
M  V30 924 H 91.968 -0.543343 -4.12537 0
M  V30 925 H 90.844 -0.274083 -5.48215 0
M  V30 926 H 91.105 1.00378 -4.30554 0
M  V30 927 N 90.1641 1.46063 -0.591896 0
M  V30 928 C 91.1121 2.32124 0.148739 0
M  V30 929 C 92.1061 1.45035 0.875286 0
M  V30 930 O 93.3121 1.61609 0.792632 0
M  V30 931 H 89.6871 0.749024 0.066832 0
M  V30 932 H 91.6581 2.92392 -0.595783 0
M  V30 933 C 90.4071 3.28373 1.1431 0
M  V30 934 H 89.7301 3.95371 0.59346 0
M  V30 935 H 91.1701 3.91352 1.63155 0
M  V30 936 C 89.6291 2.54393 2.20875 0
M  V30 937 O 90.1591 2.31373 3.28374 0
M  V30 938 N 88.3651 2.14797 1.95731 0
M  V30 939 H 87.9121 2.33719 1.08319 0
M  V30 940 H 87.8701 1.65619 2.67241 0
M  V30 941 N 91.6422 0.330177 1.54103 0
M  V30 942 C 92.8882 -0.270806 2.00984 0
M  V30 943 C 93.2212 -1.51265 1.21789 0
M  V30 944 O 92.4962 -1.92142 0.301927 0
M  V30 945 C 92.7792 -0.598339 3.55094 0
M  V30 946 C 92.6322 0.654674 4.4501 0
M  V30 947 C 93.9512 -1.41334 4.16789 0
M  V30 948 H 91.0702 -0.0969531 0.730595 0
M  V30 949 H 93.7122 0.448066 1.84641 0
M  V30 950 H 91.8622 -1.21078 3.69151 0
M  V30 951 H 93.5342 1.29285 4.42813 0
M  V30 952 H 91.7772 1.28224 4.14416 0
M  V30 953 H 92.4482 0.380944 5.50684 0
M  V30 954 H 94.9242 -0.895597 4.06347 0
M  V30 955 H 93.8002 -1.61127 5.24718 0
M  V30 956 H 94.0612 -2.41146 3.70541 0
M  V30 957 N 93.1203 -1.57491 0.0584922 0
M  V30 958 C 94.0503 -2.14988 -0.911178 0
M  V30 959 C 95.0313 -1.07343 -1.31952 0
M  V30 960 O 96.2163 -1.35318 -1.39294 0
M  V30 961 C 93.3463 -2.70078 -2.18347 0
M  V30 962 C 92.3003 -3.82771 -1.91495 0
M  V30 963 C 91.6263 -4.24408 -3.25241 0
M  V30 964 C 92.9263 -5.07592 -1.23075 0
M  V30 965 H 94.6203 -2.96263 -0.432246 0
M  V30 966 H 92.1663 -1.42512 -0.206469 0
M  V30 967 H 94.1193 -3.08943 -2.86587 0
M  V30 968 H 92.8433 -1.86005 -2.68458 0
M  V30 969 H 91.5023 -3.44389 -1.25664 0
M  V30 970 H 91.1503 -3.37275 -3.73168 0
M  V30 971 H 90.8503 -5.00366 -3.08071 0
M  V30 972 H 92.3743 -4.65879 -3.94701 0
M  V30 973 H 93.7883 -5.43857 -1.81362 0
M  V30 974 H 92.1853 -5.88741 -1.16207 0
M  V30 975 H 93.2553 -4.84454 -0.207847 0
M  V30 976 N 94.5984 0.214957 -1.56127 0
M  V30 977 C 95.5084 1.28727 -1.96129 0
M  V30 978 C 96.5244 1.50916 -0.866044 0
M  V30 979 O 97.7004 1.63918 -1.17016 0
M  V30 980 C 94.7654 2.61569 -2.27558 0
M  V30 981 C 93.8264 2.47625 -3.50685 0
M  V30 982 C 93.0594 3.74132 -3.80606 0
M  V30 983 O 93.2824 4.77438 -3.12104 0
M  V30 984 O 92.2164 3.70849 -4.74083 0
M  V30 985 H 96.0424 0.977855 -2.87527 0
M  V30 986 H 93.6274 0.418358 -1.43423 0
M  V30 987 H 95.5094 3.40012 -2.48938 0
M  V30 988 H 94.1844 2.92178 -1.39332 0
M  V30 989 H 93.0914 1.67361 -3.34576 0
M  V30 990 H 94.4244 2.21954 -4.39315 0
M  V30 991 N 96.0765 1.50051 0.48192 0
M  V30 992 C 97.4875 1.5348 1.06305 0
M  V30 993 C 97.8385 0.331997 1.93371 0
M  V30 994 O 96.9635 -0.556256 2.09129 0
M  V30 995 C 97.5585 2.7813 1.93466 0
M  V30 996 C 96.1175 2.84275 2.46707 0
M  V30 997 C 95.2645 2.47637 1.24785 0
M  V30 998 H 98.2155 1.56472 0.264995 0
M  V30 999 H 98.2365 2.59372 2.78399 0
M  V30 1000 H 97.7485 3.65654 1.30072 0
M  V30 1001 H 95.8495 2.01077 3.13686 0
M  V30 1002 H 95.9625 3.8691 2.82555 0
M  V30 1003 H 94.3265 1.99835 1.57918 0
M  V30 1004 H 95.1095 3.37457 0.630694 0
M  V30 1005 N 97.5546 -0.734337 1.39446 0
M  V30 1006 C 98.8026 -1.49096 1.36436 0
M  V30 1007 C 99.1236 -1.94961 -0.0388255 0
M  V30 1008 O 98.3936 -1.69033 -0.990191 0
M  V30 1009 H 96.9736 -0.5531 0.502085 0
M  V30 1010 H 99.6356 -0.871725 1.74319 0
M  V30 1011 H 98.7316 -2.37276 2.02747 0
M  V30 1012 N 99.0327 -1.24633 -0.964593 0
M  V30 1013 C 100.31 -0.995809 -1.68354 0
M  V30 1014 C 100.69 0.480964 -2.05548 0
M  V30 1015 O 100.038 1.45599 -1.76105 0
M  V30 1016 C 100.248 -1.92177 -2.91323 0
M  V30 1017 C 101.596 -2.19446 -3.63495 0
M  V30 1018 O 102.62 -1.89855 -3.01386 0
M  V30 1019 O 101.479 -2.69714 -4.75307 0
M  V30 1020 H 98.5727 -0.376854 -0.736146 0
M  V30 1021 H 101.119 -1.35745 -1.0184 0
M  V30 1022 H 99.8907 -2.91938 -2.60553 0
M  V30 1023 H 99.5137 -1.56349 -3.65569 0
M  V30 1024 N 100.511 1.16574 -1.06058 0
M  V30 1025 C 101.736 1.91493 -0.796562 0
M  V30 1026 C 102.161 1.76773 0.642868 0
M  V30 1027 O 101.519 1.09142 1.44768 0
M  V30 1028 C 101.567 3.40293 -1.19303 0
M  V30 1029 O 100.671 4.11074 -0.330394 0
M  V30 1030 H 100.012 0.596678 -0.291326 0
M  V30 1031 H 102.542 1.47708 -1.41575 0
M  V30 1032 H 102.552 3.91057 -1.16356 0
M  V30 1033 H 101.227 3.50326 -2.24153 0
M  V30 1034 H 99.8038 3.70513 -0.421225 0
M  V30 1035 N 101.989 0.842826 1.3317 0
M  V30 1036 C 103.236 0.440447 1.97652 0
M  V30 1037 C 103.564 -1.00123 1.6675 0
M  V30 1038 O 102.819 -1.7155 0.941761 0
M  V30 1039 C 103.118 0.612607 3.52111 0
M  V30 1040 C 102.784 2.02297 4.02972 0
M  V30 1041 C 101.446 2.40874 4.16573 0
M  V30 1042 C 103.798 2.94402 4.30089 0
M  V30 1043 C 101.126 3.70852 4.54627 0
M  V30 1044 C 103.478 4.23865 4.69597 0
M  V30 1045 C 102.142 4.62392 4.81404 0
M  V30 1046 H 101.412 0.161171 0.72326 0
M  V30 1047 H 104.059 1.07061 1.58777 0
M  V30 1048 H 102.364 -0.100849 3.9167 0
M  V30 1049 H 104.061 0.2815 4.00011 0
M  V30 1050 H 100.651 1.71338 3.92863 0
M  V30 1051 H 104.835 2.65835 4.19101 0
M  V30 1052 H 100.091 4.00501 4.61962 0
M  V30 1053 H 104.265 4.95306 4.89536 0
M  V30 1054 H 101.892 5.63154 5.10648 0
M  V30 1055 N 103.467 -1.45747 0.599634 0
M  V30 1056 C 104.397 -2.33235 -0.111306 0
M  V30 1057 C 105.378 -1.46359 -0.866781 0
M  V30 1058 O 106.563 -1.75146 -0.838904 0
M  V30 1059 C 103.693 -3.28932 -1.11451 0
M  V30 1060 C 102.647 -4.25381 -0.472772 0
M  V30 1061 C 101.973 -5.1071 -1.58365 0
M  V30 1062 C 103.273 -5.18831 0.600948 0
M  V30 1063 H 104.967 -2.92927 0.61919 0
M  V30 1064 H 102.513 -1.40857 0.299215 0
M  V30 1065 H 104.466 -3.89002 -1.62036 0
M  V30 1066 H 103.19 -2.67381 -1.8755 0
M  V30 1067 H 101.849 -3.66598 0.0121472 0
M  V30 1068 H 101.497 -4.45533 -2.33473 0
M  V30 1069 H 101.197 -5.7604 -1.15982 0
M  V30 1070 H 102.721 -5.73647 -2.09194 0
M  V30 1071 H 104.135 -5.73019 0.179491 0
M  V30 1072 H 102.532 -5.92595 0.946076 0
M  V30 1073 H 103.602 -4.6174 1.48068 0
M  V30 1074 N 104.945 -0.338344 -1.53925 0
M  V30 1075 C 106.191 0.260143 -2.01125 0
M  V30 1076 C 106.524 1.50617 -1.22589 0
M  V30 1077 O 105.799 1.91979 -0.312113 0
M  V30 1078 C 106.082 0.579499 -3.55407 0
M  V30 1079 C 105.935 -0.678264 -4.44657 0
M  V30 1080 C 107.254 1.39122 -4.17532 0
M  V30 1081 H 104.373 0.0930772 -0.731099 0
M  V30 1082 H 107.015 -0.457852 -1.84401 0
M  V30 1083 H 105.165 1.19118 -3.69788 0
M  V30 1084 H 106.837 -1.31631 -4.42121 0
M  V30 1085 H 105.08 -1.3042 -4.13731 0
M  V30 1086 H 105.751 -0.410143 -5.50474 0
M  V30 1087 H 108.227 0.874035 -4.06817 0
M  V30 1088 H 107.103 1.58342 -5.25565 0
M  V30 1089 H 107.364 2.39178 -3.71815 0
M  V30 1090 N 106.423 1.57458 -0.0668435 0
M  V30 1091 C 107.671 1.92919 0.602214 0
M  V30 1092 C 107.992 0.947215 1.70449 0
M  V30 1093 O 107.262 -0.00544117 1.95899 0
M  V30 1094 H 105.842 0.71217 0.22544 0
M  V30 1095 H 108.504 1.94508 -0.123535 0
M  V30 1096 H 107.6 2.94589 1.03073 0
M  V30 1097 N 107.901 -0.206675 1.56239 0
M  V30 1098 C 108.864 -1.23976 1.92776 0
M  V30 1099 C 109.864 -1.39041 0.807729 0
M  V30 1100 O 111.054 -1.37051 1.0753 0
M  V30 1101 C 108.186 -2.61112 2.19165 0
M  V30 1102 H 109.379 -0.927764 2.85189 0
M  V30 1103 H 106.932 -0.447718 1.4975 0
M  V30 1104 H 107.667 -2.97386 1.29352 0
M  V30 1105 H 107.452 -2.51552 3.00772 0
M  V30 1106 H 108.942 -3.35633 2.48476 0
M  V30 1107 N 109.379 -1.50304 -0.473955 0
M  V30 1108 C 110.327 -1.69482 -1.59307 0
M  V30 1109 C 111.321 -0.560669 -1.59853 0
M  V30 1110 O 112.527 -0.741087 -1.64036 0
M  V30 1111 H 108.902 -0.534892 -0.528578 0
M  V30 1112 H 110.873 -2.63364 -1.40293 0
M  V30 1113 C 109.622 -1.80354 -2.97267 0
M  V30 1114 H 108.945 -2.67012 -2.97564 0
M  V30 1115 H 110.385 -1.97798 -3.75036 0
M  V30 1116 C 108.844 -0.55448 -3.32306 0
M  V30 1117 O 109.374 0.307661 -4.0052 0
M  V30 1118 N 107.58 -0.409354 -2.87702 0
M  V30 1119 H 107.127 -1.11196 -2.32364 0
M  V30 1120 H 107.085 0.425223 -3.11511 0
M  V30 1121 N 110.857 0.726932 -1.39834 0
M  V30 1122 C 112.105 1.4837 -1.37225 0
M  V30 1123 C 112.426 1.94979 0.0284857 0
M  V30 1124 O 111.696 1.69555 0.981213 0
M  V30 1125 H 110.276 0.55043 -0.505011 0
M  V30 1126 H 112.938 0.862468 -1.74778 0
M  V30 1127 H 112.034 2.36198 -2.04003 0
M  V30 1128 N 112.336 1.25143 0.95797 0
M  V30 1129 C 113.585 1.0909 1.69654 0
M  V30 1130 C 113.898 -0.368548 1.92097 0
M  V30 1131 O 115.104 -0.649455 2.63618 0
M  V30 1132 C 113.56 1.90395 3.05414 0
M  V30 1133 C 113.168 3.4081 2.90779 0
M  V30 1134 C 114.912 1.82901 3.83076 0
M  V30 1135 C 112.819 4.14423 4.21909 0
M  V30 1136 H 111.749 0.404625 0.636235 0
M  V30 1137 H 114.4 1.4931 1.06672 0
M  V30 1138 H 112.782 1.42996 3.69281 0
M  V30 1139 H 113.956 3.95859 2.35865 0
M  V30 1140 H 112.271 3.49361 2.26575 0
M  V30 1141 H 114.868 2.35196 4.80195 0
M  V30 1142 H 115.211 0.796224 4.08615 0
M  V30 1143 H 115.744 2.28033 3.25954 0
M  V30 1144 H 112.483 5.18102 4.01561 0
M  V30 1145 H 112.003 3.64159 4.76601 0
M  V30 1146 H 113.682 4.21956 4.90471 0
M  V30 1147 N 113.814 -1.1601 1.06675 0
M  V30 1148 C 115.06 -1.87145 0.796766 0
M  V30 1149 C 115.415 -1.8037 -0.669658 0
M  V30 1150 O 114.708 -1.21116 -1.48463 0
M  V30 1151 C 114.902 -3.35547 1.23057 0
M  V30 1152 C 114.731 -3.56769 2.73762 0
M  V30 1153 C 113.501 -3.72635 3.41279 0
M  V30 1154 C 115.699 -3.55166 3.7197 0
M  V30 1155 N 113.681 -3.81845 4.80695 0
M  V30 1156 C 115.052 -3.70406 4.97191 0
M  V30 1157 C 117.107 -3.384 3.65226 0
M  V30 1158 C 115.81 -3.70615 6.16471 0
M  V30 1159 C 117.836 -3.39904 4.83962 0
M  V30 1160 C 117.198 -3.55667 6.08013 0
M  V30 1161 H 113.297 -0.702267 0.344014 0
M  V30 1162 H 115.881 -1.39165 1.36166 0
M  V30 1163 H 114.052 -3.82159 0.693456 0
M  V30 1164 H 115.784 -3.94363 0.908844 0
M  V30 1165 H 112.539 -3.73121 2.91681 0
M  V30 1166 H 112.963 -3.90209 5.53232 0
M  V30 1167 H 117.605 -3.25138 2.70269 0
M  V30 1168 H 115.323 -3.82658 7.11757 0
M  V30 1169 H 118.909 -3.28169 4.80413 0
M  V30 1170 H 117.789 -3.56755 6.98352 0
M  V30 1171 N 115.292 -0.849877 -1.32721 0
M  V30 1172 C 116.54 -0.450032 -1.97026 0
M  V30 1173 C 116.861 0.996604 -1.67609 0
M  V30 1174 O 116.131 1.6958 -0.980786 0
M  V30 1175 H 114.711 -0.163426 -0.728904 0
M  V30 1176 H 117.373 -1.08526 -1.6189 0
M  V30 1177 H 116.469 -0.591146 -3.0645 0
M  V30 1178 N 116.77 1.45427 -0.607355 0
M  V30 1179 C 117.702 2.2871 0.149752 0
M  V30 1180 C 118.715 1.39937 0.831958 0
M  V30 1181 O 119.904 1.64313 0.697385 0
M  V30 1182 C 117.004 3.15673 1.23304 0
M  V30 1183 C 116.177 4.32722 0.637996 0
M  V30 1184 C 115.236 5.00895 1.61215 0
M  V30 1185 O 114.262 5.57697 1.13854 0
M  V30 1186 N 115.464 5.00159 2.94655 0
M  V30 1187 H 118.229 2.94328 -0.564882 0
M  V30 1188 H 115.79 1.55612 -0.446823 0
M  V30 1189 H 117.782 3.58144 1.88454 0
M  V30 1190 H 116.352 2.51965 1.8502 0
M  V30 1191 H 115.572 3.93734 -0.191572 0
M  V30 1192 H 116.86 5.08321 0.220665 0
M  V30 1193 H 116.258 4.553 3.35735 0
M  V30 1194 H 114.815 5.46495 3.55228 0
M  V30 1195 N 118.248 0.346503 1.53744 0
M  V30 1196 C 119.664 -0.00530975 1.59599 0
M  V30 1197 C 119.864 -1.48465 1.36236 0
M  V30 1198 O 118.92 -2.24376 1.15808 0
M  V30 1199 C 120.233 0.433516 2.97559 0
M  V30 1200 C 121.781 0.386111 3.10609 0
M  V30 1201 C 122.256 0.800451 4.50951 0
M  V30 1202 N 123.747 0.754753 4.5701 0
M  V30 1203 C 124.482 1.04727 5.63755 0
M  V30 1204 N 123.978 1.4081 6.7834 0
M  V30 1205 N 125.771 0.971316 5.53644 0
M  V30 1206 H 117.922 1.31009 1.67184 0
M  V30 1207 H 120.185 0.534242 0.783128 0
M  V30 1208 H 119.891 1.46509 3.19731 0
M  V30 1209 H 119.765 -0.189753 3.76722 0
M  V30 1210 H 122.152 -0.636295 2.88158 0
M  V30 1211 H 122.233 1.04462 2.33498 0
M  V30 1212 H 121.877 1.82088 4.74137 0
M  V30 1213 H 121.807 0.119386 5.26465 0
M  V30 1214 H 124.298 0.488662 3.74727 0
M  V30 1215 H 124.611 1.61607 7.55714 0
M  V30 1216 H 122.956 1.44657 6.79779 0
M  V30 1217 H 126.147 0.688748 4.63005 0
M  V30 1218 H 126.32 1.20263 6.36742 0
M  V30 1219 N 119.726 -1.57421 0.075193 0
M  V30 1220 C 120.689 -2.11791 -0.876203 0
M  V30 1221 C 121.689 -1.04268 -1.22412 0
M  V30 1222 O 122.879 -1.30242 -1.15684 0
M  V30 1223 C 120.011 -2.62207 -2.17854 0
M  V30 1224 H 121.204 -2.9716 -0.40444 0
M  V30 1225 H 118.757 -1.55333 -0.173557 0
M  V30 1226 H 119.492 -1.803 -2.6956 0
M  V30 1227 H 119.277 -3.40802 -1.93897 0
M  V30 1228 H 120.767 -3.04335 -2.85955 0
M  V30 1229 N 121.204 0.198386 -1.56346 0
M  V30 1230 C 122.45 0.920648 -1.80698 0
M  V30 1231 C 122.783 1.83045 -0.648697 0
M  V30 1232 O 122.058 1.91308 0.350925 0
M  V30 1233 C 122.341 1.73971 -3.15287 0
M  V30 1234 C 122.194 0.85485 -4.41602 0
M  V30 1235 C 123.513 2.71296 -3.46535 0
M  V30 1236 H 120.632 0.333261 -0.657348 0
M  V30 1237 H 123.274 0.188198 -1.89066 0
M  V30 1238 H 121.424 2.36416 -3.08285 0
M  V30 1239 H 123.096 0.245362 -4.60647 0
M  V30 1240 H 121.339 0.161398 -4.335 0
M  V30 1241 H 122.01 1.46286 -5.32264 0
M  V30 1242 H 124.486 2.18983 -3.53816 0
M  V30 1243 H 123.362 3.2569 -4.41834 0
M  V30 1244 H 123.623 3.5018 -2.69864 0
M  V30 1245 N 122.682 1.50554 0.465978 0
M  V30 1246 C 123.959 1.5232 1.22712 0
M  V30 1247 C 124.339 0.270807 2.09356 0
M  V30 1248 O 123.687 -0.745541 2.15995 0
M  V30 1249 C 123.897 2.82175 2.05374 0
M  V30 1250 C 125.245 3.33033 2.6339 0
M  V30 1251 O 126.269 2.83531 2.15612 0
M  V30 1252 O 125.128 4.19336 3.50456 0
M  V30 1253 H 122.222 0.611183 0.557122 0
M  V30 1254 H 124.768 1.62847 0.477381 0
M  V30 1255 H 123.54 3.64797 1.41558 0
M  V30 1256 H 123.163 2.74675 2.87471 0
M  V30 1257 N 124.16 -0.719506 1.40217 0
M  V30 1258 C 125.409 -1.47486 1.37589 0
M  V30 1259 C 125.722 -1.9559 -0.0201568 0
M  V30 1260 O 126.928 -2.70973 -0.169049 0
M  V30 1261 C 125.384 -2.66575 2.41796 0
M  V30 1262 C 124.992 -2.25358 3.87192 0
M  V30 1263 C 126.736 -3.4433 2.48269 0
M  V30 1264 C 124.643 -3.41262 4.83005 0
M  V30 1265 H 123.573 -0.553901 0.511576 0
M  V30 1266 H 126.224 -0.783427 1.65936 0
M  V30 1267 H 124.606 -3.3787 2.06543 0
M  V30 1268 H 125.78 -1.61509 4.31569 0
M  V30 1269 H 124.095 -1.60657 3.84159 0
M  V30 1270 H 126.692 -4.30569 3.17041 0
M  V30 1271 H 127.035 -3.87872 1.51198 0
M  V30 1272 H 127.568 -2.80076 2.82493 0
M  V30 1273 H 124.307 -3.02755 5.81394 0
M  V30 1274 H 123.827 -4.0404 4.43297 0
M  V30 1275 H 125.506 -4.07383 5.02641 0
M  V30 1276 N 125.638 -1.25649 -0.95132 0
M  V30 1277 C 126.886 -1.10375 -1.69298 0
M  V30 1278 C 127.207 0.355339 -1.91735 0
M  V30 1279 O 126.477 1.25188 -1.50681 0
M  V30 1280 H 125.057 -0.405461 -0.627384 0
M  V30 1281 H 127.719 -1.57823 -1.14358 0
M  V30 1282 H 126.815 -1.61465 -2.67087 0
M  V30 1283 N 127.117 1.15442 -1.07289 0
M  V30 1284 C 128.027 2.23786 -0.704057 0
M  V30 1285 C 129.043 1.7166 0.284413 0
M  V30 1286 O 130.219 2.00972 0.131205 0
M  V30 1287 C 127.284 3.46535 -0.106792 0
M  V30 1288 C 126.345 4.13654 -1.14842 0
M  V30 1289 C 125.578 5.30544 -0.57956 0
M  V30 1290 O 125.801 5.67187 0.604585 0
M  V30 1291 O 124.735 5.87154 -1.32414 0
M  V30 1292 H 128.561 2.57664 -1.60757 0
M  V30 1293 H 126.146 1.23152 -0.845803 0
M  V30 1294 H 128.028 4.20804 0.224048 0
M  V30 1295 H 126.703 3.14407 0.770049 0
M  V30 1296 H 125.61 3.4131 -1.5316 0
M  V30 1297 H 126.943 4.49861 -1.99714 0
M  V30 1298 N 128.595 0.856903 1.32268 0
M  V30 1299 C 130.011 0.547061 1.49931 0
M  V30 1300 C 130.211 -0.921781 1.7918 0
M  V30 1301 O 129.267 -1.70469 1.8627 0
M  V30 1302 C 130.58 1.43599 2.64196 0
M  V30 1303 C 132.128 1.43665 2.78081 0
M  V30 1304 C 132.603 2.31085 3.95428 0
M  V30 1305 N 134.094 2.28893 4.02694 0
M  V30 1306 C 134.829 2.93262 4.92732 0
M  V30 1307 N 134.325 3.66751 5.87763 0
M  V30 1308 N 136.118 2.82638 4.85873 0
M  V30 1309 H 128.269 1.8075 1.11549 0
M  V30 1310 H 130.532 0.772144 0.549997 0
M  V30 1311 H 130.238 2.48058 2.49319 0
M  V30 1312 H 130.112 1.12502 3.60032 0
M  V30 1313 H 132.499 0.399701 2.92381 0
M  V30 1314 H 132.58 1.7878 1.82952 0
M  V30 1315 H 132.224 3.34849 3.81888 0
M  V30 1316 H 132.154 1.93302 4.89839 0
M  V30 1317 H 134.645 1.75466 3.34694 0
M  V30 1318 H 134.958 4.13027 6.53168 0
M  V30 1319 H 133.303 3.70859 5.87783 0
M  V30 1320 H 136.494 2.24774 4.10602 0
M  V30 1321 H 136.667 3.33084 5.55841 0
M  V30 1322 N 130.073 -1.45103 0.615059 0
M  V30 1323 C 131.322 -2.01396 0.110718 0
M  V30 1324 C 131.635 -1.48834 -1.26916 0
M  V30 1325 O 132.841 -1.97152 -1.86664 0
M  V30 1326 C 131.297 -3.59599 0.14723 0
M  V30 1327 C 130.905 -4.21158 1.52743 0
M  V30 1328 C 132.649 -4.23428 -0.30148 0
M  V30 1329 C 130.556 -5.71535 1.51992 0
M  V30 1330 H 129.486 -0.753061 0.0376241 0
M  V30 1331 H 132.137 -1.66494 0.77149 0
M  V30 1332 H 130.519 -3.91724 -0.580339 0
M  V30 1333 H 131.693 -4.00594 2.2773 0
M  V30 1334 H 130.008 -3.69552 1.91886 0
M  V30 1335 H 132.605 -5.33703 -0.326392 0
M  V30 1336 H 132.948 -3.94629 -1.32565 0
M  V30 1337 H 133.481 -3.96047 0.373065 0
M  V30 1338 H 130.22 -6.05044 2.52193 0
M  V30 1339 H 129.74 -5.94268 0.81274 0
M  V30 1340 H 131.419 -6.34873 1.24681 0
M  V30 1341 N 131.551 -0.354651 -1.53558 0
M  V30 1342 C 132.799 0.237972 -2.00694 0
M  V30 1343 C 133.12 1.50173 -1.24391 0
M  V30 1344 O 132.39 1.92673 -0.354135 0
M  V30 1345 H 130.97 0.0909256 -0.741446 0
M  V30 1346 H 133.632 -0.478368 -1.88938 0
M  V30 1347 H 132.728 0.47264 -3.085 0
M  V30 1348 N 133.029 1.57378 -0.0835403 0
M  V30 1349 C 133.992 2.12252 0.864959 0
M  V30 1350 C 134.992 1.04916 1.21858 0
M  V30 1351 O 136.182 1.30853 1.14991 0
M  V30 1352 C 133.314 2.63358 2.16461 0
M  V30 1353 H 134.507 2.97371 0.388676 0
M  V30 1354 H 132.06 1.55423 0.165317 0
M  V30 1355 H 132.795 1.81727 2.686 0
M  V30 1356 H 132.58 3.41826 1.92087 0
M  V30 1357 H 134.07 3.05847 2.84337 0
M  V30 1358 N 134.507 -0.190092 1.56449 0
M  V30 1359 C 135.923 -0.54113 1.50146 0
M  V30 1360 C 136.123 -1.85603 0.784465 0
M  V30 1361 O 135.179 -2.5024 0.337051 0
M  V30 1362 C 136.492 -0.591241 2.9483 0
M  V30 1363 C 138.04 -0.679732 3.0553 0
M  V30 1364 C 138.515 -0.760908 4.51635 0
M  V30 1365 N 140.006 -0.824302 4.55806 0
M  V30 1366 C 140.741 -0.907365 5.66175 0
M  V30 1367 N 140.237 -0.952422 6.86222 0
M  V30 1368 N 142.03 -0.94494 5.541 0
M  V30 1369 H 134.181 0.67235 2.01478 0
M  V30 1370 H 136.444 0.240127 0.917084 0
M  V30 1371 H 136.15 0.305905 3.50367 0
M  V30 1372 H 136.024 -1.44422 3.48457 0
M  V30 1373 H 138.411 -1.56731 2.50039 0
M  V30 1374 H 138.492 0.199549 2.5502 0
M  V30 1375 H 138.136 0.122336 5.07753 0
M  V30 1376 H 138.066 -1.65606 4.99882 0
M  V30 1377 H 140.557 -0.798526 3.69367 0
M  V30 1378 H 140.87 -1.01645 7.66086 0
M  V30 1379 H 139.215 -0.921014 6.8887 0
M  V30 1380 H 142.406 -0.906612 4.59236 0
M  V30 1381 H 142.579 -1.00622 6.4014 0
M  V30 1382 N 135.985 -1.50799 -0.457987 0
M  V30 1383 C 137.231 -1.62683 -1.21088 0
M  V30 1384 C 137.564 -0.332268 -1.91336 0
M  V30 1385 O 136.839 0.667043 -1.82704 0
M  V30 1386 C 137.122 -2.81615 -2.24422 0
M  V30 1387 C 136.975 -4.20989 -1.58392 0
M  V30 1388 C 138.294 -2.96085 -3.2561 0
M  V30 1389 H 135.413 -0.592087 -0.438864 0
M  V30 1390 H 138.055 -1.83225 -0.50286 0
M  V30 1391 H 136.205 -2.64231 -2.84806 0
M  V30 1392 H 137.877 -4.49994 -1.01504 0
M  V30 1393 H 136.12 -4.24641 -0.886704 0
M  V30 1394 H 136.791 -5.0016 -2.33547 0
M  V30 1395 H 139.267 -3.12042 -2.75262 0
M  V30 1396 H 138.143 -3.80902 -3.95228 0
M  V30 1397 H 138.404 -2.0726 -3.90507 0
M  V30 1398 N 137.463 0.71206 -1.40597 0
M  V30 1399 C 138.413 1.81783 -1.37619 0
M  V30 1400 C 139.397 1.58896 -0.253162 0
M  V30 1401 O 140.589 1.70009 -0.492547 0
M  V30 1402 C 137.718 3.19944 -1.24462 0
M  V30 1403 C 136.804 3.48582 -2.4156 0
M  V30 1404 N 137.195 3.48016 -3.67041 0
M  V30 1405 C 135.493 3.79056 -2.35016 0
M  V30 1406 C 136.194 3.75096 -4.44609 0
M  V30 1407 N 135.17 3.94022 -3.74497 0
M  V30 1408 H 138.972 1.79683 -2.32575 0
M  V30 1409 H 136.486 0.91134 -1.34419 0
M  V30 1410 H 138.483 3.99133 -1.20411 0
M  V30 1411 H 137.143 3.23267 -0.304762 0
M  V30 1412 H 138.154 3.28782 -4.00153 0
M  V30 1413 H 134.831 3.89848 -1.49415 0
M  V30 1414 H 136.221 3.80934 -5.53479 0
M  V30 1415 N 138.941 1.26152 0.944643 0
M  V30 1416 C 140.352 1.10454 1.50522 0
M  V30 1417 C 140.703 -0.31635 1.93633 0
M  V30 1418 O 139.828 -1.20746 1.79581 0
M  V30 1419 C 140.423 1.99891 2.73549 0
M  V30 1420 C 138.982 1.88348 3.25886 0
M  V30 1421 C 138.129 1.93447 1.9868 0
M  V30 1422 H 141.08 1.39292 0.760489 0
M  V30 1423 H 141.101 1.54477 3.47732 0
M  V30 1424 H 140.613 3.03297 2.42141 0
M  V30 1425 H 138.714 0.878636 3.62092 0
M  V30 1426 H 138.827 2.73696 3.93227 0
M  V30 1427 H 137.191 1.37456 2.14425 0
M  V30 1428 H 137.974 2.98476 1.69607 0
M  V30 1429 N 140.419 -1.14872 1.07899 0
M  V30 1430 C 141.352 -2.18794 0.64841 0
M  V30 1431 C 142.33 -1.59065 -0.337189 0
M  V30 1432 O 143.514 -1.86936 -0.242284 0
M  V30 1433 C 140.641 -3.38667 -0.0470417 0
M  V30 1434 C 139.687 -4.16942 0.897884 0
M  V30 1435 S 140.52 -4.78615 2.40183 0
M  V30 1436 C 141.676 -6.0185 1.71834 0
M  V30 1437 H 141.909 -2.5498 1.52881 0
M  V30 1438 H 139.442 -1.25922 0.893484 0
M  V30 1439 H 141.4 -4.08113 -0.442027 0
M  V30 1440 H 140.061 -3.00814 -0.903861 0
M  V30 1441 H 139.254 -5.02726 0.358096 0
M  V30 1442 H 138.856 -3.53073 1.23352 0
M  V30 1443 H 141.148 -6.69574 1.03328 0
M  V30 1444 H 142.091 -6.60408 2.55473 0
M  V30 1445 H 142.499 -5.5173 1.19392 0
M  V30 1446 N 141.898 -0.863906 -1.31812 0
M  V30 1447 C 143.126 -0.486111 -2.01108 0
M  V30 1448 C 143.541 0.919755 -1.64882 0
M  V30 1449 O 142.898 1.60162 -0.874893 0
M  V30 1450 C 142.949 -0.626435 -3.56031 0
M  V30 1451 O 142.67 -1.97693 -3.90959 0
M  V30 1452 C 144.171 -0.248857 -4.42601 0
M  V30 1453 H 141.391 -0.190052 -0.643523 0
M  V30 1454 H 143.935 -1.1634 -1.68182 0
M  V30 1455 H 142.09 0.00322717 -3.874 0
M  V30 1456 H 142.504 -1.98034 -4.85678 0
M  V30 1457 H 143.978 -0.398016 -5.50563 0
M  V30 1458 H 144.455 0.811489 -4.31638 0
M  V30 1459 H 145.061 -0.853971 -4.16638 0
M  V30 1460 N 143.376 1.44774 -0.622745 0
M  V30 1461 C 144.323 2.30635 0.0871679 0
M  V30 1462 C 145.293 1.42994 0.845097 0
M  V30 1463 O 146.478 1.71907 0.827812 0
M  V30 1464 C 143.618 3.28144 1.06844 0
M  V30 1465 C 142.731 4.30888 0.309809 0
M  V30 1466 C 141.866 5.15494 1.28215 0
M  V30 1467 C 140.905 6.09953 0.512198 0
M  V30 1468 N 140.042 6.87287 1.43458 0
M  V30 1469 H 144.882 2.90803 -0.650974 0
M  V30 1470 H 142.419 1.43286 -0.33281 0
M  V30 1471 H 144.377 3.83157 1.65066 0
M  V30 1472 H 143.007 2.69695 1.77382 0
M  V30 1473 H 142.059 3.78414 -0.388181 0
M  V30 1474 H 143.371 4.97955 -0.290254 0
M  V30 1475 H 142.525 5.74983 1.93596 0
M  V30 1476 H 141.264 4.48481 1.91614 0
M  V30 1477 H 140.269 5.49581 -0.155151 0
M  V30 1478 H 141.494 6.78999 -0.116958 0
M  V30 1479 H 139.44 6.2295 2.05594 0
M  V30 1480 H 139.357 7.50763 0.888335 0
M  V30 1481 H 140.625 7.51306 2.07749 0
M  V30 1482 N 144.854 0.36279 1.53368 0
M  V30 1483 C 146.131 -0.284021 1.93527 0
M  V30 1484 C 146.511 -1.66628 1.29608 0
M  V30 1485 O 145.859 -2.23942 0.45413 0
M  V30 1486 C 146.069 -0.337028 3.47369 0
M  V30 1487 C 147.417 -0.578708 4.20638 0
M  V30 1488 O 148.441 -0.418352 3.53735 0
M  V30 1489 O 147.3 -0.89074 5.39192 0
M  V30 1490 H 144.394 -0.169743 0.809393 0
M  V30 1491 H 146.94 0.41537 1.64538 0
M  V30 1492 H 145.712 0.632217 3.86159 0
M  V30 1493 H 145.335 -1.08243 3.82582 0
M  V30 1494 N 146.332 -1.57332 0.0918853 0
M  V30 1495 C 147.743 -1.81496 -0.437739 0
M  V30 1496 C 148.094 -1.00727 -1.6837 0
M  V30 1497 O 147.219 -0.235694 -2.15113 0
M  V30 1498 C 147.814 -3.29197 -0.800939 0
M  V30 1499 C 146.373 -3.54136 -1.27532 0
M  V30 1500 C 145.52 -2.75979 -0.270392 0
M  V30 1501 H 148.471 -1.55494 0.317366 0
M  V30 1502 H 148.492 -3.42344 -1.66074 0
M  V30 1503 H 148.004 -3.87955 0.106078 0
M  V30 1504 H 146.105 -3.00705 -2.20016 0
M  V30 1505 H 146.218 -4.62792 -1.23938 0
M  V30 1506 H 144.582 -2.43349 -0.751872 0
M  V30 1507 H 145.365 -3.37484 0.629248 0
M  V30 1508 N 147.81 0.181792 -1.56548 0
M  V30 1509 C 149.058 0.89832 -1.81038 0
M  V30 1510 C 149.379 1.83232 -0.667164 0
M  V30 1511 O 148.649 1.93372 0.313673 0
M  V30 1512 H 147.229 0.33471 -0.667816 0
M  V30 1513 H 149.891 0.184116 -1.94028 0
M  V30 1514 H 148.987 1.4815 -2.74696 0
M  V30 1515 N 149.288 1.51039 0.449983 0
M  V30 1516 C 150.536 1.62759 1.19808 0
M  V30 1517 C 150.857 0.339981 1.92013 0
M  V30 1518 O 150.127 -0.643606 1.85026 0
M  V30 1519 H 148.707 0.599811 0.445237 0
M  V30 1520 H 151.369 1.87914 0.517138 0
M  V30 1521 H 150.465 2.44911 1.93455 0
M  V30 1522 N 150.766 -0.704594 1.40972 0
M  V30 1523 C 151.716 -1.81051 1.38581 0
M  V30 1524 C 152.7 -1.58759 0.261585 0
M  V30 1525 O 153.892 -1.69745 0.501556 0
M  V30 1526 C 151.021 -3.19279 1.26157 0
M  V30 1527 C 150.107 -3.47296 2.43405 0
M  V30 1528 N 150.498 -3.46064 3.68881 0
M  V30 1529 C 148.796 -3.77804 2.37023 0
M  V30 1530 C 149.497 -3.72733 4.46592 0
M  V30 1531 N 148.473 -3.9203 3.76581 0
M  V30 1532 H 152.275 -1.78448 2.33525 0
M  V30 1533 H 149.789 -0.904198 1.349 0
M  V30 1534 H 151.786 -3.98488 1.22526 0
M  V30 1535 H 150.446 -3.231 0.321902 0
M  V30 1536 H 151.457 -3.26656 4.01891 0
M  V30 1537 H 148.134 -3.8905 1.51481 0
M  V30 1538 H 149.524 -3.77993 5.55492 0
M  V30 1539 N 152.244 -1.26651 -0.937939 0
M  V30 1540 C 153.474 -1.15006 -1.71631 0
M  V30 1541 C 153.882 0.297026 -1.86854 0
M  V30 1542 O 153.225 1.21493 -1.37786 0
M  V30 1543 C 153.287 -1.74984 -3.14039 0
M  V30 1544 C 152.951 -3.24103 -3.2219 0
M  V30 1545 C 153.948 -4.20877 -3.05219 0
M  V30 1546 C 151.633 -3.64625 -3.45476 0
M  V30 1547 C 153.627 -5.56151 -3.11408 0
M  V30 1548 C 151.314 -5.00032 -3.513 0
M  V30 1549 C 152.312 -5.95604 -3.34282 0
M  V30 1550 O 152 -7.28545 -3.3982 0
M  V30 1551 H 151.732 -0.401183 -0.544085 0
M  V30 1552 H 154.286 -1.67832 -1.18413 0
M  V30 1553 H 152.516 -1.16624 -3.68695 0
M  V30 1554 H 154.205 -1.58199 -3.73802 0
M  V30 1555 H 154.971 -3.90908 -2.87081 0
M  V30 1556 H 150.85 -2.90718 -3.57777 0
M  V30 1557 H 154.394 -6.30727 -2.98043 0
M  V30 1558 H 150.291 -5.29659 -3.68959 0
M  V30 1559 H 151.059 -7.3686 -3.56343 0
M  V30 1560 N 153.722 1.14298 -1.08507 0
M  V30 1561 C 154.95 1.89219 -0.836876 0
M  V30 1562 C 155.365 1.78638 0.611054 0
M  V30 1563 O 154.722 1.14643 1.41998 0
M  V30 1564 C 154.773 3.39158 -1.25116 0
M  V30 1565 O 154.494 3.49449 -2.64229 0
M  V30 1566 C 155.995 4.31073 -1.03398 0
M  V30 1567 H 153.215 0.599328 -0.301739 0
M  V30 1568 H 155.759 1.44746 -1.44461 0
M  V30 1569 H 153.914 3.81251 -0.687514 0
M  V30 1570 H 154.328 4.42589 -2.81452 0
M  V30 1571 H 155.802 5.34646 -1.37323 0
M  V30 1572 H 156.279 4.3919 0.0289259 0
M  V30 1573 H 156.885 3.94738 -1.58311 0
M  V30 1574 N 155.201 0.870884 1.31352 0
M  V30 1575 C 156.131 0.343096 2.30966 0
M  V30 1576 C 157.112 -0.566507 1.60389 0
M  V30 1577 O 158.297 -0.483336 1.88089 0
M  V30 1578 C 155.427 -0.455487 3.443 0
M  V30 1579 C 154.381 0.361103 4.26474 0
M  V30 1580 C 153.707 -0.563221 5.31725 0
M  V30 1581 C 155.007 1.59566 4.97329 0
M  V30 1582 H 156.701 1.17548 2.75359 0
M  V30 1583 H 154.247 0.566686 1.32381 0
M  V30 1584 H 156.2 -0.83525 4.13039 0
M  V30 1585 H 154.924 -1.32139 2.98675 0
M  V30 1586 H 153.583 0.722825 3.59403 0
M  V30 1587 H 153.231 -1.42643 4.82351 0
M  V30 1588 H 152.931 -0.0207409 5.87596 0
M  V30 1589 H 154.455 -0.939808 6.03324 0
M  V30 1590 H 155.869 1.28728 5.58661 0
M  V30 1591 H 154.266 2.07728 5.63 0
M  V30 1592 H 155.336 2.34798 4.24262 0
M  V30 1593 N 156.679 -1.44442 0.630414 0
M  V30 1594 C 157.611 -2.2892 -0.113347 0
M  V30 1595 C 158.624 -1.41243 -0.80959 0
M  V30 1596 O 159.813 -1.65402 -0.671156 0
M  V30 1597 C 156.913 -3.17594 -1.18266 0
M  V30 1598 C 156.086 -4.33682 -0.569073 0
M  V30 1599 C 155.145 -5.03397 -1.53226 0
M  V30 1600 O 154.171 -5.59438 -1.04967 0
M  V30 1601 N 155.373 -5.04783 -2.86661 0
M  V30 1602 H 158.138 -2.93392 0.611636 0
M  V30 1603 H 155.699 -1.54881 0.471523 0
M  V30 1604 H 157.691 -3.61097 -1.82732 0
M  V30 1605 H 156.261 -2.54876 -1.80988 0
M  V30 1606 H 155.481 -3.9338 0.254187 0
M  V30 1607 H 156.769 -5.08608 -0.139767 0
M  V30 1608 H 156.167 -4.60584 -3.28449 0
M  V30 1609 H 154.724 -5.52077 -3.46489 0
M  V30 1610 N 158.157 -0.370918 -1.53173 0
M  V30 1611 C 159.067 0.480823 -2.2962 0
M  V30 1612 C 160.083 1.08789 -1.35798 0
M  V30 1613 O 161.259 1.09768 -1.68858 0
M  V30 1614 C 158.324 1.60227 -3.07454 0
M  V30 1615 C 157.385 1.0222 -4.16953 0
M  V30 1616 C 156.618 2.0902 -4.91066 0
M  V30 1617 O 156.841 3.30222 -4.65091 0
M  V30 1618 O 155.775 1.71778 -5.76867 0
M  V30 1619 H 159.601 -0.141421 -3.03371 0
M  V30 1620 H 157.186 -0.135146 -1.48787 0
M  V30 1621 H 159.068 2.25417 -3.56041 0
M  V30 1622 H 157.743 2.20982 -2.36535 0
M  V30 1623 H 156.65 0.334064 -3.72605 0
M  V30 1624 H 157.983 0.459131 -4.90054 0
M  V30 1625 N 159.635 1.57281 -0.100228 0
M  V30 1626 C 160.881 1.94826 0.563101 0
M  V30 1627 C 161.214 0.982475 1.67514 0
M  V30 1628 O 160.489 0.0164069 1.94493 0
M  V30 1629 C 160.772 3.42453 1.11346 0
M  V30 1630 C 160.625 4.498 0.00612081 0
M  V30 1631 C 161.944 3.91506 2.01024 0
M  V30 1632 H 159.063 0.708428 0.203221 0
M  V30 1633 H 161.705 1.8922 -0.171979 0
M  V30 1634 H 159.855 3.47361 1.7399 0
M  V30 1635 H 161.527 4.57 -0.628357 0
M  V30 1636 H 159.77 4.28756 -0.659581 0
M  V30 1637 H 160.441 5.50306 0.432109 0
M  V30 1638 H 162.917 3.88784 1.48278 0
M  V30 1639 H 161.793 4.95358 2.36457 0
M  V30 1640 H 162.054 3.31099 2.92961 0
M  V30 1641 N 161.113 -0.173488 1.56642 0
M  V30 1642 C 162.023 -1.23482 1.99473 0
M  V30 1643 C 163.039 -1.48567 0.905752 0
M  V30 1644 O 164.215 -1.60758 1.21321 0
M  V30 1645 C 161.28 -2.55444 2.34413 0
M  V30 1646 C 160.341 -2.38241 3.57127 0
M  V30 1647 C 159.574 -3.63909 3.90392 0
M  V30 1648 O 159.797 -4.68996 3.24653 0
M  V30 1649 O 158.731 -3.58149 4.83749 0
M  V30 1650 H 162.557 -0.901279 2.90018 0
M  V30 1651 H 160.142 -0.380185 1.44482 0
M  V30 1652 H 162.024 -3.33292 2.57865 0
M  V30 1653 H 160.699 -2.88382 1.4703 0
M  V30 1654 H 159.606 -1.58431 3.38896 0
M  V30 1655 H 160.939 -2.10228 4.45045 0
M  V30 1656 N 162.591 -1.51276 -0.441967 0
M  V30 1657 C 163.501 -1.75092 -1.56141 0
M  V30 1658 C 164.517 -0.634963 -1.62001 0
M  V30 1659 O 165.693 -0.916686 -1.79329 0
M  V30 1660 C 162.758 -1.86666 -2.92158 0
M  V30 1661 C 161.819 -3.10506 -2.96453 0
M  V30 1662 C 161.052 -3.21519 -4.25982 0
M  V30 1663 O 161.275 -2.38586 -5.18105 0
M  V30 1664 O 160.209 -4.14465 -4.36466 0
M  V30 1665 H 164.035 -2.70044 -1.38961 0
M  V30 1666 H 161.62 -1.35722 -0.624499 0
M  V30 1667 H 163.502 -1.96292 -3.72891 0
M  V30 1668 H 162.177 -0.949014 -3.09476 0
M  V30 1669 H 161.084 -3.06363 -2.14692 0
M  V30 1670 H 162.417 -4.01945 -2.84079 0
M  V30 1671 N 164.069 0.697108 -1.41344 0
M  V30 1672 C 165.317 1.45426 -1.40341 0
M  V30 1673 C 165.638 1.94996 -0.0128787 0
M  V30 1674 O 164.908 1.71599 0.945027 0
M  V30 1675 H 163.488 0.539594 -0.516573 0
M  V30 1676 H 166.15 0.825201 -1.76569 0
M  V30 1677 H 165.246 2.31817 -2.08967 0
M  V30 1678 N 165.547 1.27147 0.931209 0
M  V30 1679 C 166.477 1.12081 2.04842 0
M  V30 1680 C 167.458 0.0232364 1.70084 0
M  V30 1681 O 168.643 0.197085 1.93197 0
M  V30 1682 C 165.773 0.76354 3.38803 0
M  V30 1683 C 164.727 1.81396 3.87659 0
M  V30 1684 C 164.053 1.31075 5.18385 0
M  V30 1685 C 165.353 3.21739 4.11438 0
M  V30 1686 H 167.047 2.05537 2.17703 0
M  V30 1687 H 164.593 0.989603 1.04608 0
M  V30 1688 H 166.546 0.644982 4.16435 0
M  V30 1689 H 165.27 -0.206727 3.25945 0
M  V30 1690 H 163.929 1.92136 3.12217 0
M  V30 1691 H 163.577 0.330037 5.01916 0
M  V30 1692 H 163.277 2.013 5.52044 0
M  V30 1693 H 164.801 1.20506 5.98591 0
M  V30 1694 H 166.215 3.14019 4.79651 0
M  V30 1695 H 164.612 3.89644 4.56397 0
M  V30 1696 H 165.682 3.67054 3.16859 0
M  V30 1697 N 167.025 -1.13721 1.09112 0
M  V30 1698 C 167.988 -2.17222 0.731241 0
M  V30 1699 C 168.988 -1.59035 -0.237566 0
M  V30 1700 O 170.178 -1.74192 -0.0161704 0
M  V30 1701 C 167.31 -3.40804 0.0808443 0
M  V30 1702 H 168.503 -2.50573 1.64783 0
M  V30 1703 H 166.056 -1.28493 0.889897 0
M  V30 1704 H 166.791 -3.1304 -0.847127 0
M  V30 1705 H 166.576 -3.84306 0.777896 0
M  V30 1706 H 168.066 -4.1731 -0.155657 0
M  V30 1707 N 168.503 -0.877838 -1.30888 0
M  V30 1708 C 169.435 -0.296607 -2.27273 0
M  V30 1709 C 170.448 0.544799 -1.53414 0
M  V30 1710 O 171.637 0.365511 -1.74718 0
M  V30 1711 C 168.737 0.597481 -3.33592 0
M  V30 1712 C 167.91 -0.213251 -4.3688 0
M  V30 1713 C 166.969 0.610208 -5.2265 0
M  V30 1714 O 165.995 0.035441 -5.69189 0
M  V30 1715 N 167.197 1.92071 -5.47804 0
M  V30 1716 H 169.962 -1.12492 -2.77787 0
M  V30 1717 H 167.523 -0.740105 -1.43993 0
M  V30 1718 H 169.515 1.15425 -3.87891 0
M  V30 1719 H 168.085 1.32647 -2.83061 0
M  V30 1720 H 167.305 -0.951466 -3.82545 0
M  V30 1721 H 168.593 -0.769262 -5.02951 0
M  V30 1722 H 167.991 2.4107 -5.11763 0
M  V30 1723 H 166.548 2.42508 -6.05007 0
M  V30 1724 N 169.982 1.44106 -0.638065 0
M  V30 1725 C 170.932 2.27843 0.0847285 0
M  V30 1726 C 171.916 1.39055 0.809471 0
M  V30 1727 O 173.108 1.62808 0.694435 0
M  V30 1728 C 170.237 3.26497 1.06089 0
M  V30 1729 C 169.323 4.22772 0.33541 0
M  V30 1730 N 169.714 5.01737 -0.639787 0
M  V30 1731 C 168.012 4.42227 0.578921 0
M  V30 1732 C 168.713 5.71792 -1.06904 0
M  V30 1733 N 167.689 5.42079 -0.406395 0
M  V30 1734 H 171.491 2.86305 -0.663814 0
M  V30 1735 H 169.005 1.55627 -0.464122 0
M  V30 1736 H 171.002 3.8525 1.59337 0
M  V30 1737 H 169.662 2.69595 1.80966 0
M  V30 1738 H 170.673 5.07799 -1.01789 0
M  V30 1739 H 167.35 3.96415 1.31003 0
M  V30 1740 H 168.74 6.45205 -1.8751 0
M  V30 1741 N 171.46 0.379036 1.52974 0
M  V30 1742 C 172.407 -0.461048 2.26148 0
M  V30 1743 C 173.377 -1.06637 1.27349 0
M  V30 1744 O 174.562 -1.09633 1.56157 0
M  V30 1745 C 171.702 -1.58782 3.06402 0
M  V30 1746 C 170.815 -1.00636 4.20115 0
M  V30 1747 C 169.95 -2.10334 4.87784 0
M  V30 1748 C 168.989 -1.49724 5.93506 0
M  V30 1749 N 168.126 -2.5331 6.54812 0
M  V30 1750 H 172.966 0.169429 2.97518 0
M  V30 1751 H 170.503 0.0953806 1.4679 0
M  V30 1752 H 172.461 -2.25174 3.51215 0
M  V30 1753 H 171.091 -2.18876 2.37261 0
M  V30 1754 H 170.143 -0.232332 3.7969 0
M  V30 1755 H 171.455 -0.523343 4.96047 0
M  V30 1756 H 170.609 -2.84519 5.35849 0
M  V30 1757 H 169.348 -2.61992 4.11353 0
M  V30 1758 H 168.353 -0.740598 5.44789 0
M  V30 1759 H 169.578 -0.988732 6.71864 0
M  V30 1760 H 167.524 -3.04156 5.81227 0
M  V30 1761 H 167.441 -2.09734 7.26325 0
M  V30 1762 H 168.709 -3.27155 7.07524 0
M  V30 1763 N 172.938 -1.57226 0.108567 0
M  V30 1764 C 174.349 -1.8195 -0.418464 0
M  V30 1765 C 174.7 -1.02508 -1.67292 0
M  V30 1766 O 173.825 -0.258496 -2.14851 0
M  V30 1767 C 174.42 -3.30028 -0.765979 0
M  V30 1768 C 172.979 -3.55469 -1.23769 0
M  V30 1769 C 172.126 -2.7625 -0.241106 0
M  V30 1770 H 175.077 -1.55149 0.33384 0
M  V30 1771 H 175.098 -3.44086 -1.62434 0
M  V30 1772 H 174.61 -3.87821 0.147219 0
M  V30 1773 H 172.711 -3.03022 -2.16814 0
M  V30 1774 H 172.824 -4.6408 -1.19022 0
M  V30 1775 H 171.188 -2.44133 -0.72602 0
M  V30 1776 H 171.971 -3.36797 0.665007 0
M  V30 1777 N 174.416 0.165178 -1.56732 0
M  V30 1778 C 175.662 0.882112 -1.82611 0
M  V30 1779 C 175.995 1.81628 -0.687378 0
M  V30 1780 O 175.27 1.92009 0.310267 0
M  V30 1781 C 175.553 1.67245 -3.18906 0
M  V30 1782 C 175.406 0.760987 -4.43316 0
M  V30 1783 C 176.725 2.63884 -3.52212 0
M  V30 1784 H 173.844 0.319242 -0.664269 0
M  V30 1785 H 176.486 0.148052 -1.89422 0
M  V30 1786 H 174.636 2.29824 -3.1323 0
M  V30 1787 H 176.308 0.147596 -4.61064 0
M  V30 1788 H 174.551 0.0694102 -4.33744 0
M  V30 1789 H 175.222 1.34962 -5.35247 0
M  V30 1790 H 177.698 2.11429 -3.58381 0
M  V30 1791 H 176.574 3.16245 -4.48643 0
M  V30 1792 H 176.835 3.44377 -2.77231 0
M  V30 1793 N 175.894 1.51508 0.433938 0
M  V30 1794 C 176.824 1.76016 1.53429 0
M  V30 1795 C 177.805 0.610112 1.58782 0
M  V30 1796 O 178.99 0.853177 1.74455 0
M  V30 1797 C 176.12 1.88831 2.9148 0
M  V30 1798 C 175.074 3.04288 3.00987 0
M  V30 1799 C 174.4 3.0229 4.4105 0
M  V30 1800 C 175.7 4.44193 2.74754 0
M  V30 1801 H 177.394 2.68152 1.33171 0
M  V30 1802 H 174.94 1.29035 0.639214 0
M  V30 1803 H 176.893 2.04559 3.6842 0
M  V30 1804 H 175.617 0.933455 3.12976 0
M  V30 1805 H 174.276 2.8827 2.26486 0
M  V30 1806 H 173.924 2.04576 4.59519 0
M  V30 1807 H 173.624 3.79822 4.4834 0
M  V30 1808 H 175.148 3.20116 5.1996 0
M  V30 1809 H 176.562 4.60544 3.41426 0
M  V30 1810 H 174.959 5.23457 2.9345 0
M  V30 1811 H 176.029 4.53996 1.70339 0
M  V30 1812 N 177.372 -0.689602 1.41712 0
M  V30 1813 C 178.302 -1.81577 1.46806 0
M  V30 1814 C 179.283 -1.66945 0.326105 0
M  V30 1815 O 180.468 -1.86588 0.538377 0
M  V30 1816 C 177.598 -3.19762 1.35535 0
M  V30 1817 C 176.552 -3.49107 2.47605 0
M  V30 1818 C 175.878 -4.86711 2.21397 0
M  V30 1819 C 177.178 -3.47483 3.89939 0
M  V30 1820 H 178.872 -1.7757 2.41058 0
M  V30 1821 H 176.418 -0.852887 1.16025 0
M  V30 1822 H 178.371 -3.98263 1.3771 0
M  V30 1823 H 177.095 -3.24409 0.377708 0
M  V30 1824 H 175.754 -2.72959 2.44722 0
M  V30 1825 H 175.402 -4.8799 1.21961 0
M  V30 1826 H 175.102 -5.0731 2.96497 0
M  V30 1827 H 176.626 -5.67515 2.25297 0
M  V30 1828 H 178.04 -4.1598 3.94505 0
M  V30 1829 H 176.437 -3.79615 4.64771 0
M  V30 1830 H 177.507 -2.46341 4.17665 0
M  V30 1831 N 178.85 -1.27639 -0.924453 0
M  V30 1832 C 180.097 -1.14167 -1.67249 0
M  V30 1833 C 180.425 0.311863 -1.91984 0
M  V30 1834 O 179.68 1.24425 -1.51053 0
M  V30 1835 C 179.979 -1.87407 -3.04325 0
M  V30 1836 C 179.645 -3.37249 -2.99289 0
M  V30 1837 C 178.307 -3.7812 -2.97622 0
M  V30 1838 C 180.659 -4.32845 -2.90336 0
M  V30 1839 C 177.987 -5.12944 -2.8479 0
M  V30 1840 C 180.339 -5.6773 -2.79045 0
M  V30 1841 C 179.003 -6.07889 -2.7573 0
M  V30 1842 H 178.273 -0.417766 -0.612007 0
M  V30 1843 H 180.92 -1.58286 -1.07786 0
M  V30 1844 H 179.225 -1.35805 -3.67511 0
M  V30 1845 H 180.922 -1.74408 -3.61086 0
M  V30 1846 H 177.512 -3.04748 -3.01374 0
M  V30 1847 H 181.696 -4.02239 -2.90719 0
M  V30 1848 H 176.952 -5.432 -2.80612 0
M  V30 1849 H 181.126 -6.41472 -2.71083 0
M  V30 1850 H 178.753 -7.12314 -2.65544 0
M  V30 1851 N 180.328 1.1314 -1.09713 0
M  V30 1852 C 181.258 2.20748 -0.761102 0
M  V30 1853 C 182.239 1.68061 0.262566 0
M  V30 1854 O 183.424 1.93765 0.129977 0
M  V30 1855 C 180.554 3.46812 -0.184054 0
M  V30 1856 C 179.508 4.12606 -1.13757 0
M  V30 1857 C 178.834 5.33031 -0.422083 0
M  V30 1858 C 180.134 4.59603 -2.48118 0
M  V30 1859 H 181.828 2.49113 -1.66082 0
M  V30 1860 H 179.374 1.19734 -0.799987 0
M  V30 1861 H 181.327 4.21353 0.0631215 0
M  V30 1862 H 180.051 3.17851 0.750868 0
M  V30 1863 H 178.71 3.40036 -1.37007 0
M  V30 1864 H 178.358 5.00335 0.517072 0
M  V30 1865 H 178.058 5.77999 -1.05788 0
M  V30 1866 H 179.582 6.10325 -0.183277 0
M  V30 1867 H 180.996 5.25552 -2.29059 0
M  V30 1868 H 179.393 5.15321 -3.07514 0
M  V30 1869 H 180.463 3.73971 -3.08665 0
M  V30 1870 N 181.806 0.884767 1.30421 0
M  V30 1871 C 183.034 0.518044 2.0031 0
M  V30 1872 C 183.449 -0.893408 1.66324 0
M  V30 1873 O 182.806 -1.5875 0.900262 0
M  V30 1874 C 182.857 0.682997 3.54989 0
M  V30 1875 O 182.578 2.03888 3.87764 0
M  V30 1876 C 184.079 0.31924 4.42149 0
M  V30 1877 H 181.299 0.200265 0.640418 0
M  V30 1878 H 183.843 1.19001 1.6631 0
M  V30 1879 H 181.998 0.0584052 3.87356 0
M  V30 1880 H 182.412 2.05735 4.82466 0
M  V30 1881 H 183.886 0.485555 5.4986 0
M  V30 1882 H 184.363 -0.742717 4.32875 0
M  V30 1883 H 184.969 0.920147 4.15227 0
M  V30 1884 N 183.284 -1.43765 0.645699 0
M  V30 1885 C 184.234 -2.27884 -0.0726442 0
M  V30 1886 C 185.218 -1.39483 -0.802086 0
M  V30 1887 O 186.41 -1.63174 -0.685791 0
M  V30 1888 C 183.539 -3.27055 -1.04356 0
M  V30 1889 C 182.625 -4.22944 -0.312985 0
M  V30 1890 N 183.016 -5.01391 0.666386 0
M  V30 1891 C 181.314 -4.42528 -0.55546 0
M  V30 1892 C 182.015 -5.71217 1.09935 0
M  V30 1893 N 180.991 -5.41856 0.435137 0
M  V30 1894 H 184.793 -2.85949 0.678988 0
M  V30 1895 H 182.307 -1.55378 0.472368 0
M  V30 1896 H 184.304 -3.86089 -1.57292 0
M  V30 1897 H 182.964 -2.70551 -1.79534 0
M  V30 1898 H 183.975 -5.07252 1.04481 0
M  V30 1899 H 180.652 -3.97104 -1.28899 0
M  V30 1900 H 182.042 -6.44202 1.90929 0
M  V30 1901 N 184.763 -0.387143 -1.52771 0
M  V30 1902 C 186.011 0.195349 -2.01154 0
M  V30 1903 C 186.332 1.475 -1.27549 0
M  V30 1904 O 185.602 1.91878 -0.394924 0
M  V30 1905 H 184.182 0.075178 -0.743207 0
M  V30 1906 H 186.844 -0.518337 -1.87881 0
M  V30 1907 H 185.94 0.407096 -3.09434 0
M  V30 1908 N 186.241 1.57166 -0.116904 0
M  V30 1909 C 187.151 2.18745 0.847812 0
M  V30 1910 C 188.167 1.163 1.29423 0
M  V30 1911 O 189.343 1.48761 1.35765 0
M  V30 1912 C 186.408 2.77307 2.0809 0
M  V30 1913 C 185.469 3.94781 1.68661 0
M  V30 1914 C 184.702 4.50541 2.86091 0
M  V30 1915 O 184.925 4.05202 4.01456 0
M  V30 1916 O 183.859 5.41256 2.63298 0
M  V30 1917 H 187.685 3.01632 0.353778 0
M  V30 1918 H 185.27 1.49005 0.108599 0
M  V30 1919 H 187.152 3.14647 2.80313 0
M  V30 1920 H 185.827 1.97452 2.56504 0
M  V30 1921 H 184.734 3.62214 0.935518 0
M  V30 1922 H 186.067 4.76065 1.24991 0
M  V30 1923 N 187.719 -0.156864 1.56817 0
M  V30 1924 C 188.944 -0.890331 1.87318 0
M  V30 1925 C 189.369 -1.74394 0.704855 0
M  V30 1926 O 188.727 -1.77972 -0.345786 0
M  V30 1927 C 188.775 -1.73102 3.16336 0
M  V30 1928 O 187.879 -2.83422 2.99576 0
M  V30 1929 H 187.22 -0.24857 0.615718 0
M  V30 1930 H 189.75 -0.150649 2.04045 0
M  V30 1931 H 189.76 -2.12803 3.48107 0
M  V30 1932 H 188.435 -1.10412 4.00976 0
M  V30 1933 H 187.012 -2.47199 2.7919 0
M  V30 1934 N 189.197 -1.51736 -0.425897 0
M  V30 1935 C 190.422 -1.69082 -1.20108 0
M  V30 1936 C 190.847 -0.392398 -1.83962 0
M  V30 1937 O 190.205 0.64858 -1.69302 0
M  V30 1938 C 190.253 -2.81604 -2.25237 0
M  V30 1939 O 189.357 -2.46004 -3.30992 0
M  V30 1940 H 188.698 -0.563408 -0.35138 0
M  V30 1941 H 191.228 -1.98358 -0.501512 0
M  V30 1942 H 191.238 -3.06025 -2.69838 0
M  V30 1943 H 189.913 -3.75817 -1.78142 0
M  V30 1944 H 188.49 -2.32195 -2.91787 0
M  V30 1945 N 190.675 0.682077 -1.42076 0
M  V30 1946 C 191.903 1.47057 -1.4554 0
M  V30 1947 C 192.318 1.8869 -0.0645779 0
M  V30 1948 O 191.675 1.57666 0.919115 0
M  V30 1949 C 191.726 2.72442 -2.37609 0
M  V30 1950 O 191.447 2.32559 -3.71279 0
M  V30 1951 C 192.948 3.66069 -2.50017 0
M  V30 1952 H 190.168 0.452737 -0.495248 0
M  V30 1953 H 192.712 0.838695 -1.8651 0
M  V30 1954 H 190.867 3.31835 -1.9991 0
M  V30 1955 H 191.281 3.13475 -4.20516 0
M  V30 1956 H 192.755 4.50792 -3.18576 0
M  V30 1957 H 193.232 4.11476 -1.53572 0
M  V30 1958 H 193.838 3.12572 -2.88407 0
M  V30 1959 N 192.153 1.28127 0.917671 0
M  V30 1960 C 193.401 1.14825 1.66312 0
M  V30 1961 C 193.722 -0.304379 1.9261 0
M  V30 1962 O 192.992 -1.21149 1.53947 0
M  V30 1963 H 191.572 0.421953 0.616413 0
M  V30 1964 H 194.234 1.608 1.10134 0
M  V30 1965 H 193.33 1.68489 2.62712 0
M  V30 1966 N 193.631 -1.12557 1.10312 0
M  V30 1967 C 194.877 -1.84311 0.846011 0
M  V30 1968 C 195.21 -1.83805 -0.626859 0
M  V30 1969 O 194.485 -1.28268 -1.46211 0
M  V30 1970 C 194.768 -3.32048 1.39341 0
M  V30 1971 C 194.621 -3.41016 2.93305 0
M  V30 1972 C 195.94 -4.27764 1.03468 0
M  V30 1973 H 193.059 -0.669192 0.30879 0
M  V30 1974 H 195.701 -1.32057 1.36605 0
M  V30 1975 H 193.851 -3.76678 0.951087 0
M  V30 1976 H 195.523 -3.05031 3.46055 0
M  V30 1977 H 193.766 -2.81603 3.29973 0
M  V30 1978 H 194.437 -4.44948 3.26689 0
M  V30 1979 H 196.913 -3.91253 1.41633 0
M  V30 1980 H 195.789 -5.29549 1.44463 0
M  V30 1981 H 196.05 -4.42064 -0.0560404 0
M  V30 1982 N 195.109 -0.891671 -1.2995 0
M  V30 1983 C 196.039 -0.379797 -2.30391 0
M  V30 1984 C 197.02 0.540919 -1.6127 0
M  V30 1985 O 198.205 0.453352 -1.88834 0
M  V30 1986 C 195.335 0.400654 -3.44981 0
M  V30 1987 C 194.289 -0.428905 -4.25846 0
M  V30 1988 C 193.615 0.478557 -5.32554 0
M  V30 1989 C 194.915 -1.67458 -4.94727 0
M  V30 1990 H 196.609 -1.21914 -2.73454 0
M  V30 1991 H 194.155 -0.587675 -1.31462 0
M  V30 1992 H 196.108 0.769434 -4.14316 0
M  V30 1993 H 194.832 1.27371 -3.0074 0
M  V30 1994 H 193.491 -0.779911 -3.58208 0
M  V30 1995 H 193.139 1.34951 -4.84559 0
M  V30 1996 H 192.839 -0.0727433 -5.87555 0
M  V30 1997 H 194.363 0.843705 -6.04743 0
M  V30 1998 H 195.777 -1.376 -5.56542 0
M  V30 1999 H 194.174 -2.16659 -5.59624 0
M  V30 2000 H 195.244 -2.41518 -4.20473 0
M  V30 2001 N 196.587 1.43421 -0.653314 0
M  V30 2002 C 197.519 2.29071 0.0769134 0
M  V30 2003 C 198.532 1.42513 0.787017 0
M  V30 2004 O 199.721 1.66449 0.644757 0
M  V30 2005 C 196.821 3.19436 1.13199 0
M  V30 2006 C 195.994 4.34533 0.500006 0
M  V30 2007 C 195.053 5.05771 1.45198 0
M  V30 2008 O 194.079 5.61037 0.960538 0
M  V30 2009 N 195.281 5.0928 2.78594 0
M  V30 2010 H 198.046 2.92382 -0.658235 0
M  V30 2011 H 195.607 1.54112 -0.496104 0
M  V30 2012 H 197.599 3.63958 1.76964 0
M  V30 2013 H 196.169 2.57724 1.7691 0
M  V30 2014 H 195.389 3.92925 -0.316738 0
M  V30 2015 H 196.677 5.08766 0.0588345 0
M  V30 2016 H 196.075 4.65751 3.2108 0
M  V30 2017 H 194.632 5.57519 3.37662 0
M  V30 2018 N 198.065 0.39524 1.52563 0
M  V30 2019 C 199.476 -0.0774719 1.86539 0
M  V30 2020 C 199.827 -1.45641 1.31466 0
M  V30 2021 O 198.952 -2.06459 0.648367 0
M  V30 2022 C 199.547 -0.147356 3.38479 0
M  V30 2023 C 198.106 -0.564373 3.72145 0
M  V30 2024 C 197.253 0.269919 2.75983 0
M  V30 2025 H 200.204 0.612876 1.46388 0
M  V30 2026 H 200.225 -0.965343 3.68051 0
M  V30 2027 H 199.737 0.856387 3.78534 0
M  V30 2028 H 197.838 -1.57527 3.37663 0
M  V30 2029 H 197.951 -0.318402 4.78041 0
M  V30 2030 H 196.315 -0.265696 2.5331 0
M  V30 2031 H 197.098 1.27175 3.18875 0
M  V30 2032 N 199.544 -1.57102 0.125237 0
M  V30 2033 C 200.474 -2.18659 -0.819174 0
M  V30 2034 C 201.455 -1.12843 -1.27281 0
M  V30 2035 O 202.64 -1.41104 -1.33429 0
M  V30 2036 C 199.77 -2.79096 -2.06695 0
M  V30 2037 C 198.724 -3.90548 -1.75088 0
M  V30 2038 C 198.05 -4.37821 -3.06948 0
M  V30 2039 C 199.35 -5.12356 -1.01435 0
M  V30 2040 H 201.044 -2.9783 -0.306202 0
M  V30 2041 H 198.59 -1.4326 -0.145839 0
M  V30 2042 H 200.543 -3.2082 -2.73226 0
M  V30 2043 H 199.267 -1.97223 -2.60328 0
M  V30 2044 H 197.926 -3.49409 -1.10944 0
M  V30 2045 H 197.574 -3.52799 -3.58527 0
M  V30 2046 H 197.274 -5.12982 -2.86571 0
M  V30 2047 H 198.798 -4.822 -3.74587 0
M  V30 2048 H 200.212 -5.5106 -1.58132 0
M  V30 2049 H 198.609 -5.9314 -0.911319 0
M  V30 2050 H 199.679 -4.849 -0.00218681 0
M  V30 2051 N 201.022 0.148545 -1.56898 0
M  V30 2052 C 202.299 0.890019 -1.74178 0
M  V30 2053 C 202.679 1.99407 -0.692839 0
M  V30 2054 O 202.027 2.26671 0.288505 0
M  V30 2055 C 202.237 1.43389 -3.18183 0
M  V30 2056 C 203.585 1.89791 -3.79822 0
M  V30 2057 O 204.609 1.53134 -3.21603 0
M  V30 2058 O 203.468 2.57387 -4.82093 0
M  V30 2059 H 200.562 0.420496 -0.712118 0
M  V30 2060 H 203.108 0.134591 -1.69165 0
M  V30 2061 H 201.88 0.640383 -3.86024 0
M  V30 2062 H 201.503 2.25287 -3.27615 0
M  V30 2063 N 202.5 1.5196 0.417844 0
M  V30 2064 C 203.748 1.65263 1.16329 0
M  V30 2065 C 204.069 0.380634 1.91249 0
M  V30 2066 O 203.339 -0.604214 1.86349 0
M  V30 2067 H 201.919 0.60912 0.432414 0
M  V30 2068 H 204.581 1.88969 0.477162 0
M  V30 2069 H 203.677 2.4896 1.88217 0
M  V30 2070 N 203.978 -0.674533 1.42435 0
M  V30 2071 C 205.225 -1.43459 1.42919 0
M  V30 2072 C 205.553 -1.94446 0.0457312 0
M  V30 2073 O 204.808 -1.7132 -0.94593 0
M  V30 2074 C 205.107 -2.64767 2.40069 0
M  V30 2075 C 204.773 -2.3232 3.86443 0
M  V30 2076 C 203.435 -2.23182 4.26314 0
M  V30 2077 C 205.787 -2.05977 4.78773 0
M  V30 2078 C 203.115 -1.85827 5.56494 0
M  V30 2079 C 205.467 -1.70125 6.09295 0
M  V30 2080 C 204.131 -1.59498 6.48164 0
M  V30 2081 H 203.401 -0.524952 0.522978 0
M  V30 2082 H 206.048 -0.769097 1.75377 0
M  V30 2083 H 204.353 -3.36349 2.00939 0
M  V30 2084 H 206.05 -3.22949 2.37707 0
M  V30 2085 H 202.64 -2.40334 3.54877 0
M  V30 2086 H 206.824 -2.11969 4.48757 0
M  V30 2087 H 202.08 -1.76168 5.8547 0
M  V30 2088 H 206.254 -1.48767 6.80324 0
M  V30 2089 H 203.881 -1.30322 7.48946 0
M  V30 2090 N 205.456 -1.28612 -0.910864 0
M  V30 2091 C 206.704 -1.15705 -1.65701 0
M  V30 2092 C 207.025 0.29416 -1.92769 0
M  V30 2093 O 206.295 1.20331 -1.54588 0
M  V30 2094 H 204.875 -0.425216 -0.614167 0
M  V30 2095 H 207.537 -1.61381 -1.0928 0
M  V30 2096 H 206.633 -1.6988 -2.61815 0
M  V30 2097 N 206.934 1.1197 -1.10907 0
M  V30 2098 C 207.844 2.21433 -0.774896 0
M  V30 2099 C 208.86 1.72478 0.229657 0
M  V30 2100 O 210.036 2.01288 0.0672008 0
M  V30 2101 C 207.101 3.4602 -0.216986 0
M  V30 2102 C 206.162 4.09791 -1.27944 0
M  V30 2103 C 205.395 5.28431 -0.748055 0
M  V30 2104 O 205.618 5.68823 0.423833 0
M  V30 2105 O 204.552 5.82644 -1.51027 0
M  V30 2106 H 208.378 2.5242 -1.68873 0
M  V30 2107 H 205.963 1.20399 -0.884555 0
M  V30 2108 H 207.845 4.21304 0.090059 0
M  V30 2109 H 206.52 3.16698 0.669633 0
M  V30 2110 H 205.427 3.36265 -1.63941 0
M  V30 2111 H 206.76 4.4328 -2.13925 0
M  V30 2112 N 208.412 0.89855 1.29475 0
M  V30 2113 C 209.342 0.39201 2.30186 0
M  V30 2114 C 210.323 -0.532359 1.61555 0
M  V30 2115 O 211.508 -0.443331 1.89072 0
M  V30 2116 C 208.638 -0.382353 3.45189 0
M  V30 2117 C 207.592 0.451483 4.25612 0
M  V30 2118 C 206.918 -0.450307 5.328 0
M  V30 2119 C 208.218 1.70079 4.93832 0
M  V30 2120 H 209.912 1.23362 2.72804 0
M  V30 2121 H 207.458 0.594638 1.31149 0
M  V30 2122 H 209.411 -0.747451 4.14718 0
M  V30 2123 H 208.135 -1.25774 3.01411 0
M  V30 2124 H 206.794 0.798897 3.57789 0
M  V30 2125 H 206.442 -1.32379 4.85268 0
M  V30 2126 H 206.142 0.103902 5.87508 0
M  V30 2127 H 207.666 -0.811623 6.05182 0
M  V30 2128 H 209.08 1.40549 5.55805 0
M  V30 2129 H 207.477 2.19623 5.58467 0
M  V30 2130 H 208.547 2.43744 4.19186 0
M  V30 2131 N 209.89 -1.43072 0.660911 0
M  V30 2132 C 211.13 -2.03596 0.181146 0
M  V30 2133 C 211.494 -1.51057 -1.18515 0
M  V30 2134 O 212.695 -2.03275 -1.75877 0
M  V30 2135 C 210.966 -3.56845 0.19911 0
M  V30 2136 S 212.525 -4.38289 -0.211684 0
M  V30 2137 H 209.343 -0.706954 0.0757479 0
M  V30 2138 H 211.945 -1.75027 0.870965 0
M  V30 2139 H 210.649 -3.92583 1.1961 0
M  V30 2140 H 210.18 -3.90067 -0.510996 0
M  V30 2141 H 212.195 -4.74583 -1.44863 0
M  V30 2142 N 211.368 -0.403325 -1.52352 0
M  V30 2143 C 212.318 0.442244 -2.2367 0
M  V30 2144 C 213.302 1.01823 -1.24583 0
M  V30 2145 O 214.494 0.942005 -1.49851 0
M  V30 2146 C 211.623 1.5615 -3.05732 0
M  V30 2147 C 210.709 0.996575 -4.12225 0
M  V30 2148 N 211.1 0.157804 -5.05554 0
M  V30 2149 C 209.398 1.26767 -4.27605 0
M  V30 2150 C 210.099 -0.155853 -5.81491 0
M  V30 2151 N 209.075 0.451775 -5.41719 0
M  V30 2152 H 212.877 -0.204964 -2.93184 0
M  V30 2153 H 210.391 -0.213418 -1.60992 0
M  V30 2154 H 212.388 2.17981 -3.55373 0
M  V30 2155 H 211.048 2.21139 -2.37755 0
M  V30 2156 H 212.059 -0.206049 -5.1749 0
M  V30 2157 H 208.736 1.91757 -3.70858 0
M  V30 2158 H 210.126 -0.836329 -6.66675 0
M  V30 2159 N 212.846 1.57033 -0.133567 0
M  V30 2160 C 214.262 1.58035 0.222944 0
M  V30 2161 C 214.462 1.14713 1.6566 0
M  V30 2162 O 213.518 0.841218 2.38075 0
M  V30 2163 C 214.831 3.00691 -0.0236116 0
M  V30 2164 C 216.379 3.12973 0.0411512 0
M  V30 2165 C 216.854 4.57654 -0.177899 0
M  V30 2166 N 218.345 4.63033 -0.124365 0
M  V30 2167 C 219.08 5.72771 -0.268553 0
M  V30 2168 N 218.576 6.91206 -0.46972 0
M  V30 2169 N 220.369 5.61718 -0.2071 0
M  V30 2170 H 212.52 1.8349 -1.06981 0
M  V30 2171 H 214.783 0.848677 -0.422436 0
M  V30 2172 H 214.489 3.36726 -1.0153 0
M  V30 2173 H 214.363 3.70614 0.701808 0
M  V30 2174 H 216.75 2.76787 1.02338 0
M  V30 2175 H 216.831 2.45564 -0.716383 0
M  V30 2176 H 216.475 4.94542 -1.15717 0
M  V30 2177 H 216.405 5.23173 0.599797 0
M  V30 2178 H 218.896 3.7789 0.027011 0
M  V30 2179 H 219.209 7.70693 -0.570212 0
M  V30 2180 H 217.554 6.93156 -0.505876 0
M  V30 2181 H 220.745 4.68072 -0.0507986 0
M  V30 2182 H 220.918 6.47195 -0.322909 0
M  V30 2183 N 214.325 -0.140222 1.56975 0
M  V30 2184 C 215.555 -0.865181 1.87612 0
M  V30 2185 C 215.963 -1.74942 0.72055 0
M  V30 2186 O 215.306 -1.80917 -0.318561 0
M  V30 2187 C 215.368 -1.76782 3.13031 0
M  V30 2188 C 215.032 -1.06005 4.44536 0
M  V30 2189 C 216.029 -0.410768 5.18275 0
M  V30 2190 C 213.714 -1.04754 4.91255 0
M  V30 2191 C 215.708 0.241572 6.36942 0
M  V30 2192 C 213.395 -0.391394 6.09845 0
M  V30 2193 C 214.393 0.252029 6.82535 0
M  V30 2194 O 214.081 0.897757 7.98871 0
M  V30 2195 H 213.813 -0.255188 0.625983 0
M  V30 2196 H 216.367 -0.135653 2.04952 0
M  V30 2197 H 214.597 -2.53846 2.91718 0
M  V30 2198 H 216.286 -2.36533 3.29859 0
M  V30 2199 H 217.052 -0.412195 4.83245 0
M  V30 2200 H 212.931 -1.53777 4.34596 0
M  V30 2201 H 216.475 0.744375 6.93617 0
M  V30 2202 H 212.372 -0.387656 6.44335 0
M  V30 2203 H 213.14 0.800102 8.1458 0
M  V30 2204 N 215.803 -1.52179 -0.40978 0
M  V30 2205 C 216.75 -1.75475 -1.49924 0
M  V30 2206 C 217.72 -0.597175 -1.54994 0
M  V30 2207 O 218.905 -0.834655 -1.71575 0
M  V30 2208 C 216.045 -1.9107 -2.87378 0
M  V30 2209 C 215.158 -3.18717 -2.91622 0
M  V30 2210 C 214.293 -3.24747 -4.20372 0
M  V30 2211 C 213.332 -4.46598 -4.18588 0
M  V30 2212 N 212.469 -4.50025 -5.38908 0
M  V30 2213 H 217.309 -2.68458 -1.29361 0
M  V30 2214 H 214.846 -1.33024 -0.627934 0
M  V30 2215 H 216.804 -1.98096 -3.6717 0
M  V30 2216 H 215.434 -1.01469 -3.06437 0
M  V30 2217 H 214.486 -3.20866 -2.04326 0
M  V30 2218 H 215.798 -4.08544 -2.86169 0
M  V30 2219 H 214.952 -3.30841 -5.08556 0
M  V30 2220 H 213.691 -2.32857 -4.28519 0
M  V30 2221 H 212.696 -4.40652 -3.28794 0
M  V30 2222 H 213.921 -5.39783 -4.12081 0
M  V30 2223 H 211.867 -3.61017 -5.47725 0
M  V30 2224 H 211.784 -5.33697 -5.35447 0
M  V30 2225 H 213.052 -4.60347 -6.29048 0
M  V30 2226 N 217.281 0.66697 -1.42791 0
M  V30 2227 C 218.521 1.43892 -1.4517 0
M  V30 2228 C 218.885 1.91877 -0.0687551 0
M  V30 2229 O 220.086 2.6878 0.0327455 0
M  V30 2230 C 218.357 2.59839 -2.45395 0
M  V30 2231 S 219.916 3.48572 -2.66539 0
M  V30 2232 H 216.734 0.491356 -0.513897 0
M  V30 2233 H 219.336 0.775656 -1.79454 0
M  V30 2234 H 218.04 2.22838 -3.44632 0
M  V30 2235 H 217.571 3.3103 -2.12562 0
M  V30 2236 H 219.586 4.56094 -1.95429 0
M  V30 2237 N 218.759 1.29093 0.90403 0
M  V30 2238 C 219.689 1.16401 2.02418 0
M  V30 2239 C 220.67 0.0593085 1.69997 0
M  V30 2240 O 221.855 0.238021 1.92736 0
M  V30 2241 C 218.985 0.835233 3.37107 0
M  V30 2242 C 217.939 1.89578 3.83724 0
M  V30 2243 C 217.265 1.42041 5.15489 0
M  V30 2244 C 218.565 3.30394 4.04521 0
M  V30 2245 H 220.259 2.10109 2.13295 0
M  V30 2246 H 217.805 1.01157 1.02486 0
M  V30 2247 H 219.758 0.733169 4.14973 0
M  V30 2248 H 218.482 -0.137543 3.2631 0
M  V30 2249 H 217.141 1.98715 3.08071 0
M  V30 2250 H 216.789 0.436426 5.01103 0
M  V30 2251 H 216.489 2.12964 5.4765 0
M  V30 2252 H 218.013 1.33176 5.959 0
M  V30 2253 H 219.427 3.24123 4.72882 0
M  V30 2254 H 217.824 3.99237 4.48029 0
M  V30 2255 H 218.894 3.73692 3.09002 0
M  V30 2256 N 220.237 -1.11381 1.11499 0
M  V30 2257 C 221.167 -2.19509 0.796125 0
M  V30 2258 C 222.148 -1.68458 -0.235796 0
M  V30 2259 O 223.333 -1.93947 -0.0991344 0
M  V30 2260 C 220.463 -3.46475 0.239205 0
M  V30 2261 C 219.417 -4.10744 1.20307 0
M  V30 2262 C 218.743 -5.32293 0.50683 0
M  V30 2263 C 220.043 -4.55597 2.55399 0
M  V30 2264 H 221.737 -2.46439 1.70024 0
M  V30 2265 H 219.283 -1.18446 0.818935 0
M  V30 2266 H 221.236 -4.214 0.00392006 0
M  V30 2267 H 219.96 -3.19006 -0.700206 0
M  V30 2268 H 218.619 -3.37813 1.42399 0
M  V30 2269 H 218.267 -5.01095 -0.437408 0
M  V30 2270 H 217.967 -5.76243 1.1497 0
M  V30 2271 H 219.491 -6.09956 0.280351 0
M  V30 2272 H 220.905 -5.21841 2.37391 0
M  V30 2273 H 219.302 -5.10363 3.15673 0
M  V30 2274 H 220.372 -3.69013 3.14575 0
M  V30 2275 N 221.715 -0.905404 -1.28997 0
M  V30 2276 C 222.645 -0.404212 -2.29975 0
M  V30 2277 C 223.626 0.523784 -1.61835 0
M  V30 2278 O 224.811 0.433298 -1.89304 0
M  V30 2279 C 221.941 0.364042 -3.45387 0
M  V30 2280 C 220.895 -0.474048 -4.25367 0
M  V30 2281 C 220.221 0.422045 -5.33032 0
M  V30 2282 C 221.521 -1.72696 -4.92923 0
M  V30 2283 H 223.215 -1.24807 -2.72146 0
M  V30 2284 H 220.761 -0.601585 -1.30832 0
M  V30 2285 H 222.714 0.725447 -4.15109 0
M  V30 2286 H 221.438 1.24174 -3.02074 0
M  V30 2287 H 220.097 -0.81786 -3.57361 0
M  V30 2288 H 219.745 1.29804 -4.85963 0
M  V30 2289 H 219.445 -0.135057 -5.87445 0
M  V30 2290 H 220.969 0.779517 -6.05604 0
M  V30 2291 H 222.383 -1.43495 -5.55051 0
M  V30 2292 H 220.78 -2.22582 -5.57295 0
M  V30 2293 H 221.85 -2.45964 -4.17887 0
M  V30 2294 N 223.193 1.4272 -0.668489 0
M  V30 2295 C 224.439 2.01923 -0.188419 0
M  V30 2296 C 224.772 1.52704 1.19979 0
M  V30 2297 O 224.047 0.726566 1.8042 0
M  V30 2298 C 224.33 3.59451 -0.216085 0
M  V30 2299 C 224.183 4.18864 -1.6393 0
M  V30 2300 C 225.502 4.37903 0.439179 0
M  V30 2301 H 222.621 0.733674 -0.0699412 0
M  V30 2302 H 225.263 1.69822 -0.852076 0
M  V30 2303 H 223.413 3.86929 0.349012 0
M  V30 2304 H 225.085 4.02362 -2.25616 0
M  V30 2305 H 223.328 3.74933 -2.18193 0
M  V30 2306 H 223.999 5.27987 -1.61039 0
M  V30 2307 H 226.475 4.16079 -0.0417878 0
M  V30 2308 H 225.351 5.47519 0.389157 0
M  V30 2309 H 225.612 4.15303 1.51577 0
M  V30 2310 N 224.671 0.411399 1.52136 0
M  V30 2311 C 225.948 -0.222308 1.94333 0
M  V30 2312 C 226.328 -1.6242 1.34844 0
M  V30 2313 O 225.676 -2.22384 0.525145 0
M  V30 2314 C 225.886 -0.226345 3.48265 0
M  V30 2315 C 227.234 -0.444592 4.22266 0
M  V30 2316 O 228.258 -0.305602 3.54887 0
M  V30 2317 O 227.117 -0.718749 5.41753 0
M  V30 2318 H 224.211 -0.143907 0.814383 0
M  V30 2319 H 226.757 0.467506 1.63133 0
M  V30 2320 H 225.529 0.75475 3.83952 0
M  V30 2321 H 225.152 -0.960163 3.85832 0
M  V30 2322 N 226.149 -1.5696 0.141893 0
M  V30 2323 C 227.374 -2.00754 -0.520838 0
M  V30 2324 C 227.799 -1.0213 -1.57959 0
M  V30 2325 O 227.157 0.00371324 -1.813 0
M  V30 2326 C 227.205 -3.43318 -1.10294 0
M  V30 2327 O 226.309 -3.47679 -2.21795 0
M  V30 2328 H 225.65 -0.651564 -0.127908 0
M  V30 2329 H 228.18 -2.03221 0.23712 0
M  V30 2330 H 228.19 -3.82012 -1.43287 0
M  V30 2331 H 226.865 -4.14608 -0.327574 0
M  V30 2332 H 225.442 -3.20824 -1.9007 0
M  V30 2333 N 227.627 0.131896 -1.57047 0
M  V30 2334 C 228.873 0.843179 -1.84441 0
M  V30 2335 C 229.206 1.80129 -0.725749 0
M  V30 2336 O 228.481 1.92624 0.269469 0
M  V30 2337 C 228.764 1.60442 -3.22382 0
M  V30 2338 C 228.617 0.666782 -4.4483 0
M  V30 2339 C 229.936 2.56354 -3.5773 0
M  V30 2340 H 227.055 0.305081 -0.670891 0
M  V30 2341 H 229.697 0.107839 -1.89694 0
M  V30 2342 H 227.847 2.23128 -3.18035 0
M  V30 2343 H 229.519 0.0497646 -4.61273 0
M  V30 2344 H 227.762 -0.022609 -4.33794 0
M  V30 2345 H 228.433 1.23579 -5.37989 0
M  V30 2346 H 230.909 2.0378 -3.62785 0
M  V30 2347 H 229.785 3.06657 -4.5525 0
M  V30 2348 H 230.046 3.38419 -2.84473 0
M  V30 2349 N 229.106 1.52395 0.401703 0
M  V30 2350 C 230.069 1.75636 1.47257 0
M  V30 2351 C 231.069 0.62628 1.48103 0
M  V30 2352 O 232.259 0.894227 1.49497 0
M  V30 2353 C 229.391 1.84553 2.86624 0
M  V30 2354 H 230.584 2.71241 1.27938 0
M  V30 2355 H 228.137 1.42923 0.632662 0
M  V30 2356 H 228.872 0.908882 3.11303 0
M  V30 2357 H 228.657 2.66715 2.87412 0
M  V30 2358 H 230.147 2.04251 3.64241 0
M  V30 2359 N 230.584 -0.659388 1.43143 0
M  V30 2360 C 231.809 -1.45221 1.48073 0
M  V30 2361 C 232.234 -1.87845 0.097995 0
M  V30 2362 O 231.592 -1.56985 -0.90694 0
M  V30 2363 C 231.64 -2.66748 2.42647 0
M  V30 2364 O 230.744 -3.65583 1.90848 0
M  V30 2365 H 230.085 -0.435669 0.501088 0
M  V30 2366 H 232.615 -0.807432 1.87994 0
M  V30 2367 H 232.625 -3.14637 2.59745 0
M  V30 2368 H 231.3 -2.35067 3.43098 0
M  V30 2369 H 229.877 -3.24693 1.83381 0
M  V30 2370 N 232.062 -1.29571 -0.897171 0
M  V30 2371 C 232.992 -1.17473 -2.01798 0
M  V30 2372 C 233.973 -0.068323 -1.69963 0
M  V30 2373 O 235.158 -0.248239 -1.92607 0
M  V30 2374 C 232.288 -0.853099 -3.36659 0
M  V30 2375 C 231.242 -1.9161 -3.82713 0
M  V30 2376 C 230.568 -1.44773 -5.14728 0
M  V30 2377 C 231.868 -3.32535 -4.02763 0
M  V30 2378 H 233.562 -2.11237 -2.12177 0
M  V30 2379 H 231.108 -1.01699 -1.01948 0
M  V30 2380 H 233.061 -0.755165 -4.14578 0
M  V30 2381 H 231.785 0.120236 -3.26379 0
M  V30 2382 H 230.444 -2.00346 -3.07013 0
M  V30 2383 H 230.092 -0.462995 -5.00865 0
M  V30 2384 H 229.792 -2.15865 -5.46513 0
M  V30 2385 H 231.316 -1.36334 -5.95185 0
M  V30 2386 H 232.73 -3.26626 -4.71156 0
M  V30 2387 H 231.127 -4.01607 -4.45905 0
M  V30 2388 H 232.197 -3.75326 -3.07016 0
M  V30 2389 N 233.54 1.10788 -1.12088 0
M  V30 2390 C 234.788 1.8231 -0.872205 0
M  V30 2391 C 235.109 1.85419 0.603709 0
M  V30 2392 O 234.379 1.32963 1.43867 0
M  V30 2393 H 232.959 0.675137 -0.319686 0
M  V30 2394 H 235.621 1.34068 -1.41463 0
M  V30 2395 H 234.717 2.85955 -1.25045 0
M  V30 2396 N 235.018 0.912232 1.28515 0
M  V30 2397 C 236.266 0.543523 1.94654 0
M  V30 2398 C 236.587 -0.9155 1.72173 0
M  V30 2399 O 235.857 -1.64708 1.06058 0
M  V30 2400 H 234.437 0.198017 0.720277 0
M  V30 2401 H 237.099 1.16126 1.56527 0
M  V30 2402 H 236.195 0.736684 3.03281 0
M  V30 2403 N 236.496 -1.42363 0.676048 0
M  V30 2404 C 237.724 -2.05859 0.207268 0
M  V30 2405 C 238.139 -1.50796 -1.13605 0
M  V30 2406 O 237.496 -0.648265 -1.70598 0
M  V30 2407 C 237.547 -3.61248 0.134975 0
M  V30 2408 O 237.268 -4.1427 1.42521 0
M  V30 2409 C 238.769 -4.41859 -0.357151 0
M  V30 2410 H 235.989 -0.663431 0.100503 0
M  V30 2411 H 238.533 -1.82479 0.923136 0
M  V30 2412 H 236.688 -3.83735 -0.531588 0
M  V30 2413 H 237.102 -5.0815 1.29939 0
M  V30 2414 H 238.576 -5.50847 -0.356641 0
M  V30 2415 H 239.053 -4.16536 -1.39264 0
M  V30 2416 H 239.659 -4.24392 0.27772 0
M  V30 2417 N 237.974 -0.419461 -1.51915 0
M  V30 2418 C 239.385 0.0477853 -1.86639 0
M  V30 2419 C 239.736 1.43531 -1.33766 0
M  V30 2420 O 238.861 2.05401 -0.68113 0
M  V30 2421 C 239.456 0.0934885 -3.38671 0
M  V30 2422 C 238.015 0.505097 -3.72996 0
M  V30 2423 C 237.162 -0.313792 -2.75519 0
M  V30 2424 H 240.113 -0.636088 -1.45395 0
M  V30 2425 H 240.134 0.906667 -3.6954 0
M  V30 2426 H 239.646 -0.916501 -3.77123 0
M  V30 2427 H 237.747 1.52135 -3.40126 0
M  V30 2428 H 237.86 0.242309 -4.78487 0
M  V30 2429 H 236.224 0.225363 -2.53701 0
M  V30 2430 H 237.007 -1.32232 -3.16812 0
M  V30 2431 N 239.452 1.56882 -0.150215 0
M  V30 2432 C 240.382 2.19935 0.784284 0
M  V30 2433 C 241.363 1.14854 1.25469 0
M  V30 2434 O 242.548 1.43209 1.31168 0
M  V30 2435 C 239.678 2.82349 2.02229 0
M  V30 2436 C 238.632 3.93285 1.68853 0
M  V30 2437 C 237.958 4.42649 2.99944 0
M  V30 2438 C 239.258 5.13904 0.932714 0
M  V30 2439 H 240.952 2.9828 0.258781 0
M  V30 2440 H 238.498 1.43473 0.123029 0
M  V30 2441 H 240.451 3.25126 2.68088 0
M  V30 2442 H 239.175 2.0134 2.57157 0
M  V30 2443 H 237.834 3.5113 1.05371 0
M  V30 2444 H 237.482 3.58458 3.52869 0
M  V30 2445 H 237.182 5.17476 2.78374 0
M  V30 2446 H 238.706 4.88099 3.66868 0
M  V30 2447 H 240.12 5.53506 1.49345 0
M  V30 2448 H 238.517 5.94515 0.81684 0
M  V30 2449 H 239.587 4.84842 -0.0749568 0
M  V30 2450 N 240.93 -0.123565 1.57115 0
M  V30 2451 C 242.16 -0.845233 1.88519 0
M  V30 2452 C 242.568 -1.74168 0.739064 0
M  V30 2453 O 241.911 -1.81244 -0.299355 0
M  V30 2454 C 241.973 -1.73452 3.14888 0
M  V30 2455 C 241.637 -1.01285 4.45635 0
M  V30 2456 C 242.634 -0.355774 5.18681 0
M  V30 2457 C 240.319 -0.99538 4.92339 0
M  V30 2458 C 242.313 0.309114 6.3665 0
M  V30 2459 C 240 -0.32669 6.10226 0
M  V30 2460 C 240.998 0.324406 6.82229 0
M  V30 2461 O 240.686 0.982437 7.97874 0
M  V30 2462 H 240.418 -0.248534 0.628655 0
M  V30 2463 H 242.972 -0.113907 2.05084 0
M  V30 2464 H 241.202 -2.50737 2.94394 0
M  V30 2465 H 242.891 -2.33021 3.32349 0
M  V30 2466 H 243.657 -0.360918 4.83655 0
M  V30 2467 H 239.536 -1.49159 4.36202 0
M  V30 2468 H 243.08 0.8179 6.92789 0
M  V30 2469 H 238.977 -0.319294 6.4471 0
M  V30 2470 H 239.745 0.886454 8.13686 0
M  V30 2471 N 242.408 -1.52605 -0.393616 0
M  V30 2472 C 243.341 -1.71798 -1.50202 0
M  V30 2473 C 244.319 -0.565743 -1.52441 0
M  V30 2474 O 245.503 -0.794987 -1.70916 0
M  V30 2475 C 242.63 -1.7714 -2.88685 0
M  V30 2476 C 241.676 -2.98845 -3.04292 0
M  V30 2477 S 242.509 -4.58909 -2.75976 0
M  V30 2478 C 243.665 -4.6706 -4.1666 0
M  V30 2479 H 243.898 -2.65542 -1.33696 0
M  V30 2480 H 241.431 -1.42839 -0.586195 0
M  V30 2481 H 243.389 -1.80903 -3.68489 0
M  V30 2482 H 242.05 -0.844969 -3.02521 0
M  V30 2483 H 241.243 -2.99111 -4.05646 0
M  V30 2484 H 240.845 -2.9305 -2.32374 0
M  V30 2485 H 243.137 -4.45391 -5.10523 0
M  V30 2486 H 244.08 -5.6905 -4.21412 0
M  V30 2487 H 244.488 -3.95944 -4.02354 0
M  V30 2488 N 243.887 0.651787 -1.4349 0
M  V30 2489 C 245.164 1.40909 -1.35661 0
M  V30 2490 C 245.544 2.11099 -0.00511733 0
M  V30 2491 O 244.892 2.04892 1.0115 0
M  V30 2492 C 245.102 2.3926 -2.54078 0
M  V30 2493 C 246.45 3.03217 -2.97228 0
M  V30 2494 O 247.474 2.49588 -2.54135 0
M  V30 2495 O 246.333 4.00455 -3.71885 0
M  V30 2496 H 243.427 0.629625 -0.536191 0
M  V30 2497 H 245.973 0.678575 -1.55542 0
M  V30 2498 H 244.745 1.86352 -3.44076 0
M  V30 2499 H 244.368 3.1976 -2.36303 0
M  V30 2500 N 245.365 1.30045 0.890287 0
M  V30 2501 C 246.781 1.08261 1.17268 0
M  V30 2502 C 246.981 -0.160063 2.00863 0
M  V30 2503 O 246.037 -0.855181 2.37577 0
M  V30 2504 C 247.35 2.34323 1.8845 0
M  V30 2505 C 248.898 2.39735 2.01237 0
M  V30 2506 C 249.373 3.65625 2.7583 0
M  V30 2507 N 250.864 3.66402 2.83379 0
M  V30 2508 C 251.599 4.60498 3.41657 0
M  V30 2509 N 251.095 5.64933 4.01026 0
M  V30 2510 N 252.888 4.48051 3.39421 0
M  V30 2511 H 245.039 2.09777 0.332762 0
M  V30 2512 H 247.302 0.92446 0.209948 0
M  V30 2513 H 247.008 3.2498 1.34465 0
M  V30 2514 H 246.882 2.4256 2.88867 0
M  V30 2515 H 249.269 1.4956 2.54393 0
M  V30 2516 H 249.35 2.35476 0.999232 0
M  V30 2517 H 248.994 4.56156 2.23347 0
M  V30 2518 H 248.924 3.67144 3.77509 0
M  V30 2519 H 251.415 2.90896 2.41222 0
M  V30 2520 H 251.728 6.32841 4.43545 0
M  V30 2521 H 250.073 5.68732 3.99461 0
M  V30 2522 H 253.264 3.65649 2.92264 0
M  V30 2523 H 253.437 5.21565 3.84544 0
M  V30 2524 N 246.843 -1.10192 1.12674 0
M  V30 2525 C 247.775 -2.16418 0.754701 0
M  V30 2526 C 248.788 -1.61309 -0.21986 0
M  V30 2527 O 249.977 -1.785 -0.000826841 0
M  V30 2528 C 247.077 -3.38762 0.096698 0
M  V30 2529 C 246.25 -4.23307 1.10136 0
M  V30 2530 C 245.309 -5.24092 0.470513 0
M  V30 2531 O 244.335 -5.57906 1.12824 0
M  V30 2532 N 245.537 -5.75491 -0.760948 0
M  V30 2533 H 248.302 -2.48943 1.66875 0
M  V30 2534 H 245.863 -1.25834 1.01869 0
M  V30 2535 H 247.855 -4.03291 -0.337384 0
M  V30 2536 H 246.425 -3.04192 -0.720153 0
M  V30 2537 H 245.645 -3.55036 1.71299 0
M  V30 2538 H 246.933 -4.76624 1.78064 0
M  V30 2539 H 246.331 -5.50222 -1.31424 0
M  V30 2540 H 244.888 -6.41792 -1.13781 0
M  V30 2541 N 248.321 -0.919034 -1.28029 0
M  V30 2542 C 249.569 -0.553838 -1.94363 0
M  V30 2543 C 249.89 0.906357 -1.72656 0
M  V30 2544 O 249.16 1.64143 -1.0693 0
M  V30 2545 H 247.74 -0.201834 -0.719216 0
M  V30 2546 H 250.402 -1.16954 -1.55909 0
M  V30 2547 H 249.498 -0.752758 -3.02886 0
M  V30 2548 N 249.799 1.42003 -0.683588 0
M  V30 2549 C 251.048 2.00638 -0.206681 0
M  V30 2550 C 251.361 1.5472 1.19671 0
M  V30 2551 O 252.567 2.05833 1.77045 0
M  V30 2552 C 251.023 3.58487 -0.318632 0
M  V30 2553 C 250.631 4.1339 -1.72663 0
M  V30 2554 C 252.375 4.24384 0.0991141 0
M  V30 2555 C 250.282 5.63633 -1.79087 0
M  V30 2556 H 249.212 0.750408 -0.0735107 0
M  V30 2557 H 251.863 1.62624 -0.850048 0
M  V30 2558 H 250.245 3.94047 0.392781 0
M  V30 2559 H 251.419 3.89273 -2.46583 0
M  V30 2560 H 249.734 3.59976 -2.09299 0
M  V30 2561 H 252.331 5.34652 0.0713833 0
M  V30 2562 H 252.674 4.00505 1.13586 0
M  V30 2563 H 253.207 3.93816 -0.561599 0
M  V30 2564 H 249.946 5.92323 -2.80774 0
M  V30 2565 H 249.466 5.89714 -1.09535 0
M  V30 2566 H 251.145 6.28201 -1.5483 0
M  V30 2567 N 251.277 0.427512 1.51691 0
M  V30 2568 C 252.554 -0.201684 1.94557 0
M  V30 2569 C 252.934 -1.60981 1.36559 0
M  V30 2570 O 252.282 -2.21814 0.548702 0
M  V30 2571 C 252.492 -0.189394 3.48486 0
M  V30 2572 C 253.84 -0.39978 4.22714 0
M  V30 2573 O 254.864 -0.267945 3.55191 0
M  V30 2574 O 253.723 -0.661249 5.42485 0
M  V30 2575 H 250.817 -0.135261 0.815864 0
M  V30 2576 H 253.363 0.484782 1.62628 0
M  V30 2577 H 252.135 0.795431 3.8313 0
M  V30 2578 H 251.758 -0.919187 3.86829 0
M  V30 2579 N 252.755 -1.56801 0.158532 0
M  V30 2580 C 254.004 -1.95665 -0.489702 0
M  V30 2581 C 254.317 -1.04654 -1.65248 0
M  V30 2582 O 255.523 -1.33146 -2.3661 0
M  V30 2583 C 253.979 -3.47874 -0.922582 0
M  V30 2584 C 253.587 -4.47489 0.213893 0
M  V30 2585 C 255.331 -3.95583 -1.53996 0
M  V30 2586 C 253.238 -5.90921 -0.237903 0
M  V30 2587 H 252.168 -0.730516 -0.186716 0
M  V30 2588 H 254.819 -1.81861 0.244722 0
M  V30 2589 H 253.201 -3.57051 -1.71261 0
M  V30 2590 H 254.375 -4.50017 0.991036 0
M  V30 2591 H 252.69 -4.09764 0.740407 0
M  V30 2592 H 255.287 -5.0019 -1.8898 0
M  V30 2593 H 255.63 -3.37789 -2.43319 0
M  V30 2594 H 256.163 -3.8937 -0.814611 0
M  V30 2595 H 252.902 -6.52559 0.620236 0
M  V30 2596 H 252.422 -5.91729 -0.980676 0
M  V30 2597 H 254.101 -6.43352 -0.686067 0
M  V30 2598 N 254.233 0.115231 -1.57178 0
M  V30 2599 C 255.163 1.1423 -2.03651 0
M  V30 2600 C 256.144 1.42967 -0.921655 0
M  V30 2601 O 257.329 1.53343 -1.19162 0
M  V30 2602 C 254.459 2.4675 -2.44401 0
M  V30 2603 C 253.413 2.32467 -3.59365 0
M  V30 2604 C 252.739 3.69984 -3.86026 0
M  V30 2605 C 254.039 1.78203 -4.90959 0
M  V30 2606 H 255.733 0.755749 -2.89705 0
M  V30 2607 H 253.279 0.362093 -1.39373 0
M  V30 2608 H 255.232 3.18854 -2.75517 0
M  V30 2609 H 253.956 2.87302 -1.55322 0
M  V30 2610 H 252.615 1.62811 -3.28463 0
M  V30 2611 H 252.263 4.08028 -2.94147 0
M  V30 2612 H 251.963 3.61279 -4.63412 0
M  V30 2613 H 253.487 4.43587 -4.19599 0
M  V30 2614 H 254.901 2.40128 -5.20587 0
M  V30 2615 H 253.298 1.8031 -5.72371 0
M  V30 2616 H 254.368 0.739876 -4.79222 0
M  V30 2617 N 255.711 1.52812 0.385517 0
M  V30 2618 C 256.941 1.71658 1.14966 0
M  V30 2619 C 257.349 0.436253 1.84102 0
M  V30 2620 O 256.692 -0.599313 1.73649 0
M  V30 2621 C 256.754 2.81309 2.23843 0
M  V30 2622 C 256.418 4.22313 1.74644 0
M  V30 2623 C 257.415 5.05352 1.22129 0
M  V30 2624 C 255.1 4.68648 1.80761 0
M  V30 2625 C 257.094 6.32807 0.763838 0
M  V30 2626 C 254.781 5.96086 1.34627 0
M  V30 2627 C 255.779 6.77996 0.825264 0
M  V30 2628 O 255.467 8.03045 0.370669 0
M  V30 2629 H 255.199 0.578022 0.350523 0
M  V30 2630 H 257.753 2.00263 0.456509 0
M  V30 2631 H 255.983 2.48133 2.96592 0
M  V30 2632 H 257.672 2.88524 2.85497 0
M  V30 2633 H 258.438 4.70736 1.16758 0
M  V30 2634 H 254.317 4.04979 2.20256 0
M  V30 2635 H 257.861 6.96689 0.356494 0
M  V30 2636 H 253.758 6.30205 1.39686 0
M  V30 2637 H 254.526 8.17021 0.491829 0
M  V30 2638 N 257.189 -0.644168 1.43834 0
M  V30 2639 C 258.414 -1.43642 1.49605 0
M  V30 2640 C 258.839 -1.8773 0.117913 0
M  V30 2641 O 258.197 -1.57938 -0.890239 0
M  V30 2642 C 258.245 -2.6416 2.45463 0
M  V30 2643 O 257.349 -3.63538 1.94714 0
M  V30 2644 H 256.69 -0.430329 0.50568 0
M  V30 2645 H 259.22 -0.787448 1.8884 0
M  V30 2646 H 259.23 -3.11864 2.63068 0
M  V30 2647 H 257.905 -2.31414 3.45572 0
M  V30 2648 H 256.482 -3.2273 1.86814 0
M  V30 2649 N 258.668 -1.30515 -0.883378 0
M  V30 2650 C 259.916 -1.19194 -1.63209 0
M  V30 2651 C 260.237 0.253205 -1.93349 0
M  V30 2652 O 259.507 1.17025 -1.57105 0
M  V30 2653 H 258.087 -0.438148 -0.605009 0
M  V30 2654 H 260.749 -1.63663 -1.05832 0
M  V30 2655 H 259.845 -1.75396 -2.58153 0
M  V30 2656 N 260.146 1.09593 -1.13257 0
M  V30 2657 C 261.371 1.8604 -0.916732 0
M  V30 2658 C 261.796 1.80504 0.529146 0
M  V30 2659 O 261.154 1.18127 1.37534 0
M  V30 2660 C 261.202 3.32017 -1.40703 0
M  V30 2661 O 260.306 4.08141 -0.591153 0
M  V30 2662 H 259.647 0.576943 -0.328683 0
M  V30 2663 H 262.177 1.38405 -1.50682 0
M  V30 2664 H 262.187 3.82865 -1.4099 0
M  V30 2665 H 260.862 3.35361 -2.45979 0
M  V30 2666 H 259.439 3.67084 -0.656005 0
M  V30 2667 N 261.624 0.925811 1.2754 0
M  V30 2668 C 262.556 0.380753 2.26015 0
M  V30 2669 C 263.569 -0.487485 1.5533 0
M  V30 2670 O 264.758 -0.300413 1.75954 0
M  V30 2671 C 261.858 -0.473259 3.35579 0
M  V30 2672 C 261.031 0.375249 4.35787 0
M  V30 2673 C 260.09 -0.415809 5.24555 0
M  V30 2674 O 259.116 0.175834 5.68928 0
M  V30 2675 N 260.318 -1.71607 5.54555 0
M  V30 2676 H 263.083 1.22725 2.73421 0
M  V30 2677 H 260.644 0.793037 1.41147 0
M  V30 2678 H 262.636 -1.00949 3.91907 0
M  V30 2679 H 261.206 -1.2205 2.87789 0
M  V30 2680 H 260.426 1.09279 3.7875 0
M  V30 2681 H 261.714 0.955399 4.99749 0
M  V30 2682 H 261.112 -2.2191 5.20358 0
M  V30 2683 H 259.669 -2.19887 6.1359 0
M  V30 2684 N 263.102 -1.41638 0.69111 0
M  V30 2685 C 264.049 -2.30789 0.0229705 0
M  V30 2686 C 265.019 -1.46863 -0.775911 0
M  V30 2687 O 266.204 -1.75661 -0.74485 0
M  V30 2688 C 263.344 -3.32868 -0.910666 0
M  V30 2689 C 262.457 -4.31875 -0.103874 0
M  V30 2690 C 261.592 -5.21024 -1.03475 0
M  V30 2691 C 260.631 -6.11702 -0.220598 0
M  V30 2692 N 259.768 -6.93349 -1.10504 0
M  V30 2693 H 264.608 -2.87366 0.788978 0
M  V30 2694 H 262.145 -1.41535 0.400794 0
M  V30 2695 H 264.103 -3.90596 -1.46597 0
M  V30 2696 H 262.733 -2.77851 -1.64312 0
M  V30 2697 H 261.785 -3.76131 0.568285 0
M  V30 2698 H 263.097 -4.96003 0.527504 0
M  V30 2699 H 262.251 -5.83565 -1.65943 0
M  V30 2700 H 260.99 -4.57112 -1.69999 0
M  V30 2701 H 259.995 -5.48215 0.417187 0
M  V30 2702 H 261.22 -6.77668 0.440784 0
M  V30 2703 H 259.166 -6.3205 -1.75638 0
M  V30 2704 H 259.083 -7.54146 -0.529125 0
M  V30 2705 H 260.351 -7.60362 -1.71667 0
M  V30 2706 N 264.58 -0.43555 -1.51462 0
M  V30 2707 C 265.543 0.365137 -2.26273 0
M  V30 2708 C 266.543 0.951227 -1.29647 0
M  V30 2709 O 267.733 0.825958 -1.53374 0
M  V30 2710 C 264.865 1.51645 -3.05314 0
M  V30 2711 H 266.058 -0.290474 -2.9849 0
M  V30 2712 H 263.611 -0.188676 -1.55157 0
M  V30 2713 H 264.346 2.20816 -2.3751 0
M  V30 2714 H 264.131 1.10238 -3.76284 0
M  V30 2715 H 265.621 2.08218 -3.61987 0
M  V30 2716 N 266.058 1.56714 -0.166846 0
M  V30 2717 C 266.988 2.20754 0.760913 0
M  V30 2718 C 267.969 1.16178 1.24244 0
M  V30 2719 O 269.154 1.44592 1.29641 0
M  V30 2720 C 266.284 2.84478 1.99223 0
M  V30 2721 C 265.238 3.95053 1.64672 0
M  V30 2722 C 264.564 4.45805 2.95232 0
M  V30 2723 C 265.864 5.14865 0.878155 0
M  V30 2724 H 267.558 2.98537 0.22713 0
M  V30 2725 H 265.104 1.43596 0.107805 0
M  V30 2726 H 267.057 3.27951 2.64624 0
M  V30 2727 H 265.781 2.04056 2.55007 0
M  V30 2728 H 264.44 3.52228 1.01641 0
M  V30 2729 H 264.088 3.62181 3.49047 0
M  V30 2730 H 263.788 5.204 2.7287 0
M  V30 2731 H 265.312 4.91962 3.6167 0
M  V30 2732 H 266.726 5.55059 1.43466 0
M  V30 2733 H 265.123 5.95348 0.753738 0
M  V30 2734 H 266.193 4.84735 -0.126377 0
M  V30 2735 N 267.536 -0.106894 1.57237 0
M  V30 2736 C 268.484 -1.14944 2.02215 0
M  V30 2737 C 269.478 -1.42167 0.92114 0
M  V30 2738 O 270.684 -1.41987 1.10634 0
M  V30 2739 H 267.059 -0.387841 0.64427 0
M  V30 2740 H 269.03 -0.743683 2.88984 0
M  V30 2741 C 267.779 -2.4647 2.4525 0
M  V30 2742 H 267.102 -2.26363 3.29545 0
M  V30 2743 H 268.542 -3.17948 2.80508 0
M  V30 2744 C 267.001 -3.09921 1.321 0
M  V30 2745 O 267.531 -3.9651 0.643622 0
M  V30 2746 N 265.737 -2.69986 1.07497 0
M  V30 2747 H 265.284 -1.99667 1.62761 0
M  V30 2748 H 265.242 -3.12769 0.319876 0
M  V30 2749 N 269.014 -1.53014 -0.377408 0
M  V30 2750 C 269.977 -1.77957 -1.44444 0
M  V30 2751 C 270.977 -0.649763 -1.47087 0
M  V30 2752 O 272.167 -0.917897 -1.48055 0
M  V30 2753 C 269.299 -1.89089 -2.83651 0
M  V30 2754 H 270.492 -2.73243 -1.23606 0
M  V30 2755 H 268.045 -1.43912 -0.609844 0
M  V30 2756 H 268.78 -0.958293 -3.09818 0
M  V30 2757 H 268.565 -2.71254 -2.83132 0
M  V30 2758 H 270.055 -2.1002 -3.60945 0
M  V30 2759 N 270.492 0.636531 -1.44174 0
M  V30 2760 C 271.903 1.21806 -1.41493 0
M  V30 2761 C 272.254 1.95785 -0.1275 0
M  V30 2762 O 271.379 2.02147 0.772376 0
M  V30 2763 C 271.974 2.21551 -2.56321 0
M  V30 2764 C 270.533 2.75143 -2.56853 0
M  V30 2765 C 269.68 1.50052 -2.33195 0
M  V30 2766 H 272.631 0.427531 -1.52833 0
M  V30 2767 H 272.652 3.0405 -2.28765 0
M  V30 2768 H 272.164 1.67679 -3.50008 0
M  V30 2769 H 270.265 3.33033 -1.67093 0
M  V30 2770 H 270.378 3.2155 -3.55165 0
M  V30 2771 H 268.742 1.77993 -1.82183 0
M  V30 2772 H 269.525 0.980903 -3.28988 0
M  V30 2773 N 271.97 1.30982 0.876444 0
M  V30 2774 C 273.381 1.18277 1.44456 0
M  V30 2775 C 273.732 -0.213265 1.95037 0
M  V30 2776 O 272.857 -1.11057 1.85729 0
M  V30 2777 C 273.452 2.1411 2.62569 0
M  V30 2778 C 272.011 2.05358 3.15444 0
M  V30 2779 C 271.158 2.03706 1.88146 0
M  V30 2780 H 274.109 1.43127 0.685584 0
M  V30 2781 H 274.13 1.72692 3.39054 0
M  V30 2782 H 273.642 3.15706 2.25724 0
M  V30 2783 H 271.743 1.06934 3.56926 0
M  V30 2784 H 271.856 2.94156 3.78166 0
M  V30 2785 H 270.22 1.48629 2.06837 0
M  V30 2786 H 271.003 3.07047 1.53547 0
M  V30 2787 N 273.449 -1.08991 1.13837 0
M  V30 2788 C 274.697 -1.80899 0.901098 0
M  V30 2789 C 275.018 -1.86356 -0.574134 0
M  V30 2790 O 274.288 -1.35235 -1.41733 0
M  V30 2791 H 272.868 -0.669966 0.330386 0
M  V30 2792 H 275.53 -1.318 1.43578 0
M  V30 2793 H 274.626 -2.83929 1.29578 0
M  V30 2794 N 274.927 -0.932562 -1.27047 0
M  V30 2795 C 276.155 -0.592031 -1.98249 0
M  V30 2796 C 276.57 0.831062 -1.69525 0
M  V30 2797 O 275.927 1.55299 -0.958561 0
M  V30 2798 C 275.978 -0.814279 -3.5221 0
M  V30 2799 O 275.699 -2.18139 -3.7993 0
M  V30 2800 C 277.2 -0.483121 -4.4066 0
M  V30 2801 H 274.42 -0.223896 -0.632544 0
M  V30 2802 H 276.964 -1.25091 -1.61779 0
M  V30 2803 H 275.119 -0.20213 -3.86872 0
M  V30 2804 H 275.533 -2.235 -4.74498 0
M  V30 2805 H 277.007 -0.689298 -5.47679 0
M  V30 2806 H 277.484 0.581546 -4.35333 0
M  V30 2807 H 278.09 -1.07362 -4.11526 0
M  V30 2808 N 276.405 1.4127 -0.698611 0
M  V30 2809 C 277.63 2.06024 -0.238512 0
M  V30 2810 C 278.055 1.5224 1.10475 0
M  V30 2811 O 277.413 0.650623 1.69223 0
M  V30 2812 C 277.461 3.59988 -0.209952 0
M  V30 2813 O 276.565 4.04282 0.814235 0
M  V30 2814 H 275.906 0.653829 -0.115775 0
M  V30 2815 H 278.436 1.8098 -0.954326 0
M  V30 2816 H 278.446 4.07979 -0.0418436 0
M  V30 2817 H 277.121 3.98503 -1.1903 0
M  V30 2818 H 275.698 3.6779 0.615234 0
M  V30 2819 N 277.883 0.443576 1.51229 0
M  V30 2820 C 278.813 -0.355142 2.30783 0
M  V30 2821 C 279.794 -1.0154 1.36468 0
M  V30 2822 O 280.979 -1.01785 1.65389 0
M  V30 2823 C 278.109 -1.45312 3.15439 0
M  V30 2824 C 277.063 -0.916002 4.18083 0
M  V30 2825 C 276.389 -2.1102 4.91299 0
M  V30 2826 C 277.689 0.0538602 5.22272 0
M  V30 2827 H 279.383 0.308767 2.97804 0
M  V30 2828 H 276.929 0.149937 1.43217 0
M  V30 2829 H 278.882 -2.01914 3.69876 0
M  V30 2830 H 277.606 -2.14541 2.46252 0
M  V30 2831 H 276.265 -0.372145 3.64706 0
M  V30 2832 H 275.913 -2.78882 4.18609 0
M  V30 2833 H 275.613 -1.75717 5.60712 0
M  V30 2834 H 277.137 -2.68164 5.48562 0
M  V30 2835 H 278.551 -0.422069 5.71744 0
M  V30 2836 H 276.948 0.319776 5.99247 0
M  V30 2837 H 278.018 0.98858 4.74716 0
M  V30 2838 N 279.361 -1.56624 0.175154 0
M  V30 2839 C 280.61 -1.96173 -0.468921 0
M  V30 2840 C 280.923 -1.06401 -1.64128 0
M  V30 2841 O 282.129 -1.35648 -2.35185 0
M  V30 2842 C 280.585 -3.48833 -0.885633 0
M  V30 2843 C 280.193 -4.47237 0.261343 0
M  V30 2844 C 281.937 -3.97194 -1.49791 0
M  V30 2845 C 279.844 -5.9114 -0.175214 0
M  V30 2846 H 278.774 -0.732455 -0.178958 0
M  V30 2847 H 281.425 -1.81591 0.263997 0
M  V30 2848 H 279.807 -3.58848 -1.67464 0
M  V30 2849 H 280.981 -4.4894 1.03871 0
M  V30 2850 H 279.296 -4.08956 0.783827 0
M  V30 2851 H 281.893 -5.02167 -1.83665 0
M  V30 2852 H 282.236 -3.40351 -2.39722 0
M  V30 2853 H 282.769 -3.90212 -0.773267 0
M  V30 2854 H 279.508 -6.51865 0.689414 0
M  V30 2855 H 279.028 -5.92735 -0.91786 0
M  V30 2856 H 280.707 -6.44044 -0.617792 0
M  V30 2857 N 280.839 0.0985539 -1.57292 0
M  V30 2858 C 282.086 0.802678 -1.85912 0
M  V30 2859 C 282.414 1.78901 -0.763186 0
M  V30 2860 O 281.669 1.94178 0.243559 0
M  V30 2861 C 281.968 1.56927 -3.21105 0
M  V30 2862 C 281.634 0.725376 -4.45027 0
M  V30 2863 C 280.296 0.492726 -4.78671 0
M  V30 2864 C 282.648 0.138493 -5.21016 0
M  V30 2865 C 279.976 -0.336727 -5.85733 0
M  V30 2866 C 282.328 -0.678264 -6.28953 0
M  V30 2867 C 280.992 -0.921039 -6.61115 0
M  V30 2868 H 280.262 0.293721 -0.680301 0
M  V30 2869 H 282.909 0.0642841 -1.91392 0
M  V30 2870 H 281.214 2.37914 -3.11294 0
M  V30 2871 H 282.911 2.11841 -3.40477 0
M  V30 2872 H 279.501 0.916815 -4.18679 0
M  V30 2873 H 283.685 0.305404 -4.95359 0
M  V30 2874 H 278.941 -0.533836 -6.09065 0
M  V30 2875 H 283.115 -1.1399 -6.87007 0
M  V30 2876 H 280.742 -1.56556 -7.43905 0
M  V30 2877 N 282.317 1.53212 0.369288 0
M  V30 2878 C 283.564 1.69215 1.11232 0
M  V30 2879 C 283.892 0.442048 1.8941 0
M  V30 2880 O 283.147 -0.575944 1.87033 0
M  V30 2881 C 283.446 2.89101 2.10132 0
M  V30 2882 C 283.112 4.25758 1.48463 0
M  V30 2883 C 281.774 4.6292 1.31372 0
M  V30 2884 C 284.126 5.10757 1.03811 0
M  V30 2885 C 281.454 5.82722 0.68207 0
M  V30 2886 C 283.806 6.31201 0.420487 0
M  V30 2887 C 282.47 6.67079 0.237038 0
M  V30 2888 H 281.74 0.619201 0.407027 0
M  V30 2889 H 284.387 1.87391 0.394552 0
M  V30 2890 H 282.692 2.65421 2.88199 0
M  V30 2891 H 284.389 2.98676 2.6757 0
M  V30 2892 H 280.979 3.96494 1.62758 0
M  V30 2893 H 285.163 4.82599 1.1581 0
M  V30 2894 H 280.419 6.09113 0.528316 0
M  V30 2895 H 284.593 6.96368 0.0662874 0
M  V30 2896 H 282.22 7.59774 -0.254477 0
M  V30 2897 N 283.795 -0.628877 1.44509 0
M  V30 2898 C 285.02 -1.42048 1.5112 0
M  V30 2899 C 285.445 -1.87594 0.137818 0
M  V30 2900 O 284.803 -1.58873 -0.873437 0
M  V30 2901 C 284.851 -2.61541 2.48251 0
M  V30 2902 O 283.955 -3.61453 1.98559 0
M  V30 2903 H 283.296 -0.424942 0.510216 0
M  V30 2904 H 285.826 -0.767374 1.89664 0
M  V30 2905 H 285.836 -3.09057 2.66361 0
M  V30 2906 H 284.511 -2.27736 3.48007 0
M  V30 2907 H 283.088 -3.20731 1.90227 0
M  V30 2908 N 285.273 -1.31445 -0.869486 0
M  V30 2909 C 286.55 -1.11795 -1.60503 0
M  V30 2910 C 286.93 0.327168 -2.08549 0
M  V30 2911 O 286.278 1.32135 -1.8642 0
M  V30 2912 C 286.488 -2.13258 -2.76265 0
M  V30 2913 C 287.836 -2.45805 -3.46215 0
M  V30 2914 O 288.86 -2.11688 -2.86473 0
M  V30 2915 O 287.719 -3.04228 -4.5399 0
M  V30 2916 H 284.813 -0.430421 -0.706163 0
M  V30 2917 H 287.359 -1.42925 -0.914907 0
M  V30 2918 H 286.131 -3.10461 -2.3818 0
M  V30 2919 H 285.754 -1.83035 -3.52964 0
M  V30 2920 N 286.751 1.08385 -1.14413 0
M  V30 2921 C 287.698 2.15311 -0.831265 0
M  V30 2922 C 288.668 1.64751 0.211292 0
M  V30 2923 O 289.853 1.90627 0.0811674 0
M  V30 2924 C 286.993 3.43658 -0.315143 0
M  V30 2925 C 286.106 4.08064 -1.41802 0
M  V30 2926 C 285.241 5.24207 -0.859126 0
M  V30 2927 C 284.28 5.80554 -1.93967 0
M  V30 2928 N 283.417 6.88042 -1.39793 0
M  V30 2929 H 288.257 2.41415 -1.74708 0
M  V30 2930 H 285.794 1.18474 -0.871909 0
M  V30 2931 H 287.752 4.172 0.00230884 0
M  V30 2932 H 286.382 3.17839 0.56378 0
M  V30 2933 H 285.434 3.3228 -1.85187 0
M  V30 2934 H 286.746 4.45962 -2.23427 0
M  V30 2935 H 285.9 6.04689 -0.49359 0
M  V30 2936 H 284.639 4.87699 -0.011932 0
M  V30 2937 H 283.644 4.98725 -2.31415 0
M  V30 2938 H 284.869 6.19121 -2.79046 0
M  V30 2939 H 282.815 6.53493 -0.572919 0
M  V30 2940 H 282.732 7.24767 -2.15054 0
M  V30 2941 H 284 7.72255 -1.0603 0
M  V30 2942 N 288.23 0.939286 1.26551 0
M  V30 2943 C 289.193 0.451987 2.24699 0
M  V30 2944 C 290.193 -0.435869 1.5478 0
M  V30 2945 O 291.383 -0.235314 1.72603 0
M  V30 2946 C 288.515 -0.348801 3.39111 0
M  V30 2947 H 289.708 1.3193 2.69322 0
M  V30 2948 H 287.261 0.721072 1.38673 0
M  V30 2949 H 287.996 -1.23444 2.99887 0
M  V30 2950 H 287.781 0.287945 3.91041 0
M  V30 2951 H 289.271 -0.679726 4.12031 0
M  V30 2952 N 289.708 -1.40897 0.706093 0
M  V30 2953 C 290.655 -2.30751 0.0474474 0
M  V30 2954 C 291.625 -1.47678 -0.76029 0
M  V30 2955 O 292.81 -1.76441 -0.726177 0
M  V30 2956 C 289.95 -3.33815 -0.875309 0
M  V30 2957 C 289.063 -4.31961 -0.0580623 0
M  V30 2958 C 288.198 -5.22093 -0.979425 0
M  V30 2959 C 287.237 -6.11902 -0.155706 0
M  V30 2960 N 286.374 -6.94482 -1.03144 0
M  V30 2961 H 291.214 -2.86513 0.819413 0
M  V30 2962 H 288.751 -1.41102 0.415783 0
M  V30 2963 H 290.709 -3.92129 -1.42446 0
M  V30 2964 H 289.339 -2.79579 -1.61356 0
M  V30 2965 H 288.391 -3.75507 0.608147 0
M  V30 2966 H 289.703 -4.95415 0.580082 0
M  V30 2967 H 288.857 -5.85292 -1.59744 0
M  V30 2968 H 287.596 -4.5889 -1.65141 0
M  V30 2969 H 286.601 -5.47742 0.475309 0
M  V30 2970 H 287.826 -6.77162 0.512635 0
M  V30 2971 H 285.772 -6.33877 -1.68924 0
M  V30 2972 H 285.689 -7.54665 -0.449108 0
M  V30 2973 H 286.957 -7.6214 -1.63593 0
M  V30 2974 N 291.186 -0.45159 -1.50991 0
M  V30 2975 C 292.133 0.352625 -2.2809 0
M  V30 2976 C 293.103 1.0044 -1.32291 0
M  V30 2977 O 294.288 1.02058 -1.6121 0
M  V30 2978 C 291.428 1.43983 -3.13629 0
M  V30 2979 C 290.541 0.804772 -4.24438 0
M  V30 2980 C 289.676 1.86822 -4.97263 0
M  V30 2981 C 288.715 1.21236 -5.99973 0
M  V30 2982 N 287.852 2.2178 -6.66152 0
M  V30 2983 H 292.692 -0.311186 -2.96371 0
M  V30 2984 H 290.229 -0.165308 -1.46168 0
M  V30 2985 H 292.187 2.08161 -3.61559 0
M  V30 2986 H 290.817 2.07307 -2.47434 0
M  V30 2987 H 289.869 0.0509129 -3.80366 0
M  V30 2988 H 291.181 0.286076 -4.97979 0
M  V30 2989 H 290.335 2.58628 -5.48813 0
M  V30 2990 H 289.074 2.42068 -4.23385 0
M  V30 2991 H 288.079 0.479828 -5.47702 0
M  V30 2992 H 289.304 0.667051 -6.75816 0
M  V30 2993 H 287.25 2.76079 -5.95077 0
M  V30 2994 H 287.167 1.74841 -7.35504 0
M  V30 2995 H 288.435 2.93026 -7.22327 0
M  V30 2996 N 292.664 1.56529 -0.183458 0
M  V30 2997 C 293.611 2.18546 0.742055 0
M  V30 2998 C 294.581 1.12912 1.2182 0
M  V30 2999 O 295.766 1.41115 1.28418 0
M  V30 3000 C 292.906 2.83977 1.96089 0
M  V30 3001 C 292.019 4.04105 1.52719 0
M  V30 3002 C 291.154 4.57427 2.70063 0
M  V30 3003 C 290.193 5.69938 2.23243 0
M  V30 3004 N 289.33 6.17717 3.33722 0
M  V30 3005 H 294.17 2.97284 0.206432 0
M  V30 3006 H 291.707 1.46823 0.0901571 0
M  V30 3007 H 293.665 3.20077 2.67594 0
M  V30 3008 H 292.295 2.07822 2.47002 0
M  V30 3009 H 291.347 3.73745 0.708436 0
M  V30 3010 H 292.659 4.85513 1.1436 0
M  V30 3011 H 291.813 4.95772 3.49708 0
M  V30 3012 H 290.552 3.75101 3.11689 0
M  V30 3013 H 289.557 5.31133 1.42048 0
M  V30 3014 H 290.782 6.54073 1.82661 0
M  V30 3015 H 288.728 5.38317 3.74902 0
M  V30 3016 H 288.645 6.94146 2.99495 0
M  V30 3017 H 289.913 6.60713 4.13616 0
M  V30 3018 N 294.142 -0.090211 1.57342 0
M  V30 3019 C 295.075 -1.14035 1.97664 0
M  V30 3020 C 296.053 -1.38576 0.850616 0
M  V30 3021 O 297.237 -1.52255 1.11134 0
M  V30 3022 C 294.364 -2.48854 2.2976 0
M  V30 3023 C 293.41 -2.40564 3.52181 0
M  V30 3024 S 294.243 -1.81745 5.03715 0
M  V30 3025 C 295.399 -3.18178 5.38993 0
M  V30 3026 H 295.632 -0.796636 2.86428 0
M  V30 3027 H 293.165 -0.298072 1.51496 0
M  V30 3028 H 295.123 -3.26413 2.48927 0
M  V30 3029 H 293.784 -2.80393 1.41558 0
M  V30 3030 H 292.977 -3.39942 3.72096 0
M  V30 3031 H 292.579 -1.71135 3.32549 0
M  V30 3032 H 294.871 -4.14461 5.35937 0
M  V30 3033 H 295.814 -3.03062 6.39968 0
M  V30 3034 H 296.222 -3.17935 4.66452 0
M  V30 3035 N 295.62 -1.53406 -0.361157 0
M  V30 3036 C 296.85 -1.73465 -1.1222 0
M  V30 3037 C 297.258 -0.465486 -1.83384 0
M  V30 3038 O 296.601 0.571611 -1.7458 0
M  V30 3039 C 296.663 -2.84834 -2.19339 0
M  V30 3040 C 296.327 -4.25038 -1.67903 0
M  V30 3041 C 297.324 -5.07231 -1.14074 0
M  V30 3042 C 295.009 -4.71464 -1.73282 0
M  V30 3043 C 297.003 -6.33942 -0.663068 0
M  V30 3044 C 294.69 -5.98153 -1.25127 0
M  V30 3045 C 295.688 -6.79223 -0.717296 0
M  V30 3046 O 295.376 -8.03533 -0.242865 0
M  V30 3047 H 295.108 -0.583526 -0.341283 0
M  V30 3048 H 297.662 -2.00964 -0.424591 0
M  V30 3049 H 295.892 -2.5282 -2.92607 0
M  V30 3050 H 297.581 -2.9303 -2.80871 0
M  V30 3051 H 298.347 -4.72534 -1.09254 0
M  V30 3052 H 294.226 -4.08432 -2.13786 0
M  V30 3053 H 297.77 -6.97167 -0.245612 0
M  V30 3054 H 293.667 -6.32347 -1.29642 0
M  V30 3055 H 294.435 -8.177 -0.361786 0
M  V30 3056 N 297.098 0.621204 -1.44841 0
M  V30 3057 C 298.323 1.41244 -1.51871 0
M  V30 3058 C 298.748 1.87519 -0.147764 0
M  V30 3059 O 298.106 1.59334 0.865 0
M  V30 3060 C 298.154 2.60221 -2.49634 0
M  V30 3061 O 297.258 3.60395 -2.00473 0
M  V30 3062 H 296.599 0.42223 -0.512463 0
M  V30 3063 H 299.129 0.757305 -1.90069 0
M  V30 3064 H 299.139 3.0764 -2.67996 0
M  V30 3065 H 297.814 2.25887 -3.4921 0
M  V30 3066 H 296.391 3.19717 -1.91925 0
M  V30 3067 N 298.576 1.31904 0.862503 0
M  V30 3068 C 299.992 1.10724 1.14945 0
M  V30 3069 C 300.192 -0.117421 2.01158 0
M  V30 3070 O 299.248 -0.804595 2.39338 0
M  V30 3071 C 300.561 2.38267 1.83437 0
M  V30 3072 C 302.109 2.43949 1.96106 0
M  V30 3073 C 302.584 3.71394 2.68013 0
M  V30 3074 N 304.075 3.72331 2.75543 0
M  V30 3075 C 304.81 4.67641 3.31812 0
M  V30 3076 N 304.306 5.73313 3.88953 0
M  V30 3077 N 306.099 4.5515 3.29841 0
M  V30 3078 H 298.25 2.10436 0.288191 0
M  V30 3079 H 300.513 0.928705 0.190292 0
M  V30 3080 H 300.219 3.27759 1.27542 0
M  V30 3081 H 300.093 2.48633 2.83657 0
M  V30 3082 H 302.48 1.54922 2.51164 0
M  V30 3083 H 302.561 2.37543 0.949059 0
M  V30 3084 H 302.205 4.60791 2.13621 0
M  V30 3085 H 302.135 3.75069 3.69636 0
M  V30 3086 H 304.626 2.95947 2.34997 0
M  V30 3087 H 304.939 6.42107 4.30022 0
M  V30 3088 H 303.284 5.77077 3.87308 0
M  V30 3089 H 306.475 3.71766 2.84443 0
M  V30 3090 H 306.648 5.29604 3.73394 0
M  V30 3091 N 300.054 -1.07777 1.14986 0
M  V30 3092 C 301.001 -2.14867 0.842672 0
M  V30 3093 C 301.971 -1.6486 -0.202552 0
M  V30 3094 O 303.156 -1.90668 -0.0710568 0
M  V30 3095 C 300.296 -3.43486 0.333363 0
M  V30 3096 C 299.409 -4.07306 1.43965 0
M  V30 3097 C 298.544 -5.23744 0.886914 0
M  V30 3098 C 297.583 -5.79517 1.97043 0
M  V30 3099 N 296.72 -6.87291 1.4344 0
M  V30 3100 H 301.56 -2.40485 1.75986 0
M  V30 3101 H 299.097 -1.1801 0.878179 0
M  V30 3102 H 301.055 -4.17195 0.0198163 0
M  V30 3103 H 299.685 -3.18133 -0.546916 0
M  V30 3104 H 298.737 -3.31293 1.86946 0
M  V30 3105 H 300.049 -4.44771 2.25788 0
M  V30 3106 H 299.203 -6.04419 0.525651 0
M  V30 3107 H 297.942 -4.87685 0.0377957 0
M  V30 3108 H 296.947 -4.97491 2.34057 0
M  V30 3109 H 298.172 -6.17632 2.82325 0
M  V30 3110 H 296.118 -6.5318 0.607567 0
M  V30 3111 H 296.035 -7.23617 2.18895 0
M  V30 3112 H 297.303 -7.71682 1.10124 0
M  V30 3113 N 301.532 -0.945985 -1.26051 0
M  V30 3114 C 302.76 -0.613025 -1.9761 0
M  V30 3115 C 303.175 0.813035 -1.70397 0
M  V30 3116 O 302.532 1.54274 -0.974979 0
M  V30 3117 C 302.583 -0.85159 -3.51326 0
M  V30 3118 O 302.304 -2.22157 -3.77595 0
M  V30 3119 C 303.805 -0.529831 -4.40122 0
M  V30 3120 H 301.025 -0.230593 -0.630133 0
M  V30 3121 H 303.569 -1.268 -1.60443 0
M  V30 3122 H 301.724 -0.243151 -3.86636 0
M  V30 3123 H 302.138 -2.2852 -4.721 0
M  V30 3124 H 303.612 -0.747348 -5.46917 0
M  V30 3125 H 304.089 0.535341 -4.35925 0
M  V30 3126 H 304.695 -1.11721 -4.10364 0
M  V30 3127 N 303.011 1.40521 -0.713556 0
M  V30 3128 C 303.958 2.30723 -0.059684 0
M  V30 3129 C 304.928 1.48079 0.752448 0
M  V30 3130 O 306.113 1.76823 0.71681 0
M  V30 3131 C 303.253 3.34274 0.857594 0
M  V30 3132 C 302.366 4.31986 0.0351536 0
M  V30 3133 C 301.501 5.22605 0.951724 0
M  V30 3134 C 300.54 6.11976 0.123253 0
M  V30 3135 N 299.677 6.9502 0.99459 0
M  V30 3136 H 304.517 2.86074 -0.834596 0
M  V30 3137 H 302.054 1.40879 -0.42326 0
M  V30 3138 H 304.012 3.92879 1.40364 0
M  V30 3139 H 302.642 2.8043 1.59871 0
M  V30 3140 H 301.694 3.7518 -0.628052 0
M  V30 3141 H 303.006 4.95101 -0.606347 0
M  V30 3142 H 302.16 5.86131 1.56638 0
M  V30 3143 H 300.899 4.59759 1.62705 0
M  V30 3144 H 299.904 5.47482 -0.50435 0
M  V30 3145 H 301.129 6.76881 -0.548539 0
M  V30 3146 H 299.075 6.34764 1.6556 0
M  V30 3147 H 298.992 7.54892 0.40908 0
M  V30 3148 H 300.26 7.62997 1.59549 0
M  V30 3149 N 304.489 0.459591 1.5075 0
M  V30 3150 C 305.9 0.00171547 1.867 0
M  V30 3151 C 306.251 -1.39934 1.37525 0
M  V30 3152 O 305.376 -2.03523 0.735349 0
M  V30 3153 C 305.971 -0.00366298 3.388 0
M  V30 3154 C 304.53 -0.406026 3.74204 0
M  V30 3155 C 303.677 0.38673 2.7459 0
M  V30 3156 H 306.628 0.674413 1.43657 0
M  V30 3157 H 306.649 -0.808371 3.71814 0
M  V30 3158 H 306.161 1.01617 3.74561 0
M  V30 3159 H 304.262 -1.43063 3.4404 0
M  V30 3160 H 304.375 -0.115362 4.78961 0
M  V30 3161 H 302.739 -0.158019 2.54209 0
M  V30 3162 H 303.522 1.40585 3.13194 0
M  V30 3163 N 305.967 -1.56429 0.191757 0
M  V30 3164 C 307.214 -1.97485 -0.447891 0
M  V30 3165 C 307.542 -1.07852 -1.61859 0
M  V30 3166 O 306.797 -0.116903 -1.95351 0
M  V30 3167 C 307.096 -3.44449 -0.953384 0
M  V30 3168 C 306.762 -4.50781 0.103586 0
M  V30 3169 C 305.424 -4.79584 0.394023 0
M  V30 3170 C 307.776 -5.1471 0.819946 0
M  V30 3171 C 305.104 -5.69607 1.40585 0
M  V30 3172 C 307.456 -6.05827 1.8209 0
M  V30 3173 C 306.12 -6.32987 2.11857 0
M  V30 3174 H 305.39 -0.722648 -0.163895 0
M  V30 3175 H 308.037 -1.89322 0.28802 0
M  V30 3176 H 306.342 -3.49666 -1.76751 0
M  V30 3177 H 308.039 -3.73569 -1.45765 0
M  V30 3178 H 304.629 -4.28394 -0.132951 0
M  V30 3179 H 308.813 -4.92552 0.608789 0
M  V30 3180 H 304.069 -5.88926 1.64243 0
M  V30 3181 H 308.243 -6.54424 2.38123 0
M  V30 3182 H 305.87 -7.02544 2.90407 0
M  V30 3183 N 307.445 0.0818655 -1.57387 0
M  V30 3184 C 308.67 0.799946 -1.91352 0
M  V30 3185 C 309.095 1.70833 -0.787258 0
M  V30 3186 O 308.453 1.79419 0.26048 0
M  V30 3187 C 308.501 1.57812 -3.24234 0
M  V30 3188 O 307.605 2.68806 -3.12757 0
M  V30 3189 H 306.946 0.21891 -0.626877 0
M  V30 3190 H 309.476 0.0531256 -2.04531 0
M  V30 3191 H 309.486 1.95952 -3.57864 0
M  V30 3192 H 308.161 0.911548 -4.05788 0
M  V30 3193 H 306.738 2.33597 -2.90666 0
M  V30 3194 N 308.923 1.53595 0.353017 0
M  V30 3195 C 310.17 1.70385 1.09431 0
M  V30 3196 C 310.498 0.462113 1.88931 0
M  V30 3197 O 309.753 -0.556074 1.87633 0
M  V30 3198 C 310.052 2.91313 2.07054 0
M  V30 3199 C 309.718 4.27308 1.43939 0
M  V30 3200 C 308.38 4.64287 1.26454 0
M  V30 3201 C 310.732 5.11829 0.983883 0
M  V30 3202 C 308.06 5.83412 0.620226 0
M  V30 3203 C 310.412 6.31611 0.353516 0
M  V30 3204 C 309.076 6.67293 0.166272 0
M  V30 3205 H 308.346 0.623484 0.400436 0
M  V30 3206 H 310.993 1.87799 0.374655 0
M  V30 3207 H 309.298 2.68463 2.85368 0
M  V30 3208 H 310.995 3.01497 2.64387 0
M  V30 3209 H 307.585 3.98198 1.58543 0
M  V30 3210 H 311.769 4.838 1.10685 0
M  V30 3211 H 307.025 6.09639 0.463681 0
M  V30 3212 H 311.199 6.964 -0.00757555 0
M  V30 3213 H 308.826 7.59461 -0.335047 0
M  V30 3214 N 310.401 -0.613514 1.45168 0
M  V30 3215 C 311.631 -1.39743 1.52169 0
M  V30 3216 C 312.039 -1.88596 0.151086 0
M  V30 3217 O 311.382 -1.6251 -0.856521 0
M  V30 3218 C 311.444 -2.64035 2.43979 0
M  V30 3219 C 311.108 -2.36861 3.90827 0
M  V30 3220 C 312.105 -1.97591 4.80889 0
M  V30 3221 C 309.79 -2.49956 4.35692 0
M  V30 3222 C 311.784 -1.71768 6.1382 0
M  V30 3223 C 309.471 -2.23747 5.68665 0
M  V30 3224 C 310.469 -1.84714 6.57548 0
M  V30 3225 O 310.157 -1.58809 7.88058 0
M  V30 3226 H 309.889 -0.434382 0.517966 0
M  V30 3227 H 312.443 -0.75587 1.90986 0
M  V30 3228 H 310.673 -3.3089 2.00122 0
M  V30 3229 H 312.362 -3.26069 2.41731 0
M  V30 3230 H 313.128 -1.87015 4.47493 0
M  V30 3231 H 309.007 -2.79305 3.66756 0
M  V30 3232 H 312.551 -1.41227 6.83155 0
M  V30 3233 H 308.448 -2.33938 6.01617 0
M  V30 3234 H 309.216 -1.7291 8.00028 0
M  V30 3235 N 311.879 -1.3236 -0.855495 0
M  V30 3236 C 312.809 -1.23833 -1.97958 0
M  V30 3237 C 313.79 -0.122361 -1.69659 0
M  V30 3238 O 314.975 -0.30939 -1.9172 0
M  V30 3239 C 312.105 -0.959772 -3.33775 0
M  V30 3240 C 311.059 -2.03689 -3.76424 0
M  V30 3241 C 310.385 -1.61075 -5.09862 0
M  V30 3242 C 311.685 -3.4518 -3.9198 0
M  V30 3243 H 313.379 -2.1788 -2.0535 0
M  V30 3244 H 310.925 -1.04891 -0.986605 0
M  V30 3245 H 312.878 -0.886678 -4.11966 0
M  V30 3246 H 311.602 0.0163404 -3.26596 0
M  V30 3247 H 310.261 -2.10012 -3.00484 0
M  V30 3248 H 309.909 -0.622107 -4.99138 0
M  V30 3249 H 309.609 -2.33143 -5.39368 0
M  V30 3250 H 311.133 -1.55201 -5.90546 0
M  V30 3251 H 312.547 -3.4145 -4.60526 0
M  V30 3252 H 310.944 -4.1559 -4.32903 0
M  V30 3253 H 312.014 -3.84903 -2.94919 0
M  V30 3254 N 313.357 1.07166 -1.15556 0
M  V30 3255 C 314.634 1.76546 -0.842069 0
M  V30 3256 C 315.014 2.00453 0.661939 0
M  V30 3257 O 314.362 1.62452 1.60691 0
M  V30 3258 C 314.572 3.07266 -1.65495 0
M  V30 3259 C 315.92 3.81578 -1.86234 0
M  V30 3260 O 316.944 3.17083 -1.62287 0
M  V30 3261 O 315.803 4.97419 -2.26355 0
M  V30 3262 H 312.897 0.766756 -0.309862 0
M  V30 3263 H 315.443 1.13514 -1.26145 0
M  V30 3264 H 314.215 2.85494 -2.67598 0
M  V30 3265 H 313.838 3.7803 -1.23203 0
M  V30 3266 N 314.835 0.952656 1.25548 0
M  V30 3267 C 316.084 0.602053 1.92505 0
M  V30 3268 C 316.397 -0.864663 1.75451 0
M  V30 3269 O 317.603 -1.32514 2.36965 0
M  V30 3270 C 316.059 1.02607 3.44963 0
M  V30 3271 C 315.667 2.51519 3.70732 0
M  V30 3272 C 317.411 0.747905 4.1786 0
M  V30 3273 C 315.318 2.87732 5.16686 0
M  V30 3274 H 314.248 0.22146 0.720744 0
M  V30 3275 H 316.899 1.15684 1.42441 0
M  V30 3276 H 315.281 0.399712 3.93978 0
M  V30 3277 H 316.455 3.19157 3.32378 0
M  V30 3278 H 314.77 2.76786 3.11092 0
M  V30 3279 H 317.367 0.994647 5.25367 0
M  V30 3280 H 317.71 -0.315629 4.15102 0
M  V30 3281 H 318.243 1.33452 3.74747 0
M  V30 3282 H 314.982 3.93095 5.24554 0
M  V30 3283 H 314.502 2.24765 5.56094 0
M  V30 3284 H 316.181 2.76817 5.84792 0
M  V30 3285 N 316.313 -1.40141 0.720998 0
M  V30 3286 C 317.26 -2.30688 0.071919 0
M  V30 3287 C 318.23 -1.48476 -0.744584 0
M  V30 3288 O 319.415 -1.77201 -0.707423 0
M  V30 3289 C 316.555 -3.34724 -0.839855 0
M  V30 3290 C 315.668 -4.31998 -0.0122438 0
M  V30 3291 C 314.803 -5.23102 -0.923995 0
M  V30 3292 C 313.842 -6.12033 -0.0907969 0
M  V30 3293 N 312.979 -6.95537 -0.957718 0
M  V30 3294 H 317.819 -2.85628 0.849755 0
M  V30 3295 H 315.356 -1.40653 0.430726 0
M  V30 3296 H 317.314 -3.93618 -1.38279 0
M  V30 3297 H 315.944 -2.81274 -1.58381 0
M  V30 3298 H 314.996 -3.74841 0.64794 0
M  V30 3299 H 316.308 -4.94772 0.632595 0
M  V30 3300 H 315.462 -5.86953 -1.53527 0
M  V30 3301 H 314.201 -4.60615 -1.60264 0
M  V30 3302 H 313.206 -5.47207 0.533377 0
M  V30 3303 H 314.431 -6.76581 0.584428 0
M  V30 3304 H 312.377 -6.35633 -1.62192 0
M  V30 3305 H 312.294 -7.55099 -0.36904 0
M  V30 3306 H 313.562 -7.63832 -1.555 0
M  V30 3307 N 317.792 -0.46758 -1.50504 0
M  V30 3308 C 319.038 0.0808869 -2.03239 0
M  V30 3309 C 319.393 1.37721 -1.34353 0
M  V30 3310 O 318.686 1.86016 -0.459194 0
M  V30 3311 C 318.88 0.323995 -3.55928 0
M  V30 3312 C 318.709 -0.947215 -4.39611 0
M  V30 3313 C 317.479 -1.48951 -4.82848 0
M  V30 3314 C 319.677 -1.84166 -4.80195 0
M  V30 3315 N 317.659 -2.71011 -5.50842 0
M  V30 3316 C 319.03 -2.90815 -5.47564 0
M  V30 3317 C 321.085 -1.85246 -4.62156 0
M  V30 3318 C 319.788 -3.98529 -5.98805 0
M  V30 3319 C 321.814 -2.91914 -5.14335 0
M  V30 3320 C 321.176 -3.97282 -5.81676 0
M  V30 3321 H 317.275 -0.0103394 -0.781932 0
M  V30 3322 H 319.859 -0.635003 -1.84054 0
M  V30 3323 H 318.03 1.00892 -3.75067 0
M  V30 3324 H 319.762 0.866492 -3.95315 0
M  V30 3325 H 316.517 -1.03918 -4.62058 0
M  V30 3326 H 316.941 -3.32988 -5.89447 0
M  V30 3327 H 321.583 -1.05103 -4.09528 0
M  V30 3328 H 319.301 -4.79491 -6.50472 0
M  V30 3329 H 322.887 -2.93729 -5.0221 0
M  V30 3330 H 321.767 -4.78462 -6.21324 0
M  V30 3331 N 319.27 1.56325 -0.20005 0
M  V30 3332 C 320.2 2.22318 0.713916 0
M  V30 3333 C 321.181 1.18788 1.21752 0
M  V30 3334 O 322.366 1.47309 1.26545 0
M  V30 3335 C 319.496 2.88639 1.93144 0
M  V30 3336 C 318.45 3.98457 1.56255 0
M  V30 3337 C 317.776 4.51967 2.85709 0
M  V30 3338 C 319.076 5.16612 0.768747 0
M  V30 3339 H 320.77 2.98952 0.163755 0
M  V30 3340 H 318.316 1.43792 0.0773219 0
M  V30 3341 H 320.269 3.33491 2.57608 0
M  V30 3342 H 318.993 2.09419 2.50621 0
M  V30 3343 H 317.652 3.54305 0.941471 0
M  V30 3344 H 317.3 3.69503 3.41287 0
M  V30 3345 H 317 5.26071 2.6177 0
M  V30 3346 H 318.524 4.99523 3.51154 0
M  V30 3347 H 319.938 5.57977 1.3166 0
M  V30 3348 H 318.335 5.96812 0.627286 0
M  V30 3349 H 319.405 4.84358 -0.229168 0
M  V30 3350 N 320.748 -0.0735177 1.57428 0
M  V30 3351 C 321.711 -1.07192 2.02589 0
M  V30 3352 C 322.711 -1.31695 0.922661 0
M  V30 3353 O 323.901 -1.27445 1.18758 0
M  V30 3354 C 321.033 -2.41599 2.40506 0
M  V30 3355 H 322.226 -0.682727 2.92025 0
M  V30 3356 H 319.779 -0.319193 1.53006 0
M  V30 3357 H 320.514 -2.85354 1.5409 0
M  V30 3358 H 320.299 -2.25156 3.21009 0
M  V30 3359 H 321.789 -3.13367 2.76027 0
M  V30 3360 N 322.226 -1.5378 -0.344866 0
M  V30 3361 C 323.174 -1.82373 -1.4437 0
M  V30 3362 C 324.168 -0.694128 -1.54526 0
M  V30 3363 O 325.374 -0.877442 -1.57165 0
M  V30 3364 H 321.749 -0.577765 -0.481344 0
M  V30 3365 H 323.72 -2.74306 -1.17468 0
M  V30 3366 C 322.469 -2.04898 -2.80913 0
M  V30 3367 H 321.792 -2.9127 -2.73865 0
M  V30 3368 H 323.232 -2.28871 -3.56923 0
M  V30 3369 C 321.691 -0.834116 -3.26411 0
M  V30 3370 O 322.221 -0.0328885 -4.01687 0
M  V30 3371 N 320.427 -0.65171 -2.83198 0
M  V30 3372 H 319.974 -1.30489 -2.22104 0
M  V30 3373 H 319.932 0.159686 -3.13994 0
M  V30 3374 N 323.704 0.605807 -1.45491 0
M  V30 3375 C 324.951 1.36476 -1.49601 0
M  V30 3376 C 325.279 1.94007 -0.138452 0
M  V30 3377 O 324.534 1.75638 0.863114 0
M  V30 3378 C 324.833 2.53012 -2.52428 0
M  V30 3379 C 324.499 2.13617 -3.97087 0
M  V30 3380 C 323.161 2.02587 -4.36477 0
M  V30 3381 C 325.513 1.82899 -4.88055 0
M  V30 3382 C 322.841 1.59064 -5.64726 0
M  V30 3383 C 325.193 1.40861 -6.16718 0
M  V30 3384 C 323.857 1.28391 -6.55036 0
M  V30 3385 H 323.127 0.499402 -0.547429 0
M  V30 3386 H 325.774 0.684546 -1.78847 0
M  V30 3387 H 324.079 3.26379 -2.16758 0
M  V30 3388 H 325.776 3.1124 -2.52845 0
M  V30 3389 H 322.366 2.23129 -3.65939 0
M  V30 3390 H 326.55 1.90317 -4.58359 0
M  V30 3391 H 321.806 1.48034 -5.93208 0
M  V30 3392 H 325.98 1.16138 -6.86648 0
M  V30 3393 H 323.607 0.944403 -7.54311 0
M  V30 3394 N 325.182 1.32811 0.848464 0
M  V30 3395 C 326.428 1.24917 1.60522 0
M  V30 3396 C 326.783 -0.185761 1.91501 0
M  V30 3397 O 326.076 -1.12524 1.55077 0
M  V30 3398 C 326.27 2.04831 2.92881 0
M  V30 3399 C 326.099 3.55949 2.74828 0
M  V30 3400 C 324.869 4.25277 2.72887 0
M  V30 3401 C 327.067 4.50476 2.48145 0
M  V30 3402 N 325.049 5.62408 2.46111 0
M  V30 3403 C 326.42 5.75427 2.30832 0
M  V30 3404 C 328.475 4.39665 2.33664 0
M  V30 3405 C 327.178 6.90789 2.00508 0
M  V30 3406 C 329.204 5.54833 2.04731 0
M  V30 3407 C 328.566 6.78787 1.88223 0
M  V30 3408 H 324.665 0.512279 0.590842 0
M  V30 3409 H 327.249 1.67246 0.996839 0
M  V30 3410 H 325.42 1.64837 3.51686 0
M  V30 3411 H 327.152 1.88782 3.57971 0
M  V30 3412 H 323.907 3.77456 2.86049 0
M  V30 3413 H 324.331 6.3467 2.35634 0
M  V30 3414 H 328.973 3.44477 2.45144 0
M  V30 3415 H 326.691 7.85984 1.87765 0
M  V30 3416 H 330.277 5.48398 1.94295 0
M  V30 3417 H 329.157 7.66396 1.66155 0
M  V30 3418 N 326.66 -1.06551 1.16123 0
M  V30 3419 C 327.908 -1.78947 0.939267 0
M  V30 3420 C 328.229 -1.87532 -0.534476 0
M  V30 3421 O 327.499 -1.38211 -1.38833 0
M  V30 3422 H 326.079 -0.662807 0.344523 0
M  V30 3423 H 328.741 -1.28725 1.46342 0
M  V30 3424 H 327.837 -2.81117 1.35572 0
M  V30 3425 N 328.138 -0.959301 -1.25041 0
M  V30 3426 C 329.378 -0.624343 -1.94631 0
M  V30 3427 C 329.742 0.82403 -1.73418 0
M  V30 3428 O 330.943 1.26881 -2.3697 0
M  V30 3429 C 329.214 -0.978805 -3.43736 0
M  V30 3430 S 330.773 -0.757127 -4.32219 0
M  V30 3431 H 327.591 -0.229327 -0.673001 0
M  V30 3432 H 330.193 -1.23447 -1.51595 0
M  V30 3433 H 328.897 -2.02997 -3.56679 0
M  V30 3434 H 328.428 -0.359117 -3.91757 0
M  V30 3435 H 330.443 0.369759 -4.9482 0
M  V30 3436 N 329.616 1.39756 -0.72842 0
M  V30 3437 C 330.893 1.94574 -0.200079 0
M  V30 3438 C 331.273 1.66569 1.29684 0
M  V30 3439 O 330.621 0.990326 2.05924 0
M  V30 3440 C 330.831 3.45004 -0.526608 0
M  V30 3441 C 332.179 4.21965 -0.472318 0
M  V30 3442 O 333.203 3.53173 -0.463413 0
M  V30 3443 O 332.062 5.44552 -0.461075 0
M  V30 3444 H 329.156 0.826289 -0.0342851 0
M  V30 3445 H 331.702 1.49293 -0.806829 0
M  V30 3446 H 330.474 3.58796 -1.56144 0
M  V30 3447 H 330.097 3.97449 0.109449 0
M  V30 3448 N 331.094 0.475555 1.50254 0
M  V30 3449 C 332.371 -0.139685 1.95101 0
M  V30 3450 C 332.751 -1.56555 1.41611 0
M  V30 3451 O 332.099 -2.19956 0.618993 0
M  V30 3452 C 332.309 -0.0784298 3.48912 0
M  V30 3453 C 333.657 -0.265095 4.23772 0
M  V30 3454 O 334.681 -0.154808 3.55863 0
M  V30 3455 O 333.54 -0.488327 5.44314 0
M  V30 3456 H 330.634 -0.109236 0.819754 0
M  V30 3457 H 333.18 0.536276 1.61004 0
M  V30 3458 H 331.952 0.916918 3.80405 0
M  V30 3459 H 331.575 -0.795655 3.89558 0
M  V30 3460 N 332.573 -1.56217 0.208337 0
M  V30 3461 C 333.505 -2.1695 -0.739276 0
M  V30 3462 C 334.518 -1.13492 -1.1672 0
M  V30 3463 O 335.707 -1.40529 -1.10063 0
M  V30 3464 C 332.807 -2.72755 -2.01142 0
M  V30 3465 C 331.98 -4.0125 -1.74118 0
M  V30 3466 C 331.039 -4.41749 -2.85909 0
M  V30 3467 O 330.065 -5.08912 -2.54946 0
M  V30 3468 N 331.267 -4.06342 -4.14568 0
M  V30 3469 H 334.032 -2.98893 -0.219837 0
M  V30 3470 H 331.593 -1.61878 0.0268445 0
M  V30 3471 H 333.585 -2.96826 -2.75094 0
M  V30 3472 H 332.155 -1.95191 -2.4417 0
M  V30 3473 H 331.375 -3.85173 -0.838775 0
M  V30 3474 H 332.663 -4.851 -1.53477 0
M  V30 3475 H 332.061 -3.52345 -4.42571 0
M  V30 3476 H 330.618 -4.35335 -4.85105 0
M  V30 3477 N 334.051 0.0651679 -1.57465 0
M  V30 3478 C 335.462 0.616213 -1.76238 0
M  V30 3479 C 335.813 1.7756 -0.834689 0
M  V30 3480 O 334.938 2.1639 -0.0204156 0
M  V30 3481 C 335.533 1.12462 -3.1959 0
M  V30 3482 C 334.092 1.62147 -3.39684 0
M  V30 3483 C 333.239 0.543739 -2.71917 0
M  V30 3484 H 336.19 -0.161022 -1.57881 0
M  V30 3485 H 336.211 1.99324 -3.24114 0
M  V30 3486 H 335.723 0.280592 -3.87084 0
M  V30 3487 H 333.824 2.48854 -2.77313 0
M  V30 3488 H 333.937 1.69385 -4.48158 0
M  V30 3489 H 332.301 0.990352 -2.34657 0
M  V30 3490 H 333.084 -0.290216 -3.42071 0
M  V30 3491 N 335.529 1.53961 0.336706 0
M  V30 3492 C 336.945 1.44378 0.680241 0
M  V30 3493 C 337.145 0.606034 1.9217 0
M  V30 3494 O 336.201 0.099688 2.52303 0
M  V30 3495 C 337.514 2.87945 0.8665 0
M  V30 3496 C 339.062 2.97763 0.964682 0
M  V30 3497 C 339.537 4.42453 1.18321 0
M  V30 3498 N 341.028 4.46008 1.25025 0
M  V30 3499 C 341.763 5.55102 1.43697 0
M  V30 3500 N 341.259 6.7419 1.59498 0
M  V30 3501 N 343.052 5.42727 1.463 0
M  V30 3502 H 335.203 2.06918 -0.479455 0
M  V30 3503 H 337.466 0.935634 -0.152619 0
M  V30 3504 H 337.172 3.51691 0.0256937 0
M  V30 3505 H 337.046 3.33293 1.76623 0
M  V30 3506 H 339.433 2.34153 1.796 0
M  V30 3507 H 339.514 2.55766 0.041708 0
M  V30 3508 H 339.158 5.06645 0.356788 0
M  V30 3509 H 339.088 4.82048 2.11985 0
M  V30 3510 H 341.579 3.60196 1.14312 0
M  V30 3511 H 341.892 7.53095 1.734 0
M  V30 3512 H 340.237 6.77123 1.56621 0
M  V30 3513 H 343.428 4.48647 1.33543 0
M  V30 3514 H 343.601 6.27806 1.6051 0
M  V30 3515 N 337.007 -0.598083 1.45811 0
M  V30 3516 C 337.94 -1.7223 1.49706 0
M  V30 3517 C 338.918 -1.58732 0.352535 0
M  V30 3518 O 340.102 -1.80162 0.554438 0
M  V30 3519 C 337.229 -3.10148 1.3611 0
M  V30 3520 C 336.275 -3.42209 2.54549 0
M  V30 3521 S 337.108 -3.35989 4.16979 0
M  V30 3522 C 338.264 -4.76471 4.05865 0
M  V30 3523 H 338.497 -1.68665 2.44826 0
M  V30 3524 H 336.03 -0.775541 1.33509 0
M  V30 3525 H 337.988 -3.8972 1.28953 0
M  V30 3526 H 336.649 -3.11219 0.424451 0
M  V30 3527 H 335.842 -4.42652 2.40988 0
M  V30 3528 H 335.444 -2.70173 2.58617 0
M  V30 3529 H 337.736 -5.665 3.71596 0
M  V30 3530 H 338.679 -4.95089 5.06253 0
M  V30 3531 H 339.087 -4.52599 3.37364 0
M  V30 3532 N 338.485 -1.33259 -0.841409 0
M  V30 3533 C 339.715 -1.2742 -1.62628 0
M  V30 3534 C 340.123 0.157604 -1.88542 0
M  V30 3535 O 339.466 1.10938 -1.46419 0
M  V30 3536 C 339.528 -1.97797 -3.00194 0
M  V30 3537 C 339.192 -3.47109 -2.97261 0
M  V30 3538 C 340.189 -4.42358 -2.73159 0
M  V30 3539 C 337.874 -3.89247 -3.17478 0
M  V30 3540 C 339.868 -5.77718 -2.69296 0
M  V30 3541 C 337.555 -5.24713 -3.13241 0
M  V30 3542 C 338.553 -6.1876 -2.89181 0
M  V30 3543 O 338.241 -7.51745 -2.84843 0
M  V30 3544 H 337.973 -0.440436 -0.512827 0
M  V30 3545 H 340.527 -1.76153 -1.05638 0
M  V30 3546 H 338.757 -1.43652 -3.59028 0
M  V30 3547 H 340.446 -1.8549 -3.61038 0
M  V30 3548 H 341.212 -4.11127 -2.57294 0
M  V30 3549 H 337.091 -3.16456 -3.35226 0
M  V30 3550 H 340.635 -6.51097 -2.50436 0
M  V30 3551 H 336.532 -5.55569 -3.28654 0
M  V30 3552 H 337.3 -7.61262 -3.00702 0
M  V30 3553 N 339.963 1.05934 -1.16686 0
M  V30 3554 C 340.913 2.11764 -0.844978 0
M  V30 3555 C 341.897 1.59922 0.177178 0
M  V30 3556 O 343.089 1.76983 -0.0241768 0
M  V30 3557 C 340.218 3.41493 -0.351812 0
M  V30 3558 C 339.304 4.00152 -1.40496 0
M  V30 3559 N 339.695 4.32874 -2.61636 0
M  V30 3560 C 337.993 4.278 -1.26106 0
M  V30 3561 C 338.694 4.79552 -3.29249 0
M  V30 3562 N 337.67 4.79211 -2.56628 0
M  V30 3563 H 341.472 2.34916 -1.76612 0
M  V30 3564 H 338.986 1.23511 -1.05446 0
M  V30 3565 H 340.983 4.16773 -0.102796 0
M  V30 3566 H 339.643 3.19778 0.56322 0
M  V30 3567 H 340.654 4.23109 -2.98663 0
M  V30 3568 H 337.331 4.15511 -0.407081 0
M  V30 3569 H 338.721 5.14045 -4.32675 0
M  V30 3570 N 341.441 0.965919 1.2453 0
M  V30 3571 C 342.391 0.465731 2.23193 0
M  V30 3572 C 343.375 -0.451277 1.54442 0
M  V30 3573 O 344.567 -0.282489 1.74731 0
M  V30 3574 C 341.696 -0.244511 3.42428 0
M  V30 3575 C 340.782 0.691222 4.18429 0
M  V30 3576 N 341.173 1.82771 4.71623 0
M  V30 3577 C 339.471 0.501649 4.4317 0
M  V30 3578 C 340.172 2.41285 5.29298 0
M  V30 3579 N 339.148 1.69819 5.16394 0
M  V30 3580 H 342.95 1.33291 2.61937 0
M  V30 3581 H 340.464 0.824789 1.39896 0
M  V30 3582 H 342.461 -0.620056 4.12263 0
M  V30 3583 H 341.121 -1.10815 3.05205 0
M  V30 3584 H 342.132 2.20929 4.68413 0
M  V30 3585 H 338.809 -0.318177 4.16286 0
M  V30 3586 H 340.199 3.37181 5.8117 0
M  V30 3587 N 342.919 -1.39368 0.735821 0
M  V30 3588 C 344.147 -2.04795 0.294393 0
M  V30 3589 C 344.562 -1.55478 -1.07107 0
M  V30 3590 O 343.919 -0.720038 -1.67695 0
M  V30 3591 C 343.97 -3.6035 0.288071 0
M  V30 3592 O 343.691 -4.07852 1.59963 0
M  V30 3593 C 345.192 -4.42976 -0.169422 0
M  V30 3594 H 342.412 -0.658571 0.128551 0
M  V30 3595 H 344.956 -1.78399 0.999701 0
M  V30 3596 H 343.111 -3.85645 -0.368355 0
M  V30 3597 H 343.525 -5.02181 1.51375 0
M  V30 3598 H 344.999 -5.51864 -0.122687 0
M  V30 3599 H 345.476 -4.22068 -1.21472 0
M  V30 3600 H 346.082 -4.22832 0.457469 0
M  V30 3601 N 344.397 -0.483516 -1.5 0
M  V30 3602 C 345.646 0.0689102 -2.01582 0
M  V30 3603 C 345.959 1.39655 -1.36952 0
M  V30 3604 O 347.165 2.03465 -1.79762 0
M  V30 3605 C 345.621 0.173302 -3.59483 0
M  V30 3606 C 345.229 -1.14665 -4.33077 0
M  V30 3607 C 346.973 0.677024 -4.19066 0
M  V30 3608 C 344.88 -1.00537 -5.82792 0
M  V30 3609 H 343.81 0.0295277 -0.753422 0
M  V30 3610 H 346.461 -0.620295 -1.72698 0
M  V30 3611 H 344.843 0.926569 -3.85007 0
M  V30 3612 H 346.017 -1.91184 -4.19268 0
M  V30 3613 H 344.332 -1.58244 -3.85159 0
M  V30 3614 H 346.929 0.799952 -5.28682 0
M  V30 3615 H 347.272 1.67151 -3.81269 0
M  V30 3616 H 347.805 -0.0192083 -3.97795 0
M  V30 3617 H 344.544 -1.9736 -6.25083 0
M  V30 3618 H 344.064 -0.280776 -5.99142 0
M  V30 3619 H 345.743 -0.677 -6.43448 0
M  V30 3620 N 345.875 1.56104 -0.216619 0
M  V30 3621 C 347.286 1.844 0.292128 0
M  V30 3622 C 347.637 1.13788 1.59833 0
M  V30 3623 O 346.762 0.405888 2.12559 0
M  V30 3624 C 347.357 3.3452 0.53681 0
M  V30 3625 C 345.916 3.63151 0.989876 0
M  V30 3626 C 345.063 2.77255 0.0502302 0
M  V30 3627 H 348.014 1.52481 -0.439926 0
M  V30 3628 H 348.035 3.54459 1.38345 0
M  V30 3629 H 347.547 3.85885 -0.414031 0
M  V30 3630 H 345.648 3.17238 1.95425 0
M  V30 3631 H 345.761 4.71177 0.867698 0
M  V30 3632 H 344.125 2.48555 0.556117 0
M  V30 3633 H 344.908 3.31416 -0.89544 0
M  V30 3634 N 347.353 -0.0568162 1.57498 0
M  V30 3635 C 348.599 -0.75422 1.88253 0
M  V30 3636 C 348.932 -1.76461 0.810865 0
M  V30 3637 O 348.207 -1.93691 -0.177259 0
M  V30 3638 C 348.49 -1.44878 3.2967 0
M  V30 3639 C 348.343 -0.453789 4.47505 0
M  V30 3640 C 349.662 -2.38994 3.69554 0
M  V30 3641 H 346.781 -0.272724 0.684683 0
M  V30 3642 H 349.423 -0.0172113 1.89992 0
M  V30 3643 H 347.573 -2.077 3.28318 0
M  V30 3644 H 349.245 0.170371 4.60985 0
M  V30 3645 H 347.488 0.229552 4.33192 0
M  V30 3646 H 348.159 -0.977699 5.43273 0
M  V30 3647 H 350.635 -1.86239 3.72095 0
M  V30 3648 H 349.511 -2.84587 4.69363 0
M  V30 3649 H 349.772 -3.24461 3.00296 0
M  V30 3650 N 348.832 -1.54138 -0.328536 0
M  V30 3651 C 350.081 -1.71318 -1.06456 0
M  V30 3652 C 350.394 -0.491109 -1.89334 0
M  V30 3653 O 351.6 -0.54416 -2.65991 0
M  V30 3654 C 350.056 -3.03 -1.94214 0
M  V30 3655 C 349.664 -4.32595 -1.16471 0
M  V30 3656 C 351.408 -3.29544 -2.67583 0
M  V30 3657 C 349.315 -5.55341 -2.03347 0
M  V30 3658 H 348.245 -0.638429 -0.401155 0
M  V30 3659 H 350.896 -1.80633 -0.323106 0
M  V30 3660 H 349.278 -2.87579 -2.72239 0
M  V30 3661 H 350.452 -4.58766 -0.432525 0
M  V30 3662 H 348.767 -4.12777 -0.548063 0
M  V30 3663 H 351.364 -4.18444 -3.3288 0
M  V30 3664 H 351.707 -2.47206 -3.34955 0
M  V30 3665 H 352.24 -3.45809 -1.96623 0
M  V30 3666 H 348.979 -6.40268 -1.40491 0
M  V30 3667 H 348.499 -5.33397 -2.74313 0
M  V30 3668 H 350.178 -5.91557 -2.62049 0
M  V30 3669 N 350.31 0.590341 -1.46126 0
M  V30 3670 C 351.535 1.37991 -1.54833 0
M  V30 3671 C 351.96 1.87163 -0.187506 0
M  V30 3672 O 351.318 1.61133 0.831008 0
M  V30 3673 C 351.366 2.54867 -2.55098 0
M  V30 3674 O 350.47 3.56061 -2.08073 0
M  V30 3675 H 349.811 0.411265 -0.521303 0
M  V30 3676 H 352.341 0.716819 -1.91632 0
M  V30 3677 H 352.351 3.01886 -2.74461 0
M  V30 3678 H 351.026 2.18429 -3.53923 0
M  V30 3679 H 349.603 3.15574 -1.98664 0
M  V30 3680 N 351.788 1.33704 0.83433 0
M  V30 3681 C 352.718 1.26967 1.95963 0
M  V30 3682 C 353.699 0.149337 1.69443 0
M  V30 3683 O 354.884 0.339852 1.91203 0
M  V30 3684 C 352.014 1.01275 3.32206 0
M  V30 3685 C 350.968 2.09652 3.73136 0
M  V30 3686 C 350.294 1.69166 5.07235 0
M  V30 3687 C 351.594 3.51372 3.86439 0
M  V30 3688 H 353.288 2.2112 2.01857 0
M  V30 3689 H 350.834 1.06447 0.969793 0
M  V30 3690 H 352.787 0.952106 4.10503 0
M  V30 3691 H 351.511 0.0356203 3.26581 0
M  V30 3692 H 350.17 2.14766 2.97104 0
M  V30 3693 H 349.818 0.701437 4.98085 0
M  V30 3694 H 349.518 2.41694 5.35591 0
M  V30 3695 H 351.042 1.64576 5.88003 0
M  V30 3696 H 352.456 3.48734 4.55036 0
M  V30 3697 H 350.853 4.22425 4.26236 0
M  V30 3698 H 351.923 3.89546 2.88759 0
M  V30 3699 N 353.266 -1.05314 1.17247 0
M  V30 3700 C 354.496 -1.81707 0.983166 0
M  V30 3701 C 354.904 -1.83222 -0.471822 0
M  V30 3702 O 354.247 -1.25721 -1.3394 0
M  V30 3703 C 354.309 -3.29134 1.44606 0
M  V30 3704 C 353.973 -3.51304 2.92292 0
M  V30 3705 C 354.97 -3.4353 3.90235 0
M  V30 3706 C 352.655 -3.78306 3.30439 0
M  V30 3707 C 354.649 -3.62442 5.24323 0
M  V30 3708 C 352.336 -3.96866 4.64694 0
M  V30 3709 C 353.334 -3.88933 5.61445 0
M  V30 3710 O 353.022 -4.06976 6.93272 0
M  V30 3711 H 352.754 -0.579476 0.348114 0
M  V30 3712 H 355.308 -1.33705 1.55924 0
M  V30 3713 H 353.538 -3.78046 0.813537 0
M  V30 3714 H 355.227 -3.87049 1.22262 0
M  V30 3715 H 355.993 -3.22648 3.62109 0
M  V30 3716 H 351.872 -3.83585 2.55702 0
M  V30 3717 H 355.416 -3.56165 5.99827 0
M  V30 3718 H 351.313 -4.1724 4.92525 0
M  V30 3719 H 352.081 -4.24209 6.99992 0
M  V30 3720 N 354.744 -0.972509 -1.24016 0
M  V30 3721 C 355.969 -0.654417 -1.96805 0
M  V30 3722 C 356.394 0.770398 -1.716 0
M  V30 3723 O 355.752 1.52361 -0.982647 0
M  V30 3724 C 355.8 -0.941031 -3.48105 0
M  V30 3725 O 354.904 -0.0289472 -4.1239 0
M  V30 3726 H 354.245 -0.24692 -0.616382 0
M  V30 3727 H 356.775 -1.30396 -1.57664 0
M  V30 3728 H 356.785 -0.87452 -3.98517 0
M  V30 3729 H 355.46 -1.97939 -3.65777 0
M  V30 3730 H 354.037 -0.149192 -3.72601 0
M  V30 3731 N 356.222 1.38976 -0.743202 0
M  V30 3732 C 357.152 2.33171 -0.123873 0
M  V30 3733 C 358.133 1.54336 0.71516 0
M  V30 3734 O 359.318 1.82696 0.658467 0
M  V30 3735 C 356.448 3.38474 0.777978 0
M  V30 3736 C 355.402 4.27979 0.0424758 0
M  V30 3737 C 354.728 5.2405 1.06189 0
M  V30 3738 C 356.028 5.10155 -1.1198 0
M  V30 3739 H 357.722 2.85213 -0.910709 0
M  V30 3740 H 355.268 1.37133 -0.439388 0
M  V30 3741 H 357.221 4.03328 1.22084 0
M  V30 3742 H 355.945 2.84891 1.59702 0
M  V30 3743 H 354.604 3.64616 -0.380853 0
M  V30 3744 H 354.252 4.66758 1.87472 0
M  V30 3745 H 353.952 5.84785 0.574485 0
M  V30 3746 H 355.476 5.9178 1.50428 0
M  V30 3747 H 356.89 5.68307 -0.75499 0
M  V30 3748 H 355.287 5.80073 -1.53738 0
M  V30 3749 H 356.357 4.44504 -1.93764 0
M  V30 3750 N 357.7 0.491464 1.49741 0
M  V30 3751 C 359.116 0.146835 1.58923 0
M  V30 3752 C 359.316 -1.34804 1.49767 0
M  V30 3753 O 358.372 -2.12317 1.36667 0
M  V30 3754 C 359.685 0.715157 2.92072 0
M  V30 3755 C 361.233 0.680407 3.05515 0
M  V30 3756 C 361.708 1.22663 4.41269 0
M  V30 3757 N 363.199 1.18691 4.47735 0
M  V30 3758 C 363.934 1.57984 5.51207 0
M  V30 3759 N 363.43 2.04824 6.6183 0
M  V30 3760 N 365.223 1.49459 5.41866 0
M  V30 3761 H 357.374 1.46347 1.53936 0
M  V30 3762 H 359.637 0.606453 0.728642 0
M  V30 3763 H 359.343 1.76317 3.04311 0
M  V30 3764 H 359.217 0.17018 3.76816 0
M  V30 3765 H 361.604 -0.358743 2.92911 0
M  V30 3766 H 361.685 1.26242 2.22478 0
M  V30 3767 H 361.329 2.26451 4.54623 0
M  V30 3768 H 361.259 0.620637 5.2293 0
M  V30 3769 H 363.75 0.843605 3.68364 0
M  V30 3770 H 364.063 2.32901 7.3687 0
M  V30 3771 H 362.408 2.08791 6.62896 0
M  V30 3772 H 365.599 1.12692 4.54333 0
M  V30 3773 H 365.772 1.80406 6.22381 0
M  V30 3774 N 359.178 -1.55987 0.224894 0
M  V30 3775 C 360.088 -2.24066 -0.69511 0
M  V30 3776 C 361.104 -1.24939 -1.21104 0
M  V30 3777 O 362.28 -1.5776 -1.25195 0
M  V30 3778 C 359.345 -2.90983 -1.88493 0
M  V30 3779 C 358.406 -4.05462 -1.41064 0
M  V30 3780 C 357.639 -4.69179 -2.54375 0
M  V30 3781 O 357.862 -4.31895 -3.72589 0
M  V30 3782 O 356.796 -5.58108 -2.25386 0
M  V30 3783 H 360.622 -3.03353 -0.145149 0
M  V30 3784 H 358.207 -1.49399 -0.00569476 0
M  V30 3785 H 360.089 -3.33209 -2.57972 0
M  V30 3786 H 358.764 -2.14653 -2.42293 0
M  V30 3787 H 357.671 -3.67798 -0.683774 0
M  V30 3788 H 359.004 -4.83545 -0.918985 0
M  V30 3789 N 360.656 0.0484629 -1.57525 0
M  V30 3790 C 361.881 0.759177 -1.93006 0
M  V30 3791 C 362.306 1.69125 -0.823317 0
M  V30 3792 O 361.664 1.79931 0.222364 0
M  V30 3793 C 361.712 1.50899 -3.27509 0
M  V30 3794 O 360.816 2.62112 -3.18388 0
M  V30 3795 H 360.157 0.205564 -0.631379 0
M  V30 3796 H 362.687 0.00972959 -2.04598 0
M  V30 3797 H 362.697 1.88317 -3.6194 0
M  V30 3798 H 361.372 0.825269 -4.0763 0
M  V30 3799 H 359.949 2.27379 -2.95556 0
M  V30 3800 N 362.134 1.5431 0.320358 0
M  V30 3801 C 363.064 1.86912 1.3995 0
M  V30 3802 C 364.045 0.726211 1.53819 0
M  V30 3803 O 365.23 0.980233 1.67646 0
M  V30 3804 C 362.36 2.09932 2.7667 0
M  V30 3805 C 361.314 3.25776 2.77586 0
M  V30 3806 C 360.64 3.34173 4.17412 0
M  V30 3807 C 361.94 4.6335 2.41048 0
M  V30 3808 H 363.634 2.77292 1.12914 0
M  V30 3809 H 361.18 1.33421 0.541738 0
M  V30 3810 H 363.133 2.31324 3.52232 0
M  V30 3811 H 361.857 1.16304 3.0519 0
M  V30 3812 H 360.516 3.04276 2.04479 0
M  V30 3813 H 360.164 2.38098 4.43078 0
M  V30 3814 H 359.864 4.12033 4.18931 0
M  V30 3815 H 361.388 3.57803 4.94782 0
M  V30 3816 H 362.802 4.84602 3.06324 0
M  V30 3817 H 361.199 5.43782 2.53813 0
M  V30 3818 H 362.269 4.65381 1.36193 0
M  V30 3819 N 363.613 -0.582584 1.46437 0
M  V30 3820 C 364.576 -1.67366 1.56592 0
M  V30 3821 C 365.576 -1.54575 0.443072 0
M  V30 3822 O 366.766 -1.59191 0.707381 0
M  V30 3823 C 363.898 -3.06791 1.48634 0
M  V30 3824 H 365.091 -1.5972 2.5383 0
M  V30 3825 H 362.644 -0.800432 1.34249 0
M  V30 3826 H 363.379 -3.19993 0.526763 0
M  V30 3827 H 363.164 -3.17484 2.30101 0
M  V30 3828 H 364.654 -3.86218 1.58826 0
M  V30 3829 N 365.091 -1.34144 -0.827227 0
M  V30 3830 C 366.021 -1.28005 -1.95287 0
M  V30 3831 C 367.002 -0.158321 -1.69362 0
M  V30 3832 O 368.187 -0.349987 -1.9102 0
M  V30 3833 C 365.317 -1.03036 -3.31664 0
M  V30 3834 C 364.271 -2.11628 -3.72019 0
M  V30 3835 C 363.597 -1.71854 -5.0633 0
M  V30 3836 C 364.897 -3.53417 -3.8457 0
M  V30 3837 H 366.591 -2.22187 -2.00682 0
M  V30 3838 H 364.137 -1.0696 -0.964135 0
M  V30 3839 H 366.09 -0.973863 -4.09993 0
M  V30 3840 H 364.814 -0.0529391 -3.26557 0
M  V30 3841 H 363.473 -2.16339 -2.95961 0
M  V30 3842 H 363.121 -0.727841 -4.97706 0
M  V30 3843 H 362.821 -2.44531 -5.34302 0
M  V30 3844 H 364.345 -1.67692 -5.87122 0
M  V30 3845 H 365.759 -3.51142 -4.5318 0
M  V30 3846 H 364.156 -4.24679 -4.2399 0
M  V30 3847 H 365.226 -3.91072 -2.86689 0
M  V30 3848 N 366.569 1.04691 -1.17803 0
M  V30 3849 C 367.818 1.77176 -0.963931 0
M  V30 3850 C 368.131 1.88888 0.508015 0
M  V30 3851 O 369.337 2.58164 0.840465 0
M  V30 3852 C 367.793 3.18518 -1.67555 0
M  V30 3853 C 367.401 3.14919 -3.18637 0
M  V30 3854 C 369.145 3.95424 -1.54402 0
M  V30 3855 C 367.052 4.51081 -3.82466 0
M  V30 3856 H 365.982 0.664116 -0.357023 0
M  V30 3857 H 368.633 1.17303 -1.4111 0
M  V30 3858 H 367.015 3.78748 -1.15613 0
M  V30 3859 H 368.189 2.64178 -3.77554 0
M  V30 3860 H 366.504 2.51512 -3.31859 0
M  V30 3861 H 369.101 4.96106 -1.99456 0
M  V30 3862 H 369.444 4.13343 -0.495329 0
M  V30 3863 H 369.977 3.41754 -2.0359 0
M  V30 3864 H 366.716 4.38368 -4.87354 0
M  V30 3865 H 366.236 5.01951 -3.28337 0
M  V30 3866 H 367.915 5.2001 -3.84965 0
M  V30 3867 N 368.047 0.979072 1.23499 0
M  V30 3868 C 369.01 0.523244 2.23147 0
M  V30 3869 C 370.01 -0.386406 1.56088 0
M  V30 3870 O 371.2 -0.180283 1.73265 0
M  V30 3871 C 368.332 -0.240739 3.40049 0
M  V30 3872 H 369.525 1.40432 2.64989 0
M  V30 3873 H 367.078 0.764824 1.36309 0
M  V30 3874 H 367.813 -1.13841 3.03662 0
M  V30 3875 H 367.598 0.412207 3.89927 0
M  V30 3876 H 369.088 -0.548297 4.13985 0
M  V30 3877 N 369.525 -1.3858 0.750561 0
M  V30 3878 C 370.435 -2.34278 0.122825 0
M  V30 3879 C 371.451 -1.59116 -0.704131 0
M  V30 3880 O 372.627 -1.91326 -0.628987 0
M  V30 3881 C 369.692 -3.38221 -0.762086 0
M  V30 3882 C 368.753 -4.29227 0.078896 0
M  V30 3883 C 367.986 -5.28205 -0.763874 0
M  V30 3884 O 368.209 -5.34112 -2.00201 0
M  V30 3885 O 367.143 -6.01618 -0.18428 0
M  V30 3886 H 370.969 -2.89649 0.913088 0
M  V30 3887 H 368.554 -1.40374 0.511417 0
M  V30 3888 H 370.436 -4.01872 -1.26793 0
M  V30 3889 H 369.111 -2.85211 -1.5309 0
M  V30 3890 H 368.018 -3.68747 0.630621 0
M  V30 3891 H 369.351 -4.85484 0.810289 0
M  V30 3892 N 371.003 -0.499398 -1.49478 0
M  V30 3893 C 371.935 0.316575 -2.27003 0
M  V30 3894 C 372.948 0.932047 -1.33479 0
M  V30 3895 O 374.137 0.815658 -1.58774 0
M  V30 3896 C 371.237 1.46055 -3.05812 0
M  V30 3897 C 370.41 0.952679 -4.26899 0
M  V30 3898 C 369.469 1.97407 -4.87767 0
M  V30 3899 O 368.495 1.54326 -5.4788 0
M  V30 3900 N 369.697 3.30436 -4.77276 0
M  V30 3901 H 372.462 -0.348168 -2.97671 0
M  V30 3902 H 370.023 -0.33185 -1.58463 0
M  V30 3903 H 372.015 2.14135 -3.43407 0
M  V30 3904 H 370.585 2.02948 -2.37762 0
M  V30 3905 H 369.805 0.0968248 -3.94081 0
M  V30 3906 H 371.093 0.59174 -5.05347 0
M  V30 3907 H 370.491 3.68126 -4.29534 0
M  V30 3908 H 369.048 3.94235 -5.19059 0
M  V30 3909 N 372.481 1.55866 -0.233164 0
M  V30 3910 C 373.729 1.9821 0.394593 0
M  V30 3911 C 374.05 1.12234 1.59463 0
M  V30 3912 O 373.32 0.201981 1.94856 0
M  V30 3913 H 371.9 0.732034 0.148778 0
M  V30 3914 H 374.562 1.92107 -0.32876 0
M  V30 3915 H 373.658 3.03845 0.713063 0
M  V30 3916 N 373.959 -0.0401083 1.57549 0
M  V30 3917 C 374.889 -1.04384 2.08869 0
M  V30 3918 C 375.87 -1.38407 0.988817 0
M  V30 3919 O 377.055 -1.47483 1.26342 0
M  V30 3920 C 374.185 -2.34808 2.55895 0
M  V30 3921 C 373.139 -2.15057 3.70047 0
M  V30 3922 C 372.465 -3.51145 4.03239 0
M  V30 3923 C 373.765 -1.54576 4.98902 0
M  V30 3924 H 375.459 -0.616666 2.92981 0
M  V30 3925 H 373.005 -0.295184 1.40942 0
M  V30 3926 H 374.958 -3.05346 2.90417 0
M  V30 3927 H 373.682 -2.79565 1.68853 0
M  V30 3928 H 372.341 -1.46954 3.35857 0
M  V30 3929 H 371.989 -3.93529 3.13279 0
M  V30 3930 H 371.689 -3.38758 4.80122 0
M  V30 3931 H 373.213 -4.23062 4.40285 0
M  V30 3932 H 374.627 -2.15017 5.31451 0
M  V30 3933 H 373.024 -1.52796 5.80322 0
M  V30 3934 H 374.094 -0.51039 4.82206 0
M  V30 3935 N 375.437 -1.54477 -0.31217 0
M  V30 3936 C 376.347 -1.87695 -1.4074 0
M  V30 3937 C 377.363 -0.769975 -1.56036 0
M  V30 3938 O 378.539 -1.06537 -1.70915 0
M  V30 3939 C 375.604 -2.10755 -2.75287 0
M  V30 3940 C 374.665 -3.34514 -2.69071 0
M  V30 3941 C 373.898 -3.56465 -3.97201 0
M  V30 3942 O 374.121 -2.81637 -4.96021 0
M  V30 3943 O 373.055 -4.49964 -3.9977 0
M  V30 3944 H 376.881 -2.80849 -1.15574 0
M  V30 3945 H 374.466 -1.40526 -0.507228 0
M  V30 3946 H 376.348 -2.27188 -3.54913 0
M  V30 3947 H 375.023 -1.20788 -3.0032 0
M  V30 3948 H 373.93 -3.23456 -1.87955 0
M  V30 3949 H 375.263 -4.24575 -2.48992 0
M  V30 3950 N 376.915 0.57481 -1.46744 0
M  V30 3951 C 377.863 1.70435 -1.58286 0
M  V30 3952 C 378.857 1.63287 -0.450956 0
M  V30 3953 O 380.063 1.68685 -0.628121 0
M  V30 3954 H 376.438 0.56364 -0.497809 0
M  V30 3955 H 378.409 1.57833 -2.53242 0
M  V30 3956 C 377.158 3.08815 -1.59776 0
M  V30 3957 H 376.481 3.1499 -2.46214 0
M  V30 3958 H 377.921 3.87588 -1.71905 0
M  V30 3959 C 376.38 3.35301 -0.327812 0
M  V30 3960 O 376.91 3.97511 0.57861 0
M  V30 3961 N 375.116 2.89816 -0.213274 0
M  V30 3962 H 374.663 2.39371 -0.951798 0
M  V30 3963 H 374.621 3.0791 0.63553 0
M  V30 3964 N 378.394 1.34581 0.820102 0
M  V30 3965 C 379.619 1.30333 1.61332 0
M  V30 3966 C 380.044 -0.119339 1.87721 0
M  V30 3967 O 379.402 -1.08197 1.45475 0
M  V30 3968 C 379.45 2.10258 2.92957 0
M  V30 3969 O 378.554 1.47404 3.85157 0
M  V30 3970 H 377.895 0.447488 0.490561 0
M  V30 3971 H 380.425 1.77425 1.01889 0
M  V30 3972 H 380.435 2.21718 3.42498 0
M  V30 3973 H 379.11 3.13693 2.73074 0
M  V30 3974 H 377.687 1.44703 3.43679 0
M  V30 3975 N 379.872 -1.04064 1.18357 0
M  V30 3976 C 381.118 -1.77658 0.990412 0
M  V30 3977 C 381.473 -1.86446 -0.474944 0
M  V30 3978 O 380.766 -1.36153 -1.34807 0
M  V30 3979 C 380.96 -3.20634 1.57888 0
M  V30 3980 C 380.789 -3.25782 3.09994 0
M  V30 3981 C 379.559 -3.34411 3.7881 0
M  V30 3982 C 381.757 -3.13791 4.0748 0
M  V30 3983 N 379.739 -3.28809 5.18418 0
M  V30 3984 C 381.11 -3.15689 5.33611 0
M  V30 3985 C 383.165 -2.97833 3.98998 0
M  V30 3986 C 381.868 -3.03268 6.52243 0
M  V30 3987 C 383.894 -2.86759 5.17227 0
M  V30 3988 C 383.256 -2.893 6.4225 0
M  V30 3989 H 379.355 -0.661901 0.416427 0
M  V30 3990 H 381.939 -1.23968 1.50133 0
M  V30 3991 H 380.11 -3.7267 1.09414 0
M  V30 3992 H 381.842 -3.82525 1.32124 0
M  V30 3993 H 378.597 -3.40144 3.29543 0
M  V30 3994 H 379.021 -3.29448 5.91433 0
M  V30 3995 H 383.663 -2.94698 3.03171 0
M  V30 3996 H 381.381 -3.05156 7.48268 0
M  V30 3997 H 384.967 -2.75465 5.12455 0
M  V30 3998 H 383.847 -2.80818 7.32196 0
M  V30 3999 N 381.35 -0.985608 -1.22978 0
M  V30 4000 C 382.766 -0.695104 -1.43668 0
M  V30 4001 C 382.966 0.736866 -1.87543 0
M  V30 4002 O 382.022 1.50868 -2.02473 0
M  V30 4003 C 383.335 -1.69447 -2.48412 0
M  V30 4004 C 384.883 -1.70909 -2.62219 0
M  V30 4005 C 385.358 -2.6969 -3.70178 0
M  V30 4006 N 386.849 -2.6824 -3.77626 0
M  V30 4007 C 387.584 -3.41339 -4.60733 0
M  V30 4008 N 387.08 -4.24015 -5.4789 0
M  V30 4009 N 388.873 -3.30079 -4.54977 0
M  V30 4010 H 381.024 -1.91054 -0.928016 0
M  V30 4011 H 383.287 -0.823553 -0.469536 0
M  V30 4012 H 382.993 -2.7188 -2.23102 0
M  V30 4013 H 382.867 -1.48147 -3.46889 0
M  V30 4014 H 385.254 -0.691785 -2.86877 0
M  V30 4015 H 385.335 -1.96276 -1.6404 0
M  V30 4016 H 384.979 -3.71566 -3.46268 0
M  V30 4017 H 384.909 -2.41595 -4.67909 0
M  V30 4018 H 387.4 -2.08243 -3.15346 0
M  V30 4019 H 387.713 -4.76636 -6.08308 0
M  V30 4020 H 386.058 -4.28104 -5.47496 0
M  V30 4021 H 389.249 -2.64937 -3.85909 0
M  V30 4022 H 389.422 -3.87308 -5.19516 0
M  V30 4023 N 382.828 1.3818 -0.7579 0
M  V30 4024 C 383.76 2.2901 -0.0932177 0
M  V30 4025 C 384.773 1.47958 0.679136 0
M  V30 4026 O 385.962 1.70773 0.519514 0
M  V30 4027 C 383.062 3.26953 0.89192 0
M  V30 4028 C 382.235 4.37045 0.176303 0
M  V30 4029 C 381.294 5.15148 1.07281 0
M  V30 4030 O 380.32 5.66616 0.541728 0
M  V30 4031 N 381.522 5.28542 2.40049 0
M  V30 4032 H 384.287 2.86694 -0.873303 0
M  V30 4033 H 381.848 1.50007 -0.609054 0
M  V30 4034 H 383.84 3.76083 1.49479 0
M  V30 4035 H 382.41 2.70136 1.57306 0
M  V30 4036 H 381.63 3.89493 -0.607328 0
M  V30 4037 H 382.918 5.07801 -0.318718 0
M  V30 4038 H 382.316 4.88285 2.85647 0
M  V30 4039 H 380.873 5.8103 2.95376 0
M  V30 4040 N 384.306 0.507319 1.49211 0
M  V30 4041 C 385.256 -0.287112 2.26185 0
M  V30 4042 C 386.24 -0.929983 1.31302 0
M  V30 4043 O 387.432 -0.836538 1.55984 0
M  V30 4044 C 384.561 -1.34718 3.15763 0
M  V30 4045 C 383.647 -0.710235 4.18111 0
M  V30 4046 N 384.038 0.190836 5.0544 0
M  V30 4047 C 382.336 -0.97009 4.35322 0
M  V30 4048 C 383.037 0.55606 5.79036 0
M  V30 4049 N 382.013 -0.0775232 5.43545 0
M  V30 4050 H 385.815 0.406445 2.91076 0
M  V30 4051 H 383.329 0.323814 1.59139 0
M  V30 4052 H 385.326 -1.92982 3.69545 0
M  V30 4053 H 383.986 -2.04235 2.52424 0
M  V30 4054 H 384.997 0.562047 5.14841 0
M  V30 4055 H 381.674 -1.65753 3.83187 0
M  V30 4056 H 383.064 1.2936 6.5933 0
M  V30 4057 N 385.784 -1.5574 0.241426 0
M  V30 4058 C 387.2 -1.59196 -0.113548 0
M  V30 4059 C 387.4 -1.25852 -1.57364 0
M  V30 4060 O 386.456 -1.00322 -2.31715 0
M  V30 4061 C 387.769 -2.99814 0.230695 0
M  V30 4062 C 389.317 -3.12513 0.174547 0
M  V30 4063 C 389.792 -4.55342 0.492744 0
M  V30 4064 N 391.283 -4.61076 0.443043 0
M  V30 4065 C 392.018 -5.6956 0.662484 0
M  V30 4066 N 391.514 -6.86328 0.944761 0
M  V30 4067 N 393.307 -5.58957 0.593564 0
M  V30 4068 H 385.458 -1.75685 1.19368 0
M  V30 4069 H 387.721 -0.81756 0.479896 0
M  V30 4070 H 387.427 -3.28932 1.24485 0
M  V30 4071 H 387.301 -3.74568 -0.444833 0
M  V30 4072 H 389.688 -2.83179 -0.830277 0
M  V30 4073 H 389.769 -2.40045 0.883845 0
M  V30 4074 H 389.413 -4.85396 1.4951 0
M  V30 4075 H 389.343 -5.26062 -0.23797 0
M  V30 4076 H 391.834 -3.77179 0.233374 0
M  V30 4077 H 392.147 -7.64935 1.09977 0
M  V30 4078 H 390.492 -6.88025 0.982175 0
M  V30 4079 H 393.683 -4.66611 0.373123 0
M  V30 4080 H 393.856 -6.43433 0.767981 0
M  V30 4081 N 387.262 0.0317525 -1.57568 0
M  V30 4082 C 388.172 1.05021 -2.0978 0
M  V30 4083 C 389.188 1.39809 -1.03583 0
M  V30 4084 O 390.364 1.49182 -1.35302 0
M  V30 4085 C 387.429 2.33301 -2.56459 0
M  V30 4086 C 386.49 2.0512 -3.77127 0
M  V30 4087 C 385.723 3.27283 -4.2157 0
M  V30 4088 O 385.946 4.37861 -3.65559 0
M  V30 4089 O 384.88 3.13141 -5.14029 0
M  V30 4090 H 388.706 0.636505 -2.96955 0
M  V30 4091 H 386.291 0.248559 -1.47318 0
M  V30 4092 H 388.173 3.08722 -2.86825 0
M  V30 4093 H 386.848 2.73973 -1.72397 0
M  V30 4094 H 385.755 1.27276 -3.51784 0
M  V30 4095 H 387.088 1.69305 -4.62165 0
M  V30 4096 N 388.74 1.54641 0.303973 0
M  V30 4097 C 389.703 1.84646 1.35789 0
M  V30 4098 C 390.703 0.7192 1.4382 0
M  V30 4099 O 391.893 0.987491 1.43507 0
M  V30 4100 C 389.025 2.02407 2.74307 0
M  V30 4101 H 390.218 2.78829 1.10429 0
M  V30 4102 H 387.771 1.46658 0.540487 0
M  V30 4103 H 388.506 1.10502 3.04893 0
M  V30 4104 H 388.291 2.84453 2.69868 0
M  V30 4105 H 389.781 2.27002 3.50514 0
M  V30 4106 N 390.218 -0.567019 1.47046 0
M  V30 4107 C 391.181 -1.65696 1.58359 0
M  V30 4108 C 392.181 -1.54097 0.459441 0
M  V30 4109 O 393.371 -1.58432 0.724225 0
M  V30 4110 C 390.503 -3.05197 1.51879 0
M  V30 4111 H 391.696 -1.57019 2.5551 0
M  V30 4112 H 389.249 -0.786148 1.3509 0
M  V30 4113 H 389.984 -3.19417 0.560673 0
M  V30 4114 H 389.769 -3.15025 2.33455 0
M  V30 4115 H 391.259 -3.84511 1.62913 0
M  V30 4116 N 391.696 -1.35014 -0.812953 0
M  V30 4117 C 392.659 -1.27292 -1.90602 0
M  V30 4118 C 393.659 -0.185817 -1.59723 0
M  V30 4119 O 394.849 -0.439102 -1.68575 0
M  V30 4120 C 391.981 -0.967676 -3.26877 0
M  V30 4121 H 393.174 -2.24479 -1.9887 0
M  V30 4122 H 390.727 -1.19446 -1.00808 0
M  V30 4123 H 391.462 0.0005954 -3.243 0
M  V30 4124 H 391.247 -1.75412 -3.50675 0
M  V30 4125 H 392.737 -0.939085 -4.06904 0
M  V30 4126 N 393.175 1.03435 -1.18907 0
M  V30 4127 C 394.405 1.8012 -1.01195 0
M  V30 4128 C 394.813 1.8395 0.442613 0
M  V30 4129 O 394.156 1.27836 1.31923 0
M  V30 4130 C 394.218 3.26792 -1.49823 0
M  V30 4131 C 393.882 3.46609 -2.97844 0
M  V30 4132 C 394.879 3.37278 -3.95651 0
M  V30 4133 C 392.564 3.73001 -3.36416 0
M  V30 4134 C 394.558 3.54054 -5.30023 0
M  V30 4135 C 392.245 3.89423 -4.70949 0
M  V30 4136 C 393.243 3.79951 -5.67562 0
M  V30 4137 O 392.931 3.95895 -6.99659 0
M  V30 4138 H 392.663 0.573865 -0.357289 0
M  V30 4139 H 395.217 1.31207 -1.58031 0
M  V30 4140 H 393.447 3.76703 -0.873578 0
M  V30 4141 H 395.136 3.85055 -1.28404 0
M  V30 4142 H 395.902 3.16846 -3.67197 0
M  V30 4143 H 391.781 3.79469 -2.61772 0
M  V30 4144 H 395.325 3.46577 -6.05417 0
M  V30 4145 H 391.222 4.09351 -4.99101 0
M  V30 4146 H 391.99 4.13019 -7.06653 0
M  V30 4147 N 394.653 0.992116 1.22453 0
M  V30 4148 C 395.583 0.561677 2.26644 0
M  V30 4149 C 396.564 -0.411055 1.65059 0
M  V30 4150 O 397.749 -0.301861 1.9184 0
M  V30 4151 C 394.879 -0.125247 3.47074 0
M  V30 4152 C 393.833 0.765948 4.21091 0
M  V30 4153 C 393.159 -0.0538484 5.34673 0
M  V30 4154 C 394.459 2.06242 4.79856 0
M  V30 4155 H 396.153 1.43259 2.62902 0
M  V30 4156 H 393.699 0.690283 1.26377 0
M  V30 4157 H 395.652 -0.437764 4.1912 0
M  V30 4158 H 394.376 -1.03069 3.0991 0
M  V30 4159 H 393.035 1.0621 3.50878 0
M  V30 4160 H 392.683 -0.960188 4.9375 0
M  V30 4161 H 392.383 0.539415 5.85119 0
M  V30 4162 H 393.907 -0.360477 6.09535 0
M  V30 4163 H 395.321 1.8139 5.43848 0
M  V30 4164 H 393.718 2.60444 5.40638 0
M  V30 4165 H 394.788 2.74167 3.99951 0
M  V30 4166 N 396.131 -1.37776 0.765217 0
M  V30 4167 C 397.081 -2.2768 0.12075 0
M  V30 4168 C 398.065 -1.45778 -0.680988 0
M  V30 4169 O 399.257 -1.684 -0.545033 0
M  V30 4170 C 396.386 -3.34722 -0.762626 0
M  V30 4171 C 395.472 -4.24074 0.0465881 0
M  V30 4172 N 395.863 -4.93939 1.08892 0
M  V30 4173 C 394.161 -4.45643 -0.178418 0
M  V30 4174 C 394.862 -5.59845 1.57951 0
M  V30 4175 N 393.838 -5.36218 0.892797 0
M  V30 4176 H 397.64 -2.79166 0.918889 0
M  V30 4177 H 395.154 -1.50816 0.602353 0
M  V30 4178 H 397.151 -3.98031 -1.24005 0
M  V30 4179 H 395.811 -2.84793 -1.55959 0
M  V30 4180 H 396.822 -4.96572 1.47095 0
M  V30 4181 H 393.499 -4.06599 -0.9478 0
M  V30 4182 H 394.889 -6.25703 2.44838 0
M  V30 4183 N 397.609 -0.515225 -1.4894 0
M  V30 4184 C 398.857 0.0241671 -2.02086 0
M  V30 4185 C 399.178 1.3616 -1.3959 0
M  V30 4186 O 398.448 1.87841 -0.556121 0
M  V30 4187 H 397.028 0.0119203 -0.746905 0
M  V30 4188 H 399.69 -0.675702 -1.82812 0
M  V30 4189 H 398.786 0.143385 -3.1177 0
M  V30 4190 N 399.087 1.5561 -0.249682 0
M  V30 4191 C 400.503 1.59254 0.105103 0
M  V30 4192 C 400.703 1.26685 1.56694 0
M  V30 4193 O 399.759 1.0155 2.31179 0
M  V30 4194 C 401.072 2.99687 -0.246592 0
M  V30 4195 C 402.62 3.12416 -0.191118 0
M  V30 4196 C 403.095 4.55074 -0.516885 0
M  V30 4197 N 404.586 4.60835 -0.467489 0
M  V30 4198 C 405.321 5.69201 -0.69268 0
M  V30 4199 N 404.817 6.85817 -0.981146 0
M  V30 4200 N 406.61 5.58635 -0.623198 0
M  V30 4201 H 398.761 1.75049 -1.20298 0
M  V30 4202 H 401.024 0.815003 -0.484225 0
M  V30 4203 H 400.73 3.28267 -1.26228 0
M  V30 4204 H 400.604 3.74798 0.424962 0
M  V30 4205 H 402.991 2.83615 0.815247 0
M  V30 4206 H 403.072 2.39573 -0.896563 0
M  V30 4207 H 402.716 4.84596 -1.52082 0
M  V30 4208 H 402.646 5.26181 0.210068 0
M  V30 4209 H 405.137 3.7705 -0.253373 0
M  V30 4210 H 405.45 7.64341 -1.14032 0
M  V30 4211 H 403.795 6.87494 -1.01865 0
M  V30 4212 H 406.986 4.66406 -0.397863 0
M  V30 4213 H 407.159 6.43017 -0.802093 0
M  V30 4214 N 400.565 -0.0233959 1.57583 0
M  V30 4215 C 401.495 -1.02162 2.09965 0
M  V30 4216 C 402.476 -1.3735 1.00344 0
M  V30 4217 O 403.661 -1.46135 1.27899 0
M  V30 4218 C 400.791 -2.32081 2.58371 0
M  V30 4219 C 399.745 -2.1112 3.72307 0
M  V30 4220 C 399.071 -3.46848 4.06941 0
M  V30 4221 C 400.371 -1.49276 5.00514 0
M  V30 4222 H 402.065 -0.585557 2.93618 0
M  V30 4223 H 399.611 -0.280218 1.41247 0
M  V30 4224 H 401.564 -3.02249 2.93639 0
M  V30 4225 H 400.288 -2.77758 1.71808 0
M  V30 4226 H 398.947 -1.43384 3.37397 0
M  V30 4227 H 398.595 -3.90184 3.17436 0
M  V30 4228 H 398.295 -3.33646 4.83688 0
M  V30 4229 H 399.819 -4.18369 4.44747 0
M  V30 4230 H 401.233 -2.09368 5.33702 0
M  V30 4231 H 399.63 -1.46632 5.8191 0
M  V30 4232 H 400.7 -0.459217 4.82721 0
M  V30 4233 N 402.043 -1.548 -0.295768 0
M  V30 4234 C 402.975 -1.82492 -1.3867 0
M  V30 4235 C 403.988 -0.708134 -1.46592 0
M  V30 4236 O 405.177 -0.985686 -1.48817 0
M  V30 4237 C 402.277 -1.95256 -2.76999 0
M  V30 4238 C 401.45 -3.25709 -2.91946 0
M  V30 4239 C 400.509 -3.28824 -4.10806 0
M  V30 4240 O 399.535 -4.02328 -4.02643 0
M  V30 4241 N 400.737 -2.5459 -5.21694 0
M  V30 4242 H 403.502 -2.76646 -1.15269 0
M  V30 4243 H 401.063 -1.54438 -0.485849 0
M  V30 4244 H 403.055 -1.94736 -3.54768 0
M  V30 4245 H 401.625 -1.08072 -2.93324 0
M  V30 4246 H 400.845 -3.38959 -2.01247 0
M  V30 4247 H 402.133 -4.11786 -2.98847 0
M  V30 4248 H 401.531 -1.94512 -5.31208 0
M  V30 4249 H 400.088 -2.59818 -5.97778 0
M  V30 4250 N 403.521 0.559213 -1.47345 0
M  V30 4251 C 404.484 1.64854 -1.59235 0
M  V30 4252 C 405.484 1.53851 -0.467607 0
M  V30 4253 O 406.674 1.58045 -0.732617 0
M  V30 4254 C 403.806 3.04388 -1.53496 0
M  V30 4255 H 404.999 1.55662 -2.56339 0
M  V30 4256 H 402.552 0.778973 -1.35505 0
M  V30 4257 H 403.287 3.19115 -0.577604 0
M  V30 4258 H 403.072 3.13783 -2.35123 0
M  V30 4259 H 404.562 3.83642 -1.6495 0
M  V30 4260 N 404.999 1.35443 0.805782 0
M  V30 4261 C 405.929 1.31095 1.93226 0
M  V30 4262 C 406.91 0.185244 1.69088 0
M  V30 4263 O 408.095 0.380332 1.90439 0
M  V30 4264 C 405.225 1.08299 3.29983 0
M  V30 4265 C 404.179 2.17519 3.68605 0
M  V30 4266 C 403.505 1.79887 5.03532 0
M  V30 4267 C 404.805 3.5949 3.78898 0
M  V30 4268 H 406.499 2.25352 1.97122 0
M  V30 4269 H 404.045 1.0848 0.946996 0
M  V30 4270 H 405.998 1.03897 4.08391 0
M  V30 4271 H 404.722 0.104885 3.26432 0
M  V30 4272 H 403.381 2.2102 2.92482 0
M  V30 4273 H 403.029 0.80693 4.96485 0
M  V30 4274 H 402.729 2.53001 5.30344 0
M  V30 4275 H 404.253 1.77011 5.84379 0
M  V30 4276 H 405.667 3.58307 4.47536 0
M  V30 4277 H 404.064 4.31371 4.1718 0
M  V30 4278 H 405.134 3.95584 2.80431 0
M  V30 4279 N 406.477 -1.02803 1.19454 0
M  V30 4280 C 407.725 -1.75869 0.995722 0
M  V30 4281 C 408.046 -1.89138 -0.474543 0
M  V30 4282 O 407.316 -1.42558 -1.34366 0
M  V30 4283 H 405.896 -0.651511 0.365435 0
M  V30 4284 H 408.558 -1.24004 1.50363 0
M  V30 4285 H 407.654 -2.76661 1.44447 0
M  V30 4286 N 407.956 -0.998596 -1.21925 0
M  V30 4287 C 408.886 -0.573688 -2.26343 0
M  V30 4288 C 409.867 0.402296 -1.65274 0
M  V30 4289 O 411.052 0.291683 -1.91997 0
M  V30 4290 C 408.182 0.106839 -3.47136 0
M  V30 4291 C 407.136 -0.788269 -4.20678 0
M  V30 4292 C 406.462 0.0254927 -5.34694 0
M  V30 4293 C 407.762 -2.08784 -4.78755 0
M  V30 4294 H 409.456 -1.44651 -2.62138 0
M  V30 4295 H 407.002 -0.696975 -1.26009 0
M  V30 4296 H 408.955 0.415531 -4.19346 0
M  V30 4297 H 407.679 1.01424 -3.10452 0
M  V30 4298 H 406.338 -1.08069 -3.50309 0
M  V30 4299 H 405.986 0.933989 -4.94253 0
M  V30 4300 H 405.686 -0.570437 -5.84825 0
M  V30 4301 H 407.21 0.328147 -6.09718 0
M  V30 4302 H 408.624 -1.84272 -5.42878 0
M  V30 4303 H 407.021 -2.63307 -5.39249 0
M  V30 4304 H 408.091 -2.76284 -3.98491 0
M  V30 4305 N 409.434 1.37368 -0.772513 0
M  V30 4306 C 410.366 2.28899 -0.117502 0
M  V30 4307 C 411.379 1.4867 0.663405 0
M  V30 4308 O 412.568 1.71314 0.501372 0
M  V30 4309 C 409.668 3.2788 0.857192 0
M  V30 4310 C 408.841 4.37207 0.129938 0
M  V30 4311 C 407.9 5.16257 1.01811 0
M  V30 4312 O 406.926 5.67159 0.481601 0
M  V30 4313 N 408.128 5.31058 2.3443 0
M  V30 4314 H 410.893 2.85752 -0.903662 0
M  V30 4315 H 408.454 1.49353 -0.62493 0
M  V30 4316 H 410.446 3.77647 1.45482 0
M  V30 4317 H 409.016 2.7179 1.54432 0
M  V30 4318 H 408.236 3.88827 -0.648605 0
M  V30 4319 H 409.524 5.07434 -0.372559 0
M  V30 4320 H 408.922 4.91287 2.80452 0
M  V30 4321 H 407.479 5.84131 2.89197 0
M  V30 4322 N 410.912 0.523116 1.48665 0
M  V30 4323 C 411.842 -0.23231 2.32342 0
M  V30 4324 C 412.823 -0.941637 1.41659 0
M  V30 4325 O 414.008 -0.928751 1.70552 0
M  V30 4326 C 411.138 -1.28387 3.22698 0
M  V30 4327 C 410.092 -0.693098 4.22351 0
M  V30 4328 C 409.418 -1.8468 5.01794 0
M  V30 4329 C 410.718 0.33063 5.21252 0
M  V30 4330 H 412.412 0.466192 2.95748 0
M  V30 4331 H 409.958 0.225643 1.42221 0
M  V30 4332 H 411.911 -1.82024 3.80059 0
M  V30 4333 H 410.635 -2.01186 2.57278 0
M  V30 4334 H 409.294 -0.178299 3.66166 0
M  V30 4335 H 408.942 -2.56301 4.32804 0
M  V30 4336 H 408.642 -1.45747 5.69238 0
M  V30 4337 H 410.166 -2.38709 5.62006 0
M  V30 4338 H 411.58 -0.118407 5.73178 0
M  V30 4339 H 409.977 0.636974 5.9671 0
M  V30 4340 H 411.047 1.23883 4.68808 0
M  V30 4341 N 412.39 -1.55475 0.257931 0
M  V30 4342 C 413.637 -1.99207 -0.363728 0
M  V30 4343 C 413.965 -1.1462 -1.57139 0
M  V30 4344 O 413.22 -0.199653 -1.94679 0
M  V30 4345 C 413.519 -3.48183 -0.806433 0
M  V30 4346 C 413.185 -4.49936 0.294684 0
M  V30 4347 C 411.847 -4.77481 0.597076 0
M  V30 4348 C 414.199 -5.10769 1.03751 0
M  V30 4349 C 411.527 -5.63132 1.64618 0
M  V30 4350 C 413.879 -5.97558 2.07622 0
M  V30 4351 C 412.543 -6.23432 2.38514 0
M  V30 4352 H 411.813 -0.728949 -0.133097 0
M  V30 4353 H 414.46 -1.8793 0.368059 0
M  V30 4354 H 412.765 -3.56848 -1.61761 0
M  V30 4355 H 414.462 -3.79415 -1.29789 0
M  V30 4356 H 411.052 -4.28572 0.0488649 0
M  V30 4357 H 415.236 -4.89527 0.817149 0
M  V30 4358 H 410.492 -5.8143 1.89074 0
M  V30 4359 H 414.666 -6.43735 2.65666 0
M  V30 4360 H 412.293 -6.89594 3.19943 0
M  V30 4361 N 413.868 0.0150385 -1.57593 0
M  V30 4362 C 415.114 0.704043 -1.90187 0
M  V30 4363 C 415.447 1.74249 -0.857366 0
M  V30 4364 O 414.722 1.94092 0.125843 0
M  V30 4365 C 415.005 1.36087 -3.33395 0
M  V30 4366 C 414.858 0.334981 -4.48551 0
M  V30 4367 C 416.177 2.29112 -3.7576 0
M  V30 4368 H 413.296 0.254475 -0.691673 0
M  V30 4369 H 415.938 -0.0331678 -1.89971 0
M  V30 4370 H 414.088 1.98922 -3.3371 0
M  V30 4371 H 415.76 -0.292534 -4.60372 0
M  V30 4372 H 414.003 -0.344325 -4.32431 0
M  V30 4373 H 414.674 0.833316 -5.45674 0
M  V30 4374 H 417.15 1.76308 -3.76902 0
M  V30 4375 H 416.026 2.72043 -4.76743 0
M  V30 4376 H 416.287 3.16385 -3.08793 0
M  V30 4377 N 415.346 1.54954 0.287554 0
M  V30 4378 C 416.293 1.86834 1.35505 0
M  V30 4379 C 417.263 0.718452 1.49758 0
M  V30 4380 O 418.448 0.968358 1.644 0
M  V30 4381 C 415.588 2.13303 2.71286 0
M  V30 4382 C 414.701 3.40883 2.65373 0
M  V30 4383 C 413.836 3.57125 3.93236 0
M  V30 4384 C 412.875 4.78449 3.81776 0
M  V30 4385 N 412.012 4.91426 5.01443 0
M  V30 4386 H 416.852 2.77889 1.07619 0
M  V30 4387 H 414.389 1.37593 0.520241 0
M  V30 4388 H 416.347 2.26646 3.50267 0
M  V30 4389 H 414.977 1.25499 2.97405 0
M  V30 4390 H 414.029 3.36088 1.78182 0
M  V30 4391 H 415.341 4.29993 2.52799 0
M  V30 4392 H 414.495 3.70207 4.80658 0
M  V30 4393 H 413.234 2.66173 4.0866 0
M  V30 4394 H 412.239 4.65386 2.92738 0
M  V30 4395 H 413.464 5.70822 3.67884 0
M  V30 4396 H 411.41 4.03401 5.17304 0
M  V30 4397 H 411.327 5.74559 4.91343 0
M  V30 4398 H 412.595 5.08879 5.90477 0
M  V30 4399 N 416.824 -0.551391 1.4764 0
M  V30 4400 C 418.101 -1.31229 1.45046 0
M  V30 4401 C 418.481 -2.10563 0.150527 0
M  V30 4402 O 417.829 -2.11374 -0.867956 0
M  V30 4403 C 418.039 -2.21189 2.69956 0
M  V30 4404 C 419.387 -2.82021 3.1741 0
M  V30 4405 O 420.411 -2.31488 2.70724 0
M  V30 4406 O 419.27 -3.73885 3.98588 0
M  V30 4407 H 416.364 -0.591193 0.578291 0
M  V30 4408 H 418.91 -0.569813 1.59847 0
M  V30 4409 H 417.682 -1.62207 3.56096 0
M  V30 4410 H 417.305 -3.02722 2.57769 0
M  V30 4411 N 418.302 -1.35869 -0.798587 0
M  V30 4412 C 419.713 -1.26498 -1.37314 0
M  V30 4413 C 420.064 0.0991899 -1.95949 0
M  V30 4414 O 419.189 1.0004 -1.91888 0
M  V30 4415 C 419.784 -2.29054 -2.49639 0
M  V30 4416 C 418.343 -2.234 -3.02935 0
M  V30 4417 C 417.49 -2.14329 -1.75949 0
M  V30 4418 H 420.441 -1.46881 -0.600971 0
M  V30 4419 H 420.462 -1.92166 -3.28409 0
M  V30 4420 H 419.974 -3.2833 -2.06933 0
M  V30 4421 H 418.075 -1.27562 -3.50084 0
M  V30 4422 H 418.188 -3.15703 -3.60372 0
M  V30 4423 H 416.552 -1.60435 -1.9782 0
M  V30 4424 H 417.335 -3.15477 -1.35384 0
M  V30 4425 N 419.78 1.02168 -1.19998 0
M  V30 4426 C 420.743 2.08765 -0.94604 0
M  V30 4427 C 421.743 1.60618 0.0763846 0
M  V30 4428 O 422.933 1.73472 -0.159135 0
M  V30 4429 C 420.065 3.38262 -0.423255 0
M  V30 4430 H 421.258 2.32726 -1.89153 0
M  V30 4431 H 418.811 1.1889 -1.01464 0
M  V30 4432 H 419.546 3.19974 0.527938 0
M  V30 4433 H 419.331 3.74532 -1.16053 0
M  V30 4434 H 420.821 4.16759 -0.264911 0
M  V30 4435 N 421.258 1.00505 1.21394 0
M  V30 4436 C 422.188 0.585684 2.26035 0
M  V30 4437 C 423.169 -0.393525 1.65485 0
M  V30 4438 O 424.354 -0.281497 1.92149 0
M  V30 4439 C 421.484 -0.0884283 3.47187 0
M  V30 4440 C 420.438 0.810567 4.20254 0
M  V30 4441 C 419.764 0.00286382 5.347 0
M  V30 4442 C 421.064 2.1132 4.77641 0
M  V30 4443 H 422.758 1.46039 2.61368 0
M  V30 4444 H 420.304 0.703648 1.25638 0
M  V30 4445 H 422.257 -0.393286 4.19561 0
M  V30 4446 H 420.981 -0.997766 3.10986 0
M  V30 4447 H 419.64 1.09925 3.49731 0
M  V30 4448 H 419.288 -0.907765 4.94741 0
M  V30 4449 H 418.988 0.601444 5.84514 0
M  V30 4450 H 420.512 -0.295808 6.09883 0
M  V30 4451 H 421.926 1.87148 5.41893 0
M  V30 4452 H 420.323 2.66164 5.37845 0
M  V30 4453 H 421.393 2.78393 3.9702 0
M  V30 4454 N 422.737 -1.36956 0.779787 0
M  V30 4455 C 424.153 -1.52817 0.460342 0
M  V30 4456 C 424.353 -1.7361 -1.02283 0
M  V30 4457 O 423.409 -1.76207 -1.80852 0
M  V30 4458 C 424.722 -2.71983 1.28241 0
M  V30 4459 C 426.27 -2.85849 1.27512 0
M  V30 4460 C 426.745 -4.08008 2.08072 0
M  V30 4461 N 428.236 -4.15135 2.05467 0
M  V30 4462 C 428.971 -5.08711 2.64577 0
M  V30 4463 N 428.467 -6.07792 3.32506 0
M  V30 4464 N 430.26 -5.01254 2.54363 0
M  V30 4465 H 422.411 -1.21713 1.74068 0
M  V30 4466 H 424.674 -0.593294 0.739396 0
M  V30 4467 H 424.38 -2.63109 2.33381 0
M  V30 4468 H 424.254 -3.65882 0.917088 0
M  V30 4469 H 426.641 -2.94189 0.231686 0
M  V30 4470 H 426.722 -1.92886 1.68014 0
M  V30 4471 H 426.366 -4.00429 3.12441 0
M  V30 4472 H 426.296 -5.001 1.64947 0
M  V30 4473 H 428.787 -3.44189 1.5602 0
M  V30 4474 H 429.1 -6.75739 3.74963 0
M  V30 4475 H 427.445 -6.08047 3.36606 0
M  V30 4476 H 430.636 -4.22795 2.00902 0
M  V30 4477 H 430.809 -5.73995 3.00722 0
M  V30 4478 N 424.215 -0.530993 -1.48385 0
M  V30 4479 C 425.145 0.219985 -2.32461 0
M  V30 4480 C 426.126 0.934111 -1.42156 0
M  V30 4481 O 427.311 0.919694 -1.71042 0
M  V30 4482 C 424.441 1.26674 -3.23375 0
M  V30 4483 C 423.395 0.67069 -4.22712 0
M  V30 4484 C 422.721 1.82017 -5.02766 0
M  V30 4485 C 424.021 -0.358268 -5.2107 0
M  V30 4486 H 425.715 -0.48187 -2.95497 0
M  V30 4487 H 423.261 -0.233182 -1.42099 0
M  V30 4488 H 425.214 1.80006 -3.81019 0
M  V30 4489 H 423.938 1.99818 -2.58341 0
M  V30 4490 H 422.597 0.158878 -3.66256 0
M  V30 4491 H 422.245 2.54002 -4.34157 0
M  V30 4492 H 421.945 1.42727 -5.70003 0
M  V30 4493 H 423.469 2.35725 -5.63264 0
M  V30 4494 H 424.883 0.0880081 -5.73232 0
M  V30 4495 H 423.28 -0.66861 -5.96364 0
M  V30 4496 H 424.35 -1.26367 -4.68145 0
M  V30 4497 N 425.693 1.55336 -0.266172 0
M  V30 4498 C 427.104 1.85236 0.233315 0
M  V30 4499 C 427.455 1.18816 1.56132 0
M  V30 4500 O 426.58 0.473307 2.11161 0
M  V30 4501 C 427.175 3.36059 0.430113 0
M  V30 4502 C 425.734 3.66116 0.873842 0
M  V30 4503 C 424.881 2.77274 -0.0380016 0
M  V30 4504 H 427.832 1.51004 -0.488214 0
M  V30 4505 H 427.853 3.58681 1.26998 0
M  V30 4506 H 427.365 3.84373 -0.536588 0
M  V30 4507 H 425.466 3.23295 1.85233 0
M  V30 4508 H 425.579 4.73699 0.717358 0
M  V30 4509 H 423.943 2.50198 0.476759 0
M  V30 4510 H 424.726 3.284 -1.00042 0
M  V30 4511 N 427.171 -0.0066808 1.57599 0
M  V30 4512 C 428.399 -0.704087 1.94551 0
M  V30 4513 C 428.814 -1.67677 0.867746 0
M  V30 4514 O 428.171 -1.8185 -0.153925 0
M  V30 4515 C 428.222 -1.44177 3.31505 0
M  V30 4516 O 427.943 -0.508097 4.35144 0
M  V30 4517 C 429.444 -2.23429 3.82876 0
M  V30 4518 H 426.664 -0.196523 0.641576 0
M  V30 4519 H 429.208 0.042453 2.04456 0
M  V30 4520 H 427.363 -2.13999 3.22929 0
M  V30 4521 H 427.777 -1.02782 5.14331 0
M  V30 4522 H 429.251 -2.70552 4.8115 0
M  V30 4523 H 429.728 -3.05818 3.15233 0
M  V30 4524 H 430.334 -1.58636 3.94607 0
M  V30 4525 N 428.649 -1.55105 -0.279332 0
M  V30 4526 C 429.895 -1.75672 -1.01327 0
M  V30 4527 C 430.228 -0.552739 -1.86168 0
M  V30 4528 O 429.503 0.449827 -1.89227 0
M  V30 4529 C 429.786 -3.05825 -1.90114 0
M  V30 4530 C 429.639 -4.36565 -1.08309 0
M  V30 4531 C 430.958 -3.31975 -2.8893 0
M  V30 4532 H 428.077 -0.639149 -0.366957 0
M  V30 4533 H 430.719 -1.87833 -0.286154 0
M  V30 4534 H 428.869 -2.95588 -2.52111 0
M  V30 4535 H 430.541 -4.58751 -0.484314 0
M  V30 4536 H 428.784 -4.32076 -0.386362 0
M  V30 4537 H 429.455 -5.23946 -1.73737 0
M  V30 4538 H 431.931 -3.41963 -2.37067 0
M  V30 4539 H 430.807 -4.2432 -3.48201 0
M  V30 4540 H 431.068 -2.51309 -3.63725 0
M  V30 4541 N 430.127 0.543554 -1.4793 0
M  V30 4542 C 431.355 1.32516 -1.58894 0
M  V30 4543 C 431.77 1.87215 -0.244131 0
M  V30 4544 O 431.127 1.65709 0.764652 0
M  V30 4545 C 431.178 2.48554 -2.62494 0
M  V30 4546 O 430.899 1.96112 -3.91755 0
M  V30 4547 C 432.4 3.40572 -2.8377 0
M  V30 4548 H 429.62 0.403472 -0.536145 0
M  V30 4549 H 432.164 0.657106 -1.93655 0
M  V30 4550 H 430.319 3.1127 -2.30629 0
M  V30 4551 H 430.733 2.71967 -4.4848 0
M  V30 4552 H 432.207 4.18375 -3.60093 0
M  V30 4553 H 432.684 3.94965 -1.92092 0
M  V30 4554 H 433.29 2.8366 -3.16887 0
M  V30 4555 N 431.605 1.3629 0.791371 0
M  V30 4556 C 432.833 1.33562 1.58016 0
M  V30 4557 C 433.248 -0.0835616 1.88615 0
M  V30 4558 O 432.605 -1.0399 1.49974 0
M  V30 4559 C 432.656 2.15517 2.90232 0
M  V30 4560 O 432.377 3.51902 2.60953 0
M  V30 4561 C 433.878 2.20546 3.84544 0
M  V30 4562 H 431.098 0.458226 0.490173 0
M  V30 4563 H 433.642 1.79361 0.982345 0
M  V30 4564 H 431.797 1.73278 3.46487 0
M  V30 4565 H 432.211 3.94644 3.4548 0
M  V30 4566 H 433.685 2.82252 4.74382 0
M  V30 4567 H 434.162 1.20838 4.2225 0
M  V30 4568 H 434.768 2.63013 3.34222 0
M  V30 4569 N 433.083 -1.0153 1.20538 0
M  V30 4570 C 434.329 -1.75408 1.01783 0
M  V30 4571 C 434.662 -1.88943 -0.448814 0
M  V30 4572 O 433.937 -1.4162 -1.33319 0
M  V30 4573 C 434.22 -3.17255 1.70356 0
M  V30 4574 C 434.073 -3.11508 3.24473 0
M  V30 4575 C 435.392 -4.15955 1.43769 0
M  V30 4576 H 432.511 -0.636713 0.371167 0
M  V30 4577 H 435.153 -1.18436 1.4857 0
M  V30 4578 H 433.303 -3.65898 1.30578 0
M  V30 4579 H 434.975 -2.70658 3.73553 0
M  V30 4580 H 433.218 -2.4887 3.55311 0
M  V30 4581 H 433.889 -4.11784 3.67611 0
M  V30 4582 H 436.365 -3.75973 1.7828 0
M  V30 4583 H 435.241 -5.13368 1.94279 0
M  V30 4584 H 435.502 -4.40586 0.365564 0
M  V30 4585 N 434.561 -1.01147 -1.20859 0
M  V30 4586 C 435.524 -0.582224 -2.21682 0
M  V30 4587 C 436.524 0.344887 -1.57058 0
M  V30 4588 O 437.714 0.134281 -1.73682 0
M  V30 4589 C 434.846 0.150496 -3.40568 0
M  V30 4590 H 436.039 -1.47408 -2.61172 0
M  V30 4591 H 433.592 -0.800695 -1.34233 0
M  V30 4592 H 434.327 1.0575 -3.06574 0
M  V30 4593 H 434.112 -0.515444 -3.88697 0
M  V30 4594 H 435.602 0.438344 -4.15293 0
M  V30 4595 N 436.039 1.36541 -0.78704 0
M  V30 4596 C 437.285 1.99599 -0.358872 0
M  V30 4597 C 437.618 1.62323 1.06606 0
M  V30 4598 O 436.893 0.876858 1.73613 0
M  V30 4599 C 437.176 3.56327 -0.519944 0
M  V30 4600 C 437.029 4.03464 -1.98839 0
M  V30 4601 C 438.348 4.4005 0.0664737 0
M  V30 4602 H 435.467 0.725107 -0.131869 0
M  V30 4603 H 438.109 1.6199 -0.992936 0
M  V30 4604 H 436.259 3.88495 0.0198321 0
M  V30 4605 H 437.931 3.81793 -2.58905 0
M  V30 4606 H 436.174 3.55092 -2.49183 0
M  V30 4607 H 436.845 5.12439 -2.05207 0
M  V30 4608 H 439.321 4.14228 -0.394267 0
M  V30 4609 H 438.197 5.48847 -0.0762682 0
M  V30 4610 H 438.458 4.26655 1.15835 0
M  V30 4611 N 437.518 0.538854 1.48102 0
M  V30 4612 C 438.929 0.100679 1.86428 0
M  V30 4613 C 439.28 -1.32447 1.44749 0
M  V30 4614 O 438.405 -1.99339 0.842199 0
M  V30 4615 C 439 0.175933 3.38343 0
M  V30 4616 C 437.559 -0.207098 3.7583 0
M  V30 4617 C 436.706 0.531741 2.72154 0
M  V30 4618 H 439.657 0.749614 1.3988 0
M  V30 4619 H 439.678 -0.610144 3.75576 0
M  V30 4620 H 439.19 1.21328 3.68648 0
M  V30 4621 H 437.291 -1.24626 3.5114 0
M  V30 4622 H 437.404 0.138687 4.78899 0
M  V30 4623 H 435.768 -0.0230462 2.5469 0
M  V30 4624 H 436.551 1.56989 3.05302 0
M  V30 4625 N 438.996 -1.55193 0.274407 0
M  V30 4626 C 439.959 -2.212 -0.600279 0
M  V30 4627 C 440.959 -1.18963 -1.08187 0
M  V30 4628 O 442.149 -1.43873 -0.982158 0
M  V30 4629 C 439.281 -2.87739 -1.82809 0
M  V30 4630 H 440.474 -2.9989 -0.0239682 0
M  V30 4631 H 438.027 -1.5628 0.0250192 0
M  V30 4632 H 438.762 -2.13058 -2.44493 0
M  V30 4633 H 438.547 -3.62658 -1.49069 0
M  V30 4634 H 440.037 -3.38171 -2.45011 0
M  V30 4635 N 440.474 -0.00167713 -1.576 0
M  V30 4636 C 441.722 0.681471 -1.90264 0
M  V30 4637 C 442.043 1.7422 -0.875924 0
M  V30 4638 O 441.313 1.95709 0.0864412 0
M  V30 4639 H 439.893 0.254696 -0.702239 0
M  V30 4640 H 442.555 -0.0429996 -1.94853 0
M  V30 4641 H 441.651 1.15166 -2.90075 0
M  V30 4642 N 441.952 1.55251 0.271103 0
M  V30 4643 C 443.182 1.79713 1.01916 0
M  V30 4644 C 443.59 0.571613 1.80359 0
M  V30 4645 O 442.933 -0.468853 1.77616 0
M  V30 4646 C 442.995 2.97138 2.02359 0
M  V30 4647 C 442.659 4.34104 1.42837 0
M  V30 4648 C 443.656 5.13019 0.843071 0
M  V30 4649 C 441.341 4.80765 1.455 0
M  V30 4650 C 443.335 6.36729 0.292333 0
M  V30 4651 C 441.022 6.0443 0.900402 0
M  V30 4652 C 442.02 6.8225 0.32007 0
M  V30 4653 O 441.708 8.03582 -0.226031 0
M  V30 4654 H 441.44 0.602431 0.306681 0
M  V30 4655 H 443.994 2.03097 0.306701 0
M  V30 4656 H 442.224 2.6945 2.77369 0
M  V30 4657 H 443.913 3.08907 2.63309 0
M  V30 4658 H 444.679 4.781 0.815178 0
M  V30 4659 H 440.558 4.20202 1.89609 0
M  V30 4660 H 444.102 6.97414 -0.161274 0
M  V30 4661 H 439.999 6.3883 0.925541 0
M  V30 4662 H 440.767 8.18418 -0.115572 0
M  V30 4663 N 443.43 -0.535701 1.48216 0
M  V30 4664 C 444.707 -1.29683 1.46429 0
M  V30 4665 C 445.087 -2.10391 0.172852 0
M  V30 4666 O 444.435 -2.12282 -0.845488 0
M  V30 4667 C 444.645 -2.18313 2.72287 0
M  V30 4668 C 445.993 -2.78639 3.20383 0
M  V30 4669 O 447.017 -2.28604 2.73164 0
M  V30 4670 O 445.876 -3.69636 4.02531 0
M  V30 4671 H 442.97 -0.585026 0.584529 0
M  V30 4672 H 445.516 -0.552827 1.60443 0
M  V30 4673 H 444.288 -1.58421 3.57797 0
M  V30 4674 H 443.911 -2.99971 2.60966 0
M  V30 4675 N 444.908 -1.36708 -0.784132 0
M  V30 4676 C 446.154 -1.32433 -1.54379 0
M  V30 4677 C 446.509 0.0941816 -1.92169 0
M  V30 4678 O 445.802 1.04997 -1.60269 0
M  V30 4679 C 445.996 -2.18571 -2.82774 0
M  V30 4680 C 445.825 -3.68656 -2.57533 0
M  V30 4681 C 444.595 -4.37813 -2.52286 0
M  V30 4682 C 446.793 -4.61802 -2.2637 0
M  V30 4683 N 444.775 -5.7351 -2.18997 0
M  V30 4684 C 446.146 -5.85785 -2.03115 0
M  V30 4685 C 448.201 -4.50313 -2.12421 0
M  V30 4686 C 446.904 -6.99569 -1.67321 0
M  V30 4687 C 448.93 -5.63969 -1.78026 0
M  V30 4688 C 448.292 -6.86994 -1.55622 0
M  V30 4689 H 444.391 -0.539886 -0.565727 0
M  V30 4690 H 446.975 -1.71812 -0.915908 0
M  V30 4691 H 445.146 -1.81429 -3.43421 0
M  V30 4692 H 446.878 -2.05646 -3.48557 0
M  V30 4693 H 443.633 -3.90674 -2.67714 0
M  V30 4694 H 444.057 -6.45189 -2.05084 0
M  V30 4695 H 448.699 -3.55781 -2.28429 0
M  V30 4696 H 446.417 -7.94047 -1.5005 0
M  V30 4697 H 450.003 -5.57044 -1.67909 0
M  V30 4698 H 448.883 -7.7345 -1.294 0
M  V30 4699 N 446.386 1.0089 -1.21074 0
M  V30 4700 C 447.802 1.2695 -0.967257 0
M  V30 4701 C 448.002 1.9846 0.348673 0
M  V30 4702 O 447.058 2.28459 1.0753 0
M  V30 4703 C 448.371 2.09697 -2.15517 0
M  V30 4704 C 449.919 2.22937 -2.197 0
M  V30 4705 C 450.394 3.09064 -3.37999 0
M  V30 4706 N 451.885 3.16653 -3.38061 0
M  V30 4707 C 452.62 3.8354 -4.26245 0
M  V30 4708 N 452.116 4.52488 -5.2462 0
M  V30 4709 N 453.909 3.80141 -4.14064 0
M  V30 4710 H 446.06 0.529005 -2.05707 0
M  V30 4711 H 448.323 0.296148 -0.900556 0
M  V30 4712 H 448.029 1.64497 -3.10859 0
M  V30 4713 H 447.903 3.10444 -2.14253 0
M  V30 4714 H 450.29 2.67357 -1.24916 0
M  V30 4715 H 450.371 1.21673 -2.2501 0
M  V30 4716 H 450.015 2.65347 -4.33074 0
M  V30 4717 H 449.945 4.10433 -3.29928 0
M  V30 4718 H 452.436 2.67566 -2.66865 0
M  V30 4719 H 452.749 5.01219 -5.88217 0
M  V30 4720 H 451.094 4.51288 -5.28549 0
M  V30 4721 H 454.285 3.25427 -3.36474 0
M  V30 4722 H 454.458 4.31992 -4.82998 0
M  V30 4723 N 447.864 1.01787 1.20321 0
M  V30 4724 C 449.141 0.622978 1.85414 0
M  V30 4725 C 449.521 -0.898887 1.91006 0
M  V30 4726 O 448.869 -1.79112 1.41884 0
M  V30 4727 C 449.079 1.27226 3.24984 0
M  V30 4728 C 450.427 1.3885 4.01255 0
M  V30 4729 O 451.451 1.22857 3.34342 0
M  V30 4730 O 450.31 1.64705 5.2109 0
M  V30 4731 H 447.404 0.215116 0.798533 0
M  V30 4732 H 449.95 1.11533 1.27901 0
M  V30 4733 H 448.722 2.31209 3.15687 0
M  V30 4734 H 448.345 0.767069 3.90131 0
M  V30 4735 N 449.342 -1.36122 0.79427 0
M  V30 4736 C 450.591 -1.98361 0.365464 0
M  V30 4737 C 450.904 -1.6374 -1.06997 0
M  V30 4738 O 452.11 -2.19251 -1.60129 0
M  V30 4739 C 450.566 -3.54821 0.602496 0
M  V30 4740 C 450.174 -3.98362 2.04967 0
M  V30 4741 C 451.918 -4.2383 0.238437 0
M  V30 4742 C 449.825 -5.47619 2.2331 0
M  V30 4743 H 448.755 -0.742193 0.13291 0
M  V30 4744 H 451.406 -1.55354 0.976589 0
M  V30 4745 H 449.788 -3.95922 -0.078409 0
M  V30 4746 H 450.962 -3.68447 2.76737 0
M  V30 4747 H 449.277 -3.42206 2.37243 0
M  V30 4748 H 451.874 -5.33529 0.353705 0
M  V30 4749 H 452.217 -4.08264 -0.814006 0
M  V30 4750 H 452.75 -3.88108 0.872769 0
M  V30 4751 H 449.489 -5.68138 3.26955 0
M  V30 4752 H 449.009 -5.79145 1.5605 0
M  V30 4753 H 450.688 -6.13911 2.0426 0
M  V30 4754 N 450.82 -0.546701 -1.47814 0
M  V30 4755 C 452.066 -0.0187684 -2.02791 0
M  V30 4756 C 452.399 1.32338 -1.42128 0
M  V30 4757 O 451.674 1.85867 -0.573023 0
M  V30 4758 C 451.957 0.0854985 -3.59998 0
M  V30 4759 C 451.81 -1.283 -4.31114 0
M  V30 4760 C 453.129 0.80412 -4.32691 0
M  V30 4761 H 450.248 -0.0082946 -0.736953 0
M  V30 4762 H 452.89 -0.706962 -1.76358 0
M  V30 4763 H 451.04 0.671609 -3.82651 0
M  V30 4764 H 452.712 -1.91151 -4.19832 0
M  V30 4765 H 450.955 -1.86049 -3.91878 0
M  V30 4766 H 451.626 -1.16287 -5.39612 0
M  V30 4767 H 454.102 0.306576 -4.14969 0
M  V30 4768 H 452.978 0.846011 -5.42341 0
M  V30 4769 H 453.239 1.85802 -4.01161 0
M  V30 4770 N 452.299 1.55045 -0.282633 0
M  V30 4771 C 453.524 2.04628 0.337977 0
M  V30 4772 C 453.949 1.15937 1.48123 0
M  V30 4773 O 453.307 0.159532 1.80597 0
M  V30 4774 C 453.355 3.51854 0.78936 0
M  V30 4775 O 452.459 3.66236 1.89592 0
M  V30 4776 H 451.8 0.660434 0.0687261 0
M  V30 4777 H 454.33 2.00261 -0.419124 0
M  V30 4778 H 454.34 3.93361 1.08311 0
M  V30 4779 H 453.015 4.15873 -0.0470419 0
M  V30 4780 H 451.592 3.36633 1.60413 0
M  V30 4781 N 453.777 0.010035 1.57597 0
M  V30 4782 C 455.007 -0.682422 1.95004 0
M  V30 4783 C 455.415 -1.67278 0.884014 0
M  V30 4784 O 454.758 -1.83129 -0.144672 0
M  V30 4785 C 454.82 -1.46141 3.28456 0
M  V30 4786 C 454.484 -0.631523 4.52615 0
M  V30 4787 C 455.481 0.0850905 5.1983 0
M  V30 4788 C 453.166 -0.574539 4.99003 0
M  V30 4789 C 455.16 0.847566 6.3174 0
M  V30 4790 C 452.847 0.191655 6.10799 0
M  V30 4791 C 453.845 0.901432 6.77025 0
M  V30 4792 O 453.533 1.65511 7.86677 0
M  V30 4793 H 453.265 -0.194361 0.647456 0
M  V30 4794 H 455.819 0.060312 2.05311 0
M  V30 4795 H 454.049 -2.24885 3.14585 0
M  V30 4796 H 455.738 -2.04016 3.50902 0
M  V30 4797 H 456.504 0.0502812 4.84974 0
M  V30 4798 H 452.383 -1.11654 4.47274 0
M  V30 4799 H 455.927 1.4021 6.83364 0
M  V30 4800 H 451.824 0.228249 6.45096 0
M  V30 4801 H 452.592 1.57287 8.03245 0
M  V30 4802 N 455.255 -1.55392 -0.262866 0
M  V30 4803 C 456.501 -1.76737 -0.99458 0
M  V30 4804 C 456.834 -0.572453 -1.85571 0
M  V30 4805 O 456.109 0.429732 -1.89693 0
M  V30 4806 C 456.392 -3.07824 -1.8686 0
M  V30 4807 C 456.245 -4.3769 -1.03672 0
M  V30 4808 C 457.564 -3.35021 -2.85393 0
M  V30 4809 H 454.683 -0.643005 -0.360157 0
M  V30 4810 H 457.325 -1.88126 -0.266216 0
M  V30 4811 H 455.475 -2.98245 -2.48962 0
M  V30 4812 H 457.147 -4.59238 -0.43563 0
M  V30 4813 H 455.39 -4.32461 -0.340513 0
M  V30 4814 H 456.061 -5.25759 -1.6817 0
M  V30 4815 H 458.537 -3.44458 -2.33426 0
M  V30 4816 H 457.413 -4.27989 -3.43681 0
M  V30 4817 H 457.674 -2.55153 -3.61039 0
M  V30 4818 N 456.733 0.527833 -1.48498 0
M  V30 4819 C 457.982 1.28003 -1.55878 0
M  V30 4820 C 458.295 1.9414 -0.238577 0
M  V30 4821 O 459.501 2.7083 -0.190643 0
M  V30 4822 C 457.957 2.32272 -2.74914 0
M  V30 4823 C 457.565 1.72196 -4.13585 0
M  V30 4824 C 459.309 3.08488 -2.91608 0
M  V30 4825 C 457.216 2.74417 -5.23879 0
M  V30 4826 H 456.146 0.481413 -0.580308 0
M  V30 4827 H 458.797 0.557195 -1.74836 0
M  V30 4828 H 457.179 3.07601 -2.49395 0
M  V30 4829 H 458.353 1.03041 -4.49132 0
M  V30 4830 H 456.668 1.08464 -4.02025 0
M  V30 4831 H 459.265 3.84879 -3.71177 0
M  V30 4832 H 459.608 3.64481 -2.01145 0
M  V30 4833 H 460.141 2.40274 -3.17038 0
M  V30 4834 H 456.88 2.23242 -6.16314 0
M  V30 4835 H 456.4 3.41893 -4.92818 0
M  V30 4836 H 458.079 3.37362 -5.52083 0
M  V30 4837 N 458.211 1.37122 0.776871 0
M  V30 4838 C 459.488 1.22586 1.52421 0
M  V30 4839 C 459.868 -0.182726 2.10308 0
M  V30 4840 O 459.216 -1.18979 1.9508 0
M  V30 4841 C 459.426 2.31782 2.60918 0
M  V30 4842 C 460.774 2.69071 3.2846 0
M  V30 4843 O 461.798 2.3092 2.71209 0
M  V30 4844 O 460.657 3.3478 4.31954 0
M  V30 4845 H 457.751 0.478045 0.674835 0
M  V30 4846 H 460.297 1.48888 0.814275 0
M  V30 4847 H 459.069 3.26131 2.16227 0
M  V30 4848 H 458.692 2.06916 3.39517 0
M  V30 4849 N 459.689 -1.00246 1.21608 0
M  V30 4850 C 460.639 -2.07492 0.945051 0
M  V30 4851 C 461.623 -1.60585 -0.100675 0
M  V30 4852 O 462.815 -1.76667 0.10859 0
M  V30 4853 C 459.944 -3.39425 0.514342 0
M  V30 4854 C 459.03 -3.92993 1.59428 0
M  V30 4855 N 459.421 -4.19898 2.81991 0
M  V30 4856 C 457.719 -4.21297 1.46374 0
M  V30 4857 C 458.42 -4.63297 3.51754 0
M  V30 4858 N 457.396 -4.66421 2.79199 0
M  V30 4859 H 461.198 -2.26222 1.87619 0
M  V30 4860 H 458.712 -1.18339 1.11219 0
M  V30 4861 H 460.709 -4.15808 0.301527 0
M  V30 4862 H 459.369 -3.22101 -0.410008 0
M  V30 4863 H 460.38 -4.08377 3.1851 0
M  V30 4864 H 457.057 -4.13095 0.604863 0
M  V30 4865 H 458.447 -4.92816 4.56708 0
M  V30 4866 N 461.167 -1.02423 -1.1978 0
M  V30 4867 C 462.414 -0.717988 -1.89344 0
M  V30 4868 C 462.742 0.753036 -1.79331 0
M  V30 4869 O 461.997 1.56355 -1.17692 0
M  V30 4870 C 462.296 -1.1088 -3.39765 0
M  V30 4871 C 461.962 -2.57731 -3.6998 0
M  V30 4872 C 460.624 -2.97854 -3.77937 0
M  V30 4873 C 462.976 -3.52763 -3.83677 0
M  V30 4874 C 460.304 -4.31931 -3.97054 0
M  V30 4875 C 462.656 -4.86538 -4.04306 0
M  V30 4876 C 461.32 -5.26356 -4.10494 0
M  V30 4877 H 460.59 -0.26273 -0.692859 0
M  V30 4878 H 463.237 -1.28623 -1.41875 0
M  V30 4879 H 461.542 -0.459094 -3.89101 0
M  V30 4880 H 463.239 -0.849432 -3.919 0
M  V30 4881 H 459.829 -2.25646 -3.64393 0
M  V30 4882 H 464.013 -3.2292 -3.76877 0
M  V30 4883 H 459.269 -4.62324 -4.00083 0
M  V30 4884 H 463.443 -5.60093 -4.13846 0
M  V30 4885 H 461.07 -6.3026 -4.2506 0
M  V30 4886 N 462.645 1.35699 -0.801477 0
M  V30 4887 C 463.922 1.9324 -0.302937 0
M  V30 4888 C 464.302 1.73209 1.20672 0
M  V30 4889 O 463.65 1.09809 2.00385 0
M  V30 4890 C 463.86 3.41728 -0.708747 0
M  V30 4891 C 465.208 4.18868 -0.695328 0
M  V30 4892 O 466.232 3.5022 -0.649971 0
M  V30 4893 O 465.091 5.41342 -0.749081 0
M  V30 4894 H 462.185 0.82331 -0.0780367 0
M  V30 4895 H 464.731 1.44806 -0.884832 0
M  V30 4896 H 463.503 3.50015 -1.74944 0
M  V30 4897 H 463.126 3.97471 -0.101384 0
M  V30 4898 N 464.123 0.554532 1.47522 0
M  V30 4899 C 465.372 0.0273458 2.01681 0
M  V30 4900 C 465.685 -1.32962 1.43459 0
M  V30 4901 O 466.891 -1.94657 1.89265 0
M  V30 4902 C 465.347 -0.00159057 3.599 0
M  V30 4903 C 464.955 1.35197 4.27113 0
M  V30 4904 C 466.699 -0.476311 4.21819 0
M  V30 4905 C 464.606 1.28229 5.77331 0
M  V30 4906 H 463.536 0.00645269 0.753972 0
M  V30 4907 H 466.187 0.701985 1.69542 0
M  V30 4908 H 464.569 -0.741821 3.8899 0
M  V30 4909 H 465.743 2.1097 4.09668 0
M  V30 4910 H 464.058 1.76441 3.77171 0
M  V30 4911 H 466.655 -0.5468 5.31897 0
M  V30 4912 H 466.998 -1.4877 3.8881 0
M  V30 4913 H 467.531 0.20898 3.97251 0
M  V30 4914 H 464.27 2.26959 6.14955 0
M  V30 4915 H 463.79 0.566314 5.97121 0
M  V30 4916 H 465.469 0.983226 6.39485 0
M  V30 4917 N 465.601 -1.54893 0.290851 0
M  V30 4918 C 466.511 -2.26812 -0.59945 0
M  V30 4919 C 467.527 -1.29963 -1.15696 0
M  V30 4920 O 468.703 -1.62928 -1.18391 0
M  V30 4921 C 465.768 -2.98716 -1.75982 0
M  V30 4922 C 464.829 -4.1108 -1.2374 0
M  V30 4923 C 464.062 -4.79546 -2.34246 0
M  V30 4924 O 464.285 -4.47309 -3.53936 0
M  V30 4925 O 463.219 -5.67165 -2.01512 0
M  V30 4926 H 467.045 -3.03696 -0.0163561 0
M  V30 4927 H 464.63 -1.49289 0.0576755 0
M  V30 4928 H 466.512 -3.43851 -2.43607 0
M  V30 4929 H 465.187 -2.24737 -2.3297 0
M  V30 4930 H 464.094 -3.70367 -0.527163 0
M  V30 4931 H 465.427 -4.87007 -0.71307 0
M  V30 4932 N 467.08 -0.0183926 -1.57589 0
M  V30 4933 C 468.329 0.66185 -1.90532 0
M  V30 4934 C 468.642 1.73904 -0.895366 0
M  V30 4935 O 469.848 2.47518 -1.11566 0
M  V30 4936 C 468.304 1.22844 -3.38286 0
M  V30 4937 C 467.912 0.185103 -4.47617 0
M  V30 4938 C 469.656 1.88581 -3.80312 0
M  V30 4939 C 467.563 0.762723 -5.86461 0
M  V30 4940 H 466.493 0.250972 -0.711006 0
M  V30 4941 H 469.144 -0.0819435 -1.83317 0
M  V30 4942 H 467.526 2.0235 -3.40398 0
M  V30 4943 H 468.7 -0.58671 -4.5705 0
M  V30 4944 H 467.015 -0.372889 -4.14727 0
M  V30 4945 H 469.612 2.32735 -4.81392 0
M  V30 4946 H 469.955 2.72408 -3.14801 0
M  V30 4947 H 470.488 1.15782 -3.80578 0
M  V30 4948 H 467.227 -0.0371713 -6.55489 0
M  V30 4949 H 466.747 1.50327 -5.80656 0
M  V30 4950 H 468.426 1.25576 -6.34697 0
M  V30 4951 N 468.558 1.5553 0.254621 0
M  V30 4952 C 469.491 1.84624 1.34124 0
M  V30 4953 C 470.469 0.700693 1.46728 0
M  V30 4954 O 471.653 0.94564 1.63064 0
M  V30 4955 C 468.78 2.02412 2.71564 0
M  V30 4956 C 467.826 3.25028 2.7615 0
M  V30 4957 S 468.659 4.81893 2.33538 0
M  V30 4958 C 469.815 5.02677 3.72917 0
M  V30 4959 H 470.048 2.76501 1.09245 0
M  V30 4960 H 467.581 1.47537 0.455211 0
M  V30 4961 H 469.539 2.13345 3.50705 0
M  V30 4962 H 468.2 1.11391 2.93685 0
M  V30 4963 H 467.393 3.34418 3.77069 0
M  V30 4964 H 466.995 3.12781 2.05046 0
M  V30 4965 H 469.287 4.89546 4.68349 0
M  V30 4966 H 470.23 6.0468 3.68467 0
M  V30 4967 H 470.638 4.30561 3.65072 0
M  V30 4968 N 470.036 -0.519951 1.48776 0
M  V30 4969 C 471.284 -1.2727 1.56993 0
M  V30 4970 C 471.605 -1.9339 0.25004 0
M  V30 4971 O 470.875 -1.81822 -0.729216 0
M  V30 4972 H 469.455 -0.472732 0.578389 0
M  V30 4973 H 472.117 -0.604234 1.85297 0
M  V30 4974 H 471.213 -2.04669 2.3562 0
M  V30 4975 N 471.514 -1.37532 -0.769588 0
M  V30 4976 C 472.762 -1.32597 -1.5252 0
M  V30 4977 C 473.083 0.0884294 -1.94799 0
M  V30 4978 O 472.353 1.03289 -1.66458 0
M  V30 4979 H 470.933 -0.487846 -0.565699 0
M  V30 4980 H 473.595 -1.72044 -0.915806 0
M  V30 4981 H 472.691 -1.96643 -2.42359 0
M  V30 4982 N 472.992 0.995999 -1.22138 0
M  V30 4983 C 473.922 2.10387 -1.01289 0
M  V30 4984 C 474.903 1.69975 0.0651454 0
M  V30 4985 O 476.088 1.9396 -0.0964628 0
M  V30 4986 C 473.218 3.42312 -0.586517 0
M  V30 4987 C 472.172 3.96558 -1.61014 0
M  V30 4988 C 471.498 5.24494 -1.0397 0
M  V30 4989 C 472.798 4.27595 -2.99933 0
M  V30 4990 H 474.492 2.28086 -1.93951 0
M  V30 4991 H 472.038 1.09607 -0.933928 0
M  V30 4992 H 473.991 4.19223 -0.427793 0
M  V30 4993 H 472.715 3.24431 0.375761 0
M  V30 4994 H 471.374 3.21776 -1.75658 0
M  V30 4995 H 471.022 5.02953 -0.0688703 0
M  V30 4996 H 470.722 5.61755 -1.72352 0
M  V30 4997 H 472.246 6.04042 -0.892494 0
M  V30 4998 H 473.66 4.95315 -2.8868 0
M  V30 4999 H 472.057 4.76021 -3.6541 0
M  V30 5000 H 473.127 3.35498 -3.50099 0
M  V30 5001 N 474.47 1.03057 1.19235 0
M  V30 5002 C 475.718 0.726581 1.88587 0
M  V30 5003 C 476.039 -0.747227 1.80115 0
M  V30 5004 O 475.309 -1.53849 1.21274 0
M  V30 5005 H 473.889 0.265768 0.698124 0
M  V30 5006 H 476.551 1.30516 1.44746 0
M  V30 5007 H 475.647 1.0224 2.94879 0
M  V30 5008 N 475.948 -1.35272 0.808662 0
M  V30 5009 C 477.359 -1.81179 0.450688 0
M  V30 5010 C 477.71 -1.67143 -1.02751 0
M  V30 5011 O 476.835 -1.20325 -1.79864 0
M  V30 5012 C 477.43 -3.28943 0.811275 0
M  V30 5013 C 475.989 -3.72985 0.505871 0
M  V30 5014 C 475.136 -2.57229 1.03578 0
M  V30 5015 H 478.087 -1.2322 1.00012 0
M  V30 5016 H 478.108 -3.80342 0.109588 0
M  V30 5017 H 477.62 -3.39127 1.88718 0
M  V30 5018 H 475.721 -3.68349 -0.561209 0
M  V30 5019 H 475.834 -4.67677 1.03995 0
M  V30 5020 H 474.198 -2.50548 0.458005 0
M  V30 5021 H 474.981 -2.7019 2.11784 0
M  V30 5022 N 477.426 -0.562348 -1.47226 0
M  V30 5023 C 478.651 -0.0432632 -2.07355 0
M  V30 5024 C 479.076 1.24332 -1.41149 0
M  V30 5025 O 478.434 1.74603 -0.488226 0
M  V30 5026 C 478.482 0.130288 -3.60365 0
M  V30 5027 O 477.586 1.19166 -3.94808 0
M  V30 5028 H 476.927 -0.0536334 -0.66183 0
M  V30 5029 H 479.457 -0.779495 -1.89169 0
M  V30 5030 H 479.467 0.342881 -4.06557 0
M  V30 5031 H 478.142 -0.809389 -4.07948 0
M  V30 5032 H 476.719 0.959153 -3.60354 0
M  V30 5033 N 478.904 1.54736 -0.299062 0
M  V30 5034 C 480.132 2.04512 0.313447 0
M  V30 5035 C 480.547 1.17643 1.47667 0
M  V30 5036 O 479.904 0.20164 1.81383 0
M  V30 5037 C 479.955 3.53171 0.771542 0
M  V30 5038 O 479.676 4.36736 -0.345379 0
M  V30 5039 C 481.177 4.18936 1.4494 0
M  V30 5040 H 478.397 0.667507 0.0683784 0
M  V30 5041 H 480.941 1.99752 -0.438129 0
M  V30 5042 H 479.096 3.58298 1.47314 0
M  V30 5043 H 479.51 5.24499 0.0109219 0
M  V30 5044 H 480.984 5.24482 1.72111 0
M  V30 5045 H 481.461 3.68554 2.38883 0
M  V30 5046 H 482.067 4.17879 0.791028 0
M  V30 5047 N 480.382 0.0267497 1.57577 0
M  V30 5048 C 481.63 -0.651116 1.91324 0
M  V30 5049 C 481.951 -1.72804 0.90353 0
M  V30 5050 O 481.221 -1.95822 -0.0552946 0
M  V30 5051 H 479.801 -0.243491 0.706202 0
M  V30 5052 H 482.463 0.0739935 1.94759 0
M  V30 5053 H 481.559 -1.10536 2.9187 0
M  V30 5054 N 481.861 -1.55662 -0.24637 0
M  V30 5055 C 482.808 -1.90361 -1.30504 0
M  V30 5056 C 483.778 -0.757905 -1.47801 0
M  V30 5057 O 484.963 -1.01161 -1.61775 0
M  V30 5058 C 482.103 -2.2042 -2.65535 0
M  V30 5059 C 481.216 -3.47799 -2.56242 0
M  V30 5060 C 480.351 -3.67426 -3.8363 0
M  V30 5061 C 479.39 -4.88403 -3.68956 0
M  V30 5062 N 478.527 -5.04548 -4.88237 0
M  V30 5063 H 483.367 -2.80645 -1.00213 0
M  V30 5064 H 480.904 -1.38924 -0.483577 0
M  V30 5065 H 482.862 -2.35853 -3.44135 0
M  V30 5066 H 481.492 -1.3334 -2.93973 0
M  V30 5067 H 480.544 -3.40694 -1.69208 0
M  V30 5068 H 481.856 -4.36544 -2.4131 0
M  V30 5069 H 481.01 -3.82821 -4.70673 0
M  V30 5070 H 479.749 -2.76914 -4.01459 0
M  V30 5071 H 478.754 -4.72984 -2.80296 0
M  V30 5072 H 479.979 -5.80375 -3.52621 0
M  V30 5073 H 477.925 -4.16974 -5.06427 0
M  V30 5074 H 477.842 -5.87384 -4.75937 0
M  V30 5075 H 479.11 -5.24355 -5.76777 0
M  V30 5076 N 483.339 0.512053 -1.4905 0
M  V30 5077 C 484.585 1.26874 -1.58212 0
M  V30 5078 C 484.918 1.9241 -0.263073 0
M  V30 5079 O 484.193 1.80181 0.732476 0
M  V30 5080 C 484.476 2.34428 -2.73341 0
M  V30 5081 C 484.329 1.73466 -4.15006 0
M  V30 5082 C 485.648 3.36073 -2.84154 0
M  V30 5083 H 482.767 0.459924 -0.575881 0
M  V30 5084 H 485.409 0.568587 -1.81293 0
M  V30 5085 H 483.559 2.94146 -2.53792 0
M  V30 5086 H 485.231 1.17661 -4.46042 0
M  V30 5087 H 483.474 1.03921 -4.21168 0
M  V30 5088 H 484.145 2.51426 -4.91415 0
M  V30 5089 H 486.621 2.86332 -3.01916 0
M  V30 5090 H 485.497 4.08703 -3.66406 0
M  V30 5091 H 485.758 3.97725 -1.93048 0
M  V30 5092 N 484.817 1.37938 0.762283 0
M  V30 5093 C 485.747 1.37176 1.88958 0
M  V30 5094 C 486.728 0.238945 1.68413 0
M  V30 5095 O 487.913 0.440726 1.89133 0
M  V30 5096 C 485.043 1.18742 3.2637 0
M  V30 5097 C 483.997 2.29136 3.61498 0
M  V30 5098 C 483.323 1.95816 4.97554 0
M  V30 5099 C 484.623 3.71363 3.6727 0
M  V30 5100 H 486.317 2.31509 1.89853 0
M  V30 5101 H 483.863 1.11438 0.912005 0
M  V30 5102 H 485.816 1.16837 4.04879 0
M  V30 5103 H 484.54 0.208683 3.25933 0
M  V30 5104 H 483.199 2.30213 2.85303 0
M  V30 5105 H 482.847 0.964475 4.93667 0
M  V30 5106 H 482.547 2.69745 5.22026 0
M  V30 5107 H 484.071 1.95513 5.78452 0
M  V30 5108 H 485.485 3.72364 4.35911 0
M  V30 5109 H 483.882 4.44425 4.03245 0
M  V30 5110 H 484.952 4.04305 2.67704 0
M  V30 5111 N 486.295 -0.989507 1.22664 0
M  V30 5112 C 487.711 -1.25395 0.987331 0
M  V30 5113 C 487.911 -1.9899 -0.317056 0
M  V30 5114 O 486.967 -2.30141 -1.03882 0
M  V30 5115 C 488.28 -2.06242 2.18826 0
M  V30 5116 C 489.828 -2.19413 2.23219 0
M  V30 5117 C 490.303 -3.03648 3.42873 0
M  V30 5118 N 491.794 -3.11234 3.43056 0
M  V30 5119 C 492.529 -3.7671 4.32293 0
M  V30 5120 N 492.025 -4.44085 5.31752 0
M  V30 5121 N 493.818 -3.73505 4.2006 0
M  V30 5122 H 485.969 -0.496212 2.06522 0
M  V30 5123 H 488.232 -0.281784 0.905153 0
M  V30 5124 H 487.938 -1.59531 3.13437 0
M  V30 5125 H 487.812 -3.06996 2.19165 0
M  V30 5126 H 490.199 -2.65336 1.29154 0
M  V30 5127 H 490.28 -1.18078 2.26917 0
M  V30 5128 H 489.924 -2.58424 4.37241 0
M  V30 5129 H 489.854 -4.05132 3.36416 0
M  V30 5130 H 492.345 -2.63287 2.71088 0
M  V30 5131 H 492.658 -4.91797 5.96117 0
M  V30 5132 H 491.003 -4.42822 5.35662 0
M  V30 5133 H 494.194 -3.20033 3.41609 0
M  V30 5134 H 494.367 -4.24253 4.8981 0
M  V30 5135 N 487.773 -1.03688 -1.18687 0
M  V30 5136 C 489.022 -0.733235 -1.879 0
M  V30 5137 C 489.335 0.741745 -1.8099 0
M  V30 5138 O 490.541 1.15875 -2.4553 0
M  V30 5139 C 488.997 -1.26127 -3.37076 0
M  V30 5140 C 488.605 -2.76461 -3.52524 0
M  V30 5141 C 490.349 -1.03398 -4.11715 0
M  V30 5142 C 488.256 -3.22642 -4.95637 0
M  V30 5143 H 487.186 -0.270584 -0.703776 0
M  V30 5144 H 489.837 -1.25222 -1.34133 0
M  V30 5145 H 488.219 -0.670165 -3.90288 0
M  V30 5146 H 489.393 -3.41296 -3.09602 0
M  V30 5147 H 487.708 -2.97559 -2.91286 0
M  V30 5148 H 490.305 -1.3542 -5.17267 0
M  V30 5149 H 490.648 0.0289246 -4.1629 0
M  V30 5150 H 491.181 -1.5895 -3.64664 0
M  V30 5151 H 487.92 -4.28296 -4.96228 0
M  V30 5152 H 487.44 -2.62539 -5.39289 0
M  V30 5153 H 489.119 -3.16444 -5.64333 0
M  V30 5154 N 489.251 1.34841 -0.815825 0
M  V30 5155 C 490.499 1.98107 -0.399744 0
M  V30 5156 C 490.82 1.65019 1.03894 0
M  V30 5157 O 490.09 0.937311 1.72021 0
M  V30 5158 H 488.67 0.732827 -0.144823 0
M  V30 5159 H 491.332 1.64599 -1.0437 0
M  V30 5160 H 490.428 3.07856 -0.512965 0
M  V30 5161 N 490.729 0.570148 1.46925 0
M  V30 5162 C 491.659 -0.158274 2.32963 0
M  V30 5163 C 492.64 -0.896093 1.44583 0
M  V30 5164 O 493.825 -0.874022 1.7342 0
M  V30 5165 C 490.955 -1.18055 3.26619 0
M  V30 5166 C 489.909 -0.558379 4.24342 0
M  V30 5167 C 489.235 -1.68623 5.07415 0
M  V30 5168 C 490.535 0.496295 5.19937 0
M  V30 5169 H 492.229 0.560046 2.94115 0
M  V30 5170 H 489.775 0.270775 1.41431 0
M  V30 5171 H 491.728 -1.69841 3.85658 0
M  V30 5172 H 490.452 -1.92899 2.63548 0
M  V30 5173 H 489.111 -0.0617157 3.66548 0
M  V30 5174 H 488.759 -2.42402 4.40738 0
M  V30 5175 H 488.459 -1.27564 5.73586 0
M  V30 5176 H 489.983 -2.20709 5.69315 0
M  V30 5177 H 491.397 0.0640052 5.73264 0
M  V30 5178 H 489.794 0.82649 5.94381 0
M  V30 5179 H 490.864 1.38735 4.6463 0
M  V30 5180 N 492.207 -1.54576 0.307264 0
M  V30 5181 C 493.137 -2.26708 -0.55907 0
M  V30 5182 C 494.118 -1.26893 -1.1328 0
M  V30 5183 O 495.303 -1.55677 -1.16097 0
M  V30 5184 C 492.433 -3.01259 -1.72801 0
M  V30 5185 C 491.387 -4.08275 -1.28435 0
M  V30 5186 C 490.713 -4.70575 -2.53895 0
M  V30 5187 C 492.013 -5.2068 -0.411038 0
M  V30 5188 H 493.707 -2.9937 0.042576 0
M  V30 5189 H 491.253 -1.43983 0.0219173 0
M  V30 5190 H 493.206 -3.50444 -2.34023 0
M  V30 5191 H 491.93 -2.26187 -2.356 0
M  V30 5192 H 490.589 -3.59949 -0.695161 0
M  V30 5193 H 490.237 -3.92136 -3.15021 0
M  V30 5194 H 489.937 -5.42854 -2.24908 0
M  V30 5195 H 491.461 -5.22527 -3.15908 0
M  V30 5196 H 492.875 -5.65721 -0.929097 0
M  V30 5197 H 491.272 -5.99716 -0.214664 0
M  V30 5198 H 492.342 -4.81629 0.562287 0
M  V30 5199 N 493.685 -0.035106 -1.57561 0
M  V30 5200 C 494.933 0.64096 -1.91667 0
M  V30 5201 C 495.254 1.72323 -0.912681 0
M  V30 5202 O 494.524 1.95849 0.0449089 0
M  V30 5203 H 493.104 0.239743 -0.707483 0
M  V30 5204 H 495.766 -0.084321 -1.94718 0
M  V30 5205 H 494.862 1.08987 -2.92452 0
M  V30 5206 N 495.163 1.55791 0.238111 0
M  V30 5207 C 496.403 1.79801 0.972163 0
M  V30 5208 C 496.767 0.606027 1.82185 0
M  V30 5209 O 497.968 0.725079 2.58836 0
M  V30 5210 C 496.239 3.08608 1.80266 0
M  V30 5211 S 497.798 3.53872 2.59461 0
M  V30 5212 H 494.616 0.631418 0.326852 0
M  V30 5213 H 497.218 1.94031 0.239212 0
M  V30 5214 H 495.922 3.93419 1.1683 0
M  V30 5215 H 495.453 2.9714 2.57821 0
M  V30 5216 H 497.468 3.15899 3.82651 0
M  V30 5217 N 496.642 -0.504142 1.49319 0
M  V30 5218 C 497.59 -1.62689 1.66238 0
M  V30 5219 C 498.584 -1.6095 0.528349 0
M  V30 5220 O 499.79 -1.65496 0.707887 0
M  V30 5221 H 496.165 -0.539247 0.524134 0
M  V30 5222 H 498.136 -1.45571 2.60484 0
M  V30 5223 C 496.885 -3.00841 1.74328 0
M  V30 5224 H 496.208 -3.02884 2.60963 0
M  V30 5225 H 497.648 -3.78945 1.90202 0
M  V30 5226 C 496.107 -3.33355 0.487416 0
M  V30 5227 O 496.637 -3.99819 -0.388294 0
M  V30 5228 N 494.843 -2.88469 0.351306 0
M  V30 5229 H 494.39 -2.34557 1.06492 0
M  V30 5230 H 494.348 -3.10591 -0.487899 0
M  V30 5231 N 498.12 -1.38341 -0.754957 0
M  V30 5232 C 499.083 -1.35262 -1.85032 0
M  V30 5233 C 500.083 -0.253393 -1.58791 0
M  V30 5234 O 501.273 -0.510205 -1.66561 0
M  V30 5235 C 498.405 -1.10544 -3.22479 0
M  V30 5236 H 499.598 -2.32712 -1.8917 0
M  V30 5237 H 497.151 -1.23614 -0.956515 0
M  V30 5238 H 497.886 -0.136952 -3.24011 0
M  V30 5239 H 497.671 -1.90127 -3.4292 0
M  V30 5240 H 499.161 -1.11082 -4.02555 0
M  V30 5241 N 499.598 0.982988 -1.23187 0
M  V30 5242 C 500.826 1.75921 -1.08901 0
M  V30 5243 C 501.241 1.85341 0.359719 0
M  V30 5244 O 500.598 1.33072 1.24892 0
M  V30 5245 C 500.649 3.18742 -1.70545 0
M  V30 5246 O 500.37 3.09814 -3.09753 0
M  V30 5247 C 501.871 4.1277 -1.61667 0
M  V30 5248 H 499.091 0.552166 -0.381252 0
M  V30 5249 H 501.635 1.23516 -1.62985 0
M  V30 5250 H 499.79 3.68182 -1.20501 0
M  V30 5251 H 500.204 3.99703 -3.39614 0
M  V30 5252 H 501.678 5.10697 -2.09506 0
M  V30 5253 H 502.155 4.3542 -0.575009 0
M  V30 5254 H 502.761 3.69232 -2.11064 0
M  V30 5255 N 501.076 1.04316 1.18135 0
M  V30 5256 C 502.492 0.762858 1.40188 0
M  V30 5257 C 502.692 -0.646547 1.90846 0
M  V30 5258 O 501.748 -1.41036 2.0944 0
M  V30 5259 C 503.061 1.81106 2.40044 0
M  V30 5260 C 504.609 1.83226 2.53766 0
M  V30 5261 C 505.084 2.87044 3.56889 0
M  V30 5262 N 506.575 2.85951 3.64398 0
M  V30 5263 C 507.31 3.62932 4.43923 0
M  V30 5264 N 506.806 4.49672 5.27036 0
M  V30 5265 N 508.599 3.51411 4.38711 0
M  V30 5266 H 500.75 1.95264 0.835805 0
M  V30 5267 H 503.013 0.845017 0.429709 0
M  V30 5268 H 502.719 2.82214 2.09876 0
M  V30 5269 H 502.593 1.64529 3.39426 0
M  V30 5270 H 504.98 0.827869 2.8325 0
M  V30 5271 H 505.061 2.03879 1.54489 0
M  V30 5272 H 504.705 3.87663 3.28145 0
M  V30 5273 H 504.635 2.63645 4.5585 0
M  V30 5274 H 507.126 2.23051 3.05052 0
M  V30 5275 H 507.439 5.05116 5.84874 0
M  V30 5276 H 505.784 4.53738 5.26447 0
M  V30 5277 H 508.975 2.83047 3.72829 0
M  V30 5278 H 509.148 4.11654 5.00445 0
M  V30 5279 N 502.554 -1.34406 0.822964 0
M  V30 5280 C 503.464 -2.33298 0.246838 0
M  V30 5281 C 504.48 -1.62625 -0.618797 0
M  V30 5282 O 505.656 -1.94391 -0.526685 0
M  V30 5283 C 502.721 -3.41785 -0.581731 0
M  V30 5284 C 501.782 -4.28206 0.306309 0
M  V30 5285 C 501.015 -5.31512 -0.48281 0
M  V30 5286 O 501.238 -5.43973 -1.71607 0
M  V30 5287 O 500.172 -6.01749 0.134884 0
M  V30 5288 H 503.998 -2.84401 1.06534 0
M  V30 5289 H 501.583 -1.37466 0.585108 0
M  V30 5290 H 503.465 -4.08028 -1.05313 0
M  V30 5291 H 502.14 -2.92925 -1.37756 0
M  V30 5292 H 501.047 -3.64885 0.825199 0
M  V30 5293 H 502.38 -4.80507 1.06649 0
M  V30 5294 N 504.032 -0.577932 -1.46621 0
M  V30 5295 C 504.98 0.170882 -2.31971 0
M  V30 5296 C 505.974 0.889086 -1.44193 0
M  V30 5297 O 507.18 0.808017 -1.60845 0
M  V30 5298 H 503.555 0.0739763 -0.748353 0
M  V30 5299 H 505.526 -0.567856 -2.92947 0
M  V30 5300 C 504.275 1.17438 -3.27267 0
M  V30 5301 H 503.598 0.63116 -3.94787 0
M  V30 5302 H 505.038 1.66882 -3.89778 0
M  V30 5303 C 503.497 2.23292 -2.52274 0
M  V30 5304 O 504.027 3.30567 -2.28229 0
M  V30 5305 N 502.233 1.97772 -2.12919 0
M  V30 5306 H 501.78 1.10545 -2.32675 0
M  V30 5307 H 501.738 2.68809 -1.63062 0
M  V30 5308 N 505.51 1.54411 -0.315457 0
M  V30 5309 C 506.756 2.00716 0.289972 0
M  V30 5310 C 507.089 1.2034 1.5242 0
M  V30 5311 O 506.364 0.283579 1.92422 0
M  V30 5312 C 506.647 3.54507 0.632196 0
M  V30 5313 C 506.5 4.45615 -0.61218 0
M  V30 5314 C 507.819 4.15421 1.45305 0
M  V30 5315 H 504.938 0.729637 0.10392 0
M  V30 5316 H 507.58 1.8506 -0.430427 0
M  V30 5317 H 505.73 3.67979 1.24595 0
M  V30 5318 H 507.402 4.44026 -1.25053 0
M  V30 5319 H 505.645 4.15621 -1.24264 0
M  V30 5320 H 506.316 5.51022 -0.328379 0
M  V30 5321 H 508.792 4.05474 0.934331 0
M  V30 5322 H 507.668 5.23157 1.66127 0
M  V30 5323 H 507.929 3.68223 2.44671 0
M  V30 5324 N 506.988 0.0434614 1.5754 0
M  V30 5325 C 508.265 -0.671479 1.83713 0
M  V30 5326 C 508.645 -1.89495 0.930315 0
M  V30 5327 O 507.993 -2.28498 -0.0105639 0
M  V30 5328 C 508.203 -1.0361 3.33266 0
M  V30 5329 C 509.551 -1.42167 4.00092 0
M  V30 5330 O 510.575 -1.12866 3.37846 0
M  V30 5331 O 509.434 -1.96817 5.09829 0
M  V30 5332 H 506.528 -0.330726 0.75799 0
M  V30 5333 H 509.074 0.0722373 1.69546 0
M  V30 5334 H 507.846 -0.165938 3.90948 0
M  V30 5335 H 507.469 -1.83751 3.52592 0
M  V30 5336 N 508.466 -1.55915 -0.229846 0
M  V30 5337 C 509.882 -1.48721 -0.579166 0
M  V30 5338 C 510.082 -0.736976 -1.87539 0
M  V30 5339 O 509.138 -0.273258 -2.51017 0
M  V30 5340 C 510.451 -2.9323 -0.666082 0
M  V30 5341 C 511.999 -3.03701 -0.757267 0
M  V30 5342 C 512.474 -4.49552 -0.8756 0
M  V30 5343 N 513.965 -4.53561 -0.940035 0
M  V30 5344 C 514.7 -5.63683 -1.05116 0
M  V30 5345 N 514.196 -6.83576 -1.12675 0
M  V30 5346 N 515.989 -5.51516 -1.08565 0
M  V30 5347 H 508.14 -2.03123 0.620857 0
M  V30 5348 H 510.403 -0.922898 0.21671 0
M  V30 5349 H 510.109 -3.51032 0.21664 0
M  V30 5350 H 509.983 -3.44668 -1.53243 0
M  V30 5351 H 512.37 -2.45969 -1.63043 0
M  V30 5352 H 512.451 -2.55446 0.134583 0
M  V30 5353 H 512.095 -5.079 -0.00692351 0
M  V30 5354 H 512.025 -4.95506 -1.78274 0
M  V30 5355 H 514.516 -3.67215 -0.892269 0
M  V30 5356 H 514.829 -7.63251 -1.21109 0
M  V30 5357 H 513.174 -6.86303 -1.09603 0
M  V30 5358 H 516.365 -4.5678 -1.02319 0
M  V30 5359 H 516.538 -6.37372 -1.1688 0
M  V30 5360 N 509.944 0.496216 -1.49584 0
M  V30 5361 C 511.19 1.25189 -1.59548 0
M  V30 5362 C 511.523 1.9212 -0.283466 0
M  V30 5363 O 510.798 1.80947 0.713324 0
M  V30 5364 C 511.081 2.31516 -2.75812 0
M  V30 5365 C 510.934 1.69054 -4.16822 0
M  V30 5366 C 512.253 3.3304 -2.87702 0
M  V30 5367 H 509.372 0.45379 -0.580727 0
M  V30 5368 H 512.014 0.549327 -1.81886 0
M  V30 5369 H 510.164 2.91438 -2.56897 0
M  V30 5370 H 511.836 1.12923 -4.47265 0
M  V30 5371 H 510.079 0.994485 -4.22247 0
M  V30 5372 H 510.75 2.462 -4.94054 0
M  V30 5373 H 513.226 2.83114 -3.04936 0
M  V30 5374 H 512.102 4.04794 -3.7072 0
M  V30 5375 H 512.363 3.95655 -1.97255 0
M  V30 5376 N 511.423 1.38739 0.74761 0
M  V30 5377 C 512.651 1.38521 1.53686 0
M  V30 5378 C 513.066 -0.0235129 1.88785 0
M  V30 5379 O 512.423 -0.991662 1.53207 0
M  V30 5380 C 512.474 2.24641 2.83229 0
M  V30 5381 O 512.195 3.60026 2.49625 0
M  V30 5382 C 513.696 2.32669 3.77333 0
M  V30 5383 H 510.916 0.473589 0.475347 0
M  V30 5384 H 513.46 1.82395 0.924786 0
M  V30 5385 H 511.615 1.84213 3.40799 0
M  V30 5386 H 512.029 4.05435 3.3275 0
M  V30 5387 H 513.503 2.97201 4.65162 0
M  V30 5388 H 513.98 1.3421 4.18192 0
M  V30 5389 H 514.586 2.73512 3.25685 0
M  V30 5390 N 512.901 -0.976442 1.23707 0
M  V30 5391 C 513.811 -2.10359 1.03856 0
M  V30 5392 C 514.827 -1.73991 -0.0180919 0
M  V30 5393 O 516.003 -2.0061 0.178211 0
M  V30 5394 C 513.068 -3.40809 0.636387 0
M  V30 5395 C 512.129 -3.91179 1.76854 0
M  V30 5396 C 511.362 -5.15404 1.38546 0
M  V30 5397 O 511.585 -5.69754 0.27142 0
M  V30 5398 O 510.519 -5.5994 2.20797 0
M  V30 5399 H 514.345 -2.29997 1.98331 0
M  V30 5400 H 511.93 -1.08742 1.02448 0
M  V30 5401 H 513.812 -4.19269 0.423223 0
M  V30 5402 H 512.487 -3.22493 -0.279322 0
M  V30 5403 H 511.394 -3.13819 2.03638 0
M  V30 5404 H 512.727 -4.13958 2.6627 0
M  V30 5405 N 514.379 -1.04941 -1.1758 0
M  V30 5406 C 515.342 -0.652456 -2.19717 0
M  V30 5407 C 516.342 0.294745 -1.58076 0
M  V30 5408 O 517.532 0.0789579 -1.74021 0
M  V30 5409 C 514.664 0.0420712 -3.40874 0
M  V30 5410 H 515.857 -1.55642 -2.5635 0
M  V30 5411 H 513.41 -0.842995 -1.31618 0
M  V30 5412 H 514.145 0.95943 -3.09783 0
M  V30 5413 H 513.93 -0.638844 -3.86861 0
M  V30 5414 H 515.42 0.306 -4.16477 0
M  V30 5415 N 515.857 1.33968 -0.830081 0
M  V30 5416 C 516.787 2.31911 -0.271911 0
M  V30 5417 C 517.768 1.58571 0.61556 0
M  V30 5418 O 518.953 1.86514 0.540946 0
M  V30 5419 C 516.083 3.42737 0.561146 0
M  V30 5420 C 515.037 4.27383 -0.229789 0
M  V30 5421 C 514.363 5.29742 0.726463 0
M  V30 5422 C 515.663 5.02 -1.44197 0
M  V30 5423 H 517.357 2.78844 -1.09025 0
M  V30 5424 H 514.903 1.34061 -0.52571 0
M  V30 5425 H 516.856 4.10276 0.961867 0
M  V30 5426 H 515.58 2.94471 1.41261 0
M  V30 5427 H 514.239 3.61456 -0.611964 0
M  V30 5428 H 513.887 4.77736 1.57408 0
M  V30 5429 H 513.587 5.87255 0.20142 0
M  V30 5430 H 515.111 6.00149 1.12489 0
M  V30 5431 H 516.525 5.62355 -1.11488 0
M  V30 5432 H 514.922 5.69122 -1.90317 0
M  V30 5433 H 515.992 4.31281 -2.2164 0
M  V30 5434 N 517.335 0.585699 1.46312 0
M  V30 5435 C 518.751 0.247607 1.57668 0
M  V30 5436 C 518.951 -1.25007 1.58037 0
M  V30 5437 O 518.007 -2.03196 1.49893 0
M  V30 5438 C 519.32 0.899456 2.86933 0
M  V30 5439 C 520.868 0.873326 3.00569 0
M  V30 5440 C 521.343 1.50477 4.32574 0
M  V30 5441 N 522.834 1.46925 4.3928 0
M  V30 5442 C 523.569 1.92719 5.40044 0
M  V30 5443 N 523.065 2.46499 6.47464 0
M  V30 5444 N 524.858 1.83617 5.31264 0
M  V30 5445 H 517.009 1.55841 1.44317 0
M  V30 5446 H 519.272 0.651564 0.688599 0
M  V30 5447 H 518.978 1.95313 2.92482 0
M  V30 5448 H 518.852 0.409476 3.74971 0
M  V30 5449 H 521.239 -0.171736 2.946 0
M  V30 5450 H 521.32 1.40136 2.13999 0
M  V30 5451 H 520.964 2.54905 4.39302 0
M  V30 5452 H 520.894 0.951944 5.17924 0
M  V30 5453 H 523.385 1.07616 3.62253 0
M  V30 5454 H 523.698 2.79291 7.20567 0
M  V30 5455 H 522.043 2.50526 6.48276 0
M  V30 5456 H 525.234 1.41358 4.46246 0
M  V30 5457 H 525.407 2.19622 6.09648 0
M  V30 5458 N 518.813 -1.54241 0.323641 0
M  V30 5459 C 519.776 -2.22997 -0.529602 0
M  V30 5460 C 520.776 -1.22345 -1.04347 0
M  V30 5461 O 521.966 -1.46924 -0.935889 0
M  V30 5462 C 519.098 -2.93409 -1.73562 0
M  V30 5463 H 520.291 -2.99815 0.0714518 0
M  V30 5464 H 517.844 -1.56121 0.0747258 0
M  V30 5465 H 518.579 -2.20729 -2.37591 0
M  V30 5466 H 518.364 -3.67217 -1.37456 0
M  V30 5467 H 519.854 -3.45794 -2.34128 0
M  V30 5468 N 520.291 -0.0518155 -1.57515 0
M  V30 5469 C 521.254 0.907547 -2.10467 0
M  V30 5470 C 522.254 1.23947 -1.02439 0
M  V30 5471 O 523.444 1.17604 -1.2851 0
M  V30 5472 C 520.576 2.21723 -2.58944 0
M  V30 5473 H 521.769 0.44851 -2.96527 0
M  V30 5474 H 519.322 0.196598 -1.55059 0
M  V30 5475 H 520.057 2.72206 -1.76279 0
M  V30 5476 H 519.842 1.98935 -3.37886 0
M  V30 5477 H 521.332 2.90441 -3.00056 0
M  V30 5478 N 521.769 1.56035 0.221574 0
M  V30 5479 C 522.699 1.95434 1.2778 0
M  V30 5480 C 523.68 0.822564 1.48889 0
M  V30 5481 O 524.865 1.08486 1.61072 0
M  V30 5482 C 521.995 2.27102 2.62759 0
M  V30 5483 C 520.949 3.4277 2.56306 0
M  V30 5484 C 520.275 3.60043 3.95314 0
M  V30 5485 C 521.575 4.77742 2.11093 0
M  V30 5486 H 523.269 2.83912 0.950504 0
M  V30 5487 H 520.815 1.36596 0.455791 0
M  V30 5488 H 522.768 2.53256 3.36807 0
M  V30 5489 H 521.492 1.35478 2.97176 0
M  V30 5490 H 520.151 3.16664 1.84715 0
M  V30 5491 H 519.799 2.65794 4.27039 0
M  V30 5492 H 519.499 4.37841 3.91879 0
M  V30 5493 H 521.023 3.88545 4.71025 0
M  V30 5494 H 522.437 5.03102 2.74885 0
M  V30 5495 H 520.834 5.58823 2.18716 0
M  V30 5496 H 521.904 4.731 1.06321 0
M  V30 5497 N 523.247 -0.488276 1.49845 0
M  V30 5498 C 524.179 -1.60539 1.63584 0
M  V30 5499 C 525.192 -1.5434 0.517972 0
M  V30 5500 O 526.381 -1.60041 0.790516 0
M  V30 5501 C 523.481 -2.99374 1.58835 0
M  V30 5502 C 522.654 -3.30624 2.86368 0
M  V30 5503 C 521.713 -4.4893 2.74496 0
M  V30 5504 O 520.739 -4.50085 3.48443 0
M  V30 5505 N 521.941 -5.49591 1.86894 0
M  V30 5506 H 524.706 -1.49176 2.59936 0
M  V30 5507 H 522.267 -0.67639 1.47094 0
M  V30 5508 H 524.259 -3.76459 1.48529 0
M  V30 5509 H 522.829 -3.04595 0.702892 0
M  V30 5510 H 522.049 -2.42314 3.1093 0
M  V30 5511 H 523.337 -3.48305 3.70892 0
M  V30 5512 H 522.735 -5.51467 1.26097 0
M  V30 5513 H 521.292 -6.25728 1.82503 0
M  V30 5514 N 524.725 -1.39134 -0.740242 0
M  V30 5515 C 525.675 -1.33928 -1.84519 0
M  V30 5516 C 526.659 -0.221097 -1.59374 0
M  V30 5517 O 527.851 -0.458195 -1.70967 0
M  V30 5518 C 524.98 -1.17991 -3.22387 0
M  V30 5519 C 524.066 -2.34488 -3.53378 0
M  V30 5520 N 524.457 -3.59954 -3.5534 0
M  V30 5521 C 522.755 -2.27331 -3.83714 0
M  V30 5522 C 523.456 -4.36962 -3.83978 0
M  V30 5523 N 522.432 -3.66482 -4.01487 0
M  V30 5524 H 526.234 -2.28907 -1.84333 0
M  V30 5525 H 523.748 -1.32555 -0.938237 0
M  V30 5526 H 525.745 -1.12345 -4.01478 0
M  V30 5527 H 524.405 -0.23957 -3.23815 0
M  V30 5528 H 525.416 -3.93448 -3.36778 0
M  V30 5529 H 522.093 -1.41531 -3.92779 0
M  V30 5530 H 523.483 -5.45692 -3.92008 0
M  V30 5531 N 526.204 0.969867 -1.24223 0
M  V30 5532 C 527.444 1.72754 -1.0925 0
M  V30 5533 C 527.808 1.88541 0.362787 0
M  V30 5534 O 529.009 2.61217 0.633969 0
M  V30 5535 C 527.28 3.08204 -1.80957 0
M  V30 5536 S 528.839 3.99418 -1.81688 0
M  V30 5537 H 525.657 0.593981 -0.390778 0
M  V30 5538 H 528.259 1.15792 -1.5752 0
M  V30 5539 H 526.963 2.94372 -2.85961 0
M  V30 5540 H 526.494 3.70232 -1.33012 0
M  V30 5541 H 528.509 4.8828 -0.883001 0
M  V30 5542 N 527.682 1.05563 1.17022 0
M  V30 5543 C 528.629 0.659893 2.21165 0
M  V30 5544 C 529.599 -0.339813 1.62587 0
M  V30 5545 O 530.784 -0.230378 1.89404 0
M  V30 5546 C 527.924 0.0447297 3.45071 0
M  V30 5547 C 527.037 1.09372 4.17926 0
M  V30 5548 C 526.172 0.445481 5.29329 0
M  V30 5549 C 525.211 1.47852 5.93975 0
M  V30 5550 N 524.348 0.854172 6.96885 0
M  V30 5551 H 529.188 1.55243 2.54369 0
M  V30 5552 H 526.725 0.776336 1.24946 0
M  V30 5553 H 528.683 -0.329404 4.15898 0
M  V30 5554 H 527.313 -0.811244 3.1244 0
M  V30 5555 H 526.365 1.58564 3.45777 0
M  V30 5556 H 527.677 1.87773 4.62107 0
M  V30 5557 H 526.831 0.0179688 6.06697 0
M  V30 5558 H 525.57 -0.370481 4.86291 0
M  V30 5559 H 524.575 1.91601 5.15334 0
M  V30 5560 H 525.8 2.29645 6.39093 0
M  V30 5561 H 523.746 0.0587882 6.55974 0
M  V30 5562 H 523.663 1.57567 7.39397 0
M  V30 5563 H 524.931 0.451559 7.78191 0
M  V30 5564 N 529.16 -1.33526 0.837174 0
M  V30 5565 C 530.123 -2.27551 0.274421 0
M  V30 5566 C 531.123 -1.50886 -0.555881 0
M  V30 5567 O 532.313 -1.70227 -0.369918 0
M  V30 5568 C 529.445 -3.35332 -0.613605 0
M  V30 5569 H 530.638 -2.78837 1.10408 0
M  V30 5570 H 528.191 -1.439 0.610126 0
M  V30 5571 H 528.926 -2.89285 -1.46577 0
M  V30 5572 H 528.711 -3.92095 -0.0195341 0
M  V30 5573 H 530.201 -4.05433 -1.00068 0
M  V30 5574 N 530.638 -0.59345 -1.46 0
M  V30 5575 C 531.586 0.146268 -2.3214 0
M  V30 5576 C 532.58 0.873743 -1.45128 0
M  V30 5577 O 533.786 0.790912 -1.61693 0
M  V30 5578 H 530.161 0.0660349 -0.749095 0
M  V30 5579 H 532.132 -0.598895 -2.92328 0
M  V30 5580 C 530.881 1.1396 -3.28494 0
M  V30 5581 H 530.204 0.589252 -3.95434 0
M  V30 5582 H 531.644 1.62738 -3.91526 0
M  V30 5583 C 530.103 2.20604 -2.54628 0
M  V30 5584 O 530.633 3.28128 -2.31722 0
M  V30 5585 N 528.839 1.95502 -2.15005 0
M  V30 5586 H 528.386 1.0807 -2.33834 0
M  V30 5587 H 528.344 2.67064 -1.65904 0
M  V30 5588 N 532.116 1.54067 -0.331816 0
M  V30 5589 C 533.046 2.27569 0.522932 0
M  V30 5590 C 534.027 1.28679 1.11247 0
M  V30 5591 O 535.212 1.57504 1.13605 0
M  V30 5592 C 532.342 3.0397 1.67987 0
M  V30 5593 C 531.296 4.10267 1.21924 0
M  V30 5594 C 530.622 4.74555 2.46377 0
M  V30 5595 C 531.922 5.21268 0.32815 0
M  V30 5596 H 533.616 2.99264 -0.0901977 0
M  V30 5597 H 531.162 1.4393 -0.044821 0
M  V30 5598 H 533.115 3.54123 2.28418 0
M  V30 5599 H 531.839 2.29906 2.31971 0
M  V30 5600 H 530.498 3.61009 0.637809 0
M  V30 5601 H 530.146 3.97098 3.08743 0
M  V30 5602 H 529.846 5.46363 2.16243 0
M  V30 5603 H 531.37 5.27487 3.07555 0
M  V30 5604 H 532.784 5.67128 0.838978 0
M  V30 5605 H 531.181 5.99982 0.119228 0
M  V30 5606 H 532.251 4.80673 -0.638839 0
M  V30 5607 O 533.633 0.19963 1.60261 0
M  V30 5608 H 534.324 -0.384961 1.89836 0
M  V30 END ATOM
M  V30 BEGIN BOND
M  V30 END BOND
M  V30 END CTAB
M  END
$$$$
