drugbank_target|Q9Z4J7 Quinoprotein ethanol dehydrogenase (DB03205)
 OpenBabel12092120273D

  0  0  0     0  0            999 V3000
M  V30 BEGIN CTAB
M  V30 COUNTS 9433 9580 0 0 0
M  V30 BEGIN ATOM
M  V30 1 H -0.908 1.98254 -0.117106 0
M  V30 2 N 0 1.576 0 0
M  V30 3 C 0.933 2.03868 1.02534 0
M  V30 4 C 1.911 0.928543 1.3348 0
M  V30 5 O 3.095 1.19667 1.45644 0
M  V30 6 C 0.222 2.43627 2.35294 0
M  V30 7 C -0.732 3.65373 2.2001 0
M  V30 8 S 0.101 5.13292 1.52614 0
M  V30 9 C 1.257 5.56322 2.86805 0
M  V30 10 H 1.49 2.90518 0.631377 0
M  V30 11 H -0.977 1.52953 0.210867 0
M  V30 12 H 0.981 2.67203 3.11629 0
M  V30 13 H -0.358 1.57376 2.7183 0
M  V30 14 H -1.165 3.90944 3.18086 0
M  V30 15 H -1.563 3.418 1.51819 0
M  V30 16 H 0.729 5.58782 3.83104 0
M  V30 17 H 1.672 6.56266 2.65933 0
M  V30 18 H 2.08 4.83886 2.90714 0
M  V30 19 N 1.4781 -0.272755 1.55222 0
M  V30 20 C 2.7061 -1.02255 1.79865 0
M  V30 21 C 3.1211 -1.79924 0.572088 0
M  V30 22 O 2.4781 -1.76638 -0.458842 0
M  V30 23 C 2.5291 -1.98094 3.02392 0
M  V30 24 O 2.2501 -1.23572 4.20311 0
M  V30 25 C 3.7511 -2.84884 3.39641 0
M  V30 26 H 0.9711 -0.302057 0.599168 0
M  V30 27 H 3.5151 -0.303465 2.02236 0
M  V30 28 H 1.6701 -2.65465 2.82147 0
M  V30 29 H 2.0841 -1.88172 4.89583 0
M  V30 30 H 3.5581 -3.47927 4.28545 0
M  V30 31 H 4.0351 -3.54665 2.59055 0
M  V30 32 H 4.6411 -2.23003 3.62146 0
M  V30 33 N 2.9562 -1.48159 -0.537278 0
M  V30 34 C 4.1842 -1.59454 -1.31841 0
M  V30 35 C 4.5992 -0.252065 -1.8711 0
M  V30 36 O 3.9562 0.757621 -1.66031 0
M  V30 37 C 4.0072 -2.63546 -2.47439 0
M  V30 38 O 3.7282 -3.92583 -1.94449 0
M  V30 39 C 5.2292 -2.85212 -3.39366 0
M  V30 40 H 2.4492 -0.53785 -0.401196 0
M  V30 41 H 4.9932 -1.93932 -0.648891 0
M  V30 42 H 3.1482 -2.31946 -3.1029 0
M  V30 43 H 3.5622 -4.49629 -2.70063 0
M  V30 44 H 5.0362 -3.61863 -4.16844 0
M  V30 45 H 5.5132 -1.93765 -3.94147 0
M  V30 46 H 6.1192 -3.18086 -2.82314 0
M  V30 47 N 4.4343 0.785586 -1.36625 0
M  V30 48 C 5.8503 1.08419 -1.17122 0
M  V30 49 C 6.0503 2.015 0.00208491 0
M  V30 50 O 5.1063 2.43551 0.666278 0
M  V30 51 C 6.4193 1.69498 -2.48377 0
M  V30 52 C 7.9673 1.81821 -2.54775 0
M  V30 53 C 8.4423 2.46315 -3.86126 0
M  V30 54 N 9.9333 2.53779 -3.87492 0
M  V30 55 C 10.6683 3.045 -4.85868 0
M  V30 56 N 10.1643 3.55499 -5.94637 0
M  V30 57 N 11.9573 3.03247 -4.73284 0
M  V30 58 H 4.1083 0.167264 -2.1174 0
M  V30 59 H 6.3713 0.13682 -0.938075 0
M  V30 60 H 6.0773 1.08571 -3.34522 0
M  V30 61 H 5.9513 2.6896 -2.64462 0
M  V30 62 H 8.3383 2.41884 -1.69045 0
M  V30 63 H 8.4193 0.811532 -2.42586 0
M  V30 64 H 8.0633 1.86895 -4.72263 0
M  V30 65 H 7.9933 3.47561 -3.95612 0
M  V30 66 H 10.4843 2.17672 -3.08913 0
M  V30 67 H 10.7973 3.92562 -6.65669 0
M  V30 68 H 9.1423 3.5364 -5.98301 0
M  V30 69 H 12.3333 2.62696 -3.87438 0
M  V30 70 H 12.5063 3.42467 -5.50109 0
M  V30 71 N 5.9124 1.20967 1.01018 0
M  V30 72 C 7.1404 1.04956 1.78303 0
M  V30 73 C 7.5554 -0.400915 1.84494 0
M  V30 74 O 6.9124 -1.27826 1.30257 0
M  V30 75 C 6.9634 1.63403 3.22462 0
M  V30 76 O 6.6844 3.02775 3.16637 0
M  V30 77 C 8.1854 1.52432 4.16268 0
M  V30 78 H 5.4054 0.368858 0.560522 0
M  V30 79 H 7.9494 1.60193 1.27116 0
M  V30 80 H 6.1044 1.1227 3.70775 0
M  V30 81 H 6.5184 3.30626 4.07169 0
M  V30 82 H 7.9924 1.98078 5.15237 0
M  V30 83 H 8.4694 0.477875 4.36592 0
M  V30 84 H 9.0754 2.02787 3.73841 0
M  V30 85 N 7.3905 -1.2043 1.01659 0
M  V30 86 C 8.6155 -1.94318 0.724942 0
M  V30 87 C 9.0405 -1.74266 -0.708034 0
M  V30 88 O 8.3985 -1.03694 -1.48719 0
M  V30 89 C 8.4465 -3.44486 1.06591 0
M  V30 90 O 7.5505 -4.12017 0.177599 0
M  V30 91 H 6.8915 -0.60708 0.26898 0
M  V30 92 H 9.4215 -1.52861 1.35995 0
M  V30 93 H 9.4315 -3.95106 1.01762 0
M  V30 94 H 8.1065 -3.58404 2.10997 0
M  V30 95 H 6.6835 -3.71821 0.283421 0
M  V30 96 N 8.8686 -0.792821 -1.36206 0
M  V30 97 C 10.2796 -0.429513 -1.81692 0
M  V30 98 C 10.6306 1.04695 -1.65932 0
M  V30 99 O 9.7556 1.81256 -1.18218 0
M  V30 100 C 10.3506 -0.772831 -3.29868 0
M  V30 101 C 8.9096 -0.462307 -3.7355 0
M  V30 102 C 8.0566 -1.00569 -2.5842 0
M  V30 103 H 11.0076 -0.985672 -1.24379 0
M  V30 104 H 11.0286 -0.0651928 -3.80444 0
M  V30 105 H 10.5406 -1.84747 -3.41307 0
M  V30 106 H 8.6416 0.604158 -3.67669 0
M  V30 107 H 8.7546 -0.985299 -4.68859 0
M  V30 108 H 7.1186 -0.428734 -2.51066 0
M  V30 109 H 7.9016 -2.08616 -2.72643 0
M  V30 110 N 10.3467 1.47872 -0.545128 0
M  V30 111 C 11.3097 2.28337 0.198717 0
M  V30 112 C 12.3097 1.36255 0.853888 0
M  V30 113 O 13.4997 1.59003 0.711606 0
M  V30 114 C 10.6317 3.15585 1.28915 0
M  V30 115 H 11.8247 2.95567 -0.507941 0
M  V30 116 H 9.3777 1.53362 -0.301616 0
M  V30 117 H 10.1127 2.53019 2.02859 0
M  V30 118 H 9.8977 3.83337 0.824309 0
M  V30 119 H 11.3877 3.76243 1.81194 0
M  V30 120 N 11.8248 0.280983 1.55075 0
M  V30 121 C 13.2358 -0.215629 1.85451 0
M  V30 122 C 13.5868 -1.54991 1.203 0
M  V30 123 O 12.7118 -2.10699 0.493435 0
M  V30 124 C 13.3068 -0.398026 3.36454 0
M  V30 125 C 11.8658 -0.838866 3.66933 0
M  V30 126 C 11.0128 0.064458 2.77225 0
M  V30 127 H 13.9638 0.502601 1.50531 0
M  V30 128 H 13.9848 -1.23569 3.59876 0
M  V30 129 H 13.4968 0.573241 3.83843 0
M  V30 130 H 11.5978 -1.8214 3.25048 0
M  V30 131 H 11.7108 -0.672123 4.74362 0
M  V30 132 H 10.0748 -0.452863 2.50642 0
M  V30 133 H 10.8578 1.03172 3.2743 0
M  V30 134 N 13.3029 -1.57598 0.00835791 0
M  V30 135 C 14.2659 -2.07884 -0.965242 0
M  V30 136 C 15.2659 -0.989825 -1.26725 0
M  V30 137 O 16.4559 -1.25218 -1.21104 0
M  V30 138 C 13.5879 -2.52731 -2.28779 0
M  V30 139 H 14.7809 -2.95178 -0.530112 0
M  V30 140 H 12.3339 -1.54458 -0.239283 0
M  V30 141 H 13.0689 -1.68705 -2.76964 0
M  V30 142 H 12.8539 -3.32272 -2.08177 0
M  V30 143 H 14.3439 -2.91933 -2.98605 0
M  V30 144 N 14.781 0.264519 -1.55364 0
M  V30 145 C 16.029 0.993021 -1.76021 0
M  V30 146 C 16.35 1.86511 -0.569099 0
M  V30 147 O 15.62 1.91438 0.415735 0
M  V30 148 H 14.2 0.369639 -0.649135 0
M  V30 149 H 16.862 0.286707 -1.9278 0
M  V30 150 H 15.958 1.62502 -2.66457 0
M  V30 151 N 16.2591 1.48442 0.529413 0
M  V30 152 C 17.1891 1.65902 1.64313 0
M  V30 153 C 18.1701 0.507897 1.6234 0
M  V30 154 O 19.3551 0.740503 1.79528 0
M  V30 155 C 16.4851 1.69911 3.02898 0
M  V30 156 C 15.4391 2.8453 3.19729 0
M  V30 157 C 14.7651 2.73629 4.59381 0
M  V30 158 C 16.0651 4.25821 3.02447 0
M  V30 159 H 17.7591 2.5914 1.49955 0
M  V30 160 H 15.3051 1.24709 0.719982 0
M  V30 161 H 17.2581 1.80715 3.80684 0
M  V30 162 H 15.9821 0.732524 3.18279 0
M  V30 163 H 14.6411 2.73283 2.44361 0
M  V30 164 H 14.2891 1.74938 4.71599 0
M  V30 165 H 13.9891 3.50541 4.71588 0
M  V30 166 H 15.5131 2.86401 5.39265 0
M  V30 167 H 16.9271 4.37898 3.70024 0
M  V30 168 H 15.3241 5.03735 3.26146 0
M  V30 169 H 16.3941 4.42244 1.98867 0
M  V30 170 N 17.7372 -0.778329 1.37039 0
M  V30 171 C 18.6672 -1.90546 1.34962 0
M  V30 172 C 19.6482 -1.68681 0.219274 0
M  V30 173 O 20.8332 -1.89634 0.418624 0
M  V30 174 C 17.9632 -3.27734 1.14925 0
M  V30 175 C 16.9172 -3.64147 2.24902 0
M  V30 176 C 16.2432 -4.99806 1.89996 0
M  V30 177 C 17.5432 -3.71579 3.67051 0
M  V30 178 H 19.2372 -1.92541 2.29277 0
M  V30 179 H 16.7832 -0.924948 1.10366 0
M  V30 180 H 18.7362 -4.06215 1.12104 0
M  V30 181 H 17.4602 -3.26154 0.170631 0
M  V30 182 H 16.1192 -2.8797 2.26868 0
M  V30 183 H 15.7672 -4.94759 0.906796 0
M  V30 184 H 15.4672 -5.25139 2.63634 0
M  V30 185 H 16.9912 -5.80694 1.88749 0
M  V30 186 H 18.4052 -4.40227 3.67251 0
M  V30 187 H 16.8022 -4.08405 4.39688 0
M  V30 188 H 17.8722 -2.72404 4.01154 0
M  V30 189 N 19.2153 -1.21501 -1.00376 0
M  V30 190 C 20.6313 -0.972629 -1.26539 0
M  V30 191 C 20.8313 0.340257 -1.98606 0
M  V30 192 O 19.8873 1.06561 -2.28913 0
M  V30 193 C 21.2003 -2.16404 -2.08781 0
M  V30 194 C 22.7483 -2.20643 -2.22004 0
M  V30 195 C 23.2233 -3.39306 -3.07629 0
M  V30 196 N 24.7143 -3.39401 -3.15217 0
M  V30 197 C 25.4493 -4.27867 -3.81729 0
M  V30 198 N 24.9453 -5.26533 -4.5026 0
M  V30 199 N 26.7383 -4.15672 -3.78382 0
M  V30 200 H 18.8893 -2.05929 -0.520281 0
M  V30 201 H 21.1523 -0.901803 -0.292328 0
M  V30 202 H 20.8583 -3.11554 -1.63178 0
M  V30 203 H 20.7323 -2.15567 -3.09533 0
M  V30 204 H 23.1193 -1.26048 -2.66825 0
M  V30 205 H 23.2003 -2.25523 -1.20718 0
M  V30 206 H 22.8443 -4.34195 -2.63509 0
M  V30 207 H 22.7743 -3.31665 -4.09031 0
M  V30 208 H 25.2653 -2.67997 -2.66432 0
M  V30 209 H 25.5783 -5.90337 -4.98721 0
M  V30 210 H 23.9233 -5.30457 -4.49044 0
M  V30 211 H 27.1143 -3.3785 -3.23998 0
M  V30 212 H 27.2873 -4.84825 -4.2994 0
M  V30 213 N 20.6934 1.19889 -1.02296 0
M  V30 214 C 22.1044 1.71124 -0.746568 0
M  V30 215 C 22.4554 1.81939 0.734335 0
M  V30 216 O 21.5804 1.48639 1.57275 0
M  V30 217 C 22.1754 3.10804 -1.34857 0
M  V30 218 C 20.7344 3.59323 -1.1209 0
M  V30 219 C 19.8814 2.3635 -1.45031 0
M  V30 220 H 22.8324 1.04813 -1.19163 0
M  V30 221 H 22.8534 3.73186 -0.742437 0
M  V30 222 H 22.3654 3.029 -2.42638 0
M  V30 223 H 20.4664 3.7255 -0.0610337 0
M  V30 224 H 20.5794 4.4378 -1.80544 0
M  V30 225 H 18.9434 2.39399 -0.869487 0
M  V30 226 H 19.7264 2.31081 -2.53883 0
M  V30 227 N 22.1715 0.800033 1.35784 0
M  V30 228 C 23.3965 0.388511 2.03729 0
M  V30 229 C 23.8215 -0.990481 1.5991 0
M  V30 230 O 23.1795 -1.64013 0.772612 0
M  V30 231 C 23.2275 0.4726 3.5749 0
M  V30 232 O 22.3315 -0.51646 4.09153 0
M  V30 233 H 21.6725 0.163271 0.643614 0
M  V30 234 H 24.2025 1.0841 1.73518 0
M  V30 235 H 24.2125 0.34003 4.06581 0
M  V30 236 H 22.8875 1.47848 3.88734 0
M  V30 237 H 21.4645 -0.344673 3.71304 0
M  V30 238 N 23.6496 -1.47581 0.552962 0
M  V30 239 C 24.5796 -2.32762 -0.185451 0
M  V30 240 C 25.5606 -1.43527 -0.912905 0
M  V30 241 O 26.7456 -1.72388 -0.894201 0
M  V30 242 C 23.8756 -3.25219 -1.21859 0
M  V30 243 C 22.8296 -4.23661 -0.607864 0
M  V30 244 C 22.1556 -5.05413 -1.74533 0
M  V30 245 C 23.4556 -5.20481 0.435582 0
M  V30 246 H 25.1496 -2.94749 0.525684 0
M  V30 247 H 22.6956 -1.41738 0.254251 0
M  V30 248 H 24.6486 -3.8365 -1.7433 0
M  V30 249 H 23.3726 -2.61279 -1.95961 0
M  V30 250 H 22.0316 -3.66451 -0.104489 0
M  V30 251 H 21.6796 -4.3788 -2.47529 0
M  V30 252 H 21.3796 -5.72059 -1.34249 0
M  V30 253 H 22.9036 -5.66701 -2.27338 0
M  V30 254 H 24.3176 -5.733 -0.00290157 0
M  V30 255 H 22.7146 -5.95305 0.757067 0
M  V30 256 H 23.7846 -4.66217 1.33303 0
M  V30 257 N 25.1277 -0.289203 -1.54924 0
M  V30 258 C 26.0777 0.606939 -2.19773 0
M  V30 259 C 27.0617 1.10783 -1.16687 0
M  V30 260 O 28.2537 1.05057 -1.4245 0
M  V30 261 C 25.3827 1.78398 -2.93307 0
M  V30 262 C 24.4687 1.29961 -4.03697 0
M  V30 263 N 24.8597 0.532377 -5.0299 0
M  V30 264 C 23.1577 1.58136 -4.17024 0
M  V30 265 C 23.8587 0.275912 -5.81045 0
M  V30 266 N 22.8347 0.852365 -5.36876 0
M  V30 267 H 26.6367 0.0130779 -2.93897 0
M  V30 268 H 24.1507 -0.09341 -1.62131 0
M  V30 269 H 26.1477 2.43741 -3.38225 0
M  V30 270 H 24.8077 2.38166 -2.20697 0
M  V30 271 H 25.8187 0.17838 -5.17593 0
M  V30 272 H 22.4957 2.18738 -3.55612 0
M  V30 273 H 23.8857 -0.339502 -6.71042 0
M  V30 274 N 26.6058 1.57591 -0.0167156 0
M  V30 275 C 27.8458 1.93145 0.668902 0
M  V30 276 C 28.2098 0.892406 1.7 0
M  V30 277 O 29.4108 1.13373 2.43721 0
M  V30 278 C 27.6818 3.33678 1.28039 0
M  V30 279 S 29.2408 3.91142 1.9888 0
M  V30 280 H 26.0588 0.67593 0.220545 0
M  V30 281 H 28.6608 1.95347 -0.0774105 0
M  V30 282 H 27.3648 4.07126 0.517339 0
M  V30 283 H 26.8958 3.3489 2.06427 0
M  V30 284 H 28.9108 3.73571 3.26587 0
M  V30 285 N 28.0839 -0.256276 1.55502 0
M  V30 286 C 29.0139 -1.32102 1.92539 0
M  V30 287 C 29.9949 -1.50684 0.789194 0
M  V30 288 O 31.1799 -1.63449 1.04872 0
M  V30 289 C 28.3099 -2.67752 2.21192 0
M  V30 290 C 27.2639 -2.63878 3.36975 0
M  V30 291 C 26.5899 -4.03236 3.51147 0
M  V30 292 C 27.8899 -2.21682 4.72921 0
M  V30 293 H 29.5839 -1.01351 2.81724 0
M  V30 294 H 27.1299 -0.486105 1.35547 0
M  V30 295 H 29.0829 -3.42365 2.45691 0
M  V30 296 H 27.8069 -3.0012 1.28824 0
M  V30 297 H 26.4659 -1.91722 3.12471 0
M  V30 298 H 26.1139 -4.32854 2.56216 0
M  V30 299 H 25.8139 -4.01535 4.29003 0
M  V30 300 H 27.3379 -4.79563 3.77957 0
M  V30 301 H 28.7519 -2.86023 4.96854 0
M  V30 302 H 27.1489 -2.3111 5.53812 0
M  V30 303 H 28.2189 -1.16833 4.70615 0
M  V30 304 N 29.562 -1.4872 -0.521534 0
M  V30 305 C 30.525 -1.63379 -1.60748 0
M  V30 306 C 31.525 -0.50661 -1.52611 0
M  V30 307 O 32.715 -0.772601 -1.5613 0
M  V30 308 C 29.847 -1.61192 -3.00383 0
M  V30 309 H 31.04 -2.60217 -1.49087 0
M  V30 310 H 28.593 -1.37444 -0.744235 0
M  V30 311 H 29.328 -0.65863 -3.17541 0
M  V30 312 H 29.113 -2.43032 -3.07698 0
M  V30 313 H 30.603 -1.7466 -3.7932 0
M  V30 314 N 31.0401 0.771051 -1.3745 0
M  V30 315 C 32.2871 1.52963 -1.32697 0
M  V30 316 C 32.6151 1.94299 0.0883274 0
M  V30 317 O 31.8701 1.64397 1.0617 0
M  V30 318 C 32.1691 2.80676 -2.2126 0
M  V30 319 C 31.8351 2.58389 -3.69521 0
M  V30 320 C 30.4971 2.52019 -4.09927 0
M  V30 321 C 32.8491 2.38469 -4.63446 0
M  V30 322 C 30.1771 2.23721 -5.42371 0
M  V30 323 C 32.5291 2.11694 -5.96128 0
M  V30 324 C 31.1931 2.03769 -6.35637 0
M  V30 325 H 30.4631 0.559732 -0.485573 0
M  V30 326 H 33.1101 0.888083 -1.69662 0
M  V30 327 H 31.4151 3.49392 -1.77291 0
M  V30 328 H 33.1121 3.38557 -2.14895 0
M  V30 329 H 29.7021 2.6421 -3.37478 0
M  V30 330 H 33.8861 2.4238 -4.33089 0
M  V30 331 H 29.1421 2.16081 -5.71943 0
M  V30 332 H 33.3161 1.9528 -6.6846 0
M  V30 333 H 30.9431 1.81606 -7.38189 0
M  V30 334 N 32.5182 1.22032 0.997298 0
M  V30 335 C 33.4812 0.987909 2.06816 0
M  V30 336 C 34.4812 -0.0440084 1.6074 0
M  V30 337 O 35.6712 0.194053 1.73116 0
M  V30 338 C 32.8032 0.49132 3.37341 0
M  V30 339 H 33.9962 1.93803 2.28868 0
M  V30 340 H 31.5492 1.03838 1.16822 0
M  V30 341 H 32.2842 -0.463364 3.20973 0
M  V30 342 H 32.0692 1.23575 3.72118 0
M  V30 343 H 33.5592 0.348824 4.16141 0
M  V30 344 N 33.9963 -1.19345 1.0293 0
M  V30 345 C 35.2423 -1.89318 0.727083 0
M  V30 346 C 35.5753 -1.79446 -0.742483 0
M  V30 347 O 34.8503 -1.1871 -1.54072 0
M  V30 348 C 35.1333 -3.40238 1.17942 0
M  V30 349 C 34.9863 -3.58979 2.71024 0
M  V30 350 C 36.3053 -4.33479 0.760548 0
M  V30 351 H 33.4243 -0.687475 0.265606 0
M  V30 352 H 36.0663 -1.40477 1.2793 0
M  V30 353 H 34.2163 -3.81964 0.709608 0
M  V30 354 H 35.8883 -3.26421 3.25955 0
M  V30 355 H 34.1313 -3.02018 3.11396 0
M  V30 356 H 34.8023 -4.64823 2.9773 0
M  V30 357 H 37.2783 -3.99469 1.16464 0
M  V30 358 H 36.1543 -5.37664 1.10493 0
M  V30 359 H 36.4153 -4.40813 -0.337063 0
M  V30 360 N 35.4744 -0.807222 -1.35358 0
M  V30 361 C 36.4374 -0.223665 -2.28106 0
M  V30 362 C 37.4374 0.589354 -1.4961 0
M  V30 363 O 38.6274 0.407745 -1.69361 0
M  V30 364 C 35.7594 0.688149 -3.33882 0
M  V30 365 H 36.9524 -1.04169 -2.81227 0
M  V30 366 H 34.5054 -0.577921 -1.45223 0
M  V30 367 H 35.2404 1.52984 -2.85948 0
M  V30 368 H 35.0254 0.10687 -3.91954 0
M  V30 369 H 36.5154 1.09075 -4.03104 0
M  V30 370 N 36.9525 1.47285 -0.560781 0
M  V30 371 C 37.8825 2.32857 0.173105 0
M  V30 372 C 38.8635 1.44009 0.905281 0
M  V30 373 O 40.0485 1.7286 0.885046 0
M  V30 374 C 37.1785 3.25861 1.20133 0
M  V30 375 C 36.1325 4.23978 0.585388 0
M  V30 376 C 35.4585 5.06332 1.7185 0
M  V30 377 C 36.7585 5.20242 -0.463178 0
M  V30 378 H 38.4525 2.94466 -0.541307 0
M  V30 379 H 35.9985 1.41601 -0.261764 0
M  V30 380 H 37.9515 3.84569 1.72293 0
M  V30 381 H 36.6755 2.62315 1.94573 0
M  V30 382 H 35.3345 3.66501 0.085054 0
M  V30 383 H 34.9825 4.39186 2.45203 0
M  V30 384 H 34.6825 5.72762 1.31213 0
M  V30 385 H 36.2065 5.67899 2.24329 0
M  V30 386 H 37.6205 5.73293 -0.027502 0
M  V30 387 H 36.0175 5.94896 -0.788627 0
M  V30 388 H 37.0875 4.65504 -1.35773 0
M  V30 389 N 38.4306 0.297415 1.54768 0
M  V30 390 C 39.6786 -0.312295 1.99673 0
M  V30 391 C 39.9996 -1.54686 1.18732 0
M  V30 392 O 39.2696 -1.93854 0.282382 0
M  V30 393 H 37.8496 -0.118381 0.73756 0
M  V30 394 H 40.5116 0.407915 1.90583 0
M  V30 395 H 39.6076 -0.586813 3.06534 0
M  V30 396 N 39.9087 -1.5758 0.0250728 0
M  V30 397 C 41.1337 -1.96337 -0.668317 0
M  V30 398 C 41.5587 -0.901314 -1.651 0
M  V30 399 O 40.9167 0.138187 -1.80773 0
M  V30 400 C 40.9647 -3.34191 -1.35457 0
M  V30 401 O 40.0687 -3.30269 -2.46974 0
M  V30 402 H 39.4097 -0.640281 -0.175887 0
M  V30 403 H 41.9397 -2.0442 0.0857224 0
M  V30 404 H 41.9497 -3.70331 -1.71228 0
M  V30 405 H 40.6247 -4.11036 -0.634218 0
M  V30 406 H 39.2017 -3.05841 -2.13344 0
M  V30 407 N 41.3868 0.248026 -1.55636 0
M  V30 408 C 42.3498 1.29044 -1.89421 0
M  V30 409 C 43.3498 1.41134 -0.770581 0
M  V30 410 O 44.5398 1.39854 -1.03858 0
M  V30 411 C 41.6718 2.66831 -2.12165 0
M  V30 412 H 42.8648 1.00305 -2.82629 0
M  V30 413 H 40.4178 0.487265 -1.48511 0
M  V30 414 H 41.1528 3.00711 -1.21422 0
M  V30 415 H 40.9378 2.59438 -2.93997 0
M  V30 416 H 42.4278 3.42103 -2.3949 0
M  V30 417 N 42.8649 1.48995 0.513639 0
M  V30 418 C 44.1129 1.57531 1.26604 0
M  V30 419 C 44.4339 0.258236 1.93283 0
M  V30 420 O 43.7039 -0.721502 1.8213 0
M  V30 421 H 42.2839 0.580387 0.470276 0
M  V30 422 H 44.9459 1.85552 0.596373 0
M  V30 423 H 44.0419 2.36486 2.03669 0
M  V30 424 N 44.343 -0.763751 1.37857 0
M  V30 425 C 45.306 -1.85889 1.34081 0
M  V30 426 C 46.306 -1.58949 0.243277 0
M  V30 427 O 47.496 -1.66882 0.499589 0
M  V30 428 C 44.628 -3.23176 1.08489 0
M  V30 429 H 45.821 -1.90648 2.31502 0
M  V30 430 H 43.374 -0.964367 1.23003 0
M  V30 431 H 44.109 -3.24091 0.116318 0
M  V30 432 H 43.894 -3.44124 1.8794 0
M  V30 433 H 45.384 -4.03254 1.08517 0
M  V30 434 N 45.8211 -1.22559 -0.990812 0
M  V30 435 C 46.7841 -0.998863 -2.0629 0
M  V30 436 C 47.7841 0.0354834 -1.60761 0
M  V30 437 O 48.9741 -0.203231 -1.7301 0
M  V30 438 C 46.1061 -0.509203 -3.37076 0
M  V30 439 H 47.2991 -1.95014 -2.27837 0
M  V30 440 H 44.8521 -1.04456 -1.16269 0
M  V30 441 H 45.5871 0.446335 -3.21214 0
M  V30 442 H 45.3721 -1.25547 -3.71457 0
M  V30 443 H 46.8621 -0.370888 -4.1595 0
M  V30 444 N 47.2992 1.18797 -1.03562 0
M  V30 445 C 48.2292 2.24472 -0.643019 0
M  V30 446 C 49.2102 1.66433 0.351283 0
M  V30 447 O 50.3952 1.92803 0.232505 0
M  V30 448 C 47.5252 3.473 4.24935e-05 0
M  V30 449 C 46.4792 4.18055 -0.917257 0
M  V30 450 C 45.8052 5.34519 -0.138941 0
M  V30 451 C 47.1052 4.72109 -2.23407 0
M  V30 452 H 48.7992 2.57566 -1.52643 0
M  V30 453 H 46.3452 1.23806 -0.735394 0
M  V30 454 H 48.2982 4.20426 0.286383 0
M  V30 455 H 47.0222 3.13424 0.918299 0
M  V30 456 H 45.6812 3.46821 -1.1879 0
M  V30 457 H 45.3292 4.96891 0.781562 0
M  V30 458 H 45.0292 5.82794 -0.750005 0
M  V30 459 H 46.5532 6.10438 0.1405 0
M  V30 460 H 47.9672 5.36955 -2.00879 0
M  V30 461 H 46.3642 5.30897 -2.79765 0
M  V30 462 H 47.4342 3.89807 -2.88407 0
M  V30 463 N 48.7773 0.814389 1.34928 0
M  V30 464 C 49.7403 0.235759 2.27984 0
M  V30 465 C 50.7403 -0.581412 1.49921 0
M  V30 466 O 51.9303 -0.398758 1.69575 0
M  V30 467 C 49.0623 -0.670433 3.34242 0
M  V30 468 H 50.2553 1.05659 2.80671 0
M  V30 469 H 47.8083 0.585614 1.44915 0
M  V30 470 H 48.5433 -1.51466 2.86755 0
M  V30 471 H 48.3283 -0.0860822 3.92005 0
M  V30 472 H 49.8183 -1.06935 4.03676 0
M  V30 473 N 50.2554 -1.46986 0.568584 0
M  V30 474 C 51.2024 -2.30153 -0.172707 0
M  V30 475 C 52.1724 -1.39759 -0.897586 0
M  V30 476 O 53.3574 -1.68716 -0.891044 0
M  V30 477 C 50.4974 -3.23952 -1.1895 0
M  V30 478 C 49.6104 -4.29441 -0.469517 0
M  V30 479 C 48.7454 -5.1038 -1.47259 0
M  V30 480 C 47.7844 -6.07632 -0.738225 0
M  V30 481 N 46.9214 -6.8149 -1.68868 0
M  V30 482 H 51.7614 -2.93019 0.542596 0
M  V30 483 H 49.2984 -1.44422 0.279401 0
M  V30 484 H 51.2564 -3.76767 -1.79173 0
M  V30 485 H 49.8864 -2.62926 -1.87269 0
M  V30 486 H 48.9384 -3.79594 0.247467 0
M  V30 487 H 50.2504 -4.98689 0.105241 0
M  V30 488 H 49.4044 -5.67402 -2.14803 0
M  V30 489 H 48.1434 -4.4106 -2.08128 0
M  V30 490 H 47.1484 -5.49778 -0.0489293 0
M  V30 491 H 48.3734 -6.78966 -0.135129 0
M  V30 492 H 46.3194 -6.14891 -2.28573 0
M  V30 493 H 46.2364 -7.46948 -1.16636 0
M  V30 494 H 47.5044 -7.43078 -2.3549 0
M  V30 495 N 51.7335 -0.305618 -1.54608 0
M  V30 496 C 53.0105 0.355652 -1.92339 0
M  V30 497 C 53.3905 1.71324 -1.23335 0
M  V30 498 O 52.7385 2.25473 -0.370702 0
M  V30 499 C 52.9485 0.46572 -3.45879 0
M  V30 500 C 54.2965 0.734426 -4.182 0
M  V30 501 O 55.3205 0.54935 -3.51938 0
M  V30 502 O 54.1795 1.09024 -5.35515 0
M  V30 503 H 51.2735 0.199666 -0.802535 0
M  V30 504 H 53.8195 -0.354017 -1.65966 0
M  V30 505 H 52.5915 -0.488461 -3.88239 0
M  V30 506 H 52.2145 1.22367 -3.78301 0
M  V30 507 N 53.2116 1.57565 -0.0334293 0
M  V30 508 C 54.4576 1.92262 0.645226 0
M  V30 509 C 54.7906 0.910543 1.71531 0
M  V30 510 O 54.0656 -0.066099 1.94388 0
M  V30 511 C 54.3486 3.37422 1.2577 0
M  V30 512 C 54.2016 4.49369 0.196891 0
M  V30 513 C 55.5206 3.82628 2.17449 0
M  V30 514 H 52.6396 0.699171 0.233085 0
M  V30 515 H 55.2816 1.89779 -0.0915694 0
M  V30 516 H 53.4316 3.39669 1.88566 0
M  V30 517 H 55.1036 4.59254 -0.433962 0
M  V30 518 H 53.3466 4.31168 -0.477137 0
M  V30 519 H 54.0176 5.47978 0.665124 0
M  V30 520 H 56.4936 3.82145 1.64634 0
M  V30 521 H 55.3696 4.84883 2.57254 0
M  V30 522 H 55.6306 3.18376 3.0674 0
M  V30 523 N 54.6897 -0.239769 1.55765 0
M  V30 524 C 55.9177 -0.98417 1.81994 0
M  V30 525 C 56.3327 -1.7867 0.610124 0
M  V30 526 O 55.6897 -1.77571 -0.421271 0
M  V30 527 C 55.7407 -1.91635 3.06526 0
M  V30 528 O 55.4617 -1.14629 4.22838 0
M  V30 529 C 56.9627 -2.77616 3.45607 0
M  V30 530 H 54.1827 -0.28928 0.605441 0
M  V30 531 H 56.7267 -0.260499 2.02834 0
M  V30 532 H 54.8817 -2.5942 2.87715 0
M  V30 533 H 55.2957 -1.77745 4.93464 0
M  V30 534 H 56.7697 -3.38759 4.35828 0
M  V30 535 H 57.2467 -3.4909 2.6652 0
M  V30 536 H 57.8527 -2.15271 3.66795 0
M  V30 537 N 56.1678 -1.49265 -0.50573 0
M  V30 538 C 57.4138 -1.59723 -1.25937 0
M  V30 539 C 57.7688 -0.278236 -1.90378 0
M  V30 540 O 57.0618 0.72113 -1.77511 0
M  V30 541 C 57.2558 -2.69008 -2.35308 0
M  V30 542 C 57.0848 -4.11405 -1.81592 0
M  V30 543 C 55.8548 -4.78252 -1.63105 0
M  V30 544 C 58.0528 -4.96792 -1.33048 0
M  V30 545 N 56.0348 -6.0498 -1.04269 0
M  V30 546 C 57.4058 -6.13962 -0.863168 0
M  V30 547 C 59.4608 -4.82828 -1.21577 0
M  V30 548 C 58.1638 -7.18705 -0.292489 0
M  V30 549 C 60.1898 -5.87716 -0.65907 0
M  V30 550 C 59.5518 -7.0411 -0.201954 0
M  V30 551 H 55.6508 -0.638864 -0.450973 0
M  V30 552 H 58.2348 -1.86251 -0.567326 0
M  V30 553 H 56.4058 -2.4426 -3.01979 0
M  V30 554 H 58.1378 -2.69013 -3.02348 0
M  V30 555 H 54.8928 -4.34974 -1.87336 0
M  V30 556 H 55.3168 -6.72631 -0.767919 0
M  V30 557 H 59.9588 -3.93159 -1.55518 0
M  V30 558 H 57.6768 -8.08078 0.0591987 0
M  V30 559 H 61.2628 -5.7897 -0.573156 0
M  V30 560 H 60.1428 -7.83885 0.222101 0
M  V30 561 N 57.6459 0.756429 -1.3826 0
M  V30 562 C 58.5559 1.9009 -1.37488 0
M  V30 563 C 59.5719 1.71855 -0.272366 0
M  V30 564 O 60.7479 1.94827 -0.510318 0
M  V30 565 C 57.8129 3.25421 -1.19592 0
M  V30 566 C 56.8739 3.56202 -2.39622 0
M  V30 567 C 56.1069 4.85075 -2.2257 0
M  V30 568 O 56.3299 5.57246 -1.21793 0
M  V30 569 O 55.2639 5.15269 -3.11098 0
M  V30 570 H 59.0899 1.93695 -2.33914 0
M  V30 571 H 56.6749 0.901313 -1.1915 0
M  V30 572 H 58.5569 4.06337 -1.11661 0
M  V30 573 H 57.2319 3.22634 -0.262486 0
M  V30 574 H 56.1389 2.75458 -2.53128 0
M  V30 575 H 57.4719 3.63747 -3.31586 0
M  V30 576 N 59.124 1.23083 0.984299 0
M  V30 577 C 60.401 0.9689 1.69917 0
M  V30 578 C 60.781 -0.513604 2.04757 0
M  V30 579 O 60.129 -1.48383 1.73767 0
M  V30 580 C 60.339 1.87518 2.94343 0
M  V30 581 C 61.687 2.13636 3.6694 0
M  V30 582 O 62.711 1.85036 3.04368 0
M  V30 583 O 61.57 2.62119 4.79537 0
M  V30 584 H 58.664 0.365095 0.742048 0
M  V30 585 H 61.21 1.34107 1.03987 0
M  V30 586 H 59.982 2.87756 2.65164 0
M  V30 587 H 59.605 1.50514 3.6801 0
M  V30 588 N 60.6021 -1.18246 1.0419 0
M  V30 589 C 61.8511 -1.87588 0.741194 0
M  V30 590 C 62.1641 -1.81303 -0.734066 0
M  V30 591 O 63.3701 -2.46019 -1.14834 0
M  V30 592 C 61.8261 -3.36538 1.27555 0
M  V30 593 C 61.4341 -3.51349 2.77953 0
M  V30 594 C 63.1781 -4.11273 1.05143 0
M  V30 595 C 61.0851 -4.94265 3.2474 0
M  V30 596 H 60.0151 -0.702622 0.273565 0
M  V30 597 H 62.6661 -1.33601 1.25789 0
M  V30 598 H 61.0481 -3.9 0.686703 0
M  V30 599 H 62.2221 -3.08153 3.42605 0
M  V30 600 H 60.5371 -2.90022 2.98791 0
M  V30 601 H 63.1341 -5.16689 1.37611 0
M  V30 602 H 63.4771 -4.16298 -0.0112774 0
M  V30 603 H 64.0101 -3.63987 1.60495 0
M  V30 604 H 60.7491 -4.94408 4.30396 0
M  V30 605 H 60.2691 -5.38172 2.64823 0
M  V30 606 H 61.9481 -5.62987 3.18834 0
M  V30 607 N 62.0802 -0.821533 -1.34494 0
M  V30 608 C 63.0432 -0.247847 -2.27856 0
M  V30 609 C 64.0432 0.573453 -1.50227 0
M  V30 610 O 65.2332 0.389759 -1.69784 0
M  V30 611 C 62.3652 0.652698 -3.34593 0
M  V30 612 H 63.5582 -1.07146 -2.80107 0
M  V30 613 H 61.1112 -0.593291 -1.44602 0
M  V30 614 H 61.8462 1.49943 -2.87555 0
M  V30 615 H 61.6312 0.065292 -3.92046 0
M  V30 616 H 63.1212 1.04793 -4.04238 0
M  V30 617 N 63.5583 1.46682 -0.576371 0
M  V30 618 C 64.5063 2.31953 0.17335 0
M  V30 619 C 65.5003 1.44098 0.89062 0
M  V30 620 O 66.7063 1.60759 0.809728 0
M  V30 621 H 63.0813 0.748273 0.0747727 0
M  V30 622 H 65.0523 2.93007 -0.564738 0
M  V30 623 C 63.8013 3.27142 1.17786 0
M  V30 624 H 63.1243 3.94719 0.635361 0
M  V30 625 H 64.5643 3.896 1.67296 0
M  V30 626 C 63.0233 2.52036 2.23561 0
M  V30 627 O 63.5533 2.27877 3.3081 0
M  V30 628 N 61.7593 2.12709 1.97998 0
M  V30 629 H 61.3063 2.32557 1.10792 0
M  V30 630 H 61.2643 1.62776 2.68982 0
M  V30 631 N 65.0364 0.313813 1.54444 0
M  V30 632 C 66.3134 -0.345447 1.92525 0
M  V30 633 C 66.6934 -1.70667 1.24242 0
M  V30 634 O 66.0414 -2.25273 0.382654 0
M  V30 635 C 66.2514 -0.44737 3.46121 0
M  V30 636 C 67.5994 -0.712238 4.18584 0
M  V30 637 O 68.6234 -0.530678 3.52225 0
M  V30 638 O 67.4824 -1.06183 5.36085 0
M  V30 639 H 64.5764 -0.195407 0.803583 0
M  V30 640 H 67.1224 0.362813 1.65776 0
M  V30 641 H 65.8944 0.509043 3.87975 0
M  V30 642 H 65.5174 -1.20359 3.78945 0
M  V30 643 N 66.5145 -1.57545 0.0417849 0
M  V30 644 C 67.7915 -1.83642 -0.673433 0
M  V30 645 C 68.1715 -0.928298 -1.89594 0
M  V30 646 O 67.5195 0.0129955 -2.28496 0
M  V30 647 C 67.7295 -3.33155 -1.03964 0
M  V30 648 C 69.0775 -3.99941 -1.42592 0
M  V30 649 O 70.1015 -3.37725 -1.13226 0
M  V30 650 O 68.9605 -5.09619 -1.9736 0
M  V30 651 H 66.0545 -0.757638 -0.331533 0
M  V30 652 H 68.6005 -1.69554 0.070433 0
M  V30 653 H 67.3725 -3.9093 -0.170098 0
M  V30 654 H 66.9955 -3.52396 -1.84126 0
M  V30 655 N 67.9926 0.231505 -1.5589 0
M  V30 656 C 68.9396 1.28682 -1.91598 0
M  V30 657 C 69.9096 1.47071 -0.771974 0
M  V30 658 O 71.0946 1.60802 -1.027 0
M  V30 659 C 68.2346 2.6342 -2.22944 0
M  V30 660 C 67.3476 2.52912 -3.50228 0
M  V30 661 C 66.4826 3.80106 -3.7107 0
M  V30 662 C 65.5216 3.64279 -4.91902 0
M  V30 663 N 64.6586 4.834 -5.09184 0
M  V30 664 H 69.4986 0.975305 -2.81588 0
M  V30 665 H 67.0356 0.470299 -1.39379 0
M  V30 666 H 68.9936 3.41869 -2.39126 0
M  V30 667 H 67.6236 2.92687 -1.36139 0
M  V30 668 H 66.6756 1.6595 -3.42294 0
M  V30 669 H 67.9876 2.37133 -4.38827 0
M  V30 670 H 67.1416 4.66999 -3.87295 0
M  V30 671 H 65.8806 3.98799 -2.80733 0
M  V30 672 H 64.8856 2.7577 -4.75637 0
M  V30 673 H 66.1106 3.47067 -5.83714 0
M  V30 674 H 64.0566 5.02425 -4.21788 0
M  V30 675 H 63.9736 4.70311 -5.91898 0
M  V30 676 H 65.2416 5.71747 -5.29835 0
M  V30 677 N 69.4707 1.49531 0.497807 0
M  V30 678 C 70.6987 1.62893 1.27567 0
M  V30 679 C 71.1137 0.301585 1.86376 0
M  V30 680 O 70.4707 -0.713335 1.67982 0
M  V30 681 C 70.5217 2.70013 2.40364 0
M  V30 682 O 70.2427 3.976 1.83972 0
M  V30 683 C 71.7437 2.94109 3.31685 0
M  V30 684 H 68.9637 0.548298 0.386794 0
M  V30 685 H 71.5077 1.95584 0.597245 0
M  V30 686 H 69.6627 2.40092 3.04031 0
M  V30 687 H 70.0767 4.56631 2.58047 0
M  V30 688 H 71.5507 3.72788 4.07104 0
M  V30 689 H 72.0277 2.04147 3.88871 0
M  V30 690 H 72.6337 3.2546 2.73781 0
M  V30 691 N 70.9488 -0.749086 1.3866 0
M  V30 692 C 72.1768 -1.53834 1.38358 0
M  V30 693 C 72.5918 -1.88783 -0.0255219 0
M  V30 694 O 71.9488 -1.53101 -0.993292 0
M  V30 695 C 71.9998 -2.83468 2.2434 0
M  V30 696 O 71.7208 -2.50008 3.5976 0
M  V30 697 C 73.2218 -3.7758 2.32267 0
M  V30 698 H 70.4418 -0.47585 0.473083 0
M  V30 699 H 72.9858 -0.926726 1.82297 0
M  V30 700 H 71.1408 -3.40995 1.83851 0
M  V30 701 H 71.5548 -3.33182 4.05081 0
M  V30 702 H 73.0288 -4.65478 2.96706 0
M  V30 703 H 73.5058 -4.18334 1.33765 0
M  V30 704 H 74.1118 -3.25976 2.73166 0
M  V30 705 N 72.4269 -1.23603 -0.977757 0
M  V30 706 C 73.6749 -1.06759 -1.71601 0
M  V30 707 C 73.9959 0.395929 -1.90938 0
M  V30 708 O 73.2659 1.28356 -1.47992 0
M  V30 709 H 71.8459 -0.392062 -0.635843 0
M  V30 710 H 74.5079 -1.55362 -1.1768 0
M  V30 711 H 73.6039 -1.55763 -2.70452 0
M  V30 712 N 73.905 1.17692 -1.04816 0
M  V30 713 C 75.182 1.83768 -0.669963 0
M  V30 714 C 75.562 1.93232 0.849986 0
M  V30 715 O 74.91 1.46397 1.75443 0
M  V30 716 C 75.12 3.21641 -1.35455 0
M  V30 717 C 76.468 3.97592 -1.49017 0
M  V30 718 O 77.492 3.31107 -1.31326 0
M  V30 719 O 76.351 5.16729 -1.77914 0
M  V30 720 H 73.445 0.792799 -0.235368 0
M  V30 721 H 75.991 1.25021 -1.14751 0
M  V30 722 H 74.763 3.097 -2.39168 0
M  V30 723 H 74.386 3.88052 -0.866107 0
M  V30 724 N 75.3831 0.828654 1.34056 0
M  V30 725 C 76.6291 0.42008 1.98402 0
M  V30 726 C 76.9621 -1.01564 1.65525 0
M  V30 727 O 76.2371 -1.70834 0.929831 0
M  V30 728 C 76.5201 0.62927 3.54559 0
M  V30 729 C 76.3731 2.11152 3.97159 0
M  V30 730 C 77.6921 0.0688756 4.40046 0
M  V30 731 H 74.8111 0.154104 0.720709 0
M  V30 732 H 77.4531 1.04228 1.5886 0
M  V30 733 H 75.6031 0.0996418 3.88372 0
M  V30 734 H 77.2751 2.70522 3.73651 0
M  V30 735 H 75.5181 2.59985 3.47261 0
M  V30 736 H 76.1891 2.20868 5.05887 0
M  V30 737 H 78.6651 0.521458 4.1282 0
M  V30 738 H 77.5411 0.245006 5.48353 0
M  V30 739 H 77.8021 -1.0266 4.30015 0
M  V30 740 N 76.8612 -1.46375 0.584142 0
M  V30 741 C 77.7912 -2.33103 -0.136037 0
M  V30 742 C 78.7722 -1.45431 -0.882255 0
M  V30 743 O 79.9572 -1.74246 -0.857434 0
M  V30 744 C 77.0872 -3.27731 -1.14933 0
M  V30 745 C 76.0412 -4.24855 -0.517862 0
M  V30 746 C 75.3672 -5.09001 -1.63773 0
M  V30 747 C 76.6672 -5.19439 0.545886 0
M  V30 748 H 78.3612 -2.93568 0.588086 0
M  V30 749 H 75.9072 -1.41166 0.284259 0
M  V30 750 H 77.8602 -3.87261 -1.66153 0
M  V30 751 H 76.5842 -2.65377 -1.90375 0
M  V30 752 H 75.2432 -3.6659 -0.0267361 0
M  V30 753 H 74.8912 -4.43031 -2.38185 0
M  V30 754 H 74.5912 -5.74777 -1.22085 0
M  V30 755 H 76.1152 -5.71396 -2.15266 0
M  V30 756 H 77.5292 -5.73177 0.118704 0
M  V30 757 H 75.9262 -5.93566 0.88317 0
M  V30 758 H 76.9962 -4.63285 1.43162 0
M  V30 759 N 78.3393 -0.321999 -1.54275 0
M  V30 760 C 79.2713 0.578671 -2.21775 0
M  V30 761 C 80.2843 1.08109 -1.21722 0
M  V30 762 O 81.4733 0.994938 -1.482 0
M  V30 763 C 78.5733 1.80661 -2.86731 0
M  V30 764 C 77.7463 1.44314 -4.12907 0
M  V30 765 C 76.8053 2.52845 -4.61472 0
M  V30 766 O 75.8313 2.17054 -5.2619 0
M  V30 767 N 77.0333 3.83748 -4.35566 0
M  V30 768 H 79.7983 0.000709447 -2.997 0
M  V30 769 H 77.3593 -0.145132 -1.61248 0
M  V30 770 H 79.3513 2.52655 -3.16145 0
M  V30 771 H 77.9213 2.29245 -2.12521 0
M  V30 772 H 77.1413 0.554906 -3.90275 0
M  V30 773 H 78.4293 1.17598 -4.95023 0
M  V30 774 H 77.8273 4.15625 -3.83761 0
M  V30 775 H 76.3843 4.51977 -4.69638 0
M  V30 776 N 79.8174 1.5752 -0.0501392 0
M  V30 777 C 81.0474 1.96678 0.632573 0
M  V30 778 C 81.4554 0.926298 1.64974 0
M  V30 779 O 80.7984 -0.09802 1.83438 0
M  V30 780 C 80.8604 3.32068 1.37735 0
M  V30 781 C 80.5244 4.54076 0.516131 0
M  V30 782 C 81.5214 5.19445 -0.217357 0
M  V30 783 C 79.2064 5.00304 0.44736 0
M  V30 784 C 81.2004 6.29378 -1.00807 0
M  V30 785 C 78.8874 6.10114 -0.347038 0
M  V30 786 C 79.8854 6.74512 -1.07344 0
M  V30 787 O 79.5734 7.82211 -1.85477 0
M  V30 788 H 79.3054 0.652193 0.177821 0
M  V30 789 H 81.8594 2.05091 -0.112543 0
M  V30 790 H 80.0894 3.20206 2.16807 0
M  V30 791 H 81.7784 3.55981 1.95019 0
M  V30 792 H 82.5444 4.84689 -0.173688 0
M  V30 793 H 78.4234 4.49971 1.00235 0
M  V30 794 H 81.9674 6.79575 -1.57556 0
M  V30 795 H 77.8644 6.44307 -0.392349 0
M  V30 796 H 78.6324 7.98982 -1.77678 0
M  V30 797 N 81.2955 -0.223234 1.56011 0
M  V30 798 C 82.5435 -0.946003 1.78592 0
M  V30 799 C 82.8645 -1.84936 0.618349 0
M  V30 800 O 82.1345 -1.92473 -0.364833 0
M  V30 801 H 80.7145 -0.352298 0.658707 0
M  V30 802 H 83.3765 -0.235494 1.93472 0
M  V30 803 H 82.4725 -1.55381 2.70672 0
M  V30 804 N 82.7736 -1.49793 -0.48987 0
M  V30 805 C 83.7066 -1.61898 -1.60823 0
M  V30 806 C 84.6846 -0.467651 -1.5573 0
M  V30 807 O 85.8686 -0.684682 -1.75626 0
M  V30 808 C 82.9956 -1.58422 -2.99366 0
M  V30 809 C 82.0416 -2.78889 -3.22682 0
M  V30 810 S 82.8746 -4.40429 -3.04602 0
M  V30 811 C 84.0306 -4.39617 -4.4552 0
M  V30 812 H 84.2636 -2.56502 -1.50312 0
M  V30 813 H 81.7966 -1.38822 -0.675849 0
M  V30 814 H 83.7546 -1.57103 -3.79248 0
M  V30 815 H 82.4156 -0.650866 -3.07283 0
M  V30 816 H 81.6086 -2.72708 -4.23847 0
M  V30 817 H 81.2106 -2.77678 -2.50541 0
M  V30 818 H 83.5026 -4.12022 -5.37814 0
M  V30 819 H 84.4456 -5.41097 -4.56749 0
M  V30 820 H 84.8536 -3.69554 -4.2672 0
M  V30 821 N 84.2517 0.741722 -1.39055 0
M  V30 822 C 85.4997 1.49818 -1.35643 0
M  V30 823 C 85.8207 1.94938 0.0491642 0
M  V30 824 O 85.0907 1.68505 0.999141 0
M  V30 825 H 83.6707 0.555755 -0.499144 0
M  V30 826 H 86.3327 0.880957 -1.73854 0
M  V30 827 H 85.4287 2.38348 -2.01486 0
M  V30 828 N 85.7298 1.2412 0.971189 0
M  V30 829 C 86.9578 1.10575 1.74874 0
M  V30 830 C 87.3728 -0.342017 1.85676 0
M  V30 831 O 86.7298 -1.23617 1.34258 0
M  V30 832 C 86.7808 1.73579 3.171 0
M  V30 833 O 86.5018 3.12695 3.06844 0
M  V30 834 C 88.0028 1.65598 4.11208 0
M  V30 835 H 85.2228 0.386504 0.548503 0
M  V30 836 H 87.7668 1.64156 1.21955 0
M  V30 837 H 85.9218 1.24009 3.67016 0
M  V30 838 H 86.3358 3.43412 3.96445 0
M  V30 839 H 87.8098 2.1437 5.08674 0
M  V30 840 H 88.2868 0.616532 4.34851 0
M  V30 841 H 88.8928 2.14578 3.67201 0
M  V30 842 N 87.2079 -1.17134 1.05439 0
M  V30 843 C 88.1579 -2.1919 0.627675 0
M  V30 844 C 89.1419 -1.57328 -0.337147 0
M  V30 845 O 90.3339 -1.76329 -0.153976 0
M  V30 846 C 87.4629 -3.43299 0.00651435 0
M  V30 847 C 86.5489 -4.12255 0.995312 0
M  V30 848 N 86.9399 -4.56997 2.16765 0
M  V30 849 C 85.2379 -4.38316 0.824336 0
M  V30 850 C 85.9389 -5.10239 2.7934 0
M  V30 851 N 84.9149 -5.02595 2.07122 0
M  V30 852 H 88.7169 -2.5149 1.52086 0
M  V30 853 H 86.2309 -1.33491 0.924868 0
M  V30 854 H 88.2279 -4.15693 -0.316965 0
M  V30 855 H 86.8879 -3.1249 -0.882033 0
M  V30 856 H 87.8989 -4.51006 2.54587 0
M  V30 857 H 84.5759 -4.17498 -0.0129526 0
M  V30 858 H 85.9659 -5.54961 3.78772 0
M  V30 859 N 88.686 -0.835752 -1.33615 0
M  V30 860 C 89.649 -0.272 -2.2758 0
M  V30 861 C 90.649 0.557487 -1.50827 0
M  V30 862 O 91.839 0.37173 -1.70188 0
M  V30 863 C 88.971 0.617173 -3.35267 0
M  V30 864 H 90.164 -1.10111 -2.78954 0
M  V30 865 H 87.717 -0.608594 -1.43965 0
M  V30 866 H 88.452 1.46884 -2.89129 0
M  V30 867 H 88.237 0.0237066 -3.92093 0
M  V30 868 H 89.727 1.005 -4.05326 0
M  V30 869 N 90.1641 1.46063 -0.591896 0
M  V30 870 C 91.0961 2.28539 0.174001 0
M  V30 871 C 92.1091 1.39047 0.846753 0
M  V30 872 O 93.2981 1.63564 0.714774 0
M  V30 873 C 90.3981 3.14347 1.26645 0
M  V30 874 C 89.5711 4.32021 0.683856 0
M  V30 875 C 88.6301 4.99157 1.66518 0
M  V30 876 O 87.6561 5.56458 1.19763 0
M  V30 877 N 88.8581 4.97005 2.99943 0
M  V30 878 H 91.6231 2.94911 -0.533633 0
M  V30 879 H 89.1841 1.56077 -0.430294 0
M  V30 880 H 91.1761 3.56125 1.92242 0
M  V30 881 H 89.7461 2.49988 1.87682 0
M  V30 882 H 88.9661 3.93915 -0.1498 0
M  V30 883 H 90.2541 5.08059 0.274567 0
M  V30 884 H 89.6521 4.51714 3.40545 0
M  V30 885 H 88.2091 5.42696 3.61004 0
M  V30 886 N 91.6422 0.330177 1.54103 0
M  V30 887 C 93.0582 -0.0222371 1.59585 0
M  V30 888 C 93.2582 -1.49902 1.34654 0
M  V30 889 O 92.3142 -2.25592 1.13421 0
M  V30 890 C 93.6272 0.401932 2.98002 0
M  V30 891 C 95.1752 0.353145 3.11001 0
M  V30 892 C 95.6502 0.752576 4.51775 0
M  V30 893 N 97.1412 0.706239 4.57784 0
M  V30 894 C 97.8762 0.987417 5.64834 0
M  V30 895 N 97.3722 1.33607 6.79795 0
M  V30 896 N 99.1652 0.91254 5.54643 0
M  V30 897 H 91.3162 1.29228 1.68564 0
M  V30 898 H 93.5792 0.525906 0.78875 0
M  V30 899 H 93.2852 1.4311 3.21267 0
M  V30 900 H 93.1592 -0.229699 3.765 0
M  V30 901 H 95.5462 -0.666822 2.87467 0
M  V30 902 H 95.6272 1.0198 2.34593 0
M  V30 903 H 95.2712 1.77049 4.76042 0
M  V30 904 H 95.2012 0.0635409 5.26562 0
M  V30 905 H 97.6922 0.44889 3.75224 0
M  V30 906 H 98.0052 1.53582 7.57385 0
M  V30 907 H 96.3502 1.37439 6.81275 0
M  V30 908 H 99.5412 0.639601 4.6371 0
M  V30 909 H 99.7142 1.13503 6.37982 0
M  V30 910 N 93.1203 -1.57491 0.0584922 0
M  V30 911 C 94.3663 -1.94081 -0.608617 0
M  V30 912 C 94.7213 -0.937438 -1.68017 0
M  V30 913 O 94.0143 0.0423034 -1.91553 0
M  V30 914 C 94.2083 -3.3513 -1.24188 0
M  V30 915 C 94.0373 -4.49095 -0.233187 0
M  V30 916 C 92.8073 -5.04988 0.177439 0
M  V30 917 C 95.0053 -5.1162 0.524306 0
M  V30 918 N 92.9873 -6.02487 1.17823 0
M  V30 919 C 94.3583 -6.04493 1.37796 0
M  V30 920 C 96.4133 -4.94489 0.581822 0
M  V30 921 C 95.1163 -6.82075 2.28399 0
M  V30 922 C 97.1423 -5.72703 1.47531 0
M  V30 923 C 96.5043 -6.65214 2.31667 0
M  V30 924 H 92.6033 -0.75752 -0.194134 0
M  V30 925 H 95.1873 -1.94248 0.132533 0
M  V30 926 H 93.3583 -3.35726 -1.95302 0
M  V30 927 H 95.0903 -3.5899 -1.86838 0
M  V30 928 H 91.8453 -4.73165 -0.203004 0
M  V30 929 H 92.2693 -6.55933 1.67573 0
M  V30 930 H 96.9113 -4.22765 -0.054443 0
M  V30 931 H 94.6293 -7.53085 2.93067 0
M  V30 932 H 98.2153 -5.61472 1.52448 0
M  V30 933 H 97.0953 -7.24679 2.99683 0
M  V30 934 N 94.5984 0.214957 -1.56127 0
M  V30 935 C 95.8234 0.95924 -1.83884 0
M  V30 936 C 96.2484 1.7689 -0.639644 0
M  V30 937 O 95.6064 1.76566 0.411601 0
M  V30 938 C 95.6544 1.84723 -3.09693 0
M  V30 939 O 94.7584 2.94346 -2.8885 0
M  V30 940 H 94.0994 0.27125 -0.606069 0
M  V30 941 H 96.6294 0.226276 -2.03345 0
M  V30 942 H 96.6394 2.25576 -3.39969 0
M  V30 943 H 95.3144 1.25218 -3.96602 0
M  V30 944 H 93.8914 2.57391 -2.69823 0
M  V30 945 N 96.0765 1.50051 0.48192 0
M  V30 946 C 97.4875 1.5348 1.06305 0
M  V30 947 C 97.8385 0.331997 1.93371 0
M  V30 948 O 96.9635 -0.556256 2.09129 0
M  V30 949 C 97.5585 2.7813 1.93466 0
M  V30 950 C 96.1175 2.84275 2.46707 0
M  V30 951 C 95.2645 2.47637 1.24785 0
M  V30 952 H 98.2155 1.56472 0.264995 0
M  V30 953 H 98.2365 2.59372 2.78399 0
M  V30 954 H 97.7485 3.65654 1.30072 0
M  V30 955 H 95.8495 2.01077 3.13686 0
M  V30 956 H 95.9625 3.8691 2.82555 0
M  V30 957 H 94.3265 1.99835 1.57918 0
M  V30 958 H 95.1095 3.37457 0.630694 0
M  V30 959 N 97.5546 -0.734337 1.39446 0
M  V30 960 C 98.4846 -1.86155 1.40955 0
M  V30 961 C 99.4656 -1.67898 0.272827 0
M  V30 962 O 100.651 -1.88207 0.478743 0
M  V30 963 C 97.7806 -3.23912 1.25294 0
M  V30 964 C 96.7346 -3.56808 2.36373 0
M  V30 965 C 96.0606 -4.93508 2.058 0
M  V30 966 C 97.3606 -3.59713 3.78687 0
M  V30 967 H 99.0546 -1.8515 2.35287 0
M  V30 968 H 96.6006 -0.889367 1.13253 0
M  V30 969 H 98.5536 -4.02443 1.2497 0
M  V30 970 H 97.2776 -3.25446 0.274308 0
M  V30 971 H 95.9366 -2.80606 2.35914 0
M  V30 972 H 95.5846 -4.91623 1.06374 0
M  V30 973 H 95.2846 -5.16486 2.80208 0
M  V30 974 H 96.8086 -5.74396 2.07128 0
M  V30 975 H 98.2226 -4.2832 3.81071 0
M  V30 976 H 96.6196 -3.94209 4.52459 0
M  V30 977 H 97.6896 -2.59504 4.09617 0
M  V30 978 N 99.0327 -1.24633 -0.964593 0
M  V30 979 C 99.9797 -1.04144 -2.05968 0
M  V30 980 C 100.95 0.046262 -1.66036 0
M  V30 981 O 102.135 -0.108972 -1.90489 0
M  V30 982 C 99.2747 -0.65563 -3.38815 0
M  V30 983 C 98.3877 -1.81714 -3.91923 0
M  V30 984 C 97.5227 -1.37662 -5.13052 0
M  V30 985 C 96.5617 -2.50788 -5.58365 0
M  V30 986 N 95.6987 -2.07582 -6.70712 0
M  V30 987 H 100.539 -1.9787 -2.22827 0
M  V30 988 H 98.0757 -0.9855 -1.09208 0
M  V30 989 H 100.034 -0.412954 -4.15151 0
M  V30 990 H 98.6637 0.244627 -3.21872 0
M  V30 991 H 97.7157 -2.1734 -3.12198 0
M  V30 992 H 99.0277 -2.66705 -4.21509 0
M  V30 993 H 98.1817 -1.093 -5.96773 0
M  V30 994 H 96.9207 -0.497293 -4.85158 0
M  V30 995 H 95.9257 -2.79906 -4.73215 0
M  V30 996 H 97.1507 -3.39283 -5.88272 0
M  V30 997 H 95.0967 -1.22051 -6.44546 0
M  V30 998 H 95.0137 -2.86125 -6.99763 0
M  V30 999 H 96.2817 -1.82369 -7.57867 0
M  V30 1000 N 100.511 1.16574 -1.06058 0
M  V30 1001 C 101.443 2.2045 -0.627239 0
M  V30 1002 C 102.456 1.59752 0.313534 0
M  V30 1003 O 103.645 1.78192 0.104896 0
M  V30 1004 C 100.745 3.3875 0.100974 0
M  V30 1005 C 99.9178 4.29008 -0.852687 0
M  V30 1006 C 98.9768 5.25944 -0.164152 0
M  V30 1007 O 98.0028 5.63535 -0.801047 0
M  V30 1008 N 99.2048 5.70075 1.09518 0
M  V30 1009 H 101.97 2.58249 -1.52077 0
M  V30 1010 H 99.5308 1.3156 -0.943594 0
M  V30 1011 H 101.523 4.00638 0.57194 0
M  V30 1012 H 100.093 2.99476 0.89628 0
M  V30 1013 H 99.3128 3.64419 -1.50308 0
M  V30 1014 H 100.601 4.86195 -1.49972 0
M  V30 1015 H 99.9988 5.41624 1.6328 0
M  V30 1016 H 98.5558 6.34067 1.51006 0
M  V30 1017 N 101.989 0.842826 1.3317 0
M  V30 1018 C 103.235 0.441099 1.97945 0
M  V30 1019 C 103.568 -0.998024 1.66593 0
M  V30 1020 O 102.843 -1.69839 0.947898 0
M  V30 1021 C 103.126 0.666841 3.53872 0
M  V30 1022 C 102.979 2.15352 3.94897 0
M  V30 1023 C 104.298 0.115544 4.39948 0
M  V30 1024 H 101.417 0.161739 0.719034 0
M  V30 1025 H 104.059 1.05907 1.57746 0
M  V30 1026 H 102.209 0.140828 3.88245 0
M  V30 1027 H 103.881 2.7447 3.70761 0
M  V30 1028 H 102.124 2.63653 3.44484 0
M  V30 1029 H 102.795 2.26221 5.03516 0
M  V30 1030 H 105.271 0.565213 4.12243 0
M  V30 1031 H 104.147 0.303152 5.48062 0
M  V30 1032 H 104.408 -0.980935 4.3108 0
M  V30 1033 N 103.467 -1.45747 0.599634 0
M  V30 1034 C 104.415 -2.322 -0.136426 0
M  V30 1035 C 105.409 -1.45497 -0.867583 0
M  V30 1036 O 106.615 -1.62027 -0.78405 0
M  V30 1037 H 102.99 -0.749368 -0.0628588 0
M  V30 1038 H 104.961 -2.92072 0.611281 0
M  V30 1039 C 103.71 -3.28974 -1.12567 0
M  V30 1040 H 103.033 -3.9568 -0.572484 0
M  V30 1041 H 104.473 -3.92212 -1.61077 0
M  V30 1042 C 102.932 -2.55561 -2.19523 0
M  V30 1043 O 103.462 -2.33111 -3.27143 0
M  V30 1044 N 101.668 -2.15832 -1.94589 0
M  V30 1045 H 101.215 -2.3429 -1.07078 0
M  V30 1046 H 101.173 -1.67034 -2.66359 0
M  V30 1047 N 104.945 -0.338344 -1.53925 0
M  V30 1048 C 105.908 0.508299 -2.23493 0
M  V30 1049 C 106.908 1.03175 -1.23335 0
M  V30 1050 O 108.098 0.921826 -1.47811 0
M  V30 1051 C 105.23 1.70754 -2.95052 0
M  V30 1052 H 106.423 -0.100058 -2.99733 0
M  V30 1053 H 103.976 -0.0896198 -1.56043 0
M  V30 1054 H 104.711 2.35474 -2.22986 0
M  V30 1055 H 104.496 1.33946 -3.68512 0
M  V30 1056 H 105.986 2.30818 -3.48013 0
M  V30 1057 N 106.423 1.57458 -0.0668435 0
M  V30 1058 C 107.7 1.8469 0.644132 0
M  V30 1059 C 108.08 0.958343 1.88093 0
M  V30 1060 O 107.428 0.0233579 2.28488 0
M  V30 1061 C 107.638 3.34767 0.986509 0
M  V30 1062 C 108.986 4.02159 1.36212 0
M  V30 1063 O 110.01 3.39484 1.07839 0
M  V30 1064 O 108.869 5.12694 1.89227 0
M  V30 1065 H 105.963 0.762816 0.319437 0
M  V30 1066 H 108.509 1.6942 -0.0973986 0
M  V30 1067 H 107.281 3.91151 0.107883 0
M  V30 1068 H 106.904 3.55281 1.78497 0
M  V30 1069 N 107.901 -0.206675 1.56239 0
M  V30 1070 C 108.849 -1.27571 1.94495 0
M  V30 1071 C 109.843 -1.47737 0.828862 0
M  V30 1072 O 111.049 -1.48735 1.0138 0
M  V30 1073 H 107.424 -0.428029 0.6183 0
M  V30 1074 H 109.395 -0.925961 2.8367 0
M  V30 1075 C 108.144 -2.61568 2.29079 0
M  V30 1076 H 107.467 -2.46863 3.14482 0
M  V30 1077 H 108.907 -3.35144 2.5972 0
M  V30 1078 C 107.366 -3.17695 1.12123 0
M  V30 1079 O 107.896 -3.99801 0.390153 0
M  V30 1080 N 106.102 -2.76276 0.901097 0
M  V30 1081 H 105.649 -2.09613 1.49733 0
M  V30 1082 H 105.607 -3.1417 0.120319 0
M  V30 1083 N 109.379 -1.50304 -0.473955 0
M  V30 1084 C 110.625 -1.61389 -1.22806 0
M  V30 1085 C 110.958 -0.311955 -1.91678 0
M  V30 1086 O 110.233 0.686384 -1.81986 0
M  V30 1087 C 110.516 -2.79219 -2.27396 0
M  V30 1088 C 110.369 -4.19286 -1.62848 0
M  V30 1089 C 111.688 -2.92614 -3.28732 0
M  V30 1090 H 108.807 -0.587399 -0.445119 0
M  V30 1091 H 111.449 -1.82681 -0.522265 0
M  V30 1092 H 109.599 -2.61195 -2.87592 0
M  V30 1093 H 111.271 -4.48892 -1.06271 0
M  V30 1094 H 109.514 -4.23677 -0.931693 0
M  V30 1095 H 110.185 -4.97655 -2.38838 0
M  V30 1096 H 112.661 -3.09105 -2.78556 0
M  V30 1097 H 111.537 -3.76688 -3.99246 0
M  V30 1098 H 111.798 -2.03107 -3.92683 0
M  V30 1099 N 110.857 0.726932 -1.39834 0
M  V30 1100 C 112.104 1.48664 -1.37496 0
M  V30 1101 C 112.432 1.94482 0.0264678 0
M  V30 1102 O 111.687 1.67692 1.00886 0
M  V30 1103 C 111.986 2.73495 -2.30077 0
M  V30 1104 C 111.652 2.46502 -3.77555 0
M  V30 1105 C 110.314 2.3885 -4.17737 0
M  V30 1106 C 112.666 2.23604 -4.70798 0
M  V30 1107 C 109.994 2.06352 -5.49214 0
M  V30 1108 C 112.346 1.92622 -6.02561 0
M  V30 1109 C 111.01 1.83444 -6.41798 0
M  V30 1110 H 110.28 0.544001 -0.503135 0
M  V30 1111 H 112.927 0.833657 -1.72402 0
M  V30 1112 H 111.232 3.43575 -1.88317 0
M  V30 1113 H 112.929 3.31549 -2.25558 0
M  V30 1114 H 109.519 2.5334 -3.45712 0
M  V30 1115 H 113.703 2.28479 -4.40581 0
M  V30 1116 H 108.959 1.97776 -5.78528 0
M  V30 1117 H 113.133 1.73914 -6.74334 0
M  V30 1118 H 110.76 1.58029 -7.43593 0
M  V30 1119 N 112.336 1.25143 0.95797 0
M  V30 1120 C 113.283 1.05235 2.05412 0
M  V30 1121 C 114.253 -0.0374561 1.66058 0
M  V30 1122 O 115.438 0.119073 1.90428 0
M  V30 1123 C 112.578 0.673589 3.38462 0
M  V30 1124 C 111.691 1.8379 3.90954 0
M  V30 1125 C 110.826 1.40381 5.12315 0
M  V30 1126 C 109.865 2.53746 5.57027 0
M  V30 1127 N 109.002 2.11136 6.69601 0
M  V30 1128 H 113.842 1.99048 2.21774 0
M  V30 1129 H 111.379 0.991277 1.08683 0
M  V30 1130 H 113.337 0.434964 4.14926 0
M  V30 1131 H 111.967 -0.227554 3.21997 0
M  V30 1132 H 111.019 2.18992 3.11041 0
M  V30 1133 H 112.331 2.68937 4.20089 0
M  V30 1134 H 111.485 1.12464 5.96185 0
M  V30 1135 H 110.224 0.523015 4.84887 0
M  V30 1136 H 109.229 2.82412 4.71724 0
M  V30 1137 H 110.454 3.42398 5.86464 0
M  V30 1138 H 108.4 1.25468 6.4389 0
M  V30 1139 H 108.317 2.89832 6.98236 0
M  V30 1140 H 109.585 1.86385 7.56889 0
M  V30 1141 N 113.814 -1.1601 1.06675 0
M  V30 1142 C 114.744 -2.22688 0.702307 0
M  V30 1143 C 115.725 -1.67306 -0.307032 0
M  V30 1144 O 116.91 -1.93352 -0.181305 0
M  V30 1145 C 114.04 -3.47178 0.092038 0
M  V30 1146 C 112.994 -4.15477 1.02777 0
M  V30 1147 C 112.32 -5.33963 0.28061 0
M  V30 1148 C 113.62 -4.66019 2.35846 0
M  V30 1149 H 115.314 -2.53429 1.59419 0
M  V30 1150 H 112.86 -1.21813 0.767961 0
M  V30 1151 H 114.813 -4.21037 -0.174814 0
M  V30 1152 H 113.537 -3.15749 -0.834877 0
M  V30 1153 H 112.196 -3.43549 1.27944 0
M  V30 1154 H 111.844 -4.98788 -0.649545 0
M  V30 1155 H 111.544 -5.806 0.904258 0
M  V30 1156 H 113.068 -6.10596 0.021396 0
M  V30 1157 H 114.482 -5.3144 2.15045 0
M  V30 1158 H 112.879 -5.23293 2.93743 0
M  V30 1159 H 113.949 -3.82023 2.98641 0
M  V30 1160 N 115.292 -0.849877 -1.32721 0
M  V30 1161 C 116.52 -0.464754 -2.01613 0
M  V30 1162 C 116.935 0.937191 -1.63897 0
M  V30 1163 O 116.292 1.61081 -0.857856 0
M  V30 1164 C 116.343 -0.588638 -3.56675 0
M  V30 1165 O 116.064 -1.93535 -3.93034 0
M  V30 1166 C 117.565 -0.2019 -4.4284 0
M  V30 1167 H 114.785 -0.183215 -0.645502 0
M  V30 1168 H 117.329 -1.1455 -1.69407 0
M  V30 1169 H 115.484 0.0443159 -3.87375 0
M  V30 1170 H 115.898 -1.92871 -4.87751 0
M  V30 1171 H 117.372 -0.339599 -5.50954 0
M  V30 1172 H 117.849 0.857224 -4.30753 0
M  V30 1173 H 118.455 -0.809733 -4.17521 0
M  V30 1174 N 116.77 1.45427 -0.607355 0
M  V30 1175 C 118.181 1.85756 -0.187535 0
M  V30 1176 C 118.532 1.5077 1.25551 0
M  V30 1177 O 117.657 0.93427 1.95193 0
M  V30 1178 C 118.252 3.37154 -0.333572 0
M  V30 1179 C 116.811 3.76387 0.0315542 0
M  V30 1180 C 115.958 2.69377 -0.658117 0
M  V30 1181 H 118.909 1.36231 -0.81405 0
M  V30 1182 H 118.93 3.78014 0.43428 0
M  V30 1183 H 118.442 3.62586 -1.38393 0
M  V30 1184 H 116.543 3.56571 1.0811 0
M  V30 1185 H 116.656 4.77731 -0.361935 0
M  V30 1186 H 115.02 2.5452 -0.0957873 0
M  V30 1187 H 115.803 2.97646 -1.7106 0
M  V30 1188 N 118.248 0.346503 1.53744 0
M  V30 1189 C 119.211 -0.496439 2.23759 0
M  V30 1190 C 120.211 -1.0252 1.2388 0
M  V30 1191 O 121.401 -0.913974 1.48297 0
M  V30 1192 C 118.533 -1.69187 2.95954 0
M  V30 1193 H 119.726 0.115952 2.99676 0
M  V30 1194 H 117.279 0.0978939 1.55993 0
M  V30 1195 H 118.014 -2.34288 2.24231 0
M  V30 1196 H 117.799 -1.31989 3.69217 0
M  V30 1197 H 119.289 -2.28969 3.49232 0
M  V30 1198 N 119.726 -1.57421 0.075193 0
M  V30 1199 C 120.972 -1.94716 -0.587998 0
M  V30 1200 C 121.327 -0.955205 -1.67014 0
M  V30 1201 O 120.62 0.0219842 -1.91587 0
M  V30 1202 C 120.814 -3.36428 -1.20626 0
M  V30 1203 C 120.643 -4.49317 -0.185541 0
M  V30 1204 C 119.413 -5.04772 0.23099 0
M  V30 1205 C 121.611 -5.11036 0.57854 0
M  V30 1206 N 119.593 -6.01204 1.24206 0
M  V30 1207 C 120.964 -6.02998 1.44199 0
M  V30 1208 C 123.019 -4.93844 0.634237 0
M  V30 1209 C 121.722 -6.79614 2.3562 0
M  V30 1210 C 123.748 -5.71106 1.53597 0
M  V30 1211 C 123.11 -6.6272 2.38709 0
M  V30 1212 H 119.209 -0.759536 -0.186089 0
M  V30 1213 H 121.793 -1.94097 0.153128 0
M  V30 1214 H 119.964 -3.37778 -1.9173 0
M  V30 1215 H 121.696 -3.60951 -1.8302 0
M  V30 1216 H 118.451 -4.73353 -0.152807 0
M  V30 1217 H 118.875 -6.54119 1.74521 0
M  V30 1218 H 123.517 -4.22799 -0.00960004 0
M  V30 1219 H 121.235 -7.49934 3.01038 0
M  V30 1220 H 124.821 -5.59824 1.58394 0
M  V30 1221 H 123.701 -7.2146 3.07352 0
M  V30 1222 N 121.204 0.198386 -1.56346 0
M  V30 1223 C 122.429 0.939682 -1.84891 0
M  V30 1224 C 122.854 1.76202 -0.658369 0
M  V30 1225 O 122.212 1.76993 0.392851 0
M  V30 1226 C 122.26 1.81428 -3.11635 0
M  V30 1227 O 121.364 2.91265 -2.91956 0
M  V30 1228 H 120.705 0.264807 -0.608912 0
M  V30 1229 H 123.235 0.204695 -2.03573 0
M  V30 1230 H 123.245 2.21958 -3.42343 0
M  V30 1231 H 121.92 1.21004 -3.97908 0
M  V30 1232 H 120.497 2.54514 -2.72538 0
M  V30 1233 N 122.682 1.50554 0.465978 0
M  V30 1234 C 123.912 1.65323 1.23903 0
M  V30 1235 C 124.32 0.338051 1.86155 0
M  V30 1236 O 123.663 -0.690518 1.70228 0
M  V30 1237 C 123.725 2.69048 2.3844 0
M  V30 1238 C 123.389 4.12462 1.96784 0
M  V30 1239 C 124.386 4.98168 1.48745 0
M  V30 1240 C 122.071 4.58407 2.05349 0
M  V30 1241 C 124.065 6.27868 1.0982 0
M  V30 1242 C 121.752 5.88112 1.66035 0
M  V30 1243 C 122.75 6.72668 1.18349 0
M  V30 1244 O 122.438 7.99951 0.795825 0
M  V30 1245 H 122.17 0.558629 0.38067 0
M  V30 1246 H 124.724 1.97561 0.562022 0
M  V30 1247 H 122.954 2.32062 3.09328 0
M  V30 1248 H 124.643 2.72985 3.0039 0
M  V30 1249 H 125.409 4.63885 1.41546 0
M  V30 1250 H 121.288 3.92735 2.41414 0
M  V30 1251 H 124.832 6.93819 0.725293 0
M  V30 1252 H 120.729 6.21914 1.72895 0
M  V30 1253 H 121.497 8.13265 0.924222 0
M  V30 1254 N 124.16 -0.719506 1.40217 0
M  V30 1255 C 125.385 -1.51371 1.4178 0
M  V30 1256 C 125.81 -1.88091 0.0182355 0
M  V30 1257 O 125.168 -1.52997 -0.972707 0
M  V30 1258 C 125.216 -2.768 2.31115 0
M  V30 1259 O 124.32 -3.73349 1.7517 0
M  V30 1260 H 123.661 -0.456529 0.482159 0
M  V30 1261 H 126.191 -0.88644 1.844 0
M  V30 1262 H 126.201 -3.25371 2.46167 0
M  V30 1263 H 124.876 -2.49407 3.3282 0
M  V30 1264 H 123.453 -3.32179 1.69444 0
M  V30 1265 N 125.638 -1.25649 -0.95132 0
M  V30 1266 C 126.885 -1.10594 -1.69633 0
M  V30 1267 C 127.213 0.352515 -1.91279 0
M  V30 1268 O 126.468 1.27601 -1.4838 0
M  V30 1269 C 126.767 -1.80909 -3.08231 0
M  V30 1270 C 126.433 -3.30825 -3.06375 0
M  V30 1271 C 125.095 -3.71722 -3.05576 0
M  V30 1272 C 127.447 -4.26589 -2.99452 0
M  V30 1273 C 124.775 -5.06788 -2.95606 0
M  V30 1274 C 127.127 -5.61683 -2.91024 0
M  V30 1275 C 125.791 -6.01904 -2.88562 0
M  V30 1276 H 125.061 -0.404691 -0.620731 0
M  V30 1277 H 127.708 -1.55964 -1.11119 0
M  V30 1278 H 126.013 -1.27979 -3.70309 0
M  V30 1279 H 127.71 -1.6671 -3.64704 0
M  V30 1280 H 124.3 -2.98287 -3.07771 0
M  V30 1281 H 128.484 -3.95982 -2.99185 0
M  V30 1282 H 123.74 -5.37126 -2.92071 0
M  V30 1283 H 127.914 -6.35578 -2.84629 0
M  V30 1284 H 125.541 -7.06521 -2.80593 0
M  V30 1285 N 127.117 1.15442 -1.07289 0
M  V30 1286 C 128.365 1.85845 -0.794096 0
M  V30 1287 C 128.686 1.82692 0.681809 0
M  V30 1288 O 127.956 1.26741 1.49377 0
M  V30 1289 H 126.536 0.688089 -0.290763 0
M  V30 1290 H 129.198 1.39947 -1.3565 0
M  V30 1291 H 128.294 2.91001 -1.12804 0
M  V30 1292 N 128.595 0.856903 1.32268 0
M  V30 1293 C 129.872 0.382583 1.91822 0
M  V30 1294 C 130.252 -1.13407 1.78051 0
M  V30 1295 O 129.6 -1.95673 1.18001 0
M  V30 1296 C 129.81 0.849446 3.38505 0
M  V30 1297 C 131.158 0.867936 4.15634 0
M  V30 1298 O 132.182 0.794232 3.47232 0
M  V30 1299 O 131.041 0.972286 5.37781 0
M  V30 1300 H 128.135 0.112014 0.819379 0
M  V30 1301 H 130.681 0.943952 1.41024 0
M  V30 1302 H 129.453 1.89267 3.42482 0
M  V30 1303 H 129.076 0.265652 3.96712 0
M  V30 1304 N 130.073 -1.45103 0.615059 0
M  V30 1305 C 130.983 -2.34382 -0.101034 0
M  V30 1306 C 131.999 -1.51681 -0.852585 0
M  V30 1307 O 133.175 -1.8446 -0.808484 0
M  V30 1308 C 130.24 -3.29417 -1.08099 0
M  V30 1309 C 129.301 -4.28025 -0.330577 0
M  V30 1310 C 128.534 -5.1852 -1.26385 0
M  V30 1311 O 128.757 -5.12598 -2.50198 0
M  V30 1312 O 127.691 -5.97122 -0.756866 0
M  V30 1313 H 131.517 -2.97033 0.632855 0
M  V30 1314 H 129.102 -1.4461 0.375293 0
M  V30 1315 H 130.984 -3.87958 -1.6452 0
M  V30 1316 H 129.659 -2.69321 -1.79577 0
M  V30 1317 H 128.566 -3.73078 0.276283 0
M  V30 1318 H 129.899 -4.90997 0.343866 0
M  V30 1319 N 131.551 -0.354651 -1.53558 0
M  V30 1320 C 132.498 0.496968 -2.25386 0
M  V30 1321 C 133.468 1.0865 -1.25636 0
M  V30 1322 O 134.653 1.12104 -1.54394 0
M  V30 1323 C 131.793 1.63637 -3.03837 0
M  V30 1324 C 130.906 1.07307 -4.18461 0
M  V30 1325 C 130.041 2.18068 -4.84376 0
M  V30 1326 C 129.08 1.59147 -5.91049 0
M  V30 1327 N 128.217 2.63695 -6.50699 0
M  V30 1328 H 133.057 -0.122075 -2.9775 0
M  V30 1329 H 130.594 -0.0720154 -1.46924 0
M  V30 1330 H 132.552 2.30734 -3.47589 0
M  V30 1331 H 131.182 2.22623 -2.33749 0
M  V30 1332 H 130.234 0.292708 -3.79272 0
M  V30 1333 H 131.546 0.602193 -4.95152 0
M  V30 1334 H 130.7 2.93007 -5.31255 0
M  V30 1335 H 129.439 2.68504 -4.07133 0
M  V30 1336 H 128.444 0.827175 -5.43542 0
M  V30 1337 H 129.669 1.09549 -6.70206 0
M  V30 1338 H 127.615 3.13365 -5.76315 0
M  V30 1339 H 127.532 2.21263 -7.22896 0
M  V30 1340 H 128.8 3.3837 -7.02229 0
M  V30 1341 N 133.029 1.57378 -0.0835403 0
M  V30 1342 C 133.961 2.10389 0.909338 0
M  V30 1343 C 134.974 1.03858 1.25369 0
M  V30 1344 O 136.163 1.31338 1.20882 0
M  V30 1345 C 133.263 2.55908 2.2218 0
M  V30 1346 C 132.436 3.86145 2.05453 0
M  V30 1347 C 131.495 4.17633 3.20108 0
M  V30 1348 O 130.521 4.87043 2.94581 0
M  V30 1349 N 131.723 3.72113 4.45547 0
M  V30 1350 H 134.488 2.962 0.456657 0
M  V30 1351 H 132.049 1.61579 0.101877 0
M  V30 1352 H 134.041 2.74027 2.97811 0
M  V30 1353 H 132.611 1.75171 2.58909 0
M  V30 1354 H 131.831 3.7729 1.1422 0
M  V30 1355 H 133.119 4.7137 1.91541 0
M  V30 1356 H 132.517 3.16062 4.69171 0
M  V30 1357 H 131.074 3.95409 5.18165 0
M  V30 1358 N 134.507 -0.190092 1.56449 0
M  V30 1359 C 135.923 -0.54113 1.50146 0
M  V30 1360 C 136.123 -1.85603 0.784465 0
M  V30 1361 O 135.179 -2.5024 0.337051 0
M  V30 1362 C 136.492 -0.591241 2.9483 0
M  V30 1363 C 138.04 -0.679732 3.0553 0
M  V30 1364 C 138.515 -0.760908 4.51635 0
M  V30 1365 N 140.006 -0.824302 4.55806 0
M  V30 1366 C 140.741 -0.907365 5.66175 0
M  V30 1367 N 140.237 -0.952422 6.86222 0
M  V30 1368 N 142.03 -0.94494 5.541 0
M  V30 1369 H 134.181 0.67235 2.01478 0
M  V30 1370 H 136.444 0.240127 0.917084 0
M  V30 1371 H 136.15 0.305905 3.50367 0
M  V30 1372 H 136.024 -1.44422 3.48457 0
M  V30 1373 H 138.411 -1.56731 2.50039 0
M  V30 1374 H 138.492 0.199549 2.5502 0
M  V30 1375 H 138.136 0.122336 5.07753 0
M  V30 1376 H 138.066 -1.65606 4.99882 0
M  V30 1377 H 140.557 -0.798526 3.69367 0
M  V30 1378 H 140.87 -1.01645 7.66086 0
M  V30 1379 H 139.215 -0.921014 6.8887 0
M  V30 1380 H 142.406 -0.906612 4.59236 0
M  V30 1381 H 142.579 -1.00622 6.4014 0
M  V30 1382 N 135.985 -1.50799 -0.457987 0
M  V30 1383 C 137.233 -1.62121 -1.2067 0
M  V30 1384 C 137.554 -0.329793 -1.92191 0
M  V30 1385 O 136.824 0.653409 -1.84682 0
M  V30 1386 H 135.404 -0.597441 -0.448411 0
M  V30 1387 H 138.066 -1.87637 -0.527096 0
M  V30 1388 H 137.162 -2.43882 -1.94751 0
M  V30 1389 N 137.463 0.71206 -1.40597 0
M  V30 1390 C 138.395 1.83704 -1.37061 0
M  V30 1391 C 139.408 1.60453 -0.275426 0
M  V30 1392 O 140.597 1.70262 -0.53602 0
M  V30 1393 C 137.697 3.20172 -1.11099 0
M  V30 1394 C 136.87 3.7059 -2.3234 0
M  V30 1395 C 135.929 4.85681 -2.02485 0
M  V30 1396 O 134.955 4.9815 -2.75382 0
M  V30 1397 N 136.157 5.71735 -1.00497 0
M  V30 1398 H 138.922 1.87235 -2.34016 0
M  V30 1399 H 136.483 0.893739 -1.34996 0
M  V30 1400 H 138.475 3.94768 -0.891064 0
M  V30 1401 H 137.045 3.11767 -0.227989 0
M  V30 1402 H 136.265 2.87085 -2.7014 0
M  V30 1403 H 137.553 4.01011 -3.13157 0
M  V30 1404 H 136.951 5.64275 -0.401298 0
M  V30 1405 H 135.508 6.463 -0.844942 0
M  V30 1406 N 138.941 1.26152 0.944643 0
M  V30 1407 C 139.851 1.09176 2.07648 0
M  V30 1408 C 140.867 0.0261935 1.7398 0
M  V30 1409 O 142.043 0.229208 2.00091 0
M  V30 1410 C 139.108 0.722915 3.39079 0
M  V30 1411 C 138.169 1.86752 3.86552 0
M  V30 1412 C 137.402 1.51617 5.11711 0
M  V30 1413 O 137.625 0.416331 5.68879 0
M  V30 1414 O 136.559 2.34975 5.54139 0
M  V30 1415 H 140.385 2.0412 2.24875 0
M  V30 1416 H 137.97 1.05182 1.061 0
M  V30 1417 H 139.852 0.529787 4.18056 0
M  V30 1418 H 138.527 -0.197159 3.23099 0
M  V30 1419 H 137.434 2.11558 3.08535 0
M  V30 1420 H 138.767 2.76719 4.07047 0
M  V30 1421 N 140.419 -1.14872 1.07899 0
M  V30 1422 C 141.644 -1.90202 0.826926 0
M  V30 1423 C 142.069 -1.77774 -0.614664 0
M  V30 1424 O 141.427 -1.11431 -1.43013 0
M  V30 1425 C 141.475 -3.38352 1.24702 0
M  V30 1426 O 140.579 -4.10497 0.39575 0
M  V30 1427 H 139.92 -0.591968 0.300782 0
M  V30 1428 H 142.45 -1.45437 1.43907 0
M  V30 1429 H 142.46 -3.89156 1.22563 0
M  V30 1430 H 141.135 -3.46715 2.29698 0
M  V30 1431 H 139.712 -3.69796 0.480117 0
M  V30 1432 N 141.898 -0.863906 -1.31812 0
M  V30 1433 C 142.83 -0.272485 -2.27575 0
M  V30 1434 C 143.843 0.56104 -1.52827 0
M  V30 1435 O 145.032 0.384021 -1.7432 0
M  V30 1436 C 142.132 0.63283 -3.32939 0
M  V30 1437 C 141.305 -0.166902 -4.37081 0
M  V30 1438 C 140.364 0.665608 -5.21973 0
M  V30 1439 O 139.39 0.0958091 -5.69119 0
M  V30 1440 N 140.592 1.9787 -5.45736 0
M  V30 1441 H 143.357 -1.0954 -2.78964 0
M  V30 1442 H 140.918 -0.724791 -1.4477 0
M  V30 1443 H 142.91 1.19532 -3.86645 0
M  V30 1444 H 141.48 1.35642 -2.81638 0
M  V30 1445 H 140.7 -0.910838 -3.83533 0
M  V30 1446 H 141.988 -0.715874 -5.03739 0
M  V30 1447 H 141.386 2.46484 -5.09178 0
M  V30 1448 H 139.943 2.48911 -6.024 0
M  V30 1449 N 143.376 1.44774 -0.622745 0
M  V30 1450 C 144.339 2.29069 0.0774015 0
M  V30 1451 C 145.339 1.4059 0.780461 0
M  V30 1452 O 146.529 1.62551 0.626322 0
M  V30 1453 C 143.661 3.21974 1.12006 0
M  V30 1454 H 144.854 2.92459 -0.663901 0
M  V30 1455 H 142.407 1.51548 -0.382486 0
M  V30 1456 H 143.142 2.63417 1.89162 0
M  V30 1457 H 142.927 3.87168 0.619951 0
M  V30 1458 H 144.417 3.85318 1.60995 0
M  V30 1459 N 144.854 0.36279 1.53368 0
M  V30 1460 C 146.103 -0.22888 2.00397 0
M  V30 1461 C 146.416 -1.50096 1.25421 0
M  V30 1462 O 147.622 -2.17106 1.63025 0
M  V30 1463 C 146.078 -0.458417 3.56969 0
M  V30 1464 C 145.686 0.798877 4.4082 0
M  V30 1465 C 147.43 -1.00789 4.12361 0
M  V30 1466 C 145.337 0.539078 5.88938 0
M  V30 1467 H 144.267 -0.089305 0.748693 0
M  V30 1468 H 146.918 0.481099 1.77081 0
M  V30 1469 H 145.3 -1.22959 3.76427 0
M  V30 1470 H 146.474 1.57262 4.33134 0
M  V30 1471 H 144.789 1.27137 3.96516 0
M  V30 1472 H 147.386 -1.21754 5.20653 0
M  V30 1473 H 147.729 -1.9692 3.66781 0
M  V30 1474 H 148.262 -0.296961 3.9669 0
M  V30 1475 H 145.001 1.47064 6.3879 0
M  V30 1476 H 144.521 -0.196222 5.99479 0
M  V30 1477 H 146.2 0.163542 6.46793 0
M  V30 1478 N 146.332 -1.57332 0.0918853 0
M  V30 1479 C 147.578 -1.94524 -0.573425 0
M  V30 1480 C 147.911 -0.973578 -1.68033 0
M  V30 1481 O 147.186 -0.00609226 -1.94499 0
M  V30 1482 C 147.469 -3.41858 -1.13161 0
M  V30 1483 C 147.322 -4.4979 -0.0299747 0
M  V30 1484 C 148.641 -3.90435 -2.03098 0
M  V30 1485 H 145.76 -0.70734 -0.206975 0
M  V30 1486 H 148.402 -1.89309 0.161942 0
M  V30 1487 H 146.552 -3.46433 -1.7583 0
M  V30 1488 H 148.224 -4.57327 0.604112 0
M  V30 1489 H 146.467 -4.291 0.636833 0
M  V30 1490 H 147.138 -5.50069 -0.461287 0
M  V30 1491 H 149.614 -3.87992 -1.50338 0
M  V30 1492 H 148.49 -4.94097 -2.39081 0
M  V30 1493 H 148.751 -3.29541 -2.94712 0
M  V30 1494 N 147.81 0.181792 -1.56548 0
M  V30 1495 C 149.035 0.920019 -1.85877 0
M  V30 1496 C 149.46 1.75494 -0.677021 0
M  V30 1497 O 148.818 1.77399 0.374056 0
M  V30 1498 C 148.866 1.78112 -3.13542 0
M  V30 1499 O 147.97 2.88152 -2.95029 0
M  V30 1500 H 147.311 0.258334 -0.611686 0
M  V30 1501 H 149.841 0.183092 -2.03779 0
M  V30 1502 H 149.851 2.18314 -3.44678 0
M  V30 1503 H 148.526 1.16777 -3.99169 0
M  V30 1504 H 147.103 2.51609 -2.75222 0
M  V30 1505 N 149.288 1.51039 0.449983 0
M  V30 1506 C 150.565 1.53612 1.21089 0
M  V30 1507 C 150.945 0.292997 2.09057 0
M  V30 1508 O 150.293 -0.72259 2.16774 0
M  V30 1509 C 150.503 2.84337 2.0237 0
M  V30 1510 C 151.851 3.35807 2.59843 0
M  V30 1511 O 152.875 2.85802 2.12593 0
M  V30 1512 O 151.734 4.23029 3.45989 0
M  V30 1513 H 148.828 0.617057 0.550608 0
M  V30 1514 H 151.374 1.63344 0.460082 0
M  V30 1515 H 150.146 3.66278 1.37681 0
M  V30 1516 H 149.769 2.77708 2.84542 0
M  V30 1517 N 150.766 -0.704594 1.40972 0
M  V30 1518 C 152.014 -1.46169 1.39568 0
M  V30 1519 C 152.335 -1.95 0.00253745 0
M  V30 1520 O 151.605 -1.71095 -0.954114 0
M  V30 1521 H 150.185 -0.542326 0.513704 0
M  V30 1522 H 152.847 -0.834553 1.76128 0
M  V30 1523 H 151.943 -2.32922 2.07735 0
M  V30 1524 N 152.244 -1.26651 -0.937939 0
M  V30 1525 C 153.49 -1.12553 -1.687 0
M  V30 1526 C 153.823 0.329782 -1.91379 0
M  V30 1527 O 153.098 1.24202 -1.4968 0
M  V30 1528 C 153.381 -1.89862 -3.05981 0
M  V30 1529 C 153.234 -3.43318 -2.90607 0
M  V30 1530 C 154.553 -1.69499 -4.0615 0
M  V30 1531 H 151.672 -0.410257 -0.612257 0
M  V30 1532 H 154.314 -1.55685 -1.08913 0
M  V30 1533 H 152.464 -1.53204 -3.57017 0
M  V30 1534 H 154.136 -3.89747 -2.46769 0
M  V30 1535 H 152.379 -3.70179 -2.26164 0
M  V30 1536 H 153.05 -3.92642 -3.8799 0
M  V30 1537 H 155.526 -2.01442 -3.64088 0
M  V30 1538 H 154.402 -2.26002 -5.00214 0
M  V30 1539 H 154.663 -0.640365 -4.37438 0
M  V30 1540 N 153.722 1.14298 -1.08507 0
M  V30 1541 C 154.971 1.84708 -0.810305 0
M  V30 1542 C 155.284 1.83903 0.666271 0
M  V30 1543 O 156.49 2.50112 1.05624 0
M  V30 1544 C 154.946 3.31572 -1.39957 0
M  V30 1545 C 154.554 3.40791 -2.90801 0
M  V30 1546 C 156.298 4.07087 -1.20334 0
M  V30 1547 C 154.205 4.81872 -3.4286 0
M  V30 1548 H 153.135 0.691985 -0.299454 0
M  V30 1549 H 155.786 1.28841 -1.30661 0
M  V30 1550 H 154.168 3.87183 -0.830976 0
M  V30 1551 H 155.342 2.95225 -3.53806 0
M  V30 1552 H 153.657 2.78732 -3.0935 0
M  V30 1553 H 156.254 5.11225 -1.56693 0
M  V30 1554 H 156.597 4.16054 -0.143237 0
M  V30 1555 H 157.13 3.57779 -1.73893 0
M  V30 1556 H 153.869 4.78094 -4.48449 0
M  V30 1557 H 153.389 5.27972 -2.84615 0
M  V30 1558 H 155.068 5.50765 -3.39509 0
M  V30 1559 N 155.201 0.870884 1.31352 0
M  V30 1560 C 156.431 0.496049 2.00557 0
M  V30 1561 C 156.839 -0.916241 1.65534 0
M  V30 1562 O 156.182 -1.61188 0.881134 0
M  V30 1563 C 156.244 0.574418 3.54881 0
M  V30 1564 C 155.908 1.94849 4.1338 0
M  V30 1565 C 156.905 2.91611 4.30417 0
M  V30 1566 C 154.59 2.25005 4.49086 0
M  V30 1567 C 156.584 4.16672 4.82352 0
M  V30 1568 C 154.271 3.50315 5.00722 0
M  V30 1569 C 155.269 4.45964 5.17306 0
M  V30 1570 O 154.957 5.69052 5.67833 0
M  V30 1571 H 154.689 0.191664 0.64826 0
M  V30 1572 H 157.243 1.17409 1.68536 0
M  V30 1573 H 155.473 -0.160549 3.86367 0
M  V30 1574 H 157.162 0.212879 4.05341 0
M  V30 1575 H 157.928 2.69622 4.03149 0
M  V30 1576 H 153.807 1.51332 4.35453 0
M  V30 1577 H 157.351 4.91336 4.95211 0
M  V30 1578 H 153.248 3.72147 5.27424 0
M  V30 1579 H 154.016 5.71236 5.86201 0
M  V30 1580 N 156.679 -1.44442 0.630414 0
M  V30 1581 C 157.925 -2.02351 0.134816 0
M  V30 1582 C 158.258 -1.4947 -1.23986 0
M  V30 1583 O 157.533 -0.678475 -1.82283 0
M  V30 1584 C 157.816 -3.59898 0.120707 0
M  V30 1585 C 157.669 -4.23063 1.52767 0
M  V30 1586 C 158.988 -4.36585 -0.555127 0
M  V30 1587 H 156.107 -0.73527 0.0504646 0
M  V30 1588 H 158.749 -1.72022 0.806751 0
M  V30 1589 H 156.899 -3.85868 -0.451477 0
M  V30 1590 H 158.571 -4.08202 2.14869 0
M  V30 1591 H 156.814 -3.80586 2.08175 0
M  V30 1592 H 157.485 -5.32071 1.46984 0
M  V30 1593 H 159.961 -4.16044 -0.0685429 0
M  V30 1594 H 158.837 -5.46294 -0.534185 0
M  V30 1595 H 159.098 -4.11138 -1.62535 0
M  V30 1596 N 158.157 -0.370918 -1.53173 0
M  V30 1597 C 159.385 0.217704 -2.05751 0
M  V30 1598 C 159.8 1.42018 -1.24404 0
M  V30 1599 O 159.157 1.80245 -0.286033 0
M  V30 1600 C 159.208 0.605954 -3.56385 0
M  V30 1601 O 158.929 -0.548734 -4.3465 0
M  V30 1602 C 160.43 1.2524 -4.25241 0
M  V30 1603 H 157.65 0.0371659 -0.66997 0
M  V30 1604 H 160.194 -0.530832 -1.9749 0
M  V30 1605 H 158.349 1.3044 -3.6478 0
M  V30 1606 H 158.763 -0.23376 -5.23979 0
M  V30 1607 H 160.237 1.47458 -5.3194 0
M  V30 1608 H 160.714 2.2143 -3.79296 0
M  V30 1609 H 161.32 0.595233 -4.21114 0
M  V30 1610 N 159.635 1.57281 -0.100228 0
M  V30 1611 C 160.598 2.13158 0.842398 0
M  V30 1612 C 161.598 1.06202 1.20738 0
M  V30 1613 O 162.788 1.32066 1.13597 0
M  V30 1614 C 159.92 2.65639 2.13655 0
M  V30 1615 H 161.113 2.97766 0.357114 0
M  V30 1616 H 158.666 1.5559 0.148823 0
M  V30 1617 H 159.401 1.84566 2.66657 0
M  V30 1618 H 159.186 3.43844 1.88451 0
M  V30 1619 H 160.676 3.08846 2.81077 0
M  V30 1620 N 161.113 -0.173488 1.56642 0
M  V30 1621 C 162.338 -0.910149 1.86363 0
M  V30 1622 C 162.763 -1.75132 0.686318 0
M  V30 1623 O 162.121 -1.77595 -0.364643 0
M  V30 1624 C 162.169 -1.76447 3.14482 0
M  V30 1625 O 161.273 -2.86584 2.96553 0
M  V30 1626 H 160.614 -0.255086 0.613047 0
M  V30 1627 H 163.144 -0.172283 2.03873 0
M  V30 1628 H 163.154 -2.16483 3.45831 0
M  V30 1629 H 161.829 -1.14658 3.99783 0
M  V30 1630 H 160.406 -2.50146 2.76553 0
M  V30 1631 N 162.591 -1.51276 -0.441967 0
M  V30 1632 C 163.821 -1.67273 -1.21257 0
M  V30 1633 C 164.229 -0.367624 -1.85594 0
M  V30 1634 O 163.572 0.663349 -1.71305 0
M  V30 1635 C 163.634 -2.72807 -2.34129 0
M  V30 1636 C 163.298 -4.1554 -1.90198 0
M  V30 1637 C 164.295 -5.00471 -1.40801 0
M  V30 1638 C 161.98 -4.61616 -1.9803 0
M  V30 1639 C 163.974 -6.29536 -0.998174 0
M  V30 1640 C 161.661 -5.90679 -1.56658 0
M  V30 1641 C 162.659 -6.74466 -1.07633 0
M  V30 1642 O 162.347 -8.01116 -0.668459 0
M  V30 1643 H 162.079 -0.564614 -0.371734 0
M  V30 1644 H 164.633 -1.9843 -0.530521 0
M  V30 1645 H 162.863 -2.36954 -3.05597 0
M  V30 1646 H 164.552 -2.77729 -2.96009 0
M  V30 1647 H 165.318 -4.66079 -1.34148 0
M  V30 1648 H 161.197 -3.96526 -2.35135 0
M  V30 1649 H 164.741 -6.94885 -0.61482 0
M  V30 1650 H 160.638 -6.24586 -1.62979 0
M  V30 1651 H 161.406 -8.14633 -0.794722 0
M  V30 1652 N 164.069 0.697108 -1.41344 0
M  V30 1653 C 165.294 1.49096 -1.44171 0
M  V30 1654 C 165.719 1.88038 -0.0481568 0
M  V30 1655 O 165.077 1.54525 0.948243 0
M  V30 1656 C 165.125 2.73088 -2.3549 0
M  V30 1657 O 164.229 3.70514 -1.81088 0
M  V30 1658 H 163.57 0.448801 -0.489361 0
M  V30 1659 H 166.1 0.856992 -1.85787 0
M  V30 1660 H 166.11 3.21413 -2.51312 0
M  V30 1661 H 164.785 2.44081 -3.36745 0
M  V30 1662 H 163.362 3.29441 -1.74708 0
M  V30 1663 N 165.547 1.27147 0.931209 0
M  V30 1664 C 166.963 1.04475 1.20653 0
M  V30 1665 C 167.163 -0.223885 2.00252 0
M  V30 1666 O 166.219 -0.930332 2.34736 0
M  V30 1667 C 167.532 2.28209 1.95809 0
M  V30 1668 C 169.08 2.33211 2.08762 0
M  V30 1669 C 169.555 3.56665 2.87323 0
M  V30 1670 N 171.046 3.57201 2.94892 0
M  V30 1671 C 171.781 4.49395 3.56134 0
M  V30 1672 N 171.277 5.51889 4.18796 0
M  V30 1673 N 173.07 4.37026 3.53504 0
M  V30 1674 H 165.221 2.08612 0.399333 0
M  V30 1675 H 167.484 0.917312 0.239253 0
M  V30 1676 H 167.19 3.20538 1.44736 0
M  V30 1677 H 167.064 2.33247 2.96438 0
M  V30 1678 H 169.451 1.41391 2.59023 0
M  V30 1679 H 169.532 2.32178 1.07364 0
M  V30 1680 H 169.176 4.4882 2.37746 0
M  V30 1681 H 169.106 3.54948 3.88998 0
M  V30 1682 H 171.597 2.83074 2.50354 0
M  V30 1683 H 171.91 6.18409 4.63454 0
M  V30 1684 H 170.255 5.55735 4.17353 0
M  V30 1685 H 173.446 3.56166 3.03749 0
M  V30 1686 H 173.619 5.09067 4.00942 0
M  V30 1687 N 167.025 -1.13721 1.09112 0
M  V30 1688 C 167.955 -2.21148 0.749385 0
M  V30 1689 C 168.936 -1.6792 -0.271475 0
M  V30 1690 O 170.121 -1.93693 -0.140251 0
M  V30 1691 C 167.251 -3.46905 0.165659 0
M  V30 1692 C 166.205 -4.13203 1.11567 0
M  V30 1693 C 165.531 -5.33248 0.393809 0
M  V30 1694 C 166.831 -4.60912 2.45678 0
M  V30 1695 H 168.525 -2.4999 1.64758 0
M  V30 1696 H 166.071 -1.20156 0.793626 0
M  V30 1697 H 168.024 -4.21313 -0.085466 0
M  V30 1698 H 166.748 -3.17449 -0.767714 0
M  V30 1699 H 165.407 -3.40758 1.35202 0
M  V30 1700 H 165.055 -5.00054 -0.543599 0
M  V30 1701 H 164.755 -5.78552 1.02721 0
M  V30 1702 H 166.279 -6.10413 0.150908 0
M  V30 1703 H 167.693 -5.26759 2.26269 0
M  V30 1704 H 166.09 -5.16944 3.04776 0
M  V30 1705 H 167.16 -3.75603 3.06677 0
M  V30 1706 N 168.503 -0.877838 -1.30888 0
M  V30 1707 C 169.75 -0.492696 -1.96415 0
M  V30 1708 C 170.078 0.956671 -1.69346 0
M  V30 1709 O 169.333 1.68993 -0.986913 0
M  V30 1710 C 169.632 -0.705748 -3.50363 0
M  V30 1711 C 169.298 -2.1291 -3.97467 0
M  V30 1712 C 167.96 -2.51834 -4.1004 0
M  V30 1713 C 170.312 -3.05702 -4.22132 0
M  V30 1714 C 167.64 -3.82775 -4.44635 0
M  V30 1715 C 169.992 -4.36166 -4.58194 0
M  V30 1716 C 168.656 -4.74993 -4.68975 0
M  V30 1717 H 167.926 -0.18029 -0.718733 0
M  V30 1718 H 170.573 -1.11233 -1.55883 0
M  V30 1719 H 168.878 -0.00303058 -3.918 0
M  V30 1720 H 170.575 -0.387456 -3.99124 0
M  V30 1721 H 167.165 -1.81694 -3.88182 0
M  V30 1722 H 171.349 -2.76853 -4.11906 0
M  V30 1723 H 166.605 -4.12609 -4.51181 0
M  V30 1724 H 170.779 -5.08111 -4.76231 0
M  V30 1725 H 168.406 -5.76495 -4.95537 0
M  V30 1726 N 169.982 1.44106 -0.638065 0
M  V30 1727 C 170.945 2.29138 0.0531013 0
M  V30 1728 C 171.945 1.41409 0.765506 0
M  V30 1729 O 173.135 1.63206 0.609046 0
M  V30 1730 C 170.267 3.23144 1.08584 0
M  V30 1731 H 171.46 2.91739 -0.694883 0
M  V30 1732 H 169.013 1.51134 -0.398538 0
M  V30 1733 H 169.748 2.65408 1.86357 0
M  V30 1734 H 169.533 3.87804 0.578852 0
M  V30 1735 H 171.023 3.87004 1.56899 0
M  V30 1736 N 171.46 0.379036 1.52974 0
M  V30 1737 C 172.39 -0.452706 2.29069 0
M  V30 1738 C 173.371 -1.07237 1.32039 0
M  V30 1739 O 174.556 -1.08708 1.60923 0
M  V30 1740 C 171.686 -1.5856 3.08992 0
M  V30 1741 C 170.64 -1.0925 4.13822 0
M  V30 1742 C 169.966 -2.31668 4.81907 0
M  V30 1743 C 171.266 -0.167702 5.22031 0
M  V30 1744 H 172.96 0.182181 2.98845 0
M  V30 1745 H 170.506 0.0890592 1.43724 0
M  V30 1746 H 172.459 -2.1742 3.6098 0
M  V30 1747 H 171.183 -2.24792 2.36931 0
M  V30 1748 H 169.842 -0.526494 3.628 0
M  V30 1749 H 169.49 -2.96386 4.06404 0
M  V30 1750 H 169.19 -1.9934 5.52754 0
M  V30 1751 H 170.714 -2.91189 5.36695 0
M  V30 1752 H 172.128 -0.664186 5.6944 0
M  V30 1753 H 170.525 0.0653265 6.00064 0
M  V30 1754 H 171.595 0.786347 4.78482 0
M  V30 1755 N 172.938 -1.57226 0.108567 0
M  V30 1756 C 174.215 -1.86333 -0.594939 0
M  V30 1757 C 174.595 -1.00788 -1.85486 0
M  V30 1758 O 173.943 -0.0839293 -2.28346 0
M  V30 1759 C 174.153 -3.37265 -0.897405 0
M  V30 1760 C 175.501 -4.05629 -1.25501 0
M  V30 1761 O 176.525 -3.42224 -0.987998 0
M  V30 1762 O 175.384 -5.17531 -1.75567 0
M  V30 1763 H 172.478 -0.771018 -0.2991 0
M  V30 1764 H 175.024 -1.69102 0.142283 0
M  V30 1765 H 173.796 -3.913 -0.00413806 0
M  V30 1766 H 173.419 -3.59889 -1.69014 0
M  V30 1767 N 174.416 0.165178 -1.56732 0
M  V30 1768 C 175.379 1.18822 -1.95995 0
M  V30 1769 C 176.379 1.3685 -0.84431 0
M  V30 1770 O 177.569 1.34152 -1.11126 0
M  V30 1771 C 174.701 2.5521 -2.26011 0
M  V30 1772 H 175.894 0.851825 -2.87548 0
M  V30 1773 H 173.447 0.407857 -1.50885 0
M  V30 1774 H 174.182 2.93852 -1.37191 0
M  V30 1775 H 173.967 2.43489 -3.07336 0
M  V30 1776 H 175.457 3.28927 -2.57288 0
M  V30 1777 N 175.894 1.51508 0.433938 0
M  V30 1778 C 176.841 1.73068 1.52696 0
M  V30 1779 C 177.811 0.572441 1.55924 0
M  V30 1780 O 178.996 0.807253 1.72882 0
M  V30 1781 C 176.136 1.86474 2.90381 0
M  V30 1782 C 175.249 3.14037 2.96656 0
M  V30 1783 C 174.384 3.18019 4.25485 0
M  V30 1784 C 173.423 4.39882 4.2564 0
M  V30 1785 N 172.56 4.41394 5.45999 0
M  V30 1786 H 177.4 2.66366 1.33615 0
M  V30 1787 H 174.937 1.32008 0.649018 0
M  V30 1788 H 176.895 1.92229 3.70275 0
M  V30 1789 H 175.525 0.965809 3.08013 0
M  V30 1790 H 174.577 3.17575 2.09404 0
M  V30 1791 H 175.889 4.0394 2.92633 0
M  V30 1792 H 175.043 3.22708 5.13755 0
M  V30 1793 H 173.782 2.2601 4.3217 0
M  V30 1794 H 172.787 4.35366 3.35763 0
M  V30 1795 H 174.012 5.33159 4.20617 0
M  V30 1796 H 171.958 3.52258 5.53399 0
M  V30 1797 H 171.875 5.25111 5.4387 0
M  V30 1798 H 173.143 4.50281 6.36292 0
M  V30 1799 N 177.372 -0.689602 1.41712 0
M  V30 1800 C 178.6 -1.47827 1.44758 0
M  V30 1801 C 179.015 -1.88721 0.0545703 0
M  V30 1802 O 178.372 -1.57176 -0.927463 0
M  V30 1803 C 178.423 -2.73698 2.3616 0
M  V30 1804 O 178.144 -2.34524 3.7004 0
M  V30 1805 C 179.645 -3.67389 2.48072 0
M  V30 1806 H 176.865 -0.455357 0.49284 0
M  V30 1807 H 179.409 -0.848574 1.86063 0
M  V30 1808 H 177.564 -3.32891 1.98148 0
M  V30 1809 H 177.978 -3.15701 4.18847 0
M  V30 1810 H 179.452 -4.52475 3.16181 0
M  V30 1811 H 179.929 -4.12284 1.51388 0
M  V30 1812 H 180.535 -3.14097 2.86746 0
M  V30 1813 N 178.85 -1.27639 -0.924453 0
M  V30 1814 C 180.098 -1.13941 -1.66918 0
M  V30 1815 C 180.419 0.314589 -1.92446 0
M  V30 1816 O 179.689 1.21964 -1.53303 0
M  V30 1817 H 178.269 -0.418678 -0.618642 0
M  V30 1818 H 180.931 -1.60213 -1.10985 0
M  V30 1819 H 180.027 -1.67094 -2.63602 0
M  V30 1820 N 180.328 1.1314 -1.09713 0
M  V30 1821 C 181.275 2.18642 -0.739196 0
M  V30 1822 C 182.245 1.63706 0.280978 0
M  V30 1823 O 183.43 1.90111 0.161946 0
M  V30 1824 C 180.57 3.44685 -0.169102 0
M  V30 1825 C 179.683 4.13711 -1.24367 0
M  V30 1826 C 178.818 5.27379 -0.636019 0
M  V30 1827 C 177.857 5.88259 -1.69169 0
M  V30 1828 N 176.994 6.93352 -1.10485 0
M  V30 1829 H 181.834 2.48607 -1.64312 0
M  V30 1830 H 179.371 1.22066 -0.820875 0
M  V30 1831 H 181.329 4.16815 0.179256 0
M  V30 1832 H 179.959 3.15161 0.698079 0
M  V30 1833 H 179.011 3.39835 -1.70927 0
M  V30 1834 H 180.323 4.55037 -2.04311 0
M  V30 1835 H 179.477 6.06238 -0.236677 0
M  V30 1836 H 178.216 4.8731 0.194928 0
M  V30 1837 H 177.221 5.08092 -2.10055 0
M  V30 1838 H 178.446 6.30399 -2.52536 0
M  V30 1839 H 176.392 6.55335 -0.295234 0
M  V30 1840 H 176.309 7.33236 -1.84121 0
M  V30 1841 H 177.577 7.76057 -0.73181 0
M  V30 1842 N 181.806 0.884767 1.30421 0
M  V30 1843 C 183.222 0.57874 1.48737 0
M  V30 1844 C 183.422 -0.883567 1.81095 0
M  V30 1845 O 182.478 -1.6648 1.89844 0
M  V30 1846 C 183.791 1.49171 2.61091 0
M  V30 1847 C 185.339 1.49532 2.74971 0
M  V30 1848 C 185.814 2.39421 3.90438 0
M  V30 1849 N 187.305 2.37383 3.97748 0
M  V30 1850 C 188.04 3.03647 4.86401 0
M  V30 1851 N 187.536 3.79136 5.79852 0
M  V30 1852 N 189.329 2.9288 4.79768 0
M  V30 1853 H 181.48 1.83075 1.0769 0
M  V30 1854 H 183.743 0.783637 0.533495 0
M  V30 1855 H 183.449 2.53291 2.44001 0
M  V30 1856 H 183.323 1.20113 3.57565 0
M  V30 1857 H 185.71 0.46163 2.91467 0
M  V30 1858 H 185.791 1.8262 1.79119 0
M  V30 1859 H 185.435 3.42874 3.74699 0
M  V30 1860 H 185.365 2.03649 4.85628 0
M  V30 1861 H 187.856 1.82525 3.30897 0
M  V30 1862 H 188.169 4.26789 6.4426 0
M  V30 1863 H 186.514 3.83243 5.79784 0
M  V30 1864 H 189.705 2.33433 4.05742 0
M  V30 1865 H 189.878 3.448 5.4865 0
M  V30 1866 N 183.284 -1.43765 0.645699 0
M  V30 1867 C 184.214 -2.33471 -0.0370477 0
M  V30 1868 C 185.195 -1.49042 -0.819779 0
M  V30 1869 O 186.38 -1.77726 -0.782758 0
M  V30 1870 C 183.51 -3.32311 -1.0093 0
M  V30 1871 C 182.464 -4.2667 -0.337201 0
M  V30 1872 C 181.79 -5.1549 -1.42037 0
M  V30 1873 C 183.09 -5.16657 0.765706 0
M  V30 1874 H 184.784 -2.90809 0.712069 0
M  V30 1875 H 182.33 -1.39834 0.343876 0
M  V30 1876 H 184.283 -3.9396 -1.49578 0
M  V30 1877 H 183.007 -2.73213 -1.78948 0
M  V30 1878 H 181.666 -3.66374 0.128771 0
M  V30 1879 H 181.314 -4.52735 -2.1918 0
M  V30 1880 H 181.014 -5.79438 -0.975966 0
M  V30 1881 H 182.538 -5.80012 -1.90838 0
M  V30 1882 H 183.952 -5.72158 0.361702 0
M  V30 1883 H 182.349 -5.89286 1.13413 0
M  V30 1884 H 183.419 -4.56796 1.62683 0
M  V30 1885 N 184.763 -0.387143 -1.52771 0
M  V30 1886 C 186.009 0.188506 -2.02525 0
M  V30 1887 C 186.364 1.44649 -1.26864 0
M  V30 1888 O 185.657 1.88189 -0.359945 0
M  V30 1889 C 185.851 0.512209 -3.53711 0
M  V30 1890 C 185.68 -0.712855 -4.44014 0
M  V30 1891 C 184.45 -1.23147 -4.90064 0
M  V30 1892 C 186.648 -1.58453 -4.89282 0
M  V30 1893 N 184.63 -2.41431 -5.64433 0
M  V30 1894 C 186.001 -2.61381 -5.6221 0
M  V30 1895 C 188.056 -1.60488 -4.71326 0
M  V30 1896 C 186.759 -3.66227 -6.19088 0
M  V30 1897 C 188.785 -2.6424 -5.29085 0
M  V30 1898 C 188.147 -3.6589 -6.01917 0
M  V30 1899 H 184.246 0.0311236 -0.78138 0
M  V30 1900 H 186.83 -0.536548 -1.87161 0
M  V30 1901 H 185.001 1.20632 -3.69192 0
M  V30 1902 H 186.733 1.07482 -3.90166 0
M  V30 1903 H 183.488 -0.792795 -4.66917 0
M  V30 1904 H 183.912 -3.01274 -6.0627 0
M  V30 1905 H 188.554 -0.83247 -4.14524 0
M  V30 1906 H 186.272 -4.44337 -6.74974 0
M  V30 1907 H 189.858 -2.66695 -5.17074 0
M  V30 1908 H 188.738 -4.44855 -6.45813 0
M  V30 1909 N 186.241 1.57166 -0.116904 0
M  V30 1910 C 187.469 1.99473 0.549383 0
M  V30 1911 C 187.884 0.996541 1.60357 0
M  V30 1912 O 187.241 -0.0108731 1.82497 0
M  V30 1913 C 187.292 3.41788 1.17741 0
M  V30 1914 O 187.013 4.37788 0.165362 0
M  V30 1915 C 188.514 3.99216 1.92722 0
M  V30 1916 H 185.734 0.655009 0.145616 0
M  V30 1917 H 188.278 2.03494 -0.202625 0
M  V30 1918 H 186.433 3.38713 1.88021 0
M  V30 1919 H 186.847 5.20806 0.621403 0
M  V30 1920 H 188.321 5.00882 2.31995 0
M  V30 1921 H 188.798 3.3824 2.80161 0
M  V30 1922 H 189.404 4.0583 1.27209 0
M  V30 1923 N 187.719 -0.156864 1.56817 0
M  V30 1924 C 188.949 -0.885031 1.86684 0
M  V30 1925 C 189.357 -1.75696 0.701954 0
M  V30 1926 O 188.7 -1.80569 -0.337732 0
M  V30 1927 C 188.762 -1.80092 3.11138 0
M  V30 1928 C 188.426 -1.10714 4.43386 0
M  V30 1929 C 189.423 -0.465714 5.1781 0
M  V30 1930 C 187.108 -1.09959 4.90117 0
M  V30 1931 C 189.102 0.174002 6.37162 0
M  V30 1932 C 186.789 -0.456055 6.09396 0
M  V30 1933 C 187.787 0.179622 6.82764 0
M  V30 1934 O 187.475 0.812975 7.99779 0
M  V30 1935 H 187.207 -0.261813 0.623242 0
M  V30 1936 H 189.761 -0.157383 2.04796 0
M  V30 1937 H 187.991 -2.56926 2.89009 0
M  V30 1938 H 189.68 -2.40018 3.27332 0
M  V30 1939 H 190.446 -0.463427 4.82781 0
M  V30 1940 H 186.325 -1.58378 4.3294 0
M  V30 1941 H 189.869 0.670765 6.94368 0
M  V30 1942 H 185.766 -0.455975 6.43888 0
M  V30 1943 H 186.534 0.71366 8.15383 0
M  V30 1944 N 189.197 -1.51736 -0.425897 0
M  V30 1945 C 190.145 -1.74464 -1.53834 0
M  V30 1946 C 191.139 -0.611241 -1.57988 0
M  V30 1947 O 192.345 -0.792899 -1.61596 0
M  V30 1948 H 188.72 -0.551437 -0.511293 0
M  V30 1949 H 190.691 -2.67694 -1.31843 0
M  V30 1950 C 189.44 -1.8972 -2.91379 0
M  V30 1951 H 188.763 -2.76344 -2.88919 0
M  V30 1952 H 190.203 -2.09629 -3.68553 0
M  V30 1953 C 188.662 -0.65992 -3.30374 0
M  V30 1954 O 189.192 0.180083 -4.01296 0
M  V30 1955 N 187.398 -0.500677 -2.86254 0
M  V30 1956 H 186.945 -1.18532 -2.28709 0
M  V30 1957 H 186.903 0.325903 -3.12706 0
M  V30 1958 N 190.675 0.682077 -1.42076 0
M  V30 1959 C 191.625 1.78823 -1.41444 0
M  V30 1960 C 192.609 1.58323 -0.28681 0
M  V30 1961 O 193.801 1.68926 -0.528498 0
M  V30 1962 C 190.93 3.17232 -1.3122 0
M  V30 1963 C 190.016 3.4338 -2.489 0
M  V30 1964 N 190.407 3.40152 -3.7434 0
M  V30 1965 C 188.705 3.73986 -2.43003 0
M  V30 1966 C 189.406 3.65581 -4.52466 0
M  V30 1967 N 188.382 3.85989 -3.8277 0
M  V30 1968 H 192.184 1.7471 -2.36334 0
M  V30 1969 H 189.698 0.882622 -1.36321 0
M  V30 1970 H 191.695 3.96489 -1.2885 0
M  V30 1971 H 190.355 3.22547 -0.373263 0
M  V30 1972 H 191.366 3.20221 -4.07037 0
M  V30 1973 H 188.043 3.86591 -1.57651 0
M  V30 1974 H 189.433 3.69108 -5.61435 0
M  V30 1975 N 192.153 1.28127 0.917671 0
M  V30 1976 C 193.569 1.05749 1.19538 0
M  V30 1977 C 193.769 -0.202633 2.00479 0
M  V30 1978 O 192.825 -0.905382 2.3571 0
M  V30 1979 C 194.138 2.30273 1.93378 0
M  V30 1980 C 195.686 2.35412 2.06277 0
M  V30 1981 C 196.161 3.59692 2.83524 0
M  V30 1982 N 197.652 3.60309 2.91087 0
M  V30 1983 C 198.387 4.53147 3.51348 0
M  V30 1984 N 197.883 5.563 4.12919 0
M  V30 1985 N 199.676 4.40751 3.48849 0
M  V30 1986 H 191.827 2.09024 0.377184 0
M  V30 1987 H 194.09 0.919798 0.22951 0
M  V30 1988 H 193.796 3.22055 1.41328 0
M  V30 1989 H 193.67 2.36378 2.93947 0
M  V30 1990 H 196.057 1.4413 2.57508 0
M  V30 1991 H 196.138 2.33304 1.04895 0
M  V30 1992 H 195.782 4.51316 2.32973 0
M  V30 1993 H 195.712 3.59054 3.85211 0
M  V30 1994 H 198.203 2.85714 2.47338 0
M  V30 1995 H 198.516 6.2329 4.56869 0
M  V30 1996 H 196.861 5.60131 4.11435 0
M  V30 1997 H 200.052 3.59367 2.99955 0
M  V30 1998 H 200.225 5.13291 3.9552 0
M  V30 1999 N 193.631 -1.12557 1.10312 0
M  V30 2000 C 194.561 -2.20341 0.772798 0
M  V30 2001 C 195.542 -1.68198 -0.25365 0
M  V30 2002 O 196.727 -1.93831 -0.119699 0
M  V30 2003 C 193.857 -3.46709 0.202443 0
M  V30 2004 C 192.811 -4.11996 1.15943 0
M  V30 2005 C 192.137 -5.328 0.450345 0
M  V30 2006 C 193.437 -4.5828 2.50552 0
M  V30 2007 H 195.131 -2.48229 1.674 0
M  V30 2008 H 192.677 -1.19308 0.806326 0
M  V30 2009 H 194.63 -4.2138 -0.0407752 0
M  V30 2010 H 193.354 -3.18245 -0.734001 0
M  V30 2011 H 192.013 -3.39305 1.38808 0
M  V30 2012 H 191.661 -5.00602 -0.490531 0
M  V30 2013 H 191.361 -5.7743 1.08851 0
M  V30 2014 H 192.885 -6.10219 0.215642 0
M  V30 2015 H 194.299 -5.2433 2.31843 0
M  V30 2016 H 192.696 -5.13683 3.10242 0
M  V30 2017 H 193.766 -3.72329 3.10643 0
M  V30 2018 N 195.109 -0.891671 -1.2995 0
M  V30 2019 C 196.52 -0.563104 -1.78006 0
M  V30 2020 C 196.871 0.920978 -1.73241 0
M  V30 2021 O 195.996 1.71987 -1.31337 0
M  V30 2022 C 196.591 -1.01539 -3.23226 0
M  V30 2023 C 195.15 -0.738124 -3.69092 0
M  V30 2024 C 194.297 -1.19461 -2.50249 0
M  V30 2025 H 197.248 -1.07522 -1.16725 0
M  V30 2026 H 197.269 -0.347217 -3.78912 0
M  V30 2027 H 196.781 -2.09555 -3.26662 0
M  V30 2028 H 194.882 0.329766 -3.71138 0
M  V30 2029 H 194.995 -1.33037 -4.60259 0
M  V30 2030 H 193.359 -0.613787 -2.47194 0
M  V30 2031 H 194.142 -2.28265 -2.56417 0
M  V30 2032 N 196.587 1.43421 -0.653314 0
M  V30 2033 C 197.864 1.95361 -0.0966581 0
M  V30 2034 C 198.244 1.59461 1.38331 0
M  V30 2035 O 197.592 0.879777 2.10884 0
M  V30 2036 C 197.802 3.47311 -0.342988 0
M  V30 2037 C 199.15 4.23875 -0.24798 0
M  V30 2038 O 200.174 3.55133 -0.275553 0
M  V30 2039 O 199.033 5.4623 -0.171771 0
M  V30 2040 H 196.127 0.826945 0.00956291 0
M  V30 2041 H 198.673 1.5336 -0.726558 0
M  V30 2042 H 197.445 3.66569 -1.36906 0
M  V30 2043 H 197.068 3.9631 0.319975 0
M  V30 2044 N 198.065 0.39524 1.52563 0
M  V30 2045 C 199.342 -0.242908 1.94086 0
M  V30 2046 C 199.722 -1.63841 1.33114 0
M  V30 2047 O 199.07 -2.22928 0.501529 0
M  V30 2048 C 199.28 -0.26327 3.48006 0
M  V30 2049 C 200.628 -0.489354 4.21771 0
M  V30 2050 O 201.652 -0.343226 3.54543 0
M  V30 2051 O 200.511 -0.776169 5.4096 0
M  V30 2052 H 197.605 -0.152536 0.812811 0
M  V30 2053 H 200.151 0.450178 1.6362 0
M  V30 2054 H 198.923 0.713985 3.84731 0
M  V30 2055 H 198.546 -1.00103 3.84792 0
M  V30 2056 N 199.544 -1.57102 0.125237 0
M  V30 2057 C 200.793 -1.94582 -0.531095 0
M  V30 2058 C 201.106 -1.01126 -1.6743 0
M  V30 2059 O 202.312 -1.28097 -2.39381 0
M  V30 2060 C 200.768 -3.45839 -0.996164 0
M  V30 2061 C 200.376 -4.47842 0.118926 0
M  V30 2062 C 202.12 -3.92227 -1.62352 0
M  V30 2063 C 200.027 -5.90284 -0.363192 0
M  V30 2064 H 198.957 -0.726391 -0.20217 0
M  V30 2065 H 201.608 -1.82339 0.206092 0
M  V30 2066 H 199.99 -3.53338 -1.78796 0
M  V30 2067 H 201.164 -4.52018 0.895358 0
M  V30 2068 H 199.479 -4.11243 0.653324 0
M  V30 2069 H 202.076 -4.96069 -1.99548 0
M  V30 2070 H 202.419 -3.32552 -2.50429 0
M  V30 2071 H 202.952 -3.87554 -0.897019 0
M  V30 2072 H 199.691 -6.53728 0.481679 0
M  V30 2073 H 199.211 -5.89515 -1.10597 0
M  V30 2074 H 200.89 -6.41752 -0.822377 0
M  V30 2075 N 201.022 0.148545 -1.56898 0
M  V30 2076 C 202.438 0.501131 -1.51528 0
M  V30 2077 C 202.638 1.83458 -0.833399 0
M  V30 2078 O 201.694 2.49259 -0.40328 0
M  V30 2079 C 203.007 0.512864 -2.96294 0
M  V30 2080 C 204.555 0.598487 -3.07225 0
M  V30 2081 C 205.03 0.640897 -4.53494 0
M  V30 2082 N 206.521 0.703163 -4.57832 0
M  V30 2083 C 207.256 0.756935 -5.68382 0
M  V30 2084 N 206.752 0.770147 -6.88506 0
M  V30 2085 N 208.545 0.797698 -5.56411 0
M  V30 2086 H 200.696 -0.725532 -1.99624 0
M  V30 2087 H 202.959 -0.264358 -0.910395 0
M  V30 2088 H 202.665 -0.398691 -3.49433 0
M  V30 2089 H 202.539 1.35133 -3.52163 0
M  V30 2090 H 204.926 1.50046 -2.54106 0
M  V30 2091 H 205.007 -0.267093 -2.54402 0
M  V30 2092 H 204.651 -0.256915 -5.0725 0
M  V30 2093 H 204.581 1.52295 -5.04097 0
M  V30 2094 H 207.072 0.700314 -3.71354 0
M  V30 2095 H 207.385 0.812983 -7.68512 0
M  V30 2096 H 205.73 0.738049 -6.9107 0
M  V30 2097 H 208.921 0.784535 -4.61479 0
M  V30 2098 H 209.094 0.83614 -6.42583 0
M  V30 2099 N 202.5 1.5196 0.417844 0
M  V30 2100 C 203.911 1.57851 0.997 0
M  V30 2101 C 204.262 0.413714 1.91789 0
M  V30 2102 O 203.387 -0.467057 2.113 0
M  V30 2103 C 203.982 2.86085 1.81496 0
M  V30 2104 C 202.541 2.94483 2.34428 0
M  V30 2105 C 201.688 2.52707 1.14169 0
M  V30 2106 H 204.639 1.57455 0.198392 0
M  V30 2107 H 204.66 2.70947 2.67148 0
M  V30 2108 H 204.172 3.70842 1.14446 0
M  V30 2109 H 202.273 2.142 3.04875 0
M  V30 2110 H 202.386 3.98546 2.65891 0
M  V30 2111 H 200.75 2.06353 1.49301 0
M  V30 2112 H 201.533 3.39828 0.486999 0
M  V30 2113 N 203.978 -0.674533 1.42435 0
M  V30 2114 C 205.218 -1.4466 1.44405 0
M  V30 2115 C 205.582 -1.91911 0.0585784 0
M  V30 2116 O 206.783 -2.68759 -0.0469991 0
M  V30 2117 C 205.054 -2.61136 2.44013 0
M  V30 2118 S 206.613 -3.49981 2.64687 0
M  V30 2119 H 203.431 -0.494074 0.511284 0
M  V30 2120 H 206.033 -0.785162 1.7904 0
M  V30 2121 H 204.737 -2.24662 3.43446 0
M  V30 2122 H 204.268 -3.32153 2.10803 0
M  V30 2123 H 206.283 -4.57124 1.93007 0
M  V30 2124 N 205.456 -1.28612 -0.910864 0
M  V30 2125 C 206.696 -1.1719 -1.67469 0
M  V30 2126 C 207.06 0.274441 -1.90028 0
M  V30 2127 O 208.261 0.511425 -2.6389 0
M  V30 2128 C 206.532 -1.95137 -2.99427 0
M  V30 2129 S 208.091 -2.00122 -3.90508 0
M  V30 2130 H 204.909 -0.41806 -0.575106 0
M  V30 2131 H 207.511 -1.6275 -1.08317 0
M  V30 2132 H 206.215 -2.99381 -2.80712 0
M  V30 2133 H 205.746 -1.50137 -3.63624 0
M  V30 2134 H 207.761 -1.10981 -4.8363 0
M  V30 2135 N 206.934 1.1197 -1.10907 0
M  V30 2136 C 208.211 1.79959 -0.766432 0
M  V30 2137 C 208.591 1.97466 0.746363 0
M  V30 2138 O 207.939 1.55491 1.67436 0
M  V30 2139 C 208.149 3.14009 -1.52314 0
M  V30 2140 C 209.497 3.89134 -1.69883 0
M  V30 2141 O 210.521 3.2368 -1.48692 0
M  V30 2142 O 209.38 5.06572 -2.05054 0
M  V30 2143 H 206.474 0.779208 -0.277062 0
M  V30 2144 H 209.02 1.18762 -1.21217 0
M  V30 2145 H 207.792 2.96587 -2.55249 0
M  V30 2146 H 207.415 3.82915 -1.07059 0
M  V30 2147 N 208.412 0.89855 1.29475 0
M  V30 2148 C 209.658 0.524658 1.95896 0
M  V30 2149 C 209.991 -0.926468 1.70676 0
M  V30 2150 O 209.266 -1.65665 1.01908 0
M  V30 2151 C 209.549 0.81633 3.50725 0
M  V30 2152 C 209.402 2.31907 3.85408 0
M  V30 2153 C 210.721 0.302038 4.39062 0
M  V30 2154 H 207.84 0.19209 0.711527 0
M  V30 2155 H 210.482 1.12502 1.53112 0
M  V30 2156 H 208.632 0.305369 3.87298 0
M  V30 2157 H 210.304 2.89949 3.58786 0
M  V30 2158 H 208.547 2.78027 3.32992 0
M  V30 2159 H 209.218 2.47373 4.93468 0
M  V30 2160 H 211.694 0.739551 4.09475 0
M  V30 2161 H 210.57 0.535331 5.46283 0
M  V30 2162 H 210.831 -0.797216 4.34853 0
M  V30 2163 N 209.89 -1.43072 0.660911 0
M  V30 2164 C 211.136 -2.0202 0.177708 0
M  V30 2165 C 211.469 -1.52066 -1.20787 0
M  V30 2166 O 210.744 -0.716987 -1.80802 0
M  V30 2167 C 211.027 -3.59561 0.197019 0
M  V30 2168 C 210.88 -4.19727 1.61706 0
M  V30 2169 C 212.199 -4.37664 -0.462396 0
M  V30 2170 H 209.318 -0.734034 0.0660494 0
M  V30 2171 H 211.96 -1.70272 0.843058 0
M  V30 2172 H 210.11 -3.86739 -0.369527 0
M  V30 2173 H 211.782 -4.03553 2.23479 0
M  V30 2174 H 210.025 -3.76084 2.16201 0
M  V30 2175 H 210.696 -5.28834 1.58237 0
M  V30 2176 H 213.172 -4.16095 0.0197215 0
M  V30 2177 H 212.048 -5.47305 -0.418188 0
M  V30 2178 H 212.309 -4.14493 -1.53778 0
M  V30 2179 N 211.368 -0.403325 -1.52352 0
M  V30 2180 C 212.316 0.439752 -2.28405 0
M  V30 2181 C 213.31 1.05089 -1.32863 0
M  V30 2182 O 214.516 0.989759 -1.50345 0
M  V30 2183 H 210.891 0.160587 -0.734653 0
M  V30 2184 H 212.862 -0.222983 -2.97566 0
M  V30 2185 C 211.611 1.54736 -3.11371 0
M  V30 2186 H 210.934 1.08643 -3.84755 0
M  V30 2187 H 212.374 2.1112 -3.67701 0
M  V30 2188 C 210.833 2.51141 -2.24566 0
M  V30 2189 O 211.363 3.54887 -1.88196 0
M  V30 2190 N 209.569 2.21213 -1.8845 0
M  V30 2191 H 209.116 1.36878 -2.18225 0
M  V30 2192 H 209.074 2.85963 -1.30662 0
M  V30 2193 N 212.846 1.57033 -0.133567 0
M  V30 2194 C 214.262 1.58035 0.222944 0
M  V30 2195 C 214.462 1.14713 1.6566 0
M  V30 2196 O 213.518 0.841218 2.38075 0
M  V30 2197 C 214.831 3.00691 -0.0236116 0
M  V30 2198 C 216.379 3.12973 0.0411512 0
M  V30 2199 C 216.854 4.57654 -0.177899 0
M  V30 2200 N 218.345 4.63033 -0.124365 0
M  V30 2201 C 219.08 5.72771 -0.268553 0
M  V30 2202 N 218.576 6.91206 -0.46972 0
M  V30 2203 N 220.369 5.61718 -0.2071 0
M  V30 2204 H 212.52 1.8349 -1.06981 0
M  V30 2205 H 214.783 0.848677 -0.422436 0
M  V30 2206 H 214.489 3.36726 -1.0153 0
M  V30 2207 H 214.363 3.70614 0.701808 0
M  V30 2208 H 216.75 2.76787 1.02338 0
M  V30 2209 H 216.831 2.45564 -0.716383 0
M  V30 2210 H 216.475 4.94542 -1.15717 0
M  V30 2211 H 216.405 5.23173 0.599797 0
M  V30 2212 H 218.896 3.7789 0.027011 0
M  V30 2213 H 219.209 7.70693 -0.570212 0
M  V30 2214 H 217.554 6.93156 -0.505876 0
M  V30 2215 H 220.745 4.68072 -0.0507986 0
M  V30 2216 H 220.918 6.47195 -0.322909 0
M  V30 2217 N 214.325 -0.140222 1.56975 0
M  V30 2218 C 215.573 -0.850005 1.83356 0
M  V30 2219 C 215.894 -1.81399 0.71551 0
M  V30 2220 O 215.164 -1.94136 -0.262294 0
M  V30 2221 H 213.744 -0.316886 0.676456 0
M  V30 2222 H 216.406 -0.132608 1.94448 0
M  V30 2223 H 215.502 -1.40814 2.78528 0
M  V30 2224 N 215.803 -1.52179 -0.40978 0
M  V30 2225 C 216.766 -1.74853 -1.48186 0
M  V30 2226 C 217.766 -0.618417 -1.48433 0
M  V30 2227 O 218.956 -0.886286 -1.49969 0
M  V30 2228 C 216.088 -1.8303 -2.87598 0
M  V30 2229 H 217.281 -2.70559 -1.29374 0
M  V30 2230 H 214.834 -1.42586 -0.640233 0
M  V30 2231 H 215.569 -0.89236 -3.11781 0
M  V30 2232 H 215.354 -2.65187 -2.88822 0
M  V30 2233 H 216.844 -2.02316 -3.65319 0
M  V30 2234 N 217.281 0.66697 -1.42791 0
M  V30 2235 C 218.244 1.76211 -1.46568 0
M  V30 2236 C 219.244 1.56896 -0.352196 0
M  V30 2237 O 220.434 1.63044 -0.613364 0
M  V30 2238 C 217.566 3.14935 -1.30494 0
M  V30 2239 H 218.759 1.74247 -2.44086 0
M  V30 2240 H 216.312 0.877342 -1.29354 0
M  V30 2241 H 217.047 3.2252 -0.339301 0
M  V30 2242 H 216.832 3.30359 -2.11199 0
M  V30 2243 H 218.322 3.94821 -1.36038 0
M  V30 2244 N 218.759 1.29093 0.90403 0
M  V30 2245 C 220.008 1.16187 1.64874 0
M  V30 2246 C 220.321 -0.286742 1.93487 0
M  V30 2247 O 221.527 -0.537062 2.66135 0
M  V30 2248 C 219.983 2.03177 2.97064 0
M  V30 2249 C 219.591 3.52836 2.76062 0
M  V30 2250 C 221.335 1.98984 3.74974 0
M  V30 2251 C 219.242 4.31945 4.03952 0
M  V30 2252 H 218.172 0.431246 0.618501 0
M  V30 2253 H 220.823 1.53699 1.00243 0
M  V30 2254 H 219.205 1.5853 3.62883 0
M  V30 2255 H 220.379 4.05507 2.18863 0
M  V30 2256 H 218.694 3.58656 2.11553 0
M  V30 2257 H 221.291 2.55351 4.69787 0
M  V30 2258 H 221.634 0.968815 4.0487 0
M  V30 2259 H 222.167 2.41652 3.15989 0
M  V30 2260 H 218.906 5.34667 3.79225 0
M  V30 2261 H 218.426 3.84045 4.60727 0
M  V30 2262 H 220.105 4.42379 4.72133 0
M  V30 2263 N 220.237 -1.11381 1.11499 0
M  V30 2264 C 221.467 -1.86663 0.885464 0
M  V30 2265 C 221.875 -1.80464 -0.568281 0
M  V30 2266 O 221.218 -1.18445 -1.40415 0
M  V30 2267 C 221.28 -3.36337 1.26956 0
M  V30 2268 C 220.944 -3.66304 2.73259 0
M  V30 2269 C 221.941 -3.63733 3.71476 0
M  V30 2270 C 219.626 -3.9529 3.09921 0
M  V30 2271 C 221.62 -3.89725 5.04374 0
M  V30 2272 C 219.307 -4.20941 4.43004 0
M  V30 2273 C 220.305 -4.18147 5.40039 0
M  V30 2274 O 219.993 -4.43153 6.70724 0
M  V30 2275 H 219.725 -0.597114 0.316908 0
M  V30 2276 H 222.279 -1.41782 1.48617 0
M  V30 2277 H 220.509 -3.81826 0.611999 0
M  V30 2278 H 222.198 -3.92986 1.01573 0
M  V30 2279 H 222.964 -3.41389 3.44498 0
M  V30 2280 H 218.843 -3.966 2.35009 0
M  V30 2281 H 222.387 -3.8746 5.80104 0
M  V30 2282 H 218.284 -4.42761 4.69716 0
M  V30 2283 H 219.052 -4.60717 6.76522 0
M  V30 2284 N 221.715 -0.905404 -1.28997 0
M  V30 2285 C 222.963 -0.533192 -1.9494 0
M  V30 2286 C 223.284 0.924618 -1.71685 0
M  V30 2287 O 222.554 1.65268 -1.05183 0
M  V30 2288 H 221.134 -0.194194 -0.721317 0
M  V30 2289 H 223.796 -1.15294 -1.57141 0
M  V30 2290 H 222.892 -0.72059 -3.03667 0
M  V30 2291 N 223.193 1.4272 -0.668489 0
M  V30 2292 C 224.47 1.95248 -0.117373 0
M  V30 2293 C 224.85 1.60919 1.36632 0
M  V30 2294 O 224.198 0.902095 2.09939 0
M  V30 2295 C 224.408 3.46927 -0.379806 0
M  V30 2296 C 225.756 4.23588 -0.292923 0
M  V30 2297 O 226.78 3.5482 -0.313204 0
M  V30 2298 O 225.639 5.46017 -0.229697 0
M  V30 2299 H 222.733 0.827 0.00079152 0
M  V30 2300 H 225.279 1.52581 -0.742783 0
M  V30 2301 H 224.051 3.65096 -1.40786 0
M  V30 2302 H 223.674 3.96627 0.277923 0
M  V30 2303 N 224.671 0.411399 1.52136 0
M  V30 2304 C 225.618 -0.412975 2.27075 0
M  V30 2305 C 226.588 -1.03912 1.29582 0
M  V30 2306 O 227.773 -1.06296 1.58448 0
M  V30 2307 C 224.913 -1.52247 3.09701 0
M  V30 2308 C 224.026 -0.917021 4.22155 0
M  V30 2309 C 223.161 -1.9994 4.92135 0
M  V30 2310 C 222.2 -1.37101 5.96548 0
M  V30 2311 N 221.337 -2.39364 6.60038 0
M  V30 2312 H 226.177 0.232499 2.97092 0
M  V30 2313 H 223.714 0.126496 1.46555 0
M  V30 2314 H 225.672 -2.17674 3.55913 0
M  V30 2315 H 224.302 -2.13794 2.41851 0
M  V30 2316 H 223.354 -0.151742 3.80097 0
M  V30 2317 H 224.666 -0.418006 4.97045 0
M  V30 2318 H 223.82 -2.73088 5.41763 0
M  V30 2319 H 222.559 -2.53208 4.16818 0
M  V30 2320 H 221.564 -0.624873 5.46237 0
M  V30 2321 H 222.789 -0.845998 6.7381 0
M  V30 2322 H 220.735 -2.91759 5.87548 0
M  V30 2323 H 220.652 -1.9428 7.3061 0
M  V30 2324 H 221.92 -3.12074 7.14304 0
M  V30 2325 N 226.149 -1.5696 0.141893 0
M  V30 2326 C 227.395 -1.9625 -0.511248 0
M  V30 2327 C 227.728 -1.02654 -1.64851 0
M  V30 2328 O 227.003 -0.0679676 -1.94381 0
M  V30 2329 C 227.286 -3.45285 -1.02227 0
M  V30 2330 C 227.139 -4.49658 0.113138 0
M  V30 2331 C 228.458 -3.96698 -1.90574 0
M  V30 2332 H 225.577 -0.713567 -0.184367 0
M  V30 2333 H 228.219 -1.88698 0.222087 0
M  V30 2334 H 226.369 -3.51852 -1.64719 0
M  V30 2335 H 228.041 -4.55174 0.749302 0
M  V30 2336 H 226.284 -4.26857 0.773026 0
M  V30 2337 H 226.955 -5.51258 -0.286053 0
M  V30 2338 H 229.431 -3.92578 -1.37918 0
M  V30 2339 H 228.307 -5.01453 -2.2324 0
M  V30 2340 H 228.568 -3.3875 -2.84079 0
M  V30 2341 N 227.627 0.131896 -1.57047 0
M  V30 2342 C 228.874 0.841932 -1.84168 0
M  V30 2343 C 229.202 1.8048 -0.725066 0
M  V30 2344 O 228.457 1.93618 0.284692 0
M  V30 2345 C 228.756 1.63703 -3.17704 0
M  V30 2346 C 228.422 0.81961 -4.43388 0
M  V30 2347 C 227.084 0.594148 -4.77518 0
M  V30 2348 C 229.436 0.248977 -5.20605 0
M  V30 2349 C 226.764 -0.212409 -5.86315 0
M  V30 2350 C 229.116 -0.544701 -6.30251 0
M  V30 2351 C 227.78 -0.780599 -6.6292 0
M  V30 2352 H 227.05 0.308085 -0.673917 0
M  V30 2353 H 229.697 0.104867 -1.91213 0
M  V30 2354 H 228.002 2.44464 -3.06177 0
M  V30 2355 H 229.699 2.19015 -3.35907 0
M  V30 2356 H 226.289 1.00542 -4.16641 0
M  V30 2357 H 230.473 0.410408 -4.946 0
M  V30 2358 H 225.729 -0.404524 -6.1006 0
M  V30 2359 H 229.903 -0.993922 -6.89271 0
M  V30 2360 H 227.53 -1.40742 -7.47058 0
M  V30 2361 N 229.106 1.52395 0.401703 0
M  V30 2362 C 230.353 1.66817 1.14796 0
M  V30 2363 C 230.681 0.401772 1.90305 0
M  V30 2364 O 229.936 -0.615487 1.85769 0
M  V30 2365 C 230.235 2.84578 2.16217 0
M  V30 2366 C 229.901 4.22513 1.5746 0
M  V30 2367 C 228.563 4.60029 1.41161 0
M  V30 2368 C 230.915 5.0844 1.14622 0
M  V30 2369 C 228.243 5.81144 0.80552 0
M  V30 2370 C 230.595 6.30167 0.55428 0
M  V30 2371 C 229.259 6.66426 0.378482 0
M  V30 2372 H 228.529 0.610428 0.420069 0
M  V30 2373 H 231.176 1.86512 0.434212 0
M  V30 2374 H 229.481 2.59248 2.93764 0
M  V30 2375 H 231.178 2.92933 2.73845 0
M  V30 2376 H 227.768 3.92953 1.71132 0
M  V30 2377 H 231.952 4.80034 1.26021 0
M  V30 2378 H 227.208 6.07855 0.657399 0
M  V30 2379 H 231.382 6.96071 0.213983 0
M  V30 2380 H 229.009 7.60143 -0.0932606 0
M  V30 2381 N 230.584 -0.659388 1.43143 0
M  V30 2382 C 231.832 -1.41654 1.44147 0
M  V30 2383 C 232.153 -1.94893 0.0645739 0
M  V30 2384 O 231.423 -1.74044 -0.899198 0
M  V30 2385 H 230.003 -0.525708 0.530697 0
M  V30 2386 H 232.665 -0.778097 1.78694 0
M  V30 2387 H 231.761 -2.26195 2.1504 0
M  V30 2388 N 232.062 -1.29571 -0.897171 0
M  V30 2389 C 233.29 -1.20583 -1.68129 0
M  V30 2390 C 233.705 0.233181 -1.87354 0
M  V30 2391 O 233.062 1.15579 -1.41236 0
M  V30 2392 C 233.113 -1.91772 -3.06441 0
M  V30 2393 O 232.834 -3.30053 -2.88091 0
M  V30 2394 C 234.335 -1.89291 -4.00854 0
M  V30 2395 H 231.555 -0.417826 -0.525036 0
M  V30 2396 H 234.099 -1.70987 -1.12177 0
M  V30 2397 H 232.254 -1.45196 -3.59161 0
M  V30 2398 H 232.668 -3.65942 -3.75748 0
M  V30 2399 H 234.142 -2.43662 -4.95311 0
M  V30 2400 H 234.619 -0.869014 -4.30517 0
M  V30 2401 H 235.225 -2.35622 -3.54066 0
M  V30 2402 N 233.54 1.10788 -1.12088 0
M  V30 2403 C 234.47 2.19083 -0.807755 0
M  V30 2404 C 235.451 1.6858 0.226859 0
M  V30 2405 O 236.636 1.93997 0.0888475 0
M  V30 2406 C 233.766 3.46344 -0.257576 0
M  V30 2407 C 232.72 4.101 -1.22483 0
M  V30 2408 C 232.046 5.32016 -0.535052 0
M  V30 2409 C 233.346 4.54236 -2.57811 0
M  V30 2410 H 235.04 2.45534 -1.71328 0
M  V30 2411 H 232.586 1.1801 -0.825205 0
M  V30 2412 H 234.539 4.21392 -0.0262679 0
M  V30 2413 H 233.263 3.19373 0.683278 0
M  V30 2414 H 231.922 3.37054 -1.44189 0
M  V30 2415 H 231.57 5.01319 0.410827 0
M  V30 2416 H 231.27 5.75625 -1.18024 0
M  V30 2417 H 232.794 6.09799 -0.312695 0
M  V30 2418 H 234.208 5.20575 -2.40155 0
M  V30 2419 H 232.605 5.08682 -3.18375 0
M  V30 2420 H 233.675 3.6734 -3.16528 0
M  V30 2421 N 235.018 0.912232 1.28515 0
M  V30 2422 C 236.295 0.463597 1.90027 0
M  V30 2423 C 236.675 -1.05753 1.82701 0
M  V30 2424 O 236.023 -1.90492 1.26194 0
M  V30 2425 C 236.233 0.992253 3.34597 0
M  V30 2426 C 237.581 1.04344 4.11579 0
M  V30 2427 O 238.605 0.94079 3.43551 0
M  V30 2428 O 237.464 1.1995 5.33174 0
M  V30 2429 H 234.558 0.146666 0.813891 0
M  V30 2430 H 237.104 1.00292 1.36893 0
M  V30 2431 H 235.876 2.03623 3.34146 0
M  V30 2432 H 235.499 0.433672 3.95228 0
M  V30 2433 N 236.496 -1.42363 0.676048 0
M  V30 2434 C 237.459 -2.29199 0.00766941 0
M  V30 2435 C 238.459 -1.43389 -0.727745 0
M  V30 2436 O 239.649 -1.64764 -0.56556 0
M  V30 2437 C 236.781 -3.2591 -0.999785 0
M  V30 2438 H 237.974 -2.89794 0.771988 0
M  V30 2439 H 235.527 -1.50024 0.438468 0
M  V30 2440 H 236.262 -2.70256 -1.79255 0
M  V30 2441 H 236.047 -3.89202 -0.475829 0
M  V30 2442 H 237.537 -3.91028 -1.46583 0
M  V30 2443 N 237.974 -0.419461 -1.51915 0
M  V30 2444 C 239.199 0.154572 -2.06823 0
M  V30 2445 C 239.624 1.3722 -1.28656 0
M  V30 2446 O 238.982 1.78461 -0.319583 0
M  V30 2447 C 239.03 0.473172 -3.57482 0
M  V30 2448 O 238.134 1.56255 -3.81652 0
M  V30 2449 H 237.475 0.0096924 -0.663929 0
M  V30 2450 H 240.005 -0.595642 -1.95738 0
M  V30 2451 H 240.015 0.728825 -4.01438 0
M  V30 2452 H 238.69 -0.416873 -4.13805 0
M  V30 2453 H 237.267 1.29825 -3.49571 0
M  V30 2454 N 239.452 1.56882 -0.150215 0
M  V30 2455 C 240.698 1.96518 0.500834 0
M  V30 2456 C 241.031 1.03527 1.64304 0
M  V30 2457 O 240.306 0.0782751 1.94342 0
M  V30 2458 C 240.589 3.45822 1.00395 0
M  V30 2459 C 240.442 4.49591 -0.136983 0
M  V30 2460 C 241.761 3.97704 1.88467 0
M  V30 2461 H 238.88 0.714535 0.18058 0
M  V30 2462 H 241.522 1.88577 -0.232091 0
M  V30 2463 H 239.672 3.5272 1.62851 0
M  V30 2464 H 241.344 4.5477 -0.77343 0
M  V30 2465 H 239.587 4.26441 -0.795652 0
M  V30 2466 H 240.258 5.51402 0.256815 0
M  V30 2467 H 242.734 3.93304 1.35834 0
M  V30 2468 H 241.61 5.0263 2.20578 0
M  V30 2469 H 241.871 3.40252 2.82279 0
M  V30 2470 N 240.93 -0.123565 1.57115 0
M  V30 2471 C 242.176 -0.833386 1.84885 0
M  V30 2472 C 242.509 -1.79742 0.735292 0
M  V30 2473 O 241.784 -1.92764 -0.25925 0
M  V30 2474 C 242.067 -1.5873 3.23228 0
M  V30 2475 C 241.92 -0.643183 4.45178 0
M  V30 2476 C 243.239 -2.54453 3.59085 0
M  V30 2477 H 240.358 -0.301518 0.6725 0
M  V30 2478 H 243 -0.097778 1.89748 0
M  V30 2479 H 241.15 -2.21438 3.19214 0
M  V30 2480 H 242.822 -0.0253015 4.61293 0
M  V30 2481 H 241.065 0.0456139 4.33776 0
M  V30 2482 H 241.736 -1.20724 5.38637 0
M  V30 2483 H 244.212 -2.01853 3.63861 0
M  V30 2484 H 243.088 -3.04238 4.5687 0
M  V30 2485 H 243.349 -3.36906 2.86264 0
M  V30 2486 N 242.408 -1.52605 -0.393616 0
M  V30 2487 C 243.371 -1.76415 -1.46323 0
M  V30 2488 C 244.371 -0.634126 -1.47768 0
M  V30 2489 O 245.561 -0.902142 -1.4902 0
M  V30 2490 C 242.693 -1.8607 -2.85641 0
M  V30 2491 H 243.886 -2.71916 -1.26498 0
M  V30 2492 H 241.439 -1.43257 -0.625073 0
M  V30 2493 H 242.174 -0.925378 -3.10817 0
M  V30 2494 H 241.959 -2.68235 -2.85993 0
M  V30 2495 H 243.449 -2.06179 -3.63153 0
M  V30 2496 N 243.887 0.651787 -1.4349 0
M  V30 2497 C 244.817 1.77621 -1.51569 0
M  V30 2498 C 245.798 1.66022 -0.370253 0
M  V30 2499 O 246.983 1.85095 -0.587658 0
M  V30 2500 C 244.113 3.16056 -1.43966 0
M  V30 2501 C 243.067 3.4242 -2.56774 0
M  V30 2502 C 242.393 4.8067 -2.34223 0
M  V30 2503 C 243.693 3.37023 -3.99015 0
M  V30 2504 H 245.387 1.71117 -2.45681 0
M  V30 2505 H 242.933 0.821825 -1.18246 0
M  V30 2506 H 244.886 3.94472 -1.48221 0
M  V30 2507 H 243.61 3.23293 -0.463586 0
M  V30 2508 H 242.269 2.66375 -2.51873 0
M  V30 2509 H 241.917 4.84585 -1.34856 0
M  V30 2510 H 241.617 4.9927 -3.09844 0
M  V30 2511 H 243.141 5.61342 -2.40265 0
M  V30 2512 H 244.555 4.05374 -4.05395 0
M  V30 2513 H 242.952 3.67159 -4.74673 0
M  V30 2514 H 244.022 2.3518 -4.2405 0
M  V30 2515 N 245.365 1.30045 0.890287 0
M  V30 2516 C 246.313 1.15873 2.01683 0
M  V30 2517 C 247.307 0.0719403 1.69247 0
M  V30 2518 O 248.513 0.232414 1.78493 0
M  V30 2519 H 244.888 0.358203 0.661207 0
M  V30 2520 H 246.859 2.11229 2.10772 0
M  V30 2521 C 245.608 0.861842 3.36849 0
M  V30 2522 H 244.931 1.69016 3.62317 0
M  V30 2523 H 246.371 0.802762 4.16331 0
M  V30 2524 C 244.83 -0.435132 3.34078 0
M  V30 2525 O 245.36 -1.4583 3.74295 0
M  V30 2526 N 243.566 -0.444377 2.87182 0
M  V30 2527 H 243.113 0.388723 2.5465 0
M  V30 2528 H 243.071 -1.31213 2.85711 0
M  V30 2529 N 246.843 -1.10192 1.12674 0
M  V30 2530 C 247.79 -2.16606 0.796906 0
M  V30 2531 C 248.76 -1.64394 -0.237476 0
M  V30 2532 O 249.945 -1.90474 -0.111484 0
M  V30 2533 C 247.085 -3.44116 0.26043 0
M  V30 2534 C 246.198 -4.10268 1.35293 0
M  V30 2535 C 245.333 -5.25507 0.775621 0
M  V30 2536 C 244.372 -5.83567 1.84706 0
M  V30 2537 N 243.509 -6.90179 1.28829 0
M  V30 2538 H 248.349 -2.44163 1.70846 0
M  V30 2539 H 245.886 -1.19846 0.85295 0
M  V30 2540 H 247.844 -4.17143 -0.0686814 0
M  V30 2541 H 246.474 -3.16901 -0.614274 0
M  V30 2542 H 245.526 -3.35184 1.79877 0
M  V30 2543 H 246.838 -4.4946 2.16303 0
M  V30 2544 H 245.992 -6.05398 0.397327 0
M  V30 2545 H 244.731 -4.87656 -0.0656581 0
M  V30 2546 H 243.736 -5.02344 2.23452 0
M  V30 2547 H 244.961 -6.23482 2.69161 0
M  V30 2548 H 242.907 -6.54322 0.468881 0
M  V30 2549 H 242.824 -7.28097 2.03497 0
M  V30 2550 H 244.092 -7.73844 0.937311 0
M  V30 2551 N 248.321 -0.919034 -1.28029 0
M  V30 2552 C 249.269 -0.401753 -2.29104 0
M  V30 2553 C 250.263 0.509354 -1.61561 0
M  V30 2554 O 251.469 0.390014 -1.75724 0
M  V30 2555 H 247.844 -0.111331 -0.743713 0
M  V30 2556 H 249.815 -1.2672 -2.70156 0
M  V30 2557 C 248.564 0.338148 -3.46052 0
M  V30 2558 H 247.887 -0.353732 -3.98232 0
M  V30 2559 H 249.327 0.664653 -4.18758 0
M  V30 2560 C 247.786 1.54798 -2.99231 0
M  V30 2561 O 248.316 2.64696 -3.02157 0
M  V30 2562 N 246.522 1.3968 -2.54829 0
M  V30 2563 H 246.069 0.502698 -2.52647 0
M  V30 2564 H 246.027 2.20755 -2.23863 0
M  V30 2565 N 249.799 1.42003 -0.683588 0
M  V30 2566 C 251.027 2.05746 -0.218182 0
M  V30 2567 C 251.442 1.51396 1.12804 0
M  V30 2568 O 250.799 0.657303 1.70252 0
M  V30 2569 C 250.85 3.61171 -0.154131 0
M  V30 2570 O 250.571 4.13508 -1.44716 0
M  V30 2571 C 252.072 4.42042 0.333713 0
M  V30 2572 H 249.292 0.662888 -0.10402 0
M  V30 2573 H 251.836 1.81987 -0.9328 0
M  V30 2574 H 249.991 3.84012 0.511231 0
M  V30 2575 H 250.405 5.07453 -1.32632 0
M  V30 2576 H 251.879 5.51028 0.327423 0
M  V30 2577 H 252.356 4.17269 1.37053 0
M  V30 2578 H 252.962 4.24239 -0.300222 0
M  V30 2579 N 251.277 0.427512 1.51691 0
M  V30 2580 C 252.525 -0.141948 2.01601 0
M  V30 2581 C 252.846 -1.44067 1.31414 0
M  V30 2582 O 252.116 -1.90763 0.445658 0
M  V30 2583 H 250.696 -0.0554468 0.744939 0
M  V30 2584 H 253.358 0.567968 1.86441 0
M  V30 2585 H 252.454 -0.324913 3.10404 0
M  V30 2586 N 252.755 -1.56801 0.158532 0
M  V30 2587 C 253.702 -2.17337 -0.776729 0
M  V30 2588 C 254.672 -1.1096 -1.23601 0
M  V30 2589 O 255.857 -1.39054 -1.30647 0
M  V30 2590 C 252.997 -2.80822 -2.00582 0
M  V30 2591 C 252.11 -4.01624 -1.59129 0
M  V30 2592 C 251.245 -4.53072 -2.77306 0
M  V30 2593 C 250.284 -5.66314 -2.32282 0
M  V30 2594 N 249.421 -6.12329 -3.43508 0
M  V30 2595 H 254.261 -2.96918 -0.253701 0
M  V30 2596 H 251.798 -1.46661 -0.113504 0
M  V30 2597 H 253.756 -3.15779 -2.72652 0
M  V30 2598 H 252.386 -2.03866 -2.50277 0
M  V30 2599 H 251.438 -3.72571 -0.767806 0
M  V30 2600 H 252.75 -4.83633 -1.2207 0
M  V30 2601 H 251.904 -4.90145 -3.57551 0
M  V30 2602 H 250.643 -3.70095 -3.17617 0
M  V30 2603 H 249.648 -5.28806 -1.5048 0
M  V30 2604 H 250.873 -6.51085 -1.93043 0
M  V30 2605 H 248.819 -5.32284 -3.83418 0
M  V30 2606 H 248.736 -6.89293 -3.105 0
M  V30 2607 H 250.004 -6.5405 -4.24075 0
M  V30 2608 N 254.233 0.115231 -1.57178 0
M  V30 2609 C 255.479 0.82357 -1.85325 0
M  V30 2610 C 255.812 1.79349 -0.744814 0
M  V30 2611 O 255.087 1.92899 0.249024 0
M  V30 2612 C 255.37 1.57014 -3.24066 0
M  V30 2613 C 255.223 0.619565 -4.45513 0
M  V30 2614 C 256.542 2.52545 -3.60429 0
M  V30 2615 H 253.661 0.297948 -0.674089 0
M  V30 2616 H 256.303 0.0877138 -1.89797 0
M  V30 2617 H 254.453 2.19742 -3.20383 0
M  V30 2618 H 256.125 0.000837639 -4.613 0
M  V30 2619 H 254.368 -0.0686174 -4.33746 0
M  V30 2620 H 255.039 1.17866 -5.3927 0
M  V30 2621 H 257.515 1.9992 -3.64926 0
M  V30 2622 H 256.391 3.01811 -4.58477 0
M  V30 2623 H 256.652 3.35383 -2.88047 0
M  V30 2624 N 255.711 1.52812 0.385517 0
M  V30 2625 C 256.957 1.68275 1.13188 0
M  V30 2626 C 257.29 0.423179 1.89533 0
M  V30 2627 O 256.565 -0.579113 1.85679 0
M  V30 2628 C 256.848 2.92001 2.1073 0
M  V30 2629 C 256.701 4.28067 1.38125 0
M  V30 2630 C 258.02 3.11283 3.11113 0
M  V30 2631 H 255.139 0.612352 0.410115 0
M  V30 2632 H 257.781 1.85415 0.414869 0
M  V30 2633 H 255.931 2.77519 2.71874 0
M  V30 2634 H 257.603 4.54324 0.799187 0
M  V30 2635 H 255.846 4.28388 0.683092 0
M  V30 2636 H 256.517 5.10733 2.09417 0
M  V30 2637 H 258.993 3.2482 2.6006 0
M  V30 2638 H 257.869 3.99325 3.76605 0
M  V30 2639 H 258.13 2.25656 3.80173 0
M  V30 2640 N 257.189 -0.644168 1.43834 0
M  V30 2641 C 258.435 -1.40431 1.47141 0
M  V30 2642 C 258.79 -1.92153 0.0975577 0
M  V30 2643 O 258.083 -1.69924 -0.885232 0
M  V30 2644 C 258.277 -2.59615 2.45631 0
M  V30 2645 C 258.106 -2.1956 3.92458 0
M  V30 2646 C 256.876 -2.07456 4.60749 0
M  V30 2647 C 259.074 -1.79281 4.8204 0
M  V30 2648 N 257.056 -1.60827 5.92459 0
M  V30 2649 C 258.427 -1.43801 6.03093 0
M  V30 2650 C 260.482 -1.66545 4.6922 0
M  V30 2651 C 259.185 -0.968599 7.12749 0
M  V30 2652 C 261.211 -1.21008 5.78888 0
M  V30 2653 C 260.573 -0.864711 6.99072 0
M  V30 2654 H 256.672 -0.509182 0.593513 0
M  V30 2655 H 259.256 -0.740351 1.80075 0
M  V30 2656 H 257.427 -3.23658 2.1471 0
M  V30 2657 H 259.159 -3.26357 2.39318 0
M  V30 2658 H 255.914 -2.275 4.1538 0
M  V30 2659 H 256.338 -1.39848 6.62398 0
M  V30 2660 H 260.98 -1.91883 3.7675 0
M  V30 2661 H 258.698 -0.702715 8.05039 0
M  V30 2662 H 262.284 -1.11631 5.7099 0
M  V30 2663 H 261.164 -0.517736 7.82489 0
M  V30 2664 N 258.668 -1.30515 -0.883378 0
M  V30 2665 C 259.615 -1.17032 -1.98927 0
M  V30 2666 C 260.585 -0.0594241 -1.65994 0
M  V30 2667 O 261.77 -0.229895 -1.8941 0
M  V30 2668 C 258.91 -0.869777 -3.33959 0
M  V30 2669 C 258.023 -2.06271 -3.79574 0
M  V30 2670 C 257.158 -1.70011 -5.03259 0
M  V30 2671 C 256.197 -2.8579 -5.41286 0
M  V30 2672 N 255.334 -2.49816 -6.56153 0
M  V30 2673 H 260.174 -2.1164 -2.09792 0
M  V30 2674 H 257.711 -1.05296 -1.02719 0
M  V30 2675 H 259.669 -0.676138 -4.11685 0
M  V30 2676 H 258.299 0.0394332 -3.22776 0
M  V30 2677 H 257.351 -2.36755 -2.97744 0
M  V30 2678 H 258.663 -2.92971 -4.03694 0
M  V30 2679 H 257.817 -1.47032 -5.88614 0
M  V30 2680 H 256.556 -0.804829 -4.81013 0
M  V30 2681 H 255.561 -3.09434 -4.54456 0
M  V30 2682 H 256.786 -3.76008 -5.65504 0
M  V30 2683 H 254.732 -1.62795 -6.35479 0
M  V30 2684 H 254.649 -3.30048 -6.8015 0
M  V30 2685 H 255.917 -2.30197 -7.44735 0
M  V30 2686 N 260.146 1.09593 -1.13257 0
M  V30 2687 C 261.093 2.1618 -0.808381 0
M  V30 2688 C 262.063 1.64517 0.228754 0
M  V30 2689 O 263.248 1.9053 0.101381 0
M  V30 2690 C 260.388 3.43973 -0.278675 0
M  V30 2691 C 259.501 4.09545 -1.37466 0
M  V30 2692 C 258.636 5.25088 -0.803479 0
M  V30 2693 C 257.675 5.82579 -1.87799 0
M  V30 2694 N 256.812 6.89486 -1.32488 0
M  V30 2695 H 261.652 2.43254 -1.72138 0
M  V30 2696 H 259.189 1.19392 -0.859294 0
M  V30 2697 H 261.147 4.17174 0.0465583 0
M  V30 2698 H 259.777 3.17223 0.597459 0
M  V30 2699 H 258.829 3.34226 -1.81652 0
M  V30 2700 H 260.141 4.48307 -2.18684 0
M  V30 2701 H 259.295 6.05178 -0.429427 0
M  V30 2702 H 258.034 4.87684 0.0397956 0
M  V30 2703 H 257.039 5.01152 -2.26113 0
M  V30 2704 H 258.264 6.22045 -2.72463 0
M  V30 2705 H 256.21 6.54064 -0.503575 0
M  V30 2706 H 256.127 7.27007 -2.07355 0
M  V30 2707 H 257.395 7.73336 -0.978336 0
M  V30 2708 N 261.624 0.925811 1.2754 0
M  V30 2709 C 262.571 0.422045 2.26908 0
M  V30 2710 C 263.541 -0.510029 1.58076 0
M  V30 2711 O 264.726 -0.429599 1.85901 0
M  V30 2712 C 261.866 -0.320837 3.43605 0
M  V30 2713 C 260.979 0.64513 4.27156 0
M  V30 2714 C 260.114 -0.117405 5.3107 0
M  V30 2715 C 259.153 0.841391 6.0629 0
M  V30 2716 N 258.29 0.111604 7.02011 0
M  V30 2717 H 263.13 1.27441 2.69375 0
M  V30 2718 H 260.667 0.639697 1.32462 0
M  V30 2719 H 262.625 -0.76785 4.10073 0
M  V30 2720 H 261.255 -1.13745 3.02096 0
M  V30 2721 H 260.307 1.21067 3.6062 0
M  V30 2722 H 261.619 1.37797 4.79389 0
M  V30 2723 H 260.773 -0.624422 6.03478 0
M  V30 2724 H 259.512 -0.883219 4.79636 0
M  V30 2725 H 258.517 1.35967 5.32722 0
M  V30 2726 H 259.742 1.60696 6.59813 0
M  V30 2727 H 257.688 -0.635999 6.5291 0
M  V30 2728 H 257.605 0.784044 7.51923 0
M  V30 2729 H 258.873 -0.374823 7.78598 0
M  V30 2730 N 263.102 -1.41638 0.69111 0
M  V30 2731 C 264.349 -2.01299 0.220193 0
M  V30 2732 C 264.677 -1.54715 -1.17871 0
M  V30 2733 O 263.932 -0.747193 -1.80874 0
M  V30 2734 C 264.231 -3.56714 0.221277 0
M  V30 2735 C 263.897 -4.22792 1.56709 0
M  V30 2736 C 262.559 -4.40557 1.93554 0
M  V30 2737 C 264.911 -4.59883 2.45268 0
M  V30 2738 C 262.239 -4.92688 3.18552 0
M  V30 2739 C 264.591 -5.13403 3.69595 0
M  V30 2740 C 263.255 -5.29379 4.06589 0
M  V30 2741 H 262.525 -0.736606 0.0805743 0
M  V30 2742 H 265.172 -1.69598 0.889319 0
M  V30 2743 H 263.477 -3.8818 -0.531391 0
M  V30 2744 H 265.174 -4.00678 -0.160547 0
M  V30 2745 H 261.764 -4.09336 1.2705 0
M  V30 2746 H 265.948 -4.45817 2.18084 0
M  V30 2747 H 261.204 -5.03242 3.47214 0
M  V30 2748 H 265.378 -5.41084 4.38407 0
M  V30 2749 H 263.005 -5.69537 5.03519 0
M  V30 2750 N 264.58 -0.43555 -1.51462 0
M  V30 2751 C 265.543 0.365137 -2.26273 0
M  V30 2752 C 266.543 0.951227 -1.29647 0
M  V30 2753 O 267.733 0.825958 -1.53374 0
M  V30 2754 C 264.865 1.51645 -3.05314 0
M  V30 2755 H 266.058 -0.290474 -2.9849 0
M  V30 2756 H 263.611 -0.188676 -1.55157 0
M  V30 2757 H 264.346 2.20816 -2.3751 0
M  V30 2758 H 264.131 1.10238 -3.76284 0
M  V30 2759 H 265.621 2.08218 -3.61987 0
M  V30 2760 N 266.058 1.56714 -0.166846 0
M  V30 2761 C 267.335 1.88412 0.525373 0
M  V30 2762 C 267.715 1.07602 1.81618 0
M  V30 2763 O 267.063 0.168621 2.27877 0
M  V30 2764 C 267.273 3.40363 0.771613 0
M  V30 2765 C 268.621 4.10007 1.1036 0
M  V30 2766 O 269.645 3.45655 0.860304 0
M  V30 2767 O 268.504 5.2369 1.56239 0
M  V30 2768 H 265.598 0.781587 0.270278 0
M  V30 2769 H 268.144 1.68458 -0.204946 0
M  V30 2770 H 266.916 3.91046 -0.141093 0
M  V30 2771 H 266.539 3.65914 1.55541 0
M  V30 2772 N 267.536 -0.106894 1.57237 0
M  V30 2773 C 268.486 -1.1366 1.9765 0
M  V30 2774 C 269.47 -1.36416 0.853203 0
M  V30 2775 O 270.662 -1.37305 1.11697 0
M  V30 2776 C 267.791 -2.46 2.39455 0
M  V30 2777 C 266.877 -2.26668 3.58445 0
M  V30 2778 N 267.268 -1.77176 4.73754 0
M  V30 2779 C 265.566 -2.57279 3.64312 0
M  V30 2780 C 266.267 -1.71836 5.5574 0
M  V30 2781 N 265.243 -2.16623 4.98573 0
M  V30 2782 H 269.045 -0.74669 2.84256 0
M  V30 2783 H 266.559 -0.314483 1.59326 0
M  V30 2784 H 268.556 -3.2049 2.6663 0
M  V30 2785 H 267.216 -2.85738 1.54219 0
M  V30 2786 H 268.227 -1.46545 4.96734 0
M  V30 2787 H 264.904 -3.00622 2.89711 0
M  V30 2788 H 266.294 -1.34723 6.58255 0
M  V30 2789 N 269.014 -1.53014 -0.377408 0
M  V30 2790 C 270.262 -1.6829 -1.11906 0
M  V30 2791 C 270.583 -0.431206 -1.90173 0
M  V30 2792 O 269.853 0.554595 -1.87886 0
M  V30 2793 H 268.433 -0.620371 -0.416112 0
M  V30 2794 H 271.095 -1.90167 -0.426893 0
M  V30 2795 H 270.191 -2.53862 -1.8155 0
M  V30 2796 N 270.492 0.636531 -1.44174 0
M  V30 2797 C 271.455 1.73063 -1.50273 0
M  V30 2798 C 272.455 1.56113 -0.385397 0
M  V30 2799 O 273.645 1.61707 -0.64781 0
M  V30 2800 C 270.777 3.12096 -1.37145 0
M  V30 2801 H 271.97 1.69031 -2.47727 0
M  V30 2802 H 269.523 0.849706 -1.31186 0
M  V30 2803 H 270.258 3.21728 -0.407636 0
M  V30 2804 H 270.043 3.25805 -2.18159 0
M  V30 2805 H 271.533 3.91846 -1.44382 0
M  V30 2806 N 271.97 1.30982 0.876444 0
M  V30 2807 C 273.218 1.20058 1.62575 0
M  V30 2808 C 273.539 -0.242947 1.93481 0
M  V30 2809 O 272.809 -1.1619 1.57724 0
M  V30 2810 H 271.389 0.44135 0.602677 0
M  V30 2811 H 274.051 1.64222 1.04962 0
M  V30 2812 H 273.147 1.76762 2.57219 0
M  V30 2813 N 273.449 -1.08991 1.13837 0
M  V30 2814 C 274.679 -1.84743 0.924859 0
M  V30 2815 C 275.087 -1.81629 -0.529874 0
M  V30 2816 O 274.43 -1.21397 -1.37872 0
M  V30 2817 C 274.492 -3.33568 1.34061 0
M  V30 2818 C 274.156 -3.60425 2.80968 0
M  V30 2819 C 275.153 -3.55771 3.79108 0
M  V30 2820 C 272.838 -3.88627 3.18236 0
M  V30 2821 C 274.832 -3.78939 5.12527 0
M  V30 2822 C 272.519 -4.11449 4.51833 0
M  V30 2823 C 273.517 -4.06598 5.48787 0
M  V30 2824 O 273.205 -4.28826 6.79973 0
M  V30 2825 H 272.937 -0.590258 0.329502 0
M  V30 2826 H 275.491 -1.38598 1.51591 0
M  V30 2827 H 273.721 -3.80442 0.692853 0
M  V30 2828 H 275.41 -3.90743 1.09886 0
M  V30 2829 H 276.176 -3.34005 3.51661 0
M  V30 2830 H 272.055 -3.91526 2.43369 0
M  V30 2831 H 275.599 -3.75068 5.88192 0
M  V30 2832 H 271.496 -4.32698 4.79002 0
M  V30 2833 H 272.264 -4.46264 6.86142 0
M  V30 2834 N 274.927 -0.932562 -1.27047 0
M  V30 2835 C 276.155 -0.592031 -1.98249 0
M  V30 2836 C 276.57 0.831062 -1.69525 0
M  V30 2837 O 275.927 1.55299 -0.958561 0
M  V30 2838 C 275.978 -0.814279 -3.5221 0
M  V30 2839 O 275.699 -2.18139 -3.7993 0
M  V30 2840 C 277.2 -0.483121 -4.4066 0
M  V30 2841 H 274.42 -0.223896 -0.632544 0
M  V30 2842 H 276.964 -1.25091 -1.61779 0
M  V30 2843 H 275.119 -0.20213 -3.86872 0
M  V30 2844 H 275.533 -2.235 -4.74498 0
M  V30 2845 H 277.007 -0.689298 -5.47679 0
M  V30 2846 H 277.484 0.581546 -4.35333 0
M  V30 2847 H 278.09 -1.07362 -4.11526 0
M  V30 2848 N 276.405 1.4127 -0.698611 0
M  V30 2849 C 277.338 2.28195 0.0153898 0
M  V30 2850 C 278.316 1.42402 0.784883 0
M  V30 2851 O 279.5 1.71828 0.775067 0
M  V30 2852 C 276.627 3.22685 1.02918 0
M  V30 2853 C 275.673 4.25041 0.352501 0
M  V30 2854 S 276.506 5.27757 -0.907322 0
M  V30 2855 C 277.662 6.25812 0.104796 0
M  V30 2856 H 277.895 2.88403 -0.721858 0
M  V30 2857 H 275.428 1.46452 -0.488996 0
M  V30 2858 H 277.386 3.77655 1.60893 0
M  V30 2859 H 276.047 2.61566 1.73902 0
M  V30 2860 H 275.24 4.91437 1.11828 0
M  V30 2861 H 274.842 3.73682 -0.154254 0
M  V30 2862 H 277.134 6.70705 0.957103 0
M  V30 2863 H 278.077 7.06149 -0.525323 0
M  V30 2864 H 278.485 5.62615 0.460931 0
M  V30 2865 N 277.883 0.443576 1.51229 0
M  V30 2866 C 279.111 -0.11929 2.06556 0
M  V30 2867 C 279.526 -1.35921 1.31038 0
M  V30 2868 O 278.883 -1.78675 0.371704 0
M  V30 2869 C 278.934 -0.435228 3.5887 0
M  V30 2870 O 278.655 0.755486 4.31537 0
M  V30 2871 C 280.156 -1.04808 4.30732 0
M  V30 2872 H 277.376 -0.0051584 0.67098 0
M  V30 2873 H 279.92 0.624453 1.94733 0
M  V30 2874 H 278.075 -1.12887 3.70588 0
M  V30 2875 H 278.489 0.483491 5.22267 0
M  V30 2876 H 279.963 -1.2191 5.3837 0
M  V30 2877 H 280.44 -2.03081 3.89429 0
M  V30 2878 H 281.046 -0.393637 4.23474 0
M  V30 2879 N 279.361 -1.56624 0.175154 0
M  V30 2880 C 280.609 -1.96609 -0.467885 0
M  V30 2881 C 280.93 -1.06238 -1.63519 0
M  V30 2882 O 280.2 -0.129523 -1.95471 0
M  V30 2883 H 278.78 -0.726008 -0.175845 0
M  V30 2884 H 281.442 -1.93195 0.257234 0
M  V30 2885 H 280.538 -3.00989 -0.825342 0
M  V30 2886 N 280.839 0.0985539 -1.57292 0
M  V30 2887 C 281.802 1.10402 -2.00858 0
M  V30 2888 C 282.802 1.33146 -0.901593 0
M  V30 2889 O 283.992 1.29318 -1.16716 0
M  V30 2890 C 281.124 2.45394 -2.36632 0
M  V30 2891 H 282.317 0.729099 -2.90902 0
M  V30 2892 H 279.87 0.343495 -1.52479 0
M  V30 2893 H 280.605 2.87769 -1.49531 0
M  V30 2894 H 280.39 2.30235 -3.17387 0
M  V30 2895 H 281.88 3.17718 -2.71007 0
M  V30 2896 N 282.317 1.53212 0.369288 0
M  V30 2897 C 283.728 1.60943 0.946276 0
M  V30 2898 C 284.079 0.47452 1.90375 0
M  V30 2899 O 283.204 -0.399597 2.12679 0
M  V30 2900 C 283.799 2.91715 1.72302 0
M  V30 2901 C 282.358 3.01792 2.24941 0
M  V30 2902 C 281.505 2.56211 1.06072 0
M  V30 2903 H 284.456 1.58007 0.148198 0
M  V30 2904 H 284.477 2.79309 2.58393 0
M  V30 2905 H 283.989 3.74295 1.0259 0
M  V30 2906 H 282.09 2.23791 2.97906 0
M  V30 2907 H 282.203 4.06803 2.53077 0
M  V30 2908 H 280.567 2.10998 1.4266 0
M  V30 2909 H 281.35 3.41206 0.378639 0
M  V30 2910 N 283.795 -0.628877 1.44509 0
M  V30 2911 C 285.023 -1.41554 1.50897 0
M  V30 2912 C 285.438 -1.8832 0.134564 0
M  V30 2913 O 284.795 -1.60969 -0.859965 0
M  V30 2914 C 284.846 -2.63435 2.47556 0
M  V30 2915 O 284.567 -2.18619 3.79654 0
M  V30 2916 C 286.068 -3.56537 2.63431 0
M  V30 2917 H 283.288 -0.434044 0.511709 0
M  V30 2918 H 285.832 -0.768895 1.89495 0
M  V30 2919 H 283.987 -3.24187 2.12089 0
M  V30 2920 H 284.401 -2.97652 4.31861 0
M  V30 2921 H 285.875 -4.38657 3.35088 0
M  V30 2922 H 286.352 -4.05493 1.68738 0
M  V30 2923 H 286.958 -3.01653 2.9981 0
M  V30 2924 N 285.273 -1.31445 -0.869486 0
M  V30 2925 C 286.522 -1.20517 -1.61736 0
M  V30 2926 C 286.835 0.235341 -1.94179 0
M  V30 2927 O 288.041 0.466312 -2.67465 0
M  V30 2928 C 286.497 -2.10982 -2.91573 0
M  V30 2929 C 286.105 -3.60032 -2.66611 0
M  V30 2930 C 287.849 -2.08856 -3.69567 0
M  V30 2931 C 285.756 -4.42503 -3.92358 0
M  V30 2932 H 284.686 -0.447493 -0.606849 0
M  V30 2933 H 287.337 -1.56303 -0.96133 0
M  V30 2934 H 285.719 -1.68095 -3.58553 0
M  V30 2935 H 286.893 -4.11167 -2.08035 0
M  V30 2936 H 285.208 -3.64139 -2.0197 0
M  V30 2937 H 287.805 -2.67716 -4.62852 0
M  V30 2938 H 288.148 -1.07582 -4.02159 0
M  V30 2939 H 288.681 -2.49945 -3.09471 0
M  V30 2940 H 285.42 -5.44533 -3.64916 0
M  V30 2941 H 284.94 -3.96125 -4.50383 0
M  V30 2942 H 286.619 -4.54741 -4.60238 0
M  V30 2943 N 286.751 1.08385 -1.14413 0
M  V30 2944 C 287.997 1.81044 -0.913834 0
M  V30 2945 C 288.33 1.86004 0.558209 0
M  V30 2946 O 287.605 1.33606 1.4135 0
M  V30 2947 C 287.888 3.26648 -1.51569 0
M  V30 2948 C 287.741 3.29895 -3.0576 0
M  V30 2949 C 289.06 4.23629 -1.19273 0
M  V30 2950 H 286.179 0.65727 -0.333414 0
M  V30 2951 H 288.821 1.26896 -1.41412 0
M  V30 2952 H 286.971 3.72889 -1.09023 0
M  V30 2953 H 288.643 2.91977 -3.57137 0
M  V30 2954 H 286.886 2.69163 -3.40197 0
M  V30 2955 H 287.557 4.32516 -3.42977 0
M  V30 2956 H 290.033 3.85727 -1.56057 0
M  V30 2957 H 288.909 5.23822 -1.64017 0
M  V30 2958 H 289.17 4.41968 -0.108068 0
M  V30 2959 N 288.23 0.939286 1.26551 0
M  V30 2960 C 289.177 0.446088 2.26448 0
M  V30 2961 C 290.147 -0.493234 1.58608 0
M  V30 2962 O 291.332 -0.409857 1.86346 0
M  V30 2963 C 288.472 -0.284375 3.43926 0
M  V30 2964 C 287.585 0.690399 4.26448 0
M  V30 2965 C 286.72 -0.0610712 5.31165 0
M  V30 2966 C 285.759 0.905649 6.05363 0
M  V30 2967 N 284.896 0.186055 7.01853 0
M  V30 2968 H 289.736 1.30291 2.68008 0
M  V30 2969 H 287.273 0.65371 1.31776 0
M  V30 2970 H 289.231 -0.724313 4.10864 0
M  V30 2971 H 287.861 -1.10535 3.03285 0
M  V30 2972 H 286.913 1.24885 3.59316 0
M  V30 2973 H 288.225 1.42873 4.779 0
M  V30 2974 H 287.379 -0.56038 6.04106 0
M  V30 2975 H 286.118 -0.832297 4.80546 0
M  V30 2976 H 285.123 1.4161 5.3125 0
M  V30 2977 H 286.348 1.67685 6.58072 0
M  V30 2978 H 284.294 -0.566714 6.53548 0
M  V30 2979 H 284.211 0.863752 7.51049 0
M  V30 2980 H 285.479 -0.292221 7.78952 0
M  V30 2981 N 289.708 -1.40897 0.706093 0
M  V30 2982 C 290.985 -1.94868 0.169099 0
M  V30 2983 C 291.365 -1.64485 -1.32318 0
M  V30 2984 O 290.713 -0.95744 -2.07474 0
M  V30 2985 C 290.923 -3.45798 0.471654 0
M  V30 2986 C 292.271 -4.22663 0.405127 0
M  V30 2987 O 293.295 -3.53865 0.407168 0
M  V30 2988 O 292.154 -5.45216 0.374383 0
M  V30 2989 H 289.248 -0.82673 0.0211352 0
M  V30 2990 H 291.794 -1.50558 0.782976 0
M  V30 2991 H 290.566 -3.61235 1.50416 0
M  V30 2992 H 290.189 -3.97225 -0.172666 0
M  V30 2993 N 291.186 -0.45159 -1.50991 0
M  V30 2994 C 292.434 0.109857 -2.01801 0
M  V30 2995 C 292.755 1.41958 -1.3369 0
M  V30 2996 O 292.025 1.9003 -0.475951 0
M  V30 2997 H 290.605 0.0435884 -0.745727 0
M  V30 2998 H 293.267 -0.597557 -1.85514 0
M  V30 2999 H 292.363 0.275489 -3.10882 0
M  V30 3000 N 292.664 1.56529 -0.183458 0
M  V30 3001 C 293.611 2.18546 0.742055 0
M  V30 3002 C 294.581 1.12912 1.2182 0
M  V30 3003 O 295.766 1.41115 1.28418 0
M  V30 3004 C 292.906 2.83977 1.96089 0
M  V30 3005 C 292.019 4.04105 1.52719 0
M  V30 3006 C 291.154 4.57427 2.70063 0
M  V30 3007 C 290.193 5.69938 2.23243 0
M  V30 3008 N 289.33 6.17717 3.33722 0
M  V30 3009 H 294.17 2.97284 0.206432 0
M  V30 3010 H 291.707 1.46823 0.0901571 0
M  V30 3011 H 293.665 3.20077 2.67594 0
M  V30 3012 H 292.295 2.07822 2.47002 0
M  V30 3013 H 291.347 3.73745 0.708436 0
M  V30 3014 H 292.659 4.85513 1.1436 0
M  V30 3015 H 291.813 4.95772 3.49708 0
M  V30 3016 H 290.552 3.75101 3.11689 0
M  V30 3017 H 289.557 5.31133 1.42048 0
M  V30 3018 H 290.782 6.54073 1.82661 0
M  V30 3019 H 288.728 5.38317 3.74902 0
M  V30 3020 H 288.645 6.94146 2.99495 0
M  V30 3021 H 289.913 6.60713 4.13616 0
M  V30 3022 N 294.142 -0.090211 1.57342 0
M  V30 3023 C 295.37 -0.806224 1.90546 0
M  V30 3024 C 295.785 -1.72041 0.777644 0
M  V30 3025 O 295.142 -1.80778 -0.250103 0
M  V30 3026 C 295.193 -1.61546 3.23396 0
M  V30 3027 O 294.914 -0.738043 4.31839 0
M  V30 3028 C 296.415 -2.4341 3.70495 0
M  V30 3029 H 293.635 -0.230256 0.630257 0
M  V30 3030 H 296.179 -0.0659843 2.04394 0
M  V30 3031 H 294.334 -2.30816 3.11131 0
M  V30 3032 H 294.748 -1.29901 5.08159 0
M  V30 3033 H 296.222 -2.95676 4.66133 0
M  V30 3034 H 296.699 -3.22098 2.98579 0
M  V30 3035 H 297.305 -1.79331 3.85643 0
M  V30 3036 N 295.62 -1.53406 -0.361157 0
M  V30 3037 C 296.868 -1.69467 -1.10115 0
M  V30 3038 C 297.189 -0.451352 -1.89705 0
M  V30 3039 O 296.459 0.534636 -1.88463 0
M  V30 3040 H 295.039 -0.624749 -0.409508 0
M  V30 3041 H 297.701 -1.90609 -0.406699 0
M  V30 3042 H 296.797 -2.55774 -1.78847 0
M  V30 3043 N 297.098 0.621204 -1.44841 0
M  V30 3044 C 298.045 1.73267 -1.5247 0
M  V30 3045 C 299.015 1.6189 -0.371611 0
M  V30 3046 O 300.2 1.81668 -0.58321 0
M  V30 3047 C 297.34 3.11545 -1.48438 0
M  V30 3048 C 296.453 3.33827 -2.74196 0
M  V30 3049 C 295.588 4.62133 -2.61929 0
M  V30 3050 C 294.627 4.77627 -3.82804 0
M  V30 3051 N 293.764 5.97219 -3.69153 0
M  V30 3052 H 298.604 1.66082 -2.47428 0
M  V30 3053 H 296.141 0.810026 -1.22788 0
M  V30 3054 H 298.099 3.91528 -1.4409 0
M  V30 3055 H 296.729 3.1772 -0.570402 0
M  V30 3056 H 295.781 2.47715 -2.88689 0
M  V30 3057 H 297.093 3.41153 -3.6389 0
M  V30 3058 H 296.247 5.50291 -2.5547 0
M  V30 3059 H 294.986 4.57182 -1.69811 0
M  V30 3060 H 293.991 3.87896 -3.89637 0
M  V30 3061 H 295.216 4.84385 -4.75971 0
M  V30 3062 H 293.162 5.93339 -2.79794 0
M  V30 3063 H 293.079 6.05644 -4.52472 0
M  V30 3064 H 294.347 6.87912 -3.66603 0
M  V30 3065 N 298.576 1.31904 0.862503 0
M  V30 3066 C 299.822 1.22197 1.61851 0
M  V30 3067 C 300.155 -0.217641 1.92977 0
M  V30 3068 O 299.43 -1.15264 1.56666 0
M  V30 3069 C 299.713 2.07378 2.94391 0
M  V30 3070 C 299.566 3.59678 2.70096 0
M  V30 3071 C 300.885 1.92891 3.95577 0
M  V30 3072 H 298.004 0.445255 0.587296 0
M  V30 3073 H 300.646 1.6177 0.99651 0
M  V30 3074 H 298.796 1.73758 3.47477 0
M  V30 3075 H 300.468 4.03472 2.23625 0
M  V30 3076 H 298.711 3.82735 2.04197 0
M  V30 3077 H 299.382 4.14595 3.64438 0
M  V30 3078 H 301.858 2.22327 3.51724 0
M  V30 3079 H 300.734 2.54781 4.86187 0
M  V30 3080 H 300.995 0.894315 4.3296 0
M  V30 3081 N 300.054 -1.07777 1.14986 0
M  V30 3082 C 300.984 -2.16865 0.865557 0
M  V30 3083 C 301.965 -1.69123 -0.182083 0
M  V30 3084 O 303.15 -1.94164 -0.0373815 0
M  V30 3085 C 300.28 -3.45539 0.349313 0
M  V30 3086 C 299.234 -4.06708 1.33313 0
M  V30 3087 C 298.56 -5.30411 0.675918 0
M  V30 3088 C 299.86 -4.47241 2.69764 0
M  V30 3089 H 301.554 -2.40905 1.77778 0
M  V30 3090 H 299.1 -1.15781 0.856203 0
M  V30 3091 H 301.053 -4.21174 0.137983 0
M  V30 3092 H 299.777 -3.21072 -0.598362 0
M  V30 3093 H 298.436 -3.33112 1.53075 0
M  V30 3094 H 298.084 -5.02232 -0.277767 0
M  V30 3095 H 297.784 -5.72293 1.33244 0
M  V30 3096 H 299.308 -6.08755 0.474262 0
M  V30 3097 H 300.722 -5.14025 2.53873 0
M  V30 3098 H 299.119 -5.00062 3.3175 0
M  V30 3099 H 300.189 -3.58818 3.26156 0
M  V30 3100 N 301.532 -0.945985 -1.26051 0
M  V30 3101 C 302.462 -0.477172 -2.28572 0
M  V30 3102 C 303.443 0.472032 -1.63419 0
M  V30 3103 O 304.628 0.372853 -1.90587 0
M  V30 3104 C 301.758 0.253975 -3.4637 0
M  V30 3105 C 300.712 -0.609135 -4.23643 0
M  V30 3106 C 300.038 0.252252 -5.34105 0
M  V30 3107 C 301.338 -1.8829 -4.8718 0
M  V30 3108 H 303.032 -1.33402 -2.68038 0
M  V30 3109 H 300.578 -0.642904 -1.28852 0
M  V30 3110 H 302.531 0.593016 -4.17207 0
M  V30 3111 H 301.255 1.145 -3.05871 0
M  V30 3112 H 299.914 -0.931138 -3.54578 0
M  V30 3113 H 299.562 1.14278 -4.89846 0
M  V30 3114 H 299.262 -0.32188 -5.86718 0
M  V30 3115 H 300.786 0.586454 -6.07777 0
M  V30 3116 H 302.2 -1.61081 -5.50205 0
M  V30 3117 H 300.597 -2.40199 -5.49931 0
M  V30 3118 H 301.667 -2.59134 -4.09851 0
M  V30 3119 N 303.011 1.40521 -0.713556 0
M  V30 3120 C 304.26 2.00155 -0.249192 0
M  V30 3121 C 304.573 1.57224 1.16362 0
M  V30 3122 O 305.779 2.09542 1.72639 0
M  V30 3123 C 304.235 3.5773 -0.3946 0
M  V30 3124 C 303.843 4.09635 -1.81392 0
M  V30 3125 C 305.587 4.24499 0.00907364 0
M  V30 3126 C 303.494 5.59707 -1.91003 0
M  V30 3127 H 302.424 0.74868 -0.0894114 0
M  V30 3128 H 305.075 1.60784 -0.884352 0
M  V30 3129 H 303.457 3.94792 0.30911 0
M  V30 3130 H 304.631 3.83955 -2.54785 0
M  V30 3131 H 302.946 3.55456 -2.16888 0
M  V30 3132 H 305.543 5.34683 -0.0420404 0
M  V30 3133 H 305.886 4.02824 1.05065 0
M  V30 3134 H 306.419 3.92536 -0.645007 0
M  V30 3135 H 303.158 5.86234 -2.93275 0
M  V30 3136 H 302.678 5.87258 -1.22019 0
M  V30 3137 H 304.357 6.24776 -1.6812 0
M  V30 3138 N 304.489 0.459591 1.5075 0
M  V30 3139 C 305.439 -0.358926 2.25157 0
M  V30 3140 C 306.423 -0.971285 1.28276 0
M  V30 3141 O 307.615 -0.885739 1.53244 0
M  V30 3142 C 304.744 -1.44695 3.11317 0
M  V30 3143 C 303.83 -0.842894 4.15639 0
M  V30 3144 N 304.221 0.0299373 5.05791 0
M  V30 3145 C 302.519 -1.10809 4.32015 0
M  V30 3146 C 303.22 0.371563 5.80512 0
M  V30 3147 N 302.196 -0.250409 5.43023 0
M  V30 3148 H 305.998 0.313636 2.92222 0
M  V30 3149 H 303.512 0.273021 1.60089 0
M  V30 3150 H 305.509 -2.04641 3.63218 0
M  V30 3151 H 304.169 -2.12162 2.45799 0
M  V30 3152 H 305.18 0.39797 5.16369 0
M  V30 3153 H 301.857 -1.7786 3.77719 0
M  V30 3154 H 303.247 1.08319 6.63111 0
M  V30 3155 N 305.967 -1.56429 0.191757 0
M  V30 3156 C 307.215 -1.97095 -0.447006 0
M  V30 3157 C 307.536 -1.07967 -1.62383 0
M  V30 3158 O 306.806 -0.150248 -1.95323 0
M  V30 3159 H 305.386 -0.727832 -0.168135 0
M  V30 3160 H 308.048 -1.92911 0.27771 0
M  V30 3161 H 307.144 -3.01848 -0.793371 0
M  V30 3162 N 307.445 0.0818655 -1.57387 0
M  V30 3163 C 308.67 0.799946 -1.91352 0
M  V30 3164 C 309.095 1.70833 -0.787258 0
M  V30 3165 O 308.453 1.79419 0.26048 0
M  V30 3166 C 308.501 1.57812 -3.24234 0
M  V30 3167 O 307.605 2.68806 -3.12757 0
M  V30 3168 H 306.946 0.21891 -0.626877 0
M  V30 3169 H 309.476 0.0531256 -2.04531 0
M  V30 3170 H 309.486 1.95952 -3.57864 0
M  V30 3171 H 308.161 0.911548 -4.05788 0
M  V30 3172 H 306.738 2.33597 -2.90666 0
M  V30 3173 N 308.923 1.53595 0.353017 0
M  V30 3174 C 310.148 1.7462 1.11904 0
M  V30 3175 C 310.573 0.479721 1.8188 0
M  V30 3176 O 309.931 -0.567066 1.72204 0
M  V30 3177 C 309.979 2.92029 2.11545 0
M  V30 3178 O 309.083 2.61516 3.18878 0
M  V30 3179 H 308.424 0.579531 0.324099 0
M  V30 3180 H 310.954 2.00525 0.406301 0
M  V30 3181 H 310.964 3.18551 2.5493 0
M  V30 3182 H 309.639 3.83888 1.60008 0
M  V30 3183 H 308.216 2.45852 2.80377 0
M  V30 3184 N 310.401 -0.613514 1.45168 0
M  V30 3185 C 311.649 -1.36997 1.48581 0
M  V30 3186 C 311.97 -1.94589 0.126545 0
M  V30 3187 O 311.24 -1.76816 -0.843372 0
M  V30 3188 H 309.82 -0.508558 0.547154 0
M  V30 3189 H 312.482 -0.720853 1.81079 0
M  V30 3190 H 311.578 -2.1924 2.22127 0
M  V30 3191 N 311.879 -1.3236 -0.855495 0
M  V30 3192 C 313.156 -1.13491 -1.59309 0
M  V30 3193 C 313.536 0.30503 -2.08885 0
M  V30 3194 O 312.884 1.30151 -1.87811 0
M  V30 3195 C 313.094 -2.16176 -2.73987 0
M  V30 3196 C 314.442 -2.49463 -3.43589 0
M  V30 3197 O 315.466 -2.14715 -2.84211 0
M  V30 3198 O 314.325 -3.09027 -4.50738 0
M  V30 3199 H 311.419 -0.437887 -0.701559 0
M  V30 3200 H 313.965 -1.43887 -0.899696 0
M  V30 3201 H 312.737 -3.1297 -2.34873 0
M  V30 3202 H 312.36 -1.86769 -3.51003 0
M  V30 3203 N 313.357 1.07166 -1.15556 0
M  V30 3204 C 314.267 2.17947 -0.868116 0
M  V30 3205 C 315.283 1.73297 0.156297 0
M  V30 3206 O 316.459 2.01392 -0.0182327 0
M  V30 3207 C 313.524 3.44789 -0.36355 0
M  V30 3208 C 312.585 4.03996 -1.45209 0
M  V30 3209 C 311.818 5.24783 -0.971508 0
M  V30 3210 O 312.041 5.70109 0.182194 0
M  V30 3211 O 310.975 5.75715 -1.75603 0
M  V30 3212 H 314.801 2.4503 -1.79427 0
M  V30 3213 H 312.386 1.16539 -0.934824 0
M  V30 3214 H 314.268 4.21307 -0.0887113 0
M  V30 3215 H 312.943 3.19253 0.534708 0
M  V30 3216 H 311.85 3.29009 -1.78056 0
M  V30 3217 H 313.183 4.33808 -2.32533 0
M  V30 3218 N 314.835 0.952656 1.25548 0
M  V30 3219 C 316.082 0.606373 1.93208 0
M  V30 3220 C 316.41 -0.85631 1.74636 0
M  V30 3221 O 315.665 -1.62951 1.08376 0
M  V30 3222 C 315.964 0.908818 3.45652 0
M  V30 3223 C 315.63 2.35722 3.84378 0
M  V30 3224 C 314.292 2.75312 3.9466 0
M  V30 3225 C 316.644 3.29793 4.03591 0
M  V30 3226 C 313.972 4.08047 4.21562 0
M  V30 3227 C 316.324 4.62138 4.31985 0
M  V30 3228 C 314.988 5.01528 4.40484 0
M  V30 3229 H 314.258 0.221888 0.706998 0
M  V30 3230 H 316.905 1.20132 1.49133 0
M  V30 3231 H 315.21 0.231456 3.91116 0
M  V30 3232 H 316.907 0.619498 3.96186 0
M  V30 3233 H 313.497 2.04017 3.76928 0
M  V30 3234 H 317.681 3.00397 3.95064 0
M  V30 3235 H 312.937 4.38212 4.26357 0
M  V30 3236 H 317.111 5.35012 4.45797 0
M  V30 3237 H 314.738 6.04406 4.61083 0
M  V30 3238 N 316.313 -1.40141 0.720998 0
M  V30 3239 C 317.561 -2.0039 0.262323 0
M  V30 3240 C 317.882 -1.57469 -1.15015 0
M  V30 3241 O 317.152 -0.816582 -1.78069 0
M  V30 3242 H 315.732 -0.741063 0.093996 0
M  V30 3243 H 318.394 -1.71398 0.927835 0
M  V30 3244 H 317.49 -3.10658 0.299671 0
M  V30 3245 N 317.792 -0.46758 -1.50504 0
M  V30 3246 C 319.038 0.0887532 -2.02606 0
M  V30 3247 C 319.371 1.39686 -1.34913 0
M  V30 3248 O 318.646 1.88644 -0.473694 0
M  V30 3249 C 318.929 0.276206 -3.59039 0
M  V30 3250 C 318.782 -1.05267 -4.37309 0
M  V30 3251 C 320.101 1.03235 -4.27821 0
M  V30 3252 H 317.22 0.0307814 -0.736357 0
M  V30 3253 H 319.862 -0.612485 -1.79857 0
M  V30 3254 H 318.012 0.8735 -3.78553 0
M  V30 3255 H 319.684 -1.68628 -4.29374 0
M  V30 3256 H 317.927 -1.65015 -4.01189 0
M  V30 3257 H 318.598 -0.875197 -5.45018 0
M  V30 3258 H 321.074 0.526111 -4.12761 0
M  V30 3259 H 319.95 1.1323 -5.37094 0
M  V30 3260 H 320.211 2.06806 -3.90748 0
M  V30 3261 N 319.27 1.56325 -0.20005 0
M  V30 3262 C 320.516 1.98012 0.438059 0
M  V30 3263 C 320.849 1.08702 1.60927 0
M  V30 3264 O 320.124 0.140064 1.93995 0
M  V30 3265 C 320.407 3.48841 0.893419 0
M  V30 3266 C 320.26 4.48928 -0.279947 0
M  V30 3267 C 321.579 4.03498 1.75719 0
M  V30 3268 H 318.698 0.719918 0.157757 0
M  V30 3269 H 321.34 1.87743 -0.291968 0
M  V30 3270 H 319.49 3.57723 1.51547 0
M  V30 3271 H 321.162 4.52079 -0.91772 0
M  V30 3272 H 319.405 4.23694 -0.930919 0
M  V30 3273 H 320.076 5.5194 0.0812601 0
M  V30 3274 H 322.552 3.97427 1.23253 0
M  V30 3275 H 321.428 5.09393 2.04476 0
M  V30 3276 H 321.689 3.4906 2.71311 0
M  V30 3277 N 320.748 -0.0735177 1.57428 0
M  V30 3278 C 321.996 -0.771472 1.86796 0
M  V30 3279 C 322.317 -1.78201 0.791804 0
M  V30 3280 O 321.587 -1.95074 -0.179718 0
M  V30 3281 H 320.167 -0.28791 0.689287 0
M  V30 3282 H 322.829 -0.0500161 1.94836 0
M  V30 3283 H 321.925 -1.28874 2.8425 0
M  V30 3284 N 322.226 -1.5378 -0.344866 0
M  V30 3285 C 323.642 -1.44015 -0.687888 0
M  V30 3286 C 323.842 -0.595834 -1.92489 0
M  V30 3287 O 322.898 -0.0863064 -2.52352 0
M  V30 3288 C 324.211 -2.87481 -0.881758 0
M  V30 3289 C 325.759 -2.97247 -0.980459 0
M  V30 3290 C 326.234 -4.41819 -1.20665 0
M  V30 3291 N 327.725 -4.45339 -1.27389 0
M  V30 3292 C 328.46 -5.54333 -1.46639 0
M  V30 3293 N 327.956 -6.73335 -1.63071 0
M  V30 3294 N 329.749 -5.41944 -1.49176 0
M  V30 3295 H 321.9 -2.07169 0.468475 0
M  V30 3296 H 324.163 -0.93643 0.147655 0
M  V30 3297 H 323.869 -3.51672 -0.0443444 0
M  V30 3298 H 323.743 -3.32352 -1.78388 0
M  V30 3299 H 326.13 -2.33197 -1.8084 0
M  V30 3300 H 326.211 -2.5574 -0.0552713 0
M  V30 3301 H 325.855 -5.06449 -0.383652 0
M  V30 3302 H 325.785 -4.80917 -2.14539 0
M  V30 3303 H 328.276 -3.59585 -1.1622 0
M  V30 3304 H 328.589 -7.52165 -1.77391 0
M  V30 3305 H 326.934 -6.76282 -1.60209 0
M  V30 3306 H 330.125 -4.47932 -1.3592 0
M  V30 3307 H 330.298 -6.26946 -1.63837 0
M  V30 3308 N 323.704 0.605807 -1.45491 0
M  V30 3309 C 324.634 1.72709 -1.57143 0
M  V30 3310 C 325.615 1.6476 -0.422884 0
M  V30 3311 O 326.8 1.83132 -0.646247 0
M  V30 3312 C 323.93 3.11316 -1.53948 0
M  V30 3313 C 322.884 3.34077 -2.67537 0
M  V30 3314 C 322.21 4.72975 -2.49397 0
M  V30 3315 C 323.51 3.24158 -4.09535 0
M  V30 3316 H 325.204 1.63214 -2.51001 0
M  V30 3317 H 322.75 0.78379 -1.208 0
M  V30 3318 H 324.703 3.89557 -1.60696 0
M  V30 3319 H 323.427 3.21655 -0.566205 0
M  V30 3320 H 322.086 2.58227 -2.6022 0
M  V30 3321 H 321.734 4.8005 -1.50205 0
M  V30 3322 H 321.434 4.8916 -3.25571 0
M  V30 3323 H 322.958 5.53414 -2.58002 0
M  V30 3324 H 324.372 3.92271 -4.18086 0
M  V30 3325 H 322.769 3.51872 -4.86113 0
M  V30 3326 H 323.839 2.2157 -4.31317 0
M  V30 3327 N 325.182 1.32811 0.848464 0
M  V30 3328 C 326.429 1.23724 1.60308 0
M  V30 3329 C 326.757 -0.1994 1.93475 0
M  V30 3330 O 326.012 -1.15406 1.5805 0
M  V30 3331 C 326.311 2.04831 2.92881 0
M  V30 3332 C 325.977 3.54125 2.79117 0
M  V30 3333 C 324.639 3.94829 2.7507 0
M  V30 3334 C 326.991 4.49036 2.64606 0
M  V30 3335 C 324.319 5.28675 2.544 0
M  V30 3336 C 326.671 5.83033 2.4547 0
M  V30 3337 C 325.335 6.22931 2.39819 0
M  V30 3338 H 324.605 0.452737 0.586609 0
M  V30 3339 H 327.252 1.64301 0.983743 0
M  V30 3340 H 325.557 1.57001 3.58968 0
M  V30 3341 H 327.254 1.95164 3.50303 0
M  V30 3342 H 323.844 3.21801 2.83094 0
M  V30 3343 H 328.028 4.18505 2.66772 0
M  V30 3344 H 323.284 5.58637 2.48465 0
M  V30 3345 H 327.458 6.56186 2.33222 0
M  V30 3346 H 325.085 7.26584 2.23562 0
M  V30 3347 N 326.66 -1.06551 1.16123 0
M  V30 3348 C 327.623 -2.12132 0.867906 0
M  V30 3349 C 328.623 -1.60224 -0.135944 0
M  V30 3350 O 329.813 -1.73943 0.0946422 0
M  V30 3351 C 326.945 -3.396 0.297419 0
M  V30 3352 H 328.138 -2.39586 1.80385 0
M  V30 3353 H 325.691 -1.22574 0.969812 0
M  V30 3354 H 326.426 -3.17794 -0.64633 0
M  V30 3355 H 326.211 -3.78581 1.02073 0
M  V30 3356 H 327.701 -4.17455 0.110052 0
M  V30 3357 N 328.138 -0.959301 -1.25041 0
M  V30 3358 C 329.554 -0.664474 -1.4511 0
M  V30 3359 C 329.754 0.776481 -1.85938 0
M  V30 3360 O 328.81 1.55128 -1.99227 0
M  V30 3361 C 330.123 -1.64139 -2.5195 0
M  V30 3362 C 331.671 -1.65309 -2.65786 0
M  V30 3363 C 332.146 -2.61777 -3.75815 0
M  V30 3364 N 333.637 -2.60169 -3.83231 0
M  V30 3365 C 334.372 -3.31489 -4.6787 0
M  V30 3366 N 333.868 -4.12298 -5.56761 0
M  V30 3367 N 335.661 -3.20354 -4.61876 0
M  V30 3368 H 327.812 -1.89043 -0.968332 0
M  V30 3369 H 330.075 -0.813408 -0.4869 0
M  V30 3370 H 329.781 -2.67086 -2.28819 0
M  V30 3371 H 329.655 -1.40756 -3.49954 0
M  V30 3372 H 332.042 -0.630778 -2.8828 0
M  V30 3373 H 332.123 -1.92753 -1.68167 0
M  V30 3374 H 331.767 -3.64137 -3.54071 0
M  V30 3375 H 331.697 -2.31616 -4.72929 0
M  V30 3376 H 334.188 -2.01507 -3.19692 0
M  V30 3377 H 334.501 -4.63625 -6.18281 0
M  V30 3378 H 332.846 -4.16395 -5.56454 0
M  V30 3379 H 336.037 -2.56692 -3.91442 0
M  V30 3380 H 336.21 -3.76201 -5.27614 0
M  V30 3381 N 329.616 1.39756 -0.72842 0
M  V30 3382 C 330.893 1.94574 -0.200079 0
M  V30 3383 C 331.273 1.66569 1.29684 0
M  V30 3384 O 330.621 0.990326 2.05924 0
M  V30 3385 C 330.831 3.45004 -0.526608 0
M  V30 3386 C 332.179 4.21965 -0.472318 0
M  V30 3387 O 333.203 3.53173 -0.463413 0
M  V30 3388 O 332.062 5.44552 -0.461075 0
M  V30 3389 H 329.156 0.826289 -0.0342851 0
M  V30 3390 H 331.702 1.49293 -0.806829 0
M  V30 3391 H 330.474 3.58796 -1.56144 0
M  V30 3392 H 330.097 3.97449 0.109449 0
M  V30 3393 N 331.094 0.475555 1.50254 0
M  V30 3394 C 332.505 0.0215174 1.86688 0
M  V30 3395 C 332.856 -1.38467 1.39001 0
M  V30 3396 O 331.981 -2.02732 0.756894 0
M  V30 3397 C 332.576 0.0322715 3.38785 0
M  V30 3398 C 331.135 -0.366314 3.74613 0
M  V30 3399 C 330.282 0.415832 2.74164 0
M  V30 3400 H 333.233 0.689612 1.42934 0
M  V30 3401 H 333.254 -0.76889 3.7265 0
M  V30 3402 H 332.766 1.05584 3.73462 0
M  V30 3403 H 330.867 -1.39406 3.45538 0
M  V30 3404 H 330.98 -0.064555 4.79057 0
M  V30 3405 H 329.344 -0.131048 2.54363 0
M  V30 3406 H 330.127 1.43899 3.11686 0
M  V30 3407 N 332.573 -1.56217 0.208337 0
M  V30 3408 C 333.85 -1.89739 -0.475234 0
M  V30 3409 C 334.23 -1.1238 -1.78701 0
M  V30 3410 O 333.578 -0.228979 -2.2735 0
M  V30 3411 C 333.788 -3.42289 -0.681101 0
M  V30 3412 C 335.136 -4.12789 -0.994507 0
M  V30 3413 O 336.16 -3.47814 -0.768357 0
M  V30 3414 O 335.019 -5.27649 -1.42299 0
M  V30 3415 H 332.113 -0.788478 -0.249461 0
M  V30 3416 H 334.659 -1.67855 0.249538 0
M  V30 3417 H 333.431 -3.90534 0.244722 0
M  V30 3418 H 333.054 -3.69909 -1.45785 0
M  V30 3419 N 334.051 0.0651679 -1.57465 0
M  V30 3420 C 335.279 0.775808 -1.91804 0
M  V30 3421 C 335.694 1.70782 -0.804916 0
M  V30 3422 O 335.051 1.81153 0.221311 0
M  V30 3423 C 335.102 1.56381 -3.25925 0
M  V30 3424 O 334.823 0.669248 -4.32958 0
M  V30 3425 C 336.324 2.37485 -3.7432 0
M  V30 3426 H 333.544 0.2202 -0.63384 0
M  V30 3427 H 336.088 0.0334587 -2.04473 0
M  V30 3428 H 334.243 2.25837 -3.14764 0
M  V30 3429 H 334.657 1.21801 -5.10162 0
M  V30 3430 H 336.131 2.88223 -4.70778 0
M  V30 3431 H 336.608 3.17307 -3.03666 0
M  V30 3432 H 337.214 1.73173 -3.88447 0
M  V30 3433 N 335.529 1.53961 0.336706 0
M  V30 3434 C 336.777 1.71197 1.07405 0
M  V30 3435 C 337.098 0.481475 1.88962 0
M  V30 3436 O 336.368 -0.504585 1.8929 0
M  V30 3437 H 334.948 0.631185 0.399517 0
M  V30 3438 H 337.61 1.91232 0.376323 0
M  V30 3439 H 336.706 2.58587 1.74755 0
M  V30 3440 N 337.007 -0.598083 1.45811 0
M  V30 3441 C 337.917 -1.73632 1.57763 0
M  V30 3442 C 338.933 -1.67763 0.461676 0
M  V30 3443 O 340.109 -1.87949 0.723685 0
M  V30 3444 C 337.174 -3.10114 1.55018 0
M  V30 3445 C 336.235 -3.27364 2.77726 0
M  V30 3446 C 335.468 -4.57334 2.75102 0
M  V30 3447 O 335.691 -5.40258 1.8297 0
M  V30 3448 O 334.625 -4.77502 3.66437 0
M  V30 3449 H 338.451 -1.66498 2.53992 0
M  V30 3450 H 336.036 -0.763308 1.28429 0
M  V30 3451 H 337.918 -3.9141 1.56129 0
M  V30 3452 H 336.593 -3.17718 0.619431 0
M  V30 3453 H 335.5 -2.45619 2.82174 0
M  V30 3454 H 336.833 -3.24641 3.69958 0
M  V30 3455 N 338.485 -1.33259 -0.841409 0
M  V30 3456 C 339.395 -1.25332 -1.98316 0
M  V30 3457 C 340.411 -0.164364 -1.73222 0
M  V30 3458 O 341.587 -0.387486 -1.97637 0
M  V30 3459 C 338.652 -0.990078 -3.32262 0
M  V30 3460 C 337.713 -2.16879 -3.70489 0
M  V30 3461 C 336.946 -1.91801 -4.98044 0
M  V30 3462 O 337.169 -0.867075 -5.63771 0
M  V30 3463 O 336.103 -2.78267 -5.33714 0
M  V30 3464 H 339.929 -2.21344 -2.07944 0
M  V30 3465 H 337.514 -1.1328 -0.974058 0
M  V30 3466 H 339.396 -0.860321 -4.12524 0
M  V30 3467 H 338.071 -0.0602155 -3.23644 0
M  V30 3468 H 336.978 -2.35407 -2.90748 0
M  V30 3469 H 338.311 -3.0819 -3.8377 0
M  V30 3470 N 339.963 1.05934 -1.16686 0
M  V30 3471 C 341.212 1.78188 -0.945085 0
M  V30 3472 C 341.525 1.88338 0.528021 0
M  V30 3473 O 342.731 2.57258 0.867799 0
M  V30 3474 C 341.187 3.20277 -1.64167 0
M  V30 3475 C 340.795 3.18281 -3.15279 0
M  V30 3476 C 342.539 3.97039 -1.502 0
M  V30 3477 C 340.446 4.55112 -3.7766 0
M  V30 3478 H 339.376 0.667866 -0.349959 0
M  V30 3479 H 342.027 1.18794 -1.39858 0
M  V30 3480 H 340.409 3.79952 -1.11589 0
M  V30 3481 H 341.583 2.68167 -3.74731 0
M  V30 3482 H 339.898 2.55018 -3.29173 0
M  V30 3483 H 342.495 4.98194 -1.94183 0
M  V30 3484 H 342.838 4.13845 -0.451461 0
M  V30 3485 H 343.371 3.43894 -1.99954 0
M  V30 3486 H 340.11 4.43512 -4.82677 0
M  V30 3487 H 339.63 5.05406 -3.22994 0
M  V30 3488 H 341.309 5.24064 -3.79428 0
M  V30 3489 N 341.441 0.965919 1.2453 0
M  V30 3490 C 342.687 0.637349 1.93156 0
M  V30 3491 C 343.042 -0.818261 1.74133 0
M  V30 3492 O 342.335 -1.58079 1.08266 0
M  V30 3493 C 342.529 0.945428 3.44669 0
M  V30 3494 C 342.358 2.42944 3.78429 0
M  V30 3495 C 341.128 3.08895 3.9989 0
M  V30 3496 C 343.326 3.40941 3.8505 0
M  V30 3497 N 341.308 4.47052 4.20735 0
M  V30 3498 C 342.679 4.64448 4.10717 0
M  V30 3499 C 344.734 3.35624 3.67779 0
M  V30 3500 C 343.437 5.83292 4.20907 0
M  V30 3501 C 345.463 4.53818 3.79214 0
M  V30 3502 C 344.825 5.76114 4.05304 0
M  V30 3503 H 340.924 0.284034 0.728594 0
M  V30 3504 H 343.508 1.24041 1.50073 0
M  V30 3505 H 341.679 0.371193 3.86622 0
M  V30 3506 H 343.411 0.575613 4.00586 0
M  V30 3507 H 340.166 2.59432 3.96222 0
M  V30 3508 H 340.59 5.18634 4.35141 0
M  V30 3509 H 345.232 2.4211 3.46616 0
M  V30 3510 H 342.95 6.77236 4.40883 0
M  V30 3511 H 346.536 4.51263 3.67224 0
M  V30 3512 H 345.416 6.66045 4.13949 0
M  V30 3513 N 342.919 -1.39368 0.735821 0
M  V30 3514 C 343.852 -2.28155 0.0451175 0
M  V30 3515 C 344.83 -1.44433 -0.746852 0
M  V30 3516 O 346.014 -1.73823 -0.729237 0
M  V30 3517 C 343.141 -3.253 -0.943266 0
M  V30 3518 C 342.187 -4.25826 -0.239685 0
M  V30 3519 S 343.02 -5.25166 1.04693 0
M  V30 3520 C 344.176 -6.2587 0.0611639 0
M  V30 3521 H 344.409 -2.86388 0.79807 0
M  V30 3522 H 341.942 -1.45104 0.527653 0
M  V30 3523 H 343.9 -3.81789 -1.50824 0
M  V30 3524 H 342.561 -2.66085 -1.66906 0
M  V30 3525 H 341.754 -4.94229 -0.987596 0
M  V30 3526 H 341.356 -3.73141 0.253274 0
M  V30 3527 H 343.648 -6.73007 -0.778941 0
M  V30 3528 H 344.591 -7.04508 0.712362 0
M  V30 3529 H 344.999 -5.63639 -0.311602 0
M  V30 3530 N 344.397 -0.483516 -1.5 0
M  V30 3531 C 345.813 -0.138404 -1.58999 0
M  V30 3532 C 346.013 1.35597 -1.4905 0
M  V30 3533 O 345.069 2.13039 -1.35539 0
M  V30 3534 C 346.382 -0.699658 -2.92447 0
M  V30 3535 C 347.93 -0.664195 -3.05872 0
M  V30 3536 C 348.405 -1.20321 -4.41913 0
M  V30 3537 N 349.896 -1.16315 -4.48358 0
M  V30 3538 C 350.631 -1.55058 -5.52037 0
M  V30 3539 N 350.127 -2.01311 -6.62907 0
M  V30 3540 N 351.92 -1.46584 -5.42651 0
M  V30 3541 H 344.071 -1.45529 -1.5471 0
M  V30 3542 H 346.334 -0.60258 -0.731848 0
M  V30 3543 H 346.04 -1.747 -3.05242 0
M  V30 3544 H 345.914 -0.150194 -3.76901 0
M  V30 3545 H 348.301 0.374272 -2.92717 0
M  V30 3546 H 348.382 -1.25061 -2.23144 0
M  V30 3547 H 348.026 -2.24037 -4.55818 0
M  V30 3548 H 347.956 -0.592896 -5.23252 0
M  V30 3549 H 350.447 -0.824058 -3.68806 0
M  V30 3550 H 350.76 -2.2899 -7.38095 0
M  V30 3551 H 349.105 -2.05273 -6.63994 0
M  V30 3552 H 352.296 -1.10281 -4.54924 0
M  V30 3553 H 352.469 -1.77103 -6.23329 0
M  V30 3554 N 345.875 1.56104 -0.216619 0
M  V30 3555 C 347.286 1.844 0.292128 0
M  V30 3556 C 347.637 1.13788 1.59833 0
M  V30 3557 O 346.762 0.405888 2.12559 0
M  V30 3558 C 347.357 3.3452 0.53681 0
M  V30 3559 C 345.916 3.63151 0.989876 0
M  V30 3560 C 345.063 2.77255 0.0502302 0
M  V30 3561 H 348.014 1.52481 -0.439926 0
M  V30 3562 H 348.035 3.54459 1.38345 0
M  V30 3563 H 347.547 3.85885 -0.414031 0
M  V30 3564 H 345.648 3.17238 1.95425 0
M  V30 3565 H 345.761 4.71177 0.867698 0
M  V30 3566 H 344.125 2.48555 0.556117 0
M  V30 3567 H 344.908 3.31416 -0.89544 0
M  V30 3568 N 347.353 -0.0568162 1.57498 0
M  V30 3569 C 348.6 -0.753104 1.87975 0
M  V30 3570 C 348.928 -1.76815 0.81035 0
M  V30 3571 O 348.183 -1.94756 -0.19199 0
M  V30 3572 C 348.482 -1.48359 3.25153 0
M  V30 3573 C 348.148 -0.60713 4.46794 0
M  V30 3574 C 346.81 -0.365642 4.79809 0
M  V30 3575 C 349.162 -0.000305978 5.212 0
M  V30 3576 C 346.49 0.491905 5.84634 0
M  V30 3577 C 348.842 0.844781 6.26934 0
M  V30 3578 C 347.506 1.096 6.58441 0
M  V30 3579 H 346.776 -0.27558 0.687849 0
M  V30 3580 H 349.423 -0.0135173 1.91495 0
M  V30 3581 H 347.728 -2.29577 3.17492 0
M  V30 3582 H 349.425 -2.02739 3.45974 0
M  V30 3583 H 346.015 -0.805487 4.20963 0
M  V30 3584 H 350.199 -0.173961 4.95995 0
M  V30 3585 H 345.455 0.695131 6.07436 0
M  V30 3586 H 349.629 1.32165 6.83744 0
M  V30 3587 H 347.256 1.76224 7.39492 0
M  V30 3588 N 348.832 -1.54138 -0.328536 0
M  V30 3589 C 350.078 -1.7236 -1.06865 0
M  V30 3590 C 350.411 -0.493231 -1.87832 0
M  V30 3591 O 349.686 0.5098 -1.877 0
M  V30 3592 C 349.969 -2.99621 -1.99747 0
M  V30 3593 C 349.822 -4.32899 -1.22143 0
M  V30 3594 C 351.141 -3.22615 -2.99345 0
M  V30 3595 H 348.26 -0.627151 -0.387105 0
M  V30 3596 H 350.902 -1.86827 -0.345767 0
M  V30 3597 H 349.052 -2.87418 -2.61387 0
M  V30 3598 H 350.724 -4.56978 -0.630017 0
M  V30 3599 H 348.967 -4.30628 -0.523628 0
M  V30 3600 H 349.638 -5.18154 -1.90318 0
M  V30 3601 H 352.114 -3.34248 -2.47826 0
M  V30 3602 H 350.99 -4.13027 -3.61524 0
M  V30 3603 H 351.251 -2.3961 -3.71536 0
M  V30 3604 N 350.31 0.590341 -1.46126 0
M  V30 3605 C 351.22 1.72793 -1.58681 0
M  V30 3606 C 352.236 1.67516 -0.470566 0
M  V30 3607 O 353.412 1.87562 -0.733642 0
M  V30 3608 C 350.477 3.09287 -1.5666 0
M  V30 3609 C 349.538 3.25886 -2.79458 0
M  V30 3610 C 348.771 4.55869 -2.77524 0
M  V30 3611 O 348.994 5.3928 -1.85832 0
M  V30 3612 O 347.928 4.75552 -3.68964 0
M  V30 3613 H 351.754 1.65149 -2.54872 0
M  V30 3614 H 349.339 0.756486 -1.28832 0
M  V30 3615 H 351.221 3.90577 -1.58202 0
M  V30 3616 H 349.896 3.17385 -0.636271 0
M  V30 3617 H 348.803 2.44119 -2.83472 0
M  V30 3618 H 350.136 3.22675 -3.71674 0
M  V30 3619 N 351.788 1.33704 0.83433 0
M  V30 3620 C 353.036 1.25169 1.58673 0
M  V30 3621 C 353.357 -0.18127 1.94156 0
M  V30 3622 O 352.627 -1.11113 1.6134 0
M  V30 3623 H 351.207 0.4603 0.58833 0
M  V30 3624 H 353.869 1.67478 0.996847 0
M  V30 3625 H 352.965 1.84856 2.51465 0
M  V30 3626 N 353.266 -1.05314 1.17247 0
M  V30 3627 C 354.216 -2.11313 0.856196 0
M  V30 3628 C 355.2 -1.60013 -0.168694 0
M  V30 3629 O 356.392 -1.76968 0.0335624 0
M  V30 3630 C 353.521 -3.41301 0.369917 0
M  V30 3631 C 352.607 -3.99401 1.42616 0
M  V30 3632 N 352.998 -4.31481 2.63928 0
M  V30 3633 C 351.296 -4.27126 1.28373 0
M  V30 3634 C 351.997 -4.77799 3.31787 0
M  V30 3635 N 350.973 -4.77843 2.59166 0
M  V30 3636 H 354.775 -2.33976 1.77856 0
M  V30 3637 H 352.289 -1.2295 1.06099 0
M  V30 3638 H 354.286 -4.16713 0.124897 0
M  V30 3639 H 352.946 -3.20072 -0.546253 0
M  V30 3640 H 353.957 -4.21519 3.00902 0
M  V30 3641 H 350.634 -4.15289 0.429111 0
M  V30 3642 H 352.024 -5.11743 4.35395 0
M  V30 3643 N 354.744 -0.972509 -1.24016 0
M  V30 3644 C 355.677 -0.45117 -2.23696 0
M  V30 3645 C 356.655 0.477378 -1.55434 0
M  V30 3646 O 357.839 0.407647 -1.84039 0
M  V30 3647 C 354.966 0.34818 -3.36906 0
M  V30 3648 C 354.012 -0.523355 -4.23277 0
M  V30 3649 S 354.845 -1.96647 -4.98087 0
M  V30 3650 C 356.001 -1.17604 -6.14752 0
M  V30 3651 H 356.234 -1.29588 -2.67571 0
M  V30 3652 H 353.767 -0.777903 -1.33372 0
M  V30 3653 H 355.725 0.803387 -4.02562 0
M  V30 3654 H 354.386 1.16792 -2.91579 0
M  V30 3655 H 353.579 0.0906181 -5.03919 0
M  V30 3656 H 353.181 -0.914485 -3.62647 0
M  V30 3657 H 355.473 -0.433434 -6.76112 0
M  V30 3658 H 356.416 -1.95701 -6.8052 0
M  V30 3659 H 356.824 -0.698295 -5.60164 0
M  V30 3660 N 356.222 1.38976 -0.743202 0
M  V30 3661 C 357.47 1.99948 -0.29417 0
M  V30 3662 C 357.791 1.59279 1.12495 0
M  V30 3663 O 357.061 0.844808 1.76748 0
M  V30 3664 H 355.641 0.739473 -0.105774 0
M  V30 3665 H 358.303 1.699 -0.954986 0
M  V30 3666 H 357.399 3.10142 -0.349056 0
M  V30 3667 N 357.7 0.491464 1.49741 0
M  V30 3668 C 359.116 0.146835 1.58923 0
M  V30 3669 C 359.316 -1.34804 1.49767 0
M  V30 3670 O 358.372 -2.12317 1.36667 0
M  V30 3671 C 359.685 0.715157 2.92072 0
M  V30 3672 C 361.233 0.680407 3.05515 0
M  V30 3673 C 361.708 1.22663 4.41269 0
M  V30 3674 N 363.199 1.18691 4.47735 0
M  V30 3675 C 363.934 1.57984 5.51207 0
M  V30 3676 N 363.43 2.04824 6.6183 0
M  V30 3677 N 365.223 1.49459 5.41866 0
M  V30 3678 H 357.374 1.46347 1.53936 0
M  V30 3679 H 359.637 0.606453 0.728642 0
M  V30 3680 H 359.343 1.76317 3.04311 0
M  V30 3681 H 359.217 0.17018 3.76816 0
M  V30 3682 H 361.604 -0.358743 2.92911 0
M  V30 3683 H 361.685 1.26242 2.22478 0
M  V30 3684 H 361.329 2.26451 4.54623 0
M  V30 3685 H 361.259 0.620637 5.2293 0
M  V30 3686 H 363.75 0.843605 3.68364 0
M  V30 3687 H 364.063 2.32901 7.3687 0
M  V30 3688 H 362.408 2.08791 6.62896 0
M  V30 3689 H 365.599 1.12692 4.54333 0
M  V30 3690 H 365.772 1.80406 6.22381 0
M  V30 3691 N 359.178 -1.55987 0.224894 0
M  V30 3692 C 360.108 -2.23426 -0.678457 0
M  V30 3693 C 361.089 -1.20709 -1.19847 0
M  V30 3694 O 362.274 -1.49304 -1.24186 0
M  V30 3695 C 359.404 -2.91676 -1.88527 0
M  V30 3696 C 358.358 -4.00893 -1.49896 0
M  V30 3697 C 357.684 -4.56455 -2.78483 0
M  V30 3698 C 358.984 -5.17769 -0.686461 0
M  V30 3699 H 360.678 -2.99175 -0.116173 0
M  V30 3700 H 358.224 -1.43897 -0.054436 0
M  V30 3701 H 360.177 -3.37547 -2.5227 0
M  V30 3702 H 358.901 -2.1338 -2.47258 0
M  V30 3703 H 357.56 -3.55758 -0.884985 0
M  V30 3704 H 357.208 -3.74886 -3.35365 0
M  V30 3705 H 356.908 -5.30169 -2.53368 0
M  V30 3706 H 358.432 -5.05047 -3.43162 0
M  V30 3707 H 359.846 -5.60001 -1.22767 0
M  V30 3708 H 358.243 -5.97735 -0.532259 0
M  V30 3709 H 359.313 -4.83932 0.306196 0
M  V30 3710 N 360.656 0.0484629 -1.57525 0
M  V30 3711 C 361.604 1.07359 -2.06341 0
M  V30 3712 C 362.598 1.3865 -0.973269 0
M  V30 3713 O 363.804 1.37783 -1.15827 0
M  V30 3714 H 360.179 0.363662 -0.65822 0
M  V30 3715 H 362.15 0.635916 -2.91545 0
M  V30 3716 C 360.899 2.37198 -2.54229 0
M  V30 3717 H 360.222 2.13977 -3.37719 0
M  V30 3718 H 361.662 3.07319 -2.92115 0
M  V30 3719 C 360.121 3.04805 -1.43511 0
M  V30 3720 O 360.651 3.93848 -0.79034 0
M  V30 3721 N 358.857 2.65811 -1.17444 0
M  V30 3722 H 358.404 1.93488 -1.70059 0
M  V30 3723 H 358.362 3.11366 -0.435737 0
M  V30 3724 N 362.134 1.5431 0.320358 0
M  V30 3725 C 363.382 1.72327 1.05583 0
M  V30 3726 C 363.703 0.50149 1.88441 0
M  V30 3727 O 362.973 -0.48448 1.89815 0
M  V30 3728 H 361.553 0.635387 0.3928 0
M  V30 3729 H 364.215 1.91621 0.356019 0
M  V30 3730 H 363.311 2.60426 1.72003 0
M  V30 3731 N 363.613 -0.582584 1.46437 0
M  V30 3732 C 364.56 -1.69164 1.5701 0
M  V30 3733 C 365.53 -1.60847 0.414403 0
M  V30 3734 O 366.715 -1.80058 0.631171 0
M  V30 3735 C 363.855 -3.075 1.56646 0
M  V30 3736 C 362.968 -3.2644 2.82951 0
M  V30 3737 C 362.103 -4.55026 2.7409 0
M  V30 3738 C 361.142 -4.6731 3.95333 0
M  V30 3739 N 360.279 -5.87221 3.84858 0
M  V30 3740 H 365.119 -1.59464 2.51744 0
M  V30 3741 H 362.656 -0.777186 1.24893 0
M  V30 3742 H 364.614 -3.8757 1.5442 0
M  V30 3743 H 363.244 -3.16096 0.654439 0
M  V30 3744 H 362.296 -2.39974 2.95155 0
M  V30 3745 H 363.608 -3.31385 3.72808 0
M  V30 3746 H 362.762 -5.43324 2.6997 0
M  V30 3747 H 361.501 -4.52519 1.81873 0
M  V30 3748 H 360.506 -3.77429 3.99784 0
M  V30 3749 H 361.731 -4.71595 4.88646 0
M  V30 3750 H 359.677 -5.85712 2.95427 0
M  V30 3751 H 359.594 -5.93435 4.6837 0
M  V30 3752 H 360.862 -6.7795 3.84713 0
M  V30 3753 N 365.091 -1.34144 -0.827227 0
M  V30 3754 C 366.368 -1.16844 -1.56865 0
M  V30 3755 C 366.748 0.260654 -2.09485 0
M  V30 3756 O 366.096 1.26138 -1.9053 0
M  V30 3757 C 366.306 -2.21939 -2.6934 0
M  V30 3758 C 367.654 -2.56695 -3.3822 0
M  V30 3759 O 368.678 -2.20695 -2.79593 0
M  V30 3760 O 367.537 -3.18518 -4.44082 0
M  V30 3761 H 364.631 -0.452669 -0.692112 0
M  V30 3762 H 367.177 -1.45763 -0.868973 0
M  V30 3763 H 365.949 -3.17882 -2.28182 0
M  V30 3764 H 365.572 -1.94172 -3.46962 0
M  V30 3765 N 366.569 1.04691 -1.17803 0
M  V30 3766 C 367.794 1.81984 -0.994813 0
M  V30 3767 C 368.219 1.82586 0.452112 0
M  V30 3768 O 367.577 1.23854 1.324 0
M  V30 3769 C 367.625 3.2575 -1.54659 0
M  V30 3770 O 366.729 4.05267 -0.763728 0
M  V30 3771 H 366.07 0.562483 -0.352857 0
M  V30 3772 H 368.6 1.3189 -1.56417 0
M  V30 3773 H 368.61 3.76541 -1.57102 0
M  V30 3774 H 367.285 3.24627 -2.59981 0
M  V30 3775 H 365.862 3.63972 -0.811108 0
M  V30 3776 N 368.047 0.979072 1.23499 0
M  V30 3777 C 369.275 0.665202 1.95915 0
M  V30 3778 C 369.69 -0.767571 1.72493 0
M  V30 3779 O 369.047 -1.51635 1.01554 0
M  V30 3780 C 369.098 0.944438 3.48945 0
M  V30 3781 O 368.819 2.3209 3.71572 0
M  V30 3782 C 370.32 0.646336 4.38563 0
M  V30 3783 H 367.54 0.247218 0.623798 0
M  V30 3784 H 370.084 1.31009 1.57025 0
M  V30 3785 H 368.239 0.345575 3.85856 0
M  V30 3786 H 368.653 2.40957 4.65876 0
M  V30 3787 H 370.127 0.892091 5.44744 0
M  V30 3788 H 370.604 -0.419575 4.37191 0
M  V30 3789 H 371.21 1.22562 4.07258 0
M  V30 3790 N 369.525 -1.3858 0.750561 0
M  V30 3791 C 370.771 -2.00481 0.305825 0
M  V30 3792 C 371.104 -1.5944 -1.10872 0
M  V30 3793 O 370.379 -0.83052 -1.75877 0
M  V30 3794 C 370.662 -3.5758 0.425287 0
M  V30 3795 C 370.515 -4.08594 1.88072 0
M  V30 3796 C 371.834 -4.39719 -0.183122 0
M  V30 3797 H 368.953 -0.728348 0.112598 0
M  V30 3798 H 371.595 -1.64566 0.949638 0
M  V30 3799 H 369.745 -3.88306 -0.122828 0
M  V30 3800 H 371.417 -3.88523 2.48691 0
M  V30 3801 H 369.66 -3.61574 2.39681 0
M  V30 3802 H 370.331 -5.177 1.91548 0
M  V30 3803 H 372.807 -4.15128 0.284303 0
M  V30 3804 H 371.683 -5.48856 -0.0692757 0
M  V30 3805 H 371.944 -4.23434 -1.27106 0
M  V30 3806 N 371.003 -0.499398 -1.49478 0
M  V30 3807 C 372.231 0.0425456 -2.06856 0
M  V30 3808 C 372.646 1.30964 -1.35992 0
M  V30 3809 O 372.003 1.77172 -0.437762 0
M  V30 3810 C 372.054 0.301735 -3.60239 0
M  V30 3811 O 371.775 -0.915127 -4.28436 0
M  V30 3812 C 373.276 0.887499 -4.34325 0
M  V30 3813 H 370.496 -0.0197482 -0.670709 0
M  V30 3814 H 373.04 -0.696297 -1.92281 0
M  V30 3815 H 371.195 0.990556 -3.74522 0
M  V30 3816 H 371.609 -0.676993 -5.20113 0
M  V30 3817 H 373.083 1.01845 -5.42523 0
M  V30 3818 H 373.56 1.88488 -3.96698 0
M  V30 3819 H 374.166 0.236196 -4.24644 0
M  V30 3820 N 372.481 1.55866 -0.233164 0
M  V30 3821 C 373.729 1.9821 0.394593 0
M  V30 3822 C 374.05 1.12234 1.59463 0
M  V30 3823 O 373.32 0.201981 1.94856 0
M  V30 3824 H 371.9 0.732034 0.148778 0
M  V30 3825 H 374.562 1.92107 -0.32876 0
M  V30 3826 H 373.658 3.03845 0.713063 0
M  V30 3827 N 373.959 -0.0401083 1.57549 0
M  V30 3828 C 375.236 -0.767917 1.79896 0
M  V30 3829 C 375.616 -1.9416 0.82856 0
M  V30 3830 O 374.964 -2.2812 -0.131671 0
M  V30 3831 C 375.174 -1.2113 3.27305 0
M  V30 3832 C 376.522 -1.63175 3.91994 0
M  V30 3833 O 377.546 -1.30616 3.31388 0
M  V30 3834 O 376.405 -2.23565 4.98679 0
M  V30 3835 H 373.499 -0.370441 0.739393 0
M  V30 3836 H 376.045 -0.017737 1.69691 0
M  V30 3837 H 374.817 -0.372937 3.89519 0
M  V30 3838 H 374.44 -2.02183 3.42356 0
M  V30 3839 N 375.437 -1.54477 -0.31217 0
M  V30 3840 C 376.683 -1.73483 -1.0503 0
M  V30 3841 C 377.016 -0.513125 -1.87298 0
M  V30 3842 O 376.291 0.489864 -1.8823 0
M  V30 3843 C 376.574 -3.01723 -1.96558 0
M  V30 3844 C 376.427 -4.3417 -1.17545 0
M  V30 3845 C 377.746 -3.25772 -2.95907 0
M  V30 3846 H 374.865 -0.631222 -0.380432 0
M  V30 3847 H 377.507 -1.87184 -0.325932 0
M  V30 3848 H 375.657 -2.90174 -2.58324 0
M  V30 3849 H 377.329 -4.5762 -0.581513 0
M  V30 3850 H 375.572 -4.31159 -0.477925 0
M  V30 3851 H 376.243 -5.20143 -1.84811 0
M  V30 3852 H 378.719 -3.36857 -2.44267 0
M  V30 3853 H 377.595 -4.16838 -3.57123 0
M  V30 3854 H 377.856 -2.43537 -3.68974 0
M  V30 3855 N 376.915 0.57481 -1.46744 0
M  V30 3856 C 377.862 1.68329 -1.57905 0
M  V30 3857 C 378.832 1.60625 -0.422927 0
M  V30 3858 O 380.017 1.79721 -0.640711 0
M  V30 3859 C 377.157 3.06665 -1.58274 0
M  V30 3860 C 376.27 3.24935 -2.84678 0
M  V30 3861 C 375.405 4.53566 -2.76499 0
M  V30 3862 C 374.444 4.65207 -3.97806 0
M  V30 3863 N 373.581 5.85172 -3.87967 0
M  V30 3864 H 378.421 1.58127 -2.52587 0
M  V30 3865 H 375.958 0.770552 -1.25303 0
M  V30 3866 H 377.916 3.86745 -1.56473 0
M  V30 3867 H 376.546 3.15745 -0.671194 0
M  V30 3868 H 375.598 2.38405 -2.96424 0
M  V30 3869 H 376.91 3.29403 -3.7456 0
M  V30 3870 H 376.064 5.41885 -2.72848 0
M  V30 3871 H 374.803 4.51548 -1.8427 0
M  V30 3872 H 373.808 3.75304 -4.0178 0
M  V30 3873 H 375.033 4.68997 -4.9114 0
M  V30 3874 H 372.979 5.84137 -2.98529 0
M  V30 3875 H 372.896 5.90943 -4.71511 0
M  V30 3876 H 374.164 6.759 -3.88303 0
M  V30 3877 N 378.394 1.34581 0.820102 0
M  V30 3878 C 379.357 1.2628 1.91275 0
M  V30 3879 C 380.357 0.177344 1.59819 0
M  V30 3880 O 381.547 0.430156 1.68806 0
M  V30 3881 C 378.679 0.950327 3.27386 0
M  V30 3882 H 379.872 2.23421 2.00057 0
M  V30 3883 H 377.425 1.1891 1.0144 0
M  V30 3884 H 378.16 -0.0177938 3.24295 0
M  V30 3885 H 377.945 1.73549 3.51601 0
M  V30 3886 H 379.435 0.917492 4.07396 0
M  V30 3887 N 379.872 -1.04064 1.18357 0
M  V30 3888 C 381.283 -1.58719 0.98312 0
M  V30 3889 C 381.634 -1.90556 -0.467193 0
M  V30 3890 O 380.759 -1.69561 -1.34454 0
M  V30 3891 C 381.354 -2.88379 1.77828 0
M  V30 3892 C 379.913 -3.3965 1.62218 0
M  V30 3893 C 379.06 -2.13235 1.77274 0
M  V30 3894 H 382.011 -0.867359 1.32901 0
M  V30 3895 H 382.032 -3.58773 1.26737 0
M  V30 3896 H 381.544 -2.65176 2.83379 0
M  V30 3897 H 379.645 -3.67866 0.592036 0
M  V30 3898 H 379.758 -4.13475 2.42023 0
M  V30 3899 H 378.122 -2.24542 1.20221 0
M  V30 3900 H 378.905 -1.92487 2.8426 0
M  V30 3901 N 381.35 -0.985608 -1.22978 0
M  V30 3902 C 382.575 -0.675254 -1.961 0
M  V30 3903 C 383 0.752154 -1.72407 0
M  V30 3904 O 382.358 1.5131 -0.998751 0
M  V30 3905 C 382.406 -0.977899 -3.47087 0
M  V30 3906 O 381.51 -0.072685 -4.12336 0
M  V30 3907 H 380.851 -0.253443 -0.613728 0
M  V30 3908 H 383.381 -1.32061 -1.56272 0
M  V30 3909 H 383.391 -0.916739 -3.97567 0
M  V30 3910 H 382.066 -2.01807 -3.63657 0
M  V30 3911 H 380.643 -0.188703 -3.72422 0
M  V30 3912 N 382.828 1.3818 -0.7579 0
M  V30 3913 C 384.074 2.0078 -0.325423 0
M  V30 3914 C 384.429 1.59085 1.08211 0
M  V30 3915 O 383.722 0.820394 1.73148 0
M  V30 3916 C 383.916 3.55252 -0.391218 0
M  V30 3917 C 383.745 4.11947 -1.8036 0
M  V30 3918 C 382.515 4.43519 -2.42113 0
M  V30 3919 C 384.713 4.33908 -2.76095 0
M  V30 3920 N 382.695 4.85847 -3.75267 0
M  V30 3921 C 384.066 4.78692 -3.94023 0
M  V30 3922 C 386.121 4.16015 -2.73561 0
M  V30 3923 C 384.824 5.07459 -5.09782 0
M  V30 3924 C 386.85 4.45909 -3.88483 0
M  V30 3925 C 386.212 4.90921 -5.0515 0
M  V30 3926 H 382.311 0.764215 -0.165831 0
M  V30 3927 H 384.895 1.67724 -0.988776 0
M  V30 3928 H 383.066 3.87646 0.241886 0
M  V30 3929 H 384.798 4.04653 0.061989 0
M  V30 3930 H 381.553 4.32113 -1.93842 0
M  V30 3931 H 381.977 5.11339 -4.4369 0
M  V30 3932 H 386.619 3.80399 -1.84544 0
M  V30 3933 H 384.337 5.4197 -5.99412 0
M  V30 3934 H 387.923 4.33666 -3.87847 0
M  V30 3935 H 386.803 5.1361 -5.92599 0
M  V30 3936 N 384.306 0.507319 1.49211 0
M  V30 3937 C 385.717 0.0611118 1.866 0
M  V30 3938 C 386.068 -1.35488 1.41907 0
M  V30 3939 O 385.193 -2.0108 0.799726 0
M  V30 3940 C 385.788 0.104125 3.3864 0
M  V30 3941 C 384.347 -0.28677 3.75306 0
M  V30 3942 C 383.494 0.473893 2.73221 0
M  V30 3943 H 386.445 0.719775 1.41439 0
M  V30 3944 H 386.466 -0.689672 3.74198 0
M  V30 3945 H 385.978 1.13482 3.71138 0
M  V30 3946 H 384.079 -1.32046 3.48417 0
M  V30 3947 H 384.192 0.0370745 4.79086 0
M  V30 3948 H 382.556 -0.0770644 2.54583 0
M  V30 3949 H 383.339 1.50478 3.08563 0
M  V30 3950 N 385.784 -1.5574 0.241426 0
M  V30 3951 C 387.061 -1.90704 -0.434881 0
M  V30 3952 C 387.441 -1.16145 -1.76277 0
M  V30 3953 O 386.789 -0.277152 -2.26813 0
M  V30 3954 C 386.999 -3.43657 -0.608343 0
M  V30 3955 C 388.347 -4.14806 -0.906725 0
M  V30 3956 O 389.371 -3.49366 -0.694408 0
M  V30 3957 O 388.23 -5.30548 -1.31075 0
M  V30 3958 H 385.324 -0.793592 -0.23268 0
M  V30 3959 H 387.87 -1.67288 0.285086 0
M  V30 3960 H 386.642 -3.89927 0.327505 0
M  V30 3961 H 386.265 -3.72918 -1.37906 0
M  V30 3962 N 387.262 0.0317525 -1.57568 0
M  V30 3963 C 388.539 0.758366 -1.803 0
M  V30 3964 C 388.919 1.93718 -0.838845 0
M  V30 3965 O 388.267 2.28187 0.119571 0
M  V30 3966 C 388.477 1.19392 -3.27943 0
M  V30 3967 C 389.825 1.61094 -3.92854 0
M  V30 3968 O 390.849 1.28857 -3.32076 0
M  V30 3969 O 389.708 2.20918 -4.99858 0
M  V30 3970 H 386.802 0.366514 -0.741348 0
M  V30 3971 H 389.348 0.00873765 -1.69698 0
M  V30 3972 H 388.12 0.352275 -3.89711 0
M  V30 3973 H 387.743 2.00365 -3.43424 0
M  V30 3974 N 388.74 1.54641 0.303973 0
M  V30 3975 C 390.156 1.45788 0.649463 0
M  V30 3976 C 390.356 0.64666 1.90842 0
M  V30 3977 O 389.412 0.153183 2.52035 0
M  V30 3978 C 390.725 2.89718 0.805227 0
M  V30 3979 C 392.273 2.99742 0.901305 0
M  V30 3980 C 392.748 4.44863 1.08909 0
M  V30 3981 N 394.239 4.48559 1.15536 0
M  V30 3982 C 394.974 5.58026 1.3189 0
M  V30 3983 N 394.47 6.77422 1.45161 0
M  V30 3984 N 396.263 5.45708 1.34755 0
M  V30 3985 H 388.414 2.05854 -0.523237 0
M  V30 3986 H 390.677 0.932186 -0.172431 0
M  V30 3987 H 390.383 3.51666 -0.0489108 0
M  V30 3988 H 390.257 3.36964 1.69513 0
M  V30 3989 H 392.644 2.3791 1.74593 0
M  V30 3990 H 392.725 2.55797 -0.0125531 0
M  V30 3991 H 392.369 5.07288 0.249241 0
M  V30 3992 H 392.299 4.86436 2.01713 0
M  V30 3993 H 394.79 3.6254 1.06646 0
M  V30 3994 H 395.103 7.56604 1.57387 0
M  V30 3995 H 393.448 6.80292 1.42223 0
M  V30 3996 H 396.639 4.51378 1.23996 0
M  V30 3997 H 396.812 6.3107 1.47157 0
M  V30 3998 N 390.218 -0.567019 1.47046 0
M  V30 3999 C 391.166 -1.69593 1.59188 0
M  V30 4000 C 392.16 -1.63046 0.459609 0
M  V30 4001 O 393.366 -1.6835 0.637058 0
M  V30 4002 H 389.741 -0.560993 0.500791 0
M  V30 4003 H 391.712 -1.56488 2.54075 0
M  V30 4004 C 390.461 -3.07964 1.61411 0
M  V30 4005 H 389.784 -3.13679 2.47881 0
M  V30 4006 H 391.224 -3.86671 1.73958 0
M  V30 4007 C 389.683 -3.35123 0.34559 0
M  V30 4008 O 390.213 -3.97812 -0.557521 0
M  V30 4009 N 388.419 -2.89699 0.22864 0
M  V30 4010 H 387.966 -2.38863 0.964479 0
M  V30 4011 H 387.924 -3.08242 -0.619192 0
M  V30 4012 N 391.696 -1.35014 -0.812953 0
M  V30 4013 C 392.921 -1.31187 -1.60639 0
M  V30 4014 C 393.346 0.109382 -1.87782 0
M  V30 4015 O 392.704 1.07424 -1.46047 0
M  V30 4016 C 392.752 -2.11809 -2.91838 0
M  V30 4017 O 391.856 -1.49444 -3.8437 0
M  V30 4018 H 391.197 -0.450084 -0.488181 0
M  V30 4019 H 393.727 -1.77963 -1.00947 0
M  V30 4020 H 393.737 -2.23531 -3.41318 0
M  V30 4021 H 392.412 -3.15137 -2.71407 0
M  V30 4022 H 390.989 -1.46524 -3.42907 0
M  V30 4023 N 393.175 1.03435 -1.18907 0
M  V30 4024 C 394.586 1.58195 -0.991523 0
M  V30 4025 C 394.937 1.90801 0.457081 0
M  V30 4026 O 394.062 1.70272 1.33553 0
M  V30 4027 C 394.657 2.87432 -1.79355 0
M  V30 4028 C 393.216 3.38785 -1.64017 0
M  V30 4029 C 392.363 2.12292 -1.78402 0
M  V30 4030 H 395.314 0.860299 -1.33359 0
M  V30 4031 H 395.335 3.58096 -1.28638 0
M  V30 4032 H 394.847 2.63669 -2.84781 0
M  V30 4033 H 392.948 3.67547 -0.611536 0
M  V30 4034 H 393.061 4.12186 -2.44212 0
M  V30 4035 H 391.425 2.23901 -1.2141 0
M  V30 4036 H 392.208 1.90977 -2.85277 0
M  V30 4037 N 394.653 0.992116 1.22453 0
M  V30 4038 C 395.881 0.685944 1.95198 0
M  V30 4039 C 396.296 -0.749233 1.73297 0
M  V30 4040 O 395.653 -1.50549 1.03156 0
M  V30 4041 C 395.704 0.981395 3.47924 0
M  V30 4042 O 395.425 2.36018 3.6909 0
M  V30 4043 C 396.926 0.692815 4.37853 0
M  V30 4044 H 394.146 0.253821 0.621141 0
M  V30 4045 H 396.69 1.32668 1.55626 0
M  V30 4046 H 394.845 0.386481 3.85467 0
M  V30 4047 H 395.259 2.45884 4.63294 0
M  V30 4048 H 396.733 0.949818 5.43767 0
M  V30 4049 H 397.21 -0.373181 4.37612 0
M  V30 4050 H 397.816 1.26874 4.05935 0
M  V30 4051 N 396.131 -1.37776 0.765217 0
M  V30 4052 C 397.379 -1.99454 0.325943 0
M  V30 4053 C 397.7 -1.61049 -1.09947 0
M  V30 4054 O 396.97 -0.872821 -1.75381 0
M  V30 4055 H 395.55 -0.737697 0.117525 0
M  V30 4056 H 398.212 -1.68359 0.981895 0
M  V30 4057 H 397.308 -3.09547 0.398353 0
M  V30 4058 N 397.609 -0.515225 -1.4894 0
M  V30 4059 C 398.556 0.255567 -2.29381 0
M  V30 4060 C 399.526 0.947387 -1.36432 0
M  V30 4061 O 400.711 0.951288 -1.65394 0
M  V30 4062 C 397.851 1.30551 -3.19453 0
M  V30 4063 C 396.964 0.624029 -4.27469 0
M  V30 4064 C 396.099 1.65563 -5.0474 0
M  V30 4065 C 395.138 0.956802 -6.04576 0
M  V30 4066 N 394.275 1.93326 -6.74959 0
M  V30 4067 H 399.115 -0.436607 -2.94784 0
M  V30 4068 H 396.652 -0.227154 -1.45336 0
M  V30 4069 H 398.61 1.92639 -3.70062 0
M  V30 4070 H 397.24 1.96626 -2.56004 0
M  V30 4071 H 396.292 -0.110459 -3.8024 0
M  V30 4072 H 397.604 0.0746092 -4.98744 0
M  V30 4073 H 396.758 2.35119 -5.59289 0
M  V30 4074 H 395.497 2.23893 -4.3327 0
M  V30 4075 H 394.502 0.247097 -5.49244 0
M  V30 4076 H 395.727 0.379814 -6.78037 0
M  V30 4077 H 393.673 2.50591 -6.06251 0
M  V30 4078 H 393.59 1.43489 -7.42258 0
M  V30 4079 H 394.858 2.62126 -7.34105 0
M  V30 4080 N 399.087 1.5561 -0.249682 0
M  V30 4081 C 400.333 1.99306 0.374841 0
M  V30 4082 C 400.666 1.13767 1.57387 0
M  V30 4083 O 399.941 0.201711 1.93451 0
M  V30 4084 C 400.224 3.51507 0.781986 0
M  V30 4085 C 400.077 4.4781 -0.422629 0
M  V30 4086 C 401.396 4.08884 1.62793 0
M  V30 4087 H 398.515 0.724572 0.134773 0
M  V30 4088 H 401.157 1.86719 -0.351549 0
M  V30 4089 H 399.307 3.62363 1.4009 0
M  V30 4090 H 400.979 4.48931 -1.06108 0
M  V30 4091 H 399.222 4.20518 -1.06524 0
M  V30 4092 H 399.893 5.51919 -0.0943766 0
M  V30 4093 H 402.369 4.01147 1.10547 0
M  V30 4094 H 401.245 5.1564 1.88166 0
M  V30 4095 H 401.506 3.57515 2.60068 0
M  V30 4096 N 400.565 -0.0233959 1.57583 0
M  V30 4097 C 401.475 -1.03907 2.10334 0
M  V30 4098 C 402.491 -1.39257 1.04323 0
M  V30 4099 O 403.667 -1.48462 1.36091 0
M  V30 4100 C 400.732 -2.31938 2.57693 0
M  V30 4101 C 399.793 -2.03117 3.78209 0
M  V30 4102 C 399.026 -3.25043 4.233 0
M  V30 4103 O 399.249 -4.35916 3.67876 0
M  V30 4104 O 398.183 -3.10411 5.15683 0
M  V30 4105 H 402.009 -0.620748 2.97288 0
M  V30 4106 H 399.594 -0.240743 1.47448 0
M  V30 4107 H 401.476 -3.07196 2.88458 0
M  V30 4108 H 400.151 -2.73055 1.73847 0
M  V30 4109 H 399.058 -1.25408 3.52454 0
M  V30 4110 H 400.391 -1.66852 4.63056 0
M  V30 4111 N 402.043 -1.548 -0.295768 0
M  V30 4112 C 403.268 -1.78653 -1.05346 0
M  V30 4113 C 403.693 -0.546894 -1.79974 0
M  V30 4114 O 403.051 0.502763 -1.7419 0
M  V30 4115 C 403.099 -2.99679 -2.00561 0
M  V30 4116 O 402.203 -2.7317 -3.08953 0
M  V30 4117 H 401.544 -0.59116 -0.302367 0
M  V30 4118 H 404.074 -2.01895 -0.331598 0
M  V30 4119 H 404.084 -3.27793 -2.42932 0
M  V30 4120 H 402.759 -3.89562 -1.4565 0
M  V30 4121 H 401.336 -2.56089 -2.71059 0
M  V30 4122 N 403.521 0.559213 -1.47345 0
M  V30 4123 C 404.767 1.31614 -1.55079 0
M  V30 4124 C 405.122 1.91257 -0.209422 0
M  V30 4125 O 404.415 1.74796 0.784656 0
M  V30 4126 C 404.609 2.44853 -2.6035 0
M  V30 4127 C 404.438 1.96305 -4.04591 0
M  V30 4128 C 403.208 1.8024 -4.72061 0
M  V30 4129 C 405.406 1.50872 -4.91673 0
M  V30 4130 N 403.388 1.26011 -6.00828 0
M  V30 4131 C 404.759 1.08395 -6.10451 0
M  V30 4132 C 406.814 1.38905 -4.78132 0
M  V30 4133 C 405.517 0.551399 -7.17183 0
M  V30 4134 C 407.543 0.870518 -5.84958 0
M  V30 4135 C 406.905 0.455661 -7.02925 0
M  V30 4136 H 403.004 0.473712 -0.62219 0
M  V30 4137 H 405.588 0.634103 -1.84085 0
M  V30 4138 H 403.759 3.10589 -2.33215 0
M  V30 4139 H 405.491 3.11849 -2.57938 0
M  V30 4140 H 402.246 2.02895 -4.27937 0
M  V30 4141 H 402.67 1.00991 -6.69425 0
M  V30 4142 H 407.312 1.69591 -3.87297 0
M  V30 4143 H 405.03 0.232159 -8.07766 0
M  V30 4144 H 408.616 0.781507 -5.76527 0
M  V30 4145 H 407.496 0.0606414 -7.84177 0
M  V30 4146 N 404.999 1.35443 0.805782 0
M  V30 4147 C 406.224 1.32037 1.59941 0
M  V30 4148 C 406.649 -0.0994215 1.87837 0
M  V30 4149 O 406.007 -1.06648 1.46615 0
M  V30 4150 C 406.055 2.13354 2.90711 0
M  V30 4151 O 405.159 1.5148 3.83572 0
M  V30 4152 H 404.5 0.452666 0.485787 0
M  V30 4153 H 407.03 1.78496 1.00002 0
M  V30 4154 H 407.04 2.25338 3.40128 0
M  V30 4155 H 405.715 3.16572 2.69732 0
M  V30 4156 H 404.292 1.4834 3.42125 0
M  V30 4157 N 406.477 -1.02803 1.19454 0
M  V30 4158 C 407.427 -2.0945 0.900827 0
M  V30 4159 C 408.411 -1.60335 -0.134715 0
M  V30 4160 O 409.603 -1.76857 0.0710924 0
M  V30 4161 C 406.732 -3.4044 0.442229 0
M  V30 4162 C 405.818 -3.96286 1.51056 0
M  V30 4163 N 406.209 -4.25785 2.73021 0
M  V30 4164 C 404.507 -4.24307 1.37404 0
M  V30 4165 C 405.208 -4.70654 3.41848 0
M  V30 4166 N 404.184 -4.72238 2.69243 0
M  V30 4167 H 407.986 -2.3015 1.82779 0
M  V30 4168 H 405.5 -1.20672 1.08683 0
M  V30 4169 H 407.497 -4.16354 0.21326 0
M  V30 4170 H 406.157 -3.21159 -0.478238 0
M  V30 4171 H 407.168 -4.15041 3.09776 0
M  V30 4172 H 403.845 -4.14285 0.517103 0
M  V30 4173 H 405.235 -5.02392 4.46152 0
M  V30 4174 N 407.956 -0.998596 -1.21925 0
M  V30 4175 C 409.204 -0.676325 -1.90448 0
M  V30 4176 C 409.525 0.794719 -1.78071 0
M  V30 4177 O 408.795 1.5701 -1.17152 0
M  V30 4178 H 407.375 -0.247165 -0.704925 0
M  V30 4179 H 410.037 -1.26633 -1.48156 0
M  V30 4180 H 409.133 -0.943858 -2.97486 0
M  V30 4181 N 409.434 1.37368 -0.772513 0
M  V30 4182 C 410.682 1.99279 -0.336516 0
M  V30 4183 C 411.003 1.6163 1.09091 0
M  V30 4184 O 410.273 0.882109 1.74916 0
M  V30 4185 H 408.853 0.737063 -0.121435 0
M  V30 4186 H 411.515 1.67836 -0.990809 0
M  V30 4187 H 410.611 3.09332 -0.414763 0
M  V30 4188 N 410.912 0.523116 1.48665 0
M  V30 4189 C 412.16 -0.0134497 2.02096 0
M  V30 4190 C 412.481 -1.35418 1.40311 0
M  V30 4191 O 411.751 -1.87543 0.566074 0
M  V30 4192 H 410.331 -0.00795915 0.746958 0
M  V30 4193 H 412.993 0.685388 1.82451 0
M  V30 4194 H 412.089 -0.126849 3.11842 0
M  V30 4195 N 412.39 -1.55475 0.257931 0
M  V30 4196 C 413.353 -2.20551 -0.623706 0
M  V30 4197 C 414.353 -1.17809 -1.09443 0
M  V30 4198 O 415.543 -1.42823 -0.997362 0
M  V30 4199 C 412.675 -2.85784 -1.8585 0
M  V30 4200 H 413.868 -2.99848 -0.0557743 0
M  V30 4201 H 411.421 -1.56298 0.0084422 0
M  V30 4202 H 412.156 -2.10453 -2.46739 0
M  V30 4203 H 411.941 -3.61057 -1.52907 0
M  V30 4204 H 413.431 -3.35553 -2.48584 0
M  V30 4205 N 413.868 0.0150385 -1.57593 0
M  V30 4206 C 415.279 0.559832 -1.78109 0
M  V30 4207 C 415.63 1.74814 -0.890756 0
M  V30 4208 O 414.755 2.16216 -0.0892482 0
M  V30 4209 C 415.35 1.02238 -3.23006 0
M  V30 4210 C 413.909 1.51258 -3.44671 0
M  V30 4211 C 413.056 0.456955 -2.73509 0
M  V30 4212 H 416.007 -0.211169 -1.57289 0
M  V30 4213 H 416.028 1.88912 -3.30292 0
M  V30 4214 H 415.54 0.157302 -3.87781 0
M  V30 4215 H 413.641 2.39905 -2.8509 0
M  V30 4216 H 413.754 1.55042 -4.5332 0
M  V30 4217 H 412.118 0.915196 -2.37689 0
M  V30 4218 H 412.901 -0.398896 -3.40975 0
M  V30 4219 N 415.346 1.54954 0.287554 0
M  V30 4220 C 416.592 1.76059 1.01856 0
M  V30 4221 C 416.947 0.547056 1.84459 0
M  V30 4222 O 416.24 -0.460442 1.85985 0
M  V30 4223 C 416.434 2.99833 1.94512 0
M  V30 4224 C 416.263 4.33108 1.21026 0
M  V30 4225 C 415.033 4.96632 0.931896 0
M  V30 4226 C 417.231 5.10694 0.607949 0
M  V30 4227 N 415.213 6.13668 0.168716 0
M  V30 4228 C 416.584 6.19996 -0.0217865 0
M  V30 4229 C 418.639 4.95236 0.514338 0
M  V30 4230 C 417.342 7.15524 -0.736092 0
M  V30 4231 C 419.368 5.91106 -0.186343 0
M  V30 4232 C 418.73 6.99786 -0.804875 0
M  V30 4233 H 414.829 0.696679 0.355193 0
M  V30 4234 H 417.413 1.92441 0.295741 0
M  V30 4235 H 415.584 2.84853 2.64033 0
M  V30 4236 H 417.316 3.09405 2.60865 0
M  V30 4237 H 414.071 4.57255 1.23348 0
M  V30 4238 H 414.495 6.76705 -0.199781 0
M  V30 4239 H 419.137 4.11328 0.978234 0
M  V30 4240 H 416.855 7.98964 -1.21172 0
M  V30 4241 H 420.441 5.81224 -0.258897 0
M  V30 4242 H 419.321 7.72694 -1.33843 0
M  V30 4243 N 416.824 -0.551391 1.4764 0
M  V30 4244 C 417.756 -1.67333 1.56628 0
M  V30 4245 C 418.769 -1.56398 0.452045 0
M  V30 4246 O 419.958 -1.6325 0.721926 0
M  V30 4247 C 417.058 -3.05841 1.45994 0
M  V30 4248 C 416.231 -3.42472 2.72088 0
M  V30 4249 C 415.29 -4.60168 2.55209 0
M  V30 4250 O 414.316 -4.64458 3.2904 0
M  V30 4251 N 415.518 -5.57024 1.63416 0
M  V30 4252 H 418.283 -1.60066 2.53375 0
M  V30 4253 H 415.844 -0.738169 1.44093 0
M  V30 4254 H 417.836 -3.8242 1.32428 0
M  V30 4255 H 416.406 -3.07302 0.573071 0
M  V30 4256 H 415.626 -2.55284 3.00373 0
M  V30 4257 H 416.914 -3.63723 3.55785 0
M  V30 4258 H 416.312 -5.56319 1.02594 0
M  V30 4259 H 414.869 -6.32906 1.558 0
M  V30 4260 N 418.302 -1.35869 -0.798587 0
M  V30 4261 C 419.527 -1.32883 -1.59238 0
M  V30 4262 C 419.952 0.0894587 -1.87887 0
M  V30 4263 O 419.31 1.05869 -1.47178 0
M  V30 4264 C 419.358 -2.14892 -2.89575 0
M  V30 4265 O 418.462 -1.53512 -3.82763 0
M  V30 4266 H 417.803 -0.455236 -0.48338 0
M  V30 4267 H 420.333 -1.79024 -0.990539 0
M  V30 4268 H 420.343 -2.27139 -3.38928 0
M  V30 4269 H 419.018 -3.17998 -2.68049 0
M  V30 4270 H 417.595 -1.50153 -3.41334 0
M  V30 4271 N 419.78 1.02168 -1.19998 0
M  V30 4272 C 420.743 2.08765 -0.94604 0
M  V30 4273 C 421.743 1.60618 0.0763846 0
M  V30 4274 O 422.933 1.73472 -0.159135 0
M  V30 4275 C 420.065 3.38262 -0.423255 0
M  V30 4276 H 421.258 2.32726 -1.89153 0
M  V30 4277 H 418.811 1.1889 -1.01464 0
M  V30 4278 H 419.546 3.19974 0.527938 0
M  V30 4279 H 419.331 3.74532 -1.16053 0
M  V30 4280 H 420.821 4.16759 -0.264911 0
M  V30 4281 N 421.258 1.00505 1.21394 0
M  V30 4282 C 422.483 0.706367 1.95001 0
M  V30 4283 C 422.908 -0.72463 1.73582 0
M  V30 4284 O 422.266 -1.49702 1.0227 0
M  V30 4285 C 422.314 1.03299 3.45487 0
M  V30 4286 O 421.418 0.138275 4.12168 0
M  V30 4287 H 420.759 0.263175 0.609619 0
M  V30 4288 H 423.289 1.34531 1.54151 0
M  V30 4289 H 423.299 0.979872 3.96059 0
M  V30 4290 H 421.974 2.07567 3.60401 0
M  V30 4291 H 420.551 0.247928 3.72075 0
M  V30 4292 N 422.737 -1.36956 0.779787 0
M  V30 4293 C 423.984 -1.99491 0.347766 0
M  V30 4294 C 424.312 -1.61898 -1.07793 0
M  V30 4295 O 423.567 -0.86071 -1.75756 0
M  V30 4296 C 423.866 -3.54585 0.447686 0
M  V30 4297 C 423.532 -4.1197 1.83279 0
M  V30 4298 C 422.194 -4.27356 2.2118 0
M  V30 4299 C 424.546 -4.43354 2.74019 0
M  V30 4300 C 421.874 -4.71432 3.4924 0
M  V30 4301 C 424.226 -4.88858 4.01497 0
M  V30 4302 C 422.89 -5.0245 4.39432 0
M  V30 4303 H 422.16 -0.729991 0.127257 0
M  V30 4304 H 424.807 -1.63599 0.995376 0
M  V30 4305 H 423.112 -3.90773 -0.283447 0
M  V30 4306 H 424.809 -4.00888 0.0945948 0
M  V30 4307 H 421.399 -4.00428 1.52825 0
M  V30 4308 H 425.583 -4.31045 2.45995 0
M  V30 4309 H 420.839 -4.80141 3.78516 0
M  V30 4310 H 425.013 -5.12108 4.71931 0
M  V30 4311 H 422.64 -5.36362 5.38721 0
M  V30 4312 N 424.215 -0.530993 -1.48385 0
M  V30 4313 C 425.492 0.0671788 -1.95485 0
M  V30 4314 C 425.872 1.51191 -1.47324 0
M  V30 4315 O 425.22 2.17507 -0.700202 0
M  V30 4316 C 425.43 -0.0511206 -3.48963 0
M  V30 4317 C 426.778 0.107632 -4.24464 0
M  V30 4318 O 427.802 0.0226248 -3.56193 0
M  V30 4319 O 426.661 0.285972 -5.45751 0
M  V30 4320 H 423.755 0.0787365 -0.823243 0
M  V30 4321 H 426.301 -0.595662 -1.58902 0
M  V30 4322 H 425.073 -1.05747 -3.7674 0
M  V30 4323 H 424.696 0.650525 -3.92242 0
M  V30 4324 N 425.693 1.55336 -0.266172 0
M  V30 4325 C 426.656 2.20878 0.612001 0
M  V30 4326 C 427.656 1.18388 1.08816 0
M  V30 4327 O 428.846 1.4335 0.989774 0
M  V30 4328 C 425.978 2.86765 1.84332 0
M  V30 4329 H 427.171 2.99873 0.0398718 0
M  V30 4330 H 424.724 1.56291 -0.0167309 0
M  V30 4331 H 425.459 2.11759 2.45619 0
M  V30 4332 H 425.244 3.61862 1.5099 0
M  V30 4333 H 426.734 3.36867 2.46801 0
M  V30 4334 N 427.171 -0.0066808 1.57599 0
M  V30 4335 C 428.081 -1.01671 2.11424 0
M  V30 4336 C 429.097 -1.38143 1.05795 0
M  V30 4337 O 430.273 -1.47011 1.37658 0
M  V30 4338 C 427.338 -2.29192 2.60139 0
M  V30 4339 C 426.399 -1.99094 3.80342 0
M  V30 4340 C 425.632 -3.20535 4.26724 0
M  V30 4341 O 425.855 -4.3199 3.72479 0
M  V30 4342 O 424.789 -3.04924 5.18946 0
M  V30 4343 H 428.615 -0.589181 2.9793 0
M  V30 4344 H 426.2 -0.225091 1.47695 0
M  V30 4345 H 428.082 -3.0412 2.917 0
M  V30 4346 H 426.757 -2.71195 1.76733 0
M  V30 4347 H 425.664 -1.21663 3.53764 0
M  V30 4348 H 426.997 -1.61931 4.648 0
M  V30 4349 N 428.649 -1.55105 -0.279332 0
M  V30 4350 C 429.877 -1.7943 -1.03017 0
M  V30 4351 C 430.292 -0.564456 -1.80165 0
M  V30 4352 O 429.649 0.466326 -1.76442 0
M  V30 4353 C 429.7 -3.0155 -1.99374 0
M  V30 4354 O 429.421 -4.19784 -1.25352 0
M  V30 4355 C 430.922 -3.3843 -2.86321 0
M  V30 4356 H 428.142 -0.597882 -0.304594 0
M  V30 4357 H 430.686 -2.02105 -0.312035 0
M  V30 4358 H 428.841 -2.81019 -2.66659 0
M  V30 4359 H 429.255 -4.88781 -1.90246 0
M  V30 4360 H 430.729 -4.27066 -3.49741 0
M  V30 4361 H 431.206 -2.57549 -3.5576 0
M  V30 4362 H 431.812 -3.61197 -2.24536 0
M  V30 4363 N 430.127 0.543554 -1.4793 0
M  V30 4364 C 431.075 1.67039 -1.61866 0
M  V30 4365 C 432.069 1.62294 -0.48549 0
M  V30 4366 O 433.275 1.67315 -0.66376 0
M  V30 4367 H 429.65 0.552954 -0.509652 0
M  V30 4368 H 431.621 1.52426 -2.56533 0
M  V30 4369 C 430.37 3.05357 -1.6629 0
M  V30 4370 H 429.693 3.09696 -2.5284 0
M  V30 4371 H 431.133 3.83855 -1.80088 0
M  V30 4372 C 429.592 3.34531 -0.398861 0
M  V30 4373 O 430.122 3.98649 0.494162 0
M  V30 4374 N 428.328 2.89299 -0.2747 0
M  V30 4375 H 427.875 2.37298 -1.00236 0
M  V30 4376 H 427.833 3.09188 0.570075 0
M  V30 4377 N 431.605 1.3629 0.791371 0
M  V30 4378 C 432.833 1.33562 1.58016 0
M  V30 4379 C 433.248 -0.0835616 1.88615 0
M  V30 4380 O 432.605 -1.0399 1.49974 0
M  V30 4381 C 432.656 2.15517 2.90232 0
M  V30 4382 O 432.377 3.51902 2.60953 0
M  V30 4383 C 433.878 2.20546 3.84544 0
M  V30 4384 H 431.098 0.458226 0.490173 0
M  V30 4385 H 433.642 1.79361 0.982345 0
M  V30 4386 H 431.797 1.73278 3.46487 0
M  V30 4387 H 432.211 3.94644 3.4548 0
M  V30 4388 H 433.685 2.82252 4.74382 0
M  V30 4389 H 434.162 1.20838 4.2225 0
M  V30 4390 H 434.768 2.63013 3.34222 0
M  V30 4391 N 433.083 -1.0153 1.20538 0
M  V30 4392 C 434.332 -1.74558 1.01057 0
M  V30 4393 C 434.645 -1.90168 -0.457756 0
M  V30 4394 O 435.851 -2.60301 -0.771722 0
M  V30 4395 C 434.307 -3.13963 1.75941 0
M  V30 4396 C 433.915 -3.06361 3.26875 0
M  V30 4397 C 435.659 -3.91191 1.64832 0
M  V30 4398 C 433.566 -4.40782 3.94291 0
M  V30 4399 H 432.496 -0.654417 0.374505 0
M  V30 4400 H 435.147 -1.13521 1.44171 0
M  V30 4401 H 433.529 -3.75549 1.25614 0
M  V30 4402 H 434.703 -2.54074 3.84425 0
M  V30 4403 H 433.018 -2.42625 3.38411 0
M  V30 4404 H 435.615 -4.90644 2.12539 0
M  V30 4405 H 435.958 -4.11884 0.604745 0
M  V30 4406 H 436.491 -3.36236 2.12579 0
M  V30 4407 H 433.23 -4.25292 4.98805 0
M  V30 4408 H 432.75 -4.9307 3.41529 0
M  V30 4409 H 434.429 -5.09621 3.98617 0
M  V30 4410 N 434.561 -1.01147 -1.20859 0
M  V30 4411 C 435.81 -0.693214 -1.89413 0
M  V30 4412 C 436.123 0.779969 -1.79376 0
M  V30 4413 O 437.329 1.21057 -2.43017 0
M  V30 4414 C 435.785 -1.18949 -3.39675 0
M  V30 4415 C 435.393 -2.68921 -3.58309 0
M  V30 4416 C 437.137 -0.94642 -4.13815 0
M  V30 4417 C 435.044 -3.12056 -5.0237 0
M  V30 4418 H 433.974 -0.255595 -0.709357 0
M  V30 4419 H 436.625 -1.22349 -1.36759 0
M  V30 4420 H 435.007 -0.587228 -3.91622 0
M  V30 4421 H 436.181 -3.34652 -3.16772 0
M  V30 4422 H 434.496 -2.91314 -2.97532 0
M  V30 4423 H 437.093 -1.24417 -5.20023 0
M  V30 4424 H 437.436 0.117219 -4.16135 0
M  V30 4425 H 437.969 -1.5118 -3.67953 0
M  V30 4426 H 434.708 -4.17674 -5.05202 0
M  V30 4427 H 434.228 -2.51041 -5.44737 0
M  V30 4428 H 435.907 -3.04403 -5.70918 0
M  V30 4429 N 436.039 1.36541 -0.78704 0
M  V30 4430 C 437.285 1.99599 -0.358872 0
M  V30 4431 C 437.618 1.62323 1.06606 0
M  V30 4432 O 436.893 0.876858 1.73613 0
M  V30 4433 C 437.176 3.56327 -0.519944 0
M  V30 4434 C 437.029 4.03464 -1.98839 0
M  V30 4435 C 438.348 4.4005 0.0664737 0
M  V30 4436 H 435.467 0.725107 -0.131869 0
M  V30 4437 H 438.109 1.6199 -0.992936 0
M  V30 4438 H 436.259 3.88495 0.0198321 0
M  V30 4439 H 437.931 3.81793 -2.58905 0
M  V30 4440 H 436.174 3.55092 -2.49183 0
M  V30 4441 H 436.845 5.12439 -2.05207 0
M  V30 4442 H 439.321 4.14228 -0.394267 0
M  V30 4443 H 438.197 5.48847 -0.0762682 0
M  V30 4444 H 438.458 4.26655 1.15835 0
M  V30 4445 N 437.518 0.538854 1.48102 0
M  V30 4446 C 438.766 0.00798599 2.02098 0
M  V30 4447 C 439.087 -1.33922 1.41739 0
M  V30 4448 O 438.357 -1.86932 0.585934 0
M  V30 4449 H 436.937 -3.62179e-05 0.747 0
M  V30 4450 H 439.599 0.7047 1.81714 0
M  V30 4451 H 438.695 -0.0937672 3.11959 0
M  V30 4452 N 438.996 -1.55193 0.274407 0
M  V30 4453 C 439.959 -2.212 -0.600279 0
M  V30 4454 C 440.959 -1.18963 -1.08187 0
M  V30 4455 O 442.149 -1.43873 -0.982158 0
M  V30 4456 C 439.281 -2.87739 -1.82809 0
M  V30 4457 H 440.474 -2.9989 -0.0239682 0
M  V30 4458 H 438.027 -1.5628 0.0250192 0
M  V30 4459 H 438.762 -2.13058 -2.44493 0
M  V30 4460 H 438.547 -3.62658 -1.49069 0
M  V30 4461 H 440.037 -3.38171 -2.45011 0
M  V30 4462 N 440.474 -0.00167713 -1.576 0
M  V30 4463 C 441.722 0.681471 -1.90264 0
M  V30 4464 C 442.043 1.7422 -0.875924 0
M  V30 4465 O 441.313 1.95709 0.0864412 0
M  V30 4466 H 439.893 0.254696 -0.702239 0
M  V30 4467 H 442.555 -0.0429996 -1.94853 0
M  V30 4468 H 441.651 1.15166 -2.90075 0
M  V30 4469 N 441.952 1.55251 0.271103 0
M  V30 4470 C 442.9 1.89054 1.35504 0
M  V30 4471 C 443.894 0.767064 1.51038 0
M  V30 4472 O 445.1 0.951429 1.528 0
M  V30 4473 H 441.475 0.600072 0.45323 0
M  V30 4474 H 443.446 2.79598 1.04247 0
M  V30 4475 C 442.195 2.18068 2.70817 0
M  V30 4476 H 441.518 3.04005 2.59656 0
M  V30 4477 H 442.958 2.4564 3.45597 0
M  V30 4478 C 441.417 0.988901 3.2206 0
M  V30 4479 O 441.947 0.224501 4.01072 0
M  V30 4480 N 440.153 0.786085 2.79766 0
M  V30 4481 H 439.7 1.40937 2.15626 0
M  V30 4482 H 439.658 -0.00969349 3.14399 0
M  V30 4483 N 443.43 -0.535701 1.48216 0
M  V30 4484 C 444.841 -1.11769 1.49548 0
M  V30 4485 C 445.192 -1.94442 0.26207 0
M  V30 4486 O 444.317 -2.06987 -0.631287 0
M  V30 4487 C 444.912 -2.03367 2.70975 0
M  V30 4488 C 443.471 -2.56795 2.75196 0
M  V30 4489 C 442.618 -1.33631 2.42977 0
M  V30 4490 H 445.569 -0.321232 1.55415 0
M  V30 4491 H 445.59 -2.87569 2.49167 0
M  V30 4492 H 445.102 -1.43169 3.60727 0
M  V30 4493 H 443.203 -3.20731 1.89638 0
M  V30 4494 H 443.316 -2.9632 3.76472 0
M  V30 4495 H 441.68 -1.6502 1.94012 0
M  V30 4496 H 442.463 -0.75194 3.34964 0
M  V30 4497 N 444.908 -1.36708 -0.784132 0
M  V30 4498 C 446.156 -1.30972 -1.53918 0
M  V30 4499 C 446.477 0.109086 -1.94695 0
M  V30 4500 O 445.747 1.05048 -1.65353 0
M  V30 4501 H 444.327 -0.481819 -0.570841 0
M  V30 4502 H 446.989 -1.71063 -0.934002 0
M  V30 4503 H 446.085 -1.94061 -2.44431 0
M  V30 4504 N 446.386 1.0089 -1.21074 0
M  V30 4505 C 447.797 1.56056 -1.02486 0
M  V30 4506 C 448.148 1.91728 0.416506 0
M  V30 4507 O 447.273 1.73066 1.29912 0
M  V30 4508 C 447.868 2.83563 -1.85411 0
M  V30 4509 C 446.427 3.3523 -1.71166 0
M  V30 4510 C 445.574 2.0846 -1.82865 0
M  V30 4511 H 448.525 0.831818 -1.35154 0
M  V30 4512 H 448.546 3.55286 -1.36205 0
M  V30 4513 H 448.058 2.57569 -2.9031 0
M  V30 4514 H 446.159 3.66167 -0.689361 0
M  V30 4515 H 446.272 4.06913 -2.52901 0
M  V30 4516 H 444.636 2.21275 -1.26132 0
M  V30 4517 H 445.419 1.84883 -2.89263 0
M  V30 4518 N 447.864 1.01787 1.20321 0
M  V30 4519 C 449.11 0.718699 1.90279 0
M  V30 4520 C 449.465 -0.743669 1.77447 0
M  V30 4521 O 448.758 -1.53345 1.14874 0
M  V30 4522 C 448.952 1.09076 3.40349 0
M  V30 4523 C 448.781 2.58775 3.67784 0
M  V30 4524 C 447.551 3.25578 3.86428 0
M  V30 4525 C 449.749 3.56966 3.70243 0
M  V30 4526 N 447.731 4.64495 4.01395 0
M  V30 4527 C 449.102 4.8145 3.90649 0
M  V30 4528 C 451.157 3.5092 3.53213 0
M  V30 4529 C 449.86 6.00619 3.95789 0
M  V30 4530 C 451.886 4.69493 3.59625 0
M  V30 4531 C 451.248 5.92786 3.80505 0
M  V30 4532 H 447.347 0.31468 0.715891 0
M  V30 4533 H 449.931 1.30295 1.44677 0
M  V30 4534 H 448.102 0.534839 3.847 0
M  V30 4535 H 449.834 0.744997 3.97784 0
M  V30 4536 H 446.589 2.76003 3.84862 0
M  V30 4537 H 447.013 5.36624 4.12752 0
M  V30 4538 H 451.655 2.56593 3.36035 0
M  V30 4539 H 449.373 6.95326 4.11762 0
M  V30 4540 H 452.959 4.66432 3.47754 0
M  V30 4541 H 451.839 6.83003 3.85327 0
M  V30 4542 N 449.342 -1.36122 0.79427 0
M  V30 4543 C 450.29 -2.31871 0.184023 0
M  V30 4544 C 451.284 -1.56041 -0.659365 0
M  V30 4545 O 452.49 -1.71266 -0.553906 0
M  V30 4546 H 448.865 -0.750896 0.0407373 0
M  V30 4547 H 450.836 -2.80898 1.00693 0
M  V30 4548 C 449.585 -3.41324 -0.662813 0
M  V30 4549 H 448.908 -3.99793 -0.0231944 0
M  V30 4550 H 450.348 -4.10629 -1.05639 0
M  V30 4551 C 448.807 -2.83308 -1.82313 0
M  V30 4552 O 449.337 -2.75863 -2.91997 0
M  V30 4553 N 447.543 -2.40529 -1.63077 0
M  V30 4554 H 447.09 -2.46785 -0.738591 0
M  V30 4555 H 447.048 -2.02059 -2.40872 0
M  V30 4556 N 450.82 -0.546701 -1.47814 0
M  V30 4557 C 452.048 -0.0232857 -2.06887 0
M  V30 4558 C 452.463 1.26571 -1.4009 0
M  V30 4559 O 451.82 1.7569 -0.493906 0
M  V30 4560 C 451.871 0.186975 -3.61016 0
M  V30 4561 O 451.592 -1.05097 -4.25307 0
M  V30 4562 C 453.093 0.748872 -4.36929 0
M  V30 4563 H 450.313 -0.0410763 -0.669742 0
M  V30 4564 H 452.857 -0.757117 -1.89968 0
M  V30 4565 H 451.012 0.870903 -3.77484 0
M  V30 4566 H 451.426 -0.842121 -5.17695 0
M  V30 4567 H 452.9 0.845334 -5.45489 0
M  V30 4568 H 453.377 1.75772 -4.02493 0
M  V30 4569 H 453.983 0.100979 -4.2518 0
M  V30 4570 N 452.299 1.55045 -0.282633 0
M  V30 4571 C 453.545 2.0078 0.325436 0
M  V30 4572 C 453.9 1.1676 1.52921 0
M  V30 4573 O 453.193 0.231475 1.90197 0
M  V30 4574 C 453.387 3.49422 0.750938 0
M  V30 4575 C 453.216 4.47827 -0.410056 0
M  V30 4576 C 451.986 4.97288 -0.896239 0
M  V30 4577 C 454.184 4.98903 -1.24902 0
M  V30 4578 N 452.166 5.79508 -2.02591 0
M  V30 4579 C 453.537 5.78644 -2.22646 0
M  V30 4580 C 455.592 4.81126 -1.2815 0
M  V30 4581 C 454.295 6.42502 -3.23393 0
M  V30 4582 C 456.321 5.45789 -2.27745 0
M  V30 4583 C 455.683 6.25348 -3.24222 0
M  V30 4584 H 451.782 0.77747 0.08405 0
M  V30 4585 H 454.366 1.90369 -0.408368 0
M  V30 4586 H 452.537 3.60159 1.45395 0
M  V30 4587 H 454.269 3.81978 1.33698 0
M  V30 4588 H 451.024 4.71219 -0.474277 0
M  V30 4589 H 451.448 6.25308 -2.59459 0
M  V30 4590 H 456.09 4.19215 -0.549397 0
M  V30 4591 H 453.808 7.03558 -3.97533 0
M  V30 4592 H 457.394 5.33972 -2.31009 0
M  V30 4593 H 456.274 6.74498 -4.00027 0
M  V30 4594 N 453.777 0.010035 1.57597 0
M  V30 4595 C 454.74 -0.963029 2.07986 0
M  V30 4596 C 455.74 -1.26619 0.991173 0
M  V30 4597 O 456.93 -1.2097 1.25347 0
M  V30 4598 C 454.062 -2.2851 2.52974 0
M  V30 4599 H 455.255 -0.526971 2.95234 0
M  V30 4600 H 452.808 -0.237639 1.54483 0
M  V30 4601 H 453.543 -2.76784 1.69 0
M  V30 4602 H 453.328 -2.07824 3.32493 0
M  V30 4603 H 454.818 -2.98294 2.9225 0
M  V30 4604 N 455.255 -1.55392 -0.262866 0
M  V30 4605 C 456.671 -1.47459 -0.610582 0
M  V30 4606 C 456.871 -0.697031 -1.8906 0
M  V30 4607 O 455.927 -0.219952 -2.5154 0
M  V30 4608 C 457.24 -2.91751 -0.728131 0
M  V30 4609 C 458.788 -3.02027 -0.821517 0
M  V30 4610 C 459.263 -4.47594 -0.97076 0
M  V30 4611 N 460.754 -4.51465 -1.03603 0
M  V30 4612 C 461.489 -5.61326 -1.17049 0
M  V30 4613 N 460.985 -6.81032 -1.2715 0
M  V30 4614 N 462.778 -5.49089 -1.20239 0
M  V30 4615 H 454.929 -2.04395 0.577632 0
M  V30 4616 H 457.192 -0.927287 0.197086 0
M  V30 4617 H 456.898 -3.51413 0.142132 0
M  V30 4618 H 456.772 -3.4134 -1.6052 0
M  V30 4619 H 459.159 -2.42456 -1.68224 0
M  V30 4620 H 459.24 -2.55674 0.0803688 0
M  V30 4621 H 458.884 -5.07771 -0.114655 0
M  V30 4622 H 458.814 -4.91613 -1.88745 0
M  V30 4623 H 461.305 -3.6524 -0.96996 0
M  V30 4624 H 461.618 -7.60511 -1.37271 0
M  V30 4625 H 459.963 -6.83824 -1.24136 0
M  V30 4626 H 463.154 -4.54507 -1.11985 0
M  V30 4627 H 463.327 -6.34749 -1.30373 0
M  V30 4628 N 456.733 0.527833 -1.48498 0
M  V30 4629 C 457.961 1.30823 -1.6029 0
M  V30 4630 C 458.376 1.86945 -0.263974 0
M  V30 4631 O 457.733 1.6651 0.747034 0
M  V30 4632 C 457.784 2.45756 -2.65116 0
M  V30 4633 O 457.505 1.91946 -3.93813 0
M  V30 4634 C 459.006 3.37543 -2.87367 0
M  V30 4635 H 456.226 0.397763 -0.540394 0
M  V30 4636 H 458.77 0.636529 -1.94341 0
M  V30 4637 H 456.925 3.08806 -2.33917 0
M  V30 4638 H 457.339 2.67195 -4.51339 0
M  V30 4639 H 458.813 4.14532 -3.6451 0
M  V30 4640 H 459.29 3.92905 -1.9627 0
M  V30 4641 H 459.896 2.80283 -3.19878 0
M  V30 4642 N 458.211 1.37122 0.776871 0
M  V30 4643 C 459.174 1.32301 1.8716 0
M  V30 4644 C 460.174 0.228099 1.59174 0
M  V30 4645 O 461.364 0.483642 1.67352 0
M  V30 4646 C 458.496 1.054 3.24197 0
M  V30 4647 H 459.689 2.29673 1.92848 0
M  V30 4648 H 457.242 1.22077 0.97606 0
M  V30 4649 H 457.977 0.0853872 3.24188 0
M  V30 4650 H 457.762 1.84648 3.45901 0
M  V30 4651 H 459.252 1.04664 4.04271 0
M  V30 4652 N 459.689 -1.00246 1.21608 0
M  V30 4653 C 460.636 -2.09073 0.977613 0
M  V30 4654 C 461.606 -1.65815 -0.097297 0
M  V30 4655 O 462.791 -1.90734 0.0503445 0
M  V30 4656 C 459.931 -3.40671 0.551133 0
M  V30 4657 C 459.044 -3.97326 1.69576 0
M  V30 4658 C 458.179 -5.17043 1.2182 0
M  V30 4659 C 457.218 -5.65813 2.335 0
M  V30 4660 N 456.355 -6.76778 1.86859 0
M  V30 4661 H 461.195 -2.28806 1.90924 0
M  V30 4662 H 458.732 -1.12186 0.951452 0
M  V30 4663 H 460.69 -4.16225 0.285097 0
M  V30 4664 H 459.32 -3.20967 -0.343489 0
M  V30 4665 H 458.372 -3.18734 2.07637 0
M  V30 4666 H 459.684 -4.29511 2.53617 0
M  V30 4667 H 458.838 -5.99852 0.908975 0
M  V30 4668 H 457.577 -4.86458 0.347869 0
M  V30 4669 H 456.582 -4.81599 2.65222 0
M  V30 4670 H 457.807 -5.98427 3.21033 0
M  V30 4671 H 455.753 -6.47994 1.02174 0
M  V30 4672 H 455.67 -7.08231 2.64471 0
M  V30 4673 H 456.938 -7.63116 1.58978 0
M  V30 4674 N 461.167 -1.02423 -1.1978 0
M  V30 4675 C 462.415 -0.716569 -1.8897 0
M  V30 4676 C 462.736 0.756769 -1.79716 0
M  V30 4677 O 462.006 1.5449 -1.20456 0
M  V30 4678 H 460.586 -0.262062 -0.699523 0
M  V30 4679 H 463.248 -1.29747 -1.45436 0
M  V30 4680 H 462.344 -1.00675 -2.95417 0
M  V30 4681 N 462.645 1.35699 -0.801477 0
M  V30 4682 C 463.893 1.9852 -0.37871 0
M  V30 4683 C 464.214 1.63907 1.05638 0
M  V30 4684 O 463.484 0.919013 1.73006 0
M  V30 4685 H 462.064 0.734322 -0.137042 0
M  V30 4686 H 464.726 1.65697 -1.02619 0
M  V30 4687 H 463.822 3.08382 -0.480284 0
M  V30 4688 N 464.123 0.554532 1.47522 0
M  V30 4689 C 465.071 -0.207765 2.3167 0
M  V30 4690 C 466.065 -0.911914 1.4276 0
M  V30 4691 O 467.271 -0.833504 1.59539 0
M  V30 4692 H 463.646 -0.0858726 0.747081 0
M  V30 4693 H 465.617 0.521178 2.93813 0
M  V30 4694 C 464.366 -1.2263 3.25357 0
M  V30 4695 H 463.689 -0.693887 3.93732 0
M  V30 4696 H 465.129 -1.73062 3.87073 0
M  V30 4697 C 463.588 -2.27278 2.4869 0
M  V30 4698 O 464.118 -3.34156 2.22941 0
M  V30 4699 N 462.324 -2.01134 2.09746 0
M  V30 4700 H 461.871 -1.14232 2.30887 0
M  V30 4701 H 461.829 -2.71369 1.58765 0
M  V30 4702 N 465.601 -1.54893 0.290851 0
M  V30 4703 C 467.012 -1.85584 -0.203816 0
M  V30 4704 C 467.363 -1.21285 -1.54222 0
M  V30 4705 O 466.488 -0.506841 -2.10381 0
M  V30 4706 C 467.083 -3.367 -0.376595 0
M  V30 4707 C 465.642 -3.6746 -0.815485 0
M  V30 4708 C 464.789 -2.77178 0.0821087 0
M  V30 4709 H 467.74 -1.50208 0.512175 0
M  V30 4710 H 467.761 -3.60656 -1.21275 0
M  V30 4711 H 467.273 -3.8347 0.59767 0
M  V30 4712 H 465.374 -3.26201 -1.80066 0
M  V30 4713 H 465.487 -4.7478 -0.641905 0
M  V30 4714 H 463.851 -2.50925 -0.436895 0
M  V30 4715 H 464.634 -3.26767 1.05254 0
M  V30 4716 N 467.08 -0.0183926 -1.57589 0
M  V30 4717 C 468.03 0.975944 -2.06057 0
M  V30 4718 C 469.014 1.29204 -0.958908 0
M  V30 4719 O 470.206 1.27995 -1.22255 0
M  V30 4720 C 467.335 2.26194 -2.58247 0
M  V30 4721 C 466.421 1.97467 -3.75323 0
M  V30 4722 N 466.812 1.38968 -4.86335 0
M  V30 4723 C 465.11 2.27515 -3.83605 0
M  V30 4724 C 465.811 1.27131 -5.67638 0
M  V30 4725 N 464.787 1.76319 -5.14211 0
M  V30 4726 H 468.589 0.518444 -2.89291 0
M  V30 4727 H 466.103 0.18688 -1.61321 0
M  V30 4728 H 468.1 2.98289 -2.91255 0
M  V30 4729 H 466.76 2.7258 -1.76438 0
M  V30 4730 H 467.771 1.06608 -5.06809 0
M  V30 4731 H 464.448 2.76649 -3.12684 0
M  V30 4732 H 465.838 0.819882 -6.66879 0
M  V30 4733 N 468.558 1.5553 0.254621 0
M  V30 4734 C 469.835 1.6774 1.00611 0
M  V30 4735 C 470.215 0.555993 2.03647 0
M  V30 4736 O 469.563 -0.441583 2.24193 0
M  V30 4737 C 469.773 3.07725 1.6464 0
M  V30 4738 C 471.121 3.66074 2.15116 0
M  V30 4739 O 472.145 3.10476 1.74595 0
M  V30 4740 O 471.004 4.63526 2.89493 0
M  V30 4741 H 468.098 0.681958 0.467828 0
M  V30 4742 H 470.644 1.67863 0.24902 0
M  V30 4743 H 469.416 3.80792 0.900734 0
M  V30 4744 H 469.039 3.1158 2.46989 0
M  V30 4745 N 470.036 -0.519951 1.48776 0
M  V30 4746 C 471.266 -1.29783 1.60748 0
M  V30 4747 C 471.674 -1.87253 0.27072 0
M  V30 4748 O 471.017 -1.67628 -0.751438 0
M  V30 4749 C 471.079 -2.47984 2.60277 0
M  V30 4750 C 470.743 -2.11526 4.051 0
M  V30 4751 C 471.74 -1.66608 4.92481 0
M  V30 4752 C 469.425 -2.21742 4.50706 0
M  V30 4753 C 471.419 -1.32384 6.23501 0
M  V30 4754 C 469.106 -1.87129 5.81744 0
M  V30 4755 C 470.104 -1.42523 6.67964 0
M  V30 4756 O 469.792 -1.0837 7.96562 0
M  V30 4757 H 469.524 -0.400562 0.544542 0
M  V30 4758 H 472.078 -0.632879 1.95407 0
M  V30 4759 H 470.308 -3.17493 2.2076 0
M  V30 4760 H 471.997 -3.10036 2.61978 0
M  V30 4761 H 472.763 -1.58178 4.58481 0
M  V30 4762 H 468.642 -2.55415 3.83776 0
M  V30 4763 H 472.186 -0.974949 6.90754 0
M  V30 4764 H 468.083 -1.95204 6.15277 0
M  V30 4765 H 468.851 -1.21681 8.09405 0
M  V30 4766 N 471.514 -1.37532 -0.769588 0
M  V30 4767 C 472.791 -1.23392 -1.51768 0
M  V30 4768 C 473.171 0.17157 -2.10402 0
M  V30 4769 O 472.519 1.17943 -1.95708 0
M  V30 4770 C 472.729 -2.33163 -2.59685 0
M  V30 4771 C 474.077 -2.70809 -3.27028 0
M  V30 4772 O 475.101 -2.32355 -2.69981 0
M  V30 4773 O 473.96 -3.37066 -4.30173 0
M  V30 4774 H 471.054 -0.481617 -0.67229 0
M  V30 4775 H 473.6 -1.49318 -0.806368 0
M  V30 4776 H 472.372 -3.27273 -2.14494 0
M  V30 4777 H 471.995 -2.08713 -3.38415 0
M  V30 4778 N 472.992 0.995999 -1.22138 0
M  V30 4779 C 474.217 1.77601 -1.0711 0
M  V30 4780 C 474.642 1.84339 0.374264 0
M  V30 4781 O 474 1.29359 1.27028 0
M  V30 4782 C 474.048 3.18897 -1.68336 0
M  V30 4783 O 473.152 4.01663 -0.934928 0
M  V30 4784 H 472.493 0.547011 -0.376397 0
M  V30 4785 H 475.023 1.25137 -1.6187 0
M  V30 4786 H 475.033 3.69539 -1.72931 0
M  V30 4787 H 473.708 3.13308 -2.73516 0
M  V30 4788 H 472.285 3.60204 -0.964751 0
M  V30 4789 N 474.47 1.03057 1.19235 0
M  V30 4790 C 475.4 0.633497 2.24742 0
M  V30 4791 C 476.381 -0.358335 1.66283 0
M  V30 4792 O 477.566 -0.240676 1.92703 0
M  V30 4793 C 474.696 -0.0147648 3.47297 0
M  V30 4794 C 473.65 0.899527 4.18441 0
M  V30 4795 C 472.976 0.116281 5.34574 0
M  V30 4796 C 474.276 2.21404 4.73051 0
M  V30 4797 H 475.97 1.5155 2.58211 0
M  V30 4798 H 473.516 0.73014 1.24117 0
M  V30 4799 H 475.469 -0.304202 4.20301 0
M  V30 4800 H 474.193 -0.931577 3.13032 0
M  V30 4801 H 472.852 1.17319 3.47321 0
M  V30 4802 H 472.5 -0.802619 4.96555 0
M  V30 4803 H 472.2 0.725293 5.83107 0
M  V30 4804 H 473.724 -0.166376 6.10373 0
M  V30 4805 H 475.138 1.98601 5.37802 0
M  V30 4806 H 473.535 2.77512 5.32078 0
M  V30 4807 H 474.605 2.86752 3.91026 0
M  V30 4808 N 475.948 -1.35272 0.808662 0
M  V30 4809 C 477.178 -2.02652 0.401953 0
M  V30 4810 C 477.586 -1.6108 -0.992462 0
M  V30 4811 O 476.929 -0.804984 -1.65123 0
M  V30 4812 C 476.991 -3.57174 0.408246 0
M  V30 4813 C 476.655 -4.22019 1.75353 0
M  V30 4814 C 477.652 -4.43552 2.71215 0
M  V30 4815 C 475.337 -4.59093 2.03811 0
M  V30 4816 C 477.331 -5.01264 3.93717 0
M  V30 4817 C 475.018 -5.16519 3.26576 0
M  V30 4818 C 476.016 -5.37546 4.21347 0
M  V30 4819 O 475.704 -5.93761 5.41944 0
M  V30 4820 H 475.436 -0.656495 0.161216 0
M  V30 4821 H 477.99 -1.73829 1.0942 0
M  V30 4822 H 476.22 -3.85197 -0.340608 0
M  V30 4823 H 477.909 -4.05893 0.0235623 0
M  V30 4824 H 478.675 -4.15288 2.50522 0
M  V30 4825 H 474.554 -4.42039 1.30854 0
M  V30 4826 H 478.098 -5.17592 4.67701 0
M  V30 4827 H 473.995 -5.4421 3.47139 0
M  V30 4828 H 474.763 -6.1221 5.43269 0
M  V30 4829 N 477.426 -0.562348 -1.47226 0
M  V30 4830 C 478.654 -0.0452275 -2.06851 0
M  V30 4831 C 479.069 1.25078 -1.41424 0
M  V30 4832 O 478.426 1.75156 -0.512513 0
M  V30 4833 C 478.477 0.148674 -3.61194 0
M  V30 4834 O 478.198 -1.09602 -4.24169 0
M  V30 4835 C 479.699 0.702488 -4.37699 0
M  V30 4836 H 476.919 -0.0481775 -0.669268 0
M  V30 4837 H 479.463 -0.777223 -1.89155 0
M  V30 4838 H 477.618 0.830817 -3.78386 0
M  V30 4839 H 478.032 -0.896982 -5.16773 0
M  V30 4840 H 479.506 0.78743 -5.46355 0
M  V30 4841 H 479.983 1.71493 -4.04335 0
M  V30 4842 H 480.589 0.0558772 -4.25263 0
M  V30 4843 N 478.904 1.54736 -0.299062 0
M  V30 4844 C 480.129 2.04975 0.316254 0
M  V30 4845 C 480.554 1.17501 1.46885 0
M  V30 4846 O 479.912 0.178678 1.80417 0
M  V30 4847 C 479.96 3.52672 0.751997 0
M  V30 4848 O 479.064 3.68226 1.85697 0
M  V30 4849 H 478.405 0.661126 0.0617175 0
M  V30 4850 H 480.935 1.99805 -0.440341 0
M  V30 4851 H 480.945 3.94488 1.04133 0
M  V30 4852 H 479.62 4.158 -0.0911482 0
M  V30 4853 H 478.197 3.38316 1.56834 0
M  V30 4854 N 480.382 0.0267497 1.57577 0
M  V30 4855 C 481.63 -0.651116 1.91324 0
M  V30 4856 C 481.951 -1.72804 0.90353 0
M  V30 4857 O 481.221 -1.95822 -0.0552946 0
M  V30 4858 H 479.801 -0.243491 0.706202 0
M  V30 4859 H 482.463 0.0739935 1.94759 0
M  V30 4860 H 481.559 -1.10536 2.9187 0
M  V30 4861 N 481.861 -1.55662 -0.24637 0
M  V30 4862 C 482.793 -1.86811 -1.32794 0
M  V30 4863 C 483.806 -0.754413 -1.44265 0
M  V30 4864 O 484.995 -1.03253 -1.45606 0
M  V30 4865 C 482.095 -2.0397 -2.70646 0
M  V30 4866 C 481.268 -3.34832 -2.81436 0
M  V30 4867 C 480.327 -3.41727 -4.00136 0
M  V30 4868 O 479.353 -4.14934 -3.89639 0
M  V30 4869 N 480.555 -2.71058 -5.1333 0
M  V30 4870 H 483.32 -2.80174 -1.06409 0
M  V30 4871 H 480.881 -1.55906 -0.43647 0
M  V30 4872 H 482.873 -2.05924 -3.48393 0
M  V30 4873 H 481.443 -1.1735 -2.89738 0
M  V30 4874 H 480.663 -3.4519 -1.90361 0
M  V30 4875 H 481.951 -4.21085 -2.85595 0
M  V30 4876 H 481.349 -2.11314 -5.2475 0
M  V30 4877 H 479.906 -2.78704 -5.89209 0
M  V30 4878 N 483.339 0.512053 -1.4905 0
M  V30 4879 C 484.585 1.26874 -1.58212 0
M  V30 4880 C 484.918 1.9241 -0.263073 0
M  V30 4881 O 484.193 1.80181 0.732476 0
M  V30 4882 C 484.476 2.34428 -2.73341 0
M  V30 4883 C 484.329 1.73466 -4.15006 0
M  V30 4884 C 485.648 3.36073 -2.84154 0
M  V30 4885 H 482.767 0.459924 -0.575881 0
M  V30 4886 H 485.409 0.568587 -1.81293 0
M  V30 4887 H 483.559 2.94146 -2.53792 0
M  V30 4888 H 485.231 1.17661 -4.46042 0
M  V30 4889 H 483.474 1.03921 -4.21168 0
M  V30 4890 H 484.145 2.51426 -4.91415 0
M  V30 4891 H 486.621 2.86332 -3.01916 0
M  V30 4892 H 485.497 4.08703 -3.66406 0
M  V30 4893 H 485.758 3.97725 -1.93048 0
M  V30 4894 N 484.817 1.37938 0.762283 0
M  V30 4895 C 486.065 1.33404 1.51815 0
M  V30 4896 C 486.386 -0.0780975 1.94844 0
M  V30 4897 O 485.656 -1.02405 1.67003 0
M  V30 4898 H 484.236 0.490839 0.563104 0
M  V30 4899 H 486.898 1.72527 0.906669 0
M  V30 4900 H 485.994 1.97926 2.41313 0
M  V30 4901 N 486.295 -0.989507 1.22664 0
M  V30 4902 C 487.541 -1.7321 1.05481 0
M  V30 4903 C 487.874 -1.89852 -0.408635 0
M  V30 4904 O 487.149 -1.44416 -1.30285 0
M  V30 4905 C 487.432 -3.1357 1.77047 0
M  V30 4906 C 487.285 -3.04555 3.31008 0
M  V30 4907 C 488.604 -4.12812 1.5256 0
M  V30 4908 H 485.723 -0.628697 0.384589 0
M  V30 4909 H 488.365 -1.15258 1.51049 0
M  V30 4910 H 486.515 -3.63046 1.3831 0
M  V30 4911 H 488.187 -2.62674 3.7921 0
M  V30 4912 H 486.43 -2.41278 3.6051 0
M  V30 4913 H 487.101 -4.03894 3.76263 0
M  V30 4914 H 489.577 -3.72106 1.86215 0
M  V30 4915 H 488.453 -5.09132 2.05124 0
M  V30 4916 H 488.714 -4.39711 0.458936 0
M  V30 4917 N 487.773 -1.03688 -1.18687 0
M  V30 4918 C 489.05 -0.652397 -1.84399 0
M  V30 4919 C 489.43 0.868386 -1.92412 0
M  V30 4920 O 488.778 1.76832 -1.44716 0
M  V30 4921 C 488.988 -1.3238 -3.22919 0
M  V30 4922 C 490.336 -1.45216 -3.98996 0
M  V30 4923 O 491.36 -1.2816 -3.32345 0
M  V30 4924 O 490.219 -1.72975 -5.18403 0
M  V30 4925 H 487.313 -0.227793 -0.795009 0
M  V30 4926 H 489.859 -1.13553 -1.2611 0
M  V30 4927 H 488.631 -2.36202 -3.11968 0
M  V30 4928 H 488.254 -0.829039 -3.88861 0
M  V30 4929 N 489.251 1.34841 -0.815825 0
M  V30 4930 C 490.662 1.80937 -0.46029 0
M  V30 4931 C 491.013 1.67685 1.01863 0
M  V30 4932 O 490.138 1.21277 1.79223 0
M  V30 4933 C 490.733 3.28509 -0.828708 0
M  V30 4934 C 489.292 3.72712 -0.525644 0
M  V30 4935 C 488.439 2.56676 -1.04941 0
M  V30 4936 H 491.39 1.22688 -1.00664 0
M  V30 4937 H 491.411 3.80279 -0.129757 0
M  V30 4938 H 490.923 3.38122 -1.90513 0
M  V30 4939 H 489.024 3.68642 0.541666 0
M  V30 4940 H 489.137 4.67119 -1.06474 0
M  V30 4941 H 487.501 2.50302 -0.471286 0
M  V30 4942 H 488.284 2.69063 -2.13214 0
M  V30 4943 N 490.729 0.570148 1.46925 0
M  V30 4944 C 491.954 0.0542592 2.07329 0
M  V30 4945 C 492.379 -1.23582 1.41806 0
M  V30 4946 O 491.737 -1.74341 0.497479 0
M  V30 4947 C 491.785 -0.111175 3.60429 0
M  V30 4948 O 490.889 -1.17071 3.95434 0
M  V30 4949 H 490.23 0.0571425 0.661537 0
M  V30 4950 H 492.76 0.789516 1.88753 0
M  V30 4951 H 492.77 -0.321315 4.06733 0
M  V30 4952 H 491.445 0.831012 4.07513 0
M  V30 4953 H 490.022 -0.940029 3.60857 0
M  V30 4954 N 492.207 -1.54576 0.307264 0
M  V30 4955 C 493.432 -2.05139 -0.305379 0
M  V30 4956 C 493.857 -1.18278 -1.46259 0
M  V30 4957 O 493.215 -0.188243 -1.8032 0
M  V30 4958 C 493.263 -3.53066 -0.733283 0
M  V30 4959 O 492.367 -3.69206 -1.83741 0
M  V30 4960 H 491.708 -0.661444 -0.0582105 0
M  V30 4961 H 494.238 -1.99569 0.450931 0
M  V30 4962 H 494.248 -3.95034 -1.02039 0
M  V30 4963 H 492.923 -4.15746 0.113198 0
M  V30 4964 H 491.5 -3.39143 -1.55037 0
M  V30 4965 N 493.685 -0.035106 -1.57561 0
M  V30 4966 C 494.933 0.64096 -1.91667 0
M  V30 4967 C 495.254 1.72323 -0.912681 0
M  V30 4968 O 494.524 1.95849 0.0449089 0
M  V30 4969 H 493.104 0.239743 -0.707483 0
M  V30 4970 H 495.766 -0.084321 -1.94718 0
M  V30 4971 H 494.862 1.08987 -2.92452 0
M  V30 4972 N 495.163 1.55791 0.238111 0
M  V30 4973 C 496.073 1.94196 1.31625 0
M  V30 4974 C 497.089 0.843545 1.52185 0
M  V30 4975 O 498.265 1.1457 1.65637 0
M  V30 4976 C 495.33 2.2365 2.64918 0
M  V30 4977 C 494.391 3.46971 2.52804 0
M  V30 4978 C 493.624 3.7501 3.79741 0
M  V30 4979 O 493.847 3.04982 4.82019 0
M  V30 4980 O 492.781 4.68525 3.77846 0
M  V30 4981 H 496.607 2.86044 1.02043 0
M  V30 4982 H 494.192 1.42786 0.439603 0
M  V30 4983 H 496.074 2.43863 3.4367 0
M  V30 4984 H 494.749 1.34979 2.94215 0
M  V30 4985 H 493.656 3.32055 1.72309 0
M  V30 4986 H 494.989 4.35971 2.28451 0
M  V30 4987 N 496.642 -0.504142 1.49319 0
M  V30 4988 C 497.888 -1.26033 1.58882 0
M  V30 4989 C 498.221 -1.92268 0.273274 0
M  V30 4990 O 497.496 -1.80567 -0.72291 0
M  V30 4991 C 497.779 -2.32976 2.7458 0
M  V30 4992 C 497.632 -1.71263 4.1592 0
M  V30 4993 C 498.951 -3.34561 2.85932 0
M  V30 4994 H 496.07 -0.456863 0.578312 0
M  V30 4995 H 498.712 -0.558965 1.81592 0
M  V30 4996 H 496.862 -2.92796 2.55348 0
M  V30 4997 H 498.534 -1.15294 4.4666 0
M  V30 4998 H 496.777 -1.01686 4.21714 0
M  V30 4999 H 497.448 -2.48816 4.92742 0
M  V30 5000 H 499.924 -2.84727 3.0343 0
M  V30 5001 H 498.8 -4.06754 3.68568 0
M  V30 5002 H 499.061 -3.96695 1.95154 0
M  V30 5003 N 498.12 -1.38341 -0.754957 0
M  V30 5004 C 499.067 -1.3546 -1.86867 0
M  V30 5005 C 500.037 -0.217369 -1.64672 0
M  V30 5006 O 501.222 -0.409383 -1.86356 0
M  V30 5007 C 498.362 -1.18413 -3.24149 0
M  V30 5008 C 497.475 -2.41511 -3.58185 0
M  V30 5009 C 496.61 -2.17205 -4.84763 0
M  V30 5010 C 495.649 -3.36081 -5.11582 0
M  V30 5011 N 494.786 -3.11219 -6.29354 0
M  V30 5012 H 499.626 -2.30672 -1.88664 0
M  V30 5013 H 497.163 -1.14607 -0.922154 0
M  V30 5014 H 499.121 -1.06545 -4.03366 0
M  V30 5015 H 497.751 -0.268397 -3.21682 0
M  V30 5016 H 496.803 -2.64056 -2.73822 0
M  V30 5017 H 498.115 -3.30115 -3.73932 0
M  V30 5018 H 497.269 -2.02465 -5.7192 0
M  V30 5019 H 496.008 -1.25964 -4.71152 0
M  V30 5020 H 495.013 -3.51341 -4.22894 0
M  V30 5021 H 496.238 -4.28196 -5.27091 0
M  V30 5022 H 494.184 -2.22624 -6.17069 0
M  V30 5023 H 494.101 -3.93373 -6.45596 0
M  V30 5024 H 495.369 -3.00132 -7.19403 0
M  V30 5025 N 499.598 0.982988 -1.23187 0
M  V30 5026 C 500.844 1.7273 -1.07405 0
M  V30 5027 C 501.199 1.885 0.385447 0
M  V30 5028 O 500.492 1.4243 1.28157 0
M  V30 5029 C 500.686 3.12736 -1.73006 0
M  V30 5030 C 500.515 3.10621 -3.25184 0
M  V30 5031 C 499.285 3.15957 -3.94334 0
M  V30 5032 C 501.483 2.93992 -4.21987 0
M  V30 5033 N 499.465 3.03701 -5.33516 0
M  V30 5034 C 500.836 2.8987 -5.48065 0
M  V30 5035 C 502.891 2.78457 -4.12754 0
M  V30 5036 C 501.594 2.71804 -6.65969 0
M  V30 5037 C 503.62 2.61754 -5.30319 0
M  V30 5038 C 502.982 2.58328 -6.55321 0
M  V30 5039 H 499.081 0.641279 -0.447533 0
M  V30 5040 H 501.665 1.16664 -1.55877 0
M  V30 5041 H 499.836 3.67026 -1.2707 0
M  V30 5042 H 501.568 3.75786 -1.50224 0
M  V30 5043 H 498.323 3.24034 -3.45397 0
M  V30 5044 H 498.747 3.00855 -6.06478 0
M  V30 5045 H 503.389 2.79898 -3.16886 0
M  V30 5046 H 501.107 2.69108 -7.61975 0
M  V30 5047 H 504.693 2.50702 -5.25014 0
M  V30 5048 H 503.573 2.45564 -7.4476 0
M  V30 5049 N 501.076 1.04316 1.18135 0
M  V30 5050 C 502.323 0.74802 1.88178 0
M  V30 5051 C 502.651 -0.72441 1.80506 0
M  V30 5052 O 501.906 -1.54463 1.20165 0
M  V30 5053 C 502.205 1.16271 3.37958 0
M  V30 5054 C 501.871 2.63585 3.65833 0
M  V30 5055 C 500.533 3.03829 3.73151 0
M  V30 5056 C 502.885 3.58822 3.78016 0
M  V30 5057 C 500.213 4.38194 3.90132 0
M  V30 5058 C 502.565 4.92909 3.96514 0
M  V30 5059 C 501.229 5.3282 4.02068 0
M  V30 5060 H 500.499 0.27372 0.688592 0
M  V30 5061 H 503.146 1.30863 1.39811 0
M  V30 5062 H 501.451 0.520938 3.88321 0
M  V30 5063 H 503.148 0.911672 3.90499 0
M  V30 5064 H 499.738 2.31414 3.60757 0
M  V30 5065 H 503.922 3.28875 3.71692 0
M  V30 5066 H 499.178 4.68631 3.92677 0
M  V30 5067 H 503.352 5.66606 4.04883 0
M  V30 5068 H 500.979 6.36943 4.14979 0
M  V30 5069 N 502.554 -1.34406 0.822964 0
M  V30 5070 C 503.784 -2.02214 0.423424 0
M  V30 5071 C 504.192 -1.62124 -0.975322 0
M  V30 5072 O 503.535 -0.822452 -1.6426 0
M  V30 5073 C 503.597 -3.56721 0.446107 0
M  V30 5074 C 503.261 -4.20136 1.79819 0
M  V30 5075 C 504.258 -4.4065 2.75904 0
M  V30 5076 C 501.943 -4.56906 2.08669 0
M  V30 5077 C 503.937 -4.9706 3.99012 0
M  V30 5078 C 501.624 -5.13026 3.32036 0
M  V30 5079 C 502.622 -5.33047 4.27024 0
M  V30 5080 O 502.31 -5.87979 5.48211 0
M  V30 5081 H 502.042 -0.654748 0.168169 0
M  V30 5082 H 504.596 -1.72659 1.11257 0
M  V30 5083 H 502.826 -3.85537 -0.299734 0
M  V30 5084 H 504.515 -4.05845 0.0666114 0
M  V30 5085 H 505.281 -4.12607 2.54912 0
M  V30 5086 H 501.16 -4.40626 1.35535 0
M  V30 5087 H 504.704 -5.12603 4.73164 0
M  V30 5088 H 500.601 -5.40498 3.52891 0
M  V30 5089 H 501.369 -6.06413 5.49732 0
M  V30 5090 N 504.032 -0.577932 -1.46621 0
M  V30 5091 C 504.964 0.195801 -2.28362 0
M  V30 5092 C 505.977 0.859983 -1.38232 0
M  V30 5093 O 507.166 0.730349 -1.62875 0
M  V30 5094 C 504.266 1.29639 -3.13124 0
M  V30 5095 C 503.439 0.725049 -4.31349 0
M  V30 5096 C 502.498 1.71274 -4.97546 0
M  V30 5097 O 501.524 1.25067 -5.5529 0
M  V30 5098 N 502.726 3.04672 -4.94121 0
M  V30 5099 H 505.491 -0.505468 -2.95407 0
M  V30 5100 H 503.052 -0.415381 -1.56481 0
M  V30 5101 H 505.044 1.95631 -3.54275 0
M  V30 5102 H 503.614 1.90059 -2.48186 0
M  V30 5103 H 502.834 -0.112205 -3.9404 0
M  V30 5104 H 504.122 0.323034 -5.07774 0
M  V30 5105 H 503.52 3.4484 -4.48444 0
M  V30 5106 H 502.077 3.66166 -5.39227 0
M  V30 5107 N 505.51 1.54411 -0.315457 0
M  V30 5108 C 506.46 2.20772 0.569549 0
M  V30 5109 C 507.444 1.18551 1.08787 0
M  V30 5110 O 508.636 1.44213 1.02624 0
M  V30 5111 C 505.765 2.96293 1.73394 0
M  V30 5112 C 504.851 4.05844 1.2309 0
M  V30 5113 N 505.242 5.03822 0.446927 0
M  V30 5114 C 503.54 4.19648 1.51035 0
M  V30 5115 C 504.241 5.8143 0.17725 0
M  V30 5116 N 503.217 5.38245 0.761118 0
M  V30 5117 H 507.019 2.93877 -0.0368076 0
M  V30 5118 H 504.533 1.61949 -0.120915 0
M  V30 5119 H 506.53 3.42313 2.37965 0
M  V30 5120 H 505.19 2.24708 2.34386 0
M  V30 5121 H 506.201 5.17821 0.0905027 0
M  V30 5122 H 502.878 3.59274 2.1267 0
M  V30 5123 H 504.268 6.70369 -0.45335 0
M  V30 5124 N 506.988 0.0434614 1.5754 0
M  V30 5125 C 508.216 -0.641835 1.96693 0
M  V30 5126 C 508.631 -1.64832 0.920652 0
M  V30 5127 O 507.988 -1.82247 -0.095993 0
M  V30 5128 C 508.039 -1.33557 3.35924 0
M  V30 5129 O 507.76 -0.369403 4.3654 0
M  V30 5130 C 509.261 -2.11135 3.89791 0
M  V30 5131 H 506.481 -0.176013 0.647503 0
M  V30 5132 H 509.025 0.107478 2.04217 0
M  V30 5133 H 507.18 -2.03617 3.29574 0
M  V30 5134 H 507.594 -0.863674 5.1734 0
M  V30 5135 H 509.068 -2.55107 4.89514 0
M  V30 5136 H 509.545 -2.95634 3.24803 0
M  V30 5137 H 510.151 -1.46002 3.99454 0
M  V30 5138 N 508.466 -1.55915 -0.229846 0
M  V30 5139 C 509.877 -1.68809 -0.797531 0
M  V30 5140 C 510.228 -0.643995 -1.8533 0
M  V30 5141 O 509.353 0.206492 -2.15413 0
M  V30 5142 C 509.948 -3.06043 -1.45338 0
M  V30 5143 C 508.507 -3.20819 -1.96856 0
M  V30 5144 C 507.654 -2.6472 -0.825736 0
M  V30 5145 H 510.605 -1.58699 -0.00533733 0
M  V30 5146 H 510.626 -3.01438 -2.32196 0
M  V30 5147 H 510.138 -3.82012 -0.684743 0
M  V30 5148 H 508.239 -2.49704 -2.76548 0
M  V30 5149 H 508.352 -4.27937 -2.15423 0
M  V30 5150 H 506.716 -2.22985 -1.23084 0
M  V30 5151 H 507.499 -3.43229 -0.0699019 0
M  V30 5152 N 509.944 0.496216 -1.49584 0
M  V30 5153 C 510.892 1.61805 -1.67098 0
M  V30 5154 C 511.886 1.60667 -0.536877 0
M  V30 5155 O 513.092 1.65118 -0.716654 0
M  V30 5156 H 509.467 0.53646 -0.526986 0
M  V30 5157 H 511.438 1.44187 -2.61252 0
M  V30 5158 C 510.187 2.99912 -1.75921 0
M  V30 5159 H 509.51 3.01496 -2.62565 0
M  V30 5160 H 510.95 3.77931 -1.92209 0
M  V30 5161 C 509.409 3.33092 -0.505088 0
M  V30 5162 O 509.939 4.00019 0.367085 0
M  V30 5163 N 508.145 2.88278 -0.366599 0
M  V30 5164 H 507.692 2.33989 -1.07735 0
M  V30 5165 H 507.65 3.10846 0.47142 0
M  V30 5166 N 511.423 1.38739 0.74761 0
M  V30 5167 C 512.7 1.25791 1.49786 0
M  V30 5168 C 513.08 -0.138075 2.10648 0
M  V30 5169 O 512.428 -1.14815 1.9756 0
M  V30 5170 C 512.638 2.37265 2.55942 0
M  V30 5171 C 513.986 2.75978 3.22679 0
M  V30 5172 O 515.01 2.36621 2.6625 0
M  V30 5173 O 513.869 3.43867 4.24756 0
M  V30 5174 H 510.963 0.492251 0.664543 0
M  V30 5175 H 513.509 1.50582 0.782511 0
M  V30 5176 H 512.281 3.30644 2.0926 0
M  V30 5177 H 511.904 2.14071 3.35051 0
M  V30 5178 N 512.901 -0.976442 1.23707 0
M  V30 5179 C 513.864 -2.0511 1.02287 0
M  V30 5180 C 514.864 -1.60791 -0.0167195 0
M  V30 5181 O 516.054 -1.72761 0.223408 0
M  V30 5182 C 513.186 -3.36458 0.548507 0
M  V30 5183 H 514.379 -2.25545 1.9766 0
M  V30 5184 H 511.932 -1.15042 1.05806 0
M  V30 5185 H 512.667 -3.21713 -0.408818 0
M  V30 5186 H 512.452 -3.69967 1.29874 0
M  V30 5187 H 513.942 -4.15489 0.419406 0
M  V30 5188 N 514.379 -1.04941 -1.1758 0
M  V30 5189 C 515.625 -0.768896 -1.88307 0
M  V30 5190 C 515.98 0.696361 -1.79356 0
M  V30 5191 O 515.273 1.50245 -1.18899 0
M  V30 5192 C 515.467 -1.18062 -3.37337 0
M  V30 5193 C 515.296 -2.68436 -3.60794 0
M  V30 5194 C 514.066 -3.35709 -3.77661 0
M  V30 5195 C 516.264 -3.66657 -3.60649 0
M  V30 5196 N 514.246 -4.74974 -3.88939 0
M  V30 5197 C 515.617 -4.91638 -3.77747 0
M  V30 5198 C 517.672 -3.60162 -3.43785 0
M  V30 5199 C 516.375 -6.10902 -3.79726 0
M  V30 5200 C 518.401 -4.78863 -3.47051 0
M  V30 5201 C 517.763 -6.02666 -3.64654 0
M  V30 5202 H 513.862 -0.33355 -0.707296 0
M  V30 5203 H 516.446 -1.34085 -1.41171 0
M  V30 5204 H 514.617 -0.636648 -3.83147 0
M  V30 5205 H 516.349 -0.8502 -3.95669 0
M  V30 5206 H 513.104 -2.8611 -3.77409 0
M  V30 5207 H 513.528 -5.47378 -3.98379 0
M  V30 5208 H 518.17 -2.65412 -3.29114 0
M  V30 5209 H 515.888 -7.05998 -3.93182 0
M  V30 5210 H 519.474 -4.75488 -3.35265 0
M  V30 5211 H 518.354 -6.92979 -3.67083 0
M  V30 5212 N 515.857 1.33968 -0.830081 0
M  V30 5213 C 517.134 1.92554 -0.343858 0
M  V30 5214 C 517.514 1.7573 1.16971 0
M  V30 5215 O 516.862 1.14035 1.98011 0
M  V30 5216 C 517.072 3.40147 -0.781073 0
M  V30 5217 C 518.42 4.17299 -0.78402 0
M  V30 5218 O 519.444 3.48762 -0.724112 0
M  V30 5219 O 518.303 5.39631 -0.863739 0
M  V30 5220 H 515.397 0.821469 -0.0954827 0
M  V30 5221 H 517.943 1.42897 -0.915348 0
M  V30 5222 H 516.715 3.46225 -1.82329 0
M  V30 5223 H 516.338 3.97166 -0.18567 0
M  V30 5224 N 517.335 0.585699 1.46312 0
M  V30 5225 C 518.582 0.0724211 2.0237 0
M  V30 5226 C 518.91 -1.28868 1.45683 0
M  V30 5227 O 518.165 -1.85853 0.612945 0
M  V30 5228 C 518.464 -0.0401312 3.57377 0
M  V30 5229 C 518.13 1.25376 4.33119 0
M  V30 5230 C 516.792 1.60824 4.5353 0
M  V30 5231 C 519.144 2.10987 4.76586 0
M  V30 5232 C 516.472 2.81676 5.14661 0
M  V30 5233 C 518.824 3.31068 5.39052 0
M  V30 5234 C 517.488 3.66794 5.5769 0
M  V30 5235 H 516.758 0.0265007 0.740526 0
M  V30 5236 H 519.405 0.762935 1.75646 0
M  V30 5237 H 517.71 -0.813791 3.83255 0
M  V30 5238 H 519.407 -0.453078 3.98432 0
M  V30 5239 H 515.997 0.967808 4.1753 0
M  V30 5240 H 520.181 1.84904 4.60569 0
M  V30 5241 H 515.437 3.0949 5.27282 0
M  V30 5242 H 519.611 3.97672 5.71691 0
M  V30 5243 H 517.238 4.60529 6.04828 0
M  V30 5244 N 518.813 -1.54241 0.323641 0
M  V30 5245 C 520.038 -2.05452 -0.283605 0
M  V30 5246 C 520.463 -1.19823 -1.44997 0
M  V30 5247 O 519.821 -0.207358 -1.8011 0
M  V30 5248 C 519.869 -3.53823 -0.695795 0
M  V30 5249 O 518.973 -3.71134 -1.79815 0
M  V30 5250 H 518.314 -0.662024 -0.0511917 0
M  V30 5251 H 520.844 -1.99079 0.472073 0
M  V30 5252 H 520.854 -3.96094 -0.978434 0
M  V30 5253 H 519.529 -4.15602 0.157287 0
M  V30 5254 H 518.106 -3.40768 -1.51431 0
M  V30 5255 N 520.291 -0.0518155 -1.57515 0
M  V30 5256 C 521.539 0.620595 -1.92336 0
M  V30 5257 C 521.86 1.71345 -0.930907 0
M  V30 5258 O 521.13 1.95885 0.0241341 0
M  V30 5259 H 519.71 0.232226 -0.709986 0
M  V30 5260 H 522.372 -0.104969 -1.94617 0
M  V30 5261 H 521.468 1.05879 -2.93592 0
M  V30 5262 N 521.769 1.56035 0.221574 0
M  V30 5263 C 522.717 1.93269 1.29421 0
M  V30 5264 C 523.711 0.814727 1.48521 0
M  V30 5265 O 524.917 0.999559 1.49696 0
M  V30 5266 H 521.292 0.614188 0.43391 0
M  V30 5267 H 523.263 2.82773 0.952987 0
M  V30 5268 C 522.012 2.26573 2.63742 0
M  V30 5269 H 521.335 3.12112 2.49853 0
M  V30 5270 H 522.775 2.5651 3.37607 0
M  V30 5271 C 521.234 1.09086 3.1875 0
M  V30 5272 O 521.764 0.351985 4.00155 0
M  V30 5273 N 519.97 0.874693 2.77124 0
M  V30 5274 H 519.517 1.47726 2.11033 0
M  V30 5275 H 519.475 0.0903349 3.1427 0
M  V30 5276 N 523.247 -0.488276 1.49845 0
M  V30 5277 C 524.195 -1.60917 1.67954 0
M  V30 5278 C 525.189 -1.6038 0.54539 0
M  V30 5279 O 526.395 -1.64736 0.7254 0
M  V30 5280 H 522.77 -0.533658 0.529824 0
M  V30 5281 H 524.741 -1.428 2.62013 0
M  V30 5282 C 523.49 -2.98975 1.77509 0
M  V30 5283 H 522.813 -3.00099 2.6416 0
M  V30 5284 H 524.253 -3.76906 1.9421 0
M  V30 5285 C 522.712 -3.3282 0.522745 0
M  V30 5286 O 523.242 -4.00208 -0.345866 0
M  V30 5287 N 521.448 -2.8808 0.381882 0
M  V30 5288 H 520.995 -2.33415 1.08974 0
M  V30 5289 H 520.953 -3.11091 -0.454929 0
M  V30 5290 N 524.725 -1.39134 -0.740242 0
M  V30 5291 C 525.635 -1.39697 -1.88473 0
M  V30 5292 C 526.651 -0.292403 -1.71526 0
M  V30 5293 O 527.827 -0.533021 -1.94219 0
M  V30 5294 C 524.892 -1.23382 -3.24003 0
M  V30 5295 C 523.953 -2.43763 -3.53381 0
M  V30 5296 C 523.186 -2.28216 -4.82445 0
M  V30 5297 O 523.409 -1.28288 -5.55786 0
M  V30 5298 O 522.343 -3.1709 -5.11603 0
M  V30 5299 H 526.169 -2.36159 -1.90952 0
M  V30 5300 H 523.754 -1.20194 -0.887346 0
M  V30 5301 H 525.636 -1.16395 -4.05006 0
M  V30 5302 H 524.311 -0.300121 -3.22306 0
M  V30 5303 H 523.218 -2.56325 -2.72485 0
M  V30 5304 H 524.551 -3.35808 -3.59852 0
M  V30 5305 N 526.204 0.969867 -1.24223 0
M  V30 5306 C 527.134 2.08191 -1.05729 0
M  V30 5307 C 528.115 1.70075 0.0290765 0
M  V30 5308 O 529.3 1.93712 -0.137583 0
M  V30 5309 C 526.43 3.40991 -0.658995 0
M  V30 5310 C 525.384 3.93054 -1.69389 0
M  V30 5311 C 524.71 5.22171 -1.15072 0
M  V30 5312 C 526.01 4.21137 -3.08935 0
M  V30 5313 H 527.704 2.23921 -1.98746 0
M  V30 5314 H 525.25 1.07602 -0.956967 0
M  V30 5315 H 527.203 4.18221 -0.51662 0
M  V30 5316 H 525.927 3.25155 0.30686 0
M  V30 5317 H 524.586 3.17977 -1.82444 0
M  V30 5318 H 524.234 5.02694 -0.175539 0
M  V30 5319 H 523.934 5.57973 -1.84229 0
M  V30 5320 H 525.458 6.02013 -1.02042 0
M  V30 5321 H 526.872 4.8908 -2.99121 0
M  V30 5322 H 525.269 4.68163 -3.75425 0
M  V30 5323 H 526.339 3.27996 -3.57137 0
M  V30 5324 N 527.682 1.05563 1.17022 0
M  V30 5325 C 528.928 0.769074 1.87652 0
M  V30 5326 C 529.261 -0.702326 1.81055 0
M  V30 5327 O 528.536 -1.5139 1.22112 0
M  V30 5328 C 528.819 1.25492 3.37526 0
M  V30 5329 C 528.672 2.78953 3.52853 0
M  V30 5330 C 529.991 0.856919 4.31677 0
M  V30 5331 H 527.11 0.280854 0.681388 0
M  V30 5332 H 529.752 1.31027 1.37593 0
M  V30 5333 H 527.902 0.794516 3.80289 0
M  V30 5334 H 529.574 3.33146 3.19079 0
M  V30 5335 H 527.817 3.18046 2.95007 0
M  V30 5336 H 528.488 3.08011 4.58076 0
M  V30 5337 H 530.964 1.25334 3.96775 0
M  V30 5338 H 529.84 1.22443 5.35069 0
M  V30 5339 H 530.101 -0.238787 4.41455 0
M  V30 5340 N 529.16 -1.33526 0.837174 0
M  V30 5341 C 530.09 -2.31764 0.284206 0
M  V30 5342 C 531.071 -1.58896 -0.607142 0
M  V30 5343 O 532.256 -1.86798 -0.531047 0
M  V30 5344 C 529.386 -3.43029 -0.542962 0
M  V30 5345 C 528.34 -4.27255 0.252451 0
M  V30 5346 C 527.666 -5.3012 -0.69836 0
M  V30 5347 C 528.966 -5.01229 1.46858 0
M  V30 5348 H 530.66 -2.78262 1.10502 0
M  V30 5349 H 528.206 -1.3378 0.532812 0
M  V30 5350 H 530.159 -4.1078 -0.940096 0
M  V30 5351 H 528.883 -2.95216 -1.39697 0
M  V30 5352 H 527.542 -3.61127 0.631124 0
M  V30 5353 H 527.19 -4.78564 -1.54872 0
M  V30 5354 H 526.89 -5.87353 -0.170274 0
M  V30 5355 H 528.414 -6.00737 -1.09305 0
M  V30 5356 H 529.828 -5.61756 1.14469 0
M  V30 5357 H 528.225 -5.68104 1.93333 0
M  V30 5358 H 529.295 -4.301 2.23924 0
M  V30 5359 N 530.638 -0.59345 -1.46 0
M  V30 5360 C 531.885 -0.0831523 -2.02329 0
M  V30 5361 C 532.213 1.28093 -1.46364 0
M  V30 5362 O 531.468 1.85526 -0.622793 0
M  V30 5363 C 531.767 0.021178 -3.57394 0
M  V30 5364 C 531.433 -1.27671 -4.32448 0
M  V30 5365 C 530.095 -1.63227 -4.5267 0
M  V30 5366 C 532.447 -2.13511 -4.7546 0
M  V30 5367 C 529.775 -2.84401 -5.1316 0
M  V30 5368 C 532.127 -3.33922 -5.37289 0
M  V30 5369 C 530.791 -3.69747 -5.55737 0
M  V30 5370 H 530.061 -0.0304276 -0.740375 0
M  V30 5371 H 532.708 -0.772239 -1.75239 0
M  V30 5372 H 531.013 0.793454 -3.83682 0
M  V30 5373 H 532.71 0.431942 -3.98667 0
M  V30 5374 H 529.3 -0.989937 -4.17011 0
M  V30 5375 H 533.484 -1.87344 -4.59582 0
M  V30 5376 H 528.74 -3.12282 -5.25633 0
M  V30 5377 H 532.914 -4.00698 -5.69574 0
M  V30 5378 H 530.541 -4.6373 -6.02377 0
M  V30 5379 N 532.116 1.54067 -0.331816 0
M  V30 5380 C 533.393 1.92915 0.322955 0
M  V30 5381 C 533.773 1.26225 1.69205 0
M  V30 5382 O 533.121 0.408919 2.24811 0
M  V30 5383 C 533.331 3.46619 0.406946 0
M  V30 5384 C 534.679 4.19386 0.663339 0
M  V30 5385 O 535.703 3.5282 0.489536 0
M  V30 5386 O 534.562 5.37288 0.999193 0
M  V30 5387 H 531.656 0.805808 0.186016 0
M  V30 5388 H 534.202 1.65342 -0.382135 0
M  V30 5389 H 532.974 3.87354 -0.554287 0
M  V30 5390 H 532.597 3.80324 1.15929 0
M  V30 5391 N 533.594 0.0601682 1.57485 0
M  V30 5392 C 534.824 -0.620037 1.97076 0
M  V30 5393 C 535.232 -1.64381 0.936784 0
M  V30 5394 O 534.575 -1.83497 -0.0863377 0
M  V30 5395 C 534.637 -1.35617 3.32939 0
M  V30 5396 C 534.301 -0.487208 4.54396 0
M  V30 5397 C 535.298 0.250428 5.19297 0
M  V30 5398 C 532.983 -0.415494 5.00579 0
M  V30 5399 C 534.977 1.04812 6.28723 0
M  V30 5400 C 532.664 0.385879 6.0988 0
M  V30 5401 C 533.662 1.11637 6.73815 0
M  V30 5402 O 533.35 1.90454 7.81014 0
M  V30 5403 H 533.082 -0.173664 0.653312 0
M  V30 5404 H 535.636 0.1256 2.05016 0
M  V30 5405 H 533.866 -2.14763 3.2158 0
M  V30 5406 H 535.555 -1.92749 3.57215 0
M  V30 5407 H 536.321 0.204546 4.84568 0
M  V30 5408 H 532.2 -0.973679 4.506 0
M  V30 5409 H 535.744 1.6188 6.78558 0
M  V30 5410 H 531.641 0.433366 6.44044 0
M  V30 5411 H 532.409 1.82762 7.97835 0
M  V30 5412 N 535.072 -1.5615 -0.213296 0
M  V30 5413 C 536.019 -1.93086 -1.26437 0
M  V30 5414 C 536.989 -0.789086 -1.4616 0
M  V30 5415 O 538.174 -1.04569 -1.59593 0
M  V30 5416 C 535.314 -2.26003 -2.608 0
M  V30 5417 C 534.427 -3.53156 -2.48807 0
M  V30 5418 C 533.562 -3.7548 -3.7575 0
M  V30 5419 C 532.601 -4.96119 -3.58514 0
M  V30 5420 N 531.738 -5.14791 -4.77425 0
M  V30 5421 H 536.578 -2.82707 -0.942376 0
M  V30 5422 H 534.115 -1.39919 -0.454001 0
M  V30 5423 H 536.073 -2.431 -3.39055 0
M  V30 5424 H 534.703 -1.39546 -2.91079 0
M  V30 5425 H 533.755 -3.44207 -1.61944 0
M  V30 5426 H 535.067 -4.41565 -2.31996 0
M  V30 5427 H 534.221 -3.92718 -4.62447 0
M  V30 5428 H 532.96 -2.85368 -3.95495 0
M  V30 5429 H 531.965 -4.78823 -2.70201 0
M  V30 5430 H 533.19 -5.87724 -3.40231 0
M  V30 5431 H 531.136 -4.27623 -4.97468 0
M  V30 5432 H 531.053 -5.97347 -4.63371 0
M  V30 5433 H 532.321 -5.36471 -5.65525 0
M  V30 5434 N 536.55 0.480323 -1.50102 0
M  V30 5435 C 537.513 1.56181 -1.6775 0
M  V30 5436 C 538.513 1.51156 -0.548503 0
M  V30 5437 O 539.703 1.5394 -0.815363 0
M  V30 5438 C 536.835 2.95823 -1.69415 0
M  V30 5439 H 538.028 1.41855 -2.6423 0
M  V30 5440 H 535.581 0.70605 -1.39444 0
M  V30 5441 H 536.316 3.15604 -0.745948 0
M  V30 5442 H 536.101 3.00878 -2.51425 0
M  V30 5443 H 537.591 3.74359 -1.85054 0
M  V30 5444 N 538.028 1.39524 0.732853 0
M  V30 5445 C 538.975 1.38416 1.84688 0
M  V30 5446 C 539.945 0.243539 1.64305 0
M  V30 5447 O 541.13 0.438979 1.85681 0
M  V30 5448 C 538.27 1.23555 3.22224 0
M  V30 5449 C 537.383 2.47179 3.54298 0
M  V30 5450 C 536.518 2.2489 4.81246 0
M  V30 5451 C 535.557 3.44178 5.0617 0
M  V30 5452 N 534.694 3.21192 6.24323 0
M  V30 5453 H 539.534 2.33645 1.84971 0
M  V30 5454 H 537.071 1.16059 0.903804 0
M  V30 5455 H 539.029 1.12949 4.0162 0
M  V30 5456 H 537.659 0.31954 3.21215 0
M  V30 5457 H 536.711 2.68379 2.69587 0
M  V30 5458 H 538.023 3.36022 3.68633 0
M  V30 5459 H 537.177 2.11538 5.68627 0
M  V30 5460 H 535.916 1.33443 4.69089 0
M  V30 5461 H 534.921 3.58025 4.17251 0
M  V30 5462 H 536.146 4.36528 5.20212 0
M  V30 5463 H 534.092 2.32413 6.1345 0
M  V30 5464 H 534.009 4.03594 6.39256 0
M  V30 5465 H 535.277 3.1154 7.14537 0
M  V30 5466 N 539.506 -0.963266 1.24736 0
M  V30 5467 C 540.783 -1.68248 0.9976 0
M  V30 5468 C 541.163 -2.05599 -0.478776 0
M  V30 5469 O 540.511 -1.7626 -1.45412 0
M  V30 5470 C 540.721 -2.91118 1.92487 0
M  V30 5471 C 542.069 -3.63261 2.19833 0
M  V30 5472 O 543.093 -3.01184 1.90176 0
M  V30 5473 O 541.952 -4.75019 2.7022 0
M  V30 5474 H 539.046 -0.735744 0.377637 0
M  V30 5475 H 541.592 -1.01696 1.35853 0
M  V30 5476 H 540.364 -2.60242 2.92215 0
M  V30 5477 H 539.987 -3.65402 1.56738 0
M  V30 5478 N 540.985 -1.06182 -1.16461 0
M  V30 5479 C 542.233 -0.776326 -1.86595 0
M  V30 5480 C 542.554 0.69921 -1.82033 0
M  V30 5481 O 541.824 1.50579 -1.2531 0
M  V30 5482 H 540.404 -0.284184 -0.690832 0
M  V30 5483 H 543.066 -1.34308 -1.41235 0
M  V30 5484 H 542.162 -1.10022 -2.92064 0
M  V30 5485 N 542.463 1.3308 -0.844243 0
M  V30 5486 C 543.41 2.29104 -0.279323 0
M  V30 5487 C 544.38 1.54577 0.607882 0
M  V30 5488 O 545.565 1.8285 0.545009 0
M  V30 5489 C 542.705 3.40927 0.53508 0
M  V30 5490 C 541.818 4.30354 -0.376749 0
M  V30 5491 C 540.953 5.29297 0.449276 0
M  V30 5492 C 539.992 6.10365 -0.460606 0
M  V30 5493 N 539.129 7.01335 0.327612 0
M  V30 5494 H 543.969 2.76817 -1.10346 0
M  V30 5495 H 541.506 1.36203 -0.555611 0
M  V30 5496 H 543.464 4.04469 1.02278 0
M  V30 5497 H 542.094 2.94391 1.32414 0
M  V30 5498 H 541.146 3.67485 -0.982791 0
M  V30 5499 H 542.458 4.87067 -1.07549 0
M  V30 5500 H 541.612 5.98392 1.00058 0
M  V30 5501 H 540.351 4.73174 1.18143 0
M  V30 5502 H 539.356 5.40182 -1.02388 0
M  V30 5503 H 540.581 6.68571 -1.1912 0
M  V30 5504 H 538.527 6.47655 1.04305 0
M  V30 5505 H 538.444 7.55355 -0.3123 0
M  V30 5506 H 539.712 7.74731 0.86098 0
M  V30 5507 N 543.941 0.601185 1.45683 0
M  V30 5508 C 545.19 0.0914953 2.01492 0
M  V30 5509 C 545.503 -1.28331 1.47616 0
M  V30 5510 O 546.709 -1.88537 1.95362 0
M  V30 5511 C 545.165 0.11291 3.59723 0
M  V30 5512 C 544.773 1.48717 4.22596 0
M  V30 5513 C 546.517 -0.341871 4.23121 0
M  V30 5514 C 544.424 1.46531 5.7296 0
M  V30 5515 H 543.354 0.0304365 0.753385 0
M  V30 5516 H 546.005 0.755568 1.67223 0
M  V30 5517 H 544.387 -0.617692 3.91153 0
M  V30 5518 H 545.561 2.23897 4.02749 0
M  V30 5519 H 543.876 1.88351 3.71366 0
M  V30 5520 H 546.473 -0.377304 5.33367 0
M  V30 5521 H 546.816 -1.36325 3.93346 0
M  V30 5522 H 547.349 0.335256 3.96385 0
M  V30 5523 H 544.088 2.46408 6.07423 0
M  V30 5524 H 543.608 0.755997 5.95017 0
M  V30 5525 H 545.287 1.18618 6.36034 0
M  V30 5526 N 545.419 -1.53889 0.339982 0
M  V30 5527 C 546.665 -2.01152 -0.258003 0
M  V30 5528 C 546.998 -1.22749 -1.50487 0
M  V30 5529 O 546.273 -0.314156 -1.91946 0
M  V30 5530 C 546.556 -3.55468 -0.575717 0
M  V30 5531 C 546.409 -4.44584 0.682996 0
M  V30 5532 C 547.728 -4.1768 -1.38677 0
M  V30 5533 H 544.847 -0.731198 -0.0922992 0
M  V30 5534 H 547.489 -1.84352 0.459814 0
M  V30 5535 H 545.639 -3.69914 -1.18725 0
M  V30 5536 H 547.311 -4.41981 1.32102 0
M  V30 5537 H 545.554 -4.13592 1.3086 0
M  V30 5538 H 546.225 -5.5043 0.416001 0
M  V30 5539 H 548.701 -4.0691 -0.869705 0
M  V30 5540 H 547.577 -5.25734 -1.57783 0
M  V30 5541 H 547.838 -3.72069 -2.38782 0
M  V30 5542 N 546.897 -0.0685191 -1.57451 0
M  V30 5543 C 547.844 0.899861 -2.12535 0
M  V30 5544 C 548.814 1.29749 -1.03703 0
M  V30 5545 O 549.999 1.38392 -1.31348 0
M  V30 5546 C 547.139 2.16328 -2.6888 0
M  V30 5547 C 546.252 1.81857 -3.91857 0
M  V30 5548 C 545.387 3.02786 -4.36457 0
M  V30 5549 C 544.426 2.64317 -5.5209 0
M  V30 5550 N 543.563 3.77994 -5.91663 0
M  V30 5551 H 548.403 0.423243 -2.94979 0
M  V30 5552 H 545.94 0.197268 -1.45771 0
M  V30 5553 H 547.898 2.90281 -2.99655 0
M  V30 5554 H 546.528 2.61536 -1.89206 0
M  V30 5555 H 545.58 0.979808 -3.67565 0
M  V30 5556 H 546.892 1.49553 -4.75852 0
M  V30 5557 H 546.046 3.85021 -4.68875 0
M  V30 5558 H 544.785 3.38281 -3.51308 0
M  V30 5559 H 543.79 1.80503 -5.19325 0
M  V30 5560 H 545.015 2.29995 -6.38967 0
M  V30 5561 H 542.961 4.13258 -5.09464 0
M  V30 5562 H 542.878 3.49447 -6.7039 0
M  V30 5563 H 544.146 4.60818 -6.28703 0
M  V30 5564 N 548.375 1.56261 0.205012 0
M  V30 5565 C 549.338 1.92908 1.23771 0
M  V30 5566 C 550.338 0.809208 1.38955 0
M  V30 5567 O 551.528 1.07676 1.36936 0
M  V30 5568 C 548.66 2.19442 2.60879 0
M  V30 5569 H 549.853 2.85287 0.924728 0
M  V30 5570 H 547.406 1.49798 0.446125 0
M  V30 5571 H 548.141 1.29668 2.97248 0
M  V30 5572 H 547.926 3.0104 2.51232 0
M  V30 5573 H 549.416 2.48833 3.35368 0
M  V30 5574 N 549.853 -0.472356 1.50355 0
M  V30 5575 C 551.081 -1.24784 1.65035 0
M  V30 5576 C 551.496 -1.85837 0.333176 0
M  V30 5577 O 550.853 -1.69168 -0.68472 0
M  V30 5578 C 550.904 -2.35747 2.74054 0
M  V30 5579 O 550.625 -1.77197 4.00665 0
M  V30 5580 C 552.126 -3.26645 2.99696 0
M  V30 5581 H 549.346 -0.377432 0.554785 0
M  V30 5582 H 551.89 -0.563962 1.9657 0
M  V30 5583 H 550.045 -2.99912 2.45217 0
M  V30 5584 H 550.459 -2.5026 4.60945 0
M  V30 5585 H 551.933 -4.00718 3.79644 0
M  V30 5586 H 552.41 -3.8535 2.10718 0
M  V30 5587 H 553.016 -2.68218 3.3006 0
M  V30 5588 N 551.331 -1.39911 -0.725443 0
M  V30 5589 C 552.294 -1.39156 -1.82121 0
M  V30 5590 C 553.294 -0.287018 -1.58218 0
M  V30 5591 O 554.484 -0.545421 -1.65441 0
M  V30 5592 C 551.616 -1.1736 -3.20062 0
M  V30 5593 H 552.809 -2.36672 -1.84191 0
M  V30 5594 H 550.362 -1.25615 -0.930079 0
M  V30 5595 H 551.097 -0.205648 -3.23647 0
M  V30 5596 H 550.882 -1.97358 -3.3881 0
M  V30 5597 H 552.372 -1.19596 -4.00108 0
M  V30 5598 N 552.809 0.956637 -1.25245 0
M  V30 5599 C 553.759 2.03841 -1.02141 0
M  V30 5600 C 554.743 1.60848 0.0410058 0
M  V30 5601 O 555.935 1.76142 -0.174084 0
M  V30 5602 C 553.064 3.37282 -0.639963 0
M  V30 5603 C 552.15 3.86805 -1.73903 0
M  V30 5604 N 552.541 4.09143 -2.97381 0
M  V30 5605 C 550.839 4.15574 -1.61909 0
M  V30 5606 C 551.54 4.49923 -3.68707 0
M  V30 5607 N 550.516 4.55737 -2.96318 0
M  V30 5608 H 554.318 2.19102 -1.95886 0
M  V30 5609 H 551.832 1.1413 -1.15534 0
M  V30 5610 H 553.829 4.14403 -0.455643 0
M  V30 5611 H 552.489 3.23401 0.29018 0
M  V30 5612 H 553.5 3.96275 -3.33447 0
M  V30 5613 H 550.177 4.10566 -0.757764 0
M  V30 5614 H 551.567 4.75526 -4.74684 0
M  V30 5615 N 554.287 1.06798 1.15896 0
M  V30 5616 C 555.25 0.687328 2.18651 0
M  V30 5617 C 556.25 -0.269559 1.58524 0
M  V30 5618 O 557.44 -0.0512627 1.74125 0
M  V30 5619 C 554.572 0.0121642 3.40898 0
M  V30 5620 H 555.765 1.59701 2.53842 0
M  V30 5621 H 553.318 0.863828 1.3026 0
M  V30 5622 H 554.053 -0.910025 3.1127 0
M  V30 5623 H 553.838 0.700309 3.85795 0
M  V30 5624 H 555.328 -0.239703 4.16911 0
M  V30 5625 N 555.766 -1.3263 0.851289 0
M  V30 5626 C 557.043 -1.91982 0.374448 0
M  V30 5627 C 557.423 -1.77568 -1.14161 0
M  V30 5628 O 556.771 -1.1717 -1.96172 0
M  V30 5629 C 556.981 -3.38862 0.835088 0
M  V30 5630 C 558.329 -4.15999 0.850309 0
M  V30 5631 O 559.353 -3.47566 0.779505 0
M  V30 5632 O 558.212 -5.38189 0.949481 0
M  V30 5633 H 555.306 -0.819846 0.10854 0
M  V30 5634 H 557.852 -1.41422 0.937966 0
M  V30 5635 H 556.624 -3.43281 1.87814 0
M  V30 5636 H 556.247 -3.96821 0.248833 0
M  V30 5637 N 557.244 -0.608902 -1.45362 0
M  V30 5638 C 558.66 -0.272659 -1.57254 0
M  V30 5639 C 558.86 1.22477 -1.60005 0
M  V30 5640 O 557.916 2.00785 -1.53106 0
M  V30 5641 C 559.229 -0.944991 -2.85465 0
M  V30 5642 C 560.777 -0.921033 -2.99142 0
M  V30 5643 C 561.252 -1.5734 -4.30126 0
M  V30 5644 N 562.743 -1.53895 -4.36887 0
M  V30 5645 C 563.478 -2.01286 -5.36909 0
M  V30 5646 N 562.974 -2.56768 -6.43461 0
M  V30 5647 N 564.767 -1.92046 -5.28275 0
M  V30 5648 H 556.918 -1.58117 -1.4182 0
M  V30 5649 H 559.181 -0.662437 -0.678146 0
M  V30 5650 H 558.887 -1.99941 -2.89338 0
M  V30 5651 H 558.761 -0.469079 -3.74272 0
M  V30 5652 H 561.148 0.124846 -2.94836 0
M  V30 5653 H 561.229 -1.43522 -2.11743 0
M  V30 5654 H 560.873 -2.61862 -4.35191 0
M  V30 5655 H 560.803 -1.03422 -5.16344 0
M  V30 5656 H 563.294 -1.13366 -3.60495 0
M  V30 5657 H 563.607 -2.9072 -7.16032 0
M  V30 5658 H 561.952 -2.60808 -6.44208 0
M  V30 5659 H 565.143 -1.48439 -4.43941 0
M  V30 5660 H 565.316 -2.29293 -6.06077 0
M  V30 5661 N 558.722 1.53707 -0.348139 0
M  V30 5662 C 559.67 2.26671 0.521808 0
M  V30 5663 C 560.664 1.28988 1.09811 0
M  V30 5664 O 561.87 1.4668 1.04332 0
M  V30 5665 H 558.245 0.728387 0.186968 0
M  V30 5666 H 560.216 2.98176 -0.115563 0
M  V30 5667 C 558.965 3.05591 1.6586 0
M  V30 5668 H 558.288 3.80589 1.22443 0
M  V30 5669 H 559.728 3.59851 2.24239 0
M  V30 5670 C 558.187 2.15366 2.59073 0
M  V30 5671 O 558.717 1.7528 3.61441 0
M  V30 5672 N 556.923 1.80352 2.27863 0
M  V30 5673 H 556.47 2.13149 1.44656 0
M  V30 5674 H 556.428 1.20268 2.90488 0
M  V30 5675 N 560.2 0.0768682 1.57412 0
M  V30 5676 C 561.448 -0.589918 1.93299 0
M  V30 5677 C 561.769 -1.69842 0.958049 0
M  V30 5678 O 561.039 -1.95899 0.00703261 0
M  V30 5679 H 559.619 -0.220901 0.713591 0
M  V30 5680 H 562.281 0.135917 1.94425 0
M  V30 5681 H 561.377 -1.01195 2.95239 0
M  V30 5682 N 561.678 -1.56367 -0.196722 0
M  V30 5683 C 562.925 -1.80529 -0.917366 0
M  V30 5684 C 563.253 -0.649817 -1.83324 0
M  V30 5685 O 562.508 0.36451 -1.92275 0
M  V30 5686 C 562.807 -3.10663 -1.767 0
M  V30 5687 C 562.473 -4.3962 -1.00225 0
M  V30 5688 C 561.135 -4.74653 -0.791095 0
M  V30 5689 C 563.487 -5.1913 -0.464035 0
M  V30 5690 C 560.815 -5.86692 -0.0302155 0
M  V30 5691 C 563.167 -6.31964 0.283625 0
M  V30 5692 C 561.831 -6.65581 0.505813 0
M  V30 5693 H 561.101 -0.660602 -0.335688 0
M  V30 5694 H 563.748 -1.90615 -0.183844 0
M  V30 5695 H 562.053 -2.95807 -2.56915 0
M  V30 5696 H 563.75 -3.26563 -2.32718 0
M  V30 5697 H 560.34 -4.12127 -1.17684 0
M  V30 5698 H 564.524 -4.9248 -0.614575 0
M  V30 5699 H 559.78 -6.11211 0.151917 0
M  V30 5700 H 563.954 -6.92791 0.708057 0
M  V30 5701 H 561.581 -7.52239 1.0973 0
M  V30 5702 N 563.156 0.464375 -1.50603 0
M  V30 5703 C 564.403 1.21596 -1.61928 0
M  V30 5704 C 564.731 1.91804 -0.322737 0
M  V30 5705 O 563.986 1.83065 0.691776 0
M  V30 5706 C 564.285 2.278 -2.75394 0
M  V30 5707 C 563.951 1.74797 -4.1564 0
M  V30 5708 C 562.613 1.60063 -4.53799 0
M  V30 5709 C 564.965 1.35548 -5.03266 0
M  V30 5710 C 562.293 1.04514 -5.77316 0
M  V30 5711 C 564.645 0.814381 -6.27336 0
M  V30 5712 C 563.309 0.653726 -6.64291 0
M  V30 5713 H 562.579 0.444951 -0.592536 0
M  V30 5714 H 565.226 0.510964 -1.84557 0
M  V30 5715 H 563.531 3.04233 -2.46879 0
M  V30 5716 H 565.228 2.85723 -2.81359 0
M  V30 5717 H 561.818 1.87234 -3.8554 0
M  V30 5718 H 566.002 1.45763 -4.74412 0
M  V30 5719 H 561.258 0.908186 -6.04617 0
M  V30 5720 H 565.432 0.501626 -6.94591 0
M  V30 5721 H 563.059 0.22114 -7.59878 0
M  V30 5722 N 564.634 1.40294 0.718013 0
M  V30 5723 C 565.864 1.41544 1.50495 0
M  V30 5724 C 566.272 0.0127877 1.89196 0
M  V30 5725 O 565.615 -0.97305 1.55812 0
M  V30 5726 C 565.677 2.24021 2.81167 0
M  V30 5727 C 565.341 3.72463 2.64803 0
M  V30 5728 C 566.338 4.65154 2.32223 0
M  V30 5729 C 564.023 4.1625 2.81143 0
M  V30 5730 C 566.017 5.99618 2.16189 0
M  V30 5731 C 563.704 5.50784 2.64727 0
M  V30 5732 C 564.702 6.42283 2.32297 0
M  V30 5733 O 564.39 7.74337 2.16004 0
M  V30 5734 H 564.122 0.484819 0.471091 0
M  V30 5735 H 566.676 1.84948 0.893488 0
M  V30 5736 H 564.906 1.75393 3.44636 0
M  V30 5737 H 566.595 2.17243 3.42871 0
M  V30 5738 H 567.361 4.32622 2.19234 0
M  V30 5739 H 563.24 3.45352 3.05373 0
M  V30 5740 H 566.784 6.71 1.90799 0
M  V30 5741 H 562.681 5.82902 2.773 0
M  V30 5742 H 563.449 7.85244 2.30942 0
M  V30 5743 N 566.112 -0.949982 1.2575 0
M  V30 5744 C 567.358 -1.69766 1.10938 0
M  V30 5745 C 567.691 -1.91056 -0.348028 0
M  V30 5746 O 566.966 -1.48488 -1.25625 0
M  V30 5747 C 567.249 -3.07779 1.86933 0
M  V30 5748 C 567.102 -2.9387 3.4053 0
M  V30 5749 C 568.421 -4.07749 1.65616 0
M  V30 5750 H 565.54 -0.616144 0.404396 0
M  V30 5751 H 568.182 -1.10394 1.54639 0
M  V30 5752 H 566.332 -3.58462 1.4979 0
M  V30 5753 H 568.004 -2.50476 3.87375 0
M  V30 5754 H 566.247 -2.29686 3.68004 0
M  V30 5755 H 566.918 -3.91719 3.88922 0
M  V30 5756 H 569.394 -3.65994 1.97959 0
M  V30 5757 H 568.27 -5.02348 2.21218 0
M  V30 5758 H 568.531 -4.38029 0.598595 0
M  V30 5759 N 567.59 -1.07411 -1.15328 0
M  V30 5760 C 568.836 -0.798831 -1.86404 0
M  V30 5761 C 569.169 0.673433 -1.8215 0
M  V30 5762 O 568.444 1.49428 -1.24505 0
M  V30 5763 C 568.727 -1.30846 -3.35487 0
M  V30 5764 C 568.58 -2.84532 -3.4837 0
M  V30 5765 C 569.899 -0.925486 -4.30259 0
M  V30 5766 H 567.018 -0.291659 -0.676834 0
M  V30 5767 H 569.66 -1.332 -1.35491 0
M  V30 5768 H 567.81 -0.854916 -3.78977 0
M  V30 5769 H 569.482 -3.3818 -3.13739 0
M  V30 5770 H 567.725 -3.22699 -2.8991 0
M  V30 5771 H 568.396 -3.15259 -4.53118 0
M  V30 5772 H 570.872 -1.3163 -3.94731 0
M  V30 5773 H 569.748 -1.3094 -5.33053 0
M  V30 5774 H 570.009 0.168525 -4.41779 0
M  V30 5775 N 569.068 1.32177 -0.85831 0
M  V30 5776 C 570.345 1.91781 -0.384624 0
M  V30 5777 C 570.725 1.78171 1.13217 0
M  V30 5778 O 570.073 1.18209 1.95548 0
M  V30 5779 C 570.283 3.38414 -0.853047 0
M  V30 5780 C 571.631 4.15542 -0.872359 0
M  V30 5781 O 572.655 3.47148 -0.797926 0
M  V30 5782 O 571.514 5.37678 -0.978009 0
M  V30 5783 H 568.608 0.819259 -0.112886 0
M  V30 5784 H 571.154 1.40923 -0.945453 0
M  V30 5785 H 569.926 3.4228 -1.89632 0
M  V30 5786 H 569.549 3.96683 -0.269874 0
M  V30 5787 N 570.547 0.616602 1.45037 0
M  V30 5788 C 571.963 0.280994 1.57107 0
M  V30 5789 C 572.163 -1.21627 1.60653 0
M  V30 5790 O 571.219 -1.9997 1.54169 0
M  V30 5791 C 572.532 0.960116 2.8496 0
M  V30 5792 C 574.08 0.936884 2.98649 0
M  V30 5793 C 574.555 1.59619 4.29285 0
M  V30 5794 N 576.046 1.5621 4.36065 0
M  V30 5795 C 576.781 2.04131 5.35834 0
M  V30 5796 N 576.277 2.60177 6.4209 0
M  V30 5797 N 578.07 1.94845 5.27249 0
M  V30 5798 H 570.221 1.58867 1.40979 0
M  V30 5799 H 572.484 0.666024 0.674623 0
M  V30 5800 H 572.19 2.01473 2.88273 0
M  V30 5801 H 572.064 0.488921 3.74018 0
M  V30 5802 H 574.451 -0.109209 2.94898 0
M  V30 5803 H 574.532 1.44643 2.10979 0
M  V30 5804 H 574.176 2.64166 4.33796 0
M  V30 5805 H 574.106 1.06159 5.15789 0
M  V30 5806 H 576.597 1.15276 3.59889 0
M  V30 5807 H 576.91 2.94513 7.1448 0
M  V30 5808 H 575.255 2.64221 6.42816 0
M  V30 5809 H 578.446 1.50792 4.43147 0
M  V30 5810 H 578.619 2.32504 6.04852 0
M  V30 5811 N 572.025 -1.5352 0.356285 0
M  V30 5812 C 573.25 -2.06007 -0.239961 0
M  V30 5813 C 573.675 -1.22872 -1.42422 0
M  V30 5814 O 573.033 -0.245516 -1.7963 0
M  V30 5815 C 573.081 -3.5522 -0.620587 0
M  V30 5816 O 572.185 -3.74864 -1.71902 0
M  V30 5817 H 571.526 -0.662961 -0.0371377 0
M  V30 5818 H 574.056 -1.98033 0.514194 0
M  V30 5819 H 574.066 -3.98081 -0.894197 0
M  V30 5820 H 572.741 -4.15175 0.245407 0
M  V30 5821 H 571.318 -3.43904 -1.44169 0
M  V30 5822 N 573.503 -0.0852151 -1.57369 0
M  V30 5823 C 574.451 0.894856 -2.14698 0
M  V30 5824 C 575.445 1.29903 -1.08727 0
M  V30 5825 O 576.651 1.27471 -1.27088 0
M  V30 5826 H 573.026 0.306569 -0.686673 0
M  V30 5827 H 574.997 0.386542 -2.95886 0
M  V30 5828 C 573.746 2.14798 -2.73417 0
M  V30 5829 H 573.069 1.84585 -3.54638 0
M  V30 5830 H 574.509 2.81456 -3.1711 0
M  V30 5831 C 572.968 2.91546 -1.68828 0
M  V30 5832 O 573.498 3.85733 -1.12129 0
M  V30 5833 N 571.704 2.54901 -1.39549 0
M  V30 5834 H 571.251 1.7838 -1.85845 0
M  V30 5835 H 571.209 3.06553 -0.698054 0
M  V30 5836 N 574.981 1.5647 0.188427 0
M  V30 5837 C 576.229 1.80655 0.905986 0
M  V30 5838 C 576.55 0.659391 1.83513 0
M  V30 5839 O 575.82 -0.321868 1.93238 0
M  V30 5840 H 574.4 0.666391 0.337538 0
M  V30 5841 H 577.062 1.93949 0.192339 0
M  V30 5842 H 576.158 2.74066 1.49313 0
M  V30 5843 N 576.459 -0.456382 1.50847 0
M  V30 5844 C 577.406 -1.55249 1.70782 0
M  V30 5845 C 578.376 -1.56757 0.549231 0
M  V30 5846 O 579.561 -1.74061 0.7815 0
M  V30 5847 C 576.701 -2.93118 1.82143 0
M  V30 5848 C 575.814 -3.01285 3.09598 0
M  V30 5849 C 574.949 -4.30159 3.11667 0
M  V30 5850 C 573.988 -4.32124 4.33515 0
M  V30 5851 N 573.125 -5.52492 4.3324 0
M  V30 5852 H 577.965 -1.37555 2.64353 0
M  V30 5853 H 575.502 -0.668543 1.3103 0
M  V30 5854 H 577.46 -3.73088 1.86711 0
M  V30 5855 H 576.09 -3.09413 0.919978 0
M  V30 5856 H 575.142 -2.14096 3.14431 0
M  V30 5857 H 576.454 -2.98597 3.99551 0
M  V30 5858 H 575.608 -5.18489 3.15046 0
M  V30 5859 H 574.347 -4.35477 2.1957 0
M  V30 5860 H 573.352 -3.42189 4.30333 0
M  V30 5861 H 574.577 -4.28485 5.26856 0
M  V30 5862 H 572.523 -5.58567 3.44004 0
M  V30 5863 H 572.44 -5.51605 5.16979 0
M  V30 5864 H 573.708 -6.42906 4.40786 0
M  V30 5865 N 577.937 -1.40673 -0.710563 0
M  V30 5866 C 578.867 -1.44095 -1.83736 0
M  V30 5867 C 579.848 -0.301286 -1.67411 0
M  V30 5868 O 581.033 -0.510618 -1.87367 0
M  V30 5869 C 578.163 -1.30773 -3.21738 0
M  V30 5870 C 577.117 -2.42395 -3.52745 0
M  V30 5871 C 576.443 -2.14147 -4.89944 0
M  V30 5872 C 577.743 -3.84738 -3.53234 0
M  V30 5873 H 579.437 -2.38396 -1.81129 0
M  V30 5874 H 576.983 -1.14746 -0.870017 0
M  V30 5875 H 578.936 -1.31783 -4.00264 0
M  V30 5876 H 577.66 -0.329507 -3.24934 0
M  V30 5877 H 576.319 -2.40643 -2.76562 0
M  V30 5878 H 575.967 -1.14703 -4.89747 0
M  V30 5879 H 575.667 -2.88934 -5.11655 0
M  V30 5880 H 577.191 -2.16848 -5.70797 0
M  V30 5881 H 578.605 -3.88286 -4.2179 0
M  V30 5882 H 577.002 -4.59085 -3.86473 0
M  V30 5883 H 578.072 -4.13962 -2.52514 0
M  V30 5884 N 579.415 0.9433 -1.26252 0
M  V30 5885 C 580.347 2.04542 -1.03417 0
M  V30 5886 C 581.36 1.62799 0.0046911 0
M  V30 5887 O 582.549 1.76944 -0.235146 0
M  V30 5888 C 579.649 3.34511 -0.543671 0
M  V30 5889 C 578.822 4.05033 -1.65128 0
M  V30 5890 C 577.881 5.13273 -1.1592 0
M  V30 5891 O 576.907 5.38095 -1.85586 0
M  V30 5892 N 578.109 5.805 -0.00649279 0
M  V30 5893 H 580.874 2.24699 -1.98319 0
M  V30 5894 H 578.435 1.11264 -1.1761 0
M  V30 5895 H 580.427 4.04212 -0.198703 0
M  V30 5896 H 578.997 3.11042 0.311711 0
M  V30 5897 H 578.217 3.29275 -2.16729 0
M  V30 5898 H 579.505 4.48903 -2.39508 0
M  V30 5899 H 578.903 5.62767 0.575347 0
M  V30 5900 H 577.46 6.51201 0.279416 0
M  V30 5901 N 580.893 1.08022 1.14757 0
M  V30 5902 C 581.841 0.701088 2.21783 0
M  V30 5903 C 582.835 -0.291311 1.66876 0
M  V30 5904 O 584.041 -0.154296 1.79337 0
M  V30 5905 H 580.416 0.208668 0.722469 0
M  V30 5906 H 582.387 1.61321 2.51034 0
M  V30 5907 C 581.136 0.122278 3.47485 0
M  V30 5908 H 580.459 0.877065 3.90061 0
M  V30 5909 H 581.899 -0.105248 4.23869 0
M  V30 5910 C 580.358 -1.13883 3.17068 0
M  V30 5911 O 580.888 -2.22429 3.34497 0
M  V30 5912 N 579.094 -1.04767 2.71058 0
M  V30 5913 H 578.641 -0.164302 2.57075 0
M  V30 5914 H 578.599 -1.89224 2.51081 0
M  V30 5915 N 582.371 -1.3172 0.865308 0
M  V30 5916 C 583.334 -2.26918 0.322627 0
M  V30 5917 C 584.334 -1.52031 -0.523751 0
M  V30 5918 O 585.524 -1.70973 -0.333727 0
M  V30 5919 C 582.656 -3.36558 -0.542338 0
M  V30 5920 H 583.849 -2.76432 1.16298 0
M  V30 5921 H 581.402 -1.42573 0.640512 0
M  V30 5922 H 582.137 -2.92329 -1.40407 0
M  V30 5923 H 581.922 -3.92048 0.0636395 0
M  V30 5924 H 583.412 -4.07465 -0.91446 0
M  V30 5925 N 583.85 -0.624285 -1.44708 0
M  V30 5926 C 585.096 -0.126051 -2.02107 0
M  V30 5927 C 585.425 1.2496 -1.49048 0
M  V30 5928 O 584.68 1.84163 -0.662005 0
M  V30 5929 C 584.979 -0.0546353 -3.57358 0
M  V30 5930 C 584.644 -1.36815 -4.29642 0
M  V30 5931 C 583.307 -1.72792 -4.49106 0
M  V30 5932 C 585.659 -2.23549 -4.70824 0
M  V30 5933 C 582.986 -2.95222 -5.07012 0
M  V30 5934 C 585.339 -3.45243 -5.30085 0
M  V30 5935 C 584.003 -3.81452 -5.47769 0
M  V30 5936 H 583.273 -0.0461252 -0.739563 0
M  V30 5937 H 585.92 -0.809236 -1.73562 0
M  V30 5938 H 584.225 0.711891 -3.85278 0
M  V30 5939 H 585.922 0.347282 -3.99493 0
M  V30 5940 H 582.512 -1.07817 -4.14817 0
M  V30 5941 H 586.696 -1.9705 -4.55505 0
M  V30 5942 H 581.952 -3.23361 -5.18891 0
M  V30 5943 H 586.125 -4.12689 -5.60946 0
M  V30 5944 H 583.753 -4.76403 -5.92405 0
M  V30 5945 N 585.328 1.53329 -0.364422 0
M  V30 5946 C 586.739 1.86345 0.115039 0
M  V30 5947 C 587.09 1.28505 1.4826 0
M  V30 5948 O 586.215 0.606639 2.07723 0
M  V30 5949 C 586.81 3.38114 0.215522 0
M  V30 5950 C 585.369 3.70932 0.639237 0
M  V30 5951 C 584.516 2.76471 -0.214261 0
M  V30 5952 H 587.467 1.47593 -0.583258 0
M  V30 5953 H 587.488 3.66031 1.0393 0
M  V30 5954 H 587 3.80182 -0.779948 0
M  V30 5955 H 585.101 3.3442 1.64298 0
M  V30 5956 H 585.214 4.77302 0.41465 0
M  V30 5957 H 583.578 2.52724 0.316678 0
M  V30 5958 H 584.361 3.21373 -1.20725 0
M  V30 5959 N 586.806 0.0935595 1.57322 0
M  V30 5960 C 588.053 -0.570509 1.94297 0
M  V30 5961 C 588.381 -1.68286 0.97519 0
M  V30 5962 O 587.636 -1.95699 -0.00548655 0
M  V30 5963 C 587.935 -1.16692 3.37813 0
M  V30 5964 C 587.601 -0.178509 4.50547 0
M  V30 5965 C 586.263 0.0933475 4.81109 0
M  V30 5966 C 588.615 0.496472 5.1883 0
M  V30 5967 C 585.943 1.0469 5.77284 0
M  V30 5968 C 588.295 1.43849 6.16028 0
M  V30 5969 C 586.959 1.71859 6.44997 0
M  V30 5970 H 586.229 -0.208764 0.710984 0
M  V30 5971 H 588.876 0.169066 1.90752 0
M  V30 5972 H 587.181 -1.98271 3.37929 0
M  V30 5973 H 588.878 -1.6884 3.63722 0
M  V30 5974 H 585.468 -0.400584 4.26724 0
M  V30 5975 H 589.652 0.299584 4.95395 0
M  V30 5976 H 584.908 1.27094 5.98044 0
M  V30 5977 H 589.082 1.96734 6.68034 0
M  V30 5978 H 586.709 2.45906 7.19329 0
M  V30 5979 N 588.284 -1.56567 -0.180126 0
M  V30 5980 C 589.53 -1.81761 -0.899497 0
M  V30 5981 C 589.863 -0.670015 -1.82276 0
M  V30 5982 O 589.138 0.328575 -1.91705 0
M  V30 5983 C 589.421 -3.17296 -1.7028 0
M  V30 5984 C 589.274 -4.4257 -0.803255 0
M  V30 5985 C 590.593 -3.49678 -2.67233 0
M  V30 5986 H 587.712 -0.661192 -0.325567 0
M  V30 5987 H 590.354 -1.89272 -0.16612 0
M  V30 5988 H 588.504 -3.11023 -2.32802 0
M  V30 5989 H 590.176 -4.60902 -0.191585 0
M  V30 5990 H 588.419 -4.33658 -0.110796 0
M  V30 5991 H 589.09 -5.33935 -1.40064 0
M  V30 5992 H 591.566 -3.56347 -2.14839 0
M  V30 5993 H 590.442 -4.45605 -3.20511 0
M  V30 5994 H 590.703 -2.73932 -3.47007 0
M  V30 5995 N 589.762 0.448376 -1.51087 0
M  V30 5996 C 591.039 1.20926 -1.53741 0
M  V30 5997 C 591.419 2.09025 -0.295222 0
M  V30 5998 O 590.767 2.16851 0.720283 0
M  V30 5999 C 590.977 2.02067 -2.84552 0
M  V30 6000 C 592.325 2.59486 -3.36084 0
M  V30 6001 O 593.349 2.12289 -2.86028 0
M  V30 6002 O 592.208 3.45539 -4.23397 0
M  V30 6003 H 589.302 0.549951 -0.617643 0
M  V30 6004 H 591.848 0.458344 -1.63393 0
M  V30 6005 H 590.62 1.37291 -3.66425 0
M  V30 6006 H 590.243 2.84246 -2.78011 0
M  V30 6007 N 591.24 1.41047 0.703093 0
M  V30 6008 C 592.188 1.42494 1.83843 0
M  V30 6009 C 593.182 0.303885 1.66652 0
M  V30 6010 O 594.388 0.475544 1.73605 0
M  V30 6011 H 590.763 0.445685 0.605697 0
M  V30 6012 H 592.734 2.38194 1.79739 0
M  V30 6013 C 591.483 1.31666 3.21807 0
M  V30 6014 H 590.806 2.17212 3.35647 0
M  V30 6015 H 592.246 1.36738 4.01346 0
M  V30 6016 C 590.705 0.0281828 3.36888 0
M  V30 6017 O 591.235 -0.929995 3.90786 0
M  V30 6018 N 589.441 -0.0454322 2.90564 0
M  V30 6019 H 588.988 0.735046 2.4689 0
M  V30 6020 H 588.946 -0.906968 3.01034 0
M  V30 6021 N 592.718 -0.936591 1.26751 0
M  V30 6022 C 593.967 -1.67778 1.11953 0
M  V30 6023 C 594.28 -1.92694 -0.33589 0
M  V30 6024 O 595.486 -2.64682 -0.604618 0
M  V30 6025 C 593.942 -3.02138 1.95551 0
M  V30 6026 C 593.55 -2.84953 3.45696 0
M  V30 6027 C 595.294 -3.79917 1.89377 0
M  V30 6028 C 593.201 -4.14814 4.21525 0
M  V30 6029 H 592.131 -0.629275 0.415366 0
M  V30 6030 H 594.782 -1.04122 1.51099 0
M  V30 6031 H 593.164 -3.668 1.49243 0
M  V30 6032 H 594.338 -2.29112 3.99805 0
M  V30 6033 H 592.653 -2.20612 3.53156 0
M  V30 6034 H 595.25 -4.76134 2.43312 0
M  V30 6035 H 595.593 -4.07204 0.865464 0
M  V30 6036 H 596.126 -3.22037 2.33532 0
M  V30 6037 H 592.865 -3.92709 5.24843 0
M  V30 6038 H 592.385 -4.70352 3.72195 0
M  V30 6039 H 594.064 -4.83239 4.3022 0
M  V30 6040 N 594.196 -1.08629 -1.14182 0
M  V30 6041 C 595.424 -0.838889 -1.8913 0
M  V30 6042 C 595.839 0.609153 -1.78703 0
M  V30 6043 O 595.196 1.41876 -1.14794 0
M  V30 6044 C 595.247 -1.25477 -3.39025 0
M  V30 6045 O 594.968 -2.64601 -3.49167 0
M  V30 6046 C 596.469 -1.03856 -4.30963 0
M  V30 6047 H 593.689 -0.302377 -0.599007 0
M  V30 6048 H 596.233 -1.44615 -1.44592 0
M  V30 6049 H 594.388 -0.691571 -3.81177 0
M  V30 6050 H 594.802 -2.81922 -4.42289 0
M  V30 6051 H 596.276 -1.37892 -5.345 0
M  V30 6052 H 596.753 0.0242522 -4.39193 0
M  V30 6053 H 597.359 -1.58731 -3.94569 0
M  V30 6054 N 595.674 1.31259 -0.872281 0
M  V30 6055 C 596.92 1.973 -0.494414 0
M  V30 6056 C 597.275 1.67684 0.94339 0
M  V30 6057 O 596.568 0.964186 1.65572 0
M  V30 6058 C 596.762 3.50659 -0.690889 0
M  V30 6059 C 596.591 3.95179 -2.14624 0
M  V30 6060 C 595.361 4.21405 -2.7883 0
M  V30 6061 C 597.559 4.08948 -3.11875 0
M  V30 6062 N 595.541 4.52295 -4.15093 0
M  V30 6063 C 596.912 4.43576 -4.33174 0
M  V30 6064 C 598.967 3.91334 -3.07835 0
M  V30 6065 C 597.67 4.62429 -5.50956 0
M  V30 6066 C 599.696 4.11381 -4.24876 0
M  V30 6067 C 599.058 4.46343 -5.44938 0
M  V30 6068 H 595.157 0.747411 -0.230002 0
M  V30 6069 H 597.741 1.58741 -1.12736 0
M  V30 6070 H 595.912 3.88301 -0.0875162 0
M  V30 6071 H 597.644 4.03722 -0.281179 0
M  V30 6072 H 594.399 4.14131 -2.29767 0
M  V30 6073 H 594.823 4.71897 -4.8543 0
M  V30 6074 H 599.465 3.6339 -2.16119 0
M  V30 6075 H 597.183 4.8922 -6.43187 0
M  V30 6076 H 600.769 3.99235 -4.23205 0
M  V30 6077 H 599.649 4.6154 -6.33996 0
M  V30 6078 N 597.152 0.631951 1.44375 0
M  V30 6079 C 598.115 -0.0628142 2.29114 0
M  V30 6080 C 599.115 -0.771494 1.41084 0
M  V30 6081 O 600.305 -0.615959 1.62947 0
M  V30 6082 C 597.437 -1.09953 3.22681 0
M  V30 6083 H 598.63 0.682509 2.92031 0
M  V30 6084 H 596.183 0.392128 1.51301 0
M  V30 6085 H 596.918 -1.87481 2.64616 0
M  V30 6086 H 596.703 -0.595286 3.87555 0
M  V30 6087 H 598.193 -1.58538 3.86336 0
M  V30 6088 N 598.631 -1.53133 0.372548 0
M  V30 6089 C 599.856 -2.0625 -0.218098 0
M  V30 6090 C 600.281 -1.24375 -1.41111 0
M  V30 6091 O 599.639 -0.264554 -1.79359 0
M  V30 6092 C 599.687 -3.55858 -0.582876 0
M  V30 6093 O 598.791 -3.76667 -1.67917 0
M  V30 6094 H 598.132 -0.663317 -0.030104 0
M  V30 6095 H 600.662 -1.97477 0.535169 0
M  V30 6096 H 600.672 -3.99007 -0.851925 0
M  V30 6097 H 599.347 -4.14892 0.289428 0
M  V30 6098 H 597.924 -3.45413 -1.40513 0
M  V30 6099 N 600.109 -0.101901 -1.5727 0
M  V30 6100 C 601.059 0.865346 -2.1094 0
M  V30 6101 C 602.043 1.2394 -1.02605 0
M  V30 6102 O 603.235 1.21334 -1.28868 0
M  V30 6103 C 600.364 2.12187 -2.69874 0
M  V30 6104 C 599.45 1.77295 -3.85263 0
M  V30 6105 N 599.841 1.12993 -4.93017 0
M  V30 6106 C 598.139 2.06862 -3.95126 0
M  V30 6107 C 598.84 0.968631 -5.73579 0
M  V30 6108 N 597.816 1.48814 -5.22834 0
M  V30 6109 H 601.618 0.364368 -2.91633 0
M  V30 6110 H 599.132 0.101104 -1.62085 0
M  V30 6111 H 601.129 2.82431 -3.06657 0
M  V30 6112 H 599.789 2.62844 -1.90639 0
M  V30 6113 H 600.8 0.795935 -5.11747 0
M  V30 6114 H 597.477 2.59686 -3.26909 0
M  V30 6115 H 598.867 0.465231 -6.70287 0
M  V30 6116 N 601.587 1.56661 0.17182 0
M  V30 6117 C 602.836 1.81158 0.886831 0
M  V30 6118 C 603.149 0.679072 1.83434 0
M  V30 6119 O 604.355 0.808964 2.59168 0
M  V30 6120 C 602.811 3.20999 1.6275 0
M  V30 6121 C 602.419 4.42117 0.723652 0
M  V30 6122 C 604.163 3.5479 2.33076 0
M  V30 6123 C 602.07 5.7298 1.46452 0
M  V30 6124 H 601 0.675543 0.334899 0
M  V30 6125 H 603.651 1.82967 0.139765 0
M  V30 6126 H 602.033 3.13506 2.4193 0
M  V30 6127 H 603.207 4.60789 -0.0311485 0
M  V30 6128 H 601.522 4.16197 0.130063 0
M  V30 6129 H 604.119 4.49806 2.89099 0
M  V30 6130 H 604.462 2.79646 3.08389 0
M  V30 6131 H 604.995 3.63834 1.6084 0
M  V30 6132 H 601.734 6.51152 0.753729 0
M  V30 6133 H 601.254 5.58285 2.19266 0
M  V30 6134 H 602.933 6.14916 2.01214 0
M  V30 6135 N 603.065 -0.440357 1.51323 0
M  V30 6136 C 604.342 -1.20109 1.5438 0
M  V30 6137 C 604.722 -2.08866 0.306303 0
M  V30 6138 O 604.07 -2.1723 -0.708773 0
M  V30 6139 C 604.28 -2.00555 2.8562 0
M  V30 6140 C 605.628 -2.577 3.37455 0
M  V30 6141 O 606.652 -2.10769 2.8715 0
M  V30 6142 O 605.511 -3.43289 4.25224 0
M  V30 6143 H 602.605 -0.546668 0.620551 0
M  V30 6144 H 605.151 -0.449672 1.63634 0
M  V30 6145 H 603.923 -1.35346 3.67147 0
M  V30 6146 H 603.546 -2.82768 2.79514 0
M  V30 6147 N 604.543 -1.41418 -0.695603 0
M  V30 6148 C 605.473 -1.46035 -1.82197 0
M  V30 6149 C 606.454 -0.319025 -1.67082 0
M  V30 6150 O 607.639 -0.530462 -1.86815 0
M  V30 6151 C 604.769 -1.34179 -3.20333 0
M  V30 6152 C 603.723 -2.46123 -3.50154 0
M  V30 6153 C 603.049 -2.19332 -4.87645 0
M  V30 6154 C 604.349 -3.88463 -3.49133 0
M  V30 6155 H 606.043 -2.40303 -1.78591 0
M  V30 6156 H 603.589 -1.15663 -0.857797 0
M  V30 6157 H 605.542 -1.36021 -3.98844 0
M  V30 6158 H 604.266 -0.363952 -3.24566 0
M  V30 6159 H 602.925 -2.43563 -2.73994 0
M  V30 6160 H 602.573 -1.19891 -4.88503 0
M  V30 6161 H 602.273 -2.94344 -5.08562 0
M  V30 6162 H 603.797 -2.22889 -5.68465 0
M  V30 6163 H 605.211 -3.92738 -4.17648 0
M  V30 6164 H 603.608 -4.63158 -3.81582 0
M  V30 6165 H 604.678 -4.16617 -2.48109 0
M  V30 6166 N 606.021 0.929856 -1.27246 0
M  V30 6167 C 606.968 2.03017 -1.09785 0
M  V30 6168 C 607.938 1.661 0.000456744 0
M  V30 6169 O 609.123 1.90116 -0.161462 0
M  V30 6170 C 606.263 3.36878 -0.748816 0
M  V30 6171 C 605.376 3.86763 -1.92453 0
M  V30 6172 C 604.511 5.09061 -1.51758 0
M  V30 6173 C 603.55 5.51237 -2.66091 0
M  V30 6174 N 602.687 6.64732 -2.25999 0
M  V30 6175 H 607.527 2.17285 -2.03939 0
M  V30 6176 H 605.064 1.06448 -1.01524 0
M  V30 6177 H 607.022 4.13855 -0.527283 0
M  V30 6178 H 605.652 3.22424 0.155771 0
M  V30 6179 H 604.704 3.06086 -2.25867 0
M  V30 6180 H 606.016 4.13994 -2.78227 0
M  V30 6181 H 605.17 5.93532 -1.25716 0
M  V30 6182 H 603.909 4.83602 -0.630896 0
M  V30 6183 H 602.914 4.65316 -2.92849 0
M  V30 6184 H 604.139 5.78692 -3.55377 0
M  V30 6185 H 602.085 6.40935 -1.3978 0
M  V30 6186 H 602.002 6.91607 -3.05313 0
M  V30 6187 H 603.27 7.52549 -2.03199 0
M  V30 6188 N 607.499 1.09233 1.13605 0
M  V30 6189 C 608.727 0.848908 1.88683 0
M  V30 6190 C 609.142 -0.599667 1.79024 0
M  V30 6191 O 608.499 -1.41265 1.15544 0
M  V30 6192 C 608.55 1.27273 3.38355 0
M  V30 6193 O 608.271 2.66449 3.47759 0
M  V30 6194 C 609.772 1.0614 4.30406 0
M  V30 6195 H 606.992 0.305549 0.597395 0
M  V30 6196 H 609.536 1.4538 1.43823 0
M  V30 6197 H 607.691 0.711776 3.80805 0
M  V30 6198 H 608.105 2.84264 4.40788 0
M  V30 6199 H 609.579 1.40725 5.33761 0
M  V30 6200 H 610.056 -0.000960332 4.392 0
M  V30 6201 H 610.662 1.60821 3.93722 0
M  V30 6202 N 608.977 -1.30795 0.87923 0
M  V30 6203 C 610.225 -1.95974 0.493809 0
M  V30 6204 C 610.546 -1.69787 -0.959021 0
M  V30 6205 O 609.816 -1.01832 -1.67353 0
M  V30 6206 H 608.396 -0.725083 0.179622 0
M  V30 6207 H 611.058 -1.59432 1.12105 0
M  V30 6208 H 610.154 -3.05058 0.659263 0
M  V30 6209 N 610.455 -0.639598 -1.44038 0
M  V30 6210 C 611.871 -0.305953 -1.5664 0
M  V30 6211 C 612.071 1.19055 -1.62567 0
M  V30 6212 O 611.127 1.97492 -1.57331 0
M  V30 6213 C 612.44 -1.00533 -2.83397 0
M  V30 6214 C 613.988 -0.984278 -2.97121 0
M  V30 6215 C 614.463 -1.66428 -4.26691 0
M  V30 6216 N 615.954 -1.63127 -4.33525 0
M  V30 6217 C 616.689 -2.12629 -5.32519 0
M  V30 6218 N 616.185 -2.70359 -6.3787 0
M  V30 6219 N 617.978 -2.03208 -5.24083 0
M  V30 6220 H 610.129 -1.6109 -1.38434 0
M  V30 6221 H 612.392 -0.676672 -0.663942 0
M  V30 6222 H 612.098 -2.06034 -2.85032 0
M  V30 6223 H 611.972 -0.548362 -3.73193 0
M  V30 6224 H 614.359 0.0622792 -2.95034 0
M  V30 6225 H 614.44 -1.47981 -2.08651 0
M  V30 6226 H 614.084 -2.71034 -4.29538 0
M  V30 6227 H 614.014 -1.14351 -5.14034 0
M  V30 6228 H 616.505 -1.20987 -3.58009 0
M  V30 6229 H 616.818 -3.05842 -7.09704 0
M  V30 6230 H 615.163 -2.74414 -6.38531 0
M  V30 6231 H 618.354 -1.57823 -4.40692 0
M  V30 6232 H 618.527 -2.42097 -6.01077 0
M  V30 6233 N 611.933 1.52934 -0.380664 0
M  V30 6234 C 613.344 1.86457 0.0952684 0
M  V30 6235 C 613.695 1.3007 1.46889 0
M  V30 6236 O 612.82 0.628636 2.07068 0
M  V30 6237 C 613.415 3.38323 0.179648 0
M  V30 6238 C 611.974 3.71589 0.599858 0
M  V30 6239 C 611.121 2.76228 -0.243572 0
M  V30 6240 H 614.072 1.46966 -0.59888 0
M  V30 6241 H 614.093 3.67113 1.00042 0
M  V30 6242 H 613.605 3.79333 -0.820228 0
M  V30 6243 H 611.706 3.36144 1.60742 0
M  V30 6244 H 611.819 4.77715 0.364003 0
M  V30 6245 H 610.183 2.53045 0.289855 0
M  V30 6246 H 610.966 3.20074 -1.24127 0
M  V30 6247 N 613.412 0.11024 1.57214 0
M  V30 6248 C 614.658 -0.550684 1.9518 0
M  V30 6249 C 614.991 -1.66885 0.993122 0
M  V30 6250 O 614.266 -1.94479 0.0287907 0
M  V30 6251 C 614.549 -1.09163 3.43155 0
M  V30 6252 C 614.402 0.0225198 4.49794 0
M  V30 6253 C 615.721 -1.98527 3.92778 0
M  V30 6254 H 612.84 -0.198706 0.709708 0
M  V30 6255 H 615.482 0.184024 1.89107 0
M  V30 6256 H 613.632 -1.71775 3.48462 0
M  V30 6257 H 615.304 0.657443 4.56591 0
M  V30 6258 H 613.547 0.686868 4.28328 0
M  V30 6259 H 614.218 -0.39706 5.5057 0
M  V30 6260 H 616.694 -1.458 3.8972 0
M  V30 6261 H 615.57 -2.33298 4.96853 0
M  V30 6262 H 615.831 -2.90846 3.32958 0
M  V30 6263 N 614.89 -1.56749 -0.16351 0
M  V30 6264 C 615.8 -2.00255 -1.2221 0
M  V30 6265 C 616.816 -0.915194 -1.47987 0
M  V30 6266 O 617.992 -1.22342 -1.59982 0
M  V30 6267 C 615.057 -2.36035 -2.53946 0
M  V30 6268 C 614.118 -3.58637 -2.35962 0
M  V30 6269 C 613.351 -3.92701 -3.61416 0
M  V30 6270 O 613.574 -3.27632 -4.66919 0
M  V30 6271 O 612.508 -4.86019 -3.55062 0
M  V30 6272 H 616.334 -2.90586 -0.882794 0
M  V30 6273 H 613.919 -1.44721 -0.370978 0
M  V30 6274 H 615.801 -2.59982 -3.31643 0
M  V30 6275 H 614.476 -1.48863 -2.8744 0
M  V30 6276 H 613.383 -3.39898 -1.5627 0
M  V30 6277 H 614.716 -4.46374 -2.0739 0
M  V30 6278 N 616.368 0.432326 -1.51554 0
M  V30 6279 C 617.784 0.769195 -1.39841 0
M  V30 6280 C 617.984 1.95584 -0.484675 0
M  V30 6281 O 617.04 2.52433 0.0582829 0
M  V30 6282 C 618.353 1.04487 -2.81963 0
M  V30 6283 C 619.901 1.149 -2.91148 0
M  V30 6284 C 620.376 1.45758 -4.34187 0
M  V30 6285 N 621.867 1.52671 -4.37317 0
M  V30 6286 C 622.602 1.78129 -5.4503 0
M  V30 6287 N 622.098 2.01345 -6.62897 0
M  V30 6288 N 623.891 1.79953 -5.32516 0
M  V30 6289 H 616.042 -0.349122 -2.09511 0
M  V30 6290 H 618.305 -0.0938113 -0.943347 0
M  V30 6291 H 618.011 0.24557 -3.50842 0
M  V30 6292 H 617.885 1.97119 -3.21596 0
M  V30 6293 H 620.272 1.93891 -2.22464 0
M  V30 6294 H 620.353 0.201568 -2.55005 0
M  V30 6295 H 619.997 0.672917 -5.03423 0
M  V30 6296 H 619.927 2.41715 -4.67848 0
M  V30 6297 H 622.418 1.36612 -3.52343 0
M  V30 6298 H 622.731 2.20155 -7.40778 0
M  V30 6299 H 621.076 1.98657 -6.66003 0
M  V30 6300 H 624.267 1.61337 -4.39418 0
M  V30 6301 H 624.44 1.99455 -6.1654 0
M  V30 6302 N 617.846 1.41785 0.688094 0
M  V30 6303 C 618.756 1.46596 1.83158 0
M  V30 6304 C 619.772 0.355862 1.70322 0
M  V30 6305 O 620.948 0.604737 1.92106 0
M  V30 6306 C 618.013 1.35322 3.192 0
M  V30 6307 C 617.074 2.56711 3.4409 0
M  V30 6308 C 616.307 2.45965 4.73642 0
M  V30 6309 O 616.53 1.48827 5.50642 0
M  V30 6310 O 615.464 3.35859 4.99482 0
M  V30 6311 H 619.29 2.43083 1.82056 0
M  V30 6312 H 616.875 1.23404 0.842126 0
M  V30 6313 H 618.757 1.31347 4.00407 0
M  V30 6314 H 617.432 0.419536 3.2097 0
M  V30 6315 H 616.339 2.66262 2.62784 0
M  V30 6316 H 617.672 3.48933 3.47141 0
M  V30 6317 N 619.324 -0.923095 1.27737 0
M  V30 6318 C 620.572 -1.66797 1.14119 0
M  V30 6319 C 620.893 -1.92479 -0.312541 0
M  V30 6320 O 620.163 -1.53432 -1.218 0
M  V30 6321 H 618.743 -0.618196 0.419336 0
M  V30 6322 H 621.405 -1.10815 1.60331 0
M  V30 6323 H 620.501 -2.63424 1.67374 0
M  V30 6324 N 620.802 -1.09834 -1.13024 0
M  V30 6325 C 621.734 -0.699379 -2.18269 0
M  V30 6326 C 622.747 0.260841 -1.60697 0
M  V30 6327 O 623.936 0.0462538 -1.7844 0
M  V30 6328 C 621.036 -0.0104537 -3.38898 0
M  V30 6329 C 620.209 -0.993275 -4.25973 0
M  V30 6330 C 619.268 -0.336982 -5.2512 0
M  V30 6331 O 618.294 -0.985892 -5.60597 0
M  V30 6332 N 619.496 0.90716 -5.73368 0
M  V30 6333 H 622.261 -1.60486 -2.5311 0
M  V30 6334 H 619.822 -0.986337 -1.28386 0
M  V30 6335 H 621.814 0.43991 -4.02302 0
M  V30 6336 H 620.384 0.797335 -3.0226 0
M  V30 6337 H 619.604 -1.62208 -3.5928 0
M  V30 6338 H 620.892 -1.65876 -4.81002 0
M  V30 6339 H 620.29 1.45384 -5.46699 0
M  V30 6340 H 618.847 1.30077 -6.38689 0
M  V30 6341 N 622.28 1.30327 -0.886154 0
M  V30 6342 C 623.696 1.48676 -0.580323 0
M  V30 6343 C 623.896 1.81189 0.881639 0
M  V30 6344 O 622.952 1.90021 1.66278 0
M  V30 6345 C 624.265 2.60932 -1.49449 0
M  V30 6346 C 625.813 2.74812 -1.49824 0
M  V30 6347 C 626.288 3.90183 -2.39836 0
M  V30 6348 N 627.779 3.97495 -2.37806 0
M  V30 6349 C 628.514 4.86078 -3.04165 0
M  V30 6350 N 628.01 5.79448 -3.79753 0
M  V30 6351 N 629.803 4.79456 -2.93391 0
M  V30 6352 H 621.954 1.07495 -1.8319 0
M  V30 6353 H 624.217 0.532661 -0.784204 0
M  V30 6354 H 623.923 2.43731 -2.5355 0
M  V30 6355 H 623.797 3.57437 -1.20494 0
M  V30 6356 H 626.184 2.91418 -0.464731 0
M  V30 6357 H 626.265 1.78924 -1.82811 0
M  V30 6358 H 625.909 3.74334 -3.43273 0
M  V30 6359 H 625.839 4.85411 -2.04166 0
M  V30 6360 H 628.33 3.30703 -1.82877 0
M  V30 6361 H 628.643 6.43805 -4.27475 0
M  V30 6362 H 626.988 5.79376 -3.8386 0
M  V30 6363 H 630.179 4.05494 -2.33864 0
M  V30 6364 H 630.352 5.48283 -3.45383 0
M  V30 6365 N 623.758 0.647228 1.43697 0
M  V30 6366 C 625.169 0.238689 1.85168 0
M  V30 6367 C 625.52 -1.21345 1.54175 0
M  V30 6368 O 624.645 -1.92542 0.987743 0
M  V30 6369 C 625.24 0.426422 3.36106 0
M  V30 6370 C 623.799 0.0722541 3.76331 0
M  V30 6371 C 622.946 0.732153 2.6746 0
M  V30 6372 H 625.897 0.851309 1.33934 0
M  V30 6373 H 625.918 -0.32987 3.79067 0
M  V30 6374 H 625.43 1.48339 3.58632 0
M  V30 6375 H 623.531 -0.982355 3.59417 0
M  V30 6376 H 623.644 0.493541 4.76551 0
M  V30 6377 H 622.008 0.16594 2.54159 0
M  V30 6378 H 622.791 1.79204 2.92816 0
M  V30 6379 N 625.236 -1.5273 0.388769 0
M  V30 6380 C 626.647 -1.86505 -0.0853788 0
M  V30 6381 C 626.998 -1.30847 -1.46197 0
M  V30 6382 O 626.123 -0.639609 -2.06732 0
M  V30 6383 C 626.718 -3.38414 -0.161703 0
M  V30 6384 C 625.277 -3.71902 -0.580144 0
M  V30 6385 C 624.424 -2.76095 0.258218 0
M  V30 6386 H 627.375 -1.46647 0.606665 0
M  V30 6387 H 627.396 -3.67638 -0.980936 0
M  V30 6388 H 626.908 -3.78893 0.840333 0
M  V30 6389 H 625.009 -3.36992 -1.58957 0
M  V30 6390 H 625.122 -4.77902 -0.338663 0
M  V30 6391 H 623.486 -2.53195 -0.276432 0
M  V30 6392 H 624.269 -3.19411 1.25822 0
M  V30 6393 N 626.714 -0.118576 -1.57153 0
M  V30 6394 C 627.644 0.828436 -2.1831 0
M  V30 6395 C 628.625 1.27758 -1.12303 0
M  V30 6396 O 629.81 1.34026 -1.40537 0
M  V30 6397 C 626.94 2.07876 -2.78217 0
M  V30 6398 C 625.894 1.76742 -3.89803 0
M  V30 6399 C 625.22 3.08801 -4.36516 0
M  V30 6400 C 626.52 1.03606 -5.11921 0
M  V30 6401 H 628.214 0.318824 -2.97698 0
M  V30 6402 H 625.76 0.151911 -1.43196 0
M  V30 6403 H 627.713 2.74584 -3.19659 0
M  V30 6404 H 626.437 2.61161 -1.96118 0
M  V30 6405 H 625.096 1.12424 -3.48936 0
M  V30 6406 H 624.744 3.6002 -3.51276 0
M  V30 6407 H 624.444 2.88743 -5.11763 0
M  V30 6408 H 625.968 3.76627 -4.80608 0
M  V30 6409 H 627.382 1.60467 -5.50385 0
M  V30 6410 H 625.779 0.936454 -5.92748 0
M  V30 6411 H 626.849 0.0227421 -4.84895 0
M  V30 6412 N 628.193 1.56834 0.155195 0
M  V30 6413 C 629.604 1.72421 0.716082 0
M  V30 6414 C 629.955 0.731685 1.82046 0
M  V30 6415 O 629.08 -0.103481 2.16152 0
M  V30 6416 C 629.675 3.12629 1.30571 0
M  V30 6417 C 628.234 3.29846 1.81325 0
M  V30 6418 C 627.381 2.68359 0.698494 0
M  V30 6419 H 630.332 1.58544 -0.0703861 0
M  V30 6420 H 630.353 3.12174 2.1755 0
M  V30 6421 H 629.865 3.84844 0.501701 0
M  V30 6422 H 627.966 2.62614 2.64319 0
M  V30 6423 H 628.079 4.37727 1.9476 0
M  V30 6424 H 626.443 2.28604 1.12305 0
M  V30 6425 H 627.226 3.43171 -0.0939366 0
M  V30 6426 N 629.671 -0.424282 1.51781 0
M  V30 6427 C 630.581 -1.54087 1.76902 0
M  V30 6428 C 631.597 -1.61249 0.653826 0
M  V30 6429 O 632.773 -1.78247 0.937552 0
M  V30 6430 C 629.838 -2.8996 1.90063 0
M  V30 6431 C 628.899 -2.92809 3.13945 0
M  V30 6432 C 628.132 -4.22201 3.26469 0
M  V30 6433 O 628.355 -5.15286 2.44616 0
M  V30 6434 O 627.289 -4.31599 4.1953 0
M  V30 6435 H 631.115 -1.358 2.71647 0
M  V30 6436 H 628.7 -0.608618 1.36441 0
M  V30 6437 H 630.582 -3.70575 2.0063 0
M  V30 6438 H 629.257 -3.08347 0.985067 0
M  V30 6439 H 628.164 -2.11102 3.08847 0
M  V30 6440 H 629.497 -2.79369 4.05233 0
M  V30 6441 N 631.149 -1.42148 -0.680565 0
M  V30 6442 C 632.56 -1.3768 -1.26099 0
M  V30 6443 C 632.911 -0.0672348 -1.96085 0
M  V30 6444 O 632.036 0.834172 -1.99676 0
M  V30 6445 C 632.631 -2.49387 -2.29328 0
M  V30 6446 C 631.19 -2.4827 -2.82911 0
M  V30 6447 C 630.337 -2.2847 -1.57152 0
M  V30 6448 H 633.288 -1.51446 -0.474326 0
M  V30 6449 H 633.309 -2.19307 -3.10941 0
M  V30 6450 H 632.821 -3.44686 -1.78363 0
M  V30 6451 H 630.922 -1.56773 -3.38013 0
M  V30 6452 H 631.035 -3.45109 -3.3232 0
M  V30 6453 H 629.399 -1.76623 -1.83511 0
M  V30 6454 H 630.182 -3.25816 -1.0816 0
M  V30 6455 N 632.627 0.916307 -1.28225 0
M  V30 6456 C 633.875 1.6619 -1.15002 0
M  V30 6457 C 634.196 1.92642 0.302329 0
M  V30 6458 O 633.466 1.54076 1.20985 0
M  V30 6459 H 632.046 0.615964 -0.422608 0
M  V30 6460 H 634.708 1.09963 -1.60917 0
M  V30 6461 H 633.804 2.62533 -1.68769 0
M  V30 6462 N 634.105 1.10431 1.1244 0
M  V30 6463 C 635.037 0.710945 2.17895 0
M  V30 6464 C 636.05 -0.252315 1.60833 0
M  V30 6465 O 637.239 -0.03679 1.78462 0
M  V30 6466 C 634.339 0.0284262 3.38888 0
M  V30 6467 C 633.512 1.01585 4.2544 0
M  V30 6468 C 632.571 0.364826 5.24934 0
M  V30 6469 O 631.597 1.01561 5.60066 0
M  V30 6470 N 632.799 -0.87674 5.73841 0
M  V30 6471 H 635.564 1.61826 2.52255 0
M  V30 6472 H 633.125 0.993132 1.27861 0
M  V30 6473 H 635.117 -0.418568 4.0253 0
M  V30 6474 H 633.687 -0.781294 3.02679 0
M  V30 6475 H 632.907 1.64111 3.58415 0
M  V30 6476 H 634.195 1.68425 4.80115 0
M  V30 6477 H 633.593 -1.42483 5.47462 0
M  V30 6478 H 632.15 -1.26688 6.39369 0
M  V30 6479 N 635.583 -1.29855 0.893053 0
M  V30 6480 C 636.53 -2.27909 0.364161 0
M  V30 6481 C 637.5 -1.56726 -0.550093 0
M  V30 6482 O 638.685 -1.84747 -0.47677 0
M  V30 6483 C 635.825 -3.42678 -0.408178 0
M  V30 6484 C 634.938 -4.28659 0.536212 0
M  V30 6485 C 634.073 -5.30599 -0.252521 0
M  V30 6486 C 633.112 -6.08234 0.686822 0
M  V30 6487 N 632.249 -7.02068 -0.0670902 0
M  V30 6488 H 637.089 -2.72531 1.20544 0
M  V30 6489 H 634.626 -1.34047 0.605779 0
M  V30 6490 H 636.584 -4.07986 -0.871962 0
M  V30 6491 H 635.214 -2.99103 -1.21397 0
M  V30 6492 H 634.266 -3.63584 1.1185 0
M  V30 6493 H 635.578 -4.8274 1.25552 0
M  V30 6494 H 634.732 -6.01694 -0.777801 0
M  V30 6495 H 633.471 -4.77233 -1.005 0
M  V30 6496 H 632.476 -5.3601 1.22366 0
M  V30 6497 H 633.701 -6.63689 1.43852 0
M  V30 6498 H 631.647 -6.5108 -0.801955 0
M  V30 6499 H 631.564 -7.53675 0.59243 0
M  V30 6500 H 632.832 -7.77392 -0.572851 0
M  V30 6501 N 637.061 -0.65484 -1.43351 0
M  V30 6502 C 638.011 0.0581325 -2.27926 0
M  V30 6503 C 638.995 0.793188 -1.3999 0
M  V30 6504 O 640.187 0.675387 -1.63608 0
M  V30 6505 C 637.316 1.02272 -3.27712 0
M  V30 6506 C 636.402 0.286048 -4.23134 0
M  V30 6507 N 636.793 -0.698298 -5.00957 0
M  V30 6508 C 635.091 0.527272 -4.42872 0
M  V30 6509 C 635.792 -1.1357 -5.70506 0
M  V30 6510 N 634.768 -0.469631 -5.41568 0
M  V30 6511 H 638.57 -0.697182 -2.85511 0
M  V30 6512 H 636.084 -0.482252 -1.55074 0
M  V30 6513 H 638.081 1.5483 -3.87083 0
M  V30 6514 H 636.741 1.77807 -2.71688 0
M  V30 6515 H 637.752 -1.07708 -5.06576 0
M  V30 6516 H 634.429 1.26367 -3.97916 0
M  V30 6517 H 635.819 -1.95027 -6.42973 0
M  V30 6518 N 638.539 1.52521 -0.396863 0
M  V30 6519 C 639.787 2.01274 0.182536 0
M  V30 6520 C 640.108 1.28485 1.46685 0
M  V30 6521 O 639.378 0.407134 1.91623 0
M  V30 6522 H 637.958 0.743671 0.0704442 0
M  V30 6523 H 640.62 1.87547 -0.530289 0
M  V30 6524 H 639.716 3.09687 0.387385 0
M  V30 6525 N 640.017 0.126909 1.57088 0
M  V30 6526 C 640.964 -0.82036 2.15728 0
M  V30 6527 C 641.934 -1.25811 1.08447 0
M  V30 6528 O 643.119 -1.33422 1.36393 0
M  V30 6529 C 640.259 -2.06199 2.76724 0
M  V30 6530 C 639.372 -1.67188 3.98337 0
M  V30 6531 C 638.507 -2.86378 4.47393 0
M  V30 6532 C 637.546 -2.43644 5.61519 0
M  V30 6533 N 636.683 -3.55775 6.05284 0
M  V30 6534 H 641.523 -0.313472 2.96347 0
M  V30 6535 H 639.06 -0.14303 1.46403 0
M  V30 6536 H 641.018 -2.78959 3.10222 0
M  V30 6537 H 639.648 -2.54333 1.98782 0
M  V30 6538 H 638.7 -0.842714 3.70948 0
M  V30 6539 H 640.012 -1.31789 4.81075 0
M  V30 6540 H 639.166 -3.67353 4.82842 0
M  V30 6541 H 637.905 -3.25009 3.63621 0
M  V30 6542 H 636.91 -1.61104 5.25667 0
M  V30 6543 H 638.135 -2.06122 6.47063 0
M  V30 6544 H 636.081 -3.94065 5.24451 0
M  V30 6545 H 635.998 -3.24325 6.82898 0
M  V30 6546 H 637.266 -4.37166 6.45373 0
M  V30 6547 N 641.495 -1.56914 -0.146875 0
M  V30 6548 C 642.458 -1.97368 -1.16526 0
M  V30 6549 C 643.458 -0.860223 -1.35856 0
M  V30 6550 O 644.648 -1.12684 -1.32846 0
M  V30 6551 C 641.78 -2.28974 -2.52555 0
M  V30 6552 H 642.973 -2.88523 -0.818209 0
M  V30 6553 H 640.526 -1.5135 -0.390221 0
M  V30 6554 H 641.261 -1.40611 -2.92231 0
M  V30 6555 H 641.046 -3.10157 -2.39886 0
M  V30 6556 H 642.536 -2.61109 -3.25902 0
M  V30 6557 N 642.974 0.416227 -1.52004 0
M  V30 6558 C 644.22 1.16555 -1.6596 0
M  V30 6559 C 644.553 1.90347 -0.384906 0
M  V30 6560 O 643.828 1.84474 0.616405 0
M  V30 6561 C 644.111 2.1657 -2.87696 0
M  V30 6562 C 643.964 1.46722 -4.25197 0
M  V30 6563 C 645.283 3.17321 -3.04951 0
M  V30 6564 H 642.402 0.422369 -0.603965 0
M  V30 6565 H 645.044 0.452141 -1.84542 0
M  V30 6566 H 643.194 2.77411 -2.71985 0
M  V30 6567 H 644.866 0.89056 -4.52622 0
M  V30 6568 H 643.109 0.769263 -4.26925 0
M  V30 6569 H 643.78 2.19665 -5.0641 0
M  V30 6570 H 646.256 2.66552 -3.19514 0
M  V30 6571 H 645.132 3.84573 -3.91656 0
M  V30 6572 H 645.393 3.84643 -2.17951 0
M  V30 6573 N 644.452 1.42507 0.673017 0
M  V30 6574 C 645.362 1.4853 1.81593 0
M  V30 6575 C 646.378 0.373907 1.69935 0
M  V30 6576 O 647.554 0.625078 1.91454 0
M  V30 6577 C 644.619 1.387 3.17747 0
M  V30 6578 C 643.68 2.60346 3.41348 0
M  V30 6579 C 642.913 2.50975 4.71007 0
M  V30 6580 O 643.136 1.54659 5.49033 0
M  V30 6581 O 642.07 3.41138 4.95892 0
M  V30 6582 H 645.896 2.45001 1.79467 0
M  V30 6583 H 643.481 1.2429 0.82899 0
M  V30 6584 H 645.363 1.35586 3.98992 0
M  V30 6585 H 644.038 0.453555 3.20507 0
M  V30 6586 H 642.945 2.69034 2.59945 0
M  V30 6587 H 644.278 3.52595 3.43421 0
M  V30 6588 N 645.93 -0.909495 1.28709 0
M  V30 6589 C 647.176 -1.66151 1.16283 0
M  V30 6590 C 647.509 -1.92067 -0.287069 0
M  V30 6591 O 646.784 -1.52409 -1.20837 0
M  V30 6592 C 647.067 -3.01676 1.9663 0
M  V30 6593 C 646.92 -2.82888 3.49707 0
M  V30 6594 C 648.239 -4.02274 1.78504 0
M  V30 6595 H 645.358 -0.602966 0.423793 0
M  V30 6596 H 648 -1.05418 1.58073 0
M  V30 6597 H 646.15 -3.53515 1.61119 0
M  V30 6598 H 647.822 -2.38026 3.95147 0
M  V30 6599 H 646.065 -2.17862 3.75125 0
M  V30 6600 H 646.736 -3.79147 4.01187 0
M  V30 6601 H 649.212 -3.59511 2.09503 0
M  V30 6602 H 648.088 -4.95056 2.37088 0
M  V30 6603 H 648.349 -4.35903 0.737647 0
M  V30 6604 N 647.408 -1.11026 -1.11852 0
M  V30 6605 C 648.633 -0.879064 -1.87849 0
M  V30 6606 C 649.058 0.565406 -1.79401 0
M  V30 6607 O 648.416 1.39886 -1.15333 0
M  V30 6608 C 648.464 -1.33985 -3.34784 0
M  V30 6609 O 647.568 -0.508803 -4.09249 0
M  V30 6610 H 646.909 -0.316992 -0.583448 0
M  V30 6611 H 649.439 -1.47863 -1.41413 0
M  V30 6612 H 649.449 -1.33248 -3.85628 0
M  V30 6613 H 648.124 -2.39172 -3.40249 0
M  V30 6614 H 646.701 -0.581913 -3.68332 0
M  V30 6615 N 648.886 1.2938 -0.899927 0
M  V30 6616 C 650.297 1.77644 -0.574427 0
M  V30 6617 C 650.648 1.73824 0.909928 0
M  V30 6618 O 649.773 1.32429 1.71147 0
M  V30 6619 C 650.368 3.22573 -1.03595 0
M  V30 6620 C 648.927 3.68614 -0.76161 0
M  V30 6621 C 648.074 2.49483 -1.21052 0
M  V30 6622 H 651.025 1.16038 -1.08263 0
M  V30 6623 H 651.046 3.78684 -0.371337 0
M  V30 6624 H 650.558 3.25321 -2.11631 0
M  V30 6625 H 648.659 3.7134 0.306127 0
M  V30 6626 H 648.772 4.59402 -1.35965 0
M  V30 6627 H 647.136 2.46798 -0.629515 0
M  V30 6628 H 647.919 2.54959 -2.29893 0
M  V30 6629 N 650.364 0.662433 1.43002 0
M  V30 6630 C 651.775 0.258315 1.84904 0
M  V30 6631 C 652.126 -1.19703 1.55453 0
M  V30 6632 O 651.251 -1.91484 1.00811 0
M  V30 6633 C 651.846 0.462047 3.35635 0
M  V30 6634 C 650.405 0.112165 3.76233 0
M  V30 6635 C 649.552 0.760479 2.66668 0
M  V30 6636 H 652.503 0.865467 1.33024 0
M  V30 6637 H 652.524 -0.289646 3.79396 0
M  V30 6638 H 652.036 1.52135 3.57039 0
M  V30 6639 H 650.137 -0.944179 3.60439 0
M  V30 6640 H 650.25 0.544058 4.76001 0
M  V30 6641 H 648.614 0.192887 2.53969 0
M  V30 6642 H 649.397 1.82299 2.90898 0
M  V30 6643 N 651.842 -1.52309 0.404946 0
M  V30 6644 C 653.089 -2.01767 -0.1722 0
M  V30 6645 C 653.417 -1.29075 -1.45498 0
M  V30 6646 O 652.672 -0.3843 -1.9189 0
M  V30 6647 C 652.971 -3.54284 -0.470895 0
M  V30 6648 C 652.637 -4.45079 0.722194 0
M  V30 6649 C 651.299 -4.69617 1.04946 0
M  V30 6650 C 653.651 -4.98555 1.51962 0
M  V30 6651 C 650.979 -5.44878 2.17543 0
M  V30 6652 C 653.331 -5.75049 2.63632 0
M  V30 6653 C 651.995 -5.9786 2.9685 0
M  V30 6654 H 651.265 -0.738316 -0.0630125 0
M  V30 6655 H 653.912 -1.83566 0.545506 0
M  V30 6656 H 652.217 -3.70642 -1.27012 0
M  V30 6657 H 653.914 -3.90058 -0.930346 0
M  V30 6658 H 650.504 -4.26155 0.457131 0
M  V30 6659 H 654.688 -4.79509 1.28002 0
M  V30 6660 H 649.944 -5.60762 2.43631 0
M  V30 6661 H 654.118 -6.15483 3.25813 0
M  V30 6662 H 651.745 -6.5596 3.84215 0
M  V30 6663 N 653.32 -0.135238 -1.57019 0
M  V30 6664 C 654.25 0.805235 -2.19176 0
M  V30 6665 C 655.231 1.2656 -1.13651 0
M  V30 6666 O 656.416 1.32528 -1.4195 0
M  V30 6667 C 653.546 2.04914 -2.80406 0
M  V30 6668 C 652.5 1.72598 -3.91655 0
M  V30 6669 C 651.826 3.04154 -4.39766 0
M  V30 6670 C 653.126 0.981709 -5.12991 0
M  V30 6671 H 654.82 0.287232 -2.98019 0
M  V30 6672 H 652.366 0.136714 -1.4335 0
M  V30 6673 H 654.319 2.71178 -3.22553 0
M  V30 6674 H 653.043 2.59067 -1.98877 0
M  V30 6675 H 651.702 1.08717 -3.50109 0
M  V30 6676 H 651.35 3.56274 -3.55075 0
M  V30 6677 H 651.05 2.83299 -5.14796 0
M  V30 6678 H 652.574 3.71509 -4.84576 0
M  V30 6679 H 653.988 1.5462 -5.52056 0
M  V30 6680 H 652.385 0.873533 -5.93708 0
M  V30 6681 H 653.455 -0.0286887 -4.84892 0
M  V30 6682 N 654.798 1.5699 0.138552 0
M  V30 6683 C 656.046 1.83446 0.848053 0
M  V30 6684 C 656.367 0.71744 1.81322 0
M  V30 6685 O 655.637 -0.260228 1.94164 0
M  V30 6686 H 654.217 0.676792 0.316166 0
M  V30 6687 H 656.879 1.94462 0.130538 0
M  V30 6688 H 655.975 2.78677 1.40518 0
M  V30 6689 N 656.276 -0.40816 1.52223 0
M  V30 6690 C 657.524 -1.15274 1.66001 0
M  V30 6691 C 657.845 -1.91003 0.392803 0
M  V30 6692 O 657.115 -1.8673 -0.592336 0
M  V30 6693 H 655.695 -0.428526 0.611861 0
M  V30 6694 H 658.357 -0.46512 1.89269 0
M  V30 6695 H 657.453 -1.86628 2.50153 0
M  V30 6696 N 657.755 -1.42862 -0.66545 0
M  V30 6697 C 658.702 -1.4707 -1.77874 0
M  V30 6698 C 659.672 -0.321654 -1.62956 0
M  V30 6699 O 660.857 -0.52707 -1.83376 0
M  V30 6700 C 657.997 -1.38788 -3.15962 0
M  V30 6701 C 657.11 -2.63801 -3.42101 0
M  V30 6702 C 656.245 -2.47594 -4.69969 0
M  V30 6703 C 655.284 -3.67936 -4.89172 0
M  V30 6704 N 654.421 -3.50614 -6.08288 0
M  V30 6705 H 659.261 -2.42204 -1.73613 0
M  V30 6706 H 656.798 -1.20239 -0.847401 0
M  V30 6707 H 658.756 -1.31982 -3.95773 0
M  V30 6708 H 657.386 -0.472431 -3.19324 0
M  V30 6709 H 656.438 -2.80935 -2.56475 0
M  V30 6710 H 657.75 -3.53228 -3.52181 0
M  V30 6711 H 656.904 -2.38427 -5.57886 0
M  V30 6712 H 655.643 -1.55672 -4.62188 0
M  V30 6713 H 654.648 -3.77525 -3.99694 0
M  V30 6714 H 655.873 -4.60851 -4.98792 0
M  V30 6715 H 653.819 -2.61417 -6.01662 0
M  V30 6716 H 653.736 -4.33634 -6.19272 0
M  V30 6717 H 655.004 -3.45276 -6.98859 0
M  V30 6718 N 659.233 0.902656 -1.29189 0
M  V30 6719 C 660.181 2.0278 -1.13943 0
M  V30 6720 C 661.175 1.69308 -0.055787 0
M  V30 6721 O 662.381 1.78707 -0.215371 0
M  V30 6722 H 658.756 0.664595 -0.351877 0
M  V30 6723 H 660.727 2.12778 -2.09208 0
M  V30 6724 C 659.476 3.37657 -0.82966 0
M  V30 6725 H 658.799 3.63913 -1.65551 0
M  V30 6726 H 660.239 4.17078 -0.762998 0
M  V30 6727 C 658.698 3.33648 0.466991 0
M  V30 6728 O 659.228 3.72886 1.49395 0
M  V30 6729 N 657.434 2.86745 0.471761 0
M  V30 6730 H 656.981 2.55009 -0.364406 0
M  V30 6731 H 656.939 2.84446 1.33933 0
M  V30 6732 N 660.711 1.11618 1.11262 0
M  V30 6733 C 661.957 0.877377 1.83504 0
M  V30 6734 C 662.312 -0.590606 1.83111 0
M  V30 6735 O 661.605 -1.43057 1.27456 0
M  V30 6736 C 661.799 1.37529 3.2988 0
M  V30 6737 C 661.628 2.89014 3.4453 0
M  V30 6738 C 660.398 3.57157 3.57445 0
M  V30 6739 C 662.596 3.8706 3.38658 0
M  V30 6740 N 660.578 4.96842 3.60585 0
M  V30 6741 C 661.949 5.12825 3.4844 0
M  V30 6742 C 664.004 3.79593 3.22201 0
M  V30 6743 C 662.707 6.32002 3.43462 0
M  V30 6744 C 664.733 4.98282 3.18542 0
M  V30 6745 C 664.095 6.22901 3.28897 0
M  V30 6746 H 660.194 0.37422 0.686646 0
M  V30 6747 H 662.778 1.42087 1.33114 0
M  V30 6748 H 660.949 0.85895 3.78783 0
M  V30 6749 H 662.681 1.07944 3.90039 0
M  V30 6750 H 659.436 3.07628 3.60086 0
M  V30 6751 H 659.86 5.69674 3.65788 0
M  V30 6752 H 664.502 2.84149 3.1308 0
M  V30 6753 H 662.22 7.27721 3.51352 0
M  V30 6754 H 665.806 4.94226 3.06972 0
M  V30 6755 H 664.686 7.13202 3.26056 0
M  V30 6756 N 662.189 -1.289 0.906776 0
M  V30 6757 C 663.137 -2.29477 0.379873 0
M  V30 6758 C 664.131 -1.61068 -0.524747 0
M  V30 6759 O 665.337 -1.75344 -0.406765 0
M  V30 6760 H 661.712 -0.744742 0.10423 0
M  V30 6761 H 663.683 -2.71353 1.24137 0
M  V30 6762 C 662.432 -3.45713 -0.371154 0
M  V30 6763 H 661.755 -3.98551 0.315716 0
M  V30 6764 H 663.195 -4.18105 -0.704581 0
M  V30 6765 C 661.654 -2.9774 -1.57646 0
M  V30 6766 O 662.184 -2.99618 -2.67567 0
M  V30 6767 N 660.39 -2.53485 -1.42105 0
M  V30 6768 H 659.937 -2.52156 -0.526783 0
M  V30 6769 H 659.895 -2.21747 -2.22881 0
M  V30 6770 N 663.667 -0.670007 -1.42649 0
M  V30 6771 C 665.078 -0.268118 -1.84765 0
M  V30 6772 C 665.429 1.18877 -1.56086 0
M  V30 6773 O 664.554 1.90947 -1.01825 0
M  V30 6774 C 665.149 -0.47984 -3.35385 0
M  V30 6775 C 663.708 -0.132116 -3.76168 0
M  V30 6776 C 662.855 -0.774611 -2.66261 0
M  V30 6777 H 665.806 -0.872509 -1.32563 0
M  V30 6778 H 665.827 0.269522 -3.79544 0
M  V30 6779 H 665.339 -1.54026 -3.56227 0
M  V30 6780 H 663.44 0.92505 -3.60934 0
M  V30 6781 H 663.553 -0.569294 -4.75706 0
M  V30 6782 H 661.917 -0.206353 -2.53863 0
M  V30 6783 H 662.7 -1.83839 -2.89928 0
M  V30 6784 N 665.145 1.52092 -0.413018 0
M  V30 6785 C 666.078 2.23613 0.455234 0
M  V30 6786 C 667.056 1.2459 1.04481 0
M  V30 6787 O 668.24 1.53653 1.09193 0
M  V30 6788 C 665.367 2.96775 1.63224 0
M  V30 6789 C 664.413 4.10261 1.16568 0
M  V30 6790 S 665.246 5.35348 0.127633 0
M  V30 6791 C 666.402 6.1204 1.30987 0
M  V30 6792 H 666.635 2.96911 -0.152042 0
M  V30 6793 H 664.168 1.53134 -0.197343 0
M  V30 6794 H 666.126 3.39532 2.30713 0
M  V30 6795 H 664.787 2.23113 2.21087 0
M  V30 6796 H 663.98 4.6064 2.04515 0
M  V30 6797 H 663.582 3.6964 0.569386 0
M  V30 6798 H 665.874 6.39651 2.23276 0
M  V30 6799 H 666.817 7.03022 0.846533 0
M  V30 6800 H 667.225 5.43161 1.53743 0
M  V30 6801 N 666.623 0.143563 1.56945 0
M  V30 6802 C 667.586 -0.783295 2.154 0
M  V30 6803 C 668.586 -1.17763 1.09492 0
M  V30 6804 O 669.776 -1.09912 1.35148 0
M  V30 6805 C 666.908 -2.06248 2.7143 0
M  V30 6806 H 668.101 -0.274863 2.98638 0
M  V30 6807 H 665.654 -0.105859 1.55941 0
M  V30 6808 H 666.389 -2.61466 1.91849 0
M  V30 6809 H 666.174 -1.78897 3.4891 0
M  V30 6810 H 667.664 -2.72453 3.16479 0
M  V30 6811 N 668.101 -1.57061 -0.130224 0
M  V30 6812 C 669.331 -1.88159 -0.853217 0
M  V30 6813 C 669.739 -0.731675 -1.7448 0
M  V30 6814 O 669.082 0.307035 -1.81116 0
M  V30 6815 C 669.144 -3.1415 -1.74785 0
M  V30 6816 C 668.808 -4.45202 -1.03173 0
M  V30 6817 C 669.805 -5.18526 -0.377759 0
M  V30 6818 C 667.49 -4.91912 -1.01624 0
M  V30 6819 C 669.484 -6.36775 0.282123 0
M  V30 6820 C 667.171 -6.10082 -0.352555 0
M  V30 6821 C 668.169 -6.82361 0.295483 0
M  V30 6822 O 667.857 -7.98284 0.948606 0
M  V30 6823 H 667.589 -0.627596 -0.251197 0
M  V30 6824 H 670.143 -2.05034 -0.1226 0
M  V30 6825 H 668.373 -2.93328 -2.51983 0
M  V30 6826 H 670.062 -3.31359 -2.34427 0
M  V30 6827 H 670.828 -4.83498 -0.381417 0
M  V30 6828 H 666.707 -4.35566 -1.51007 0
M  V30 6829 H 670.251 -6.93129 0.788525 0
M  V30 6830 H 666.148 -6.44569 -0.346621 0
M  V30 6831 H 666.916 -8.14054 0.851954 0
M  V30 6832 N 669.579 0.400081 -1.52437 0
M  V30 6833 C 670.804 1.17221 -1.71096 0
M  V30 6834 C 671.229 1.83269 -0.423565 0
M  V30 6835 O 670.587 1.70378 0.619751 0
M  V30 6836 C 670.635 2.20425 -2.85386 0
M  V30 6837 O 669.739 3.26769 -2.51586 0
M  V30 6838 H 669.08 0.341766 -0.569291 0
M  V30 6839 H 671.61 0.467772 -1.99181 0
M  V30 6840 H 671.62 2.64605 -3.10561 0
M  V30 6841 H 670.295 1.71737 -3.78786 0
M  V30 6842 H 668.872 2.87804 -2.37114 0
M  V30 6843 N 671.057 1.43213 0.657864 0
M  V30 6844 C 671.989 1.43974 1.78337 0
M  V30 6845 C 673.002 0.336482 1.59285 0
M  V30 6846 O 674.191 0.600631 1.68091 0
M  V30 6847 C 671.291 1.23242 3.15697 0
M  V30 6848 C 670.464 2.46319 3.61449 0
M  V30 6849 C 669.523 2.2088 4.77597 0
M  V30 6850 O 668.549 2.942 4.87273 0
M  V30 6851 N 669.751 1.22251 5.67481 0
M  V30 6852 H 672.516 2.40993 1.78164 0
M  V30 6853 H 670.077 1.3831 0.841549 0
M  V30 6854 H 672.069 1.04113 3.91079 0
M  V30 6855 H 670.639 0.346849 3.1067 0
M  V30 6856 H 669.859 2.80904 2.76563 0
M  V30 6857 H 671.147 3.28239 3.88763 0
M  V30 6858 H 670.545 0.616433 5.62331 0
M  V30 6859 H 669.102 1.09107 6.42603 0
M  V30 6860 N 672.536 -0.895792 1.29666 0
M  V30 6861 C 673.813 -1.62723 1.08538 0
M  V30 6862 C 674.193 -2.07848 -0.369119 0
M  V30 6863 O 673.541 -1.8372 -1.35864 0
M  V30 6864 C 673.751 -2.80505 2.07648 0
M  V30 6865 C 675.099 -3.51098 2.3878 0
M  V30 6866 O 676.123 -2.90679 2.05874 0
M  V30 6867 O 674.982 -4.60028 2.9502 0
M  V30 6868 H 672.076 -0.714692 0.416106 0
M  V30 6869 H 674.622 -0.943517 1.41053 0
M  V30 6870 H 673.394 -2.44386 3.05599 0
M  V30 6871 H 673.017 -3.5658 1.75887 0
M  V30 6872 N 674.014 -1.12206 -1.10668 0
M  V30 6873 C 675.242 -0.898635 -1.86366 0
M  V30 6874 C 675.657 0.551991 -1.80551 0
M  V30 6875 O 675.014 1.38152 -1.19249 0
M  V30 6876 C 675.065 -1.36199 -3.34861 0
M  V30 6877 O 674.786 -2.75576 -3.40573 0
M  V30 6878 C 676.287 -1.17515 -4.2744 0
M  V30 6879 H 673.507 -0.321281 -0.589084 0
M  V30 6880 H 676.051 -1.49142 -1.39918 0
M  V30 6881 H 674.206 -0.81249 -3.78784 0
M  V30 6882 H 674.62 -2.95851 -4.33096 0
M  V30 6883 H 676.094 -1.54827 -5.29842 0
M  V30 6884 H 676.571 -0.115486 -4.39048 0
M  V30 6885 H 677.177 -1.71203 -3.89319 0
M  V30 6886 N 675.492 1.28418 -0.913599 0
M  V30 6887 C 676.74 1.94596 -0.545594 0
M  V30 6888 C 677.061 1.7227 0.913668 0
M  V30 6889 O 676.331 1.06233 1.64595 0
M  V30 6890 H 674.911 0.720065 -0.198783 0
M  V30 6891 H 677.573 1.56404 -1.16292 0
M  V30 6892 H 676.669 3.03202 -0.739911 0
M  V30 6893 N 676.97 0.677563 1.42291 0
M  V30 6894 C 677.9 0.014968 2.33495 0
M  V30 6895 C 678.881 -0.786376 1.50831 0
M  V30 6896 O 680.066 -0.742975 1.79426 0
M  V30 6897 C 677.196 -0.935023 3.34477 0
M  V30 6898 C 676.15 -0.242074 4.27315 0
M  V30 6899 C 675.476 -1.30519 5.18526 0
M  V30 6900 C 676.776 0.880604 5.14823 0
M  V30 6901 H 678.47 0.776671 2.89151 0
M  V30 6902 H 676.016 0.37494 1.39033 0
M  V30 6903 H 677.969 -1.40766 3.97194 0
M  V30 6904 H 676.693 -1.72818 2.77131 0
M  V30 6905 H 675.352 0.210351 3.65996 0
M  V30 6906 H 675 -2.09041 4.57505 0
M  V30 6907 H 674.7 -0.846652 5.81468 0
M  V30 6908 H 676.224 -1.7787 5.84119 0
M  V30 6909 H 677.638 0.489062 5.7121 0
M  V30 6910 H 676.035 1.26511 5.86613 0
M  V30 6911 H 677.105 1.72818 4.53059 0
M  V30 6912 N 678.448 -1.51871 0.421078 0
M  V30 6913 C 679.695 -2.01938 -0.15079 0
M  V30 6914 C 680.023 -1.30611 -1.44121 0
M  V30 6915 O 679.278 -0.404631 -1.91471 0
M  V30 6916 C 679.577 -3.54764 -0.433292 0
M  V30 6917 C 679.243 -4.44288 0.76936 0
M  V30 6918 C 677.905 -4.68477 1.09921 0
M  V30 6919 C 680.257 -4.96915 1.57242 0
M  V30 6920 C 677.585 -5.4254 2.2331 0
M  V30 6921 C 679.937 -5.7222 2.69716 0
M  V30 6922 C 678.601 -5.94678 3.03174 0
M  V30 6923 H 677.871 -0.738943 -0.0551781 0
M  V30 6924 H 680.518 -1.82977 0.564945 0
M  V30 6925 H 678.823 -3.71968 -1.23074 0
M  V30 6926 H 680.52 -3.91023 -0.888922 0
M  V30 6927 H 677.11 -4.25646 0.502305 0
M  V30 6928 H 681.294 -4.78125 1.3308 0
M  V30 6929 H 676.55 -5.58146 2.49565 0
M  V30 6930 H 680.724 -6.11992 3.32323 0
M  V30 6931 H 678.351 -6.51848 3.9115 0
M  V30 6932 N 679.926 -0.151884 -1.56866 0
M  V30 6933 C 681.156 0.504081 -2.00356 0
M  V30 6934 C 681.564 1.58639 -1.03103 0
M  V30 6935 O 680.907 1.83688 -0.0207931 0
M  V30 6936 C 680.969 1.15975 -3.40279 0
M  V30 6937 C 680.633 0.221453 -4.56463 0
M  V30 6938 C 681.63 -0.552766 -5.16953 0
M  V30 6939 C 679.315 0.122936 -5.0215 0
M  V30 6940 C 681.309 -1.4129 -6.21543 0
M  V30 6941 C 678.996 -0.740801 -6.06593 0
M  V30 6942 C 679.994 -1.50732 -6.6616 0
M  V30 6943 O 679.682 -2.35666 -7.68581 0
M  V30 6944 H 679.414 0.135279 -0.662326 0
M  V30 6945 H 681.968 -0.244916 -2.03935 0
M  V30 6946 H 680.198 1.95649 -3.33554 0
M  V30 6947 H 681.887 1.71594 -3.67846 0
M  V30 6948 H 682.653 -0.486716 -4.82552 0
M  V30 6949 H 678.532 0.70931 -4.5551 0
M  V30 6950 H 682.076 -2.01166 -6.67966 0
M  V30 6951 H 677.973 -0.808125 -6.40421 0
M  V30 6952 H 678.741 -2.28967 -7.85822 0
M  V30 6953 N 681.404 1.57128 0.121893 0
M  V30 6954 C 682.65 1.84974 0.831418 0
M  V30 6955 C 682.983 0.737204 1.79663 0
M  V30 6956 O 682.258 -0.257199 1.92792 0
M  V30 6957 C 682.541 3.23397 1.58386 0
M  V30 6958 C 682.394 4.45246 0.638445 0
M  V30 6959 C 683.713 3.59355 2.54071 0
M  V30 6960 H 680.832 0.67282 0.300803 0
M  V30 6961 H 683.474 1.89759 0.0957587 0
M  V30 6962 H 681.624 3.19449 2.21098 0
M  V30 6963 H 683.296 4.61295 0.0203925 0
M  V30 6964 H 681.539 4.33771 -0.05023 0
M  V30 6965 H 682.21 5.38765 1.20151 0
M  V30 6966 H 684.686 3.64075 2.01465 0
M  V30 6967 H 683.562 4.57193 3.03752 0
M  V30 6968 H 683.823 2.86622 3.36601 0
M  V30 6969 N 682.882 -0.391992 1.52647 0
M  V30 6970 C 684.293 -0.970064 1.5952 0
M  V30 6971 C 684.644 -1.91059 0.446207 0
M  V30 6972 O 683.769 -2.12062 -0.431125 0
M  V30 6973 C 684.364 -1.76614 2.89125 0
M  V30 6974 C 682.923 -2.29396 2.9842 0
M  V30 6975 C 682.07 -1.09864 2.54608 0
M  V30 6976 H 685.021 -0.171638 1.57769 0
M  V30 6977 H 685.042 -2.62511 2.75442 0
M  V30 6978 H 684.554 -1.08135 3.72731 0
M  V30 6979 H 682.655 -3.01196 2.19344 0
M  V30 6980 H 682.768 -2.59088 4.03002 0
M  V30 6981 H 681.132 -1.45777 2.08857 0
M  V30 6982 H 681.915 -0.429249 3.40606 0
M  V30 6983 N 684.36 -1.4356 -0.65026 0
M  V30 6984 C 685.323 -1.48615 -1.74489 0
M  V30 6985 C 686.323 -0.370483 -1.56474 0
M  V30 6986 O 687.513 -0.632351 -1.62317 0
M  V30 6987 C 684.645 -1.34161 -3.13391 0
M  V30 6988 H 685.838 -2.46103 -1.71387 0
M  V30 6989 H 683.391 -1.30369 -0.862186 0
M  V30 6990 H 684.126 -0.376918 -3.22102 0
M  V30 6991 H 683.911 -2.1504 -3.27872 0
M  V30 6992 H 685.401 -1.40637 -3.93206 0
M  V30 6993 N 685.838 0.888903 -1.30139 0
M  V30 6994 C 686.786 2.0156 -1.16088 0
M  V30 6995 C 687.78 1.69239 -0.0737413 0
M  V30 6996 O 688.986 1.78468 -0.234313 0
M  V30 6997 H 685.361 0.660825 -0.358907 0
M  V30 6998 H 687.332 2.10547 -2.11453 0
M  V30 6999 C 686.081 3.36758 -0.865426 0
M  V30 7000 H 685.404 3.62137 -1.69402 0
M  V30 7001 H 686.844 4.16246 -0.807192 0
M  V30 7002 C 685.303 3.34124 0.431577 0
M  V30 7003 O 685.833 3.7445 1.45431 0
M  V30 7004 N 684.039 2.87229 0.441321 0
M  V30 7005 H 683.586 2.54609 -0.391433 0
M  V30 7006 H 683.544 2.8585 1.30909 0
M  V30 7007 N 687.317 1.12792 1.10072 0
M  V30 7008 C 688.267 0.768086 2.14673 0
M  V30 7009 C 689.251 -0.234716 1.59179 0
M  V30 7010 O 690.443 -0.039643 1.76956 0
M  V30 7011 C 687.572 0.228472 3.42539 0
M  V30 7012 C 686.658 1.25979 4.04957 0
M  V30 7013 N 687.049 2.4586 4.42025 0
M  V30 7014 C 685.347 1.10602 4.32069 0
M  V30 7015 C 686.048 3.11747 4.9111 0
M  V30 7016 N 685.024 2.39185 4.88151 0
M  V30 7017 H 688.826 1.68029 2.4113 0
M  V30 7018 H 686.34 1.00925 1.27232 0
M  V30 7019 H 688.337 -0.0475216 4.16873 0
M  V30 7020 H 686.997 -0.678136 3.1754 0
M  V30 7021 H 688.008 2.83215 4.33601 0
M  V30 7022 H 684.685 0.257021 4.16708 0
M  V30 7023 H 686.075 4.13862 5.29309 0
M  V30 7024 N 688.795 -1.27931 0.920396 0
M  V30 7025 C 690.041 -1.95329 0.5673 0
M  V30 7026 C 690.396 -1.7107 -0.880506 0
M  V30 7027 O 689.689 -1.02497 -1.61879 0
M  V30 7028 C 689.883 -3.47853 0.820558 0
M  V30 7029 C 689.712 -3.86941 2.29143 0
M  V30 7030 C 688.482 -4.10766 2.94278 0
M  V30 7031 C 690.68 -3.97091 3.26838 0
M  V30 7032 N 688.662 -4.36578 4.31594 0
M  V30 7033 C 690.033 -4.27194 4.49339 0
M  V30 7034 C 692.088 -3.79639 3.22147 0
M  V30 7035 C 690.791 -4.41662 5.67739 0
M  V30 7036 C 692.817 -3.95328 4.39852 0
M  V30 7037 C 692.179 -4.2581 5.61128 0
M  V30 7038 H 688.278 -0.73836 0.257583 0
M  V30 7039 H 690.862 -1.54447 1.1855 0
M  V30 7040 H 689.033 -3.87709 0.231571 0
M  V30 7041 H 690.765 -4.024 0.430824 0
M  V30 7042 H 687.52 -4.05318 2.44979 0
M  V30 7043 H 687.944 -4.53555 5.0261 0
M  V30 7044 H 692.586 -3.55119 2.29457 0
M  V30 7045 H 690.304 -4.65011 6.60901 0
M  V30 7046 H 693.89 -3.83253 4.37731 0
M  V30 7047 H 692.77 -4.37691 6.50689 0
M  V30 7048 N 690.273 -0.685099 -1.4193 0
M  V30 7049 C 691.22 -0.0131869 -2.30796 0
M  V30 7050 C 692.19 0.782129 -1.46533 0
M  V30 7051 O 693.375 0.75229 -1.75343 0
M  V30 7052 C 690.515 0.924768 -3.32479 0
M  V30 7053 C 689.628 0.122181 -4.31827 0
M  V30 7054 C 688.763 1.05682 -5.20581 0
M  V30 7055 C 687.802 0.246526 -6.11603 0
M  V30 7056 N 686.939 1.13442 -6.92875 0
M  V30 7057 H 691.779 -0.776789 -2.87698 0
M  V30 7058 H 689.316 -0.394791 -1.41703 0
M  V30 7059 H 691.274 1.48251 -3.89971 0
M  V30 7060 H 689.904 1.65488 -2.77152 0
M  V30 7061 H 688.956 -0.552335 -3.76369 0
M  V30 7062 H 690.268 -0.506473 -4.96222 0
M  V30 7063 H 689.422 1.68415 -5.82856 0
M  V30 7064 H 688.161 1.71935 -4.56388 0
M  V30 7065 H 687.166 -0.393944 -5.48387 0
M  V30 7066 H 688.391 -0.412053 -6.77849 0
M  V30 7067 H 686.337 1.78316 -6.313 0
M  V30 7068 H 686.254 0.561089 -7.53915 0
M  V30 7069 H 687.522 1.74889 -7.59628 0
M  V30 7070 N 691.751 1.51645 -0.429126 0
M  V30 7071 C 692.661 2.31288 0.392809 0
M  V30 7072 C 693.677 1.39852 1.03525 0
M  V30 7073 O 694.853 1.72926 1.03241 0
M  V30 7074 C 691.918 3.13347 1.48372 0
M  V30 7075 C 690.979 4.20551 0.862268 0
M  V30 7076 C 690.212 4.98688 1.9012 0
M  V30 7077 O 690.435 4.77359 3.12225 0
M  V30 7078 O 689.369 5.83005 1.4963 0
M  V30 7079 H 693.195 3.02609 -0.257138 0
M  V30 7080 H 690.78 1.48163 -0.191851 0
M  V30 7081 H 692.662 3.64387 2.1166 0
M  V30 7082 H 691.337 2.44799 2.1179 0
M  V30 7083 H 690.244 3.73609 0.191568 0
M  V30 7084 H 691.577 4.91449 0.271704 0
M  V30 7085 N 693.229 0.160201 1.56784 0
M  V30 7086 C 694.506 -0.533355 1.88188 0
M  V30 7087 C 694.886 -1.82072 1.06831 0
M  V30 7088 O 694.234 -2.27946 0.158959 0
M  V30 7089 C 694.444 -0.786034 3.40033 0
M  V30 7090 C 695.792 -1.12097 4.09536 0
M  V30 7091 O 696.816 -0.874949 3.45287 0
M  V30 7092 O 695.675 -1.58457 5.23023 0
M  V30 7093 H 692.769 -0.273589 0.780434 0
M  V30 7094 H 695.315 0.197803 1.68543 0
M  V30 7095 H 694.087 0.124515 3.91102 0
M  V30 7096 H 693.71 -1.57091 3.65251 0
M  V30 7097 N 694.707 -1.5719 -0.113559 0
M  V30 7098 C 695.937 -1.89053 -0.833212 0
M  V30 7099 C 696.345 -0.750139 -1.73694 0
M  V30 7100 O 695.688 0.287808 -1.81431 0
M  V30 7101 C 695.75 -3.15986 -1.71443 0
M  V30 7102 C 695.414 -4.46271 -0.984449 0
M  V30 7103 C 696.411 -5.18897 -0.322741 0
M  V30 7104 C 694.096 -4.92963 -0.964011 0
M  V30 7105 C 696.09 -6.3644 0.349646 0
M  V30 7106 C 693.777 -6.10422 -0.287828 0
M  V30 7107 C 694.775 -6.82009 0.36784 0
M  V30 7108 O 694.463 -7.97233 1.03322 0
M  V30 7109 H 694.195 -0.630225 -0.244526 0
M  V30 7110 H 696.749 -2.05152 -0.100847 0
M  V30 7111 H 694.979 -2.95984 -2.48858 0
M  V30 7112 H 696.668 -3.33826 -2.309 0
M  V30 7113 H 697.434 -4.83875 -0.330114 0
M  V30 7114 H 693.313 -4.37143 -1.46379 0
M  V30 7115 H 696.857 -6.92254 0.861996 0
M  V30 7116 H 692.754 -6.449 -0.278237 0
M  V30 7117 H 693.522 -8.13105 0.938247 0
M  V30 7118 N 696.185 0.383891 -1.52853 0
M  V30 7119 C 697.431 1.12667 -1.69345 0
M  V30 7120 C 697.786 1.87519 -0.430635 0
M  V30 7121 O 697.079 1.82742 0.575846 0
M  V30 7122 C 697.273 2.12881 -2.87082 0
M  V30 7123 C 697.102 1.47873 -4.24692 0
M  V30 7124 C 695.872 1.24064 -4.89833 0
M  V30 7125 C 698.07 0.926118 -5.05893 0
M  V30 7126 N 696.052 0.552138 -6.11412 0
M  V30 7127 C 697.423 0.365966 -6.18919 0
M  V30 7128 C 699.478 0.823023 -4.91051 0
M  V30 7129 C 698.181 -0.287204 -7.18726 0
M  V30 7130 C 700.207 0.183666 -5.91115 0
M  V30 7131 C 699.569 -0.365693 -7.0345 0
M  V30 7132 H 695.668 0.398064 -0.673104 0
M  V30 7133 H 698.252 0.415504 -1.90215 0
M  V30 7134 H 696.423 2.81329 -2.67784 0
M  V30 7135 H 698.155 2.79703 -2.92486 0
M  V30 7136 H 694.91 1.51701 -4.48647 0
M  V30 7137 H 695.334 0.223783 -6.7663 0
M  V30 7138 H 699.976 1.23354 -4.04405 0
M  V30 7139 H 697.694 -0.709719 -8.04977 0
M  V30 7140 H 701.28 0.105074 -5.81705 0
M  V30 7141 H 700.16 -0.85261 -7.79551 0
M  V30 7142 N 697.663 1.43903 0.642637 0
M  V30 7143 C 698.891 1.4954 1.42988 0
M  V30 7144 C 699.306 0.116588 1.8844 0
M  V30 7145 O 698.663 -0.875285 1.60141 0
M  V30 7146 C 698.714 2.45031 2.65785 0
M  V30 7147 O 698.435 3.77551 2.22232 0
M  V30 7148 C 699.936 2.60017 3.59035 0
M  V30 7149 H 697.156 0.507544 0.438907 0
M  V30 7150 H 699.7 1.88752 0.786942 0
M  V30 7151 H 697.855 2.08985 3.26196 0
M  V30 7152 H 698.269 4.29001 3.01759 0
M  V30 7153 H 699.743 3.30887 4.41835 0
M  V30 7154 H 700.22 1.64861 4.07084 0
M  V30 7155 H 700.826 2.96918 3.045 0
M  V30 7156 N 699.141 -0.881989 1.30609 0
M  V30 7157 C 700.051 -2.02076 1.19174 0
M  V30 7158 C 701.067 -1.73645 0.11102 0
M  V30 7159 O 702.243 -1.98735 0.326528 0
M  V30 7160 C 699.308 -3.3515 0.887438 0
M  V30 7161 C 698.369 -3.76983 2.05383 0
M  V30 7162 C 697.602 -5.03707 1.76395 0
M  V30 7163 O 697.825 -5.66171 0.693302 0
M  V30 7164 O 696.759 -5.42019 2.61723 0
M  V30 7165 H 700.585 -2.14652 2.14845 0
M  V30 7166 H 698.17 -1.00843 1.10232 0
M  V30 7167 H 700.052 -4.14975 0.73306 0
M  V30 7168 H 698.727 -3.23676 -0.0393354 0
M  V30 7169 H 697.634 -2.97849 2.26355 0
M  V30 7170 H 698.967 -3.93066 2.96243 0
M  V30 7171 N 700.619 -1.13374 -1.09472 0
M  V30 7172 C 701.529 -0.824029 -2.19652 0
M  V30 7173 C 702.545 0.19118 -1.72947 0
M  V30 7174 O 703.721 0.0223464 -2.01388 0
M  V30 7175 C 700.786 -0.294009 -3.45451 0
M  V30 7176 C 699.847 -1.3704 -4.0684 0
M  V30 7177 C 699.08 -0.86558 -5.26634 0
M  V30 7178 O 699.303 0.29702 -5.69626 0
M  V30 7179 O 698.237 -1.63968 -5.79136 0
M  V30 7180 H 702.063 -1.74454 -2.48595 0
M  V30 7181 H 699.648 -0.911155 -1.18399 0
M  V30 7182 H 701.53 -0.00381039 -4.214 0
M  V30 7183 H 700.205 0.598921 -3.18111 0
M  V30 7184 H 699.112 -1.71391 -3.3253 0
M  V30 7185 H 700.445 -2.23746 -4.38405 0
M  V30 7186 N 702.098 1.27442 -0.927168 0
M  V30 7187 C 703.344 1.94679 -0.568164 0
M  V30 7188 C 703.677 1.72697 0.888219 0
M  V30 7189 O 702.952 1.05573 1.63354 0
M  V30 7190 C 703.235 3.4882 -0.894253 0
M  V30 7191 C 703.088 3.80146 -2.40435 0
M  V30 7192 C 704.407 4.38281 -0.399766 0
M  V30 7193 H 701.526 0.707071 -0.207892 0
M  V30 7194 H 704.168 1.50568 -1.15885 0
M  V30 7195 H 702.318 3.86522 -0.391566 0
M  V30 7196 H 703.99 3.52238 -2.97869 0
M  V30 7197 H 702.233 3.26716 -2.85375 0
M  V30 7198 H 702.904 4.87835 -2.58304 0
M  V30 7199 H 705.38 4.07726 -0.83058 0
M  V30 7200 H 704.256 5.44955 -0.656885 0
M  V30 7201 H 704.517 4.36521 0.700153 0
M  V30 7202 N 703.576 0.692616 1.41565 0
M  V30 7203 C 704.801 0.229776 2.06123 0
M  V30 7204 C 705.226 -1.11119 1.5177 0
M  V30 7205 O 704.584 -1.69498 0.643444 0
M  V30 7206 C 704.632 0.19469 3.60074 0
M  V30 7207 O 703.736 -0.831366 4.03933 0
M  V30 7208 H 703.077 0.113002 0.654314 0
M  V30 7209 H 705.607 0.946645 1.81383 0
M  V30 7210 H 705.617 0.0245487 4.07993 0
M  V30 7211 H 704.292 1.17339 3.99004 0
M  V30 7212 H 702.869 -0.630819 3.67526 0
M  V30 7213 N 705.054 -1.51416 0.437162 0
M  V30 7214 C 706.284 -2.06204 -0.127859 0
M  V30 7215 C 706.692 -1.30463 -1.37026 0
M  V30 7216 O 706.035 -0.357516 -1.80187 0
M  V30 7217 C 706.097 -3.55783 -0.515632 0
M  V30 7218 C 705.761 -4.52776 0.619937 0
M  V30 7219 C 706.758 -4.98031 1.49201 0
M  V30 7220 C 704.443 -4.95878 0.800618 0
M  V30 7221 C 706.437 -5.85061 2.52947 0
M  V30 7222 C 704.124 -5.82699 1.84135 0
M  V30 7223 C 705.122 -6.27188 2.70416 0
M  V30 7224 O 704.81 -7.12284 3.72702 0
M  V30 7225 H 704.542 -0.675903 -0.011442 0
M  V30 7226 H 707.096 -1.95977 0.614986 0
M  V30 7227 H 705.326 -3.63793 -1.31118 0
M  V30 7228 H 707.015 -3.93087 -1.01179 0
M  V30 7229 H 707.781 -4.65426 1.36395 0
M  V30 7230 H 703.66 -4.60792 0.138617 0
M  V30 7231 H 707.204 -6.19708 3.20325 0
M  V30 7232 H 703.101 -6.14717 1.9696 0
M  V30 7233 H 703.869 -7.30462 3.69281 0
M  V30 7234 N 706.532 -0.168513 -1.56696 0
M  V30 7235 C 707.76 0.483503 -2.01171 0
M  V30 7236 C 708.175 1.56994 -1.04872 0
M  V30 7237 O 707.532 1.82434 -0.0491337 0
M  V30 7238 C 707.583 1.0644 -3.45475 0
M  V30 7239 O 707.304 0.0213375 -4.38095 0
M  V30 7240 C 708.805 1.79493 -4.05336 0
M  V30 7241 H 706.025 0.124002 -0.659443 0
M  V30 7242 H 708.569 -0.269419 -2.02717 0
M  V30 7243 H 706.724 1.76784 -3.44712 0
M  V30 7244 H 707.138 0.449837 -5.22567 0
M  V30 7245 H 708.612 2.15401 -5.08238 0
M  V30 7246 H 709.089 2.68889 -3.47269 0
M  V30 7247 H 709.695 1.13798 -4.09793 0
M  V30 7248 N 708.01 1.57248 0.105221 0
M  V30 7249 C 708.957 2.01338 1.12835 0
M  V30 7250 C 709.927 0.887897 1.40377 0
M  V30 7251 O 711.112 1.15315 1.5201 0
M  V30 7252 C 708.252 2.43432 2.44611 0
M  V30 7253 C 707.365 3.69457 2.23888 0
M  V30 7254 C 706.5 4.00473 3.48991 0
M  V30 7255 C 705.539 5.19638 3.23485 0
M  V30 7256 N 704.676 5.46457 4.40828 0
M  V30 7257 H 709.516 2.88527 0.745386 0
M  V30 7258 H 707.053 1.42714 0.356535 0
M  V30 7259 H 709.011 2.65879 3.21503 0
M  V30 7260 H 707.641 1.59266 2.80774 0
M  V30 7261 H 706.693 3.54545 1.37847 0
M  V30 7262 H 708.005 4.56497 2.01026 0
M  V30 7263 H 707.159 4.23642 4.34295 0
M  V30 7264 H 705.898 3.11935 3.74897 0
M  V30 7265 H 704.903 4.96299 2.36574 0
M  V30 7266 H 706.128 6.09766 2.98935 0
M  V30 7267 H 704.074 4.60876 4.66829 0
M  V30 7268 H 703.991 6.27849 4.2112 0
M  V30 7269 H 705.259 5.74155 5.27225 0
M  V30 7270 N 709.488 -0.375779 1.53054 0
M  V30 7271 C 710.736 -1.11727 1.68409 0
M  V30 7272 C 711.057 -1.90127 0.43323 0
M  V30 7273 O 710.327 -1.87945 -0.552595 0
M  V30 7274 H 708.907 -0.415451 0.620813 0
M  V30 7275 H 711.569 -0.424869 1.90213 0
M  V30 7276 H 710.665 -1.8128 2.54055 0
M  V30 7277 N 710.966 -1.44241 -0.634997 0
M  V30 7278 C 712.191 -1.50516 -1.42687 0
M  V30 7279 C 712.616 -0.129864 -1.87651 0
M  V30 7280 O 711.974 0.880164 -1.58502 0
M  V30 7281 C 712.022 -2.4714 -2.62591 0
M  V30 7282 O 711.126 -1.97025 -3.62291 0
M  V30 7283 H 710.467 -0.50841 -0.427101 0
M  V30 7284 H 712.997 -1.89337 -0.775408 0
M  V30 7285 H 713.007 -2.65048 -3.10183 0
M  V30 7286 H 711.682 -3.47039 -2.29209 0
M  V30 7287 H 710.259 -1.88866 -3.21534 0
M  V30 7288 N 712.444 0.87505 -1.31075 0
M  V30 7289 C 713.407 1.96333 -1.18263 0
M  V30 7290 C 714.407 1.60416 -0.111106 0
M  V30 7291 O 715.597 1.7044 -0.359987 0
M  V30 7292 C 712.729 3.31036 -0.81414 0
M  V30 7293 H 713.922 2.09125 -2.14958 0
M  V30 7294 H 711.475 1.06271 -1.14614 0
M  V30 7295 H 712.21 3.23944 0.151875 0
M  V30 7296 H 711.995 3.58476 -1.58862 0
M  V30 7297 H 713.485 4.10842 -0.748249 0
M  V30 7298 N 713.922 1.13953 1.08869 0
M  V30 7299 C 715.152 0.926825 1.84644 0
M  V30 7300 C 715.56 -0.527941 1.81685 0
M  V30 7301 O 714.903 -1.37742 1.21543 0
M  V30 7302 C 714.965 1.34416 3.33426 0
M  V30 7303 C 714.629 2.81351 3.60126 0
M  V30 7304 C 715.626 3.79486 3.55368 0
M  V30 7305 C 713.311 3.1865 3.88288 0
M  V30 7306 C 715.305 5.1293 3.78393 0
M  V30 7307 C 712.992 4.5227 4.10968 0
M  V30 7308 C 713.99 5.4922 4.06013 0
M  V30 7309 O 713.678 6.80429 4.28102 0
M  V30 7310 H 713.41 0.33013 0.589907 0
M  V30 7311 H 715.964 1.51738 1.38436 0
M  V30 7312 H 714.194 0.696901 3.80368 0
M  V30 7313 H 715.883 1.10302 3.90626 0
M  V30 7314 H 716.649 3.52017 3.3363 0
M  V30 7315 H 712.528 2.43785 3.91267 0
M  V30 7316 H 716.072 5.88591 3.74442 0
M  V30 7317 H 711.969 4.79462 4.32188 0
M  V30 7318 H 712.737 6.86617 4.45533 0
M  V30 7319 N 715.4 -1.26948 0.933913 0
M  V30 7320 C 716.33 -2.29017 0.45534 0
M  V30 7321 C 717.311 -1.62961 -0.487605 0
M  V30 7322 O 718.496 -1.90223 -0.391022 0
M  V30 7323 C 715.626 -3.46112 -0.287015 0
M  V30 7324 C 714.58 -4.24205 0.568682 0
M  V30 7325 C 713.906 -5.3384 -0.303206 0
M  V30 7326 C 715.206 -4.88954 1.83633 0
M  V30 7327 H 716.9 -2.69298 1.30839 0
M  V30 7328 H 714.446 -1.29459 0.630579 0
M  V30 7329 H 716.399 -4.16622 -0.6328 0
M  V30 7330 H 715.123 -3.04765 -1.17414 0
M  V30 7331 H 713.782 -3.5545 0.897261 0
M  V30 7332 H 713.43 -4.88734 -1.18947 0
M  V30 7333 H 713.13 -5.86998 0.265879 0
M  V30 7334 H 714.654 -6.0719 -0.644423 0
M  V30 7335 H 716.068 -5.51717 1.55823 0
M  V30 7336 H 714.465 -5.52198 2.34941 0
M  V30 7337 H 715.535 -4.12305 2.55211 0
M  V30 7338 N 716.879 -0.700114 -1.41195 0
M  V30 7339 C 718.127 -0.232546 -2.00758 0
M  V30 7340 C 718.448 1.1734 -1.55745 0
M  V30 7341 O 717.718 1.79262 -0.790058 0
M  V30 7342 H 716.298 -0.0829845 -0.742376 0
M  V30 7343 H 718.96 -0.902289 -1.72756 0
M  V30 7344 H 718.056 -0.253521 -3.11069 0
M  V30 7345 N 718.357 1.51182 -0.445186 0
M  V30 7346 C 719.29 2.24528 0.4077 0
M  V30 7347 C 720.268 1.26778 1.01814 0
M  V30 7348 O 721.452 1.55934 1.05909 0
M  V30 7349 C 718.579 3.00171 1.56892 0
M  V30 7350 C 717.625 4.12641 1.0784 0
M  V30 7351 S 718.458 5.35498 0.014049 0
M  V30 7352 C 719.614 6.14681 1.17975 0
M  V30 7353 H 719.847 2.96522 -0.214987 0
M  V30 7354 H 717.38 1.52681 -0.229781 0
M  V30 7355 H 719.338 3.44349 2.23459 0
M  V30 7356 H 717.999 2.27752 2.16304 0
M  V30 7357 H 717.192 4.64875 1.94698 0
M  V30 7358 H 716.794 3.70765 0.490852 0
M  V30 7359 H 719.086 6.44244 2.09658 0
M  V30 7360 H 720.029 7.04659 0.697222 0
M  V30 7361 H 720.437 5.46299 1.42187 0
M  V30 7362 N 719.835 0.176821 1.56605 0
M  V30 7363 C 721.083 -0.465793 1.96659 0
M  V30 7364 C 721.404 -1.63406 1.06412 0
M  V30 7365 O 720.674 -1.95457 0.131603 0
M  V30 7366 H 719.254 -0.175072 0.726195 0
M  V30 7367 H 721.916 0.25929 1.93168 0
M  V30 7368 H 721.012 -0.822138 3.01077 0
M  V30 7369 N 721.313 -1.57302 -0.09688 0
M  V30 7370 C 722.56 -1.85997 -0.800699 0
M  V30 7371 C 722.888 -0.765089 -1.7882 0
M  V30 7372 O 722.143 0.241492 -1.94204 0
M  V30 7373 C 722.442 -3.21272 -1.56586 0
M  V30 7374 C 722.108 -4.45104 -0.72064 0
M  V30 7375 C 720.77 -4.78723 -0.487632 0
M  V30 7376 C 723.122 -5.2103 -0.132948 0
M  V30 7377 C 720.45 -5.85697 0.34296 0
M  V30 7378 C 722.802 -6.28881 0.684957 0
M  V30 7379 C 721.466 -6.61017 0.928073 0
M  V30 7380 H 720.736 -0.680613 -0.292997 0
M  V30 7381 H 723.383 -1.91399 -0.0622474 0
M  V30 7382 H 721.688 -3.11547 -2.37583 0
M  V30 7383 H 723.385 -3.40702 -2.11478 0
M  V30 7384 H 719.975 -4.18777 -0.912359 0
M  V30 7385 H 724.159 -4.95392 -0.300132 0
M  V30 7386 H 719.415 -6.09008 0.540317 0
M  V30 7387 H 723.589 -6.86886 1.14721 0
M  V30 7388 H 721.216 -7.43738 1.57348 0
M  V30 7389 N 722.791 0.367657 -1.53252 0
M  V30 7390 C 724.207 0.709191 -1.42978 0
M  V30 7391 C 724.407 1.93352 -0.567193 0
M  V30 7392 O 723.463 2.52453 -0.0488349 0
M  V30 7393 C 724.776 0.924338 -2.86141 0
M  V30 7394 C 726.324 1.02448 -2.95759 0
M  V30 7395 C 726.799 1.27211 -4.39979 0
M  V30 7396 N 728.29 1.33986 -4.43398 0
M  V30 7397 C 729.025 1.54852 -5.52095 0
M  V30 7398 N 728.521 1.73049 -6.7084 0
M  V30 7399 N 730.314 1.57205 -5.39669 0
M  V30 7400 H 722.465 -0.437669 -2.07842 0
M  V30 7401 H 724.728 -0.133737 -0.938519 0
M  V30 7402 H 724.434 0.0965455 -3.51567 0
M  V30 7403 H 724.308 1.83302 -3.29667 0
M  V30 7404 H 726.695 1.84282 -2.30487 0
M  V30 7405 H 726.776 0.0932301 -2.5563 0
M  V30 7406 H 726.42 0.458792 -5.05824 0
M  V30 7407 H 726.35 2.21654 -4.77679 0
M  V30 7408 H 728.841 1.21545 -3.5782 0
M  V30 7409 H 729.154 1.88538 -7.49449 0
M  V30 7410 H 727.499 1.70231 -6.7383 0
M  V30 7411 H 730.69 1.42555 -4.45865 0
M  V30 7412 H 730.863 1.73126 -6.24445 0
M  V30 7413 N 724.269 1.44576 0.627338 0
M  V30 7414 C 725.518 1.46837 1.38281 0
M  V30 7415 C 725.831 0.10635 1.95311 0
M  V30 7416 O 727.037 0.00651084 2.71499 0
M  V30 7417 C 725.493 2.58527 2.50384 0
M  V30 7418 C 725.101 4.00953 1.99851 0
M  V30 7419 C 726.845 2.70013 3.27557 0
M  V30 7420 C 724.752 5.0406 3.09318 0
M  V30 7421 H 723.682 0.546319 0.519664 0
M  V30 7422 H 726.333 1.70654 0.674497 0
M  V30 7423 H 724.715 2.27957 3.23808 0
M  V30 7424 H 725.889 4.41108 1.33267 0
M  V30 7425 H 724.204 3.93743 1.35482 0
M  V30 7426 H 726.801 3.44217 4.09168 0
M  V30 7427 H 727.144 1.75961 3.77284 0
M  V30 7428 H 727.677 3.00011 2.61224 0
M  V30 7429 H 724.416 5.99753 2.6453 0
M  V30 7430 H 723.936 4.68493 3.74532 0
M  V30 7431 H 725.615 5.2793 3.74031 0
M  V30 7432 N 725.747 -0.868086 1.31537 0
M  V30 7433 C 726.694 -1.97548 1.19346 0
M  V30 7434 C 727.664 -1.65913 0.0787922 0
M  V30 7435 O 728.849 -1.89129 0.251985 0
M  V30 7436 C 725.989 -3.32922 0.908692 0
M  V30 7437 C 725.102 -3.77141 2.10687 0
M  V30 7438 C 724.237 -5.01241 1.75873 0
M  V30 7439 C 723.276 -5.37914 2.92088 0
M  V30 7440 N 722.413 -6.53192 2.57457 0
M  V30 7441 H 727.253 -2.07307 2.14074 0
M  V30 7442 H 724.79 -1.01483 1.06487 0
M  V30 7443 H 726.748 -4.10867 0.724138 0
M  V30 7444 H 725.378 -3.228 -0.0017611 0
M  V30 7445 H 724.43 -2.94961 2.40213 0
M  V30 7446 H 725.742 -4.00248 2.97663 0
M  V30 7447 H 724.896 -5.86858 1.53891 0
M  V30 7448 H 723.635 -4.80041 0.86091 0
M  V30 7449 H 722.64 -4.50814 3.14717 0
M  V30 7450 H 723.865 -5.61077 3.82582 0
M  V30 7451 H 721.811 -6.33536 1.702 0
M  V30 7452 H 721.728 -6.76252 3.37963 0
M  V30 7453 H 722.996 -7.41997 2.38873 0
M  V30 7454 N 727.225 -1.14528 -1.08264 0
M  V30 7455 C 728.641 -0.885976 -1.3275 0
M  V30 7456 C 728.841 0.472096 -1.95892 0
M  V30 7457 O 727.897 1.21606 -2.21288 0
M  V30 7458 C 729.21 -2.01982 -2.22764 0
M  V30 7459 C 730.758 -2.05329 -2.36239 0
M  V30 7460 C 731.233 -3.1801 -3.29596 0
M  V30 7461 N 732.724 -3.17598 -3.37173 0
M  V30 7462 C 733.459 -4.01426 -4.09444 0
M  V30 7463 N 732.955 -4.95297 -4.8441 0
M  V30 7464 N 734.748 -3.89482 -4.0529 0
M  V30 7465 H 726.899 -2.01996 -0.656607 0
M  V30 7466 H 729.162 -0.880274 -0.351884 0
M  V30 7467 H 728.868 -2.99964 -1.83615 0
M  V30 7468 H 728.742 -1.94421 -3.23234 0
M  V30 7469 H 731.129 -1.07953 -2.74646 0
M  V30 7470 H 731.21 -2.1696 -1.35506 0
M  V30 7471 H 730.854 -4.15633 -2.9191 0
M  V30 7472 H 730.784 -3.03616 -4.30261 0
M  V30 7473 H 733.275 -2.4961 -2.83731 0
M  V30 7474 H 733.588 -5.55723 -5.37021 0
M  V30 7475 H 731.933 -4.99293 -4.83457 0
M  V30 7476 H 735.124 -3.15465 -3.45832 0
M  V30 7477 H 735.297 -4.55039 -4.6135 0
M  V30 7478 N 728.703 1.26451 -0.940633 0
M  V30 7479 C 729.636 2.24771 -0.394094 0
M  V30 7480 C 730.614 1.54169 0.516781 0
M  V30 7481 O 731.798 1.82942 0.454352 0
M  V30 7482 C 728.925 3.3591 0.433807 0
M  V30 7483 C 727.971 4.24472 -0.415464 0
M  V30 7484 S 728.804 5.0293 -1.83907 0
M  V30 7485 C 729.96 6.17546 -1.01921 0
M  V30 7486 H 730.193 2.70782 -1.22737 0
M  V30 7487 H 727.726 1.35308 -0.743709 0
M  V30 7488 H 729.684 4.00387 0.905576 0
M  V30 7489 H 728.345 2.88512 1.24175 0
M  V30 7490 H 727.538 5.03525 0.218833 0
M  V30 7491 H 727.14 3.64857 -0.821897 0
M  V30 7492 H 729.432 6.76996 -0.261227 0
M  V30 7493 H 730.375 6.8528 -1.78318 0
M  V30 7494 H 730.783 5.6176 -0.555511 0
M  V30 7495 N 730.181 0.707592 1.40822 0
M  V30 7496 C 731.411 0.252706 2.05049 0
M  V30 7497 C 731.819 -1.10758 1.53393 0
M  V30 7498 O 731.162 -1.70567 0.682097 0
M  V30 7499 C 731.224 0.146001 3.59203 0
M  V30 7500 C 730.888 1.44027 4.33711 0
M  V30 7501 C 731.885 2.38058 4.62195 0
M  V30 7502 C 729.57 1.69698 4.72766 0
M  V30 7503 C 731.564 3.56013 5.28709 0
M  V30 7504 C 729.251 2.87936 5.39014 0
M  V30 7505 C 730.249 3.80915 5.66915 0
M  V30 7506 O 729.937 4.9708 6.31796 0
M  V30 7507 H 729.669 0.112784 0.666525 0
M  V30 7508 H 732.223 0.96417 1.81364 0
M  V30 7509 H 730.453 -0.621338 3.81676 0
M  V30 7510 H 732.142 -0.273275 4.04979 0
M  V30 7511 H 732.908 2.19487 4.32493 0
M  V30 7512 H 728.787 0.981835 4.50423 0
M  V30 7513 H 732.331 4.28604 5.50404 0
M  V30 7514 H 728.228 3.06419 5.68135 0
M  V30 7515 H 728.996 4.97053 6.50293 0
M  V30 7516 N 731.66 -1.50943 0.453197 0
M  V30 7517 C 732.937 -1.94872 -0.168633 0
M  V30 7518 C 733.317 -1.39272 -1.5864 0
M  V30 7519 O 732.665 -0.586272 -2.20851 0
M  V30 7520 C 732.875 -3.48757 -0.130217 0
M  V30 7521 C 734.223 -4.23331 -0.327975 0
M  V30 7522 O 735.247 -3.55594 -0.207619 0
M  V30 7523 O 734.106 -5.43529 -0.569077 0
M  V30 7524 H 731.2 -0.818042 -0.121394 0
M  V30 7525 H 733.746 -1.61782 0.512316 0
M  V30 7526 H 732.518 -3.81725 0.860346 0
M  V30 7527 H 732.141 -3.88333 -0.853397 0
M  V30 7528 N 733.138 -0.185124 -1.56509 0
M  V30 7529 C 734.415 0.503348 -1.89013 0
M  V30 7530 C 734.795 1.80349 -1.09715 0
M  V30 7531 O 734.143 2.27665 -0.195203 0
M  V30 7532 C 734.353 0.731839 -3.41241 0
M  V30 7533 C 735.701 1.05568 -4.11267 0
M  V30 7534 O 736.725 0.819906 -3.46635 0
M  V30 7535 O 735.584 1.50116 -5.25478 0
M  V30 7536 H 732.678 0.261139 -0.784688 0
M  V30 7537 H 735.224 -0.224592 -1.68207 0
M  V30 7538 H 733.996 -0.18672 -3.90854 0
M  V30 7539 H 733.619 1.5126 -3.67704 0
M  V30 7540 N 734.616 1.57351 0.0885366 0
M  V30 7541 C 735.566 1.98963 1.11346 0
M  V30 7542 C 736.55 0.869065 1.35411 0
M  V30 7543 O 737.742 1.13292 1.35992 0
M  V30 7544 C 734.871 2.4231 2.43189 0
M  V30 7545 C 733.957 3.61065 2.22469 0
M  V30 7546 N 734.348 4.75789 1.71635 0
M  V30 7547 C 732.646 3.6729 2.5301 0
M  V30 7548 C 733.347 5.57708 1.65339 0
M  V30 7549 N 732.323 5.01067 2.1079 0
M  V30 7550 H 736.125 2.85109 0.713465 0
M  V30 7551 H 733.639 1.59682 0.295868 0
M  V30 7552 H 735.636 2.70352 3.17357 0
M  V30 7553 H 734.296 1.57544 2.83919 0
M  V30 7554 H 735.307 4.98411 1.40738 0
M  V30 7555 H 731.984 2.932 2.9722 0
M  V30 7556 H 733.374 6.59782 1.27031 0
M  V30 7557 N 736.094 -0.359525 1.53444 0
M  V30 7558 C 737.34 -1.10315 1.70172 0
M  V30 7559 C 737.673 -1.88788 0.455287 0
M  V30 7560 O 736.948 -1.86635 -0.547514 0
M  V30 7561 C 737.231 -2.05744 2.95536 0
M  V30 7562 C 737.084 -1.3084 4.3035 0
M  V30 7563 C 738.403 -3.05784 3.16518 0
M  V30 7564 H 735.522 -0.399662 0.619225 0
M  V30 7565 H 738.164 -0.383338 1.86093 0
M  V30 7566 H 736.314 -2.67125 2.82093 0
M  V30 7567 H 737.986 -0.721959 4.55615 0
M  V30 7568 H 736.229 -0.610283 4.29486 0
M  V30 7569 H 736.9 -2.00718 5.14214 0
M  V30 7570 H 739.376 -2.5451 3.29187 0
M  V30 7571 H 738.252 -3.69772 4.05659 0
M  V30 7572 H 738.513 -3.76289 2.32076 0
M  V30 7573 N 737.572 -1.44907 -0.619662 0
M  V30 7574 C 738.82 -1.47999 -1.37625 0
M  V30 7575 C 739.141 -0.118295 -1.94641 0
M  V30 7576 O 738.411 0.85086 -1.76457 0
M  V30 7577 H 736.991 -0.544993 -0.510873 0
M  V30 7578 H 739.653 -1.80772 -0.728522 0
M  V30 7579 H 738.749 -2.21196 -2.20179 0
M  V30 7580 N 739.05 0.861098 -1.31996 0
M  V30 7581 C 740.275 1.65264 -1.2531 0
M  V30 7582 C 740.7 1.87265 0.177007 0
M  V30 7583 O 740.058 1.4208 1.12619 0
M  V30 7584 C 740.106 2.99284 -2.0115 0
M  V30 7585 O 739.21 3.89508 -1.3549 0
M  V30 7586 H 738.551 0.50409 -0.432192 0
M  V30 7587 H 741.081 1.07297 -1.74208 0
M  V30 7588 H 741.091 3.49154 -2.11081 0
M  V30 7589 H 739.766 2.82591 -3.05148 0
M  V30 7590 H 738.343 3.47966 -1.34066 0
M  V30 7591 N 740.528 1.15101 1.07655 0
M  V30 7592 C 741.458 0.867864 2.16773 0
M  V30 7593 C 742.439 -0.180283 1.69142 0
M  V30 7594 O 743.624 -0.0353152 1.94168 0
M  V30 7595 C 740.754 0.35299 3.45501 0
M  V30 7596 C 739.708 1.33746 4.06566 0
M  V30 7597 C 739.034 0.681562 5.30338 0
M  V30 7598 C 740.334 2.7024 4.46954 0
M  V30 7599 H 742.028 1.78034 2.40716 0
M  V30 7600 H 739.574 0.857435 1.15689 0
M  V30 7601 H 741.527 0.142465 4.21159 0
M  V30 7602 H 740.251 -0.594945 3.21135 0
M  V30 7603 H 738.91 1.53429 3.32949 0
M  V30 7604 H 738.558 -0.272422 5.02262 0
M  V30 7605 H 738.258 1.33853 5.72151 0
M  V30 7606 H 739.782 0.48074 6.08705 0
M  V30 7607 H 741.196 2.5442 5.13754 0
M  V30 7608 H 739.593 3.32282 4.99709 0
M  V30 7609 H 740.663 3.26537 3.58471 0
M  V30 7610 N 742.006 -1.2595 0.947325 0
M  V30 7611 C 743.422 -1.45737 0.650597 0
M  V30 7612 C 743.622 -1.85189 -0.794188 0
M  V30 7613 O 742.678 -1.97738 -1.57022 0
M  V30 7614 C 743.991 -2.53505 1.61728 0
M  V30 7615 C 745.539 -2.67351 1.62765 0
M  V30 7616 C 746.014 -3.78296 2.58179 0
M  V30 7617 N 747.505 -3.85696 2.56501 0
M  V30 7618 C 748.24 -4.71012 3.2701 0
M  V30 7619 N 747.736 -5.60669 4.06966 0
M  V30 7620 N 749.529 -4.64912 3.15932 0
M  V30 7621 H 741.68 -0.986327 1.8811 0
M  V30 7622 H 743.943 -0.494639 0.808725 0
M  V30 7623 H 743.649 -2.31357 2.6489 0
M  V30 7624 H 743.523 -3.51281 1.3741 0
M  V30 7625 H 745.91 -2.88869 0.603241 0
M  V30 7626 H 745.991 -1.69998 1.91139 0
M  V30 7627 H 745.635 -3.5753 3.60742 0
M  V30 7628 H 745.565 -4.75117 2.27093 0
M  V30 7629 H 748.056 -3.21601 1.98447 0
M  V30 7630 H 748.369 -6.22677 4.57704 0
M  V30 7631 H 746.714 -5.60402 4.11066 0
M  V30 7632 H 749.905 -3.93874 2.52945 0
M  V30 7633 H 750.078 -5.3118 3.71149 0
M  V30 7634 N 743.484 -0.715051 -1.40445 0
M  V30 7635 C 744.447 -0.0708726 -2.2909 0
M  V30 7636 C 745.447 0.687926 -1.45342 0
M  V30 7637 O 746.637 0.519908 -1.66261 0
M  V30 7638 C 743.769 0.909528 -3.28543 0
M  V30 7639 H 744.962 -0.851611 -2.87555 0
M  V30 7640 H 742.515 -0.479674 -1.48758 0
M  V30 7641 H 743.25 1.71734 -2.75096 0
M  V30 7642 H 743.035 0.368318 -3.90366 0
M  V30 7643 H 744.525 1.35744 -3.94922 0
M  V30 7644 N 744.962 1.50701 -0.461195 0
M  V30 7645 C 745.895 2.24948 0.383863 0
M  V30 7646 C 746.873 1.27851 1.00464 0
M  V30 7647 O 748.057 1.57049 1.04249 0
M  V30 7648 C 745.184 3.01818 1.537 0
M  V30 7649 C 744.23 4.13762 1.03457 0
M  V30 7650 S 745.063 5.35483 -0.0427485 0
M  V30 7651 C 746.219 6.15898 1.11449 0
M  V30 7652 H 746.452 2.96277 -0.246425 0
M  V30 7653 H 743.985 1.52428 -0.245961 0
M  V30 7654 H 745.943 3.467 2.19794 0
M  V30 7655 H 744.604 2.30034 2.13877 0
M  V30 7656 H 743.797 4.66914 1.89757 0
M  V30 7657 H 743.399 3.71265 0.4515 0
M  V30 7658 H 745.691 6.46431 2.02813 0
M  V30 7659 H 746.634 7.05359 0.622444 0
M  V30 7660 H 747.042 5.47777 1.36385 0
M  V30 7661 N 746.441 0.193421 1.56409 0
M  V30 7662 C 747.718 -0.493318 1.89277 0
M  V30 7663 C 748.098 -1.79765 1.10669 0
M  V30 7664 O 747.446 -2.27558 0.207274 0
M  V30 7665 C 747.656 -0.713732 3.41624 0
M  V30 7666 C 749.004 -1.03385 4.11821 0
M  V30 7667 O 750.028 -0.801511 3.47065 0
M  V30 7668 O 748.887 -1.47327 5.26267 0
M  V30 7669 H 745.981 -0.256973 0.786062 0
M  V30 7670 H 748.527 0.23351 1.68086 0
M  V30 7671 H 747.299 0.207446 3.9075 0
M  V30 7672 H 746.922 -1.49308 3.68501 0
M  V30 7673 N 747.919 -1.57396 -0.0801906 0
M  V30 7674 C 749.33 -1.75642 -0.633002 0
M  V30 7675 C 749.681 -0.817708 -1.78348 0
M  V30 7676 O 748.806 0.000233743 -2.164 0
M  V30 7677 C 749.401 -3.18502 -1.15507 0
M  V30 7678 C 747.96 -3.38121 -1.65381 0
M  V30 7679 C 747.107 -2.71386 -0.569661 0
M  V30 7680 H 750.058 -1.58027 0.145949 0
M  V30 7681 H 750.079 -3.22198 -2.02408 0
M  V30 7682 H 749.591 -3.86799 -0.317515 0
M  V30 7683 H 747.692 -2.74926 -2.51488 0
M  V30 7684 H 747.805 -4.46521 -1.73654 0
M  V30 7685 H 746.169 -2.33702 -1.0127 0
M  V30 7686 H 746.952 -3.42332 0.257561 0
M  V30 7687 N 749.397 0.351382 -1.53633 0
M  V30 7688 C 750.643 1.09411 -1.70754 0
M  V30 7689 C 750.976 1.88544 -0.465293 0
M  V30 7690 O 750.251 1.86923 0.537608 0
M  V30 7691 C 750.534 2.04173 -2.96623 0
M  V30 7692 C 750.387 1.28556 -4.31038 0
M  V30 7693 C 751.706 3.04102 -3.18136 0
M  V30 7694 H 748.825 0.396373 -0.621335 0
M  V30 7695 H 751.467 0.373464 -1.86293 0
M  V30 7696 H 749.617 2.65625 -2.83506 0
M  V30 7697 H 751.289 0.697786 -4.55992 0
M  V30 7698 H 749.532 0.587498 -4.29803 0
M  V30 7699 H 750.203 1.97989 -5.15271 0
M  V30 7700 H 752.679 2.5276 -3.30532 0
M  V30 7701 H 751.555 3.67616 -4.07615 0
M  V30 7702 H 751.816 3.75053 -2.34068 0
M  V30 7703 N 750.875 1.45233 0.611969 0
M  V30 7704 C 752.1 1.52767 1.40274 0
M  V30 7705 C 752.525 0.159701 1.87421 0
M  V30 7706 O 751.883 -0.854837 1.59882 0
M  V30 7707 C 751.931 2.51286 2.58626 0
M  V30 7708 O 751.035 2.02764 3.59111 0
M  V30 7709 H 750.376 0.515141 0.418958 0
M  V30 7710 H 752.906 1.90547 0.745188 0
M  V30 7711 H 752.916 2.69949 3.05927 0
M  V30 7712 H 751.591 3.50641 2.23659 0
M  V30 7713 H 750.168 1.93957 3.18489 0
M  V30 7714 N 752.353 -0.854086 1.3245 0
M  V30 7715 C 753.601 -1.60513 1.228 0
M  V30 7716 C 753.922 -1.93865 -0.210073 0
M  V30 7717 O 753.192 -1.59673 -1.13496 0
M  V30 7718 H 751.772 -0.595099 0.451516 0
M  V30 7719 H 754.434 -1.0216 1.6598 0
M  V30 7720 H 753.53 -2.54182 1.81102 0
M  V30 7721 N 753.831 -1.1567 -1.07043 0
M  V30 7722 C 754.778 -0.856336 -2.14326 0
M  V30 7723 C 755.748 0.192051 -1.64986 0
M  V30 7724 O 756.933 0.0589148 -1.90709 0
M  V30 7725 C 754.073 -0.355227 -3.43267 0
M  V30 7726 C 753.186 -1.46555 -4.06381 0
M  V30 7727 C 752.321 -0.920245 -5.23168 0
M  V30 7728 C 751.36 -2.00729 -5.78251 0
M  V30 7729 N 750.497 -1.47813 -6.86364 0
M  V30 7730 H 755.337 -1.77514 -2.39359 0
M  V30 7731 H 752.874 -0.885676 -1.17449 0
M  V30 7732 H 754.832 -0.0463804 -4.17174 0
M  V30 7733 H 753.462 0.526649 -3.18475 0
M  V30 7734 H 752.514 -1.89052 -3.30096 0
M  V30 7735 H 753.826 -2.28616 -4.43324 0
M  V30 7736 H 752.98 -0.564127 -6.04072 0
M  V30 7737 H 751.719 -0.0688477 -4.87651 0
M  V30 7738 H 750.724 -2.3722 -4.95991 0
M  V30 7739 H 751.949 -2.86252 -6.15822 0
M  V30 7740 H 749.895 -0.649145 -6.5278 0
M  V30 7741 H 749.812 -2.23498 -7.22208 0
M  V30 7742 H 751.08 -1.15036 -7.70965 0
M  V30 7743 N 755.309 1.25446 -0.953992 0
M  V30 7744 C 756.555 1.9343 -0.60933 0
M  V30 7745 C 756.888 1.74542 0.851388 0
M  V30 7746 O 756.163 1.09014 1.61078 0
M  V30 7747 C 756.446 3.46844 -0.968041 0
M  V30 7748 C 756.299 3.74961 -2.48444 0
M  V30 7749 C 757.618 4.37334 -0.492641 0
M  V30 7750 H 754.737 0.702502 -0.222844 0
M  V30 7751 H 757.379 1.48076 -1.19053 0
M  V30 7752 H 755.529 3.85604 -0.473465 0
M  V30 7753 H 757.201 3.45841 -3.05273 0
M  V30 7754 H 755.444 3.20589 -2.92241 0
M  V30 7755 H 756.115 4.82246 -2.68594 0
M  V30 7756 H 758.591 4.05873 -0.916878 0
M  V30 7757 H 757.467 5.43439 -0.772331 0
M  V30 7758 H 757.728 4.37908 0.607403 0
M  V30 7759 N 756.787 0.722489 1.40064 0
M  V30 7760 C 758.033 0.265371 2.01056 0
M  V30 7761 C 758.366 -1.14062 1.57174 0
M  V30 7762 O 757.641 -1.77514 0.794916 0
M  V30 7763 C 757.924 0.353157 3.58364 0
M  V30 7764 C 757.777 1.79802 4.123 0
M  V30 7765 C 759.096 -0.271677 4.39261 0
M  V30 7766 H 756.215 0.0979002 0.730469 0
M  V30 7767 H 758.857 0.916289 1.66446 0
M  V30 7768 H 757.007 -0.201037 3.87979 0
M  V30 7769 H 758.679 2.40813 3.93455 0
M  V30 7770 H 756.922 2.32348 3.66329 0
M  V30 7771 H 757.593 1.81079 5.21454 0
M  V30 7772 H 760.069 0.200607 4.15616 0
M  V30 7773 H 758.945 -0.179843 5.48605 0
M  V30 7774 H 759.206 -1.35611 4.20787 0
M  V30 7775 N 758.265 -1.50454 0.469181 0
M  V30 7776 C 759.511 -2.03248 -0.0787241 0
M  V30 7777 C 759.866 -1.34499 -1.37578 0
M  V30 7778 O 759.159 -0.461173 -1.85967 0
M  V30 7779 C 759.353 -3.55963 -0.320207 0
M  V30 7780 C 759.182 -4.3951 0.951893 0
M  V30 7781 C 757.952 -4.82689 1.49465 0
M  V30 7782 C 760.15 -4.79999 1.84677 0
M  V30 7783 N 758.132 -5.50553 2.71597 0
M  V30 7784 C 759.503 -5.47254 2.91398 0
M  V30 7785 C 761.558 -4.61959 1.85738 0
M  V30 7786 C 760.261 -5.98381 3.99166 0
M  V30 7787 C 762.287 -5.14024 2.92461 0
M  V30 7788 C 761.649 -5.81253 3.97901 0
M  V30 7789 H 757.748 -0.78192 0.0111715 0
M  V30 7790 H 760.332 -1.83986 0.636961 0
M  V30 7791 H 758.503 -3.75174 -1.00493 0
M  V30 7792 H 760.235 -3.95407 -0.862285 0
M  V30 7793 H 756.99 -4.61948 1.0441 0
M  V30 7794 H 757.414 -5.89093 3.33615 0
M  V30 7795 H 762.056 -4.09416 1.05539 0
M  V30 7796 H 759.774 -6.49961 4.80183 0
M  V30 7797 H 763.36 -5.01897 2.94263 0
M  V30 7798 H 762.24 -6.20814 4.79123 0
M  V30 7799 N 759.743 -0.201713 -1.56304 0
M  V30 7800 C 760.653 0.728296 -2.23009 0
M  V30 7801 C 761.669 1.22945 -1.23128 0
M  V30 7802 O 762.845 1.27523 -1.55884 0
M  V30 7803 C 759.91 1.92792 -2.88153 0
M  V30 7804 C 758.971 1.47068 -4.03323 0
M  V30 7805 C 758.204 2.61312 -4.65351 0
M  V30 7806 O 758.427 3.7896 -4.26317 0
M  V30 7807 O 757.361 2.33646 -5.54701 0
M  V30 7808 H 761.187 0.190166 -3.03104 0
M  V30 7809 H 758.772 0.0278725 -1.49374 0
M  V30 7810 H 760.654 2.6289 -3.29343 0
M  V30 7811 H 759.329 2.45452 -2.11033 0
M  V30 7812 H 758.236 0.738299 -3.66742 0
M  V30 7813 H 759.569 0.990666 -4.82127 0
M  V30 7814 N 761.222 1.57436 0.0718424 0
M  V30 7815 C 762.172 2.00132 1.09229 0
M  V30 7816 C 763.156 0.883379 1.34481 0
M  V30 7817 O 764.348 1.14728 1.34783 0
M  V30 7818 C 761.477 2.44876 2.40605 0
M  V30 7819 C 760.563 3.63405 2.18627 0
M  V30 7820 N 760.954 4.77583 1.66579 0
M  V30 7821 C 759.252 3.69953 2.491 0
M  V30 7822 C 759.953 5.5943 1.59415 0
M  V30 7823 N 758.929 5.03275 2.05464 0
M  V30 7824 H 762.731 2.85849 0.683185 0
M  V30 7825 H 760.245 1.59987 0.278914 0
M  V30 7826 H 762.242 2.73703 3.14471 0
M  V30 7827 H 760.902 1.60546 2.82232 0
M  V30 7828 H 761.913 4.99875 1.35443 0
M  V30 7829 H 758.59 2.96336 2.94094 0
M  V30 7830 H 759.98 6.61093 1.20026 0
M  V30 7831 N 762.7 -0.34323 1.53817 0
M  V30 7832 C 763.647 -1.42153 1.81827 0
M  V30 7833 C 764.617 -1.52251 0.663996 0
M  V30 7834 O 765.802 -1.67784 0.908461 0
M  V30 7835 C 762.942 -2.78799 2.03384 0
M  V30 7836 C 762.055 -2.7749 3.31094 0
M  V30 7837 C 761.19 -4.05856 3.42717 0
M  V30 7838 C 760.229 -3.98776 4.64375 0
M  V30 7839 N 759.366 -5.18833 4.73029 0
M  V30 7840 H 764.206 -1.17567 2.73829 0
M  V30 7841 H 761.743 -0.569506 1.35628 0
M  V30 7842 H 763.701 -3.58211 2.13872 0
M  V30 7843 H 762.331 -3.01736 1.14696 0
M  V30 7844 H 761.383 -1.90182 3.29446 0
M  V30 7845 H 762.695 -2.68137 4.206 0
M  V30 7846 H 761.849 -4.93691 3.52638 0
M  V30 7847 H 760.588 -4.1799 2.51267 0
M  V30 7848 H 759.593 -3.09325 4.5453 0
M  V30 7849 H 760.818 -3.88224 5.57189 0
M  V30 7850 H 758.764 -5.31511 3.84489 0
M  V30 7851 H 758.681 -5.11737 5.56472 0
M  V30 7852 H 759.949 -6.08439 4.87261 0
M  V30 7853 N 764.178 -1.45556 -0.604258 0
M  V30 7854 C 765.088 -1.57025 -1.74299 0
M  V30 7855 C 766.104 -0.45456 -1.67958 0
M  V30 7856 O 767.28 -0.715711 -1.88254 0
M  V30 7857 C 764.345 -1.53702 -3.10768 0
M  V30 7858 C 763.406 -2.76335 -3.28538 0
M  V30 7859 C 762.639 -2.73161 -4.58496 0
M  V30 7860 O 762.862 -1.80678 -5.41028 0
M  V30 7861 O 761.796 -3.64409 -4.79051 0
M  V30 7862 H 765.622 -2.53284 -1.67573 0
M  V30 7863 H 763.207 -1.28104 -0.768745 0
M  V30 7864 H 765.089 -1.54468 -3.92068 0
M  V30 7865 H 763.764 -0.605957 -3.17978 0
M  V30 7866 H 762.671 -2.8113 -2.46813 0
M  V30 7867 H 764.004 -3.68578 -3.26207 0
M  V30 7868 N 765.656 0.84705 -1.32902 0
M  V30 7869 C 766.606 1.94451 -1.19049 0
M  V30 7870 C 767.59 1.60617 -0.095461 0
M  V30 7871 O 768.782 1.74033 -0.322739 0
M  V30 7872 C 765.911 3.30645 -0.923509 0
M  V30 7873 C 764.997 3.70675 -2.0606 0
M  V30 7874 N 765.388 3.82468 -3.30986 0
M  V30 7875 C 763.686 4.00357 -1.96547 0
M  V30 7876 C 764.387 4.17056 -4.05511 0
M  V30 7877 N 763.363 4.28985 -3.33876 0
M  V30 7878 H 767.165 2.01713 -2.1375 0
M  V30 7879 H 764.679 1.03928 -1.24791 0
M  V30 7880 H 766.676 4.0905 -0.805212 0
M  V30 7881 H 765.336 3.24697 0.0150523 0
M  V30 7882 H 766.347 3.66589 -3.65832 0
M  V30 7883 H 763.024 4.02666 -1.10299 0
M  V30 7884 H 764.414 4.33585 -5.13277 0
M  V30 7885 N 767.134 1.16236 1.06428 0
M  V30 7886 C 768.064 0.890807 2.1584 0
M  V30 7887 C 769.045 -0.162333 1.69324 0
M  V30 7888 O 770.23 -0.0147191 1.94194 0
M  V30 7889 C 767.36 0.389615 3.45108 0
M  V30 7890 C 766.314 1.38051 4.05125 0
M  V30 7891 C 765.64 0.737773 5.29586 0
M  V30 7892 C 766.94 2.74965 4.44062 0
M  V30 7893 H 768.634 1.80577 2.38814 0
M  V30 7894 H 766.18 0.869657 1.14774 0
M  V30 7895 H 768.133 0.187127 4.20984 0
M  V30 7896 H 766.857 -0.560851 3.21748 0
M  V30 7897 H 765.516 1.56952 3.31303 0
M  V30 7898 H 765.164 -0.219135 5.02522 0
M  V30 7899 H 764.864 1.39914 5.70699 0
M  V30 7900 H 766.388 0.545275 6.0816 0
M  V30 7901 H 767.802 2.59855 5.11027 0
M  V30 7902 H 766.199 3.37563 4.96156 0
M  V30 7903 H 767.269 3.30321 3.54987 0
M  V30 7904 N 768.612 -1.24939 0.960631 0
M  V30 7905 C 770.023 -1.74701 0.658529 0
M  V30 7906 C 770.374 -1.77967 -0.825959 0
M  V30 7907 O 769.499 -1.40444 -1.64634 0
M  V30 7908 C 770.094 -3.17263 1.18867 0
M  V30 7909 C 768.653 -3.64561 0.936614 0
M  V30 7910 C 767.8 -2.43423 1.32817 0
M  V30 7911 H 770.751 -1.10741 1.13676 0
M  V30 7912 H 770.772 -3.76481 0.551589 0
M  V30 7913 H 770.284 -3.14854 2.26912 0
M  V30 7914 H 768.385 -3.72378 -0.128608 0
M  V30 7915 H 768.498 -4.52392 1.57729 0
M  V30 7916 H 766.862 -2.43513 0.746548 0
M  V30 7917 H 767.645 -2.437 2.41796 0
M  V30 7918 N 770.09 -0.729906 -1.39679 0
M  V30 7919 C 771.02 -0.101618 -2.33279 0
M  V30 7920 C 772.001 0.729854 -1.53646 0
M  V30 7921 O 773.186 0.67587 -1.82059 0
M  V30 7922 C 770.316 0.81024 -3.37716 0
M  V30 7923 C 769.27 0.0833126 -4.27919 0
M  V30 7924 C 768.596 1.11185 -5.23012 0
M  V30 7925 C 769.896 -1.07107 -5.112 0
M  V30 7926 H 771.59 -0.883452 -2.86069 0
M  V30 7927 H 769.136 -0.426283 -1.37546 0
M  V30 7928 H 771.089 1.25927 -4.02145 0
M  V30 7929 H 769.813 1.62413 -2.83354 0
M  V30 7930 H 768.472 -0.346043 -3.64963 0
M  V30 7931 H 768.12 1.91917 -4.64948 0
M  V30 7932 H 767.82 0.63026 -5.8421 0
M  V30 7933 H 769.344 1.56068 -5.90318 0
M  V30 7934 H 770.758 -0.700726 -5.69002 0
M  V30 7935 H 769.155 -1.48196 -5.81514 0
M  V30 7936 H 770.225 -1.89513 -4.46332 0
M  V30 7937 N 771.568 1.50203 -0.477153 0
M  V30 7938 C 772.814 2.03286 0.0679442 0
M  V30 7939 C 773.169 1.35227 1.36863 0
M  V30 7940 O 772.462 0.471029 1.8572 0
M  V30 7941 C 772.656 3.56127 0.301325 0
M  V30 7942 C 772.485 4.38999 -0.975188 0
M  V30 7943 C 771.255 4.81889 -1.52022 0
M  V30 7944 C 773.453 4.79013 -1.8722 0
M  V30 7945 N 771.435 5.49105 -2.74513 0
M  V30 7946 C 772.806 5.45701 -2.94296 0
M  V30 7947 C 774.861 4.60967 -1.88185 0
M  V30 7948 C 773.564 5.96255 -4.02333 0
M  V30 7949 C 775.59 5.12466 -2.95183 0
M  V30 7950 C 774.952 5.79134 -4.00977 0
M  V30 7951 H 771.051 0.78185 -0.015318 0
M  V30 7952 H 773.635 1.83646 -0.64671 0
M  V30 7953 H 771.806 3.75702 0.985021 0
M  V30 7954 H 773.538 3.95859 0.841304 0
M  V30 7955 H 770.293 4.61387 -1.06858 0
M  V30 7956 H 770.717 5.87315 -3.36734 0
M  V30 7957 H 775.359 4.0885 -1.07708 0
M  V30 7958 H 773.077 6.47406 -4.83623 0
M  V30 7959 H 776.663 5.00329 -2.96921 0
M  V30 7960 H 775.543 6.18265 -4.82409 0
M  V30 7961 N 773.046 0.209999 1.56195 0
M  V30 7962 C 774.009 -0.691232 2.18528 0
M  V30 7963 C 775.009 -1.13013 1.14388 0
M  V30 7964 O 776.199 -1.04081 1.39688 0
M  V30 7965 C 773.331 -1.94551 2.79934 0
M  V30 7966 H 774.524 -0.147953 2.99535 0
M  V30 7967 H 772.077 -0.0396243 1.5625 0
M  V30 7968 H 772.812 -2.53094 2.02766 0
M  V30 7969 H 772.597 -1.63938 3.56184 0
M  V30 7970 H 774.087 -2.58785 3.2775 0
M  V30 7971 N 774.524 -1.57472 -0.0634922 0
M  V30 7972 C 775.772 -1.87283 -0.759563 0
M  V30 7973 C 776.093 -0.803135 -1.77693 0
M  V30 7974 O 775.363 0.167293 -1.95184 0
M  V30 7975 H 773.943 -0.691106 -0.283516 0
M  V30 7976 H 776.605 -1.94864 -0.0376091 0
M  V30 7977 H 775.701 -2.85064 -1.27062 0
M  V30 7978 N 776.003 0.335068 -1.53997 0
M  V30 7979 C 777.249 1.07594 -1.71905 0
M  V30 7980 C 777.582 1.88039 -0.485264 0
M  V30 7981 O 776.857 1.87482 0.517752 0
M  V30 7982 C 777.14 2.01016 -2.98772 0
M  V30 7983 C 776.993 1.23977 -4.32377 0
M  V30 7984 C 778.312 3.0071 -3.21343 0
M  V30 7985 H 775.431 0.38976 -0.625505 0
M  V30 7986 H 778.073 0.353684 -1.86679 0
M  V30 7987 H 776.223 2.62603 -2.86307 0
M  V30 7988 H 777.895 0.649383 -4.56706 0
M  V30 7989 H 776.138 0.541878 -4.30402 0
M  V30 7990 H 776.809 1.92512 -5.17342 0
M  V30 7991 H 779.285 2.4924 -3.33194 0
M  V30 7992 H 778.161 3.63272 -4.11491 0
M  V30 7993 H 778.422 3.72549 -2.38033 0
M  V30 7994 N 777.481 1.45874 0.596531 0
M  V30 7995 C 778.411 1.5824 1.71705 0
M  V30 7996 C 779.392 0.433366 1.64487 0
M  V30 7997 O 780.577 0.657895 1.82717 0
M  V30 7998 C 777.707 1.55927 3.10329 0
M  V30 7999 C 776.661 2.69659 3.32367 0
M  V30 8000 C 775.987 2.52403 4.71377 0
M  V30 8001 C 777.287 4.11591 3.21544 0
M  V30 8002 H 778.981 2.52035 1.61613 0
M  V30 8003 H 776.527 1.21297 0.776082 0
M  V30 8004 H 778.48 1.63173 3.88526 0
M  V30 8005 H 777.204 0.586674 3.21288 0
M  V30 8006 H 775.863 2.61859 2.56564 0
M  V30 8007 H 775.511 1.53258 4.79083 0
M  V30 8008 H 775.211 3.28679 4.87077 0
M  V30 8009 H 776.735 2.6152 5.5176 0
M  V30 8010 H 778.149 4.20576 3.89601 0
M  V30 8011 H 776.546 4.88344 3.4877 0
M  V30 8012 H 777.616 4.32719 2.1882 0
M  V30 8013 N 778.959 -0.83999 1.33349 0
M  V30 8014 C 779.922 -1.93128 1.23426 0
M  V30 8015 C 780.922 -1.60065 0.153599 0
M  V30 8016 O 782.112 -1.69425 0.405049 0
M  V30 8017 C 779.244 -3.28761 0.901622 0
M  V30 8018 H 780.437 -2.03352 2.20427 0
M  V30 8019 H 777.99 -1.03194 1.17391 0
M  V30 8020 H 778.725 -3.24233 -0.0659337 0
M  V30 8021 H 778.51 -3.54138 1.68311 0
M  V30 8022 H 780 -4.08714 0.856913 0
M  V30 8023 N 780.437 -1.16799 -1.0581 0
M  V30 8024 C 781.665 -0.97687 -1.82387 0
M  V30 8025 C 782.08 0.474917 -1.82729 0
M  V30 8026 O 781.437 1.3297 -1.25001 0
M  V30 8027 C 781.488 -1.50279 -3.28783 0
M  V30 8028 O 781.209 -2.89772 -3.28578 0
M  V30 8029 C 782.71 -1.35538 -4.22071 0
M  V30 8030 H 779.93 -0.345977 -0.574927 0
M  V30 8031 H 782.474 -1.54942 -1.33466 0
M  V30 8032 H 780.629 -0.972414 -3.74997 0
M  V30 8033 H 781.043 -3.13954 -4.20159 0
M  V30 8034 H 782.517 -1.7716 -5.22799 0
M  V30 8035 H 782.994 -0.301598 -4.38163 0
M  V30 8036 H 783.6 -1.87562 -3.81708 0
M  V30 8037 N 781.915 1.24427 -0.967243 0
M  V30 8038 C 782.878 2.23637 -0.501927 0
M  V30 8039 C 783.878 1.55712 0.401283 0
M  V30 8040 O 785.068 1.73085 0.196808 0
M  V30 8041 C 782.2 3.39804 0.273176 0
M  V30 8042 H 783.393 2.66317 -1.37897 0
M  V30 8043 H 780.946 1.37033 -0.751783 0
M  V30 8044 H 781.681 3.02562 1.16733 0
M  V30 8045 H 781.466 3.90303 -0.37498 0
M  V30 8046 H 782.956 4.13443 0.587776 0
M  V30 8047 N 783.393 0.737304 1.3929 0
M  V30 8048 C 784.641 0.285691 2.00071 0
M  V30 8049 C 784.962 -1.13169 1.58801 0
M  V30 8050 O 784.232 -1.77104 0.837308 0
M  V30 8051 H 782.812 0.102638 0.739915 0
M  V30 8052 H 785.474 0.947775 1.70303 0
M  V30 8053 H 784.57 0.335906 3.10287 0
M  V30 8054 N 784.871 -1.49948 0.485112 0
M  V30 8055 C 785.819 -2.30449 -0.315609 0
M  V30 8056 C 786.813 -1.38351 -0.977516 0
M  V30 8057 O 788.019 -1.55477 -0.907019 0
M  V30 8058 H 784.394 -0.742262 -0.120629 0
M  V30 8059 H 786.365 -2.95925 0.383552 0
M  V30 8060 C 785.114 -3.19283 -1.37673 0
M  V30 8061 H 784.437 -3.90067 -0.876801 0
M  V30 8062 H 785.877 -3.78579 -1.90929 0
M  V30 8063 C 784.336 -2.37817 -2.38631 0
M  V30 8064 O 784.866 -2.0711 -3.44192 0
M  V30 8065 N 783.072 -2.00135 -2.107 0
M  V30 8066 H 782.619 -2.25307 -1.24878 0
M  V30 8067 H 782.577 -1.45933 -2.7848 0
M  V30 8068 N 786.349 -0.21828 -1.56081 0
M  V30 8069 C 787.279 0.687922 -2.23136 0
M  V30 8070 C 788.26 1.20357 -1.202 0
M  V30 8071 O 789.445 1.24817 -1.48776 0
M  V30 8072 C 786.575 1.89762 -2.90874 0
M  V30 8073 C 785.529 1.51595 -4.00254 0
M  V30 8074 C 784.855 2.80415 -4.55271 0
M  V30 8075 C 786.155 0.708404 -5.17474 0
M  V30 8076 H 787.849 0.128854 -2.99123 0
M  V30 8077 H 785.395 0.0605354 -1.43873 0
M  V30 8078 H 787.348 2.53699 -3.36474 0
M  V30 8079 H 786.072 2.4816 -2.1233 0
M  V30 8080 H 784.731 0.900058 -3.55379 0
M  V30 8081 H 784.379 3.36951 -3.73461 0
M  V30 8082 H 784.079 2.55613 -5.2909 0
M  V30 8083 H 785.603 3.453 -5.03587 0
M  V30 8084 H 787.017 1.2514 -5.59476 0
M  V30 8085 H 785.414 0.557593 -5.97504 0
M  V30 8086 H 786.484 -0.285679 -4.84058 0
M  V30 8087 N 787.827 1.57504 0.0551401 0
M  V30 8088 C 789.073 1.88334 0.752216 0
M  V30 8089 C 789.406 0.812742 1.76375 0
M  V30 8090 O 788.681 -0.175198 1.93709 0
M  V30 8091 C 788.964 3.29824 1.44528 0
M  V30 8092 C 788.817 4.47553 0.449026 0
M  V30 8093 C 790.136 3.69808 2.38601 0
M  V30 8094 H 787.255 0.684973 0.271995 0
M  V30 8095 H 789.897 1.89994 0.0151895 0
M  V30 8096 H 788.047 3.28539 2.07351 0
M  V30 8097 H 789.719 4.60967 -0.175277 0
M  V30 8098 H 787.962 4.33168 -0.234162 0
M  V30 8099 H 788.633 5.43376 0.971917 0
M  V30 8100 H 791.109 3.72293 1.85842 0
M  V30 8101 H 789.985 4.69665 2.84088 0
M  V30 8102 H 790.246 3.00641 3.24141 0
M  V30 8103 N 789.305 -0.326896 1.54172 0
M  V30 8104 C 790.552 -1.06523 1.72218 0
M  V30 8105 C 790.88 -1.88119 0.494114 0
M  V30 8106 O 790.135 -1.8855 -0.524147 0
M  V30 8107 C 790.434 -2.0208 2.94785 0
M  V30 8108 C 790.1 -1.36665 4.2969 0
M  V30 8109 C 788.762 -1.18556 4.66367 0
M  V30 8110 C 791.114 -0.896868 5.13425 0
M  V30 8111 C 788.442 -0.521113 5.84381 0
M  V30 8112 C 790.794 -0.246261 6.3212 0
M  V30 8113 C 789.458 -0.052987 6.67479 0
M  V30 8114 H 788.728 -0.389796 0.63019 0
M  V30 8115 H 791.375 -0.342725 1.88408 0
M  V30 8116 H 789.68 -2.8077 2.73268 0
M  V30 8117 H 791.377 -2.59231 3.05941 0
M  V30 8118 H 787.967 -1.51762 4.00832 0
M  V30 8119 H 792.151 -1.02458 4.85609 0
M  V30 8120 H 787.407 -0.36014 6.10338 0
M  V30 8121 H 791.581 0.125775 6.96286 0
M  V30 8122 H 789.208 0.463903 7.58783 0
M  V30 8123 N 790.784 -1.46188 -0.588786 0
M  V30 8124 C 792.012 -1.54743 -1.37339 0
M  V30 8125 C 792.427 -0.186446 -1.87877 0
M  V30 8126 O 791.784 0.815247 -1.63279 0
M  V30 8127 C 791.835 -2.54727 -2.56508 0
M  V30 8128 O 791.556 -3.85539 -2.08066 0
M  V30 8129 C 793.057 -2.73163 -3.49137 0
M  V30 8130 H 790.277 -0.523484 -0.419768 0
M  V30 8131 H 792.821 -1.91543 -0.716345 0
M  V30 8132 H 790.976 -2.20948 -3.18215 0
M  V30 8133 H 791.39 -4.39905 -2.85629 0
M  V30 8134 H 792.864 -3.47057 -4.2925 0
M  V30 8135 H 793.341 -1.79856 -4.00685 0
M  V30 8136 H 793.947 -3.08014 -2.9327 0
M  V30 8137 N 792.262 0.832906 -1.33792 0
M  V30 8138 C 793.51 1.58539 -1.25338 0
M  V30 8139 C 793.831 1.94175 0.179204 0
M  V30 8140 O 793.101 1.61458 1.10941 0
M  V30 8141 H 791.681 0.58784 -0.460926 0
M  V30 8142 H 794.343 0.995064 -1.67584 0
M  V30 8143 H 793.439 2.51268 -1.85123 0
M  V30 8144 N 793.74 1.17359 1.05189 0
M  V30 8145 C 794.968 0.986529 1.81866 0
M  V30 8146 C 795.383 -0.46522 1.82979 0
M  V30 8147 O 794.74 -1.32305 1.25705 0
M  V30 8148 C 794.791 1.52021 3.27982 0
M  V30 8149 O 794.512 2.91511 3.27037 0
M  V30 8150 C 796.013 1.37774 4.21347 0
M  V30 8151 H 793.233 0.349021 0.573084 0
M  V30 8152 H 795.777 1.55648 1.32643 0
M  V30 8153 H 793.932 0.992287 3.74476 0
M  V30 8154 H 794.346 3.16178 4.18488 0
M  V30 8155 H 795.82 1.7993 5.21852 0
M  V30 8156 H 796.297 0.32483 4.37997 0
M  V30 8157 H 796.903 1.89583 3.80708 0
M  V30 8158 N 795.218 -1.23913 0.973828 0
M  V30 8159 C 796.466 -1.91771 0.637817 0
M  V30 8160 C 796.787 -1.76434 -0.830435 0
M  V30 8161 O 796.057 -1.13965 -1.59339 0
M  V30 8162 H 794.637 -0.709761 0.232912 0
M  V30 8163 H 797.299 -1.50677 1.23622 0
M  V30 8164 H 796.395 -2.99327 0.883731 0
M  V30 8165 N 796.696 -0.74468 -1.38897 0
M  V30 8166 C 797.973 -0.222773 -1.94327 0
M  V30 8167 C 798.353 1.27731 -1.68071 0
M  V30 8168 O 797.701 2.04754 -1.01429 0
M  V30 8169 C 797.911 -0.566836 -3.44366 0
M  V30 8170 C 799.259 -0.521531 -4.21385 0
M  V30 8171 O 800.283 -0.504599 -3.52608 0
M  V30 8172 O 799.142 -0.524595 -5.43976 0
M  V30 8173 H 796.236 -0.0439259 -0.825833 0
M  V30 8174 H 798.782 -0.824197 -1.48341 0
M  V30 8175 H 797.554 -1.60321 -3.56949 0
M  V30 8176 H 797.177 0.0630577 -3.9755 0
M  V30 8177 N 798.174 1.49689 -0.493057 0
M  V30 8178 C 799.422 2.02027 0.0541642 0
M  V30 8179 C 799.743 1.37554 1.38217 0
M  V30 8180 O 799.013 0.528174 1.88646 0
M  V30 8181 H 797.593 0.746646 0.0230069 0
M  V30 8182 H 800.255 1.83795 -0.648489 0
M  V30 8183 H 799.351 3.11523 0.189652 0
M  V30 8184 N 799.652 0.226554 1.55963 0
M  V30 8185 C 800.882 -0.407915 2.02533 0
M  V30 8186 C 801.29 -1.53539 1.10554 0
M  V30 8187 O 800.633 -1.8338 0.108409 0
M  V30 8188 C 800.695 -0.996081 3.45425 0
M  V30 8189 C 800.359 -0.00341651 4.57 0
M  V30 8190 C 801.356 0.798782 5.13727 0
M  V30 8191 C 799.041 0.116786 5.02164 0
M  V30 8192 C 801.035 1.70784 6.14094 0
M  V30 8193 C 798.722 1.02937 6.02368 0
M  V30 8194 C 799.72 1.82344 6.5821 0
M  V30 8195 O 799.408 2.72067 7.56462 0
M  V30 8196 H 799.14 -0.103524 0.668026 0
M  V30 8197 H 801.694 0.341937 2.02534 0
M  V30 8198 H 799.924 -1.79512 3.42509 0
M  V30 8199 H 801.613 -1.53848 3.75614 0
M  V30 8200 H 802.379 0.716393 4.7968 0
M  V30 8201 H 798.258 -0.491172 4.58376 0
M  V30 8202 H 801.802 2.32807 6.57607 0
M  V30 8203 H 797.699 1.11276 6.35836 0
M  V30 8204 H 798.467 2.66199 7.74003 0
M  V30 8205 N 801.13 -1.57531 -0.0467866 0
M  V30 8206 C 802.377 -1.88451 -0.74112 0
M  V30 8207 C 802.705 -0.821592 -1.76296 0
M  V30 8208 O 801.96 0.179585 -1.94874 0
M  V30 8209 C 802.259 -3.26091 -1.46285 0
M  V30 8210 C 801.925 -4.47171 -0.578669 0
M  V30 8211 C 800.587 -4.80032 -0.335083 0
M  V30 8212 C 802.939 -5.2119 0.0328809 0
M  V30 8213 C 800.267 -5.84309 0.529121 0
M  V30 8214 C 802.619 -6.26383 0.884684 0
M  V30 8215 C 801.283 -6.57729 1.1379 0
M  V30 8216 H 800.553 -0.68959 -0.271195 0
M  V30 8217 H 803.2 -1.915 -0.00132378 0
M  V30 8218 H 801.505 -3.18948 -2.27551 0
M  V30 8219 H 803.202 -3.47258 -2.00532 0
M  V30 8220 H 799.792 -4.21467 -0.778666 0
M  V30 8221 H 803.976 -4.96096 -0.142375 0
M  V30 8222 H 799.232 -6.06981 0.733794 0
M  V30 8223 H 803.406 -6.82888 1.36516 0
M  V30 8224 H 801.033 -7.38355 1.80929 0
M  V30 8225 N 802.608 0.318715 -1.54344 0
M  V30 8226 C 803.555 1.39242 -1.84066 0
M  V30 8227 C 804.525 1.51175 -0.688134 0
M  V30 8228 O 805.71 1.66318 -0.935039 0
M  V30 8229 C 802.85 2.75528 -2.07794 0
M  V30 8230 C 801.963 2.72187 -3.35467 0
M  V30 8231 C 801.098 4.00352 -3.4913 0
M  V30 8232 C 800.137 3.91338 -4.7066 0
M  V30 8233 N 799.274 5.11242 -4.81224 0
M  V30 8234 H 804.114 1.13196 -2.75664 0
M  V30 8235 H 801.651 0.547857 -1.36517 0
M  V30 8236 H 803.609 3.54763 -2.19543 0
M  V30 8237 H 802.239 2.99873 -1.19482 0
M  V30 8238 H 801.291 1.84917 -3.3243 0
M  V30 8239 H 802.603 2.61411 -4.24812 0
M  V30 8240 H 801.757 4.88019 -3.60448 0
M  V30 8241 H 800.496 4.1394 -2.57886 0
M  V30 8242 H 799.501 3.02055 -4.59394 0
M  V30 8243 H 800.726 3.7931 -5.63294 0
M  V30 8244 H 798.672 5.25327 -3.92897 0
M  V30 8245 H 798.589 5.0282 -5.64543 0
M  V30 8246 H 799.857 6.0061 -4.96879 0
M  V30 8247 N 804.086 1.46499 0.581025 0
M  V30 8248 C 805.049 1.5677 1.672 0
M  V30 8249 C 806.049 0.444716 1.54528 0
M  V30 8250 O 807.239 0.709074 1.59116 0
M  V30 8251 C 804.371 1.4896 3.06633 0
M  V30 8252 H 805.564 2.54 1.5945 0
M  V30 8253 H 803.117 1.34334 0.799003 0
M  V30 8254 H 803.852 0.530168 3.19937 0
M  V30 8255 H 803.637 2.30439 3.17239 0
M  V30 8256 H 805.127 1.59237 3.86048 0
M  V30 8257 N 805.565 -0.825799 1.34232 0
M  V30 8258 C 806.812 -1.58185 1.26427 0
M  V30 8259 C 807.14 -1.93786 -0.166533 0
M  V30 8260 O 806.395 -1.59986 -1.12707 0
M  V30 8261 C 806.694 -2.89362 2.09772 0
M  V30 8262 C 806.36 -2.73066 3.58812 0
M  V30 8263 C 805.022 -2.68329 3.99441 0
M  V30 8264 C 807.374 -2.56946 4.53462 0
M  V30 8265 C 804.702 -2.4539 5.32917 0
M  V30 8266 C 807.054 -2.35538 5.87115 0
M  V30 8267 C 805.718 -2.29212 6.26912 0
M  V30 8268 H 804.988 -0.57884 0.462629 0
M  V30 8269 H 807.635 -0.955714 1.65947 0
M  V30 8270 H 805.94 -3.56251 1.63071 0
M  V30 8271 H 807.637 -3.4694 2.01081 0
M  V30 8272 H 804.227 -2.77591 3.26559 0
M  V30 8273 H 808.411 -2.59631 4.22972 0
M  V30 8274 H 803.667 -2.38947 5.62774 0
M  V30 8275 H 807.841 -2.22051 6.6005 0
M  V30 8276 H 805.468 -2.11197 7.30274 0
M  V30 8277 N 807.043 -1.17915 -1.04565 0
M  V30 8278 C 808.32 -0.881187 -1.74627 0
M  V30 8279 C 808.7 0.617123 -2.01878 0
M  V30 8280 O 808.048 1.57032 -1.65991 0
M  V30 8281 C 808.258 -1.72299 -3.03503 0
M  V30 8282 C 809.606 -1.94688 -3.77335 0
M  V30 8283 O 810.63 -1.6931 -3.13389 0
M  V30 8284 O 809.489 -2.37379 -4.92253 0
M  V30 8285 H 806.583 -0.326864 -0.759664 0
M  V30 8286 H 809.129 -1.28642 -1.10676 0
M  V30 8287 H 807.901 -2.73891 -2.79462 0
M  V30 8288 H 807.524 -1.31593 -3.75192 0
M  V30 8289 N 808.521 1.23394 -0.980386 0
M  V30 8290 C 809.484 2.23092 -0.525619 0
M  V30 8291 C 810.484 1.56129 0.384745 0
M  V30 8292 O 811.674 1.73284 0.178439 0
M  V30 8293 C 808.806 3.40074 0.23712 0
M  V30 8294 H 809.999 2.64839 -1.40714 0
M  V30 8295 H 807.552 1.36227 -0.766275 0
M  V30 8296 H 808.287 3.03783 1.13518 0
M  V30 8297 H 808.072 3.89883 -0.416356 0
M  V30 8298 H 809.562 4.14043 0.543892 0
M  V30 8299 N 809.999 0.752036 1.385 0
M  V30 8300 C 810.946 0.123288 2.3047 0
M  V30 8301 C 811.916 -0.711326 1.50098 0
M  V30 8302 O 813.101 -0.667775 1.78733 0
M  V30 8303 C 810.241 -0.765085 3.36512 0
M  V30 8304 C 809.354 0.0839885 4.31918 0
M  V30 8305 C 808.489 -0.807243 5.25031 0
M  V30 8306 C 807.528 0.0455583 6.12083 0
M  V30 8307 N 806.665 -0.802547 6.97498 0
M  V30 8308 H 811.505 0.913169 2.83664 0
M  V30 8309 H 809.042 0.46195 1.39658 0
M  V30 8310 H 811 -1.29476 3.966 0
M  V30 8311 H 809.63 -1.52077 2.84732 0
M  V30 8312 H 808.682 0.731276 3.73305 0
M  V30 8313 H 809.994 0.74265 4.9324 0
M  V30 8314 H 809.148 -1.40414 5.90228 0
M  V30 8315 H 807.887 -1.49964 4.64071 0
M  V30 8316 H 806.892 0.655137 5.45883 0
M  V30 8317 H 808.117 0.734994 6.75111 0
M  V30 8318 H 806.063 -1.47992 6.39089 0
M  V30 8319 H 805.98 -0.200747 7.55733 0
M  V30 8320 H 807.248 -1.38447 7.67107 0
M  V30 8321 N 811.477 -1.49425 0.500989 0
M  V30 8322 C 812.702 -2.07356 -0.0425154 0
M  V30 8323 C 813.127 -1.35887 -1.30063 0
M  V30 8324 O 812.485 -0.41561 -1.76472 0
M  V30 8325 C 812.533 -3.59518 -0.279188 0
M  V30 8326 O 811.637 -3.89542 -1.3539 0
M  V30 8327 H 810.978 -0.663482 0.0262207 0
M  V30 8328 H 813.508 -1.92231 0.700607 0
M  V30 8329 H 813.518 -4.04791 -0.5107 0
M  V30 8330 H 812.193 -4.10946 0.640009 0
M  V30 8331 H 810.77 -3.56079 -1.10734 0
M  V30 8332 N 812.955 -0.234822 -1.55841 0
M  V30 8333 C 814.203 0.392483 -1.98252 0
M  V30 8334 C 814.524 1.59344 -1.12404 0
M  V30 8335 O 813.794 1.94834 -0.204055 0
M  V30 8336 H 812.374 0.147999 -0.732192 0
M  V30 8337 H 815.036 -0.330804 -1.92072 0
M  V30 8338 H 814.132 0.709829 -3.03921 0
M  V30 8339 N 814.433 1.57553 0.0384317 0
M  V30 8340 C 815.38 2.05942 1.04194 0
M  V30 8341 C 816.35 0.946637 1.36484 0
M  V30 8342 O 817.535 1.21658 1.46983 0
M  V30 8343 C 814.675 2.53588 2.34066 0
M  V30 8344 C 813.788 3.7862 2.08017 0
M  V30 8345 C 812.923 4.14915 3.31692 0
M  V30 8346 C 811.962 5.32891 3.01155 0
M  V30 8347 N 811.099 5.64662 4.17254 0
M  V30 8348 H 815.939 2.91429 0.622341 0
M  V30 8349 H 813.476 1.44098 0.295684 0
M  V30 8350 H 815.434 2.79276 3.09937 0
M  V30 8351 H 814.064 1.71031 2.73767 0
M  V30 8352 H 813.116 3.60073 1.22686 0
M  V30 8353 H 814.428 4.64613 1.81484 0
M  V30 8354 H 813.582 4.41681 4.15936 0
M  V30 8355 H 812.321 3.27555 3.6133 0
M  V30 8356 H 811.326 5.05887 2.15311 0
M  V30 8357 H 812.551 6.21896 2.72804 0
M  V30 8358 H 810.497 4.80261 4.46861 0
M  V30 8359 H 810.414 6.45145 3.94112 0
M  V30 8360 H 811.682 5.96 5.02399 0
M  V30 8361 N 815.911 -0.310526 1.54511 0
M  V30 8362 C 816.821 -1.4054 1.87844 0
M  V30 8363 C 817.837 -1.55954 0.771635 0
M  V30 8364 O 819.013 -1.70801 1.06719 0
M  V30 8365 C 816.078 -2.75063 2.11048 0
M  V30 8366 C 815.139 -2.68715 3.348 0
M  V30 8367 C 814.372 -3.96821 3.56887 0
M  V30 8368 O 814.595 -4.95721 2.82165 0
M  V30 8369 O 813.529 -3.99291 4.50389 0
M  V30 8370 H 817.355 -1.15275 2.80972 0
M  V30 8371 H 814.94 -0.505732 1.4058 0
M  V30 8372 H 816.822 -3.54671 2.27566 0
M  V30 8373 H 815.497 -3.00191 1.21108 0
M  V30 8374 H 814.404 -1.87611 3.23655 0
M  V30 8375 H 815.737 -2.4854 4.2484 0
M  V30 8376 N 817.389 -1.46805 -0.573248 0
M  V30 8377 C 818.319 -1.60951 -1.69165 0
M  V30 8378 C 819.3 -0.45948 -1.63777 0
M  V30 8379 O 820.485 -0.68688 -1.81647 0
M  V30 8380 C 817.615 -1.60844 -3.07809 0
M  V30 8381 C 816.569 -2.74913 -3.28035 0
M  V30 8382 C 815.895 -2.59871 -4.67302 0
M  V30 8383 C 817.195 -4.16654 -3.14955 0
M  V30 8384 H 818.889 -2.54574 -1.57582 0
M  V30 8385 H 816.435 -1.22516 -0.756686 0
M  V30 8386 H 818.388 -1.69334 -3.85881 0
M  V30 8387 H 817.112 -0.637714 -3.20314 0
M  V30 8388 H 815.771 -2.65908 -2.52366 0
M  V30 8389 H 815.419 -1.60861 -4.76585 0
M  V30 8390 H 815.119 -3.36386 -4.81786 0
M  V30 8391 H 816.643 -2.70265 -5.4753 0
M  V30 8392 H 818.057 -4.26721 -3.82861 0
M  V30 8393 H 816.454 -4.93831 -3.40956 0
M  V30 8394 H 817.524 -4.36146 -2.11908 0
M  V30 8395 N 818.867 0.818669 -1.34668 0
M  V30 8396 C 820.113 1.577 -1.28461 0
M  V30 8397 C 820.468 1.91867 0.143057 0
M  V30 8398 O 819.761 1.57545 1.09041 0
M  V30 8399 C 819.955 2.88245 -2.11304 0
M  V30 8400 C 819.784 2.66831 -3.61982 0
M  V30 8401 C 818.554 2.63346 -4.3125 0
M  V30 8402 C 820.752 2.38049 -4.55892 0
M  V30 8403 N 818.734 2.33522 -5.67751 0
M  V30 8404 C 820.105 2.17957 -5.80426 0
M  V30 8405 C 822.16 2.23812 -4.44761 0
M  V30 8406 C 820.863 1.8507 -6.95084 0
M  V30 8407 C 822.889 1.92321 -5.59255 0
M  V30 8408 C 822.251 1.73056 -6.82811 0
M  V30 8409 H 818.35 0.579284 -0.525314 0
M  V30 8410 H 820.934 0.959336 -1.69425 0
M  V30 8411 H 819.105 3.47927 -1.7263 0
M  V30 8412 H 820.837 3.53677 -1.96709 0
M  V30 8413 H 817.592 2.7757 -3.83734 0
M  V30 8414 H 818.016 2.21438 -6.39761 0
M  V30 8415 H 822.658 2.3741 -3.49852 0
M  V30 8416 H 820.376 1.7021 -7.89971 0
M  V30 8417 H 823.962 1.82031 -5.5259 0
M  V30 8418 H 822.842 1.49042 -7.69907 0
M  V30 8419 N 820.346 1.18468 1.03938 0
M  V30 8420 C 821.293 0.912859 2.1198 0
M  V30 8421 C 822.263 -0.14824 1.65437 0
M  V30 8422 O 823.448 -0.008331 1.90798 0
M  V30 8423 C 820.588 0.446114 3.42204 0
M  V30 8424 C 819.701 1.57278 4.02353 0
M  V30 8425 C 818.836 1.05863 5.20544 0
M  V30 8426 C 817.875 2.1599 5.72726 0
M  V30 8427 N 817.012 1.65959 6.82204 0
M  V30 8428 H 821.852 1.83798 2.34569 0
M  V30 8429 H 819.389 0.916504 1.15059 0
M  V30 8430 H 821.347 0.15697 4.16905 0
M  V30 8431 H 819.977 -0.442025 3.19759 0
M  V30 8432 H 819.029 1.97737 3.24968 0
M  V30 8433 H 820.341 2.40289 4.37107 0
M  V30 8434 H 819.495 0.724087 6.02364 0
M  V30 8435 H 818.234 0.198116 4.87297 0
M  V30 8436 H 817.239 2.50287 4.89527 0
M  V30 8437 H 818.464 3.02479 6.08016 0
M  V30 8438 H 816.41 0.82199 6.5083 0
M  V30 8439 H 816.327 2.42567 7.16029 0
M  V30 8440 H 817.595 1.35436 7.67644 0
M  V30 8441 N 821.824 -1.22873 0.986916 0
M  V30 8442 C 823.071 -1.91462 0.659424 0
M  V30 8443 C 823.399 -1.76931 -0.807825 0
M  V30 8444 O 822.654 -1.12829 -1.59901 0
M  V30 8445 C 822.953 -3.43014 1.00379 0
M  V30 8446 C 822.619 -3.77731 2.46232 0
M  V30 8447 C 821.281 -3.86918 2.86091 0
M  V30 8448 C 823.633 -3.94343 3.40798 0
M  V30 8449 C 820.961 -4.10149 4.19518 0
M  V30 8450 C 823.313 -4.19076 4.73875 0
M  V30 8451 C 821.977 -4.26486 5.13484 0
M  V30 8452 H 821.247 -0.700611 0.2413 0
M  V30 8453 H 823.894 -1.45763 1.24199 0
M  V30 8454 H 822.199 -3.90329 0.339226 0
M  V30 8455 H 823.896 -3.94327 0.728518 0
M  V30 8456 H 820.486 -3.71159 2.14334 0
M  V30 8457 H 824.67 -3.86629 3.11178 0
M  V30 8458 H 819.926 -4.1411 4.49803 0
M  V30 8459 H 824.1 -4.30873 5.47102 0
M  V30 8460 H 821.727 -4.4424 6.16891 0
M  V30 8461 N 823.302 -0.75937 -1.38099 0
M  V30 8462 C 824.234 -0.0956547 -2.29 0
M  V30 8463 C 825.247 0.677561 -1.4803 0
M  V30 8464 O 826.436 0.517696 -1.70828 0
M  V30 8465 C 823.536 0.88844 -3.27047 0
M  V30 8466 C 822.709 0.171652 -4.37063 0
M  V30 8467 C 821.768 1.06733 -5.15262 0
M  V30 8468 O 820.794 0.535698 -5.66674 0
M  V30 8469 N 821.996 2.39486 -5.28797 0
M  V30 8470 H 824.761 -0.876354 -2.86601 0
M  V30 8471 H 822.322 -0.61065 -1.49942 0
M  V30 8472 H 824.314 1.49079 -3.76241 0
M  V30 8473 H 822.884 1.57018 -2.70304 0
M  V30 8474 H 822.104 -0.611473 -3.89429 0
M  V30 8475 H 823.392 -0.324121 -5.07767 0
M  V30 8476 H 822.79 2.85127 -4.88589 0
M  V30 8477 H 821.347 2.94758 -5.81344 0
M  V30 8478 N 824.78 1.49157 -0.508906 0
M  V30 8479 C 826.008 2.06879 0.0293734 0
M  V30 8480 C 826.423 1.36823 1.30095 0
M  V30 8481 O 825.78 0.449034 1.7689 0
M  V30 8482 C 825.831 3.60423 0.278791 0
M  V30 8483 O 825.552 4.27844 -0.942389 0
M  V30 8484 C 827.053 4.34881 0.859825 0
M  V30 8485 H 824.273 0.67057 -0.0240184 0
M  V30 8486 H 826.817 1.91834 -0.708526 0
M  V30 8487 H 824.972 3.75145 0.966689 0
M  V30 8488 H 825.386 5.19671 -0.710097 0
M  V30 8489 H 826.86 5.43161 0.983884 0
M  V30 8490 H 827.337 3.9789 1.85958 0
M  V30 8491 H 827.943 4.24785 0.209152 0
M  V30 8492 N 826.258 0.243083 1.55714 0
M  V30 8493 C 827.506 -0.381964 1.98458 0
M  V30 8494 C 827.827 -1.58745 1.13247 0
M  V30 8495 O 827.097 -1.94723 0.214384 0
M  V30 8496 H 825.677 -0.144114 0.732967 0
M  V30 8497 H 828.339 0.340985 1.91894 0
M  V30 8498 H 827.435 -0.693702 3.04293 0
M  V30 8499 N 827.736 -1.57571 -0.0300757 0
M  V30 8500 C 828.961 -1.93879 -0.736601 0
M  V30 8501 C 829.386 -0.842998 -1.68152 0
M  V30 8502 O 828.744 0.20135 -1.80178 0
M  V30 8503 C 828.792 -3.29247 -1.47066 0
M  V30 8504 O 827.896 -3.21426 -2.58378 0
M  V30 8505 H 827.237 -0.633735 -0.198181 0
M  V30 8506 H 829.767 -2.04595 0.0141485 0
M  V30 8507 H 829.777 -3.64113 -1.84081 0
M  V30 8508 H 828.452 -4.08565 -0.77764 0
M  V30 8509 H 827.029 -2.98189 -2.23914 0
M  V30 8510 N 829.214 0.302327 -1.54673 0
M  V30 8511 C 830.462 1.03565 -1.73547 0
M  V30 8512 C 830.783 1.87843 -0.523448 0
M  V30 8513 O 830.053 1.90367 0.462295 0
M  V30 8514 H 828.633 0.385358 -0.639928 0
M  V30 8515 H 831.295 0.333632 -1.92023 0
M  V30 8516 H 830.391 1.68952 -2.62415 0
M  V30 8517 N 830.692 1.47107 0.565454 0
M  V30 8518 C 831.941 1.5257 1.31929 0
M  V30 8519 C 832.254 0.189092 1.94684 0
M  V30 8520 O 833.46 0.121657 2.71227 0
M  V30 8521 C 831.916 2.68914 2.39193 0
M  V30 8522 C 831.524 4.09069 1.82665 0
M  V30 8523 C 833.268 2.83663 3.1581 0
M  V30 8524 C 831.175 5.16726 2.87661 0
M  V30 8525 H 830.105 0.567869 0.496025 0
M  V30 8526 H 832.756 1.73361 0.60151 0
M  V30 8527 H 831.138 2.41486 3.13848 0
M  V30 8528 H 832.312 4.46364 1.14438 0
M  V30 8529 H 830.627 3.99135 1.1866 0
M  V30 8530 H 833.224 3.61261 3.94201 0
M  V30 8531 H 833.567 1.91804 3.69482 0
M  V30 8532 H 834.1 3.10821 2.48265 0
M  V30 8533 H 830.839 6.10433 2.38854 0
M  V30 8534 H 830.359 4.83957 3.54324 0
M  V30 8535 H 832.038 5.43319 3.51303 0
M  V30 8536 N 832.17 -0.811516 1.35101 0
M  V30 8537 C 833.416 -1.57068 1.28287 0
M  V30 8538 C 833.749 -1.93667 -0.143808 0
M  V30 8539 O 833.024 -1.60953 -1.09199 0
M  V30 8540 C 833.307 -2.86259 2.18466 0
M  V30 8541 C 833.16 -2.56168 3.69727 0
M  V30 8542 C 834.479 -3.87924 2.07852 0
M  V30 8543 H 831.598 -0.569869 0.467353 0
M  V30 8544 H 834.24 -0.934023 1.65457 0
M  V30 8545 H 832.39 -3.4059 1.86898 0
M  V30 8546 H 834.062 -2.08059 4.11715 0
M  V30 8547 H 832.305 -1.89436 3.90252 0
M  V30 8548 H 832.976 -3.48344 4.28206 0
M  V30 8549 H 835.452 -3.4298 2.35593 0
M  V30 8550 H 834.328 -4.76106 2.73157 0
M  V30 8551 H 834.589 -4.2923 1.05896 0
M  V30 8552 N 833.648 -1.19017 -1.03309 0
M  V30 8553 C 834.873 -1.01598 -1.80811 0
M  V30 8554 C 835.298 0.430773 -1.83101 0
M  V30 8555 O 834.656 1.30946 -1.25391 0
M  V30 8556 C 834.704 -1.5845 -3.23923 0
M  V30 8557 O 833.808 -0.810972 -4.04348 0
M  V30 8558 H 833.149 -0.359398 -0.558327 0
M  V30 8559 H 835.679 -1.57945 -1.30055 0
M  V30 8560 H 835.689 -1.61486 -3.74682 0
M  V30 8561 H 834.364 -2.63752 -3.21571 0
M  V30 8562 H 832.941 -0.85353 -3.63 0
M  V30 8563 N 835.127 1.22348 -0.993418 0
M  V30 8564 C 836.538 1.72893 -0.704616 0
M  V30 8565 C 836.889 1.80095 0.778483 0
M  V30 8566 O 836.014 1.4476 1.60853 0
M  V30 8567 C 836.609 3.14 -1.27237 0
M  V30 8568 C 835.168 3.61949 -1.03294 0
M  V30 8569 C 834.315 2.39816 -1.39225 0
M  V30 8570 H 837.266 1.07688 -1.16572 0
M  V30 8571 H 837.287 3.74886 -0.651212 0
M  V30 8572 H 836.799 3.08727 -2.3518 0
M  V30 8573 H 834.9 3.72588 0.0298329 0
M  V30 8574 H 835.013 4.48051 -1.69668 0
M  V30 8575 H 833.377 2.41448 -0.810849 0
M  V30 8576 H 834.16 2.37203 -2.48172 0
M  V30 8577 N 836.605 0.766683 1.37694 0
M  V30 8578 C 838.016 0.394761 1.82479 0
M  V30 8579 C 838.367 -1.07842 1.63904 0
M  V30 8580 O 837.492 -1.83479 1.14737 0
M  V30 8581 C 838.087 0.70974 3.31283 0
M  V30 8582 C 836.646 0.390936 3.74364 0
M  V30 8583 C 835.793 0.956192 2.60293 0
M  V30 8584 H 838.744 0.961756 1.26238 0
M  V30 8585 H 838.765 -0.00742144 3.80499 0
M  V30 8586 H 838.277 1.782 3.4477 0
M  V30 8587 H 836.378 -0.674213 3.66449 0
M  V30 8588 H 836.491 0.895645 4.70654 0
M  V30 8589 H 834.855 0.380744 2.51838 0
M  V30 8590 H 835.638 2.03375 2.76575 0
M  V30 8591 N 838.083 -1.48885 0.516809 0
M  V30 8592 C 839.332 -2.01686 -0.0239899 0
M  V30 8593 C 839.645 -1.40029 -1.3657 0
M  V30 8594 O 840.851 -1.84249 -1.9941 0
M  V30 8595 C 839.307 -3.59779 -0.0931825 0
M  V30 8596 C 838.915 -4.30416 1.24283 0
M  V30 8597 C 840.659 -4.20471 -0.583507 0
M  V30 8598 C 838.566 -5.80408 1.13494 0
M  V30 8599 H 837.496 -0.753892 -0.0127376 0
M  V30 8600 H 840.147 -1.71273 0.65861 0
M  V30 8601 H 838.529 -3.86976 -0.840577 0
M  V30 8602 H 839.703 -4.14905 2.00476 0
M  V30 8603 H 838.018 -3.81539 1.66785 0
M  V30 8604 H 840.615 -5.30333 -0.681987 0
M  V30 8605 H 840.958 -3.84898 -1.58617 0
M  V30 8606 H 841.491 -3.97654 0.107814 0
M  V30 8607 H 838.23 -6.20532 2.11235 0
M  V30 8608 H 837.75 -5.98368 0.414167 0
M  V30 8609 H 839.429 -6.41781 0.820162 0
M  V30 8610 N 839.561 -0.251338 -1.55583 0
M  V30 8611 C 840.789 0.376187 -2.03451 0
M  V30 8612 C 841.204 1.51215 -1.13047 0
M  V30 8613 O 840.561 1.81917 -0.145769 0
M  V30 8614 C 840.612 0.879779 -3.50631 0
M  V30 8615 O 840.333 -0.210917 -4.37592 0
M  V30 8616 C 841.834 1.57754 -4.14281 0
M  V30 8617 H 839.054 0.0888722 -0.665089 0
M  V30 8618 H 841.598 -0.376497 -2.01004 0
M  V30 8619 H 839.753 1.58263 -3.53598 0
M  V30 8620 H 840.167 0.172203 -5.24217 0
M  V30 8621 H 841.641 1.88158 -5.18942 0
M  V30 8622 H 842.118 2.50103 -3.61034 0
M  V30 8623 H 842.724 0.919154 -4.15249 0
M  V30 8624 N 841.039 1.57585 0.0217189 0
M  V30 8625 C 842.285 1.90733 0.706582 0
M  V30 8626 C 842.64 0.850732 1.7257 0
M  V30 8627 O 841.933 -0.139715 1.9109 0
M  V30 8628 C 842.127 3.28377 1.41079 0
M  V30 8629 C 841.956 4.47327 0.461395 0
M  V30 8630 C 840.726 5.05237 0.0797404 0
M  V30 8631 C 842.924 5.13626 -0.263302 0
M  V30 8632 N 840.906 6.07702 -0.870139 0
M  V30 8633 C 842.277 6.10722 -1.06859 0
M  V30 8634 C 844.332 4.96809 -0.329461 0
M  V30 8635 C 843.035 6.92813 -1.93397 0
M  V30 8636 C 845.061 5.79468 -1.18199 0
M  V30 8637 C 844.423 6.7614 -1.97519 0
M  V30 8638 H 840.522 0.74666 0.232427 0
M  V30 8639 H 843.106 1.94671 -0.0335228 0
M  V30 8640 H 841.277 3.25354 2.12131 0
M  V30 8641 H 843.009 3.49018 2.04862 0
M  V30 8642 H 839.764 4.71519 0.443498 0
M  V30 8643 H 840.188 6.6361 -1.33981 0
M  V30 8644 H 844.83 4.2194 0.269485 0
M  V30 8645 H 842.548 7.67022 -2.54369 0
M  V30 8646 H 846.134 5.68502 -1.23681 0
M  V30 8647 H 845.014 7.38989 -2.62421 0
M  V30 8648 N 842.517 -0.29412 1.54831 0
M  V30 8649 C 843.427 -1.3854 1.89325 0
M  V30 8650 C 844.443 -1.55127 0.788133 0
M  V30 8651 O 845.619 -1.6966 1.08524 0
M  V30 8652 C 842.684 -2.72809 2.13954 0
M  V30 8653 C 841.745 -2.65148 3.37631 0
M  V30 8654 C 840.978 -3.93014 3.61076 0
M  V30 8655 O 841.201 -4.927 2.87406 0
M  V30 8656 O 840.135 -3.94491 4.54599 0
M  V30 8657 H 843.961 -1.12289 2.82179 0
M  V30 8658 H 841.546 -0.490793 1.41108 0
M  V30 8659 H 843.428 -3.52238 2.31315 0
M  V30 8660 H 842.103 -2.9889 1.24285 0
M  V30 8661 H 841.01 -1.84168 3.25627 0
M  V30 8662 H 842.343 -2.4402 4.27452 0
M  V30 8663 N 843.995 -1.47404 -0.557645 0
M  V30 8664 C 844.927 -1.55917 -1.67995 0
M  V30 8665 C 845.94 -0.445411 -1.56588 0
M  V30 8666 O 847.129 -0.714999 -1.63554 0
M  V30 8667 C 844.229 -1.44697 -3.06457 0
M  V30 8668 C 843.402 -2.70633 -3.43622 0
M  V30 8669 C 842.461 -2.53256 -4.61246 0
M  V30 8670 O 841.487 -3.27068 -4.65849 0
M  V30 8671 N 842.689 -1.61053 -5.57711 0
M  V30 8672 H 845.454 -2.52694 -1.61139 0
M  V30 8673 H 843.015 -1.43778 -0.744271 0
M  V30 8674 H 845.007 -1.30806 -3.82978 0
M  V30 8675 H 843.577 -0.560039 -3.07542 0
M  V30 8676 H 842.797 -2.99288 -2.56555 0
M  V30 8677 H 844.085 -3.5424 -3.65228 0
M  V30 8678 H 843.483 -1.00235 -5.56749 0
M  V30 8679 H 842.04 -1.53115 -6.33561 0
M  V30 8680 N 845.473 0.80434 -1.35529 0
M  V30 8681 C 846.75 1.5486 -1.1949 0
M  V30 8682 C 847.13 2.09897 0.22506 0
M  V30 8683 O 846.478 1.92643 1.22886 0
M  V30 8684 C 846.688 2.65535 -2.26478 0
M  V30 8685 C 848.036 3.33814 -2.62399 0
M  V30 8686 O 849.06 2.75807 -2.25409 0
M  V30 8687 O 847.919 4.38612 -3.26009 0
M  V30 8688 H 845.013 0.68433 -0.464351 0
M  V30 8689 H 847.559 0.844107 -1.47217 0
M  V30 8690 H 846.331 2.22754 -3.21709 0
M  V30 8691 H 845.954 3.43617 -2.00033 0
M  V30 8692 N 846.951 1.19563 1.02676 0
M  V30 8693 C 848.199 0.997593 1.75763 0
M  V30 8694 C 848.52 -0.47253 1.89188 0
M  V30 8695 O 847.79 -1.34214 1.42701 0
M  V30 8696 H 846.37 0.366128 0.651122 0
M  V30 8697 H 849.032 1.50495 1.23844 0
M  V30 8698 H 848.128 1.44741 2.76508 0
M  V30 8699 N 848.429 -1.21819 0.999893 0
M  V30 8700 C 849.339 -2.27691 0.565159 0
M  V30 8701 C 850.355 -1.69587 -0.389398 0
M  V30 8702 O 851.531 -1.99786 -0.254499 0
M  V30 8703 C 848.596 -3.46537 -0.106432 0
M  V30 8704 C 847.657 -4.19932 0.891964 0
M  V30 8705 C 846.89 -5.33103 0.252327 0
M  V30 8706 O 847.113 -5.62398 -0.952103 0
M  V30 8707 O 846.047 -5.94184 0.960698 0
M  V30 8708 H 849.873 -2.67059 1.44613 0
M  V30 8709 H 847.458 -1.28119 0.768499 0
M  V30 8710 H 849.34 -4.18631 -0.482301 0
M  V30 8711 H 848.015 -3.09079 -0.961865 0
M  V30 8712 H 846.922 -3.5008 1.3189 0
M  V30 8713 H 848.255 -4.61287 1.71682 0
M  V30 8714 N 849.908 -0.773975 -1.37286 0
M  V30 8715 C 850.84 -0.119938 -2.28886 0
M  V30 8716 C 851.853 0.661822 -1.48741 0
M  V30 8717 O 853.042 0.499548 -1.71367 0
M  V30 8718 C 850.142 0.853703 -3.27971 0
M  V30 8719 C 849.315 0.125286 -4.37221 0
M  V30 8720 C 848.374 1.01261 -5.16365 0
M  V30 8721 O 847.4 0.475565 -5.6721 0
M  V30 8722 N 848.602 2.33864 -5.31308 0
M  V30 8723 H 851.367 -0.906702 -2.85655 0
M  V30 8724 H 848.928 -0.626519 -1.49286 0
M  V30 8725 H 850.92 1.4508 -3.77801 0
M  V30 8726 H 849.49 1.54142 -2.71954 0
M  V30 8727 H 848.71 -0.652742 -3.88758 0
M  V30 8728 H 849.998 -0.377959 -5.07394 0
M  V30 8729 H 849.396 2.79929 -4.91585 0
M  V30 8730 H 847.953 2.88575 -5.84438 0
M  V30 8731 N 851.386 1.48609 -0.524698 0
M  V30 8732 C 852.616 2.06599 0.00741868 0
M  V30 8733 C 853.024 1.3823 1.29186 0
M  V30 8734 O 852.367 0.461962 1.77797 0
M  V30 8735 C 852.429 3.58184 0.307324 0
M  V30 8736 C 852.093 4.48391 -0.882864 0
M  V30 8737 C 853.09 4.88485 -1.77984 0
M  V30 8738 C 850.775 4.90367 -1.08837 0
M  V30 8739 C 852.769 5.69319 -2.86627 0
M  V30 8740 C 850.456 5.70972 -2.17794 0
M  V30 8741 C 851.454 6.10355 -3.06523 0
M  V30 8742 O 851.142 6.89343 -4.13596 0
M  V30 8743 H 850.874 0.675421 -0.0279846 0
M  V30 8744 H 853.428 1.92058 -0.7282 0
M  V30 8745 H 851.658 3.70818 1.09685 0
M  V30 8746 H 853.347 3.98318 0.780886 0
M  V30 8747 H 854.113 4.56682 -1.63299 0
M  V30 8748 H 849.992 4.592 -0.407035 0
M  V30 8749 H 853.536 5.99978 -3.55911 0
M  V30 8750 H 849.433 6.02188 -2.32465 0
M  V30 8751 H 850.201 7.07689 -4.1124 0
M  V30 8752 N 852.864 0.259585 1.55447 0
M  V30 8753 C 853.794 -0.62852 2.24882 0
M  V30 8754 C 854.775 -1.17128 1.23349 0
M  V30 8755 O 855.96 -1.20829 1.52033 0
M  V30 8756 C 853.09 -1.81983 2.95803 0
M  V30 8757 C 852.044 -1.40929 4.04132 0
M  V30 8758 C 851.37 -2.68246 4.62545 0
M  V30 8759 C 852.67 -0.570956 5.1917 0
M  V30 8760 H 854.364 -0.0495021 2.99359 0
M  V30 8761 H 851.91 -0.0223688 1.43983 0
M  V30 8762 H 853.863 -2.44689 3.43082 0
M  V30 8763 H 852.587 -2.42444 2.18835 0
M  V30 8764 H 851.246 -0.805519 3.57641 0
M  V30 8765 H 850.894 -3.26931 3.82263 0
M  V30 8766 H 850.594 -2.41495 5.35681 0
M  V30 8767 H 852.118 -3.31827 5.12565 0
M  V30 8768 H 853.532 -1.10262 5.62597 0
M  V30 8769 H 851.929 -0.398979 5.98772 0
M  V30 8770 H 852.999 0.413918 4.8313 0
M  V30 8771 N 854.342 -1.57594 -0.0133615 0
M  V30 8772 C 855.59 -1.89605 -0.699596 0
M  V30 8773 C 855.911 -0.85926 -1.75048 0
M  V30 8774 O 855.181 0.105112 -1.95618 0
M  V30 8775 H 853.761 -0.699776 -0.261385 0
M  V30 8776 H 856.423 -1.94885 0.0244044 0
M  V30 8777 H 855.519 -2.88962 -1.17928 0
M  V30 8778 N 855.82 0.285905 -1.54985 0
M  V30 8779 C 857.066 1.02071 -1.75241 0
M  V30 8780 C 857.399 1.864 -0.544842 0
M  V30 8781 O 856.674 1.89034 0.457844 0
M  V30 8782 C 856.957 1.91409 -3.05016 0
M  V30 8783 C 856.81 1.10158 -4.36102 0
M  V30 8784 C 858.129 2.90335 -3.30747 0
M  V30 8785 H 855.248 0.369663 -0.637588 0
M  V30 8786 H 857.89 0.294114 -1.8771 0
M  V30 8787 H 856.04 2.53362 -2.94517 0
M  V30 8788 H 857.712 0.503756 -4.58541 0
M  V30 8789 H 855.955 0.404675 -4.31908 0
M  V30 8790 H 856.626 1.75956 -5.23205 0
M  V30 8791 H 859.102 2.38514 -3.40955 0
M  V30 8792 H 857.978 3.49997 -4.2284 0
M  V30 8793 H 858.239 3.64787 -2.49765 0
M  V30 8794 N 857.298 1.47698 0.54982 0
M  V30 8795 C 858.526 1.5833 1.33188 0
M  V30 8796 C 858.941 0.236193 1.87317 0
M  V30 8797 O 858.298 -0.77167 1.65383 0
M  V30 8798 C 858.349 2.61438 2.49664 0
M  V30 8799 O 858.07 3.9092 1.97771 0
M  V30 8800 C 859.571 2.82324 3.41772 0
M  V30 8801 H 856.791 0.53443 0.405741 0
M  V30 8802 H 859.335 1.93375 0.665309 0
M  V30 8803 H 857.49 2.29307 3.12245 0
M  V30 8804 H 857.904 4.47323 2.73866 0
M  V30 8805 H 859.378 3.58316 4.19897 0
M  V30 8806 H 859.855 1.90416 3.95776 0
M  V30 8807 H 860.461 3.15682 2.85 0
M  V30 8808 N 858.776 -0.797141 1.35954 0
M  V30 8809 C 860.022 -1.55698 1.29946 0
M  V30 8810 C 860.355 -1.93808 -0.123259 0
M  V30 8811 O 859.63 -1.62102 -1.07486 0
M  V30 8812 C 859.913 -2.83926 2.2149 0
M  V30 8813 C 859.766 -2.52232 3.72423 0
M  V30 8814 C 861.085 -3.85698 2.11955 0
M  V30 8815 H 858.204 -0.56488 0.47337 0
M  V30 8816 H 860.846 -0.916421 1.66438 0
M  V30 8817 H 858.996 -3.38588 1.905 0
M  V30 8818 H 860.668 -2.0368 4.13899 0
M  V30 8819 H 858.911 -1.85286 3.92239 0
M  V30 8820 H 859.582 -3.43782 4.31877 0
M  V30 8821 H 862.058 -3.40462 2.39218 0
M  V30 8822 H 860.934 -4.73182 2.78191 0
M  V30 8823 H 861.195 -4.28083 1.10442 0
M  V30 8824 N 860.254 -1.20106 -1.0204 0
M  V30 8825 C 861.502 -1.0069 -1.75231 0
M  V30 8826 C 861.823 0.462491 -1.89436 0
M  V30 8827 O 861.093 1.33455 -1.4341 0
M  V30 8828 H 859.673 -0.369576 -0.649171 0
M  V30 8829 H 862.335 -1.51149 -1.23044 0
M  V30 8830 H 861.431 -1.46205 -2.75736 0
M  V30 8831 N 861.732 1.21287 -1.00634 0
M  V30 8832 C 862.962 1.94103 -0.70765 0
M  V30 8833 C 863.37 1.74382 0.733991 0
M  V30 8834 O 862.713 1.04843 1.50843 0
M  V30 8835 C 862.775 3.46705 -0.950581 0
M  V30 8836 C 862.439 3.90176 -2.37932 0
M  V30 8837 C 863.436 3.96769 -3.35961 0
M  V30 8838 C 861.121 4.22453 -2.71733 0
M  V30 8839 C 863.115 4.35034 -4.65858 0
M  V30 8840 C 860.802 4.60394 -4.01846 0
M  V30 8841 C 861.8 4.66656 -4.9872 0
M  V30 8842 O 861.488 5.03732 -6.26505 0
M  V30 8843 H 861.22 0.62405 -0.259881 0
M  V30 8844 H 863.774 1.55015 -1.34757 0
M  V30 8845 H 862.004 3.85868 -0.253492 0
M  V30 8846 H 863.693 4.00741 -0.645069 0
M  V30 8847 H 864.459 3.72009 -3.11182 0
M  V30 8848 H 860.338 4.16776 -1.97025 0
M  V30 8849 H 863.882 4.39836 -5.4147 0
M  V30 8850 H 859.779 4.84609 -4.26409 0
M  V30 8851 H 860.547 5.21761 -6.30641 0
M  V30 8852 N 863.21 0.781244 1.36873 0
M  V30 8853 C 864.458 0.349198 1.9906 0
M  V30 8854 C 864.779 -1.0806 1.62321 0
M  V30 8855 O 864.049 -1.74351 0.893229 0
M  V30 8856 H 862.629 0.126126 0.736275 0
M  V30 8857 H 865.291 1.00148 1.67202 0
M  V30 8858 H 864.387 0.434451 3.09061 0
M  V30 8859 N 864.689 -1.48329 0.532571 0
M  V30 8860 C 865.937 -2.021 -0.000581206 0
M  V30 8861 C 866.258 -1.4117 -1.34522 0
M  V30 8862 O 865.528 -0.578005 -1.87179 0
M  V30 8863 H 864.108 -0.746993 -0.00320281 0
M  V30 8864 H 866.77 -1.82011 0.696991 0
M  V30 8865 H 865.866 -3.11917 -0.106991 0
M  V30 8866 N 866.167 -0.267825 -1.55308 0
M  V30 8867 C 867.13 0.60965 -2.20943 0
M  V30 8868 C 868.13 1.0869 -1.18504 0
M  V30 8869 O 869.32 0.988248 -1.43455 0
M  V30 8870 C 866.452 1.84027 -2.86961 0
M  V30 8871 H 867.645 0.0366806 -2.99878 0
M  V30 8872 H 865.198 -0.0183941 -1.56289 0
M  V30 8873 H 865.933 2.45394 -2.1202 0
M  V30 8874 H 865.718 1.50605 -3.62023 0
M  V30 8875 H 867.208 2.46442 -3.37129 0
M  V30 8876 N 867.645 1.57599 0.00500368 0
M  V30 8877 C 868.891 1.90631 0.691919 0
M  V30 8878 C 869.224 0.868443 1.737 0
M  V30 8879 O 868.499 -0.113482 1.94169 0
M  V30 8880 C 868.782 3.34255 1.33961 0
M  V30 8881 C 868.635 4.48755 0.306413 0
M  V30 8882 C 869.954 3.77211 2.26715 0
M  V30 8883 H 867.073 0.693279 0.250066 0
M  V30 8884 H 869.715 1.89946 -0.0452634 0
M  V30 8885 H 867.865 3.3497 1.96793 0
M  V30 8886 H 869.537 4.60176 -0.321841 0
M  V30 8887 H 867.78 4.32203 -0.371852 0
M  V30 8888 H 868.451 5.46193 0.798554 0
M  V30 8889 H 870.927 3.78017 1.73904 0
M  V30 8890 H 869.803 4.78466 2.69002 0
M  V30 8891 H 870.064 3.10801 3.14413 0
M  V30 8892 N 869.123 -0.277682 1.55134 0
M  V30 8893 C 870.534 -0.849063 1.66276 0
M  V30 8894 C 870.885 -1.87223 0.5867 0
M  V30 8895 O 870.01 -2.14676 -0.272635 0
M  V30 8896 C 870.605 -1.54681 3.01429 0
M  V30 8897 C 869.164 -2.06628 3.14614 0
M  V30 8898 C 868.311 -0.906748 2.62056 0
M  V30 8899 H 871.262 -0.0541357 1.58608 0
M  V30 8900 H 871.283 -2.41356 2.94156 0
M  V30 8901 H 870.795 -0.80189 3.79725 0
M  V30 8902 H 868.896 -2.84095 2.41082 0
M  V30 8903 H 869.009 -2.2848 4.2111 0
M  V30 8904 H 867.373 -1.29882 2.19095 0
M  V30 8905 H 868.156 -0.175414 3.42852 0
M  V30 8906 N 870.601 -1.47988 -0.541979 0
M  V30 8907 C 871.531 -1.64503 -1.65713 0
M  V30 8908 C 872.512 -0.494116 -1.62765 0
M  V30 8909 O 873.697 -0.725256 -1.80149 0
M  V30 8910 C 870.827 -1.67337 -3.04328 0
M  V30 8911 C 869.781 -2.81809 -3.2213 0
M  V30 8912 C 869.107 -2.69724 -4.61685 0
M  V30 8913 C 870.407 -4.23241 -3.06046 0
M  V30 8914 H 872.101 -2.5786 -1.52147 0
M  V30 8915 H 869.647 -1.24094 -0.730529 0
M  V30 8916 H 871.6 -1.77481 -3.82202 0
M  V30 8917 H 870.324 -0.705514 -3.18889 0
M  V30 8918 H 868.983 -2.71201 -2.46669 0
M  V30 8919 H 868.631 -1.70934 -4.73065 0
M  V30 8920 H 868.331 -3.4653 -4.74543 0
M  V30 8921 H 869.855 -2.81818 -5.41674 0
M  V30 8922 H 871.269 -4.34746 -3.73723 0
M  V30 8923 H 869.666 -5.00952 -3.30405 0
M  V30 8924 H 870.736 -4.40543 -2.02609 0
M  V30 8925 N 872.079 0.78992 -1.36375 0
M  V30 8926 C 873.325 1.54939 -1.31778 0
M  V30 8927 C 873.68 1.92128 0.102327 0
M  V30 8928 O 872.973 1.59823 1.05675 0
M  V30 8929 C 873.167 2.83698 -2.17371 0
M  V30 8930 C 872.996 2.59093 -3.67561 0
M  V30 8931 C 871.766 2.5414 -4.36739 0
M  V30 8932 C 873.964 2.28325 -4.60838 0
M  V30 8933 N 871.946 2.21427 -5.72576 0
M  V30 8934 C 873.317 2.05596 -5.84919 0
M  V30 8935 C 875.372 2.14328 -4.49409 0
M  V30 8936 C 874.075 1.70285 -6.98853 0
M  V30 8937 C 876.101 1.80415 -5.63209 0
M  V30 8938 C 875.463 1.58533 -6.86328 0
M  V30 8939 H 871.562 0.568011 -0.537483 0
M  V30 8940 H 874.146 0.923183 -1.71422 0
M  V30 8941 H 872.317 3.44187 -1.79972 0
M  V30 8942 H 874.049 3.49425 -2.04167 0
M  V30 8943 H 870.804 2.69368 -3.89535 0
M  V30 8944 H 871.228 2.07818 -6.44314 0
M  V30 8945 H 875.87 2.29935 -3.54809 0
M  V30 8946 H 873.588 1.53415 -7.93404 0
M  V30 8947 H 877.174 1.70269 -5.56327 0
M  V30 8948 H 876.054 1.32677 -7.72895 0
M  V30 8949 N 873.557 1.20646 1.01402 0
M  V30 8950 C 874.805 1.01618 1.74695 0
M  V30 8951 C 875.126 -0.452438 1.89679 0
M  V30 8952 O 874.396 -1.32693 1.44116 0
M  V30 8953 H 872.976 0.373013 0.647202 0
M  V30 8954 H 875.638 1.518 1.22241 0
M  V30 8955 H 874.734 1.47666 2.74957 0
M  V30 8956 N 875.035 -1.20752 1.01276 0
M  V30 8957 C 876.283 -1.89645 0.698505 0
M  V30 8958 C 876.604 -1.78986 -0.773883 0
M  V30 8959 O 875.874 -1.18977 -1.55632 0
M  V30 8960 H 874.454 -0.701992 0.255375 0
M  V30 8961 H 877.116 -1.46668 1.28353 0
M  V30 8962 H 876.212 -2.96364 0.978512 0
M  V30 8963 N 876.513 -0.788492 -1.36457 0
M  V30 8964 C 877.79 -0.284484 -1.9352 0
M  V30 8965 C 878.17 1.2232 -1.7205 0
M  V30 8966 O 877.518 2.01424 -1.07892 0
M  V30 8967 C 877.728 -0.676106 -3.42388 0
M  V30 8968 C 879.076 -0.655327 -4.19512 0
M  V30 8969 O 880.1 -0.616523 -3.50824 0
M  V30 8970 O 878.959 -0.697391 -5.42032 0
M  V30 8971 H 876.053 -0.0701769 -0.824017 0
M  V30 8972 H 878.599 -0.870974 -1.45644 0
M  V30 8973 H 877.371 -1.71596 -3.51668 0
M  V30 8974 H 876.994 -0.0634517 -3.97549 0
M  V30 8975 N 877.991 1.48044 -0.54043 0
M  V30 8976 C 878.924 2.26667 0.264083 0
M  V30 8977 C 879.902 1.32996 0.935456 0
M  V30 8978 O 881.086 1.62354 0.95778 0
M  V30 8979 C 878.213 3.09541 1.37485 0
M  V30 8980 C 877.259 4.18664 0.813792 0
M  V30 8981 S 878.092 5.34503 -0.326536 0
M  V30 8982 C 879.248 6.20939 0.786452 0
M  V30 8983 H 879.481 2.94554 -0.403129 0
M  V30 8984 H 877.014 1.5091 -0.326415 0
M  V30 8985 H 878.972 3.57863 2.01107 0
M  V30 8986 H 877.633 2.41048 2.01382 0
M  V30 8987 H 876.826 4.76316 1.6474 0
M  V30 8988 H 876.428 3.73136 0.254066 0
M  V30 8989 H 878.72 6.56273 1.68262 0
M  V30 8990 H 879.663 7.07667 0.247673 0
M  V30 8991 H 880.071 5.54236 1.07156 0
M  V30 8992 N 879.47 0.276058 1.55163 0
M  V30 8993 C 880.433 -0.597924 2.21263 0
M  V30 8994 C 881.433 -1.0806 1.19078 0
M  V30 8995 O 882.623 -0.980626 1.43977 0
M  V30 8996 C 879.755 -1.82503 2.87933 0
M  V30 8997 H 880.948 -0.0207769 2.99893 0
M  V30 8998 H 878.501 0.0266823 1.56277 0
M  V30 8999 H 879.236 -2.44266 2.13318 0
M  V30 9000 H 879.021 -1.48683 3.62816 0
M  V30 9001 H 880.511 -2.44651 3.38431 0
M  V30 9002 N 880.948 -1.576 0.00335426 0
M  V30 9003 C 882.225 -1.81945 -0.718015 0
M  V30 9004 C 882.605 -0.881788 -1.91801 0
M  V30 9005 O 881.953 0.0687118 -2.28397 0
M  V30 9006 C 882.163 -3.30521 -1.12058 0
M  V30 9007 C 883.511 -3.96345 -1.52303 0
M  V30 9008 O 884.535 -3.34864 -1.21428 0
M  V30 9009 O 883.394 -5.04655 -2.09728 0
M  V30 9010 H 880.488 -0.749328 -0.34991 0
M  V30 9011 H 883.034 -1.69675 0.0290654 0
M  V30 9012 H 881.806 -3.90399 -0.265378 0
M  V30 9013 H 881.429 -3.47802 -1.92665 0
M  V30 9014 N 882.426 0.269451 -1.5528 0
M  V30 9015 C 883.356 1.33729 -1.91413 0
M  V30 9016 C 884.337 1.51348 -0.776391 0
M  V30 9017 O 885.522 1.64332 -1.03482 0
M  V30 9018 C 882.652 2.69618 -2.18914 0
M  V30 9019 C 881.606 2.66725 -3.34726 0
M  V30 9020 C 880.932 4.06199 -3.47716 0
M  V30 9021 C 882.232 2.25684 -4.71025 0
M  V30 9022 H 883.926 1.03736 -2.80854 0
M  V30 9023 H 881.472 0.497579 -1.3513 0
M  V30 9024 H 883.425 3.44436 -2.42779 0
M  V30 9025 H 882.149 3.01201 -1.26275 0
M  V30 9026 H 880.808 1.94365 -3.10834 0
M  V30 9027 H 880.456 4.3501 -2.52537 0
M  V30 9028 H 880.156 4.05157 -4.25583 0
M  V30 9029 H 881.68 4.8275 -3.73877 0
M  V30 9030 H 883.094 2.90225 -4.94411 0
M  V30 9031 H 881.491 2.35797 -5.51833 0
M  V30 9032 H 882.561 1.20819 -4.69607 0
M  V30 9033 N 883.904 1.48273 0.534124 0
M  V30 9034 C 885.132 1.59734 1.31501 0
M  V30 9035 C 885.547 0.256047 1.87056 0
M  V30 9036 O 884.904 -0.754086 1.66192 0
M  V30 9037 C 884.955 2.64072 2.46877 0
M  V30 9038 O 884.676 3.92995 1.93613 0
M  V30 9039 C 886.177 2.85933 3.38758 0
M  V30 9040 H 883.397 0.538703 0.40005 0
M  V30 9041 H 885.941 1.9407 0.644762 0
M  V30 9042 H 884.096 2.32606 3.09795 0
M  V30 9043 H 884.51 4.50203 2.69106 0
M  V30 9044 H 885.984 3.62749 4.16073 0
M  V30 9045 H 886.461 1.94603 3.93734 0
M  V30 9046 H 887.067 3.18687 2.81636 0
M  V30 9047 N 885.382 -0.782676 1.36792 0
M  V30 9048 C 886.798 -1.08169 1.17352 0
M  V30 9049 C 886.998 -2.015 0.0022037 0
M  V30 9050 O 886.054 -2.43692 -0.661093 0
M  V30 9051 C 887.367 -1.68969 2.48737 0
M  V30 9052 C 888.915 -1.81278 2.55161 0
M  V30 9053 C 889.39 -2.45492 3.86649 0
M  V30 9054 N 890.881 -2.52954 3.88032 0
M  V30 9055 C 891.616 -3.03465 4.86515 0
M  V30 9056 N 891.112 -3.54232 5.95392 0
M  V30 9057 N 892.905 -3.02239 4.73928 0
M  V30 9058 H 885.056 -0.162757 2.11775 0
M  V30 9059 H 887.319 -0.134823 0.938364 0
M  V30 9060 H 887.025 -1.07859 3.34753 0
M  V30 9061 H 886.899 -2.68397 2.65034 0
M  V30 9062 H 889.286 -2.41524 1.69559 0
M  V30 9063 H 889.367 -0.806367 2.42758 0
M  V30 9064 H 889.011 -1.85889 4.7266 0
M  V30 9065 H 888.941 -3.46718 3.96351 0
M  V30 9066 H 891.432 -2.17014 3.09376 0
M  V30 9067 H 891.745 -3.91145 6.66503 0
M  V30 9068 H 890.09 -3.52366 5.99052 0
M  V30 9069 H 893.281 -2.61871 3.87996 0
M  V30 9070 H 893.454 -3.41295 5.50837 0
M  V30 9071 N 886.86 -1.21182 -1.00761 0
M  V30 9072 C 888.271 -1.02652 -1.55947 0
M  V30 9073 C 888.622 0.414466 -1.91772 0
M  V30 9074 O 887.747 1.29727 -1.73204 0
M  V30 9075 C 888.342 -1.85713 -2.83366 0
M  V30 9076 C 886.901 -1.71523 -3.35048 0
M  V30 9077 C 886.048 -1.83087 -2.08265 0
M  V30 9078 H 888.999 -1.35242 -0.830379 0
M  V30 9079 H 889.02 -1.36583 -3.55141 0
M  V30 9080 H 888.532 -2.90584 -2.5726 0
M  V30 9081 H 886.633 -0.693257 -3.66094 0
M  V30 9082 H 886.746 -2.53333 -4.06644 0
M  V30 9083 H 885.11 -1.26367 -2.21141 0
M  V30 9084 H 885.893 -2.8946 -1.84575 0
M  V30 9085 N 888.338 1.20213 -1.01915 0
M  V30 9086 C 889.584 1.89928 -0.711007 0
M  V30 9087 C 889.917 1.7881 0.75767 0
M  V30 9088 O 889.192 1.17399 1.55073 0
M  V30 9089 C 889.475 3.41225 -1.15053 0
M  V30 9090 C 889.328 3.61264 -2.67971 0
M  V30 9091 C 890.647 4.34108 -0.72377 0
M  V30 9092 H 887.766 0.689702 -0.259768 0
M  V30 9093 H 890.408 1.41557 -1.26734 0
M  V30 9094 H 888.558 3.82552 -0.677199 0
M  V30 9095 H 890.23 3.29173 -3.23176 0
M  V30 9096 H 888.473 3.04647 -3.08824 0
M  V30 9097 H 889.144 4.67331 -2.93779 0
M  V30 9098 H 891.62 4.00442 -1.13073 0
M  V30 9099 H 890.496 5.38581 -1.05931 0
M  V30 9100 H 890.757 4.40512 0.374424 0
M  V30 9101 N 889.816 0.795718 1.36037 0
M  V30 9102 C 890.779 0.204318 2.28287 0
M  V30 9103 C 891.779 -0.602017 1.49105 0
M  V30 9104 O 892.969 -0.422089 1.69009 0
M  V30 9105 C 890.101 -0.716431 3.33287 0
M  V30 9106 H 891.294 1.01781 2.821 0
M  V30 9107 H 888.847 0.565588 1.45708 0
M  V30 9108 H 889.582 -1.55403 2.84641 0
M  V30 9109 H 889.367 -0.140096 3.9185 0
M  V30 9110 H 890.857 -1.12488 4.02164 0
M  V30 9111 N 891.294 -1.47756 0.548274 0
M  V30 9112 C 892.226 -2.27921 -0.24177 0
M  V30 9113 C 893.239 -1.36471 -0.887658 0
M  V30 9114 O 894.428 -1.6137 -0.763016 0
M  V30 9115 C 891.528 -3.10449 -1.35922 0
M  V30 9116 C 890.701 -4.298 -0.811808 0
M  V30 9117 C 889.76 -4.93994 -1.81264 0
M  V30 9118 O 888.786 -5.52657 -1.3623 0
M  V30 9119 N 889.988 -4.87882 -3.14566 0
M  V30 9120 H 892.753 -2.96365 0.445848 0
M  V30 9121 H 890.314 -1.57286 0.383769 0
M  V30 9122 H 892.306 -3.50261 -2.02729 0
M  V30 9123 H 890.876 -2.44306 -1.95021 0
M  V30 9124 H 890.096 -3.94186 0.0327929 0
M  V30 9125 H 891.384 -5.0702 -0.425272 0
M  V30 9126 H 890.782 -4.41405 -3.53805 0
M  V30 9127 H 889.339 -5.3174 -3.76956 0
M  V30 9128 N 892.772 -0.284283 -1.55015 0
M  V30 9129 C 894.02 0.329212 -1.99401 0
M  V30 9130 C 894.341 1.55687 -1.17416 0
M  V30 9131 O 893.611 1.94087 -0.265937 0
M  V30 9132 H 892.191 0.12463 -0.73653 0
M  V30 9133 H 894.853 -0.391743 -1.90922 0
M  V30 9134 H 893.949 0.61278 -3.06025 0
M  V30 9135 N 894.251 1.57596 -0.0117121 0
M  V30 9136 C 895.499 1.90694 0.669342 0
M  V30 9137 C 895.82 0.886999 1.73659 0
M  V30 9138 O 895.09 -0.0739779 1.9576 0
M  V30 9139 H 893.67 0.703846 0.250219 0
M  V30 9140 H 896.332 1.94821 -0.0554057 0
M  V30 9141 H 895.428 2.90802 1.13316 0
M  V30 9142 N 895.729 -0.261212 1.5542 0
M  V30 9143 C 896.954 -1.01341 1.80955 0
M  V30 9144 C 897.379 -1.78711 0.586849 0
M  V30 9145 O 896.737 -1.75266 -0.463837 0
M  V30 9146 C 896.785 -1.93835 3.04073 0
M  V30 9147 O 895.889 -3.02791 2.79985 0
M  V30 9148 H 895.23 -0.289123 0.597749 0
M  V30 9149 H 897.76 -0.286543 2.02584 0
M  V30 9150 H 897.77 -2.3557 3.33123 0
M  V30 9151 H 896.445 -1.36936 3.9271 0
M  V30 9152 H 895.022 -2.65287 2.62063 0
M  V30 9153 N 897.207 -1.48554 -0.526253 0
M  V30 9154 C 898.454 -1.56761 -1.28188 0
M  V30 9155 C 898.782 -0.24315 -1.92974 0
M  V30 9156 O 898.037 0.766883 -1.80048 0
M  V30 9157 C 898.336 -2.65739 -2.38993 0
M  V30 9158 C 898.002 -4.08057 -1.91834 0
M  V30 9159 C 896.664 -4.46792 -1.78691 0
M  V30 9160 C 899.016 -4.9723 -1.56242 0
M  V30 9161 C 896.344 -5.72501 -1.28296 0
M  V30 9162 C 898.696 -6.23432 -1.07309 0
M  V30 9163 C 897.36 -6.6102 -0.927853 0
M  V30 9164 H 896.63 -0.573631 -0.469072 0
M  V30 9165 H 899.277 -1.82287 -0.586842 0
M  V30 9166 H 897.582 -2.34088 -3.14181 0
M  V30 9167 H 899.279 -2.69304 -2.97113 0
M  V30 9168 H 895.869 -3.77469 -2.03016 0
M  V30 9169 H 900.053 -4.67979 -1.65255 0
M  V30 9170 H 895.309 -6.00345 -1.15742 0
M  V30 9171 H 899.483 -6.91923 -0.788412 0
M  V30 9172 H 897.11 -7.58314 -0.535162 0
M  V30 9173 N 898.685 0.775411 -1.37205 0
M  V30 9174 C 899.931 1.53533 -1.33414 0
M  V30 9175 C 900.286 1.92225 0.0819435 0
M  V30 9176 O 899.579 1.60935 1.03974 0
M  V30 9177 C 899.773 2.81377 -2.20367 0
M  V30 9178 C 899.602 2.5518 -3.70288 0
M  V30 9179 C 898.372 2.49493 -4.3941 0
M  V30 9180 C 900.57 2.23425 -4.63234 0
M  V30 9181 N 898.552 2.15341 -5.74892 0
M  V30 9182 C 899.923 1.99381 -5.87067 0
M  V30 9183 C 901.978 2.09549 -4.51657 0
M  V30 9184 C 900.681 1.62863 -7.0062 0
M  V30 9185 C 902.707 1.74431 -5.65091 0
M  V30 9186 C 902.069 1.51245 -6.87971 0
M  V30 9187 H 898.168 0.562278 -0.543477 0
M  V30 9188 H 900.752 0.90495 -1.72391 0
M  V30 9189 H 898.923 3.42259 -1.83612 0
M  V30 9190 H 900.655 3.4724 -2.07861 0
M  V30 9191 H 897.41 2.65221 -3.9237 0
M  V30 9192 H 897.834 2.00972 -6.46482 0
M  V30 9193 H 902.476 2.26159 -3.57228 0
M  V30 9194 H 900.194 1.44991 -7.94986 0
M  V30 9195 H 903.78 1.64359 -5.58102 0
M  V30 9196 H 902.66 1.24472 -7.74259 0
M  V30 9197 N 900.163 1.21714 1.00117 0
M  V30 9198 C 901.409 1.03823 1.74208 0
M  V30 9199 C 901.742 -0.426733 1.89454 0
M  V30 9200 O 901.017 -1.31658 1.43166 0
M  V30 9201 C 901.3 1.74047 3.15246 0
M  V30 9202 C 901.153 3.28087 3.077 0
M  V30 9203 C 902.472 1.48614 4.14249 0
M  V30 9204 H 899.591 0.378573 0.632338 0
M  V30 9205 H 902.233 1.49942 1.16694 0
M  V30 9206 H 900.383 1.3484 3.64349 0
M  V30 9207 H 902.055 3.76686 2.6628 0
M  V30 9208 H 900.298 3.58191 2.44707 0
M  V30 9209 H 900.969 3.72392 4.07466 0
M  V30 9210 H 903.445 1.82656 3.73866 0
M  V30 9211 H 902.321 2.00257 5.11066 0
M  V30 9212 H 902.582 0.416957 4.40129 0
M  V30 9213 N 901.641 -1.19671 1.02551 0
M  V30 9214 C 902.888 -1.89268 0.720002 0
M  V30 9215 C 903.216 -1.79411 -0.751127 0
M  V30 9216 O 902.471 -1.17859 -1.5623 0
M  V30 9217 C 902.77 -3.39647 1.11241 0
M  V30 9218 C 902.436 -3.69706 2.58125 0
M  V30 9219 C 901.098 -3.7762 2.98256 0
M  V30 9220 C 903.45 -3.83301 3.53171 0
M  V30 9221 C 900.778 -3.96594 4.32354 0
M  V30 9222 C 903.13 -4.03788 4.86968 0
M  V30 9223 C 901.794 -4.09934 5.26793 0
M  V30 9224 H 901.064 -0.692579 0.263467 0
M  V30 9225 H 903.711 -1.41738 1.28774 0
M  V30 9226 H 902.016 -3.89052 0.463234 0
M  V30 9227 H 903.713 -3.91809 0.853602 0
M  V30 9228 H 900.303 -3.64152 2.26033 0
M  V30 9229 H 904.487 -3.76534 3.2332 0
M  V30 9230 H 899.743 -3.9959 4.6275 0
M  V30 9231 H 903.917 -4.1325 5.60533 0
M  V30 9232 H 901.544 -4.24389 6.30712 0
M  V30 9233 N 903.119 -0.802921 -1.35613 0
M  V30 9234 C 904.066 -0.20874 -2.29854 0
M  V30 9235 C 905.036 0.655128 -1.52634 0
M  V30 9236 O 906.221 0.600979 -1.81088 0
M  V30 9237 C 903.361 0.639663 -3.3912 0
M  V30 9238 C 902.474 -0.244234 -4.31309 0
M  V30 9239 C 901.609 0.611825 -5.27665 0
M  V30 9240 C 900.648 -0.272698 -6.11492 0
M  V30 9241 N 899.785 0.543122 -6.99996 0
M  V30 9242 H 904.625 -1.01782 -2.80079 0
M  V30 9243 H 902.162 -0.513465 -1.37848 0
M  V30 9244 H 904.12 1.14668 -4.01132 0
M  V30 9245 H 902.75 1.41404 -2.9018 0
M  V30 9246 H 901.802 -0.869322 -3.70334 0
M  V30 9247 H 903.114 -0.925202 -4.90144 0
M  V30 9248 H 902.268 1.18412 -5.95032 0
M  V30 9249 H 901.007 1.32637 -4.69317 0
M  V30 9250 H 900.012 -0.857287 -5.43075 0
M  V30 9251 H 901.237 -0.985051 -6.71918 0
M  V30 9252 H 899.183 1.24171 -6.44141 0
M  V30 9253 H 899.1 -0.0798767 -7.55958 0
M  V30 9254 H 900.368 1.09881 -7.71717 0
M  V30 9255 N 904.597 1.47463 -0.556102 0
M  V30 9256 C 905.527 2.32801 0.180497 0
M  V30 9257 C 906.508 1.43721 0.909848 0
M  V30 9258 O 907.693 1.72578 0.89053 0
M  V30 9259 C 904.823 3.25478 1.21167 0
M  V30 9260 C 903.777 4.2379 0.598846 0
M  V30 9261 C 903.103 5.05783 1.73457 0
M  V30 9262 C 904.403 5.20387 -0.446659 0
M  V30 9263 H 906.097 2.94636 -0.531956 0
M  V30 9264 H 903.643 1.41683 -0.257267 0
M  V30 9265 H 905.596 3.8402 1.73513 0
M  V30 9266 H 904.32 2.61695 1.95405 0
M  V30 9267 H 902.979 3.66472 0.0966897 0
M  V30 9268 H 902.627 4.38405 2.46596 0
M  V30 9269 H 902.327 5.72343 1.33031 0
M  V30 9270 H 903.851 5.67183 2.26131 0
M  V30 9271 H 905.265 5.73299 -0.00930019 0
M  V30 9272 H 903.662 5.95143 -0.769735 0
M  V30 9273 H 904.732 4.65932 -1.34295 0
M  V30 9274 N 906.075 0.2925 1.54862 0
M  V30 9275 C 907.486 -0.201841 1.85606 0
M  V30 9276 C 907.837 -1.54093 1.21449 0
M  V30 9277 O 906.962 -2.10327 0.509079 0
M  V30 9278 C 907.557 -0.373011 3.3674 0
M  V30 9279 C 906.116 -0.811574 3.67547 0
M  V30 9280 C 905.263 0.0850583 2.7717 0
M  V30 9281 H 908.214 0.513774 1.50153 0
M  V30 9282 H 908.235 -1.20892 3.60785 0
M  V30 9283 H 907.747 0.601751 3.83407 0
M  V30 9284 H 905.848 -1.79719 3.26392 0
M  V30 9285 H 905.961 -0.636853 4.74848 0
M  V30 9286 H 904.325 -0.434224 2.50971 0
M  V30 9287 H 905.108 1.05602 3.26654 0
M  V30 9288 N 907.553 -1.57587 0.0200696 0
M  V30 9289 C 908.778 -1.96124 -0.674547 0
M  V30 9290 C 909.203 -0.896068 -1.65385 0
M  V30 9291 O 908.561 0.143925 -1.80728 0
M  V30 9292 C 908.609 -3.3376 -1.36517 0
M  V30 9293 O 907.713 -3.29483 -2.48022 0
M  V30 9294 H 907.054 -0.639719 -0.177919 0
M  V30 9295 H 909.584 -2.04447 0.0792317 0
M  V30 9296 H 909.594 -3.69785 -1.72403 0
M  V30 9297 H 908.269 -4.10832 -0.647265 0
M  V30 9298 H 906.846 -3.05162 -2.14314 0
M  V30 9299 N 909.032 0.252966 -1.55557 0
M  V30 9300 C 910.278 0.979092 -1.78284 0
M  V30 9301 C 910.633 1.83194 -0.588009 0
M  V30 9302 O 909.926 1.86965 0.418899 0
M  V30 9303 C 910.12 1.87785 -3.04091 0
M  V30 9304 C 909.949 1.11349 -4.35697 0
M  V30 9305 C 908.719 0.821038 -4.98585 0
M  V30 9306 C 910.917 0.494039 -5.11922 0
M  V30 9307 N 908.899 0.0319767 -6.13892 0
M  V30 9308 C 910.27 -0.159888 -6.19794 0
M  V30 9309 C 912.325 0.403894 -4.96259 0
M  V30 9310 C 911.028 -0.895295 -7.13706 0
M  V30 9311 C 913.054 -0.317968 -5.90545 0
M  V30 9312 C 912.416 -0.960555 -6.9782 0
M  V30 9313 H 908.515 0.339586 -0.704419 0
M  V30 9314 H 911.099 0.252801 -1.93052 0
M  V30 9315 H 909.27 2.57623 -2.90663 0
M  V30 9316 H 911.002 2.53908 -3.15139 0
M  V30 9317 H 907.757 1.13132 -4.59889 0
M  V30 9318 H 908.181 -0.35047 -6.76092 0
M  V30 9319 H 912.823 0.886366 -4.13405 0
M  V30 9320 H 910.541 -1.38939 -7.96066 0
M  V30 9321 H 914.127 -0.388302 -5.80503 0
M  V30 9322 H 913.007 -1.51022 -7.69521 0
M  V30 9323 N 910.51 1.48831 0.518367 0
M  V30 9324 C 911.787 1.47933 1.27966 0
M  V30 9325 C 912.167 0.197393 2.10175 0
M  V30 9326 O 911.515 -0.820656 2.13255 0
M  V30 9327 C 911.725 2.74816 2.15121 0
M  V30 9328 C 913.073 3.23613 2.74881 0
M  V30 9329 O 914.097 2.75814 2.254 0
M  V30 9330 O 912.956 4.06818 3.64913 0
M  V30 9331 H 910.05 0.591316 0.578164 0
M  V30 9332 H 912.596 1.61077 0.534065 0
M  V30 9333 H 911.368 3.59621 1.54234 0
M  V30 9334 H 910.991 2.64449 2.96905 0
M  V30 9335 N 911.988 -0.768124 1.37614 0
M  V30 9336 C 912.936 -1.9029 1.33763 0
M  V30 9337 C 913.93 -1.67888 0.225814 0
M  V30 9338 O 915.136 -1.75634 0.394043 0
M  V30 9339 H 911.511 -0.625828 0.416945 0
M  V30 9340 H 913.482 -1.90654 2.29551 0
M  V30 9341 C 912.231 -3.27598 1.16511 0
M  V30 9342 H 911.554 -3.45414 2.01318 0
M  V30 9343 H 912.994 -4.07288 1.17867 0
M  V30 9344 C 911.453 -3.36653 -0.129001 0
M  V30 9345 O 911.983 -3.86023 -1.11128 0
M  V30 9346 N 910.189 -2.90036 -0.180926 0
M  V30 9347 H 909.736 -2.5005 0.619076 0
M  V30 9348 H 909.694 -2.96475 -1.04641 0
M  V30 9349 N 913.466 -1.22244 -0.994698 0
M  V30 9350 C 914.882 -0.982006 -1.25813 0
M  V30 9351 C 915.082 0.325488 -1.98854 0
M  V30 9352 O 914.138 1.04857 -2.29698 0
M  V30 9353 C 915.451 -2.1795 -2.07167 0
M  V30 9354 C 916.999 -2.22287 -2.20358 0
M  V30 9355 C 917.474 -3.41583 -3.05098 0
M  V30 9356 N 918.965 -3.41734 -3.12686 0
M  V30 9357 C 919.7 -4.30692 -3.78539 0
M  V30 9358 N 919.196 -5.29865 -4.46335 0
M  V30 9359 N 920.989 -4.18473 -3.75283 0
M  V30 9360 H 913.14 -2.0631 -0.504963 0
M  V30 9361 H 915.403 -0.90395 -0.285618 0
M  V30 9362 H 915.109 -3.12758 -1.60858 0
M  V30 9363 H 914.983 -2.17862 -3.07922 0
M  V30 9364 H 917.37 -1.28028 -2.65881 0
M  V30 9365 H 917.451 -2.26414 -1.19039 0
M  V30 9366 H 917.095 -4.36141 -2.60275 0
M  V30 9367 H 917.025 -3.34695 -4.06555 0
M  V30 9368 H 919.516 -2.69969 -2.64433 0
M  V30 9369 H 919.829 -5.94027 -4.9432 0
M  V30 9370 H 918.174 -5.3378 -4.45089 0
M  V30 9371 H 921.365 -3.40249 -3.21478 0
M  V30 9372 H 921.538 -4.88007 -4.26326 0
M  V30 9373 N 914.944 1.19125 -1.03184 0
M  V30 9374 C 916.172 1.92838 -0.74975 0
M  V30 9375 C 916.587 1.75667 0.691851 0
M  V30 9376 O 915.944 1.0805 1.47076 0
M  V30 9377 C 915.995 3.44509 -1.09525 0
M  V30 9378 O 915.716 3.6113 -2.48025 0
M  V30 9379 C 917.217 4.35338 -0.836397 0
M  V30 9380 H 914.437 0.61246 -0.274105 0
M  V30 9381 H 916.981 1.5118 -1.37712 0
M  V30 9382 H 915.136 3.83988 -0.513006 0
M  V30 9383 H 915.55 4.54959 -2.60984 0
M  V30 9384 H 917.024 5.4035 -1.12808 0
M  V30 9385 H 917.501 4.38602 0.229102 0
M  V30 9386 H 918.107 4.01544 -1.40152 0
M  V30 9387 N 916.422 0.810101 1.35185 0
M  V30 9388 C 917.385 0.22852 2.28058 0
M  V30 9389 C 918.385 -0.586168 1.49735 0
M  V30 9390 O 919.575 -0.40414 1.69447 0
M  V30 9391 C 916.707 -0.681041 3.34028 0
M  V30 9392 H 917.9 1.04768 2.81005 0
M  V30 9393 H 915.453 0.58101 1.451 0
M  V30 9394 H 916.188 -1.52375 2.86273 0
M  V30 9395 H 915.973 -0.0985276 3.91976 0
M  V30 9396 H 917.463 -1.08217 4.03335 0
M  V30 9397 N 917.9 -1.47166 0.563914 0
M  V30 9398 C 919.125 -2.0735 0.0454698 0
M  V30 9399 C 919.55 -1.41281 -1.24182 0
M  V30 9400 O 918.908 -0.490084 -1.7455 0
M  V30 9401 C 918.956 -3.60378 -0.126453 0
M  V30 9402 O 918.06 -3.94934 -1.18746 0
M  V30 9403 H 917.401 -0.661773 0.0543377 0
M  V30 9404 H 919.931 -1.89086 0.781508 0
M  V30 9405 H 919.941 -4.06593 -0.338554 0
M  V30 9406 H 918.616 -4.07862 0.81373 0
M  V30 9407 H 917.193 -3.60455 -0.955318 0
M  V30 9408 N 919.378 -0.300708 -1.54705 0
M  V30 9409 C 920.794 0.0526874 -1.59513 0
M  V30 9410 C 920.994 1.52444 -1.31769 0
M  V30 9411 O 920.05 2.27716 -1.09096 0
M  V30 9412 C 921.363 -0.344989 -2.98714 0
M  V30 9413 C 922.911 -0.29373 -3.11619 0
M  V30 9414 C 923.386 -0.666225 -4.53129 0
M  V30 9415 N 924.877 -0.618749 -4.59049 0
M  V30 9416 C 925.612 -0.879447 -5.66616 0
M  V30 9417 N 925.108 -1.2061 -6.82221 0
M  V30 9418 N 926.901 -0.806528 -5.56284 0
M  V30 9419 H 919.052 -1.25988 -1.71 0
M  V30 9420 H 921.315 -0.510758 -0.798643 0
M  V30 9421 H 921.021 -1.36953 -3.2394 0
M  V30 9422 H 920.895 0.301507 -3.75993 0
M  V30 9423 H 923.282 0.72156 -2.86142 0
M  V30 9424 H 923.363 -0.974844 -2.36496 0
M  V30 9425 H 923.007 -1.67932 -4.79334 0
M  V30 9426 H 922.937 0.0369575 -5.26587 0
M  V30 9427 H 925.428 -0.377202 -3.76013 0
M  V30 9428 H 925.741 -1.391 -7.60178 0
M  V30 9429 H 924.086 -1.24413 -6.83774 0
M  V30 9430 H 927.277 -0.550993 -4.64846 0
M  V30 9431 H 927.45 -1.01307 -6.40032 0
M  V30 9432 O 920.895 1.60631 -0.167301 0
M  V30 9433 H 921.586 1.89022 0.42313 0
M  V30 END ATOM
M  V30 BEGIN BOND
M  V30 END BOND
M  V30 END CTAB
M  END
$$$$
