drugbank_target|P98002 Cytochrome c oxidase subunit 1-beta (DB04147)
 OpenBabel12092120483D

  0  0  0     0  0            999 V3000
M  V30 BEGIN CTAB
M  V30 COUNTS 8731 8896 0 0 0
M  V30 BEGIN ATOM
M  V30 1 H -0.908 1.98254 -0.117106 0
M  V30 2 N 0 1.576 0 0
M  V30 3 C 0.933 2.03868 1.02534 0
M  V30 4 C 1.911 0.928543 1.3348 0
M  V30 5 O 3.095 1.19667 1.45644 0
M  V30 6 C 0.222 2.43627 2.35294 0
M  V30 7 C -0.732 3.65373 2.2001 0
M  V30 8 S 0.101 5.13292 1.52614 0
M  V30 9 C 1.257 5.56322 2.86805 0
M  V30 10 H 1.49 2.90518 0.631377 0
M  V30 11 H -0.977 1.52953 0.210867 0
M  V30 12 H 0.981 2.67203 3.11629 0
M  V30 13 H -0.358 1.57376 2.7183 0
M  V30 14 H -1.165 3.90944 3.18086 0
M  V30 15 H -1.563 3.418 1.51819 0
M  V30 16 H 0.729 5.58782 3.83104 0
M  V30 17 H 1.672 6.56266 2.65933 0
M  V30 18 H 2.08 4.83886 2.90714 0
M  V30 19 N 1.4781 -0.272755 1.55222 0
M  V30 20 C 2.4411 -1.32041 1.87344 0
M  V30 21 C 3.4411 -1.42342 0.74803 0
M  V30 22 O 4.6311 -1.41488 1.0162 0
M  V30 23 C 1.7631 -2.70173 2.07893 0
M  V30 24 H 2.9561 -1.04789 2.80997 0
M  V30 25 H 0.5091 -0.51083 1.47717 0
M  V30 26 H 1.2441 -3.02605 1.16622 0
M  V30 27 H 1.0291 -2.64082 2.89833 0
M  V30 28 H 2.5191 -3.45869 2.34017 0
M  V30 29 N 2.9562 -1.48159 -0.537278 0
M  V30 30 C 4.2332 -1.46291 -1.29839 0
M  V30 31 C 4.6132 -0.170613 -2.10409 0
M  V30 32 O 3.9612 0.847746 -2.12192 0
M  V30 33 C 4.1712 -2.72055 -2.18603 0
M  V30 34 C 5.5192 -3.20087 -2.7898 0
M  V30 35 O 6.5432 -2.72921 -2.28894 0
M  V30 36 O 5.4022 -4.02138 -3.70064 0
M  V30 37 H 2.4962 -0.583906 -0.585647 0
M  V30 38 H 5.0422 -1.60384 -0.554534 0
M  V30 39 H 3.8142 -3.57628 -1.58801 0
M  V30 40 H 3.4372 -2.60646 -3.00249 0
M  V30 41 N 4.4343 0.785586 -1.36625 0
M  V30 42 C 5.3973 1.87999 -1.31107 0
M  V30 43 C 6.3973 1.59316 -0.217959 0
M  V30 44 O 7.5873 1.67656 -0.472977 0
M  V30 45 C 4.7193 3.24861 -1.03334 0
M  V30 46 H 5.9123 1.94307 -2.2844 0
M  V30 47 H 3.4653 0.983813 -1.21453 0
M  V30 48 H 4.2003 3.24235 -0.0647432 0
M  V30 49 H 3.9853 3.4707 -1.82441 0
M  V30 50 H 5.4753 4.04929 -1.02088 0
M  V30 51 N 5.9124 1.20967 1.01018 0
M  V30 52 C 6.8754 0.965918 2.07853 0
M  V30 53 C 7.8754 -0.0610545 1.60684 0
M  V30 54 O 9.0654 0.175681 1.73312 0
M  V30 55 C 6.1974 0.455513 3.37843 0
M  V30 56 H 7.3904 1.91365 2.3091 0
M  V30 57 H 4.9434 1.02594 1.17916 0
M  V30 58 H 5.6784 -0.497381 3.20463 0
M  V30 59 H 5.4634 1.19622 3.73407 0
M  V30 60 H 6.9534 0.304667 4.16487 0
M  V30 61 N 7.3905 -1.2043 1.01659 0
M  V30 62 C 8.6365 -1.90079 0.706963 0
M  V30 63 C 8.9695 -1.78648 -0.761474 0
M  V30 64 O 8.2445 -1.17069 -1.55323 0
M  V30 65 C 8.5275 -3.41469 1.14327 0
M  V30 66 C 8.3805 -3.61833 2.67201 0
M  V30 67 C 9.6995 -4.34261 0.714529 0
M  V30 68 H 6.8185 -0.690254 0.2583 0
M  V30 69 H 9.4605 -1.41826 1.26433 0
M  V30 70 H 7.6105 -3.82696 0.669056 0
M  V30 71 H 9.2825 -3.2986 3.22475 0
M  V30 72 H 7.5255 -3.05304 3.08175 0
M  V30 73 H 8.1965 -4.67955 2.92783 0
M  V30 74 H 10.6725 -4.00682 1.12221 0
M  V30 75 H 9.5485 -5.38806 1.04784 0
M  V30 76 H 9.8095 -4.40431 -0.383799 0
M  V30 77 N 8.8686 -0.792821 -1.36206 0
M  V30 78 C 9.8186 -0.166598 -2.27391 0
M  V30 79 C 10.8026 0.651479 -1.47121 0
M  V30 80 O 11.9946 0.510994 -1.69463 0
M  V30 81 C 9.1236 0.695033 -3.36191 0
M  V30 82 C 8.2096 -0.132019 -4.23894 0
M  V30 83 N 8.6006 -1.18822 -4.91645 0
M  V30 84 C 6.8986 0.0885952 -4.45912 0
M  V30 85 C 7.5996 -1.69198 -5.56549 0
M  V30 86 N 6.5756 -1.00065 -5.34311 0
M  V30 87 H 10.3776 -0.974947 -2.77258 0
M  V30 88 H 7.8916 -0.632616 -1.49572 0
M  V30 89 H 9.8886 1.1596 -4.00448 0
M  V30 90 H 8.5486 1.50189 -2.87877 0
M  V30 91 H 9.5596 -1.57069 -4.93507 0
M  V30 92 H 6.2366 0.865688 -4.08426 0
M  V30 93 H 7.6266 -2.57395 -6.20643 0
M  V30 94 N 10.3467 1.47872 -0.545128 0
M  V30 95 C 11.5947 2.02093 -0.016553 0
M  V30 96 C 11.9157 1.42305 1.3332 0
M  V30 97 O 11.1857 0.593853 1.86682 0
M  V30 98 H 9.7657 0.746993 -0.00313038 0
M  V30 99 H 12.4277 1.81414 -0.712397 0
M  V30 100 H 11.5237 3.11996 0.0805422 0
M  V30 101 N 11.8248 0.280983 1.55075 0
M  V30 102 C 12.7748 -0.618585 2.19448 0
M  V30 103 C 13.7588 -1.11401 1.16098 0
M  V30 104 O 14.9508 -1.0581 1.41891 0
M  V30 105 C 12.0798 -1.79951 2.92357 0
M  V30 106 C 11.1658 -1.321 4.03002 0
M  V30 107 N 11.5568 -0.559044 5.02701 0
M  V30 108 C 9.8548 -1.60346 4.16179 0
M  V30 109 C 10.5558 -0.306722 5.80891 0
M  V30 110 N 9.5318 -0.880825 5.36416 0
M  V30 111 H 13.3338 -0.0286638 2.93886 0
M  V30 112 H 10.8478 0.0848104 1.62178 0
M  V30 113 H 12.8448 -2.45531 3.36927 0
M  V30 114 H 11.5048 -2.39333 2.19431 0
M  V30 115 H 12.5158 -0.205827 5.17491 0
M  V30 116 H 9.1928 -2.20621 3.54447 0
M  V30 117 H 10.5828 0.30391 6.71212 0
M  V30 118 N 13.3029 -1.57598 0.00835791 0
M  V30 119 C 14.5509 -1.90551 -0.6734 0
M  V30 120 C 14.8719 -0.883301 -1.73847 0
M  V30 121 O 14.1419 0.0781442 -1.95744 0
M  V30 122 H 12.7219 -0.703312 -0.251717 0
M  V30 123 H 15.3839 -1.94833 0.0512592 0
M  V30 124 H 14.4799 -2.9056 -1.13935 0
M  V30 125 N 14.781 0.264519 -1.55364 0
M  V30 126 C 16.058 1.01677 -1.67096 0
M  V30 127 C 16.438 2.03996 -0.543015 0
M  V30 128 O 15.786 2.23907 0.45585 0
M  V30 129 C 15.996 1.66596 -3.0667 0
M  V30 130 C 17.344 2.17442 -3.64697 0
M  V30 131 O 18.368 1.76568 -3.09358 0
M  V30 132 O 17.227 2.92439 -4.61673 0
M  V30 133 H 14.321 0.472161 -0.678965 0
M  V30 134 H 16.867 0.259703 -1.67701 0
M  V30 135 H 15.639 0.924962 -3.80211 0
M  V30 136 H 15.262 2.48968 -3.10001 0
M  V30 137 N 16.2591 1.48442 0.529413 0
M  V30 138 C 17.2091 1.59407 1.63014 0
M  V30 139 C 18.1931 0.451166 1.54445 0
M  V30 140 O 19.3851 0.702635 1.62456 0
M  V30 141 C 16.5141 1.63746 3.01732 0
M  V30 142 C 15.6001 2.83518 3.15402 0
M  V30 143 N 15.9911 4.07929 2.99045 0
M  V30 144 C 14.2891 2.80862 3.46457 0
M  V30 145 C 14.9901 4.8829 3.16146 0
M  V30 146 N 13.9661 4.21117 3.43746 0
M  V30 147 H 17.7681 2.53343 1.48978 0
M  V30 148 H 15.2821 1.44821 0.734885 0
M  V30 149 H 17.2791 1.69695 3.80801 0
M  V30 150 H 15.9391 0.709264 3.16859 0
M  V30 151 H 16.9501 4.38357 2.75796 0
M  V30 152 H 13.6271 1.97301 3.67938 0
M  V30 153 H 15.0171 5.97028 3.08232 0
M  V30 154 N 17.7372 -0.778329 1.37039 0
M  V30 155 C 18.6872 -1.88142 1.28789 0
M  V30 156 C 19.6712 -1.59923 0.177063 0
M  V30 157 O 20.8632 -1.72165 0.410873 0
M  V30 158 C 17.9922 -3.25518 1.09055 0
M  V30 159 C 17.0782 -3.5971 2.24654 0
M  V30 160 N 17.4692 -3.65131 3.50018 0
M  V30 161 C 15.7672 -3.89837 2.16663 0
M  V30 162 C 16.4682 -3.95882 4.26207 0
M  V30 163 N 15.4442 -4.11441 3.55271 0
M  V30 164 H 19.2462 -1.90575 2.23737 0
M  V30 165 H 16.7602 -0.974435 1.29917 0
M  V30 166 H 18.7572 -4.04423 1.0123 0
M  V30 167 H 17.4172 -3.24353 0.15018 0
M  V30 168 H 18.4282 -3.475 3.84011 0
M  V30 169 H 15.1052 -3.96533 1.30645 0
M  V30 170 H 16.4952 -4.06907 5.34674 0
M  V30 171 N 19.2153 -1.21501 -1.00376 0
M  V30 172 C 20.4923 -0.941745 -1.71437 0
M  V30 173 C 20.8723 0.546114 -2.03914 0
M  V30 174 O 20.2203 1.51128 -1.71384 0
M  V30 175 C 20.4303 -1.82812 -2.97289 0
M  V30 176 C 21.7783 -2.07771 -3.70292 0
M  V30 177 O 22.8023 -1.80171 -3.07273 0
M  V30 178 O 21.6613 -2.54456 -4.83647 0
M  V30 179 H 18.7553 -0.353243 -0.747762 0
M  V30 180 H 21.3013 -1.32436 -1.06108 0
M  V30 181 H 20.0733 -2.83501 -2.69709 0
M  V30 182 H 19.6963 -1.4464 -3.70358 0
M  V30 183 N 20.6934 1.19889 -1.02296 0
M  V30 184 C 21.9214 1.9339 -0.735399 0
M  V30 185 C 22.3364 1.75148 0.704887 0
M  V30 186 O 21.6934 1.06954 1.47875 0
M  V30 187 C 21.7444 3.45313 -1.06962 0
M  V30 188 O 21.4654 3.62964 -2.45334 0
M  V30 189 C 22.9664 4.35948 -0.804021 0
M  V30 190 H 20.1864 0.61448 -0.269546 0
M  V30 191 H 22.7304 1.522 -1.36585 0
M  V30 192 H 20.8854 3.84359 -0.484455 0
M  V30 193 H 21.2994 4.56886 -2.57595 0
M  V30 194 H 22.7734 5.41174 -1.0879 0
M  V30 195 H 23.2504 4.3842 0.261691 0
M  V30 196 H 23.8564 4.02574 -1.37164 0
M  V30 197 N 22.1715 0.800033 1.35784 0
M  V30 198 C 23.5875 0.482977 1.52117 0
M  V30 199 C 23.7875 -0.996948 1.75109 0
M  V30 200 O 22.8435 -1.78216 1.78872 0
M  V30 201 C 24.1565 1.32264 2.70049 0
M  V30 202 C 25.7045 1.31742 2.83924 0
M  V30 203 C 26.1795 2.14106 4.04874 0
M  V30 204 N 27.6705 2.11607 4.12039 0
M  V30 205 C 28.4055 2.72099 5.04727 0
M  V30 206 N 27.9015 3.41492 6.02789 0
M  V30 207 N 29.6945 2.61776 4.97423 0
M  V30 208 H 21.8455 1.75856 1.19115 0
M  V30 209 H 24.1085 0.748122 0.582252 0
M  V30 210 H 23.8145 2.37261 2.59616 0
M  V30 211 H 23.6885 0.971303 3.6448 0
M  V30 212 H 26.0755 0.275333 2.93813 0
M  V30 213 H 26.1565 1.70859 1.9037 0
M  V30 214 H 25.8005 3.18351 3.95746 0
M  V30 215 H 25.7305 1.72353 4.97596 0
M  V30 216 H 28.2215 1.61112 3.41835 0
M  V30 217 H 28.5345 3.84953 6.70098 0
M  V30 218 H 26.8795 3.45596 6.02983 0
M  V30 219 H 30.0705 2.07157 4.19766 0
M  V30 220 H 30.2435 3.0921 5.69468 0
M  V30 221 N 23.6496 -1.47581 0.552962 0
M  V30 222 C 24.8976 -2.02082 0.0272703 0
M  V30 223 C 25.2186 -1.4301 -1.32563 0
M  V30 224 O 24.4886 -0.603745 -1.86365 0
M  V30 225 H 23.0686 -0.746966 0.00709182 0
M  V30 226 H 25.7306 -1.81033 0.722008 0
M  V30 227 H 24.8266 -3.12034 -0.0639951 0
M  V30 228 N 25.1277 -0.289203 -1.54924 0
M  V30 229 C 26.3747 0.323519 -1.99899 0
M  V30 230 C 26.7027 1.54797 -1.17762 0
M  V30 231 O 25.9577 1.94237 -0.238835 0
M  V30 232 C 26.2567 0.736119 -3.49737 0
M  V30 233 C 25.9227 -0.385276 -4.49251 0
M  V30 234 C 24.5847 -0.693156 -4.76181 0
M  V30 235 C 26.9367 -1.14021 -5.08575 0
M  V30 236 C 24.2647 -1.7593 -5.59701 0
M  V30 237 C 26.6167 -2.19619 -5.93254 0
M  V30 238 C 25.2807 -2.51026 -6.185 0
M  V30 239 H 24.5507 0.118384 -0.731482 0
M  V30 240 H 27.1977 -0.405847 -1.8715 0
M  V30 241 H 25.5027 1.54539 -3.60035 0
M  V30 242 H 27.1997 1.22118 -3.81953 0
M  V30 243 H 23.7897 -0.135202 -4.28387 0
M  V30 244 H 27.9737 -0.915611 -4.87781 0
M  V30 245 H 23.2297 -2.0075 -5.77503 0
M  V30 246 H 27.4037 -2.78581 -6.38252 0
M  V30 247 H 25.0307 -3.33772 -6.83008 0
M  V30 248 N 26.6058 1.57591 -0.0167156 0
M  V30 249 C 27.8528 1.91283 0.664597 0
M  V30 250 C 28.1808 0.891949 1.72842 0
M  V30 251 O 27.4358 -0.100931 1.9544 0
M  V30 252 C 27.7348 3.3172 1.33029 0
M  V30 253 C 27.4008 4.4914 0.398047 0
M  V30 254 C 26.0628 4.80992 0.141421 0
M  V30 255 C 28.4148 5.20634 -0.242825 0
M  V30 256 C 25.7428 5.81703 -0.764092 0
M  V30 257 C 28.0948 6.22311 -1.13632 0
M  V30 258 C 26.7588 6.52611 -1.40196 0
M  V30 259 H 26.0288 0.699956 0.243193 0
M  V30 260 H 28.6758 1.9135 -0.0758267 0
M  V30 261 H 26.9808 3.27856 2.14517 0
M  V30 262 H 28.6778 3.55055 1.86379 0
M  V30 263 H 25.2678 4.24262 0.608238 0
M  V30 264 H 29.4518 4.96267 -0.0576019 0
M  V30 265 H 24.7078 6.03532 -0.977732 0
M  V30 266 H 28.8818 6.76834 -1.63917 0
M  V30 267 H 26.5088 7.30467 -2.10529 0
M  V30 268 N 28.0839 -0.256276 1.55502 0
M  V30 269 C 29.3119 -1.00342 1.8094 0
M  V30 270 C 29.7269 -1.79307 0.59114 0
M  V30 271 O 29.0839 -1.77114 -0.440081 0
M  V30 272 C 29.1349 -1.94875 3.04476 0
M  V30 273 O 28.8559 -1.19107 4.21598 0
M  V30 274 C 30.3569 -2.81266 3.42644 0
M  V30 275 H 27.5769 -0.295685 0.602338 0
M  V30 276 H 30.1209 -0.281998 2.02546 0
M  V30 277 H 28.2759 -2.62457 2.84947 0
M  V30 278 H 28.6899 -1.82969 4.91551 0
M  V30 279 H 30.1639 -3.43362 4.32211 0
M  V30 280 H 30.6409 -3.51897 2.62802 0
M  V30 281 H 31.2469 -2.1915 3.64491 0
M  V30 282 N 29.562 -1.4872 -0.521534 0
M  V30 283 C 30.978 -1.35028 -0.850855 0
M  V30 284 C 31.178 -0.367712 -1.98116 0
M  V30 285 O 30.234 0.208037 -2.51642 0
M  V30 286 C 31.547 -2.75263 -1.21041 0
M  V30 287 C 33.095 -2.83813 -1.31981 0
M  V30 288 C 33.57 -4.24769 -1.71276 0
M  V30 289 N 35.061 -4.27482 -1.78363 0
M  V30 290 C 35.796 -5.33494 -2.1017 0
M  V30 291 N 35.292 -6.49775 -2.40343 0
M  V30 292 N 37.085 -5.20894 -2.11248 0
M  V30 293 H 29.236 -2.11214 0.22413 0
M  V30 294 H 31.499 -0.947252 0.0376439 0
M  V30 295 H 31.205 -3.48765 -0.453415 0
M  V30 296 H 31.079 -3.09327 -2.15863 0
M  V30 297 H 33.466 -2.10561 -2.06756 0
M  V30 298 H 33.547 -2.53358 -0.352596 0
M  V30 299 H 33.191 -4.9854 -0.970588 0
M  V30 300 H 33.121 -4.52673 -2.69062 0
M  V30 301 H 35.612 -3.43611 -1.57288 0
M  V30 302 H 35.925 -7.26402 -2.63743 0
M  V30 303 H 34.27 -6.53035 -2.37844 0
M  V30 304 H 37.461 -4.29065 -1.87139 0
M  V30 305 H 37.634 -6.03612 -2.35704 0
M  V30 306 N 31.0401 0.771051 -1.3745 0
M  V30 307 C 32.2861 1.53109 -1.339 0
M  V30 308 C 32.6411 1.9225 0.0758401 0
M  V30 309 O 31.9341 1.61264 1.03463 0
M  V30 310 C 32.1281 2.80676 -2.2126 0
M  V30 311 C 31.9571 2.54003 -3.71096 0
M  V30 312 C 30.7271 2.48097 -4.402 0
M  V30 313 C 32.9251 2.21953 -4.63941 0
M  V30 314 N 30.9071 2.13515 -5.75573 0
M  V30 315 C 32.2781 1.97516 -5.87697 0
M  V30 316 C 34.3331 2.08114 -4.5232 0
M  V30 317 C 33.0361 1.60638 -7.01133 0
M  V30 318 C 35.0621 1.72636 -5.65642 0
M  V30 319 C 34.4241 1.4906 -6.88448 0
M  V30 320 H 30.5231 0.56055 -0.54526 0
M  V30 321 H 33.1071 0.899472 -1.72678 0
M  V30 322 H 31.2781 3.41674 -1.84698 0
M  V30 323 H 33.0101 3.46578 -2.08963 0
M  V30 324 H 29.7651 2.63974 -3.93211 0
M  V30 325 H 30.1891 1.98919 -6.47117 0
M  V30 326 H 34.8311 2.25024 -3.57944 0
M  V30 327 H 32.5491 1.42467 -7.95443 0
M  V30 328 H 36.1351 1.62586 -5.58621 0
M  V30 329 H 35.0151 1.22014 -7.7465 0
M  V30 330 N 32.5182 1.22032 0.997298 0
M  V30 331 C 33.7652 1.04222 1.73621 0
M  V30 332 C 34.0932 -0.423264 1.89839 0
M  V30 333 O 33.3482 -1.3302 1.43542 0
M  V30 334 C 33.6472 1.69345 3.14733 0
M  V30 335 C 33.3132 3.19226 3.18442 0
M  V30 336 C 31.9752 3.60124 3.19161 0
M  V30 337 C 34.3272 4.15181 3.15078 0
M  V30 338 C 31.6552 4.95467 3.14212 0
M  V30 339 C 34.0072 5.50495 3.1167 0
M  V30 340 C 32.6712 5.90779 3.10703 0
M  V30 341 H 31.9412 0.381374 0.635323 0
M  V30 342 H 34.5882 1.51732 1.16831 0
M  V30 343 H 32.8932 1.14147 3.74803 0
M  V30 344 H 34.5902 1.53059 3.7064 0
M  V30 345 H 31.1802 2.86659 3.18629 0
M  V30 346 H 35.3642 3.84605 3.13676 0
M  V30 347 H 30.6202 5.25916 3.11805 0
M  V30 348 H 34.7942 6.24576 3.08022 0
M  V30 349 H 32.4212 6.9562 3.06622 0
M  V30 350 N 33.9963 -1.19345 1.0293 0
M  V30 351 C 34.9293 -2.21347 0.555029 0
M  V30 352 C 35.9073 -1.57492 -0.404351 0
M  V30 353 O 37.0913 -1.85741 -0.321352 0
M  V30 354 C 34.2183 -3.38163 -0.19064 0
M  V30 355 C 33.2643 -4.20375 0.720236 0
M  V30 356 S 34.0973 -4.88371 2.19668 0
M  V30 357 C 35.2533 -6.08597 1.46153 0
M  V30 358 H 35.4863 -2.61235 1.41929 0
M  V30 359 H 33.0193 -1.29598 0.839272 0
M  V30 360 H 34.9773 -4.05871 -0.614724 0
M  V30 361 H 33.6383 -2.9671 -1.03063 0
M  V30 362 H 32.8313 -5.03793 0.14455 0
M  V30 363 H 32.4333 -3.57987 1.08266 0
M  V30 364 H 34.7253 -6.73354 0.748357 0
M  V30 365 H 35.6683 -6.7065 2.27233 0
M  V30 366 H 36.0763 -5.56297 0.958842 0
M  V30 367 N 35.4744 -0.807222 -1.35358 0
M  V30 368 C 36.6994 -0.399309 -2.0352 0
M  V30 369 C 37.1244 0.981986 -1.60433 0
M  V30 370 O 36.4824 1.63601 -0.781299 0
M  V30 371 C 36.5304 -0.491552 -3.57234 0
M  V30 372 O 35.6344 0.494754 -4.09421 0
M  V30 373 H 34.9754 -0.166682 -0.642739 0
M  V30 374 H 37.5054 -1.09328 -1.72941 0
M  V30 375 H 37.5154 -0.361588 -4.06395 0
M  V30 376 H 36.1904 -1.49907 -3.87944 0
M  V30 377 H 34.7674 0.324977 -3.71481 0
M  V30 378 N 36.9525 1.47285 -0.560781 0
M  V30 379 C 38.1805 2.06855 -0.0430262 0
M  V30 380 C 38.5955 1.41291 1.25229 0
M  V30 381 O 37.9525 0.510648 1.7521 0
M  V30 382 C 38.0035 3.61178 0.152518 0
M  V30 383 O 37.7245 4.24285 -1.0915 0
M  V30 384 C 39.2255 4.37624 0.707145 0
M  V30 385 H 36.4455 0.669319 -0.0474652 0
M  V30 386 H 38.9895 1.89237 -0.77521 0
M  V30 387 H 37.1445 3.78298 0.834843 0
M  V30 388 H 37.5585 5.16868 -0.891482 0
M  V30 389 H 39.0325 5.46271 0.793244 0
M  V30 390 H 39.5095 4.04152 1.71923 0
M  V30 391 H 40.1155 4.25257 0.0604027 0
M  V30 392 N 38.4306 0.297415 1.54768 0
M  V30 393 C 39.3786 -0.596051 2.24833 0
M  V30 394 C 40.3726 -1.13992 1.25308 0
M  V30 395 O 41.5786 -1.09098 1.4317 0
M  V30 396 H 37.9536 -0.210814 0.721846 0
M  V30 397 H 39.9246 0.0174667 2.98395 0
M  V30 398 C 38.6736 -1.75818 2.99972 0
M  V30 399 H 37.9966 -1.3489 3.76357 0
M  V30 400 H 39.4366 -2.35949 3.52284 0
M  V30 401 C 37.8956 -2.66014 2.06732 0
M  V30 402 O 38.4256 -3.67009 1.63302 0
M  V30 403 N 36.6316 -2.33669 1.72763 0
M  V30 404 H 36.1786 -1.51586 2.08277 0
M  V30 405 H 36.1366 -2.94285 1.10652 0
M  V30 406 N 39.9087 -1.5758 0.0250728 0
M  V30 407 C 40.8587 -2.06468 -0.967201 0
M  V30 408 C 41.8427 -0.964376 -1.28797 0
M  V30 409 O 43.0347 -1.22797 -1.27475 0
M  V30 410 C 40.1637 -2.59203 -2.25097 0
M  V30 411 C 39.2497 -3.76157 -1.95874 0
M  V30 412 N 39.6407 -4.86919 -1.36905 0
M  V30 413 C 37.9387 -3.84566 -2.25887 0
M  V30 414 C 38.6397 -5.68172 -1.24724 0
M  V30 415 N 37.6157 -5.14953 -1.74138 0
M  V30 416 H 41.4177 -2.89508 -0.506176 0
M  V30 417 H 38.9317 -1.61399 -0.18004 0
M  V30 418 H 40.9287 -2.92517 -2.97052 0
M  V30 419 H 39.5887 -1.77592 -2.71829 0
M  V30 420 H 40.5997 -5.07256 -1.04459 0
M  V30 421 H 37.2767 -3.13854 -2.75321 0
M  V30 422 H 38.6667 -6.67221 -0.791605 0
M  V30 423 N 41.3868 0.248026 -1.55636 0
M  V30 424 C 42.3338 1.30707 -1.90222 0
M  V30 425 C 43.3038 1.47881 -0.756332 0
M  V30 426 O 44.4888 1.61883 -1.00988 0
M  V30 427 C 41.6288 2.65769 -2.20138 0
M  V30 428 C 40.7418 2.56612 -3.47526 0
M  V30 429 C 39.8768 3.8402 -3.67017 0
M  V30 430 C 38.9158 3.69476 -4.8801 0
M  V30 431 N 38.0528 4.88774 -5.04029 0
M  V30 432 H 42.8928 1.00512 -2.80538 0
M  V30 433 H 40.4298 0.485055 -1.38873 0
M  V30 434 H 42.3878 3.44386 -2.35487 0
M  V30 435 H 41.0178 2.94115 -1.33027 0
M  V30 436 H 40.0698 1.69571 -3.40514 0
M  V30 437 H 41.3818 2.41774 -4.36287 0
M  V30 438 H 40.5358 4.7108 -3.8232 0
M  V30 439 H 39.2748 4.01754 -2.76487 0
M  V30 440 H 38.2798 2.80799 -4.72686 0
M  V30 441 H 39.5048 3.53238 -5.8 0
M  V30 442 H 37.4508 5.0687 -4.16435 0
M  V30 443 H 37.3678 4.76562 -5.86877 0
M  V30 444 H 38.6358 5.77335 -5.23741 0
M  V30 445 N 42.8649 1.48995 0.513639 0
M  V30 446 C 44.1419 1.48338 1.27495 0
M  V30 447 C 44.5219 0.204065 2.10111 0
M  V30 448 O 43.8699 -0.813881 2.13514 0
M  V30 449 C 44.0799 2.75498 2.14247 0
M  V30 450 C 45.4279 3.24484 2.73852 0
M  V30 451 O 46.4519 2.76528 2.24523 0
M  V30 452 O 45.3109 4.07974 3.6362 0
M  V30 453 H 42.4049 0.593149 0.576284 0
M  V30 454 H 44.9509 1.61246 0.528948 0
M  V30 455 H 43.7229 3.60109 1.53092 0
M  V30 456 H 43.3459 2.6539 2.96064 0
M  V30 457 N 44.343 -0.763751 1.37857 0
M  V30 458 C 45.592 -1.51789 1.32827 0
M  V30 459 C 45.905 -1.95426 -0.0823719 0
M  V30 460 O 47.111 -2.70298 -0.255172 0
M  V30 461 C 45.567 -2.74133 2.33193 0
M  V30 462 C 45.175 -2.37562 3.79827 0
M  V30 463 C 46.919 -3.52054 2.37188 0
M  V30 464 C 44.826 -3.56456 4.71904 0
M  V30 465 H 43.756 -0.569896 0.493695 0
M  V30 466 H 46.407 -0.835822 1.63359 0
M  V30 467 H 44.789 -3.4427 1.9569 0
M  V30 468 H 45.963 -1.75157 4.26212 0
M  V30 469 H 44.278 -1.72798 3.78853 0
M  V30 470 H 46.875 -4.40437 3.03182 0
M  V30 471 H 47.218 -3.92486 1.38782 0
M  V30 472 H 47.751 -2.88921 2.7344 0
M  V30 473 H 44.49 -3.21099 5.71468 0
M  V30 474 H 44.01 -4.17938 4.30218 0
M  V30 475 H 45.689 -4.23168 4.89426 0
M  V30 476 N 45.8211 -1.22559 -0.990812 0
M  V30 477 C 47.0691 -1.04933 -1.72724 0
M  V30 478 C 47.3901 0.416158 -1.90508 0
M  V30 479 O 46.6601 1.29918 -1.46622 0
M  V30 480 H 45.2401 -0.385296 -0.639965 0
M  V30 481 H 47.9021 -1.54105 -1.19322 0
M  V30 482 H 46.9981 -1.52886 -2.72089 0
M  V30 483 N 47.2992 1.18797 -1.03562 0
M  V30 484 C 48.5482 1.87978 -0.731235 0
M  V30 485 C 48.8612 1.80911 0.743671 0
M  V30 486 O 50.0672 2.45407 1.16137 0
M  V30 487 C 48.5232 3.3721 -1.25768 0
M  V30 488 C 48.1312 3.52818 -2.76085 0
M  V30 489 C 49.8752 4.11825 -1.0296 0
M  V30 490 C 47.7822 4.9598 -3.22114 0
M  V30 491 H 46.7122 0.704063 -0.269835 0
M  V30 492 H 49.3632 1.34266 -1.25079 0
M  V30 493 H 47.7452 3.90359 -0.666011 0
M  V30 494 H 48.9192 3.09965 -3.40966 0
M  V30 495 H 47.2342 2.91602 -2.97249 0
M  V30 496 H 49.8312 5.17411 -1.34869 0
M  V30 497 H 50.1742 4.16287 0.0333546 0
M  V30 498 H 50.7072 3.64833 -1.58562 0
M  V30 499 H 47.4462 4.96684 -4.27768 0
M  V30 500 H 46.9662 5.39569 -2.61965 0
M  V30 501 H 48.6452 5.6467 -3.15844 0
M  V30 502 N 48.7773 0.814389 1.34928 0
M  V30 503 C 49.7073 0.244827 2.32213 0
M  V30 504 C 50.6883 -0.634024 1.57842 0
M  V30 505 O 51.8733 -0.562676 1.8587 0
M  V30 506 C 49.0033 -0.601106 3.42058 0
M  V30 507 C 47.9573 0.179896 4.27622 0
M  V30 508 C 47.2833 -0.788237 5.28858 0
M  V30 509 C 48.5833 1.38329 5.03649 0
M  V30 510 H 50.2773 1.05763 2.80097 0
M  V30 511 H 47.8233 0.510029 1.34665 0
M  V30 512 H 49.7763 -1.00968 4.09125 0
M  V30 513 H 48.5003 -1.44688 2.92802 0
M  V30 514 H 47.1593 0.569739 3.62146 0
M  V30 515 H 46.8073 -1.62973 4.75866 0
M  V30 516 H 46.5073 -0.269942 5.8698 0
M  V30 517 H 48.0313 -1.19485 5.98795 0
M  V30 518 H 49.4453 1.04918 5.63618 0
M  V30 519 H 47.8423 1.83662 5.71304 0
M  V30 520 H 48.9123 2.16592 4.33839 0
M  V30 521 N 50.2554 -1.46986 0.568584 0
M  V30 522 C 51.4854 -2.0653 0.0539173 0
M  V30 523 C 51.8934 -1.42004 -1.25026 0
M  V30 524 O 51.2364 -0.514541 -1.76347 0
M  V30 525 C 51.2984 -3.58938 -0.200854 0
M  V30 526 C 50.9624 -4.45572 1.01559 0
M  V30 527 C 51.9594 -4.82986 1.92407 0
M  V30 528 C 49.6444 -4.8692 1.23346 0
M  V30 529 C 51.6384 -5.60559 3.03402 0
M  V30 530 C 49.3254 -5.64255 2.34649 0
M  V30 531 C 50.3234 -6.00986 3.24507 0
M  V30 532 O 50.0114 -6.76761 4.33878 0
M  V30 533 H 49.7434 -0.674292 0.0480234 0
M  V30 534 H 52.2974 -1.89812 0.784896 0
M  V30 535 H 50.5274 -3.73911 -0.986279 0
M  V30 536 H 52.2164 -4.0046 -0.662294 0
M  V30 537 H 52.9824 -4.51633 1.76785 0
M  V30 538 H 48.8614 -4.57789 0.543178 0
M  V30 539 H 52.4054 -5.89147 3.73565 0
M  V30 540 H 48.3024 -5.95021 2.5024 0
M  V30 541 H 49.0704 -6.95168 4.32068 0
M  V30 542 N 51.7335 -0.305618 -1.54608 0
M  V30 543 C 52.6635 0.561482 -2.26649 0
M  V30 544 C 53.6445 1.13415 -1.26772 0
M  V30 545 O 54.8295 1.16262 -1.55553 0
M  V30 546 C 51.9595 1.73122 -3.01075 0
M  V30 547 C 50.9135 1.2887 -4.08138 0
M  V30 548 C 50.2395 2.54396 -4.70305 0
M  V30 549 C 51.5395 0.416578 -5.20636 0
M  V30 550 H 53.2335 -0.0393902 -2.99374 0
M  V30 551 H 50.7795 -0.020385 -1.43986 0
M  V30 552 H 52.7325 2.34396 -3.50195 0
M  V30 553 H 51.4565 2.3584 -2.25936 0
M  V30 554 H 50.1155 0.698991 -3.59875 0
M  V30 555 H 49.7635 3.15439 -3.918 0
M  V30 556 H 49.4635 2.25486 -5.42614 0
M  V30 557 H 50.9875 3.16464 -5.2219 0
M  V30 558 H 52.4015 0.935116 -5.65622 0
M  V30 559 H 50.7985 0.221046 -5.99693 0
M  V30 560 H 51.8685 -0.557162 -4.81688 0
M  V30 561 N 53.2116 1.57565 -0.0334293 0
M  V30 562 C 54.4586 1.91978 0.644272 0
M  V30 563 C 54.7866 0.910231 1.71887 0
M  V30 564 O 54.0416 -0.0801961 1.95536 0
M  V30 565 C 54.3406 3.33112 1.29504 0
M  V30 566 C 54.0066 4.49537 0.350388 0
M  V30 567 C 52.6686 4.81115 0.0903974 0
M  V30 568 C 55.0206 5.20347 -0.298032 0
M  V30 569 C 52.3486 5.8086 -0.825746 0
M  V30 570 C 54.7006 6.2107 -1.20226 0
M  V30 571 C 53.3646 6.51088 -1.4711 0
M  V30 572 H 52.6346 0.702496 0.235756 0
M  V30 573 H 55.2816 1.91259 -0.0961176 0
M  V30 574 H 53.5866 3.30113 2.11028 0
M  V30 575 H 55.2836 3.57011 1.82603 0
M  V30 576 H 51.8736 4.24883 0.563205 0
M  V30 577 H 56.0576 4.96178 -0.110234 0
M  V30 578 H 51.3136 6.02461 -1.04169 0
M  V30 579 H 55.4876 6.75057 -1.71086 0
M  V30 580 H 53.1146 7.28193 -2.18264 0
M  V30 581 N 54.6897 -0.239769 1.55765 0
M  V30 582 C 55.9177 -0.98417 1.81994 0
M  V30 583 C 56.3327 -1.7867 0.610124 0
M  V30 584 O 55.6897 -1.77571 -0.421271 0
M  V30 585 C 55.7407 -1.91635 3.06526 0
M  V30 586 O 55.4617 -1.14629 4.22838 0
M  V30 587 C 56.9627 -2.77616 3.45607 0
M  V30 588 H 54.1827 -0.28928 0.605441 0
M  V30 589 H 56.7267 -0.260499 2.02834 0
M  V30 590 H 54.8817 -2.5942 2.87715 0
M  V30 591 H 55.2957 -1.77745 4.93464 0
M  V30 592 H 56.7697 -3.38759 4.35828 0
M  V30 593 H 57.2467 -3.4909 2.6652 0
M  V30 594 H 57.8527 -2.15271 3.66795 0
M  V30 595 N 56.1678 -1.49265 -0.50573 0
M  V30 596 C 57.1308 -1.65075 -1.59006 0
M  V30 597 C 58.1308 -0.522768 -1.52065 0
M  V30 598 O 59.3208 -0.789117 -1.55302 0
M  V30 599 C 56.4528 -1.64369 -2.98656 0
M  V30 600 H 57.6458 -2.61784 -1.46319 0
M  V30 601 H 55.1988 -1.38226 -0.729616 0
M  V30 602 H 55.9338 -0.692272 -3.16825 0
M  V30 603 H 55.7188 -2.46282 -3.05103 0
M  V30 604 H 57.2088 -1.78674 -3.77446 0
M  V30 605 N 57.6459 0.756429 -1.3826 0
M  V30 606 C 58.8939 1.51248 -1.34047 0
M  V30 607 C 59.2149 1.94875 0.0698372 0
M  V30 608 O 58.4849 1.67436 1.01696 0
M  V30 609 H 57.0649 0.561018 -0.493222 0
M  V30 610 H 59.7269 0.899347 -1.7291 0
M  V30 611 H 58.8229 2.40472 -1.98947 0
M  V30 612 N 59.124 1.23083 0.984299 0
M  V30 613 C 60.373 1.05466 1.71929 0
M  V30 614 C 60.686 -0.409211 1.91272 0
M  V30 615 O 61.892 -0.705226 2.62181 0
M  V30 616 C 60.348 1.83874 3.09384 0
M  V30 617 C 59.956 3.34566 2.97943 0
M  V30 618 C 61.7 1.74734 3.8687 0
M  V30 619 C 59.607 4.05381 4.30605 0
M  V30 620 H 58.537 0.391039 0.644674 0
M  V30 621 H 61.188 1.47013 1.09815 0
M  V30 622 H 59.57 1.35131 3.72231 0
M  V30 623 H 60.744 3.90767 2.44209 0
M  V30 624 H 59.059 3.44476 2.33934 0
M  V30 625 H 61.656 2.24957 4.85076 0
M  V30 626 H 61.999 0.709372 4.10212 0
M  V30 627 H 62.532 2.21067 3.30717 0
M  V30 628 H 59.271 5.09467 4.1246 0
M  V30 629 H 58.791 3.53967 4.84218 0
M  V30 630 H 60.47 4.11458 4.99311 0
M  V30 631 N 60.6021 -1.18246 1.0419 0
M  V30 632 C 61.8481 -1.88536 0.747122 0
M  V30 633 C 62.1811 -1.80223 -0.723409 0
M  V30 634 O 61.4561 -1.20337 -1.52804 0
M  V30 635 C 61.7391 -3.38968 1.21544 0
M  V30 636 C 61.5921 -3.56084 2.74816 0
M  V30 637 C 62.9111 -4.32648 0.806482 0
M  V30 638 H 60.0301 -0.684619 0.272883 0
M  V30 639 H 62.6721 -1.39113 1.29413 0
M  V30 640 H 60.8221 -3.8119 0.750081 0
M  V30 641 H 62.4941 -3.22946 3.29399 0
M  V30 642 H 60.7371 -2.98699 3.14582 0
M  V30 643 H 61.4081 -4.61639 3.02644 0
M  V30 644 H 63.8841 -3.98211 1.20695 0
M  V30 645 H 62.7601 -5.36462 1.1619 0
M  V30 646 H 63.0211 -4.41146 -0.29029 0
M  V30 647 N 62.0802 -0.821533 -1.34494 0
M  V30 648 C 63.3282 -0.408139 -1.97936 0
M  V30 649 C 63.6492 1.03193 -1.65457 0
M  V30 650 O 62.9192 1.71622 -0.944595 0
M  V30 651 H 61.4992 -0.147928 -0.732206 0
M  V30 652 H 64.1612 -1.05067 -1.64155 0
M  V30 653 H 63.2572 -0.52601 -3.07635 0
M  V30 654 N 63.5583 1.46682 -0.576371 0
M  V30 655 C 64.4883 2.33028 0.148397 0
M  V30 656 C 65.4693 1.44961 0.889956 0
M  V30 657 O 66.6543 1.73789 0.866662 0
M  V30 658 C 63.7843 3.27117 1.1667 0
M  V30 659 C 62.7383 4.24575 0.540386 0
M  V30 660 C 62.0643 5.08126 1.6647 0
M  V30 661 C 63.3643 5.19722 -0.518331 0
M  V30 662 H 65.0583 2.93875 -0.572509 0
M  V30 663 H 62.6043 1.41315 -0.276768 0
M  V30 664 H 64.5573 3.86374 1.68204 0
M  V30 665 H 63.2813 2.64364 1.9178 0
M  V30 666 H 61.9403 3.66571 0.0461769 0
M  V30 667 H 61.5883 4.41762 2.40531 0
M  V30 668 H 61.2883 5.74122 1.25131 0
M  V30 669 H 62.8123 5.70246 2.18293 0
M  V30 670 H 64.2263 5.73232 -0.0883058 0
M  V30 671 H 62.6233 5.94026 -0.851679 0
M  V30 672 H 63.6933 4.64037 -1.40703 0
M  V30 673 N 65.0364 0.313813 1.54444 0
M  V30 674 C 66.2854 -0.292519 1.99568 0
M  V30 675 C 66.5984 -1.54011 1.20582 0
M  V30 676 O 67.8044 -2.22183 1.56035 0
M  V30 677 C 66.2604 -0.571752 3.55329 0
M  V30 678 C 65.8684 0.658229 4.43138 0
M  V30 679 C 67.6124 -1.13857 4.08946 0
M  V30 680 C 65.5194 0.351439 5.90355 0
M  V30 681 H 64.4494 -0.113079 0.745472 0
M  V30 682 H 67.1004 0.424518 1.78522 0
M  V30 683 H 65.4824 -1.34872 3.72325 0
M  V30 684 H 66.6564 1.43403 4.37918 0
M  V30 685 H 64.9714 1.14458 4.0036 0
M  V30 686 H 67.5684 -1.38257 5.16516 0
M  V30 687 H 67.9114 -2.08489 3.6033 0
M  V30 688 H 68.4444 -0.423015 3.95544 0
M  V30 689 H 65.1834 1.26667 6.43145 0
M  V30 690 H 64.7034 -0.386842 5.98551 0
M  V30 691 H 66.3824 -0.0423134 6.46986 0
M  V30 692 N 66.5145 -1.57545 0.0417849 0
M  V30 693 C 67.7395 -1.97035 -0.647455 0
M  V30 694 C 68.1645 -0.918775 -1.64135 0
M  V30 695 O 67.5225 0.119006 -1.80909 0
M  V30 696 C 67.5705 -3.35609 -1.31905 0
M  V30 697 O 66.6745 -3.3287 -2.43457 0
M  V30 698 H 66.0155 -0.64211 -0.169086 0
M  V30 699 H 68.5455 -2.04318 0.107399 0
M  V30 700 H 68.5555 -3.72126 -1.67291 0
M  V30 701 H 67.2305 -4.11685 -0.590586 0
M  V30 702 H 65.8075 -3.08087 -2.10088 0
M  V30 703 N 67.9926 0.231505 -1.5589 0
M  V30 704 C 69.2386 0.95877 -1.78705 0
M  V30 705 C 69.5716 1.8438 -0.609725 0
M  V30 706 O 68.8466 1.90521 0.391426 0
M  V30 707 C 69.1296 1.8062 -3.11526 0
M  V30 708 C 68.9826 0.948328 -4.39689 0
M  V30 709 C 70.3016 2.78585 -3.40703 0
M  V30 710 H 67.4206 0.347129 -0.650131 0
M  V30 711 H 70.0626 0.228259 -1.88624 0
M  V30 712 H 68.2126 2.42902 -3.03201 0
M  V30 713 H 69.8846 0.343016 -4.60023 0
M  V30 714 H 68.1276 0.253314 -4.3306 0
M  V30 715 H 68.7986 1.57543 -5.29041 0
M  V30 716 H 71.2746 2.26439 -3.49091 0
M  V30 717 H 70.1506 3.34988 -4.34826 0
M  V30 718 H 70.4116 3.55825 -2.62375 0
M  V30 719 N 69.4707 1.49531 0.497807 0
M  V30 720 C 70.7107 1.60799 1.26187 0
M  V30 721 C 71.0747 0.289627 1.89803 0
M  V30 722 O 72.2757 0.277512 2.67364 0
M  V30 723 C 70.5467 2.73729 2.29798 0
M  V30 724 S 72.1057 3.04968 3.155 0
M  V30 725 H 68.9237 0.567145 0.428798 0
M  V30 726 H 71.5257 1.87204 0.563477 0
M  V30 727 H 70.2297 3.68036 1.81597 0
M  V30 728 H 69.7607 2.49328 3.04301 0
M  V30 729 H 71.7757 2.46735 4.30507 0
M  V30 730 N 70.9488 -0.749086 1.3866 0
M  V30 731 C 72.1958 -1.50833 1.35114 0
M  V30 732 C 72.5238 -1.94415 -0.0574049 0
M  V30 733 O 71.7788 -1.66065 -1.03541 0
M  V30 734 C 72.0778 -2.7712 2.25697 0
M  V30 735 C 71.7438 -2.52477 3.73585 0
M  V30 736 C 70.4058 -2.45466 4.13884 0
M  V30 737 C 72.7578 -2.31066 4.67181 0
M  V30 738 C 70.0858 -2.15064 5.45861 0
M  V30 739 C 72.4378 -2.02183 5.9942 0
M  V30 740 C 71.1018 -1.93631 6.38798 0
M  V30 741 H 70.3718 -0.551936 0.494416 0
M  V30 742 H 73.0188 -0.860979 1.71054 0
M  V30 743 H 71.3238 -3.46528 1.82827 0
M  V30 744 H 73.0208 -3.35096 2.20254 0
M  V30 745 H 69.6108 -2.58807 3.41638 0
M  V30 746 H 73.7948 -2.35459 4.3689 0
M  V30 747 H 69.0508 -2.06954 5.75308 0
M  V30 748 H 73.2248 -1.8462 6.71482 0
M  V30 749 H 70.8518 -1.69839 7.40985 0
M  V30 750 N 72.4269 -1.23603 -0.977757 0
M  V30 751 C 73.6549 -1.09646 -1.75458 0
M  V30 752 C 74.0699 0.351859 -1.85492 0
M  V30 753 O 73.4269 1.24327 -1.336 0
M  V30 754 C 73.4779 -1.71895 -3.18016 0
M  V30 755 O 73.1989 -3.11063 -3.08498 0
M  V30 756 C 74.6999 -1.63415 -4.12081 0
M  V30 757 H 71.9199 -0.38359 -0.550545 0
M  V30 758 H 74.4639 -1.63507 -1.22824 0
M  V30 759 H 72.6189 -1.22061 -3.67668 0
M  V30 760 H 73.0329 -3.41305 -3.9826 0
M  V30 761 H 74.5069 -2.11669 -5.09804 0
M  V30 762 H 74.9839 -0.593462 -4.35172 0
M  V30 763 H 75.5899 -2.12628 -3.68334 0
M  V30 764 N 73.905 1.17692 -1.04816 0
M  V30 765 C 75.151 1.88137 -0.75711 0
M  V30 766 C 75.484 1.80604 0.713841 0
M  V30 767 O 74.759 1.21146 1.52164 0
M  V30 768 C 75.042 3.38318 -1.2334 0
M  V30 769 C 74.895 3.54622 -2.76701 0
M  V30 770 C 76.214 4.32214 -0.829415 0
M  V30 771 H 73.333 0.683163 -0.27651 0
M  V30 772 H 75.975 1.38424 -1.30149 0
M  V30 773 H 74.125 3.80787 -0.770286 0
M  V30 774 H 75.797 3.21194 -3.31107 0
M  V30 775 H 74.04 2.97026 -3.16161 0
M  V30 776 H 74.711 4.60028 -3.05088 0
M  V30 777 H 77.187 3.97565 -1.22805 0
M  V30 778 H 76.063 5.35838 -1.19033 0
M  V30 779 H 76.324 4.41294 0.266891 0
M  V30 780 N 75.3831 0.828654 1.34056 0
M  V30 781 C 76.6131 0.431993 2.02033 0
M  V30 782 C 77.0211 -0.96844 1.62536 0
M  V30 783 O 76.3641 -1.6391 0.829408 0
M  V30 784 C 76.4261 0.461224 3.56529 0
M  V30 785 C 76.0901 1.81599 4.1937 0
M  V30 786 C 77.0871 2.7777 4.39477 0
M  V30 787 C 74.7721 2.10604 4.56017 0
M  V30 788 C 76.7661 4.01115 4.95364 0
M  V30 789 C 74.4531 3.34207 5.11614 0
M  V30 790 C 75.4511 4.2928 5.31232 0
M  V30 791 O 75.1391 5.50699 5.8565 0
M  V30 792 H 74.8711 0.170943 0.654029 0
M  V30 793 H 77.4251 1.11988 1.72185 0
M  V30 794 H 75.6551 -0.283388 3.8566 0
M  V30 795 H 77.3441 0.0838149 4.05813 0
M  V30 796 H 78.1101 2.56659 4.11523 0
M  V30 797 H 73.9891 1.37402 4.40047 0
M  V30 798 H 77.5331 4.75333 5.10592 0
M  V30 799 H 73.4301 3.55179 5.38997 0
M  V30 800 H 74.1981 5.52298 6.04077 0
M  V30 801 N 76.8612 -1.46375 0.584142 0
M  V30 802 C 77.7942 -2.27351 -0.196676 0
M  V30 803 C 78.7722 -1.35715 -0.895561 0
M  V30 804 O 79.9562 -1.65126 -0.90916 0
M  V30 805 C 77.0832 -3.13486 -1.28235 0
M  V30 806 C 76.1292 -4.20896 -0.689145 0
M  V30 807 S 76.9622 -5.33299 0.48507 0
M  V30 808 C 78.1182 -6.23 -0.601767 0
M  V30 809 H 78.3512 -2.93228 0.490395 0
M  V30 810 H 75.8842 -1.49875 0.371071 0
M  V30 811 H 77.8422 -3.63676 -1.90395 0
M  V30 812 H 76.5032 -2.4692 -1.94138 0
M  V30 813 H 75.6962 -4.80997 -1.50527 0
M  V30 814 H 75.2982 -3.73726 -0.143181 0
M  V30 815 H 77.5902 -6.60979 -1.48705 0
M  V30 816 H 78.5332 -7.0809 -0.0374799 0
M  V30 817 H 78.9412 -5.57173 -0.906557 0
M  V30 818 N 78.3393 -0.321999 -1.54275 0
M  V30 819 C 79.7553 0.0306999 -1.5957 0
M  V30 820 C 79.9553 1.50614 -1.33857 0
M  V30 821 O 79.0113 2.2619 -1.12223 0
M  V30 822 C 80.3243 -0.386122 -2.98211 0
M  V30 823 C 81.8723 -0.336647 -3.11184 0
M  V30 824 C 82.3473 -0.728607 -4.52167 0
M  V30 825 N 83.8383 -0.681952 -4.58152 0
M  V30 826 C 84.5733 -0.957449 -5.6535 0
M  V30 827 N 84.0693 -1.3 -6.80494 0
M  V30 828 N 85.8623 -0.883113 -5.55119 0
M  V30 829 H 78.0133 -1.28332 -1.69247 0
M  V30 830 H 80.2763 -0.521716 -0.791528 0
M  V30 831 H 79.9823 -1.41404 -3.22022 0
M  V30 832 H 79.8563 0.249662 -3.76373 0
M  V30 833 H 82.2433 0.682058 -2.8711 0
M  V30 834 H 82.3243 -1.00734 -2.3513 0
M  V30 835 H 81.9683 -1.74522 -4.76974 0
M  V30 836 H 81.8983 -0.0356152 -5.26588 0
M  V30 837 H 84.3893 -0.428985 -3.75457 0
M  V30 838 H 84.7023 -1.49563 -7.58189 0
M  V30 839 H 83.0473 -1.33824 -6.81994 0
M  V30 840 H 86.2383 -0.615001 -4.64042 0
M  V30 841 H 86.4113 -1.10118 -6.38575 0
M  V30 842 N 79.8174 1.5752 -0.0501392 0
M  V30 843 C 80.7504 2.07026 0.959962 0
M  V30 844 C 81.7284 0.970539 1.30458 0
M  V30 845 O 82.9124 1.2424 1.41763 0
M  V30 846 C 80.0394 2.5099 2.27424 0
M  V30 847 C 79.0854 3.72188 2.08275 0
M  V30 848 S 79.9184 5.17888 1.36207 0
M  V30 849 C 81.0744 5.65165 2.6896 0
M  V30 850 H 81.3074 2.9238 0.538631 0
M  V30 851 H 78.8404 1.53547 0.162099 0
M  V30 852 H 80.7984 2.76982 3.02971 0
M  V30 853 H 79.4594 1.65944 2.66686 0
M  V30 854 H 78.6524 4.00866 3.05487 0
M  V30 855 H 78.2544 3.46457 1.40868 0
M  V30 856 H 80.5464 5.70687 3.65133 0
M  V30 857 H 81.4894 6.64394 2.4492 0
M  V30 858 H 81.8974 4.9289 2.75172 0
M  V30 859 N 81.2955 -0.223234 1.56011 0
M  V30 860 C 82.2055 -1.29766 1.95443 0
M  V30 861 C 83.2215 -1.51373 0.858028 0
M  V30 862 O 84.3975 -1.64536 1.16146 0
M  V30 863 C 81.4625 -2.62772 2.26167 0
M  V30 864 C 80.5235 -2.49482 3.49367 0
M  V30 865 C 79.7565 -3.76145 3.78616 0
M  V30 866 O 79.9795 -4.79087 3.09568 0
M  V30 867 O 78.9135 -3.73358 4.72109 0
M  V30 868 H 82.7395 -0.99309 2.87004 0
M  V30 869 H 80.3245 -0.425958 1.43199 0
M  V30 870 H 82.2065 -3.41327 2.47131 0
M  V30 871 H 80.8815 -2.92913 1.37781 0
M  V30 872 H 79.7885 -1.69133 3.33684 0
M  V30 873 H 81.1215 -2.2428 4.38131 0
M  V30 874 N 82.7736 -1.49793 -0.48987 0
M  V30 875 C 83.7036 -1.70201 -1.59856 0
M  V30 876 C 84.6846 -0.55076 -1.60937 0
M  V30 877 O 85.8696 -0.787841 -1.77501 0
M  V30 878 C 82.9996 -1.77882 -2.98287 0
M  V30 879 C 81.9536 -2.92907 -3.12073 0
M  V30 880 C 81.2796 -2.85712 -4.51965 0
M  V30 881 C 82.5796 -4.3369 -2.91051 0
M  V30 882 H 84.2736 -2.63025 -1.43032 0
M  V30 883 H 81.8196 -1.26574 -0.686664 0
M  V30 884 H 83.7726 -1.90744 -3.75759 0
M  V30 885 H 82.4966 -0.816653 -3.16225 0
M  V30 886 H 81.1556 -2.79665 -2.37029 0
M  V30 887 H 80.8036 -1.8738 -4.66795 0
M  V30 888 H 80.5036 -3.62921 -4.62128 0
M  V30 889 H 82.0276 -3.00598 -5.31482 0
M  V30 890 H 83.4416 -4.47555 -3.58284 0
M  V30 891 H 81.8386 -5.12205 -3.12675 0
M  V30 892 H 82.9086 -4.47362 -1.87071 0
M  V30 893 N 84.2517 0.741722 -1.39055 0
M  V30 894 C 85.1837 1.8657 -1.33133 0
M  V30 895 C 86.1967 1.61001 -0.241329 0
M  V30 896 O 87.3857 1.7136 -0.499784 0
M  V30 897 C 84.4857 3.22457 -1.04283 0
M  V30 898 C 83.6587 3.75435 -2.24427 0
M  V30 899 C 82.7177 4.89867 -1.92138 0
M  V30 900 O 81.7437 5.03879 -2.64754 0
M  V30 901 N 82.9457 5.73738 -0.88347 0
M  V30 902 H 85.7107 1.92156 -2.29991 0
M  V30 903 H 83.2717 0.922172 -1.3307 0
M  V30 904 H 85.2637 3.9657 -0.807128 0
M  V30 905 H 83.8337 3.12181 -0.161807 0
M  V30 906 H 83.0537 2.92751 -2.6399 0
M  V30 907 H 84.3417 4.07563 -3.04581 0
M  V30 908 H 83.7397 5.64999 -0.281517 0
M  V30 909 H 82.2967 6.47947 -0.707662 0
M  V30 910 N 85.7298 1.2412 0.971189 0
M  V30 911 C 86.6798 0.997551 2.05019 0
M  V30 912 C 87.6638 -0.0597747 1.60789 0
M  V30 913 O 88.8558 0.153516 1.76333 0
M  V30 914 C 85.9848 0.600557 3.38006 0
M  V30 915 C 85.0708 1.69377 3.88809 0
M  V30 916 N 85.4618 2.92586 4.12586 0
M  V30 917 C 83.7598 1.57048 4.17435 0
M  V30 918 C 84.4608 3.63431 4.54195 0
M  V30 919 N 83.4368 2.90979 4.59165 0
M  V30 920 H 87.2388 1.93316 2.21374 0
M  V30 921 H 84.7528 1.14194 1.1547 0
M  V30 922 H 86.7498 0.40725 4.14906 0
M  V30 923 H 85.4098 -0.327903 3.2304 0
M  V30 924 H 86.4208 3.288 4.00139 0
M  V30 925 H 83.0978 0.709798 4.11422 0
M  V30 926 H 84.4878 4.69102 4.81033 0
M  V30 927 N 87.2079 -1.17134 1.05439 0
M  V30 928 C 88.6189 -1.69084 0.791676 0
M  V30 929 C 88.9699 -1.83822 -0.685839 0
M  V30 930 O 88.0949 -1.52757 -1.53278 0
M  V30 931 C 88.6899 -3.07119 1.4305 0
M  V30 932 C 87.2489 -3.56225 1.21577 0
M  V30 933 C 86.3959 -2.32421 1.51247 0
M  V30 934 H 89.3469 -1.01617 1.219 0
M  V30 935 H 89.3679 -3.71087 0.84112 0
M  V30 936 H 88.8799 -2.9636 2.50584 0
M  V30 937 H 86.9809 -3.72257 0.159787 0
M  V30 938 H 87.0939 -4.38837 1.92246 0
M  V30 939 H 85.4579 -2.3701 0.932653 0
M  V30 940 H 86.2409 -2.24268 2.5992 0
M  V30 941 N 88.686 -0.835752 -1.33615 0
M  V30 942 C 89.934 -0.429109 -1.97492 0
M  V30 943 C 90.255 1.01433 -1.66543 0
M  V30 944 O 89.525 1.70611 -0.962744 0
M  V30 945 H 88.105 -0.155686 -0.730596 0
M  V30 946 H 90.767 -1.06802 -1.63031 0
M  V30 947 H 89.863 -0.55861 -3.0706 0
M  V30 948 N 90.1641 1.46063 -0.591896 0
M  V30 949 C 91.4101 2.02638 -0.0811191 0
M  V30 950 C 91.7431 1.4613 1.27905 0
M  V30 951 O 91.0181 0.629908 1.84017 0
M  V30 952 C 91.3011 3.60091 -0.0252436 0
M  V30 953 C 91.1541 4.26965 -1.41496 0
M  V30 954 C 92.4731 4.3496 0.670685 0
M  V30 955 H 89.5921 0.73635 -0.0309524 0
M  V30 956 H 92.2341 1.741 -0.760859 0
M  V30 957 H 90.3841 3.84535 0.553624 0
M  V30 958 H 92.0561 4.13756 -2.0397 0
M  V30 959 H 90.2991 3.85971 -1.98011 0
M  V30 960 H 90.9701 5.35781 -1.32825 0
M  V30 961 H 93.4461 4.15716 0.178825 0
M  V30 962 H 92.3221 5.44686 0.678837 0
M  V30 963 H 92.5831 4.06685 1.73379 0
M  V30 964 N 91.6422 0.330177 1.54103 0
M  V30 965 C 92.5742 -0.566902 2.22079 0
M  V30 966 C 93.5872 -1.07462 1.22294 0
M  V30 967 O 94.7762 -0.987065 1.48726 0
M  V30 968 C 91.8762 -1.79138 2.87685 0
M  V30 969 C 91.0492 -1.42123 4.13666 0
M  V30 970 C 90.1082 -2.50394 4.62806 0
M  V30 971 O 89.1342 -2.14261 5.27334 0
M  V30 972 N 90.3362 -3.81433 4.37595 0
M  V30 973 H 93.1012 0.0151844 2.99696 0
M  V30 974 H 90.6622 0.153681 1.61169 0
M  V30 975 H 92.6542 -2.50975 3.1748 0
M  V30 976 H 91.2242 -2.28115 2.13734 0
M  V30 977 H 90.4442 -0.534201 3.90564 0
M  V30 978 H 91.7322 -1.14971 4.9564 0
M  V30 979 H 91.1302 -4.13584 3.8596 0
M  V30 980 H 89.6872 -4.4948 4.72029 0
M  V30 981 N 93.1203 -1.57491 0.0584922 0
M  V30 982 C 94.3503 -1.9701 -0.622134 0
M  V30 983 C 94.7583 -0.935034 -1.6448 0
M  V30 984 O 94.1013 0.0882904 -1.83488 0
M  V30 985 C 94.1633 -3.32794 -1.35972 0
M  V30 986 C 93.8273 -4.54343 -0.492043 0
M  V30 987 C 94.8243 -5.19323 0.244901 0
M  V30 988 C 92.5093 -5.00534 -0.420821 0
M  V30 989 C 94.5033 -6.28835 1.04143 0
M  V30 990 C 92.1903 -6.09921 0.379389 0
M  V30 991 C 93.1883 -6.73933 1.10919 0
M  V30 992 O 92.8763 -7.81216 1.89623 0
M  V30 993 H 92.6083 -0.653127 -0.174359 0
M  V30 994 H 95.1623 -2.05029 0.123418 0
M  V30 995 H 93.3923 -3.21351 -2.15105 0
M  V30 996 H 95.0813 -3.5701 -1.93129 0
M  V30 997 H 95.8473 -4.8459 0.19939 0
M  V30 998 H 91.7263 -4.50496 -0.978474 0
M  V30 999 H 95.2703 -6.7873 1.61157 0
M  V30 1000 H 91.1673 -6.44089 0.426512 0
M  V30 1001 H 91.9353 -7.98029 1.81913 0
M  V30 1002 N 94.5984 0.214957 -1.56127 0
M  V30 1003 C 95.5314 1.29382 -1.87977 0
M  V30 1004 C 96.5094 1.44897 -0.737807 0
M  V30 1005 O 97.6934 1.60605 -0.986833 0
M  V30 1006 C 94.8204 2.66325 -2.09258 0
M  V30 1007 C 93.8664 2.67789 -3.31951 0
M  V30 1008 S 94.6994 2.21198 -4.8768 0
M  V30 1009 C 95.8554 3.60003 -5.12004 0
M  V30 1010 H 96.0884 1.02173 -2.79192 0
M  V30 1011 H 93.6214 0.417516 -1.48648 0
M  V30 1012 H 95.5794 3.45162 -2.22201 0
M  V30 1013 H 94.2404 2.90755 -1.18829 0
M  V30 1014 H 93.4334 3.68436 -3.43906 0
M  V30 1015 H 93.0354 1.9702 -3.17898 0
M  V30 1016 H 95.3274 4.55739 -5.01307 0
M  V30 1017 H 96.2704 3.52959 -6.13861 0
M  V30 1018 H 96.6784 3.53996 -4.39712 0
M  V30 1019 N 96.0765 1.50051 0.48192 0
M  V30 1020 C 97.3165 1.62128 1.24474 0
M  V30 1021 C 97.6805 0.309742 1.89485 0
M  V30 1022 O 98.8815 0.305854 2.67054 0
M  V30 1023 C 97.1525 2.76151 2.26882 0
M  V30 1024 S 98.7115 3.08297 3.12247 0
M  V30 1025 H 95.5295 0.571661 0.422759 0
M  V30 1026 H 98.1315 1.87791 0.54359 0
M  V30 1027 H 96.8355 3.69942 1.77683 0
M  V30 1028 H 96.3665 2.52541 3.0164 0
M  V30 1029 H 98.3815 2.51287 4.27866 0
M  V30 1030 N 97.5546 -0.734337 1.39446 0
M  V30 1031 C 98.4846 -1.86155 1.40955 0
M  V30 1032 C 99.4656 -1.67898 0.272827 0
M  V30 1033 O 100.651 -1.88207 0.478743 0
M  V30 1034 C 97.7806 -3.23912 1.25294 0
M  V30 1035 C 96.7346 -3.56808 2.36373 0
M  V30 1036 C 96.0606 -4.93508 2.058 0
M  V30 1037 C 97.3606 -3.59713 3.78687 0
M  V30 1038 H 99.0546 -1.8515 2.35287 0
M  V30 1039 H 96.6006 -0.889367 1.13253 0
M  V30 1040 H 98.5536 -4.02443 1.2497 0
M  V30 1041 H 97.2776 -3.25446 0.274308 0
M  V30 1042 H 95.9366 -2.80606 2.35914 0
M  V30 1043 H 95.5846 -4.91623 1.06374 0
M  V30 1044 H 95.2846 -5.16486 2.80208 0
M  V30 1045 H 96.8086 -5.74396 2.07128 0
M  V30 1046 H 98.2226 -4.2832 3.81071 0
M  V30 1047 H 96.6196 -3.94209 4.52459 0
M  V30 1048 H 97.6896 -2.59504 4.09617 0
M  V30 1049 N 99.0327 -1.24633 -0.964593 0
M  V30 1050 C 99.9427 -1.05859 -2.09359 0
M  V30 1051 C 100.959 0.00148855 -1.74 0
M  V30 1052 O 102.135 -0.197346 -2.00431 0
M  V30 1053 C 99.1997 -0.668879 -3.40187 0
M  V30 1054 C 98.2607 -1.80578 -3.89474 0
M  V30 1055 C 97.4937 -1.43457 -5.14058 0
M  V30 1056 O 97.7167 -0.325775 -5.69469 0
M  V30 1057 O 96.6507 -2.2613 -5.57807 0
M  V30 1058 H 100.477 -2.00516 -2.28094 0
M  V30 1059 H 98.0617 -1.03481 -1.0776 0
M  V30 1060 H 99.9437 -0.463211 -4.18846 0
M  V30 1061 H 98.6187 0.248536 -3.22744 0
M  V30 1062 H 97.5257 -2.06623 -3.11862 0
M  V30 1063 H 98.8587 -2.70208 -4.11398 0
M  V30 1064 N 100.511 1.16574 -1.06058 0
M  V30 1065 C 101.759 1.86677 -0.77434 0
M  V30 1066 C 102.08 1.81959 0.701147 0
M  V30 1067 O 101.35 1.2515 1.50713 0
M  V30 1068 H 99.9298 0.691134 -0.283449 0
M  V30 1069 H 102.592 1.41378 -1.34158 0
M  V30 1070 H 101.688 2.92181 -1.09711 0
M  V30 1071 N 101.989 0.842826 1.3317 0
M  V30 1072 C 102.952 0.284065 2.27433 0
M  V30 1073 C 103.952 -0.54948 1.5112 0
M  V30 1074 O 105.142 -0.362699 1.70382 0
M  V30 1075 C 102.274 -0.599384 3.35589 0
M  V30 1076 H 103.467 1.11589 2.78366 0
M  V30 1077 H 101.02 0.616221 1.4364 0
M  V30 1078 H 101.755 -1.45349 2.89904 0
M  V30 1079 H 101.54 -0.00291266 3.921 0
M  V30 1080 H 103.03 -0.983488 4.05854 0
M  V30 1081 N 103.467 -1.45747 0.599634 0
M  V30 1082 C 104.883 -1.57424 0.26264 0
M  V30 1083 C 105.083 -1.59222 -1.23493 0
M  V30 1084 O 104.139 -1.51825 -2.01756 0
M  V30 1085 C 105.452 -2.86061 0.926795 0
M  V30 1086 C 107 -2.99722 0.901967 0
M  V30 1087 C 107.475 -4.31119 1.54598 0
M  V30 1088 N 108.966 -4.37858 1.5111 0
M  V30 1089 C 109.701 -5.3818 1.97863 0
M  V30 1090 N 109.197 -6.45083 2.52666 0
M  V30 1091 N 110.99 -5.29487 1.88679 0
M  V30 1092 H 103.141 -1.42823 1.57211 0
M  V30 1093 H 105.404 -0.68235 0.658105 0
M  V30 1094 H 105.11 -2.90605 1.98095 0
M  V30 1095 H 104.984 -3.74563 0.445238 0
M  V30 1096 H 107.371 -2.9475 -0.143617 0
M  V30 1097 H 107.452 -2.12652 1.42171 0
M  V30 1098 H 107.096 -4.36849 2.59085 0
M  V30 1099 H 107.026 -5.16992 1.00132 0
M  V30 1100 H 109.517 -3.61209 1.11068 0
M  V30 1101 H 109.83 -7.17869 2.86155 0
M  V30 1102 H 108.175 -6.45856 2.56701 0
M  V30 1103 H 111.366 -4.44877 1.4561 0
M  V30 1104 H 111.539 -6.07524 2.25429 0
M  V30 1105 N 104.945 -0.338344 -1.53925 0
M  V30 1106 C 105.875 0.51328 -2.27789 0
M  V30 1107 C 106.856 1.107 -1.29149 0
M  V30 1108 O 108.041 1.12937 -1.57984 0
M  V30 1109 C 105.171 1.66697 -3.04679 0
M  V30 1110 C 104.125 1.20183 -4.1078 0
M  V30 1111 C 103.451 2.44363 -4.75595 0
M  V30 1112 C 104.751 0.30605 -5.21403 0
M  V30 1113 H 106.445 -0.102883 -2.99223 0
M  V30 1114 H 103.991 -0.0509219 -1.4391 0
M  V30 1115 H 105.944 2.26915 -3.55088 0
M  V30 1116 H 104.668 2.30995 -2.30887 0
M  V30 1117 H 103.327 0.622499 -3.61276 0
M  V30 1118 H 102.975 3.07057 -3.98403 0
M  V30 1119 H 102.675 2.13925 -5.47275 0
M  V30 1120 H 104.199 3.05317 -5.28786 0
M  V30 1121 H 105.613 0.814929 -5.67478 0
M  V30 1122 H 104.01 0.0937929 -6.00027 0
M  V30 1123 H 105.08 -0.65921 -4.80398 0
M  V30 1124 N 106.423 1.57458 -0.0668435 0
M  V30 1125 C 107.672 1.92477 0.602947 0
M  V30 1126 C 107.985 0.948419 1.71068 0
M  V30 1127 O 109.191 1.19124 2.43971 0
M  V30 1128 C 107.647 3.41903 1.12383 0
M  V30 1129 C 107.255 4.47975 0.04737 0
M  V30 1130 C 108.999 3.85931 1.76797 0
M  V30 1131 C 106.906 5.88529 0.582022 0
M  V30 1132 H 105.836 0.718387 0.22899 0
M  V30 1133 H 108.487 1.82978 -0.138276 0
M  V30 1134 H 106.869 3.46459 1.91787 0
M  V30 1135 H 108.043 4.55029 -0.726978 0
M  V30 1136 H 106.358 4.13384 -0.500243 0
M  V30 1137 H 108.955 4.88322 2.17821 0
M  V30 1138 H 109.298 3.23029 2.62599 0
M  V30 1139 H 109.831 3.83958 1.04024 0
M  V30 1140 H 106.57 6.55065 -0.238721 0
M  V30 1141 H 106.09 5.85004 1.324 0
M  V30 1142 H 107.769 6.38258 1.05999 0
M  V30 1143 N 107.901 -0.206675 1.56239 0
M  V30 1144 C 108.864 -1.23976 1.92776 0
M  V30 1145 C 109.864 -1.39041 0.807729 0
M  V30 1146 O 111.054 -1.37051 1.0753 0
M  V30 1147 C 108.186 -2.61112 2.19165 0
M  V30 1148 H 109.379 -0.927764 2.85189 0
M  V30 1149 H 106.932 -0.447718 1.4975 0
M  V30 1150 H 107.667 -2.97386 1.29352 0
M  V30 1151 H 107.452 -2.51552 3.00772 0
M  V30 1152 H 108.942 -3.35633 2.48476 0
M  V30 1153 N 109.379 -1.50304 -0.473955 0
M  V30 1154 C 110.656 -1.51667 -1.23518 0
M  V30 1155 C 111.036 -0.259701 -2.09496 0
M  V30 1156 O 110.384 0.756986 -2.15597 0
M  V30 1157 C 110.594 -2.81082 -2.06868 0
M  V30 1158 C 111.942 -3.31631 -2.65153 0
M  V30 1159 O 112.966 -2.82384 -2.17113 0
M  V30 1160 O 111.825 -4.17471 -3.52675 0
M  V30 1161 H 108.919 -0.60822 -0.560355 0
M  V30 1162 H 111.465 -1.62592 -0.486011 0
M  V30 1163 H 110.237 -3.64041 -1.4349 0
M  V30 1164 H 109.86 -2.73146 -2.88924 0
M  V30 1165 N 110.857 0.726932 -1.39834 0
M  V30 1166 C 111.82 1.82269 -1.38962 0
M  V30 1167 C 112.82 1.58248 -0.285334 0
M  V30 1168 O 114.01 1.65499 -0.54366 0
M  V30 1169 C 111.142 3.20186 -1.17019 0
M  V30 1170 H 112.335 1.84443 -2.36476 0
M  V30 1171 H 109.888 0.931416 -1.25516 0
M  V30 1172 H 110.623 3.23669 -0.202204 0
M  V30 1173 H 110.408 3.3902 -1.96998 0
M  V30 1174 H 111.898 4.00235 -1.1917 0
M  V30 1175 N 112.336 1.25143 0.95797 0
M  V30 1176 C 113.561 1.12521 1.74223 0
M  V30 1177 C 113.986 -0.317402 1.85403 0
M  V30 1178 O 113.344 -1.2299 1.33204 0
M  V30 1179 C 113.392 1.78062 3.1357 0
M  V30 1180 O 112.496 1.058 3.98598 0
M  V30 1181 H 111.837 0.39304 0.535178 0
M  V30 1182 H 114.367 1.65641 1.201 0
M  V30 1183 H 114.377 1.84213 3.64046 0
M  V30 1184 H 113.052 2.83021 3.04749 0
M  V30 1185 H 111.629 1.07506 3.57067 0
M  V30 1186 N 113.814 -1.1601 1.06675 0
M  V30 1187 C 114.777 -2.18724 0.685001 0
M  V30 1188 C 115.777 -1.58496 -0.271246 0
M  V30 1189 O 116.967 -1.74119 -0.0531156 0
M  V30 1190 C 114.099 -3.40899 0.00853648 0
M  V30 1191 H 115.292 -2.54011 1.59431 0
M  V30 1192 H 112.845 -1.30352 0.862441 0
M  V30 1193 H 113.58 -3.11173 -0.913337 0
M  V30 1194 H 113.365 -3.8587 0.696204 0
M  V30 1195 H 114.855 -4.16886 -0.24414 0
M  V30 1196 N 115.292 -0.849877 -1.32721 0
M  V30 1197 C 116.202 -0.293791 -2.32753 0
M  V30 1198 C 117.218 0.585906 -1.63839 0
M  V30 1199 O 118.394 0.487413 -1.95413 0
M  V30 1200 C 115.459 0.512752 -3.42887 0
M  V30 1201 C 114.52 -0.39252 -4.27502 0
M  V30 1202 C 113.753 0.375625 -5.32377 0
M  V30 1203 O 113.976 1.60613 -5.4732 0
M  V30 1204 O 112.91 -0.256094 -6.01355 0
M  V30 1205 H 116.736 -1.12242 -2.82197 0
M  V30 1206 H 114.321 -0.612685 -1.36259 0
M  V30 1207 H 116.203 0.970704 -4.10067 0
M  V30 1208 H 114.878 1.31826 -2.95641 0
M  V30 1209 H 113.785 -0.898547 -3.63149 0
M  V30 1210 H 115.118 -1.16309 -4.7826 0
M  V30 1211 N 116.77 1.45427 -0.607355 0
M  V30 1212 C 118.01 2.04128 -0.105458 0
M  V30 1213 C 118.374 1.46555 1.24039 0
M  V30 1214 O 119.575 1.96608 1.833 0
M  V30 1215 C 117.846 3.57338 -0.0665324 0
M  V30 1216 S 119.405 4.37201 0.374207 0
M  V30 1217 H 116.223 0.709278 -0.0494575 0
M  V30 1218 H 118.825 1.78139 -0.805404 0
M  V30 1219 H 117.529 3.96752 -1.04957 0
M  V30 1220 H 117.06 3.87902 0.655415 0
M  V30 1221 H 119.075 4.6888 1.62377 0
M  V30 1222 N 118.248 0.346503 1.53744 0
M  V30 1223 C 119.476 -0.25041 2.05379 0
M  V30 1224 C 119.891 -1.43979 1.22129 0
M  V30 1225 O 119.248 -1.80677 0.257321 0
M  V30 1226 C 119.299 -0.662575 3.55376 0
M  V30 1227 O 119.02 0.479515 4.35468 0
M  V30 1228 C 120.521 -1.31989 4.23195 0
M  V30 1229 H 117.741 -0.0478198 0.669294 0
M  V30 1230 H 120.285 0.499346 1.9831 0
M  V30 1231 H 118.44 -1.36227 3.62658 0
M  V30 1232 H 118.854 0.15037 5.24284 0
M  V30 1233 H 120.328 -1.55902 5.29527 0
M  V30 1234 H 120.805 -2.27436 3.75725 0
M  V30 1235 H 121.411 -0.662154 4.20114 0
M  V30 1236 N 119.726 -1.57421 0.075193 0
M  V30 1237 C 121.137 -1.81021 -0.456964 0
M  V30 1238 C 121.488 -0.98936 -1.69429 0
M  V30 1239 O 120.613 -0.212865 -2.15351 0
M  V30 1240 C 121.208 -3.28329 -0.83581 0
M  V30 1241 C 119.767 -3.52764 -1.31281 0
M  V30 1242 C 118.914 -2.75676 -0.299648 0
M  V30 1243 H 121.865 -1.55822 0.300856 0
M  V30 1244 H 121.886 -3.40564 -1.69696 0
M  V30 1245 H 121.398 -3.88046 0.0649238 0
M  V30 1246 H 119.499 -2.98355 -2.23193 0
M  V30 1247 H 119.612 -4.61451 -1.28839 0
M  V30 1248 H 117.976 -2.42538 -0.777641 0
M  V30 1249 H 118.759 -3.38132 0.593417 0
M  V30 1250 N 121.204 0.198386 -1.56346 0
M  V30 1251 C 122.152 1.26538 -1.95169 0
M  V30 1252 C 123.146 1.47295 -0.836685 0
M  V30 1253 O 124.352 1.48195 -1.02167 0
M  V30 1254 H 120.727 0.424744 -0.620561 0
M  V30 1255 H 122.698 0.910904 -2.84157 0
M  V30 1256 C 121.447 2.6035 -2.30463 0
M  V30 1257 H 120.77 2.45192 -3.15786 0
M  V30 1258 H 122.21 3.33762 -2.61494 0
M  V30 1259 C 120.669 3.17096 -1.13806 0
M  V30 1260 O 121.199 3.99588 -0.41135 0
M  V30 1261 N 119.405 2.75795 -0.915736 0
M  V30 1262 H 118.952 2.08816 -1.50843 0
M  V30 1263 H 118.91 3.14101 -0.136979 0
M  V30 1264 N 122.682 1.50554 0.465978 0
M  V30 1265 C 123.93 1.61479 1.21528 0
M  V30 1266 C 124.251 0.319596 1.92363 0
M  V30 1267 O 123.521 -0.663194 1.84333 0
M  V30 1268 H 122.101 0.595055 0.451573 0
M  V30 1269 H 124.763 1.87355 0.53704 0
M  V30 1270 H 123.859 2.42846 1.96042 0
M  V30 1271 N 124.16 -0.719506 1.40217 0
M  V30 1272 C 125.11 -1.8251 1.36653 0
M  V30 1273 C 126.094 -1.59028 0.244732 0
M  V30 1274 O 127.286 -1.70268 0.483524 0
M  V30 1275 C 124.415 -3.20599 1.22763 0
M  V30 1276 C 123.501 -3.49858 2.39708 0
M  V30 1277 N 123.892 -3.49957 3.6519 0
M  V30 1278 C 122.19 -3.80297 2.33002 0
M  V30 1279 C 122.891 -3.77449 4.42614 0
M  V30 1280 N 121.867 -3.96002 3.72402 0
M  V30 1281 H 125.669 -1.80914 2.31619 0
M  V30 1282 H 123.183 -0.918455 1.33933 0
M  V30 1283 H 125.18 -3.99766 1.18292 0
M  V30 1284 H 123.84 -3.23424 0.287614 0
M  V30 1285 H 124.851 -3.309 3.98404 0
M  V30 1286 H 121.528 -3.90635 1.47346 0
M  V30 1287 H 122.918 -3.83863 5.51451 0
M  V30 1288 N 125.638 -1.25649 -0.95132 0
M  V30 1289 C 126.568 -1.08808 -2.06599 0
M  V30 1290 C 127.549 0.00382547 -1.701 0
M  V30 1291 O 128.734 -0.166325 -1.93486 0
M  V30 1292 C 125.864 -0.709542 -3.39975 0
M  V30 1293 C 124.818 -1.75206 -3.90496 0
M  V30 1294 C 124.144 -1.22811 -5.20405 0
M  V30 1295 C 125.444 -3.15153 -4.16504 0
M  V30 1296 H 127.138 -2.02048 -2.20946 0
M  V30 1297 H 124.684 -0.972835 -1.06169 0
M  V30 1298 H 126.637 -0.578649 -4.17408 0
M  V30 1299 H 125.361 0.258556 -3.25575 0
M  V30 1300 H 124.02 -1.87145 -3.15234 0
M  V30 1301 H 123.668 -0.250145 -5.02378 0
M  V30 1302 H 123.368 -1.92492 -5.55176 0
M  V30 1303 H 124.892 -1.10968 -6.00432 0
M  V30 1304 H 126.306 -3.06349 -4.84586 0
M  V30 1305 H 124.703 -3.82333 -4.62538 0
M  V30 1306 H 125.773 -3.61966 -3.22658 0
M  V30 1307 N 127.117 1.15442 -1.07289 0
M  V30 1308 C 128.363 1.8672 -0.806679 0
M  V30 1309 C 128.718 1.80723 0.660084 0
M  V30 1310 O 128.011 1.21902 1.47819 0
M  V30 1311 C 128.205 3.3489 -1.24834 0
M  V30 1312 C 128.034 3.55313 -2.7565 0
M  V30 1313 C 126.804 3.7082 -3.4325 0
M  V30 1314 C 129.002 3.53188 -3.73848 0
M  V30 1315 N 126.984 3.7929 -4.82713 0
M  V30 1316 C 128.355 3.67765 -4.99149 0
M  V30 1317 C 130.41 3.36459 -3.67015 0
M  V30 1318 C 129.113 3.6734 -6.18428 0
M  V30 1319 C 131.139 3.37333 -4.85758 0
M  V30 1320 C 130.501 3.52438 -6.09891 0
M  V30 1321 H 126.6 0.700433 -0.347733 0
M  V30 1322 H 129.184 1.38441 -1.36902 0
M  V30 1323 H 127.355 3.81786 -0.713713 0
M  V30 1324 H 129.087 3.93875 -0.929745 0
M  V30 1325 H 125.842 3.71568 -2.93656 0
M  V30 1326 H 126.266 3.8727 -5.55294 0
M  V30 1327 H 130.908 3.237 -2.71989 0
M  V30 1328 H 128.626 3.78878 -7.13777 0
M  V30 1329 H 132.212 3.25617 -4.82146 0
M  V30 1330 H 131.092 3.53047 -7.00234 0
M  V30 1331 N 128.595 0.856903 1.32268 0
M  V30 1332 C 129.543 0.291987 2.3076 0
M  V30 1333 C 130.537 -0.585857 1.58947 0
M  V30 1334 O 131.743 -0.47341 1.73663 0
M  V30 1335 H 128.118 0.075721 0.748178 0
M  V30 1336 H 130.089 1.13687 2.75895 0
M  V30 1337 C 128.838 -0.502869 3.44044 0
M  V30 1338 H 128.161 0.163328 3.99466 0
M  V30 1339 H 129.601 -0.863691 4.1511 0
M  V30 1340 C 128.06 -1.68898 2.91505 0
M  V30 1341 O 128.59 -2.78811 2.89184 0
M  V30 1342 N 126.796 -1.51679 2.47875 0
M  V30 1343 H 126.343 -0.622666 2.49961 0
M  V30 1344 H 126.301 -2.31184 2.13076 0
M  V30 1345 N 130.073 -1.45103 0.615059 0
M  V30 1346 C 131.319 -2.02483 0.113347 0
M  V30 1347 C 131.652 -1.48146 -1.25564 0
M  V30 1348 O 130.927 -0.659104 -1.82992 0
M  V30 1349 C 131.21 -3.60005 0.0825278 0
M  V30 1350 C 131.063 -4.2466 1.48271 0
M  V30 1351 C 132.382 -4.35972 -0.601401 0
M  V30 1352 H 129.501 -0.735764 0.0426632 0
M  V30 1353 H 132.143 -1.72868 0.788461 0
M  V30 1354 H 130.293 -3.85367 -0.492378 0
M  V30 1355 H 131.965 -4.10458 2.10527 0
M  V30 1356 H 130.208 -3.82772 2.04127 0
M  V30 1357 H 130.879 -5.336 1.41332 0
M  V30 1358 H 133.355 -4.15947 -0.112666 0
M  V30 1359 H 132.231 -5.45697 -0.592097 0
M  V30 1360 H 132.492 -4.09391 -1.66887 0
M  V30 1361 N 131.551 -0.354651 -1.53558 0
M  V30 1362 C 132.484 0.540273 -2.21712 0
M  V30 1363 C 133.462 1.09161 -1.2051 0
M  V30 1364 O 134.646 1.14979 -1.49372 0
M  V30 1365 C 131.773 1.74435 -2.90328 0
M  V30 1366 C 130.819 1.32146 -4.05512 0
M  V30 1367 S 131.652 0.331924 -5.3447 0
M  V30 1368 C 132.808 1.54258 -6.06593 0
M  V30 1369 H 133.041 -0.0385776 -2.97275 0
M  V30 1370 H 130.574 -0.138736 -1.53775 0
M  V30 1371 H 132.532 2.43507 -3.30476 0
M  V30 1372 H 131.193 2.29444 -2.1451 0
M  V30 1373 H 130.386 2.21952 -4.52497 0
M  V30 1374 H 129.988 0.710091 -3.67197 0
M  V30 1375 H 132.28 2.47534 -6.30661 0
M  V30 1376 H 133.223 1.11431 -6.99277 0
M  V30 1377 H 133.631 1.74367 -5.36895 0
M  V30 1378 N 133.029 1.57378 -0.0835403 0
M  V30 1379 C 134.278 1.93106 0.582498 0
M  V30 1380 C 134.591 0.96651 1.70053 0
M  V30 1381 O 135.797 1.21705 2.42693 0
M  V30 1382 C 134.253 3.43076 1.08751 0
M  V30 1383 C 133.861 4.48 -0.000146404 0
M  V30 1384 C 135.605 3.87785 1.72694 0
M  V30 1385 C 133.512 5.89113 0.519568 0
M  V30 1386 H 132.442 0.720775 0.221358 0
M  V30 1387 H 135.093 1.82821 -0.157675 0
M  V30 1388 H 133.475 3.48474 1.88101 0
M  V30 1389 H 134.649 4.54233 -0.775199 0
M  V30 1390 H 132.964 4.1283 -0.54406 0
M  V30 1391 H 135.561 4.90604 2.1263 0
M  V30 1392 H 135.904 3.25796 2.59158 0
M  V30 1393 H 136.437 3.8504 0.999457 0
M  V30 1394 H 133.176 6.54775 -0.308186 0
M  V30 1395 H 132.696 5.86376 1.26188 0
M  V30 1396 H 134.375 6.39346 0.992237 0
M  V30 1397 N 134.507 -0.190092 1.56449 0
M  V30 1398 C 135.735 -0.925772 1.85033 0
M  V30 1399 C 136.15 -1.76638 0.666658 0
M  V30 1400 O 135.507 -1.78822 -0.364565 0
M  V30 1401 C 135.558 -1.81786 3.12468 0
M  V30 1402 O 135.279 -1.01118 4.26271 0
M  V30 1403 C 136.78 -2.6648 3.54265 0
M  V30 1404 H 134 -0.269872 0.614337 0
M  V30 1405 H 136.544 -0.195837 2.0356 0
M  V30 1406 H 134.699 -2.50136 2.95822 0
M  V30 1407 H 135.113 -1.61956 4.98869 0
M  V30 1408 H 136.587 -3.24722 4.46385 0
M  V30 1409 H 137.064 -3.40434 2.77491 0
M  V30 1410 H 137.67 -2.03493 3.73458 0
M  V30 1411 N 135.985 -1.50799 -0.457987 0
M  V30 1412 C 137.215 -1.65977 -1.23025 0
M  V30 1413 C 137.623 -0.347918 -1.85974 0
M  V30 1414 O 136.966 0.68148 -1.70592 0
M  V30 1415 C 137.028 -2.70309 -2.3701 0
M  V30 1416 C 136.692 -4.135 -1.94594 0
M  V30 1417 C 137.689 -4.98949 -1.46101 0
M  V30 1418 C 135.374 -4.5949 -2.02915 0
M  V30 1419 C 137.368 -6.28442 -1.06489 0
M  V30 1420 C 135.055 -5.88984 -1.62914 0
M  V30 1421 C 136.053 -6.73286 -1.1478 0
M  V30 1422 O 135.741 -8.00362 -0.75339 0
M  V30 1423 H 135.473 -0.56064 -0.377702 0
M  V30 1424 H 138.027 -1.97857 -0.551537 0
M  V30 1425 H 136.257 -2.337 -3.08093 0
M  V30 1426 H 137.946 -2.74574 -2.98938 0
M  V30 1427 H 138.712 -4.6463 -1.39084 0
M  V30 1428 H 134.591 -3.94009 -2.39328 0
M  V30 1429 H 138.135 -6.94194 -0.688488 0
M  V30 1430 H 134.032 -6.22822 -1.69595 0
M  V30 1431 H 134.8 -8.13744 -0.88108 0
M  V30 1432 N 137.463 0.71206 -1.40597 0
M  V30 1433 C 138.413 1.81783 -1.37619 0
M  V30 1434 C 139.397 1.58896 -0.253162 0
M  V30 1435 O 140.589 1.70009 -0.492547 0
M  V30 1436 C 137.718 3.19944 -1.24462 0
M  V30 1437 C 136.804 3.48582 -2.4156 0
M  V30 1438 N 137.195 3.48016 -3.67041 0
M  V30 1439 C 135.493 3.79056 -2.35016 0
M  V30 1440 C 136.194 3.75096 -4.44609 0
M  V30 1441 N 135.17 3.94022 -3.74497 0
M  V30 1442 H 138.972 1.79683 -2.32575 0
M  V30 1443 H 136.486 0.91134 -1.34419 0
M  V30 1444 H 138.483 3.99133 -1.20411 0
M  V30 1445 H 137.143 3.23267 -0.304762 0
M  V30 1446 H 138.154 3.28782 -4.00153 0
M  V30 1447 H 134.831 3.89848 -1.49415 0
M  V30 1448 H 136.221 3.80934 -5.53479 0
M  V30 1449 N 138.941 1.26152 0.944643 0
M  V30 1450 C 140.189 1.11271 1.6871 0
M  V30 1451 C 140.51 -0.345166 1.91921 0
M  V30 1452 O 139.78 -1.24387 1.51343 0
M  V30 1453 H 138.36 0.408783 0.625224 0
M  V30 1454 H 141.022 1.58427 1.1352 0
M  V30 1455 H 140.118 1.62879 2.66227 0
M  V30 1456 N 140.419 -1.14872 1.07899 0
M  V30 1457 C 141.665 -1.86064 0.806725 0
M  V30 1458 C 141.998 -1.82434 -0.665706 0
M  V30 1459 O 141.273 -1.25138 -1.48899 0
M  V30 1460 C 141.556 -3.34929 1.32267 0
M  V30 1461 C 141.409 -3.47161 2.86006 0
M  V30 1462 C 142.728 -4.29863 0.943717 0
M  V30 1463 H 139.847 -0.675591 0.294526 0
M  V30 1464 H 142.489 -1.34925 1.33773 0
M  V30 1465 H 140.639 -3.78611 0.870974 0
M  V30 1466 H 142.311 -3.12302 3.39507 0
M  V30 1467 H 140.554 -2.88539 3.23925 0
M  V30 1468 H 141.225 -4.51777 3.17177 0
M  V30 1469 H 143.701 -3.9417 1.33302 0
M  V30 1470 H 142.577 -5.32494 1.33198 0
M  V30 1471 H 142.838 -4.41846 -0.149796 0
M  V30 1472 N 141.898 -0.863906 -1.31812 0
M  V30 1473 C 142.828 -0.330843 -2.31144 0
M  V30 1474 C 143.809 0.575005 -1.60087 0
M  V30 1475 O 144.994 0.493304 -1.8783 0
M  V30 1476 C 142.124 0.47374 -3.44054 0
M  V30 1477 C 141.078 -0.338481 -4.26659 0
M  V30 1478 C 140.404 0.591412 -5.31419 0
M  V30 1479 C 141.704 -1.56926 -4.98168 0
M  V30 1480 H 143.398 -1.16086 -2.75979 0
M  V30 1481 H 140.944 -0.559657 -1.32679 0
M  V30 1482 H 142.897 0.857143 -4.12591 0
M  V30 1483 H 141.621 1.33721 -2.9797 0
M  V30 1484 H 140.28 -0.703754 -3.59782 0
M  V30 1485 H 139.928 1.45199 -4.81587 0
M  V30 1486 H 139.628 0.0519022 -5.87577 0
M  V30 1487 H 141.152 0.97179 -6.02817 0
M  V30 1488 H 142.566 -1.25764 -5.59336 0
M  V30 1489 H 140.963 -2.04739 -5.64094 0
M  V30 1490 H 142.033 -2.32544 -4.25501 0
M  V30 1491 N 143.376 1.44774 -0.622745 0
M  V30 1492 C 144.309 2.27792 0.136329 0
M  V30 1493 C 145.287 1.38041 0.859264 0
M  V30 1494 O 146.471 1.67478 0.86506 0
M  V30 1495 C 143.598 3.16776 1.19878 0
M  V30 1496 C 142.644 4.22575 0.57731 0
M  V30 1497 S 143.477 5.31825 -0.626294 0
M  V30 1498 C 144.633 6.24377 0.436378 0
M  V30 1499 H 144.866 2.91824 -0.567967 0
M  V30 1500 H 142.399 1.48838 -0.410677 0
M  V30 1501 H 144.357 3.68596 1.80686 0
M  V30 1502 H 143.018 2.5198 1.87523 0
M  V30 1503 H 142.211 4.84818 1.37721 0
M  V30 1504 H 141.813 3.73974 0.0440439 0
M  V30 1505 H 144.105 6.64689 1.31128 0
M  V30 1506 H 145.048 7.07941 -0.150271 0
M  V30 1507 H 145.456 5.59381 0.758513 0
M  V30 1508 N 144.854 0.36279 1.53368 0
M  V30 1509 C 145.787 -0.528507 2.21996 0
M  V30 1510 C 146.765 -1.0852 1.21087 0
M  V30 1511 O 147.949 -1.14186 1.4998 0
M  V30 1512 C 145.076 -1.72893 2.91249 0
M  V30 1513 C 144.122 -1.29994 4.06207 0
M  V30 1514 S 144.955 -0.303575 5.34639 0
M  V30 1515 C 146.111 -1.51039 6.07403 0
M  V30 1516 H 146.344 0.0543423 2.9725 0
M  V30 1517 H 143.877 0.146889 1.537 0
M  V30 1518 H 145.835 -2.41751 3.31763 0
M  V30 1519 H 144.496 -2.28303 2.15724 0
M  V30 1520 H 143.689 -2.19549 4.53667 0
M  V30 1521 H 143.291 -0.690608 3.67569 0
M  V30 1522 H 145.583 -2.44186 6.31965 0
M  V30 1523 H 146.526 -1.07721 6.99858 0
M  V30 1524 H 146.934 -1.71518 5.37812 0
M  V30 1525 N 146.332 -1.57332 0.0918853 0
M  V30 1526 C 147.579 -1.94236 -0.572577 0
M  V30 1527 C 147.907 -0.973398 -1.6839 0
M  V30 1528 O 147.162 0.00756912 -1.95699 0
M  V30 1529 C 147.461 -3.37689 -1.17051 0
M  V30 1530 C 147.127 -4.50527 -0.183304 0
M  V30 1531 C 145.789 -4.81119 0.0882276 0
M  V30 1532 C 148.141 -5.18883 0.49095 0
M  V30 1533 C 145.469 -5.77395 1.04076 0
M  V30 1534 C 147.821 -6.1618 1.43193 0
M  V30 1535 C 146.485 -6.45179 1.71173 0
M  V30 1536 H 145.755 -0.710762 -0.209521 0
M  V30 1537 H 148.402 -1.9077 0.167036 0
M  V30 1538 H 146.707 -3.37718 -1.9863 0
M  V30 1539 H 148.404 -3.63543 -1.69227 0
M  V30 1540 H 144.994 -4.26681 -0.405124 0
M  V30 1541 H 149.178 -4.95427 0.294312 0
M  V30 1542 H 144.434 -5.98179 1.26457 0
M  V30 1543 H 148.608 -6.68243 1.96023 0
M  V30 1544 H 146.235 -7.1959 2.4514 0
M  V30 1545 N 147.81 0.181792 -1.56548 0
M  V30 1546 C 149.057 0.900097 -1.81396 0
M  V30 1547 C 149.385 1.82695 -0.667281 0
M  V30 1548 O 148.64 1.92614 0.346146 0
M  V30 1549 C 148.939 1.73728 -3.12335 0
M  V30 1550 C 148.605 0.960255 -4.40556 0
M  V30 1551 C 147.267 0.745766 -4.75386 0
M  V30 1552 C 149.619 0.414477 -5.19549 0
M  V30 1553 C 146.947 -0.0257694 -5.86694 0
M  V30 1554 C 149.299 -0.343916 -6.31664 0
M  V30 1555 C 147.963 -0.569301 -6.65068 0
M  V30 1556 H 147.233 0.329369 -0.663775 0
M  V30 1557 H 149.88 0.165647 -1.90782 0
M  V30 1558 H 148.185 2.54081 -2.98245 0
M  V30 1559 H 149.882 2.29591 -3.28769 0
M  V30 1560 H 146.472 1.13746 -4.13231 0
M  V30 1561 H 150.656 0.567554 -4.93044 0
M  V30 1562 H 145.912 -0.210233 -6.11038 0
M  V30 1563 H 150.086 -0.774133 -6.92084 0
M  V30 1564 H 147.713 -1.16903 -7.51158 0
M  V30 1565 N 149.288 1.51039 0.449983 0
M  V30 1566 C 150.534 1.63322 1.20223 0
M  V30 1567 C 150.867 0.34241 1.91158 0
M  V30 1568 O 150.142 -0.657344 1.83055 0
M  V30 1569 C 150.425 2.82801 2.22925 0
M  V30 1570 C 150.278 4.21823 1.56157 0
M  V30 1571 C 151.597 2.97807 3.24035 0
M  V30 1572 H 148.716 0.594407 0.435718 0
M  V30 1573 H 151.358 1.83489 0.493136 0
M  V30 1574 H 149.508 2.65738 2.834 0
M  V30 1575 H 151.18 4.50526 0.991162 0
M  V30 1576 H 149.423 4.25105 0.864172 0
M  V30 1577 H 150.094 5.01391 2.30891 0
M  V30 1578 H 152.57 3.13497 2.73603 0
M  V30 1579 H 151.446 3.82992 3.93202 0
M  V30 1580 H 151.707 2.09328 3.89402 0
M  V30 1581 N 150.766 -0.704594 1.40972 0
M  V30 1582 C 152.012 -1.46675 1.40051 0
M  V30 1583 C 152.345 -1.94199 0.00641102 0
M  V30 1584 O 151.62 -1.68916 -0.964235 0
M  V30 1585 C 151.903 -2.68505 2.39952 0
M  V30 1586 C 151.756 -2.26805 3.88432 0
M  V30 1587 C 153.075 -3.70686 2.37233 0
M  V30 1588 H 150.194 -0.532015 0.510028 0
M  V30 1589 H 152.836 -0.803255 1.72185 0
M  V30 1590 H 150.986 -3.25114 2.1268 0
M  V30 1591 H 152.658 -1.75592 4.26574 0
M  V30 1592 H 150.901 -1.58685 4.03734 0
M  V30 1593 H 151.572 -3.14181 4.53866 0
M  V30 1594 H 154.048 -3.23731 2.61415 0
M  V30 1595 H 152.924 -4.53553 3.09162 0
M  V30 1596 H 153.185 -4.19754 1.38777 0
M  V30 1597 N 152.244 -1.26651 -0.937939 0
M  V30 1598 C 153.493 -1.11775 -1.67897 0
M  V30 1599 C 153.806 0.33794 -1.92659 0
M  V30 1600 O 155.012 0.607434 -2.64618 0
M  V30 1601 C 153.468 -1.9523 -3.02346 0
M  V30 1602 C 153.076 -3.45393 -2.8532 0
M  V30 1603 C 154.82 -1.88972 -3.80118 0
M  V30 1604 C 152.727 -4.21083 -4.15263 0
M  V30 1605 H 151.657 -0.414696 -0.629717 0
M  V30 1606 H 154.308 -1.50988 -1.04283 0
M  V30 1607 H 152.69 -1.48853 -3.66959 0
M  V30 1608 H 153.864 -3.99561 -2.29537 0
M  V30 1609 H 152.179 -3.52921 -2.20988 0
M  V30 1610 H 154.776 -2.42805 -4.76392 0
M  V30 1611 H 155.119 -0.86113 -4.07296 0
M  V30 1612 H 155.652 -2.33189 -3.22285 0
M  V30 1613 H 152.391 -5.24425 -3.93267 0
M  V30 1614 H 151.911 -3.71695 -4.70747 0
M  V30 1615 H 153.59 -4.29706 -4.83696 0
M  V30 1616 N 153.722 1.14298 -1.08507 0
M  V30 1617 C 155.133 1.66926 -0.836227 0
M  V30 1618 C 155.484 1.85576 0.63686 0
M  V30 1619 O 154.609 1.56767 1.49175 0
M  V30 1620 C 155.204 3.03219 -1.51142 0
M  V30 1621 C 153.763 3.52876 -1.30979 0
M  V30 1622 C 152.91 2.2833 -1.57356 0
M  V30 1623 H 155.861 0.983491 -1.24552 0
M  V30 1624 H 155.882 3.68726 -0.939211 0
M  V30 1625 H 155.394 2.89612 -2.58353 0
M  V30 1626 H 153.495 3.71703 -0.258429 0
M  V30 1627 H 153.608 4.33586 -2.03814 0
M  V30 1628 H 151.972 2.34454 -0.995164 0
M  V30 1629 H 152.755 2.17298 -2.65775 0
M  V30 1630 N 155.201 0.870884 1.31352 0
M  V30 1631 C 156.164 0.332243 2.26779 0
M  V30 1632 C 157.164 -0.517302 1.52252 0
M  V30 1633 O 158.354 -0.326477 1.71113 0
M  V30 1634 C 155.486 -0.528066 3.36785 0
M  V30 1635 H 156.679 1.17469 2.75937 0
M  V30 1636 H 154.232 0.64655 1.423 0
M  V30 1637 H 154.967 -1.39167 2.92922 0
M  V30 1638 H 154.752 0.0802582 3.92018 0
M  V30 1639 H 156.242 -0.897179 4.07849 0
M  V30 1640 N 156.679 -1.44442 0.630414 0
M  V30 1641 C 157.609 -2.33418 -0.0618083 0
M  V30 1642 C 158.59 -1.48165 -0.835541 0
M  V30 1643 O 159.775 -1.76886 -0.801564 0
M  V30 1644 C 156.905 -3.31222 -1.04449 0
M  V30 1645 C 155.859 -4.26288 -0.382436 0
M  V30 1646 C 155.185 -5.13954 -1.47497 0
M  V30 1647 C 156.485 -5.1744 0.710865 0
M  V30 1648 H 158.179 -2.91548 0.681184 0
M  V30 1649 H 155.725 -1.40191 0.329026 0
M  V30 1650 H 157.678 -3.92351 -1.53748 0
M  V30 1651 H 156.402 -2.71299 -1.81836 0
M  V30 1652 H 155.061 -3.6649 0.0899054 0
M  V30 1653 H 154.709 -4.50385 -2.2397 0
M  V30 1654 H 154.409 -5.7837 -1.03737 0
M  V30 1655 H 155.933 -5.77955 -1.96979 0
M  V30 1656 H 157.347 -5.72509 0.300996 0
M  V30 1657 H 155.744 -5.90455 1.07156 0
M  V30 1658 H 156.814 -4.58496 1.57829 0
M  V30 1659 N 158.157 -0.370918 -1.53173 0
M  V30 1660 C 159.404 0.217102 -2.01333 0
M  V30 1661 C 159.732 1.48338 -1.25802 0
M  V30 1662 O 158.987 1.92698 -0.34146 0
M  V30 1663 C 159.286 0.549696 -3.53147 0
M  V30 1664 C 158.952 -0.622872 -4.46577 0
M  V30 1665 C 157.614 -0.944595 -4.71838 0
M  V30 1666 C 159.966 -1.40819 -5.01816 0
M  V30 1667 C 157.294 -2.05351 -5.49589 0
M  V30 1668 C 159.646 -2.50757 -5.80778 0
M  V30 1669 C 158.31 -2.83458 -6.04324 0
M  V30 1670 H 157.58 0.0794431 -0.736729 0
M  V30 1671 H 160.227 -0.504481 -1.84736 0
M  V30 1672 H 158.532 1.35237 -3.6772 0
M  V30 1673 H 160.229 1.017 -3.87889 0
M  V30 1674 H 156.819 -0.36209 -4.27068 0
M  V30 1675 H 161.003 -1.17289 -4.82242 0
M  V30 1676 H 156.259 -2.3108 -5.6605 0
M  V30 1677 H 160.433 -3.12022 -6.22588 0
M  V30 1678 H 158.06 -3.69508 -6.64355 0
M  V30 1679 N 159.635 1.57281 -0.100228 0
M  V30 1680 C 160.883 1.94153 0.561157 0
M  V30 1681 C 161.204 0.983157 1.68401 0
M  V30 1682 O 160.474 0.0361132 1.95867 0
M  V30 1683 H 159.054 0.716791 0.210283 0
M  V30 1684 H 161.716 1.94202 -0.164765 0
M  V30 1685 H 160.812 2.96709 0.968008 0
M  V30 1686 N 161.113 -0.173488 1.56642 0
M  V30 1687 C 162.361 -0.888706 1.81512 0
M  V30 1688 C 162.682 -1.82875 0.676872 0
M  V30 1689 O 161.952 -1.93536 -0.303414 0
M  V30 1690 H 160.532 -0.331164 0.669582 0
M  V30 1691 H 163.194 -0.173823 1.94123 0
M  V30 1692 H 162.29 -1.46691 2.75478 0
M  V30 1693 N 162.591 -1.51276 -0.441967 0
M  V30 1694 C 163.838 -1.63715 -1.19179 0
M  V30 1695 C 164.166 -0.351175 -1.91303 0
M  V30 1696 O 163.421 0.664524 -1.84072 0
M  V30 1697 C 163.72 -2.78746 -2.23686 0
M  V30 1698 C 163.386 -4.18189 -1.68607 0
M  V30 1699 C 162.048 -4.56125 -1.53308 0
M  V30 1700 C 164.4 -5.05222 -1.28062 0
M  V30 1701 C 161.728 -5.78804 -0.959317 0
M  V30 1702 C 164.08 -6.28476 -0.721162 0
M  V30 1703 C 162.744 -6.65188 -0.55504 0
M  V30 1704 H 162.014 -0.599076 -0.436106 0
M  V30 1705 H 164.661 -1.85296 -0.48351 0
M  V30 1706 H 162.966 -2.51369 -3.00535 0
M  V30 1707 H 164.663 -2.8557 -2.81515 0
M  V30 1708 H 161.253 -3.88277 -1.8149 0
M  V30 1709 H 165.437 -4.76524 -1.38704 0
M  V30 1710 H 160.693 -6.05899 -0.81833 0
M  V30 1711 H 164.867 -6.95259 -0.398458 0
M  V30 1712 H 162.494 -7.60123 -0.108311 0
M  V30 1713 N 164.069 0.697108 -1.41344 0
M  V30 1714 C 165.317 1.45426 -1.40341 0
M  V30 1715 C 165.638 1.94996 -0.0128787 0
M  V30 1716 O 164.908 1.71599 0.945027 0
M  V30 1717 H 163.488 0.539594 -0.516573 0
M  V30 1718 H 166.15 0.825201 -1.76569 0
M  V30 1719 H 165.246 2.31817 -2.08967 0
M  V30 1720 N 165.547 1.27147 0.931209 0
M  V30 1721 C 166.495 1.09398 2.05268 0
M  V30 1722 C 167.489 0.0180591 1.6939 0
M  V30 1723 O 168.695 0.17551 1.79142 0
M  V30 1724 H 165.07 0.336986 0.672268 0
M  V30 1725 H 167.041 2.04416 2.17386 0
M  V30 1726 C 165.79 0.75424 3.39421 0
M  V30 1727 H 165.113 1.57404 3.67511 0
M  V30 1728 H 166.553 0.669903 4.18674 0
M  V30 1729 C 165.012 -0.541197 3.32525 0
M  V30 1730 O 165.542 -1.57664 3.69466 0
M  V30 1731 N 163.748 -0.535517 2.85623 0
M  V30 1732 H 163.295 0.307511 2.55758 0
M  V30 1733 H 163.253 -1.40236 2.81392 0
M  V30 1734 N 167.025 -1.13721 1.09112 0
M  V30 1735 C 168.255 -1.88499 0.845671 0
M  V30 1736 C 168.663 -1.79218 -0.606432 0
M  V30 1737 O 168.006 -1.1544 -1.42896 0
M  V30 1738 C 168.068 -3.38954 1.19793 0
M  V30 1739 C 167.732 -3.72018 2.65428 0
M  V30 1740 C 168.729 -3.7153 3.63677 0
M  V30 1741 C 166.414 -4.01775 3.01467 0
M  V30 1742 C 168.408 -4.00336 4.95994 0
M  V30 1743 C 166.095 -4.30243 4.33975 0
M  V30 1744 C 167.093 -4.29508 5.31048 0
M  V30 1745 O 166.781 -4.5728 6.61173 0
M  V30 1746 H 166.513 -0.603702 0.304171 0
M  V30 1747 H 169.067 -1.44903 1.45576 0
M  V30 1748 H 167.297 -3.83039 0.530871 0
M  V30 1749 H 168.986 -3.95052 0.932146 0
M  V30 1750 H 169.752 -3.4862 3.37179 0
M  V30 1751 H 165.631 -4.01496 2.26544 0
M  V30 1752 H 169.175 -3.99678 5.71755 0
M  V30 1753 H 165.072 -4.52625 4.60219 0
M  V30 1754 H 165.84 -4.74964 6.66597 0
M  V30 1755 N 168.503 -0.877838 -1.30888 0
M  V30 1756 C 169.75 -0.492696 -1.96415 0
M  V30 1757 C 170.078 0.956671 -1.69346 0
M  V30 1758 O 169.333 1.68993 -0.986913 0
M  V30 1759 C 169.632 -0.705748 -3.50363 0
M  V30 1760 C 169.298 -2.1291 -3.97467 0
M  V30 1761 C 167.96 -2.51834 -4.1004 0
M  V30 1762 C 170.312 -3.05702 -4.22132 0
M  V30 1763 C 167.64 -3.82775 -4.44635 0
M  V30 1764 C 169.992 -4.36166 -4.58194 0
M  V30 1765 C 168.656 -4.74993 -4.68975 0
M  V30 1766 H 167.926 -0.18029 -0.718733 0
M  V30 1767 H 170.573 -1.11233 -1.55883 0
M  V30 1768 H 168.878 -0.00303058 -3.918 0
M  V30 1769 H 170.575 -0.387456 -3.99124 0
M  V30 1770 H 167.165 -1.81694 -3.88182 0
M  V30 1771 H 171.349 -2.76853 -4.11906 0
M  V30 1772 H 166.605 -4.12609 -4.51181 0
M  V30 1773 H 170.779 -5.08111 -4.76231 0
M  V30 1774 H 168.406 -5.76495 -4.95537 0
M  V30 1775 N 169.982 1.44106 -0.638065 0
M  V30 1776 C 170.915 2.27924 0.112161 0
M  V30 1777 C 171.893 1.38945 0.844574 0
M  V30 1778 O 173.077 1.68386 0.847248 0
M  V30 1779 C 170.204 3.18029 1.16512 0
M  V30 1780 C 169.25 4.23163 0.532458 0
M  V30 1781 S 170.083 5.31131 -0.682666 0
M  V30 1782 C 171.239 6.24805 0.37013 0
M  V30 1783 H 171.472 2.91205 -0.598887 0
M  V30 1784 H 169.005 1.48394 -0.426441 0
M  V30 1785 H 170.963 3.70492 1.76766 0
M  V30 1786 H 169.624 2.53955 1.8484 0
M  V30 1787 H 168.817 4.86252 1.32571 0
M  V30 1788 H 168.419 3.74 0.00437644 0
M  V30 1789 H 170.711 6.66042 1.24071 0
M  V30 1790 H 171.654 7.07741 -0.225349 0
M  V30 1791 H 172.062 5.60154 0.699141 0
M  V30 1792 N 171.46 0.379036 1.52974 0
M  V30 1793 C 172.871 -0.0972525 1.86447 0
M  V30 1794 C 173.222 -1.47027 1.29914 0
M  V30 1795 O 172.347 -2.07135 0.626433 0
M  V30 1796 C 172.942 -0.183248 3.38304 0
M  V30 1797 C 171.501 -0.603812 3.71525 0
M  V30 1798 C 170.648 0.240632 2.76254 0
M  V30 1799 H 173.599 0.597316 1.4703 0
M  V30 1800 H 173.62 -1.00432 3.67006 0
M  V30 1801 H 173.132 0.816191 3.79421 0
M  V30 1802 H 171.233 -1.61099 3.35973 0
M  V30 1803 H 171.346 -0.369086 4.77676 0
M  V30 1804 H 169.71 -0.292548 2.53014 0
M  V30 1805 H 170.493 1.23786 3.20206 0
M  V30 1806 N 172.938 -1.57226 0.108567 0
M  V30 1807 C 173.868 -2.17778 -0.84232 0
M  V30 1808 C 174.849 -1.11487 -1.2847 0
M  V30 1809 O 176.034 -1.39681 -1.34918 0
M  V30 1810 C 173.164 -2.76888 -2.09644 0
M  V30 1811 C 172.118 -3.88669 -1.79221 0
M  V30 1812 C 171.444 -4.34541 -3.11574 0
M  V30 1813 C 172.744 -5.11251 -1.06864 0
M  V30 1814 H 174.438 -2.97489 -0.337774 0
M  V30 1815 H 171.984 -1.43097 -0.161025 0
M  V30 1816 H 173.937 -3.17904 -2.76614 0
M  V30 1817 H 172.661 -1.94451 -2.62405 0
M  V30 1818 H 171.32 -3.48213 -1.14644 0
M  V30 1819 H 170.968 -3.48977 -3.62249 0
M  V30 1820 H 170.668 -5.09914 -2.91996 0
M  V30 1821 H 172.192 -4.782 -3.7968 0
M  V30 1822 H 173.606 -5.49352 -1.63968 0
M  V30 1823 H 172.003 -5.9214 -0.974178 0
M  V30 1824 H 173.073 -4.8487 -0.0536168 0
M  V30 1825 N 174.416 0.165178 -1.56732 0
M  V30 1826 C 175.366 1.20917 -1.93295 0
M  V30 1827 C 176.35 1.39488 -0.801985 0
M  V30 1828 O 177.542 1.41356 -1.06525 0
M  V30 1829 C 174.671 2.54718 -2.3016 0
M  V30 1830 C 173.757 2.39815 -3.49785 0
M  V30 1831 N 174.148 1.94637 -4.66851 0
M  V30 1832 C 172.446 2.70623 -3.54513 0
M  V30 1833 C 173.147 1.92344 -5.4898 0
M  V30 1834 N 172.123 2.34978 -4.9019 0
M  V30 1835 H 175.925 0.851675 -2.81289 0
M  V30 1836 H 173.439 0.373399 -1.58049 0
M  V30 1837 H 175.436 3.30165 -2.54552 0
M  V30 1838 H 174.096 2.91265 -1.43508 0
M  V30 1839 H 175.107 1.6488 -4.90953 0
M  V30 1840 H 171.784 3.11167 -2.78354 0
M  V30 1841 H 173.174 1.5906 -6.52801 0
M  V30 1842 N 175.894 1.51508 0.433938 0
M  V30 1843 C 177.143 1.63578 1.18005 0
M  V30 1844 C 177.456 0.359514 1.92268 0
M  V30 1845 O 178.662 0.359632 2.69108 0
M  V30 1846 C 177.118 2.88901 2.14626 0
M  V30 1847 C 176.726 4.23544 1.45995 0
M  V30 1848 C 178.47 3.10328 2.89649 0
M  V30 1849 C 176.377 5.40014 2.4112 0
M  V30 1850 H 175.307 0.609277 0.444182 0
M  V30 1851 H 177.958 1.77978 0.446773 0
M  V30 1852 H 176.34 2.68142 2.91403 0
M  V30 1853 H 177.514 4.54696 0.747532 0
M  V30 1854 H 175.829 4.08021 0.831115 0
M  V30 1855 H 178.426 3.94518 3.60915 0
M  V30 1856 H 178.769 2.23544 3.51189 0
M  V30 1857 H 179.302 3.31443 2.19978 0
M  V30 1858 H 176.041 6.29068 1.84264 0
M  V30 1859 H 175.561 5.13233 3.10406 0
M  V30 1860 H 177.24 5.72099 3.02177 0
M  V30 1861 N 177.372 -0.689602 1.41712 0
M  V30 1862 C 178.62 -1.4468 1.4111 0
M  V30 1863 C 178.941 -1.94986 0.0232196 0
M  V30 1864 O 178.211 -1.72097 -0.935913 0
M  V30 1865 H 176.791 -0.536847 0.519427 0
M  V30 1866 H 179.453 -0.815825 1.77004 0
M  V30 1867 H 178.549 -2.30706 2.10193 0
M  V30 1868 N 178.85 -1.27639 -0.924453 0
M  V30 1869 C 179.813 -1.10681 -2.00705 0
M  V30 1870 C 180.813 -0.0497823 -1.60723 0
M  V30 1871 O 182.003 -0.294654 -1.7169 0
M  V30 1872 C 179.135 -0.687164 -3.33902 0
M  V30 1873 H 180.328 -2.06817 -2.17179 0
M  V30 1874 H 177.881 -1.10473 -1.10569 0
M  V30 1875 H 178.616 0.275439 -3.23128 0
M  V30 1876 H 178.401 -1.45061 -3.6428 0
M  V30 1877 H 179.891 -0.590853 -4.13399 0
M  V30 1878 N 180.328 1.1314 -1.09713 0
M  V30 1879 C 181.739 1.66029 -0.853885 0
M  V30 1880 C 182.09 1.86241 0.617142 0
M  V30 1881 O 181.215 1.5834 1.47503 0
M  V30 1882 C 181.81 3.01599 -1.5435 0
M  V30 1883 C 180.369 3.51467 -1.34714 0
M  V30 1884 C 179.516 2.26648 -1.59769 0
M  V30 1885 H 182.467 0.970226 -1.25588 0
M  V30 1886 H 182.488 3.67709 -0.978267 0
M  V30 1887 H 182 2.86856 -2.6141 0
M  V30 1888 H 180.101 3.71408 -0.297838 0
M  V30 1889 H 180.214 4.314 -2.08401 0
M  V30 1890 H 178.578 2.33385 -1.01998 0
M  V30 1891 H 179.361 2.14467 -2.68065 0
M  V30 1892 N 181.806 0.884767 1.30421 0
M  V30 1893 C 183.083 0.423185 1.90967 0
M  V30 1894 C 183.463 -1.09605 1.80416 0
M  V30 1895 O 182.811 -1.93126 1.22125 0
M  V30 1896 C 183.021 0.921056 3.36627 0
M  V30 1897 C 184.369 0.955903 4.137 0
M  V30 1898 O 185.393 0.867706 3.4547 0
M  V30 1899 O 184.252 1.08614 5.35598 0
M  V30 1900 H 181.346 0.129369 0.816819 0
M  V30 1901 H 183.892 0.973653 1.3899 0
M  V30 1902 H 182.664 1.96489 3.3839 0
M  V30 1903 H 182.287 0.349741 3.96059 0
M  V30 1904 N 183.284 -1.43765 0.645699 0
M  V30 1905 C 184.217 -2.2798 -0.100072 0
M  V30 1906 C 185.195 -1.39391 -0.837194 0
M  V30 1907 O 186.379 -1.68833 -0.838306 0
M  V30 1908 C 183.506 -3.18643 -1.14823 0
M  V30 1909 C 182.552 -4.2344 -0.510009 0
M  V30 1910 S 183.385 -5.30761 0.710824 0
M  V30 1911 C 184.541 -6.24992 -0.33699 0
M  V30 1912 H 184.774 -2.90884 0.614322 0
M  V30 1913 H 182.307 -1.48166 0.434304 0
M  V30 1914 H 184.265 -3.71424 -1.74799 0
M  V30 1915 H 182.926 -2.54932 -1.8349 0
M  V30 1916 H 182.119 -4.86948 -1.29991 0
M  V30 1917 H 181.721 -3.73997 0.0154577 0
M  V30 1918 H 184.013 -6.66691 -1.20537 0
M  V30 1919 H 184.956 -7.07612 0.262879 0
M  V30 1920 H 185.364 -5.60517 -0.669425 0
M  V30 1921 N 184.763 -0.387143 -1.52771 0
M  V30 1922 C 185.726 0.436939 -2.24997 0
M  V30 1923 C 186.726 0.991991 -1.26555 0
M  V30 1924 O 187.916 0.874335 -1.50669 0
M  V30 1925 C 185.048 1.61281 -3.00335 0
M  V30 1926 H 186.241 -0.195365 -2.99263 0
M  V30 1927 H 183.794 -0.139218 -1.55679 0
M  V30 1928 H 184.529 2.2826 -2.30364 0
M  V30 1929 H 184.314 1.22154 -3.72587 0
M  V30 1930 H 185.804 2.19629 -3.5518 0
M  V30 1931 N 186.241 1.57166 -0.116904 0
M  V30 1932 C 187.488 1.95123 0.541603 0
M  V30 1933 C 187.816 1.00006 1.6682 0
M  V30 1934 O 187.071 0.0235658 1.95686 0
M  V30 1935 C 187.37 3.39508 1.11664 0
M  V30 1936 C 187.036 4.50762 0.111606 0
M  V30 1937 C 185.698 4.80918 -0.164758 0
M  V30 1938 C 188.05 5.18036 -0.573438 0
M  V30 1939 C 185.378 5.75666 -1.13249 0
M  V30 1940 C 187.73 6.13824 -1.52978 0
M  V30 1941 C 186.394 6.42374 -1.81415 0
M  V30 1942 H 185.664 0.714005 0.198187 0
M  V30 1943 H 188.311 1.9048 -0.197365 0
M  V30 1944 H 186.616 3.40835 1.93232 0
M  V30 1945 H 188.313 3.66189 1.63422 0
M  V30 1946 H 184.903 4.27272 0.337192 0
M  V30 1947 H 189.087 4.94896 -0.373092 0
M  V30 1948 H 184.343 5.96092 -1.35958 0
M  V30 1949 H 188.517 6.65039 -2.06629 0
M  V30 1950 H 186.144 7.15599 -2.56557 0
M  V30 1951 N 187.719 -0.156864 1.56817 0
M  V30 1952 C 189.13 -0.717916 1.72345 0
M  V30 1953 C 189.481 -1.82124 0.729747 0
M  V30 1954 O 188.606 -2.16141 -0.105781 0
M  V30 1955 C 189.201 -1.30904 3.12489 0
M  V30 1956 C 187.76 -1.81676 3.29653 0
M  V30 1957 C 186.907 -0.701349 2.68284 0
M  V30 1958 H 189.858 0.0686989 1.58551 0
M  V30 1959 H 189.879 -2.17882 3.11942 0
M  V30 1960 H 189.391 -0.505796 3.8479 0
M  V30 1961 H 187.492 -2.64598 2.62333 0
M  V30 1962 H 187.605 -1.95226 4.3752 0
M  V30 1963 H 185.969 -1.12548 2.28484 0
M  V30 1964 H 186.752 0.0902846 3.43181 0
M  V30 1965 N 189.197 -1.51736 -0.425897 0
M  V30 1966 C 190.613 -1.40166 -0.76326 0
M  V30 1967 C 190.813 -0.492962 -1.95377 0
M  V30 1968 O 189.869 0.0475815 -2.52455 0
M  V30 1969 C 191.182 -2.82403 -1.03291 0
M  V30 1970 C 192.73 -2.91632 -1.13665 0
M  V30 1971 C 193.205 -4.34801 -1.43916 0
M  V30 1972 N 194.696 -4.3796 -1.50816 0
M  V30 1973 C 195.431 -5.4578 -1.75817 0
M  V30 1974 N 194.927 -6.63744 -1.98534 0
M  V30 1975 N 196.72 -5.33274 -1.77694 0
M  V30 1976 H 188.871 -2.09361 0.358 0
M  V30 1977 H 191.134 -0.942941 0.0978094 0
M  V30 1978 H 190.84 -3.50943 -0.230696 0
M  V30 1979 H 190.714 -3.22428 -1.95754 0
M  V30 1980 H 193.101 -2.23284 -1.92947 0
M  V30 1981 H 193.182 -2.55088 -0.190756 0
M  V30 1982 H 192.826 -5.03703 -0.65157 0
M  V30 1983 H 192.756 -4.68868 -2.39729 0
M  V30 1984 H 195.247 -3.52919 -1.35118 0
M  V30 1985 H 195.56 -7.41704 -2.17013 0
M  V30 1986 H 193.905 -6.66839 -1.95832 0
M  V30 1987 H 197.096 -4.40098 -1.59473 0
M  V30 1988 H 197.269 -6.1738 -1.9684 0
M  V30 1989 N 190.675 0.682077 -1.42076 0
M  V30 1990 C 191.605 1.80796 -1.47767 0
M  V30 1991 C 192.586 1.6677 -0.334954 0
M  V30 1992 O 193.771 1.863 -0.548264 0
M  V30 1993 C 190.901 3.19038 -1.37229 0
M  V30 1994 C 189.855 3.47789 -2.49453 0
M  V30 1995 C 189.181 4.8553 -2.23975 0
M  V30 1996 C 190.481 3.45411 -3.91776 0
M  V30 1997 H 192.175 1.7629 -2.41997 0
M  V30 1998 H 189.721 0.846721 -1.16476 0
M  V30 1999 H 191.674 3.97528 -1.39821 0
M  V30 2000 H 190.398 3.24204 -0.394907 0
M  V30 2001 H 189.057 2.71657 -2.46166 0
M  V30 2002 H 188.705 4.87337 -1.24547 0
M  V30 2003 H 188.405 5.0573 -2.99184 0
M  V30 2004 H 189.929 5.66312 -2.28304 0
M  V30 2005 H 191.343 4.13882 -3.96705 0
M  V30 2006 H 189.74 3.77145 -4.66778 0
M  V30 2007 H 190.81 2.44122 -4.18966 0
M  V30 2008 N 192.153 1.28127 0.917671 0
M  V30 2009 C 193.101 1.11569 2.04096 0
M  V30 2010 C 194.095 0.0360242 1.69362 0
M  V30 2011 O 195.301 0.194501 1.78946 0
M  V30 2012 H 191.676 0.344097 0.668656 0
M  V30 2013 H 193.647 2.06711 2.15205 0
M  V30 2014 C 192.396 0.790197 3.38602 0
M  V30 2015 H 191.719 1.61293 3.6582 0
M  V30 2016 H 193.159 0.714271 4.1794 0
M  V30 2017 C 191.618 -0.505897 3.3308 0
M  V30 2018 O 192.148 -1.53736 3.71117 0
M  V30 2019 N 190.354 -0.505193 2.86175 0
M  V30 2020 H 189.901 0.334621 2.55417 0
M  V30 2021 H 189.859 -1.37243 2.82863 0
M  V30 2022 N 193.631 -1.12557 1.10312 0
M  V30 2023 C 194.579 -2.20325 0.745629 0
M  V30 2024 C 195.573 -1.67429 -0.25763 0
M  V30 2025 O 196.779 -1.79612 -0.118132 0
M  V30 2026 H 193.154 -0.718118 0.223182 0
M  V30 2027 H 195.125 -2.47733 1.66346 0
M  V30 2028 C 193.874 -3.47168 0.192262 0
M  V30 2029 H 193.197 -3.88215 0.955475 0
M  V30 2030 H 194.637 -4.23995 -0.0198274 0
M  V30 2031 C 193.096 -3.19298 -1.07472 0
M  V30 2032 O 193.626 -3.3891 -2.15645 0
M  V30 2033 N 191.832 -2.73113 -0.992847 0
M  V30 2034 H 191.379 -2.57354 -0.112474 0
M  V30 2035 H 191.337 -2.54842 -1.84127 0
M  V30 2036 N 195.109 -0.891671 -1.2995 0
M  V30 2037 C 196.039 -0.379797 -2.30391 0
M  V30 2038 C 197.02 0.540919 -1.6127 0
M  V30 2039 O 198.205 0.453352 -1.88834 0
M  V30 2040 C 195.335 0.400654 -3.44981 0
M  V30 2041 C 194.289 -0.428905 -4.25846 0
M  V30 2042 C 193.615 0.478557 -5.32554 0
M  V30 2043 C 194.915 -1.67458 -4.94727 0
M  V30 2044 H 196.609 -1.21914 -2.73454 0
M  V30 2045 H 194.155 -0.587675 -1.31462 0
M  V30 2046 H 196.108 0.769434 -4.14316 0
M  V30 2047 H 194.832 1.27371 -3.0074 0
M  V30 2048 H 193.491 -0.779911 -3.58208 0
M  V30 2049 H 193.139 1.34951 -4.84559 0
M  V30 2050 H 192.839 -0.0727433 -5.87555 0
M  V30 2051 H 194.363 0.843705 -6.04743 0
M  V30 2052 H 195.777 -1.376 -5.56542 0
M  V30 2053 H 194.174 -2.16659 -5.59624 0
M  V30 2054 H 195.244 -2.41518 -4.20473 0
M  V30 2055 N 196.587 1.43421 -0.653314 0
M  V30 2056 C 197.812 2.06678 -0.172846 0
M  V30 2057 C 198.237 1.48648 1.15262 0
M  V30 2058 O 197.595 0.596457 1.71208 0
M  V30 2059 C 197.643 3.60474 -0.0953184 0
M  V30 2060 O 196.747 4.01487 0.942442 0
M  V30 2061 H 196.088 0.657181 -0.0949155 0
M  V30 2062 H 198.618 1.83925 -0.896265 0
M  V30 2063 H 198.628 4.07905 0.0879728 0
M  V30 2064 H 197.303 4.02088 -1.06291 0
M  V30 2065 H 195.88 3.65646 0.731932 0
M  V30 2066 N 198.065 0.39524 1.52563 0
M  V30 2067 C 199.295 -0.184675 2.05773 0
M  V30 2068 C 199.703 -1.40571 1.26635 0
M  V30 2069 O 199.046 -1.81105 0.30769 0
M  V30 2070 C 199.108 -0.613551 3.54226 0
M  V30 2071 C 198.772 0.49484 4.54313 0
M  V30 2072 C 199.769 1.3541 5.01956 0
M  V30 2073 C 197.454 0.663565 4.97898 0
M  V30 2074 C 199.448 2.36716 5.91814 0
M  V30 2075 C 197.135 1.67996 5.87555 0
M  V30 2076 C 198.133 2.53017 6.34406 0
M  V30 2077 O 197.821 3.52917 7.22291 0
M  V30 2078 H 197.553 -0.030077 0.675331 0
M  V30 2079 H 200.107 0.560708 1.97599 0
M  V30 2080 H 198.337 -1.411 3.60038 0
M  V30 2081 H 200.026 -1.11981 3.90148 0
M  V30 2082 H 200.792 1.23509 4.6901 0
M  V30 2083 H 196.671 0.0114913 4.60999 0
M  V30 2084 H 200.215 3.03113 6.28306 0
M  V30 2085 H 196.112 1.79933 6.19915 0
M  V30 2086 H 196.88 3.48996 7.40367 0
M  V30 2087 N 199.544 -1.57102 0.125237 0
M  V30 2088 C 200.79 -1.96488 -0.525753 0
M  V30 2089 C 201.145 -1.00786 -1.6389 0
M  V30 2090 O 200.438 -0.038979 -1.9156 0
M  V30 2091 C 200.632 -3.40096 -1.09862 0
M  V30 2092 C 200.461 -4.4968 -0.0425004 0
M  V30 2093 C 199.231 -5.03781 0.391463 0
M  V30 2094 C 201.429 -5.08936 0.740829 0
M  V30 2095 N 199.411 -5.96948 1.4327 0
M  V30 2096 C 200.782 -5.98105 1.6331 0
M  V30 2097 C 202.837 -4.91576 0.791029 0
M  V30 2098 C 201.54 -6.71774 2.57122 0
M  V30 2099 C 203.566 -5.6593 1.71688 0
M  V30 2100 C 202.928 -6.5479 2.59672 0
M  V30 2101 H 199.027 -0.765072 -0.161831 0
M  V30 2102 H 201.611 -1.93511 0.214801 0
M  V30 2103 H 199.782 -3.43707 -1.80887 0
M  V30 2104 H 201.514 -3.66591 -1.71444 0
M  V30 2105 H 198.269 -4.736 -0.00213584 0
M  V30 2106 H 198.693 -6.48236 1.95243 0
M  V30 2107 H 203.335 -4.22615 0.124915 0
M  V30 2108 H 201.053 -7.39977 3.24744 0
M  V30 2109 H 204.639 -5.54501 1.76125 0
M  V30 2110 H 203.519 -7.11316 3.30149 0
M  V30 2111 N 201.022 0.148545 -1.56898 0
M  V30 2112 C 201.955 1.21293 -1.93296 0
M  V30 2113 C 202.933 1.41637 -0.798599 0
M  V30 2114 O 204.117 1.56275 -1.05406 0
M  V30 2115 C 201.244 2.5721 -2.20365 0
M  V30 2116 C 200.29 2.53469 -3.4301 0
M  V30 2117 S 201.123 2.00315 -4.96623 0
M  V30 2118 C 202.279 3.37964 -5.26812 0
M  V30 2119 H 202.512 0.902393 -2.83274 0
M  V30 2120 H 200.045 0.354094 -1.50285 0
M  V30 2121 H 202.003 3.35427 -2.36641 0
M  V30 2122 H 200.664 2.85454 -1.31054 0
M  V30 2123 H 199.857 3.53518 -3.59223 0
M  V30 2124 H 199.459 1.83359 -3.25968 0
M  V30 2125 H 201.751 4.34066 -5.20185 0
M  V30 2126 H 202.694 3.26606 -6.28279 0
M  V30 2127 H 203.102 3.35028 -4.54331 0
M  V30 2128 N 202.5 1.5196 0.417844 0
M  V30 2129 C 203.73 1.69181 1.18581 0
M  V30 2130 C 204.138 0.397104 1.84986 0
M  V30 2131 O 203.481 -0.636011 1.72339 0
M  V30 2132 C 203.543 2.76497 2.29759 0
M  V30 2133 C 203.207 4.18514 1.83563 0
M  V30 2134 C 204.204 5.02648 1.32821 0
M  V30 2135 C 201.889 4.64708 1.90661 0
M  V30 2136 C 203.883 6.31044 0.897894 0
M  V30 2137 C 201.57 5.93096 1.47241 0
M  V30 2138 C 202.568 6.76093 0.968891 0
M  V30 2139 O 202.256 8.02078 0.540924 0
M  V30 2140 H 201.988 0.570457 0.362705 0
M  V30 2141 H 204.542 1.99249 0.498885 0
M  V30 2142 H 202.772 2.41786 3.01789 0
M  V30 2143 H 204.461 2.82403 2.91553 0
M  V30 2144 H 205.227 4.68154 1.26716 0
M  V30 2145 H 201.106 4.00216 2.28797 0
M  V30 2146 H 204.65 6.95776 0.504192 0
M  V30 2147 H 200.547 6.271 1.53022 0
M  V30 2148 H 201.315 8.15794 0.66502 0
M  V30 2149 N 203.978 -0.674533 1.42435 0
M  V30 2150 C 205.224 -1.43671 1.43131 0
M  V30 2151 C 205.557 -1.94142 0.0476021 0
M  V30 2152 O 204.832 -1.70924 -0.928188 0
M  V30 2153 C 205.115 -2.63355 2.45594 0
M  V30 2154 C 204.968 -2.18514 3.93156 0
M  V30 2155 C 206.287 -3.65571 2.45043 0
M  V30 2156 H 203.406 -0.521077 0.521198 0
M  V30 2157 H 206.048 -0.766551 1.7385 0
M  V30 2158 H 204.198 -3.2053 2.19528 0
M  V30 2159 H 205.87 -1.66504 4.30202 0
M  V30 2160 H 204.113 -1.50086 4.07009 0
M  V30 2161 H 204.784 -3.04484 4.60428 0
M  V30 2162 H 207.26 -3.18113 2.68223 0
M  V30 2163 H 206.136 -4.46893 3.18713 0
M  V30 2164 H 206.397 -4.16716 1.47649 0
M  V30 2165 N 205.456 -1.28612 -0.910864 0
M  V30 2166 C 206.696 -1.1719 -1.67469 0
M  V30 2167 C 207.06 0.274441 -1.90028 0
M  V30 2168 O 208.261 0.511425 -2.6389 0
M  V30 2169 C 206.532 -1.95137 -2.99427 0
M  V30 2170 S 208.091 -2.00122 -3.90508 0
M  V30 2171 H 204.909 -0.41806 -0.575106 0
M  V30 2172 H 207.511 -1.6275 -1.08317 0
M  V30 2173 H 206.215 -2.99381 -2.80712 0
M  V30 2174 H 205.746 -1.50137 -3.63624 0
M  V30 2175 H 207.761 -1.10981 -4.8363 0
M  V30 2176 N 206.934 1.1197 -1.10907 0
M  V30 2177 C 208.182 1.83225 -0.852819 0
M  V30 2178 C 208.503 1.84769 0.623341 0
M  V30 2179 O 207.773 1.3143 1.45269 0
M  V30 2180 H 206.353 0.67849 -0.312507 0
M  V30 2181 H 209.015 1.3556 -1.40033 0
M  V30 2182 H 208.111 2.87265 -1.22005 0
M  V30 2183 N 208.412 0.89855 1.29475 0
M  V30 2184 C 209.658 0.524658 1.95896 0
M  V30 2185 C 209.991 -0.926468 1.70676 0
M  V30 2186 O 209.266 -1.65665 1.01908 0
M  V30 2187 C 209.549 0.81633 3.50725 0
M  V30 2188 C 209.402 2.31907 3.85408 0
M  V30 2189 C 210.721 0.302038 4.39062 0
M  V30 2190 H 207.84 0.19209 0.711527 0
M  V30 2191 H 210.482 1.12502 1.53112 0
M  V30 2192 H 208.632 0.305369 3.87298 0
M  V30 2193 H 210.304 2.89949 3.58786 0
M  V30 2194 H 208.547 2.78027 3.32992 0
M  V30 2195 H 209.218 2.47373 4.93468 0
M  V30 2196 H 211.694 0.739551 4.09475 0
M  V30 2197 H 210.57 0.535331 5.46283 0
M  V30 2198 H 210.831 -0.797216 4.34853 0
M  V30 2199 N 209.89 -1.43072 0.660911 0
M  V30 2200 C 210.853 -2.29194 -0.0166406 0
M  V30 2201 C 211.853 -1.42609 -0.742912 0
M  V30 2202 O 213.043 -1.64155 -0.583004 0
M  V30 2203 C 210.175 -3.24831 -1.0343 0
M  V30 2204 H 211.368 -2.90596 0.741208 0
M  V30 2205 H 208.921 -1.5048 0.422532 0
M  V30 2206 H 209.656 -2.68339 -1.82111 0
M  V30 2207 H 209.441 -3.88676 -0.517082 0
M  V30 2208 H 210.931 -3.89451 -1.50723 0
M  V30 2209 N 211.368 -0.403325 -1.52352 0
M  V30 2210 C 212.298 0.416205 -2.29761 0
M  V30 2211 C 213.279 1.05123 -1.33728 0
M  V30 2212 O 214.464 1.06134 -1.62632 0
M  V30 2213 C 211.594 1.53624 -3.11475 0
M  V30 2214 C 210.548 1.02653 -4.15507 0
M  V30 2215 C 209.874 2.23971 -4.85532 0
M  V30 2216 C 211.174 0.08463 -5.22231 0
M  V30 2217 H 212.868 -0.229701 -2.98518 0
M  V30 2218 H 210.414 -0.111913 -1.43564 0
M  V30 2219 H 212.367 2.1165 -3.64393 0
M  V30 2220 H 211.091 2.20994 -2.40477 0
M  V30 2221 H 209.75 0.46871 -3.63591 0
M  V30 2222 H 209.398 2.89883 -4.11068 0
M  V30 2223 H 209.098 1.90521 -5.55856 0
M  V30 2224 H 210.622 2.82614 -5.41259 0
M  V30 2225 H 212.036 0.573509 -5.70424 0
M  V30 2226 H 210.433 -0.160783 -5.99885 0
M  V30 2227 H 211.503 -0.86237 -4.7717 0
M  V30 2228 N 212.846 1.57033 -0.133567 0
M  V30 2229 C 214.094 1.953 0.519848 0
M  V30 2230 C 214.415 1.01866 1.66278 0
M  V30 2231 O 213.685 0.0776513 1.95746 0
M  V30 2232 H 212.265 0.721091 0.195032 0
M  V30 2233 H 214.927 1.93809 -0.205921 0
M  V30 2234 H 214.023 2.98695 0.904854 0
M  V30 2235 N 214.325 -0.140222 1.56975 0
M  V30 2236 C 215.571 -0.852949 1.83991 0
M  V30 2237 C 215.904 -1.80512 0.716187 0
M  V30 2238 O 215.179 -1.92479 -0.279681 0
M  V30 2239 C 215.462 -1.6215 3.21527 0
M  V30 2240 C 215.315 -0.690363 4.4447 0
M  V30 2241 C 216.634 -2.58247 3.56366 0
M  V30 2242 H 213.753 -0.308634 0.669264 0
M  V30 2243 H 216.395 -0.117898 1.89634 0
M  V30 2244 H 214.545 -2.24812 3.16847 0
M  V30 2245 H 216.217 -0.0742264 4.6124 0
M  V30 2246 H 214.46 -0.000396433 4.338 0
M  V30 2247 H 215.131 -1.2643 5.37326 0
M  V30 2248 H 217.607 -2.05701 3.61699 0
M  V30 2249 H 216.483 -3.09067 4.53617 0
M  V30 2250 H 216.744 -3.39923 2.82674 0
M  V30 2251 N 215.803 -1.52179 -0.40978 0
M  V30 2252 C 216.766 -1.74853 -1.48186 0
M  V30 2253 C 217.766 -0.618417 -1.48433 0
M  V30 2254 O 218.956 -0.886286 -1.49969 0
M  V30 2255 C 216.088 -1.8303 -2.87598 0
M  V30 2256 H 217.281 -2.70559 -1.29374 0
M  V30 2257 H 214.834 -1.42586 -0.640233 0
M  V30 2258 H 215.569 -0.89236 -3.11781 0
M  V30 2259 H 215.354 -2.65187 -2.88822 0
M  V30 2260 H 216.844 -2.02316 -3.65319 0
M  V30 2261 N 217.281 0.66697 -1.42791 0
M  V30 2262 C 218.506 1.46004 -1.47301 0
M  V30 2263 C 218.931 1.87894 -0.0880317 0
M  V30 2264 O 218.289 1.56502 0.915253 0
M  V30 2265 C 218.337 2.68031 -2.41229 0
M  V30 2266 O 217.441 3.6659 -1.88906 0
M  V30 2267 H 216.782 0.43832 -0.49877 0
M  V30 2268 H 219.312 0.817391 -1.87563 0
M  V30 2269 H 219.322 3.1601 -2.58073 0
M  V30 2270 H 217.997 2.36883 -3.41847 0
M  V30 2271 H 216.574 3.25661 -1.81656 0
M  V30 2272 N 218.759 1.29093 0.90403 0
M  V30 2273 C 219.689 1.16401 2.02418 0
M  V30 2274 C 220.67 0.0593085 1.69997 0
M  V30 2275 O 221.855 0.238021 1.92736 0
M  V30 2276 C 218.985 0.835233 3.37107 0
M  V30 2277 C 217.939 1.89578 3.83724 0
M  V30 2278 C 217.265 1.42041 5.15489 0
M  V30 2279 C 218.565 3.30394 4.04521 0
M  V30 2280 H 220.259 2.10109 2.13295 0
M  V30 2281 H 217.805 1.01157 1.02486 0
M  V30 2282 H 219.758 0.733169 4.14973 0
M  V30 2283 H 218.482 -0.137543 3.2631 0
M  V30 2284 H 217.141 1.98715 3.08071 0
M  V30 2285 H 216.789 0.436426 5.01103 0
M  V30 2286 H 216.489 2.12964 5.4765 0
M  V30 2287 H 218.013 1.33176 5.959 0
M  V30 2288 H 219.427 3.24123 4.72882 0
M  V30 2289 H 217.824 3.99237 4.48029 0
M  V30 2290 H 218.894 3.73692 3.09002 0
M  V30 2291 N 220.237 -1.11381 1.11499 0
M  V30 2292 C 221.167 -2.19509 0.796125 0
M  V30 2293 C 222.148 -1.68458 -0.235796 0
M  V30 2294 O 223.333 -1.93947 -0.0991344 0
M  V30 2295 C 220.463 -3.46475 0.239205 0
M  V30 2296 C 219.417 -4.10744 1.20307 0
M  V30 2297 C 218.743 -5.32293 0.50683 0
M  V30 2298 C 220.043 -4.55597 2.55399 0
M  V30 2299 H 221.737 -2.46439 1.70024 0
M  V30 2300 H 219.283 -1.18446 0.818935 0
M  V30 2301 H 221.236 -4.214 0.00392006 0
M  V30 2302 H 219.96 -3.19006 -0.700206 0
M  V30 2303 H 218.619 -3.37813 1.42399 0
M  V30 2304 H 218.267 -5.01095 -0.437408 0
M  V30 2305 H 217.967 -5.76243 1.1497 0
M  V30 2306 H 219.491 -6.09956 0.280351 0
M  V30 2307 H 220.905 -5.21841 2.37391 0
M  V30 2308 H 219.302 -5.10363 3.15673 0
M  V30 2309 H 220.372 -3.69013 3.14575 0
M  V30 2310 N 221.715 -0.905404 -1.28997 0
M  V30 2311 C 222.678 -0.392253 -2.25819 0
M  V30 2312 C 223.678 0.476753 -1.5357 0
M  V30 2313 O 224.868 0.280994 -1.71919 0
M  V30 2314 C 222 0.438588 -3.38067 0
M  V30 2315 H 223.193 -1.24743 -2.72725 0
M  V30 2316 H 220.746 -0.684051 -1.40536 0
M  V30 2317 H 221.481 1.31352 -2.96508 0
M  V30 2318 H 221.266 -0.184167 -3.91667 0
M  V30 2319 H 222.756 0.78873 -4.10084 0
M  V30 2320 N 223.193 1.4272 -0.668489 0
M  V30 2321 C 224.604 1.84793 -0.266151 0
M  V30 2322 C 224.955 1.55959 1.19043 0
M  V30 2323 O 224.08 1.01622 1.91055 0
M  V30 2324 C 224.675 3.35436 -0.476271 0
M  V30 2325 C 223.234 3.76182 -0.128113 0
M  V30 2326 C 222.381 2.66344 -0.771777 0
M  V30 2327 H 225.332 1.32656 -0.871098 0
M  V30 2328 H 225.353 3.79515 0.273561 0
M  V30 2329 H 224.865 3.5639 -1.53647 0
M  V30 2330 H 222.966 3.60836 0.928891 0
M  V30 2331 H 223.079 4.75766 -0.564231 0
M  V30 2332 H 221.443 2.53885 -0.203652 0
M  V30 2333 H 222.226 2.90123 -1.83531 0
M  V30 2334 N 224.671 0.411399 1.52136 0
M  V30 2335 C 225.919 -0.163322 2.01439 0
M  V30 2336 C 226.24 -1.45453 1.29879 0
M  V30 2337 O 225.51 -1.91225 0.4254 0
M  V30 2338 H 224.09 -0.0633447 0.744309 0
M  V30 2339 H 226.752 0.548161 1.87033 0
M  V30 2340 H 225.848 -0.357817 3.10042 0
M  V30 2341 N 226.149 -1.5696 0.141893 0
M  V30 2342 C 227.397 -1.95573 -0.509484 0
M  V30 2343 C 227.718 -1.02746 -1.65736 0
M  V30 2344 O 226.988 -0.0880311 -1.95702 0
M  V30 2345 H 225.568 -0.722115 -0.191205 0
M  V30 2346 H 228.23 -1.93697 0.216196 0
M  V30 2347 H 227.326 -2.99171 -0.889 0
M  V30 2348 N 227.627 0.131896 -1.57047 0
M  V30 2349 C 228.575 1.18146 -2.0036 0
M  V30 2350 C 229.569 1.43614 -0.898406 0
M  V30 2351 O 230.775 1.43729 -1.08361 0
M  V30 2352 H 227.15 0.398042 -0.638018 0
M  V30 2353 H 229.121 0.789564 -2.87765 0
M  V30 2354 C 227.87 2.50341 -2.41298 0
M  V30 2355 H 227.193 2.31578 -3.25902 0
M  V30 2356 H 228.633 3.22371 -2.75414 0
M  V30 2357 C 227.092 3.11984 -1.27153 0
M  V30 2358 O 227.622 3.97484 -0.580459 0
M  V30 2359 N 225.828 2.71662 -1.03189 0
M  V30 2360 H 225.375 2.02231 -1.59564 0
M  V30 2361 H 225.333 3.13238 -0.270077 0
M  V30 2362 N 229.106 1.52395 0.401703 0
M  V30 2363 C 230.383 1.57387 1.16141 0
M  V30 2364 C 230.763 0.359359 2.08019 0
M  V30 2365 O 230.111 -0.65326 2.18963 0
M  V30 2366 C 230.321 2.90631 1.93221 0
M  V30 2367 C 231.669 3.43904 2.49028 0
M  V30 2368 O 232.693 2.92421 2.03393 0
M  V30 2369 O 231.552 4.33823 3.32356 0
M  V30 2370 H 228.646 0.634262 0.530698 0
M  V30 2371 H 231.192 1.64725 0.407883 0
M  V30 2372 H 229.964 3.70473 1.25958 0
M  V30 2373 H 229.587 2.8662 2.75563 0
M  V30 2374 N 230.584 -0.659388 1.43143 0
M  V30 2375 C 231.516 -1.7849 1.43784 0
M  V30 2376 C 232.529 -1.5932 0.334787 0
M  V30 2377 O 233.718 -1.68155 0.598842 0
M  V30 2378 C 230.818 -3.15828 1.22906 0
M  V30 2379 C 229.991 -3.61711 2.45934 0
M  V30 2380 C 229.05 -4.77831 2.20371 0
M  V30 2381 O 228.076 -4.87586 2.93681 0
M  V30 2382 N 229.278 -5.67611 1.21647 0
M  V30 2383 H 232.043 -1.7842 2.40803 0
M  V30 2384 H 229.604 -0.84302 1.3822 0
M  V30 2385 H 231.596 -3.91189 1.03697 0
M  V30 2386 H 230.166 -3.10707 0.343542 0
M  V30 2387 H 229.386 -2.76861 2.80609 0
M  V30 2388 H 230.674 -3.89112 3.27825 0
M  V30 2389 H 230.072 -5.62397 0.610449 0
M  V30 2390 H 228.629 -6.42719 1.08423 0
M  V30 2391 N 232.062 -1.29571 -0.897171 0
M  V30 2392 C 232.995 -1.0924 -2.00354 0
M  V30 2393 C 233.973 -0.00354011 -1.626 0
M  V30 2394 O 235.157 -0.15473 -1.87864 0
M  V30 2395 C 232.284 -0.66352 -3.32137 0
M  V30 2396 C 231.33 -1.75146 -3.88878 0
M  V30 2397 S 232.163 -3.35124 -4.17674 0
M  V30 2398 C 233.319 -2.9411 -5.52494 0
M  V30 2399 H 233.552 -2.02907 -2.17292 0
M  V30 2400 H 231.085 -1.13746 -1.04408 0
M  V30 2401 H 233.043 -0.422791 -4.08317 0
M  V30 2402 H 231.704 0.253588 -3.13075 0
M  V30 2403 H 230.897 -1.40337 -4.84068 0
M  V30 2404 H 230.499 -1.94584 -3.19395 0
M  V30 2405 H 232.791 -2.41312 -6.33068 0
M  V30 2406 H 233.734 -3.88161 -5.9223 0
M  V30 2407 H 234.142 -2.32332 -5.14473 0
M  V30 2408 N 233.54 1.10788 -1.12088 0
M  V30 2409 C 234.788 1.8231 -0.872205 0
M  V30 2410 C 235.109 1.85419 0.603709 0
M  V30 2411 O 234.379 1.32963 1.43867 0
M  V30 2412 H 232.959 0.675137 -0.319686 0
M  V30 2413 H 235.621 1.34068 -1.41463 0
M  V30 2414 H 234.717 2.85955 -1.25045 0
M  V30 2415 N 235.018 0.912232 1.28515 0
M  V30 2416 C 236.243 0.559774 1.99703 0
M  V30 2417 C 236.668 -0.851393 1.67729 0
M  V30 2418 O 236.026 -1.56875 0.908834 0
M  V30 2419 C 236.074 0.773874 3.52198 0
M  V30 2420 O 235.178 -0.167842 4.12058 0
M  V30 2421 H 234.519 0.21723 0.627461 0
M  V30 2422 H 237.049 1.22725 1.63706 0
M  V30 2423 H 237.059 0.683386 4.02236 0
M  V30 2424 H 235.734 1.80261 3.74805 0
M  V30 2425 H 234.311 -0.0287509 3.72889 0
M  V30 2426 N 236.496 -1.42363 0.676048 0
M  V30 2427 C 237.744 -2.01123 0.198437 0
M  V30 2428 C 238.065 -1.53731 -1.19966 0
M  V30 2429 O 237.335 -0.759518 -1.80577 0
M  V30 2430 H 235.915 -0.743678 0.0703721 0
M  V30 2431 H 238.577 -1.74263 0.872837 0
M  V30 2432 H 237.673 -3.11454 0.200686 0
M  V30 2433 N 237.974 -0.419461 -1.51915 0
M  V30 2434 C 239.22 0.153166 -2.02221 0
M  V30 2435 C 239.553 1.43907 -1.30401 0
M  V30 2436 O 238.828 1.90055 -0.413438 0
M  V30 2437 C 239.111 0.390291 -3.57979 0
M  V30 2438 C 238.964 -0.913014 -4.40436 0
M  V30 2439 C 240.283 1.16794 -4.2432 0
M  V30 2440 H 237.402 0.0541924 -0.735005 0
M  V30 2441 H 240.044 -0.554955 -1.81715 0
M  V30 2442 H 238.194 0.993491 -3.75582 0
M  V30 2443 H 239.866 -1.54882 -4.34522 0
M  V30 2444 H 238.109 -1.52168 -4.06236 0
M  V30 2445 H 238.78 -0.701361 -5.47526 0
M  V30 2446 H 241.256 0.657161 -4.10878 0
M  V30 2447 H 240.132 1.3026 -5.3322 0
M  V30 2448 H 240.393 2.19132 -3.83971 0
M  V30 2449 N 239.452 1.56882 -0.150215 0
M  V30 2450 C 240.7 1.9584 0.499105 0
M  V30 2451 C 241.021 1.03623 1.65188 0
M  V30 2452 O 240.291 0.0984084 1.95653 0
M  V30 2453 H 238.871 0.723119 0.187373 0
M  V30 2454 H 241.533 1.9358 -0.226466 0
M  V30 2455 H 240.629 2.99638 0.873122 0
M  V30 2456 N 240.93 -0.123565 1.57115 0
M  V30 2457 C 242.176 -0.828428 1.85765 0
M  V30 2458 C 242.531 -1.77709 0.737371 0
M  V30 2459 O 241.824 -1.89787 -0.262978 0
M  V30 2460 C 242.018 -1.62016 3.18568 0
M  V30 2461 C 241.847 -0.749663 4.43407 0
M  V30 2462 C 240.617 -0.406251 5.03664 0
M  V30 2463 C 242.815 -0.0693505 5.14253 0
M  V30 2464 N 240.797 0.475389 6.12057 0
M  V30 2465 C 242.168 0.671474 6.16353 0
M  V30 2466 C 244.223 0.00754393 4.97899 0
M  V30 2467 C 242.926 1.48197 7.03868 0
M  V30 2468 C 244.952 0.804845 5.85898 0
M  V30 2469 C 244.314 1.53388 6.87497 0
M  V30 2470 H 240.413 -0.280219 0.73007 0
M  V30 2471 H 242.997 -0.0924183 1.94481 0
M  V30 2472 H 241.168 -2.32724 3.10957 0
M  V30 2473 H 242.9 -2.27 3.35042 0
M  V30 2474 H 239.655 -0.747446 4.67665 0
M  V30 2475 H 240.079 0.907924 6.70884 0
M  V30 2476 H 244.721 -0.541741 4.19315 0
M  V30 2477 H 242.439 2.04242 7.81864 0
M  V30 2478 H 246.025 0.866642 5.75309 0
M  V30 2479 H 244.905 2.1409 7.5441 0
M  V30 2480 N 242.408 -1.52605 -0.393616 0
M  V30 2481 C 243.654 -1.67672 -1.14079 0
M  V30 2482 C 243.987 -0.413121 -1.89755 0
M  V30 2483 O 243.262 0.588952 -1.85369 0
M  V30 2484 C 243.545 -2.9088 -2.12276 0
M  V30 2485 C 243.398 -4.27329 -1.40394 0
M  V30 2486 C 244.717 -3.09628 -3.12759 0
M  V30 2487 H 241.836 -0.610168 -0.413356 0
M  V30 2488 H 244.478 -1.85193 -0.424696 0
M  V30 2489 H 242.628 -2.76073 -2.73342 0
M  V30 2490 H 244.3 -4.53894 -0.82327 0
M  V30 2491 H 242.543 -4.2802 -0.705801 0
M  V30 2492 H 243.214 -5.09615 -2.12123 0
M  V30 2493 H 245.69 -3.23436 -2.61779 0
M  V30 2494 H 244.566 -3.97322 -3.78717 0
M  V30 2495 H 244.827 -2.23637 -3.81365 0
M  V30 2496 N 243.887 0.651787 -1.4349 0
M  V30 2497 C 244.817 1.77621 -1.51569 0
M  V30 2498 C 245.798 1.66022 -0.370253 0
M  V30 2499 O 246.983 1.85095 -0.587658 0
M  V30 2500 C 244.113 3.16056 -1.43966 0
M  V30 2501 C 243.067 3.4242 -2.56774 0
M  V30 2502 C 242.393 4.8067 -2.34223 0
M  V30 2503 C 243.693 3.37023 -3.99015 0
M  V30 2504 H 245.387 1.71117 -2.45681 0
M  V30 2505 H 242.933 0.821825 -1.18246 0
M  V30 2506 H 244.886 3.94472 -1.48221 0
M  V30 2507 H 243.61 3.23293 -0.463586 0
M  V30 2508 H 242.269 2.66375 -2.51873 0
M  V30 2509 H 241.917 4.84585 -1.34856 0
M  V30 2510 H 241.617 4.9927 -3.09844 0
M  V30 2511 H 243.141 5.61342 -2.40265 0
M  V30 2512 H 244.555 4.05374 -4.05395 0
M  V30 2513 H 242.952 3.67159 -4.74673 0
M  V30 2514 H 244.022 2.3518 -4.2405 0
M  V30 2515 N 245.365 1.30045 0.890287 0
M  V30 2516 C 246.595 1.21296 1.67245 0
M  V30 2517 C 247.003 -0.227471 1.87828 0
M  V30 2518 O 246.346 -1.16296 1.422 0
M  V30 2519 C 246.408 1.86519 3.07329 0
M  V30 2520 C 246.072 3.35837 3.09939 0
M  V30 2521 C 247.069 4.31915 2.89389 0
M  V30 2522 C 244.754 3.77196 3.31706 0
M  V30 2523 C 246.748 5.67325 2.90552 0
M  V30 2524 C 244.435 5.12725 3.32499 0
M  V30 2525 C 245.433 6.076 3.11947 0
M  V30 2526 O 245.121 7.40655 3.12547 0
M  V30 2527 H 244.853 0.4211 0.528821 0
M  V30 2528 H 247.407 1.72111 1.12103 0
M  V30 2529 H 245.637 1.30228 3.64112 0
M  V30 2530 H 247.326 1.71963 3.67673 0
M  V30 2531 H 248.092 4.01294 2.72375 0
M  V30 2532 H 243.971 3.03796 3.4674 0
M  V30 2533 H 247.515 6.41354 2.74429 0
M  V30 2534 H 243.412 5.42988 3.49047 0
M  V30 2535 H 244.18 7.49577 3.28749 0
M  V30 2536 N 246.843 -1.10192 1.12674 0
M  V30 2537 C 248.254 -1.63707 0.897604 0
M  V30 2538 C 248.605 -1.87812 -0.567546 0
M  V30 2539 O 247.73 -1.62196 -1.43253 0
M  V30 2540 C 248.325 -2.974 1.62292 0
M  V30 2541 C 246.884 -3.47772 1.43986 0
M  V30 2542 C 246.031 -2.22332 1.65722 0
M  V30 2543 H 248.982 -0.936587 1.28116 0
M  V30 2544 H 249.003 -3.64986 1.07541 0
M  V30 2545 H 248.515 -2.79824 2.68924 0
M  V30 2546 H 246.616 -3.70487 0.396206 0
M  V30 2547 H 246.729 -4.25723 2.19765 0
M  V30 2548 H 245.093 -2.30599 1.08149 0
M  V30 2549 H 245.876 -2.07285 2.73657 0
M  V30 2550 N 248.321 -0.919034 -1.28029 0
M  V30 2551 C 249.732 -0.600735 -1.76771 0
M  V30 2552 C 250.083 0.884024 -1.75156 0
M  V30 2553 O 249.208 1.69163 -1.34956 0
M  V30 2554 C 249.803 -1.08372 -3.21 0
M  V30 2555 C 248.362 -0.816248 -3.67443 0
M  V30 2556 C 247.509 -1.24742 -2.47658 0
M  V30 2557 H 250.46 -1.09974 -1.14418 0
M  V30 2558 H 250.481 -0.427512 -3.78091 0
M  V30 2559 H 249.993 -2.16437 -3.22144 0
M  V30 2560 H 248.094 0.250968 -3.71754 0
M  V30 2561 H 248.207 -1.4277 -4.57333 0
M  V30 2562 H 246.571 -0.666083 -2.45836 0
M  V30 2563 H 247.354 -2.33653 -2.51518 0
M  V30 2564 N 249.799 1.42003 -0.683588 0
M  V30 2565 C 250.729 2.33487 -0.024866 0
M  V30 2566 C 251.71 1.51163 0.779975 0
M  V30 2567 O 252.895 1.79739 0.735362 0
M  V30 2568 C 250.025 3.3487 0.920836 0
M  V30 2569 C 248.979 4.27414 0.223958 0
M  V30 2570 C 248.305 5.19074 1.2832 0
M  V30 2571 C 249.605 5.14445 -0.90242 0
M  V30 2572 H 251.299 2.88819 -0.788921 0
M  V30 2573 H 248.845 1.38873 -0.38083 0
M  V30 2574 H 250.798 3.97787 1.39081 0
M  V30 2575 H 249.522 2.77861 1.71642 0
M  V30 2576 H 248.181 3.65904 -0.225864 0
M  V30 2577 H 247.829 4.58387 2.071 0
M  V30 2578 H 247.529 5.81822 0.821995 0
M  V30 2579 H 249.053 5.84867 1.75392 0
M  V30 2580 H 250.467 5.70998 -0.513272 0
M  V30 2581 H 248.864 5.86072 -1.28997 0
M  V30 2582 H 249.934 4.52322 -1.74737 0
M  V30 2583 N 251.277 0.427512 1.51691 0
M  V30 2584 C 252.502 -0.143601 2.06902 0
M  V30 2585 C 252.927 -1.36536 1.29382 0
M  V30 2586 O 252.285 -1.78289 0.329043 0
M  V30 2587 C 252.333 -0.454207 3.57728 0
M  V30 2588 O 251.437 -1.54228 3.82475 0
M  V30 2589 H 250.778 -0.00617128 0.663971 0
M  V30 2590 H 253.308 0.606014 1.95419 0
M  V30 2591 H 253.318 -0.707525 4.01818 0
M  V30 2592 H 251.993 0.438812 4.13579 0
M  V30 2593 H 250.57 -1.2797 3.50254 0
M  V30 2594 N 252.755 -1.56801 0.158532 0
M  V30 2595 C 253.983 -2.00859 -0.496303 0
M  V30 2596 C 254.398 -1.03871 -1.57659 0
M  V30 2597 O 253.755 -0.0375165 -1.82461 0
M  V30 2598 C 253.806 -3.4479 -1.08638 0
M  V30 2599 O 253.527 -4.38072 -0.0492322 0
M  V30 2600 C 255.028 -4.04185 -1.8207 0
M  V30 2601 H 252.248 -0.65864 -0.128199 0
M  V30 2602 H 254.792 -2.02885 0.256506 0
M  V30 2603 H 252.947 -3.43579 -1.78975 0
M  V30 2604 H 253.361 -5.2227 -0.483102 0
M  V30 2605 H 254.835 -5.06857 -2.18633 0
M  V30 2606 H 255.312 -3.45549 -2.71095 0
M  V30 2607 H 255.918 -4.0906 -1.16405 0
M  V30 2608 N 254.233 0.115231 -1.57178 0
M  V30 2609 C 255.461 0.836437 -1.89239 0
M  V30 2610 C 255.876 1.73256 -0.750175 0
M  V30 2611 O 255.233 1.80357 0.278832 0
M  V30 2612 C 255.284 1.66671 -3.20785 0
M  V30 2613 O 255.005 0.806652 -4.3061 0
M  V30 2614 C 256.506 2.49274 -3.66575 0
M  V30 2615 H 253.726 0.240253 -0.626514 0
M  V30 2616 H 256.27 0.0984932 -2.04263 0
M  V30 2617 H 254.425 2.35737 -3.0742 0
M  V30 2618 H 254.839 1.37969 -5.06028 0
M  V30 2619 H 256.313 3.03055 -4.6137 0
M  V30 2620 H 256.79 3.26807 -2.93417 0
M  V30 2621 H 257.396 1.85443 -3.82741 0
M  V30 2622 N 255.711 1.52812 0.385517 0
M  V30 2623 C 256.621 1.80766 1.49535 0
M  V30 2624 C 257.637 0.694651 1.59532 0
M  V30 2625 O 258.813 0.982611 1.75803 0
M  V30 2626 C 255.878 1.97381 2.85029 0
M  V30 2627 C 254.939 3.21295 2.84724 0
M  V30 2628 C 254.172 3.37108 4.13756 0
M  V30 2629 O 254.395 2.5765 5.08893 0
M  V30 2630 O 253.329 4.30378 4.20783 0
M  V30 2631 H 257.155 2.75015 1.28842 0
M  V30 2632 H 254.74 1.37946 0.573697 0
M  V30 2633 H 256.622 2.09996 3.65349 0
M  V30 2634 H 255.297 1.06322 3.05741 0
M  V30 2635 H 254.204 3.1412 2.03174 0
M  V30 2636 H 255.537 4.12212 2.68965 0
M  V30 2637 N 257.189 -0.644168 1.43834 0
M  V30 2638 C 258.152 -1.73857 1.49353 0
M  V30 2639 C 259.152 -1.56315 0.377112 0
M  V30 2640 O 260.342 -1.62048 0.639226 0
M  V30 2641 C 257.474 -3.12819 1.35488 0
M  V30 2642 H 258.667 -1.70342 2.46827 0
M  V30 2643 H 256.22 -0.856652 1.30733 0
M  V30 2644 H 256.955 -3.2194 0.390569 0
M  V30 2645 H 256.74 -3.26958 2.16428 0
M  V30 2646 H 258.23 -3.92606 1.42302 0
M  V30 2647 N 258.668 -1.30515 -0.883378 0
M  V30 2648 C 259.916 -1.19194 -1.63209 0
M  V30 2649 C 260.237 0.253205 -1.93349 0
M  V30 2650 O 259.507 1.17025 -1.57105 0
M  V30 2651 H 258.087 -0.438148 -0.605009 0
M  V30 2652 H 260.749 -1.63663 -1.05832 0
M  V30 2653 H 259.845 -1.75396 -2.58153 0
M  V30 2654 N 260.146 1.09593 -1.13257 0
M  V30 2655 C 261.376 1.85231 -0.915049 0
M  V30 2656 C 261.784 1.81345 0.539498 0
M  V30 2657 O 261.127 1.20664 1.38513 0
M  V30 2658 C 261.189 3.34275 -1.3229 0
M  V30 2659 C 260.853 3.6191 -2.79052 0
M  V30 2660 C 261.85 3.57777 -3.77216 0
M  V30 2661 C 259.535 3.90309 -3.16171 0
M  V30 2662 C 261.529 3.81652 -5.1051 0
M  V30 2663 C 259.216 4.13839 -4.49644 0
M  V30 2664 C 260.214 4.09502 -5.46623 0
M  V30 2665 O 259.902 4.32426 -6.77689 0
M  V30 2666 H 259.634 0.591997 -0.326367 0
M  V30 2667 H 262.188 1.394 -1.50854 0
M  V30 2668 H 260.418 3.80805 -0.672667 0
M  V30 2669 H 262.107 3.9132 -1.07812 0
M  V30 2670 H 262.873 3.35865 -3.49885 0
M  V30 2671 H 258.752 3.92811 -2.41289 0
M  V30 2672 H 262.296 3.78182 -5.86195 0
M  V30 2673 H 258.193 4.35232 -4.767 0
M  V30 2674 H 258.961 4.49896 -6.83766 0
M  V30 2675 N 261.624 0.925811 1.2754 0
M  V30 2676 C 262.849 0.580924 1.99098 0
M  V30 2677 C 263.274 -0.833555 1.68622 0
M  V30 2678 O 262.632 -1.55903 0.925422 0
M  V30 2679 C 262.68 0.811186 3.51358 0
M  V30 2680 O 261.784 -0.124129 4.12213 0
M  V30 2681 H 261.125 0.223873 0.625122 0
M  V30 2682 H 263.655 1.24455 1.62395 0
M  V30 2683 H 263.665 0.72601 4.01489 0
M  V30 2684 H 262.34 1.84227 3.72872 0
M  V30 2685 H 260.917 0.0108006 3.72898 0
M  V30 2686 N 263.102 -1.41638 0.69111 0
M  V30 2687 C 264.035 -2.28183 -0.0274913 0
M  V30 2688 C 265.013 -1.41984 -0.792424 0
M  V30 2689 O 266.197 -1.71415 -0.784169 0
M  V30 2690 C 263.324 -3.22135 -1.04628 0
M  V30 2691 C 262.37 -4.24848 -0.375037 0
M  V30 2692 S 263.203 -5.28231 0.879321 0
M  V30 2693 C 264.359 -6.25748 -0.137983 0
M  V30 2694 H 264.592 -2.88782 0.706553 0
M  V30 2695 H 262.125 -1.46709 0.481222 0
M  V30 2696 H 264.083 -3.76797 -1.62894 0
M  V30 2697 H 262.744 -2.6064 -1.75287 0
M  V30 2698 H 261.937 -4.90837 -1.14433 0
M  V30 2699 H 261.539 -3.73758 0.134434 0
M  V30 2700 H 263.831 -6.70188 -0.992659 0
M  V30 2701 H 264.774 -7.06417 0.487867 0
M  V30 2702 H 265.182 -5.62363 -0.490762 0
M  V30 2703 N 264.58 -0.43555 -1.51462 0
M  V30 2704 C 265.857 0.191364 -1.94662 0
M  V30 2705 C 266.237 1.60254 -1.37411 0
M  V30 2706 O 265.585 2.2152 -0.560458 0
M  V30 2707 C 265.795 0.17091 -3.48581 0
M  V30 2708 C 267.143 0.377357 -4.2292 0
M  V30 2709 O 268.167 0.249104 -3.55328 0
M  V30 2710 O 267.026 0.63247 -5.42828 0
M  V30 2711 H 264.12 0.130932 -0.816569 0
M  V30 2712 H 266.666 -0.4934 -1.62369 0
M  V30 2713 H 265.438 -0.815738 -3.82703 0
M  V30 2714 H 265.061 0.898659 -3.87311 0
M  V30 2715 N 266.058 1.56714 -0.166846 0
M  V30 2716 C 266.988 2.20754 0.760913 0
M  V30 2717 C 267.969 1.16178 1.24244 0
M  V30 2718 O 269.154 1.44592 1.29641 0
M  V30 2719 C 266.284 2.84478 1.99223 0
M  V30 2720 C 265.238 3.95053 1.64672 0
M  V30 2721 C 264.564 4.45805 2.95232 0
M  V30 2722 C 265.864 5.14865 0.878155 0
M  V30 2723 H 267.558 2.98537 0.22713 0
M  V30 2724 H 265.104 1.43596 0.107805 0
M  V30 2725 H 267.057 3.27951 2.64624 0
M  V30 2726 H 265.781 2.04056 2.55007 0
M  V30 2727 H 264.44 3.52228 1.01641 0
M  V30 2728 H 264.088 3.62181 3.49047 0
M  V30 2729 H 263.788 5.204 2.7287 0
M  V30 2730 H 265.312 4.91962 3.6167 0
M  V30 2731 H 266.726 5.55059 1.43466 0
M  V30 2732 H 265.123 5.95348 0.753738 0
M  V30 2733 H 266.193 4.84735 -0.126377 0
M  V30 2734 N 267.536 -0.106894 1.57237 0
M  V30 2735 C 268.499 -1.11466 2.0027 0
M  V30 2736 C 269.499 -1.33623 0.894519 0
M  V30 2737 O 270.689 -1.29935 1.16028 0
M  V30 2738 C 267.821 -2.46646 2.35327 0
M  V30 2739 H 269.014 -0.744516 2.90512 0
M  V30 2740 H 266.567 -0.351576 1.52295 0
M  V30 2741 H 267.302 -2.88558 1.48003 0
M  V30 2742 H 267.087 -2.31915 3.16161 0
M  V30 2743 H 268.577 -3.19151 2.69318 0
M  V30 2744 N 269.014 -1.53014 -0.377408 0
M  V30 2745 C 270.263 -1.67845 -1.11853 0
M  V30 2746 C 270.576 -0.430625 -1.90801 0
M  V30 2747 O 271.782 -0.459261 -2.67587 0
M  V30 2748 C 270.238 -2.96668 -2.03756 0
M  V30 2749 C 269.846 -4.28671 -1.30175 0
M  V30 2750 C 271.59 -3.20865 -2.77932 0
M  V30 2751 C 269.497 -5.48591 -2.20911 0
M  V30 2752 H 268.427 -0.625343 -0.421263 0
M  V30 2753 H 271.078 -1.79514 -0.380409 0
M  V30 2754 H 269.46 -2.78773 -2.8125 0
M  V30 2755 H 270.634 -4.57157 -0.578259 0
M  V30 2756 H 268.949 -4.10825 -0.679108 0
M  V30 2757 H 271.546 -4.07642 -3.46024 0
M  V30 2758 H 271.889 -2.36424 -3.4265 0
M  V30 2759 H 272.422 -3.39379 -2.07525 0
M  V30 2760 H 269.161 -6.35474 -1.6079 0
M  V30 2761 H 268.681 -5.244 -2.91144 0
M  V30 2762 H 270.36 -5.8292 -2.80736 0
M  V30 2763 N 270.492 0.636531 -1.44174 0
M  V30 2764 C 271.739 1.39619 -1.46672 0
M  V30 2765 C 272.067 1.94257 -0.0972691 0
M  V30 2766 O 271.322 1.73768 0.900175 0
M  V30 2767 C 271.621 2.58309 -2.47005 0
M  V30 2768 C 271.287 2.21992 -3.92467 0
M  V30 2769 C 269.949 2.118 -4.32081 0
M  V30 2770 C 272.301 1.9321 -4.84065 0
M  V30 2771 C 269.629 1.71007 -5.61225 0
M  V30 2772 C 271.981 1.53911 -6.13591 0
M  V30 2773 C 270.645 1.42257 -6.52165 0
M  V30 2774 H 269.915 0.510902 -0.536712 0
M  V30 2775 H 272.562 0.722328 -1.77355 0
M  V30 2776 H 270.867 3.30903 -2.09786 0
M  V30 2777 H 272.564 3.16533 -2.46186 0
M  V30 2778 H 269.154 2.30841 -3.61124 0
M  V30 2779 H 273.338 1.99997 -4.54219 0
M  V30 2780 H 268.594 1.60583 -5.89935 0
M  V30 2781 H 272.768 1.30677 -6.8403 0
M  V30 2782 H 270.395 1.10419 -7.52138 0
M  V30 2783 N 271.97 1.30982 0.876444 0
M  V30 2784 C 272.933 1.18054 1.96459 0
M  V30 2785 C 273.933 0.109399 1.60427 0
M  V30 2786 O 275.123 0.358173 1.70478 0
M  V30 2787 C 272.255 0.810616 3.31122 0
M  V30 2788 H 273.448 2.14735 2.09354 0
M  V30 2789 H 271.001 1.145 1.06392 0
M  V30 2790 H 271.736 -0.155322 3.23928 0
M  V30 2791 H 271.521 1.58481 3.58645 0
M  V30 2792 H 273.011 0.743876 4.10921 0
M  V30 2793 N 273.449 -1.08991 1.13837 0
M  V30 2794 C 274.695 -1.81526 0.90422 0
M  V30 2795 C 275.028 -1.85706 -0.568066 0
M  V30 2796 O 274.303 -1.32855 -1.42056 0
M  V30 2797 C 274.586 -3.27447 1.49835 0
M  V30 2798 C 274.439 -3.31512 3.04006 0
M  V30 2799 C 275.758 -4.24256 1.17025 0
M  V30 2800 H 272.877 -0.659029 0.329923 0
M  V30 2801 H 275.519 -1.27644 1.40737 0
M  V30 2802 H 273.669 -3.73462 1.07044 0
M  V30 2803 H 275.341 -2.93867 3.55584 0
M  V30 2804 H 273.584 -2.70963 3.38765 0
M  V30 2805 H 274.255 -4.34329 3.40679 0
M  V30 2806 H 276.731 -3.86549 1.54009 0
M  V30 2807 H 275.607 -5.24684 1.61237 0
M  V30 2808 H 275.868 -4.42019 0.0846274 0
M  V30 2809 N 274.927 -0.932562 -1.27047 0
M  V30 2810 C 275.877 -0.406392 -2.24349 0
M  V30 2811 C 276.861 0.492066 -1.53191 0
M  V30 2812 O 278.053 0.328717 -1.73921 0
M  V30 2813 C 275.182 0.335214 -3.41659 0
M  V30 2814 C 274.268 -0.58004 -4.20115 0
M  V30 2815 N 274.659 -1.70203 -4.76303 0
M  V30 2816 C 272.957 -0.383974 -4.44344 0
M  V30 2817 C 273.658 -2.27167 -5.35509 0
M  V30 2818 N 272.634 -1.56068 -5.20715 0
M  V30 2819 H 276.436 -1.26299 -2.65378 0
M  V30 2820 H 273.95 -0.787408 -1.42034 0
M  V30 2821 H 275.947 0.729142 -4.10474 0
M  V30 2822 H 274.607 1.18868 -3.0216 0
M  V30 2823 H 275.618 -2.08433 -4.74106 0
M  V30 2824 H 272.295 0.428436 -4.15296 0
M  V30 2825 H 273.685 -3.21654 -5.89905 0
M  V30 2826 N 276.405 1.4127 -0.698611 0
M  V30 2827 C 277.651 2.01478 -0.231207 0
M  V30 2828 C 277.984 1.55215 1.16713 0
M  V30 2829 O 277.259 0.764672 1.78838 0
M  V30 2830 C 277.542 3.58912 -0.292281 0
M  V30 2831 C 277.395 4.15293 -1.72778 0
M  V30 2832 C 278.714 4.38736 0.346194 0
M  V30 2833 H 275.833 0.732025 -0.0854878 0
M  V30 2834 H 278.475 1.67977 -0.887906 0
M  V30 2835 H 276.625 3.87582 0.26686 0
M  V30 2836 H 278.297 3.97486 -2.341 0
M  V30 2837 H 276.54 3.7022 -2.26096 0
M  V30 2838 H 277.211 5.24452 -1.72202 0
M  V30 2839 H 279.687 4.15897 -0.130035 0
M  V30 2840 H 278.563 5.48221 0.272932 0
M  V30 2841 H 278.824 4.18425 1.42734 0
M  V30 2842 N 277.883 0.443576 1.51229 0
M  V30 2843 C 279.108 -0.121648 2.07043 0
M  V30 2844 C 279.533 -1.35156 1.30823 0
M  V30 2845 O 278.891 -1.7793 0.347934 0
M  V30 2846 C 278.939 -0.41624 3.5819 0
M  V30 2847 O 278.043 -1.50163 3.8409 0
M  V30 2848 H 277.384 0.000871367 0.663999 0
M  V30 2849 H 279.914 0.626706 1.94765 0
M  V30 2850 H 279.924 -0.664867 4.02546 0
M  V30 2851 H 278.599 0.482653 4.1309 0
M  V30 2852 H 277.176 -1.24248 3.51592 0
M  V30 2853 N 279.361 -1.56624 0.175154 0
M  V30 2854 C 280.609 -1.96609 -0.467885 0
M  V30 2855 C 280.93 -1.06238 -1.63519 0
M  V30 2856 O 280.2 -0.129523 -1.95471 0
M  V30 2857 H 278.78 -0.726008 -0.175845 0
M  V30 2858 H 281.442 -1.93195 0.257234 0
M  V30 2859 H 280.538 -3.00989 -0.825342 0
M  V30 2860 N 280.839 0.0985539 -1.57292 0
M  V30 2861 C 281.802 1.10402 -2.00858 0
M  V30 2862 C 282.802 1.33146 -0.901593 0
M  V30 2863 O 283.992 1.29318 -1.16716 0
M  V30 2864 C 281.124 2.45394 -2.36632 0
M  V30 2865 H 282.317 0.729099 -2.90902 0
M  V30 2866 H 279.87 0.343495 -1.52479 0
M  V30 2867 H 280.605 2.87769 -1.49531 0
M  V30 2868 H 280.39 2.30235 -3.17387 0
M  V30 2869 H 281.88 3.17718 -2.71007 0
M  V30 2870 N 282.317 1.53212 0.369288 0
M  V30 2871 C 283.542 1.73423 1.1375 0
M  V30 2872 C 283.967 0.460404 1.82378 0
M  V30 2873 O 283.325 -0.585298 1.71592 0
M  V30 2874 C 283.373 2.89769 2.1463 0
M  V30 2875 O 282.477 2.58119 3.21634 0
M  V30 2876 H 281.818 0.576061 0.330227 0
M  V30 2877 H 284.348 2.00083 0.427547 0
M  V30 2878 H 284.358 3.15829 2.58294 0
M  V30 2879 H 283.033 3.8217 1.64071 0
M  V30 2880 H 281.61 2.42864 2.82969 0
M  V30 2881 N 283.795 -0.628877 1.44509 0
M  V30 2882 C 285.02 -1.42048 1.5112 0
M  V30 2883 C 285.445 -1.87594 0.137818 0
M  V30 2884 O 284.803 -1.58873 -0.873437 0
M  V30 2885 C 284.851 -2.61541 2.48251 0
M  V30 2886 O 283.955 -3.61453 1.98559 0
M  V30 2887 H 283.296 -0.424942 0.510216 0
M  V30 2888 H 285.826 -0.767374 1.89664 0
M  V30 2889 H 285.836 -3.09057 2.66361 0
M  V30 2890 H 284.511 -2.27736 3.48007 0
M  V30 2891 H 283.088 -3.20731 1.90227 0
M  V30 2892 N 285.273 -1.31445 -0.869486 0
M  V30 2893 C 286.522 -1.20517 -1.61736 0
M  V30 2894 C 286.835 0.235341 -1.94179 0
M  V30 2895 O 288.041 0.466312 -2.67465 0
M  V30 2896 C 286.497 -2.10982 -2.91573 0
M  V30 2897 C 286.105 -3.60032 -2.66611 0
M  V30 2898 C 287.849 -2.08856 -3.69567 0
M  V30 2899 C 285.756 -4.42503 -3.92358 0
M  V30 2900 H 284.686 -0.447493 -0.606849 0
M  V30 2901 H 287.337 -1.56303 -0.96133 0
M  V30 2902 H 285.719 -1.68095 -3.58553 0
M  V30 2903 H 286.893 -4.11167 -2.08035 0
M  V30 2904 H 285.208 -3.64139 -2.0197 0
M  V30 2905 H 287.805 -2.67716 -4.62852 0
M  V30 2906 H 288.148 -1.07582 -4.02159 0
M  V30 2907 H 288.681 -2.49945 -3.09471 0
M  V30 2908 H 285.42 -5.44533 -3.64916 0
M  V30 2909 H 284.94 -3.96125 -4.50383 0
M  V30 2910 H 286.619 -4.54741 -4.60238 0
M  V30 2911 N 286.751 1.08385 -1.14413 0
M  V30 2912 C 287.681 2.17321 -0.854044 0
M  V30 2913 C 288.662 1.69024 0.191049 0
M  V30 2914 O 289.847 1.94141 0.0476779 0
M  V30 2915 C 286.977 3.45719 -0.330983 0
M  V30 2916 C 285.931 4.07409 -1.31155 0
M  V30 2917 C 285.257 5.30762 -0.64778 0
M  V30 2918 C 286.557 4.48665 -2.67388 0
M  V30 2919 H 288.251 2.41845 -1.76498 0
M  V30 2920 H 285.797 1.16233 -0.850051 0
M  V30 2921 H 287.75 4.21241 -0.115645 0
M  V30 2922 H 286.474 3.2075 0.615381 0
M  V30 2923 H 285.133 3.33919 -1.51306 0
M  V30 2924 H 284.781 5.02078 0.304398 0
M  V30 2925 H 284.481 5.72992 -1.30207 0
M  V30 2926 H 286.005 6.08998 -0.441972 0
M  V30 2927 H 287.419 5.15364 -2.51143 0
M  V30 2928 H 285.816 5.01814 -3.29093 0
M  V30 2929 H 286.886 3.60543 -3.24248 0
M  V30 2930 N 288.23 0.939286 1.26551 0
M  V30 2931 C 289.478 0.58469 1.93457 0
M  V30 2932 C 289.799 -0.878774 1.74076 0
M  V30 2933 O 289.069 -1.62421 1.09528 0
M  V30 2934 H 287.649 0.21325 0.715914 0
M  V30 2935 H 290.311 1.1942 1.54029 0
M  V30 2936 H 289.407 0.800849 3.0165 0
M  V30 2937 N 289.708 -1.40897 0.706093 0
M  V30 2938 C 290.671 -2.29131 0.0562841 0
M  V30 2939 C 291.671 -1.44901 -0.697166 0
M  V30 2940 O 292.861 -1.65926 -0.530484 0
M  V30 2941 C 289.993 -3.27957 -0.93043 0
M  V30 2942 H 291.186 -2.88091 0.833284 0
M  V30 2943 H 288.739 -1.4906 0.470192 0
M  V30 2944 H 289.474 -2.73997 -1.73482 0
M  V30 2945 H 289.259 -3.90124 -0.393166 0
M  V30 2946 H 290.749 -3.94049 -1.38256 0
M  V30 2947 N 291.186 -0.45159 -1.50991 0
M  V30 2948 C 292.435 0.111653 -2.01391 0
M  V30 2949 C 292.748 1.42529 -1.33959 0
M  V30 2950 O 293.954 2.07232 -1.75405 0
M  V30 2951 C 292.41 0.249514 -3.59034 0
M  V30 2952 C 292.018 -1.05453 -4.35412 0
M  V30 2953 C 293.762 0.765762 -4.17536 0
M  V30 2954 C 291.669 -0.881529 -5.84793 0
M  V30 2955 H 290.599 0.0455022 -0.752626 0
M  V30 2956 H 293.25 -0.583524 -1.73975 0
M  V30 2957 H 291.632 1.00803 -3.82955 0
M  V30 2958 H 292.806 -1.82248 -4.23229 0
M  V30 2959 H 291.121 -1.50039 -3.88429 0
M  V30 2960 H 293.718 0.911913 -5.26866 0
M  V30 2961 H 294.061 1.75201 -3.77638 0
M  V30 2962 H 294.594 0.0651744 -3.97747 0
M  V30 2963 H 291.333 -1.84057 -6.29129 0
M  V30 2964 H 290.853 -0.153625 -5.99603 0
M  V30 2965 H 292.532 -0.540363 -6.4474 0
M  V30 2966 N 292.664 1.56529 -0.183458 0
M  V30 2967 C 293.612 2.19873 0.758845 0
M  V30 2968 C 294.606 1.16638 1.22849 0
M  V30 2969 O 295.812 1.3481 1.19274 0
M  V30 2970 H 292.187 0.7045 0.263029 0
M  V30 2971 H 294.158 2.97724 0.200755 0
M  V30 2972 C 292.907 2.86314 1.9728 0
M  V30 2973 H 292.23 3.65487 1.62047 0
M  V30 2974 H 293.67 3.3409 2.61075 0
M  V30 2975 C 292.129 1.86729 2.80418 0
M  V30 2976 O 292.659 1.36031 3.77966 0
M  V30 2977 N 290.865 1.55216 2.45675 0
M  V30 2978 H 290.412 1.96636 1.66409 0
M  V30 2979 H 290.37 0.888388 3.01588 0
M  V30 2980 N 294.142 -0.090211 1.57342 0
M  V30 2981 C 295.391 -0.791531 1.8552 0
M  V30 2982 C 295.704 -1.79659 0.773441 0
M  V30 2983 O 296.91 -2.54616 0.942497 0
M  V30 2984 C 295.366 -1.45856 3.2902 0
M  V30 2985 C 294.974 -0.493017 4.45279 0
M  V30 2986 C 296.718 -2.14332 3.66418 0
M  V30 2987 C 294.625 -1.16491 5.79814 0
M  V30 2988 H 293.555 -0.299356 0.692027 0
M  V30 2989 H 296.206 -0.0445343 1.83446 0
M  V30 2990 H 294.588 -2.25318 3.2565 0
M  V30 2991 H 295.762 0.270464 4.60006 0
M  V30 2992 H 294.077 0.0863061 4.16311 0
M  V30 2993 H 296.674 -2.65344 4.64216 0
M  V30 2994 H 297.017 -2.93447 2.95287 0
M  V30 2995 H 297.55 -1.41724 3.71698 0
M  V30 2996 H 294.289 -0.41447 6.54188 0
M  V30 2997 H 293.809 -1.8997 5.68921 0
M  V30 2998 H 295.488 -1.69001 6.24538 0
M  V30 2999 N 295.62 -1.53406 -0.361157 0
M  V30 3000 C 296.869 -1.69022 -1.10066 0
M  V30 3001 C 297.182 -0.450838 -1.90333 0
M  V30 3002 O 298.388 -0.487617 -2.67085 0
M  V30 3003 C 296.844 -2.98812 -2.00598 0
M  V30 3004 C 296.452 -4.30027 -1.25621 0
M  V30 3005 C 298.196 -3.23795 -2.74513 0
M  V30 3006 C 296.103 -5.50903 -2.1508 0
M  V30 3007 H 295.033 -0.629776 -0.414606 0
M  V30 3008 H 297.684 -1.79907 -0.361348 0
M  V30 3009 H 296.066 -2.8174 -2.78278 0
M  V30 3010 H 297.24 -4.57745 -0.529739 0
M  V30 3011 H 295.555 -4.11522 -0.635496 0
M  V30 3012 H 298.152 -4.11289 -3.41681 0
M  V30 3013 H 298.495 -2.40045 -3.40123 0
M  V30 3014 H 299.028 -3.41561 -2.03914 0
M  V30 3015 H 295.767 -6.37143 -1.54041 0
M  V30 3016 H 295.287 -5.27459 -2.85565 0
M  V30 3017 H 296.966 -5.85865 -2.74538 0
M  V30 3018 N 297.098 0.621204 -1.44841 0
M  V30 3019 C 298.326 1.40752 -1.51646 0
M  V30 3020 C 298.741 1.88246 -0.144549 0
M  V30 3021 O 298.098 1.61422 0.851416 0
M  V30 3022 C 298.149 2.62119 -2.4895 0
M  V30 3023 O 297.87 2.16602 -3.80808 0
M  V30 3024 C 299.371 3.55135 -2.65319 0
M  V30 3025 H 296.591 0.431325 -0.514004 0
M  V30 3026 H 299.135 0.758835 -1.899 0
M  V30 3027 H 297.29 3.23058 -2.13805 0
M  V30 3028 H 297.704 2.95358 -4.33433 0
M  V30 3029 H 299.178 4.36874 -3.37409 0
M  V30 3030 H 299.655 4.04592 -1.70886 0
M  V30 3031 H 300.261 3.00058 -3.01405 0
M  V30 3032 N 298.576 1.31904 0.862503 0
M  V30 3033 C 299.804 1.24998 1.64873 0
M  V30 3034 C 300.219 -0.183425 1.87907 0
M  V30 3035 O 299.576 -1.11794 1.44251 0
M  V30 3036 C 299.627 1.99829 3.01248 0
M  V30 3037 O 299.348 3.37575 2.79239 0
M  V30 3038 C 300.849 1.99852 3.95694 0
M  V30 3039 H 298.069 0.431599 0.513773 0
M  V30 3040 H 300.613 1.73901 1.07604 0
M  V30 3041 H 298.768 1.54668 3.55185 0
M  V30 3042 H 299.182 3.75776 3.65914 0
M  V30 3043 H 300.656 2.56709 4.88676 0
M  V30 3044 H 301.133 0.982852 4.28062 0
M  V30 3045 H 301.739 2.44926 3.47694 0
M  V30 3046 N 300.054 -1.07777 1.14986 0
M  V30 3047 C 301.301 -1.8029 0.922056 0
M  V30 3048 C 301.629 -1.86531 -0.55105 0
M  V30 3049 O 300.884 -1.34189 -1.42449 0
M  V30 3050 C 301.183 -3.25495 1.47608 0
M  V30 3051 C 300.849 -3.39361 2.96893 0
M  V30 3052 C 299.511 -3.42852 3.37647 0
M  V30 3053 C 301.863 -3.42512 3.92854 0
M  V30 3054 C 299.191 -3.47094 4.73015 0
M  V30 3055 C 301.543 -3.4829 5.28088 0
M  V30 3056 C 300.207 -3.50058 5.68345 0
M  V30 3057 H 299.477 -0.659727 0.337404 0
M  V30 3058 H 302.124 -1.26854 1.43459 0
M  V30 3059 H 300.429 -3.81683 0.88463 0
M  V30 3060 H 302.126 -3.80168 1.27568 0
M  V30 3061 H 298.716 -3.37339 2.64387 0
M  V30 3062 H 302.9 -3.3904 3.62444 0
M  V30 3063 H 298.156 -3.46758 5.03556 0
M  V30 3064 H 302.33 -3.49675 6.02246 0
M  V30 3065 H 299.957 -3.53097 6.73221 0
M  V30 3066 N 301.532 -0.945985 -1.26051 0
M  V30 3067 C 302.462 -0.477172 -2.28572 0
M  V30 3068 C 303.443 0.472032 -1.63419 0
M  V30 3069 O 304.628 0.372853 -1.90587 0
M  V30 3070 C 301.758 0.253975 -3.4637 0
M  V30 3071 C 300.712 -0.609135 -4.23643 0
M  V30 3072 C 300.038 0.252252 -5.34105 0
M  V30 3073 C 301.338 -1.8829 -4.8718 0
M  V30 3074 H 303.032 -1.33402 -2.68038 0
M  V30 3075 H 300.578 -0.642904 -1.28852 0
M  V30 3076 H 302.531 0.593016 -4.17207 0
M  V30 3077 H 301.255 1.145 -3.05871 0
M  V30 3078 H 299.914 -0.931138 -3.54578 0
M  V30 3079 H 299.562 1.14278 -4.89846 0
M  V30 3080 H 299.262 -0.32188 -5.86718 0
M  V30 3081 H 300.786 0.586454 -6.07777 0
M  V30 3082 H 302.2 -1.61081 -5.50205 0
M  V30 3083 H 300.597 -2.40199 -5.49931 0
M  V30 3084 H 301.667 -2.59134 -4.09851 0
M  V30 3085 N 303.011 1.40521 -0.713556 0
M  V30 3086 C 303.959 2.32549 -0.0485227 0
M  V30 3087 C 304.953 1.51931 0.74922 0
M  V30 3088 O 306.159 1.67745 0.652816 0
M  V30 3089 H 302.534 0.751994 0.00311138 0
M  V30 3090 H 304.505 2.86291 -0.841443 0
M  V30 3091 C 303.254 3.36879 0.860687 0
M  V30 3092 H 302.577 3.98978 0.256246 0
M  V30 3093 H 304.017 4.03772 1.294 0
M  V30 3094 C 302.476 2.72197 1.9852 0
M  V30 3095 O 303.006 2.5837 3.07584 0
M  V30 3096 N 301.212 2.30612 1.76823 0
M  V30 3097 H 300.759 2.42059 0.881217 0
M  V30 3098 H 300.717 1.87672 2.52243 0
M  V30 3099 N 304.489 0.459591 1.5075 0
M  V30 3100 C 305.422 -0.386257 2.24907 0
M  V30 3101 C 306.4 -1.006 1.27744 0
M  V30 3102 O 307.584 -1.04416 1.56938 0
M  V30 3103 C 304.711 -1.54021 3.01654 0
M  V30 3104 C 303.757 -1.03898 4.13651 0
M  V30 3105 S 304.59 0.0370501 5.35487 0
M  V30 3106 C 305.746 -1.12105 6.15779 0
M  V30 3107 H 305.979 0.243272 2.96303 0
M  V30 3108 H 303.512 0.244339 1.52454 0
M  V30 3109 H 305.47 -2.20163 3.46466 0
M  V30 3110 H 304.131 -2.14121 2.29806 0
M  V30 3111 H 303.324 -1.90254 4.66711 0
M  V30 3112 H 302.926 -0.45545 3.71216 0
M  V30 3113 H 305.218 -2.03501 6.46215 0
M  V30 3114 H 306.161 -0.62995 7.05292 0
M  V30 3115 H 306.569 -1.36967 5.47631 0
M  V30 3116 N 305.967 -1.56429 0.191757 0
M  V30 3117 C 307.383 -1.58754 -0.164137 0
M  V30 3118 C 307.583 -1.20782 -1.61288 0
M  V30 3119 O 306.639 -0.928999 -2.34789 0
M  V30 3120 C 307.952 -3.00396 0.135195 0
M  V30 3121 C 309.5 -3.1291 0.0750351 0
M  V30 3122 C 309.975 -4.56679 0.347632 0
M  V30 3123 N 311.466 -4.62252 0.296131 0
M  V30 3124 C 312.201 -5.71379 0.480948 0
M  V30 3125 N 311.697 -6.88986 0.725933 0
M  V30 3126 N 313.49 -5.60563 0.415435 0
M  V30 3127 H 305.641 -1.79393 1.13718 0
M  V30 3128 H 307.904 -0.832414 0.453643 0
M  V30 3129 H 307.61 -3.32726 1.13958 0
M  V30 3130 H 307.484 -3.72963 -0.563773 0
M  V30 3131 H 309.871 -2.80394 -0.919948 0
M  V30 3132 H 309.952 -2.42736 0.807029 0
M  V30 3133 H 309.596 -4.89907 1.33992 0
M  V30 3134 H 309.526 -5.25039 -0.405212 0
M  V30 3135 H 312.017 -3.7773 0.113259 0
M  V30 3136 H 312.33 -7.68046 0.855857 0
M  V30 3137 H 310.675 -6.90801 0.762788 0
M  V30 3138 H 313.866 -4.67561 0.224486 0
M  V30 3139 H 314.039 -6.45551 0.562889 0
M  V30 3140 N 307.445 0.0818655 -1.57387 0
M  V30 3141 C 308.408 1.08265 -2.02018 0
M  V30 3142 C 309.408 1.32183 -0.915664 0
M  V30 3143 O 310.598 1.28073 -1.18081 0
M  V30 3144 C 307.73 2.42871 -2.39221 0
M  V30 3145 H 308.923 0.698204 -2.91659 0
M  V30 3146 H 306.476 0.327303 -1.52835 0
M  V30 3147 H 307.211 2.86167 -1.52575 0
M  V30 3148 H 306.996 2.26855 -3.19811 0
M  V30 3149 H 308.486 3.14826 -2.74362 0
M  V30 3150 N 308.923 1.53595 0.353017 0
M  V30 3151 C 310.334 1.61937 0.929153 0
M  V30 3152 C 310.685 0.494686 1.89861 0
M  V30 3153 O 309.81 -0.377017 2.1309 0
M  V30 3154 C 310.405 2.93526 1.69199 0
M  V30 3155 C 308.964 3.04161 2.21727 0
M  V30 3156 C 308.111 2.57322 1.03348 0
M  V30 3157 H 311.062 1.58155 0.131431 0
M  V30 3158 H 311.083 2.82034 2.55416 0
M  V30 3159 H 310.595 3.75362 0.986144 0
M  V30 3160 H 308.696 2.26938 2.95516 0
M  V30 3161 H 308.809 4.09465 2.48748 0
M  V30 3162 H 307.173 2.12499 1.40414 0
M  V30 3163 H 307.956 3.41588 0.342428 0
M  V30 3164 N 310.401 -0.613514 1.45168 0
M  V30 3165 C 311.649 -1.36997 1.48581 0
M  V30 3166 C 311.97 -1.94589 0.126545 0
M  V30 3167 O 311.24 -1.76816 -0.843372 0
M  V30 3168 H 309.82 -0.508558 0.547154 0
M  V30 3169 H 312.482 -0.720853 1.81079 0
M  V30 3170 H 311.578 -2.1924 2.22127 0
M  V30 3171 N 311.879 -1.3236 -0.855495 0
M  V30 3172 C 312.812 -1.15559 -1.96777 0
M  V30 3173 C 313.79 -0.0552681 -1.62506 0
M  V30 3174 O 314.974 -0.214419 -1.87277 0
M  V30 3175 C 312.101 -0.768851 -3.29858 0
M  V30 3176 C 311.147 -1.87429 -3.83109 0
M  V30 3177 S 311.98 -3.48243 -4.06801 0
M  V30 3178 C 313.136 -3.11539 -5.42858 0
M  V30 3179 H 313.369 -2.09717 -2.10727 0
M  V30 3180 H 310.902 -1.17011 -1.00737 0
M  V30 3181 H 312.86 -0.55248 -4.06765 0
M  V30 3182 H 311.521 0.153857 -3.13723 0
M  V30 3183 H 310.714 -1.55667 -4.79358 0
M  V30 3184 H 310.316 -2.04647 -3.13042 0
M  V30 3185 H 312.608 -2.61331 -6.2507 0
M  V30 3186 H 313.551 -4.06806 -5.79582 0
M  V30 3187 H 313.959 -2.48582 -5.06821 0
M  V30 3188 N 313.357 1.07166 -1.15556 0
M  V30 3189 C 314.585 1.83514 -0.955519 0
M  V30 3190 C 315 1.82163 0.49621 0
M  V30 3191 O 314.357 1.23441 1.34419 0
M  V30 3192 C 314.408 3.30515 -1.46432 0
M  V30 3193 O 314.129 3.31937 -2.85918 0
M  V30 3194 C 315.63 4.23625 -1.30603 0
M  V30 3195 H 312.85 0.578926 -0.339244 0
M  V30 3196 H 315.394 1.35265 -1.53374 0
M  V30 3197 H 313.549 3.76106 -0.928584 0
M  V30 3198 H 313.963 4.23794 -3.09029 0
M  V30 3199 H 315.437 5.24831 -1.71047 0
M  V30 3200 H 315.914 4.38485 -0.250441 0
M  V30 3201 H 316.52 3.83871 -1.83094 0
M  V30 3202 N 314.835 0.952656 1.25548 0
M  V30 3203 C 315.765 0.489287 2.28316 0
M  V30 3204 C 316.746 -0.463359 1.63667 0
M  V30 3205 O 317.931 -0.36274 1.90782 0
M  V30 3206 C 315.061 -0.235603 3.465 0
M  V30 3207 C 314.015 0.631593 4.23314 0
M  V30 3208 C 313.341 -0.223923 5.34231 0
M  V30 3209 C 314.641 1.90871 4.86174 0
M  V30 3210 H 316.335 1.34822 2.67326 0
M  V30 3211 H 313.881 0.649728 1.28509 0
M  V30 3212 H 315.834 -0.570882 4.17515 0
M  V30 3213 H 314.558 -1.12877 3.06474 0
M  V30 3214 H 313.217 0.949929 3.54079 0
M  V30 3215 H 312.865 -1.11678 4.90446 0
M  V30 3216 H 312.565 0.35299 5.86539 0
M  V30 3217 H 314.089 -0.554214 6.0808 0
M  V30 3218 H 315.503 1.63997 5.49343 0
M  V30 3219 H 313.9 2.43112 5.4865 0
M  V30 3220 H 314.97 2.61304 4.08471 0
M  V30 3221 N 316.313 -1.40141 0.720998 0
M  V30 3222 C 317.56 -2.00787 0.262842 0
M  V30 3223 C 317.888 -1.5718 -1.14563 0
M  V30 3224 O 317.143 -0.785391 -1.79249 0
M  V30 3225 C 317.442 -3.56165 0.296892 0
M  V30 3226 C 317.108 -4.19373 1.65641 0
M  V30 3227 C 315.77 -4.36352 2.02855 0
M  V30 3228 C 318.122 -4.54578 2.54968 0
M  V30 3229 C 315.45 -4.8582 3.28931 0
M  V30 3230 C 317.802 -5.05447 3.80402 0
M  V30 3231 C 316.466 -5.20635 4.17726 0
M  V30 3232 H 315.736 -0.734731 0.0961807 0
M  V30 3233 H 318.383 -1.67673 0.925093 0
M  V30 3234 H 316.688 -3.8922 -0.448932 0
M  V30 3235 H 318.385 -4.00929 -0.0755208 0
M  V30 3236 H 314.975 -4.06549 1.35704 0
M  V30 3237 H 319.159 -4.41091 2.27491 0
M  V30 3238 H 314.415 -4.95764 3.57811 0
M  V30 3239 H 318.589 -5.31663 4.49786 0
M  V30 3240 H 316.216 -5.58728 5.15487 0
M  V30 3241 N 317.792 -0.46758 -1.50504 0
M  V30 3242 C 318.739 0.328413 -2.28452 0
M  V30 3243 C 319.709 0.990313 -1.33349 0
M  V30 3244 O 320.894 1.00343 -1.62284 0
M  V30 3245 C 318.034 1.40648 -3.15138 0
M  V30 3246 C 317.147 0.759709 -4.25267 0
M  V30 3247 C 316.282 1.81537 -4.99217 0
M  V30 3248 C 315.321 1.14866 -6.01226 0
M  V30 3249 N 314.458 2.14702 -6.68467 0
M  V30 3250 H 319.298 -0.342603 -2.96024 0
M  V30 3251 H 316.835 -0.180801 -1.45985 0
M  V30 3252 H 318.793 2.04315 -3.63746 0
M  V30 3253 H 317.423 2.04671 -2.49619 0
M  V30 3254 H 316.475 0.0105671 -3.80399 0
M  V30 3255 H 317.787 0.233243 -4.98254 0
M  V30 3256 H 316.941 2.52793 -5.51526 0
M  V30 3257 H 315.68 2.37564 -4.25928 0
M  V30 3258 H 314.685 0.42171 -5.4818 0
M  V30 3259 H 315.91 0.595334 -6.76485 0
M  V30 3260 H 313.856 2.69752 -5.97972 0
M  V30 3261 H 313.773 1.6703 -7.37317 0
M  V30 3262 H 315.041 2.85348 -7.25394 0
M  V30 3263 N 319.27 1.56325 -0.20005 0
M  V30 3264 C 320.516 1.98012 0.438059 0
M  V30 3265 C 320.849 1.08702 1.60927 0
M  V30 3266 O 320.124 0.140064 1.93995 0
M  V30 3267 C 320.407 3.48841 0.893419 0
M  V30 3268 C 320.26 4.48928 -0.279947 0
M  V30 3269 C 321.579 4.03498 1.75719 0
M  V30 3270 H 318.698 0.719918 0.157757 0
M  V30 3271 H 321.34 1.87743 -0.291968 0
M  V30 3272 H 319.49 3.57723 1.51547 0
M  V30 3273 H 321.162 4.52079 -0.91772 0
M  V30 3274 H 319.405 4.23694 -0.930919 0
M  V30 3275 H 320.076 5.5194 0.0812601 0
M  V30 3276 H 322.552 3.97427 1.23253 0
M  V30 3277 H 321.428 5.09393 2.04476 0
M  V30 3278 H 321.689 3.4906 2.71311 0
M  V30 3279 N 320.748 -0.0735177 1.57428 0
M  V30 3280 C 322.159 -0.625551 1.75908 0
M  V30 3281 C 322.51 -1.78 0.825261 0
M  V30 3282 O 321.635 -2.16398 0.00893964 0
M  V30 3283 C 322.23 -1.14155 3.18989 0
M  V30 3284 C 320.789 -1.63946 3.38819 0
M  V30 3285 C 319.936 -0.558151 2.71625 0
M  V30 3286 H 322.887 0.152647 1.57964 0
M  V30 3287 H 322.908 -2.0104 3.23053 0
M  V30 3288 H 322.42 -0.301116 3.8693 0
M  V30 3289 H 320.521 -2.50321 2.7599 0
M  V30 3290 H 320.634 -1.71759 4.47253 0
M  V30 3291 H 318.998 -1.00278 2.34129 0
M  V30 3292 H 319.781 0.272071 3.4222 0
M  V30 3293 N 322.226 -1.5378 -0.344866 0
M  V30 3294 C 323.156 -1.84662 -1.42906 0
M  V30 3295 C 324.137 -0.701648 -1.54955 0
M  V30 3296 O 325.322 -0.953438 -1.69184 0
M  V30 3297 C 322.452 -2.05503 -2.79974 0
M  V30 3298 C 321.406 -3.21318 -2.82734 0
M  V30 3299 C 320.732 -3.2749 -4.22675 0
M  V30 3300 C 322.032 -4.59456 -2.48389 0
M  V30 3301 H 323.726 -2.75461 -1.17311 0
M  V30 3302 H 321.272 -1.32542 -0.562896 0
M  V30 3303 H 323.225 -2.25691 -3.55867 0
M  V30 3304 H 321.949 -1.11434 -3.07002 0
M  V30 3305 H 320.608 -3.00984 -2.09294 0
M  V30 3306 H 320.256 -2.31019 -4.4681 0
M  V30 3307 H 319.956 -4.05316 -4.25433 0
M  V30 3308 H 321.48 -3.49887 -5.00412 0
M  V30 3309 H 322.894 -4.79667 -3.13995 0
M  V30 3310 H 321.291 -5.39675 -2.62432 0
M  V30 3311 H 322.361 -4.63155 -1.4358 0
M  V30 3312 N 323.704 0.605807 -1.45491 0
M  V30 3313 C 324.951 1.36476 -1.49601 0
M  V30 3314 C 325.279 1.94007 -0.138452 0
M  V30 3315 O 324.534 1.75638 0.863114 0
M  V30 3316 C 324.833 2.53012 -2.52428 0
M  V30 3317 C 324.499 2.13617 -3.97087 0
M  V30 3318 C 323.161 2.02587 -4.36477 0
M  V30 3319 C 325.513 1.82899 -4.88055 0
M  V30 3320 C 322.841 1.59064 -5.64726 0
M  V30 3321 C 325.193 1.40861 -6.16718 0
M  V30 3322 C 323.857 1.28391 -6.55036 0
M  V30 3323 H 323.127 0.499402 -0.547429 0
M  V30 3324 H 325.774 0.684546 -1.78847 0
M  V30 3325 H 324.079 3.26379 -2.16758 0
M  V30 3326 H 325.776 3.1124 -2.52845 0
M  V30 3327 H 322.366 2.23129 -3.65939 0
M  V30 3328 H 326.55 1.90317 -4.58359 0
M  V30 3329 H 321.806 1.48034 -5.93208 0
M  V30 3330 H 325.98 1.16138 -6.86648 0
M  V30 3331 H 323.607 0.944403 -7.54311 0
M  V30 3332 N 325.182 1.32811 0.848464 0
M  V30 3333 C 326.145 1.22194 1.9391 0
M  V30 3334 C 327.145 0.143404 1.60159 0
M  V30 3335 O 328.335 0.394253 1.6968 0
M  V30 3336 C 325.467 0.88067 3.29328 0
M  V30 3337 H 326.66 2.19127 2.04752 0
M  V30 3338 H 324.213 1.16731 1.0394 0
M  V30 3339 H 324.948 -0.0865776 3.24184 0
M  V30 3340 H 324.733 1.66052 3.55203 0
M  V30 3341 H 326.223 0.830871 4.09251 0
M  V30 3342 N 326.66 -1.06551 1.16123 0
M  V30 3343 C 327.906 -1.79719 0.952505 0
M  V30 3344 C 328.261 -1.85396 -0.514385 0
M  V30 3345 O 327.554 -1.33263 -1.37665 0
M  V30 3346 C 327.748 -3.23911 1.51052 0
M  V30 3347 C 327.577 -3.32284 3.03013 0
M  V30 3348 C 326.347 -3.42371 3.71632 0
M  V30 3349 C 328.545 -3.22363 4.00732 0
M  V30 3350 N 326.527 -3.39732 5.11327 0
M  V30 3351 C 327.898 -3.26937 5.26794 0
M  V30 3352 C 329.953 -3.0623 3.92591 0
M  V30 3353 C 328.656 -3.17035 6.45663 0
M  V30 3354 C 330.682 -2.97665 5.11028 0
M  V30 3355 C 330.044 -3.02858 6.35969 0
M  V30 3356 H 326.143 -0.670585 0.402293 0
M  V30 3357 H 328.727 -1.27125 1.4747 0
M  V30 3358 H 326.898 -3.74907 1.01484 0
M  V30 3359 H 328.63 -3.85242 1.2398 0
M  V30 3360 H 325.385 -3.47058 3.22254 0
M  V30 3361 H 325.809 -3.41919 5.84312 0
M  V30 3362 H 330.451 -3.01063 2.96852 0
M  V30 3363 H 328.169 -3.2096 7.41627 0
M  V30 3364 H 331.755 -2.86273 5.06497 0
M  V30 3365 H 330.635 -2.96286 7.26075 0
M  V30 3366 N 328.138 -0.959301 -1.25041 0
M  V30 3367 C 329.363 -0.633507 -1.97488 0
M  V30 3368 C 329.788 0.788555 -1.70773 0
M  V30 3369 O 329.146 1.53394 -0.966431 0
M  V30 3370 C 329.194 -0.904057 -3.49083 0
M  V30 3371 O 328.298 0.0147939 -4.12397 0
M  V30 3372 H 327.639 -0.240368 -0.618966 0
M  V30 3373 H 330.169 -1.28717 -1.59038 0
M  V30 3374 H 330.179 -0.832203 -3.99423 0
M  V30 3375 H 328.854 -1.94048 -3.67856 0
M  V30 3376 H 327.431 -0.109664 -3.72739 0
M  V30 3377 N 329.616 1.39756 -0.72842 0
M  V30 3378 C 330.862 2.00942 -0.273892 0
M  V30 3379 C 331.195 1.57656 1.13394 0
M  V30 3380 O 330.47 0.802434 1.77176 0
M  V30 3381 C 330.753 3.58211 -0.368346 0
M  V30 3382 C 330.606 4.11534 -1.81548 0
M  V30 3383 C 331.925 4.39372 0.253054 0
M  V30 3384 H 329.044 0.730047 -0.100996 0
M  V30 3385 H 331.686 1.66056 -0.923337 0
M  V30 3386 H 329.836 3.88061 0.184588 0
M  V30 3387 H 331.508 3.92431 -2.42478 0
M  V30 3388 H 329.751 3.65341 -2.33898 0
M  V30 3389 H 330.422 5.20682 -1.83288 0
M  V30 3390 H 332.898 4.15527 -0.218224 0
M  V30 3391 H 331.774 5.48677 0.156585 0
M  V30 3392 H 332.035 4.21358 1.33826 0
M  V30 3393 N 331.094 0.475555 1.50254 0
M  V30 3394 C 332.341 -0.0778919 2.0235 0
M  V30 3395 C 332.669 -1.39319 1.35722 0
M  V30 3396 O 331.924 -1.89888 0.473395 0
M  V30 3397 C 332.223 -0.305114 3.56095 0
M  V30 3398 C 331.889 0.92903 4.41225 0
M  V30 3399 C 330.551 1.26739 4.6421 0
M  V30 3400 C 332.903 1.75054 4.90923 0
M  V30 3401 C 330.231 2.42724 5.34137 0
M  V30 3402 C 332.583 2.9017 5.62125 0
M  V30 3403 C 331.247 3.24416 5.83362 0
M  V30 3404 H 330.517 -0.0285027 0.740452 0
M  V30 3405 H 333.164 0.630543 1.80821 0
M  V30 3406 H 331.469 -1.09584 3.76163 0
M  V30 3407 H 333.166 -0.747377 3.93974 0
M  V30 3408 H 329.756 0.655428 4.23559 0
M  V30 3409 H 333.94 1.50231 4.73016 0
M  V30 3410 H 329.196 2.69525 5.48786 0
M  V30 3411 H 333.37 3.54169 5.99614 0
M  V30 3412 H 330.997 4.14396 6.37323 0
M  V30 3413 N 332.573 -1.56217 0.208337 0
M  V30 3414 C 333.822 -1.97124 -0.427204 0
M  V30 3415 C 334.135 -1.09859 -1.61835 0
M  V30 3416 O 335.341 -1.40606 -2.32255 0
M  V30 3417 C 333.797 -3.50633 -0.811442 0
M  V30 3418 C 333.405 -4.46582 0.35615 0
M  V30 3419 C 335.149 -4.00282 -1.41332 0
M  V30 3420 C 333.056 -5.91379 -0.0497852 0
M  V30 3421 H 331.986 -0.736086 -0.163381 0
M  V30 3422 H 334.637 -1.8099 0.302456 0
M  V30 3423 H 333.019 -3.62319 -1.59815 0
M  V30 3424 H 334.193 -4.46636 1.1337 0
M  V30 3425 H 332.508 -4.07202 0.870396 0
M  V30 3426 H 335.105 -5.0595 -1.72972 0
M  V30 3427 H 335.448 -3.45359 -2.32449 0
M  V30 3428 H 335.981 -3.91764 -0.690323 0
M  V30 3429 H 332.72 -6.50255 0.827529 0
M  V30 3430 H 332.24 -5.94549 -0.791926 0
M  V30 3431 H 333.919 -6.45209 -0.481042 0
M  V30 3432 N 334.051 0.0651679 -1.57465 0
M  V30 3433 C 335.279 0.775808 -1.91804 0
M  V30 3434 C 335.694 1.70782 -0.804916 0
M  V30 3435 O 335.051 1.81153 0.221311 0
M  V30 3436 C 335.102 1.56381 -3.25925 0
M  V30 3437 O 334.823 0.669248 -4.32958 0
M  V30 3438 C 336.324 2.37485 -3.7432 0
M  V30 3439 H 333.544 0.2202 -0.63384 0
M  V30 3440 H 336.088 0.0334587 -2.04473 0
M  V30 3441 H 334.243 2.25837 -3.14764 0
M  V30 3442 H 334.657 1.21801 -5.10162 0
M  V30 3443 H 336.131 2.88223 -4.70778 0
M  V30 3444 H 336.608 3.17307 -3.03666 0
M  V30 3445 H 337.214 1.73173 -3.88447 0
M  V30 3446 N 335.529 1.53961 0.336706 0
M  V30 3447 C 336.492 1.81724 1.39675 0
M  V30 3448 C 337.492 0.688532 1.45313 0
M  V30 3449 O 338.682 0.956829 1.45569 0
M  V30 3450 C 335.814 1.96543 2.78538 0
M  V30 3451 H 337.007 2.76424 1.16318 0
M  V30 3452 H 334.56 1.45478 0.571474 0
M  V30 3453 H 335.295 1.0401 3.07168 0
M  V30 3454 H 335.08 2.78665 2.75841 0
M  V30 3455 H 336.57 2.19516 3.5525 0
M  V30 3456 N 337.007 -0.598083 1.45811 0
M  V30 3457 C 338.253 -1.35679 1.51535 0
M  V30 3458 C 338.608 -1.91745 0.15864 0
M  V30 3459 O 337.901 -1.72654 -0.830724 0
M  V30 3460 C 338.095 -2.51669 2.53766 0
M  V30 3461 C 337.924 -2.06963 3.99245 0
M  V30 3462 C 336.694 -1.92693 4.67116 0
M  V30 3463 C 338.892 -1.63855 4.875 0
M  V30 3464 N 336.874 -1.41897 5.97276 0
M  V30 3465 C 338.245 -1.24541 6.07363 0
M  V30 3466 C 340.3 -1.51533 4.74281 0
M  V30 3467 C 339.003 -0.741354 7.15469 0
M  V30 3468 C 341.029 -1.0253 5.82444 0
M  V30 3469 C 340.391 -0.641869 7.01469 0
M  V30 3470 H 336.49 -0.490042 0.609412 0
M  V30 3471 H 339.074 -0.682687 1.82339 0
M  V30 3472 H 337.245 -3.16663 2.24898 0
M  V30 3473 H 338.977 -3.18578 2.4958 0
M  V30 3474 H 335.732 -2.1417 4.22408 0
M  V30 3475 H 336.156 -1.18704 6.66512 0
M  V30 3476 H 340.798 -1.798 3.82664 0
M  V30 3477 H 338.516 -0.446243 8.06867 0
M  V30 3478 H 342.102 -0.934088 5.74253 0
M  V30 3479 H 340.982 -0.268531 7.8374 0
M  V30 3480 N 338.485 -1.33259 -0.841409 0
M  V30 3481 C 339.415 -1.25926 -1.96634 0
M  V30 3482 C 340.396 -0.140349 -1.6952 0
M  V30 3483 O 341.581 -0.329707 -1.91381 0
M  V30 3484 C 338.711 -0.99512 -3.32738 0
M  V30 3485 C 337.665 -2.0767 -3.74242 0
M  V30 3486 C 336.991 -1.66474 -5.08125 0
M  V30 3487 C 338.291 -3.49318 -3.88297 0
M  V30 3488 H 339.985 -2.20046 -2.03027 0
M  V30 3489 H 337.531 -1.05931 -0.975425 0
M  V30 3490 H 339.484 -0.930323 -4.11002 0
M  V30 3491 H 338.208 -0.0183004 -3.26595 0
M  V30 3492 H 336.867 -2.13187 -2.98239 0
M  V30 3493 H 336.515 -0.675012 -4.9845 0
M  V30 3494 H 336.215 -2.3885 -5.36865 0
M  V30 3495 H 337.739 -1.61455 -5.88867 0
M  V30 3496 H 339.153 -3.46316 -4.56879 0
M  V30 3497 H 337.55 -4.20158 -4.28471 0
M  V30 3498 H 338.62 -3.8801 -2.9082 0
M  V30 3499 N 339.963 1.05934 -1.16686 0
M  V30 3500 C 341.212 1.78188 -0.945085 0
M  V30 3501 C 341.525 1.88338 0.528021 0
M  V30 3502 O 342.731 2.57258 0.867799 0
M  V30 3503 C 341.187 3.20277 -1.64167 0
M  V30 3504 C 340.795 3.18281 -3.15279 0
M  V30 3505 C 342.539 3.97039 -1.502 0
M  V30 3506 C 340.446 4.55112 -3.7766 0
M  V30 3507 H 339.376 0.667866 -0.349959 0
M  V30 3508 H 342.027 1.18794 -1.39858 0
M  V30 3509 H 340.409 3.79952 -1.11589 0
M  V30 3510 H 341.583 2.68167 -3.74731 0
M  V30 3511 H 339.898 2.55018 -3.29173 0
M  V30 3512 H 342.495 4.98194 -1.94183 0
M  V30 3513 H 342.838 4.13845 -0.451461 0
M  V30 3514 H 343.371 3.43894 -1.99954 0
M  V30 3515 H 340.11 4.43512 -4.82677 0
M  V30 3516 H 339.63 5.05406 -3.22994 0
M  V30 3517 H 341.309 5.24064 -3.79428 0
M  V30 3518 N 341.441 0.965919 1.2453 0
M  V30 3519 C 342.371 0.513476 2.27784 0
M  V30 3520 C 343.352 -0.445974 1.6415 0
M  V30 3521 O 344.537 -0.342485 1.91156 0
M  V30 3522 C 341.667 -0.198839 3.4673 0
M  V30 3523 C 340.621 0.676456 4.2262 0
M  V30 3524 C 339.947 -0.167248 5.34438 0
M  V30 3525 C 341.247 1.96017 4.84123 0
M  V30 3526 H 342.941 1.3765 2.65881 0
M  V30 3527 H 340.487 0.663321 1.27813 0
M  V30 3528 H 342.44 -0.526567 4.18097 0
M  V30 3529 H 341.164 -1.0962 3.07654 0
M  V30 3530 H 339.823 0.98743 3.53052 0
M  V30 3531 H 339.471 -1.0647 4.91603 0
M  V30 3532 H 339.171 0.415181 5.86131 0
M  V30 3533 H 340.695 -0.489688 6.08633 0
M  V30 3534 H 342.109 1.69814 5.47573 0
M  V30 3535 H 340.506 2.48918 5.4604 0
M  V30 3536 H 341.576 2.65622 4.05676 0
M  V30 3537 N 342.919 -1.39368 0.735821 0
M  V30 3538 C 343.849 -2.33234 0.111506 0
M  V30 3539 C 344.83 -1.53954 -0.723334 0
M  V30 3540 O 346.015 -1.82344 -0.668147 0
M  V30 3541 C 343.145 -3.38057 -0.795917 0
M  V30 3542 C 342.099 -4.2795 -0.065172 0
M  V30 3543 C 341.425 -5.23479 -1.08967 0
M  V30 3544 C 342.725 -5.10741 1.09273 0
M  V30 3545 H 344.419 -2.85692 0.895571 0
M  V30 3546 H 341.965 -1.37364 0.432109 0
M  V30 3547 H 343.918 -4.02675 -1.24221 0
M  V30 3548 H 342.642 -2.8404 -1.61211 0
M  V30 3549 H 341.301 -3.64813 0.361511 0
M  V30 3550 H 340.949 -4.65758 -1.89944 0
M  V30 3551 H 340.649 -5.84472 -0.605489 0
M  V30 3552 H 342.173 -5.90974 -1.53565 0
M  V30 3553 H 343.587 -5.68699 0.724841 0
M  V30 3554 H 341.984 -5.8088 1.50659 0
M  V30 3555 H 343.054 -4.45525 1.91404 0
M  V30 3556 N 344.397 -0.483516 -1.5 0
M  V30 3557 C 345.622 0.0667119 -2.07293 0
M  V30 3558 C 346.047 1.3164 -1.3436 0
M  V30 3559 O 345.405 1.76945 -0.394987 0
M  V30 3560 C 345.453 0.321126 -3.59167 0
M  V30 3561 O 344.557 1.39927 -3.87936 0
M  V30 3562 H 343.898 -0.0184758 -0.663743 0
M  V30 3563 H 346.428 -0.678125 -1.93035 0
M  V30 3564 H 346.438 0.557906 -4.04168 0
M  V30 3565 H 345.113 -0.592007 -4.11665 0
M  V30 3566 H 343.69 1.14882 -3.54763 0
M  V30 3567 N 345.875 1.56104 -0.216619 0
M  V30 3568 C 346.805 2.23063 0.690296 0
M  V30 3569 C 347.786 1.20072 1.20485 0
M  V30 3570 O 348.971 1.48643 1.24976 0
M  V30 3571 C 346.101 2.90672 1.90072 0
M  V30 3572 C 345.055 4.00092 1.5202 0
M  V30 3573 C 344.381 4.54972 2.80899 0
M  V30 3574 C 345.681 5.17398 0.71391 0
M  V30 3575 H 347.375 2.99109 0.132038 0
M  V30 3576 H 344.921 1.43866 0.0620664 0
M  V30 3577 H 346.874 3.36204 2.54057 0
M  V30 3578 H 345.598 2.12066 2.48386 0
M  V30 3579 H 344.257 3.55283 0.903839 0
M  V30 3580 H 343.905 3.73102 3.37348 0
M  V30 3581 H 343.605 5.28817 2.56176 0
M  V30 3582 H 345.129 5.0322 3.45836 0
M  V30 3583 H 346.543 5.59342 1.25735 0
M  V30 3584 H 344.94 5.97444 0.563951 0
M  V30 3585 H 346.01 4.84088 -0.280527 0
M  V30 3586 N 347.353 -0.0568162 1.57498 0
M  V30 3587 C 348.764 -0.606858 1.76562 0
M  V30 3588 C 349.115 -1.77114 0.844094 0
M  V30 3589 O 348.24 -2.16376 0.0318911 0
M  V30 3590 C 348.835 -1.10766 3.20182 0
M  V30 3591 C 347.394 -1.60344 3.40539 0
M  V30 3592 C 346.541 -0.529311 2.72201 0
M  V30 3593 H 349.492 0.169393 1.57793 0
M  V30 3594 H 349.513 -1.97602 3.25167 0
M  V30 3595 H 349.025 -0.26006 3.87228 0
M  V30 3596 H 347.126 -2.47379 2.78629 0
M  V30 3597 H 347.239 -1.67006 4.4905 0
M  V30 3598 H 345.603 -0.977893 2.35179 0
M  V30 3599 H 346.386 0.308352 3.41912 0
M  V30 3600 N 348.832 -1.54138 -0.328536 0
M  V30 3601 C 350.078 -1.7236 -1.06865 0
M  V30 3602 C 350.411 -0.493231 -1.87832 0
M  V30 3603 O 349.686 0.5098 -1.877 0
M  V30 3604 C 349.969 -2.99621 -1.99747 0
M  V30 3605 C 349.822 -4.32899 -1.22143 0
M  V30 3606 C 351.141 -3.22615 -2.99345 0
M  V30 3607 H 348.26 -0.627151 -0.387105 0
M  V30 3608 H 350.902 -1.86827 -0.345767 0
M  V30 3609 H 349.052 -2.87418 -2.61387 0
M  V30 3610 H 350.724 -4.56978 -0.630017 0
M  V30 3611 H 348.967 -4.30628 -0.523628 0
M  V30 3612 H 349.638 -5.18154 -1.90318 0
M  V30 3613 H 352.114 -3.34248 -2.47826 0
M  V30 3614 H 350.99 -4.13027 -3.61524 0
M  V30 3615 H 351.251 -2.3961 -3.71536 0
M  V30 3616 N 350.31 0.590341 -1.46126 0
M  V30 3617 C 351.24 1.71032 -1.58966 0
M  V30 3618 C 352.221 1.64302 -0.440335 0
M  V30 3619 O 353.406 1.82436 -0.665634 0
M  V30 3620 C 350.536 3.09665 -1.57241 0
M  V30 3621 C 349.49 3.31221 -2.71066 0
M  V30 3622 C 348.816 4.70303 -2.54399 0
M  V30 3623 C 350.116 3.19796 -4.1295 0
M  V30 3624 H 351.81 1.60543 -2.52718 0
M  V30 3625 H 349.356 0.770933 -1.21625 0
M  V30 3626 H 351.309 3.87831 -1.64819 0
M  V30 3627 H 350.033 3.21036 -0.600289 0
M  V30 3628 H 348.692 2.55452 -2.62944 0
M  V30 3629 H 348.34 4.78429 -1.55288 0
M  V30 3630 H 348.04 4.85679 -3.30741 0
M  V30 3631 H 349.564 5.50647 -2.63857 0
M  V30 3632 H 350.978 3.87815 -4.22223 0
M  V30 3633 H 349.375 3.46696 -4.89818 0
M  V30 3634 H 350.445 2.16983 -4.33643 0
M  V30 3635 N 351.788 1.33704 0.83433 0
M  V30 3636 C 352.751 1.24244 1.92603 0
M  V30 3637 C 353.751 0.160383 1.59998 0
M  V30 3638 O 354.941 0.412228 1.69252 0
M  V30 3639 C 352.073 0.91555 3.28376 0
M  V30 3640 H 353.266 2.21287 2.02416 0
M  V30 3641 H 350.819 1.17827 1.02696 0
M  V30 3642 H 351.554 -0.0521886 3.24258 0
M  V30 3643 H 351.339 1.69811 3.53422 0
M  V30 3644 H 352.829 0.874231 4.08347 0
M  V30 3645 N 353.266 -1.05314 1.17247 0
M  V30 3646 C 354.514 -1.77941 0.958194 0
M  V30 3647 C 354.835 -1.88089 -0.514556 0
M  V30 3648 O 354.105 -1.39676 -1.37359 0
M  V30 3649 H 352.685 -0.659116 0.351533 0
M  V30 3650 H 355.347 -1.27166 1.47699 0
M  V30 3651 H 354.443 -2.79663 1.38546 0
M  V30 3652 N 354.744 -0.972509 -1.24016 0
M  V30 3653 C 355.707 -0.511403 -2.23422 0
M  V30 3654 C 356.707 0.394679 -1.55881 0
M  V30 3655 O 357.897 0.189469 -1.73167 0
M  V30 3656 C 355.029 0.258769 -3.39916 0
M  V30 3657 H 356.222 -1.39024 -2.6573 0
M  V30 3658 H 353.775 -0.757585 -1.36713 0
M  V30 3659 H 354.51 1.1545 -3.03054 0
M  V30 3660 H 354.295 -0.391522 -3.9014 0
M  V30 3661 H 355.785 0.570244 -4.13688 0
M  V30 3662 N 356.222 1.38976 -0.743202 0
M  V30 3663 C 357.471 1.99581 -0.291592 0
M  V30 3664 C 357.784 1.59656 1.13001 0
M  V30 3665 O 358.99 2.13157 1.68156 0
M  V30 3666 C 357.446 3.56813 -0.470391 0
M  V30 3667 C 357.054 4.05695 -1.90041 0
M  V30 3668 C 358.798 4.24423 -0.0809709 0
M  V30 3669 C 356.705 5.5553 -2.02832 0
M  V30 3670 H 355.635 0.746615 -0.105272 0
M  V30 3671 H 358.286 1.58872 -0.918258 0
M  V30 3672 H 356.668 3.95359 0.225299 0
M  V30 3673 H 357.842 3.78464 -2.62872 0
M  V30 3674 H 356.157 3.50775 -2.24379 0
M  V30 3675 H 358.754 5.34474 -0.155445 0
M  V30 3676 H 359.097 4.04962 0.96497 0
M  V30 3677 H 359.63 3.9108 -0.728124 0
M  V30 3678 H 356.369 5.79881 -3.05643 0
M  V30 3679 H 355.889 5.84537 -1.34448 0
M  V30 3680 H 357.568 6.21069 -1.81335 0
M  V30 3681 N 357.7 0.491464 1.49741 0
M  V30 3682 C 358.928 -0.0535151 2.06831 0
M  V30 3683 C 359.343 -1.31683 1.35296 0
M  V30 3684 O 358.7 -1.77402 0.42836 0
M  V30 3685 C 358.751 -0.320835 3.60073 0
M  V30 3686 O 358.472 0.892394 4.28915 0
M  V30 3687 C 359.973 -0.910519 4.33848 0
M  V30 3688 H 357.193 0.0161909 0.670805 0
M  V30 3689 H 359.737 0.68609 1.92647 0
M  V30 3690 H 357.892 -1.0104 3.73991 0
M  V30 3691 H 358.306 0.649401 5.20464 0
M  V30 3692 H 359.78 -1.04721 5.41976 0
M  V30 3693 H 360.257 -1.90589 3.95692 0
M  V30 3694 H 360.863 -0.258712 4.24512 0
M  V30 3695 N 359.178 -1.55987 0.224894 0
M  V30 3696 C 360.111 -2.16413 -0.723929 0
M  V30 3697 C 361.089 -1.10952 -1.18863 0
M  V30 3698 O 362.273 -1.39225 -1.27077 0
M  V30 3699 C 359.4 -2.74711 -1.98121 0
M  V30 3700 C 358.446 -3.9303 -1.6562 0
M  V30 3701 S 359.279 -5.29817 -0.778058 0
M  V30 3702 C 360.435 -5.91555 -2.04483 0
M  V30 3703 H 360.668 -2.96555 -0.210347 0
M  V30 3704 H 358.201 -1.54397 0.00955457 0
M  V30 3705 H 360.159 -3.08938 -2.70311 0
M  V30 3706 H 358.82 -1.94555 -2.46591 0
M  V30 3707 H 358.013 -4.32334 -2.59043 0
M  V30 3708 H 357.615 -3.59966 -1.01491 0
M  V30 3709 H 359.907 -6.07732 -2.99446 0
M  V30 3710 H 360.85 -6.87498 -1.69563 0
M  V30 3711 H 361.258 -5.20419 -2.18688 0
M  V30 3712 N 360.656 0.0484629 -1.57525 0
M  V30 3713 C 361.586 1.0549 -2.08313 0
M  V30 3714 C 362.567 1.38929 -0.981463 0
M  V30 3715 O 363.752 1.48151 -1.25558 0
M  V30 3716 C 360.882 2.36162 -2.54646 0
M  V30 3717 C 359.836 2.17016 -3.68901 0
M  V30 3718 C 359.162 3.53278 -4.01371 0
M  V30 3719 C 360.462 1.57219 -4.98076 0
M  V30 3720 H 362.156 0.632195 -2.92649 0
M  V30 3721 H 359.702 0.302654 -1.40784 0
M  V30 3722 H 361.655 3.06882 -2.88793 0
M  V30 3723 H 360.379 2.80456 -1.67368 0
M  V30 3724 H 359.038 1.48733 -3.35073 0
M  V30 3725 H 358.686 3.95185 -3.11188 0
M  V30 3726 H 358.386 3.41299 -4.78318 0
M  V30 3727 H 359.91 4.25391 -4.38035 0
M  V30 3728 H 361.324 2.17832 -5.30304 0
M  V30 3729 H 359.721 1.55871 -5.79503 0
M  V30 3730 H 360.791 0.535956 -4.81929 0
M  V30 3731 N 362.134 1.5431 0.320358 0
M  V30 3732 C 363.064 1.86912 1.3995 0
M  V30 3733 C 364.045 0.726211 1.53819 0
M  V30 3734 O 365.23 0.980233 1.67646 0
M  V30 3735 C 362.36 2.09932 2.7667 0
M  V30 3736 C 361.314 3.25776 2.77586 0
M  V30 3737 C 360.64 3.34173 4.17412 0
M  V30 3738 C 361.94 4.6335 2.41048 0
M  V30 3739 H 363.634 2.77292 1.12914 0
M  V30 3740 H 361.18 1.33421 0.541738 0
M  V30 3741 H 363.133 2.31324 3.52232 0
M  V30 3742 H 361.857 1.16304 3.0519 0
M  V30 3743 H 360.516 3.04276 2.04479 0
M  V30 3744 H 360.164 2.38098 4.43078 0
M  V30 3745 H 359.864 4.12033 4.18931 0
M  V30 3746 H 361.388 3.57803 4.94782 0
M  V30 3747 H 362.802 4.84602 3.06324 0
M  V30 3748 H 361.199 5.43782 2.53813 0
M  V30 3749 H 362.269 4.65381 1.36193 0
M  V30 3750 N 363.613 -0.582584 1.46437 0
M  V30 3751 C 364.546 -1.70633 1.51524 0
M  V30 3752 C 365.524 -1.58349 0.369351 0
M  V30 3753 O 366.708 -1.79563 0.573516 0
M  V30 3754 C 363.835 -3.08687 1.39392 0
M  V30 3755 C 362.881 -3.3949 2.58164 0
M  V30 3756 S 363.714 -3.31548 4.20519 0
M  V30 3757 C 364.87 -4.72139 4.10896 0
M  V30 3758 H 365.103 -1.66058 2.46601 0
M  V30 3759 H 362.636 -0.761337 1.34324 0
M  V30 3760 H 364.594 -3.8833 1.33079 0
M  V30 3761 H 363.255 -3.10751 0.457436 0
M  V30 3762 H 362.448 -4.40071 2.45669 0
M  V30 3763 H 362.05 -2.67415 2.61468 0
M  V30 3764 H 364.342 -5.62527 3.77584 0
M  V30 3765 H 365.285 -4.89692 5.11476 0
M  V30 3766 H 365.693 -4.48995 3.42146 0
M  V30 3767 N 365.091 -1.34144 -0.827227 0
M  V30 3768 C 366.368 -1.16844 -1.56865 0
M  V30 3769 C 366.748 0.260654 -2.09485 0
M  V30 3770 O 366.096 1.26138 -1.9053 0
M  V30 3771 C 366.306 -2.21939 -2.6934 0
M  V30 3772 C 367.654 -2.56695 -3.3822 0
M  V30 3773 O 368.678 -2.20695 -2.79593 0
M  V30 3774 O 367.537 -3.18518 -4.44082 0
M  V30 3775 H 364.631 -0.452669 -0.692112 0
M  V30 3776 H 367.177 -1.45763 -0.868973 0
M  V30 3777 H 365.949 -3.17882 -2.28182 0
M  V30 3778 H 365.572 -1.94172 -3.46962 0
M  V30 3779 N 366.569 1.04691 -1.17803 0
M  V30 3780 C 367.985 1.29963 -0.926379 0
M  V30 3781 C 368.185 1.97251 0.411635 0
M  V30 3782 O 367.241 2.24922 1.14744 0
M  V30 3783 C 368.554 2.16447 -2.08737 0
M  V30 3784 C 370.102 2.29814 -2.12496 0
M  V30 3785 C 370.577 3.19661 -3.27995 0
M  V30 3786 N 372.068 3.27247 -3.27816 0
M  V30 3787 C 372.803 3.96906 -4.13827 0
M  V30 3788 N 372.299 4.6895 -5.09959 0
M  V30 3789 N 374.092 3.93122 -4.01761 0
M  V30 3790 H 366.243 0.594182 -2.0392 0
M  V30 3791 H 368.506 0.324649 -0.890678 0
M  V30 3792 H 368.212 1.74304 -3.05469 0
M  V30 3793 H 368.086 3.17103 -2.04268 0
M  V30 3794 H 370.473 2.71196 -1.16347 0
M  V30 3795 H 370.554 1.2877 -2.21025 0
M  V30 3796 H 370.198 2.78991 -4.24413 0
M  V30 3797 H 370.128 4.20722 -3.16703 0
M  V30 3798 H 372.619 2.75921 -2.58217 0
M  V30 3799 H 372.932 5.19679 -5.71974 0
M  V30 3800 H 371.277 4.67875 -5.13924 0
M  V30 3801 H 374.468 3.35967 -3.2595 0
M  V30 3802 H 374.641 4.47139 -4.6901 0
M  V30 3803 N 368.047 0.979072 1.23499 0
M  V30 3804 C 368.995 0.510604 2.26926 0
M  V30 3805 C 369.989 -0.431691 1.63807 0
M  V30 3806 O 371.195 -0.30573 1.77385 0
M  V30 3807 H 367.57 0.146688 0.737554 0
M  V30 3808 H 369.541 1.39466 2.63803 0
M  V30 3809 C 368.29 -0.172658 3.47271 0
M  V30 3810 H 367.613 0.543331 3.96091 0
M  V30 3811 H 369.053 -0.464101 4.21452 0
M  V30 3812 C 367.512 -1.40345 3.06276 0
M  V30 3813 O 368.042 -2.49978 3.14442 0
M  V30 3814 N 366.248 -1.27362 2.61203 0
M  V30 3815 H 365.795 -0.381584 2.54758 0
M  V30 3816 H 365.753 -2.09822 2.34141 0
M  V30 3817 N 369.525 -1.3858 0.750561 0
M  V30 3818 C 370.772 -2.00184 0.305373 0
M  V30 3819 C 371.1 -1.59575 -1.11203 0
M  V30 3820 O 370.355 -0.823236 -1.77542 0
M  V30 3821 C 370.654 -3.55455 0.372373 0
M  V30 3822 C 370.32 -4.15765 1.745 0
M  V30 3823 C 368.982 -4.31951 2.12065 0
M  V30 3824 C 371.334 -4.49067 2.64553 0
M  V30 3825 C 368.662 -4.78734 3.39162 0
M  V30 3826 C 371.014 -4.97265 3.91038 0
M  V30 3827 C 369.678 -5.11658 4.28676 0
M  V30 3828 H 368.948 -0.732526 0.111744 0
M  V30 3829 H 371.595 -1.65673 0.960451 0
M  V30 3830 H 369.9 -3.90084 -0.366272 0
M  V30 3831 H 371.597 -4.00999 0.00953918 0
M  V30 3832 H 368.187 -4.03579 1.44297 0
M  V30 3833 H 372.371 -4.36166 2.36796 0
M  V30 3834 H 367.627 -4.88062 3.68246 0
M  V30 3835 H 371.801 -5.22003 4.60962 0
M  V30 3836 H 369.428 -5.47668 5.27222 0
M  V30 3837 N 371.003 -0.499398 -1.49478 0
M  V30 3838 C 372.251 0.0455996 -2.02049 0
M  V30 3839 C 372.572 1.37633 -1.38138 0
M  V30 3840 O 371.842 1.8842 -0.536166 0
M  V30 3841 H 370.422 0.0198416 -0.746736 0
M  V30 3842 H 373.084 -0.656274 -1.83519 0
M  V30 3843 H 372.18 0.176445 -3.11601 0
M  V30 3844 N 372.481 1.55866 -0.233164 0
M  V30 3845 C 373.709 2.02998 0.399905 0
M  V30 3846 C 374.124 1.11274 1.52524 0
M  V30 3847 O 373.481 0.124528 1.82075 0
M  V30 3848 C 373.532 3.4958 0.920639 0
M  V30 3849 O 373.253 4.37808 -0.159834 0
M  V30 3850 C 374.754 4.12411 1.62578 0
M  V30 3851 H 371.974 0.664006 0.0966281 0
M  V30 3852 H 374.518 2.0143 -0.353013 0
M  V30 3853 H 372.673 3.51727 1.62379 0
M  V30 3854 H 373.087 5.23981 0.23337 0
M  V30 3855 H 374.561 5.16711 1.94201 0
M  V30 3856 H 375.038 3.5809 2.54299 0
M  V30 3857 H 375.644 4.14148 0.967553 0
M  V30 3858 N 373.959 -0.0401083 1.57549 0
M  V30 3859 C 374.891 -1.07149 2.02612 0
M  V30 3860 C 375.904 -1.33126 0.937085 0
M  V30 3861 O 377.093 -1.30808 1.21456 0
M  V30 3862 C 374.193 -2.41561 2.37701 0
M  V30 3863 C 373.366 -2.35096 3.68848 0
M  V30 3864 C 372.425 -3.51867 3.91249 0
M  V30 3865 O 371.451 -3.3186 4.62447 0
M  V30 3866 N 372.653 -4.73351 3.36035 0
M  V30 3867 H 375.418 -0.687485 2.91708 0
M  V30 3868 H 372.979 -0.228248 1.60283 0
M  V30 3869 H 374.971 -3.18379 2.49833 0
M  V30 3870 H 373.541 -2.71846 1.54332 0
M  V30 3871 H 372.761 -1.4345 3.67173 0
M  V30 3872 H 374.049 -2.27908 4.54901 0
M  V30 3873 H 373.447 -4.92507 2.78304 0
M  V30 3874 H 372.004 -5.47572 3.53565 0
M  V30 3875 N 375.437 -1.54477 -0.31217 0
M  V30 3876 C 376.684 -1.73227 -1.04875 0
M  V30 3877 C 377.012 -0.512042 -1.87639 0
M  V30 3878 O 376.267 0.506131 -1.89042 0
M  V30 3879 C 376.566 -2.967 -1.99258 0
M  V30 3880 C 376.232 -4.30974 -1.32559 0
M  V30 3881 C 374.894 -4.67477 -1.141 0
M  V30 3882 C 377.246 -5.14258 -0.847835 0
M  V30 3883 C 374.574 -5.84852 -0.465326 0
M  V30 3884 C 376.926 -6.32327 -0.185931 0
M  V30 3885 C 375.59 -6.67499 0.0107077 0
M  V30 3886 H 374.86 -0.633881 -0.383765 0
M  V30 3887 H 377.507 -1.88727 -0.324731 0
M  V30 3888 H 375.812 -2.75935 -2.7815 0
M  V30 3889 H 377.509 -3.08401 -2.563 0
M  V30 3890 H 374.099 -4.02262 -1.4793 0
M  V30 3891 H 378.283 -4.86565 -0.978192 0
M  V30 3892 H 373.539 -6.10654 -0.301883 0
M  V30 3893 H 377.713 -6.96135 0.192211 0
M  V30 3894 H 375.34 -7.58306 0.536287 0
M  V30 3895 N 376.915 0.57481 -1.46744 0
M  V30 3896 C 378.162 1.33272 -1.52462 0
M  V30 3897 C 378.49 1.93669 -0.179572 0
M  V30 3898 O 377.745 1.7743 0.825664 0
M  V30 3899 C 378.044 2.476 -2.57738 0
M  V30 3900 C 377.71 2.05146 -4.01529 0
M  V30 3901 C 376.372 1.93284 -4.40676 0
M  V30 3902 C 378.724 1.72506 -4.91824 0
M  V30 3903 C 376.052 1.47049 -5.67973 0
M  V30 3904 C 378.404 1.27748 -6.19567 0
M  V30 3905 C 377.068 1.14468 -6.57612 0
M  V30 3906 H 376.338 0.487678 -0.557899 0
M  V30 3907 H 378.985 0.646456 -1.80259 0
M  V30 3908 H 377.29 3.21708 -2.23632 0
M  V30 3909 H 378.987 3.05807 -2.5939 0
M  V30 3910 H 375.577 2.15316 -3.7059 0
M  V30 3911 H 379.761 1.80552 -4.62293 0
M  V30 3912 H 375.017 1.35417 -5.96215 0
M  V30 3913 H 379.191 1.01547 -6.88957 0
M  V30 3914 H 376.818 0.78419 -7.56145 0
M  V30 3915 N 378.394 1.34581 0.820102 0
M  V30 3916 C 379.671 1.17675 1.56244 0
M  V30 3917 C 380.051 -0.249541 2.0962 0
M  V30 3918 O 379.399 -1.25125 1.91196 0
M  V30 3919 C 379.609 2.23364 2.6816 0
M  V30 3920 C 380.957 2.58485 3.36854 0
M  V30 3921 O 381.981 2.22175 2.78418 0
M  V30 3922 O 380.84 3.20868 4.42386 0
M  V30 3923 H 377.934 0.456333 0.689702 0
M  V30 3924 H 380.48 1.46222 0.861231 0
M  V30 3925 H 379.252 3.19087 2.26493 0
M  V30 3926 H 378.875 1.96009 3.45928 0
M  V30 3927 N 379.872 -1.04064 1.18357 0
M  V30 3928 C 381.283 -1.58719 0.98312 0
M  V30 3929 C 381.634 -1.90556 -0.467193 0
M  V30 3930 O 380.759 -1.69561 -1.34454 0
M  V30 3931 C 381.354 -2.88379 1.77828 0
M  V30 3932 C 379.913 -3.3965 1.62218 0
M  V30 3933 C 379.06 -2.13235 1.77274 0
M  V30 3934 H 382.011 -0.867359 1.32901 0
M  V30 3935 H 382.032 -3.58773 1.26737 0
M  V30 3936 H 381.544 -2.65176 2.83379 0
M  V30 3937 H 379.645 -3.67866 0.592036 0
M  V30 3938 H 379.758 -4.13475 2.42023 0
M  V30 3939 H 378.122 -2.24542 1.20221 0
M  V30 3940 H 378.905 -1.92487 2.8426 0
M  V30 3941 N 381.35 -0.985608 -1.22978 0
M  V30 3942 C 382.313 -0.535071 -2.22867 0
M  V30 3943 C 383.313 0.378123 -1.56291 0
M  V30 3944 O 384.503 0.171092 -1.73358 0
M  V30 3945 C 381.635 0.222702 -3.40172 0
M  V30 3946 H 382.828 -1.41835 -2.6424 0
M  V30 3947 H 380.381 -0.772042 -1.35901 0
M  V30 3948 H 381.116 1.12229 -3.04262 0
M  V30 3949 H 380.901 -0.43288 -3.89703 0
M  V30 3950 H 382.391 0.526335 -4.1427 0
M  V30 3951 N 382.828 1.3818 -0.7579 0
M  V30 3952 C 384.076 1.99624 -0.315361 0
M  V30 3953 C 384.397 1.60464 1.10799 0
M  V30 3954 O 383.667 0.863507 1.75842 0
M  V30 3955 H 382.247 0.73831 -0.113611 0
M  V30 3956 H 384.909 1.68878 -0.972952 0
M  V30 3957 H 384.005 3.09754 -0.381931 0
M  V30 3958 N 384.306 0.507319 1.49211 0
M  V30 3959 C 385.554 -0.0348839 2.0207 0
M  V30 3960 C 385.875 -1.36898 1.38866 0
M  V30 3961 O 385.145 -1.88133 0.546151 0
M  V30 3962 H 383.725 -0.0158812 0.746831 0
M  V30 3963 H 386.387 0.665998 1.83168 0
M  V30 3964 H 385.483 -0.159917 3.1169 0
M  V30 3965 N 385.784 -1.5574 0.241426 0
M  V30 3966 C 387.032 -1.98417 -0.384075 0
M  V30 3967 C 387.353 -1.13078 -1.58866 0
M  V30 3968 O 386.623 -0.212312 -1.94746 0
M  V30 3969 H 385.203 -0.732813 -0.144894 0
M  V30 3970 H 387.865 -1.9193 0.338943 0
M  V30 3971 H 386.961 -3.04219 -0.696939 0
M  V30 3972 N 387.262 0.0317525 -1.57568 0
M  V30 3973 C 388.539 0.758366 -1.803 0
M  V30 3974 C 388.919 1.93718 -0.838845 0
M  V30 3975 O 388.267 2.28187 0.119571 0
M  V30 3976 C 388.477 1.19392 -3.27943 0
M  V30 3977 C 389.825 1.61094 -3.92854 0
M  V30 3978 O 390.849 1.28857 -3.32076 0
M  V30 3979 O 389.708 2.20918 -4.99858 0
M  V30 3980 H 386.802 0.366514 -0.741348 0
M  V30 3981 H 389.348 0.00873765 -1.69698 0
M  V30 3982 H 388.12 0.352275 -3.89711 0
M  V30 3983 H 387.743 2.00365 -3.43424 0
M  V30 3984 N 388.74 1.54641 0.303973 0
M  V30 3985 C 390.151 1.64811 0.877163 0
M  V30 3986 C 390.502 0.554838 1.88191 0
M  V30 3987 O 389.627 -0.309033 2.14182 0
M  V30 3988 C 390.222 2.9876 1.59775 0
M  V30 3989 C 388.781 3.11061 2.11938 0
M  V30 3990 C 387.928 2.60479 0.951097 0
M  V30 3991 H 390.879 1.58493 0.0810486 0
M  V30 3992 H 390.9 2.90017 2.46314 0
M  V30 3993 H 390.412 3.7831 0.866226 0
M  V30 3994 H 388.513 2.36225 2.88146 0
M  V30 3995 H 388.626 4.17171 2.35595 0
M  V30 3996 H 386.99 2.16859 1.33583 0
M  V30 3997 H 387.773 3.42504 0.233581 0
M  V30 3998 N 390.218 -0.567019 1.47046 0
M  V30 3999 C 391.464 -1.32658 1.53394 0
M  V30 4000 C 391.797 -1.93254 0.19148 0
M  V30 4001 O 391.072 -1.77338 -0.798844 0
M  V30 4002 C 391.355 -2.44412 2.64452 0
M  V30 4003 C 391.208 -1.88749 4.08282 0
M  V30 4004 C 392.527 -3.46387 2.71485 0
M  V30 4005 H 389.646 -0.48098 0.558415 0
M  V30 4006 H 392.288 -0.635481 1.79058 0
M  V30 4007 H 390.438 -3.03363 2.427 0
M  V30 4008 H 392.11 -1.34134 4.41368 0
M  V30 4009 H 390.353 -1.19481 4.17021 0
M  V30 4010 H 391.024 -2.69491 4.81745 0
M  V30 4011 H 393.5 -2.9734 2.91081 0
M  V30 4012 H 392.376 -4.2202 3.50985 0
M  V30 4013 H 392.637 -4.04616 1.78153 0
M  V30 4014 N 391.696 -1.35014 -0.812953 0
M  V30 4015 C 392.626 -1.30069 -1.93919 0
M  V30 4016 C 393.607 -0.176275 -1.69184 0
M  V30 4017 O 394.792 -0.370227 -1.90638 0
M  V30 4018 C 391.922 -1.06547 -3.30552 0
M  V30 4019 C 390.876 -2.15561 -3.69753 0
M  V30 4020 C 390.202 -1.77214 -5.04479 0
M  V30 4021 C 391.502 -3.57476 -3.808 0
M  V30 4022 H 393.196 -2.24303 -1.98314 0
M  V30 4023 H 390.742 -1.07977 -0.952736 0
M  V30 4024 H 392.695 -1.01729 -4.08937 0
M  V30 4025 H 391.419 -0.0875719 -3.26483 0
M  V30 4026 H 390.078 -2.19466 -2.9365 0
M  V30 4027 H 389.726 -0.780589 -4.96906 0
M  V30 4028 H 389.426 -2.50184 -5.31678 0
M  V30 4029 H 390.95 -1.7391 -5.8531 0
M  V30 4030 H 392.364 -3.55929 -4.4943 0
M  V30 4031 H 390.761 -4.29152 -4.19462 0
M  V30 4032 H 391.831 -3.94091 -2.82525 0
M  V30 4033 N 393.175 1.03435 -1.18907 0
M  V30 4034 C 394.405 1.8012 -1.01195 0
M  V30 4035 C 394.813 1.8395 0.442613 0
M  V30 4036 O 394.156 1.27836 1.31923 0
M  V30 4037 C 394.218 3.26792 -1.49823 0
M  V30 4038 C 393.882 3.46609 -2.97844 0
M  V30 4039 C 394.879 3.37278 -3.95651 0
M  V30 4040 C 392.564 3.73001 -3.36416 0
M  V30 4041 C 394.558 3.54054 -5.30023 0
M  V30 4042 C 392.245 3.89423 -4.70949 0
M  V30 4043 C 393.243 3.79951 -5.67562 0
M  V30 4044 O 392.931 3.95895 -6.99659 0
M  V30 4045 H 392.663 0.573865 -0.357289 0
M  V30 4046 H 395.217 1.31207 -1.58031 0
M  V30 4047 H 393.447 3.76703 -0.873578 0
M  V30 4048 H 395.136 3.85055 -1.28404 0
M  V30 4049 H 395.902 3.16846 -3.67197 0
M  V30 4050 H 391.781 3.79469 -2.61772 0
M  V30 4051 H 395.325 3.46577 -6.05417 0
M  V30 4052 H 391.222 4.09351 -4.99101 0
M  V30 4053 H 391.99 4.13019 -7.06653 0
M  V30 4054 N 394.653 0.992116 1.22453 0
M  V30 4055 C 395.585 0.500024 2.23679 0
M  V30 4056 C 396.598 -0.404463 1.57696 0
M  V30 4057 O 397.787 -0.206722 1.77299 0
M  V30 4058 C 394.887 -0.294711 3.37616 0
M  V30 4059 C 394.06 0.605723 4.33186 0
M  V30 4060 C 393.119 -0.13717 5.26021 0
M  V30 4061 O 392.145 0.477164 5.67196 0
M  V30 4062 N 393.347 -1.4197 5.62872 0
M  V30 4063 H 396.112 1.37045 2.66531 0
M  V30 4064 H 393.673 0.866741 1.36745 0
M  V30 4065 H 395.665 -0.800329 3.96707 0
M  V30 4066 H 394.235 -1.06623 2.93854 0
M  V30 4067 H 393.455 1.29202 3.72425 0
M  V30 4068 H 394.743 1.21896 4.93983 0
M  V30 4069 H 394.141 -1.94015 5.31389 0
M  V30 4070 H 392.698 -1.87052 6.24383 0
M  V30 4071 N 396.131 -1.37776 0.765217 0
M  V30 4072 C 397.081 -2.2768 0.12075 0
M  V30 4073 C 398.065 -1.45778 -0.680988 0
M  V30 4074 O 399.257 -1.684 -0.545033 0
M  V30 4075 C 396.386 -3.34722 -0.762626 0
M  V30 4076 C 395.472 -4.24074 0.0465881 0
M  V30 4077 N 395.863 -4.93939 1.08892 0
M  V30 4078 C 394.161 -4.45643 -0.178418 0
M  V30 4079 C 394.862 -5.59845 1.57951 0
M  V30 4080 N 393.838 -5.36218 0.892797 0
M  V30 4081 H 397.64 -2.79166 0.918889 0
M  V30 4082 H 395.154 -1.50816 0.602353 0
M  V30 4083 H 397.151 -3.98031 -1.24005 0
M  V30 4084 H 395.811 -2.84793 -1.55959 0
M  V30 4085 H 396.822 -4.96572 1.47095 0
M  V30 4086 H 393.499 -4.06599 -0.9478 0
M  V30 4087 H 394.889 -6.25703 2.44838 0
M  V30 4088 N 397.609 -0.515225 -1.4894 0
M  V30 4089 C 398.858 0.0261361 -2.01683 0
M  V30 4090 C 399.171 1.36719 -1.39883 0
M  V30 4091 O 400.377 1.99606 -1.84037 0
M  V30 4092 C 398.833 0.0970111 -3.59769 0
M  V30 4093 C 398.441 -1.23825 -4.30548 0
M  V30 4094 C 400.185 0.587981 -4.20408 0
M  V30 4095 C 398.092 -1.12877 -5.80528 0
M  V30 4096 H 397.022 0.0135398 -0.753878 0
M  V30 4097 H 399.673 -0.656787 -1.71343 0
M  V30 4098 H 398.055 0.844694 -3.86886 0
M  V30 4099 H 399.229 -2.00034 -4.15118 0
M  V30 4100 H 397.544 -1.66379 -3.81716 0
M  V30 4101 H 400.141 0.68763 -5.3026 0
M  V30 4102 H 400.484 1.59026 -3.84729 0
M  V30 4103 H 401.017 -0.103582 -3.97665 0
M  V30 4104 H 397.756 -2.10575 -6.20756 0
M  V30 4105 H 397.276 -0.407799 -5.98412 0
M  V30 4106 H 398.955 -0.813332 -6.41868 0
M  V30 4107 N 399.087 1.5561 -0.249682 0
M  V30 4108 C 400.017 2.24477 0.642826 0
M  V30 4109 C 400.998 1.22601 1.17911 0
M  V30 4110 O 402.183 1.5126 1.21795 0
M  V30 4111 C 399.313 2.94638 1.83863 0
M  V30 4112 C 398.267 4.03227 1.435 0
M  V30 4113 C 397.593 4.60828 2.71186 0
M  V30 4114 C 398.893 5.18796 0.604002 0
M  V30 4115 H 400.587 2.99321 0.0685625 0
M  V30 4116 H 398.133 1.43965 0.0315363 0
M  V30 4117 H 400.086 3.41517 2.46868 0
M  V30 4118 H 398.81 2.17287 2.43832 0
M  V30 4119 H 397.469 3.57121 0.828275 0
M  V30 4120 H 397.117 3.80174 3.29358 0
M  V30 4121 H 396.817 5.34132 2.44901 0
M  V30 4122 H 398.341 5.10442 3.35084 0
M  V30 4123 H 399.755 5.61883 1.13842 0
M  V30 4124 H 398.152 5.98506 0.437097 0
M  V30 4125 H 399.222 4.83384 -0.383147 0
M  V30 4126 N 400.565 -0.0233959 1.57583 0
M  V30 4127 C 401.811 -0.708611 1.90657 0
M  V30 4128 C 402.166 -1.7266 0.848895 0
M  V30 4129 O 401.459 -1.91075 -0.141749 0
M  V30 4130 C 401.653 -1.41428 3.28227 0
M  V30 4131 C 401.482 -0.466155 4.47277 0
M  V30 4132 C 400.252 -0.085117 5.05228 0
M  V30 4133 C 402.45 0.257836 5.13653 0
M  V30 4134 N 400.432 0.863672 6.07794 0
M  V30 4135 C 401.803 1.06209 6.10835 0
M  V30 4136 C 403.858 0.324174 4.96844 0
M  V30 4137 C 402.561 1.9266 6.93018 0
M  V30 4138 C 404.587 1.17583 5.79593 0
M  V30 4139 C 403.949 1.96799 6.7635 0
M  V30 4140 H 400.048 -0.233222 0.746412 0
M  V30 4141 H 402.632 0.0314512 1.94675 0
M  V30 4142 H 400.803 -2.12477 3.25128 0
M  V30 4143 H 402.535 -2.05233 3.488 0
M  V30 4144 H 399.29 -0.448516 4.71471 0
M  V30 4145 H 399.714 1.33274 6.63752 0
M  V30 4146 H 404.356 -0.273975 4.21911 0
M  V30 4147 H 402.074 2.53552 7.67292 0
M  V30 4148 H 405.66 1.23076 5.68633 0
M  V30 4149 H 404.54 2.61635 7.39268 0
M  V30 4150 N 402.043 -1.548 -0.295768 0
M  V30 4151 C 403.29 -1.74329 -1.03032 0
M  V30 4152 C 403.618 -0.531915 -1.87085 0
M  V30 4153 O 402.873 0.486052 -1.89568 0
M  V30 4154 C 403.172 -2.98797 -1.961 0
M  V30 4155 C 402.838 -4.32356 -1.2798 0
M  V30 4156 C 401.5 -4.68661 -1.09135 0
M  V30 4157 C 403.852 -5.15128 -0.793243 0
M  V30 4158 C 401.18 -5.85312 -0.403269 0
M  V30 4159 C 403.532 -6.32488 -0.118854 0
M  V30 4160 C 402.196 -6.6745 0.0815043 0
M  V30 4161 H 401.466 -0.637916 -0.37702 0
M  V30 4162 H 404.113 -1.8906 -0.304696 0
M  V30 4163 H 402.418 -2.78869 -2.75207 0
M  V30 4164 H 404.115 -3.11102 -2.53015 0
M  V30 4165 H 400.705 -4.03808 -1.43655 0
M  V30 4166 H 404.889 -4.87575 -0.92653 0
M  V30 4167 H 400.145 -6.1094 -0.237098 0
M  V30 4168 H 404.319 -6.95892 0.266035 0
M  V30 4169 H 401.946 -7.57695 0.616685 0
M  V30 4170 N 403.521 0.559213 -1.47345 0
M  V30 4171 C 404.768 1.31648 -1.53867 0
M  V30 4172 C 405.096 1.93468 -0.200104 0
M  V30 4173 O 404.351 1.78295 0.806799 0
M  V30 4174 C 404.65 2.44853 -2.6035 0
M  V30 4175 C 404.316 2.00876 -4.03683 0
M  V30 4176 C 402.978 1.88599 -4.42701 0
M  V30 4177 C 405.33 1.67279 -4.93626 0
M  V30 4178 C 402.658 1.41017 -5.69501 0
M  V30 4179 C 405.01 1.21169 -6.20887 0
M  V30 4180 C 403.674 1.07487 -6.58789 0
M  V30 4181 H 402.944 0.481734 -0.56304 0
M  V30 4182 H 405.591 0.627301 -1.80934 0
M  V30 4183 H 403.896 3.19318 -2.27032 0
M  V30 4184 H 405.593 3.03039 -2.62619 0
M  V30 4185 H 402.183 2.11374 -3.72853 0
M  V30 4186 H 406.367 1.75638 -4.64182 0
M  V30 4187 H 401.623 1.29086 -5.97618 0
M  V30 4188 H 405.797 0.942345 -6.89995 0
M  V30 4189 H 403.424 0.703946 -7.56934 0
M  V30 4190 N 404.999 1.35443 0.805782 0
M  V30 4191 C 406.247 1.28507 1.55982 0
M  V30 4192 C 406.568 -0.140046 1.94496 0
M  V30 4193 O 405.838 -1.07666 1.63661 0
M  V30 4194 H 404.418 0.472676 0.578434 0
M  V30 4195 H 407.08 1.69555 0.961098 0
M  V30 4196 H 406.176 1.90148 2.47488 0
M  V30 4197 N 406.477 -1.02803 1.19454 0
M  V30 4198 C 407.427 -2.0945 0.900827 0
M  V30 4199 C 408.411 -1.60335 -0.134715 0
M  V30 4200 O 409.603 -1.76857 0.0710924 0
M  V30 4201 C 406.732 -3.4044 0.442229 0
M  V30 4202 C 405.818 -3.96286 1.51056 0
M  V30 4203 N 406.209 -4.25785 2.73021 0
M  V30 4204 C 404.507 -4.24307 1.37404 0
M  V30 4205 C 405.208 -4.70654 3.41848 0
M  V30 4206 N 404.184 -4.72238 2.69243 0
M  V30 4207 H 407.986 -2.3015 1.82779 0
M  V30 4208 H 405.5 -1.20672 1.08683 0
M  V30 4209 H 407.497 -4.16354 0.21326 0
M  V30 4210 H 406.157 -3.21159 -0.478238 0
M  V30 4211 H 407.168 -4.15041 3.09776 0
M  V30 4212 H 403.845 -4.14285 0.517103 0
M  V30 4213 H 405.235 -5.02392 4.46152 0
M  V30 4214 N 407.956 -0.998596 -1.21925 0
M  V30 4215 C 409.367 -0.711939 -1.72593 0
M  V30 4216 C 409.718 0.770842 -1.80423 0
M  V30 4217 O 408.843 1.60237 -1.4544 0
M  V30 4218 C 409.438 -1.28567 -3.13458 0
M  V30 4219 C 407.997 -1.04828 -3.61508 0
M  V30 4220 C 407.144 -1.4024 -2.39224 0
M  V30 4221 H 410.095 -1.17027 -1.07193 0
M  V30 4222 H 410.116 -0.667098 -3.74607 0
M  V30 4223 H 409.628 -2.36486 -3.07727 0
M  V30 4224 H 407.729 0.0140383 -3.72597 0
M  V30 4225 H 407.842 -1.71566 -4.47328 0
M  V30 4226 H 406.206 -0.821077 -2.41103 0
M  V30 4227 H 406.989 -2.49176 -2.36149 0
M  V30 4228 N 409.434 1.37368 -0.772513 0
M  V30 4229 C 410.344 2.34053 -0.160081 0
M  V30 4230 C 411.36 1.60216 0.678728 0
M  V30 4231 O 412.536 1.92303 0.59847 0
M  V30 4232 C 409.601 3.3939 0.708182 0
M  V30 4233 C 408.662 4.29048 -0.147172 0
M  V30 4234 C 407.895 5.29354 0.679744 0
M  V30 4235 O 408.118 5.3723 1.91678 0
M  V30 4236 O 407.052 6.01835 0.0885444 0
M  V30 4237 H 410.878 2.88159 -0.959053 0
M  V30 4238 H 408.463 1.39543 -0.533685 0
M  V30 4239 H 410.345 4.03839 1.20384 0
M  V30 4240 H 409.02 2.8761 1.48533 0
M  V30 4241 H 407.927 3.67697 -0.689205 0
M  V30 4242 H 409.26 4.84134 -0.887423 0
M  V30 4243 N 410.912 0.523116 1.48665 0
M  V30 4244 C 412.158 -0.0134963 2.02796 0
M  V30 4245 C 412.491 -1.34582 1.40004 0
M  V30 4246 O 411.766 -1.86756 0.543381 0
M  V30 4247 C 412.049 -0.14276 3.59817 0
M  V30 4248 C 411.902 1.21425 4.331 0
M  V30 4249 C 413.221 -0.872856 4.31357 0
M  V30 4250 H 410.34 -0.00343074 0.736992 0
M  V30 4251 H 412.982 0.678816 1.7746 0
M  V30 4252 H 411.132 -0.732401 3.81534 0
M  V30 4253 H 412.804 1.84447 4.2282 0
M  V30 4254 H 411.047 1.79791 3.94788 0
M  V30 4255 H 411.718 1.07687 5.41394 0
M  V30 4256 H 414.194 -0.372555 4.14429 0
M  V30 4257 H 413.07 -0.932185 5.40927 0
M  V30 4258 H 413.331 -1.92161 3.98154 0
M  V30 4259 N 412.39 -1.55475 0.257931 0
M  V30 4260 C 413.62 -2.03314 -0.367026 0
M  V30 4261 C 414.028 -1.13625 -1.51281 0
M  V30 4262 O 413.371 -0.145334 -1.83124 0
M  V30 4263 C 413.433 -3.47362 -0.926284 0
M  V30 4264 C 413.097 -4.56914 0.0886584 0
M  V30 4265 C 414.094 -5.12013 0.902123 0
M  V30 4266 C 411.779 -5.01827 0.217936 0
M  V30 4267 C 413.773 -6.10529 1.83122 0
M  V30 4268 C 411.46 -6.00172 1.15052 0
M  V30 4269 C 412.458 -6.54402 1.95568 0
M  V30 4270 O 412.146 -7.50827 2.87253 0
M  V30 4271 H 411.878 -0.669976 -0.0900443 0
M  V30 4272 H 414.432 -2.01804 0.382673 0
M  V30 4273 H 412.662 -3.46056 -1.72575 0
M  V30 4274 H 414.351 -3.78637 -1.46249 0
M  V30 4275 H 415.117 -4.78139 0.812891 0
M  V30 4276 H 410.996 -4.59272 -0.398721 0
M  V30 4277 H 414.54 -6.52783 2.46008 0
M  V30 4278 H 410.437 -6.33465 1.24064 0
M  V30 4279 H 411.205 -7.68483 2.81739 0
M  V30 4280 N 413.868 0.0150385 -1.57593 0
M  V30 4281 C 415.117 0.702115 -1.89085 0
M  V30 4282 C 415.43 1.75764 -0.858277 0
M  V30 4283 O 416.636 2.49829 -1.0629 0
M  V30 4284 C 415.092 1.29992 -3.35604 0
M  V30 4285 C 414.7 0.280007 -4.47124 0
M  V30 4286 C 416.444 1.96606 -3.76227 0
M  V30 4287 C 414.351 0.886949 -5.84711 0
M  V30 4288 H 413.281 0.265997 -0.705522 0
M  V30 4289 H 415.932 -0.0430408 -1.8345 0
M  V30 4290 H 414.314 2.09525 -3.36029 0
M  V30 4291 H 415.488 -0.489631 -4.58191 0
M  V30 4292 H 413.803 -0.284835 -4.15425 0
M  V30 4293 H 416.4 2.42893 -4.76347 0
M  V30 4294 H 416.743 2.79024 -3.08952 0
M  V30 4295 H 417.276 1.23828 -3.78036 0
M  V30 4296 H 414.015 0.101876 -6.55421 0
M  V30 4297 H 413.535 1.6261 -5.77337 0
M  V30 4298 H 415.214 1.39011 -6.3189 0
M  V30 4299 N 415.346 1.54954 0.287554 0
M  V30 4300 C 416.595 1.74081 1.01877 0
M  V30 4301 C 416.908 0.541135 1.87966 0
M  V30 4302 O 418.114 0.614491 2.64455 0
M  V30 4303 C 416.57 3.08042 1.86113 0
M  V30 4304 C 416.178 4.35531 1.04961 0
M  V30 4305 C 417.922 3.36523 2.58752 0
M  V30 4306 C 415.829 5.60538 1.88551 0
M  V30 4307 H 414.759 0.64884 0.384087 0
M  V30 4308 H 417.41 1.81426 0.275101 0
M  V30 4309 H 415.792 2.94696 2.64519 0
M  V30 4310 H 416.966 4.59751 0.31074 0
M  V30 4311 H 415.281 4.14085 0.43843 0
M  V30 4312 H 417.878 4.27122 3.21668 0
M  V30 4313 H 418.221 2.56 3.28283 0
M  V30 4314 H 418.754 3.50901 1.87386 0
M  V30 4315 H 415.493 6.43767 1.23466 0
M  V30 4316 H 415.013 5.40483 2.60074 0
M  V30 4317 H 416.692 5.98297 2.46273 0
M  V30 4318 N 416.824 -0.551391 1.4764 0
M  V30 4319 C 418.073 -1.30467 1.53822 0
M  V30 4320 C 418.386 -1.94495 0.207661 0
M  V30 4321 O 419.592 -2.71099 0.147533 0
M  V30 4322 C 418.048 -2.36616 2.71184 0
M  V30 4323 C 417.656 -1.78754 4.10793 0
M  V30 4324 C 419.4 -3.13088 2.86663 0
M  V30 4325 C 417.307 -2.82717 5.19447 0
M  V30 4326 H 416.237 -0.490584 0.572576 0
M  V30 4327 H 418.888 -0.58494 1.73927 0
M  V30 4328 H 417.27 -3.11529 2.4447 0
M  V30 4329 H 418.444 -1.10173 4.47435 0
M  V30 4330 H 416.759 -1.14846 4.00249 0
M  V30 4331 H 419.356 -3.90736 3.65007 0
M  V30 4332 H 419.699 -3.67635 1.95321 0
M  V30 4333 H 420.232 -2.45288 3.13175 0
M  V30 4334 H 416.971 -2.33018 6.12685 0
M  V30 4335 H 416.491 -3.4969 4.87316 0
M  V30 4336 H 418.17 -3.46102 5.46646 0
M  V30 4337 N 418.302 -1.35869 -0.798587 0
M  V30 4338 C 419.232 -1.32118 -1.92528 0
M  V30 4339 C 420.213 -0.194209 -1.68988 0
M  V30 4340 O 421.398 -0.390426 -1.90235 0
M  V30 4341 C 418.528 -1.10047 -3.29404 0
M  V30 4342 C 417.482 -2.19471 -3.67446 0
M  V30 4343 C 416.808 -1.82555 -5.02571 0
M  V30 4344 C 418.108 -3.61495 -3.76987 0
M  V30 4345 H 419.802 -2.26394 -1.95924 0
M  V30 4346 H 417.348 -1.08981 -0.94123 0
M  V30 4347 H 419.301 -1.06061 -4.07835 0
M  V30 4348 H 418.025 -0.122195 -3.26371 0
M  V30 4349 H 416.684 -2.22568 -2.91306 0
M  V30 4350 H 416.332 -0.833249 -4.9605 0
M  V30 4351 H 416.032 -2.5581 -5.28995 0
M  V30 4352 H 417.556 -1.80108 -5.83432 0
M  V30 4353 H 418.97 -3.60676 -4.4563 0
M  V30 4354 H 417.367 -4.33577 -4.14887 0
M  V30 4355 H 418.437 -3.97065 -2.78329 0
M  V30 4356 N 419.78 1.02168 -1.19998 0
M  V30 4357 C 421.191 1.57135 -1.00825 0
M  V30 4358 C 421.542 1.91276 0.436818 0
M  V30 4359 O 420.667 1.71679 1.3174 0
M  V30 4360 C 421.262 2.85514 -1.82393 0
M  V30 4361 C 419.821 3.37027 -1.67601 0
M  V30 4362 C 418.968 2.10388 -1.80644 0
M  V30 4363 H 421.919 0.846106 -1.34264 0
M  V30 4364 H 421.94 3.56711 -1.32429 0
M  V30 4365 H 421.452 2.60634 -2.87561 0
M  V30 4366 H 419.553 3.66878 -0.650485 0
M  V30 4367 H 419.666 4.09572 -2.4857 0
M  V30 4368 H 418.03 2.22601 -1.23778 0
M  V30 4369 H 418.813 1.8794 -2.87286 0
M  V30 4370 N 421.258 1.00505 1.21394 0
M  V30 4371 C 422.506 0.686415 1.90086 0
M  V30 4372 C 422.827 -0.785264 1.7849 0
M  V30 4373 O 422.097 -1.56387 1.17983 0
M  V30 4374 H 420.677 0.2509 0.703604 0
M  V30 4375 H 423.339 1.27417 1.47482 0
M  V30 4376 H 422.435 0.959621 2.96981 0
M  V30 4377 N 422.737 -1.36956 0.779787 0
M  V30 4378 C 423.984 -1.99491 0.347766 0
M  V30 4379 C 424.312 -1.61898 -1.07793 0
M  V30 4380 O 423.567 -0.86071 -1.75756 0
M  V30 4381 C 423.866 -3.54585 0.447686 0
M  V30 4382 C 423.532 -4.1197 1.83279 0
M  V30 4383 C 422.194 -4.27356 2.2118 0
M  V30 4384 C 424.546 -4.43354 2.74019 0
M  V30 4385 C 421.874 -4.71432 3.4924 0
M  V30 4386 C 424.226 -4.88858 4.01497 0
M  V30 4387 C 422.89 -5.0245 4.39432 0
M  V30 4388 H 422.16 -0.729991 0.127257 0
M  V30 4389 H 424.807 -1.63599 0.995376 0
M  V30 4390 H 423.112 -3.90773 -0.283447 0
M  V30 4391 H 424.809 -4.00888 0.0945948 0
M  V30 4392 H 421.399 -4.00428 1.52825 0
M  V30 4393 H 425.583 -4.31045 2.45995 0
M  V30 4394 H 420.839 -4.80141 3.78516 0
M  V30 4395 H 425.013 -5.12108 4.71931 0
M  V30 4396 H 422.64 -5.36362 5.38721 0
M  V30 4397 N 424.215 -0.530993 -1.48385 0
M  V30 4398 C 425.463 0.00273189 -2.021 0
M  V30 4399 C 425.784 1.34672 -1.41027 0
M  V30 4400 O 425.054 1.8724 -0.576012 0
M  V30 4401 H 423.634 0.00399774 -0.746989 0
M  V30 4402 H 426.296 -0.695054 -1.82085 0
M  V30 4403 H 425.392 0.11031 -3.11905 0
M  V30 4404 N 425.693 1.55336 -0.266172 0
M  V30 4405 C 426.942 1.98574 0.353749 0
M  V30 4406 C 427.255 1.15789 1.57646 0
M  V30 4407 O 428.461 1.49129 2.26876 0
M  V30 4408 C 426.917 3.53403 0.680747 0
M  V30 4409 C 426.525 4.44953 -0.52165 0
M  V30 4410 C 428.269 4.05251 1.26379 0
M  V30 4411 C 426.176 5.91156 -0.169736 0
M  V30 4412 H 425.106 0.741643 0.135949 0
M  V30 4413 H 427.757 1.79743 -0.369421 0
M  V30 4414 H 426.139 3.68001 1.46257 0
M  V30 4415 H 427.313 4.42121 -1.29869 0
M  V30 4416 H 425.628 4.03691 -1.02093 0
M  V30 4417 H 428.225 5.12021 1.54074 0
M  V30 4418 H 428.568 3.53749 2.19471 0
M  V30 4419 H 429.101 3.94057 0.544447 0
M  V30 4420 H 425.84 6.46736 -1.0683 0
M  V30 4421 H 425.36 5.97079 0.570717 0
M  V30 4422 H 427.039 6.4655 0.241245 0
M  V30 4423 N 427.171 -0.0066808 1.57599 0
M  V30 4424 C 428.42 -0.692078 1.89455 0
M  V30 4425 C 428.733 -1.75306 0.867586 0
M  V30 4426 O 429.939 -2.49262 1.07614 0
M  V30 4427 C 428.395 -1.2821 3.36289 0
M  V30 4428 C 428.003 -0.256291 4.47266 0
M  V30 4429 C 429.747 -1.94608 3.77264 0
M  V30 4430 C 427.654 -0.855927 5.85173 0
M  V30 4431 H 426.584 -0.262252 0.706923 0
M  V30 4432 H 429.235 0.052769 1.83424 0
M  V30 4433 H 427.617 -2.0774 3.37135 0
M  V30 4434 H 428.791 0.513923 4.57925 0
M  V30 4435 H 427.106 0.306862 4.15268 0
M  V30 4436 H 429.703 -2.40364 4.77629 0
M  V30 4437 H 430.046 -2.77382 3.10427 0
M  V30 4438 H 430.579 -1.21822 3.78688 0
M  V30 4439 H 427.318 -0.0671161 6.55466 0
M  V30 4440 H 426.838 -1.59546 5.78191 0
M  V30 4441 H 428.517 -1.35658 6.32618 0
M  V30 4442 N 428.649 -1.55105 -0.279332 0
M  V30 4443 C 429.874 -1.7976 -1.03446 0
M  V30 4444 C 430.299 -0.565952 -1.79384 0
M  V30 4445 O 429.657 0.484259 -1.74713 0
M  V30 4446 C 429.705 -3.0179 -1.97371 0
M  V30 4447 O 428.809 -2.76432 -3.06038 0
M  V30 4448 H 428.15 -0.594334 -0.29608 0
M  V30 4449 H 430.68 -2.02235 -0.310165 0
M  V30 4450 H 430.69 -3.30351 -2.39441 0
M  V30 4451 H 429.365 -3.91085 -1.4151 0
M  V30 4452 H 427.942 -2.58949 -2.68328 0
M  V30 4453 N 430.127 0.543554 -1.4793 0
M  V30 4454 C 431.077 1.64527 -1.57844 0
M  V30 4455 C 432.061 1.54869 -0.436408 0
M  V30 4456 O 433.253 1.63119 -0.687101 0
M  V30 4457 C 430.382 3.03281 -1.6086 0
M  V30 4458 C 429.468 3.18093 -2.80495 0
M  V30 4459 N 429.859 3.02923 -4.05057 0
M  V30 4460 C 428.157 3.49121 -2.77543 0
M  V30 4461 C 428.858 3.20791 -4.85251 0
M  V30 4462 N 427.834 3.47749 -4.17818 0
M  V30 4463 H 431.636 1.51388 -2.5191 0
M  V30 4464 H 429.15 0.748671 -1.44113 0
M  V30 4465 H 431.147 3.82403 -1.66054 0
M  V30 4466 H 429.807 3.17521 -0.678996 0
M  V30 4467 H 430.818 2.79966 -4.35705 0
M  V30 4468 H 427.495 3.69804 -1.93781 0
M  V30 4469 H 428.885 3.13915 -5.9406 0
M  V30 4470 N 431.605 1.3629 0.791371 0
M  V30 4471 C 432.851 1.30605 1.55146 0
M  V30 4472 C 433.184 -0.115042 1.93859 0
M  V30 4473 O 432.459 -1.06798 1.62556 0
M  V30 4474 C 432.742 2.22692 2.82985 0
M  V30 4475 C 432.595 3.73489 2.50651 0
M  V30 4476 C 433.914 2.13588 3.84796 0
M  V30 4477 H 431.033 0.475761 0.562868 0
M  V30 4478 H 433.675 1.66825 0.909358 0
M  V30 4479 H 431.825 1.91933 3.37778 0
M  V30 4480 H 433.497 4.14758 2.01924 0
M  V30 4481 H 431.74 3.93021 1.83622 0
M  V30 4482 H 432.411 4.3333 3.41949 0
M  V30 4483 H 434.887 2.40659 3.39445 0
M  V30 4484 H 433.763 2.80195 4.71998 0
M  V30 4485 H 434.024 1.12256 4.27611 0
M  V30 4486 N 433.083 -1.0153 1.20538 0
M  V30 4487 C 434.332 -1.74558 1.01057 0
M  V30 4488 C 434.645 -1.90168 -0.457756 0
M  V30 4489 O 435.851 -2.60301 -0.771722 0
M  V30 4490 C 434.307 -3.13963 1.75941 0
M  V30 4491 C 433.915 -3.06361 3.26875 0
M  V30 4492 C 435.659 -3.91191 1.64832 0
M  V30 4493 C 433.566 -4.40782 3.94291 0
M  V30 4494 H 432.496 -0.654417 0.374505 0
M  V30 4495 H 435.147 -1.13521 1.44171 0
M  V30 4496 H 433.529 -3.75549 1.25614 0
M  V30 4497 H 434.703 -2.54074 3.84425 0
M  V30 4498 H 433.018 -2.42625 3.38411 0
M  V30 4499 H 435.615 -4.90644 2.12539 0
M  V30 4500 H 435.958 -4.11884 0.604745 0
M  V30 4501 H 436.491 -3.36236 2.12579 0
M  V30 4502 H 433.23 -4.25292 4.98805 0
M  V30 4503 H 432.75 -4.9307 3.41529 0
M  V30 4504 H 434.429 -5.09621 3.98617 0
M  V30 4505 N 434.561 -1.01147 -1.20859 0
M  V30 4506 C 435.786 -0.716698 -1.94623 0
M  V30 4507 C 436.211 0.715415 -1.73964 0
M  V30 4508 O 435.569 1.49157 -1.03062 0
M  V30 4509 C 435.617 -1.0513 -3.44935 0
M  V30 4510 O 434.721 -0.160131 -4.12089 0
M  V30 4511 H 434.062 -0.266404 -0.608214 0
M  V30 4512 H 436.592 -1.35346 -1.53436 0
M  V30 4513 H 436.602 -1.00086 -3.95533 0
M  V30 4514 H 435.277 -2.09475 -3.59295 0
M  V30 4515 H 433.854 -0.267657 -3.71938 0
M  V30 4516 N 436.039 1.36541 -0.78704 0
M  V30 4517 C 437.267 2.03561 -0.370199 0
M  V30 4518 C 437.682 1.59347 1.01263 0
M  V30 4519 O 437.039 0.781781 1.64907 0
M  V30 4520 C 437.09 3.59033 -0.421614 0
M  V30 4521 O 436.811 4.01634 -1.7499 0
M  V30 4522 C 438.312 4.433 0.00489763 0
M  V30 4523 H 435.532 0.653346 -0.152904 0
M  V30 4524 H 438.076 1.74566 -1.06522 0
M  V30 4525 H 436.231 3.86746 0.224971 0
M  V30 4526 H 436.645 4.96217 -1.69909 0
M  V30 4527 H 438.119 5.51939 -0.0822184 0
M  V30 4528 H 438.596 4.26285 1.05723 0
M  V30 4529 H 439.202 4.20843 -0.614085 0
M  V30 4530 N 437.518 0.538854 1.48102 0
M  V30 4531 C 438.765 0.0080018 2.02498 0
M  V30 4532 C 439.093 -1.33437 1.41509 0
M  V30 4533 O 438.348 -1.87709 0.553507 0
M  V30 4534 C 438.647 -0.153808 3.57069 0
M  V30 4535 C 438.313 1.11533 4.36888 0
M  V30 4536 C 436.975 1.46314 4.58417 0
M  V30 4537 C 439.327 1.95718 4.83057 0
M  V30 4538 C 436.655 2.6516 5.23361 0
M  V30 4539 C 439.007 3.13751 5.49312 0
M  V30 4540 C 437.671 3.48866 5.69077 0
M  V30 4541 H 436.941 0.00292807 0.740994 0
M  V30 4542 H 439.588 0.706668 1.77984 0
M  V30 4543 H 437.893 -0.935309 3.80472 0
M  V30 4544 H 439.59 -0.579607 3.96789 0
M  V30 4545 H 436.18 0.834484 4.20398 0
M  V30 4546 H 440.364 1.70158 4.66219 0
M  V30 4547 H 435.62 2.92558 5.36861 0
M  V30 4548 H 439.794 3.79282 5.84053 0
M  V30 4549 H 437.421 4.41054 6.19173 0
M  V30 4550 N 438.996 -1.55193 0.274407 0
M  V30 4551 C 439.959 -2.212 -0.600279 0
M  V30 4552 C 440.959 -1.18963 -1.08187 0
M  V30 4553 O 442.149 -1.43873 -0.982158 0
M  V30 4554 C 439.281 -2.87739 -1.82809 0
M  V30 4555 H 440.474 -2.9989 -0.0239682 0
M  V30 4556 H 438.027 -1.5628 0.0250192 0
M  V30 4557 H 438.762 -2.13058 -2.44493 0
M  V30 4558 H 438.547 -3.62658 -1.49069 0
M  V30 4559 H 440.037 -3.38171 -2.45011 0
M  V30 4560 N 440.474 -0.00167713 -1.576 0
M  V30 4561 C 441.421 0.989195 -2.08527 0
M  V30 4562 C 442.391 1.34031 -0.981065 0
M  V30 4563 O 443.576 1.43839 -1.2536 0
M  V30 4564 C 440.716 2.27537 -2.59463 0
M  V30 4565 C 439.829 1.98314 -3.83791 0
M  V30 4566 C 438.964 3.21025 -4.23222 0
M  V30 4567 C 438.003 2.87495 -5.40382 0
M  V30 4568 N 437.14 4.02749 -5.75098 0
M  V30 4569 H 441.98 0.547973 -2.92919 0
M  V30 4570 H 439.517 0.258917 -1.44803 0
M  V30 4571 H 441.475 3.02729 -2.87073 0
M  V30 4572 H 440.105 2.69325 -1.77943 0
M  V30 4573 H 439.157 1.13482 -3.63078 0
M  V30 4574 H 440.469 1.69601 -4.69081 0
M  V30 4575 H 439.623 4.04561 -4.52123 0
M  V30 4576 H 438.362 3.52877 -3.36644 0
M  V30 4577 H 437.367 2.02367 -5.11202 0
M  V30 4578 H 438.592 2.56889 -6.28637 0
M  V30 4579 H 436.538 4.34494 -4.91478 0
M  V30 4580 H 436.455 3.77566 -6.54966 0
M  V30 4581 H 437.723 4.87068 -6.08592 0
M  V30 4582 N 441.952 1.55251 0.271103 0
M  V30 4583 C 442.899 1.88261 1.33516 0
M  V30 4584 C 443.869 0.734296 1.48988 0
M  V30 4585 O 445.054 0.985741 1.63364 0
M  V30 4586 C 442.194 2.16168 2.69008 0
M  V30 4587 C 441.307 3.43678 2.61743 0
M  V30 4588 C 440.442 3.61276 3.89427 0
M  V30 4589 C 439.481 4.82472 3.7668 0
M  V30 4590 N 438.618 4.96717 4.96202 0
M  V30 4591 H 443.458 2.79015 1.04665 0
M  V30 4592 H 440.995 1.38137 0.505618 0
M  V30 4593 H 442.953 2.30349 3.47844 0
M  V30 4594 H 441.583 1.28646 2.96057 0
M  V30 4595 H 440.635 3.37959 1.74607 0
M  V30 4596 H 441.947 4.3265 2.48224 0
M  V30 4597 H 441.101 3.75284 4.76704 0
M  V30 4598 H 439.84 2.70492 4.05814 0
M  V30 4599 H 438.845 4.68465 2.87786 0
M  V30 4600 H 440.07 5.74692 3.61809 0
M  V30 4601 H 438.016 4.08865 5.12997 0
M  V30 4602 H 437.933 5.79738 4.85222 0
M  V30 4603 H 439.201 5.15113 5.85046 0
M  V30 4604 N 443.43 -0.535701 1.48216 0
M  V30 4605 C 444.841 -1.11769 1.49548 0
M  V30 4606 C 445.192 -1.94442 0.26207 0
M  V30 4607 O 444.317 -2.06987 -0.631287 0
M  V30 4608 C 444.912 -2.03367 2.70975 0
M  V30 4609 C 443.471 -2.56795 2.75196 0
M  V30 4610 C 442.618 -1.33631 2.42977 0
M  V30 4611 H 445.569 -0.321232 1.55415 0
M  V30 4612 H 445.59 -2.87569 2.49167 0
M  V30 4613 H 445.102 -1.43169 3.60727 0
M  V30 4614 H 443.203 -3.20731 1.89638 0
M  V30 4615 H 443.316 -2.9632 3.76472 0
M  V30 4616 H 441.68 -1.6502 1.94012 0
M  V30 4617 H 442.463 -0.75194 3.34964 0
M  V30 4618 N 444.908 -1.36708 -0.784132 0
M  V30 4619 C 446.157 -1.30559 -1.53744 0
M  V30 4620 C 446.47 0.111374 -1.95283 0
M  V30 4621 O 447.676 0.29527 -2.6989 0
M  V30 4622 C 446.132 -2.29098 -2.77565 0
M  V30 4623 C 445.74 -3.76258 -2.43174 0
M  V30 4624 C 447.484 -2.31936 -3.55536 0
M  V30 4625 C 445.391 -4.6656 -3.63422 0
M  V30 4626 H 444.321 -0.48518 -0.577162 0
M  V30 4627 H 446.972 -1.62101 -0.859981 0
M  V30 4628 H 445.354 -1.90557 -3.47137 0
M  V30 4629 H 446.528 -4.23565 -1.81465 0
M  V30 4630 H 444.843 -3.76246 -1.78403 0
M  V30 4631 H 447.44 -2.9661 -4.44889 0
M  V30 4632 H 447.783 -1.3294 -3.94503 0
M  V30 4633 H 448.316 -2.6912 -2.92949 0
M  V30 4634 H 445.055 -5.66638 -3.29547 0
M  V30 4635 H 444.575 -4.23966 -4.24279 0
M  V30 4636 H 446.254 -4.8309 -4.30387 0
M  V30 4637 N 446.386 1.0089 -1.21074 0
M  V30 4638 C 447.633 1.74607 -1.0256 0
M  V30 4639 C 447.961 1.89426 0.44136 0
M  V30 4640 O 447.216 1.42266 1.34384 0
M  V30 4641 C 447.515 3.16335 -1.66334 0
M  V30 4642 C 447.181 3.21474 -3.16173 0
M  V30 4643 C 445.843 3.22583 -3.57062 0
M  V30 4644 C 448.195 3.19025 -4.12156 0
M  V30 4645 C 445.523 3.18925 -4.92446 0
M  V30 4646 C 447.875 3.16909 -5.47496 0
M  V30 4647 C 446.539 3.16326 -5.87787 0
M  V30 4648 H 445.809 0.638933 -0.375294 0
M  V30 4649 H 448.456 1.18274 -1.50611 0
M  V30 4650 H 446.761 3.75876 -1.10566 0
M  V30 4651 H 448.458 3.72083 -1.49516 0
M  V30 4652 H 445.048 3.2135 -2.83605 0
M  V30 4653 H 449.232 3.17332 -3.81595 0
M  V30 4654 H 444.488 3.16809 -5.22917 0
M  V30 4655 H 448.662 3.13968 -6.21609 0
M  V30 4656 H 446.289 3.13246 -6.92662 0
M  V30 4657 N 447.864 1.01787 1.20321 0
M  V30 4658 C 449.112 0.706538 1.89347 0
M  V30 4659 C 449.433 -0.766289 1.79313 0
M  V30 4660 O 448.703 -1.55126 1.19635 0
M  V30 4661 H 447.283 0.258348 0.700903 0
M  V30 4662 H 449.945 1.28974 1.46122 0
M  V30 4663 H 449.041 0.991066 2.95946 0
M  V30 4664 N 449.342 -1.36122 0.79427 0
M  V30 4665 C 450.572 -2.03067 0.380437 0
M  V30 4666 C 450.98 -1.60018 -1.00949 0
M  V30 4667 O 450.323 -0.787425 -1.65968 0
M  V30 4668 C 450.385 -3.57587 0.37034 0
M  V30 4669 C 450.049 -4.23855 1.70867 0
M  V30 4670 C 451.046 -4.46404 2.66496 0
M  V30 4671 C 448.731 -4.61229 1.9893 0
M  V30 4672 C 450.725 -5.05412 3.88378 0
M  V30 4673 C 448.412 -5.19953 3.21079 0
M  V30 4674 C 449.41 -5.41985 4.15621 0
M  V30 4675 O 449.098 -5.99475 5.35616 0
M  V30 4676 H 448.83 -0.658168 0.154243 0
M  V30 4677 H 451.384 -1.7498 1.0757 0
M  V30 4678 H 449.614 -3.84814 -0.381444 0
M  V30 4679 H 451.303 -4.05895 -0.0194894 0
M  V30 4680 H 452.069 -4.17921 2.46103 0
M  V30 4681 H 447.948 -4.43402 1.26158 0
M  V30 4682 H 451.492 -5.22524 4.62185 0
M  V30 4683 H 447.389 -5.47862 3.41347 0
M  V30 4684 H 448.157 -6.17937 5.36745 0
M  V30 4685 N 450.82 -0.546701 -1.47814 0
M  V30 4686 C 451.75 0.195317 -2.32682 0
M  V30 4687 C 452.731 0.918981 -1.43139 0
M  V30 4688 O 453.916 0.901501 -1.72008 0
M  V30 4689 C 451.046 1.23237 -3.247 0
M  V30 4690 C 450 0.625818 -4.234 0
M  V30 4691 C 449.326 1.76674 -5.04669 0
M  V30 4692 C 450.626 -0.413515 -5.2066 0
M  V30 4693 H 452.32 -0.513184 -2.94969 0
M  V30 4694 H 449.866 -0.248241 -1.41844 0
M  V30 4695 H 451.819 1.75955 -3.82907 0
M  V30 4696 H 450.543 1.97067 -2.60446 0
M  V30 4697 H 449.202 0.120023 -3.66403 0
M  V30 4698 H 448.85 2.49383 -4.36826 0
M  V30 4699 H 448.55 1.36673 -5.71484 0
M  V30 4700 H 450.074 2.29738 -5.65732 0
M  V30 4701 H 451.488 0.0272042 -5.73294 0
M  V30 4702 H 449.885 -0.731825 -5.95621 0
M  V30 4703 H 450.955 -1.31325 -4.66778 0
M  V30 4704 N 452.299 1.55045 -0.282633 0
M  V30 4705 C 453.71 1.85473 0.213655 0
M  V30 4706 C 454.061 1.20465 1.54863 0
M  V30 4707 O 453.186 0.495676 2.10647 0
M  V30 4708 C 453.781 3.36496 0.394445 0
M  V30 4709 C 452.34 3.67022 0.834961 0
M  V30 4710 C 451.487 2.77218 -0.0674081 0
M  V30 4711 H 454.438 1.50478 -0.504202 0
M  V30 4712 H 454.459 3.60007 1.23186 0
M  V30 4713 H 453.971 3.83782 -0.577326 0
M  V30 4714 H 452.072 3.25241 1.81794 0
M  V30 4715 H 452.185 4.74433 0.667075 0
M  V30 4716 H 450.549 2.5069 0.450196 0
M  V30 4717 H 451.332 3.2732 -1.0352 0
M  V30 4718 N 453.777 0.010035 1.57597 0
M  V30 4719 C 454.71 -1.01234 2.04516 0
M  V30 4720 C 455.688 -1.32886 0.937024 0
M  V30 4721 O 456.872 -1.44879 1.20592 0
M  V30 4722 C 453.999 -2.33738 2.45121 0
M  V30 4723 C 453.045 -2.17679 3.66767 0
M  V30 4724 S 453.878 -1.49343 5.14254 0
M  V30 4725 C 455.034 -2.83256 5.58137 0
M  V30 4726 H 455.267 -0.612866 2.90914 0
M  V30 4727 H 452.8 -0.201124 1.53084 0
M  V30 4728 H 454.758 -3.09922 2.69182 0
M  V30 4729 H 453.419 -2.70823 1.59103 0
M  V30 4730 H 452.612 -3.1559 3.92962 0
M  V30 4731 H 452.214 -1.4964 3.42759 0
M  V30 4732 H 454.506 -3.79538 5.6121 0
M  V30 4733 H 455.449 -2.61749 6.57946 0
M  V30 4734 H 455.857 -2.87627 4.85727 0
M  V30 4735 N 455.255 -1.55392 -0.262866 0
M  V30 4736 C 456.501 -1.76737 -0.99458 0
M  V30 4737 C 456.834 -0.572453 -1.85571 0
M  V30 4738 O 456.109 0.429732 -1.89693 0
M  V30 4739 C 456.392 -3.07824 -1.8686 0
M  V30 4740 C 456.245 -4.3769 -1.03672 0
M  V30 4741 C 457.564 -3.35021 -2.85393 0
M  V30 4742 H 454.683 -0.643005 -0.360157 0
M  V30 4743 H 457.325 -1.88126 -0.266216 0
M  V30 4744 H 455.475 -2.98245 -2.48962 0
M  V30 4745 H 457.147 -4.59238 -0.43563 0
M  V30 4746 H 455.39 -4.32461 -0.340513 0
M  V30 4747 H 456.061 -5.25759 -1.6817 0
M  V30 4748 H 458.537 -3.44458 -2.33426 0
M  V30 4749 H 457.413 -4.27989 -3.43681 0
M  V30 4750 H 457.674 -2.55153 -3.61039 0
M  V30 4751 N 456.733 0.527833 -1.48498 0
M  V30 4752 C 457.663 1.64136 -1.66077 0
M  V30 4753 C 458.644 1.62286 -0.509625 0
M  V30 4754 O 459.829 1.79449 -0.742413 0
M  V30 4755 C 456.959 3.02717 -1.70234 0
M  V30 4756 C 455.913 3.19426 -2.8487 0
M  V30 4757 C 455.239 4.5909 -2.74118 0
M  V30 4758 C 456.539 3.01993 -4.26142 0
M  V30 4759 H 458.233 1.4968 -2.593 0
M  V30 4760 H 455.779 0.718654 -1.24785 0
M  V30 4761 H 457.732 3.80491 -1.8112 0
M  V30 4762 H 456.456 3.18201 -0.735911 0
M  V30 4763 H 455.115 2.4407 -2.73542 0
M  V30 4764 H 454.763 4.71413 -1.7544 0
M  V30 4765 H 454.463 4.71214 -3.51042 0
M  V30 4766 H 455.987 5.3896 -2.86974 0
M  V30 4767 H 457.401 3.69558 -4.38292 0
M  V30 4768 H 455.798 3.2561 -5.04082 0
M  V30 4769 H 456.868 1.98396 -4.42456 0
M  V30 4770 N 458.211 1.37122 0.776871 0
M  V30 4771 C 459.174 1.32301 1.8716 0
M  V30 4772 C 460.174 0.228099 1.59174 0
M  V30 4773 O 461.364 0.483642 1.67352 0
M  V30 4774 C 458.496 1.054 3.24197 0
M  V30 4775 H 459.689 2.29673 1.92848 0
M  V30 4776 H 457.242 1.22077 0.97606 0
M  V30 4777 H 457.977 0.0853872 3.24188 0
M  V30 4778 H 457.762 1.84648 3.45901 0
M  V30 4779 H 459.252 1.04664 4.04271 0
M  V30 4780 N 459.689 -1.00246 1.21608 0
M  V30 4781 C 460.622 -2.08794 0.920892 0
M  V30 4782 C 461.6 -1.62059 -0.132552 0
M  V30 4783 O 462.784 -1.885 -0.0030366 0
M  V30 4784 C 459.911 -3.36525 0.383226 0
M  V30 4785 C 458.957 -4.02172 1.41987 0
M  V30 4786 S 459.79 -4.44256 2.98994 0
M  V30 4787 C 460.946 -5.7517 2.4684 0
M  V30 4788 H 461.179 -2.33511 1.8401 0
M  V30 4789 H 458.712 -1.13562 1.04609 0
M  V30 4790 H 460.67 -4.10423 0.0795871 0
M  V30 4791 H 459.331 -3.09854 -0.514711 0
M  V30 4792 H 458.524 -4.94114 0.993335 0
M  V30 4793 H 458.126 -3.34559 1.67171 0
M  V30 4794 H 460.418 -6.51042 1.87484 0
M  V30 4795 H 461.361 -6.22638 3.37235 0
M  V30 4796 H 461.769 -5.32112 1.88461 0
M  V30 4797 N 461.167 -1.02423 -1.1978 0
M  V30 4798 C 462.13 -0.605703 -2.21052 0
M  V30 4799 C 463.13 0.328209 -1.57415 0
M  V30 4800 O 464.32 0.115853 -1.73814 0
M  V30 4801 C 461.452 0.114366 -3.40708 0
M  V30 4802 H 462.645 -1.5017 -2.59594 0
M  V30 4803 H 460.198 -0.814888 -1.33376 0
M  V30 4804 H 460.933 1.02492 -3.07678 0
M  V30 4805 H 460.718 -0.556641 -3.88129 0
M  V30 4806 H 462.208 0.394272 -4.15735 0
M  V30 4807 N 462.645 1.35699 -0.801477 0
M  V30 4808 C 463.608 2.28199 -0.213994 0
M  V30 4809 C 464.608 1.49359 0.595691 0
M  V30 4810 O 465.798 1.69186 0.414921 0
M  V30 4811 C 462.93 3.33587 0.702297 0
M  V30 4812 H 464.123 2.81666 -1.02976 0
M  V30 4813 H 461.676 1.45467 -0.571759 0
M  V30 4814 H 462.411 2.85297 1.54195 0
M  V30 4815 H 462.196 3.91906 0.123484 0
M  V30 4816 H 463.686 4.02638 1.10783 0
M  V30 4817 N 464.123 0.554532 1.47522 0
M  V30 4818 C 465.372 0.0273458 2.01681 0
M  V30 4819 C 465.685 -1.32962 1.43459 0
M  V30 4820 O 466.891 -1.94657 1.89265 0
M  V30 4821 C 465.347 -0.00159057 3.599 0
M  V30 4822 C 464.955 1.35197 4.27113 0
M  V30 4823 C 466.699 -0.476311 4.21819 0
M  V30 4824 C 464.606 1.28229 5.77331 0
M  V30 4825 H 463.536 0.00645269 0.753972 0
M  V30 4826 H 466.187 0.701985 1.69542 0
M  V30 4827 H 464.569 -0.741821 3.8899 0
M  V30 4828 H 465.743 2.1097 4.09668 0
M  V30 4829 H 464.058 1.76441 3.77171 0
M  V30 4830 H 466.655 -0.5468 5.31897 0
M  V30 4831 H 466.998 -1.4877 3.8881 0
M  V30 4832 H 467.531 0.20898 3.97251 0
M  V30 4833 H 464.27 2.26959 6.14955 0
M  V30 4834 H 463.79 0.566314 5.97121 0
M  V30 4835 H 465.469 0.983226 6.39485 0
M  V30 4836 N 465.601 -1.54893 0.290851 0
M  V30 4837 C 466.849 -1.99538 -0.320756 0
M  V30 4838 C 467.17 -1.18075 -1.55188 0
M  V30 4839 O 466.44 -0.274162 -1.93972 0
M  V30 4840 H 465.02 -0.737052 -0.121507 0
M  V30 4841 H 467.682 -1.90755 0.399832 0
M  V30 4842 H 466.778 -3.06282 -0.599802 0
M  V30 4843 N 467.08 -0.0183926 -1.57589 0
M  V30 4844 C 468.329 0.66185 -1.90532 0
M  V30 4845 C 468.642 1.73904 -0.895366 0
M  V30 4846 O 469.848 2.47518 -1.11566 0
M  V30 4847 C 468.304 1.22844 -3.38286 0
M  V30 4848 C 467.912 0.185103 -4.47617 0
M  V30 4849 C 469.656 1.88581 -3.80312 0
M  V30 4850 C 467.563 0.762723 -5.86461 0
M  V30 4851 H 466.493 0.250972 -0.711006 0
M  V30 4852 H 469.144 -0.0819435 -1.83317 0
M  V30 4853 H 467.526 2.0235 -3.40398 0
M  V30 4854 H 468.7 -0.58671 -4.5705 0
M  V30 4855 H 467.015 -0.372889 -4.14727 0
M  V30 4856 H 469.612 2.32735 -4.81392 0
M  V30 4857 H 469.955 2.72408 -3.14801 0
M  V30 4858 H 470.488 1.15782 -3.80578 0
M  V30 4859 H 467.227 -0.0371713 -6.55489 0
M  V30 4860 H 466.747 1.50327 -5.80656 0
M  V30 4861 H 468.426 1.25576 -6.34697 0
M  V30 4862 N 468.558 1.5553 0.254621 0
M  V30 4863 C 469.488 1.9268 1.31897 0
M  V30 4864 C 470.469 0.790797 1.506 0
M  V30 4865 O 471.654 1.05045 1.63337 0
M  V30 4866 C 468.784 2.21477 2.67517 0
M  V30 4867 C 467.738 3.37256 2.63519 0
M  V30 4868 C 467.064 3.51576 4.02862 0
M  V30 4869 C 468.364 4.73157 2.21179 0
M  V30 4870 H 470.058 2.81832 1.01051 0
M  V30 4871 H 467.604 1.35599 0.484662 0
M  V30 4872 H 469.557 2.46055 3.42104 0
M  V30 4873 H 468.281 1.29144 2.99982 0
M  V30 4874 H 466.94 3.12675 1.9139 0
M  V30 4875 H 466.588 2.56676 4.32581 0
M  V30 4876 H 466.288 4.2943 4.01078 0
M  V30 4877 H 467.812 3.78467 4.79161 0
M  V30 4878 H 469.226 4.97158 2.85494 0
M  V30 4879 H 467.623 5.54058 2.30521 0
M  V30 4880 H 468.693 4.70739 1.16332 0
M  V30 4881 N 470.036 -0.519951 1.48776 0
M  V30 4882 C 471.284 -1.2727 1.56993 0
M  V30 4883 C 471.605 -1.9339 0.25004 0
M  V30 4884 O 470.875 -1.81822 -0.729216 0
M  V30 4885 H 469.455 -0.472732 0.578389 0
M  V30 4886 H 472.117 -0.604234 1.85297 0
M  V30 4887 H 471.213 -2.04669 2.3562 0
M  V30 4888 N 471.514 -1.37532 -0.769588 0
M  V30 4889 C 472.761 -1.3286 -1.52822 0
M  V30 4890 C 473.089 0.0862597 -1.94309 0
M  V30 4891 O 472.344 1.05995 -1.6451 0
M  V30 4892 C 472.643 -2.21558 -2.8044 0
M  V30 4893 C 472.309 -3.69796 -2.57996 0
M  V30 4894 C 470.971 -4.10194 -2.51583 0
M  V30 4895 C 473.323 -4.63699 -2.37976 0
M  V30 4896 C 470.651 -5.42608 -2.23144 0
M  V30 4897 C 473.003 -5.96353 -2.1106 0
M  V30 4898 C 471.667 -6.35853 -2.03093 0
M  V30 4899 H 470.937 -0.486168 -0.559215 0
M  V30 4900 H 473.584 -1.69757 -0.886277 0
M  V30 4901 H 471.889 -1.77663 -3.49204 0
M  V30 4902 H 473.586 -2.15256 -3.38328 0
M  V30 4903 H 470.176 -3.37759 -2.63851 0
M  V30 4904 H 474.36 -4.33346 -2.41919 0
M  V30 4905 H 469.616 -5.72173 -2.15472 0
M  V30 4906 H 473.79 -6.68667 -1.94568 0
M  V30 4907 H 471.417 -7.38382 -1.8082 0
M  V30 4908 N 472.992 0.995999 -1.22138 0
M  V30 4909 C 474.238 1.73767 -1.04561 0
M  V30 4910 C 474.571 1.89633 0.418698 0
M  V30 4911 O 473.846 1.43723 1.3105 0
M  V30 4912 C 474.129 3.14505 -1.75382 0
M  V30 4913 C 473.982 3.06306 -3.29388 0
M  V30 4914 C 475.301 4.13615 -1.50369 0
M  V30 4915 H 472.42 0.630728 -0.38125 0
M  V30 4916 H 475.062 1.16057 -1.50435 0
M  V30 4917 H 473.212 3.63775 -1.36383 0
M  V30 4918 H 474.884 2.64681 -3.77812 0
M  V30 4919 H 473.127 2.43186 -3.59226 0
M  V30 4920 H 473.798 4.05884 -3.74116 0
M  V30 4921 H 476.274 3.73089 -1.84239 0
M  V30 4922 H 475.15 5.10212 -2.02421 0
M  V30 4923 H 475.411 4.39949 -0.435611 0
M  V30 4924 N 474.47 1.03057 1.19235 0
M  V30 4925 C 475.716 0.729098 1.89241 0
M  V30 4926 C 476.049 -0.740573 1.79525 0
M  V30 4927 O 475.324 -1.53946 1.18874 0
M  V30 4928 C 475.607 1.18304 3.40112 0
M  V30 4929 C 475.46 2.71406 3.5869 0
M  V30 4930 C 476.779 0.765161 4.33397 0
M  V30 4931 H 473.898 0.266338 0.687192 0
M  V30 4932 H 476.54 1.28079 1.40341 0
M  V30 4933 H 474.69 0.713672 3.81889 0
M  V30 4934 H 476.362 3.26303 3.26074 0
M  V30 4935 H 474.605 3.11717 3.01687 0
M  V30 4936 H 475.276 2.98225 4.64506 0
M  V30 4937 H 477.752 1.16889 3.99345 0
M  V30 4938 H 476.628 1.11065 5.37546 0
M  V30 4939 H 476.889 -0.332372 4.40849 0
M  V30 4940 N 475.948 -1.35272 0.808662 0
M  V30 4941 C 477.194 -1.99434 0.399717 0
M  V30 4942 C 477.549 -1.62992 -1.02232 0
M  V30 4943 O 476.842 -0.884091 -1.69983 0
M  V30 4944 C 477.036 -3.53556 0.522798 0
M  V30 4945 C 476.865 -4.04969 1.95525 0
M  V30 4946 C 475.635 -4.34228 2.58407 0
M  V30 4947 C 477.833 -4.23362 2.92009 0
M  V30 4948 N 475.815 -4.71585 3.93041 0
M  V30 4949 C 477.186 -4.63739 4.11517 0
M  V30 4950 C 479.241 -4.05576 2.88813 0
M  V30 4951 C 477.944 -4.88189 5.28265 0
M  V30 4952 C 479.97 -4.31184 4.04765 0
M  V30 4953 C 479.332 -4.71834 5.23022 0
M  V30 4954 H 475.431 -0.757534 0.19408 0
M  V30 4955 H 478.015 -1.63939 1.05034 0
M  V30 4956 H 476.186 -3.88277 -0.0978471 0
M  V30 4957 H 477.918 -4.04604 0.0882378 0
M  V30 4958 H 474.673 -4.24621 2.09747 0
M  V30 4959 H 475.097 -4.9452 4.62363 0
M  V30 4960 H 479.739 -3.73288 1.98535 0
M  V30 4961 H 477.457 -5.1935 6.19113 0
M  V30 4962 H 481.043 -4.18972 4.03675 0
M  V30 4963 H 479.923 -4.91263 6.11253 0
M  V30 4964 N 477.426 -0.562348 -1.47226 0
M  V30 4965 C 478.389 0.172056 -2.28553 0
M  V30 4966 C 479.389 0.837928 -1.37242 0
M  V30 4967 O 480.579 0.693001 -1.59822 0
M  V30 4968 C 477.711 1.25223 -3.17068 0
M  V30 4969 H 478.904 -0.542401 -2.94954 0
M  V30 4970 H 476.457 -0.319493 -1.53 0
M  V30 4971 H 477.192 1.99892 -2.55369 0
M  V30 4972 H 476.977 0.779515 -3.84273 0
M  V30 4973 H 478.467 1.76791 -3.78332 0
M  V30 4974 N 478.904 1.54736 -0.299062 0
M  V30 4975 C 479.854 2.20155 0.592932 0
M  V30 4976 C 480.838 1.1739 1.10038 0
M  V30 4977 O 482.03 1.43116 1.04147 0
M  V30 4978 C 479.159 2.94437 1.76527 0
M  V30 4979 C 478.245 4.04516 1.27388 0
M  V30 4980 N 478.636 5.03319 0.500339 0
M  V30 4981 C 476.934 4.18022 1.55478 0
M  V30 4982 C 477.635 5.81209 0.238909 0
M  V30 4983 N 476.611 5.37408 0.818163 0
M  V30 4984 H 480.413 2.93899 -0.00563596 0
M  V30 4985 H 477.927 1.62068 -0.103732 0
M  V30 4986 H 479.924 3.3977 2.41582 0
M  V30 4987 H 478.584 2.22209 2.36756 0
M  V30 4988 H 479.595 5.17696 0.145419 0
M  V30 4989 H 476.272 3.56998 2.16469 0
M  V30 4990 H 477.662 6.70812 -0.382223 0
M  V30 4991 N 480.382 0.0267497 1.57577 0
M  V30 4992 C 481.332 -0.965003 2.06571 0
M  V30 4993 C 482.316 -1.28694 0.965746 0
M  V30 4994 O 483.508 -1.27345 1.22932 0
M  V30 4995 C 480.637 -2.24821 2.59443 0
M  V30 4996 C 479.723 -1.95474 3.76365 0
M  V30 4997 N 480.114 -1.36387 4.87065 0
M  V30 4998 C 478.412 -2.25478 3.84806 0
M  V30 4999 C 479.113 -1.24119 5.68304 0
M  V30 5000 N 478.089 -1.7359 5.15138 0
M  V30 5001 H 481.891 -0.503095 2.89562 0
M  V30 5002 H 479.405 -0.178322 1.61418 0
M  V30 5003 H 481.402 -2.9674 2.92833 0
M  V30 5004 H 480.062 -2.7164 1.77881 0
M  V30 5005 H 481.073 -1.03919 5.07367 0
M  V30 5006 H 477.75 -2.74987 3.14147 0
M  V30 5007 H 479.14 -0.784504 6.67304 0
M  V30 5008 N 481.861 -1.55662 -0.24637 0
M  V30 5009 C 482.794 -1.85332 -1.33143 0
M  V30 5010 C 483.772 -0.708464 -1.46354 0
M  V30 5011 O 484.956 -0.954274 -1.6256 0
M  V30 5012 C 482.083 -2.0385 -2.70487 0
M  V30 5013 C 481.129 -3.26488 -2.74423 0
M  V30 5014 S 481.962 -4.83124 -2.30979 0
M  V30 5015 C 483.118 -5.04647 -3.70246 0
M  V30 5016 H 483.351 -2.77077 -1.07777 0
M  V30 5017 H 480.884 -1.47776 -0.44738 0
M  V30 5018 H 482.842 -2.15202 -3.49569 0
M  V30 5019 H 481.503 -1.12947 -2.9309 0
M  V30 5020 H 480.696 -3.36413 -3.7529 0
M  V30 5021 H 480.298 -3.13864 -2.03385 0
M  V30 5022 H 482.59 -4.92023 -4.65746 0
M  V30 5023 H 483.533 -6.06625 -3.65255 0
M  V30 5024 H 483.941 -4.32491 -3.62784 0
M  V30 5025 N 483.339 0.512053 -1.4905 0
M  V30 5026 C 484.569 1.28928 -1.61434 0
M  V30 5027 C 484.977 1.87107 -0.280647 0
M  V30 5028 O 484.32 1.68024 0.742537 0
M  V30 5029 C 484.382 2.466 -2.61588 0
M  V30 5030 C 484.046 2.09375 -4.06216 0
M  V30 5031 C 485.043 1.63994 -4.93358 0
M  V30 5032 C 482.728 2.19348 -4.51876 0
M  V30 5033 C 484.722 1.29076 -6.24194 0
M  V30 5034 C 482.409 1.84041 -5.82728 0
M  V30 5035 C 483.407 1.38978 -6.68711 0
M  V30 5036 O 483.095 1.04144 -7.97126 0
M  V30 5037 H 482.827 0.397668 -0.546659 0
M  V30 5038 H 485.381 0.622507 -1.9574 0
M  V30 5039 H 483.611 3.16318 -2.22441 0
M  V30 5040 H 485.3 3.08642 -2.63619 0
M  V30 5041 H 486.066 1.55744 -4.59313 0
M  V30 5042 H 481.945 2.53376 -3.85125 0
M  V30 5043 H 485.489 0.938303 -6.91261 0
M  V30 5044 H 481.386 1.91938 -6.16304 0
M  V30 5045 H 482.154 1.17387 -8.10039 0
M  V30 5046 N 484.817 1.37938 0.762283 0
M  V30 5047 C 486.045 1.36883 1.55147 0
M  V30 5048 C 486.46 -0.0435348 1.8875 0
M  V30 5049 O 485.817 -1.00786 1.52146 0
M  V30 5050 C 485.868 2.21624 2.85596 0
M  V30 5051 O 485.589 3.57358 2.5343 0
M  V30 5052 C 487.09 2.28653 3.7978 0
M  V30 5053 H 484.31 0.468521 0.480343 0
M  V30 5054 H 486.854 1.81404 0.944079 0
M  V30 5055 H 485.009 1.80588 3.42734 0
M  V30 5056 H 485.423 4.01883 3.37032 0
M  V30 5057 H 486.897 2.9225 4.68288 0
M  V30 5058 H 487.374 1.29767 4.19592 0
M  V30 5059 H 487.98 2.70043 3.28568 0
M  V30 5060 N 486.295 -0.989507 1.22664 0
M  V30 5061 C 487.258 -2.06183 1.00106 0
M  V30 5062 C 488.258 -1.60765 -0.0337726 0
M  V30 5063 O 489.448 -1.72989 0.205072 0
M  V30 5064 C 486.58 -3.37021 0.51279 0
M  V30 5065 H 487.773 -2.27629 1.95256 0
M  V30 5066 H 485.326 -1.16158 1.0458 0
M  V30 5067 H 486.061 -3.21261 -0.442917 0
M  V30 5068 H 485.846 -3.71323 1.25942 0
M  V30 5069 H 487.336 -4.1591 0.375315 0
M  V30 5070 N 487.773 -1.03688 -1.18687 0
M  V30 5071 C 489.021 -0.736572 -1.88199 0
M  V30 5072 C 489.342 0.737665 -1.80509 0
M  V30 5073 O 488.612 1.53204 -1.22088 0
M  V30 5074 H 487.192 -0.269466 -0.696704 0
M  V30 5075 H 489.854 -1.31282 -1.44052 0
M  V30 5076 H 488.95 -1.03802 -2.94332 0
M  V30 5077 N 489.251 1.34841 -0.815825 0
M  V30 5078 C 490.184 2.27504 -0.178062 0
M  V30 5079 C 491.162 1.48542 0.661373 0
M  V30 5080 O 492.346 1.77779 0.626653 0
M  V30 5081 C 489.473 3.30246 0.752002 0
M  V30 5082 C 488.519 4.26499 -0.00899172 0
M  V30 5083 S 489.352 5.18169 -1.35134 0
M  V30 5084 C 490.508 6.24449 -0.42596 0
M  V30 5085 H 490.741 2.81248 -0.963684 0
M  V30 5086 H 488.274 1.41781 -0.611355 0
M  V30 5087 H 490.232 3.89933 1.28308 0
M  V30 5088 H 488.893 2.75363 1.51109 0
M  V30 5089 H 488.086 4.99146 0.697766 0
M  V30 5090 H 487.688 3.7103 -0.470396 0
M  V30 5091 H 489.98 6.76404 0.385234 0
M  V30 5092 H 490.923 6.99156 -1.1219 0
M  V30 5093 H 491.331 5.64497 -0.0175461 0
M  V30 5094 N 490.729 0.570148 1.46925 0
M  V30 5095 C 491.954 0.0542592 2.07329 0
M  V30 5096 C 492.379 -1.23582 1.41806 0
M  V30 5097 O 491.737 -1.74341 0.497479 0
M  V30 5098 C 491.785 -0.111175 3.60429 0
M  V30 5099 O 490.889 -1.17071 3.95434 0
M  V30 5100 H 490.23 0.0571425 0.661537 0
M  V30 5101 H 492.76 0.789516 1.88753 0
M  V30 5102 H 492.77 -0.321315 4.06733 0
M  V30 5103 H 491.445 0.831012 4.07513 0
M  V30 5104 H 490.022 -0.940029 3.60857 0
M  V30 5105 N 492.207 -1.54576 0.307264 0
M  V30 5106 C 493.137 -2.26708 -0.55907 0
M  V30 5107 C 494.118 -1.26893 -1.1328 0
M  V30 5108 O 495.303 -1.55677 -1.16097 0
M  V30 5109 C 492.433 -3.01259 -1.72801 0
M  V30 5110 C 491.387 -4.08275 -1.28435 0
M  V30 5111 C 490.713 -4.70575 -2.53895 0
M  V30 5112 C 492.013 -5.2068 -0.411038 0
M  V30 5113 H 493.707 -2.9937 0.042576 0
M  V30 5114 H 491.253 -1.43983 0.0219173 0
M  V30 5115 H 493.206 -3.50444 -2.34023 0
M  V30 5116 H 491.93 -2.26187 -2.356 0
M  V30 5117 H 490.589 -3.59949 -0.695161 0
M  V30 5118 H 490.237 -3.92136 -3.15021 0
M  V30 5119 H 489.937 -5.42854 -2.24908 0
M  V30 5120 H 491.461 -5.22527 -3.15908 0
M  V30 5121 H 492.875 -5.65721 -0.929097 0
M  V30 5122 H 491.272 -5.99716 -0.214664 0
M  V30 5123 H 492.342 -4.81629 0.562287 0
M  V30 5124 N 493.685 -0.035106 -1.57561 0
M  V30 5125 C 494.913 0.652258 -1.9635 0
M  V30 5126 C 495.328 1.65317 -0.911897 0
M  V30 5127 O 494.685 1.82194 0.105657 0
M  V30 5128 C 494.736 1.35337 -3.35211 0
M  V30 5129 O 494.457 0.392548 -4.36338 0
M  V30 5130 C 495.958 2.13199 -3.88666 0
M  V30 5131 H 493.178 0.179444 -0.646561 0
M  V30 5132 H 495.722 -0.0966459 -2.04271 0
M  V30 5133 H 493.877 2.05362 -3.28489 0
M  V30 5134 H 494.291 0.891097 -5.16875 0
M  V30 5135 H 495.765 2.577 -4.88154 0
M  V30 5136 H 496.242 2.97353 -3.23231 0
M  V30 5137 H 496.848 1.48118 -3.98674 0
M  V30 5138 N 495.163 1.55791 0.238111 0
M  V30 5139 C 496.095 1.87513 1.31802 0
M  V30 5140 C 497.108 0.762053 1.43863 0
M  V30 5141 O 498.297 1.04024 1.45056 0
M  V30 5142 C 495.397 2.05402 2.69561 0
M  V30 5143 C 494.57 3.3632 2.79656 0
M  V30 5144 C 493.629 3.43844 3.98319 0
M  V30 5145 O 492.655 4.16994 3.87433 0
M  V30 5146 N 493.857 2.73777 5.11885 0
M  V30 5147 H 496.622 2.80734 1.04922 0
M  V30 5148 H 494.183 1.56135 0.428196 0
M  V30 5149 H 496.175 2.07769 3.47296 0
M  V30 5150 H 494.745 1.18884 2.89111 0
M  V30 5151 H 493.965 3.46195 1.88528 0
M  V30 5152 H 495.253 4.22594 2.83358 0
M  V30 5153 H 494.651 2.14094 5.23622 0
M  V30 5154 H 493.208 2.81825 5.87723 0
M  V30 5155 N 496.642 -0.504142 1.49319 0
M  V30 5156 C 497.574 -1.62265 1.61872 0
M  V30 5157 C 498.587 -1.54881 0.501573 0
M  V30 5158 O 499.776 -1.6087 0.773497 0
M  V30 5159 C 496.876 -3.01042 1.55651 0
M  V30 5160 C 496.049 -3.33642 2.82845 0
M  V30 5161 C 495.108 -4.51816 2.69719 0
M  V30 5162 O 494.134 -4.53755 3.4365 0
M  V30 5163 N 495.336 -5.51543 1.81055 0
M  V30 5164 H 498.101 -1.51924 2.58339 0
M  V30 5165 H 495.662 -0.691954 1.46368 0
M  V30 5166 H 497.654 -3.78013 1.44528 0
M  V30 5167 H 496.224 -3.05323 0.670546 0
M  V30 5168 H 495.444 -2.45598 3.08343 0
M  V30 5169 H 496.732 -3.5222 3.67177 0
M  V30 5170 H 496.13 -5.52774 1.20241 0
M  V30 5171 H 494.687 -6.27629 1.75856 0
M  V30 5172 N 498.12 -1.38341 -0.754957 0
M  V30 5173 C 499.083 -1.35262 -1.85032 0
M  V30 5174 C 500.083 -0.253393 -1.58791 0
M  V30 5175 O 501.273 -0.510205 -1.66561 0
M  V30 5176 C 498.405 -1.10544 -3.22479 0
M  V30 5177 H 499.598 -2.32712 -1.8917 0
M  V30 5178 H 497.151 -1.23614 -0.956515 0
M  V30 5179 H 497.886 -0.136952 -3.24011 0
M  V30 5180 H 497.671 -1.90127 -3.4292 0
M  V30 5181 H 499.161 -1.11082 -4.02555 0
M  V30 5182 N 499.598 0.982988 -1.23187 0
M  V30 5183 C 500.828 1.75666 -1.08743 0
M  V30 5184 C 501.236 1.85662 0.364195 0
M  V30 5185 O 500.579 1.33317 1.26382 0
M  V30 5186 C 500.641 3.20144 -1.63549 0
M  V30 5187 C 500.305 3.33665 -3.12277 0
M  V30 5188 C 501.302 3.20194 -4.096 0
M  V30 5189 C 498.987 3.58397 -3.51933 0
M  V30 5190 C 500.981 3.31256 -5.44563 0
M  V30 5191 C 498.668 3.69098 -4.87042 0
M  V30 5192 C 499.666 3.55537 -5.83166 0
M  V30 5193 O 499.354 3.65864 -7.1582 0
M  V30 5194 H 499.086 0.558194 -0.381307 0
M  V30 5195 H 501.64 1.24387 -1.63454 0
M  V30 5196 H 499.87 3.72659 -1.03256 0
M  V30 5197 H 501.559 3.79262 -1.4462 0
M  V30 5198 H 502.325 3.00987 -3.80305 0
M  V30 5199 H 498.204 3.68025 -2.77631 0
M  V30 5200 H 501.748 3.20588 -6.19572 0
M  V30 5201 H 497.645 3.87814 -5.16014 0
M  V30 5202 H 498.413 3.82675 -7.23534 0
M  V30 5203 N 501.076 1.04316 1.18135 0
M  V30 5204 C 502.323 0.74802 1.88178 0
M  V30 5205 C 502.651 -0.72441 1.80506 0
M  V30 5206 O 501.906 -1.54463 1.20165 0
M  V30 5207 C 502.205 1.16271 3.37958 0
M  V30 5208 C 501.871 2.63585 3.65833 0
M  V30 5209 C 500.533 3.03829 3.73151 0
M  V30 5210 C 502.885 3.58822 3.78016 0
M  V30 5211 C 500.213 4.38194 3.90132 0
M  V30 5212 C 502.565 4.92909 3.96514 0
M  V30 5213 C 501.229 5.3282 4.02068 0
M  V30 5214 H 500.499 0.27372 0.688592 0
M  V30 5215 H 503.146 1.30863 1.39811 0
M  V30 5216 H 501.451 0.520938 3.88321 0
M  V30 5217 H 503.148 0.911672 3.90499 0
M  V30 5218 H 499.738 2.31414 3.60757 0
M  V30 5219 H 503.922 3.28875 3.71692 0
M  V30 5220 H 499.178 4.68631 3.92677 0
M  V30 5221 H 503.352 5.66606 4.04883 0
M  V30 5222 H 500.979 6.36943 4.14979 0
M  V30 5223 N 502.554 -1.34406 0.822964 0
M  V30 5224 C 503.487 -2.27407 0.190124 0
M  V30 5225 C 504.465 -1.4889 -0.653486 0
M  V30 5226 O 505.649 -1.78109 -0.617216 0
M  V30 5227 C 502.776 -3.3064 -0.734477 0
M  V30 5228 C 501.822 -4.26488 0.0316099 0
M  V30 5229 S 502.655 -5.17445 1.3788 0
M  V30 5230 C 503.811 -6.24214 0.45907 0
M  V30 5231 H 504.044 -2.80733 0.978586 0
M  V30 5232 H 501.577 -1.41455 0.618866 0
M  V30 5233 H 503.535 -3.90607 -1.26238 0
M  V30 5234 H 502.196 -2.76161 -1.49646 0
M  V30 5235 H 501.389 -4.9951 -0.671285 0
M  V30 5236 H 500.991 -3.70775 0.490066 0
M  V30 5237 H 503.283 -6.76599 -0.349357 0
M  V30 5238 H 504.226 -6.98551 1.15896 0
M  V30 5239 H 504.634 -5.6448 0.0474825 0
M  V30 5240 N 504.032 -0.577932 -1.46621 0
M  V30 5241 C 504.962 0.145917 -2.33044 0
M  V30 5242 C 505.943 0.888412 -1.45056 0
M  V30 5243 O 507.128 0.864812 -1.73881 0
M  V30 5244 C 504.258 1.16322 -3.27241 0
M  V30 5245 C 503.212 0.535868 -4.24632 0
M  V30 5246 C 502.538 1.65929 -5.08303 0
M  V30 5247 C 503.838 -0.523861 -5.19666 0
M  V30 5248 H 505.532 -0.575636 -2.93814 0
M  V30 5249 H 503.078 -0.278272 -1.41286 0
M  V30 5250 H 505.031 1.67793 -3.86553 0
M  V30 5251 H 503.755 1.91498 -2.64567 0
M  V30 5252 H 502.414 0.0422759 -3.66576 0
M  V30 5253 H 502.062 2.40061 -4.42018 0
M  V30 5254 H 501.762 1.2452 -5.74255 0
M  V30 5255 H 503.286 2.17686 -5.70478 0
M  V30 5256 H 504.7 -0.0944059 -5.73222 0
M  V30 5257 H 503.097 -0.858 -5.93935 0
M  V30 5258 H 504.167 -1.41197 -4.63887 0
M  V30 5259 N 505.51 1.54411 -0.315457 0
M  V30 5260 C 506.473 2.22713 0.54142 0
M  V30 5261 C 507.473 1.2179 1.04995 0
M  V30 5262 O 508.663 1.46426 0.943667 0
M  V30 5263 C 505.795 2.92485 1.75116 0
M  V30 5264 H 506.988 2.99849 -0.0555508 0
M  V30 5265 H 504.541 1.56159 -0.0664453 0
M  V30 5266 H 505.276 2.19466 2.38758 0
M  V30 5267 H 505.061 3.66483 1.39401 0
M  V30 5268 H 506.551 3.44548 2.35959 0
M  V30 5269 N 506.988 0.0434614 1.5754 0
M  V30 5270 C 508.216 -0.641835 1.96693 0
M  V30 5271 C 508.631 -1.64832 0.920652 0
M  V30 5272 O 507.988 -1.82247 -0.095993 0
M  V30 5273 C 508.039 -1.33557 3.35924 0
M  V30 5274 O 507.76 -0.369403 4.3654 0
M  V30 5275 C 509.261 -2.11135 3.89791 0
M  V30 5276 H 506.481 -0.176013 0.647503 0
M  V30 5277 H 509.025 0.107478 2.04217 0
M  V30 5278 H 507.18 -2.03617 3.29574 0
M  V30 5279 H 507.594 -0.863674 5.1734 0
M  V30 5280 H 509.068 -2.55107 4.89514 0
M  V30 5281 H 509.545 -2.95634 3.24803 0
M  V30 5282 H 510.151 -1.46002 3.99454 0
M  V30 5283 N 508.466 -1.55915 -0.229846 0
M  V30 5284 C 509.399 -1.86734 -1.3117 0
M  V30 5285 C 510.377 -0.723947 -1.45595 0
M  V30 5286 O 511.561 -0.971462 -1.61539 0
M  V30 5287 C 508.688 -2.06707 -2.68309 0
M  V30 5288 C 507.734 -3.2938 -2.70944 0
M  V30 5289 S 508.567 -4.85547 -2.25842 0
M  V30 5290 C 509.723 -5.08546 -3.64873 0
M  V30 5291 H 509.956 -2.78204 -1.04832 0
M  V30 5292 H 507.489 -1.48243 -0.431681 0
M  V30 5293 H 509.447 -2.18898 -3.47267 0
M  V30 5294 H 508.108 -1.16049 -2.91876 0
M  V30 5295 H 507.301 -3.40374 -3.71701 0
M  V30 5296 H 506.903 -3.16004 -2.00044 0
M  V30 5297 H 509.195 -4.96935 -4.60502 0
M  V30 5298 H 510.138 -6.10465 -3.58801 0
M  V30 5299 H 510.546 -4.36314 -3.58176 0
M  V30 5300 N 509.944 0.496216 -1.49584 0
M  V30 5301 C 511.172 1.27394 -1.63029 0
M  V30 5302 C 511.587 1.86344 -0.303569 0
M  V30 5303 O 510.944 1.68057 0.711547 0
M  V30 5304 C 510.995 2.40077 -2.70269 0
M  V30 5305 O 510.716 1.83549 -3.97796 0
M  V30 5306 C 512.217 3.31372 -2.94462 0
M  V30 5307 H 509.437 0.386211 -0.54871 0
M  V30 5308 H 511.981 0.595163 -1.95648 0
M  V30 5309 H 510.136 3.03775 -2.40415 0
M  V30 5310 H 510.55 2.57561 -4.56905 0
M  V30 5311 H 512.024 4.06707 -3.73221 0
M  V30 5312 H 512.501 3.88654 -2.0456 0
M  V30 5313 H 513.107 2.73435 -3.25751 0
M  V30 5314 N 511.423 1.38739 0.74761 0
M  V30 5315 C 512.672 1.3459 1.50228 0
M  V30 5316 C 512.985 -0.0595592 1.95509 0
M  V30 5317 O 514.191 -0.22361 2.70578 0
M  V30 5318 C 512.647 2.36377 2.71393 0
M  V30 5319 C 512.255 3.82573 2.33113 0
M  V30 5320 C 513.999 2.41281 3.49262 0
M  V30 5321 C 511.906 4.76032 3.50924 0
M  V30 5322 H 510.836 0.500312 0.564096 0
M  V30 5323 H 513.487 1.64324 0.8167 0
M  V30 5324 H 511.869 1.99694 3.41962 0
M  V30 5325 H 513.043 4.28227 1.70171 0
M  V30 5326 H 511.358 3.80844 1.68365 0
M  V30 5327 H 513.955 3.08301 4.36869 0
M  V30 5328 H 514.298 1.43353 3.9084 0
M  V30 5329 H 514.831 2.76793 2.85711 0
M  V30 5330 H 511.57 5.75177 3.14408 0
M  V30 5331 H 511.09 4.35066 4.12889 0
M  V30 5332 H 512.769 4.94331 4.17427 0
M  V30 5333 N 512.901 -0.976442 1.23707 0
M  V30 5334 C 513.864 -2.0511 1.02287 0
M  V30 5335 C 514.864 -1.60791 -0.0167195 0
M  V30 5336 O 516.054 -1.72761 0.223408 0
M  V30 5337 C 513.186 -3.36458 0.548507 0
M  V30 5338 H 514.379 -2.25545 1.9766 0
M  V30 5339 H 511.932 -1.15042 1.05806 0
M  V30 5340 H 512.667 -3.21713 -0.408818 0
M  V30 5341 H 512.452 -3.69967 1.29874 0
M  V30 5342 H 513.942 -4.15489 0.419406 0
M  V30 5343 N 514.379 -1.04941 -1.1758 0
M  V30 5344 C 515.625 -0.759112 -1.88057 0
M  V30 5345 C 515.958 0.711918 -1.8068 0
M  V30 5346 O 515.233 1.52035 -1.21308 0
M  V30 5347 C 515.516 -1.237 -3.38187 0
M  V30 5348 C 515.369 -2.77078 -3.54327 0
M  V30 5349 C 516.688 -0.834014 -4.32125 0
M  V30 5350 H 513.807 -0.277237 -0.682868 0
M  V30 5351 H 516.449 -1.30296 -1.38286 0
M  V30 5352 H 514.599 -0.774337 -3.80705 0
M  V30 5353 H 516.271 -3.31449 -3.20842 0
M  V30 5354 H 514.514 -3.16477 -2.96689 0
M  V30 5355 H 515.185 -3.05577 -4.59703 0
M  V30 5356 H 517.661 -1.23228 -3.97434 0
M  V30 5357 H 516.537 -1.19603 -5.35711 0
M  V30 5358 H 516.798 0.262195 -4.41322 0
M  V30 5359 N 515.857 1.33968 -0.830081 0
M  V30 5360 C 517.268 1.80439 -0.479455 0
M  V30 5361 C 517.619 1.68756 1.00079 0
M  V30 5362 O 516.744 1.23171 1.77927 0
M  V30 5363 C 517.339 3.27611 -0.863505 0
M  V30 5364 C 515.898 3.72133 -0.565145 0
M  V30 5365 C 515.045 2.55549 -1.07657 0
M  V30 5366 H 517.996 1.21614 -1.0196 0
M  V30 5367 H 518.017 3.8012 -0.170083 0
M  V30 5368 H 517.529 3.36082 -1.94089 0
M  V30 5369 H 515.63 3.69196 0.502536 0
M  V30 5370 H 515.743 4.65963 -1.11422 0
M  V30 5371 H 514.107 2.49788 -0.497807 0
M  V30 5372 H 514.89 2.66786 -2.16055 0
M  V30 5373 N 517.335 0.585699 1.46312 0
M  V30 5374 C 518.563 0.0781299 2.06752 0
M  V30 5375 C 518.978 -1.22812 1.43396 0
M  V30 5376 O 518.335 -1.74318 0.540314 0
M  V30 5377 C 518.386 -0.0911927 3.61385 0
M  V30 5378 O 518.107 1.16336 4.22371 0
M  V30 5379 C 519.608 -0.632765 4.38761 0
M  V30 5380 H 516.828 0.0588188 0.668417 0
M  V30 5381 H 519.372 0.807218 1.87894 0
M  V30 5382 H 517.527 -0.770514 3.7966 0
M  V30 5383 H 517.941 0.979082 5.15281 0
M  V30 5384 H 519.415 -0.70041 5.47538 0
M  V30 5385 H 519.892 -1.65039 4.07012 0
M  V30 5386 H 520.498 0.0117856 4.25298 0
M  V30 5387 N 518.813 -1.54241 0.323641 0
M  V30 5388 C 520.061 -2.00174 -0.278359 0
M  V30 5389 C 520.382 -1.2134 -1.52648 0
M  V30 5390 O 519.652 -0.315244 -1.93347 0
M  V30 5391 H 518.232 -0.739463 -0.105845 0
M  V30 5392 H 520.894 -1.89864 0.440204 0
M  V30 5393 H 519.99 -3.07486 -0.5347 0
M  V30 5394 N 520.291 -0.0518155 -1.57515 0
M  V30 5395 C 521.54 0.621286 -1.91893 0
M  V30 5396 C 521.853 1.71966 -0.932052 0
M  V30 5397 O 523.059 2.45096 -1.16791 0
M  V30 5398 C 521.515 1.15641 -3.40816 0
M  V30 5399 C 521.123 0.0901146 -4.47909 0
M  V30 5400 C 522.867 1.80472 -3.84227 0
M  V30 5401 C 520.774 0.638154 -5.87947 0
M  V30 5402 H 519.704 0.235835 -0.716169 0
M  V30 5403 H 522.355 -0.120809 -1.83102 0
M  V30 5404 H 520.737 1.95084 -3.44613 0
M  V30 5405 H 521.911 -0.683525 -4.55702 0
M  V30 5406 H 520.226 -0.460774 -4.13843 0
M  V30 5407 H 522.823 2.22471 -4.86221 0
M  V30 5408 H 523.166 2.65669 -3.20508 0
M  V30 5409 H 523.699 1.07683 -3.82948 0
M  V30 5410 H 520.438 -0.176202 -6.55263 0
M  V30 5411 H 519.958 1.37976 -5.83714 0
M  V30 5412 H 521.637 1.12085 -6.37217 0
M  V30 5413 N 521.769 1.56035 0.221574 0
M  V30 5414 C 522.716 1.92413 1.27459 0
M  V30 5415 C 523.686 0.781323 1.46576 0
M  V30 5416 O 524.871 1.03721 1.60145 0
M  V30 5417 C 522.011 2.24617 2.61995 0
M  V30 5418 C 521.124 3.51831 2.50677 0
M  V30 5419 C 520.259 3.73482 3.77736 0
M  V30 5420 C 519.298 4.94211 3.6114 0
M  V30 5421 N 518.435 5.12252 4.80148 0
M  V30 5422 H 523.275 2.82203 0.957355 0
M  V30 5423 H 520.812 1.39676 0.461415 0
M  V30 5424 H 522.77 2.41298 3.40339 0
M  V30 5425 H 521.4 1.38 2.91815 0
M  V30 5426 H 520.452 3.43343 1.63767 0
M  V30 5427 H 521.764 4.40328 2.34334 0
M  V30 5428 H 520.918 3.9026 4.64523 0
M  V30 5429 H 519.657 2.83266 3.97003 0
M  V30 5430 H 518.662 4.77384 2.72736 0
M  V30 5431 H 519.887 5.85912 3.43343 0
M  V30 5432 H 517.833 4.24978 4.99729 0
M  V30 5433 H 517.75 5.94881 4.66532 0
M  V30 5434 H 519.018 5.33465 5.68362 0
M  V30 5435 N 523.247 -0.488276 1.49845 0
M  V30 5436 C 524.493 -1.24341 1.6021 0
M  V30 5437 C 524.826 -1.91967 0.293651 0
M  V30 5438 O 524.101 -1.81323 -0.703718 0
M  V30 5439 C 524.384 -2.3005 2.77036 0
M  V30 5440 C 524.237 -1.66842 4.17713 0
M  V30 5441 C 525.556 -3.31509 2.89464 0
M  V30 5442 H 522.675 -0.450704 0.583125 0
M  V30 5443 H 525.317 -0.539673 1.82174 0
M  V30 5444 H 523.467 -2.90071 2.58439 0
M  V30 5445 H 525.139 -1.1055 4.47858 0
M  V30 5446 H 523.382 -0.972079 4.22768 0
M  V30 5447 H 524.053 -2.43576 4.95353 0
M  V30 5448 H 526.529 -2.81493 3.06433 0
M  V30 5449 H 525.405 -4.02822 3.72861 0
M  V30 5450 H 525.666 -3.94603 1.99351 0
M  V30 5451 N 524.725 -1.39134 -0.740242 0
M  V30 5452 C 525.972 -1.36071 -1.49969 0
M  V30 5453 C 526.3 0.0450245 -1.94448 0
M  V30 5454 O 525.555 1.02482 -1.66721 0
M  V30 5455 C 525.854 -2.27457 -2.75678 0
M  V30 5456 C 525.52 -3.75185 -2.50094 0
M  V30 5457 C 524.182 -4.15439 -2.42825 0
M  V30 5458 C 526.534 -4.68643 -2.28086 0
M  V30 5459 C 523.862 -5.4722 -2.11584 0
M  V30 5460 C 526.214 -6.00695 -1.98363 0
M  V30 5461 C 524.878 -6.40018 -1.8956 0
M  V30 5462 H 524.148 -0.497921 -0.548777 0
M  V30 5463 H 526.795 -1.71599 -0.85007 0
M  V30 5464 H 525.1 -1.8503 -3.45356 0
M  V30 5465 H 526.797 -2.22384 -3.33686 0
M  V30 5466 H 523.387 -3.43279 -2.56627 0
M  V30 5467 H 527.571 -4.3838 -2.32672 0
M  V30 5468 H 522.827 -5.76615 -2.03287 0
M  V30 5469 H 527.001 -6.72644 -1.80341 0
M  V30 5470 H 524.628 -7.42051 -1.65117 0
M  V30 5471 N 526.204 0.969867 -1.24223 0
M  V30 5472 C 527.429 1.75289 -1.10853 0
M  V30 5473 C 527.854 1.85091 0.335079 0
M  V30 5474 O 527.212 1.32024 1.24255 0
M  V30 5475 C 527.26 3.15255 -1.75062 0
M  V30 5476 O 526.364 3.99589 -1.01992 0
M  V30 5477 H 525.705 0.538904 -0.387915 0
M  V30 5478 H 528.235 1.21675 -1.64488 0
M  V30 5479 H 528.245 3.65787 -1.80731 0
M  V30 5480 H 526.92 3.07436 -2.801 0
M  V30 5481 H 525.497 3.58077 -1.04094 0
M  V30 5482 N 527.682 1.05563 1.17022 0
M  V30 5483 C 528.928 0.778872 1.87897 0
M  V30 5484 C 529.283 -0.686839 1.79723 0
M  V30 5485 O 528.576 -1.49612 1.19694 0
M  V30 5486 C 528.77 1.19849 3.36706 0
M  V30 5487 C 528.599 2.70345 3.59366 0
M  V30 5488 C 527.369 3.37707 3.75875 0
M  V30 5489 C 529.567 3.68564 3.58699 0
M  V30 5490 N 527.549 4.7703 3.86414 0
M  V30 5491 C 528.92 4.93634 3.75134 0
M  V30 5492 C 530.975 3.6198 3.4187 0
M  V30 5493 C 529.678 6.12907 3.76481 0
M  V30 5494 C 531.704 4.80697 3.44507 0
M  V30 5495 C 531.066 6.04592 3.61453 0
M  V30 5496 H 527.165 0.337297 0.705517 0
M  V30 5497 H 529.749 1.34832 1.40458 0
M  V30 5498 H 527.92 0.656958 3.82804 0
M  V30 5499 H 529.652 0.871172 3.95212 0
M  V30 5500 H 526.407 2.88108 3.75887 0
M  V30 5501 H 526.831 5.49483 3.95471 0
M  V30 5502 H 531.473 2.67154 3.27702 0
M  V30 5503 H 529.191 7.08073 3.89432 0
M  V30 5504 H 532.777 4.77259 3.32738 0
M  V30 5505 H 531.657 6.94916 3.63403 0
M  V30 5506 N 529.16 -1.33526 0.837174 0
M  V30 5507 C 530.409 -1.97098 0.428387 0
M  V30 5508 C 530.722 -1.67062 -1.01734 0
M  V30 5509 O 531.928 -2.24235 -1.53072 0
M  V30 5510 C 530.384 -3.52725 0.715075 0
M  V30 5511 C 529.992 -3.9164 2.17537 0
M  V30 5512 C 531.736 -4.22857 0.373154 0
M  V30 5513 C 529.643 -5.40237 2.40619 0
M  V30 5514 H 528.573 -0.737589 0.156455 0
M  V30 5515 H 531.224 -1.52169 1.02552 0
M  V30 5516 H 529.606 -3.95971 0.0475904 0
M  V30 5517 H 530.78 -3.59456 2.88319 0
M  V30 5518 H 529.095 -3.34485 2.4801 0
M  V30 5519 H 531.692 -5.32133 0.523264 0
M  V30 5520 H 532.035 -4.10647 -0.683708 0
M  V30 5521 H 532.568 -3.85135 0.995801 0
M  V30 5522 H 529.307 -5.57449 3.44864 0
M  V30 5523 H 528.827 -5.73887 1.74396 0
M  V30 5524 H 530.506 -6.07102 2.23688 0
M  V30 5525 N 530.638 -0.59345 -1.46 0
M  V30 5526 C 531.601 0.123538 -2.28867 0
M  V30 5527 C 532.601 0.808628 -1.38989 0
M  V30 5528 O 533.791 0.658945 -1.61256 0
M  V30 5529 C 530.923 1.1847 -3.19653 0
M  V30 5530 H 532.116 -0.604843 -2.93737 0
M  V30 5531 H 529.669 -0.351875 -1.52288 0
M  V30 5532 H 530.404 1.94431 -2.59552 0
M  V30 5533 H 530.189 0.69783 -3.8584 0
M  V30 5534 H 531.679 1.68726 -3.81997 0
M  V30 5535 N 532.116 1.54067 -0.331816 0
M  V30 5536 C 533.344 2.05131 0.269996 0
M  V30 5537 C 533.759 1.20749 1.45138 0
M  V30 5538 O 533.116 0.240069 1.80914 0
M  V30 5539 C 533.167 3.54728 0.696456 0
M  V30 5540 O 532.888 4.35906 -0.43794 0
M  V30 5541 C 534.389 4.21916 1.36021 0
M  V30 5542 H 531.609 0.668807 0.0542042 0
M  V30 5543 H 534.153 1.98777 -0.4804 0
M  V30 5544 H 532.308 3.61342 1.39681 0
M  V30 5545 H 532.722 5.24404 -0.100334 0
M  V30 5546 H 534.196 5.28015 1.60947 0
M  V30 5547 H 534.673 3.73538 2.31011 0
M  V30 5548 H 535.279 4.19463 0.702212 0
M  V30 5549 N 533.594 0.0601682 1.57485 0
M  V30 5550 C 534.527 -0.94676 2.07634 0
M  V30 5551 C 535.505 -1.29837 0.978826 0
M  V30 5552 O 536.689 -1.40969 1.2514 0
M  V30 5553 C 533.816 -2.25822 2.52433 0
M  V30 5554 C 532.862 -2.05901 3.73507 0
M  V30 5555 S 533.695 -1.32907 5.18745 0
M  V30 5556 C 534.851 -2.65356 5.66866 0
M  V30 5557 H 535.084 -0.520003 2.92717 0
M  V30 5558 H 532.617 -0.152319 1.53647 0
M  V30 5559 H 534.575 -3.01201 2.78905 0
M  V30 5560 H 533.236 -2.65624 1.67639 0
M  V30 5561 H 532.429 -3.02929 4.02803 0
M  V30 5562 H 532.031 -1.38659 3.47347 0
M  V30 5563 H 534.323 -3.61492 5.73001 0
M  V30 5564 H 535.266 -2.40685 6.6594 0
M  V30 5565 H 535.674 -2.72028 4.94632 0
M  V30 5566 N 535.072 -1.5615 -0.213296 0
M  V30 5567 C 536.318 -1.80718 -0.933402 0
M  V30 5568 C 536.673 -0.634441 -1.81639 0
M  V30 5569 O 535.966 0.371182 -1.8797 0
M  V30 5570 C 536.16 -3.08772 -1.79985 0
M  V30 5571 C 535.989 -4.38389 -1.00224 0
M  V30 5572 C 534.759 -5.00513 -0.693885 0
M  V30 5573 C 536.957 -5.13013 -0.363598 0
M  V30 5574 N 534.939 -6.13774 0.124266 0
M  V30 5575 C 536.31 -6.19186 0.31757 0
M  V30 5576 C 538.365 -4.97126 -0.277468 0
M  V30 5577 C 537.068 -7.11197 1.07664 0
M  V30 5578 C 539.094 -5.89544 0.468155 0
M  V30 5579 C 538.456 -6.95149 1.13784 0
M  V30 5580 H 534.555 -0.712833 -0.321549 0
M  V30 5581 H 537.139 -1.93633 -0.203588 0
M  V30 5582 H 535.31 -2.97126 -2.50142 0
M  V30 5583 H 537.042 -3.21499 -2.45806 0
M  V30 5584 H 533.797 -4.62619 -1.01391 0
M  V30 5585 H 534.221 -6.74981 0.522418 0
M  V30 5586 H 538.863 -4.15526 -0.78087 0
M  V30 5587 H 536.581 -7.92273 1.59153 0
M  V30 5588 H 540.167 -5.79327 0.535911 0
M  V30 5589 H 539.047 -7.65428 1.70557 0
M  V30 5590 N 536.55 0.480323 -1.50102 0
M  V30 5591 C 537.798 1.23063 -1.60312 0
M  V30 5592 C 538.119 1.92659 -0.301226 0
M  V30 5593 O 537.389 1.83691 0.680753 0
M  V30 5594 H 535.969 0.457231 -0.590719 0
M  V30 5595 H 538.631 0.554893 -1.86834 0
M  V30 5596 H 537.727 1.9835 -2.40964 0
M  V30 5597 N 538.028 1.39524 0.732853 0
M  V30 5598 C 539.276 1.36594 1.48951 0
M  V30 5599 C 539.597 -0.0367507 1.94965 0
M  V30 5600 O 538.867 -0.988391 1.69138 0
M  V30 5601 H 537.447 0.502673 0.552566 0
M  V30 5602 H 540.109 1.74411 0.869869 0
M  V30 5603 H 539.205 2.03 2.3706 0
M  V30 5604 N 539.506 -0.963266 1.24736 0
M  V30 5605 C 540.731 -1.74699 1.11781 0
M  V30 5606 C 541.156 -1.85267 -0.325258 0
M  V30 5607 O 540.514 -1.32681 -1.23553 0
M  V30 5608 C 540.562 -3.14322 1.76731 0
M  V30 5609 O 539.666 -3.99043 1.04109 0
M  V30 5610 H 539.007 -0.53684 0.390767 0
M  V30 5611 H 541.537 -1.20801 1.65131 0
M  V30 5612 H 541.547 -3.64824 1.82668 0
M  V30 5613 H 540.222 -3.05946 2.81726 0
M  V30 5614 H 538.799 -3.5752 1.05991 0
M  V30 5615 N 540.985 -1.06182 -1.16461 0
M  V30 5616 C 542.234 -0.772927 -1.86303 0
M  V30 5617 C 542.547 0.703187 -1.82523 0
M  V30 5618 O 543.753 1.10641 -2.47933 0
M  V30 5619 C 542.209 -1.33249 -3.34324 0
M  V30 5620 C 541.817 -2.83876 -3.46581 0
M  V30 5621 C 543.561 -1.12108 -4.09429 0
M  V30 5622 C 541.468 -3.33082 -4.88682 0
M  V30 5623 H 540.398 -0.285452 -0.697878 0
M  V30 5624 H 543.049 -1.28039 -1.31447 0
M  V30 5625 H 541.431 -0.7528 -3.88779 0
M  V30 5626 H 542.605 -3.47786 -3.02293 0
M  V30 5627 H 540.92 -3.03671 -2.84909 0
M  V30 5628 H 543.517 -1.46361 -5.14279 0
M  V30 5629 H 543.86 -0.0593832 -4.16258 0
M  V30 5630 H 544.393 -1.6665 -3.6121 0
M  V30 5631 H 541.132 -4.38726 -4.87032 0
M  V30 5632 H 540.652 -2.73919 -5.33599 0
M  V30 5633 H 542.331 -3.28344 -5.57494 0
M  V30 5634 N 542.463 1.3308 -0.844243 0
M  V30 5635 C 543.373 2.32876 -0.283922 0
M  V30 5636 C 544.389 1.63589 0.592846 0
M  V30 5637 O 545.565 1.95205 0.495693 0
M  V30 5638 C 542.63 3.42667 0.527283 0
M  V30 5639 C 541.691 4.27664 -0.374394 0
M  V30 5640 C 540.924 5.32212 0.39819 0
M  V30 5641 O 541.147 5.46635 1.62932 0
M  V30 5642 O 540.081 6.01458 -0.2306 0
M  V30 5643 H 543.907 2.82671 -1.11045 0
M  V30 5644 H 541.492 1.36518 -0.606903 0
M  V30 5645 H 543.374 4.09652 0.988078 0
M  V30 5646 H 542.049 2.95079 1.33078 0
M  V30 5647 H 540.956 3.63526 -0.883144 0
M  V30 5648 H 542.289 4.78749 -1.1428 0
M  V30 5649 N 543.941 0.601185 1.45683 0
M  V30 5650 C 545.188 0.0938811 2.02282 0
M  V30 5651 C 545.516 -1.27315 1.47041 0
M  V30 5652 O 544.771 -1.85193 0.632623 0
M  V30 5653 C 545.07 -0.00222425 3.574 0
M  V30 5654 C 544.736 1.29963 4.31764 0
M  V30 5655 C 543.398 1.65625 4.51798 0
M  V30 5656 C 545.75 2.1603 4.74321 0
M  V30 5657 C 543.078 2.87119 5.11644 0
M  V30 5658 C 545.43 3.36766 5.3551 0
M  V30 5659 C 544.094 3.72689 5.53768 0
M  V30 5660 H 543.364 0.0343535 0.740203 0
M  V30 5661 H 546.011 0.781522 1.74827 0
M  V30 5662 H 544.316 -0.773096 3.84097 0
M  V30 5663 H 546.013 -0.410794 3.9889 0
M  V30 5664 H 542.603 1.01204 4.1648 0
M  V30 5665 H 546.787 1.89778 4.58582 0
M  V30 5666 H 542.043 3.15065 5.2397 0
M  V30 5667 H 546.217 4.03713 5.67441 0
M  V30 5668 H 543.844 4.66918 5.99909 0
M  V30 5669 N 545.419 -1.53889 0.339982 0
M  V30 5670 C 546.366 -2.24902 -0.518452 0
M  V30 5671 C 547.336 -1.24593 -1.09844 0
M  V30 5672 O 548.521 -1.53317 -1.13572 0
M  V30 5673 C 545.661 -3.02262 -1.66529 0
M  V30 5674 C 544.774 -4.17418 -1.11295 0
M  V30 5675 C 543.909 -4.82273 -2.2268 0
M  V30 5676 C 542.948 -5.89503 -1.6478 0
M  V30 5677 N 542.085 -6.48153 -2.69893 0
M  V30 5678 H 546.925 -2.97853 0.0936579 0
M  V30 5679 H 544.462 -1.46986 0.0579924 0
M  V30 5680 H 546.42 -3.45371 -2.3404 0
M  V30 5681 H 545.05 -2.31614 -2.24844 0
M  V30 5682 H 544.102 -3.78976 -0.328886 0
M  V30 5683 H 545.414 -4.94554 -0.649414 0
M  V30 5684 H 544.568 -5.28435 -2.98063 0
M  V30 5685 H 543.307 -4.04552 -2.72376 0
M  V30 5686 H 542.312 -5.42728 -0.879004 0
M  V30 5687 H 543.537 -6.6913 -1.1594 0
M  V30 5688 H 541.483 -5.73298 -3.1885 0
M  V30 5689 H 541.4 -7.20752 -2.28151 0
M  V30 5690 H 542.668 -6.98968 -3.45056 0
M  V30 5691 N 546.897 -0.0685191 -1.57451 0
M  V30 5692 C 548.125 0.610462 -1.97689 0
M  V30 5693 C 548.54 1.63346 -0.946758 0
M  V30 5694 O 547.897 1.82377 0.0669868 0
M  V30 5695 C 547.948 1.28196 -3.38006 0
M  V30 5696 O 547.669 0.299906 -4.37072 0
M  V30 5697 C 549.17 2.04907 -3.931 0
M  V30 5698 H 546.39 0.165689 -0.650222 0
M  V30 5699 H 548.934 -0.139953 -2.04021 0
M  V30 5700 H 547.089 1.98348 -3.32771 0
M  V30 5701 H 547.503 0.78126 -5.18649 0
M  V30 5702 H 548.977 2.47287 -4.93511 0
M  V30 5703 H 549.454 2.9043 -3.29465 0
M  V30 5704 H 550.06 1.39629 -4.01726 0
M  V30 5705 N 548.375 1.56261 0.205012 0
M  V30 5706 C 549.786 1.70056 0.770574 0
M  V30 5707 C 550.137 0.673398 1.84282 0
M  V30 5708 O 549.262 -0.172196 2.15714 0
M  V30 5709 C 549.857 3.08316 1.40451 0
M  V30 5710 C 548.416 3.2391 1.91727 0
M  V30 5711 C 547.563 2.66001 0.783516 0
M  V30 5712 H 550.514 1.58688 -0.019911 0
M  V30 5713 H 550.535 3.05094 2.27371 0
M  V30 5714 H 550.047 3.83053 0.623882 0
M  V30 5715 H 548.148 2.54072 2.7254 0
M  V30 5716 H 548.261 4.3131 2.08588 0
M  V30 5717 H 546.625 2.24915 1.19521 0
M  V30 5718 H 547.408 3.43297 0.0152883 0
M  V30 5719 N 549.853 -0.472356 1.50355 0
M  V30 5720 C 550.786 -1.58923 1.63764 0
M  V30 5721 C 551.764 -1.55173 0.485793 0
M  V30 5722 O 552.948 -1.74815 0.705132 0
M  V30 5723 C 550.075 -2.97497 1.61905 0
M  V30 5724 C 549.121 -3.19405 2.82635 0
M  V30 5725 S 549.954 -2.99441 4.43954 0
M  V30 5726 C 551.11 -4.40359 4.44786 0
M  V30 5727 H 551.343 -1.47309 2.58239 0
M  V30 5728 H 548.876 -0.659601 1.39602 0
M  V30 5729 H 550.834 -3.77389 1.61518 0
M  V30 5730 H 549.495 -3.06502 0.686683 0
M  V30 5731 H 548.688 -4.20636 2.77636 0
M  V30 5732 H 548.29 -2.47283 2.80583 0
M  V30 5733 H 550.582 -5.32969 4.1827 0
M  V30 5734 H 551.525 -4.50403 5.46391 0
M  V30 5735 H 551.933 -4.22378 3.74509 0
M  V30 5736 N 551.331 -1.39911 -0.725443 0
M  V30 5737 C 552.261 -1.42138 -1.85254 0
M  V30 5738 C 553.242 -0.283513 -1.67721 0
M  V30 5739 O 554.427 -0.490717 -1.87898 0
M  V30 5740 C 551.557 -1.27354 -3.23107 0
M  V30 5741 C 550.511 -2.3864 -3.55296 0
M  V30 5742 C 549.837 -2.08939 -4.92188 0
M  V30 5743 C 551.137 -3.8097 -3.57295 0
M  V30 5744 H 552.831 -2.36461 -1.83648 0
M  V30 5745 H 550.377 -1.13817 -0.882138 0
M  V30 5746 H 552.33 -1.2753 -4.01639 0
M  V30 5747 H 551.054 -0.295025 -3.25265 0
M  V30 5748 H 549.713 -2.37696 -2.79099 0
M  V30 5749 H 549.361 -1.09502 -4.90936 0
M  V30 5750 H 549.061 -2.83491 -5.14691 0
M  V30 5751 H 550.585 -2.10781 -5.73065 0
M  V30 5752 H 551.999 -3.8379 -4.25885 0
M  V30 5753 H 550.396 -4.5496 -3.9132 0
M  V30 5754 H 551.466 -4.11261 -2.5689 0
M  V30 5755 N 552.809 0.956637 -1.25245 0
M  V30 5756 C 554.055 1.70413 -1.11044 0
M  V30 5757 C 554.41 1.89275 0.345377 0
M  V30 5758 O 553.703 1.45116 1.25107 0
M  V30 5759 C 553.897 3.08996 -1.79601 0
M  V30 5760 C 553.726 3.03654 -3.317 0
M  V30 5761 C 552.496 3.07521 -4.00947 0
M  V30 5762 C 554.694 2.84975 -4.28128 0
M  V30 5763 N 552.676 2.92316 -5.39838 0
M  V30 5764 C 554.047 2.7818 -5.5409 0
M  V30 5765 C 556.102 2.6964 -4.18568 0
M  V30 5766 C 554.805 2.57616 -6.71585 0
M  V30 5767 C 556.831 2.50447 -5.35752 0
M  V30 5768 C 556.193 2.4437 -6.60653 0
M  V30 5769 H 552.292 0.631642 -0.461035 0
M  V30 5770 H 554.876 1.13331 -1.58317 0
M  V30 5771 H 553.047 3.64248 -1.34826 0
M  V30 5772 H 554.779 3.72515 -1.58161 0
M  V30 5773 H 551.534 3.16635 -3.52192 0
M  V30 5774 H 551.958 2.87923 -6.12723 0
M  V30 5775 H 556.6 2.73113 -3.22752 0
M  V30 5776 H 554.318 2.52885 -7.67512 0
M  V30 5777 H 557.904 2.39509 -5.30214 0
M  V30 5778 H 556.784 2.29712 -7.49801 0
M  V30 5779 N 554.287 1.06798 1.15896 0
M  V30 5780 C 555.25 0.687328 2.18651 0
M  V30 5781 C 556.25 -0.269559 1.58524 0
M  V30 5782 O 557.44 -0.0512627 1.74125 0
M  V30 5783 C 554.572 0.0121642 3.40898 0
M  V30 5784 H 555.765 1.59701 2.53842 0
M  V30 5785 H 553.318 0.863828 1.3026 0
M  V30 5786 H 554.053 -0.910025 3.1127 0
M  V30 5787 H 553.838 0.700309 3.85795 0
M  V30 5788 H 555.328 -0.239703 4.16911 0
M  V30 5789 N 555.766 -1.3263 0.851289 0
M  V30 5790 C 557.013 -1.97368 0.453023 0
M  V30 5791 C 557.341 -1.67384 -0.990596 0
M  V30 5792 O 556.596 -0.952665 -1.70947 0
M  V30 5793 C 556.895 -3.51713 0.635015 0
M  V30 5794 C 556.561 -4.01676 2.04859 0
M  V30 5795 C 555.223 -4.15031 2.43522 0
M  V30 5796 C 557.575 -4.28206 2.97135 0
M  V30 5797 C 554.903 -4.52257 3.73739 0
M  V30 5798 C 557.255 -4.66889 4.26846 0
M  V30 5799 C 555.919 -4.7845 4.65448 0
M  V30 5800 H 555.189 -0.722219 0.165773 0
M  V30 5801 H 557.836 -1.58092 1.0807 0
M  V30 5802 H 556.141 -3.91726 -0.0759081 0
M  V30 5803 H 557.838 -3.99823 0.306964 0
M  V30 5804 H 554.428 -3.91764 1.73836 0
M  V30 5805 H 558.612 -4.174 2.68498 0
M  V30 5806 H 553.868 -4.59402 4.03435 0
M  V30 5807 H 558.042 -4.86372 4.98413 0
M  V30 5808 H 555.669 -5.07052 5.66395 0
M  V30 5809 N 557.244 -0.608902 -1.45362 0
M  V30 5810 C 558.492 -0.104401 -2.0183 0
M  V30 5811 C 558.813 1.27007 -1.47967 0
M  V30 5812 O 558.083 1.83924 -0.674455 0
M  V30 5813 H 556.663 -0.0356042 -0.746151 0
M  V30 5814 H 559.325 -0.790596 -1.78145 0
M  V30 5815 H 558.421 -0.0551793 -3.12051 0
M  V30 5816 N 558.722 1.53707 -0.348139 0
M  V30 5817 C 559.969 2.00988 0.246966 0
M  V30 5818 C 560.297 1.23586 1.50189 0
M  V30 5819 O 559.552 0.312817 1.93184 0
M  V30 5820 C 559.851 3.52292 0.602061 0
M  V30 5821 C 559.517 4.47453 -0.556509 0
M  V30 5822 C 558.179 4.73188 -0.874446 0
M  V30 5823 C 560.531 5.03851 -1.33354 0
M  V30 5824 C 557.859 5.52577 -1.9717 0
M  V30 5825 C 560.211 5.84437 -2.42108 0
M  V30 5826 C 558.875 6.08465 -2.74456 0
M  V30 5827 H 558.145 0.735469 0.0903712 0
M  V30 5828 H 560.792 1.85464 -0.477001 0
M  V30 5829 H 559.097 3.65672 1.40681 0
M  V30 5830 H 560.794 3.86337 1.07447 0
M  V30 5831 H 557.384 4.27558 -0.298652 0
M  V30 5832 H 561.568 4.8393 -1.10117 0
M  V30 5833 H 556.824 5.69418 -2.22651 0
M  V30 5834 H 560.998 6.27151 -3.02745 0
M  V30 5835 H 558.625 6.69768 -3.59604 0
M  V30 5836 N 560.2 0.0768682 1.57412 0
M  V30 5837 C 561.13 -0.886026 2.16037 0
M  V30 5838 C 562.111 -1.30691 1.08876 0
M  V30 5839 O 563.296 -1.37705 1.36934 0
M  V30 5840 C 560.426 -2.1518 2.72608 0
M  V30 5841 C 559.38 -1.87015 3.8498 0
M  V30 5842 C 558.706 -3.20266 4.28175 0
M  V30 5843 C 560.006 -1.17143 5.08994 0
M  V30 5844 H 561.7 -0.397642 2.96748 0
M  V30 5845 H 559.246 -0.189823 1.42743 0
M  V30 5846 H 561.199 -2.82962 3.12266 0
M  V30 5847 H 559.923 -2.66269 1.89125 0
M  V30 5848 H 558.582 -1.21636 3.45833 0
M  V30 5849 H 558.23 -3.69207 3.41607 0
M  V30 5850 H 557.93 -3.0221 5.03927 0
M  V30 5851 H 559.454 -3.89237 4.70454 0
M  V30 5852 H 560.868 -1.75003 5.45937 0
M  V30 5853 H 559.265 -1.09328 5.90057 0
M  V30 5854 H 560.335 -0.151295 4.84664 0
M  V30 5855 N 561.678 -1.56367 -0.196722 0
M  V30 5856 C 562.925 -1.80529 -0.917366 0
M  V30 5857 C 563.253 -0.649817 -1.83324 0
M  V30 5858 O 562.508 0.36451 -1.92275 0
M  V30 5859 C 562.807 -3.10663 -1.767 0
M  V30 5860 C 562.473 -4.3962 -1.00225 0
M  V30 5861 C 561.135 -4.74653 -0.791095 0
M  V30 5862 C 563.487 -5.1913 -0.464035 0
M  V30 5863 C 560.815 -5.86692 -0.0302155 0
M  V30 5864 C 563.167 -6.31964 0.283625 0
M  V30 5865 C 561.831 -6.65581 0.505813 0
M  V30 5866 H 561.101 -0.660602 -0.335688 0
M  V30 5867 H 563.748 -1.90615 -0.183844 0
M  V30 5868 H 562.053 -2.95807 -2.56915 0
M  V30 5869 H 563.75 -3.26563 -2.32718 0
M  V30 5870 H 560.34 -4.12127 -1.17684 0
M  V30 5871 H 564.524 -4.9248 -0.614575 0
M  V30 5872 H 559.78 -6.11211 0.151917 0
M  V30 5873 H 563.954 -6.92791 0.708057 0
M  V30 5874 H 561.581 -7.52239 1.0973 0
M  V30 5875 N 563.156 0.464375 -1.50603 0
M  V30 5876 C 564.086 1.56944 -1.72889 0
M  V30 5877 C 565.067 1.59979 -0.577997 0
M  V30 5878 O 566.252 1.76138 -0.817855 0
M  V30 5879 C 563.382 2.95225 -1.8292 0
M  V30 5880 C 562.336 3.07056 -2.98162 0
M  V30 5881 C 561.662 4.47051 -2.93343 0
M  V30 5882 C 562.962 2.83648 -4.38567 0
M  V30 5883 H 564.656 1.38547 -2.65415 0
M  V30 5884 H 562.202 0.665082 -1.27721 0
M  V30 5885 H 564.155 3.72467 -1.97095 0
M  V30 5886 H 562.879 3.14793 -0.870209 0
M  V30 5887 H 561.538 2.32248 -2.83648 0
M  V30 5888 H 561.186 4.63547 -1.95276 0
M  V30 5889 H 560.886 4.55902 -3.70712 0
M  V30 5890 H 562.41 5.26304 -3.09575 0
M  V30 5891 H 563.824 3.50636 -4.53572 0
M  V30 5892 H 562.221 3.03937 -5.17438 0
M  V30 5893 H 563.291 1.79451 -4.50472 0
M  V30 5894 N 564.634 1.40294 0.718013 0
M  V30 5895 C 565.881 1.3844 1.47786 0
M  V30 5896 C 566.209 -0.0140838 1.94495 0
M  V30 5897 O 565.464 -0.998165 1.68331 0
M  V30 5898 C 565.763 2.31814 2.72024 0
M  V30 5899 C 565.429 3.79117 2.44093 0
M  V30 5900 C 564.091 4.19249 2.36185 0
M  V30 5901 C 566.443 4.72212 2.20602 0
M  V30 5902 C 563.771 5.50516 2.02851 0
M  V30 5903 C 566.123 6.03775 1.88781 0
M  V30 5904 C 564.787 6.42953 1.79354 0
M  V30 5905 H 564.057 0.506588 0.540786 0
M  V30 5906 H 566.704 1.72929 0.822663 0
M  V30 5907 H 565.009 1.90501 3.42369 0
M  V30 5908 H 566.706 2.27664 3.30106 0
M  V30 5909 H 563.296 3.47318 2.51133 0
M  V30 5910 H 567.48 4.42026 2.25669 0
M  V30 5911 H 562.736 5.79776 1.94088 0
M  V30 5912 H 566.91 6.75428 1.69617 0
M  V30 5913 H 564.537 7.44584 1.53291 0
M  V30 5914 N 566.112 -0.949982 1.2575 0
M  V30 5915 C 567.34 -1.72972 1.13527 0
M  V30 5916 C 567.755 -1.8623 -0.310453 0
M  V30 5917 O 567.112 -1.36336 -1.2132 0
M  V30 5918 C 567.163 -3.14108 1.78936 0
M  V30 5919 O 566.884 -3.01493 3.17858 0
M  V30 5920 C 568.385 -4.08338 1.72554 0
M  V30 5921 H 565.605 -0.541864 0.395758 0
M  V30 5922 H 568.149 -1.19151 1.66202 0
M  V30 5923 H 566.304 -3.64858 1.30221 0
M  V30 5924 H 566.718 -3.90559 3.50092 0
M  V30 5925 H 568.192 -5.04963 2.22973 0
M  V30 5926 H 568.669 -4.33742 0.690251 0
M  V30 5927 H 569.275 -3.63506 2.2078 0
M  V30 5928 N 567.59 -1.07411 -1.15328 0
M  V30 5929 C 568.836 -0.798831 -1.86404 0
M  V30 5930 C 569.169 0.673433 -1.8215 0
M  V30 5931 O 568.444 1.49428 -1.24505 0
M  V30 5932 C 568.727 -1.30846 -3.35487 0
M  V30 5933 C 568.58 -2.84532 -3.4837 0
M  V30 5934 C 569.899 -0.925486 -4.30259 0
M  V30 5935 H 567.018 -0.291659 -0.676834 0
M  V30 5936 H 569.66 -1.332 -1.35491 0
M  V30 5937 H 567.81 -0.854916 -3.78977 0
M  V30 5938 H 569.482 -3.3818 -3.13739 0
M  V30 5939 H 567.725 -3.22699 -2.8991 0
M  V30 5940 H 568.396 -3.15259 -4.53118 0
M  V30 5941 H 570.872 -1.3163 -3.94731 0
M  V30 5942 H 569.748 -1.3094 -5.33053 0
M  V30 5943 H 570.009 0.168525 -4.41779 0
M  V30 5944 N 569.068 1.32177 -0.85831 0
M  V30 5945 C 570.316 1.96735 -0.462568 0
M  V30 5946 C 570.637 1.6824 0.985911 0
M  V30 5947 O 569.907 0.991564 1.68952 0
M  V30 5948 H 568.487 0.727849 -0.168064 0
M  V30 5949 H 571.149 1.61195 -1.09554 0
M  V30 5950 H 570.245 3.06068 -0.610647 0
M  V30 5951 N 570.547 0.616602 1.45037 0
M  V30 5952 C 571.795 0.115103 2.01772 0
M  V30 5953 C 572.116 -1.2622 1.48639 0
M  V30 5954 O 571.386 -1.83563 0.684199 0
M  V30 5955 H 569.966 0.0395607 0.745952 0
M  V30 5956 H 572.628 0.800032 1.77723 0
M  V30 5957 H 571.724 0.0717274 3.12018 0
M  V30 5958 N 572.025 -1.5352 0.356285 0
M  V30 5959 C 573.271 -2.01414 -0.236653 0
M  V30 5960 C 573.604 -1.24339 -1.49176 0
M  V30 5961 O 572.879 -0.334496 -1.91602 0
M  V30 5962 C 573.162 -3.56059 -0.537982 0
M  V30 5963 C 573.015 -4.43835 0.730112 0
M  V30 5964 C 574.334 -4.19127 -1.34239 0
M  V30 5965 H 571.453 -0.732135 -0.0845386 0
M  V30 5966 H 574.095 -1.83854 0.479341 0
M  V30 5967 H 572.245 -3.71153 -1.14795 0
M  V30 5968 H 573.917 -4.40555 1.36782 0
M  V30 5969 H 572.16 -4.1218 1.3524 0
M  V30 5970 H 572.831 -5.49958 0.474358 0
M  V30 5971 H 575.307 -4.07809 -0.826498 0
M  V30 5972 H 574.183 -5.27378 -1.52198 0
M  V30 5973 H 574.444 -3.74581 -2.34822 0
M  V30 5974 N 573.503 -0.0852151 -1.57369 0
M  V30 5975 C 574.731 0.58946 -1.98325 0
M  V30 5976 C 575.146 1.62333 -0.96403 0
M  V30 5977 O 574.503 1.82438 0.0476395 0
M  V30 5978 C 574.554 1.24604 -3.39347 0
M  V30 5979 O 574.275 0.253532 -4.37366 0
M  V30 5980 C 575.776 2.00726 -3.95252 0
M  V30 5981 H 572.996 0.158783 -0.651942 0
M  V30 5982 H 575.54 -0.161584 -2.03861 0
M  V30 5983 H 573.695 1.94808 -3.34856 0
M  V30 5984 H 574.109 0.726207 -5.19448 0
M  V30 5985 H 575.583 2.42039 -4.96106 0
M  V30 5986 H 576.06 2.86919 -3.32527 0
M  V30 5987 H 576.666 1.3536 -4.03185 0
M  V30 5988 N 574.981 1.5647 0.188427 0
M  V30 5989 C 576.229 1.80655 0.905986 0
M  V30 5990 C 576.55 0.659391 1.83513 0
M  V30 5991 O 575.82 -0.321868 1.93238 0
M  V30 5992 H 574.4 0.666391 0.337538 0
M  V30 5993 H 577.062 1.93949 0.192339 0
M  V30 5994 H 576.158 2.74066 1.49313 0
M  V30 5995 N 576.459 -0.456382 1.50847 0
M  V30 5996 C 577.705 -1.20914 1.62811 0
M  V30 5997 C 578.038 -1.91301 0.334304 0
M  V30 5998 O 577.313 -1.82775 -0.665098 0
M  V30 5999 C 577.596 -2.24122 2.81853 0
M  V30 6000 C 577.449 -1.57944 4.21158 0
M  V30 6001 C 578.768 -3.25295 2.96431 0
M  V30 6002 H 575.887 -0.438233 0.592554 0
M  V30 6003 H 578.529 -0.50091 1.83278 0
M  V30 6004 H 576.679 -2.84524 2.64534 0
M  V30 6005 H 578.351 -1.01025 4.50102 0
M  V30 6006 H 576.594 -0.882185 4.24735 0
M  V30 6007 H 577.265 -2.33014 5.00408 0
M  V30 6008 H 579.741 -2.7493 3.12335 0
M  V30 6009 H 578.617 -3.94822 3.81322 0
M  V30 6010 H 578.878 -3.90286 2.07676 0
M  V30 6011 N 577.937 -1.40673 -0.710563 0
M  V30 6012 C 579.183 -1.39428 -1.47267 0
M  V30 6013 C 579.516 0.00182129 -1.942 0
M  V30 6014 O 578.791 0.971387 -1.68506 0
M  V30 6015 C 579.074 -2.38812 -2.6952 0
M  V30 6016 C 578.927 -3.87467 -2.28449 0
M  V30 6017 C 580.246 -2.3566 -3.71689 0
M  V30 6018 H 577.365 -0.507768 -0.534173 0
M  V30 6019 H 580.007 -1.71843 -0.810547 0
M  V30 6020 H 578.157 -2.113 -3.26013 0
M  V30 6021 H 579.829 -4.25825 -1.77399 0
M  V30 6022 H 578.072 -4.03058 -1.60395 0
M  V30 6023 H 578.743 -4.5253 -3.16103 0
M  V30 6024 H 581.219 -2.6004 -3.24836 0
M  V30 6025 H 580.095 -3.07237 -4.54859 0
M  V30 6026 H 580.356 -1.36996 -4.20339 0
M  V30 6027 N 579.415 0.9433 -1.26252 0
M  V30 6028 C 580.345 2.05902 -1.10122 0
M  V30 6029 C 581.326 1.70099 -0.00700552 0
M  V30 6030 O 582.511 1.93377 -0.178641 0
M  V30 6031 C 579.641 3.39516 -0.731175 0
M  V30 6032 C 578.595 3.89372 -1.77688 0
M  V30 6033 C 577.921 5.19613 -1.26122 0
M  V30 6034 C 579.221 4.14489 -3.17799 0
M  V30 6035 H 580.915 2.19655 -2.03451 0
M  V30 6036 H 578.461 1.05548 -0.979576 0
M  V30 6037 H 580.414 4.17031 -0.605215 0
M  V30 6038 H 579.138 3.25733 0.23782 0
M  V30 6039 H 577.797 3.14036 -1.89148 0
M  V30 6040 H 577.445 5.02208 -0.282128 0
M  V30 6041 H 577.145 5.53939 -1.96023 0
M  V30 6042 H 578.669 5.99713 -1.14789 0
M  V30 6043 H 580.083 4.82625 -3.09428 0
M  V30 6044 H 578.48 4.60094 -3.85271 0
M  V30 6045 H 579.55 3.20347 -3.64014 0
M  V30 6046 N 580.893 1.08022 1.14757 0
M  V30 6047 C 582.118 0.82895 1.90114 0
M  V30 6048 C 582.543 -0.612772 1.77839 0
M  V30 6049 O 581.901 -1.42895 1.11583 0
M  V30 6050 C 581.949 1.25062 3.38219 0
M  V30 6051 O 581.053 0.400119 4.10454 0
M  V30 6052 H 580.394 0.301412 0.591648 0
M  V30 6053 H 582.924 1.44062 1.45284 0
M  V30 6054 H 582.934 1.22977 3.89025 0
M  V30 6055 H 581.609 2.30067 3.46471 0
M  V30 6056 H 580.186 0.484052 3.69745 0
M  V30 6057 N 582.371 -1.3172 0.865308 0
M  V30 6058 C 583.303 -2.27545 0.274906 0
M  V30 6059 C 584.316 -1.52887 -0.559413 0
M  V30 6060 O 585.505 -1.74361 -0.382166 0
M  V30 6061 C 582.605 -3.33006 -0.629286 0
M  V30 6062 C 581.778 -4.37063 0.171553 0
M  V30 6063 C 580.837 -5.22044 -0.660052 0
M  V30 6064 O 579.863 -5.69129 -0.0897527 0
M  V30 6065 N 581.065 -5.45946 -1.97289 0
M  V30 6066 H 583.83 -2.78848 1.09836 0
M  V30 6067 H 581.391 -1.44693 0.726331 0
M  V30 6068 H 583.383 -3.86772 -1.19121 0
M  V30 6069 H 581.953 -2.81782 -1.35342 0
M  V30 6070 H 581.173 -3.83436 0.914919 0
M  V30 6071 H 582.461 -5.03662 0.721235 0
M  V30 6072 H 581.859 -5.0944 -2.45942 0
M  V30 6073 H 580.416 -6.02665 -2.4827 0
M  V30 6074 N 583.85 -0.624285 -1.44708 0
M  V30 6075 C 584.812 0.0749638 -2.29077 0
M  V30 6076 C 585.812 0.778965 -1.40673 0
M  V30 6077 O 587.003 0.624591 -1.62618 0
M  V30 6078 C 584.135 1.11663 -3.22094 0
M  V30 6079 H 585.327 -0.667013 -2.92388 0
M  V30 6080 H 582.88 -0.384098 -1.51507 0
M  V30 6081 H 583.615 1.88881 -2.63618 0
M  V30 6082 H 583.401 0.61583 -3.87234 0
M  V30 6083 H 584.891 1.60585 -3.8549 0
M  V30 6084 N 585.328 1.53329 -0.364422 0
M  V30 6085 C 586.739 1.86345 0.115039 0
M  V30 6086 C 587.09 1.28505 1.4826 0
M  V30 6087 O 586.215 0.606639 2.07723 0
M  V30 6088 C 586.81 3.38114 0.215522 0
M  V30 6089 C 585.369 3.70932 0.639237 0
M  V30 6090 C 584.516 2.76471 -0.214261 0
M  V30 6091 H 587.467 1.47593 -0.583258 0
M  V30 6092 H 587.488 3.66031 1.0393 0
M  V30 6093 H 587 3.80182 -0.779948 0
M  V30 6094 H 585.101 3.3442 1.64298 0
M  V30 6095 H 585.214 4.77302 0.41465 0
M  V30 6096 H 583.578 2.52724 0.316678 0
M  V30 6097 H 584.361 3.21373 -1.20725 0
M  V30 6098 N 586.806 0.0935595 1.57322 0
M  V30 6099 C 587.736 -0.863062 2.16964 0
M  V30 6100 C 588.717 -1.29528 1.10256 0
M  V30 6101 O 589.902 -1.36245 1.38387 0
M  V30 6102 C 587.032 -2.12276 2.74875 0
M  V30 6103 C 585.986 -1.82921 3.86942 0
M  V30 6104 C 585.312 -3.15707 4.31548 0
M  V30 6105 C 586.612 -1.11737 5.10208 0
M  V30 6106 H 588.306 -0.366145 2.97153 0
M  V30 6107 H 585.852 -0.174673 1.42937 0
M  V30 6108 H 587.805 -2.79634 3.1525 0
M  V30 6109 H 586.529 -2.64248 1.91938 0
M  V30 6110 H 585.188 -1.17961 3.47103 0
M  V30 6111 H 584.836 -3.65563 3.45504 0
M  V30 6112 H 584.536 -2.96849 5.07104 0
M  V30 6113 H 586.06 -3.84226 4.74555 0
M  V30 6114 H 587.474 -1.69203 5.47762 0
M  V30 6115 H 585.871 -1.03064 5.91183 0
M  V30 6116 H 586.941 -0.0998818 4.84797 0
M  V30 6117 N 588.284 -1.56567 -0.180126 0
M  V30 6118 C 589.561 -1.7235 -0.924931 0
M  V30 6119 C 589.941 -0.652523 -2.00762 0
M  V30 6120 O 589.289 0.334115 -2.26044 0
M  V30 6121 C 589.499 -3.1523 -1.49771 0
M  V30 6122 C 590.847 -3.75921 -1.97405 0
M  V30 6123 O 591.871 -3.18452 -1.59583 0
M  V30 6124 O 590.73 -4.7681 -2.67048 0
M  V30 6125 H 587.824 -0.703502 -0.434758 0
M  V30 6126 H 590.37 -1.6886 -0.168647 0
M  V30 6127 H 589.142 -3.84656 -0.718027 0
M  V30 6128 H 588.765 -3.23009 -2.31842 0
M  V30 6129 N 589.762 0.448376 -1.51087 0
M  V30 6130 C 591.178 0.783984 -1.39017 0
M  V30 6131 C 591.378 1.96087 -0.463904 0
M  V30 6132 O 590.434 2.52357 0.0850534 0
M  V30 6133 C 591.747 1.07471 -2.80839 0
M  V30 6134 C 593.295 1.17981 -2.89913 0
M  V30 6135 C 593.77 1.50354 -4.32617 0
M  V30 6136 N 595.261 1.57301 -4.35673 0
M  V30 6137 C 595.996 1.839 -5.4311 0
M  V30 6138 N 595.492 2.08365 -6.60724 0
M  V30 6139 N 597.285 1.8559 -5.30578 0
M  V30 6140 H 589.436 -0.326881 -2.0987 0
M  V30 6141 H 591.699 -0.0838006 -0.944289 0
M  V30 6142 H 591.405 0.282768 -3.50561 0
M  V30 6143 H 591.279 2.00519 -3.19487 0
M  V30 6144 H 593.666 1.9624 -2.20395 0
M  V30 6145 H 593.747 0.228603 -2.54776 0
M  V30 6146 H 593.391 0.726273 -5.0268 0
M  V30 6147 H 593.321 2.46663 -4.65258 0
M  V30 6148 H 595.812 1.40342 -3.50874 0
M  V30 6149 H 596.125 2.27999 -7.38401 0
M  V30 6150 H 594.47 2.0571 -6.63859 0
M  V30 6151 H 597.661 1.65989 -4.37682 0
M  V30 6152 H 597.834 2.05983 -6.1439 0
M  V30 6153 N 591.24 1.41047 0.703093 0
M  V30 6154 C 592.486 1.40207 1.46526 0
M  V30 6155 C 592.819 0.00847763 1.94198 0
M  V30 6156 O 592.094 -0.962437 1.69019 0
M  V30 6157 C 592.377 2.40238 2.6825 0
M  V30 6158 C 592.23 3.88674 2.26391 0
M  V30 6159 C 593.549 2.37627 3.70434 0
M  V30 6160 H 590.668 0.510594 0.531472 0
M  V30 6161 H 593.31 1.72271 0.801422 0
M  V30 6162 H 591.46 2.13026 3.24888 0
M  V30 6163 H 593.132 4.2676 1.75138 0
M  V30 6164 H 591.375 4.03903 1.58255 0
M  V30 6165 H 592.046 4.542 3.13698 0
M  V30 6166 H 594.522 2.61759 3.23452 0
M  V30 6167 H 593.398 3.09645 4.53223 0
M  V30 6168 H 593.659 1.39223 4.19606 0
M  V30 6169 N 592.718 -0.936591 1.26751 0
M  V30 6170 C 593.948 -1.71509 1.15188 0
M  V30 6171 C 594.356 -1.86885 -0.295037 0
M  V30 6172 O 593.699 -1.37915 -1.21347 0
M  V30 6173 C 593.761 -3.13853 1.75318 0
M  V30 6174 C 593.425 -3.21845 3.24445 0
M  V30 6175 C 594.422 -3.04771 4.21201 0
M  V30 6176 C 592.107 -3.45088 3.64992 0
M  V30 6177 C 594.101 -3.10816 5.56482 0
M  V30 6178 C 591.788 -3.50767 5.00405 0
M  V30 6179 C 592.786 -3.33648 5.9596 0
M  V30 6180 O 592.474 -3.39045 7.28906 0
M  V30 6181 H 592.206 -0.543658 0.401761 0
M  V30 6182 H 594.76 -1.18234 1.67958 0
M  V30 6183 H 592.99 -3.6857 1.17016 0
M  V30 6184 H 594.679 -3.73634 1.58596 0
M  V30 6185 H 595.445 -2.86665 3.91214 0
M  V30 6186 H 591.324 -3.57467 2.91098 0
M  V30 6187 H 594.868 -2.97372 6.31043 0
M  V30 6188 H 590.765 -3.68396 5.30052 0
M  V30 6189 H 591.533 -3.55558 7.37238 0
M  V30 6190 N 594.196 -1.08629 -1.14182 0
M  V30 6191 C 595.146 -0.687882 -2.17376 0
M  V30 6192 C 596.13 0.293632 -1.58198 0
M  V30 6193 O 597.322 0.105292 -1.76687 0
M  V30 6194 C 594.451 -0.101184 -3.43151 0
M  V30 6195 C 593.537 -1.10862 -4.09354 0
M  V30 6196 N 593.928 -2.29285 -4.50846 0
M  V30 6197 C 592.226 -0.944897 -4.35876 0
M  V30 6198 C 592.927 -2.93305 -5.02342 0
M  V30 6199 N 591.903 -2.20903 -4.96692 0
M  V30 6200 H 595.705 -1.58963 -2.472 0
M  V30 6201 H 593.219 -0.961329 -1.3089 0
M  V30 6202 H 595.216 0.202209 -4.16409 0
M  V30 6203 H 593.876 0.795522 -3.14804 0
M  V30 6204 H 594.887 -2.66927 -4.43813 0
M  V30 6205 H 591.564 -0.102186 -4.17375 0
M  V30 6206 H 592.954 -3.93932 -5.44304 0
M  V30 6207 N 595.674 1.31259 -0.872281 0
M  V30 6208 C 596.951 1.91362 -0.404943 0
M  V30 6209 C 597.331 1.79362 1.11321 0
M  V30 6210 O 596.679 1.20277 1.94283 0
M  V30 6211 C 596.889 3.3749 -0.888893 0
M  V30 6212 C 598.237 4.14593 -0.916384 0
M  V30 6213 O 599.261 3.46282 -0.834701 0
M  V30 6214 O 598.12 5.3661 -1.03498 0
M  V30 6215 H 595.214 0.818016 -0.121569 0
M  V30 6216 H 597.76 1.39912 -0.960346 0
M  V30 6217 H 596.532 3.40249 -1.93251 0
M  V30 6218 H 596.155 3.96375 -0.311932 0
M  V30 6219 N 597.152 0.631951 1.44375 0
M  V30 6220 C 598.38 0.143867 2.06399 0
M  V30 6221 C 598.795 -1.18188 1.47231 0
M  V30 6222 O 598.152 -1.72511 0.595498 0
M  V30 6223 C 598.203 0.0238253 3.61492 0
M  V30 6224 O 597.924 1.29715 4.18456 0
M  V30 6225 C 599.425 -0.492856 4.40552 0
M  V30 6226 H 596.645 0.0800542 0.666207 0
M  V30 6227 H 599.189 0.866586 1.85231 0
M  V30 6228 H 597.344 -0.649338 3.81919 0
M  V30 6229 H 597.758 1.14252 5.11905 0
M  V30 6230 H 599.232 -0.525861 5.49489 0
M  V30 6231 H 599.709 -1.52006 4.12057 0
M  V30 6232 H 600.315 0.147085 4.25046 0
M  V30 6233 N 598.631 -1.53133 0.372548 0
M  V30 6234 C 599.861 -2.05476 -0.215202 0
M  V30 6235 C 600.269 -1.24534 -1.42436 0
M  V30 6236 O 599.612 -0.280771 -1.81542 0
M  V30 6237 C 599.674 -3.53276 -0.666068 0
M  V30 6238 C 599.338 -4.54998 0.427342 0
M  V30 6239 C 600.335 -5.03911 1.27944 0
M  V30 6240 C 598.02 -4.98828 0.589579 0
M  V30 6241 C 600.014 -5.95263 2.27905 0
M  V30 6242 C 597.701 -5.89984 1.59255 0
M  V30 6243 C 598.699 -6.38093 2.43571 0
M  V30 6244 O 598.387 -7.27451 3.42156 0
M  V30 6245 H 598.119 -0.67481 -0.040099 0
M  V30 6246 H 600.673 -1.98409 0.531312 0
M  V30 6247 H 598.903 -3.57904 -1.4643 0
M  V30 6248 H 600.592 -3.88442 -1.1776 0
M  V30 6249 H 601.358 -4.70792 1.16532 0
M  V30 6250 H 597.237 -4.60965 -0.0569456 0
M  V30 6251 H 600.781 -6.32736 2.93753 0
M  V30 6252 H 596.678 -6.22518 1.70711 0
M  V30 6253 H 597.446 -7.45467 3.37967 0
M  V30 6254 N 600.109 -0.101901 -1.5727 0
M  V30 6255 C 601.339 0.567568 -1.98651 0
M  V30 6256 C 601.747 1.61839 -0.980037 0
M  V30 6257 O 601.09 1.83661 0.0376564 0
M  V30 6258 C 601.152 1.26742 -3.36417 0
M  V30 6259 C 600.816 0.366561 -4.55528 0
M  V30 6260 C 601.813 -0.388022 -5.1845 0
M  V30 6261 C 599.498 0.282629 -5.01504 0
M  V30 6262 C 601.492 -1.21445 -6.25724 0
M  V30 6263 C 599.179 -0.547443 -6.08643 0
M  V30 6264 C 600.177 -1.29462 -6.70618 0
M  V30 6265 O 599.865 -2.11095 -7.7569 0
M  V30 6266 H 599.597 0.156282 -0.657687 0
M  V30 6267 H 602.151 -0.179912 -2.04611 0
M  V30 6268 H 600.381 2.06162 -3.27161 0
M  V30 6269 H 602.07 1.8321 -3.622 0
M  V30 6270 H 602.836 -0.332949 -4.83856 0
M  V30 6271 H 598.715 0.853868 -4.53023 0
M  V30 6272 H 602.259 -1.79814 -6.74027 0
M  V30 6273 H 598.156 -0.603971 -6.42668 0
M  V30 6274 H 598.924 -2.03851 -7.92709 0
M  V30 6275 N 601.587 1.56661 0.17182 0
M  V30 6276 C 602.833 1.82235 0.889845 0
M  V30 6277 C 603.166 0.679673 1.81918 0
M  V30 6278 O 602.441 -0.318404 1.91876 0
M  V30 6279 C 602.724 3.18195 1.68595 0
M  V30 6280 C 602.577 4.42989 0.779773 0
M  V30 6281 C 603.896 3.5109 2.65375 0
M  V30 6282 H 601.015 0.66291 0.322056 0
M  V30 6283 H 603.657 1.89358 0.15608 0
M  V30 6284 H 601.807 3.12253 2.3115 0
M  V30 6285 H 603.479 4.60997 0.16714 0
M  V30 6286 H 601.722 4.33711 0.0877964 0
M  V30 6287 H 602.393 5.3467 1.3723 0
M  V30 6288 H 604.869 3.57482 2.12946 0
M  V30 6289 H 603.745 4.47298 3.18144 0
M  V30 6290 H 604.006 2.75768 3.45549 0
M  V30 6291 N 603.065 -0.440357 1.51323 0
M  V30 6292 C 604.311 -1.19181 1.64085 0
M  V30 6293 C 604.644 -1.90936 0.354575 0
M  V30 6294 O 603.919 -1.8347 -0.645675 0
M  V30 6295 C 604.202 -2.2112 2.84215 0
M  V30 6296 C 604.055 -1.53468 4.22809 0
M  V30 6297 C 605.374 -3.22133 2.99864 0
M  V30 6298 H 602.493 -0.431924 0.597169 0
M  V30 6299 H 605.135 -0.481443 1.83799 0
M  V30 6300 H 603.285 -2.81703 2.67537 0
M  V30 6301 H 604.957 -0.962455 4.51148 0
M  V30 6302 H 603.2 -0.837086 4.25647 0
M  V30 6303 H 603.871 -2.27694 5.02852 0
M  V30 6304 H 606.347 -2.71601 3.15233 0
M  V30 6305 H 605.223 -3.90756 3.85488 0
M  V30 6306 H 605.484 -3.88061 2.11804 0
M  V30 6307 N 604.543 -1.41418 -0.695603 0
M  V30 6308 C 605.506 -1.42988 -1.79129 0
M  V30 6309 C 606.506 -0.320514 -1.57573 0
M  V30 6310 O 607.696 -0.58039 -1.64247 0
M  V30 6311 C 604.828 -1.24122 -3.175 0
M  V30 6312 H 606.021 -2.40526 -1.7913 0
M  V30 6313 H 603.574 -1.2756 -0.903225 0
M  V30 6314 H 604.309 -0.274253 -3.23138 0
M  V30 6315 H 604.094 -2.045 -3.34547 0
M  V30 6316 H 605.584 -1.28056 -3.97481 0
M  V30 6317 N 606.021 0.929856 -1.27246 0
M  V30 6318 C 606.971 2.01629 -1.06442 0
M  V30 6319 C 607.955 1.60899 0.00687842 0
M  V30 6320 O 609.147 1.75733 -0.211407 0
M  V30 6321 C 606.276 3.35849 -0.711361 0
M  V30 6322 C 605.362 3.8303 -1.82069 0
M  V30 6323 N 605.753 4.02743 -3.05993 0
M  V30 6324 C 604.051 4.12046 -1.70687 0
M  V30 6325 C 604.752 4.42001 -3.78167 0
M  V30 6326 N 603.728 4.4935 -3.05918 0
M  V30 6327 H 607.53 2.14898 -2.00489 0
M  V30 6328 H 605.044 1.11654 -1.17929 0
M  V30 6329 H 607.041 4.13343 -0.543442 0
M  V30 6330 H 605.701 3.23944 0.221517 0
M  V30 6331 H 606.712 3.89112 -3.41778 0
M  V30 6332 H 603.389 4.08866 -0.844681 0
M  V30 6333 H 604.779 4.6535 -4.84664 0
M  V30 6334 N 607.499 1.09233 1.13605 0
M  V30 6335 C 608.746 0.827159 1.84836 0
M  V30 6336 C 609.074 -0.647199 1.83416 0
M  V30 6337 O 608.329 -1.49228 1.26608 0
M  V30 6338 C 608.628 1.305 3.32723 0
M  V30 6339 C 608.294 2.78864 3.54325 0
M  V30 6340 C 606.956 3.19382 3.59928 0
M  V30 6341 C 609.308 3.74532 3.62457 0
M  V30 6342 C 606.636 4.54346 3.71196 0
M  V30 6343 C 608.988 5.09283 3.75252 0
M  V30 6344 C 607.652 5.49394 3.79108 0
M  V30 6345 H 606.922 0.302679 0.676363 0
M  V30 6346 H 609.569 1.36676 1.34134 0
M  V30 6347 H 607.874 0.68517 3.85762 0
M  V30 6348 H 609.571 1.07648 3.86281 0
M  V30 6349 H 606.161 2.46507 3.50617 0
M  V30 6350 H 610.345 3.44343 3.57409 0
M  V30 6351 H 605.601 4.84864 3.72447 0
M  V30 6352 H 609.775 5.83269 3.80487 0
M  V30 6353 H 607.402 6.5397 3.87591 0
M  V30 6354 N 608.977 -1.30795 0.87923 0
M  V30 6355 C 609.927 -2.25838 0.313276 0
M  V30 6356 C 610.911 -1.51025 -0.55499 0
M  V30 6357 O 612.103 -1.72413 -0.400353 0
M  V30 6358 C 609.232 -3.39981 -0.476204 0
M  V30 6359 C 608.318 -4.22154 0.405826 0
M  V30 6360 N 608.709 -4.82934 1.50362 0
M  V30 6361 C 607.007 -4.45552 0.199909 0
M  V30 6362 C 607.708 -5.44444 2.0483 0
M  V30 6363 N 606.684 -5.26723 1.34403 0
M  V30 6364 H 610.486 -2.70374 1.15218 0
M  V30 6365 H 608 -1.45168 0.728003 0
M  V30 6366 H 609.997 -4.07108 -0.898251 0
M  V30 6367 H 608.657 -2.96986 -1.31261 0
M  V30 6368 H 609.668 -4.82319 1.8865 0
M  V30 6369 H 606.345 -4.13169 -0.599795 0
M  V30 6370 H 607.735 -6.02701 2.96986 0
M  V30 6371 N 610.455 -0.639598 -1.44038 0
M  V30 6372 C 611.685 -0.154586 -2.06021 0
M  V30 6373 C 612.093 1.17951 -1.47933 0
M  V30 6374 O 611.436 1.73627 -0.59994 0
M  V30 6375 C 611.498 0.0255459 -3.59491 0
M  V30 6376 C 611.162 -1.2317 -4.40089 0
M  V30 6377 C 612.159 -2.15735 -4.73027 0
M  V30 6378 C 609.844 -1.46949 -4.80324 0
M  V30 6379 C 611.838 -3.30382 -5.45093 0
M  V30 6380 C 609.525 -2.61891 -5.52138 0
M  V30 6381 C 610.523 -3.53433 -5.84443 0
M  V30 6382 O 610.211 -4.6637 -6.54793 0
M  V30 6383 H 609.943 -0.0808543 -0.671147 0
M  V30 6384 H 612.497 -0.876541 -1.85758 0
M  V30 6385 H 610.727 0.802733 -3.78276 0
M  V30 6386 H 612.416 0.466184 -4.03214 0
M  V30 6387 H 613.182 -1.98602 -4.42473 0
M  V30 6388 H 609.061 -0.765815 -4.54595 0
M  V30 6389 H 612.605 -4.01856 -5.70226 0
M  V30 6390 H 608.502 -2.78964 -5.82108 0
M  V30 6391 H 609.27 -4.6546 -6.73267 0
M  V30 6392 N 611.933 1.52934 -0.380664 0
M  V30 6393 C 613.179 2.01765 0.20458 0
M  V30 6394 C 613.512 1.26696 1.47179 0
M  V30 6395 O 612.787 0.364936 1.91046 0
M  V30 6396 C 613.07 3.56869 0.481269 0
M  V30 6397 C 612.923 4.42617 -0.800629 0
M  V30 6398 C 614.242 4.2121 1.27554 0
M  V30 6399 H 611.361 0.733388 0.0728803 0
M  V30 6400 H 614.003 1.83068 -0.50853 0
M  V30 6401 H 612.153 3.72932 1.08875 0
M  V30 6402 H 613.825 4.38323 -1.43773 0
M  V30 6403 H 612.068 4.09977 -1.4178 0
M  V30 6404 H 612.739 5.49134 -0.561791 0
M  V30 6405 H 615.215 4.09072 0.761514 0
M  V30 6406 H 614.091 5.29732 1.43788 0
M  V30 6407 H 614.352 3.78269 2.28833 0
M  V30 6408 N 613.412 0.11024 1.57214 0
M  V30 6409 C 614.345 -0.880224 2.1054 0
M  V30 6410 C 615.323 -1.26658 1.01964 0
M  V30 6411 O 616.507 -1.36917 1.29561 0
M  V30 6412 C 613.634 -2.17676 2.59489 0
M  V30 6413 C 612.68 -1.93914 3.79868 0
M  V30 6414 S 613.513 -1.16336 5.2271 0
M  V30 6415 C 614.669 -2.47188 5.75021 0
M  V30 6416 H 614.902 -0.426614 2.94223 0
M  V30 6417 H 612.435 -0.10336 1.54054 0
M  V30 6418 H 614.393 -2.92175 2.88347 0
M  V30 6419 H 613.054 -2.60156 1.76005 0
M  V30 6420 H 612.247 -2.8996 4.12236 0
M  V30 6421 H 611.849 -1.27539 3.51582 0
M  V30 6422 H 614.141 -3.43079 5.84211 0
M  V30 6423 H 615.084 -2.19377 6.7326 0
M  V30 6424 H 615.492 -2.56154 5.03036 0
M  V30 6425 N 614.89 -1.56749 -0.16351 0
M  V30 6426 C 616.115 -1.86938 -0.898264 0
M  V30 6427 C 616.54 -0.697456 -1.74692 0
M  V30 6428 O 615.898 0.353327 -1.77824 0
M  V30 6429 C 615.946 -3.15599 -1.74441 0
M  V30 6430 O 615.05 -2.98371 -2.8469 0
M  V30 6431 H 614.391 -0.614659 -0.251178 0
M  V30 6432 H 616.921 -2.03979 -0.159298 0
M  V30 6433 H 616.931 -3.47202 -2.14277 0
M  V30 6434 H 615.606 -4.00505 -1.1211 0
M  V30 6435 H 614.183 -2.7814 -2.4838 0
M  V30 6436 N 616.368 0.432326 -1.51554 0
M  V30 6437 C 617.298 1.53242 -1.76179 0
M  V30 6438 C 618.279 1.58717 -0.611801 0
M  V30 6439 O 619.464 1.74364 -0.855033 0
M  V30 6440 C 616.594 2.91278 -1.89141 0
M  V30 6441 C 615.548 3.00663 -3.04608 0
M  V30 6442 C 614.874 4.40728 -3.02759 0
M  V30 6443 C 616.174 2.74281 -4.44485 0
M  V30 6444 H 617.868 1.32886 -2.68294 0
M  V30 6445 H 615.414 0.637841 -1.29103 0
M  V30 6446 H 617.367 3.68203 -2.04951 0
M  V30 6447 H 616.091 3.12877 -0.936785 0
M  V30 6448 H 614.75 2.26179 -2.88511 0
M  V30 6449 H 614.398 4.59301 -2.05065 0
M  V30 6450 H 614.098 4.47936 -3.80299 0
M  V30 6451 H 615.622 5.19619 -3.20669 0
M  V30 6452 H 617.036 3.40936 -4.60907 0
M  V30 6453 H 615.433 2.92893 -5.23769 0
M  V30 6454 H 616.503 1.69856 -4.54177 0
M  V30 6455 N 617.846 1.41785 0.688094 0
M  V30 6456 C 619.094 1.41264 1.4453 0
M  V30 6457 C 619.415 0.0252946 1.94984 0
M  V30 6458 O 618.685 -0.934081 1.72197 0
M  V30 6459 H 617.265 0.519998 0.536294 0
M  V30 6460 H 619.927 1.7709 0.813941 0
M  V30 6461 H 619.023 2.10439 2.30482 0
M  V30 6462 N 619.324 -0.923095 1.27737 0
M  V30 6463 C 620.287 -2.00587 1.10894 0
M  V30 6464 C 621.287 -1.60718 0.0514927 0
M  V30 6465 O 622.477 -1.71658 0.296481 0
M  V30 6466 C 619.609 -3.33829 0.690717 0
M  V30 6467 H 620.802 -2.16959 2.07048 0
M  V30 6468 H 618.355 -1.10451 1.1059 0
M  V30 6469 H 619.09 -3.23157 -0.272 0
M  V30 6470 H 618.875 -3.64125 1.45448 0
M  V30 6471 H 620.365 -4.13336 0.595252 0
M  V30 6472 N 620.802 -1.09834 -1.13024 0
M  V30 6473 C 622.048 -0.83819 -1.84668 0
M  V30 6474 C 622.381 0.634645 -1.83537 0
M  V30 6475 O 621.656 1.46753 -1.27647 0
M  V30 6476 C 621.939 -1.37933 -3.32636 0
M  V30 6477 C 621.792 -2.91857 -3.42257 0
M  V30 6478 C 623.111 -1.01654 -4.28199 0
M  V30 6479 H 620.23 -0.30595 -0.670495 0
M  V30 6480 H 622.872 -1.36044 -1.32635 0
M  V30 6481 H 621.022 -0.935111 -3.77078 0
M  V30 6482 H 622.694 -3.44759 -3.06495 0
M  V30 6483 H 620.937 -3.28776 -2.83 0
M  V30 6484 H 621.608 -3.24799 -4.46329 0
M  V30 6485 H 624.084 -1.39973 -3.9185 0
M  V30 6486 H 622.96 -1.42217 -5.30156 0
M  V30 6487 H 623.221 0.0747794 -4.42037 0
M  V30 6488 N 622.28 1.30327 -0.886154 0
M  V30 6489 C 623.527 1.96097 -0.505192 0
M  V30 6490 C 623.855 1.69952 0.945868 0
M  V30 6491 O 623.11 0.997653 1.68361 0
M  V30 6492 C 623.409 3.49906 -0.728042 0
M  V30 6493 C 623.075 3.96103 -2.15437 0
M  V30 6494 C 621.737 4.08428 -2.5444 0
M  V30 6495 C 624.089 4.20177 -3.08384 0
M  V30 6496 C 621.417 4.42189 -3.85598 0
M  V30 6497 C 623.769 4.55407 -4.39075 0
M  V30 6498 C 622.433 4.65941 -4.7797 0
M  V30 6499 H 621.703 0.71757 -0.184863 0
M  V30 6500 H 624.35 1.55171 -1.12223 0
M  V30 6501 H 622.655 3.9179 -0.027978 0
M  V30 6502 H 624.352 3.98869 -0.412862 0
M  V30 6503 H 620.942 3.87017 -1.84162 0
M  V30 6504 H 625.126 4.10134 -2.7947 0
M  V30 6505 H 620.382 4.48544 -4.15473 0
M  V30 6506 H 624.556 4.72986 -5.11133 0
M  V30 6507 H 622.183 4.91856 -5.79639 0
M  V30 6508 N 623.758 0.647228 1.43697 0
M  V30 6509 C 625.006 0.157876 2.01482 0
M  V30 6510 C 625.327 -1.23039 1.51282 0
M  V30 6511 O 624.597 -1.82071 0.722982 0
M  V30 6512 H 623.177 0.0553745 0.744945 0
M  V30 6513 H 625.839 0.83755 1.75986 0
M  V30 6514 H 624.935 0.137895 3.11795 0
M  V30 6515 N 625.236 -1.5273 0.388769 0
M  V30 6516 C 626.485 -2.00757 -0.194833 0
M  V30 6517 C 626.798 -1.27951 -1.47946 0
M  V30 6518 O 628.004 -1.66686 -2.14308 0
M  V30 6519 C 626.46 -3.57695 -0.397762 0
M  V30 6520 C 626.068 -4.394 0.873583 0
M  V30 6521 C 627.812 -4.14012 -0.937759 0
M  V30 6522 C 625.719 -5.87938 0.638962 0
M  V30 6523 H 624.649 -0.750101 -0.0765845 0
M  V30 6524 H 627.3 -1.76239 0.511086 0
M  V30 6525 H 625.682 -3.7846 -1.16552 0
M  V30 6526 H 626.856 -4.30403 1.64591 0
M  V30 6527 H 625.171 -3.94301 1.33849 0
M  V30 6528 H 627.768 -5.22645 -1.12899 0
M  V30 6529 H 628.111 -3.7007 -1.90666 0
M  V30 6530 H 628.644 -3.97137 -0.229588 0
M  V30 6531 H 625.383 -6.36202 1.57885 0
M  V30 6532 H 624.903 -5.99726 -0.094443 0
M  V30 6533 H 626.582 -6.46423 0.273299 0
M  V30 6534 N 626.714 -0.118576 -1.57153 0
M  V30 6535 C 627.961 0.539526 -1.9518 0
M  V30 6536 C 628.289 1.66714 -1.00184 0
M  V30 6537 O 627.544 1.95683 -0.0256482 0
M  V30 6538 C 627.843 1.11303 -3.39627 0
M  V30 6539 C 627.509 0.106809 -4.50773 0
M  V30 6540 C 626.171 -0.169876 -4.809 0
M  V30 6541 C 628.523 -0.57895 -5.17975 0
M  V30 6542 C 625.851 -1.13861 -5.75545 0
M  V30 6543 C 628.203 -1.53631 -6.13661 0
M  V30 6544 C 626.867 -1.82099 -6.42181 0
M  V30 6545 H 626.137 0.197427 -0.714215 0
M  V30 6546 H 628.784 -0.199391 -1.90459 0
M  V30 6547 H 627.089 1.92869 -3.4104 0
M  V30 6548 H 628.786 1.63032 -3.66363 0
M  V30 6549 H 625.376 0.332645 -4.27307 0
M  V30 6550 H 629.56 -0.378359 -4.94856 0
M  V30 6551 H 624.816 -1.36592 -5.95947 0
M  V30 6552 H 628.99 -2.07337 -6.64819 0
M  V30 6553 H 626.617 -2.57319 -7.15326 0
M  V30 6554 N 628.193 1.56834 0.155195 0
M  V30 6555 C 629.156 1.96748 1.17571 0
M  V30 6556 C 630.156 0.853006 1.3631 0
M  V30 6557 O 631.346 1.11978 1.33441 0
M  V30 6558 C 628.478 2.27631 2.53765 0
M  V30 6559 H 629.671 2.88085 0.833498 0
M  V30 6560 H 627.224 1.51141 0.398242 0
M  V30 6561 H 627.959 1.39059 2.92973 0
M  V30 6562 H 627.744 3.0888 2.41527 0
M  V30 6563 H 629.234 2.59377 3.27282 0
M  V30 6564 N 629.671 -0.424282 1.51781 0
M  V30 6565 C 630.919 -1.17028 1.64769 0
M  V30 6566 C 631.24 -1.91409 0.372523 0
M  V30 6567 O 630.51 -1.86091 -0.612108 0
M  V30 6568 H 629.09 -0.434992 0.607282 0
M  V30 6569 H 631.752 -0.485169 1.88765 0
M  V30 6570 H 630.848 -1.8927 2.4816 0
M  V30 6571 N 631.149 -1.42148 -0.680565 0
M  V30 6572 C 632.395 -1.42521 -1.44277 0
M  V30 6573 C 632.728 -0.0393718 -1.9416 0
M  V30 6574 O 632.003 0.935425 -1.70529 0
M  V30 6575 C 632.286 -2.44475 -2.64394 0
M  V30 6576 C 632.139 -3.92226 -2.20179 0
M  V30 6577 C 633.458 -2.43491 -3.66606 0
M  V30 6578 H 630.577 -0.518985 -0.523282 0
M  V30 6579 H 633.219 -1.73524 -0.773914 0
M  V30 6580 H 631.369 -2.18168 -3.21458 0
M  V30 6581 H 633.041 -4.29493 -1.68327 0
M  V30 6582 H 631.284 -4.0637 -1.5181 0
M  V30 6583 H 631.955 -4.59133 -3.06433 0
M  V30 6584 H 634.431 -2.66872 -3.19247 0
M  V30 6585 H 633.307 -3.16816 -4.4824 0
M  V30 6586 H 633.568 -1.45881 -4.17338 0
M  V30 6587 N 632.627 0.916307 -1.28225 0
M  V30 6588 C 633.857 1.69654 -1.17902 0
M  V30 6589 C 634.265 1.87331 0.265268 0
M  V30 6590 O 633.608 1.39828 1.19137 0
M  V30 6591 C 633.67 3.11024 -1.80289 0
M  V30 6592 C 633.334 3.16643 -3.29525 0
M  V30 6593 C 634.331 2.98032 -4.25997 0
M  V30 6594 C 632.016 3.39238 -3.70436 0
M  V30 6595 C 634.01 3.01924 -5.61356 0
M  V30 6596 C 631.697 3.42762 -5.05922 0
M  V30 6597 C 632.695 3.24125 -6.01192 0
M  V30 6598 O 632.383 3.27406 -7.34208 0
M  V30 6599 H 632.115 0.537197 -0.41036 0
M  V30 6600 H 634.669 1.15547 -1.69817 0
M  V30 6601 H 632.899 3.66662 -1.22865 0
M  V30 6602 H 634.588 3.71063 -1.6452 0
M  V30 6603 H 635.354 2.80405 -3.95725 0
M  V30 6604 H 631.233 3.52791 -2.96749 0
M  V30 6605 H 634.777 2.87295 -6.35694 0
M  V30 6606 H 630.674 3.59916 -5.35846 0
M  V30 6607 H 631.442 3.43784 -7.42802 0
M  V30 6608 N 634.105 1.10431 1.1244 0
M  V30 6609 C 635.335 0.867612 1.87499 0
M  V30 6610 C 635.743 -0.585475 1.79913 0
M  V30 6611 O 635.086 -1.41539 1.171 0
M  V30 6612 C 635.148 1.2374 3.37533 0
M  V30 6613 C 634.812 2.69751 3.68895 0
M  V30 6614 C 635.809 3.67988 3.67261 0
M  V30 6615 C 633.494 3.06135 3.98229 0
M  V30 6616 C 635.488 5.00632 3.9452 0
M  V30 6617 C 633.175 4.38967 4.25149 0
M  V30 6618 C 634.173 5.36025 4.23281 0
M  V30 6619 O 633.861 6.66465 4.49533 0
M  V30 6620 H 633.593 0.311196 0.600111 0
M  V30 6621 H 636.147 1.47257 1.43194 0
M  V30 6622 H 634.377 0.575537 3.82393 0
M  V30 6623 H 636.066 0.978187 3.93937 0
M  V30 6624 H 636.832 3.41224 3.44661 0
M  V30 6625 H 632.711 2.31214 3.98825 0
M  V30 6626 H 636.255 5.7638 3.92978 0
M  V30 6627 H 632.152 4.6547 4.47223 0
M  V30 6628 H 632.92 6.72095 4.67152 0
M  V30 6629 N 635.583 -1.29855 0.893053 0
M  V30 6630 C 636.829 -1.96488 0.52574 0
M  V30 6631 C 637.184 -1.69164 -0.916594 0
M  V30 6632 O 636.477 -0.990405 -1.64017 0
M  V30 6633 C 636.671 -3.49515 0.746588 0
M  V30 6634 C 636.5 -3.91715 2.20884 0
M  V30 6635 C 635.27 -4.16915 2.85499 0
M  V30 6636 C 637.468 -4.03934 3.18342 0
M  V30 6637 N 635.45 -4.45634 4.22236 0
M  V30 6638 C 636.821 -4.36629 4.40176 0
M  V30 6639 C 638.876 -3.86387 3.14021 0
M  V30 6640 C 637.579 -4.53605 5.58243 0
M  V30 6641 C 639.605 -4.04569 4.31367 0
M  V30 6642 C 638.967 -4.37617 5.5197 0
M  V30 6643 H 635.066 -0.743657 0.241863 0
M  V30 6644 H 637.65 -1.56927 1.15248 0
M  V30 6645 H 635.821 -3.88113 0.149281 0
M  V30 6646 H 637.553 -4.03224 0.345372 0
M  V30 6647 H 634.308 -4.10423 2.36326 0
M  V30 6648 H 634.732 -4.64114 4.92876 0
M  V30 6649 H 639.374 -3.59906 2.21873 0
M  V30 6650 H 637.092 -4.78925 6.50889 0
M  V30 6651 H 640.678 -3.92452 4.29503 0
M  V30 6652 H 639.558 -4.51395 6.41258 0
M  V30 6653 N 637.061 -0.65484 -1.43351 0
M  V30 6654 C 638.31 -0.166215 -2.01014 0
M  V30 6655 C 638.623 1.22764 -1.52278 0
M  V30 6656 O 639.829 1.81156 -2.02224 0
M  V30 6657 C 638.285 -0.246341 -3.59056 0
M  V30 6658 C 637.893 -1.64299 -4.16785 0
M  V30 6659 C 639.637 0.184597 -4.24098 0
M  V30 6660 C 637.544 -1.67695 -5.67126 0
M  V30 6661 H 636.474 -0.0583769 -0.751737 0
M  V30 6662 H 639.125 -0.817111 -1.64303 0
M  V30 6663 H 637.507 0.472092 -3.93176 0
M  V30 6664 H 638.681 -2.3869 -3.94162 0
M  V30 6665 H 636.996 -2.02004 -3.6412 0
M  V30 6666 H 639.593 0.179088 -5.344 0
M  V30 6667 H 639.936 1.21632 -3.98135 0
M  V30 6668 H 640.469 -0.482141 -3.94867 0
M  V30 6669 H 637.208 -2.68783 -5.9786 0
M  V30 6670 H 636.728 -0.976313 -5.91801 0
M  V30 6671 H 638.407 -1.42142 -6.31193 0
M  V30 6672 N 638.539 1.52521 -0.396863 0
M  V30 6673 C 639.787 2.01274 0.182536 0
M  V30 6674 C 640.108 1.28485 1.46685 0
M  V30 6675 O 639.378 0.407134 1.91623 0
M  V30 6676 H 637.958 0.743671 0.0704442 0
M  V30 6677 H 640.62 1.87547 -0.530289 0
M  V30 6678 H 639.716 3.09687 0.387385 0
M  V30 6679 N 640.017 0.126909 1.57088 0
M  V30 6680 C 640.964 -0.82036 2.15728 0
M  V30 6681 C 641.934 -1.25811 1.08447 0
M  V30 6682 O 643.119 -1.33422 1.36393 0
M  V30 6683 C 640.259 -2.06199 2.76724 0
M  V30 6684 C 639.372 -1.67188 3.98337 0
M  V30 6685 C 638.507 -2.86378 4.47393 0
M  V30 6686 C 637.546 -2.43644 5.61519 0
M  V30 6687 N 636.683 -3.55775 6.05284 0
M  V30 6688 H 641.523 -0.313472 2.96347 0
M  V30 6689 H 639.06 -0.14303 1.46403 0
M  V30 6690 H 641.018 -2.78959 3.10222 0
M  V30 6691 H 639.648 -2.54333 1.98782 0
M  V30 6692 H 638.7 -0.842714 3.70948 0
M  V30 6693 H 640.012 -1.31789 4.81075 0
M  V30 6694 H 639.166 -3.67353 4.82842 0
M  V30 6695 H 637.905 -3.25009 3.63621 0
M  V30 6696 H 636.91 -1.61104 5.25667 0
M  V30 6697 H 638.135 -2.06122 6.47063 0
M  V30 6698 H 636.081 -3.94065 5.24451 0
M  V30 6699 H 635.998 -3.24325 6.82898 0
M  V30 6700 H 637.266 -4.37166 6.45373 0
M  V30 6701 N 641.495 -1.56914 -0.146875 0
M  V30 6702 C 642.428 -1.93425 -1.21087 0
M  V30 6703 C 643.406 -0.800106 -1.41552 0
M  V30 6704 O 644.59 -1.05572 -1.56162 0
M  V30 6705 C 641.717 -2.20639 -2.56975 0
M  V30 6706 C 640.763 -3.43279 -2.53104 0
M  V30 6707 S 641.596 -4.96836 -1.99786 0
M  V30 6708 C 642.752 -5.27172 -3.37403 0
M  V30 6709 H 642.985 -2.8337 -0.899378 0
M  V30 6710 H 640.518 -1.50322 -0.352494 0
M  V30 6711 H 642.476 -2.36998 -3.35175 0
M  V30 6712 H 641.137 -1.31357 -2.85314 0
M  V30 6713 H 640.33 -3.59599 -3.53136 0
M  V30 6714 H 639.932 -3.26163 -1.83012 0
M  V30 6715 H 642.224 -5.20647 -4.33513 0
M  V30 6716 H 643.167 -6.28626 -3.25937 0
M  V30 6717 H 643.575 -4.54687 -3.34544 0
M  V30 6718 N 642.974 0.416227 -1.52004 0
M  V30 6719 C 644.199 1.19029 -1.69843 0
M  V30 6720 C 644.624 1.83708 -0.404103 0
M  V30 6721 O 643.982 1.69711 0.637787 0
M  V30 6722 C 644.03 2.23439 -2.83032 0
M  V30 6723 O 643.134 3.29419 -2.48106 0
M  V30 6724 H 642.475 0.347785 -0.565634 0
M  V30 6725 H 645.005 0.488871 -1.98674 0
M  V30 6726 H 645.015 2.67884 -3.07737 0
M  V30 6727 H 643.69 1.75745 -3.76944 0
M  V30 6728 H 642.267 2.90303 -2.34048 0
M  V30 6729 N 644.452 1.42507 0.673017 0
M  V30 6730 C 645.7 1.42789 1.43023 0
M  V30 6731 C 646.021 0.0459738 1.94946 0
M  V30 6732 O 645.291 -0.915765 1.73178 0
M  V30 6733 H 643.871 0.525657 0.530748 0
M  V30 6734 H 646.533 1.77944 0.795113 0
M  V30 6735 H 645.629 2.12872 2.28237 0
M  V30 6736 N 645.93 -0.909495 1.28709 0
M  V30 6737 C 647.346 -1.18862 1.06508 0
M  V30 6738 C 647.546 -2.00604 -0.189864 0
M  V30 6739 O 646.602 -2.36281 -0.890355 0
M  V30 6740 C 647.915 -1.91908 2.31499 0
M  V30 6741 C 649.463 -2.04773 2.36721 0
M  V30 6742 C 649.938 -2.81228 3.6149 0
M  V30 6743 N 651.429 -2.88787 3.62155 0
M  V30 6744 C 652.164 -3.48455 4.55375 0
M  V30 6745 N 651.66 -4.09369 5.58918 0
M  V30 6746 N 653.453 -3.46035 4.42963 0
M  V30 6747 H 645.604 -0.363867 2.0926 0
M  V30 6748 H 647.867 -0.223649 0.921241 0
M  V30 6749 H 647.573 -1.39275 3.22948 0
M  V30 6750 H 647.447 -2.92436 2.38245 0
M  V30 6751 H 649.834 -2.56585 1.45767 0
M  V30 6752 H 649.915 -1.03408 2.33967 0
M  V30 6753 H 649.559 -2.30094 4.5279 0
M  V30 6754 H 649.489 -3.82917 3.61499 0
M  V30 6755 H 651.98 -2.45514 2.87283 0
M  V30 6756 H 652.293 -4.52891 6.26187 0
M  V30 6757 H 650.638 -4.0786 5.62739 0
M  V30 6758 H 653.829 -2.9766 3.6127 0
M  V30 6759 H 654.002 -3.92244 5.15799 0
M  V30 6760 N 647.408 -1.11026 -1.11852 0
M  V30 6761 C 648.34 -0.72249 -2.17515 0
M  V30 6762 C 649.353 0.243782 -1.60964 0
M  V30 6763 O 650.542 0.0273252 -1.78479 0
M  V30 6764 C 647.642 -0.0463979 -3.38868 0
M  V30 6765 C 646.815 -1.0384 -4.24895 0
M  V30 6766 C 645.874 -0.392659 -5.24733 0
M  V30 6767 O 644.9 -1.0453 -5.5952 0
M  V30 6768 N 646.102 0.846296 -5.74298 0
M  V30 6769 H 648.867 -1.63161 -2.51393 0
M  V30 6770 H 646.428 -0.999899 -1.27333 0
M  V30 6771 H 648.42 0.397215 -4.02746 0
M  V30 6772 H 646.99 0.765231 -3.03089 0
M  V30 6773 H 646.21 -1.6601 -3.57539 0
M  V30 6774 H 647.498 -1.70968 -4.79215 0
M  V30 6775 H 646.896 1.39578 -5.4821 0
M  V30 6776 H 645.453 1.23296 -6.40032 0
M  V30 6777 N 648.886 1.2938 -0.899927 0
M  V30 6778 C 650.116 1.99402 -0.540601 0
M  V30 6779 C 650.524 1.67534 0.87914 0
M  V30 6780 O 649.867 0.916821 1.59186 0
M  V30 6781 C 649.929 3.53514 -0.653326 0
M  V30 6782 C 649.593 4.08937 -2.04009 0
M  V30 6783 C 650.59 4.23815 -3.01126 0
M  V30 6784 C 648.275 4.43962 -2.34953 0
M  V30 6785 C 650.269 4.72951 -4.27313 0
M  V30 6786 C 647.956 4.92795 -3.61382 0
M  V30 6787 C 648.954 5.07244 -4.57376 0
M  V30 6788 O 648.642 5.55017 -5.8156 0
M  V30 6789 H 648.374 0.64383 -0.206057 0
M  V30 6790 H 650.928 1.65878 -1.21134 0
M  V30 6791 H 649.158 3.86628 0.0744449 0
M  V30 6792 H 650.847 4.04767 -0.303118 0
M  V30 6793 H 651.613 3.97043 -2.78535 0
M  V30 6794 H 647.492 4.31974 -1.60994 0
M  V30 6795 H 651.036 4.84144 -5.02245 0
M  V30 6796 H 646.933 5.19004 -3.83804 0
M  V30 6797 H 647.701 5.73331 -5.84153 0
M  V30 6798 N 650.364 0.662433 1.43002 0
M  V30 6799 C 651.775 0.258315 1.84904 0
M  V30 6800 C 652.126 -1.19703 1.55453 0
M  V30 6801 O 651.251 -1.91484 1.00811 0
M  V30 6802 C 651.846 0.462047 3.35635 0
M  V30 6803 C 650.405 0.112165 3.76233 0
M  V30 6804 C 649.552 0.760479 2.66668 0
M  V30 6805 H 652.503 0.865467 1.33024 0
M  V30 6806 H 652.524 -0.289646 3.79396 0
M  V30 6807 H 652.036 1.52135 3.57039 0
M  V30 6808 H 650.137 -0.944179 3.60439 0
M  V30 6809 H 650.25 0.544058 4.76001 0
M  V30 6810 H 648.614 0.192887 2.53969 0
M  V30 6811 H 649.397 1.82299 2.90898 0
M  V30 6812 N 651.842 -1.52309 0.404946 0
M  V30 6813 C 652.752 -2.30634 -0.429555 0
M  V30 6814 C 653.768 -1.38187 -1.05737 0
M  V30 6815 O 654.944 -1.71261 -1.05979 0
M  V30 6816 C 652.009 -3.10947 -1.53339 0
M  V30 6817 C 651.07 -4.19126 -0.929065 0
M  V30 6818 C 650.303 -4.95601 -1.9803 0
M  V30 6819 O 650.526 -4.72331 -3.1978 0
M  V30 6820 O 649.46 -5.80551 -1.58886 0
M  V30 6821 H 653.286 -3.0298 0.208963 0
M  V30 6822 H 650.871 -1.4845 0.168255 0
M  V30 6823 H 652.753 -3.60974 -2.1743 0
M  V30 6824 H 651.428 -2.41399 -2.15658 0
M  V30 6825 H 650.335 -3.73257 -0.250982 0
M  V30 6826 H 651.668 -4.90955 -0.349855 0
M  V30 6827 N 653.32 -0.135238 -1.57019 0
M  V30 6828 C 654.566 0.513232 -1.96818 0
M  V30 6829 C 654.921 1.63245 -1.01827 0
M  V30 6830 O 654.214 1.91532 -0.0511756 0
M  V30 6831 C 654.408 1.07694 -3.40788 0
M  V30 6832 C 654.237 0.0138667 -4.49698 0
M  V30 6833 C 653.007 -0.423532 -5.03522 0
M  V30 6834 C 655.205 -0.77322 -5.08454 0
M  V30 6835 N 653.187 -1.47068 -5.96024 0
M  V30 6836 C 654.558 -1.67115 -5.97053 0
M  V30 6837 C 656.613 -0.822313 -4.91063 0
M  V30 6838 C 655.316 -2.61395 -6.70123 0
M  V30 6839 C 657.342 -1.75288 -5.64826 0
M  V30 6840 C 656.704 -2.63836 -6.53123 0
M  V30 6841 H 652.803 0.156956 -0.766087 0
M  V30 6842 H 655.387 -0.227118 -1.93371 0
M  V30 6843 H 653.558 1.78694 -3.44852 0
M  V30 6844 H 655.29 1.69106 -3.67675 0
M  V30 6845 H 652.045 -0.0280202 -4.73592 0
M  V30 6846 H 652.469 -1.99366 -6.46979 0
M  V30 6847 H 657.111 -0.151822 -4.22527 0
M  V30 6848 H 654.829 -3.2945 -7.37895 0
M  V30 6849 H 658.415 -1.79652 -5.53368 0
M  V30 6850 H 657.295 -3.34672 -7.092 0
M  V30 6851 N 654.798 1.5699 0.138552 0
M  V30 6852 C 655.761 1.97984 1.15478 0
M  V30 6853 C 656.761 0.867416 1.35398 0
M  V30 6854 O 657.951 1.13387 1.32246 0
M  V30 6855 C 655.083 2.3031 2.51337 0
M  V30 6856 H 656.276 2.88953 0.802896 0
M  V30 6857 H 653.829 1.51555 0.382189 0
M  V30 6858 H 654.564 1.42159 2.91481 0
M  V30 6859 H 654.349 3.11425 2.38237 0
M  V30 6860 H 655.839 2.62834 3.24512 0
M  V30 6861 N 656.276 -0.40816 1.52223 0
M  V30 6862 C 657.524 -1.15274 1.66001 0
M  V30 6863 C 657.845 -1.91003 0.392803 0
M  V30 6864 O 657.115 -1.8673 -0.592336 0
M  V30 6865 H 655.695 -0.428526 0.611861 0
M  V30 6866 H 658.357 -0.46512 1.89269 0
M  V30 6867 H 657.453 -1.86628 2.50153 0
M  V30 6868 N 657.755 -1.42862 -0.66545 0
M  V30 6869 C 658.687 -1.43026 -1.79098 0
M  V30 6870 C 659.7 -0.32803 -1.59461 0
M  V30 6871 O 660.889 -0.591709 -1.68407 0
M  V30 6872 C 657.989 -1.21566 -3.16346 0
M  V30 6873 C 657.162 -2.44399 -3.62751 0
M  V30 6874 C 656.221 -2.18344 -4.78761 0
M  V30 6875 O 655.247 -2.91611 -4.88827 0
M  V30 6876 N 656.449 -1.1924 -5.68122 0
M  V30 6877 H 659.214 -2.40045 -1.79439 0
M  V30 6878 H 656.775 -1.37861 -0.848872 0
M  V30 6879 H 658.767 -1.02037 -3.91625 0
M  V30 6880 H 657.337 -0.330368 -3.10849 0
M  V30 6881 H 656.557 -2.79433 -2.78048 0
M  V30 6882 H 657.845 -3.26173 -3.90498 0
M  V30 6883 H 657.243 -0.586603 -5.6265 0
M  V30 6884 H 655.8 -1.05698 -6.43173 0
M  V30 6885 N 659.233 0.902656 -1.29189 0
M  V30 6886 C 660.163 2.02294 -1.16616 0
M  V30 6887 C 661.144 1.6999 -0.0611175 0
M  V30 6888 O 662.329 1.9271 -0.240072 0
M  V30 6889 C 659.459 3.37018 -0.83882 0
M  V30 6890 C 658.413 3.83522 -1.89986 0
M  V30 6891 C 657.739 5.15337 -1.42589 0
M  V30 6892 C 659.039 4.04169 -3.30824 0
M  V30 6893 H 660.733 2.13071 -2.10336 0
M  V30 6894 H 658.279 1.02378 -1.01266 0
M  V30 6895 H 660.232 4.14895 -0.737584 0
M  V30 6896 H 658.956 3.26325 0.134071 0
M  V30 6897 H 657.615 3.07859 -1.99043 0
M  V30 6898 H 657.263 5.01056 -0.441759 0
M  V30 6899 H 656.963 5.47423 -2.13547 0
M  V30 6900 H 658.487 5.95758 -1.3381 0
M  V30 6901 H 659.901 4.72537 -3.24626 0
M  V30 6902 H 658.298 4.47604 -3.99713 0
M  V30 6903 H 659.368 3.08604 -3.74021 0
M  V30 6904 N 660.711 1.11618 1.11262 0
M  V30 6905 C 661.661 0.745274 2.15475 0
M  V30 6906 C 662.645 -0.251585 1.58921 0
M  V30 6907 O 663.837 -0.0584093 1.76904 0
M  V30 6908 C 660.966 0.192128 3.42762 0
M  V30 6909 C 660.052 1.21676 4.0627 0
M  V30 6910 N 660.443 2.41158 4.44608 0
M  V30 6911 C 658.741 1.06013 4.33217 0
M  V30 6912 C 659.442 3.0652 4.94389 0
M  V30 6913 N 658.418 2.33994 4.9066 0
M  V30 6914 H 662.22 1.65462 2.42898 0
M  V30 6915 H 659.734 0.995695 1.28295 0
M  V30 6916 H 661.731 -0.0917339 4.16799 0
M  V30 6917 H 660.391 -0.711778 3.16802 0
M  V30 6918 H 661.402 2.786 4.3658 0
M  V30 6919 H 658.079 0.212809 4.16957 0
M  V30 6920 H 659.469 4.08225 5.33669 0
M  V30 6921 N 662.189 -1.289 0.906776 0
M  V30 6922 C 663.436 -1.95269 0.536326 0
M  V30 6923 C 663.764 -1.71435 -0.918711 0
M  V30 6924 O 663.019 -1.02431 -1.66752 0
M  V30 6925 C 663.318 -3.48704 0.783617 0
M  V30 6926 C 662.984 -3.92626 2.21711 0
M  V30 6927 C 661.646 -4.04329 2.60906 0
M  V30 6928 C 663.998 -4.15218 3.15029 0
M  V30 6929 C 661.326 -4.35998 3.92584 0
M  V30 6930 C 663.678 -4.48365 4.46264 0
M  V30 6931 C 662.342 -4.58278 4.85322 0
M  V30 6932 H 661.612 -0.714538 0.196256 0
M  V30 6933 H 664.259 -1.53366 1.14678 0
M  V30 6934 H 662.564 -3.91696 0.0903048 0
M  V30 6935 H 664.261 -3.98162 0.476267 0
M  V30 6936 H 660.851 -3.84038 1.90296 0
M  V30 6937 H 665.035 -4.05636 2.8596 0
M  V30 6938 H 660.291 -4.41878 4.22557 0
M  V30 6939 H 664.465 -4.64795 5.18593 0
M  V30 6940 H 662.092 -4.82573 5.87391 0
M  V30 6941 N 663.667 -0.670007 -1.42649 0
M  V30 6942 C 664.913 -0.19923 -2.02422 0
M  V30 6943 C 665.268 1.17947 -1.52007 0
M  V30 6944 O 664.561 1.77939 -0.710512 0
M  V30 6945 C 664.755 -0.168298 -3.57004 0
M  V30 6946 C 664.584 -1.54246 -4.22419 0
M  V30 6947 C 663.354 -2.13904 -4.57792 0
M  V30 6948 C 665.552 -2.4842 -4.50324 0
M  V30 6949 N 663.534 -3.44151 -5.08364 0
M  V30 6950 C 664.905 -3.63317 -5.02395 0
M  V30 6951 C 666.96 -2.47011 -4.32308 0
M  V30 6952 C 665.663 -4.77051 -5.38345 0
M  V30 6953 C 667.689 -3.59838 -4.6933 0
M  V30 6954 C 667.051 -4.73462 -5.21549 0
M  V30 6955 H 663.15 -0.117717 -0.773089 0
M  V30 6956 H 665.734 -0.881955 -1.73579 0
M  V30 6957 H 663.905 0.483824 -3.85375 0
M  V30 6958 H 665.637 0.314914 -4.03473 0
M  V30 6959 H 662.392 -1.66441 -4.4339 0
M  V30 6960 H 662.816 -4.10846 -5.38084 0
M  V30 6961 H 667.458 -1.60394 -3.91195 0
M  V30 6962 H 665.176 -5.64347 -5.78393 0
M  V30 6963 H 668.762 -3.59969 -4.57071 0
M  V30 6964 H 667.642 -5.59321 -5.49663 0
M  V30 6965 N 665.145 1.52092 -0.413018 0
M  V30 6966 C 666.078 2.23613 0.455234 0
M  V30 6967 C 667.056 1.2459 1.04481 0
M  V30 6968 O 668.24 1.53653 1.09193 0
M  V30 6969 C 665.367 2.96775 1.63224 0
M  V30 6970 C 664.413 4.10261 1.16568 0
M  V30 6971 S 665.246 5.35348 0.127633 0
M  V30 6972 C 666.402 6.1204 1.30987 0
M  V30 6973 H 666.635 2.96911 -0.152042 0
M  V30 6974 H 664.168 1.53134 -0.197343 0
M  V30 6975 H 666.126 3.39532 2.30713 0
M  V30 6976 H 664.787 2.23113 2.21087 0
M  V30 6977 H 663.98 4.6064 2.04515 0
M  V30 6978 H 663.582 3.6964 0.569386 0
M  V30 6979 H 665.874 6.39651 2.23276 0
M  V30 6980 H 666.817 7.03022 0.846533 0
M  V30 6981 H 667.225 5.43161 1.53743 0
M  V30 6982 N 666.623 0.143563 1.56945 0
M  V30 6983 C 667.556 -0.835367 2.1236 0
M  V30 6984 C 668.534 -1.24466 1.04627 0
M  V30 6985 O 669.718 -1.34138 1.32436 0
M  V30 6986 C 666.845 -2.12123 2.64048 0
M  V30 6987 C 665.891 -1.85812 3.83896 0
M  V30 6988 S 666.724 -1.05222 5.25061 0
M  V30 6989 C 667.88 -2.34935 5.80135 0
M  V30 6990 H 668.113 -0.364109 2.95062 0
M  V30 6991 H 665.646 -0.0706601 1.54238 0
M  V30 6992 H 667.604 -2.85993 2.94479 0
M  V30 6993 H 666.265 -2.56364 1.81483 0
M  V30 6994 H 665.458 -2.81151 4.18294 0
M  V30 6995 H 665.06 -1.20052 3.54208 0
M  V30 6996 H 667.352 -3.3061 5.91357 0
M  V30 6997 H 668.295 -2.05046 6.77762 0
M  V30 6998 H 668.703 -2.45426 5.08356 0
M  V30 6999 N 668.101 -1.57061 -0.130224 0
M  V30 7000 C 669.348 -1.84257 -0.839972 0
M  V30 7001 C 669.676 -0.726986 -1.80403 0
M  V30 7002 O 668.931 0.282632 -1.93648 0
M  V30 7003 C 669.23 -3.17878 -1.63365 0
M  V30 7004 C 668.896 -4.43475 -0.814891 0
M  V30 7005 C 667.558 -4.77581 -0.589066 0
M  V30 7006 C 669.91 -5.20631 -0.243437 0
M  V30 7007 C 667.238 -5.86292 0.218648 0
M  V30 7008 C 669.59 -6.30192 0.551408 0
M  V30 7009 C 668.254 -6.62837 0.787653 0
M  V30 7010 H 667.524 -0.674245 -0.307367 0
M  V30 7011 H 670.171 -1.91224 -0.102832 0
M  V30 7012 H 668.476 -3.06437 -2.44138 0
M  V30 7013 H 670.173 -3.3614 -2.18658 0
M  V30 7014 H 666.763 -4.16747 -1.00098 0
M  V30 7015 H 670.947 -4.94644 -0.405145 0
M  V30 7016 H 666.203 -6.10017 0.411016 0
M  V30 7017 H 670.377 -6.89165 1.00126 0
M  V30 7018 H 668.004 -7.46908 1.41537 0
M  V30 7019 N 669.579 0.400081 -1.52437 0
M  V30 7020 C 670.828 1.14332 -1.66166 0
M  V30 7021 C 671.141 1.91419 -0.402253 0
M  V30 7022 O 672.347 2.6824 -0.419487 0
M  V30 7023 C 670.803 2.08137 -2.9361 0
M  V30 7024 C 670.411 1.36524 -4.26691 0
M  V30 7025 C 672.155 2.82664 -3.16703 0
M  V30 7026 C 670.062 2.29031 -5.45251 0
M  V30 7027 H 668.992 0.430499 -0.61902 0
M  V30 7028 H 671.643 0.407017 -1.78929 0
M  V30 7029 H 670.025 2.85358 -2.74567 0
M  V30 7030 H 671.199 0.646061 -4.56249 0
M  V30 7031 H 669.514 0.74002 -4.09771 0
M  V30 7032 H 672.111 3.52037 -4.0246 0
M  V30 7033 H 672.454 3.46122 -2.31312 0
M  V30 7034 H 672.987 2.12541 -3.36261 0
M  V30 7035 H 669.726 1.70206 -6.33017 0
M  V30 7036 H 669.246 2.98896 -5.2002 0
M  V30 7037 H 670.925 2.89359 -5.78689 0
M  V30 7038 N 671.057 1.43213 0.657864 0
M  V30 7039 C 672.305 1.44298 1.41501 0
M  V30 7040 C 672.626 0.0666478 1.94886 0
M  V30 7041 O 671.896 -0.897345 1.74139 0
M  V30 7042 H 670.476 0.531257 0.525143 0
M  V30 7043 H 673.138 1.78777 0.776195 0
M  V30 7044 H 672.234 2.1528 2.25966 0
M  V30 7045 N 672.536 -0.895792 1.29666 0
M  V30 7046 C 673.761 -1.68528 1.20885 0
M  V30 7047 C 674.186 -1.8673 -0.226595 0
M  V30 7048 O 673.544 -1.39044 -1.16347 0
M  V30 7049 C 673.592 -3.04512 1.93144 0
M  V30 7050 O 672.696 -3.92963 1.25115 0
M  V30 7051 H 672.037 -0.515371 0.418675 0
M  V30 7052 H 674.567 -1.11878 1.71302 0
M  V30 7053 H 674.577 -3.54628 2.0175 0
M  V30 7054 H 673.252 -2.90582 2.97548 0
M  V30 7055 H 671.829 -3.51399 1.24794 0
M  V30 7056 N 674.014 -1.12206 -1.10668 0
M  V30 7057 C 674.962 -0.782918 -2.19028 0
M  V30 7058 C 675.956 0.229175 -1.67843 0
M  V30 7059 O 677.162 0.0876295 -1.79787 0
M  V30 7060 H 673.537 -0.235339 -0.714227 0
M  V30 7061 H 675.508 -1.70527 -2.44874 0
M  V30 7062 C 674.257 -0.25116 -3.46792 0
M  V30 7063 H 673.58 -1.02123 -3.86537 0
M  V30 7064 H 675.02 -0.0521409 -4.23968 0
M  V30 7065 C 673.479 1.02037 -3.21076 0
M  V30 7066 O 674.009 2.09862 -3.42522 0
M  V30 7067 N 672.215 0.946348 -2.74759 0
M  V30 7068 H 671.762 0.068777 -2.57508 0
M  V30 7069 H 671.72 1.79775 -2.57931 0
M  V30 7070 N 675.492 1.28418 -0.913599 0
M  V30 7071 C 676.422 2.29713 -0.418847 0
M  V30 7072 C 677.403 1.62165 0.513469 0
M  V30 7073 O 678.588 1.89576 0.421235 0
M  V30 7074 C 675.718 3.45612 0.342042 0
M  V30 7075 C 674.672 4.25056 -0.501123 0
M  V30 7076 C 673.998 5.3329 0.388097 0
M  V30 7077 C 675.298 4.91814 -1.75831 0
M  V30 7078 H 676.992 2.71346 -1.26538 0
M  V30 7079 H 674.538 1.30446 -0.609903 0
M  V30 7080 H 676.491 4.15562 0.699 0
M  V30 7081 H 675.215 3.02858 1.22248 0
M  V30 7082 H 673.874 3.56833 -0.840598 0
M  V30 7083 H 673.522 4.8678 1.26707 0
M  V30 7084 H 673.222 5.87347 -0.172459 0
M  V30 7085 H 674.746 6.06088 0.74094 0
M  V30 7086 H 676.16 5.54126 -1.47026 0
M  V30 7087 H 674.557 5.55866 -2.26126 0
M  V30 7088 H 675.627 4.16313 -2.4862 0
M  V30 7089 N 676.97 0.677563 1.42291 0
M  V30 7090 C 678.219 0.198173 2.00724 0
M  V30 7091 C 678.532 -1.20325 1.54211 0
M  V30 7092 O 679.738 -1.77916 2.05081 0
M  V30 7093 C 678.194 0.303432 3.58619 0
M  V30 7094 C 677.802 1.70909 4.14119 0
M  V30 7095 C 679.546 -0.117103 4.24338 0
M  V30 7096 C 677.453 1.76696 5.64387 0
M  V30 7097 H 676.383 0.070329 0.750713 0
M  V30 7098 H 679.034 0.843147 1.62982 0
M  V30 7099 H 677.416 -0.409482 3.93877 0
M  V30 7100 H 678.59 2.44931 3.90315 0
M  V30 7101 H 676.905 2.07771 3.6086 0
M  V30 7102 H 679.502 -0.0940471 5.34617 0
M  V30 7103 H 679.845 -1.15283 4.00019 0
M  V30 7104 H 680.378 0.5449 3.9405 0
M  V30 7105 H 677.117 2.7826 5.93508 0
M  V30 7106 H 676.637 1.07034 5.90173 0
M  V30 7107 H 678.316 1.52166 6.28852 0
M  V30 7108 N 678.448 -1.51871 0.421078 0
M  V30 7109 C 679.695 -2.01938 -0.15079 0
M  V30 7110 C 680.023 -1.30611 -1.44121 0
M  V30 7111 O 679.278 -0.404631 -1.91471 0
M  V30 7112 C 679.577 -3.54764 -0.433292 0
M  V30 7113 C 679.243 -4.44288 0.76936 0
M  V30 7114 C 677.905 -4.68477 1.09921 0
M  V30 7115 C 680.257 -4.96915 1.57242 0
M  V30 7116 C 677.585 -5.4254 2.2331 0
M  V30 7117 C 679.937 -5.7222 2.69716 0
M  V30 7118 C 678.601 -5.94678 3.03174 0
M  V30 7119 H 677.871 -0.738943 -0.0551781 0
M  V30 7120 H 680.518 -1.82977 0.564945 0
M  V30 7121 H 678.823 -3.71968 -1.23074 0
M  V30 7122 H 680.52 -3.91023 -0.888922 0
M  V30 7123 H 677.11 -4.25646 0.502305 0
M  V30 7124 H 681.294 -4.78125 1.3308 0
M  V30 7125 H 676.55 -5.58146 2.49565 0
M  V30 7126 H 680.724 -6.11992 3.32323 0
M  V30 7127 H 678.351 -6.51848 3.9115 0
M  V30 7128 N 679.926 -0.151884 -1.56866 0
M  V30 7129 C 681.173 0.498004 -1.96281 0
M  V30 7130 C 681.501 1.64551 -1.03698 0
M  V30 7131 O 680.756 1.95585 -0.0671497 0
M  V30 7132 C 681.055 1.04074 -3.41911 0
M  V30 7133 C 680.721 0.0111688 -4.50899 0
M  V30 7134 C 679.383 -0.271844 -4.80432 0
M  V30 7135 C 681.735 -0.68869 -5.1663 0
M  V30 7136 C 679.063 -1.26044 -5.73001 0
M  V30 7137 C 681.415 -1.66613 -6.10264 0
M  V30 7138 C 680.079 -1.9568 -6.38174 0
M  V30 7139 H 679.349 0.182233 -0.718242 0
M  V30 7140 H 681.996 -0.239746 -1.89993 0
M  V30 7141 H 680.301 1.85592 -3.45055 0
M  V30 7142 H 681.998 1.55224 -3.69738 0
M  V30 7143 H 678.588 0.241932 -4.27917 0
M  V30 7144 H 682.772 -0.48324 -4.93942 0
M  V30 7145 H 678.028 -1.49202 -5.92915 0
M  V30 7146 H 682.202 -2.21392 -6.60272 0
M  V30 7147 H 679.829 -2.72434 -7.09707 0
M  V30 7148 N 681.404 1.57128 0.121893 0
M  V30 7149 C 682.815 1.73902 0.679348 0
M  V30 7150 C 683.166 0.770135 1.80453 0
M  V30 7151 O 682.291 -0.0576083 2.16323 0
M  V30 7152 C 682.886 3.15328 1.2391 0
M  V30 7153 C 681.445 3.33618 1.74288 0
M  V30 7154 C 680.592 2.6978 0.641414 0
M  V30 7155 H 683.543 1.58359 -0.104 0
M  V30 7156 H 683.564 3.16718 2.10879 0
M  V30 7157 H 683.076 3.85821 0.419957 0
M  V30 7158 H 681.177 2.68162 2.58689 0
M  V30 7159 H 681.29 4.4176 1.85432 0
M  V30 7160 H 679.654 2.30935 1.0743 0
M  V30 7161 H 680.437 3.42895 -0.166707 0
M  V30 7162 N 682.882 -0.391992 1.52647 0
M  V30 7163 C 683.814 -1.49811 1.73463 0
M  V30 7164 C 684.827 -1.50734 0.615078 0
M  V30 7165 O 686.016 -1.5469 0.890696 0
M  V30 7166 C 683.116 -2.88667 1.77552 0
M  V30 7167 C 682.289 -3.11743 3.06815 0
M  V30 7168 C 681.348 -4.30564 3.02491 0
M  V30 7169 O 680.374 -4.27014 3.76361 0
M  V30 7170 N 681.576 -5.36593 2.21468 0
M  V30 7171 H 684.341 -1.32343 2.68897 0
M  V30 7172 H 681.902 -0.581475 1.51098 0
M  V30 7173 H 683.894 -3.66251 1.7217 0
M  V30 7174 H 682.464 -2.99508 0.895181 0
M  V30 7175 H 681.684 -2.2205 3.25711 0
M  V30 7176 H 682.972 -3.24013 3.92292 0
M  V30 7177 H 682.37 -5.42332 1.60913 0
M  V30 7178 H 680.927 -6.12855 2.21928 0
M  V30 7179 N 684.36 -1.4356 -0.65026 0
M  V30 7180 C 685.31 -1.45392 -1.75628 0
M  V30 7181 C 686.294 -0.322006 -1.57645 0
M  V30 7182 O 687.486 -0.565996 -1.67707 0
M  V30 7183 C 684.615 -1.38254 -3.1423 0
M  V30 7184 C 683.701 -2.56487 -3.3775 0
M  V30 7185 N 684.092 -3.81824 -3.31729 0
M  V30 7186 C 682.39 -2.51274 -3.6848 0
M  V30 7187 C 683.091 -4.60497 -3.55412 0
M  V30 7188 N 682.067 -3.91274 -3.77367 0
M  V30 7189 H 685.869 -2.40167 -1.69402 0
M  V30 7190 H 683.383 -1.38254 -0.852037 0
M  V30 7191 H 685.38 -1.3765 -3.9352 0
M  V30 7192 H 684.04 -0.445019 -3.21636 0
M  V30 7193 H 685.051 -4.14069 -3.11074 0
M  V30 7194 H 681.728 -1.66223 -3.82983 0
M  V30 7195 H 683.118 -5.69518 -3.5651 0
M  V30 7196 N 685.838 0.888903 -1.30139 0
M  V30 7197 C 687.085 1.64037 -1.18736 0
M  V30 7198 C 687.413 1.92771 0.258801 0
M  V30 7199 O 686.668 1.54427 1.20212 0
M  V30 7200 C 686.967 2.99041 -1.95728 0
M  V30 7201 C 686.633 2.89874 -3.45375 0
M  V30 7202 C 685.295 2.87082 -3.86183 0
M  V30 7203 C 687.647 2.78289 -4.40687 0
M  V30 7204 C 684.975 2.70536 -5.20603 0
M  V30 7205 C 687.327 2.63282 -5.75209 0
M  V30 7206 C 685.991 2.58861 -6.15262 0
M  V30 7207 H 685.261 0.600253 -0.434485 0
M  V30 7208 H 687.908 1.0338 -1.61198 0
M  V30 7209 H 686.213 3.63626 -1.45888 0
M  V30 7210 H 687.91 3.56139 -1.843 0
M  V30 7211 H 684.5 2.92856 -3.12943 0
M  V30 7212 H 688.684 2.79516 -4.10103 0
M  V30 7213 H 683.94 2.65526 -5.50732 0
M  V30 7214 H 688.114 2.5329 -6.48704 0
M  V30 7215 H 685.741 2.45799 -7.19366 0
M  V30 7216 N 687.317 1.12792 1.10072 0
M  V30 7217 C 688.247 0.821688 2.18565 0
M  V30 7218 C 689.228 -0.21612 1.68721 0
M  V30 7219 O 690.413 -0.0764932 1.94049 0
M  V30 7220 C 687.543 0.279624 3.46172 0
M  V30 7221 C 686.497 1.25092 4.09312 0
M  V30 7222 C 685.823 0.568916 5.31665 0
M  V30 7223 C 687.123 2.60699 4.52585 0
M  V30 7224 H 688.817 1.72888 2.44438 0
M  V30 7225 H 686.363 0.832702 1.17482 0
M  V30 7226 H 688.316 0.053099 4.21367 0
M  V30 7227 H 687.04 -0.662929 3.19801 0
M  V30 7228 H 685.699 1.46332 3.36129 0
M  V30 7229 H 685.347 -0.378898 5.01571 0
M  V30 7230 H 685.047 1.21687 5.74862 0
M  V30 7231 H 686.571 0.351517 6.09587 0
M  V30 7232 H 687.985 2.43465 5.19035 0
M  V30 7233 H 686.382 3.21608 5.06644 0
M  V30 7234 H 687.452 3.1886 3.65317 0
M  V30 7235 N 688.795 -1.27931 0.920396 0
M  V30 7236 C 690.043 -1.94304 0.555906 0
M  V30 7237 C 690.364 -1.72753 -0.904519 0
M  V30 7238 O 689.634 -1.07104 -1.64029 0
M  V30 7239 H 688.214 -0.719001 0.202599 0
M  V30 7240 H 690.876 -1.55785 1.1712 0
M  V30 7241 H 689.972 -3.02806 0.755981 0
M  V30 7242 N 690.273 -0.685099 -1.4193 0
M  V30 7243 C 691.689 -0.355632 -1.55587 0
M  V30 7244 C 691.889 1.13823 -1.66273 0
M  V30 7245 O 690.945 1.92387 -1.63534 0
M  V30 7246 C 692.258 -1.09498 -2.80055 0
M  V30 7247 C 693.806 -1.07831 -2.93839 0
M  V30 7248 C 694.281 -1.79919 -4.21181 0
M  V30 7249 N 695.772 -1.76837 -4.28115 0
M  V30 7250 C 696.507 -2.29463 -5.25485 0
M  V30 7251 N 696.003 -2.90516 -6.28945 0
M  V30 7252 N 697.796 -2.19779 -5.17353 0
M  V30 7253 H 689.947 -1.65412 -1.33239 0
M  V30 7254 H 692.21 -0.697453 -0.642078 0
M  V30 7255 H 691.916 -2.14997 -2.78333 0
M  V30 7256 H 691.79 -0.666813 -3.71259 0
M  V30 7257 H 694.177 -0.0316152 -2.95083 0
M  V30 7258 H 694.258 -1.54545 -2.03837 0
M  V30 7259 H 693.902 -2.84562 -4.20698 0
M  V30 7260 H 693.832 -1.30647 -5.10136 0
M  V30 7261 H 696.323 -1.32315 -3.53979 0
M  V30 7262 H 696.636 -3.28266 -6.99615 0
M  V30 7263 H 694.981 -2.94589 -6.29478 0
M  V30 7264 H 698.172 -1.71763 -4.35448 0
M  V30 7265 H 698.345 -2.61097 -5.9307 0
M  V30 7266 N 691.751 1.51645 -0.429126 0
M  V30 7267 C 692.683 2.25279 0.422124 0
M  V30 7268 C 693.696 1.28986 0.993299 0
M  V30 7269 O 694.885 1.54797 0.888836 0
M  V30 7270 C 691.985 2.98666 1.60162 0
M  V30 7271 C 691.158 4.2199 1.15078 0
M  V30 7272 C 690.217 4.78028 2.19946 0
M  V30 7273 O 689.243 5.40084 1.79716 0
M  V30 7274 N 690.445 4.61342 3.5234 0
M  V30 7275 H 693.21 2.98971 -0.208931 0
M  V30 7276 H 690.771 1.59838 -0.257568 0
M  V30 7277 H 692.763 3.33044 2.29922 0
M  V30 7278 H 691.333 2.28036 2.13818 0
M  V30 7279 H 690.553 3.932 0.280552 0
M  V30 7280 H 691.841 5.02037 0.826831 0
M  V30 7281 H 691.239 4.11894 3.87763 0
M  V30 7282 H 689.796 5.00104 4.18019 0
M  V30 7283 N 693.229 0.160201 1.56784 0
M  V30 7284 C 694.477 -0.486625 1.96154 0
M  V30 7285 C 694.798 -1.64525 1.04673 0
M  V30 7286 O 694.068 -1.95586 0.110864 0
M  V30 7287 H 692.648 -0.182764 0.724297 0
M  V30 7288 H 695.31 0.238787 1.93432 0
M  V30 7289 H 694.406 -0.854025 3.00188 0
M  V30 7290 N 694.707 -1.5719 -0.113559 0
M  V30 7291 C 695.64 -1.9595 -1.16957 0
M  V30 7292 C 696.618 -0.829951 -1.39823 0
M  V30 7293 O 697.802 -1.08861 -1.53888 0
M  V30 7294 C 694.929 -2.2604 -2.52237 0
M  V30 7295 C 693.975 -3.48571 -2.45765 0
M  V30 7296 S 694.808 -5.00962 -1.89203 0
M  V30 7297 C 695.964 -5.3421 -3.26145 0
M  V30 7298 H 696.197 -2.85214 -0.839069 0
M  V30 7299 H 693.73 -1.51036 -0.320529 0
M  V30 7300 H 695.688 -2.44054 -3.30073 0
M  V30 7301 H 694.349 -1.3738 -2.82463 0
M  V30 7302 H 693.542 -3.67008 -3.45429 0
M  V30 7303 H 693.144 -3.29972 -1.76053 0
M  V30 7304 H 695.436 -5.29725 -4.22371 0
M  V30 7305 H 696.379 -6.35398 -3.12529 0
M  V30 7306 H 696.787 -4.61681 -3.24825 0
M  V30 7307 N 696.185 0.383891 -1.52853 0
M  V30 7308 C 697.596 0.961591 -1.60032 0
M  V30 7309 C 697.947 1.90819 -0.456333 0
M  V30 7310 O 697.072 2.12288 0.419873 0
M  V30 7311 C 697.667 1.75078 -2.90057 0
M  V30 7312 C 696.226 2.2781 -2.99632 0
M  V30 7313 C 695.373 1.08512 -2.55187 0
M  V30 7314 H 698.324 0.163269 -1.57858 0
M  V30 7315 H 698.345 2.61046 -2.7683 0
M  V30 7316 H 697.857 1.06157 -3.73299 0
M  V30 7317 H 695.958 3.00028 -2.20939 0
M  V30 7318 H 696.071 2.56947 -4.0437 0
M  V30 7319 H 694.435 1.44667 -2.09627 0
M  V30 7320 H 695.218 0.41118 -3.40829 0
M  V30 7321 N 697.663 1.43903 0.642637 0
M  V30 7322 C 699.079 1.27536 0.959519 0
M  V30 7323 C 699.279 0.202751 2.00477 0
M  V30 7324 O 698.335 -0.415256 2.49062 0
M  V30 7325 C 699.648 2.6432 1.43372 0
M  V30 7326 C 701.196 2.71937 1.54981 0
M  V30 7327 C 701.671 4.09164 2.05789 0
M  V30 7328 N 703.162 4.11282 2.13076 0
M  V30 7329 C 703.897 5.14303 2.53534 0
M  V30 7330 N 703.393 6.27693 2.93212 0
M  V30 7331 N 705.186 5.01657 2.53567 0
M  V30 7332 H 697.337 2.12344 -0.0488376 0
M  V30 7333 H 699.6 0.947124 0.0407559 0
M  V30 7334 H 699.306 3.43826 0.740048 0
M  V30 7335 H 699.18 2.90432 2.40685 0
M  V30 7336 H 701.567 1.92757 2.23448 0
M  V30 7337 H 701.648 2.49578 0.560739 0
M  V30 7338 H 701.292 4.88815 1.37921 0
M  V30 7339 H 701.222 4.28893 3.05546 0
M  V30 7340 H 703.713 3.2944 1.85143 0
M  V30 7341 H 704.026 7.02125 3.22863 0
M  V30 7342 H 702.371 6.31149 2.90991 0
M  V30 7343 H 705.562 4.12134 2.21952 0
M  V30 7344 H 705.735 5.82072 2.84774 0
M  V30 7345 N 699.141 -0.881989 1.30609 0
M  V30 7346 C 700.557 -1.16576 1.09005 0
M  V30 7347 C 700.757 -2.00961 -0.14727 0
M  V30 7348 O 699.813 -2.38117 -0.840036 0
M  V30 7349 C 701.126 -1.86954 2.35518 0
M  V30 7350 C 702.674 -1.99706 2.41011 0
M  V30 7351 C 703.149 -2.73497 3.67374 0
M  V30 7352 N 704.64 -2.8104 3.68199 0
M  V30 7353 C 705.375 -3.38718 4.62664 0
M  V30 7354 N 704.871 -3.97421 5.67475 0
M  V30 7355 N 706.664 -3.36561 4.50203 0
M  V30 7356 H 698.815 -0.319398 2.09985 0
M  V30 7357 H 701.078 -0.204058 0.925778 0
M  V30 7358 H 700.784 -1.32393 3.2583 0
M  V30 7359 H 700.658 -2.87317 2.44395 0
M  V30 7360 H 703.045 -2.53436 1.51176 0
M  V30 7361 H 703.126 -0.984218 2.36108 0
M  V30 7362 H 702.77 -2.20438 4.57569 0
M  V30 7363 H 702.7 -3.75163 3.6954 0
M  V30 7364 H 705.191 -2.39365 2.92426 0
M  V30 7365 H 705.504 -4.39507 6.35652 0
M  V30 7366 H 703.849 -3.95832 5.71264 0
M  V30 7367 H 707.04 -2.8993 3.67503 0
M  V30 7368 H 707.213 -3.81215 5.24003 0
M  V30 7369 N 700.619 -1.13374 -1.09472 0
M  V30 7370 C 701.849 -0.917019 -1.85133 0
M  V30 7371 C 702.257 0.537568 -1.81402 0
M  V30 7372 O 701.6 1.38385 -1.20811 0
M  V30 7373 C 701.662 -1.32646 -3.34134 0
M  V30 7374 C 701.326 -2.79437 -3.61613 0
M  V30 7375 C 702.323 -3.77596 -3.57375 0
M  V30 7376 C 700.008 -3.16586 -3.89973 0
M  V30 7377 C 702.002 -5.10916 -3.81108 0
M  V30 7378 C 699.689 -4.50085 -4.13361 0
M  V30 7379 C 700.687 -5.47059 -4.0892 0
M  V30 7380 O 700.375 -6.78149 -4.31705 0
M  V30 7381 H 700.107 -0.326997 -0.591649 0
M  V30 7382 H 702.661 -1.51002 -1.39239 0
M  V30 7383 H 700.891 -0.676719 -3.80733 0
M  V30 7384 H 702.58 -1.08229 -3.91205 0
M  V30 7385 H 703.346 -3.50242 -3.35493 0
M  V30 7386 H 699.225 -2.41707 -3.92554 0
M  V30 7387 H 702.769 -5.86597 -3.77558 0
M  V30 7388 H 698.666 -4.77163 -4.34724 0
M  V30 7389 H 699.434 -6.84244 -4.49168 0
M  V30 7390 N 702.098 1.27442 -0.927168 0
M  V30 7391 C 703.347 1.93679 -0.563146 0
M  V30 7392 C 703.66 1.73673 0.899837 0
M  V30 7393 O 704.866 2.34247 1.37262 0
M  V30 7394 C 703.322 3.46961 -0.95636 0
M  V30 7395 C 702.93 3.75724 -2.43999 0
M  V30 7396 C 704.674 4.19282 -0.663565 0
M  V30 7397 C 702.581 5.22378 -2.77263 0
M  V30 7398 H 701.511 0.725059 -0.206894 0
M  V30 7399 H 704.162 1.44743 -1.12791 0
M  V30 7400 H 702.544 3.94703 -0.320254 0
M  V30 7401 H 703.718 3.38741 -3.12396 0
M  V30 7402 H 702.033 3.16605 -2.70463 0
M  V30 7403 H 704.63 5.27265 -0.888596 0
M  V30 7404 H 704.973 4.14382 0.399198 0
M  V30 7405 H 705.506 3.7736 -1.25875 0
M  V30 7406 H 702.245 5.32367 -3.82446 0
M  V30 7407 H 701.765 5.6051 -2.13516 0
M  V30 7408 H 703.444 5.9025 -2.64979 0
M  V30 7409 N 703.576 0.692616 1.41565 0
M  V30 7410 C 704.853 0.150496 1.9502 0
M  V30 7411 C 705.233 -1.33881 1.63215 0
M  V30 7412 O 704.581 -2.08378 0.937598 0
M  V30 7413 C 704.791 0.438636 3.46233 0
M  V30 7414 C 706.139 0.364777 4.2303 0
M  V30 7415 O 707.163 0.373383 3.54238 0
M  V30 7416 O 706.022 0.32234 5.45549 0
M  V30 7417 H 703.116 0.0132454 0.826894 0
M  V30 7418 H 705.662 0.768574 1.51298 0
M  V30 7419 H 704.434 1.46962 3.62654 0
M  V30 7420 H 704.057 -0.210562 3.97042 0
M  V30 7421 N 705.054 -1.51416 0.437162 0
M  V30 7422 C 706.284 -2.06204 -0.127859 0
M  V30 7423 C 706.692 -1.30463 -1.37026 0
M  V30 7424 O 706.035 -0.357516 -1.80187 0
M  V30 7425 C 706.097 -3.55783 -0.515632 0
M  V30 7426 C 705.761 -4.52776 0.619937 0
M  V30 7427 C 706.758 -4.98031 1.49201 0
M  V30 7428 C 704.443 -4.95878 0.800618 0
M  V30 7429 C 706.437 -5.85061 2.52947 0
M  V30 7430 C 704.124 -5.82699 1.84135 0
M  V30 7431 C 705.122 -6.27188 2.70416 0
M  V30 7432 O 704.81 -7.12284 3.72702 0
M  V30 7433 H 704.542 -0.675903 -0.011442 0
M  V30 7434 H 707.096 -1.95977 0.614986 0
M  V30 7435 H 705.326 -3.63793 -1.31118 0
M  V30 7436 H 707.015 -3.93087 -1.01179 0
M  V30 7437 H 707.781 -4.65426 1.36395 0
M  V30 7438 H 703.66 -4.60792 0.138617 0
M  V30 7439 H 707.204 -6.19708 3.20325 0
M  V30 7440 H 703.101 -6.14717 1.9696 0
M  V30 7441 H 703.869 -7.30462 3.69281 0
M  V30 7442 N 706.532 -0.168513 -1.56696 0
M  V30 7443 C 707.943 0.348694 -1.83415 0
M  V30 7444 C 708.294 1.63257 -1.0882 0
M  V30 7445 O 707.419 2.13707 -0.340333 0
M  V30 7446 C 708.014 0.639423 -3.32711 0
M  V30 7447 C 706.573 1.10108 -3.59935 0
M  V30 7448 C 705.72 0.135464 -2.76969 0
M  V30 7449 H 708.671 -0.392829 -1.53761 0
M  V30 7450 H 708.692 1.49179 -3.50037 0
M  V30 7451 H 708.204 -0.295173 -3.86976 0
M  V30 7452 H 706.305 2.05088 -3.11079 0
M  V30 7453 H 706.418 1.01218 -4.68286 0
M  V30 7454 H 704.782 0.632286 -2.46727 0
M  V30 7455 H 705.565 -0.793104 -3.34013 0
M  V30 7456 N 708.01 1.57248 0.105221 0
M  V30 7457 C 709.256 1.85845 0.811753 0
M  V30 7458 C 709.589 0.756219 1.78871 0
M  V30 7459 O 708.864 -0.236736 1.93054 0
M  V30 7460 C 709.147 3.25059 1.54947 0
M  V30 7461 C 709 4.45898 0.591185 0
M  V30 7462 C 710.319 3.6203 2.50245 0
M  V30 7463 H 707.438 0.675973 0.293649 0
M  V30 7464 H 710.08 1.89849 0.0756269 0
M  V30 7465 H 708.23 3.21776 2.17698 0
M  V30 7466 H 709.902 4.61291 -0.0285352 0
M  V30 7467 H 708.145 4.33693 -0.0962343 0
M  V30 7468 H 708.816 5.40009 1.1443 0
M  V30 7469 H 711.292 3.66192 1.97593 0
M  V30 7470 H 710.168 4.60389 2.98886 0
M  V30 7471 H 710.429 2.90176 3.33542 0
M  V30 7472 N 709.488 -0.375779 1.53054 0
M  V30 7473 C 710.398 -1.48381 1.81715 0
M  V30 7474 C 711.414 -1.59087 0.704795 0
M  V30 7475 O 712.59 -1.75174 0.993785 0
M  V30 7476 C 709.655 -2.83767 1.99192 0
M  V30 7477 C 708.716 -2.82673 3.23102 0
M  V30 7478 C 707.949 -4.11601 3.39736 0
M  V30 7479 O 708.172 -5.07243 2.60885 0
M  V30 7480 O 707.106 -4.18034 4.33049 0
M  V30 7481 H 710.932 -1.27089 2.7583 0
M  V30 7482 H 708.517 -0.564902 1.38308 0
M  V30 7483 H 710.399 -3.64004 2.12318 0
M  V30 7484 H 709.074 -3.05057 1.08267 0
M  V30 7485 H 707.981 -2.0117 3.15407 0
M  V30 7486 H 709.314 -2.66335 4.13916 0
M  V30 7487 N 710.966 -1.44241 -0.634997 0
M  V30 7488 C 712.213 -1.46821 -1.39463 0
M  V30 7489 C 712.541 -0.0993362 -1.94246 0
M  V30 7490 O 711.796 0.898325 -1.73864 0
M  V30 7491 C 712.095 -2.47279 -2.58046 0
M  V30 7492 C 711.761 -3.92703 -2.21574 0
M  V30 7493 C 710.423 -4.32306 -2.1134 0
M  V30 7494 C 712.775 -4.84271 -1.92695 0
M  V30 7495 C 710.103 -5.61407 -1.70409 0
M  V30 7496 C 712.455 -6.13755 -1.53258 0
M  V30 7497 C 711.119 -6.52316 -1.41562 0
M  V30 7498 H 710.389 -0.537256 -0.51033 0
M  V30 7499 H 713.036 -1.77431 -0.720441 0
M  V30 7500 H 711.341 -2.10138 -3.3068 0
M  V30 7501 H 713.038 -2.46523 -3.16271 0
M  V30 7502 H 709.628 -3.61369 -2.30456 0
M  V30 7503 H 713.812 -4.54432 -1.99513 0
M  V30 7504 H 709.068 -5.90105 -1.59955 0
M  V30 7505 H 713.242 -6.84168 -1.29949 0
M  V30 7506 H 710.869 -7.52255 -1.09619 0
M  V30 7507 N 712.444 0.87505 -1.31075 0
M  V30 7508 C 713.407 1.96333 -1.18263 0
M  V30 7509 C 714.407 1.60416 -0.111106 0
M  V30 7510 O 715.597 1.7044 -0.359987 0
M  V30 7511 C 712.729 3.31036 -0.81414 0
M  V30 7512 H 713.922 2.09125 -2.14958 0
M  V30 7513 H 711.475 1.06271 -1.14614 0
M  V30 7514 H 712.21 3.23944 0.151875 0
M  V30 7515 H 711.995 3.58476 -1.58862 0
M  V30 7516 H 713.485 4.10842 -0.748249 0
M  V30 7517 N 713.922 1.13953 1.08869 0
M  V30 7518 C 715.152 0.926825 1.84644 0
M  V30 7519 C 715.56 -0.527941 1.81685 0
M  V30 7520 O 714.903 -1.37742 1.21543 0
M  V30 7521 C 714.965 1.34416 3.33426 0
M  V30 7522 C 714.629 2.81351 3.60126 0
M  V30 7523 C 715.626 3.79486 3.55368 0
M  V30 7524 C 713.311 3.1865 3.88288 0
M  V30 7525 C 715.305 5.1293 3.78393 0
M  V30 7526 C 712.992 4.5227 4.10968 0
M  V30 7527 C 713.99 5.4922 4.06013 0
M  V30 7528 O 713.678 6.80429 4.28102 0
M  V30 7529 H 713.41 0.33013 0.589907 0
M  V30 7530 H 715.964 1.51738 1.38436 0
M  V30 7531 H 714.194 0.696901 3.80368 0
M  V30 7532 H 715.883 1.10302 3.90626 0
M  V30 7533 H 716.649 3.52017 3.3363 0
M  V30 7534 H 712.528 2.43785 3.91267 0
M  V30 7535 H 716.072 5.88591 3.74442 0
M  V30 7536 H 711.969 4.79462 4.32188 0
M  V30 7537 H 712.737 6.86617 4.45533 0
M  V30 7538 N 715.4 -1.26948 0.933913 0
M  V30 7539 C 716.646 -1.94716 0.587985 0
M  V30 7540 C 717.001 -1.71994 -0.862312 0
M  V30 7541 O 716.294 -1.04208 -1.60783 0
M  V30 7542 C 716.488 -3.46963 0.857406 0
M  V30 7543 C 716.317 -3.84489 2.33234 0
M  V30 7544 C 715.087 -4.07621 2.98618 0
M  V30 7545 C 717.285 -3.93602 3.31031 0
M  V30 7546 N 715.267 -4.31976 4.362 0
M  V30 7547 C 716.638 -4.22404 4.53845 0
M  V30 7548 C 718.693 -3.76201 3.26155 0
M  V30 7549 C 717.396 -4.35615 5.72391 0
M  V30 7550 C 719.422 -3.90641 4.4402 0
M  V30 7551 C 718.784 -4.19835 5.65613 0
M  V30 7552 H 714.883 -0.735586 0.2654 0
M  V30 7553 H 717.467 -1.53181 1.20182 0
M  V30 7554 H 715.638 -3.87442 0.27268 0
M  V30 7555 H 717.37 -4.01921 0.47348 0
M  V30 7556 H 714.125 -4.02696 2.49264 0
M  V30 7557 H 714.549 -4.48199 5.07392 0
M  V30 7558 H 719.191 -3.52665 2.3321 0
M  V30 7559 H 716.909 -4.57975 6.65796 0
M  V30 7560 H 720.495 -3.78589 4.41771 0
M  V30 7561 H 719.375 -4.30765 6.55295 0
M  V30 7562 N 716.879 -0.700114 -1.41195 0
M  V30 7563 C 717.827 -0.0263301 -2.32585 0
M  V30 7564 C 718.821 0.763683 -1.51209 0
M  V30 7565 O 720.027 0.668793 -1.67114 0
M  V30 7566 H 716.402 0.0102869 -0.75193 0
M  V30 7567 H 718.373 -0.814087 -2.8708 0
M  V30 7568 C 717.122 0.892793 -3.36042 0
M  V30 7569 H 716.445 0.294306 -3.98715 0
M  V30 7570 H 717.885 1.33247 -4.02518 0
M  V30 7571 C 716.344 2.01109 -2.7029 0
M  V30 7572 O 716.874 3.10035 -2.55423 0
M  V30 7573 N 715.08 1.79015 -2.28915 0
M  V30 7574 H 714.627 0.904275 -2.41207 0
M  V30 7575 H 714.585 2.54022 -1.85257 0
M  V30 7576 N 718.357 1.51182 -0.445186 0
M  V30 7577 C 719.305 2.29531 0.376597 0
M  V30 7578 C 720.299 1.35711 1.01385 0
M  V30 7579 O 721.505 1.53018 0.947922 0
M  V30 7580 H 717.88 0.738803 0.140267 0
M  V30 7581 H 719.851 2.96838 -0.304958 0
M  V30 7582 C 718.6 3.1552 1.4609 0
M  V30 7583 H 717.923 3.87605 0.979912 0
M  V30 7584 H 719.363 3.73384 2.009 0
M  V30 7585 C 717.822 2.31406 2.44852 0
M  V30 7586 O 718.352 1.97912 3.49562 0
M  V30 7587 N 716.558 1.94478 2.15932 0
M  V30 7588 H 716.105 2.21917 1.30808 0
M  V30 7589 H 716.063 1.38498 2.82251 0
M  V30 7590 N 719.835 0.176821 1.56605 0
M  V30 7591 C 721.084 -0.466833 1.96223 0
M  V30 7592 C 721.397 -1.64015 1.06576 0
M  V30 7593 O 722.603 -2.3504 1.35898 0
M  V30 7594 C 721.059 -0.881921 3.48927 0
M  V30 7595 C 720.667 0.266102 4.47209 0
M  V30 7596 C 722.411 -1.49368 3.97353 0
M  V30 7597 C 720.318 -0.168923 5.91159 0
M  V30 7598 H 719.248 -0.178178 0.732645 0
M  V30 7599 H 721.899 0.265929 1.81563 0
M  V30 7600 H 720.281 -1.67082 3.59026 0
M  V30 7601 H 721.455 1.04349 4.4883 0
M  V30 7602 H 719.77 0.788178 4.08872 0
M  V30 7603 H 722.367 -1.8313 5.02362 0
M  V30 7604 H 722.71 -2.3936 3.40606 0
M  V30 7605 H 723.243 -0.769114 3.90294 0
M  V30 7606 H 719.982 0.696351 6.51791 0
M  V30 7607 H 719.502 -0.911552 5.92833 0
M  V30 7608 H 721.181 -0.610938 6.44109 0
M  V30 7609 N 721.313 -1.57302 -0.09688 0
M  V30 7610 C 722.538 -1.9058 -0.818169 0
M  V30 7611 C 722.963 -0.770921 -1.71576 0
M  V30 7612 O 722.321 0.277588 -1.79162 0
M  V30 7613 C 722.369 -3.22714 -1.60898 0
M  V30 7614 O 721.473 -3.10178 -2.71779 0
M  V30 7615 H 720.814 -0.624759 -0.224882 0
M  V30 7616 H 723.344 -2.04471 -0.07264 0
M  V30 7617 H 723.354 -3.55978 -1.99358 0
M  V30 7618 H 722.029 -4.04899 -0.950227 0
M  V30 7619 H 720.606 -2.88424 -2.3636 0
M  V30 7620 N 722.791 0.367657 -1.53252 0
M  V30 7621 C 724.016 1.13566 -1.73544 0
M  V30 7622 C 724.441 1.82329 -0.462344 0
M  V30 7623 O 723.799 1.71655 0.583472 0
M  V30 7624 C 723.847 2.14322 -2.89997 0
M  V30 7625 O 722.951 3.21359 -2.58461 0
M  V30 7626 H 722.292 0.329614 -0.576412 0
M  V30 7627 H 724.822 0.425417 -2.00128 0
M  V30 7628 H 724.832 2.57958 -3.16104 0
M  V30 7629 H 723.507 1.63664 -3.82344 0
M  V30 7630 H 722.084 2.8271 -2.43165 0
M  V30 7631 N 724.269 1.44576 0.627338 0
M  V30 7632 C 725.518 1.46837 1.38281 0
M  V30 7633 C 725.831 0.10635 1.95311 0
M  V30 7634 O 727.037 0.00651084 2.71499 0
M  V30 7635 C 725.493 2.58527 2.50384 0
M  V30 7636 C 725.101 4.00953 1.99851 0
M  V30 7637 C 726.845 2.70013 3.27557 0
M  V30 7638 C 724.752 5.0406 3.09318 0
M  V30 7639 H 723.682 0.546319 0.519664 0
M  V30 7640 H 726.333 1.70654 0.674497 0
M  V30 7641 H 724.715 2.27957 3.23808 0
M  V30 7642 H 725.889 4.41108 1.33267 0
M  V30 7643 H 724.204 3.93743 1.35482 0
M  V30 7644 H 726.801 3.44217 4.09168 0
M  V30 7645 H 727.144 1.75961 3.77284 0
M  V30 7646 H 727.677 3.00011 2.61224 0
M  V30 7647 H 724.416 5.99753 2.6453 0
M  V30 7648 H 723.936 4.68493 3.74532 0
M  V30 7649 H 725.615 5.2793 3.74031 0
M  V30 7650 N 725.747 -0.868086 1.31537 0
M  V30 7651 C 726.995 -1.61807 1.21091 0
M  V30 7652 C 727.316 -1.93631 -0.230623 0
M  V30 7653 O 726.586 -1.5846 -1.15183 0
M  V30 7654 H 725.166 -0.599854 0.445178 0
M  V30 7655 H 727.828 -1.03915 1.64887 0
M  V30 7656 H 726.924 -2.56088 1.78396 0
M  V30 7657 N 727.225 -1.14528 -1.08264 0
M  V30 7658 C 728.188 -0.83632 -2.13397 0
M  V30 7659 C 729.188 0.159715 -1.60005 0
M  V30 7660 O 730.378 -0.0688098 -1.74064 0
M  V30 7661 C 727.51 -0.246973 -3.40004 0
M  V30 7662 H 728.703 -1.76808 -2.42237 0
M  V30 7663 H 726.256 -0.951509 -1.24 0
M  V30 7664 H 726.991 0.693436 -3.168 0
M  V30 7665 H 726.776 -0.964412 -3.80055 0
M  V30 7666 H 728.266 -0.0480679 -4.17572 0
M  V30 7667 N 728.703 1.26451 -0.940633 0
M  V30 7668 C 729.933 1.97581 -0.603766 0
M  V30 7669 C 730.341 1.70246 0.825395 0
M  V30 7670 O 729.684 0.967001 1.56188 0
M  V30 7671 C 729.746 3.51256 -0.765463 0
M  V30 7672 C 729.41 4.0224 -2.16915 0
M  V30 7673 C 730.407 4.1402 -3.14457 0
M  V30 7674 C 728.092 4.36263 -2.48958 0
M  V30 7675 C 730.086 4.59117 -4.42143 0
M  V30 7676 C 727.773 4.81048 -3.76877 0
M  V30 7677 C 728.771 4.92436 -4.73282 0
M  V30 7678 O 728.459 5.36234 -5.98923 0
M  V30 7679 H 728.191 0.636948 -0.226436 0
M  V30 7680 H 730.745 1.61941 -1.2635 0
M  V30 7681 H 728.975 3.86669 -0.0485956 0
M  V30 7682 H 730.664 4.03597 -0.431738 0
M  V30 7683 H 731.43 3.87981 -2.91026 0
M  V30 7684 H 727.309 4.26634 -1.74656 0
M  V30 7685 H 730.853 4.6792 -5.17394 0
M  V30 7686 H 726.75 5.06531 -4.00121 0
M  V30 7687 H 727.518 5.54456 -6.02097 0
M  V30 7688 N 730.181 0.707592 1.40822 0
M  V30 7689 C 731.43 0.240705 2.00259 0
M  V30 7690 C 731.743 -1.17027 1.56729 0
M  V30 7691 O 732.949 -1.73526 2.08809 0
M  V30 7692 C 731.405 0.379432 3.57894 0
M  V30 7693 C 731.013 1.79654 4.104 0
M  V30 7694 C 732.757 -0.0270684 4.24491 0
M  V30 7695 C 730.664 1.88628 5.60512 0
M  V30 7696 H 729.594 0.0862369 0.749052 0
M  V30 7697 H 732.245 0.877528 1.61157 0
M  V30 7698 H 730.627 -0.325842 3.94657 0
M  V30 7699 H 731.801 2.53155 3.85032 0
M  V30 7700 H 730.116 2.15379 3.56372 0
M  V30 7701 H 732.713 0.0193743 5.34696 0
M  V30 7702 H 733.056 -1.06772 4.02375 0
M  V30 7703 H 733.589 0.628361 3.92806 0
M  V30 7704 H 730.328 2.90787 5.87472 0
M  V30 7705 H 729.848 1.19528 5.8777 0
M  V30 7706 H 731.527 1.6547 6.25483 0
M  V30 7707 N 731.66 -1.50943 0.453197 0
M  V30 7708 C 732.885 -2.07116 -0.108463 0
M  V30 7709 C 733.31 -1.31681 -1.3432 0
M  V30 7710 O 732.668 -0.359256 -1.77705 0
M  V30 7711 C 732.716 -3.58447 -0.393424 0
M  V30 7712 O 731.82 -3.85038 -1.47714 0
M  V30 7713 H 731.161 -0.66398 0.0050993 0
M  V30 7714 H 733.691 -1.94362 0.639095 0
M  V30 7715 H 733.701 -4.02961 -0.639222 0
M  V30 7716 H 732.376 -4.12774 0.508946 0
M  V30 7717 H 730.953 -3.52376 -1.22006 0
M  V30 7718 N 733.138 -0.185124 -1.56509 0
M  V30 7719 C 734.385 0.456258 -1.97293 0
M  V30 7720 C 734.713 1.62314 -1.07165 0
M  V30 7721 O 733.968 1.95398 -0.108621 0
M  V30 7722 C 734.267 0.967977 -3.44042 0
M  V30 7723 C 733.933 -0.084476 -4.50821 0
M  V30 7724 C 732.595 -0.373689 -4.79747 0
M  V30 7725 C 734.947 -0.79812 -5.15053 0
M  V30 7726 C 732.275 -1.3817 -5.70198 0
M  V30 7727 C 734.627 -1.79521 -6.06593 0
M  V30 7728 C 733.291 -2.09172 -6.3388 0
M  V30 7729 H 732.561 0.166957 -0.721946 0
M  V30 7730 H 735.208 -0.279992 -1.89442 0
M  V30 7731 H 733.513 1.78231 -3.48914 0
M  V30 7732 H 735.21 1.47347 -3.72948 0
M  V30 7733 H 731.8 0.15111 -4.28334 0
M  V30 7734 H 735.984 -0.587903 -4.92806 0
M  V30 7735 H 731.24 -1.61745 -5.89617 0
M  V30 7736 H 735.414 -2.35347 -6.55427 0
M  V30 7737 H 733.041 -2.87427 -7.03768 0
M  V30 7738 N 734.616 1.57351 0.0885366 0
M  V30 7739 C 735.579 2.01557 1.09121 0
M  V30 7740 C 736.579 0.910052 1.3257 0
M  V30 7741 O 737.769 1.17537 1.28572 0
M  V30 7742 C 734.901 2.38189 2.43883 0
M  V30 7743 H 736.094 2.91361 0.710562 0
M  V30 7744 H 733.647 1.52694 0.333779 0
M  V30 7745 H 734.382 1.5136 2.86811 0
M  V30 7746 H 734.167 3.18846 2.28209 0
M  V30 7747 H 735.657 2.73025 3.15986 0
M  V30 7748 N 736.094 -0.359525 1.53444 0
M  V30 7749 C 737.319 -1.12644 1.74144 0
M  V30 7750 C 737.744 -1.82082 0.472007 0
M  V30 7751 O 737.102 -1.71962 -0.57436 0
M  V30 7752 C 737.15 -2.12781 2.9113 0
M  V30 7753 O 736.254 -3.19984 2.60162 0
M  V30 7754 H 735.595 -0.326553 0.578152 0
M  V30 7755 H 738.125 -0.414798 2.00351 0
M  V30 7756 H 738.135 -2.56278 3.17467 0
M  V30 7757 H 736.81 -1.61634 3.83207 0
M  V30 7758 H 735.387 -2.81417 2.44661 0
M  V30 7759 N 737.572 -1.44907 -0.619662 0
M  V30 7760 C 738.819 -1.48292 -1.37898 0
M  V30 7761 C 739.147 -0.119933 -1.9413 0
M  V30 7762 O 738.402 0.879834 -1.74807 0
M  V30 7763 C 738.701 -2.50002 -2.55409 0
M  V30 7764 C 738.367 -3.95031 -2.17397 0
M  V30 7765 C 737.029 -4.34524 -2.06743 0
M  V30 7766 C 739.381 -4.86287 -1.87548 0
M  V30 7767 C 736.709 -5.63183 -1.64445 0
M  V30 7768 C 739.061 -6.15346 -1.4674 0
M  V30 7769 C 737.725 -6.53781 -1.34636 0
M  V30 7770 H 736.995 -0.542638 -0.504603 0
M  V30 7771 H 739.642 -1.78186 -0.701581 0
M  V30 7772 H 737.947 -2.13634 -3.28433 0
M  V30 7773 H 739.644 -2.49864 -3.13639 0
M  V30 7774 H 736.234 -3.63793 -2.26611 0
M  V30 7775 H 740.418 -4.56522 -1.94682 0
M  V30 7776 H 735.674 -5.91769 -1.53687 0
M  V30 7777 H 739.848 -6.85508 -1.22685 0
M  V30 7778 H 737.475 -7.53375 -1.01634 0
M  V30 7779 N 739.05 0.861098 -1.31996 0
M  V30 7780 C 739.98 1.98482 -1.22993 0
M  V30 7781 C 740.961 1.6971 -0.115168 0
M  V30 7782 O 742.146 1.91849 -0.30126 0
M  V30 7783 C 739.276 3.34179 -0.945615 0
M  V30 7784 C 738.23 3.77284 -2.02091 0
M  V30 7785 C 737.556 5.1054 -1.58912 0
M  V30 7786 C 738.856 3.93439 -3.43515 0
M  V30 7787 H 740.55 2.06271 -2.17008 0
M  V30 7788 H 738.096 0.991043 -1.04472 0
M  V30 7789 H 740.049 4.12338 -0.869206 0
M  V30 7790 H 738.773 3.26586 0.0301849 0
M  V30 7791 H 737.432 3.01371 -2.08737 0
M  V30 7792 H 737.08 4.99397 -0.600942 0
M  V30 7793 H 736.78 5.40352 -2.30854 0
M  V30 7794 H 738.304 5.91199 -1.52696 0
M  V30 7795 H 739.718 4.6197 -3.39495 0
M  V30 7796 H 738.115 4.34661 -4.13751 0
M  V30 7797 H 739.185 2.96548 -3.8365 0
M  V30 7798 N 740.528 1.15101 1.07655 0
M  V30 7799 C 741.775 0.923974 1.80191 0
M  V30 7800 C 742.103 -0.549065 1.86589 0
M  V30 7801 O 741.358 -1.42307 1.3434 0
M  V30 7802 C 741.657 1.47954 3.25337 0
M  V30 7803 C 741.323 2.97253 3.39044 0
M  V30 7804 C 739.985 3.38012 3.42493 0
M  V30 7805 C 742.337 3.93219 3.42094 0
M  V30 7806 C 739.665 4.73384 3.4659 0
M  V30 7807 C 742.017 5.28458 3.47728 0
M  V30 7808 C 740.681 5.68717 3.49453 0
M  V30 7809 H 739.951 0.338106 0.659367 0
M  V30 7810 H 742.598 1.43594 1.26701 0
M  V30 7811 H 740.903 0.888691 3.81588 0
M  V30 7812 H 742.6 1.27972 3.80032 0
M  V30 7813 H 739.19 2.64746 3.37057 0
M  V30 7814 H 743.374 3.62805 3.38654 0
M  V30 7815 H 738.63 5.03925 3.46222 0
M  V30 7816 H 742.804 6.02618 3.49034 0
M  V30 7817 H 740.431 6.73596 3.5238 0
M  V30 7818 N 742.006 -1.2595 0.947325 0
M  V30 7819 C 743.253 -1.93463 0.598178 0
M  V30 7820 C 743.581 -1.74271 -0.863705 0
M  V30 7821 O 742.836 -1.07684 -1.63409 0
M  V30 7822 C 743.135 -3.46034 0.894158 0
M  V30 7823 C 742.801 -3.85373 2.3409 0
M  V30 7824 C 741.463 -3.95823 2.73637 0
M  V30 7825 C 743.815 -4.04986 3.2808 0
M  V30 7826 C 741.143 -4.23288 4.06257 0
M  V30 7827 C 743.495 -4.3394 4.60303 0
M  V30 7828 C 742.159 -4.42606 4.99656 0
M  V30 7829 H 741.429 -0.707933 0.218889 0
M  V30 7830 H 744.076 -1.4964 1.19499 0
M  V30 7831 H 742.381 -3.9121 0.214874 0
M  V30 7832 H 744.078 -3.96445 0.602698 0
M  V30 7833 H 740.668 -3.7779 2.02417 0
M  V30 7834 H 744.852 -3.96333 2.9872 0
M  V30 7835 H 740.108 -4.28211 4.36401 0
M  V30 7836 H 744.282 -4.48061 5.33118 0
M  V30 7837 H 741.909 -4.63641 6.02446 0
M  V30 7838 N 743.484 -0.715051 -1.40445 0
M  V30 7839 C 744.733 -0.251322 -2.00128 0
M  V30 7840 C 745.046 1.16194 -1.57347 0
M  V30 7841 O 746.252 1.72416 -2.09726 0
M  V30 7842 C 744.708 -0.398407 -3.57688 0
M  V30 7843 C 744.316 -1.81828 -4.09442 0
M  V30 7844 C 746.06 0.00455625 -4.245 0
M  V30 7845 C 743.967 -1.91598 -5.59503 0
M  V30 7846 H 742.897 -0.0902081 -0.748584 0
M  V30 7847 H 745.548 -0.886062 -1.6069 0
M  V30 7848 H 743.93 0.304908 -3.94824 0
M  V30 7849 H 745.104 -2.55193 -3.83684 0
M  V30 7850 H 743.419 -2.17266 -3.55225 0
M  V30 7851 H 746.016 -0.0477303 -5.34679 0
M  V30 7852 H 746.359 1.04636 -4.02935 0
M  V30 7853 H 746.892 -0.649184 -3.92467 0
M  V30 7854 H 743.631 -2.93898 -5.85922 0
M  V30 7855 H 743.151 -1.22644 -5.87127 0
M  V30 7856 H 744.83 -1.68785 -6.24596 0
M  V30 7857 N 744.962 1.50701 -0.461195 0
M  V30 7858 C 746.21 2.01867 0.0970051 0
M  V30 7859 C 746.531 1.34591 1.41104 0
M  V30 7860 O 745.801 0.488041 1.89723 0
M  V30 7861 H 744.381 0.74599 0.0388392 0
M  V30 7862 H 747.043 1.85129 -0.609357 0
M  V30 7863 H 746.139 3.11051 0.255688 0
M  V30 7864 N 746.441 0.193421 1.56409 0
M  V30 7865 C 747.69 -0.445995 1.96707 0
M  V30 7866 C 748.003 -1.62876 1.08309 0
M  V30 7867 O 749.209 -2.33586 1.38383 0
M  V30 7868 C 747.665 -0.844863 3.49843 0
M  V30 7869 C 747.273 0.31352 4.46902 0
M  V30 7870 C 749.017 -1.45146 3.98915 0
M  V30 7871 C 746.924 -0.106214 5.91305 0
M  V30 7872 H 745.854 -0.170398 0.734493 0
M  V30 7873 H 748.505 0.285172 1.81271 0
M  V30 7874 H 746.887 -1.63265 3.60778 0
M  V30 7875 H 748.061 1.09103 4.47698 0
M  V30 7876 H 746.376 0.8315 4.08014 0
M  V30 7877 H 748.973 -1.77792 5.04276 0
M  V30 7878 H 749.316 -2.35734 3.43126 0
M  V30 7879 H 749.849 -0.727675 3.91088 0
M  V30 7880 H 746.588 0.765442 6.51016 0
M  V30 7881 H 746.108 -0.848623 5.93766 0
M  V30 7882 H 747.787 -0.542588 6.44721 0
M  V30 7883 N 747.919 -1.57396 -0.0801906 0
M  V30 7884 C 749.165 -1.87113 -0.782083 0
M  V30 7885 C 749.498 -0.78458 -1.77646 0
M  V30 7886 O 748.773 0.205993 -1.93406 0
M  V30 7887 C 749.056 -3.27483 -1.49756 0
M  V30 7888 C 748.909 -4.46782 -0.520171 0
M  V30 7889 C 750.228 -3.65965 -2.44454 0
M  V30 7890 H 747.347 -0.680559 -0.282858 0
M  V30 7891 H 749.989 -1.89946 -0.0454139 0
M  V30 7892 H 748.139 -3.25199 -2.12551 0
M  V30 7893 H 749.811 -4.61187 0.101919 0
M  V30 7894 H 748.054 -4.33485 0.165219 0
M  V30 7895 H 748.725 -5.41761 -1.05824 0
M  V30 7896 H 751.201 -3.69289 -1.91742 0
M  V30 7897 H 750.077 -4.65086 -2.91524 0
M  V30 7898 H 750.338 -2.95446 -3.28883 0
M  V30 7899 N 749.397 0.351382 -1.53633 0
M  V30 7900 C 750.644 1.0925 -1.70502 0
M  V30 7901 C 750.972 1.88881 -0.464123 0
M  V30 7902 O 750.227 1.87693 0.554077 0
M  V30 7903 C 750.526 2.06744 -2.91533 0
M  V30 7904 C 750.192 1.43484 -4.27461 0
M  V30 7905 C 748.854 1.2596 -4.64422 0
M  V30 7906 C 751.206 0.978436 -5.11934 0
M  V30 7907 C 748.534 0.614017 -5.83478 0
M  V30 7908 C 750.886 0.346795 -6.31649 0
M  V30 7909 C 749.55 0.15917 -6.6731 0
M  V30 7910 H 748.82 0.399773 -0.623909 0
M  V30 7911 H 751.467 0.372656 -1.87839 0
M  V30 7912 H 749.772 2.85082 -2.68767 0
M  V30 7913 H 751.469 2.64066 -3.01778 0
M  V30 7914 H 748.059 1.5812 -3.98367 0
M  V30 7915 H 752.243 1.1017 -4.83918 0
M  V30 7916 H 747.499 0.457194 -6.09688 0
M  V30 7917 H 751.673 -0.0149864 -6.96398 0
M  V30 7918 H 749.3 -0.343129 -7.59425 0
M  V30 7919 N 750.875 1.45233 0.611969 0
M  V30 7920 C 752.105 1.52318 1.39581 0
M  V30 7921 C 752.513 0.153093 1.8858 0
M  V30 7922 O 751.856 -0.854792 1.62601 0
M  V30 7923 C 751.918 2.4426 2.63775 0
M  V30 7924 C 751.582 3.91079 2.36445 0
M  V30 7925 C 752.579 4.81099 1.97079 0
M  V30 7926 C 750.264 4.35958 2.49492 0
M  V30 7927 C 752.258 6.14002 1.71115 0
M  V30 7928 C 749.945 5.68903 2.23142 0
M  V30 7929 C 750.943 6.57744 1.84015 0
M  V30 7930 O 750.631 7.88226 1.5797 0
M  V30 7931 H 750.363 0.518428 0.43383 0
M  V30 7932 H 752.917 1.91067 0.753837 0
M  V30 7933 H 751.147 2.00474 3.30677 0
M  V30 7934 H 752.836 2.42077 3.25812 0
M  V30 7935 H 753.602 4.47692 1.86539 0
M  V30 7936 H 749.481 3.67053 2.78914 0
M  V30 7937 H 753.025 6.83305 1.405 0
M  V30 7938 H 748.922 6.01866 2.33297 0
M  V30 7939 H 749.69 8.00211 1.72058 0
M  V30 7940 N 752.353 -0.854086 1.3245 0
M  V30 7941 C 753.581 -1.64074 1.26045 0
M  V30 7942 C 753.996 -1.8802 -0.171456 0
M  V30 7943 O 753.353 -1.4496 -1.10873 0
M  V30 7944 C 753.404 -2.9997 2.01743 0
M  V30 7945 O 753.125 -2.77084 3.39346 0
M  V30 7946 C 754.626 -3.94414 2.02368 0
M  V30 7947 H 751.846 -0.511015 0.434862 0
M  V30 7948 H 754.39 -1.06494 1.74583 0
M  V30 7949 H 752.545 -3.54193 1.56926 0
M  V30 7950 H 752.959 -3.63514 3.78098 0
M  V30 7951 H 754.433 -4.87032 2.59815 0
M  V30 7952 H 754.91 -4.27427 1.01009 0
M  V30 7953 H 755.516 -3.46127 2.47135 0
M  V30 7954 N 753.831 -1.1567 -1.07043 0
M  V30 7955 C 754.761 -0.879348 -2.16309 0
M  V30 7956 C 755.742 0.171311 -1.69235 0
M  V30 7957 O 756.927 0.0250175 -1.94184 0
M  V30 7958 C 754.057 -0.371307 -3.45309 0
M  V30 7959 C 753.011 -1.359 -4.05851 0
M  V30 7960 C 752.337 -0.709678 -5.29969 0
M  V30 7961 C 753.637 -2.72606 -4.45514 0
M  V30 7962 H 755.331 -1.79308 -2.39768 0
M  V30 7963 H 752.877 -0.863558 -1.15233 0
M  V30 7964 H 754.83 -0.164798 -4.21078 0
M  V30 7965 H 753.554 0.577906 -3.21446 0
M  V30 7966 H 752.213 -1.55193 -3.32131 0
M  V30 7967 H 751.861 0.245782 -5.02399 0
M  V30 7968 H 751.561 -1.36886 -5.71433 0
M  V30 7969 H 753.085 -0.513015 -6.08441 0
M  V30 7970 H 754.499 -2.57141 -5.12398 0
M  V30 7971 H 752.896 -3.34927 -4.97939 0
M  V30 7972 H 753.966 -3.28434 -3.56734 0
M  V30 7973 N 755.309 1.25446 -0.953992 0
M  V30 7974 C 756.556 1.93143 -0.608429 0
M  V30 7975 C 756.884 1.74727 0.854451 0
M  V30 7976 O 756.139 1.0855 1.62836 0
M  V30 7977 C 756.438 3.45555 -0.912496 0
M  V30 7978 C 756.104 3.84126 -2.36131 0
M  V30 7979 C 754.766 3.94367 -2.75732 0
M  V30 7980 C 757.118 4.0324 -3.30223 0
M  V30 7981 C 754.446 4.21127 -4.08496 0
M  V30 7982 C 756.798 4.31493 -4.62598 0
M  V30 7983 C 755.462 4.3995 -5.01996 0
M  V30 7984 H 754.732 0.706762 -0.22264 0
M  V30 7985 H 757.379 1.49005 -1.20291 0
M  V30 7986 H 755.684 3.91091 -0.235618 0
M  V30 7987 H 757.381 3.9612 -0.623714 0
M  V30 7988 H 753.971 3.76711 -2.04418 0
M  V30 7989 H 758.155 3.94744 -3.00817 0
M  V30 7990 H 753.411 4.2589 -4.38665 0
M  V30 7991 H 757.585 4.45227 -5.35486 0
M  V30 7992 H 755.212 4.60439 -6.04896 0
M  V30 7993 N 756.787 0.722489 1.40064 0
M  V30 7994 C 757.75 0.0830209 2.2905 0
M  V30 7995 C 758.75 -0.680208 1.45705 0
M  V30 7996 O 759.94 -0.511084 1.66534 0
M  V30 7997 C 757.072 -0.892092 3.29021 0
M  V30 7998 H 758.265 0.866848 2.87099 0
M  V30 7999 H 755.818 0.487556 1.48501 0
M  V30 8000 H 756.553 -1.70273 2.76003 0
M  V30 8001 H 756.338 -0.34761 3.90556 0
M  V30 8002 H 757.828 -1.33648 3.95636 0
M  V30 8003 N 758.265 -1.50454 0.469181 0
M  V30 8004 C 759.513 -2.01916 -0.0862982 0
M  V30 8005 C 759.834 -1.35337 -1.40388 0
M  V30 8006 O 759.104 -0.498096 -1.89462 0
M  V30 8007 H 757.684 -0.746185 -0.0348825 0
M  V30 8008 H 760.346 -1.84804 0.619167 0
M  V30 8009 H 759.442 -3.11182 -0.239189 0
M  V30 8010 N 759.743 -0.201713 -1.56304 0
M  V30 8011 C 760.69 0.716499 -2.19397 0
M  V30 8012 C 761.66 1.20494 -1.14326 0
M  V30 8013 O 762.845 1.26763 -1.42604 0
M  V30 8014 C 759.985 1.92762 -2.86246 0
M  V30 8015 C 759.098 1.47993 -4.0586 0
M  V30 8016 C 758.233 2.64706 -4.60547 0
M  V30 8017 C 757.272 2.16576 -5.72504 0
M  V30 8018 N 756.409 3.26491 -6.21569 0
M  V30 8019 H 761.249 0.171724 -2.97505 0
M  V30 8020 H 758.786 0.073016 -1.46919 0
M  V30 8021 H 760.744 2.6384 -3.23178 0
M  V30 8022 H 759.374 2.44559 -2.10691 0
M  V30 8023 H 758.426 0.66477 -3.74546 0
M  V30 8024 H 759.738 1.08686 -4.86815 0
M  V30 8025 H 758.892 3.43898 -4.99819 0
M  V30 8026 H 757.631 3.0729 -3.78713 0
M  V30 8027 H 756.636 1.3584 -5.32755 0
M  V30 8028 H 757.861 1.75015 -6.56161 0
M  V30 8029 H 755.807 3.68594 -5.42655 0
M  V30 8030 H 755.724 2.91374 -6.97594 0
M  V30 8031 H 756.992 4.05877 -6.65495 0
M  V30 8032 N 761.222 1.57436 0.0718424 0
M  V30 8033 C 762.638 1.53792 0.426628 0
M  V30 8034 C 762.838 0.921887 1.79174 0
M  V30 8035 O 761.894 0.524374 2.46995 0
M  V30 8036 C 763.207 2.98443 0.367739 0
M  V30 8037 C 764.755 3.09778 0.447928 0
M  V30 8038 C 765.23 4.5608 0.418946 0
M  V30 8039 N 766.721 4.60716 0.479022 0
M  V30 8040 C 767.456 5.71397 0.47881 0
M  V30 8041 N 766.952 6.91443 0.433417 0
M  V30 8042 N 768.745 5.59639 0.525364 0
M  V30 8043 H 760.896 1.95848 -0.822033 0
M  V30 8044 H 763.159 0.896418 -0.308447 0
M  V30 8045 H 762.865 3.47072 -0.56865 0
M  V30 8046 H 762.739 3.58335 1.17795 0
M  V30 8047 H 765.126 2.61122 1.37474 0
M  V30 8048 H 765.207 2.52796 -0.390857 0
M  V30 8049 H 764.851 5.05393 -0.504016 0
M  V30 8050 H 764.781 5.10925 1.27526 0
M  V30 8051 H 767.272 3.74328 0.518355 0
M  V30 8052 H 767.585 7.71562 0.43718 0
M  V30 8053 H 765.93 6.93847 0.400106 0
M  V30 8054 H 769.121 4.64756 0.558519 0
M  V30 8055 H 769.294 6.45896 0.52173 0
M  V30 8056 N 762.7 -0.34323 1.53817 0
M  V30 8057 C 763.946 -1.08504 1.71332 0
M  V30 8058 C 764.279 -1.88294 0.475285 0
M  V30 8059 O 763.554 -1.87205 -0.527688 0
M  V30 8060 C 763.837 -2.02597 2.97702 0
M  V30 8061 C 763.69 -1.26268 4.31713 0
M  V30 8062 C 765.009 -3.0241 3.19744 0
M  V30 8063 H 762.128 -0.393072 0.623429 0
M  V30 8064 H 764.77 -0.363579 1.86489 0
M  V30 8065 H 762.92 -2.64118 2.8491 0
M  V30 8066 H 764.592 -0.673594 4.56356 0
M  V30 8067 H 762.835 -0.564696 4.30109 0
M  V30 8068 H 763.506 -1.95253 5.16314 0
M  V30 8069 H 765.982 -2.51004 3.31868 0
M  V30 8070 H 764.858 -3.65449 4.09558 0
M  V30 8071 H 765.119 -3.73806 2.36054 0
M  V30 8072 N 764.178 -1.45556 -0.604258 0
M  V30 8073 C 765.126 -1.5482 -1.7359 0
M  V30 8074 C 766.12 -0.417966 -1.64163 0
M  V30 8075 O 767.326 -0.594007 -1.69916 0
M  V30 8076 H 763.701 -0.486352 -0.573556 0
M  V30 8077 H 765.672 -2.5001 -1.62903 0
M  V30 8078 C 764.421 -1.53521 -3.11972 0
M  V30 8079 H 763.744 -2.39818 -3.19886 0
M  V30 8080 H 765.184 -1.64061 -3.90973 0
M  V30 8081 C 763.643 -0.260191 -3.35894 0
M  V30 8082 O 764.173 0.658582 -3.96265 0
M  V30 8083 N 762.379 -0.154839 -2.90187 0
M  V30 8084 H 761.926 -0.903378 -2.4124 0
M  V30 8085 H 761.884 0.697437 -3.06567 0
M  V30 8086 N 765.656 0.84705 -1.32902 0
M  V30 8087 C 766.902 1.60414 -1.24078 0
M  V30 8088 C 767.235 1.93217 0.195105 0
M  V30 8089 O 766.51 1.58001 1.13428 0
M  V30 8090 C 766.793 2.91951 -2.108 0
M  V30 8091 C 766.646 2.6588 -3.62805 0
M  V30 8092 C 767.965 3.93299 -1.97494 0
M  V30 8093 H 765.084 0.58206 -0.452079 0
M  V30 8094 H 767.726 0.977562 -1.62922 0
M  V30 8095 H 765.876 3.45425 -1.77802 0
M  V30 8096 H 767.548 2.18902 -4.06054 0
M  V30 8097 H 765.791 1.99716 -3.85092 0
M  V30 8098 H 766.462 3.59574 -4.1882 0
M  V30 8099 H 768.938 3.49105 -2.26417 0
M  V30 8100 H 767.814 4.8318 -2.60438 0
M  V30 8101 H 768.075 4.31887 -0.944782 0
M  V30 8102 N 767.134 1.16236 1.06428 0
M  V30 8103 C 768.545 0.950942 1.60667 0
M  V30 8104 C 768.896 -0.505491 1.89576 0
M  V30 8105 O 768.021 -1.37843 1.66818 0
M  V30 8106 C 768.616 1.71982 2.91904 0
M  V30 8107 C 767.175 1.55342 3.4285 0
M  V30 8108 C 766.322 1.72942 2.16763 0
M  V30 8109 H 769.273 1.31126 0.893959 0
M  V30 8110 H 769.294 1.19483 3.61253 0
M  V30 8111 H 768.806 2.77978 2.70831 0
M  V30 8112 H 766.907 0.5178 3.68985 0
M  V30 8113 H 767.02 2.33643 4.18267 0
M  V30 8114 H 765.384 1.15673 2.26918 0
M  V30 8115 H 766.167 2.80324 1.98175 0
M  V30 8116 N 768.612 -1.24939 0.960631 0
M  V30 8117 C 769.56 -2.27659 0.47686 0
M  V30 8118 C 770.554 -1.63148 -0.455961 0
M  V30 8119 O 771.76 -1.76911 -0.332029 0
M  V30 8120 H 768.135 -0.739651 0.135723 0
M  V30 8121 H 770.106 -2.65844 1.35534 0
M  V30 8122 C 768.855 -3.46976 -0.224191 0
M  V30 8123 H 768.178 -3.96854 0.484471 0
M  V30 8124 H 769.618 -4.20717 -0.526615 0
M  V30 8125 C 768.077 -3.04159 -1.44876 0
M  V30 8126 O 768.607 -3.10697 -2.54618 0
M  V30 8127 N 766.813 -2.59284 -1.31226 0
M  V30 8128 H 766.36 -2.54164 -0.419361 0
M  V30 8129 H 766.318 -2.31 -2.13275 0
M  V30 8130 N 770.09 -0.729906 -1.39679 0
M  V30 8131 C 771.32 -0.285295 -2.04621 0
M  V30 8132 C 771.728 1.08304 -1.55135 0
M  V30 8133 O 771.071 1.6946 -0.709146 0
M  V30 8134 C 771.133 -0.203129 -3.58926 0
M  V30 8135 C 770.797 -1.50909 -4.31365 0
M  V30 8136 C 771.794 -2.45381 -4.58349 0
M  V30 8137 C 769.479 -1.77198 -4.70007 0
M  V30 8138 C 771.473 -3.64379 -5.22979 0
M  V30 8139 C 769.16 -2.96474 -5.34365 0
M  V30 8140 C 770.158 -3.89886 -5.60783 0
M  V30 8141 O 769.846 -5.07069 -6.23808 0
M  V30 8142 H 769.578 -0.123373 -0.664647 0
M  V30 8143 H 772.132 -0.992901 -1.79807 0
M  V30 8144 H 770.362 0.560538 -3.82616 0
M  V30 8145 H 772.051 0.208811 -4.05363 0
M  V30 8146 H 772.817 -2.2634 -4.28947 0
M  V30 8147 H 768.696 -1.05337 -4.48804 0
M  V30 8148 H 772.24 -4.37307 -5.43515 0
M  V30 8149 H 768.137 -3.15419 -5.63188 0
M  V30 8150 H 768.905 -5.07335 -6.42303 0
M  V30 8151 N 771.568 1.50203 -0.477153 0
M  V30 8152 C 772.814 2.03286 0.0679442 0
M  V30 8153 C 773.169 1.35227 1.36863 0
M  V30 8154 O 772.462 0.471029 1.8572 0
M  V30 8155 C 772.656 3.56127 0.301325 0
M  V30 8156 C 772.485 4.38999 -0.975188 0
M  V30 8157 C 771.255 4.81889 -1.52022 0
M  V30 8158 C 773.453 4.79013 -1.8722 0
M  V30 8159 N 771.435 5.49105 -2.74513 0
M  V30 8160 C 772.806 5.45701 -2.94296 0
M  V30 8161 C 774.861 4.60967 -1.88185 0
M  V30 8162 C 773.564 5.96255 -4.02333 0
M  V30 8163 C 775.59 5.12466 -2.95183 0
M  V30 8164 C 774.952 5.79134 -4.00977 0
M  V30 8165 H 771.051 0.78185 -0.015318 0
M  V30 8166 H 773.635 1.83646 -0.64671 0
M  V30 8167 H 771.806 3.75702 0.985021 0
M  V30 8168 H 773.538 3.95859 0.841304 0
M  V30 8169 H 770.293 4.61387 -1.06858 0
M  V30 8170 H 770.717 5.87315 -3.36734 0
M  V30 8171 H 775.359 4.0885 -1.07708 0
M  V30 8172 H 773.077 6.47406 -4.83623 0
M  V30 8173 H 776.663 5.00329 -2.96921 0
M  V30 8174 H 775.543 6.18265 -4.82409 0
M  V30 8175 N 773.046 0.209999 1.56195 0
M  V30 8176 C 773.994 -0.721416 2.2113 0
M  V30 8177 C 774.988 -1.20852 1.18706 0
M  V30 8178 O 776.194 -1.16968 1.36815 0
M  V30 8179 H 772.569 -0.251033 0.708863 0
M  V30 8180 H 774.54 -0.150193 2.98022 0
M  V30 8181 C 773.289 -1.92392 2.89621 0
M  V30 8182 H 772.612 -1.5582 3.68185 0
M  V30 8183 H 774.052 -2.55367 3.38473 0
M  V30 8184 C 772.511 -2.77208 1.91461 0
M  V30 8185 O 773.041 -3.75603 1.42426 0
M  V30 8186 N 771.247 -2.43006 1.59363 0
M  V30 8187 H 770.794 -1.63047 1.99433 0
M  V30 8188 H 770.752 -3.00036 0.939449 0
M  V30 8189 N 774.524 -1.57472 -0.0634922 0
M  V30 8190 C 775.434 -2.07621 -1.09227 0
M  V30 8191 C 776.45 -1.00746 -1.41867 0
M  V30 8192 O 777.626 -1.32269 -1.51878 0
M  V30 8193 C 774.691 -2.51707 -2.38421 0
M  V30 8194 C 773.752 -3.72917 -2.12676 0
M  V30 8195 C 772.985 -4.14891 -3.3571 0
M  V30 8196 O 773.208 -3.56663 -4.45137 0
M  V30 8197 O 772.142 -5.07616 -3.23434 0
M  V30 8198 H 775.968 -2.95612 -0.696205 0
M  V30 8199 H 773.553 -1.46787 -0.27819 0
M  V30 8200 H 775.435 -2.80547 -3.14438 0
M  V30 8201 H 774.11 -1.66842 -2.77391 0
M  V30 8202 H 773.017 -3.49148 -1.34337 0
M  V30 8203 H 774.35 -4.5866 -1.78583 0
M  V30 8204 N 776.003 0.335068 -1.53997 0
M  V30 8205 C 776.953 1.4127 -1.7896 0
M  V30 8206 C 777.937 1.474 -0.64513 0
M  V30 8207 O 779.129 1.52127 -0.904785 0
M  V30 8208 C 776.258 2.78292 -2.01018 0
M  V30 8209 C 775.344 2.7652 -3.21555 0
M  V30 8210 N 775.735 2.44374 -4.42849 0
M  V30 8211 C 774.033 3.0766 -3.22895 0
M  V30 8212 C 774.734 2.51049 -5.24737 0
M  V30 8213 N 773.71 2.8702 -4.6165 0
M  V30 8214 H 777.512 1.15327 -2.70327 0
M  V30 8215 H 775.026 0.543483 -1.53036 0
M  V30 8216 H 777.023 3.55949 -2.17039 0
M  V30 8217 H 775.683 3.05175 -1.10898 0
M  V30 8218 H 776.694 2.17422 -4.70051 0
M  V30 8219 H 773.371 3.3966 -2.42771 0
M  V30 8220 H 774.761 2.29283 -6.31569 0
M  V30 8221 N 777.481 1.45874 0.596531 0
M  V30 8222 C 778.444 1.54988 1.68853 0
M  V30 8223 C 779.444 0.428302 1.54991 0
M  V30 8224 O 780.634 0.692158 1.59859 0
M  V30 8225 C 777.766 1.457 3.08195 0
M  V30 8226 H 778.959 2.52294 1.62135 0
M  V30 8227 H 776.512 1.33479 0.813206 0
M  V30 8228 H 777.247 0.496204 3.20481 0
M  V30 8229 H 777.032 2.27061 3.19665 0
M  V30 8230 H 778.522 1.55133 3.87716 0
M  V30 8231 N 778.959 -0.83999 1.33349 0
M  V30 8232 C 780.236 -1.57973 1.15342 0
M  V30 8233 C 780.616 -2.09226 -0.280632 0
M  V30 8234 O 779.964 -1.89317 -1.2795 0
M  V30 8235 C 780.174 -2.71446 2.19359 0
M  V30 8236 C 781.522 -3.40654 2.53456 0
M  V30 8237 O 782.546 -2.81686 2.18017 0
M  V30 8238 O 781.405 -4.47101 3.14266 0
M  V30 8239 H 778.499 -0.6964 0.446044 0
M  V30 8240 H 781.045 -0.882843 1.44927 0
M  V30 8241 H 779.817 -2.31205 3.1569 0
M  V30 8242 H 779.44 -3.488 1.90852 0
M  V30 8243 N 780.437 -1.16799 -1.0581 0
M  V30 8244 C 781.665 -0.97687 -1.82387 0
M  V30 8245 C 782.08 0.474917 -1.82729 0
M  V30 8246 O 781.437 1.3297 -1.25001 0
M  V30 8247 C 781.488 -1.50279 -3.28783 0
M  V30 8248 O 781.209 -2.89772 -3.28578 0
M  V30 8249 C 782.71 -1.35538 -4.22071 0
M  V30 8250 H 779.93 -0.345977 -0.574927 0
M  V30 8251 H 782.474 -1.54942 -1.33466 0
M  V30 8252 H 780.629 -0.972414 -3.74997 0
M  V30 8253 H 781.043 -3.13954 -4.20159 0
M  V30 8254 H 782.517 -1.7716 -5.22799 0
M  V30 8255 H 782.994 -0.301598 -4.38163 0
M  V30 8256 H 783.6 -1.87562 -3.81708 0
M  V30 8257 N 781.915 1.24427 -0.967243 0
M  V30 8258 C 782.845 2.2773 -0.515899 0
M  V30 8259 C 783.826 1.64197 0.444227 0
M  V30 8260 O 785.011 1.91193 0.340451 0
M  V30 8261 C 782.141 3.46751 0.195149 0
M  V30 8262 C 781.095 4.22548 -0.680953 0
M  V30 8263 C 780.421 5.34456 0.161561 0
M  V30 8264 C 781.721 4.83914 -1.96532 0
M  V30 8265 H 783.415 2.65735 -1.37933 0
M  V30 8266 H 780.961 1.27742 -0.664681 0
M  V30 8267 H 782.914 4.18153 0.522117 0
M  V30 8268 H 781.638 3.07771 1.09292 0
M  V30 8269 H 780.297 3.52946 -0.991186 0
M  V30 8270 H 779.945 4.91716 1.05947 0
M  V30 8271 H 779.645 5.86087 -0.421418 0
M  V30 8272 H 781.169 6.08685 0.483211 0
M  V30 8273 H 782.583 5.47392 -1.70396 0
M  V30 8274 H 780.98 5.45775 -2.49499 0
M  V30 8275 H 782.05 4.05393 -2.66053 0
M  V30 8276 N 783.393 0.737304 1.3929 0
M  V30 8277 C 784.303 0.100464 2.34385 0
M  V30 8278 C 785.319 -0.719282 1.58437 0
M  V30 8279 O 786.495 -0.647216 1.90717 0
M  V30 8280 C 783.56 -0.794325 3.37478 0
M  V30 8281 C 782.621 0.0379345 4.29283 0
M  V30 8282 C 781.854 -0.814241 5.27452 0
M  V30 8283 O 782.077 -2.05288 5.32177 0
M  V30 8284 O 781.011 -0.241679 6.01415 0
M  V30 8285 H 784.837 0.885407 2.90507 0
M  V30 8286 H 782.422 0.497999 1.40856 0
M  V30 8287 H 784.304 -1.30622 4.00644 0
M  V30 8288 H 782.979 -1.55804 2.83737 0
M  V30 8289 H 781.886 0.595405 3.69331 0
M  V30 8290 H 783.219 0.763926 4.86236 0
M  V30 8291 N 784.871 -1.49948 0.485112 0
M  V30 8292 C 786.117 -2.0332 -0.0571625 0
M  V30 8293 C 786.472 -1.35951 -1.36144 0
M  V30 8294 O 785.765 -0.480871 -1.85467 0
M  V30 8295 C 785.959 -3.56282 -0.282434 0
M  V30 8296 C 785.788 -4.38476 0.998455 0
M  V30 8297 C 784.558 -4.81076 1.54576 0
M  V30 8298 C 786.756 -4.78013 1.89758 0
M  V30 8299 N 784.738 -5.47641 2.77421 0
M  V30 8300 C 786.109 -5.44133 2.97186 0
M  V30 8301 C 788.164 -4.59963 1.90627 0
M  V30 8302 C 786.867 -5.94113 4.0549 0
M  V30 8303 C 788.893 -5.10893 2.97897 0
M  V30 8304 C 788.255 -5.77 4.04043 0
M  V30 8305 H 784.354 -0.781758 0.0194642 0
M  V30 8306 H 786.938 -1.833 0.65644 0
M  V30 8307 H 785.109 -3.76219 -0.965083 0
M  V30 8308 H 786.841 -3.96299 -0.820298 0
M  V30 8309 H 783.596 -4.60814 1.09304 0
M  V30 8310 H 784.02 -5.85521 3.39844 0
M  V30 8311 H 788.662 -4.08274 1.09875 0
M  V30 8312 H 786.38 -6.44832 4.8705 0
M  V30 8313 H 789.966 -4.98748 2.9957 0
M  V30 8314 H 788.846 -6.15698 4.85681 0
M  V30 8315 N 786.349 -0.21828 -1.56081 0
M  V30 8316 C 787.577 0.419258 -2.02608 0
M  V30 8317 C 787.992 1.53578 -1.09814 0
M  V30 8318 O 787.349 1.82185 -0.107149 0
M  V30 8319 C 787.4 0.953955 -3.48686 0
M  V30 8320 O 787.121 -0.11805 -4.37941 0
M  V30 8321 C 788.622 1.66506 -4.10841 0
M  V30 8322 H 785.842 0.10296 -0.663054 0
M  V30 8323 H 788.386 -0.333776 -2.01758 0
M  V30 8324 H 786.541 1.65727 -3.50162 0
M  V30 8325 H 786.955 0.283359 -5.23734 0
M  V30 8326 H 788.429 1.99123 -5.14834 0
M  V30 8327 H 788.906 2.57705 -3.55647 0
M  V30 8328 H 789.512 1.00703 -4.13206 0
M  V30 8329 N 787.827 1.57504 0.0551401 0
M  V30 8330 C 788.757 2.07864 1.06372 0
M  V30 8331 C 789.738 0.975565 1.39344 0
M  V30 8332 O 790.923 1.24929 1.48682 0
M  V30 8333 C 788.053 2.53643 2.3724 0
M  V30 8334 C 787.007 3.67978 2.18578 0
M  V30 8335 C 786.333 3.9987 3.54976 0
M  V30 8336 C 787.633 4.97405 1.59329 0
M  V30 8337 H 789.327 2.92379 0.644595 0
M  V30 8338 H 786.873 1.40654 0.308619 0
M  V30 8339 H 788.826 2.8749 3.08103 0
M  V30 8340 H 787.55 1.66177 2.81163 0
M  V30 8341 H 786.209 3.3444 1.50152 0
M  V30 8342 H 785.857 3.0951 3.965 0
M  V30 8343 H 785.557 4.76867 3.43324 0
M  V30 8344 H 787.081 4.36228 4.27244 0
M  V30 8345 H 788.495 5.29375 2.20078 0
M  V30 8346 H 786.892 5.78837 1.58327 0
M  V30 8347 H 787.962 4.81697 0.55638 0
M  V30 8348 N 789.305 -0.326896 1.54172 0
M  V30 8349 C 790.716 -0.901533 1.63491 0
M  V30 8350 C 791.067 -1.88994 0.52684 0
M  V30 8351 O 790.192 -2.137 -0.340794 0
M  V30 8352 C 790.787 -1.64192 2.96355 0
M  V30 8353 C 789.346 -2.16533 3.07881 0
M  V30 8354 C 788.493 -0.98966 2.59039 0
M  V30 8355 H 791.444 -0.104568 1.58355 0
M  V30 8356 H 791.465 -2.50592 2.86328 0
M  V30 8357 H 790.977 -0.922291 3.76982 0
M  V30 8358 H 789.078 -2.91622 2.31922 0
M  V30 8359 H 789.191 -2.41762 4.13628 0
M  V30 8360 H 787.555 -1.36787 2.14852 0
M  V30 8361 H 788.338 -0.284401 3.4212 0
M  V30 8362 N 790.784 -1.46188 -0.588786 0
M  V30 8363 C 792.009 -1.5498 -1.37826 0
M  V30 8364 C 792.434 -0.189498 -1.87143 0
M  V30 8365 O 791.792 0.829293 -1.61222 0
M  V30 8366 C 791.84 -2.55369 -2.54596 0
M  V30 8367 O 790.944 -2.08452 -3.55839 0
M  V30 8368 H 790.285 -0.521741 -0.41071 0
M  V30 8369 H 792.815 -1.91708 -0.714779 0
M  V30 8370 H 792.825 -2.74782 -3.01594 0
M  V30 8371 H 791.5 -3.54155 -2.18052 0
M  V30 8372 H 790.077 -1.98999 -3.15363 0
M  V30 8373 N 792.262 0.832906 -1.33792 0
M  V30 8374 C 793.673 1.40489 -1.22963 0
M  V30 8375 C 794.024 1.95633 0.149026 0
M  V30 8376 O 793.149 1.8928 1.04891 0
M  V30 8377 C 793.744 2.55387 -2.22627 0
M  V30 8378 C 792.303 3.08522 -2.15618 0
M  V30 8379 C 791.45 1.81347 -2.09782 0
M  V30 8380 H 794.401 0.638156 -1.45304 0
M  V30 8381 H 794.422 3.33193 -1.83746 0
M  V30 8382 H 793.934 2.15222 -3.22957 0
M  V30 8383 H 792.035 3.53217 -1.18611 0
M  V30 8384 H 792.148 3.6829 -3.0643 0
M  V30 8385 H 790.512 2.01839 -1.55349 0
M  V30 8386 H 791.295 1.43369 -3.1193 0
M  V30 8387 N 793.74 1.17359 1.05189 0
M  V30 8388 C 795.151 0.96793 1.5965 0
M  V30 8389 C 795.502 -0.485355 1.90102 0
M  V30 8390 O 794.627 -1.36066 1.6827 0
M  V30 8391 C 795.222 1.75068 2.90063 0
M  V30 8392 C 793.781 1.58969 3.41183 0
M  V30 8393 C 792.928 1.75231 2.14917 0
M  V30 8394 H 795.879 1.32067 0.880001 0
M  V30 8395 H 795.9 1.23308 3.59966 0
M  V30 8396 H 795.412 2.80835 2.67868 0
M  V30 8397 H 793.513 0.556906 3.68415 0
M  V30 8398 H 793.626 2.38067 4.15766 0
M  V30 8399 H 791.99 1.18073 2.25679 0
M  V30 8400 H 792.773 2.8241 1.95191 0
M  V30 8401 N 795.218 -1.23913 0.973828 0
M  V30 8402 C 796.629 -1.73992 0.677021 0
M  V30 8403 C 796.98 -1.78833 -0.807036 0
M  V30 8404 O 796.105 -1.42183 -1.63135 0
M  V30 8405 C 796.7 -3.15985 1.22226 0
M  V30 8406 C 795.259 -3.63547 0.975228 0
M  V30 8407 C 794.406 -2.42001 1.35392 0
M  V30 8408 H 797.357 -1.09529 1.14844 0
M  V30 8409 H 797.378 -3.75875 0.591489 0
M  V30 8410 H 796.89 -3.12429 2.30238 0
M  V30 8411 H 794.991 -3.72493 -0.0891047 0
M  V30 8412 H 795.104 -4.50693 1.62518 0
M  V30 8413 H 793.468 -2.42708 0.772334 0
M  V30 8414 H 794.251 -2.41122 2.44367 0
M  V30 8415 N 796.696 -0.74468 -1.38897 0
M  V30 8416 C 797.606 -0.112892 -2.34328 0
M  V30 8417 C 798.622 0.71087 -1.58816 0
M  V30 8418 O 799.798 0.637092 -1.91058 0
M  V30 8419 C 796.863 0.776417 -3.37894 0
M  V30 8420 C 795.924 -0.0606999 -4.29257 0
M  V30 8421 C 795.157 0.786258 -5.27877 0
M  V30 8422 O 795.38 2.02463 -5.33259 0
M  V30 8423 O 794.314 0.209781 -6.01534 0
M  V30 8424 H 798.14 -0.900801 -2.90033 0
M  V30 8425 H 795.725 -0.505462 -1.4059 0
M  V30 8426 H 797.607 1.28496 -4.01331 0
M  V30 8427 H 796.282 1.54297 -2.84559 0
M  V30 8428 H 795.189 -0.614984 -3.69011 0
M  V30 8429 H 796.522 -0.789702 -4.85824 0
M  V30 8430 N 798.174 1.49689 -0.493057 0
M  V30 8431 C 799.124 2.25901 0.308682 0
M  V30 8432 C 800.108 1.30408 0.94247 0
M  V30 8433 O 801.3 1.55179 0.851384 0
M  V30 8434 C 798.429 3.14463 1.37725 0
M  V30 8435 C 797.515 4.17414 0.7501 0
M  V30 8436 N 797.906 5.05599 -0.142597 0
M  V30 8437 C 796.204 4.34377 1.01159 0
M  V30 8438 C 796.905 5.7954 -0.500782 0
M  V30 8439 N 795.881 5.43446 0.129386 0
M  V30 8440 H 799.683 2.91451 -0.378652 0
M  V30 8441 H 797.197 1.59441 -0.308614 0
M  V30 8442 H 799.194 3.67687 1.965 0
M  V30 8443 H 797.854 2.50464 2.06635 0
M  V30 8444 H 798.865 5.15354 -0.512894 0
M  V30 8445 H 795.542 3.81588 1.69402 0
M  V30 8446 H 796.932 6.60534 -1.23063 0
M  V30 8447 N 799.652 0.226554 1.55963 0
M  V30 8448 C 800.88 -0.408507 2.02827 0
M  V30 8449 C 801.295 -1.52994 1.10627 0
M  V30 8450 O 800.652 -1.82126 0.116809 0
M  V30 8451 C 800.703 -0.93545 3.49187 0
M  V30 8452 O 800.424 0.141273 4.37872 0
M  V30 8453 C 801.925 -1.64325 4.11719 0
M  V30 8454 H 799.145 -0.099442 0.66359 0
M  V30 8455 H 801.689 0.344471 2.01578 0
M  V30 8456 H 799.844 -1.63868 3.51036 0
M  V30 8457 H 800.258 -0.25558 5.23877 0
M  V30 8458 H 801.732 -1.9639 5.15883 0
M  V30 8459 H 802.209 -2.55815 3.57009 0
M  V30 8460 H 802.815 -0.9851 4.13734 0
M  V30 8461 N 801.13 -1.57531 -0.0467866 0
M  V30 8462 C 802.377 -1.88451 -0.74112 0
M  V30 8463 C 802.705 -0.821592 -1.76296 0
M  V30 8464 O 801.96 0.179585 -1.94874 0
M  V30 8465 C 802.259 -3.26091 -1.46285 0
M  V30 8466 C 801.925 -4.47171 -0.578669 0
M  V30 8467 C 800.587 -4.80032 -0.335083 0
M  V30 8468 C 802.939 -5.2119 0.0328809 0
M  V30 8469 C 800.267 -5.84309 0.529121 0
M  V30 8470 C 802.619 -6.26383 0.884684 0
M  V30 8471 C 801.283 -6.57729 1.1379 0
M  V30 8472 H 800.553 -0.68959 -0.271195 0
M  V30 8473 H 803.2 -1.915 -0.00132378 0
M  V30 8474 H 801.505 -3.18948 -2.27551 0
M  V30 8475 H 803.202 -3.47258 -2.00532 0
M  V30 8476 H 799.792 -4.21467 -0.778666 0
M  V30 8477 H 803.976 -4.96096 -0.142375 0
M  V30 8478 H 799.232 -6.06981 0.733794 0
M  V30 8479 H 803.406 -6.82888 1.36516 0
M  V30 8480 H 801.033 -7.38355 1.80929 0
M  V30 8481 N 802.608 0.318715 -1.54344 0
M  V30 8482 C 803.518 1.41535 -1.87097 0
M  V30 8483 C 804.534 1.56361 -0.763353 0
M  V30 8484 O 805.71 1.71365 -1.05811 0
M  V30 8485 C 802.775 2.76178 -2.09587 0
M  V30 8486 C 801.836 2.70486 -3.3337 0
M  V30 8487 C 801.069 3.98708 -3.54778 0
M  V30 8488 O 801.292 4.9721 -2.79532 0
M  V30 8489 O 800.226 4.01674 -4.48266 0
M  V30 8490 H 804.052 1.16764 -2.80357 0
M  V30 8491 H 801.637 0.51318 -1.4031 0
M  V30 8492 H 803.519 3.55873 -2.25682 0
M  V30 8493 H 802.194 3.00829 -1.19514 0
M  V30 8494 H 801.101 1.89325 -3.22656 0
M  V30 8495 H 802.434 2.50789 -4.23516 0
M  V30 8496 N 804.086 1.46499 0.581025 0
M  V30 8497 C 805.314 1.5547 1.36517 0
M  V30 8498 C 805.729 0.196407 1.87776 0
M  V30 8499 O 805.086 -0.806577 1.63709 0
M  V30 8500 C 805.137 2.56084 2.55154 0
M  V30 8501 O 804.858 3.86637 2.06018 0
M  V30 8502 C 806.359 2.75011 3.47683 0
M  V30 8503 H 803.579 0.525703 0.416986 0
M  V30 8504 H 806.123 1.9192 0.706177 0
M  V30 8505 H 804.278 2.22633 3.17039 0
M  V30 8506 H 804.692 4.41413 2.83292 0
M  V30 8507 H 806.166 3.49329 4.27403 0
M  V30 8508 H 806.643 1.81978 3.99726 0
M  V30 8509 H 807.249 3.09565 2.91632 0
M  V30 8510 N 805.565 -0.825799 1.34232 0
M  V30 8511 C 806.495 -1.95151 1.28212 0
M  V30 8512 C 807.476 -1.69345 0.160123 0
M  V30 8513 O 808.661 -1.90983 0.352019 0
M  V30 8514 C 805.791 -3.31554 1.03388 0
M  V30 8515 C 804.745 -3.71793 2.12023 0
M  V30 8516 C 804.071 -5.06147 1.72392 0
M  V30 8517 C 805.371 -3.84193 3.53826 0
M  V30 8518 H 807.065 -2.00445 2.22401 0
M  V30 8519 H 804.611 -0.962996 1.07063 0
M  V30 8520 H 806.564 -4.09889 0.978225 0
M  V30 8521 H 805.288 -3.26551 0.0564142 0
M  V30 8522 H 803.947 -2.95731 2.16654 0
M  V30 8523 H 803.595 -4.97628 0.733137 0
M  V30 8524 H 803.295 -5.34041 2.451 0
M  V30 8525 H 804.819 -5.86943 1.68317 0
M  V30 8526 H 806.233 -4.52806 3.51624 0
M  V30 8527 H 804.63 -4.23538 4.2513 0
M  V30 8528 H 805.7 -2.86272 3.91377 0
M  V30 8529 N 807.043 -1.17915 -1.04565 0
M  V30 8530 C 808.454 -0.976383 -1.59134 0
M  V30 8531 C 808.805 0.475267 -1.90357 0
M  V30 8532 O 807.93 1.35172 -1.6899 0
M  V30 8533 C 808.525 -1.76604 -2.89131 0
M  V30 8534 C 807.084 -1.60777 -3.40335 0
M  V30 8535 C 806.231 -1.76369 -2.13985 0
M  V30 8536 H 809.182 -1.32532 -0.872985 0
M  V30 8537 H 809.203 -1.25215 -3.59307 0
M  V30 8538 H 808.715 -2.82252 -2.66375 0
M  V30 8539 H 806.816 -0.576436 -3.68114 0
M  V30 8540 H 806.929 -2.40268 -4.14497 0
M  V30 8541 H 805.293 -1.19268 -2.25049 0
M  V30 8542 H 806.076 -2.83441 -1.9369 0
M  V30 8543 N 808.521 1.23394 -0.980386 0
M  V30 8544 C 809.468 2.24859 -0.520298 0
M  V30 8545 C 810.438 1.60144 0.440821 0
M  V30 8546 O 811.623 1.87593 0.348369 0
M  V30 8547 C 808.763 3.44675 0.171145 0
M  V30 8548 C 807.876 4.23947 -0.830233 0
M  V30 8549 C 807.011 5.31079 -0.113597 0
M  V30 8550 C 806.05 6.02058 -1.10419 0
M  V30 8551 N 805.187 7.00862 -0.416709 0
M  V30 8552 H 810.027 2.63579 -1.39032 0
M  V30 8553 H 807.564 1.29556 -0.696682 0
M  V30 8554 H 809.522 4.13024 0.588838 0
M  V30 8555 H 808.152 3.06755 1.00504 0
M  V30 8556 H 807.204 3.55016 -1.36631 0
M  V30 8557 H 808.516 4.72945 -1.58508 0
M  V30 8558 H 807.67 6.05622 0.36146 0
M  V30 8559 H 806.409 4.83022 0.673854 0
M  V30 8560 H 805.414 5.26307 -1.59 0
M  V30 8561 H 806.639 6.52203 -1.8923 0
M  V30 8562 H 804.585 6.55057 0.351535 0
M  V30 8563 H 804.502 7.47804 -1.11021 0
M  V30 8564 H 805.77 7.79492 0.0359606 0
M  V30 8565 N 809.999 0.752036 1.385 0
M  V30 8566 C 811.415 0.42946 1.53713 0
M  V30 8567 C 811.615 -1.0576 1.71514 0
M  V30 8568 O 810.671 -1.84366 1.72527 0
M  V30 8569 C 811.984 1.22735 2.74511 0
M  V30 8570 C 813.532 1.21727 2.8836 0
M  V30 8571 C 814.007 1.99809 4.12117 0
M  V30 8572 N 815.498 1.97062 4.19191 0
M  V30 8573 C 816.233 2.54274 5.13938 0
M  V30 8574 N 815.729 3.20193 6.14368 0
M  V30 8575 N 817.522 2.44212 5.06277 0
M  V30 8576 H 809.673 1.71581 1.25195 0
M  V30 8577 H 811.936 0.727293 0.60807 0
M  V30 8578 H 811.642 2.28032 2.67758 0
M  V30 8579 H 811.516 0.843186 3.67655 0
M  V30 8580 H 813.903 0.172367 2.94596 0
M  V30 8581 H 813.984 1.64094 1.96232 0
M  V30 8582 H 813.628 3.0431 4.06642 0
M  V30 8583 H 813.558 1.54837 5.03322 0
M  V30 8584 H 816.049 1.49054 3.47263 0
M  V30 8585 H 816.362 3.61272 6.83156 0
M  V30 8586 H 814.707 3.24287 6.14705 0
M  V30 8587 H 817.898 1.92343 4.26757 0
M  V30 8588 H 818.071 2.89096 5.79937 0
M  V30 8589 N 811.477 -1.49425 0.500989 0
M  V30 8590 C 812.387 -2.32899 -0.282011 0
M  V30 8591 C 813.403 -1.44632 -0.967346 0
M  V30 8592 O 814.579 -1.77654 -0.94873 0
M  V30 8593 C 811.644 -3.20069 -1.33253 0
M  V30 8594 C 810.705 -4.24186 -0.660636 0
M  V30 8595 C 809.938 -5.07191 -1.6611 0
M  V30 8596 O 810.161 -4.91712 -2.89094 0
M  V30 8597 O 809.095 -5.8948 -1.21643 0
M  V30 8598 H 812.921 -3.01038 0.401224 0
M  V30 8599 H 810.506 -1.47079 0.262323 0
M  V30 8600 H 812.388 -3.74071 -1.94033 0
M  V30 8601 H 811.063 -2.54625 -1.9987 0
M  V30 8602 H 809.97 -3.74098 -0.0130959 0
M  V30 8603 H 811.303 -4.92186 -0.0369179 0
M  V30 8604 N 812.955 -0.234822 -1.55841 0
M  V30 8605 C 814.232 0.442961 -1.90518 0
M  V30 8606 C 814.612 1.76768 -1.15397 0
M  V30 8607 O 813.96 2.26928 -0.267534 0
M  V30 8608 C 814.17 0.622905 -3.43396 0
M  V30 8609 C 815.518 0.9243 -4.14417 0
M  V30 8610 O 816.542 0.709211 -3.49068 0
M  V30 8611 O 815.401 1.33323 -5.29988 0
M  V30 8612 H 812.495 0.236042 -0.792599 0
M  V30 8613 H 815.041 -0.277992 -1.67408 0
M  V30 8614 H 813.813 -0.310973 -3.90062 0
M  V30 8615 H 813.436 1.39485 -3.7233 0
M  V30 8616 N 814.433 1.57553 0.0384317 0
M  V30 8617 C 815.679 1.89973 0.726772 0
M  V30 8618 C 816.034 0.832381 1.73462 0
M  V30 8619 O 815.327 -0.159975 1.90931 0
M  V30 8620 C 815.521 3.26862 1.44554 0
M  V30 8621 C 815.35 4.46812 0.508814 0
M  V30 8622 C 814.12 5.05124 0.133323 0
M  V30 8623 C 816.318 5.13876 -0.20881 0
M  V30 8624 N 814.3 6.08591 -0.805636 0
M  V30 8625 C 815.671 6.11821 -1.00376 0
M  V30 8626 C 817.726 4.9713 -0.276749 0
M  V30 8627 C 816.429 6.94825 -1.86038 0
M  V30 8628 C 818.455 5.80689 -1.12047 0
M  V30 8629 C 817.817 6.78197 -1.90337 0
M  V30 8630 H 813.916 0.744153 0.240334 0
M  V30 8631 H 816.5 1.94696 -0.0128735 0
M  V30 8632 H 814.671 3.23085 2.1557 0
M  V30 8633 H 816.403 3.46826 2.08552 0
M  V30 8634 H 813.158 4.71022 0.493484 0
M  V30 8635 H 813.582 6.64994 -1.26935 0
M  V30 8636 H 818.224 4.21631 0.314222 0
M  V30 8637 H 815.942 7.69676 -2.46219 0
M  V30 8638 H 819.528 5.69782 -1.17645 0
M  V30 8639 H 818.408 7.41731 -2.54569 0
M  V30 8640 N 815.911 -0.310526 1.54511 0
M  V30 8641 C 817.188 -1.06593 1.64004 0
M  V30 8642 C 817.568 -2.05519 0.482216 0
M  V30 8643 O 816.916 -2.22455 -0.52212 0
M  V30 8644 C 817.126 -1.75627 3.01589 0
M  V30 8645 C 818.474 -2.28173 3.58081 0
M  V30 8646 O 819.498 -1.85674 3.03979 0
M  V30 8647 O 818.357 -3.06015 4.52788 0
M  V30 8648 H 815.451 -0.492109 0.664649 0
M  V30 8649 H 817.997 -0.309374 1.66856 0
M  V30 8650 H 816.769 -1.03743 3.77297 0
M  V30 8651 H 816.392 -2.58061 3.02473 0
M  V30 8652 N 817.389 -1.46805 -0.573248 0
M  V30 8653 C 818.805 -1.31969 -0.897577 0
M  V30 8654 C 819.005 -0.298171 -1.99282 0
M  V30 8655 O 818.061 0.295953 -2.5076 0
M  V30 8656 C 819.374 -2.70859 -1.30598 0
M  V30 8657 C 820.922 -2.79022 -1.4183 0
M  V30 8658 C 821.397 -4.18516 -1.86033 0
M  V30 8659 N 822.888 -4.2098 -1.9321 0
M  V30 8660 C 823.623 -5.25814 -2.28707 0
M  V30 8661 N 823.119 -6.40968 -2.6293 0
M  V30 8662 N 824.912 -5.13184 -2.29343 0
M  V30 8663 H 817.063 -2.11869 0.150094 0
M  V30 8664 H 819.326 -0.947989 0.00447895 0
M  V30 8665 H 819.032 -3.46965 -0.575161 0
M  V30 8666 H 818.906 -3.01585 -2.26554 0
M  V30 8667 H 821.293 -2.03198 -2.13996 0
M  V30 8668 H 821.374 -2.51969 -0.441024 0
M  V30 8669 H 821.018 -4.94839 -1.14442 0
M  V30 8670 H 820.948 -4.42982 -2.84735 0
M  V30 8671 H 823.439 -3.37898 -1.69214 0
M  V30 8672 H 823.752 -7.16729 -2.88996 0
M  V30 8673 H 822.097 -6.44314 -2.60547 0
M  V30 8674 H 825.288 -4.22255 -2.02036 0
M  V30 8675 H 825.461 -5.94996 -2.56679 0
M  V30 8676 N 818.867 0.818669 -1.34668 0
M  V30 8677 C 819.83 1.9114 -1.26483 0
M  V30 8678 C 820.83 1.598 -0.179044 0
M  V30 8679 O 822.02 1.6876 -0.431952 0
M  V30 8680 C 819.152 3.27285 -0.95381 0
M  V30 8681 H 820.345 1.9982 -2.23634 0
M  V30 8682 H 817.898 1.01314 -1.19018 0
M  V30 8683 H 818.633 3.24297 0.0143428 0
M  V30 8684 H 818.418 3.51416 -1.73924 0
M  V30 8685 H 819.908 4.07299 -0.921827 0
M  V30 8686 N 820.346 1.18468 1.03938 0
M  V30 8687 C 821.296 0.880799 2.103 0
M  V30 8688 C 822.28 -0.150008 1.60199 0
M  V30 8689 O 823.472 0.054213 1.76917 0
M  V30 8690 C 820.601 0.409723 3.40846 0
M  V30 8691 C 819.687 1.47267 3.9771 0
M  V30 8692 N 820.078 2.68945 4.28371 0
M  V30 8693 C 818.376 1.33349 4.25598 0
M  V30 8694 C 819.077 3.37341 4.73894 0
M  V30 8695 N 818.053 2.64725 4.74786 0
M  V30 8696 H 821.855 1.80574 2.31884 0
M  V30 8697 H 819.369 1.07527 1.21703 0
M  V30 8698 H 821.366 0.17352 4.16539 0
M  V30 8699 H 820.026 -0.508862 3.20688 0
M  V30 8700 H 821.037 3.05801 4.17978 0
M  V30 8701 H 817.714 0.477548 4.1476 0
M  V30 8702 H 819.104 4.41338 5.06627 0
M  V30 8703 N 821.824 -1.22873 0.986916 0
M  V30 8704 C 822.787 -2.2281 0.537442 0
M  V30 8705 C 823.787 -1.56331 -0.37646 0
M  V30 8706 O 824.977 -1.73376 -0.169247 0
M  V30 8707 C 822.109 -3.40195 -0.219082 0
M  V30 8708 H 823.302 -2.64089 1.42116 0
M  V30 8709 H 820.855 -1.35819 0.773488 0
M  V30 8710 H 821.59 -3.04381 -1.11905 0
M  V30 8711 H 821.375 -3.89657 0.437026 0
M  V30 8712 H 822.865 -4.14326 -0.521926 0
M  V30 8713 N 823.302 -0.75937 -1.38099 0
M  V30 8714 C 824.252 -0.111098 -2.27729 0
M  V30 8715 C 825.236 0.687161 -1.45489 0
M  V30 8716 O 826.428 0.552167 -1.68167 0
M  V30 8717 C 823.557 0.776809 -3.34396 0
M  V30 8718 C 822.643 -0.0286108 -4.2409 0
M  V30 8719 N 823.034 -1.06797 -4.94397 0
M  V30 8720 C 821.332 0.197307 -4.45563 0
M  V30 8721 C 822.033 -1.55576 -5.6051 0
M  V30 8722 N 821.009 -0.870059 -5.36592 0
M  V30 8723 H 824.811 -0.907047 -2.79553 0
M  V30 8724 H 822.325 -0.595954 -1.5107 0
M  V30 8725 H 824.322 1.25691 -3.97502 0
M  V30 8726 H 822.982 1.57164 -2.84129 0
M  V30 8727 H 823.993 -1.44988 -4.97191 0
M  V30 8728 H 820.67 0.965028 -4.06194 0
M  V30 8729 H 822.06 -2.42184 -6.26735 0
M  V30 8730 O 824.819 1.47821 -0.650476 0
M  V30 8731 H 825.51 1.92907 -0.175142 0
M  V30 END ATOM
M  V30 BEGIN BOND
M  V30 END BOND
M  V30 END CTAB
M  END
$$$$
