drugbank_target|P47871 Glucagon receptor (DB00040)
 OpenBabel12092119333D

  0  0  0     0  0            999 V3000
M  V30 BEGIN CTAB
M  V30 COUNTS 7627 7742 0 0 0
M  V30 BEGIN ATOM
M  V30 1 H -0.908 1.98254 -0.117106 0
M  V30 2 N 0 1.576 0 0
M  V30 3 C 0.933 2.03868 1.02534 0
M  V30 4 C 1.911 0.928543 1.3348 0
M  V30 5 O 3.095 1.19667 1.45644 0
M  V30 6 C 0.222 2.43627 2.35294 0
M  V30 7 C -0.732 3.65373 2.2001 0
M  V30 8 S 0.101 5.13292 1.52614 0
M  V30 9 C 1.257 5.56322 2.86805 0
M  V30 10 H 1.49 2.90518 0.631377 0
M  V30 11 H -0.977 1.52953 0.210867 0
M  V30 12 H 0.981 2.67203 3.11629 0
M  V30 13 H -0.358 1.57376 2.7183 0
M  V30 14 H -1.165 3.90944 3.18086 0
M  V30 15 H -1.563 3.418 1.51819 0
M  V30 16 H 0.729 5.58782 3.83104 0
M  V30 17 H 1.672 6.56266 2.65933 0
M  V30 18 H 2.08 4.83886 2.90714 0
M  V30 19 N 1.4781 -0.272755 1.55222 0
M  V30 20 C 2.8891 -0.84378 1.66545 0
M  V30 21 C 3.2401 -1.87035 0.592641 0
M  V30 22 O 2.3651 -2.14761 -0.265818 0
M  V30 23 C 2.9601 -1.53723 3.01918 0
M  V30 24 C 1.5191 -2.05628 3.15268 0
M  V30 25 C 0.6661 -0.898424 2.62343 0
M  V30 26 H 3.6171 -0.0490998 1.58624 0
M  V30 27 H 3.6381 -2.40421 2.94921 0
M  V30 28 H 3.1501 -0.78983 3.79978 0
M  V30 29 H 1.2511 -2.83329 2.41983 0
M  V30 30 H 1.3641 -2.27142 4.21833 0
M  V30 31 H -0.2719 -1.29186 2.19506 0
M  V30 32 H 0.5111 -0.164528 3.42906 0
M  V30 33 N 2.9562 -1.48159 -0.537278 0
M  V30 34 C 4.3672 -1.49429 -1.11928 0
M  V30 35 C 4.7182 -0.26 -1.9447 0
M  V30 36 O 3.8432 0.633489 -2.0692 0
M  V30 37 C 4.4382 -2.70758 -2.03656 0
M  V30 38 C 2.9972 -2.74923 -2.57088 0
M  V30 39 C 2.1442 -2.42835 -1.3389 0
M  V30 40 H 5.0952 -1.55381 -0.322886 0
M  V30 41 H 5.1162 -2.48861 -2.87834 0
M  V30 42 H 4.6282 -3.60575 -1.43553 0
M  V30 43 H 2.7292 -1.89296 -3.20933 0
M  V30 44 H 2.8422 -3.76157 -2.9672 0
M  V30 45 H 1.2062 -1.93836 -1.65226 0
M  V30 46 H 1.9892 -3.34884 -0.755504 0
M  V30 47 N 4.4343 0.785586 -1.36625 0
M  V30 48 C 5.6743 1.55678 -1.32453 0
M  V30 49 C 6.0383 1.91769 0.0941089 0
M  V30 50 O 7.2393 2.67536 0.26042 0
M  V30 51 C 5.5103 2.79701 -2.22491 0
M  V30 52 S 7.0693 3.69907 -2.36038 0
M  V30 53 H 3.8873 0.533141 -0.470405 0
M  V30 54 H 6.4893 0.924953 -1.72235 0
M  V30 55 H 5.1933 2.51244 -3.24507 0
M  V30 56 H 4.7243 3.47854 -1.83742 0
M  V30 57 H 6.7393 4.71016 -1.56072 0
M  V30 58 N 5.9124 1.20967 1.01018 0
M  V30 59 C 6.8444 0.922059 2.09835 0
M  V30 60 C 7.8574 -0.0927106 1.62536 0
M  V30 61 O 9.0464 0.139127 1.77957 0
M  V30 62 C 6.1464 0.362004 3.36961 0
M  V30 63 C 5.3194 1.42986 4.13369 0
M  V30 64 C 4.3784 0.879976 5.1879 0
M  V30 65 O 3.4044 1.56219 5.47343 0
M  V30 66 N 4.6064 -0.307396 5.79686 0
M  V30 67 H 7.3714 1.8588 2.35093 0
M  V30 68 H 4.9324 1.11422 1.1746 0
M  V30 69 H 6.9244 -0.0201474 4.04695 0
M  V30 70 H 5.4944 -0.479437 3.08902 0
M  V30 71 H 4.7144 1.98608 3.40512 0
M  V30 72 H 6.0024 2.14885 4.61196 0
M  V30 73 H 5.4004 -0.878796 5.58832 0
M  V30 74 H 3.9574 -0.631115 6.48737 0
M  V30 75 N 7.3905 -1.2043 1.01659 0
M  V30 76 C 8.8015 -1.71517 0.737482 0
M  V30 77 C 9.1525 -1.81547 -0.743973 0
M  V30 78 O 8.2775 -1.47803 -1.58061 0
M  V30 79 C 8.8725 -3.11515 1.33206 0
M  V30 80 C 7.4315 -3.59912 1.10183 0
M  V30 81 C 6.5785 -2.37116 1.43776 0
M  V30 82 H 9.5295 -1.05444 1.18606 0
M  V30 83 H 9.5505 -3.73575 0.722636 0
M  V30 84 H 9.0625 -3.04182 2.41028 0
M  V30 85 H 7.1635 -3.72577 0.0412756 0
M  V30 86 H 7.2765 -4.44731 1.78188 0
M  V30 87 H 5.6405 -2.39857 0.856778 0
M  V30 88 H 6.4235 -2.32424 2.52654 0
M  V30 89 N 8.8686 -0.792821 -1.36206 0
M  V30 90 C 9.8006 -0.151469 -2.28699 0
M  V30 91 C 10.8136 0.641262 -1.49638 0
M  V30 92 O 12.0026 0.475885 -1.72039 0
M  V30 93 C 9.1026 0.808424 -3.29117 0
M  V30 94 C 8.2756 0.0650202 -4.37352 0
M  V30 95 C 7.3346 0.941358 -5.17711 0
M  V30 96 O 6.3606 0.397352 -5.67811 0
M  V30 97 N 7.5626 2.2652 -5.3448 0
M  V30 98 H 10.3276 -0.945982 -2.84379 0
M  V30 99 H 7.8886 -0.647032 -1.48409 0
M  V30 100 H 9.8806 1.3986 -3.79765 0
M  V30 101 H 8.4506 1.5038 -2.74052 0
M  V30 102 H 7.6706 -0.706255 -3.87822 0
M  V30 103 H 8.9586 -0.447847 -5.06825 0
M  V30 104 H 8.3566 2.73128 -4.95396 0
M  V30 105 H 6.9136 2.80493 -5.88359 0
M  V30 106 N 10.3467 1.47872 -0.545128 0
M  V30 107 C 11.7627 1.5829 -0.204032 0
M  V30 108 C 11.9627 1.54529 1.29317 0
M  V30 109 O 11.0187 1.44232 2.07252 0
M  V30 110 C 12.3317 2.89304 -0.819987 0
M  V30 111 C 13.8797 3.02864 -0.790105 0
M  V30 112 C 14.3547 4.3656 -1.38491 0
M  V30 113 N 15.8457 4.43165 -1.34755 0
M  V30 114 C 16.5807 5.45153 -1.77753 0
M  V30 115 N 16.0767 6.54016 -2.2855 0
M  V30 116 N 17.8697 5.36125 -1.68897 0
M  V30 117 H 10.0207 1.4856 -1.51802 0
M  V30 118 H 12.2837 0.706305 -0.632327 0
M  V30 119 H 11.9897 2.97757 -1.87173 0
M  V30 120 H 11.8637 3.75957 -0.305915 0
M  V30 121 H 14.2507 2.94014 0.252913 0
M  V30 122 H 14.3317 2.17782 -1.34181 0
M  V30 123 H 13.9757 4.46164 -2.42693 0
M  V30 124 H 13.9057 5.20353 -0.808754 0
M  V30 125 H 16.3967 3.65083 -0.975855 0
M  V30 126 H 16.7097 7.27994 -2.59314 0
M  V30 127 H 15.0547 6.54938 -2.32553 0
M  V30 128 H 18.2457 4.49975 -1.28998 0
M  V30 129 H 18.4187 6.15472 -2.02726 0
M  V30 130 N 11.8248 0.280983 1.55075 0
M  V30 131 C 13.2358 -0.215629 1.85451 0
M  V30 132 C 13.5868 -1.54991 1.203 0
M  V30 133 O 12.7118 -2.10699 0.493435 0
M  V30 134 C 13.3068 -0.398026 3.36454 0
M  V30 135 C 11.8658 -0.838866 3.66933 0
M  V30 136 C 11.0128 0.064458 2.77225 0
M  V30 137 H 13.9638 0.502601 1.50531 0
M  V30 138 H 13.9848 -1.23569 3.59876 0
M  V30 139 H 13.4968 0.573241 3.83843 0
M  V30 140 H 11.5978 -1.8214 3.25048 0
M  V30 141 H 11.7108 -0.672123 4.74362 0
M  V30 142 H 10.0748 -0.452863 2.50642 0
M  V30 143 H 10.8578 1.03172 3.2743 0
M  V30 144 N 13.3029 -1.57598 0.00835791 0
M  V30 145 C 14.2329 -2.1198 -0.979113 0
M  V30 146 C 15.2139 -1.03091 -1.35301 0
M  V30 147 O 16.3989 -1.30818 -1.43528 0
M  V30 148 C 13.5289 -2.62995 -2.26828 0
M  V30 149 C 12.4829 -3.76485 -2.03576 0
M  V30 150 C 11.8089 -4.13846 -3.38579 0
M  V30 151 C 13.1089 -5.0342 -1.39161 0
M  V30 152 H 14.8029 -2.94738 -0.526281 0
M  V30 153 H 12.3489 -1.41783 -0.251704 0
M  V30 154 H 14.3019 -2.99669 -2.96271 0
M  V30 155 H 13.0259 -1.7737 -2.7424 0
M  V30 156 H 11.6849 -3.40217 -1.36557 0
M  V30 157 H 11.3329 -3.25232 -3.83709 0
M  V30 158 H 11.0329 -4.90312 -3.23834 0
M  V30 159 H 12.5569 -4.53086 -4.09323 0
M  V30 160 H 13.9709 -5.37812 -1.98573 0
M  V30 161 H 12.3679 -5.84746 -1.34878 0
M  V30 162 H 13.4379 -4.83548 -0.361868 0
M  V30 163 N 14.781 0.264519 -1.55364 0
M  V30 164 C 15.711 1.33121 -1.91836 0
M  V30 165 C 16.692 1.51101 -0.781192 0
M  V30 166 O 17.877 1.64003 -1.04003 0
M  V30 167 C 15.007 2.68921 -2.19769 0
M  V30 168 C 13.961 2.65661 -3.35571 0
M  V30 169 C 13.287 4.05093 -3.49004 0
M  V30 170 C 14.587 2.24187 -4.71739 0
M  V30 171 H 16.281 1.02844 -2.81182 0
M  V30 172 H 13.827 0.493286 -1.35287 0
M  V30 173 H 15.78 3.43663 -2.43872 0
M  V30 174 H 14.504 3.00799 -1.27231 0
M  V30 175 H 13.163 1.93377 -3.1145 0
M  V30 176 H 12.811 4.34206 -2.53917 0
M  V30 177 H 12.511 4.03804 -4.26868 0
M  V30 178 H 14.035 4.81561 -3.75408 0
M  V30 179 H 15.449 2.88654 -4.9533 0
M  V30 180 H 13.846 2.34044 -5.52579 0
M  V30 181 H 14.916 1.19327 -4.69988 0
M  V30 182 N 16.2591 1.48442 0.529413 0
M  V30 183 C 17.1891 1.65902 1.64313 0
M  V30 184 C 18.1701 0.507897 1.6234 0
M  V30 185 O 19.3551 0.740503 1.79528 0
M  V30 186 C 16.4851 1.69911 3.02898 0
M  V30 187 C 15.4391 2.8453 3.19729 0
M  V30 188 C 14.7651 2.73629 4.59381 0
M  V30 189 C 16.0651 4.25821 3.02447 0
M  V30 190 H 17.7591 2.5914 1.49955 0
M  V30 191 H 15.3051 1.24709 0.719982 0
M  V30 192 H 17.2581 1.80715 3.80684 0
M  V30 193 H 15.9821 0.732524 3.18279 0
M  V30 194 H 14.6411 2.73283 2.44361 0
M  V30 195 H 14.2891 1.74938 4.71599 0
M  V30 196 H 13.9891 3.50541 4.71588 0
M  V30 197 H 15.5131 2.86401 5.39265 0
M  V30 198 H 16.9271 4.37898 3.70024 0
M  V30 199 H 15.3241 5.03735 3.26146 0
M  V30 200 H 16.3941 4.42244 1.98867 0
M  V30 201 N 17.7372 -0.778329 1.37039 0
M  V30 202 C 18.6672 -1.90546 1.34962 0
M  V30 203 C 19.6482 -1.68681 0.219274 0
M  V30 204 O 20.8332 -1.89634 0.418624 0
M  V30 205 C 17.9632 -3.27734 1.14925 0
M  V30 206 C 16.9172 -3.64147 2.24902 0
M  V30 207 C 16.2432 -4.99806 1.89996 0
M  V30 208 C 17.5432 -3.71579 3.67051 0
M  V30 209 H 19.2372 -1.92541 2.29277 0
M  V30 210 H 16.7832 -0.924948 1.10366 0
M  V30 211 H 18.7362 -4.06215 1.12104 0
M  V30 212 H 17.4602 -3.26154 0.170631 0
M  V30 213 H 16.1192 -2.8797 2.26868 0
M  V30 214 H 15.7672 -4.94759 0.906796 0
M  V30 215 H 15.4672 -5.25139 2.63634 0
M  V30 216 H 16.9912 -5.80694 1.88749 0
M  V30 217 H 18.4052 -4.40227 3.67251 0
M  V30 218 H 16.8022 -4.08405 4.39688 0
M  V30 219 H 17.8722 -2.72404 4.01154 0
M  V30 220 N 19.2153 -1.21501 -1.00376 0
M  V30 221 C 20.1453 -0.999478 -2.11028 0
M  V30 222 C 21.1263 0.0759671 -1.6993 0
M  V30 223 O 22.3113 -0.0841106 -1.94018 0
M  V30 224 C 19.4413 -0.564709 -3.42678 0
M  V30 225 C 18.3953 -1.58486 -3.97576 0
M  V30 226 C 17.7213 -1.00628 -5.25146 0
M  V30 227 C 19.0213 -2.97204 -4.29496 0
M  V30 228 H 20.7153 -1.92495 -2.29317 0
M  V30 229 H 18.2613 -0.92693 -1.102 0
M  V30 230 H 20.2143 -0.401091 -4.19487 0
M  V30 231 H 18.9383 0.396411 -3.24185 0
M  V30 232 H 17.5973 -1.73606 -3.22888 0
M  V30 233 H 17.2453 -0.0368439 -5.02987 0
M  V30 234 H 16.9453 -1.68771 -5.62841 0
M  V30 235 H 18.4693 -0.854015 -6.04598 0
M  V30 236 H 19.8833 -2.8552 -4.97143 0
M  V30 237 H 18.2803 -3.62372 -4.78338 0
M  V30 238 H 19.3503 -3.47956 -3.3772 0
M  V30 239 N 20.6934 1.19889 -1.02296 0
M  V30 240 C 21.6234 2.25141 -0.619174 0
M  V30 241 C 22.6044 1.66051 0.368915 0
M  V30 242 O 23.7894 1.92546 0.252941 0
M  V30 243 C 20.9194 3.4728 0.0368783 0
M  V30 244 C 19.8734 4.19005 -0.872865 0
M  V30 245 C 19.1994 5.34637 -0.0822402 0
M  V30 246 C 20.4994 4.74452 -2.18387 0
M  V30 247 H 22.1934 2.59171 -1.49903 0
M  V30 248 H 19.7394 1.24579 -0.722222 0
M  V30 249 H 21.6924 4.20098 0.330958 0
M  V30 250 H 20.4164 3.12433 0.95149 0
M  V30 251 H 19.0754 3.48061 -1.15105 0
M  V30 252 H 18.7234 4.96034 0.83422 0
M  V30 253 H 18.4234 5.83557 -0.688149 0
M  V30 254 H 19.9474 6.10255 0.205238 0
M  V30 255 H 21.3614 5.39055 -1.95172 0
M  V30 256 H 19.7584 5.33834 -2.74119 0
M  V30 257 H 20.8284 3.92844 -2.84257 0
M  V30 258 N 22.1715 0.800033 1.35784 0
M  V30 259 C 23.1015 0.220184 2.3246 0
M  V30 260 C 24.0825 -0.65073 1.57161 0
M  V30 261 O 25.2675 -0.582359 1.85263 0
M  V30 262 C 22.3975 -0.637353 3.41402 0
M  V30 263 C 21.3515 0.134531 4.27789 0
M  V30 264 C 20.6775 -0.844285 5.27992 0
M  V30 265 C 21.9775 1.32979 5.05088 0
M  V30 266 H 23.6715 1.02787 2.81203 0
M  V30 267 H 21.2175 0.495717 1.35199 0
M  V30 268 H 23.1705 -1.05302 4.08031 0
M  V30 269 H 21.8945 -1.47785 2.91251 0
M  V30 270 H 20.5535 0.531296 3.6273 0
M  V30 271 H 20.2015 -1.68011 4.74111 0
M  V30 272 H 19.9015 -0.332184 5.8666 0
M  V30 273 H 21.4255 -1.2583 5.97494 0
M  V30 274 H 22.8395 0.98934 5.64699 0
M  V30 275 H 21.2365 1.77593 5.7322 0
M  V30 276 H 22.3065 2.11978 4.36111 0
M  V30 277 N 23.6496 -1.47581 0.552962 0
M  V30 278 C 24.5796 -2.32762 -0.185451 0
M  V30 279 C 25.5606 -1.43527 -0.912905 0
M  V30 280 O 26.7456 -1.72388 -0.894201 0
M  V30 281 C 23.8756 -3.25219 -1.21859 0
M  V30 282 C 22.8296 -4.23661 -0.607864 0
M  V30 283 C 22.1556 -5.05413 -1.74533 0
M  V30 284 C 23.4556 -5.20481 0.435582 0
M  V30 285 H 25.1496 -2.94749 0.525684 0
M  V30 286 H 22.6956 -1.41738 0.254251 0
M  V30 287 H 24.6486 -3.8365 -1.7433 0
M  V30 288 H 23.3726 -2.61279 -1.95961 0
M  V30 289 H 22.0316 -3.66451 -0.104489 0
M  V30 290 H 21.6796 -4.3788 -2.47529 0
M  V30 291 H 21.3796 -5.72059 -1.34249 0
M  V30 292 H 22.9036 -5.66701 -2.27338 0
M  V30 293 H 24.3176 -5.733 -0.00290157 0
M  V30 294 H 22.7146 -5.95305 0.757067 0
M  V30 295 H 23.7846 -4.66217 1.33303 0
M  V30 296 N 25.1277 -0.289203 -1.54924 0
M  V30 297 C 26.0907 0.579144 -2.21762 0
M  V30 298 C 27.0907 1.07047 -1.1999 0
M  V30 299 O 28.2807 0.968384 -1.44803 0
M  V30 300 C 25.4127 1.80055 -2.8947 0
M  V30 301 H 26.6057 -0.00464908 -2.999 0
M  V30 302 H 24.1587 -0.0399306 -1.56249 0
M  V30 303 H 24.8937 2.42449 -2.15381 0
M  V30 304 H 24.6787 1.45602 -3.64064 0
M  V30 305 H 26.1687 2.41773 -3.40493 0
M  V30 306 N 26.6058 1.57591 -0.0167156 0
M  V30 307 C 27.8458 1.93145 0.668902 0
M  V30 308 C 28.2098 0.892406 1.7 0
M  V30 309 O 29.4108 1.13373 2.43721 0
M  V30 310 C 27.6818 3.33678 1.28039 0
M  V30 311 S 29.2408 3.91142 1.9888 0
M  V30 312 H 26.0588 0.67593 0.220545 0
M  V30 313 H 28.6608 1.95347 -0.0774105 0
M  V30 314 H 27.3648 4.07126 0.517339 0
M  V30 315 H 26.8958 3.3489 2.06427 0
M  V30 316 H 28.9108 3.73571 3.26587 0
M  V30 317 N 28.0839 -0.256276 1.55502 0
M  V30 318 C 29.0159 -1.33981 1.85962 0
M  V30 319 C 30.0289 -1.44743 0.745212 0
M  V30 320 O 31.2179 -1.4626 1.02324 0
M  V30 321 C 28.3179 -2.7194 2.02242 0
M  V30 322 C 27.4909 -2.83562 3.33033 0
M  V30 323 C 26.5499 -4.02304 3.39172 0
M  V30 324 O 25.5759 -3.92273 4.12444 0
M  V30 325 N 26.7779 -5.15045 2.67784 0
M  V30 326 H 29.5429 -1.08191 2.7949 0
M  V30 327 H 27.1039 -0.446388 1.55624 0
M  V30 328 H 29.0959 -3.49697 2.03701 0
M  V30 329 H 27.6659 -2.90479 1.15502 0
M  V30 330 H 26.8859 -1.92555 3.43971 0
M  V30 331 H 28.1739 -2.88271 4.19258 0
M  V30 332 H 27.5719 -5.26085 2.07968 0
M  V30 333 H 26.1289 -5.90972 2.74947 0
M  V30 334 N 29.562 -1.4872 -0.521534 0
M  V30 335 C 30.973 -1.50607 -1.10337 0
M  V30 336 C 31.324 -0.280612 -1.94183 0
M  V30 337 O 30.449 0.611507 -2.0758 0
M  V30 338 C 31.044 -2.72903 -2.00772 0
M  V30 339 C 29.603 -2.77634 -2.54158 0
M  V30 340 C 28.75 -2.44241 -1.31307 0
M  V30 341 H 31.701 -1.55714 -0.306388 0
M  V30 342 H 31.722 -2.519 -2.85178 0
M  V30 343 H 31.234 -3.62077 -1.39721 0
M  V30 344 H 29.335 -1.92689 -3.18907 0
M  V30 345 H 29.448 -3.79283 -2.92714 0
M  V30 346 H 27.812 -1.95577 -1.63161 0
M  V30 347 H 28.595 -3.35666 -0.719943 0
M  V30 348 N 31.0401 0.771051 -1.3745 0
M  V30 349 C 31.9721 1.89352 -1.29146 0
M  V30 350 C 32.9851 1.61477 -0.207124 0
M  V30 351 O 34.1741 1.72382 -0.463324 0
M  V30 352 C 31.2741 3.24596 -0.974195 0
M  V30 353 C 30.4471 3.80111 -2.16413 0
M  V30 354 C 29.5061 4.93832 -1.81703 0
M  V30 355 O 28.5321 5.09382 -2.54006 0
M  V30 356 N 29.7341 5.75483 -0.761573 0
M  V30 357 H 32.4991 1.96991 -2.25864 0
M  V30 358 H 30.0601 0.950191 -1.31084 0
M  V30 359 H 32.0521 3.98193 -0.722828 0
M  V30 360 H 30.6221 3.12454 -0.0955527 0
M  V30 361 H 29.8421 2.98284 -2.57721 0
M  V30 362 H 31.1301 4.13932 -2.95867 0
M  V30 363 H 30.5281 5.65469 -0.161609 0
M  V30 364 H 29.0851 6.49302 -0.570064 0
M  V30 365 N 32.5182 1.22032 0.997298 0
M  V30 366 C 33.7642 1.04376 1.73878 0
M  V30 367 C 34.0972 -0.420716 1.89588 0
M  V30 368 O 33.3722 -1.31202 1.43583 0
M  V30 369 C 33.6552 1.75047 3.14691 0
M  V30 370 C 33.5082 3.29062 3.06656 0
M  V30 371 C 34.8272 1.49928 4.13775 0
M  V30 372 H 31.9462 0.380578 0.631133 0
M  V30 373 H 34.5882 1.50312 1.16217 0
M  V30 374 H 32.7382 1.35996 3.63919 0
M  V30 375 H 34.4102 3.7753 2.65083 0
M  V30 376 H 32.6532 3.58967 2.43568 0
M  V30 377 H 33.3242 3.73683 4.06282 0
M  V30 378 H 35.8002 1.83842 3.73285 0
M  V30 379 H 34.6762 2.01878 5.10428 0
M  V30 380 H 34.9372 0.430929 4.39995 0
M  V30 381 N 33.9963 -1.19345 1.0293 0
M  V30 382 C 35.4073 -1.70725 0.755633 0
M  V30 383 C 35.7583 -1.82326 -0.724676 0
M  V30 384 O 34.8833 -1.49471 -1.56484 0
M  V30 385 C 35.4783 -3.10084 1.36503 0
M  V30 386 C 34.0373 -3.58723 1.13994 0
M  V30 387 C 33.1843 -2.35577 1.46283 0
M  V30 388 H 36.1353 -1.0418 1.19718 0
M  V30 389 H 36.1563 -3.72787 0.762217 0
M  V30 390 H 35.6683 -3.01609 2.44241 0
M  V30 391 H 33.7693 -3.72512 0.0807901 0
M  V30 392 H 33.8823 -4.42816 1.82894 0
M  V30 393 H 32.2463 -2.38935 0.88217 0
M  V30 394 H 33.0293 -2.29731 2.55105 0
M  V30 395 N 35.4744 -0.807222 -1.35358 0
M  V30 396 C 36.6994 -0.399309 -2.0352 0
M  V30 397 C 37.1244 0.981986 -1.60433 0
M  V30 398 O 36.4824 1.63601 -0.781299 0
M  V30 399 C 36.5304 -0.491552 -3.57234 0
M  V30 400 O 35.6344 0.494754 -4.09421 0
M  V30 401 H 34.9754 -0.166682 -0.642739 0
M  V30 402 H 37.5054 -1.09328 -1.72941 0
M  V30 403 H 37.5154 -0.361588 -4.06395 0
M  V30 404 H 36.1904 -1.49907 -3.87944 0
M  V30 405 H 34.7674 0.324977 -3.71481 0
M  V30 406 N 36.9525 1.47285 -0.560781 0
M  V30 407 C 37.9155 2.28535 0.174488 0
M  V30 408 C 38.9155 1.37153 0.839388 0
M  V30 409 O 40.1055 1.59748 0.694702 0
M  V30 410 C 37.2375 3.16934 1.25561 0
M  V30 411 H 38.4305 2.95012 -0.539262 0
M  V30 412 H 35.9835 1.53034 -0.317865 0
M  V30 413 H 36.7185 2.55157 2.00164 0
M  V30 414 H 36.5035 3.8419 0.783604 0
M  V30 415 H 37.9935 3.78143 1.77193 0
M  V30 416 N 38.4306 0.297415 1.54768 0
M  V30 417 C 39.3626 -0.613881 2.20826 0
M  V30 418 C 40.3756 -1.10032 1.19987 0
M  V30 419 O 41.5646 -1.01839 1.46598 0
M  V30 420 C 38.6646 -1.852 2.83821 0
M  V30 421 C 37.8376 -1.50865 4.10559 0
M  V30 422 C 36.8966 -2.60154 4.57391 0
M  V30 423 O 35.9226 -2.25398 5.2267 0
M  V30 424 N 37.1246 -3.90629 4.29406 0
M  V30 425 H 39.8896 -0.048389 2.99661 0
M  V30 426 H 37.4506 0.11946 1.61459 0
M  V30 427 H 39.4426 -2.57652 3.12086 0
M  V30 428 H 38.0126 -2.32597 2.08847 0
M  V30 429 H 37.2326 -0.616925 3.89343 0
M  V30 430 H 38.5206 -1.25458 4.9309 0
M  V30 431 H 37.9186 -4.21677 3.77101 0
M  V30 432 H 36.4756 -4.59391 4.62388 0
M  V30 433 N 39.9087 -1.5758 0.0250728 0
M  V30 434 C 41.1547 -1.91917 -0.655413 0
M  V30 435 C 41.4877 -0.901433 -1.72011 0
M  V30 436 O 40.7627 0.0764069 -1.9435 0
M  V30 437 C 41.0457 -3.36751 -1.27558 0
M  V30 438 C 40.8987 -4.49258 -0.220719 0
M  V30 439 C 42.2177 -3.81469 -2.19475 0
M  V30 440 H 39.3367 -0.697925 -0.23679 0
M  V30 441 H 41.9787 -1.89825 0.0815036 0
M  V30 442 H 40.1287 -3.38664 -1.90365 0
M  V30 443 H 41.8007 -4.59478 0.409601 0
M  V30 444 H 40.0437 -4.31415 0.454264 0
M  V30 445 H 40.7147 -5.47618 -0.694175 0
M  V30 446 H 43.1907 -3.81266 -1.66659 0
M  V30 447 H 42.0667 -4.83512 -2.59822 0
M  V30 448 H 42.3277 -3.16744 -3.08424 0
M  V30 449 N 41.3868 0.248026 -1.55636 0
M  V30 450 C 42.3198 1.3334 -1.85191 0
M  V30 451 C 43.2978 1.46429 -0.706906 0
M  V30 452 O 44.4818 1.62662 -0.952544 0
M  V30 453 C 41.6088 2.70703 -2.03562 0
M  V30 454 C 40.6548 2.7477 -3.26196 0
M  V30 455 S 41.4878 2.31493 -4.82878 0
M  V30 456 C 42.6438 3.70783 -5.04253 0
M  V30 457 H 42.8768 1.08072 -2.76962 0
M  V30 458 H 40.4098 0.448952 -1.47729 0
M  V30 459 H 42.3678 3.49798 -2.1483 0
M  V30 460 H 41.0288 2.9321 -1.12635 0
M  V30 461 H 40.2218 3.75648 -3.36013 0
M  V30 462 H 39.8238 2.03719 -3.13647 0
M  V30 463 H 42.1158 4.6627 -4.91527 0
M  V30 464 H 43.0588 3.65901 -6.06236 0
M  V30 465 H 43.4668 3.63244 -4.32105 0
M  V30 466 N 42.8649 1.48995 0.513639 0
M  V30 467 C 44.1419 1.48338 1.27495 0
M  V30 468 C 44.5219 0.204065 2.10111 0
M  V30 469 O 43.8699 -0.813881 2.13514 0
M  V30 470 C 44.0799 2.75498 2.14247 0
M  V30 471 C 45.4279 3.24484 2.73852 0
M  V30 472 O 46.4519 2.76528 2.24523 0
M  V30 473 O 45.3109 4.07974 3.6362 0
M  V30 474 H 42.4049 0.593149 0.576284 0
M  V30 475 H 44.9509 1.61246 0.528948 0
M  V30 476 H 43.7229 3.60109 1.53092 0
M  V30 477 H 43.3459 2.6539 2.96064 0
M  V30 478 N 44.343 -0.763751 1.37857 0
M  V30 479 C 45.59 -1.52257 1.33506 0
M  V30 480 C 45.918 -1.94343 -0.078022 0
M  V30 481 O 45.173 -1.64958 -1.05297 0
M  V30 482 C 45.472 -2.79499 2.22745 0
M  V30 483 C 45.138 -2.56426 3.70886 0
M  V30 484 C 43.8 -2.49842 4.11257 0
M  V30 485 C 46.152 -2.36008 4.64704 0
M  V30 486 C 43.48 -2.20841 5.43549 0
M  V30 487 C 45.832 -2.0853 5.97242 0
M  V30 488 C 44.496 -2.00396 6.36709 0
M  V30 489 H 43.766 -0.557149 0.488534 0
M  V30 490 H 46.413 -0.879073 1.70131 0
M  V30 491 H 44.718 -3.48447 1.79142 0
M  V30 492 H 46.415 -3.37413 2.16688 0
M  V30 493 H 43.005 -2.62416 3.38874 0
M  V30 494 H 47.189 -2.40079 4.34368 0
M  V30 495 H 42.445 -2.13045 5.73081 0
M  V30 496 H 46.619 -1.91732 6.69486 0
M  V30 497 H 44.246 -1.77688 7.39142 0
M  V30 498 N 45.8211 -1.22559 -0.990812 0
M  V30 499 C 46.7511 -1.0218 -2.09956 0
M  V30 500 C 47.7321 0.0579394 -1.70001 0
M  V30 501 O 48.9171 -0.104684 -1.93918 0
M  V30 502 C 46.0471 -0.601023 -3.4206 0
M  V30 503 C 45.0011 -1.62694 -3.95872 0
M  V30 504 C 44.3271 -1.06193 -5.24049 0
M  V30 505 C 45.6271 -3.01743 -4.2632 0
M  V30 506 H 47.3211 -1.94916 -2.27262 0
M  V30 507 H 44.8671 -0.938566 -1.09211 0
M  V30 508 H 46.8201 -0.445561 -4.19038 0
M  V30 509 H 45.5441 0.362005 -3.24588 0
M  V30 510 H 44.2031 -1.77021 -3.21028 0
M  V30 511 H 43.8511 -0.0901903 -5.02919 0
M  V30 512 H 43.5511 -1.74732 -5.61019 0
M  V30 513 H 45.0751 -0.918092 -6.03658 0
M  V30 514 H 46.4891 -2.90777 -4.94087 0
M  V30 515 H 44.8861 -3.67425 -4.74467 0
M  V30 516 H 45.9561 -3.51518 -3.34011 0
M  V30 517 N 47.2992 1.18797 -1.03562 0
M  V30 518 C 48.5462 1.8865 -0.736023 0
M  V30 519 C 48.8742 1.80041 0.735889 0
M  V30 520 O 48.1292 1.19179 1.55225 0
M  V30 521 C 48.4282 3.38692 -1.14117 0
M  V30 522 C 48.0942 3.67504 -2.6125 0
M  V30 523 C 46.7562 3.75078 -3.01447 0
M  V30 524 C 49.1082 3.80293 -3.56408 0
M  V30 525 C 46.4362 3.92915 -4.35701 0
M  V30 526 C 48.7882 3.99645 -4.90374 0
M  V30 527 C 47.4522 4.05453 -5.30249 0
M  V30 528 H 46.7222 0.690321 -0.26933 0
M  V30 529 H 49.3692 1.40641 -1.29971 0
M  V30 530 H 47.6742 3.88645 -0.496202 0
M  V30 531 H 49.3712 3.91072 -0.886789 0
M  V30 532 H 45.9612 3.62223 -2.29113 0
M  V30 533 H 50.1452 3.73779 -3.26501 0
M  V30 534 H 45.4012 3.95653 -4.66121 0
M  V30 535 H 49.5752 4.08482 -5.64017 0
M  V30 536 H 47.2022 4.19027 -6.34288 0
M  V30 537 N 48.7773 0.814389 1.34928 0
M  V30 538 C 49.6873 0.231978 2.3345 0
M  V30 539 C 50.7033 -0.629139 1.62228 0
M  V30 540 O 51.8793 -0.539052 1.94052 0
M  V30 541 C 48.9443 -0.603482 3.41407 0
M  V30 542 C 48.0053 0.279037 4.28392 0
M  V30 543 C 47.2383 -0.516643 5.31193 0
M  V30 544 O 47.4613 -1.75068 5.4287 0
M  V30 545 O 46.3953 0.0965652 6.01823 0
M  V30 546 H 50.2213 1.04721 2.85074 0
M  V30 547 H 47.8063 0.576343 1.37836 0
M  V30 548 H 49.6883 -1.07908 4.0735 0
M  V30 549 H 48.3633 -1.39618 2.92042 0
M  V30 550 H 47.2703 0.801948 3.65403 0
M  V30 551 H 48.6033 1.03588 4.81176 0
M  V30 552 N 50.2554 -1.46986 0.568584 0
M  V30 553 C 51.2024 -2.30153 -0.172707 0
M  V30 554 C 52.1724 -1.39759 -0.897586 0
M  V30 555 O 53.3574 -1.68716 -0.891044 0
M  V30 556 C 50.4974 -3.23952 -1.1895 0
M  V30 557 C 49.6104 -4.29441 -0.469517 0
M  V30 558 C 48.7454 -5.1038 -1.47259 0
M  V30 559 C 47.7844 -6.07632 -0.738225 0
M  V30 560 N 46.9214 -6.8149 -1.68868 0
M  V30 561 H 51.7614 -2.93019 0.542596 0
M  V30 562 H 49.2984 -1.44422 0.279401 0
M  V30 563 H 51.2564 -3.76767 -1.79173 0
M  V30 564 H 49.8864 -2.62926 -1.87269 0
M  V30 565 H 48.9384 -3.79594 0.247467 0
M  V30 566 H 50.2504 -4.98689 0.105241 0
M  V30 567 H 49.4044 -5.67402 -2.14803 0
M  V30 568 H 48.1434 -4.4106 -2.08128 0
M  V30 569 H 47.1484 -5.49778 -0.0489293 0
M  V30 570 H 48.3734 -6.78966 -0.135129 0
M  V30 571 H 46.3194 -6.14891 -2.28573 0
M  V30 572 H 46.2364 -7.46948 -1.16636 0
M  V30 573 H 47.5044 -7.43078 -2.3549 0
M  V30 574 N 51.7335 -0.305618 -1.54608 0
M  V30 575 C 52.9795 0.295595 -2.01241 0
M  V30 576 C 53.3345 1.51171 -1.19018 0
M  V30 577 O 52.6275 1.89832 -0.259684 0
M  V30 578 C 52.8215 0.698983 -3.50498 0
M  V30 579 C 52.6505 -0.476491 -4.47168 0
M  V30 580 C 51.4205 -0.969963 -4.95903 0
M  V30 581 C 53.6185 -1.32294 -4.96994 0
M  V30 582 N 51.6005 -2.11172 -5.76437 0
M  V30 583 C 52.9715 -2.31212 -5.75275 0
M  V30 584 C 55.0265 -1.35278 -4.7917 0
M  V30 585 C 53.7295 -3.32896 -6.37631 0
M  V30 586 C 55.7555 -2.35823 -5.42348 0
M  V30 587 C 55.1175 -3.33469 -6.20466 0
M  V30 588 H 51.2165 0.0724992 -0.778632 0
M  V30 589 H 53.8005 -0.436583 -1.89742 0
M  V30 590 H 51.9715 1.40032 -3.62278 0
M  V30 591 H 53.7035 1.28013 -3.8392 0
M  V30 592 H 50.4585 -0.544178 -4.70463 0
M  V30 593 H 50.8825 -2.68714 -6.21387 0
M  V30 594 H 55.5245 -0.61157 -4.18354 0
M  V30 595 H 53.2425 -4.07933 -6.97579 0
M  V30 596 H 56.8285 -2.38911 -5.30484 0
M  V30 597 H 55.7085 -4.09996 -6.68485 0
M  V30 598 N 53.2116 1.57565 -0.0334293 0
M  V30 599 C 54.1586 2.10478 0.946981 0
M  V30 600 C 55.1286 1.00787 1.32027 0
M  V30 601 O 56.3136 1.28232 1.41284 0
M  V30 602 C 53.4536 2.63994 2.22263 0
M  V30 603 C 52.5666 3.87709 1.90541 0
M  V30 604 C 51.7016 4.29604 3.12433 0
M  V30 605 C 50.7406 5.46065 2.76549 0
M  V30 606 N 49.8776 5.83096 3.9108 0
M  V30 607 H 54.7176 2.93963 0.488846 0
M  V30 608 H 52.2546 1.45296 0.22969 0
M  V30 609 H 54.2126 2.93114 2.96884 0
M  V30 610 H 52.8426 1.83333 2.65685 0
M  V30 611 H 51.8946 3.65291 1.06144 0
M  V30 612 H 53.2066 4.72403 1.60116 0
M  V30 613 H 52.3606 4.60182 3.9537 0
M  V30 614 H 51.0996 3.43685 3.46023 0
M  V30 615 H 50.1046 5.15176 1.92026 0
M  V30 616 H 51.3296 6.33685 2.44171 0
M  V30 617 H 49.2756 5.00132 4.24504 0
M  V30 618 H 49.1926 6.6244 3.64293 0
M  V30 619 H 50.4606 6.18282 4.74708 0
M  V30 620 N 54.6897 -0.239769 1.55765 0
M  V30 621 C 55.6197 -1.30052 1.9393 0
M  V30 622 C 56.6007 -1.49839 0.805132 0
M  V30 623 O 57.7857 -1.62328 1.06599 0
M  V30 624 C 54.9157 -2.65391 2.2402 0
M  V30 625 C 53.8697 -2.60289 3.39755 0
M  V30 626 C 53.1957 -3.99489 3.55405 0
M  V30 627 C 54.4957 -2.16654 4.75246 0
M  V30 628 H 56.1897 -0.983573 2.82783 0
M  V30 629 H 53.7357 -0.471701 1.36055 0
M  V30 630 H 55.6887 -3.3974 2.49308 0
M  V30 631 H 54.4127 -2.98736 1.32 0
M  V30 632 H 53.0717 -1.88398 3.14487 0
M  V30 633 H 52.7197 -4.30112 2.60793 0
M  V30 634 H 52.4197 -3.96962 4.33238 0
M  V30 635 H 53.9437 -4.75528 3.83022 0
M  V30 636 H 55.3577 -2.80737 4.99859 0
M  V30 637 H 53.7547 -2.25223 5.56232 0
M  V30 638 H 54.8247 -1.11835 4.71827 0
M  V30 639 N 56.1678 -1.49265 -0.50573 0
M  V30 640 C 57.3978 -1.61979 -1.28243 0
M  V30 641 C 57.8058 -0.288576 -1.86986 0
M  V30 642 O 57.1488 0.735408 -1.68337 0
M  V30 643 C 57.2108 -2.62632 -2.45489 0
M  V30 644 C 56.8748 -4.071 -2.07651 0
M  V30 645 C 57.8718 -4.94049 -1.61901 0
M  V30 646 C 55.5568 -4.52801 -2.17431 0
M  V30 647 C 57.5508 -6.24736 -1.26428 0
M  V30 648 C 55.2378 -5.83503 -1.8157 0
M  V30 649 C 56.2358 -6.69294 -1.36142 0
M  V30 650 O 55.9238 -7.9756 -1.00764 0
M  V30 651 H 55.6558 -0.54834 -0.395347 0
M  V30 652 H 58.2098 -1.96002 -0.614204 0
M  V30 653 H 56.4398 -2.2378 -3.15372 0
M  V30 654 H 58.1288 -2.64925 -3.07522 0
M  V30 655 H 58.8948 -4.5997 -1.53795 0
M  V30 656 H 54.7738 -3.86196 -2.51742 0
M  V30 657 H 58.3178 -6.91652 -0.908992 0
M  V30 658 H 54.2148 -6.17112 -1.89324 0
M  V30 659 H 54.9828 -8.10529 -1.13952 0
M  V30 660 N 57.6459 0.756429 -1.3826 0
M  V30 661 C 58.8939 1.51248 -1.34047 0
M  V30 662 C 59.2149 1.94875 0.0698372 0
M  V30 663 O 58.4849 1.67436 1.01696 0
M  V30 664 H 57.0649 0.561018 -0.493222 0
M  V30 665 H 59.7269 0.899347 -1.7291 0
M  V30 666 H 58.8229 2.40472 -1.98947 0
M  V30 667 N 59.124 1.23083 0.984299 0
M  V30 668 C 60.401 0.9689 1.69917 0
M  V30 669 C 60.781 -0.513604 2.04757 0
M  V30 670 O 60.129 -1.48383 1.73767 0
M  V30 671 C 60.339 1.87518 2.94343 0
M  V30 672 C 61.687 2.13636 3.6694 0
M  V30 673 O 62.711 1.85036 3.04368 0
M  V30 674 O 61.57 2.62119 4.79537 0
M  V30 675 H 58.664 0.365095 0.742048 0
M  V30 676 H 61.21 1.34107 1.03987 0
M  V30 677 H 59.982 2.87756 2.65164 0
M  V30 678 H 59.605 1.50514 3.6801 0
M  V30 679 N 60.6021 -1.18246 1.0419 0
M  V30 680 C 61.5341 -2.2142 0.592088 0
M  V30 681 C 62.5471 -1.59233 -0.338909 0
M  V30 682 O 63.7361 -1.78002 -0.133231 0
M  V30 683 C 60.8361 -3.38546 -0.154854 0
M  V30 684 C 60.0091 -4.3031 0.784328 0
M  V30 685 C 59.0681 -5.26138 0.0804583 0
M  V30 686 O 58.0941 -5.64738 0.711292 0
M  V30 687 N 59.2961 -5.68261 -1.18574 0
M  V30 688 H 62.0611 -2.60636 1.47949 0
M  V30 689 H 59.6221 -1.33044 0.922544 0
M  V30 690 H 61.6141 -3.99678 -0.635606 0
M  V30 691 H 60.1841 -2.98012 -0.943811 0
M  V30 692 H 59.4041 -3.66764 1.44491 0
M  V30 693 H 60.6921 -4.8852 1.42218 0
M  V30 694 H 60.0901 -5.38957 -1.71876 0
M  V30 695 H 58.6471 -6.31584 -1.61074 0
M  V30 696 N 62.0802 -0.821533 -1.34494 0
M  V30 697 C 63.3202 -0.414785 -2.00147 0
M  V30 698 C 63.6842 1.00299 -1.6372 0
M  V30 699 O 64.8852 1.51255 -2.22206 0
M  V30 700 C 63.1562 -0.609403 -3.52166 0
M  V30 701 S 64.7152 -0.295297 -4.37805 0
M  V30 702 H 61.5332 -0.15679 -0.693497 0
M  V30 703 H 64.1352 -1.06705 -1.63812 0
M  V30 704 H 62.8392 -1.64096 -3.76166 0
M  V30 705 H 62.3702 0.0576414 -3.93358 0
M  V30 706 H 64.3852 0.891531 -4.88125 0
M  V30 707 N 63.5583 1.46682 -0.576371 0
M  V30 708 C 64.5083 2.27278 0.181288 0
M  V30 709 C 65.4923 1.35497 0.867721 0
M  V30 710 O 66.6843 1.59717 0.762863 0
M  V30 711 C 63.8133 3.21703 1.19841 0
M  V30 712 C 62.8993 4.20969 0.51442 0
M  V30 713 N 63.2903 5.03999 -0.426407 0
M  V30 714 C 61.5883 4.39373 0.765963 0
M  V30 715 C 62.2893 5.75812 -0.825565 0
M  V30 716 N 61.2653 5.43315 -0.176116 0
M  V30 717 H 65.0673 2.88863 -0.541785 0
M  V30 718 H 62.5813 1.57455 -0.397697 0
M  V30 719 H 64.5783 3.78145 1.75533 0
M  V30 720 H 63.2383 2.61677 1.92238 0
M  V30 721 H 64.2493 5.11659 -0.8016 0
M  V30 722 H 60.9263 3.90502 1.47698 0
M  V30 723 H 62.3163 6.52577 -1.59976 0
M  V30 724 N 65.0364 0.313813 1.54444 0
M  V30 725 C 65.9864 -0.571898 2.20711 0
M  V30 726 C 66.9704 -1.08913 1.18435 0
M  V30 727 O 68.1624 -1.02777 1.44104 0
M  V30 728 C 65.2914 -1.7371 2.96108 0
M  V30 729 C 64.3774 -1.23522 4.05713 0
M  V30 730 N 64.7684 -0.452288 5.03774 0
M  V30 731 C 63.0664 -1.51482 4.19487 0
M  V30 732 C 63.7674 -0.183438 5.81411 0
M  V30 733 N 62.7434 -0.766845 5.38164 0
M  V30 734 H 66.5454 0.0336802 2.93881 0
M  V30 735 H 64.0594 0.119192 1.61962 0
M  V30 736 H 66.0564 -2.38329 3.4206 0
M  V30 737 H 64.7164 -2.34625 2.24458 0
M  V30 738 H 65.7274 -0.0960131 5.17811 0
M  V30 739 H 62.4044 -2.13053 3.59047 0
M  V30 740 H 63.7944 0.446216 6.70417 0
M  V30 741 N 66.5145 -1.57545 0.0417849 0
M  V30 742 C 67.4625 -2.12148 -0.953723 0
M  V30 743 C 68.4565 -1.05104 -1.32852 0
M  V30 744 O 69.6625 -1.23524 -1.30927 0
M  V30 745 H 66.0375 -0.677957 -0.325389 0
M  V30 746 H 68.0085 -2.94707 -0.467991 0
M  V30 747 C 66.7575 -2.6739 -2.22257 0
M  V30 748 H 66.0805 -3.49413 -1.94295 0
M  V30 749 H 67.5205 -3.09227 -2.90094 0
M  V30 750 C 65.9795 -1.60723 -2.96091 0
M  V30 751 O 66.5095 -1.01449 -3.88679 0
M  V30 752 N 64.7155 -1.32466 -2.58652 0
M  V30 753 H 64.2625 -1.80856 -1.83437 0
M  V30 754 H 64.2205 -0.61325 -3.08361 0
M  V30 755 N 67.9926 0.231505 -1.5589 0
M  V30 756 C 68.9226 1.29022 -1.94617 0
M  V30 757 C 69.9036 1.4941 -0.813067 0
M  V30 758 O 71.0886 1.6176 -1.07459 0
M  V30 759 C 68.2186 2.64199 -2.25424 0
M  V30 760 C 67.1726 2.58484 -3.41131 0
M  V30 761 C 66.4986 3.97599 -3.57518 0
M  V30 762 C 67.7986 2.1413 -4.76388 0
M  V30 763 H 69.4926 0.968563 -2.83301 0
M  V30 764 H 67.0386 0.464479 -1.36303 0
M  V30 765 H 68.9916 3.38413 -2.51107 0
M  V30 766 H 67.7156 2.98032 -1.33583 0
M  V30 767 H 66.3746 1.86727 -3.15481 0
M  V30 768 H 66.0226 4.28723 -2.6307 0
M  V30 769 H 65.7226 3.94659 -4.35337 0
M  V30 770 H 67.2466 4.7349 -3.85538 0
M  V30 771 H 68.6606 2.78083 -5.01341 0
M  V30 772 H 67.0576 2.2227 -5.57419 0
M  V30 773 H 68.1276 1.09331 -4.72414 0
M  V30 774 N 69.4707 1.49531 0.497807 0
M  V30 775 C 70.6957 1.63159 1.28039 0
M  V30 776 C 71.1207 0.30418 1.85624 0
M  V30 777 O 70.4787 -0.728618 1.66015 0
M  V30 778 C 70.5267 2.70537 2.38416 0
M  V30 779 O 69.6307 2.29931 3.42353 0
M  V30 780 H 68.9717 0.546001 0.377861 0
M  V30 781 H 71.5017 1.9574 0.59558 0
M  V30 782 H 71.5117 2.92802 2.84132 0
M  V30 783 H 70.1867 3.6689 1.95869 0
M  V30 784 H 68.7637 2.18009 3.02533 0
M  V30 785 N 70.9488 -0.749086 1.3866 0
M  V30 786 C 71.8788 -1.8764 1.38973 0
M  V30 787 C 72.8598 -1.68178 0.255004 0
M  V30 788 O 74.0448 -1.88704 0.458754 0
M  V30 789 C 71.1748 -3.25222 1.21851 0
M  V30 790 C 70.1288 -3.59295 2.32575 0
M  V30 791 C 69.4548 -4.95663 2.00555 0
M  V30 792 C 70.7548 -3.63709 3.7485 0
M  V30 793 H 72.4488 -1.87635 2.3331 0
M  V30 794 H 69.9948 -0.901329 1.12303 0
M  V30 795 H 71.9478 -4.03746 1.20695 0
M  V30 796 H 70.6718 -3.25719 0.239775 0
M  V30 797 H 69.3308 -2.83093 2.32925 0
M  V30 798 H 68.9788 -4.92724 1.01154 0
M  V30 799 H 68.6788 -5.19429 2.74714 0
M  V30 800 H 70.2028 -5.7656 2.01024 0
M  V30 801 H 71.6168 -4.32338 3.76506 0
M  V30 802 H 70.0138 -3.98986 4.48252 0
M  V30 803 H 71.0838 -2.63834 4.06841 0
M  V30 804 N 72.4269 -1.23603 -0.977757 0
M  V30 805 C 73.3569 -1.04401 -2.0886 0
M  V30 806 C 74.3379 0.0399052 -1.70053 0
M  V30 807 O 75.5229 -0.125246 -1.93796 0
M  V30 808 C 72.6529 -0.637269 -3.41403 0
M  V30 809 C 71.6069 -1.66883 -3.94124 0
M  V30 810 C 70.9329 -1.11745 -5.22893 0
M  V30 811 C 72.2329 -3.06247 -4.23096 0
M  V30 812 H 73.9269 -1.97316 -2.25182 0
M  V30 813 H 71.4729 -0.950096 -1.08209 0
M  V30 814 H 73.4259 -0.48998 -4.18542 0
M  V30 815 H 72.1499 0.327557 -3.24953 0
M  V30 816 H 70.8089 -1.80416 -3.19133 0
M  V30 817 H 70.4569 -0.143527 -5.02795 0
M  V30 818 H 70.1569 -1.80672 -5.59134 0
M  V30 819 H 71.6809 -0.982067 -6.02651 0
M  V30 820 H 73.0949 -2.96001 -4.90975 0
M  V30 821 H 71.4919 -3.72436 -4.70544 0
M  V30 822 H 72.5619 -3.55041 -3.30263 0
M  V30 823 N 73.905 1.17692 -1.04816 0
M  V30 824 C 75.316 1.69501 -0.782698 0
M  V30 825 C 75.667 1.83456 0.695577 0
M  V30 826 O 74.792 1.51942 1.54086 0
M  V30 827 C 75.387 3.07874 -1.41419 0
M  V30 828 C 73.946 3.56864 -1.19686 0
M  V30 829 C 73.093 2.3322 -1.50012 0
M  V30 830 H 76.044 1.02262 -1.2136 0
M  V30 831 H 76.065 3.71528 -0.821428 0
M  V30 832 H 75.577 2.97685 -2.49009 0
M  V30 833 H 73.678 3.72337 -0.140043 0
M  V30 834 H 73.791 4.39851 -1.89916 0
M  V30 835 H 72.155 2.37501 -0.920071 0
M  V30 836 H 72.938 2.25644 -2.58727 0
M  V30 837 N 75.3831 0.828654 1.34056 0
M  V30 838 C 76.7941 0.477534 1.8049 0
M  V30 839 C 77.1451 -1.00258 1.6865 0
M  V30 840 O 76.2701 -1.78057 1.22982 0
M  V30 841 C 76.8651 0.860018 3.27703 0
M  V30 842 C 75.4241 0.561185 3.72193 0
M  V30 843 C 74.5711 1.07385 2.55663 0
M  V30 844 H 77.5221 1.0183 1.21722 0
M  V30 845 H 77.5431 0.166038 3.80138 0
M  V30 846 H 77.0551 1.93731 3.36288 0
M  V30 847 H 75.1561 -0.506465 3.69142 0
M  V30 848 H 75.2691 1.10926 4.66082 0
M  V30 849 H 73.6331 0.495149 2.49841 0
M  V30 850 H 74.4161 2.15771 2.67016 0
M  V30 851 N 76.8612 -1.46375 0.584142 0
M  V30 852 C 78.2722 -1.86031 0.157959 0
M  V30 853 C 78.6232 -1.48753 -1.27933 0
M  V30 854 O 77.7482 -0.903098 -1.96655 0
M  V30 855 C 78.3432 -3.37642 0.279892 0
M  V30 856 C 76.9022 -3.76289 -0.09143 0
M  V30 857 C 76.0492 -2.7039 0.615178 0
M  V30 858 H 79.0002 -1.37509 0.792274 0
M  V30 859 H 79.0212 -3.77275 -0.494364 0
M  V30 860 H 78.5332 -3.64742 1.32607 0
M  V30 861 H 76.6342 -3.54806 -1.13769 0
M  V30 862 H 76.7472 -4.78246 0.285886 0
M  V30 863 H 75.1112 -2.5464 0.0552833 0
M  V30 864 H 75.8942 -3.0033 1.66303 0
M  V30 865 N 78.3393 -0.321999 -1.54275 0
M  V30 866 C 79.5673 0.283052 -2.04955 0
M  V30 867 C 79.9823 1.45904 -1.19823 0
M  V30 868 O 79.3393 1.81063 -0.228545 0
M  V30 869 C 79.3903 0.719028 -3.54277 0
M  V30 870 O 79.1113 -0.410175 -4.36176 0
M  V30 871 C 80.6123 1.38705 -4.21041 0
M  V30 872 H 77.8323 0.0584616 -0.668448 0
M  V30 873 H 80.3763 -0.467734 -1.99079 0
M  V30 874 H 78.5313 1.41979 -3.60445 0
M  V30 875 H 78.9453 -0.0669416 -5.24457 0
M  V30 876 H 80.4193 1.64306 -5.2698 0
M  V30 877 H 80.8963 2.33385 -3.72059 0
M  V30 878 H 81.5023 0.728906 -4.19007 0
M  V30 879 N 79.8174 1.5752 -0.0501392 0
M  V30 880 C 80.7274 2.14952 0.939827 0
M  V30 881 C 81.7434 1.10706 1.34239 0
M  V30 882 O 82.9194 1.42869 1.41952 0
M  V30 883 C 79.9844 2.68232 2.19665 0
M  V30 884 C 79.0454 3.87272 1.85253 0
M  V30 885 C 78.2784 4.38002 3.04943 0
M  V30 886 O 78.5014 3.87811 4.18281 0
M  V30 887 O 77.4354 5.29602 2.86017 0
M  V30 888 H 81.2614 2.9986 0.481392 0
M  V30 889 H 78.8464 1.4841 0.171699 0
M  V30 890 H 80.7284 3.02475 2.93406 0
M  V30 891 H 79.4034 1.86395 2.64648 0
M  V30 892 H 78.3104 3.5792 1.0883 0
M  V30 893 H 79.6434 4.70336 1.4507 0
M  V30 894 N 81.2955 -0.223234 1.56011 0
M  V30 895 C 82.2255 -1.27988 1.95298 0
M  V30 896 C 83.2065 -1.48976 0.820979 0
M  V30 897 O 84.3915 -1.61188 1.08315 0
M  V30 898 C 81.5215 -2.63 2.26822 0
M  V30 899 C 80.4755 -2.56671 3.42497 0
M  V30 900 C 79.8015 -3.95697 3.59622 0
M  V30 901 C 81.1015 -2.11601 4.77517 0
M  V30 902 H 82.7955 -0.953525 2.8381 0
M  V30 903 H 80.3415 -0.457244 1.36548 0
M  V30 904 H 82.2945 -3.37077 2.52898 0
M  V30 905 H 81.0185 -2.9732 1.35161 0
M  V30 906 H 79.6775 -1.85051 3.16467 0
M  V30 907 H 79.3255 -4.27322 2.6534 0
M  V30 908 H 79.0255 -3.92345 4.37424 0
M  V30 909 H 80.5495 -4.71438 3.88044 0
M  V30 910 H 81.9635 -2.7542 5.02809 0
M  V30 911 H 80.3605 -2.19311 5.5859 0
M  V30 912 H 81.4305 -1.06824 4.72987 0
M  V30 913 N 82.7736 -1.49793 -0.48987 0
M  V30 914 C 84.0196 -1.60078 -1.24511 0
M  V30 915 C 84.3526 -0.291608 -1.91998 0
M  V30 916 O 83.6276 0.705647 -1.81248 0
M  V30 917 C 83.9106 -2.76791 -2.30345 0
M  V30 918 C 83.7636 -4.17535 -1.67286 0
M  V30 919 C 85.0826 -2.89111 -3.31817 0
M  V30 920 H 82.2016 -0.582645 -0.451324 0
M  V30 921 H 84.8436 -1.82117 -0.541612 0
M  V30 922 H 82.9936 -2.5813 -2.90346 0
M  V30 923 H 84.6656 -4.4774 -1.11026 0
M  V30 924 H 82.9086 -4.22665 -0.976577 0
M  V30 925 H 83.5796 -4.95094 -2.44103 0
M  V30 926 H 86.0556 -3.06133 -2.81819 0
M  V30 927 H 84.9316 -3.72433 -4.03219 0
M  V30 928 H 85.1926 -1.9893 -3.94815 0
M  V30 929 N 84.2517 0.741722 -1.39055 0
M  V30 930 C 85.4917 1.51385 -1.37338 0
M  V30 931 C 85.8557 1.91972 0.0330513 0
M  V30 932 O 87.0567 2.68229 0.175174 0
M  V30 933 C 85.3277 2.72481 -2.31276 0
M  V30 934 S 86.8867 3.62211 -2.47687 0
M  V30 935 H 83.7047 0.517906 -0.487129 0
M  V30 936 H 86.3067 0.86969 -1.7509 0
M  V30 937 H 85.0107 2.40793 -3.32336 0
M  V30 938 H 84.5417 3.41832 -1.94716 0
M  V30 939 H 86.5567 4.65812 -1.70978 0
M  V30 940 N 85.7298 1.2412 0.971189 0
M  V30 941 C 86.6778 1.02812 2.08644 0
M  V30 942 C 87.6718 -0.0358403 1.69362 0
M  V30 943 O 88.8778 0.118429 1.7961 0
M  V30 944 H 85.2528 0.315428 0.682649 0
M  V30 945 H 87.2238 1.97397 2.23779 0
M  V30 946 C 85.9728 0.645874 3.41649 0
M  V30 947 H 85.2958 1.45632 3.72332 0
M  V30 948 H 86.7358 0.536366 4.20594 0
M  V30 949 C 85.1948 -0.646713 3.30635 0
M  V30 950 O 85.7248 -1.69338 3.64263 0
M  V30 951 N 83.9308 -0.626115 2.83775 0
M  V30 952 H 83.4778 0.225988 2.56607 0
M  V30 953 H 83.4358 -1.49117 2.76788 0
M  V30 954 N 87.2079 -1.17134 1.05439 0
M  V30 955 C 88.6239 -1.39454 0.776201 0
M  V30 956 C 88.8239 -1.91454 -0.628307 0
M  V30 957 O 87.8799 -2.10777 -1.39031 0
M  V30 958 C 89.1929 -2.38305 1.83388 0
M  V30 959 C 90.7409 -2.52006 1.85639 0
M  V30 960 C 91.2159 -3.54133 2.90437 0
M  V30 961 N 92.7069 -3.61653 2.89415 0
M  V30 962 C 93.4419 -4.4044 3.67152 0
M  V30 963 N 92.9379 -5.22721 4.54681 0
M  V30 964 N 94.7309 -4.35337 3.55581 0
M  V30 965 H 86.8819 -0.817134 1.96053 0
M  V30 966 H 89.1449 -0.421626 0.849079 0
M  V30 967 H 88.8509 -2.07173 2.84204 0
M  V30 968 H 88.7249 -3.37841 1.67761 0
M  V30 969 H 91.1119 -2.82447 0.85486 0
M  V30 970 H 91.1929 -1.52537 2.05344 0
M  V30 971 H 90.8369 -3.24431 3.90777 0
M  V30 972 H 90.7669 -4.53313 2.67983 0
M  V30 973 H 93.2579 -3.02909 2.25952 0
M  V30 974 H 93.5709 -5.80027 5.10674 0
M  V30 975 H 91.9159 -5.22093 4.58741 0
M  V30 976 H 95.1069 -3.70112 2.86592 0
M  V30 977 H 95.2799 -4.96494 4.1641 0
M  V30 978 N 88.686 -0.835752 -1.33615 0
M  V30 979 C 89.914 -0.443344 -2.02094 0
M  V30 980 C 90.329 0.954522 -1.62894 0
M  V30 981 O 89.686 1.61982 -0.840723 0
M  V30 982 C 89.737 -0.550775 -3.5728 0
M  V30 983 O 89.458 -1.89356 -3.95065 0
M  V30 984 C 90.959 -0.154919 -4.43029 0
M  V30 985 H 88.179 -0.176359 -0.647409 0
M  V30 986 H 90.723 -1.12746 -1.70612 0
M  V30 987 H 88.878 0.0853997 -3.87306 0
M  V30 988 H 89.292 -1.87687 -4.89769 0
M  V30 989 H 90.766 -0.281144 -5.51284 0
M  V30 990 H 91.243 0.902863 -4.2982 0
M  V30 991 H 91.849 -0.765404 -4.18356 0
M  V30 992 N 90.1641 1.46063 -0.591896 0
M  V30 993 C 91.4111 2.02338 -0.0809991 0
M  V30 994 C 91.7391 1.46228 1.28249 0
M  V30 995 O 90.9941 0.620818 1.85592 0
M  V30 996 C 91.2931 3.57391 0.0249813 0
M  V30 997 C 90.9591 4.32583 -1.27211 0
M  V30 998 C 89.6211 4.52844 -1.62745 0
M  V30 999 C 91.9731 4.75687 -2.13005 0
M  V30 1000 C 89.3011 5.13462 -2.83855 0
M  V30 1001 C 91.6531 5.37644 -3.3335 0
M  V30 1002 C 90.3171 5.5613 -3.69155 0
M  V30 1003 H 89.5871 0.740407 -0.0296397 0
M  V30 1004 H 92.2341 1.75321 -0.770374 0
M  V30 1005 H 90.5391 3.83597 0.797537 0
M  V30 1006 H 92.2361 3.98621 0.436184 0
M  V30 1007 H 88.8261 4.17116 -0.985499 0
M  V30 1008 H 93.0101 4.59782 -1.86855 0
M  V30 1009 H 88.2661 5.25965 -3.11722 0
M  V30 1010 H 92.4401 5.7 -4.00092 0
M  V30 1011 H 90.0671 6.0287 -4.63089 0
M  V30 1012 N 91.6422 0.330177 1.54103 0
M  V30 1013 C 92.9192 -0.325007 1.92881 0
M  V30 1014 C 93.2992 -1.6934 1.26045 0
M  V30 1015 O 92.6472 -2.24855 0.406526 0
M  V30 1016 C 92.8572 -0.410634 3.46576 0
M  V30 1017 C 94.2052 -0.667801 4.19316 0
M  V30 1018 O 95.2292 -0.49329 3.52768 0
M  V30 1019 O 94.0882 -1.00491 5.37181 0
M  V30 1020 H 91.1822 -0.186873 0.80561 0
M  V30 1021 H 93.7282 0.380376 1.65382 0
M  V30 1022 H 92.5002 0.550164 3.87413 0
M  V30 1023 H 92.1232 -1.16333 3.802 0
M  V30 1024 N 93.1203 -1.57491 0.0584922 0
M  V30 1025 C 94.0673 -2.11958 -0.913376 0
M  V30 1026 C 95.0373 -1.02875 -1.30407 0
M  V30 1027 O 96.2223 -1.30464 -1.39226 0
M  V30 1028 C 93.3623 -2.67497 -2.18035 0
M  V30 1029 C 92.4753 -3.90691 -1.84349 0
M  V30 1030 C 91.6103 -4.3452 -3.05559 0
M  V30 1031 C 90.6493 -5.50395 -2.67827 0
M  V30 1032 N 89.7863 -5.89244 -3.81754 0
M  V30 1033 H 94.6263 -2.94704 -0.442017 0
M  V30 1034 H 92.1633 -1.45643 -0.206545 0
M  V30 1035 H 94.1213 -2.978 -2.92183 0
M  V30 1036 H 92.7513 -1.87537 -2.62735 0
M  V30 1037 H 91.8033 -3.66934 -1.00319 0
M  V30 1038 H 93.1153 -4.7489 -1.5258 0
M  V30 1039 H 92.2693 -4.66414 -3.87998 0
M  V30 1040 H 91.0083 -3.49147 -3.40511 0
M  V30 1041 H 90.0133 -5.18165 -1.83806 0
M  V30 1042 H 91.2383 -6.3749 -2.34059 0
M  V30 1043 H 89.1843 -5.06823 -4.16493 0
M  V30 1044 H 89.1013 -6.68151 -3.53708 0
M  V30 1045 H 90.3693 -6.25756 -4.64811 0
M  V30 1046 N 94.5984 0.214957 -1.56127 0
M  V30 1047 C 95.8284 0.953707 -1.8327 0
M  V30 1048 C 96.2364 1.78181 -0.636262 0
M  V30 1049 O 95.5794 1.79191 0.404516 0
M  V30 1050 C 95.6414 1.91516 -3.0424 0
M  V30 1051 C 95.3054 1.27094 -4.38972 0
M  V30 1052 C 96.3024 0.657575 -5.15725 0
M  V30 1053 C 93.9874 1.28073 -4.85698 0
M  V30 1054 C 95.9814 0.0625968 -6.37369 0
M  V30 1055 C 93.6684 0.681914 -6.07283 0
M  V30 1056 C 94.6664 0.0739046 -6.8296 0
M  V30 1057 O 94.3544 -0.515582 -8.02245 0
M  V30 1058 H 94.0864 0.284764 -0.613095 0
M  V30 1059 H 96.6404 0.233283 -2.04071 0
M  V30 1060 H 94.8704 2.67475 -2.79274 0
M  V30 1061 H 96.5594 2.52001 -3.18198 0
M  V30 1062 H 97.3254 0.642288 -4.80728 0
M  V30 1063 H 93.2044 1.74337 -4.26764 0
M  V30 1064 H 96.7484 -0.412593 -6.96379 0
M  V30 1065 H 92.6454 0.694636 -6.41752 0
M  V30 1066 H 93.4134 -0.410544 -8.1747 0
M  V30 1067 N 96.0765 1.50051 0.48192 0
M  V30 1068 C 97.3015 1.64508 1.26301 0
M  V30 1069 C 97.7265 0.323851 1.85291 0
M  V30 1070 O 97.0845 -0.710969 1.66778 0
M  V30 1071 C 97.1325 2.7305 2.35533 0
M  V30 1072 O 96.2365 2.3355 3.39895 0
M  V30 1073 H 95.5775 0.549978 0.372048 0
M  V30 1074 H 98.1075 1.9636 0.574786 0
M  V30 1075 H 98.1175 2.95799 2.8101 0
M  V30 1076 H 96.7925 3.68946 1.91967 0
M  V30 1077 H 95.3695 2.21205 3.00204 0
M  V30 1078 N 97.5546 -0.734337 1.39446 0
M  V30 1079 C 98.7946 -1.50655 1.38139 0
M  V30 1080 C 99.1586 -1.91986 -0.0228701 0
M  V30 1081 O 100.36 -2.68318 -0.160947 0
M  V30 1082 C 98.6306 -2.71251 2.32718 0
M  V30 1083 S 100.19 -3.60892 2.49605 0
M  V30 1084 H 97.0076 -0.515315 0.489869 0
M  V30 1085 H 99.6096 -0.860392 1.75549 0
M  V30 1086 H 98.3136 -2.39027 3.33608 0
M  V30 1087 H 97.8446 -3.40795 1.96526 0
M  V30 1088 H 99.8596 -4.64899 1.73446 0
M  V30 1089 N 99.0327 -1.24633 -0.964593 0
M  V30 1090 C 100.279 -1.09957 -1.71117 0
M  V30 1091 C 100.634 0.357422 -1.89051 0
M  V30 1092 O 99.9267 1.26029 -1.44317 0
M  V30 1093 C 100.121 -1.7763 -3.10133 0
M  V30 1094 C 99.9497 -3.29759 -3.05759 0
M  V30 1095 C 98.7197 -3.98981 -3.10068 0
M  V30 1096 C 100.918 -4.26305 -2.87695 0
M  V30 1097 N 98.8997 -5.37966 -2.95747 0
M  V30 1098 C 100.271 -5.52308 -2.81702 0
M  V30 1099 C 102.326 -4.16842 -2.72299 0
M  V30 1100 C 101.029 -6.69931 -2.61887 0
M  V30 1101 C 103.055 -5.34147 -2.53853 0
M  V30 1102 C 102.417 -6.59084 -2.48572 0
M  V30 1103 H 98.5157 -0.457003 -0.634564 0
M  V30 1104 H 101.1 -1.57592 -1.14337 0
M  V30 1105 H 99.2707 -1.32504 -3.65099 0
M  V30 1106 H 101.003 -1.55786 -3.73514 0
M  V30 1107 H 97.7577 -3.50169 -3.18871 0
M  V30 1108 H 98.1817 -6.10877 -2.91818 0
M  V30 1109 H 102.824 -3.21007 -2.75163 0
M  V30 1110 H 100.542 -7.65886 -2.57767 0
M  V30 1111 H 104.128 -5.28678 -2.4288 0
M  V30 1112 H 103.008 -7.48324 -2.34481 0
M  V30 1113 N 100.511 1.16574 -1.06058 0
M  V30 1114 C 101.922 1.68662 -0.800632 0
M  V30 1115 C 102.273 1.84184 0.67608 0
M  V30 1116 O 101.398 1.53568 1.52466 0
M  V30 1117 C 101.993 3.06356 -1.44676 0
M  V30 1118 C 100.552 3.55575 -1.23465 0
M  V30 1119 C 99.6988 2.31616 -1.52477 0
M  V30 1120 H 102.65 1.00969 -1.22438 0
M  V30 1121 H 102.671 3.70636 -0.860788 0
M  V30 1122 H 102.183 2.95027 -2.52152 0
M  V30 1123 H 100.284 3.72167 -0.179527 0
M  V30 1124 H 100.397 4.37812 -1.94571 0
M  V30 1125 H 98.7608 2.36512 -0.945209 0
M  V30 1126 H 99.5438 2.22887 -2.61106 0
M  V30 1127 N 101.989 0.842826 1.3317 0
M  V30 1128 C 103.266 0.362216 1.92217 0
M  V30 1129 C 103.646 -1.15289 1.76838 0
M  V30 1130 O 102.994 -1.96914 1.15919 0
M  V30 1131 C 103.204 0.813495 3.39387 0
M  V30 1132 C 104.552 0.823804 4.16532 0
M  V30 1133 O 105.576 0.757358 3.48055 0
M  V30 1134 O 104.435 0.915193 5.38782 0
M  V30 1135 H 101.529 0.103317 0.820521 0
M  V30 1136 H 104.075 0.928942 1.42017 0
M  V30 1137 H 102.847 1.85624 3.4447 0
M  V30 1138 H 102.47 0.223561 3.96971 0
M  V30 1139 N 103.467 -1.45747 0.599634 0
M  V30 1140 C 104.695 -2.06668 0.0978551 0
M  V30 1141 C 105.11 -1.44562 -1.21439 0
M  V30 1142 O 104.467 -0.556923 -1.73795 0
M  V30 1143 C 104.518 -3.61456 -0.0567044 0
M  V30 1144 O 104.239 -4.21242 1.20361 0
M  V30 1145 C 105.74 -4.39345 -0.590869 0
M  V30 1146 H 102.96 -0.667825 0.0651943 0
M  V30 1147 H 105.504 -1.87115 0.82511 0
M  V30 1148 H 103.659 -3.80378 -0.734251 0
M  V30 1149 H 104.073 -5.14323 1.02821 0
M  V30 1150 H 105.547 -5.48182 -0.648131 0
M  V30 1151 H 106.024 -4.08568 -1.61147 0
M  V30 1152 H 106.63 -4.25268 0.0523679 0
M  V30 1153 N 104.945 -0.338344 -1.53925 0
M  V30 1154 C 106.356 0.146651 -1.86123 0
M  V30 1155 C 106.707 1.5042 -1.2597 0
M  V30 1156 O 105.832 2.08723 -0.571294 0
M  V30 1157 C 106.427 0.272879 -3.37699 0
M  V30 1158 C 104.986 0.702103 -3.69794 0
M  V30 1159 C 104.133 -0.167304 -2.76795 0
M  V30 1160 H 107.084 -0.558123 -1.48562 0
M  V30 1161 H 107.105 1.10128 -3.64214 0
M  V30 1162 H 106.617 -0.715307 -3.81451 0
M  V30 1163 H 104.718 1.6995 -3.31584 0
M  V30 1164 H 104.831 0.495604 -4.7653 0
M  V30 1165 H 103.195 0.359527 -2.5215 0
M  V30 1166 H 103.978 -1.15253 -3.23375 0
M  V30 1167 N 106.423 1.57458 -0.0668435 0
M  V30 1168 C 107.386 2.11323 0.887422 0
M  V30 1169 C 108.386 1.03618 1.22964 0
M  V30 1170 O 109.576 1.29626 1.16373 0
M  V30 1171 C 106.708 2.61048 2.19242 0
M  V30 1172 H 107.901 2.96942 0.420194 0
M  V30 1173 H 105.454 1.55239 0.181793 0
M  V30 1174 H 106.189 1.78868 2.70512 0
M  V30 1175 H 105.974 3.39769 1.95702 0
M  V30 1176 H 107.464 3.02814 2.87565 0
M  V30 1177 N 107.901 -0.206675 1.56239 0
M  V30 1178 C 108.849 -1.27571 1.94495 0
M  V30 1179 C 109.843 -1.47737 0.828862 0
M  V30 1180 O 111.049 -1.48735 1.0138 0
M  V30 1181 H 107.424 -0.428029 0.6183 0
M  V30 1182 H 109.395 -0.925961 2.8367 0
M  V30 1183 C 108.144 -2.61568 2.29079 0
M  V30 1184 H 107.467 -2.46863 3.14482 0
M  V30 1185 H 108.907 -3.35144 2.5972 0
M  V30 1186 C 107.366 -3.17695 1.12123 0
M  V30 1187 O 107.896 -3.99801 0.390153 0
M  V30 1188 N 106.102 -2.76276 0.901097 0
M  V30 1189 H 105.649 -2.09613 1.49733 0
M  V30 1190 H 105.607 -3.1417 0.120319 0
M  V30 1191 N 109.379 -1.50304 -0.473955 0
M  V30 1192 C 110.607 -1.64902 -1.24959 0
M  V30 1193 C 111.022 -0.331198 -1.85872 0
M  V30 1194 O 110.379 0.68652 -1.69095 0
M  V30 1195 C 110.43 -2.73803 -2.36038 0
M  V30 1196 O 110.151 -4.00477 -1.77624 0
M  V30 1197 C 111.652 -2.99349 -3.26964 0
M  V30 1198 H 108.872 -0.554383 -0.378022 0
M  V30 1199 H 111.416 -1.9651 -0.566054 0
M  V30 1200 H 109.571 -2.44898 -3.00173 0
M  V30 1201 H 109.985 -4.60678 -2.5075 0
M  V30 1202 H 111.459 -3.79217 -4.01121 0
M  V30 1203 H 111.936 -2.10307 -3.85574 0
M  V30 1204 H 112.542 -3.29774 -2.68569 0
M  V30 1205 N 110.857 0.726932 -1.39834 0
M  V30 1206 C 112.085 1.51613 -1.40787 0
M  V30 1207 C 112.5 1.88799 -0.00451505 0
M  V30 1208 O 111.857 1.54662 0.968809 0
M  V30 1209 C 111.908 2.79863 -2.28821 0
M  V30 1210 O 111.629 2.44253 -3.63692 0
M  V30 1211 C 113.13 3.73837 -2.38245 0
M  V30 1212 H 110.35 0.468264 -0.480593 0
M  V30 1213 H 112.894 0.897607 -1.83748 0
M  V30 1214 H 111.049 3.38027 -1.89252 0
M  V30 1215 H 111.463 3.26695 -4.1033 0
M  V30 1216 H 112.937 4.60699 -3.04073 0
M  V30 1217 H 113.414 4.16153 -1.40403 0
M  V30 1218 H 114.02 3.21589 -2.78317 0
M  V30 1219 N 112.336 1.25143 0.95797 0
M  V30 1220 C 113.299 1.05321 2.03569 0
M  V30 1221 C 114.299 0.007152 1.60798 0
M  V30 1222 O 115.489 0.24903 1.72411 0
M  V30 1223 C 112.621 0.598394 3.35607 0
M  V30 1224 H 113.814 2.00986 2.22586 0
M  V30 1225 H 111.367 1.07502 1.13459 0
M  V30 1226 H 112.102 -0.361014 3.22284 0
M  V30 1227 H 111.887 1.35351 3.67998 0
M  V30 1228 H 113.377 0.48104 4.1482 0
M  V30 1229 N 113.814 -1.1601 1.06675 0
M  V30 1230 C 114.762 -2.22586 0.675157 0
M  V30 1231 C 115.756 -1.66525 -0.310766 0
M  V30 1232 O 116.962 -1.79145 -0.175215 0
M  V30 1233 H 113.337 -0.724855 0.200223 0
M  V30 1234 H 115.308 -2.52899 1.58381 0
M  V30 1235 C 114.057 -3.47604 0.0817162 0
M  V30 1236 H 113.38 -3.91058 0.831484 0
M  V30 1237 H 114.82 -4.23718 -0.154708 0
M  V30 1238 C 113.279 -3.15718 -1.17576 0
M  V30 1239 O 113.809 -3.31878 -2.26318 0
M  V30 1240 N 112.015 -2.69816 -1.07923 0
M  V30 1241 H 111.562 -2.56866 -0.194293 0
M  V30 1242 H 111.52 -2.48855 -1.92141 0
M  V30 1243 N 115.292 -0.849877 -1.32721 0
M  V30 1244 C 116.541 -0.447175 -1.96681 0
M  V30 1245 C 116.854 1.00135 -1.68025 0
M  V30 1246 O 118.06 1.50926 -2.25685 0
M  V30 1247 C 116.516 -0.7487 -3.52026 0
M  V30 1248 C 116.124 -2.21264 -3.89546 0
M  V30 1249 C 117.868 -0.413487 -4.22481 0
M  V30 1250 C 115.775 -2.45763 -5.37917 0
M  V30 1251 H 114.705 -0.163486 -0.736063 0
M  V30 1252 H 117.356 -1.03999 -1.51183 0
M  V30 1253 H 115.738 -0.0853727 -3.95908 0
M  V30 1254 H 116.912 -2.91736 -3.56689 0
M  V30 1255 H 115.227 -2.5119 -3.32103 0
M  V30 1256 H 117.824 -0.574017 -5.3161 0
M  V30 1257 H 118.167 0.644492 -4.11281 0
M  V30 1258 H 118.7 -1.03251 -3.84167 0
M  V30 1259 H 115.439 -3.50168 -5.54132 0
M  V30 1260 H 114.959 -1.79864 -5.72197 0
M  V30 1261 H 116.638 -2.29471 -6.0494 0
M  V30 1262 N 116.77 1.45427 -0.607355 0
M  V30 1263 C 117.995 2.07124 -0.107006 0
M  V30 1264 C 118.42 1.44906 1.19933 0
M  V30 1265 O 117.778 0.541687 1.73019 0
M  V30 1266 C 117.826 3.60595 0.0194119 0
M  V30 1267 O 116.93 3.98285 1.0697 0
M  V30 1268 H 116.271 0.659868 -0.0739597 0
M  V30 1269 H 118.801 1.86683 -0.837297 0
M  V30 1270 H 118.811 4.07419 0.2177 0
M  V30 1271 H 117.486 4.05266 -0.934453 0
M  V30 1272 H 116.063 3.63133 0.847889 0
M  V30 1273 N 118.248 0.346503 1.53744 0
M  V30 1274 C 119.488 -0.249413 2.02873 0
M  V30 1275 C 119.852 -1.47532 1.22876 0
M  V30 1276 O 121.053 -2.1456 1.61918 0
M  V30 1277 C 119.324 -0.552909 3.53097 0
M  V30 1278 S 120.883 -1.12521 4.24128 0
M  V30 1279 H 117.701 -0.074042 0.707134 0
M  V30 1280 H 120.303 0.48495 1.8939 0
M  V30 1281 H 119.007 0.347083 4.0893 0
M  V30 1282 H 118.538 -1.31686 3.70705 0
M  V30 1283 H 120.553 -2.41075 4.33702 0
M  V30 1284 N 119.726 -1.57421 0.075193 0
M  V30 1285 C 121.137 -1.81021 -0.456964 0
M  V30 1286 C 121.488 -0.98936 -1.69429 0
M  V30 1287 O 120.613 -0.212865 -2.15351 0
M  V30 1288 C 121.208 -3.28329 -0.83581 0
M  V30 1289 C 119.767 -3.52764 -1.31281 0
M  V30 1290 C 118.914 -2.75676 -0.299648 0
M  V30 1291 H 121.865 -1.55822 0.300856 0
M  V30 1292 H 121.886 -3.40564 -1.69696 0
M  V30 1293 H 121.398 -3.88046 0.0649238 0
M  V30 1294 H 119.499 -2.98355 -2.23193 0
M  V30 1295 H 119.612 -4.61451 -1.28839 0
M  V30 1296 H 117.976 -2.42538 -0.777641 0
M  V30 1297 H 118.759 -3.38132 0.593417 0
M  V30 1298 N 121.204 0.198386 -1.56346 0
M  V30 1299 C 122.45 0.916115 -1.81601 0
M  V30 1300 C 122.805 1.81025 -0.651744 0
M  V30 1301 O 122.098 1.88316 0.353229 0
M  V30 1302 C 122.292 1.77031 -3.10475 0
M  V30 1303 C 122.121 0.960365 -4.39326 0
M  V30 1304 C 120.891 0.646093 -5.01152 0
M  V30 1305 C 123.089 0.314628 -5.13337 0
M  V30 1306 N 121.071 -0.182828 -6.13628 0
M  V30 1307 C 122.442 -0.37664 -6.18855 0
M  V30 1308 C 124.497 0.230019 -4.97368 0
M  V30 1309 C 123.2 -1.14445 -7.10137 0
M  V30 1310 C 125.226 -0.524389 -5.89071 0
M  V30 1311 C 124.588 -1.20412 -6.94032 0
M  V30 1312 H 120.687 0.314732 -0.715868 0
M  V30 1313 H 123.271 0.185102 -1.93818 0
M  V30 1314 H 121.442 2.47295 -2.99499 0
M  V30 1315 H 123.174 2.42727 -3.2383 0
M  V30 1316 H 119.929 0.969724 -4.63566 0
M  V30 1317 H 120.353 -0.586802 -6.74452 0
M  V30 1318 H 124.995 0.741184 -4.16253 0
M  V30 1319 H 122.713 -1.66706 -7.90718 0
M  V30 1320 H 126.299 -0.591167 -5.78789 0
M  V30 1321 H 125.179 -1.77853 -7.63766 0
M  V30 1322 N 122.682 1.50554 0.465978 0
M  V30 1323 C 123.912 1.65323 1.23903 0
M  V30 1324 C 124.32 0.338051 1.86155 0
M  V30 1325 O 123.663 -0.690518 1.70228 0
M  V30 1326 C 123.725 2.69048 2.3844 0
M  V30 1327 C 123.389 4.12462 1.96784 0
M  V30 1328 C 124.386 4.98168 1.48745 0
M  V30 1329 C 122.071 4.58407 2.05349 0
M  V30 1330 C 124.065 6.27868 1.0982 0
M  V30 1331 C 121.752 5.88112 1.66035 0
M  V30 1332 C 122.75 6.72668 1.18349 0
M  V30 1333 O 122.438 7.99951 0.795825 0
M  V30 1334 H 122.17 0.558629 0.38067 0
M  V30 1335 H 124.724 1.97561 0.562022 0
M  V30 1336 H 122.954 2.32062 3.09328 0
M  V30 1337 H 124.643 2.72985 3.0039 0
M  V30 1338 H 125.409 4.63885 1.41546 0
M  V30 1339 H 121.288 3.92735 2.41414 0
M  V30 1340 H 124.832 6.93819 0.725293 0
M  V30 1341 H 120.729 6.21914 1.72895 0
M  V30 1342 H 121.497 8.13265 0.924222 0
M  V30 1343 N 124.16 -0.719506 1.40217 0
M  V30 1344 C 125.09 -1.8465 1.42922 0
M  V30 1345 C 126.071 -1.67599 0.29062 0
M  V30 1346 O 127.256 -1.87688 0.498677 0
M  V30 1347 C 124.386 -3.22565 1.28722 0
M  V30 1348 C 123.34 -3.54281 2.40144 0
M  V30 1349 C 122.666 -4.91298 2.11023 0
M  V30 1350 C 123.966 -3.55676 3.82481 0
M  V30 1351 H 125.66 -1.82644 2.37237 0
M  V30 1352 H 123.206 -0.877305 1.1419 0
M  V30 1353 H 125.159 -4.01095 1.29232 0
M  V30 1354 H 123.883 -3.25137 0.308811 0
M  V30 1355 H 122.542 -2.78088 2.38877 0
M  V30 1356 H 122.19 -4.90468 1.11582 0
M  V30 1357 H 121.89 -5.13485 2.8567 0
M  V30 1358 H 123.414 -5.72166 2.13209 0
M  V30 1359 H 124.828 -4.24254 3.85592 0
M  V30 1360 H 123.225 -3.89388 4.56614 0
M  V30 1361 H 124.295 -2.55144 4.12346 0
M  V30 1362 N 125.638 -1.25649 -0.95132 0
M  V30 1363 C 127.049 -1.09654 -1.51106 0
M  V30 1364 C 127.4 0.326615 -1.93462 0
M  V30 1365 O 126.525 1.21697 -1.78938 0
M  V30 1366 C 127.12 -1.98437 -2.74605 0
M  V30 1367 C 125.679 -1.86618 -3.2688 0
M  V30 1368 C 124.826 -1.9239 -1.99703 0
M  V30 1369 H 127.777 -1.38887 -0.767865 0
M  V30 1370 H 127.798 -1.5263 -3.48546 0
M  V30 1371 H 127.31 -3.02009 -2.43746 0
M  V30 1372 H 125.411 -0.859421 -3.62553 0
M  V30 1373 H 125.524 -2.71607 -3.94673 0
M  V30 1374 H 123.888 -1.36317 -2.15151 0
M  V30 1375 H 124.671 -2.97573 -1.71188 0
M  V30 1376 N 127.117 1.15442 -1.07289 0
M  V30 1377 C 128.363 1.8672 -0.806679 0
M  V30 1378 C 128.718 1.80723 0.660084 0
M  V30 1379 O 128.011 1.21902 1.47819 0
M  V30 1380 C 128.205 3.3489 -1.24834 0
M  V30 1381 C 128.034 3.55313 -2.7565 0
M  V30 1382 C 126.804 3.7082 -3.4325 0
M  V30 1383 C 129.002 3.53188 -3.73848 0
M  V30 1384 N 126.984 3.7929 -4.82713 0
M  V30 1385 C 128.355 3.67765 -4.99149 0
M  V30 1386 C 130.41 3.36459 -3.67015 0
M  V30 1387 C 129.113 3.6734 -6.18428 0
M  V30 1388 C 131.139 3.37333 -4.85758 0
M  V30 1389 C 130.501 3.52438 -6.09891 0
M  V30 1390 H 126.6 0.700433 -0.347733 0
M  V30 1391 H 129.184 1.38441 -1.36902 0
M  V30 1392 H 127.355 3.81786 -0.713713 0
M  V30 1393 H 129.087 3.93875 -0.929745 0
M  V30 1394 H 125.842 3.71568 -2.93656 0
M  V30 1395 H 126.266 3.8727 -5.55294 0
M  V30 1396 H 130.908 3.237 -2.71989 0
M  V30 1397 H 128.626 3.78878 -7.13777 0
M  V30 1398 H 132.212 3.25617 -4.82146 0
M  V30 1399 H 131.092 3.53047 -7.00234 0
M  V30 1400 N 128.595 0.856903 1.32268 0
M  V30 1401 C 129.545 0.274899 2.26337 0
M  V30 1402 C 130.529 -0.580543 1.50062 0
M  V30 1403 O 131.721 -0.429559 1.71708 0
M  V30 1404 C 128.85 -0.533841 3.39124 0
M  V30 1405 C 127.936 0.334114 4.22782 0
M  V30 1406 N 128.327 1.42143 4.85416 0
M  V30 1407 C 126.625 0.124256 4.45827 0
M  V30 1408 C 127.326 1.95559 5.47843 0
M  V30 1409 N 126.302 1.25444 5.28928 0
M  V30 1410 H 130.104 1.10612 2.72291 0
M  V30 1411 H 127.618 0.703258 1.46383 0
M  V30 1412 H 129.615 -0.96722 4.05525 0
M  V30 1413 H 128.275 -1.36283 2.94715 0
M  V30 1414 H 129.286 1.80436 4.85451 0
M  V30 1415 H 125.963 -0.669837 4.12092 0
M  V30 1416 H 127.353 2.86714 6.07655 0
M  V30 1417 N 130.073 -1.45103 0.615059 0
M  V30 1418 C 131.023 -2.27679 -0.120966 0
M  V30 1419 C 132.007 -1.3775 -0.831491 0
M  V30 1420 O 133.199 -1.61683 -0.720249 0
M  V30 1421 C 130.328 -3.24767 -1.1127 0
M  V30 1422 C 129.414 -4.22184 -0.402627 0
M  V30 1423 N 129.805 -5.02692 0.559884 0
M  V30 1424 C 128.103 -4.4125 -0.649202 0
M  V30 1425 C 128.804 -5.73421 0.977942 0
M  V30 1426 N 127.78 -5.42657 0.320104 0
M  V30 1427 H 131.582 -2.87325 0.618181 0
M  V30 1428 H 129.096 -1.56345 0.439304 0
M  V30 1429 H 131.093 -3.82666 -1.65446 0
M  V30 1430 H 129.753 -2.66682 -1.85232 0
M  V30 1431 H 130.764 -5.09354 0.936976 0
M  V30 1432 H 127.441 -3.9428 -1.37293 0
M  V30 1433 H 128.831 -6.48107 1.77222 0
M  V30 1434 N 131.551 -0.354651 -1.53558 0
M  V30 1435 C 132.498 0.496968 -2.25386 0
M  V30 1436 C 133.468 1.0865 -1.25636 0
M  V30 1437 O 134.653 1.12104 -1.54394 0
M  V30 1438 C 131.793 1.63637 -3.03837 0
M  V30 1439 C 130.906 1.07307 -4.18461 0
M  V30 1440 C 130.041 2.18068 -4.84376 0
M  V30 1441 C 129.08 1.59147 -5.91049 0
M  V30 1442 N 128.217 2.63695 -6.50699 0
M  V30 1443 H 133.057 -0.122075 -2.9775 0
M  V30 1444 H 130.594 -0.0720154 -1.46924 0
M  V30 1445 H 132.552 2.30734 -3.47589 0
M  V30 1446 H 131.182 2.22623 -2.33749 0
M  V30 1447 H 130.234 0.292708 -3.79272 0
M  V30 1448 H 131.546 0.602193 -4.95152 0
M  V30 1449 H 130.7 2.93007 -5.31255 0
M  V30 1450 H 129.439 2.68504 -4.07133 0
M  V30 1451 H 128.444 0.827175 -5.43542 0
M  V30 1452 H 129.669 1.09549 -6.70206 0
M  V30 1453 H 127.615 3.13365 -5.76315 0
M  V30 1454 H 127.532 2.21263 -7.22896 0
M  V30 1455 H 128.8 3.3837 -7.02229 0
M  V30 1456 N 133.029 1.57378 -0.0835403 0
M  V30 1457 C 134.275 1.94217 0.583733 0
M  V30 1458 C 134.608 0.964653 1.68547 0
M  V30 1459 O 133.883 -0.00422258 1.945 0
M  V30 1460 C 134.166 3.41253 1.14972 0
M  V30 1461 C 134.019 4.49768 0.0538277 0
M  V30 1462 C 135.338 3.89352 2.05166 0
M  V30 1463 H 132.457 0.706233 0.210724 0
M  V30 1464 H 135.099 1.89392 -0.1519 0
M  V30 1465 H 133.249 3.45496 1.77665 0
M  V30 1466 H 134.921 4.57641 -0.579851 0
M  V30 1467 H 133.164 4.29432 -0.614068 0
M  V30 1468 H 133.835 5.49817 0.490452 0
M  V30 1469 H 136.311 3.87189 1.52393 0
M  V30 1470 H 135.187 4.92822 2.41698 0
M  V30 1471 H 135.448 3.27973 2.96456 0
M  V30 1472 N 134.507 -0.190092 1.56449 0
M  V30 1473 C 135.439 -1.25973 1.91477 0
M  V30 1474 C 136.452 -1.41452 0.805931 0
M  V30 1475 O 137.641 -1.41789 1.08435 0
M  V30 1476 C 134.741 -2.63117 2.13594 0
M  V30 1477 C 133.914 -2.69182 3.4476 0
M  V30 1478 C 132.973 -3.87557 3.5593 0
M  V30 1479 O 131.999 -3.74427 4.28711 0
M  V30 1480 N 133.201 -5.03224 2.89388 0
M  V30 1481 H 135.966 -0.962394 2.83828 0
M  V30 1482 H 133.527 -0.379981 1.57378 0
M  V30 1483 H 135.519 -3.40742 2.1835 0
M  V30 1484 H 134.089 -2.85319 1.27719 0
M  V30 1485 H 133.309 -1.77793 3.51828 0
M  V30 1486 H 134.597 -2.70229 4.31107 0
M  V30 1487 H 133.995 -5.16791 2.30094 0
M  V30 1488 H 132.552 -5.78778 2.99764 0
M  V30 1489 N 135.985 -1.50799 -0.457987 0
M  V30 1490 C 136.935 -1.67003 -1.55222 0
M  V30 1491 C 137.919 -0.52434 -1.52117 0
M  V30 1492 O 139.111 -0.779345 -1.58919 0
M  V30 1493 C 136.24 -1.77956 -2.93576 0
M  V30 1494 C 135.326 -2.98243 -3.01516 0
M  V30 1495 N 135.717 -4.21732 -2.79241 0
M  V30 1496 C 134.015 -2.97072 -3.32662 0
M  V30 1497 C 134.716 -5.02817 -2.92489 0
M  V30 1498 N 133.692 -4.37038 -3.23262 0
M  V30 1499 H 137.494 -2.60163 -1.36721 0
M  V30 1500 H 135.008 -1.48163 -0.664952 0
M  V30 1501 H 137.005 -1.87671 -3.72271 0
M  V30 1502 H 135.665 -0.859634 -3.13114 0
M  V30 1503 H 136.676 -4.51016 -2.54567 0
M  V30 1504 H 133.353 -2.14631 -3.58106 0
M  V30 1505 H 134.743 -6.11054 -2.79396 0
M  V30 1506 N 137.463 0.71206 -1.40597 0
M  V30 1507 C 138.879 1.02058 -1.22704 0
M  V30 1508 C 139.079 2.01228 -0.104729 0
M  V30 1509 O 138.135 2.4674 0.53624 0
M  V30 1510 C 139.448 1.56094 -2.57012 0
M  V30 1511 C 140.996 1.6806 -2.64054 0
M  V30 1512 C 141.471 2.25501 -3.9864 0
M  V30 1513 N 142.962 2.32882 -4.004 0
M  V30 1514 C 143.697 2.78317 -5.01325 0
M  V30 1515 N 143.193 3.23478 -6.12645 0
M  V30 1516 N 144.986 2.77733 -4.88693 0
M  V30 1517 H 137.137 0.0547896 -2.12329 0
M  V30 1518 H 139.4 0.0869027 -0.944008 0
M  V30 1519 H 139.106 0.906865 -3.39807 0
M  V30 1520 H 138.98 2.54564 -2.78347 0
M  V30 1521 H 141.367 2.32583 -1.81629 0
M  V30 1522 H 141.448 0.681802 -2.46546 0
M  V30 1523 H 141.092 1.61598 -4.81506 0
M  V30 1524 H 141.022 3.26102 -4.13479 0
M  V30 1525 H 143.513 2.00991 -3.20017 0
M  V30 1526 H 143.826 3.56725 -6.85542 0
M  V30 1527 H 142.171 3.21429 -6.16205 0
M  V30 1528 H 145.362 2.4179 -4.00818 0
M  V30 1529 H 145.535 3.12826 -5.67489 0
M  V30 1530 N 138.941 1.26152 0.944643 0
M  V30 1531 C 140.188 1.11492 1.69044 0
M  V30 1532 C 140.516 -0.342366 1.91463 0
M  V30 1533 O 139.771 -1.26812 1.49054 0
M  V30 1534 C 140.07 1.82541 3.07268 0
M  V30 1535 C 139.736 3.32445 3.04616 0
M  V30 1536 C 138.398 3.73337 3.036 0
M  V30 1537 C 140.75 4.28171 2.97185 0
M  V30 1538 C 138.078 5.08348 2.92915 0
M  V30 1539 C 140.43 5.63218 2.88041 0
M  V30 1540 C 139.094 6.03426 2.85366 0
M  V30 1541 H 138.364 0.407977 0.618576 0
M  V30 1542 H 141.011 1.56551 1.10291 0
M  V30 1543 H 139.316 1.29941 3.69625 0
M  V30 1544 H 141.013 1.68642 3.63815 0
M  V30 1545 H 137.603 2.99915 3.06185 0
M  V30 1546 H 141.787 3.97563 2.97081 0
M  V30 1547 H 137.043 5.38667 2.89219 0
M  V30 1548 H 141.217 6.37078 2.81254 0
M  V30 1549 H 138.844 7.07999 2.76842 0
M  V30 1550 N 140.419 -1.14872 1.07899 0
M  V30 1551 C 141.665 -1.86064 0.806725 0
M  V30 1552 C 141.998 -1.82434 -0.665706 0
M  V30 1553 O 141.273 -1.25138 -1.48899 0
M  V30 1554 C 141.556 -3.34929 1.32267 0
M  V30 1555 C 141.409 -3.47161 2.86006 0
M  V30 1556 C 142.728 -4.29863 0.943717 0
M  V30 1557 H 139.847 -0.675591 0.294526 0
M  V30 1558 H 142.489 -1.34925 1.33773 0
M  V30 1559 H 140.639 -3.78611 0.870974 0
M  V30 1560 H 142.311 -3.12302 3.39507 0
M  V30 1561 H 140.554 -2.88539 3.23925 0
M  V30 1562 H 141.225 -4.51777 3.17177 0
M  V30 1563 H 143.701 -3.9417 1.33302 0
M  V30 1564 H 142.577 -5.32494 1.33198 0
M  V30 1565 H 142.838 -4.41846 -0.149796 0
M  V30 1566 N 141.898 -0.863906 -1.31812 0
M  V30 1567 C 143.145 -0.471836 -1.96926 0
M  V30 1568 C 143.473 0.974578 -1.68322 0
M  V30 1569 O 142.728 1.7003 -0.968933 0
M  V30 1570 C 143.027 -0.668547 -3.51091 0
M  V30 1571 C 142.693 -2.08683 -3.99703 0
M  V30 1572 C 141.355 -2.47471 -4.12688 0
M  V30 1573 C 143.707 -3.01207 -4.25351 0
M  V30 1574 C 141.035 -3.78037 -4.4867 0
M  V30 1575 C 143.387 -4.31282 -4.62794 0
M  V30 1576 C 142.051 -4.69992 -4.73987 0
M  V30 1577 H 141.321 -0.172657 -0.720604 0
M  V30 1578 H 143.968 -1.09573 -1.57054 0
M  V30 1579 H 142.273 0.0385252 -3.91781 0
M  V30 1580 H 143.97 -0.345102 -3.99512 0
M  V30 1581 H 140.56 -1.77566 -3.90087 0
M  V30 1582 H 144.744 -2.72469 -4.14819 0
M  V30 1583 H 140 -4.078 -4.55532 0
M  V30 1584 H 144.174 -5.03031 -4.81594 0
M  V30 1585 H 141.801 -5.71207 -5.01624 0
M  V30 1586 N 143.376 1.44774 -0.622745 0
M  V30 1587 C 144.323 2.30635 0.0871679 0
M  V30 1588 C 145.293 1.42994 0.845097 0
M  V30 1589 O 146.478 1.71907 0.827812 0
M  V30 1590 C 143.618 3.28144 1.06844 0
M  V30 1591 C 142.731 4.30888 0.309809 0
M  V30 1592 C 141.866 5.15494 1.28215 0
M  V30 1593 C 140.905 6.09953 0.512198 0
M  V30 1594 N 140.042 6.87287 1.43458 0
M  V30 1595 H 144.882 2.90803 -0.650974 0
M  V30 1596 H 142.419 1.43286 -0.33281 0
M  V30 1597 H 144.377 3.83157 1.65066 0
M  V30 1598 H 143.007 2.69695 1.77382 0
M  V30 1599 H 142.059 3.78414 -0.388181 0
M  V30 1600 H 143.371 4.97955 -0.290254 0
M  V30 1601 H 142.525 5.74983 1.93596 0
M  V30 1602 H 141.264 4.48481 1.91614 0
M  V30 1603 H 140.269 5.49581 -0.155151 0
M  V30 1604 H 141.494 6.78999 -0.116958 0
M  V30 1605 H 139.44 6.2295 2.05594 0
M  V30 1606 H 139.357 7.50763 0.888335 0
M  V30 1607 H 140.625 7.51306 2.07749 0
M  V30 1608 N 144.854 0.36279 1.53368 0
M  V30 1609 C 146.27 0.0116182 1.59596 0
M  V30 1610 C 146.47 -1.47012 1.37803 0
M  V30 1611 O 145.526 -2.23136 1.18181 0
M  V30 1612 C 146.839 0.465052 2.97082 0
M  V30 1613 C 148.387 0.419033 3.10182 0
M  V30 1614 C 148.862 0.848235 4.50077 0
M  V30 1615 N 150.353 0.803183 4.56183 0
M  V30 1616 C 151.088 1.107 5.62613 0
M  V30 1617 N 150.584 1.47996 6.76808 0
M  V30 1618 N 152.377 1.02998 5.52583 0
M  V30 1619 H 144.528 1.32775 1.65785 0
M  V30 1620 H 146.791 0.542518 0.777417 0
M  V30 1621 H 146.497 1.49892 3.18159 0
M  V30 1622 H 146.371 -0.149786 3.76902 0
M  V30 1623 H 148.758 -0.605696 2.88817 0
M  V30 1624 H 148.839 1.06933 2.32377 0
M  V30 1625 H 148.483 1.87107 4.7218 0
M  V30 1626 H 148.413 0.175218 5.26308 0
M  V30 1627 H 150.904 0.52838 3.74188 0
M  V30 1628 H 151.217 1.69613 7.53957 0
M  V30 1629 H 149.562 1.51859 6.78206 0
M  V30 1630 H 152.753 0.737817 4.62249 0
M  V30 1631 H 152.926 1.2701 6.35431 0
M  V30 1632 N 146.332 -1.57332 0.0918853 0
M  V30 1633 C 147.572 -1.96117 -0.575988 0
M  V30 1634 C 147.936 -0.972499 -1.65549 0
M  V30 1635 O 149.137 -1.24872 -2.38034 0
M  V30 1636 C 147.408 -3.39407 -1.11973 0
M  V30 1637 S 148.967 -4.00185 -1.79992 0
M  V30 1638 H 145.785 -0.685682 -0.188045 0
M  V30 1639 H 148.387 -1.94755 0.170525 0
M  V30 1640 H 147.091 -4.09131 -0.322504 0
M  V30 1641 H 146.622 -3.44358 -1.90214 0
M  V30 1642 H 148.637 -3.88728 -3.08391 0
M  V30 1643 N 147.81 0.181792 -1.56548 0
M  V30 1644 C 149.058 0.89832 -1.81038 0
M  V30 1645 C 149.379 1.83232 -0.667164 0
M  V30 1646 O 148.649 1.93372 0.313673 0
M  V30 1647 H 147.229 0.33471 -0.667816 0
M  V30 1648 H 149.891 0.184116 -1.94028 0
M  V30 1649 H 148.987 1.4815 -2.74696 0
M  V30 1650 N 149.288 1.51039 0.449983 0
M  V30 1651 C 150.699 1.557 1.03026 0
M  V30 1652 C 151.05 0.372939 1.92623 0
M  V30 1653 O 150.175 -0.511771 2.10261 0
M  V30 1654 C 150.77 2.82171 1.87523 0
M  V30 1655 C 149.329 2.89444 2.40622 0
M  V30 1656 C 148.476 2.50228 1.19504 0
M  V30 1657 H 151.427 1.56999 0.231745 0
M  V30 1658 H 151.448 2.65219 2.72835 0
M  V30 1659 H 150.96 3.68331 1.22286 0
M  V30 1660 H 149.061 2.07685 3.0935 0
M  V30 1661 H 149.174 3.92816 2.74285 0
M  V30 1662 H 147.538 2.03139 1.53644 0
M  V30 1663 H 148.321 3.38719 0.558972 0
M  V30 1664 N 150.766 -0.704594 1.40972 0
M  V30 1665 C 152.043 -1.45847 1.30338 0
M  V30 1666 C 152.423 -2.10973 -0.0732344 0
M  V30 1667 O 151.771 -2.00997 -1.08685 0
M  V30 1668 C 151.981 -2.48525 2.45023 0
M  V30 1669 C 153.329 -3.1404 2.8577 0
M  V30 1670 O 154.353 -2.58848 2.44696 0
M  V30 1671 O 153.212 -4.13981 3.56766 0
M  V30 1672 H 150.306 -0.649092 0.512454 0
M  V30 1673 H 152.852 -0.735836 1.52917 0
M  V30 1674 H 151.624 -1.98994 3.36923 0
M  V30 1675 H 151.247 -3.2831 2.24272 0
M  V30 1676 N 152.244 -1.26651 -0.937939 0
M  V30 1677 C 153.492 -1.12165 -1.68118 0
M  V30 1678 C 153.813 0.334983 -1.92101 0
M  V30 1679 O 153.083 1.23583 -1.52 0
M  V30 1680 H 151.663 -0.412093 -0.623048 0
M  V30 1681 H 154.325 -1.59027 -1.12678 0
M  V30 1682 H 153.421 -1.64289 -2.6536 0
M  V30 1683 N 153.722 1.14298 -1.08507 0
M  V30 1684 C 154.654 2.1907 -0.673859 0
M  V30 1685 C 155.667 1.60381 0.279577 0
M  V30 1686 O 156.856 1.78374 0.0670754 0
M  V30 1687 C 153.956 3.38888 0.0290979 0
M  V30 1688 C 153.129 4.27103 -0.943494 0
M  V30 1689 C 152.188 5.25477 -0.275676 0
M  V30 1690 O 151.214 5.61709 -0.920401 0
M  V30 1691 N 152.416 5.7227 0.974013 0
M  V30 1692 H 155.181 2.54965 -1.57521 0
M  V30 1693 H 152.742 1.29528 -0.971287 0
M  V30 1694 H 154.734 4.01761 0.48683 0
M  V30 1695 H 153.304 3.01309 0.832555 0
M  V30 1696 H 152.524 3.61149 -1.58004 0
M  V30 1697 H 153.812 4.82905 -1.60251 0
M  V30 1698 H 153.21 5.44965 1.51755 0
M  V30 1699 H 151.767 6.37127 1.37522 0
M  V30 1700 N 155.201 0.870884 1.31352 0
M  V30 1701 C 156.447 0.492314 1.97352 0
M  V30 1702 C 156.802 -0.945174 1.67583 0
M  V30 1703 O 156.095 -1.65674 0.962423 0
M  V30 1704 C 156.289 0.687157 3.50732 0
M  V30 1705 C 156.118 2.14203 3.95407 0
M  V30 1706 C 154.888 2.78382 4.21701 0
M  V30 1707 C 157.086 3.1144 4.09279 0
M  V30 1708 N 155.068 4.14611 4.52737 0
M  V30 1709 C 156.439 4.32702 4.44037 0
M  V30 1710 C 158.494 3.07418 3.91661 0
M  V30 1711 C 157.197 5.50463 4.63015 0
M  V30 1712 C 159.223 4.24438 4.11833 0
M  V30 1713 C 158.585 5.44463 4.46923 0
M  V30 1714 H 154.684 0.229206 0.747655 0
M  V30 1715 H 157.268 1.12568 1.5886 0
M  V30 1716 H 155.439 0.083384 3.8831 0
M  V30 1717 H 157.171 0.276883 4.03752 0
M  V30 1718 H 153.926 2.29326 4.14375 0
M  V30 1719 H 154.35 4.84928 4.72413 0
M  V30 1720 H 158.992 2.15732 3.6362 0
M  V30 1721 H 156.71 6.42666 4.89904 0
M  V30 1722 H 160.296 4.2278 3.99685 0
M  V30 1723 H 159.176 6.33504 4.62214 0
M  V30 1724 N 156.679 -1.44442 0.630414 0
M  V30 1725 C 157.925 -2.02351 0.134816 0
M  V30 1726 C 158.258 -1.4947 -1.23986 0
M  V30 1727 O 157.533 -0.678475 -1.82283 0
M  V30 1728 C 157.816 -3.59898 0.120707 0
M  V30 1729 C 157.669 -4.23063 1.52767 0
M  V30 1730 C 158.988 -4.36585 -0.555127 0
M  V30 1731 H 156.107 -0.73527 0.0504646 0
M  V30 1732 H 158.749 -1.72022 0.806751 0
M  V30 1733 H 156.899 -3.85868 -0.451477 0
M  V30 1734 H 158.571 -4.08202 2.14869 0
M  V30 1735 H 156.814 -3.80586 2.08175 0
M  V30 1736 H 157.485 -5.32071 1.46984 0
M  V30 1737 H 159.961 -4.16044 -0.0685429 0
M  V30 1738 H 158.837 -5.46294 -0.534185 0
M  V30 1739 H 159.098 -4.11138 -1.62535 0
M  V30 1740 N 158.157 -0.370918 -1.53173 0
M  V30 1741 C 159.573 -0.0200818 -1.59587 0
M  V30 1742 C 159.773 1.46279 -1.38581 0
M  V30 1743 O 158.829 2.22506 -1.19363 0
M  V30 1744 C 160.142 -0.4808 -2.96831 0
M  V30 1745 C 161.69 -0.435477 -3.09956 0
M  V30 1746 C 162.165 -0.872092 -4.4962 0
M  V30 1747 N 163.656 -0.827364 -4.55751 0
M  V30 1748 C 164.391 -1.13683 -5.62018 0
M  V30 1749 N 163.887 -1.51584 -6.76014 0
M  V30 1750 N 165.68 -1.05927 -5.52029 0
M  V30 1751 H 157.831 -1.33652 -1.65079 0
M  V30 1752 H 160.094 -0.546634 -0.774529 0
M  V30 1753 H 159.8 -1.51577 -3.1736 0
M  V30 1754 H 159.674 0.129796 -3.76977 0
M  V30 1755 H 162.061 0.590371 -2.89134 0
M  V30 1756 H 162.142 -1.08164 -2.31806 0
M  V30 1757 H 161.786 -1.89608 -4.71181 0
M  V30 1758 H 161.716 -0.203127 -5.26208 0
M  V30 1759 H 164.207 -0.548216 -3.73902 0
M  V30 1760 H 164.52 -1.73609 -7.53047 0
M  V30 1761 H 162.865 -1.55454 -6.77391 0
M  V30 1762 H 166.056 -0.762321 -4.61851 0
M  V30 1763 H 166.229 -1.30378 -6.34749 0
M  V30 1764 N 159.635 1.57281 -0.100228 0
M  V30 1765 C 160.883 1.94153 0.561157 0
M  V30 1766 C 161.204 0.983157 1.68401 0
M  V30 1767 O 160.474 0.0361132 1.95867 0
M  V30 1768 H 159.054 0.716791 0.210283 0
M  V30 1769 H 161.716 1.94202 -0.164765 0
M  V30 1770 H 160.812 2.96709 0.968008 0
M  V30 1771 N 161.113 -0.173488 1.56642 0
M  V30 1772 C 162.524 -0.736155 1.71574 0
M  V30 1773 C 162.875 -1.82888 0.710389 0
M  V30 1774 O 162 -2.16017 -0.1287 0
M  V30 1775 C 162.595 -1.34211 3.11083 0
M  V30 1776 C 161.154 -1.85162 3.27707 0
M  V30 1777 C 160.301 -0.729765 2.67525 0
M  V30 1778 H 163.252 0.0518786 1.58615 0
M  V30 1779 H 163.273 -2.21178 3.09613 0
M  V30 1780 H 162.785 -0.546579 3.84232 0
M  V30 1781 H 160.886 -2.67366 2.59512 0
M  V30 1782 H 160.999 -1.99855 4.35425 0
M  V30 1783 H 159.363 -1.14965 2.27278 0
M  V30 1784 H 160.146 0.0538806 3.43258 0
M  V30 1785 N 162.591 -1.51276 -0.441967 0
M  V30 1786 C 164.007 -1.39349 -0.778083 0
M  V30 1787 C 164.207 -0.472212 -1.95889 0
M  V30 1788 O 163.263 0.0743551 -2.5239 0
M  V30 1789 C 164.576 -2.81292 -1.0628 0
M  V30 1790 C 166.124 -2.9041 -1.16751 0
M  V30 1791 C 166.599 -4.33251 -1.48519 0
M  V30 1792 N 168.09 -4.36336 -1.55453 0
M  V30 1793 C 168.825 -5.43885 -1.81596 0
M  V30 1794 N 168.321 -6.61601 -2.05562 0
M  V30 1795 N 170.114 -5.3136 -1.8334 0
M  V30 1796 H 162.265 -2.09729 0.335774 0
M  V30 1797 H 164.528 -0.943925 0.0878028 0
M  V30 1798 H 164.234 -3.50678 -0.267905 0
M  V30 1799 H 164.108 -3.20334 -1.99163 0
M  V30 1800 H 166.495 -2.21225 -1.95304 0
M  V30 1801 H 166.576 -2.54871 -0.217801 0
M  V30 1802 H 166.22 -5.02984 -0.704958 0
M  V30 1803 H 166.15 -4.66299 -2.44689 0
M  V30 1804 H 168.641 -3.51466 -1.38853 0
M  V30 1805 H 168.954 -7.39361 -2.24867 0
M  V30 1806 H 167.299 -6.64725 -2.02894 0
M  V30 1807 H 170.49 -4.38382 -1.64132 0
M  V30 1808 H 170.663 -6.15258 -2.03377 0
M  V30 1809 N 164.069 0.697108 -1.41344 0
M  V30 1810 C 165.317 1.45426 -1.40341 0
M  V30 1811 C 165.638 1.94996 -0.0128787 0
M  V30 1812 O 164.908 1.71599 0.945027 0
M  V30 1813 H 163.488 0.539594 -0.516573 0
M  V30 1814 H 166.15 0.825201 -1.76569 0
M  V30 1815 H 165.246 2.31817 -2.08967 0
M  V30 1816 N 165.547 1.27147 0.931209 0
M  V30 1817 C 166.479 1.05364 2.03546 0
M  V30 1818 C 167.492 0.0108438 1.62796 0
M  V30 1819 O 168.681 0.25202 1.76712 0
M  V30 1820 C 165.781 0.575566 3.33977 0
M  V30 1821 C 164.954 1.68985 4.03439 0
M  V30 1822 C 164.013 1.20813 5.12143 0
M  V30 1823 O 163.039 1.90712 5.363 0
M  V30 1824 N 164.241 0.0618851 5.80467 0
M  V30 1825 H 167.006 2.00454 2.22796 0
M  V30 1826 H 164.567 1.18666 1.10136 0
M  V30 1827 H 166.559 0.237264 4.04004 0
M  V30 1828 H 165.129 -0.282016 3.11325 0
M  V30 1829 H 164.349 2.19861 3.27192 0
M  V30 1830 H 165.637 2.4378 4.46597 0
M  V30 1831 H 165.035 -0.521621 5.6329 0
M  V30 1832 H 163.592 -0.217264 6.51438 0
M  V30 1833 N 167.025 -1.13721 1.09112 0
M  V30 1834 C 168.436 -1.6648 0.845068 0
M  V30 1835 C 168.787 -1.85911 -0.62701 0
M  V30 1836 O 167.912 -1.57556 -1.48341 0
M  V30 1837 C 168.507 -3.02413 1.52748 0
M  V30 1838 C 167.066 -3.52176 1.32849 0
M  V30 1839 C 166.213 -2.27492 1.58564 0
M  V30 1840 H 169.164 -0.976872 1.25072 0
M  V30 1841 H 169.185 -3.68223 0.958752 0
M  V30 1842 H 168.697 -2.88238 2.59885 0
M  V30 1843 H 166.798 -3.7156 0.278137 0
M  V30 1844 H 166.911 -4.32499 2.0611 0
M  V30 1845 H 165.275 -2.33923 1.00758 0
M  V30 1846 H 166.058 -2.15886 2.66924 0
M  V30 1847 N 168.503 -0.877838 -1.30888 0
M  V30 1848 C 169.749 -0.502773 -1.97088 0
M  V30 1849 C 170.104 0.936274 -1.68082 0
M  V30 1850 O 169.397 1.65162 -0.971196 0
M  V30 1851 C 169.591 -0.705748 -3.50363 0
M  V30 1852 C 169.42 -2.16297 -3.94266 0
M  V30 1853 C 168.19 -2.80614 -4.20219 0
M  V30 1854 C 170.388 -3.13606 -4.07622 0
M  V30 1855 N 168.37 -4.17007 -4.50532 0
M  V30 1856 C 169.741 -4.35051 -4.41736 0
M  V30 1857 C 171.796 -3.09491 -3.90026 0
M  V30 1858 C 170.499 -5.52911 -4.60089 0
M  V30 1859 C 172.525 -4.26616 -4.09576 0
M  V30 1860 C 171.887 -5.46825 -4.44029 0
M  V30 1861 H 167.986 -0.233168 -0.746429 0
M  V30 1862 H 170.57 -1.13408 -1.58261 0
M  V30 1863 H 168.741 -0.103976 -3.88261 0
M  V30 1864 H 170.473 -0.298291 -4.03599 0
M  V30 1865 H 167.228 -2.3152 -4.13153 0
M  V30 1866 H 167.652 -4.87426 -4.69834 0
M  V30 1867 H 172.294 -2.17657 -3.62471 0
M  V30 1868 H 170.012 -6.45255 -4.86489 0
M  V30 1869 H 173.598 -4.24894 -3.97438 0
M  V30 1870 H 172.478 -6.35947 -4.58848 0
M  V30 1871 N 169.982 1.44106 -0.638065 0
M  V30 1872 C 171.398 1.56672 -0.304286 0
M  V30 1873 C 171.598 1.6244 1.19228 0
M  V30 1874 O 170.654 1.57121 1.9766 0
M  V30 1875 C 171.967 2.83503 -1.00231 0
M  V30 1876 C 173.515 2.97226 -0.981116 0
M  V30 1877 C 173.99 4.26868 -1.65974 0
M  V30 1878 N 175.481 4.33698 -1.62666 0
M  V30 1879 C 176.216 5.32745 -2.12063 0
M  V30 1880 N 175.712 6.38157 -2.6968 0
M  V30 1881 N 177.505 5.24299 -2.02651 0
M  V30 1882 H 169.656 1.38605 -1.60942 0
M  V30 1883 H 171.919 0.664661 -0.675965 0
M  V30 1884 H 171.625 2.85251 -2.0573 0
M  V30 1885 H 171.499 3.73251 -0.54439 0
M  V30 1886 H 173.886 2.95027 0.0654188 0
M  V30 1887 H 173.967 2.08808 -1.47759 0
M  V30 1888 H 173.611 4.29826 -2.70576 0
M  V30 1889 H 173.541 5.14156 -1.13804 0
M  V30 1890 H 176.032 3.58138 -1.20606 0
M  V30 1891 H 176.345 7.10029 -3.05087 0
M  V30 1892 H 174.69 6.38823 -2.73734 0
M  V30 1893 H 177.881 4.4086 -1.57353 0
M  V30 1894 H 178.054 6.01334 -2.41457 0
M  V30 1895 N 171.46 0.379036 1.52974 0
M  V30 1896 C 172.737 -0.263479 1.93817 0
M  V30 1897 C 173.117 -1.65244 1.31368 0
M  V30 1898 O 172.465 -2.23448 0.477856 0
M  V30 1899 C 172.675 -0.300166 3.47707 0
M  V30 1900 C 174.023 -0.534061 4.21228 0
M  V30 1901 O 175.047 -0.38081 3.54159 0
M  V30 1902 O 173.906 -0.833501 5.40106 0
M  V30 1903 H 171 -0.161149 0.811147 0
M  V30 1904 H 173.546 0.432798 1.64088 0
M  V30 1905 H 172.318 0.673138 3.85467 0
M  V30 1906 H 171.941 -1.04179 3.83709 0
M  V30 1907 N 172.938 -1.57226 0.108567 0
M  V30 1908 C 173.901 -2.13602 -0.831082 0
M  V30 1909 C 174.901 -1.06841 -1.20173 0
M  V30 1910 O 176.091 -1.32666 -1.12895 0
M  V30 1911 C 173.223 -2.66769 -2.12243 0
M  V30 1912 H 174.416 -2.97951 -0.341317 0
M  V30 1913 H 171.969 -1.55667 -0.14057 0
M  V30 1914 H 172.704 -1.85977 -2.65675 0
M  V30 1915 H 172.489 -3.44839 -1.86625 0
M  V30 1916 H 173.979 -3.10332 -2.79435 0
M  V30 1917 N 174.416 0.165178 -1.56732 0
M  V30 1918 C 175.641 0.900253 -1.86843 0
M  V30 1919 C 176.066 1.74766 -0.695596 0
M  V30 1920 O 175.424 1.77786 0.35522 0
M  V30 1921 C 175.472 1.74777 -3.15413 0
M  V30 1922 O 174.576 2.85007 -2.98068 0
M  V30 1923 H 173.917 0.251832 -0.614391 0
M  V30 1924 H 176.447 0.161468 -2.03962 0
M  V30 1925 H 176.457 2.14646 -3.46974 0
M  V30 1926 H 175.132 1.12537 -4.00385 0
M  V30 1927 H 173.709 2.48676 -2.77875 0
M  V30 1928 N 175.894 1.51508 0.433938 0
M  V30 1929 C 176.826 1.69266 1.54537 0
M  V30 1930 C 177.839 0.573276 1.52373 0
M  V30 1931 O 179.028 0.847698 1.57087 0
M  V30 1932 C 176.128 1.69524 2.93453 0
M  V30 1933 C 175.301 2.98101 3.20085 0
M  V30 1934 C 174.36 2.90502 4.38742 0
M  V30 1935 O 173.386 3.64442 4.3723 0
M  V30 1936 N 174.588 2.06586 5.42496 0
M  V30 1937 H 177.353 2.65145 1.39708 0
M  V30 1938 H 174.914 1.49437 0.622922 0
M  V30 1939 H 176.906 1.62004 3.70859 0
M  V30 1940 H 175.476 0.812245 3.01863 0
M  V30 1941 H 174.696 3.19464 2.30947 0
M  V30 1942 H 175.984 3.83207 3.34708 0
M  V30 1943 H 175.382 1.45896 5.46563 0
M  V30 1944 H 173.939 2.04943 6.18742 0
M  V30 1945 N 177.372 -0.689602 1.41712 0
M  V30 1946 C 178.612 -1.46184 1.42862 0
M  V30 1947 C 178.976 -1.91962 0.0382204 0
M  V30 1948 O 180.177 -2.68694 -0.0755019 0
M  V30 1949 C 178.448 -2.6371 2.4123 0
M  V30 1950 S 180.007 -3.52768 2.6096 0
M  V30 1951 H 176.825 -0.49947 0.506015 0
M  V30 1952 H 179.427 -0.804107 1.78198 0
M  V30 1953 H 178.131 -2.28293 3.41044 0
M  V30 1954 H 177.662 -3.3437 2.07269 0
M  V30 1955 H 179.677 -4.59146 1.88148 0
M  V30 1956 N 178.85 -1.27639 -0.924453 0
M  V30 1957 C 179.782 -1.06442 -2.02985 0
M  V30 1958 C 180.795 -0.0194771 -1.62788 0
M  V30 1959 O 181.984 -0.261388 -1.76576 0
M  V30 1960 C 179.084 -0.59327 -3.33667 0
M  V30 1961 C 178.257 -1.71123 -4.02537 0
M  V30 1962 C 177.316 -1.23527 -5.11495 0
M  V30 1963 O 176.342 -1.93553 -5.35281 0
M  V30 1964 N 177.544 -0.0926678 -5.80426 0
M  V30 1965 H 180.309 -2.01633 -2.2173 0
M  V30 1966 H 177.87 -1.19248 -1.09505 0
M  V30 1967 H 179.862 -0.258686 -4.03872 0
M  V30 1968 H 178.432 0.265502 -3.1147 0
M  V30 1969 H 177.652 -2.21593 -3.26022 0
M  V30 1970 H 178.94 -2.46145 -4.45298 0
M  V30 1971 H 178.338 0.491741 -5.63559 0
M  V30 1972 H 176.895 0.182714 -6.51544 0
M  V30 1973 N 180.328 1.1314 -1.09713 0
M  V30 1974 C 181.261 2.17735 -0.683137 0
M  V30 1975 C 182.239 1.59582 0.311841 0
M  V30 1976 O 183.423 1.87298 0.212514 0
M  V30 1977 C 180.55 3.38699 -0.00684324 0
M  V30 1978 C 179.596 4.1546 -0.964102 0
M  V30 1979 S 180.429 4.74733 -2.47767 0
M  V30 1980 C 181.585 5.9904 -1.81387 0
M  V30 1981 H 181.818 2.52515 -1.56918 0
M  V30 1982 H 179.351 1.24484 -0.913404 0
M  V30 1983 H 181.309 4.08765 0.377044 0
M  V30 1984 H 179.97 3.02214 0.85589 0
M  V30 1985 H 179.163 5.02093 -0.43803 0
M  V30 1986 H 178.765 3.51066 -1.28953 0
M  V30 1987 H 181.057 6.67846 -1.13967 0
M  V30 1988 H 182 6.56261 -2.65947 0
M  V30 1989 H 182.408 5.4976 -1.28155 0
M  V30 1990 N 181.806 0.884767 1.30421 0
M  V30 1991 C 183.083 0.423185 1.90967 0
M  V30 1992 C 183.463 -1.09605 1.80416 0
M  V30 1993 O 182.811 -1.93126 1.22125 0
M  V30 1994 C 183.021 0.921056 3.36627 0
M  V30 1995 C 184.369 0.955903 4.137 0
M  V30 1996 O 185.393 0.867706 3.4547 0
M  V30 1997 O 184.252 1.08614 5.35598 0
M  V30 1998 H 181.346 0.129369 0.816819 0
M  V30 1999 H 183.892 0.973653 1.3899 0
M  V30 2000 H 182.664 1.96489 3.3839 0
M  V30 2001 H 182.287 0.349741 3.96059 0
M  V30 2002 N 183.284 -1.43765 0.645699 0
M  V30 2003 C 184.532 -2.01499 0.155731 0
M  V30 2004 C 184.853 -1.51151 -1.232 0
M  V30 2005 O 184.123 -0.721044 -1.82148 0
M  V30 2006 H 182.703 -0.745003 0.0545817 0
M  V30 2007 H 185.365 -1.76075 0.835677 0
M  V30 2008 H 184.461 -3.1181 0.134577 0
M  V30 2009 N 184.763 -0.387143 -1.52771 0
M  V30 2010 C 185.673 0.456442 -2.30117 0
M  V30 2011 C 186.689 1.07342 -1.36944 0
M  V30 2012 O 187.865 1.07971 -1.70013 0
M  V30 2013 C 184.93 1.56957 -3.09136 0
M  V30 2014 C 183.991 0.977916 -4.18014 0
M  V30 2015 C 183.224 2.038 -4.93256 0
M  V30 2016 O 183.447 3.25271 -4.68567 0
M  V30 2017 O 182.381 1.6565 -5.78657 0
M  V30 2018 H 186.207 -0.17359 -3.03203 0
M  V30 2019 H 183.792 -0.150919 -1.48636 0
M  V30 2020 H 185.674 2.21628 -3.58412 0
M  V30 2021 H 184.349 2.18461 -2.38865 0
M  V30 2022 H 183.256 0.294525 -3.72939 0
M  V30 2023 H 184.589 0.407128 -4.90513 0
M  V30 2024 N 186.241 1.57166 -0.116904 0
M  V30 2025 C 187.151 2.18745 0.847812 0
M  V30 2026 C 188.167 1.163 1.29423 0
M  V30 2027 O 189.343 1.48761 1.35765 0
M  V30 2028 C 186.408 2.77307 2.0809 0
M  V30 2029 C 185.469 3.94781 1.68661 0
M  V30 2030 C 184.702 4.50541 2.86091 0
M  V30 2031 O 184.925 4.05202 4.01456 0
M  V30 2032 O 183.859 5.41256 2.63298 0
M  V30 2033 H 187.685 3.01632 0.353778 0
M  V30 2034 H 185.27 1.49005 0.108599 0
M  V30 2035 H 187.152 3.14647 2.80313 0
M  V30 2036 H 185.827 1.97452 2.56504 0
M  V30 2037 H 184.734 3.62214 0.935518 0
M  V30 2038 H 186.067 4.76065 1.24991 0
M  V30 2039 N 187.719 -0.156864 1.56817 0
M  V30 2040 C 188.968 -0.869504 1.81996 0
M  V30 2041 C 189.281 -1.82777 0.696545 0
M  V30 2042 O 190.487 -2.58384 0.833658 0
M  V30 2043 C 188.943 -1.59679 3.22538 0
M  V30 2044 C 188.551 -0.681431 4.42787 0
M  V30 2045 C 190.295 -2.2968 3.56997 0
M  V30 2046 C 188.202 -1.40978 5.74351 0
M  V30 2047 H 187.132 -0.328438 0.678708 0
M  V30 2048 H 189.783 -0.1223 1.83092 0
M  V30 2049 H 188.165 -2.38927 3.158 0
M  V30 2050 H 189.339 0.0751166 4.60739 0
M  V30 2051 H 187.654 -0.0903431 4.16302 0
M  V30 2052 H 190.251 -2.84794 4.52544 0
M  V30 2053 H 190.594 -3.05707 2.82576 0
M  V30 2054 H 191.127 -1.57361 3.65352 0
M  V30 2055 H 187.866 -0.691561 6.51842 0
M  V30 2056 H 187.386 -2.13929 5.60352 0
M  V30 2057 H 189.065 -1.95337 6.16808 0
M  V30 2058 N 189.197 -1.51736 -0.425897 0
M  V30 2059 C 190.107 -1.76738 -1.54275 0
M  V30 2060 C 191.123 -0.65211 -1.61318 0
M  V30 2061 O 192.299 -0.935654 -1.78346 0
M  V30 2062 C 189.364 -1.89755 -2.90162 0
M  V30 2063 C 188.425 -3.13633 -2.93143 0
M  V30 2064 C 187.658 -3.2602 -4.22548 0
M  V30 2065 O 187.881 -2.44067 -5.15546 0
M  V30 2066 O 186.815 -4.19071 -4.32046 0
M  V30 2067 H 190.641 -2.71502 -1.36089 0
M  V30 2068 H 188.226 -1.36376 -0.610069 0
M  V30 2069 H 190.108 -2.00236 -3.70788 0
M  V30 2070 H 188.783 -0.981785 -3.08452 0
M  V30 2071 H 187.69 -3.08622 -2.11431 0
M  V30 2072 H 189.023 -4.04936 -2.798 0
M  V30 2073 N 190.675 0.682077 -1.42076 0
M  V30 2074 C 191.921 1.44428 -1.42367 0
M  V30 2075 C 192.254 1.94164 -0.0373056 0
M  V30 2076 O 191.529 1.70429 0.937239 0
M  V30 2077 C 191.812 2.64654 -2.44194 0
M  V30 2078 C 191.665 2.20596 -3.91991 0
M  V30 2079 C 192.984 3.66865 -2.431 0
M  V30 2080 H 190.103 0.523834 -0.518428 0
M  V30 2081 H 192.745 0.77576 -1.73442 0
M  V30 2082 H 190.895 3.2169 -2.17826 0
M  V30 2083 H 192.567 1.68783 -4.29313 0
M  V30 2084 H 190.81 1.52242 -4.06208 0
M  V30 2085 H 191.481 3.06921 -4.58807 0
M  V30 2086 H 193.957 3.19531 -2.66532 0
M  V30 2087 H 192.833 4.48577 -3.16339 0
M  V30 2088 H 193.094 4.17493 -1.45437 0
M  V30 2089 N 192.153 1.28127 0.917671 0
M  V30 2090 C 193.085 1.07517 2.02417 0
M  V30 2091 C 194.098 0.0281099 1.62776 0
M  V30 2092 O 195.287 0.270748 1.76435 0
M  V30 2093 C 192.387 0.610957 3.33347 0
M  V30 2094 C 191.56 1.73255 4.01624 0
M  V30 2095 C 190.619 1.26238 5.10833 0
M  V30 2096 O 189.645 1.96389 5.34247 0
M  V30 2097 N 190.847 0.123448 5.80369 0
M  V30 2098 H 193.612 2.02806 2.20658 0
M  V30 2099 H 191.173 1.19827 1.08871 0
M  V30 2100 H 193.165 0.280101 4.0373 0
M  V30 2101 H 191.735 -0.24898 3.11607 0
M  V30 2102 H 190.955 2.23319 3.24842 0
M  V30 2103 H 192.243 2.48503 4.43986 0
M  V30 2104 H 191.641 -0.461847 5.63812 0
M  V30 2105 H 190.198 -0.148158 6.51632 0
M  V30 2106 N 193.631 -1.12557 1.10312 0
M  V30 2107 C 194.578 -2.18247 0.750781 0
M  V30 2108 C 195.548 -1.63853 -0.272293 0
M  V30 2109 O 196.733 -1.90195 -0.151862 0
M  V30 2110 C 193.873 -3.44591 0.187379 0
M  V30 2111 C 192.986 -4.13046 1.2656 0
M  V30 2112 C 192.121 -5.27034 0.663978 0
M  V30 2113 C 191.16 -5.87353 1.72287 0
M  V30 2114 N 190.297 -6.92757 1.1416 0
M  V30 2115 H 195.137 -2.47732 1.65628 0
M  V30 2116 H 192.674 -1.21629 0.827337 0
M  V30 2117 H 194.632 -4.16904 -0.157148 0
M  V30 2118 H 193.262 -3.15527 -0.681355 0
M  V30 2119 H 192.314 -3.38924 1.72727 0
M  V30 2120 H 193.626 -4.53947 2.06721 0
M  V30 2121 H 192.78 -6.06104 0.268824 0
M  V30 2122 H 191.519 -4.87407 -0.169082 0
M  V30 2123 H 190.524 -5.06971 2.12746 0
M  V30 2124 H 191.749 -6.29051 2.55875 0
M  V30 2125 H 189.695 -6.5517 0.329984 0
M  V30 2126 H 189.612 -7.3225 1.88007 0
M  V30 2127 H 190.88 -7.75658 0.772956 0
M  V30 2128 N 195.109 -0.891671 -1.2995 0
M  V30 2129 C 196.019 -0.367691 -2.31701 0
M  V30 2130 C 197.035 0.533486 -1.6562 0
M  V30 2131 O 198.211 0.424997 -1.96865 0
M  V30 2132 C 195.276 0.403406 -3.44345 0
M  V30 2133 C 194.337 -0.528328 -4.26037 0
M  V30 2134 C 193.57 0.206063 -5.33302 0
M  V30 2135 O 193.793 1.43119 -5.52153 0
M  V30 2136 O 192.727 -0.447281 -6.00236 0
M  V30 2137 H 196.553 -1.21163 -2.78484 0
M  V30 2138 H 194.138 -0.655725 -1.34241 0
M  V30 2139 H 196.02 0.839753 -4.12948 0
M  V30 2140 H 194.695 1.22354 -2.99685 0
M  V30 2141 H 193.602 -1.01362 -3.60106 0
M  V30 2142 H 194.935 -1.31465 -4.74318 0
M  V30 2143 N 196.587 1.43421 -0.653314 0
M  V30 2144 C 197.833 2.02111 -0.166992 0
M  V30 2145 C 198.166 1.51423 1.21592 0
M  V30 2146 O 197.441 0.707389 1.8118 0
M  V30 2147 C 197.724 3.5966 -0.177948 0
M  V30 2148 C 197.577 4.20579 -1.59478 0
M  V30 2149 C 198.896 4.37413 0.4856 0
M  V30 2150 H 196.015 0.734374 -0.0621557 0
M  V30 2151 H 198.657 1.70717 -0.834016 0
M  V30 2152 H 196.807 3.86537 0.390032 0
M  V30 2153 H 198.479 4.04732 -2.21336 0
M  V30 2154 H 196.722 3.77226 -2.14204 0
M  V30 2155 H 197.393 5.29665 -1.5543 0
M  V30 2156 H 199.869 4.161 0.00234528 0
M  V30 2157 H 198.745 5.47075 0.447207 0
M  V30 2158 H 199.006 4.13672 1.55974 0
M  V30 2159 N 198.065 0.39524 1.52563 0
M  V30 2160 C 199.028 -0.425001 2.25225 0
M  V30 2161 C 200.028 -0.985266 1.27079 0
M  V30 2162 O 201.218 -0.866332 1.5113 0
M  V30 2163 C 198.35 -1.59686 3.01186 0
M  V30 2164 H 199.543 0.211233 2.99155 0
M  V30 2165 H 197.096 0.147472 1.55603 0
M  V30 2166 H 197.831 -2.27035 2.31572 0
M  V30 2167 H 197.616 -1.20176 3.73229 0
M  V30 2168 H 199.106 -2.17743 3.5634 0
M  V30 2169 N 199.544 -1.57102 0.125237 0
M  V30 2170 C 200.491 -2.15641 -0.822655 0
M  V30 2171 C 201.461 -1.08313 -1.25927 0
M  V30 2172 O 202.646 -1.36251 -1.33567 0
M  V30 2173 C 199.786 -2.76504 -2.06494 0
M  V30 2174 C 198.899 -3.98158 -1.67612 0
M  V30 2175 C 198.034 -4.47088 -2.86854 0
M  V30 2176 C 197.073 -5.6126 -2.44242 0
M  V30 2177 N 196.21 -6.04905 -3.56419 0
M  V30 2178 H 201.05 -2.96313 -0.316625 0
M  V30 2179 H 198.587 -1.46388 -0.144588 0
M  V30 2180 H 200.545 -3.09925 -2.79289 0
M  V30 2181 H 199.175 -1.98512 -2.54545 0
M  V30 2182 H 198.227 -3.70858 -0.846661 0
M  V30 2183 H 199.539 -4.80934 -1.32301 0
M  V30 2184 H 198.693 -4.82451 -3.67867 0
M  V30 2185 H 197.432 -3.63275 -3.25396 0
M  V30 2186 H 196.437 -5.25495 -1.61663 0
M  V30 2187 H 197.662 -6.46843 -2.0681 0
M  V30 2188 H 195.608 -5.24032 -3.94623 0
M  V30 2189 H 195.525 -6.82552 -3.25051 0
M  V30 2190 H 196.793 -6.44907 -4.37853 0
M  V30 2191 N 201.022 0.148545 -1.56898 0
M  V30 2192 C 201.955 1.21293 -1.93296 0
M  V30 2193 C 202.933 1.41637 -0.798599 0
M  V30 2194 O 204.117 1.56275 -1.05406 0
M  V30 2195 C 201.244 2.5721 -2.20365 0
M  V30 2196 C 200.29 2.53469 -3.4301 0
M  V30 2197 S 201.123 2.00315 -4.96623 0
M  V30 2198 C 202.279 3.37964 -5.26812 0
M  V30 2199 H 202.512 0.902393 -2.83274 0
M  V30 2200 H 200.045 0.354094 -1.50285 0
M  V30 2201 H 202.003 3.35427 -2.36641 0
M  V30 2202 H 200.664 2.85454 -1.31054 0
M  V30 2203 H 199.857 3.53518 -3.59223 0
M  V30 2204 H 199.459 1.83359 -3.25968 0
M  V30 2205 H 201.751 4.34066 -5.20185 0
M  V30 2206 H 202.694 3.26606 -6.28279 0
M  V30 2207 H 203.102 3.35028 -4.54331 0
M  V30 2208 N 202.5 1.5196 0.417844 0
M  V30 2209 C 203.73 1.69181 1.18581 0
M  V30 2210 C 204.138 0.397104 1.84986 0
M  V30 2211 O 203.481 -0.636011 1.72339 0
M  V30 2212 C 203.543 2.76497 2.29759 0
M  V30 2213 C 203.207 4.18514 1.83563 0
M  V30 2214 C 204.204 5.02648 1.32821 0
M  V30 2215 C 201.889 4.64708 1.90661 0
M  V30 2216 C 203.883 6.31044 0.897894 0
M  V30 2217 C 201.57 5.93096 1.47241 0
M  V30 2218 C 202.568 6.76093 0.968891 0
M  V30 2219 O 202.256 8.02078 0.540924 0
M  V30 2220 H 201.988 0.570457 0.362705 0
M  V30 2221 H 204.542 1.99249 0.498885 0
M  V30 2222 H 202.772 2.41786 3.01789 0
M  V30 2223 H 204.461 2.82403 2.91553 0
M  V30 2224 H 205.227 4.68154 1.26716 0
M  V30 2225 H 201.106 4.00216 2.28797 0
M  V30 2226 H 204.65 6.95776 0.504192 0
M  V30 2227 H 200.547 6.271 1.53022 0
M  V30 2228 H 201.315 8.15794 0.66502 0
M  V30 2229 N 203.978 -0.674533 1.42435 0
M  V30 2230 C 205.203 -1.46784 1.46524 0
M  V30 2231 C 205.628 -1.87938 0.078066 0
M  V30 2232 O 204.986 -1.56014 -0.92354 0
M  V30 2233 C 205.034 -2.69307 2.39805 0
M  V30 2234 O 204.138 -3.67587 1.86959 0
M  V30 2235 H 203.479 -0.440959 0.496439 0
M  V30 2236 H 206.009 -0.827326 1.87127 0
M  V30 2237 H 206.019 -3.17374 2.56393 0
M  V30 2238 H 204.694 -2.38692 3.40586 0
M  V30 2239 H 203.271 -3.2662 1.79927 0
M  V30 2240 N 205.456 -1.28612 -0.910864 0
M  V30 2241 C 206.681 -1.1891 -1.69927 0
M  V30 2242 C 207.106 0.248372 -1.86453 0
M  V30 2243 O 206.464 1.17961 -1.37676 0
M  V30 2244 C 206.512 -1.89578 -3.06745 0
M  V30 2245 O 205.616 -1.20521 -3.94396 0
M  V30 2246 H 204.957 -0.412632 -0.520222 0
M  V30 2247 H 207.487 -1.69985 -1.1387 0
M  V30 2248 H 207.497 -1.97597 -3.56958 0
M  V30 2249 H 206.172 -2.94136 -2.94035 0
M  V30 2250 H 204.749 -1.20684 -3.52831 0
M  V30 2251 N 206.934 1.1197 -1.10907 0
M  V30 2252 C 208.181 1.83588 -0.854507 0
M  V30 2253 C 208.509 1.84357 0.6199 0
M  V30 2254 O 207.764 1.28809 1.47332 0
M  V30 2255 C 208.063 3.30749 -1.35425 0
M  V30 2256 C 207.729 3.50146 -2.84093 0
M  V30 2257 C 206.391 3.55148 -3.2469 0
M  V30 2258 C 208.743 3.56857 -3.79872 0
M  V30 2259 C 206.071 3.6441 -4.59806 0
M  V30 2260 C 208.423 3.6765 -5.14797 0
M  V30 2261 C 207.087 3.7091 -5.54961 0
M  V30 2262 H 206.357 0.671795 -0.312686 0
M  V30 2263 H 209.004 1.32091 -1.38652 0
M  V30 2264 H 207.309 3.84703 -0.742361 0
M  V30 2265 H 209.006 3.8464 -1.1337 0
M  V30 2266 H 205.596 3.46919 -2.51685 0
M  V30 2267 H 209.78 3.52258 -3.49611 0
M  V30 2268 H 205.036 3.65208 -4.9034 0
M  V30 2269 H 209.21 3.71786 -5.88853 0
M  V30 2270 H 206.837 3.7784 -6.59652 0
M  V30 2271 N 208.412 0.89855 1.29475 0
M  V30 2272 C 209.344 0.332726 2.26772 0
M  V30 2273 C 210.357 -0.520323 1.54261 0
M  V30 2274 O 211.546 -0.337668 1.75277 0
M  V30 2275 C 208.646 -0.544334 3.345 0
M  V30 2276 C 207.819 0.282728 4.36485 0
M  V30 2277 C 206.878 -0.526982 5.23555 0
M  V30 2278 O 205.904 0.0551165 5.69173 0
M  V30 2279 N 207.106 -1.83331 5.5079 0
M  V30 2280 H 209.871 1.16897 2.75962 0
M  V30 2281 H 207.432 0.762919 1.42798 0
M  V30 2282 H 209.424 -1.09239 3.89678 0
M  V30 2283 H 207.994 -1.28127 2.85136 0
M  V30 2284 H 207.214 1.01221 3.80983 0
M  V30 2285 H 208.502 0.84918 5.01664 0
M  V30 2286 H 207.9 -2.32898 5.15534 0
M  V30 2287 H 206.457 -2.32852 6.08788 0
M  V30 2288 N 209.89 -1.43072 0.660911 0
M  V30 2289 C 211.136 -2.0202 0.177708 0
M  V30 2290 C 211.469 -1.52066 -1.20787 0
M  V30 2291 O 210.744 -0.716987 -1.80802 0
M  V30 2292 C 211.027 -3.59561 0.197019 0
M  V30 2293 C 210.88 -4.19727 1.61706 0
M  V30 2294 C 212.199 -4.37664 -0.462396 0
M  V30 2295 H 209.318 -0.734034 0.0660494 0
M  V30 2296 H 211.96 -1.70272 0.843058 0
M  V30 2297 H 210.11 -3.86739 -0.369527 0
M  V30 2298 H 211.782 -4.03553 2.23479 0
M  V30 2299 H 210.025 -3.76084 2.16201 0
M  V30 2300 H 210.696 -5.28834 1.58237 0
M  V30 2301 H 213.172 -4.16095 0.0197215 0
M  V30 2302 H 212.048 -5.47305 -0.418188 0
M  V30 2303 H 212.309 -4.14493 -1.53778 0
M  V30 2304 N 211.368 -0.403325 -1.52352 0
M  V30 2305 C 212.301 0.469463 -2.23319 0
M  V30 2306 C 213.279 1.05272 -1.23922 0
M  V30 2307 O 214.463 1.10169 -1.52954 0
M  V30 2308 C 211.59 1.6511 -2.9573 0
M  V30 2309 C 210.636 1.19178 -4.0951 0
M  V30 2310 S 211.469 0.161718 -5.35256 0
M  V30 2311 C 212.625 1.34882 -6.11194 0
M  V30 2312 H 212.858 -0.133134 -2.97002 0
M  V30 2313 H 210.391 -0.187588 -1.53256 0
M  V30 2314 H 212.349 2.3287 -3.38056 0
M  V30 2315 H 211.01 2.22503 -2.21701 0
M  V30 2316 H 210.203 2.07444 -4.59329 0
M  V30 2317 H 209.805 0.592911 -3.6927 0
M  V30 2318 H 212.097 2.27345 -6.38217 0
M  V30 2319 H 213.04 0.89128 -7.02468 0
M  V30 2320 H 213.448 1.57198 -5.42171 0
M  V30 2321 N 212.846 1.57033 -0.133567 0
M  V30 2322 C 214.076 1.99754 0.527429 0
M  V30 2323 C 214.484 1.01245 1.59832 0
M  V30 2324 O 213.827 -0.000645496 1.837 0
M  V30 2325 C 213.889 3.38903 1.19939 0
M  V30 2326 C 213.553 4.56174 0.274709 0
M  V30 2327 C 214.55 5.17563 -0.492398 0
M  V30 2328 C 212.235 5.01972 0.18153 0
M  V30 2329 C 214.229 6.2315 -1.34027 0
M  V30 2330 C 211.916 6.07416 -0.669958 0
M  V30 2331 C 212.914 6.67874 -1.42947 0
M  V30 2332 O 212.602 7.71279 -2.2668 0
M  V30 2333 H 212.334 0.660702 0.142999 0
M  V30 2334 H 214.888 2.04207 -0.221099 0
M  V30 2335 H 213.118 3.31248 1.99528 0
M  V30 2336 H 214.807 3.65818 1.75875 0
M  V30 2337 H 215.573 4.83087 -0.430367 0
M  V30 2338 H 211.452 4.54652 0.762422 0
M  V30 2339 H 214.996 6.70268 -1.93357 0
M  V30 2340 H 210.893 6.41321 -0.73333 0
M  V30 2341 H 211.661 7.88441 -2.1978 0
M  V30 2342 N 214.325 -0.140222 1.56975 0
M  V30 2343 C 215.553 -0.866437 1.87884 0
M  V30 2344 C 215.968 -1.74428 0.722517 0
M  V30 2345 O 215.325 -1.79891 -0.30749 0
M  V30 2346 C 215.376 -1.71753 3.18093 0
M  V30 2347 O 215.097 -0.875056 4.29272 0
M  V30 2348 C 216.598 -2.55074 3.62563 0
M  V30 2349 H 213.818 -0.25019 0.622612 0
M  V30 2350 H 216.362 -0.130977 2.0408 0
M  V30 2351 H 214.517 -2.40598 3.03631 0
M  V30 2352 H 214.931 -1.46002 5.03769 0
M  V30 2353 H 216.405 -3.10356 4.5649 0
M  V30 2354 H 216.882 -3.31434 2.88181 0
M  V30 2355 H 217.488 -1.91509 3.79743 0
M  V30 2356 N 215.803 -1.52179 -0.40978 0
M  V30 2357 C 217.049 -1.66453 -1.15851 0
M  V30 2358 C 217.382 -0.392972 -1.90182 0
M  V30 2359 O 216.657 0.608579 -1.84734 0
M  V30 2360 C 216.94 -2.88612 -2.15349 0
M  V30 2361 C 216.793 -4.25815 -1.44918 0
M  V30 2362 C 218.112 -3.06294 -3.16026 0
M  V30 2363 H 215.231 -0.60575 -0.419805 0
M  V30 2364 H 217.873 -1.84732 -0.444314 0
M  V30 2365 H 216.023 -2.73158 -2.76255 0
M  V30 2366 H 217.695 -4.52995 -0.871365 0
M  V30 2367 H 215.938 -4.27247 -0.751159 0
M  V30 2368 H 216.609 -5.07337 -2.17516 0
M  V30 2369 H 219.085 -3.20641 -2.65195 0
M  V30 2370 H 217.961 -3.93283 -3.8291 0
M  V30 2371 H 218.222 -2.19579 -3.83715 0
M  V30 2372 N 217.281 0.66697 -1.42791 0
M  V30 2373 C 218.529 1.42417 -1.43394 0
M  V30 2374 C 218.85 1.94925 -0.0542373 0
M  V30 2375 O 218.12 1.73564 0.908415 0
M  V30 2376 H 216.7 0.528515 -0.527902 0
M  V30 2377 H 219.362 0.787562 -1.78279 0
M  V30 2378 H 218.458 2.27333 -2.13837 0
M  V30 2379 N 218.759 1.29093 0.90403 0
M  V30 2380 C 219.989 1.19516 1.68522 0
M  V30 2381 C 220.397 -0.24738 1.87576 0
M  V30 2382 O 219.74 -1.17798 1.40959 0
M  V30 2383 C 219.802 1.83249 3.0929 0
M  V30 2384 C 219.466 3.32531 3.13484 0
M  V30 2385 C 220.463 4.28821 2.93953 0
M  V30 2386 C 218.148 3.73656 3.35688 0
M  V30 2387 C 220.142 5.64212 2.96553 0
M  V30 2388 C 217.829 5.0917 3.37919 0
M  V30 2389 C 218.827 6.04258 3.18373 0
M  V30 2390 O 218.515 7.37298 3.20385 0
M  V30 2391 H 218.247 0.415467 0.533257 0
M  V30 2392 H 220.801 1.70912 1.13922 0
M  V30 2393 H 219.031 1.26358 3.65473 0
M  V30 2394 H 220.72 1.68054 3.69476 0
M  V30 2395 H 221.486 3.98382 2.76616 0
M  V30 2396 H 217.365 3.00101 3.49943 0
M  V30 2397 H 220.909 6.38407 2.81216 0
M  V30 2398 H 216.806 5.39256 3.54787 0
M  V30 2399 H 217.574 7.46048 3.36681 0
M  V30 2400 N 220.237 -1.11381 1.11499 0
M  V30 2401 C 221.462 -1.87475 0.887019 0
M  V30 2402 C 221.887 -1.79639 -0.557796 0
M  V30 2403 O 221.245 -1.15924 -1.39396 0
M  V30 2404 C 221.293 -3.34213 1.35403 0
M  V30 2405 O 220.397 -4.0903 0.526146 0
M  V30 2406 H 219.738 -0.582099 0.319463 0
M  V30 2407 H 222.268 -1.40785 1.48461 0
M  V30 2408 H 222.278 -3.8506 1.34881 0
M  V30 2409 H 220.953 -3.39232 2.40612 0
M  V30 2410 H 219.53 -3.68082 0.597522 0
M  V30 2411 N 221.715 -0.905404 -1.28997 0
M  V30 2412 C 222.645 -0.404212 -2.29975 0
M  V30 2413 C 223.626 0.523784 -1.61835 0
M  V30 2414 O 224.811 0.433298 -1.89304 0
M  V30 2415 C 221.941 0.364042 -3.45387 0
M  V30 2416 C 220.895 -0.474048 -4.25367 0
M  V30 2417 C 220.221 0.422045 -5.33032 0
M  V30 2418 C 221.521 -1.72696 -4.92923 0
M  V30 2419 H 223.215 -1.24807 -2.72146 0
M  V30 2420 H 220.761 -0.601585 -1.30832 0
M  V30 2421 H 222.714 0.725447 -4.15109 0
M  V30 2422 H 221.438 1.24174 -3.02074 0
M  V30 2423 H 220.097 -0.81786 -3.57361 0
M  V30 2424 H 219.745 1.29804 -4.85963 0
M  V30 2425 H 219.445 -0.135057 -5.87445 0
M  V30 2426 H 220.969 0.779517 -6.05604 0
M  V30 2427 H 222.383 -1.43495 -5.55051 0
M  V30 2428 H 220.78 -2.22582 -5.57295 0
M  V30 2429 H 221.85 -2.45964 -4.17887 0
M  V30 2430 N 223.193 1.4272 -0.668489 0
M  V30 2431 C 224.418 2.06484 -0.194758 0
M  V30 2432 C 224.843 1.49862 1.13679 0
M  V30 2433 O 224.201 0.614582 1.70565 0
M  V30 2434 C 224.249 3.60353 -0.133546 0
M  V30 2435 O 223.353 4.02464 0.899806 0
M  V30 2436 H 222.694 0.656137 -0.10188 0
M  V30 2437 H 225.224 1.82964 -0.915722 0
M  V30 2438 H 225.234 4.07976 0.0447041 0
M  V30 2439 H 223.909 4.00938 -1.1055 0
M  V30 2440 H 222.486 3.66402 0.693109 0
M  V30 2441 N 224.671 0.411399 1.52136 0
M  V30 2442 C 225.601 -0.404015 2.29978 0
M  V30 2443 C 226.582 -1.04412 1.34284 0
M  V30 2444 O 227.767 -1.0527 1.63192 0
M  V30 2445 C 224.897 -1.5197 3.12286 0
M  V30 2446 C 223.851 -1.00448 4.16046 0
M  V30 2447 C 223.177 -2.21393 4.86712 0
M  V30 2448 C 224.477 -0.0569336 5.22269 0
M  V30 2449 H 226.171 0.245529 2.98392 0
M  V30 2450 H 223.717 0.119525 1.43503 0
M  V30 2451 H 225.67 -2.09715 3.6551 0
M  V30 2452 H 224.394 -2.19716 2.41646 0
M  V30 2453 H 223.053 -0.449421 3.63835 0
M  V30 2454 H 222.701 -2.87699 4.12599 0
M  V30 2455 H 222.401 -1.87571 5.56858 0
M  V30 2456 H 223.925 -2.7974 5.4275 0
M  V30 2457 H 225.339 -0.54325 5.7072 0
M  V30 2458 H 223.736 0.192594 5.99791 0
M  V30 2459 H 224.806 0.887663 4.76706 0
M  V30 2460 N 226.149 -1.5696 0.141893 0
M  V30 2461 C 227.397 -1.95573 -0.509484 0
M  V30 2462 C 227.718 -1.02746 -1.65736 0
M  V30 2463 O 226.988 -0.0880311 -1.95702 0
M  V30 2464 H 225.568 -0.722115 -0.191205 0
M  V30 2465 H 228.23 -1.93697 0.216196 0
M  V30 2466 H 227.326 -2.99171 -0.889 0
M  V30 2467 N 227.627 0.131896 -1.57047 0
M  V30 2468 C 228.59 1.14638 -1.98471 0
M  V30 2469 C 229.59 1.35029 -0.873148 0
M  V30 2470 O 230.78 1.31764 -1.13946 0
M  V30 2471 C 227.912 2.50358 -2.31373 0
M  V30 2472 H 229.105 0.79064 -2.8929 0
M  V30 2473 H 226.658 0.375761 -1.51716 0
M  V30 2474 H 227.393 2.90876 -1.43393 0
M  V30 2475 H 227.178 2.36915 -3.12432 0
M  V30 2476 H 228.668 3.23395 -2.64207 0
M  V30 2477 N 229.106 1.52395 0.401703 0
M  V30 2478 C 230.036 1.79231 1.49661 0
M  V30 2479 C 231.017 0.643654 1.57452 0
M  V30 2480 O 232.202 0.889989 1.72606 0
M  V30 2481 C 229.332 1.94971 2.87409 0
M  V30 2482 C 228.286 3.10604 2.94465 0
M  V30 2483 C 227.612 3.11577 4.34538 0
M  V30 2484 C 228.912 4.49921 2.6527 0
M  V30 2485 H 230.606 2.70917 1.27454 0
M  V30 2486 H 228.152 1.30362 0.6117 0
M  V30 2487 H 230.105 2.12328 3.63999 0
M  V30 2488 H 228.829 0.999632 3.10926 0
M  V30 2489 H 227.488 2.93009 2.20321 0
M  V30 2490 H 227.136 2.14277 4.55076 0
M  V30 2491 H 226.836 3.89247 4.40183 0
M  V30 2492 H 228.36 3.31073 5.13053 0
M  V30 2493 H 229.774 4.67683 3.31581 0
M  V30 2494 H 228.171 5.29564 2.82281 0
M  V30 2495 H 229.241 4.57507 1.60671 0
M  V30 2496 N 230.584 -0.659388 1.43143 0
M  V30 2497 C 231.514 -1.78422 1.50625 0
M  V30 2498 C 232.495 -1.66216 0.361443 0
M  V30 2499 O 233.68 -1.85404 0.577834 0
M  V30 2500 C 230.81 -3.16815 1.42287 0
M  V30 2501 C 229.764 -3.43777 2.54954 0
M  V30 2502 C 229.09 -4.81905 2.31671 0
M  V30 2503 C 230.39 -3.39134 3.97222 0
M  V30 2504 H 232.084 -1.72417 2.44771 0
M  V30 2505 H 229.63 -0.828084 1.17808 0
M  V30 2506 H 231.583 -3.95253 1.46127 0
M  V30 2507 H 230.307 -3.23534 0.446435 0
M  V30 2508 H 228.966 -2.67707 2.50457 0
M  V30 2509 H 228.614 -4.85294 1.32284 0
M  V30 2510 H 228.314 -5.00906 3.07192 0
M  V30 2511 H 229.838 -5.62609 2.37284 0
M  V30 2512 H 231.252 -4.07518 4.03239 0
M  V30 2513 H 229.649 -3.69671 4.72719 0
M  V30 2514 H 230.719 -2.37426 4.22797 0
M  V30 2515 N 232.062 -1.29571 -0.897171 0
M  V30 2516 C 232.992 -1.17473 -2.01798 0
M  V30 2517 C 233.973 -0.068323 -1.69963 0
M  V30 2518 O 235.158 -0.248239 -1.92607 0
M  V30 2519 C 232.288 -0.853099 -3.36659 0
M  V30 2520 C 231.242 -1.9161 -3.82713 0
M  V30 2521 C 230.568 -1.44773 -5.14728 0
M  V30 2522 C 231.868 -3.32535 -4.02763 0
M  V30 2523 H 233.562 -2.11237 -2.12177 0
M  V30 2524 H 231.108 -1.01699 -1.01948 0
M  V30 2525 H 233.061 -0.755165 -4.14578 0
M  V30 2526 H 231.785 0.120236 -3.26379 0
M  V30 2527 H 230.444 -2.00346 -3.07013 0
M  V30 2528 H 230.092 -0.462995 -5.00865 0
M  V30 2529 H 229.792 -2.15865 -5.46513 0
M  V30 2530 H 231.316 -1.36334 -5.95185 0
M  V30 2531 H 232.73 -3.26626 -4.71156 0
M  V30 2532 H 231.127 -4.01607 -4.45905 0
M  V30 2533 H 232.197 -3.75326 -3.07016 0
M  V30 2534 N 233.54 1.10788 -1.12088 0
M  V30 2535 C 234.503 2.15207 -0.788577 0
M  V30 2536 C 235.503 1.59609 0.195317 0
M  V30 2537 O 236.693 1.74174 -0.0300193 0
M  V30 2538 C 233.825 3.4047 -0.171174 0
M  V30 2539 H 235.018 2.46116 -1.71368 0
M  V30 2540 H 232.571 1.26089 -0.923652 0
M  V30 2541 H 233.306 3.15176 0.763832 0
M  V30 2542 H 233.091 3.82109 -0.879514 0
M  V30 2543 H 234.581 4.17576 0.04496 0
M  V30 2544 N 235.018 0.912232 1.28515 0
M  V30 2545 C 235.948 0.416403 2.29757 0
M  V30 2546 C 236.929 -0.515194 1.6211 0
M  V30 2547 O 238.114 -0.423253 1.89532 0
M  V30 2548 C 235.244 -0.34572 3.45575 0
M  V30 2549 C 234.198 0.496599 4.25109 0
M  V30 2550 C 233.524 -0.393771 5.33248 0
M  V30 2551 C 234.824 1.75307 4.92001 0
M  V30 2552 H 236.518 1.26249 2.7148 0
M  V30 2553 H 234.064 0.608515 1.30511 0
M  V30 2554 H 236.017 -0.703422 4.15488 0
M  V30 2555 H 234.741 -1.2257 3.02728 0
M  V30 2556 H 233.4 0.8368 3.56922 0
M  V30 2557 H 233.048 -1.27225 4.86644 0
M  V30 2558 H 232.748 0.166209 5.87365 0
M  V30 2559 H 234.272 -0.747389 6.06009 0
M  V30 2560 H 235.686 1.46437 5.54283 0
M  V30 2561 H 234.083 2.25534 5.56106 0
M  V30 2562 H 235.153 2.48176 4.16577 0
M  V30 2563 N 236.496 -1.42363 0.676048 0
M  V30 2564 C 237.459 -2.29199 0.00766941 0
M  V30 2565 C 238.459 -1.43389 -0.727745 0
M  V30 2566 O 239.649 -1.64764 -0.56556 0
M  V30 2567 C 236.781 -3.2591 -0.999785 0
M  V30 2568 H 237.974 -2.89794 0.771988 0
M  V30 2569 H 235.527 -1.50024 0.438468 0
M  V30 2570 H 236.262 -2.70256 -1.79255 0
M  V30 2571 H 236.047 -3.89202 -0.475829 0
M  V30 2572 H 237.537 -3.91028 -1.46583 0
M  V30 2573 N 237.974 -0.419461 -1.51915 0
M  V30 2574 C 239.223 0.154346 -2.01109 0
M  V30 2575 C 239.536 1.45338 -1.30905 0
M  V30 2576 O 240.742 2.10906 -1.7097 0
M  V30 2577 C 239.198 0.325615 -3.58424 0
M  V30 2578 C 238.806 -0.961934 -4.37551 0
M  V30 2579 C 240.55 0.854155 -4.15818 0
M  V30 2580 C 238.457 -0.757287 -5.86531 0
M  V30 2581 H 237.387 0.0614563 -0.751491 0
M  V30 2582 H 240.038 -0.54649 -1.75173 0
M  V30 2583 H 238.42 1.08903 -3.80731 0
M  V30 2584 H 239.594 -1.7323 -4.26999 0
M  V30 2585 H 237.909 -1.41766 -3.91524 0
M  V30 2586 H 240.506 1.02346 -5.24814 0
M  V30 2587 H 240.849 1.83172 -3.73837 0
M  V30 2588 H 241.382 0.149528 -3.97519 0
M  V30 2589 H 238.121 -1.70671 -6.32892 0
M  V30 2590 H 237.641 -0.0264061 -5.99794 0
M  V30 2591 H 239.32 -0.403482 -6.45741 0
M  V30 2592 N 239.452 1.56882 -0.150215 0
M  V30 2593 C 240.382 2.19935 0.784284 0
M  V30 2594 C 241.363 1.14854 1.25469 0
M  V30 2595 O 242.548 1.43209 1.31168 0
M  V30 2596 C 239.678 2.82349 2.02229 0
M  V30 2597 C 238.632 3.93285 1.68853 0
M  V30 2598 C 237.958 4.42649 2.99944 0
M  V30 2599 C 239.258 5.13904 0.932714 0
M  V30 2600 H 240.952 2.9828 0.258781 0
M  V30 2601 H 238.498 1.43473 0.123029 0
M  V30 2602 H 240.451 3.25126 2.68088 0
M  V30 2603 H 239.175 2.0134 2.57157 0
M  V30 2604 H 237.834 3.5113 1.05371 0
M  V30 2605 H 237.482 3.58458 3.52869 0
M  V30 2606 H 237.182 5.17476 2.78374 0
M  V30 2607 H 238.706 4.88099 3.66868 0
M  V30 2608 H 240.12 5.53506 1.49345 0
M  V30 2609 H 238.517 5.94515 0.81684 0
M  V30 2610 H 239.587 4.84842 -0.0749568 0
M  V30 2611 N 240.93 -0.123565 1.57115 0
M  V30 2612 C 242.178 -0.83051 1.84247 0
M  V30 2613 C 242.499 -1.80629 0.73471 0
M  V30 2614 O 241.769 -1.94403 -0.241688 0
M  V30 2615 H 240.349 -0.309694 0.679778 0
M  V30 2616 H 243.011 -0.111976 1.94578 0
M  V30 2617 H 242.107 -1.37852 2.80006 0
M  V30 2618 N 242.408 -1.52605 -0.393616 0
M  V30 2619 C 243.656 -1.67093 -1.13685 0
M  V30 2620 C 243.977 -0.411011 -1.90619 0
M  V30 2621 O 243.247 0.574491 -1.87287 0
M  V30 2622 H 241.827 -0.615923 -0.422668 0
M  V30 2623 H 244.489 -1.89704 -0.447039 0
M  V30 2624 H 243.585 -2.51922 -1.84232 0
M  V30 2625 N 243.887 0.651787 -1.4349 0
M  V30 2626 C 244.817 1.77621 -1.51569 0
M  V30 2627 C 245.798 1.66022 -0.370253 0
M  V30 2628 O 246.983 1.85095 -0.587658 0
M  V30 2629 C 244.113 3.16056 -1.43966 0
M  V30 2630 C 243.067 3.4242 -2.56774 0
M  V30 2631 C 242.393 4.8067 -2.34223 0
M  V30 2632 C 243.693 3.37023 -3.99015 0
M  V30 2633 H 245.387 1.71117 -2.45681 0
M  V30 2634 H 242.933 0.821825 -1.18246 0
M  V30 2635 H 244.886 3.94472 -1.48221 0
M  V30 2636 H 243.61 3.23293 -0.463586 0
M  V30 2637 H 242.269 2.66375 -2.51873 0
M  V30 2638 H 241.917 4.84585 -1.34856 0
M  V30 2639 H 241.617 4.9927 -3.09844 0
M  V30 2640 H 243.141 5.61342 -2.40265 0
M  V30 2641 H 244.555 4.05374 -4.05395 0
M  V30 2642 H 242.952 3.67159 -4.74673 0
M  V30 2643 H 244.022 2.3518 -4.2405 0
M  V30 2644 N 245.365 1.30045 0.890287 0
M  V30 2645 C 246.59 1.21598 1.68014 0
M  V30 2646 C 247.015 -0.218678 1.86825 0
M  V30 2647 O 246.373 -1.15756 1.39536 0
M  V30 2648 C 246.421 1.94434 3.03691 0
M  V30 2649 O 245.525 1.2678 3.92429 0
M  V30 2650 H 244.866 0.420856 0.513592 0
M  V30 2651 H 247.396 1.71775 1.11151 0
M  V30 2652 H 247.406 2.03251 3.5377 0
M  V30 2653 H 246.081 2.98777 2.89318 0
M  V30 2654 H 244.658 1.26282 3.50866 0
M  V30 2655 N 246.843 -1.10192 1.12674 0
M  V30 2656 C 247.79 -2.16606 0.796906 0
M  V30 2657 C 248.76 -1.64394 -0.237476 0
M  V30 2658 O 249.945 -1.90474 -0.111484 0
M  V30 2659 C 247.085 -3.44116 0.26043 0
M  V30 2660 C 246.198 -4.10268 1.35293 0
M  V30 2661 C 245.333 -5.25507 0.775621 0
M  V30 2662 C 244.372 -5.83567 1.84706 0
M  V30 2663 N 243.509 -6.90179 1.28829 0
M  V30 2664 H 248.349 -2.44163 1.70846 0
M  V30 2665 H 245.886 -1.19846 0.85295 0
M  V30 2666 H 247.844 -4.17143 -0.0686814 0
M  V30 2667 H 246.474 -3.16901 -0.614274 0
M  V30 2668 H 245.526 -3.35184 1.79877 0
M  V30 2669 H 246.838 -4.4946 2.16303 0
M  V30 2670 H 245.992 -6.05398 0.397327 0
M  V30 2671 H 244.731 -4.87656 -0.0656581 0
M  V30 2672 H 243.736 -5.02344 2.23452 0
M  V30 2673 H 244.961 -6.23482 2.69161 0
M  V30 2674 H 242.907 -6.54322 0.468881 0
M  V30 2675 H 242.824 -7.28097 2.03497 0
M  V30 2676 H 244.092 -7.73844 0.937311 0
M  V30 2677 N 248.321 -0.919034 -1.28029 0
M  V30 2678 C 249.251 -0.428581 -2.29533 0
M  V30 2679 C 250.232 0.50659 -1.62381 0
M  V30 2680 O 251.417 0.413195 -1.89753 0
M  V30 2681 C 248.547 0.327388 -3.45753 0
M  V30 2682 C 247.501 -0.519137 -4.2484 0
M  V30 2683 C 246.827 0.365486 -5.33449 0
M  V30 2684 C 248.127 -1.77914 -4.91064 0
M  V30 2685 H 249.821 -1.27687 -2.70807 0
M  V30 2686 H 247.367 -0.615428 -1.30186 0
M  V30 2687 H 249.32 0.681378 -4.15855 0
M  V30 2688 H 248.044 1.20963 -3.03374 0
M  V30 2689 H 246.703 -0.855717 -3.56473 0
M  V30 2690 H 246.351 1.24642 -4.87312 0
M  V30 2691 H 246.051 -0.197356 -5.87268 0
M  V30 2692 H 247.575 0.715241 -6.06396 0
M  V30 2693 H 248.989 -1.49374 -5.53498 0
M  V30 2694 H 247.386 -2.2848 -5.54903 0
M  V30 2695 H 248.456 -2.50382 -4.15255 0
M  V30 2696 N 249.799 1.42003 -0.683588 0
M  V30 2697 C 250.749 2.27997 0.0121992 0
M  V30 2698 C 251.733 1.4156 0.764822 0
M  V30 2699 O 252.925 1.64935 0.642287 0
M  V30 2700 C 250.054 3.29706 0.956482 0
M  V30 2701 C 249.14 4.23625 0.200739 0
M  V30 2702 N 249.531 4.99448 -0.799087 0
M  V30 2703 C 247.829 4.43845 0.437937 0
M  V30 2704 C 248.53 5.68102 -1.25041 0
M  V30 2705 N 247.506 5.40511 -0.578648 0
M  V30 2706 H 251.308 2.84048 -0.754564 0
M  V30 2707 H 248.822 1.54071 -0.513398 0
M  V30 2708 H 250.819 3.90124 1.47 0
M  V30 2709 H 249.479 2.75216 1.72297 0
M  V30 2710 H 250.49 5.04303 -1.17893 0
M  V30 2711 H 247.167 4.00382 1.18325 0
M  V30 2712 H 248.557 6.38913 -2.07942 0
M  V30 2713 N 251.277 0.427512 1.51691 0
M  V30 2714 C 252.517 -0.141524 2.03909 0
M  V30 2715 C 252.881 -1.40811 1.30523 0
M  V30 2716 O 254.082 -2.05676 1.73063 0
M  V30 2717 C 252.353 -0.364962 3.55532 0
M  V30 2718 S 253.912 -0.898812 4.29496 0
M  V30 2719 H 250.73 -0.0364542 0.710065 0
M  V30 2720 H 253.332 0.584659 1.86553 0
M  V30 2721 H 252.036 0.56336 4.06515 0
M  V30 2722 H 251.567 -1.1185 3.77164 0
M  V30 2723 H 253.582 -2.17747 4.45871 0
M  V30 2724 N 252.755 -1.56801 0.158532 0
M  V30 2725 C 253.983 -2.00859 -0.496303 0
M  V30 2726 C 254.398 -1.03871 -1.57659 0
M  V30 2727 O 253.755 -0.0375165 -1.82461 0
M  V30 2728 C 253.806 -3.4479 -1.08638 0
M  V30 2729 O 253.527 -4.38072 -0.0492322 0
M  V30 2730 C 255.028 -4.04185 -1.8207 0
M  V30 2731 H 252.248 -0.65864 -0.128199 0
M  V30 2732 H 254.792 -2.02885 0.256506 0
M  V30 2733 H 252.947 -3.43579 -1.78975 0
M  V30 2734 H 253.361 -5.2227 -0.483102 0
M  V30 2735 H 254.835 -5.06857 -2.18633 0
M  V30 2736 H 255.312 -3.45549 -2.71095 0
M  V30 2737 H 255.918 -4.0906 -1.16405 0
M  V30 2738 N 254.233 0.115231 -1.57178 0
M  V30 2739 C 255.649 0.468877 -1.52557 0
M  V30 2740 C 255.849 1.81649 -0.872125 0
M  V30 2741 O 254.905 2.48347 -0.45606 0
M  V30 2742 C 256.218 0.4499 -2.97315 0
M  V30 2743 C 257.766 0.533185 -3.08425 0
M  V30 2744 C 258.241 0.54456 -4.54751 0
M  V30 2745 N 259.732 0.605892 -4.5922 0
M  V30 2746 C 260.467 0.636203 -5.6986 0
M  V30 2747 N 259.963 0.623931 -6.89985 0
M  V30 2748 N 261.756 0.679496 -5.57978 0
M  V30 2749 H 253.907 -0.767712 -1.9804 0
M  V30 2750 H 256.17 -0.283609 -0.904583 0
M  V30 2751 H 255.876 -0.472721 -3.48509 0
M  V30 2752 H 255.75 1.27632 -3.5495 0
M  V30 2753 H 258.137 1.44623 -2.57232 0
M  V30 2754 H 258.218 -0.320995 -2.53778 0
M  V30 2755 H 257.862 -0.364452 -5.06591 0
M  V30 2756 H 257.792 1.41568 -5.07214 0
M  V30 2757 H 260.283 0.621386 -3.72756 0
M  V30 2758 H 260.596 0.649787 -7.70063 0
M  V30 2759 H 258.941 0.591296 -6.9248 0
M  V30 2760 H 262.132 0.686472 -4.63039 0
M  V30 2761 H 262.305 0.69965 -6.44212 0
M  V30 2762 N 255.711 1.52812 0.385517 0
M  V30 2763 C 256.659 1.78482 1.49155 0
M  V30 2764 C 257.653 0.652914 1.56312 0
M  V30 2765 O 258.859 0.835464 1.59436 0
M  V30 2766 H 255.234 0.5648 0.496493 0
M  V30 2767 H 257.205 2.71095 1.24699 0
M  V30 2768 C 255.954 1.97378 2.86247 0
M  V30 2769 H 255.277 2.83907 2.81491 0
M  V30 2770 H 256.717 2.19327 3.62866 0
M  V30 2771 C 255.176 0.74728 3.28508 0
M  V30 2772 O 255.706 -0.0736232 4.01633 0
M  V30 2773 N 253.912 0.576396 2.84826 0
M  V30 2774 H 253.459 1.24555 2.25486 0
M  V30 2775 H 253.417 -0.24288 3.1346 0
M  V30 2776 N 257.189 -0.644168 1.43834 0
M  V30 2777 C 258.152 -1.73857 1.49353 0
M  V30 2778 C 259.152 -1.56315 0.377112 0
M  V30 2779 O 260.342 -1.62048 0.639226 0
M  V30 2780 C 257.474 -3.12819 1.35488 0
M  V30 2781 H 258.667 -1.70342 2.46827 0
M  V30 2782 H 256.22 -0.856652 1.30733 0
M  V30 2783 H 256.955 -3.2194 0.390569 0
M  V30 2784 H 256.74 -3.26958 2.16428 0
M  V30 2785 H 258.23 -3.92606 1.42302 0
M  V30 2786 N 258.668 -1.30515 -0.883378 0
M  V30 2787 C 259.917 -1.18795 -1.63005 0
M  V30 2788 C 260.23 0.255923 -1.93919 0
M  V30 2789 O 261.436 0.494654 -2.66956 0
M  V30 2790 C 259.892 -2.07878 -2.93794 0
M  V30 2791 C 259.5 -3.57184 -2.70414 0
M  V30 2792 C 261.244 -2.04924 -3.71761 0
M  V30 2793 C 259.151 -4.38317 -3.97029 0
M  V30 2794 H 258.081 -0.441031 -0.611562 0
M  V30 2795 H 260.732 -1.55275 -0.977854 0
M  V30 2796 H 259.114 -1.64283 -3.60315 0
M  V30 2797 H 260.288 -4.08937 -2.12384 0
M  V30 2798 H 258.603 -3.61976 -2.0582 0
M  V30 2799 H 261.2 -2.62792 -4.65665 0
M  V30 2800 H 261.543 -1.0331 -4.03277 0
M  V30 2801 H 262.076 -2.46649 -3.12104 0
M  V30 2802 H 258.815 -5.40632 -3.70671 0
M  V30 2803 H 258.335 -3.91326 -4.54559 0
M  V30 2804 H 260.014 -4.49834 -4.65036 0
M  V30 2805 N 260.146 1.09593 -1.13257 0
M  V30 2806 C 261.096 2.14345 -0.777179 0
M  V30 2807 C 262.08 1.59277 0.227966 0
M  V30 2808 O 263.272 1.76971 0.0321413 0
M  V30 2809 C 260.401 3.42439 -0.242991 0
M  V30 2810 C 259.487 4.04419 -1.27694 0
M  V30 2811 N 259.878 4.40979 -2.47732 0
M  V30 2812 C 258.176 4.31596 -1.12432 0
M  V30 2813 C 258.877 4.89784 -3.13826 0
M  V30 2814 N 257.853 4.87133 -2.41252 0
M  V30 2815 H 261.655 2.40415 -1.69049 0
M  V30 2816 H 259.169 1.26803 -1.01463 0
M  V30 2817 H 261.166 4.16889 0.0298496 0
M  V30 2818 H 259.826 3.17824 0.66467 0
M  V30 2819 H 260.837 4.32396 -2.85051 0
M  V30 2820 H 257.514 4.16595 -0.274684 0
M  V30 2821 H 258.904 5.2755 -4.16102 0
M  V30 2822 N 261.624 0.925811 1.2754 0
M  V30 2823 C 262.587 0.428129 2.25166 0
M  V30 2824 C 263.587 -0.452261 1.54309 0
M  V30 2825 O 264.777 -0.253608 1.72344 0
M  V30 2826 C 261.909 -0.384749 3.38722 0
M  V30 2827 H 263.102 1.29066 2.70706 0
M  V30 2828 H 260.655 0.706323 1.3943 0
M  V30 2829 H 261.39 -1.26618 2.98561 0
M  V30 2830 H 261.175 0.246454 3.91325 0
M  V30 2831 H 262.665 -0.723389 4.11287 0
M  V30 2832 N 263.102 -1.41638 0.69111 0
M  V30 2833 C 264.05 -2.32597 0.0115199 0
M  V30 2834 C 265.044 -1.5072 -0.773296 0
M  V30 2835 O 266.25 -1.66685 -0.67942 0
M  V30 2836 H 262.625 -0.751849 -0.0150746 0
M  V30 2837 H 264.596 -2.87593 0.795791 0
M  V30 2838 C 263.345 -3.35467 -0.914172 0
M  V30 2839 H 262.668 -3.9852 -0.319687 0
M  V30 2840 H 264.108 -4.01662 -1.35808 0
M  V30 2841 C 262.567 -2.69004 -2.02826 0
M  V30 2842 O 263.097 -2.53444 -3.11655 0
M  V30 2843 N 261.303 -2.2777 -1.80469 0
M  V30 2844 H 260.85 -2.40626 -0.919615 0
M  V30 2845 H 260.808 -1.83635 -2.55197 0
M  V30 2846 N 264.58 -0.43555 -1.51462 0
M  V30 2847 C 265.51 0.367376 -2.30592 0
M  V30 2848 C 266.491 1.02263 -1.35928 0
M  V30 2849 O 267.676 1.02661 -1.64847 0
M  V30 2850 C 264.806 1.46983 -3.14664 0
M  V30 2851 C 263.76 0.938161 -4.17591 0
M  V30 2852 C 263.086 2.13622 -4.90173 0
M  V30 2853 C 264.386 -0.0261621 -5.22293 0
M  V30 2854 H 266.08 -0.292969 -2.97963 0
M  V30 2855 H 263.626 -0.14234 -1.43295 0
M  V30 2856 H 265.579 2.03873 -3.688 0
M  V30 2857 H 264.303 2.15843 -2.4511 0
M  V30 2858 H 262.962 0.391481 -3.64504 0
M  V30 2859 H 262.61 2.81098 -4.17124 0
M  V30 2860 H 262.31 1.78688 -5.59772 0
M  V30 2861 H 263.834 2.7107 -5.47132 0
M  V30 2862 H 265.248 0.452384 -5.71512 0
M  V30 2863 H 263.645 -0.287992 -5.99409 0
M  V30 2864 H 264.715 -0.963391 -4.75233 0
M  V30 2865 N 266.058 1.56714 -0.166846 0
M  V30 2866 C 267.305 1.96747 0.479252 0
M  V30 2867 C 267.633 1.05263 1.63554 0
M  V30 2868 O 266.888 0.0858098 1.95512 0
M  V30 2869 C 267.187 3.42889 1.00806 0
M  V30 2870 C 266.853 4.50889 -0.0318574 0
M  V30 2871 C 265.515 4.8015 -0.317675 0
M  V30 2872 C 267.867 5.15949 -0.737956 0
M  V30 2873 C 265.195 5.71772 -1.31506 0
M  V30 2874 C 267.547 6.08647 -1.72429 0
M  V30 2875 C 266.211 6.36277 -2.0176 0
M  V30 2876 H 265.481 0.719949 0.175371 0
M  V30 2877 H 268.128 1.89756 -0.257864 0
M  V30 2878 H 266.433 3.4681 1.82291 0
M  V30 2879 H 268.13 3.71203 1.51689 0
M  V30 2880 H 264.72 4.28128 0.201088 0
M  V30 2881 H 268.904 4.93458 -0.530351 0
M  V30 2882 H 264.16 5.91465 -1.54853 0
M  V30 2883 H 268.334 6.58129 -2.27682 0
M  V30 2884 H 265.961 7.07075 -2.79194 0
M  V30 2885 N 267.536 -0.106894 1.57237 0
M  V30 2886 C 268.499 -1.11466 2.0027 0
M  V30 2887 C 269.499 -1.33623 0.894519 0
M  V30 2888 O 270.689 -1.29935 1.16028 0
M  V30 2889 C 267.821 -2.46646 2.35327 0
M  V30 2890 H 269.014 -0.744516 2.90512 0
M  V30 2891 H 266.567 -0.351576 1.52295 0
M  V30 2892 H 267.302 -2.88558 1.48003 0
M  V30 2893 H 267.087 -2.31915 3.16161 0
M  V30 2894 H 268.577 -3.19151 2.69318 0
M  V30 2895 N 269.014 -1.53014 -0.377408 0
M  V30 2896 C 270.239 -1.72818 -1.14668 0
M  V30 2897 C 270.664 -0.450725 -1.8262 0
M  V30 2898 O 270.022 0.59439 -1.7128 0
M  V30 2899 C 270.07 -2.88627 -2.16164 0
M  V30 2900 O 269.174 -2.56409 -3.22998 0
M  V30 2901 H 268.515 -0.574301 -0.333278 0
M  V30 2902 H 271.045 -1.99853 -0.438152 0
M  V30 2903 H 271.055 -3.14455 -2.59966 0
M  V30 2904 H 269.73 -3.81294 -1.66095 0
M  V30 2905 H 268.307 -2.4136 -2.84253 0
M  V30 2906 N 270.492 0.636531 -1.44174 0
M  V30 2907 C 271.739 1.39619 -1.46672 0
M  V30 2908 C 272.067 1.94257 -0.0972691 0
M  V30 2909 O 271.322 1.73768 0.900175 0
M  V30 2910 C 271.621 2.58309 -2.47005 0
M  V30 2911 C 271.287 2.21992 -3.92467 0
M  V30 2912 C 269.949 2.118 -4.32081 0
M  V30 2913 C 272.301 1.9321 -4.84065 0
M  V30 2914 C 269.629 1.71007 -5.61225 0
M  V30 2915 C 271.981 1.53911 -6.13591 0
M  V30 2916 C 270.645 1.42257 -6.52165 0
M  V30 2917 H 269.915 0.510902 -0.536712 0
M  V30 2918 H 272.562 0.722328 -1.77355 0
M  V30 2919 H 270.867 3.30903 -2.09786 0
M  V30 2920 H 272.564 3.16533 -2.46186 0
M  V30 2921 H 269.154 2.30841 -3.61124 0
M  V30 2922 H 273.338 1.99997 -4.54219 0
M  V30 2923 H 268.594 1.60583 -5.89935 0
M  V30 2924 H 272.768 1.30677 -6.8403 0
M  V30 2925 H 270.395 1.10419 -7.52138 0
M  V30 2926 N 271.97 1.30982 0.876444 0
M  V30 2927 C 273.216 1.20474 1.63138 0
M  V30 2928 C 273.549 -0.238096 1.92735 0
M  V30 2929 O 272.824 -1.1692 1.55435 0
M  V30 2930 C 273.107 2.04244 2.96574 0
M  V30 2931 C 272.96 3.56793 2.73896 0
M  V30 2932 C 274.279 1.88684 3.97601 0
M  V30 2933 H 271.398 0.439001 0.591985 0
M  V30 2934 H 274.04 1.60704 1.01361 0
M  V30 2935 H 272.19 1.70063 3.493 0
M  V30 2936 H 273.862 4.01077 2.27892 0
M  V30 2937 H 272.105 3.80548 2.08245 0
M  V30 2938 H 272.776 4.10706 3.68815 0
M  V30 2939 H 275.252 2.18584 3.54062 0
M  V30 2940 H 274.128 2.4961 4.88862 0
M  V30 2941 H 274.389 0.848343 4.33884 0
M  V30 2942 N 273.449 -1.08991 1.13837 0
M  V30 2943 C 274.379 -2.17771 0.842507 0
M  V30 2944 C 275.36 -1.6892 -0.20001 0
M  V30 2945 O 276.545 -1.94113 -0.0579731 0
M  V30 2946 C 273.675 -3.4589 0.312644 0
M  V30 2947 C 272.629 -4.08099 1.28992 0
M  V30 2948 C 271.955 -5.31098 0.619623 0
M  V30 2949 C 273.255 -4.50077 2.65005 0
M  V30 2950 H 274.949 -2.42777 1.75213 0
M  V30 2951 H 272.495 -1.16682 0.843875 0
M  V30 2952 H 274.448 -4.21297 0.0933043 0
M  V30 2953 H 273.172 -3.20419 -0.632382 0
M  V30 2954 H 271.831 -3.34717 1.49533 0
M  V30 2955 H 271.479 -5.0191 -0.33102 0
M  V30 2956 H 271.179 -5.73674 1.27167 0
M  V30 2957 H 272.703 -6.09224 0.409669 0
M  V30 2958 H 274.117 -5.16688 2.48407 0
M  V30 2959 H 272.514 -5.03553 3.26427 0
M  V30 2960 H 273.584 -3.62257 3.22332 0
M  V30 2961 N 274.927 -0.932562 -1.27047 0
M  V30 2962 C 275.874 -0.434072 -2.26681 0
M  V30 2963 C 276.844 0.501639 -1.58344 0
M  V30 2964 O 278.029 0.419734 -1.86126 0
M  V30 2965 C 275.169 0.30261 -3.43771 0
M  V30 2966 C 274.282 -0.667774 -4.26808 0
M  V30 2967 C 273.417 0.0892393 -5.31125 0
M  V30 2968 C 272.456 -0.873532 -6.05835 0
M  V30 2969 N 271.593 -0.148832 -7.01942 0
M  V30 2970 H 276.433 -1.28868 -2.68695 0
M  V30 2971 H 273.97 -0.646713 -1.32121 0
M  V30 2972 H 275.928 0.746092 -4.10474 0
M  V30 2973 H 274.558 1.12142 -3.02695 0
M  V30 2974 H 273.61 -1.22978 -3.59973 0
M  V30 2975 H 274.922 -1.40337 -4.78651 0
M  V30 2976 H 274.076 0.592409 -6.03801 0
M  V30 2977 H 272.815 0.85777 -4.80097 0
M  V30 2978 H 271.82 -1.38791 -5.31994 0
M  V30 2979 H 273.045 -1.64193 -6.58952 0
M  V30 2980 H 270.991 0.601365 -6.53238 0
M  V30 2981 H 270.908 -0.82391 -7.51497 0
M  V30 2982 H 272.176 0.333527 -7.78786 0
M  V30 2983 N 276.405 1.4127 -0.698611 0
M  V30 2984 C 277.368 2.29158 -0.044132 0
M  V30 2985 C 278.368 1.44529 0.704841 0
M  V30 2986 O 279.558 1.65643 0.539276 0
M  V30 2987 C 276.69 3.27459 0.947809 0
M  V30 2988 H 277.883 2.88529 -0.817994 0
M  V30 2989 H 275.436 1.49307 -0.46228 0
M  V30 2990 H 276.171 2.73073 1.74933 0
M  V30 2991 H 275.956 3.8991 0.41385 0
M  V30 2992 H 277.446 3.93311 1.40344 0
M  V30 2993 N 277.883 0.443576 1.51229 0
M  V30 2994 C 279.108 -0.121648 2.07043 0
M  V30 2995 C 279.533 -1.35156 1.30823 0
M  V30 2996 O 278.891 -1.7793 0.347934 0
M  V30 2997 C 278.939 -0.41624 3.5819 0
M  V30 2998 O 278.043 -1.50163 3.8409 0
M  V30 2999 H 277.384 0.000871367 0.663999 0
M  V30 3000 H 279.914 0.626706 1.94765 0
M  V30 3001 H 279.924 -0.664867 4.02546 0
M  V30 3002 H 278.599 0.482653 4.1309 0
M  V30 3003 H 277.176 -1.24248 3.51592 0
M  V30 3004 N 279.361 -1.56624 0.175154 0
M  V30 3005 C 280.586 -2.01813 -0.478137 0
M  V30 3006 C 281.011 -1.05457 -1.55757 0
M  V30 3007 O 280.369 -0.0347439 -1.81267 0
M  V30 3008 C 280.417 -3.45581 -1.02987 0
M  V30 3009 O 279.521 -3.52305 -2.14371 0
M  V30 3010 H 278.862 -0.65413 -0.114059 0
M  V30 3011 H 281.392 -2.02673 0.280173 0
M  V30 3012 H 281.402 -3.84965 -1.35151 0
M  V30 3013 H 280.077 -4.1521 -0.239556 0
M  V30 3014 H 278.654 -3.24783 -1.83222 0
M  V30 3015 N 280.839 0.0985539 -1.57292 0
M  V30 3016 C 282.085 0.803867 -1.86188 0
M  V30 3017 C 282.418 1.78549 -0.763794 0
M  V30 3018 O 281.693 1.93153 0.22855 0
M  V30 3019 C 281.976 1.53568 -3.25713 0
M  V30 3020 C 281.829 0.572277 -4.46145 0
M  V30 3021 C 283.148 2.48708 -3.63087 0
M  V30 3022 H 280.267 0.290781 -0.677211 0
M  V30 3023 H 282.909 0.0675783 -1.8988 0
M  V30 3024 H 281.059 2.16332 -3.22696 0
M  V30 3025 H 282.731 -0.0480894 -4.61275 0
M  V30 3026 H 280.974 -0.114618 -4.33649 0
M  V30 3027 H 281.645 1.12139 -5.40489 0
M  V30 3028 H 284.121 1.96039 -3.67026 0
M  V30 3029 H 282.997 2.96932 -4.61652 0
M  V30 3030 H 283.258 3.32309 -2.91588 0
M  V30 3031 N 282.317 1.53212 0.369288 0
M  V30 3032 C 283.247 1.82365 1.45826 0
M  V30 3033 C 284.228 0.676907 1.56051 0
M  V30 3034 O 285.413 0.926401 1.70679 0
M  V30 3035 C 282.543 2.01023 2.83208 0
M  V30 3036 C 281.497 3.1678 2.8781 0
M  V30 3037 C 280.823 3.20724 4.27832 0
M  V30 3038 C 282.123 4.55447 2.55667 0
M  V30 3039 H 283.817 2.73559 1.21678 0
M  V30 3040 H 281.363 1.3163 0.583911 0
M  V30 3041 H 283.316 2.20001 3.59413 0
M  V30 3042 H 282.04 1.06536 3.08736 0
M  V30 3043 H 280.699 2.97616 2.14056 0
M  V30 3044 H 280.347 2.23882 4.50429 0
M  V30 3045 H 280.047 3.98496 4.31827 0
M  V30 3046 H 281.571 3.41881 5.05915 0
M  V30 3047 H 282.985 4.74611 3.21586 0
M  V30 3048 H 281.382 5.35432 2.70984 0
M  V30 3049 H 282.452 4.60812 1.5093 0
M  V30 3050 N 283.795 -0.628877 1.44509 0
M  V30 3051 C 285.041 -1.39045 1.47629 0
M  V30 3052 C 285.374 -1.93892 0.109343 0
M  V30 3053 O 284.649 -1.7379 -0.87334 0
M  V30 3054 C 284.932 -2.55408 2.53848 0
M  V30 3055 C 284.785 -2.05896 3.99909 0
M  V30 3056 C 286.104 -3.5759 2.56549 0
M  V30 3057 H 283.223 -0.504232 0.537512 0
M  V30 3058 H 285.865 -0.710854 1.76201 0
M  V30 3059 H 284.015 -3.13384 2.29615 0
M  V30 3060 H 285.687 -1.52734 4.35282 0
M  V30 3061 H 283.93 -1.37061 4.11578 0
M  V30 3062 H 284.601 -2.89681 4.69882 0
M  V30 3063 H 287.077 -3.09419 2.78207 0
M  V30 3064 H 285.953 -4.36527 3.32769 0
M  V30 3065 H 286.214 -4.11808 1.60832 0
M  V30 3066 N 285.273 -1.31445 -0.869486 0
M  V30 3067 C 286.522 -1.20517 -1.61736 0
M  V30 3068 C 286.835 0.235341 -1.94179 0
M  V30 3069 O 288.041 0.466312 -2.67465 0
M  V30 3070 C 286.497 -2.10982 -2.91573 0
M  V30 3071 C 286.105 -3.60032 -2.66611 0
M  V30 3072 C 287.849 -2.08856 -3.69567 0
M  V30 3073 C 285.756 -4.42503 -3.92358 0
M  V30 3074 H 284.686 -0.447493 -0.606849 0
M  V30 3075 H 287.337 -1.56303 -0.96133 0
M  V30 3076 H 285.719 -1.68095 -3.58553 0
M  V30 3077 H 286.893 -4.11167 -2.08035 0
M  V30 3078 H 285.208 -3.64139 -2.0197 0
M  V30 3079 H 287.805 -2.67716 -4.62852 0
M  V30 3080 H 288.148 -1.07582 -4.02159 0
M  V30 3081 H 288.681 -2.49945 -3.09471 0
M  V30 3082 H 285.42 -5.44533 -3.64916 0
M  V30 3083 H 284.94 -3.96125 -4.50383 0
M  V30 3084 H 286.619 -4.54741 -4.60238 0
M  V30 3085 N 286.751 1.08385 -1.14413 0
M  V30 3086 C 288.028 1.77429 -0.823297 0
M  V30 3087 C 288.408 1.9974 0.683163 0
M  V30 3088 O 287.756 1.60739 1.62405 0
M  V30 3089 C 287.966 3.09004 -1.62227 0
M  V30 3090 C 289.314 3.83532 -1.82177 0
M  V30 3091 O 290.338 3.18786 -1.58915 0
M  V30 3092 O 289.197 4.99792 -2.21067 0
M  V30 3093 H 286.291 0.769999 -0.301712 0
M  V30 3094 H 288.837 1.14846 -1.24934 0
M  V30 3095 H 287.609 2.88316 -2.64555 0
M  V30 3096 H 287.232 3.79316 -1.19187 0
M  V30 3097 N 288.23 0.939286 1.26551 0
M  V30 3098 C 289.478 0.58469 1.93457 0
M  V30 3099 C 289.799 -0.878774 1.74076 0
M  V30 3100 O 289.069 -1.62421 1.09528 0
M  V30 3101 H 287.649 0.21325 0.715914 0
M  V30 3102 H 290.311 1.1942 1.54029 0
M  V30 3103 H 289.407 0.800849 3.0165 0
M  V30 3104 N 289.708 -1.40897 0.706093 0
M  V30 3105 C 290.638 -2.33418 0.0620085 0
M  V30 3106 C 291.619 -1.52385 -0.755827 0
M  V30 3107 O 292.804 -1.80886 -0.706674 0
M  V30 3108 C 289.934 -3.36293 -0.867445 0
M  V30 3109 C 288.888 -4.27716 -0.155932 0
M  V30 3110 C 288.214 -5.2105 -1.20046 0
M  V30 3111 C 289.514 -5.12944 0.984149 0
M  V30 3112 H 291.208 -2.87527 0.83477 0
M  V30 3113 H 288.754 -1.38249 0.402875 0
M  V30 3114 H 290.707 -3.99949 -1.32735 0
M  V30 3115 H 289.431 -2.80556 -1.67199 0
M  V30 3116 H 288.09 -3.65498 0.284047 0
M  V30 3117 H 287.738 -4.61624 -1.99781 0
M  V30 3118 H 287.438 -5.83056 -0.729328 0
M  V30 3119 H 288.962 -5.87584 -1.66066 0
M  V30 3120 H 290.376 -5.70109 0.604048 0
M  V30 3121 H 288.773 -5.83945 1.38304 0
M  V30 3122 H 289.843 -4.49485 1.81911 0
M  V30 3123 N 291.186 -0.45159 -1.50991 0
M  V30 3124 C 292.116 0.342898 -2.30969 0
M  V30 3125 C 293.097 1.00815 -1.37005 0
M  V30 3126 O 294.282 1.00907 -1.65926 0
M  V30 3127 C 291.412 1.43637 -3.16205 0
M  V30 3128 C 290.366 0.893818 -4.18563 0
M  V30 3129 C 289.692 2.08411 -4.92411 0
M  V30 3130 C 290.992 -0.0815568 -5.22236 0
M  V30 3131 H 292.686 -0.324556 -2.97636 0
M  V30 3132 H 290.232 -0.157531 -1.43136 0
M  V30 3133 H 292.185 1.9995 -3.70942 0
M  V30 3134 H 290.909 2.13232 -2.47386 0
M  V30 3135 H 289.568 0.352798 -3.64898 0
M  V30 3136 H 289.216 2.76658 -4.20082 0
M  V30 3137 H 288.916 1.72741 -5.61636 0
M  V30 3138 H 290.44 2.65251 -5.49976 0
M  V30 3139 H 291.854 0.391742 -5.7196 0
M  V30 3140 H 290.251 -0.351551 -5.99069 0
M  V30 3141 H 291.321 -1.01374 -4.74185 0
M  V30 3142 N 292.664 1.56529 -0.183458 0
M  V30 3143 C 294.08 1.58664 0.172554 0
M  V30 3144 C 294.28 1.19925 1.61926 0
M  V30 3145 O 293.336 0.916534 2.35278 0
M  V30 3146 C 294.649 3.00463 -0.119262 0
M  V30 3147 C 296.197 3.12945 -0.0584396 0
M  V30 3148 C 296.672 4.56857 -0.323408 0
M  V30 3149 N 298.163 4.62403 -0.271612 0
M  V30 3150 C 298.898 5.71626 -0.450639 0
M  V30 3151 N 298.394 6.89362 -0.689384 0
M  V30 3152 N 300.187 5.60775 -0.385701 0
M  V30 3153 H 292.338 1.79994 -1.12765 0
M  V30 3154 H 294.601 0.834808 -0.449222 0
M  V30 3155 H 294.307 3.33326 -1.12192 0
M  V30 3156 H 294.181 3.72659 0.583544 0
M  V30 3157 H 296.568 2.79902 0.934805 0
M  V30 3158 H 296.649 2.4316 -0.794144 0
M  V30 3159 H 296.293 4.9061 -1.31392 0
M  V30 3160 H 296.223 5.24816 0.43305 0
M  V30 3161 H 298.714 3.77785 -0.0932256 0
M  V30 3162 H 299.027 7.68489 -0.815113 0
M  V30 3163 H 297.372 6.91196 -0.726142 0
M  V30 3164 H 300.563 4.67674 -0.199687 0
M  V30 3165 H 300.736 6.4584 -0.528646 0
M  V30 3166 N 294.142 -0.090211 1.57342 0
M  V30 3167 C 295.37 -0.806224 1.90546 0
M  V30 3168 C 295.785 -1.72041 0.777644 0
M  V30 3169 O 295.142 -1.80778 -0.250103 0
M  V30 3170 C 295.193 -1.61546 3.23396 0
M  V30 3171 O 294.914 -0.738043 4.31839 0
M  V30 3172 C 296.415 -2.4341 3.70495 0
M  V30 3173 H 293.635 -0.230256 0.630257 0
M  V30 3174 H 296.179 -0.0659843 2.04394 0
M  V30 3175 H 294.334 -2.30816 3.11131 0
M  V30 3176 H 294.748 -1.29901 5.08159 0
M  V30 3177 H 296.222 -2.95676 4.66133 0
M  V30 3178 H 296.699 -3.22098 2.98579 0
M  V30 3179 H 297.305 -1.79331 3.85643 0
M  V30 3180 N 295.62 -1.53406 -0.361157 0
M  V30 3181 C 297.036 -1.43277 -0.703124 0
M  V30 3182 C 297.236 -0.575384 -1.9311 0
M  V30 3183 O 296.292 -0.0595362 -2.5243 0
M  V30 3184 C 297.605 -2.8653 -0.9122 0
M  V30 3185 C 299.153 -2.96191 -1.01193 0
M  V30 3186 C 299.628 -4.40514 -1.25345 0
M  V30 3187 N 301.119 -4.43962 -1.32105 0
M  V30 3188 C 301.854 -5.52746 -1.5251 0
M  V30 3189 N 301.35 -6.71567 -1.70203 0
M  V30 3190 N 303.143 -5.40331 -1.54916 0
M  V30 3191 H 295.294 -2.07654 0.446475 0
M  V30 3192 H 297.557 -0.937944 0.137715 0
M  V30 3193 H 297.263 -3.51605 -0.0816414 0
M  V30 3194 H 297.137 -3.30441 -1.81903 0
M  V30 3195 H 299.524 -2.31266 -1.83303 0
M  V30 3196 H 299.605 -2.55667 -0.0823929 0
M  V30 3197 H 299.249 -5.06014 -0.437346 0
M  V30 3198 H 299.179 -4.78614 -2.19627 0
M  V30 3199 H 301.67 -3.58332 -1.20028 0
M  V30 3200 H 301.983 -7.50241 -1.85359 0
M  V30 3201 H 300.328 -6.74545 -1.67373 0
M  V30 3202 H 303.519 -4.46465 -1.40663 0
M  V30 3203 H 303.692 -6.25173 -1.70477 0
M  V30 3204 N 297.098 0.621204 -1.44841 0
M  V30 3205 C 298.328 1.40548 -1.51426 0
M  V30 3206 C 298.736 1.88673 -0.141083 0
M  V30 3207 O 298.079 1.62053 0.865128 0
M  V30 3208 C 298.141 2.65325 -2.42576 0
M  V30 3209 C 297.805 2.3893 -3.89566 0
M  V30 3210 C 298.802 2.00138 -4.79834 0
M  V30 3211 C 296.487 2.52263 -4.3436 0
M  V30 3212 C 298.481 1.75021 -6.129 0
M  V30 3213 C 296.168 2.2676 -5.67471 0
M  V30 3214 C 297.166 1.88199 -6.56559 0
M  V30 3215 O 296.854 1.62986 -7.87204 0
M  V30 3216 H 296.586 0.437122 -0.515655 0
M  V30 3217 H 299.14 0.765987 -1.90583 0
M  V30 3218 H 297.37 3.31947 -1.98364 0
M  V30 3219 H 299.059 3.27347 -2.39998 0
M  V30 3220 H 299.825 1.89386 -4.46495 0
M  V30 3221 H 295.704 2.81246 -3.65269 0
M  V30 3222 H 299.248 1.44848 -6.82396 0
M  V30 3223 H 295.145 2.37125 -6.00368 0
M  V30 3224 H 295.913 1.7715 -7.991 0
M  V30 3225 N 298.576 1.31904 0.862503 0
M  V30 3226 C 299.801 1.25135 1.65397 0
M  V30 3227 C 300.226 -0.179 1.87246 0
M  V30 3228 O 299.584 -1.1277 1.4196 0
M  V30 3229 C 299.632 2.00832 2.99498 0
M  V30 3230 O 298.736 1.35075 3.89652 0
M  V30 3231 H 298.077 0.431655 0.504549 0
M  V30 3232 H 300.607 1.74094 1.07483 0
M  V30 3233 H 300.617 2.10709 3.49379 0
M  V30 3234 H 299.292 3.04847 2.82916 0
M  V30 3235 H 297.869 1.33696 3.48109 0
M  V30 3236 N 300.054 -1.07777 1.14986 0
M  V30 3237 C 300.986 -2.14769 0.800436 0
M  V30 3238 C 301.999 -1.61739 -0.185595 0
M  V30 3239 O 303.188 -1.78462 0.0370358 0
M  V30 3240 C 300.288 -3.38481 0.168533 0
M  V30 3241 C 299.461 -4.20876 1.1909 0
M  V30 3242 C 298.52 -5.22976 0.581575 0
M  V30 3243 O 297.546 -5.55388 1.24633 0
M  V30 3244 N 298.748 -5.76976 -0.638706 0
M  V30 3245 H 301.513 -2.45348 1.72118 0
M  V30 3246 H 299.074 -1.23645 1.04515 0
M  V30 3247 H 301.066 -4.03916 -0.251764 0
M  V30 3248 H 299.636 -3.05651 -0.655467 0
M  V30 3249 H 298.856 -3.51322 1.78791 0
M  V30 3250 H 300.144 -4.7274 1.88133 0
M  V30 3251 H 299.542 -5.52886 -1.19723 0
M  V30 3252 H 298.099 -6.44061 -1.00142 0
M  V30 3253 N 301.532 -0.945985 -1.26051 0
M  V30 3254 C 302.479 -0.45809 -2.26208 0
M  V30 3255 C 303.449 0.484816 -1.58867 0
M  V30 3256 O 304.634 0.399969 -1.86561 0
M  V30 3257 C 301.774 0.266131 -3.44072 0
M  V30 3258 C 300.887 -0.713005 -4.26075 0
M  V30 3259 C 300.022 0.0329013 -5.3119 0
M  V30 3260 C 299.061 -0.93774 -6.04874 0
M  V30 3261 N 298.198 -0.223274 -7.01745 0
M  V30 3262 H 303.038 -1.3171 -2.67313 0
M  V30 3263 H 300.575 -0.66069 -1.31428 0
M  V30 3264 H 302.533 0.702514 -4.11243 0
M  V30 3265 H 301.163 1.08925 -3.03867 0
M  V30 3266 H 300.215 -1.26789 -3.58648 0
M  V30 3267 H 301.527 -1.45406 -4.77136 0
M  V30 3268 H 300.681 0.528335 -6.04395 0
M  V30 3269 H 299.42 0.806801 -4.8098 0
M  V30 3270 H 298.425 -1.44425 -5.30492 0
M  V30 3271 H 299.65 -1.71172 -6.57173 0
M  V30 3272 H 297.596 0.532046 -6.53839 0
M  V30 3273 H 297.513 -0.90357 -7.50581 0
M  V30 3274 H 298.781 0.250907 -7.79096 0
M  V30 3275 N 303.011 1.40521 -0.713556 0
M  V30 3276 C 304.26 2.00155 -0.249192 0
M  V30 3277 C 304.573 1.57224 1.16362 0
M  V30 3278 O 305.779 2.09542 1.72639 0
M  V30 3279 C 304.235 3.5773 -0.3946 0
M  V30 3280 C 303.843 4.09635 -1.81392 0
M  V30 3281 C 305.587 4.24499 0.00907364 0
M  V30 3282 C 303.494 5.59707 -1.91003 0
M  V30 3283 H 302.424 0.74868 -0.0894114 0
M  V30 3284 H 305.075 1.60784 -0.884352 0
M  V30 3285 H 303.457 3.94792 0.30911 0
M  V30 3286 H 304.631 3.83955 -2.54785 0
M  V30 3287 H 302.946 3.55456 -2.16888 0
M  V30 3288 H 305.543 5.34683 -0.0420404 0
M  V30 3289 H 305.886 4.02824 1.05065 0
M  V30 3290 H 306.419 3.92536 -0.645007 0
M  V30 3291 H 303.158 5.86234 -2.93275 0
M  V30 3292 H 302.678 5.87258 -1.22019 0
M  V30 3293 H 304.357 6.24776 -1.6812 0
M  V30 3294 N 304.489 0.459591 1.5075 0
M  V30 3295 C 305.737 -0.0991532 2.01857 0
M  V30 3296 C 306.058 -1.41247 1.34441 0
M  V30 3297 O 305.328 -1.89775 0.486022 0
M  V30 3298 H 303.908 -0.039633 0.745948 0
M  V30 3299 H 306.57 0.607387 1.85194 0
M  V30 3300 H 305.666 -0.258998 3.11023 0
M  V30 3301 N 305.967 -1.56429 0.191757 0
M  V30 3302 C 307.244 -1.89224 -0.495332 0
M  V30 3303 C 307.624 -1.10478 -1.79883 0
M  V30 3304 O 306.972 -0.204852 -2.2758 0
M  V30 3305 C 307.182 -3.41548 -0.717367 0
M  V30 3306 C 308.53 -4.11711 -1.03823 0
M  V30 3307 O 309.554 -3.4698 -0.805204 0
M  V30 3308 O 308.413 -5.2611 -1.47887 0
M  V30 3309 H 305.507 -0.785788 -0.25781 0
M  V30 3310 H 308.053 -1.68111 0.231721 0
M  V30 3311 H 306.825 -3.90772 0.203287 0
M  V30 3312 H 306.448 -3.68342 -1.497 0
M  V30 3313 N 307.445 0.0818655 -1.57387 0
M  V30 3314 C 308.722 0.815343 -1.77796 0
M  V30 3315 C 309.102 1.96289 -0.77679 0
M  V30 3316 O 308.45 2.27691 0.192106 0
M  V30 3317 C 308.66 1.29765 -3.23978 0
M  V30 3318 C 310.008 1.7351 -3.8753 0
M  V30 3319 O 311.032 1.39356 -3.27808 0
M  V30 3320 O 309.891 2.36708 -4.92576 0
M  V30 3321 H 306.985 0.389914 -0.729312 0
M  V30 3322 H 309.531 0.0627213 -1.69584 0
M  V30 3323 H 308.303 0.47608 -3.88393 0
M  V30 3324 H 307.926 2.11189 -3.36875 0
M  V30 3325 N 308.923 1.53595 0.353017 0
M  V30 3326 C 309.853 1.83902 1.43883 0
M  V30 3327 C 310.834 0.693421 1.55324 0
M  V30 3328 O 312.019 0.944452 1.69687 0
M  V30 3329 C 309.149 2.04016 2.8106 0
M  V30 3330 C 308.103 3.19814 2.84434 0
M  V30 3331 C 307.429 3.25244 4.24406 0
M  V30 3332 C 308.729 4.58133 2.50822 0
M  V30 3333 H 310.423 2.74835 1.1877 0
M  V30 3334 H 307.969 1.32242 0.569917 0
M  V30 3335 H 309.922 2.238 3.57059 0
M  V30 3336 H 308.646 1.09804 3.07588 0
M  V30 3337 H 307.305 2.9987 2.10887 0
M  V30 3338 H 306.953 2.28646 4.48029 0
M  V30 3339 H 306.653 4.03054 4.27576 0
M  V30 3340 H 308.177 3.47228 5.0226 0
M  V30 3341 H 309.591 4.77995 3.16534 0
M  V30 3342 H 307.988 5.38276 2.6529 0
M  V30 3343 H 309.058 4.62387 1.46034 0
M  V30 3344 N 310.401 -0.613514 1.45168 0
M  V30 3345 C 311.626 -1.40437 1.52618 0
M  V30 3346 C 312.051 -1.87438 0.157707 0
M  V30 3347 O 311.409 -1.59791 -0.856537 0
M  V30 3348 C 311.457 -2.58894 2.51011 0
M  V30 3349 O 310.561 -3.59326 2.02382 0
M  V30 3350 H 309.902 -0.419506 0.514695 0
M  V30 3351 H 312.432 -0.747215 1.90467 0
M  V30 3352 H 312.442 -3.06214 2.69624 0
M  V30 3353 H 311.117 -2.24032 3.50403 0
M  V30 3354 H 309.694 -3.18695 1.93618 0
M  V30 3355 N 311.879 -1.3236 -0.855495 0
M  V30 3356 C 313.125 -1.23054 -1.612 0
M  V30 3357 C 313.458 0.207404 -1.93089 0
M  V30 3358 O 312.733 1.14432 -1.57275 0
M  V30 3359 C 313.016 -2.08937 -2.93287 0
M  V30 3360 C 312.869 -3.61105 -2.68185 0
M  V30 3361 C 314.188 -1.94986 -3.94549 0
M  V30 3362 H 311.307 -0.448364 -0.584926 0
M  V30 3363 H 313.949 -1.62297 -0.987917 0
M  V30 3364 H 312.099 -1.75599 -3.46551 0
M  V30 3365 H 313.771 -4.04652 -2.21483 0
M  V30 3366 H 312.014 -3.83813 -2.02164 0
M  V30 3367 H 312.685 -4.16522 -3.62234 0
M  V30 3368 H 315.161 -2.24189 -3.5054 0
M  V30 3369 H 314.037 -2.57356 -4.84829 0
M  V30 3370 H 314.298 -0.917263 -4.3248 0
M  V30 3371 N 313.357 1.07166 -1.15556 0
M  V30 3372 C 314.582 1.84053 -0.955988 0
M  V30 3373 C 315.007 1.81586 0.490739 0
M  V30 3374 O 314.365 1.21018 1.34997 0
M  V30 3375 C 314.413 3.28957 -1.47714 0
M  V30 3376 O 313.517 4.06795 -0.677593 0
M  V30 3377 H 312.858 0.569842 -0.340847 0
M  V30 3378 H 315.388 1.35178 -1.53584 0
M  V30 3379 H 315.398 3.79788 -1.4908 0
M  V30 3380 H 314.073 3.30068 -2.53037 0
M  V30 3381 H 312.65 3.6561 -0.733721 0
M  V30 3382 N 314.835 0.952656 1.25548 0
M  V30 3383 C 316.063 0.623496 1.97282 0
M  V30 3384 C 316.478 -0.803987 1.70826 0
M  V30 3385 O 315.835 -1.53755 0.983147 0
M  V30 3386 C 315.886 0.870209 3.5087 0
M  V30 3387 O 315.607 2.24156 3.76412 0
M  V30 3388 C 317.108 0.553164 4.39835 0
M  V30 3389 H 314.328 0.233931 0.628902 0
M  V30 3390 H 316.872 1.27649 1.59768 0
M  V30 3391 H 315.027 0.263652 3.86502 0
M  V30 3392 H 315.441 2.31021 4.70882 0
M  V30 3393 H 316.915 0.776342 5.46513 0
M  V30 3394 H 317.392 -0.512215 4.36203 0
M  V30 3395 H 317.998 1.13896 4.09766 0
M  V30 3396 N 316.313 -1.40141 0.720998 0
M  V30 3397 C 317.559 -2.01572 0.272075 0
M  V30 3398 C 317.914 -1.5616 -1.12391 0
M  V30 3399 O 317.207 -0.774198 -1.75262 0
M  V30 3400 C 317.401 -3.56165 0.296892 0
M  V30 3401 C 317.23 -4.16584 1.69375 0
M  V30 3402 C 316 -4.49783 2.30269 0
M  V30 3403 C 318.198 -4.41076 2.64493 0
M  V30 3404 N 316.18 -4.95626 3.62254 0
M  V30 3405 C 317.551 -4.88971 3.81192 0
M  V30 3406 C 319.606 -4.23122 2.62435 0
M  V30 3407 C 318.309 -5.20796 4.96149 0
M  V30 3408 C 320.335 -4.56052 3.76524 0
M  V30 3409 C 319.697 -5.04141 4.91956 0
M  V30 3410 H 315.796 -0.768343 0.145511 0
M  V30 3411 H 318.38 -1.70287 0.943959 0
M  V30 3412 H 316.551 -3.86868 -0.344578 0
M  V30 3413 H 318.283 -4.04346 -0.169254 0
M  V30 3414 H 315.038 -4.37101 1.82318 0
M  V30 3415 H 315.462 -5.22923 4.29977 0
M  V30 3416 H 320.104 -3.85158 1.74393 0
M  V30 3417 H 317.822 -5.57672 5.84831 0
M  V30 3418 H 321.408 -4.43796 3.76213 0
M  V30 3419 H 320.288 -5.29142 5.78774 0
M  V30 3420 N 317.792 -0.46758 -1.50504 0
M  V30 3421 C 318.722 0.318381 -2.31319 0
M  V30 3422 C 319.703 0.993564 -1.38066 0
M  V30 3423 O 320.888 0.991411 -1.66987 0
M  V30 3424 C 318.018 1.40275 -3.17711 0
M  V30 3425 C 316.972 0.849373 -4.19487 0
M  V30 3426 C 316.298 2.03177 -4.94594 0
M  V30 3427 C 317.598 -0.136942 -5.2212 0
M  V30 3428 H 319.292 -0.356106 -2.97275 0
M  V30 3429 H 316.838 -0.172703 -1.42961 0
M  V30 3430 H 318.791 1.96004 -3.73042 0
M  V30 3431 H 317.515 2.10596 -2.49634 0
M  V30 3432 H 316.174 0.314076 -3.65252 0
M  V30 3433 H 315.822 2.72187 -4.22993 0
M  V30 3434 H 315.522 1.66774 -5.63436 0
M  V30 3435 H 317.046 2.59403 -5.52759 0
M  V30 3436 H 318.46 0.331056 -5.72343 0
M  V30 3437 H 316.857 -0.41507 -5.98663 0
M  V30 3438 H 317.927 -1.06398 -4.73083 0
M  V30 3439 N 319.27 1.56325 -0.20005 0
M  V30 3440 C 320.495 2.02548 0.44597 0
M  V30 3441 C 320.92 1.07922 1.5406 0
M  V30 3442 O 320.278 0.0635775 1.81188 0
M  V30 3443 C 320.326 3.47175 0.974761 0
M  V30 3444 O 319.43 3.55671 2.08739 0
M  V30 3445 H 318.771 0.655862 0.103638 0
M  V30 3446 H 321.301 2.02201 -0.312381 0
M  V30 3447 H 321.311 3.87067 1.2901 0
M  V30 3448 H 319.986 4.15538 0.17347 0
M  V30 3449 H 318.563 3.27657 1.78032 0
M  V30 3450 N 320.748 -0.0735177 1.57428 0
M  V30 3451 C 322.025 -0.805903 1.78226 0
M  V30 3452 C 322.405 -1.95874 0.787189 0
M  V30 3453 O 321.753 -2.2779 -0.180029 0
M  V30 3454 C 321.963 -1.28045 3.24662 0
M  V30 3455 C 323.311 -1.71453 3.88444 0
M  V30 3456 O 324.335 -1.37616 3.28543 0
M  V30 3457 O 323.194 -2.34093 4.93825 0
M  V30 3458 H 320.288 -0.386041 0.73137 0
M  V30 3459 H 322.834 -0.0537269 1.69615 0
M  V30 3460 H 321.606 -0.455476 3.8864 0
M  V30 3461 H 321.229 -2.094 3.37991 0
M  V30 3462 N 322.226 -1.5378 -0.344866 0
M  V30 3463 C 323.474 -1.70625 -1.08311 0
M  V30 3464 C 323.795 -0.471447 -1.89215 0
M  V30 3465 O 323.065 0.514616 -1.8902 0
M  V30 3466 H 321.645 -0.629058 -0.402859 0
M  V30 3467 H 324.307 -1.9103 -0.386459 0
M  V30 3468 H 323.403 -2.57656 -1.76124 0
M  V30 3469 N 323.704 0.605807 -1.45491 0
M  V30 3470 C 324.667 1.69836 -1.5391 0
M  V30 3471 C 325.667 1.55261 -0.418424 0
M  V30 3472 O 326.857 1.60296 -0.681965 0
M  V30 3473 C 323.989 3.09117 -1.43734 0
M  V30 3474 H 325.182 1.63738 -2.51257 0
M  V30 3475 H 322.735 0.821689 -1.32959 0
M  V30 3476 H 323.47 3.20791 -0.475788 0
M  V30 3477 H 323.255 3.21104 -2.25021 0
M  V30 3478 H 324.745 3.88696 -1.52661 0
M  V30 3479 N 325.182 1.32811 0.848464 0
M  V30 3480 C 326.428 1.23907 1.60546 0
M  V30 3481 C 326.761 -0.197161 1.93197 0
M  V30 3482 O 326.036 -1.13596 1.5788 0
M  V30 3483 C 326.319 2.10489 2.92175 0
M  V30 3484 C 326.172 3.62522 2.66266 0
M  V30 3485 C 327.491 1.97075 3.93509 0
M  V30 3486 H 324.61 0.451459 0.58254 0
M  V30 3487 H 327.252 1.62818 0.979296 0
M  V30 3488 H 325.402 1.77434 3.45614 0
M  V30 3489 H 327.074 4.05821 2.19334 0
M  V30 3490 H 325.317 3.84879 2.00126 0
M  V30 3491 H 325.988 4.18437 3.6002 0
M  V30 3492 H 328.464 2.26045 3.49346 0
M  V30 3493 H 327.34 2.59923 4.83457 0
M  V30 3494 H 327.601 0.940186 4.31987 0
M  V30 3495 N 326.66 -1.06551 1.16123 0
M  V30 3496 C 327.623 -2.12132 0.867906 0
M  V30 3497 C 328.623 -1.60224 -0.135944 0
M  V30 3498 O 329.813 -1.73943 0.0946422 0
M  V30 3499 C 326.945 -3.396 0.297419 0
M  V30 3500 H 328.138 -2.39586 1.80385 0
M  V30 3501 H 325.691 -1.22574 0.969812 0
M  V30 3502 H 326.426 -3.17794 -0.64633 0
M  V30 3503 H 326.211 -3.78581 1.02073 0
M  V30 3504 H 327.701 -4.17455 0.110052 0
M  V30 3505 N 328.138 -0.959301 -1.25041 0
M  V30 3506 C 329.386 -0.615393 -1.92503 0
M  V30 3507 C 329.707 0.850969 -1.75452 0
M  V30 3508 O 328.977 1.60658 -1.12098 0
M  V30 3509 H 327.557 -0.224613 -0.712431 0
M  V30 3510 H 330.219 -1.21855 -1.5211 0
M  V30 3511 H 329.315 -0.848738 -3.00338 0
M  V30 3512 N 329.616 1.39756 -0.72842 0
M  V30 3513 C 330.856 2.025 -0.278078 0
M  V30 3514 C 331.22 1.5654 1.11173 0
M  V30 3515 O 332.421 2.11435 1.65978 0
M  V30 3516 C 330.692 3.55489 -0.369139 0
M  V30 3517 S 332.251 4.388 0.00232983 0
M  V30 3518 H 329.069 0.702534 -0.109391 0
M  V30 3519 H 331.671 1.70672 -0.95348 0
M  V30 3520 H 330.375 3.86429 -1.38204 0
M  V30 3521 H 329.906 3.92061 0.324308 0
M  V30 3522 H 331.921 4.80954 1.22055 0
M  V30 3523 N 331.094 0.475555 1.50254 0
M  V30 3524 C 332.51 0.12997 1.5907 0
M  V30 3525 C 332.71 -1.36385 1.48328 0
M  V30 3526 O 331.766 -2.13754 1.34407 0
M  V30 3527 C 333.079 0.684139 2.92814 0
M  V30 3528 C 334.627 0.647965 3.0622 0
M  V30 3529 C 335.102 1.17975 4.42545 0
M  V30 3530 N 336.593 1.13936 4.48969 0
M  V30 3531 C 337.328 1.52129 5.52851 0
M  V30 3532 N 336.824 1.97793 6.63965 0
M  V30 3533 N 338.617 1.43704 5.4342 0
M  V30 3534 H 330.768 1.44706 1.55479 0
M  V30 3535 H 333.031 0.598691 0.735033 0
M  V30 3536 H 332.737 1.73079 3.06164 0
M  V30 3537 H 332.611 0.130204 3.76975 0
M  V30 3538 H 334.998 -0.38979 2.92514 0
M  V30 3539 H 335.079 1.23876 2.23805 0
M  V30 3540 H 334.723 2.21616 4.57 0
M  V30 3541 H 334.653 0.565138 5.23559 0
M  V30 3542 H 337.144 0.804488 3.69238 0
M  V30 3543 H 337.457 2.25072 7.39299 0
M  V30 3544 H 335.802 2.01749 6.65073 0
M  V30 3545 H 338.993 1.07867 4.55502 0
M  V30 3546 H 339.166 1.73794 6.24259 0
M  V30 3547 N 332.573 -1.56217 0.208337 0
M  V30 3548 C 333.819 -1.98242 -0.427552 0
M  V30 3549 C 334.152 -1.09554 -1.60348 0
M  V30 3550 O 333.427 -0.15035 -1.93918 0
M  V30 3551 C 333.71 -3.4931 -0.874907 0
M  V30 3552 C 333.563 -4.48773 0.303751 0
M  V30 3553 C 334.882 -4.04424 -1.73577 0
M  V30 3554 H 332.001 -0.720744 -0.153936 0
M  V30 3555 H 334.643 -1.87586 0.30192 0
M  V30 3556 H 332.793 -3.58522 -1.49648 0
M  V30 3557 H 334.465 -4.51586 0.941682 0
M  V30 3558 H 332.708 -4.23194 0.953375 0
M  V30 3559 H 333.379 -5.51976 -0.0519883 0
M  V30 3560 H 335.855 -3.98075 -1.21143 0
M  V30 3561 H 334.731 -5.1047 -2.01771 0
M  V30 3562 H 334.992 -3.50494 -2.69456 0
M  V30 3563 N 334.051 0.0651679 -1.57465 0
M  V30 3564 C 335.014 1.06117 -2.03155 0
M  V30 3565 C 336.014 1.31204 -0.929632 0
M  V30 3566 O 337.204 1.26813 -1.19432 0
M  V30 3567 C 334.336 2.4032 -2.41783 0
M  V30 3568 H 335.529 0.667231 -2.92383 0
M  V30 3569 H 333.082 0.311075 -1.53173 0
M  V30 3570 H 333.817 2.84532 -1.55601 0
M  V30 3571 H 333.602 2.23451 -3.22199 0
M  V30 3572 H 335.092 3.11898 -2.77685 0
M  V30 3573 N 335.529 1.53961 0.336706 0
M  V30 3574 C 336.492 1.81724 1.39675 0
M  V30 3575 C 337.492 0.688532 1.45313 0
M  V30 3576 O 338.682 0.956829 1.45569 0
M  V30 3577 C 335.814 1.96543 2.78538 0
M  V30 3578 H 337.007 2.76424 1.16318 0
M  V30 3579 H 334.56 1.45478 0.571474 0
M  V30 3580 H 335.295 1.0401 3.07168 0
M  V30 3581 H 335.08 2.78665 2.75841 0
M  V30 3582 H 336.57 2.19516 3.5525 0
M  V30 3583 N 337.007 -0.598083 1.45811 0
M  V30 3584 C 338.253 -1.35882 1.50545 0
M  V30 3585 C 338.586 -1.93616 0.150445 0
M  V30 3586 O 337.861 -1.75604 -0.83628 0
M  V30 3587 C 338.144 -2.49966 2.59208 0
M  V30 3588 C 337.997 -1.97367 4.04186 0
M  V30 3589 C 339.316 -3.52068 2.64076 0
M  V30 3590 H 336.435 -0.492717 0.548087 0
M  V30 3591 H 339.077 -0.673319 1.77669 0
M  V30 3592 H 337.227 -3.08443 2.3621 0
M  V30 3593 H 338.899 -1.43466 4.38423 0
M  V30 3594 H 337.142 -1.283 4.14393 0
M  V30 3595 H 337.813 -2.79649 4.75921 0
M  V30 3596 H 340.289 -3.03448 2.84708 0
M  V30 3597 H 339.165 -4.2937 3.41954 0
M  V30 3598 H 339.426 -4.08304 1.69531 0
M  V30 3599 N 338.485 -1.33259 -0.841409 0
M  V30 3600 C 339.732 -1.24572 -1.5965 0
M  V30 3601 C 340.06 0.189137 -1.93578 0
M  V30 3602 O 339.315 1.14566 -1.5866 0
M  V30 3603 C 339.614 -2.06381 -2.9179 0
M  V30 3604 C 339.28 -3.556 -2.77235 0
M  V30 3605 C 337.942 -3.96282 -2.72973 0
M  V30 3606 C 340.294 -4.50433 -2.62221 0
M  V30 3607 C 337.622 -5.30017 -2.51592 0
M  V30 3608 C 339.974 -5.84327 -2.42374 0
M  V30 3609 C 338.638 -6.24194 -2.36512 0
M  V30 3610 H 337.908 -0.455842 -0.5842 0
M  V30 3611 H 340.555 -1.6482 -0.975016 0
M  V30 3612 H 338.86 -1.58903 -3.5813 0
M  V30 3613 H 340.557 -1.97019 -3.49263 0
M  V30 3614 H 337.147 -3.23298 -2.81384 0
M  V30 3615 H 341.331 -4.19914 -2.64549 0
M  V30 3616 H 336.587 -5.59947 -2.45499 0
M  V30 3617 H 340.761 -6.57414 -2.29739 0
M  V30 3618 H 338.388 -7.27759 -2.19706 0
M  V30 3619 N 339.963 1.05934 -1.16686 0
M  V30 3620 C 340.896 2.1295 -0.820225 0
M  V30 3621 C 341.874 1.61242 0.209722 0
M  V30 3622 O 343.058 1.88271 0.0929688 0
M  V30 3623 C 340.185 3.3797 -0.22223 0
M  V30 3624 C 339.231 4.08488 -1.22637 0
M  V30 3625 S 340.064 4.58015 -2.77457 0
M  V30 3626 C 341.22 5.86292 -2.19117 0
M  V30 3627 H 341.453 2.42025 -1.72659 0
M  V30 3628 H 338.986 1.18423 -0.990722 0
M  V30 3629 H 340.944 4.10335 0.116322 0
M  V30 3630 H 339.605 3.07045 0.66196 0
M  V30 3631 H 338.798 4.98291 -0.756455 0
M  V30 3632 H 338.4 3.42154 -1.51019 0
M  V30 3633 H 340.692 6.59246 -1.56209 0
M  V30 3634 H 341.635 6.38019 -3.07144 0
M  V30 3635 H 342.043 5.40497 -1.62858 0
M  V30 3636 N 341.441 0.965919 1.2453 0
M  V30 3637 C 342.373 0.452465 2.2469 0
M  V30 3638 C 343.386 -0.437821 1.56802 0
M  V30 3639 O 344.575 -0.244283 1.76821 0
M  V30 3640 C 341.675 -0.366258 3.36915 0
M  V30 3641 C 340.848 0.513701 4.34373 0
M  V30 3642 C 339.907 -0.248716 5.25612 0
M  V30 3643 O 338.933 0.356745 5.68081 0
M  V30 3644 N 340.135 -1.53877 5.59734 0
M  V30 3645 H 342.9 1.31361 2.69378 0
M  V30 3646 H 340.461 0.837541 1.38553 0
M  V30 3647 H 342.453 -0.884297 3.94921 0
M  V30 3648 H 341.023 -1.12832 2.91526 0
M  V30 3649 H 340.243 1.21273 3.75082 0
M  V30 3650 H 341.531 1.11391 4.96457 0
M  V30 3651 H 340.929 -2.05243 5.27154 0
M  V30 3652 H 339.486 -2.00254 6.20275 0
M  V30 3653 N 342.919 -1.39368 0.735821 0
M  V30 3654 C 344.149 -2.04498 0.293967 0
M  V30 3655 C 344.557 -1.55593 -1.07645 0
M  V30 3656 O 343.9 -0.716324 -1.69158 0
M  V30 3657 C 343.962 -3.58836 0.218342 0
M  V30 3658 C 343.626 -4.30721 1.52736 0
M  V30 3659 C 344.623 -4.57305 2.47322 0
M  V30 3660 C 342.308 -4.69251 1.79189 0
M  V30 3661 C 344.302 -5.21429 3.66593 0
M  V30 3662 C 341.989 -5.33104 2.98737 0
M  V30 3663 C 342.987 -5.59125 3.9226 0
M  V30 3664 O 342.675 -6.21653 5.09708 0
M  V30 3665 H 342.407 -0.664118 0.126189 0
M  V30 3666 H 344.961 -1.79385 1.00051 0
M  V30 3667 H 343.191 -3.8285 -0.544314 0
M  V30 3668 H 344.88 -4.05447 -0.191626 0
M  V30 3669 H 345.646 -4.27983 2.28156 0
M  V30 3670 H 341.525 -4.48354 1.07239 0
M  V30 3671 H 345.069 -5.41656 4.39607 0
M  V30 3672 H 340.966 -5.61846 3.17803 0
M  V30 3673 H 341.734 -6.40146 5.10054 0
M  V30 3674 N 344.397 -0.483516 -1.5 0
M  V30 3675 C 345.645 0.067027 -2.01989 0
M  V30 3676 C 345.966 1.3909 -1.36671 0
M  V30 3677 O 345.236 1.88978 -0.516152 0
M  V30 3678 H 343.816 0.0277606 -0.746484 0
M  V30 3679 H 346.478 -0.636773 -1.84204 0
M  V30 3680 H 345.574 0.209484 -3.11396 0
M  V30 3681 N 345.875 1.56104 -0.216619 0
M  V30 3682 C 347.124 1.97348 0.416744 0
M  V30 3683 C 347.437 1.10715 1.6125 0
M  V30 3684 O 348.643 1.41836 2.31506 0
M  V30 3685 C 347.099 3.51059 0.792835 0
M  V30 3686 C 346.707 4.46387 -0.379828 0
M  V30 3687 C 348.451 4.01026 1.39208 0
M  V30 3688 C 346.358 5.91397 0.0184223 0
M  V30 3689 H 345.288 0.736942 0.159475 0
M  V30 3690 H 347.939 1.80827 -0.31205 0
M  V30 3691 H 346.321 3.63162 1.57891 0
M  V30 3692 H 347.495 4.46029 -1.15737 0
M  V30 3693 H 345.81 4.06734 -0.891979 0
M  V30 3694 H 348.407 5.0686 1.70286 0
M  V30 3695 H 348.75 3.46587 2.30614 0
M  V30 3696 H 349.283 3.92125 0.669537 0
M  V30 3697 H 346.022 6.49807 -0.862002 0
M  V30 3698 H 345.542 5.94961 0.760384 0
M  V30 3699 H 347.221 6.45455 0.446818 0
M  V30 3700 N 347.353 -0.0568162 1.57498 0
M  V30 3701 C 348.599 -0.75422 1.88253 0
M  V30 3702 C 348.932 -1.76461 0.810865 0
M  V30 3703 O 348.207 -1.93691 -0.177259 0
M  V30 3704 C 348.49 -1.44878 3.2967 0
M  V30 3705 C 348.343 -0.453789 4.47505 0
M  V30 3706 C 349.662 -2.38994 3.69554 0
M  V30 3707 H 346.781 -0.272724 0.684683 0
M  V30 3708 H 349.423 -0.0172113 1.89992 0
M  V30 3709 H 347.573 -2.077 3.28318 0
M  V30 3710 H 349.245 0.170371 4.60985 0
M  V30 3711 H 347.488 0.229552 4.33192 0
M  V30 3712 H 348.159 -0.977699 5.43273 0
M  V30 3713 H 350.635 -1.86239 3.72095 0
M  V30 3714 H 349.511 -2.84587 4.69363 0
M  V30 3715 H 349.772 -3.24461 3.00296 0
M  V30 3716 N 348.832 -1.54138 -0.328536 0
M  V30 3717 C 349.795 -1.82462 -1.38709 0
M  V30 3718 C 350.795 -0.696229 -1.44946 0
M  V30 3719 O 351.985 -0.964535 -1.4506 0
M  V30 3720 C 349.117 -1.98018 -2.77492 0
M  V30 3721 H 350.31 -2.77037 -1.14851 0
M  V30 3722 H 347.863 -1.45779 -0.563751 0
M  V30 3723 H 348.598 -1.05637 -3.06613 0
M  V30 3724 H 348.383 -2.80124 -2.74359 0
M  V30 3725 H 349.873 -2.21396 -3.54081 0
M  V30 3726 N 350.31 0.590341 -1.46126 0
M  V30 3727 C 351.258 1.72105 -1.5647 0
M  V30 3728 C 352.252 1.63756 -0.433612 0
M  V30 3729 O 353.458 1.69342 -0.610194 0
M  V30 3730 H 349.833 0.568889 -0.491802 0
M  V30 3731 H 351.804 1.6051 -2.51553 0
M  V30 3732 C 350.553 3.10493 -1.56491 0
M  V30 3733 H 349.876 3.17583 -2.4286 0
M  V30 3734 H 351.316 3.8939 -1.67785 0
M  V30 3735 C 349.775 3.3563 -0.292231 0
M  V30 3736 O 350.305 3.96875 0.620739 0
M  V30 3737 N 348.511 2.90026 -0.182523 0
M  V30 3738 H 348.058 2.40367 -0.926356 0
M  V30 3739 H 348.016 3.07218 0.668152 0
M  V30 3740 N 351.788 1.33704 0.83433 0
M  V30 3741 C 353.018 1.28281 1.6195 0
M  V30 3742 C 353.426 -0.147603 1.88623 0
M  V30 3743 O 352.769 -1.1016 1.47005 0
M  V30 3744 C 352.831 1.99386 2.99141 0
M  V30 3745 C 352.495 3.48681 2.95416 0
M  V30 3746 C 353.492 4.438 2.70809 0
M  V30 3747 C 351.177 3.90925 3.15409 0
M  V30 3748 C 353.171 5.79138 2.66229 0
M  V30 3749 C 350.858 5.26366 3.10454 0
M  V30 3750 C 351.856 6.20284 2.85895 0
M  V30 3751 O 351.544 7.53245 2.80852 0
M  V30 3752 H 351.276 0.44315 0.510484 0
M  V30 3753 H 353.83 1.76711 1.04702 0
M  V30 3754 H 352.06 1.45554 3.58261 0
M  V30 3755 H 353.749 1.87403 3.60049 0
M  V30 3756 H 354.515 4.12485 2.5511 0
M  V30 3757 H 350.394 3.18229 3.33543 0
M  V30 3758 H 353.938 6.52416 2.4698 0
M  V30 3759 H 349.835 5.57304 3.25703 0
M  V30 3760 H 350.603 7.62846 2.96661 0
M  V30 3761 N 353.266 -1.05314 1.17247 0
M  V30 3762 C 354.506 -1.79869 0.970898 0
M  V30 3763 C 354.87 -1.85594 -0.491808 0
M  V30 3764 O 356.071 -2.56229 -0.812409 0
M  V30 3765 C 354.342 -3.19937 1.59295 0
M  V30 3766 S 355.901 -4.10986 1.53741 0
M  V30 3767 H 352.719 -0.61949 0.348931 0
M  V30 3768 H 355.321 -1.26368 1.49169 0
M  V30 3769 H 354.025 -3.13372 2.65003 0
M  V30 3770 H 353.556 -3.78515 1.07191 0
M  V30 3771 H 355.571 -4.93203 0.544537 0
M  V30 3772 N 354.744 -0.972509 -1.24016 0
M  V30 3773 C 355.99 -0.647583 -1.92816 0
M  V30 3774 C 356.345 0.809015 -1.74564 0
M  V30 3775 O 355.638 1.57502 -1.09103 0
M  V30 3776 C 355.832 -0.963694 -3.44162 0
M  V30 3777 C 355.661 -2.44947 -3.77135 0
M  V30 3778 C 354.431 -3.11012 -3.98246 0
M  V30 3779 C 356.629 -3.42978 -3.83237 0
M  V30 3780 N 354.611 -4.49277 -4.18358 0
M  V30 3781 C 355.982 -4.66619 -4.08248 0
M  V30 3782 C 358.037 -3.37569 -3.65994 0
M  V30 3783 C 356.74 -5.85516 -4.17808 0
M  V30 3784 C 358.766 -4.55822 -3.76802 0
M  V30 3785 C 358.128 -5.78256 -4.02243 0
M  V30 3786 H 354.227 -0.287894 -0.727077 0
M  V30 3787 H 356.811 -1.24835 -1.49413 0
M  V30 3788 H 354.982 -0.391692 -3.8642 0
M  V30 3789 H 356.714 -0.596849 -4.00275 0
M  V30 3790 H 353.469 -2.61529 -3.94841 0
M  V30 3791 H 353.893 -5.20935 -4.32384 0
M  V30 3792 H 358.535 -2.43945 -3.45327 0
M  V30 3793 H 356.253 -6.79564 -4.37285 0
M  V30 3794 H 359.839 -4.53204 -3.64825 0
M  V30 3795 H 358.719 -6.68231 -4.10411 0
M  V30 3796 N 356.222 1.38976 -0.743202 0
M  V30 3797 C 357.152 2.33171 -0.123873 0
M  V30 3798 C 358.133 1.54336 0.71516 0
M  V30 3799 O 359.318 1.82696 0.658467 0
M  V30 3800 C 356.448 3.38474 0.777978 0
M  V30 3801 C 355.402 4.27979 0.0424758 0
M  V30 3802 C 354.728 5.2405 1.06189 0
M  V30 3803 C 356.028 5.10155 -1.1198 0
M  V30 3804 H 357.722 2.85213 -0.910709 0
M  V30 3805 H 355.268 1.37133 -0.439388 0
M  V30 3806 H 357.221 4.03328 1.22084 0
M  V30 3807 H 355.945 2.84891 1.59702 0
M  V30 3808 H 354.604 3.64616 -0.380853 0
M  V30 3809 H 354.252 4.66758 1.87472 0
M  V30 3810 H 353.952 5.84785 0.574485 0
M  V30 3811 H 355.476 5.9178 1.50428 0
M  V30 3812 H 356.89 5.68307 -0.75499 0
M  V30 3813 H 355.287 5.80073 -1.53738 0
M  V30 3814 H 356.357 4.44504 -1.93764 0
M  V30 3815 N 357.7 0.491464 1.49741 0
M  V30 3816 C 358.63 -0.28154 2.31796 0
M  V30 3817 C 359.611 -0.971473 1.3963 0
M  V30 3818 O 360.796 -0.964719 1.68543 0
M  V30 3819 C 357.926 -1.35203 3.19902 0
M  V30 3820 C 356.88 -0.782529 4.20786 0
M  V30 3821 C 356.206 -1.95283 4.97764 0
M  V30 3822 C 357.506 0.21999 5.21837 0
M  V30 3823 H 359.2 0.403355 2.96671 0
M  V30 3824 H 356.746 0.195425 1.42668 0
M  V30 3825 H 358.699 -1.90045 3.76113 0
M  V30 3826 H 357.423 -2.06598 2.52953 0
M  V30 3827 H 356.082 -0.255928 3.65706 0
M  V30 3828 H 355.73 -2.65423 4.2727 0
M  V30 3829 H 355.43 -1.57789 5.66018 0
M  V30 3830 H 356.954 -2.50577 5.56816 0
M  V30 3831 H 358.368 -0.23996 5.72798 0
M  V30 3832 H 356.765 0.51026 5.97927 0
M  V30 3833 H 357.835 1.13911 4.7133 0
M  V30 3834 N 359.178 -1.55987 0.224894 0
M  V30 3835 C 360.424 -1.98684 -0.406502 0
M  V30 3836 C 360.757 -1.11248 -1.59177 0
M  V30 3837 O 360.032 -0.170909 -1.93748 0
M  V30 3838 C 360.315 -3.50218 -0.837808 0
M  V30 3839 C 360.168 -4.48426 0.351332 0
M  V30 3840 C 361.487 -4.06243 -1.69278 0
M  V30 3841 H 358.606 -0.722337 -0.146283 0
M  V30 3842 H 361.248 -1.87255 0.321799 0
M  V30 3843 H 359.398 -3.60089 -1.45837 0
M  V30 3844 H 361.07 -4.50562 0.989526 0
M  V30 3845 H 359.313 -4.22159 0.998207 0
M  V30 3846 H 359.984 -5.52 0.00655905 0
M  V30 3847 H 362.46 -3.99337 -1.16914 0
M  V30 3848 H 361.336 -5.12581 -1.96346 0
M  V30 3849 H 361.597 -3.53332 -2.65723 0
M  V30 3850 N 360.656 0.0484629 -1.57525 0
M  V30 3851 C 361.566 1.07241 -2.08654 0
M  V30 3852 C 362.582 1.409 -1.02095 0
M  V30 3853 O 363.758 1.50609 -1.33712 0
M  V30 3854 C 360.823 2.36008 -2.5397 0
M  V30 3855 C 359.884 2.09108 -3.7493 0
M  V30 3856 C 359.117 3.31736 -4.18075 0
M  V30 3857 O 359.34 4.41714 -3.60895 0
M  V30 3858 O 358.274 3.18576 -5.10679 0
M  V30 3859 H 362.1 0.667965 -2.96263 0
M  V30 3860 H 359.685 0.26417 -1.47046 0
M  V30 3861 H 361.567 3.11747 -2.83535 0
M  V30 3862 H 360.242 2.75786 -1.69481 0
M  V30 3863 H 359.149 1.31 -3.50414 0
M  V30 3864 H 360.482 1.74198 -4.60343 0
M  V30 3865 N 362.134 1.5431 0.320358 0
M  V30 3866 C 363.382 1.72327 1.05583 0
M  V30 3867 C 363.703 0.50149 1.88441 0
M  V30 3868 O 362.973 -0.48448 1.89815 0
M  V30 3869 H 361.553 0.635387 0.3928 0
M  V30 3870 H 364.215 1.91621 0.356019 0
M  V30 3871 H 363.311 2.60426 1.72003 0
M  V30 3872 N 363.613 -0.582584 1.46437 0
M  V30 3873 C 364.543 -1.70187 1.59871 0
M  V30 3874 C 365.524 -1.64066 0.449042 0
M  V30 3875 O 366.709 -1.82081 0.6753 0
M  V30 3876 C 363.839 -3.08827 1.58881 0
M  V30 3877 C 362.793 -3.29779 2.72819 0
M  V30 3878 C 362.119 -4.68947 2.5689 0
M  V30 3879 C 363.419 -3.17601 4.1464 0
M  V30 3880 H 365.113 -1.592 2.53566 0
M  V30 3881 H 362.659 -0.764472 1.22032 0
M  V30 3882 H 364.612 -3.86951 1.66873 0
M  V30 3883 H 363.336 -3.20713 0.617306 0
M  V30 3884 H 361.995 -2.54054 2.64296 0
M  V30 3885 H 361.643 -4.77599 1.57823 0
M  V30 3886 H 361.343 -4.83919 3.33312 0
M  V30 3887 H 362.867 -5.4924 2.66773 0
M  V30 3888 H 364.281 -3.8557 4.24274 0
M  V30 3889 H 362.678 -3.44094 4.9165 0
M  V30 3890 H 363.748 -2.14681 4.34788 0
M  V30 3891 N 365.091 -1.34144 -0.827227 0
M  V30 3892 C 366.321 -1.29138 -1.61267 0
M  V30 3893 C 366.729 0.137597 -1.88699 0
M  V30 3894 O 366.072 1.09379 -1.47587 0
M  V30 3895 C 366.134 -2.0097 -2.9808 0
M  V30 3896 C 365.798 -3.50242 -2.93563 0
M  V30 3897 C 366.795 -4.4523 -2.68452 0
M  V30 3898 C 364.48 -3.92592 -3.13331 0
M  V30 3899 C 366.474 -5.80542 -2.63154 0
M  V30 3900 C 364.161 -5.28005 -3.07658 0
M  V30 3901 C 365.159 -6.21792 -2.82602 0
M  V30 3902 O 364.847 -7.54723 -2.76853 0
M  V30 3903 H 364.579 -0.445851 -0.508127 0
M  V30 3904 H 367.133 -1.77263 -1.03763 0
M  V30 3905 H 365.363 -1.47451 -3.57484 0
M  V30 3906 H 367.052 -1.89309 -3.5905 0
M  V30 3907 H 367.818 -4.13832 -2.52919 0
M  V30 3908 H 363.697 -3.19994 -3.31851 0
M  V30 3909 H 367.241 -6.53717 -2.43516 0
M  V30 3910 H 363.138 -5.59023 -3.22743 0
M  V30 3911 H 363.906 -7.64409 -2.92611 0
M  V30 3912 N 366.569 1.04691 -1.17803 0
M  V30 3913 C 367.499 2.14494 -0.92275 0
M  V30 3914 C 368.48 1.69546 0.137179 0
M  V30 3915 O 369.665 1.94195 -0.0141108 0
M  V30 3916 C 366.795 3.44491 -0.440803 0
M  V30 3917 C 365.749 4.03031 -1.4405 0
M  V30 3918 C 365.075 5.28432 -0.81631 0
M  V30 3919 C 366.375 4.39932 -2.81527 0
M  V30 3920 H 368.069 2.36107 -1.84103 0
M  V30 3921 H 365.615 1.1347 -0.886599 0
M  V30 3922 H 367.568 4.2066 -0.249602 0
M  V30 3923 H 366.292 3.22546 0.513025 0
M  V30 3924 H 364.951 3.28937 -1.61853 0
M  V30 3925 H 364.599 5.02792 0.144511 0
M  V30 3926 H 364.299 5.68559 -1.48371 0
M  V30 3927 H 365.823 6.07284 -0.635496 0
M  V30 3928 H 367.237 5.07113 -2.67412 0
M  V30 3929 H 365.634 4.9109 -3.44892 0
M  V30 3930 H 366.704 3.50045 -3.35554 0
M  V30 3931 N 368.047 0.979072 1.23499 0
M  V30 3932 C 368.997 0.489378 2.22686 0
M  V30 3933 C 369.981 -0.434871 1.54912 0
M  V30 3934 O 371.173 -0.263941 1.75021 0
M  V30 3935 C 368.302 -0.208178 3.42668 0
M  V30 3936 C 367.388 0.735563 4.17672 0
M  V30 3937 N 367.779 1.87763 4.69658 0
M  V30 3938 C 366.077 0.548625 4.42613 0
M  V30 3939 C 366.778 2.46886 5.26709 0
M  V30 3940 N 365.754 1.75287 5.14563 0
M  V30 3941 H 369.556 1.36062 2.60508 0
M  V30 3942 H 367.07 0.83958 1.39014 0
M  V30 3943 H 369.067 -0.576295 4.12898 0
M  V30 3944 H 367.727 -1.07572 3.06363 0
M  V30 3945 H 368.738 2.25885 4.66043 0
M  V30 3946 H 365.415 -0.274006 4.166 0
M  V30 3947 H 366.805 3.43326 5.77561 0
M  V30 3948 N 369.525 -1.3858 0.750561 0
M  V30 3949 C 370.473 -2.32339 0.110162 0
M  V30 3950 C 371.467 -1.53864 -0.708674 0
M  V30 3951 O 372.673 -1.69417 -0.608112 0
M  V30 3952 H 369.048 -0.751812 0.0168275 0
M  V30 3953 H 371.019 -2.83959 0.917053 0
M  V30 3954 C 369.768 -3.39043 -0.771067 0
M  V30 3955 H 369.091 -3.99517 -0.150374 0
M  V30 3956 H 370.531 -4.07061 -1.1865 0
M  V30 3957 C 368.99 -2.77365 -1.91234 0
M  V30 3958 O 369.52 -2.66434 -3.00626 0
M  V30 3959 N 367.726 -2.35219 -1.70646 0
M  V30 3960 H 367.273 -2.4431 -0.81673 0
M  V30 3961 H 367.231 -1.94294 -2.47178 0
M  V30 3962 N 371.003 -0.499398 -1.49478 0
M  V30 3963 C 371.933 0.269244 -2.31943 0
M  V30 3964 C 372.914 0.964054 -1.40143 0
M  V30 3965 O 374.099 0.955767 -1.69052 0
M  V30 3966 C 371.229 1.33504 -3.20615 0
M  V30 3967 C 370.183 0.760202 -4.21195 0
M  V30 3968 C 369.509 1.9264 -4.98792 0
M  V30 3969 C 370.809 -0.247661 -5.21712 0
M  V30 3970 H 372.503 -0.419082 -2.96452 0
M  V30 3971 H 370.049 -0.202988 -1.42562 0
M  V30 3972 H 372.002 1.88048 -3.77115 0
M  V30 3973 H 370.726 2.05253 -2.54045 0
M  V30 3974 H 369.385 0.23653 -3.65836 0
M  V30 3975 H 369.033 2.63154 -4.28671 0
M  V30 3976 H 368.733 1.54785 -5.66847 0
M  V30 3977 H 370.257 2.4762 -5.58137 0
M  V30 3978 H 371.671 0.209579 -5.72917 0
M  V30 3979 H 370.068 -0.541962 -5.97648 0
M  V30 3980 H 371.138 -1.16409 -4.7072 0
M  V30 3981 N 372.481 1.55866 -0.233164 0
M  V30 3982 C 373.411 2.23783 0.666599 0
M  V30 3983 C 374.392 1.21343 1.19205 0
M  V30 3984 O 375.577 1.4996 1.23392 0
M  V30 3985 C 372.707 2.92671 1.86978 0
M  V30 3986 C 371.661 4.01682 1.47768 0
M  V30 3987 C 370.987 4.57926 2.76058 0
M  V30 3988 C 372.287 5.18126 0.658993 0
M  V30 3989 H 373.981 2.99232 0.100306 0
M  V30 3990 H 371.527 1.43924 0.046804 0
M  V30 3991 H 373.48 3.3888 2.50476 0
M  V30 3992 H 372.204 2.14688 2.46123 0
M  V30 3993 H 370.863 3.56222 0.866106 0
M  V30 3994 H 370.511 3.76659 3.33372 0
M  V30 3995 H 370.211 5.31505 2.50552 0
M  V30 3996 H 371.735 5.06859 3.40479 0
M  V30 3997 H 373.149 5.60644 1.19795 0
M  V30 3998 H 371.546 5.98009 0.500552 0
M  V30 3999 H 372.616 4.83763 -0.331856 0
M  V30 4000 N 373.959 -0.0401083 1.57549 0
M  V30 4001 C 375.207 -0.731677 1.8839 0
M  V30 4002 C 375.528 -1.76481 0.829425 0
M  V30 4003 O 374.798 -1.95411 -0.1383 0
M  V30 4004 H 373.378 -0.273225 0.695239 0
M  V30 4005 H 376.04 -0.00867725 1.94898 0
M  V30 4006 H 375.136 -1.22816 2.86919 0
M  V30 4007 N 375.437 -1.54477 -0.31217 0
M  V30 4008 C 376.367 -1.87652 -1.38957 0
M  V30 4009 C 377.348 -0.734358 -1.53431 0
M  V30 4010 O 378.533 -0.98911 -1.67123 0
M  V30 4011 C 375.663 -2.11396 -2.75552 0
M  V30 4012 C 374.617 -3.27243 -2.75855 0
M  V30 4013 C 373.943 -3.36382 -4.15633 0
M  V30 4014 C 375.243 -4.64622 -2.38587 0
M  V30 4015 H 376.937 -2.77887 -1.11442 0
M  V30 4016 H 374.483 -1.33707 -0.534655 0
M  V30 4017 H 376.436 -2.33189 -3.51 0
M  V30 4018 H 375.16 -1.17921 -3.04569 0
M  V30 4019 H 373.819 -3.05356 -2.02863 0
M  V30 4020 H 373.467 -2.40445 -4.41809 0
M  V30 4021 H 373.167 -4.14249 -4.1674 0
M  V30 4022 H 374.691 -3.60422 -4.92877 0
M  V30 4023 H 376.105 -4.86219 -3.03749 0
M  V30 4024 H 374.502 -5.45121 -2.50925 0
M  V30 4025 H 375.572 -4.66097 -1.33723 0
M  V30 4026 N 376.915 0.57481 -1.46744 0
M  V30 4027 C 377.878 1.66533 -1.57478 0
M  V30 4028 C 378.878 1.54338 -0.451263 0
M  V30 4029 O 380.068 1.58814 -0.715813 0
M  V30 4030 C 377.2 3.05999 -1.50259 0
M  V30 4031 H 378.393 1.58372 -2.54673 0
M  V30 4032 H 375.946 0.793301 -1.34672 0
M  V30 4033 H 376.681 3.19709 -0.543725 0
M  V30 4034 H 376.466 3.16259 -2.31781 0
M  V30 4035 H 377.956 3.8537 -1.60872 0
M  V30 4036 N 378.394 1.34581 0.820102 0
M  V30 4037 C 379.622 1.3018 1.60813 0
M  V30 4038 C 380.037 -0.123551 1.88395 0
M  V30 4039 O 379.394 -1.07148 1.47735 0
M  V30 4040 C 379.445 2.09312 2.94739 0
M  V30 4041 O 379.166 3.46288 2.68358 0
M  V30 4042 C 380.667 2.1234 3.89136 0
M  V30 4043 H 377.887 0.447726 0.499782 0
M  V30 4044 H 380.431 1.77237 1.02017 0
M  V30 4045 H 378.586 1.65889 3.50085 0
M  V30 4046 H 379 3.87227 3.53774 0
M  V30 4047 H 380.474 2.72126 4.80262 0
M  V30 4048 H 380.951 1.11854 4.24718 0
M  V30 4049 H 381.557 2.55864 3.39726 0
M  V30 4050 N 379.872 -1.04064 1.18357 0
M  V30 4051 C 380.802 -2.14001 0.934113 0
M  V30 4052 C 381.783 -1.69616 -0.128186 0
M  V30 4053 O 382.968 -1.94185 0.0244093 0
M  V30 4054 C 380.098 -3.44253 0.459066 0
M  V30 4055 C 379.052 -4.02261 1.46185 0
M  V30 4056 C 378.378 -5.27992 0.844322 0
M  V30 4057 C 379.678 -4.38432 2.83856 0
M  V30 4058 H 381.372 -2.35127 1.85352 0
M  V30 4059 H 378.918 -1.12998 0.892604 0
M  V30 4060 H 380.871 -4.20522 0.271907 0
M  V30 4061 H 379.595 -3.22813 -0.495912 0
M  V30 4062 H 378.254 -3.28074 1.63595 0
M  V30 4063 H 377.902 -5.02862 -0.117845 0
M  V30 4064 H 377.602 -5.67765 1.51384 0
M  V30 4065 H 379.126 -6.06938 0.667693 0
M  V30 4066 H 380.54 -5.05688 2.70098 0
M  V30 4067 H 378.937 -4.89254 3.47491 0
M  V30 4068 H 380.007 -3.4826 3.37406 0
M  V30 4069 N 381.35 -0.985608 -1.22978 0
M  V30 4070 C 382.761 -0.693593 -1.73338 0
M  V30 4071 C 383.112 0.789935 -1.79595 0
M  V30 4072 O 382.237 1.61771 -1.43733 0
M  V30 4073 C 382.832 -1.25235 -3.14804 0
M  V30 4074 C 381.391 -1.00987 -3.626 0
M  V30 4075 C 380.538 -1.37695 -2.40698 0
M  V30 4076 H 383.489 -1.15884 -1.08428 0
M  V30 4077 H 383.51 -0.627329 -3.75293 0
M  V30 4078 H 383.022 -2.33209 -3.10218 0
M  V30 4079 H 381.123 0.0535565 -3.72562 0
M  V30 4080 H 381.236 -1.66812 -4.49122 0
M  V30 4081 H 379.6 -0.795459 -2.4196 0
M  V30 4082 H 380.383 -2.46657 -2.38779 0
M  V30 4083 N 382.828 1.3818 -0.7579 0
M  V30 4084 C 383.738 2.3421 -0.135247 0
M  V30 4085 C 384.754 1.59487 0.695683 0
M  V30 4086 O 385.93 1.91657 0.618832 0
M  V30 4087 C 382.995 3.3862 0.744139 0
M  V30 4088 C 382.056 4.2918 -0.101658 0
M  V30 4089 C 381.289 5.28603 0.735851 0
M  V30 4090 O 381.512 5.35166 1.97366 0
M  V30 4091 O 380.446 6.01707 0.152372 0
M  V30 4092 H 384.272 2.8916 -0.928436 0
M  V30 4093 H 381.857 1.40101 -0.518855 0
M  V30 4094 H 383.739 4.02539 1.2466 0
M  V30 4095 H 382.414 2.86019 1.51575 0
M  V30 4096 H 381.321 3.68407 -0.650167 0
M  V30 4097 H 382.654 4.85048 -0.836024 0
M  V30 4098 N 384.306 0.507319 1.49211 0
M  V30 4099 C 385.722 0.163682 1.58758 0
M  V30 4100 C 385.922 -1.33208 1.51188 0
M  V30 4101 O 384.978 -2.10855 1.38911 0
M  V30 4102 C 386.291 0.746095 2.91297 0
M  V30 4103 C 387.839 0.712773 3.04776 0
M  V30 4104 C 388.314 1.27336 4.39943 0
M  V30 4105 N 389.805 1.23433 4.46451 0
M  V30 4106 C 390.54 1.63821 5.495 0
M  V30 4107 N 390.036 2.11832 6.5962 0
M  V30 4108 N 391.829 1.55198 5.4025 0
M  V30 4109 H 383.98 1.47972 1.52375 0
M  V30 4110 H 386.243 0.614147 0.722168 0
M  V30 4111 H 385.949 1.79534 3.02424 0
M  V30 4112 H 385.823 0.210137 3.76614 0
M  V30 4113 H 388.21 -0.327656 2.93275 0
M  V30 4114 H 388.291 1.28595 2.21127 0
M  V30 4115 H 387.935 2.3126 4.52196 0
M  V30 4116 H 387.865 0.676066 5.22242 0
M  V30 4117 H 390.356 0.882627 3.67448 0
M  V30 4118 H 390.669 2.40703 7.34358 0
M  V30 4119 H 389.014 2.1581 6.60644 0
M  V30 4120 H 392.205 1.17505 4.53112 0
M  V30 4121 H 392.378 1.86997 6.20432 0
M  V30 4122 N 385.784 -1.5574 0.241426 0
M  V30 4123 C 387.009 -2.0366 -0.392111 0
M  V30 4124 C 387.434 -1.11969 -1.51144 0
M  V30 4125 O 386.792 -0.111594 -1.80956 0
M  V30 4126 C 386.84 -3.49638 -0.882371 0
M  V30 4127 O 385.944 -3.6108 -1.99235 0
M  V30 4128 H 385.285 -0.658379 -0.0862122 0
M  V30 4129 H 387.815 -2.01302 0.365881 0
M  V30 4130 H 387.825 -3.90351 -1.18702 0
M  V30 4131 H 386.5 -4.15852 -0.0632361 0
M  V30 4132 H 385.077 -3.32262 -1.69282 0
M  V30 4133 N 387.262 0.0317525 -1.57568 0
M  V30 4134 C 388.509 0.723104 -1.89149 0
M  V30 4135 C 388.837 1.75504 -0.838377 0
M  V30 4136 O 388.092 1.95037 0.160982 0
M  V30 4137 C 388.391 1.43167 -3.27472 0
M  V30 4138 C 388.057 0.535972 -4.47703 0
M  V30 4139 C 386.719 0.289262 -4.8033 0
M  V30 4140 C 389.071 -0.0826125 -5.21135 0
M  V30 4141 C 386.399 -0.584853 -5.83778 0
M  V30 4142 C 388.751 -0.944414 -6.25511 0
M  V30 4143 C 387.415 -1.20061 -6.56614 0
M  V30 4144 H 386.685 0.264602 -0.692146 0
M  V30 4145 H 389.332 -0.0169496 -1.91492 0
M  V30 4146 H 387.637 2.24497 -3.21105 0
M  V30 4147 H 389.334 1.97209 -3.49155 0
M  V30 4148 H 385.924 0.738414 -4.22191 0
M  V30 4149 H 390.108 0.0950302 -4.96209 0
M  V30 4150 H 385.364 -0.79168 -6.06253 0
M  V30 4151 H 389.538 -1.43026 -6.81554 0
M  V30 4152 H 387.165 -1.87967 -7.36595 0
M  V30 4153 N 388.74 1.54641 0.303973 0
M  V30 4154 C 389.987 1.7378 1.03955 0
M  V30 4155 C 390.315 0.521986 1.87365 0
M  V30 4156 O 389.57 -0.496099 1.89308 0
M  V30 4157 C 389.869 2.97753 1.97681 0
M  V30 4158 C 389.535 4.31671 1.30271 0
M  V30 4159 C 388.197 4.68075 1.11619 0
M  V30 4160 C 390.549 5.147 0.82055 0
M  V30 4161 C 387.877 5.8509 0.434304 0
M  V30 4162 C 390.229 6.32416 0.152395 0
M  V30 4163 C 388.893 6.67484 -0.0461067 0
M  V30 4164 H 388.163 0.635908 0.380398 0
M  V30 4165 H 390.81 1.88896 0.314718 0
M  V30 4166 H 389.115 2.77406 2.76682 0
M  V30 4167 H 390.812 3.09756 2.54661 0
M  V30 4168 H 387.402 4.03041 1.45795 0
M  V30 4169 H 391.586 4.87077 0.952374 0
M  V30 4170 H 386.842 6.10806 0.269495 0
M  V30 4171 H 391.016 6.96023 -0.229126 0
M  V30 4172 H 388.643 7.58011 -0.576494 0
M  V30 4173 N 390.218 -0.567019 1.47046 0
M  V30 4174 C 391.443 -1.3551 1.57009 0
M  V30 4175 C 391.868 -1.86841 0.217259 0
M  V30 4176 O 391.226 -1.62435 -0.805268 0
M  V30 4177 C 391.274 -2.50777 2.5912 0
M  V30 4178 O 390.378 -3.52706 2.13711 0
M  V30 4179 H 389.719 -0.402919 0.52778 0
M  V30 4180 H 392.249 -0.686241 1.92748 0
M  V30 4181 H 392.259 -2.97481 2.79229 0
M  V30 4182 H 390.934 -2.12771 3.57353 0
M  V30 4183 H 389.511 -3.12374 2.03659 0
M  V30 4184 N 391.696 -1.35014 -0.812953 0
M  V30 4185 C 392.626 -1.30069 -1.93919 0
M  V30 4186 C 393.607 -0.176275 -1.69184 0
M  V30 4187 O 394.792 -0.370227 -1.90638 0
M  V30 4188 C 391.922 -1.06547 -3.30552 0
M  V30 4189 C 390.876 -2.15561 -3.69753 0
M  V30 4190 C 390.202 -1.77214 -5.04479 0
M  V30 4191 C 391.502 -3.57476 -3.808 0
M  V30 4192 H 393.196 -2.24303 -1.98314 0
M  V30 4193 H 390.742 -1.07977 -0.952736 0
M  V30 4194 H 392.695 -1.01729 -4.08937 0
M  V30 4195 H 391.419 -0.0875719 -3.26483 0
M  V30 4196 H 390.078 -2.19466 -2.9365 0
M  V30 4197 H 389.726 -0.780589 -4.96906 0
M  V30 4198 H 389.426 -2.50184 -5.31678 0
M  V30 4199 H 390.95 -1.7391 -5.8531 0
M  V30 4200 H 392.364 -3.55929 -4.4943 0
M  V30 4201 H 390.761 -4.29152 -4.19462 0
M  V30 4202 H 391.831 -3.94091 -2.82525 0
M  V30 4203 N 393.175 1.03435 -1.18907 0
M  V30 4204 C 394.405 1.8012 -1.01195 0
M  V30 4205 C 394.813 1.8395 0.442613 0
M  V30 4206 O 394.156 1.27836 1.31923 0
M  V30 4207 C 394.218 3.26792 -1.49823 0
M  V30 4208 C 393.882 3.46609 -2.97844 0
M  V30 4209 C 394.879 3.37278 -3.95651 0
M  V30 4210 C 392.564 3.73001 -3.36416 0
M  V30 4211 C 394.558 3.54054 -5.30023 0
M  V30 4212 C 392.245 3.89423 -4.70949 0
M  V30 4213 C 393.243 3.79951 -5.67562 0
M  V30 4214 O 392.931 3.95895 -6.99659 0
M  V30 4215 H 392.663 0.573865 -0.357289 0
M  V30 4216 H 395.217 1.31207 -1.58031 0
M  V30 4217 H 393.447 3.76703 -0.873578 0
M  V30 4218 H 395.136 3.85055 -1.28404 0
M  V30 4219 H 395.902 3.16846 -3.67197 0
M  V30 4220 H 391.781 3.79469 -2.61772 0
M  V30 4221 H 395.325 3.46577 -6.05417 0
M  V30 4222 H 391.222 4.09351 -4.99101 0
M  V30 4223 H 391.99 4.13019 -7.06653 0
M  V30 4224 N 394.653 0.992116 1.22453 0
M  V30 4225 C 395.583 0.561677 2.26644 0
M  V30 4226 C 396.564 -0.411055 1.65059 0
M  V30 4227 O 397.749 -0.301861 1.9184 0
M  V30 4228 C 394.879 -0.125247 3.47074 0
M  V30 4229 C 393.833 0.765948 4.21091 0
M  V30 4230 C 393.159 -0.0538484 5.34673 0
M  V30 4231 C 394.459 2.06242 4.79856 0
M  V30 4232 H 396.153 1.43259 2.62902 0
M  V30 4233 H 393.699 0.690283 1.26377 0
M  V30 4234 H 395.652 -0.437764 4.1912 0
M  V30 4235 H 394.376 -1.03069 3.0991 0
M  V30 4236 H 393.035 1.0621 3.50878 0
M  V30 4237 H 392.683 -0.960188 4.9375 0
M  V30 4238 H 392.383 0.539415 5.85119 0
M  V30 4239 H 393.907 -0.360477 6.09535 0
M  V30 4240 H 395.321 1.8139 5.43848 0
M  V30 4241 H 393.718 2.60444 5.40638 0
M  V30 4242 H 394.788 2.74167 3.99951 0
M  V30 4243 N 396.131 -1.37776 0.765217 0
M  V30 4244 C 397.379 -1.99454 0.325943 0
M  V30 4245 C 397.7 -1.61049 -1.09947 0
M  V30 4246 O 396.97 -0.872821 -1.75381 0
M  V30 4247 H 395.55 -0.737697 0.117525 0
M  V30 4248 H 398.212 -1.68359 0.981895 0
M  V30 4249 H 397.308 -3.09547 0.398353 0
M  V30 4250 N 397.609 -0.515225 -1.4894 0
M  V30 4251 C 398.858 0.0261361 -2.01683 0
M  V30 4252 C 399.171 1.36719 -1.39883 0
M  V30 4253 O 400.377 1.99606 -1.84037 0
M  V30 4254 C 398.833 0.0970111 -3.59769 0
M  V30 4255 C 398.441 -1.23825 -4.30548 0
M  V30 4256 C 400.185 0.587981 -4.20408 0
M  V30 4257 C 398.092 -1.12877 -5.80528 0
M  V30 4258 H 397.022 0.0135398 -0.753878 0
M  V30 4259 H 399.673 -0.656787 -1.71343 0
M  V30 4260 H 398.055 0.844694 -3.86886 0
M  V30 4261 H 399.229 -2.00034 -4.15118 0
M  V30 4262 H 397.544 -1.66379 -3.81716 0
M  V30 4263 H 400.141 0.68763 -5.3026 0
M  V30 4264 H 400.484 1.59026 -3.84729 0
M  V30 4265 H 401.017 -0.103582 -3.97665 0
M  V30 4266 H 397.756 -2.10575 -6.20756 0
M  V30 4267 H 397.276 -0.407799 -5.98412 0
M  V30 4268 H 398.955 -0.813332 -6.41868 0
M  V30 4269 N 399.087 1.5561 -0.249682 0
M  V30 4270 C 400.335 1.98618 0.373548 0
M  V30 4271 C 400.656 1.13919 1.58264 0
M  V30 4272 O 399.926 0.222637 1.94631 0
M  V30 4273 H 398.506 0.733571 0.141006 0
M  V30 4274 H 401.168 1.91748 -0.349117 0
M  V30 4275 H 400.264 3.04584 0.680796 0
M  V30 4276 N 400.565 -0.0233959 1.57583 0
M  V30 4277 C 401.811 -0.708611 1.90657 0
M  V30 4278 C 402.166 -1.7266 0.848895 0
M  V30 4279 O 401.459 -1.91075 -0.141749 0
M  V30 4280 C 401.653 -1.41428 3.28227 0
M  V30 4281 C 401.482 -0.466155 4.47277 0
M  V30 4282 C 400.252 -0.085117 5.05228 0
M  V30 4283 C 402.45 0.257836 5.13653 0
M  V30 4284 N 400.432 0.863672 6.07794 0
M  V30 4285 C 401.803 1.06209 6.10835 0
M  V30 4286 C 403.858 0.324174 4.96844 0
M  V30 4287 C 402.561 1.9266 6.93018 0
M  V30 4288 C 404.587 1.17583 5.79593 0
M  V30 4289 C 403.949 1.96799 6.7635 0
M  V30 4290 H 400.048 -0.233222 0.746412 0
M  V30 4291 H 402.632 0.0314512 1.94675 0
M  V30 4292 H 400.803 -2.12477 3.25128 0
M  V30 4293 H 402.535 -2.05233 3.488 0
M  V30 4294 H 399.29 -0.448516 4.71471 0
M  V30 4295 H 399.714 1.33274 6.63752 0
M  V30 4296 H 404.356 -0.273975 4.21911 0
M  V30 4297 H 402.074 2.53552 7.67292 0
M  V30 4298 H 405.66 1.23076 5.68633 0
M  V30 4299 H 404.54 2.61635 7.39268 0
M  V30 4300 N 402.043 -1.548 -0.295768 0
M  V30 4301 C 403.291 -1.73985 -1.02828 0
M  V30 4302 C 403.612 -0.531406 -1.87619 0
M  V30 4303 O 402.882 0.454221 -1.90561 0
M  V30 4304 H 401.462 -0.641556 -0.382642 0
M  V30 4305 H 404.124 -1.92163 -0.325489 0
M  V30 4306 H 403.22 -2.63129 -1.67838 0
M  V30 4307 N 403.521 0.559213 -1.47345 0
M  V30 4308 C 404.484 1.64854 -1.59235 0
M  V30 4309 C 405.484 1.53851 -0.467607 0
M  V30 4310 O 406.674 1.58045 -0.732617 0
M  V30 4311 C 403.806 3.04388 -1.53496 0
M  V30 4312 H 404.999 1.55662 -2.56339 0
M  V30 4313 H 402.552 0.778973 -1.35505 0
M  V30 4314 H 403.287 3.19115 -0.577604 0
M  V30 4315 H 403.072 3.13783 -2.35123 0
M  V30 4316 H 404.562 3.83642 -1.6495 0
M  V30 4317 N 404.999 1.35443 0.805782 0
M  V30 4318 C 406.41 1.25768 1.37983 0
M  V30 4319 C 406.761 -0.10958 1.95894 0
M  V30 4320 O 405.886 -1.01056 1.91355 0
M  V30 4321 C 406.481 2.27727 2.5085 0
M  V30 4322 C 405.04 2.2179 3.04115 0
M  V30 4323 C 404.187 2.13393 1.77084 0
M  V30 4324 H 407.138 1.4656 0.608752 0
M  V30 4325 H 407.159 1.90422 3.29424 0
M  V30 4326 H 406.671 3.27227 2.08671 0
M  V30 4327 H 404.772 1.25703 3.50756 0
M  V30 4328 H 404.885 3.13788 3.62042 0
M  V30 4329 H 403.249 1.59384 1.98668 0
M  V30 4330 H 404.032 3.14755 1.37056 0
M  V30 4331 N 406.477 -1.02803 1.19454 0
M  V30 4332 C 407.41 -2.107 0.876396 0
M  V30 4333 C 408.388 -1.61741 -0.166897 0
M  V30 4334 O 409.572 -1.88451 -0.0430195 0
M  V30 4335 C 406.699 -3.37262 0.311758 0
M  V30 4336 C 405.745 -4.05093 1.33424 0
M  V30 4337 S 406.578 -4.50498 2.89503 0
M  V30 4338 C 407.734 -5.80277 2.34584 0
M  V30 4339 H 407.967 -2.37362 1.79016 0
M  V30 4340 H 405.5 -1.15755 1.02177 0
M  V30 4341 H 407.458 -4.10499 -0.00748752 0
M  V30 4342 H 406.119 -3.08693 -0.58032 0
M  V30 4343 H 405.312 -4.9611 0.888302 0
M  V30 4344 H 404.914 -3.3803 1.60037 0
M  V30 4345 H 407.206 -6.54873 1.73633 0
M  V30 4346 H 408.149 -6.29651 3.23952 0
M  V30 4347 H 408.557 -5.3599 1.77131 0
M  V30 4348 N 407.956 -0.998596 -1.21925 0
M  V30 4349 C 408.886 -0.573688 -2.26343 0
M  V30 4350 C 409.867 0.402296 -1.65274 0
M  V30 4351 O 411.052 0.291683 -1.91997 0
M  V30 4352 C 408.182 0.106839 -3.47136 0
M  V30 4353 C 407.136 -0.788269 -4.20678 0
M  V30 4354 C 406.462 0.0254927 -5.34694 0
M  V30 4355 C 407.762 -2.08784 -4.78755 0
M  V30 4356 H 409.456 -1.44651 -2.62138 0
M  V30 4357 H 407.002 -0.696975 -1.26009 0
M  V30 4358 H 408.955 0.415531 -4.19346 0
M  V30 4359 H 407.679 1.01424 -3.10452 0
M  V30 4360 H 406.338 -1.08069 -3.50309 0
M  V30 4361 H 405.986 0.933989 -4.94253 0
M  V30 4362 H 405.686 -0.570437 -5.84825 0
M  V30 4363 H 407.21 0.328147 -6.09718 0
M  V30 4364 H 408.624 -1.84272 -5.42878 0
M  V30 4365 H 407.021 -2.63307 -5.39249 0
M  V30 4366 H 408.091 -2.76284 -3.98491 0
M  V30 4367 N 409.434 1.37368 -0.772513 0
M  V30 4368 C 410.681 1.99673 -0.337182 0
M  V30 4369 C 411.009 1.61324 1.0865 0
M  V30 4370 O 410.264 0.851377 1.7621 0
M  V30 4371 C 410.563 3.54817 -0.428876 0
M  V30 4372 C 410.229 4.12936 -1.81092 0
M  V30 4373 C 408.891 4.28523 -2.1891 0
M  V30 4374 C 411.243 4.44801 -2.71664 0
M  V30 4375 C 408.571 4.73277 -3.46735 0
M  V30 4376 C 410.923 4.90981 -3.98899 0
M  V30 4377 C 409.587 5.04773 -4.36761 0
M  V30 4378 H 408.857 0.730656 -0.123384 0
M  V30 4379 H 411.504 1.64124 -0.986686 0
M  V30 4380 H 409.809 3.90618 0.304167 0
M  V30 4381 H 411.506 4.00933 -0.0733334 0
M  V30 4382 H 408.096 4.01233 -1.50699 0
M  V30 4383 H 412.28 4.32344 -2.43706 0
M  V30 4384 H 407.536 4.82142 -3.75964 0
M  V30 4385 H 411.71 5.14603 -4.69208 0
M  V30 4386 H 409.337 5.39211 -5.35868 0
M  V30 4387 N 410.912 0.523116 1.48665 0
M  V30 4388 C 412.158 -0.0134963 2.02796 0
M  V30 4389 C 412.491 -1.34582 1.40004 0
M  V30 4390 O 411.766 -1.86756 0.543381 0
M  V30 4391 C 412.049 -0.14276 3.59817 0
M  V30 4392 C 411.902 1.21425 4.331 0
M  V30 4393 C 413.221 -0.872856 4.31357 0
M  V30 4394 H 410.34 -0.00343074 0.736992 0
M  V30 4395 H 412.982 0.678816 1.7746 0
M  V30 4396 H 411.132 -0.732401 3.81534 0
M  V30 4397 H 412.804 1.84447 4.2282 0
M  V30 4398 H 411.047 1.79791 3.94788 0
M  V30 4399 H 411.718 1.07687 5.41394 0
M  V30 4400 H 414.194 -0.372555 4.14429 0
M  V30 4401 H 413.07 -0.932185 5.40927 0
M  V30 4402 H 413.331 -1.92161 3.98154 0
M  V30 4403 N 412.39 -1.55475 0.257931 0
M  V30 4404 C 413.636 -1.99502 -0.364266 0
M  V30 4405 C 413.969 -1.146 -1.56782 0
M  V30 4406 O 413.244 -0.211968 -1.93342 0
M  V30 4407 C 413.527 -3.51917 -0.763333 0
M  V30 4408 C 413.38 -4.4758 0.446371 0
M  V30 4409 C 414.699 -4.09742 -1.60623 0
M  V30 4410 H 411.818 -0.725277 -0.130929 0
M  V30 4411 H 414.46 -1.8653 0.361446 0
M  V30 4412 H 412.61 -3.63101 -1.38166 0
M  V30 4413 H 414.282 -4.48362 1.08487 0
M  V30 4414 H 412.525 -4.19947 1.08753 0
M  V30 4415 H 413.196 -5.51862 0.123645 0
M  V30 4416 H 415.672 -4.01727 -1.08418 0
M  V30 4417 H 414.548 -5.16631 -1.85429 0
M  V30 4418 H 414.809 -3.58889 -2.58169 0
M  V30 4419 N 413.868 0.0150385 -1.57593 0
M  V30 4420 C 415.279 0.559832 -1.78109 0
M  V30 4421 C 415.63 1.74814 -0.890756 0
M  V30 4422 O 414.755 2.16216 -0.0892482 0
M  V30 4423 C 415.35 1.02238 -3.23006 0
M  V30 4424 C 413.909 1.51258 -3.44671 0
M  V30 4425 C 413.056 0.456955 -2.73509 0
M  V30 4426 H 416.007 -0.211169 -1.57289 0
M  V30 4427 H 416.028 1.88912 -3.30292 0
M  V30 4428 H 415.54 0.157302 -3.87781 0
M  V30 4429 H 413.641 2.39905 -2.8509 0
M  V30 4430 H 413.754 1.55042 -4.5332 0
M  V30 4431 H 412.118 0.915196 -2.37689 0
M  V30 4432 H 412.901 -0.398896 -3.40975 0
M  V30 4433 N 415.346 1.54954 0.287554 0
M  V30 4434 C 416.592 1.76059 1.01856 0
M  V30 4435 C 416.947 0.547056 1.84459 0
M  V30 4436 O 416.24 -0.460442 1.85985 0
M  V30 4437 C 416.434 2.99833 1.94512 0
M  V30 4438 C 416.263 4.33108 1.21026 0
M  V30 4439 C 415.033 4.96632 0.931896 0
M  V30 4440 C 417.231 5.10694 0.607949 0
M  V30 4441 N 415.213 6.13668 0.168716 0
M  V30 4442 C 416.584 6.19996 -0.0217865 0
M  V30 4443 C 418.639 4.95236 0.514338 0
M  V30 4444 C 417.342 7.15524 -0.736092 0
M  V30 4445 C 419.368 5.91106 -0.186343 0
M  V30 4446 C 418.73 6.99786 -0.804875 0
M  V30 4447 H 414.829 0.696679 0.355193 0
M  V30 4448 H 417.413 1.92441 0.295741 0
M  V30 4449 H 415.584 2.84853 2.64033 0
M  V30 4450 H 417.316 3.09405 2.60865 0
M  V30 4451 H 414.071 4.57255 1.23348 0
M  V30 4452 H 414.495 6.76705 -0.199781 0
M  V30 4453 H 419.137 4.11328 0.978234 0
M  V30 4454 H 416.855 7.98964 -1.21172 0
M  V30 4455 H 420.441 5.81224 -0.258897 0
M  V30 4456 H 419.321 7.72694 -1.33843 0
M  V30 4457 N 416.824 -0.551391 1.4764 0
M  V30 4458 C 417.787 -1.64007 1.60107 0
M  V30 4459 C 418.787 -1.53601 0.47576 0
M  V30 4460 O 419.977 -1.57655 0.740988 0
M  V30 4461 C 417.109 -3.03569 1.55108 0
M  V30 4462 H 418.302 -1.543 2.57161 0
M  V30 4463 H 415.855 -0.771776 1.35917 0
M  V30 4464 H 416.59 -3.18804 0.594519 0
M  V30 4465 H 416.375 -3.12532 2.36783 0
M  V30 4466 H 417.865 -3.82762 1.66982 0
M  V30 4467 N 418.302 -1.35869 -0.798587 0
M  V30 4468 C 419.548 -1.2978 -1.55836 0
M  V30 4469 C 419.881 0.125322 -1.93795 0
M  V30 4470 O 419.156 1.07658 -1.61987 0
M  V30 4471 C 419.439 -2.21188 -2.84162 0
M  V30 4472 C 419.292 -3.72155 -2.52628 0
M  V30 4473 C 420.611 -2.11545 -3.85923 0
M  V30 4474 H 417.73 -0.472769 -0.565383 0
M  V30 4475 H 420.372 -1.66341 -0.918192 0
M  V30 4476 H 418.522 -1.90139 -3.38791 0
M  V30 4477 H 420.194 -4.13682 -2.04121 0
M  V30 4478 H 418.437 -3.92042 -1.85704 0
M  V30 4479 H 419.108 -4.31511 -3.44242 0
M  V30 4480 H 421.584 -2.38855 -3.40716 0
M  V30 4481 H 420.46 -2.77688 -4.73477 0
M  V30 4482 H 420.721 -1.09987 -4.282 0
M  V30 4483 N 419.78 1.02168 -1.19998 0
M  V30 4484 C 421.026 1.75945 -1.00852 0
M  V30 4485 C 421.359 1.88702 0.458828 0
M  V30 4486 O 420.634 1.40911 1.34069 0
M  V30 4487 C 420.917 3.18154 -1.68671 0
M  V30 4488 C 420.77 3.13224 -3.22817 0
M  V30 4489 C 422.089 4.16711 -1.41561 0
M  V30 4490 H 419.208 0.638673 -0.367785 0
M  V30 4491 H 421.85 1.19222 -1.4794 0
M  V30 4492 H 420 3.66586 -1.28636 0
M  V30 4493 H 421.672 2.72635 -3.72112 0
M  V30 4494 H 419.915 2.50751 -3.53986 0
M  V30 4495 H 420.586 4.13728 -3.65422 0
M  V30 4496 H 423.062 3.76913 -1.76284 0
M  V30 4497 H 421.938 5.14391 -1.91553 0
M  V30 4498 H 422.199 4.40774 -0.342193 0
M  V30 4499 N 421.258 1.00505 1.21394 0
M  V30 4500 C 422.205 0.565496 2.23765 0
M  V30 4501 C 423.175 -0.408466 1.60999 0
M  V30 4502 O 424.36 -0.310503 1.88257 0
M  V30 4503 C 421.5 -0.101667 3.4495 0
M  V30 4504 C 420.613 0.915479 4.22188 0
M  V30 4505 C 419.748 0.220574 5.30742 0
M  V30 4506 C 418.787 1.22527 5.99711 0
M  V30 4507 N 417.924 0.557831 6.9988 0
M  V30 4508 H 422.764 1.44314 2.60725 0
M  V30 4509 H 420.301 0.722643 1.28126 0
M  V30 4510 H 422.259 -0.505504 4.14126 0
M  V30 4511 H 420.889 -0.94303 3.08718 0
M  V30 4512 H 419.941 1.43756 3.52191 0
M  V30 4513 H 421.253 1.68005 4.69655 0
M  V30 4514 H 420.407 -0.239368 6.06228 0
M  V30 4515 H 419.146 -0.576401 4.84282 0
M  V30 4516 H 418.151 1.69571 5.22997 0
M  V30 4517 H 419.376 2.02332 6.48258 0
M  V30 4518 H 417.322 -0.219486 6.55633 0
M  V30 4519 H 417.239 1.26065 7.45415 0
M  V30 4520 H 418.507 0.121095 7.79406 0
M  V30 4521 N 422.737 -1.36956 0.779787 0
M  V30 4522 C 423.977 -2.01328 0.353043 0
M  V30 4523 C 424.341 -1.60558 -1.05286 0
M  V30 4524 O 425.542 -2.1745 -1.58016 0
M  V30 4525 C 423.813 -3.53874 0.500822 0
M  V30 4526 S 425.372 -4.38506 0.16053 0
M  V30 4527 H 422.19 -0.69799 0.13539 0
M  V30 4528 H 424.792 -1.67016 1.01617 0
M  V30 4529 H 423.496 -3.81034 1.52451 0
M  V30 4530 H 423.027 -3.92994 -0.178574 0
M  V30 4531 H 425.042 -4.85153 -1.04121 0
M  V30 4532 N 424.215 -0.530993 -1.48385 0
M  V30 4533 C 425.145 0.219985 -2.32461 0
M  V30 4534 C 426.126 0.934111 -1.42156 0
M  V30 4535 O 427.311 0.919694 -1.71042 0
M  V30 4536 C 424.441 1.26674 -3.23375 0
M  V30 4537 C 423.395 0.67069 -4.22712 0
M  V30 4538 C 422.721 1.82017 -5.02766 0
M  V30 4539 C 424.021 -0.358268 -5.2107 0
M  V30 4540 H 425.715 -0.48187 -2.95497 0
M  V30 4541 H 423.261 -0.233182 -1.42099 0
M  V30 4542 H 425.214 1.80006 -3.81019 0
M  V30 4543 H 423.938 1.99818 -2.58341 0
M  V30 4544 H 422.597 0.158878 -3.66256 0
M  V30 4545 H 422.245 2.54002 -4.34157 0
M  V30 4546 H 421.945 1.42727 -5.70003 0
M  V30 4547 H 423.469 2.35725 -5.63264 0
M  V30 4548 H 424.883 0.0880081 -5.73232 0
M  V30 4549 H 423.28 -0.66861 -5.96364 0
M  V30 4550 H 424.35 -1.26367 -4.68145 0
M  V30 4551 N 425.693 1.55336 -0.266172 0
M  V30 4552 C 426.94 1.99397 0.353158 0
M  V30 4553 C 427.268 1.15451 1.56529 0
M  V30 4554 O 426.523 0.209974 1.9457 0
M  V30 4555 C 426.822 3.48606 0.787957 0
M  V30 4556 C 426.488 4.49773 -0.318541 0
M  V30 4557 C 425.15 4.77158 -0.62239 0
M  V30 4558 C 427.502 5.10212 -1.06459 0
M  V30 4559 C 424.83 5.62251 -1.67602 0
M  V30 4560 C 427.182 5.96449 -2.10788 0
M  V30 4561 C 425.846 6.22158 -2.41817 0
M  V30 4562 H 425.116 0.729644 0.12923 0
M  V30 4563 H 427.763 1.87732 -0.37802 0
M  V30 4564 H 426.068 3.57701 1.59866 0
M  V30 4565 H 427.765 3.80098 1.27775 0
M  V30 4566 H 424.355 4.2854 -0.0715925 0
M  V30 4567 H 428.539 4.89086 -0.843098 0
M  V30 4568 H 423.795 5.80419 -1.92155 0
M  V30 4569 H 427.969 6.42317 -2.69076 0
M  V30 4570 H 425.596 6.87888 -3.23596 0
M  V30 4571 N 427.171 -0.0066808 1.57599 0
M  V30 4572 C 428.081 -1.01671 2.11424 0
M  V30 4573 C 429.097 -1.38143 1.05795 0
M  V30 4574 O 430.273 -1.47011 1.37658 0
M  V30 4575 C 427.338 -2.29192 2.60139 0
M  V30 4576 C 426.399 -1.99094 3.80342 0
M  V30 4577 C 425.632 -3.20535 4.26724 0
M  V30 4578 O 425.855 -4.3199 3.72479 0
M  V30 4579 O 424.789 -3.04924 5.18946 0
M  V30 4580 H 428.615 -0.589181 2.9793 0
M  V30 4581 H 426.2 -0.225091 1.47695 0
M  V30 4582 H 428.082 -3.0412 2.917 0
M  V30 4583 H 426.757 -2.71195 1.76733 0
M  V30 4584 H 425.664 -1.21663 3.53764 0
M  V30 4585 H 426.997 -1.61931 4.648 0
M  V30 4586 N 428.649 -1.55105 -0.279332 0
M  V30 4587 C 429.597 -1.88333 -1.36505 0
M  V30 4588 C 430.591 -0.759043 -1.51443 0
M  V30 4589 O 431.797 -0.943312 -1.53302 0
M  V30 4590 H 428.172 -0.59766 -0.456406 0
M  V30 4591 H 430.143 -2.79041 -1.05728 0
M  V30 4592 C 428.892 -2.16628 -2.7197 0
M  V30 4593 H 428.215 -3.02624 -2.61264 0
M  V30 4594 H 429.655 -2.43803 -3.46895 0
M  V30 4595 C 428.114 -0.971807 -3.22579 0
M  V30 4596 O 428.644 -0.203228 -4.01186 0
M  V30 4597 N 426.85 -0.771238 -2.80179 0
M  V30 4598 H 426.397 -1.39792 -2.1637 0
M  V30 4599 H 426.355 0.0263667 -3.14389 0
M  V30 4600 N 430.127 0.543554 -1.4793 0
M  V30 4601 C 431.373 1.30201 -1.55485 0
M  V30 4602 C 431.706 1.92925 -0.222201 0
M  V30 4603 O 430.981 1.78586 0.77053 0
M  V30 4604 C 431.264 2.40174 -2.68307 0
M  V30 4605 C 431.117 1.8223 -4.11233 0
M  V30 4606 C 432.436 3.42024 -2.76961 0
M  V30 4607 H 429.555 0.472036 -0.565996 0
M  V30 4608 H 432.197 0.606914 -1.80046 0
M  V30 4609 H 430.347 2.99463 -2.47495 0
M  V30 4610 H 432.019 1.27096 -4.43446 0
M  V30 4611 H 430.262 1.12832 -4.18869 0
M  V30 4612 H 430.933 2.61793 -4.85972 0
M  V30 4613 H 433.409 2.92672 -2.95774 0
M  V30 4614 H 432.285 4.16383 -3.57654 0
M  V30 4615 H 432.546 4.0173 -1.84568 0
M  V30 4616 N 431.605 1.3629 0.791371 0
M  V30 4617 C 432.537 1.26321 1.91248 0
M  V30 4618 C 433.55 0.18313 1.61767 0
M  V30 4619 O 434.739 0.437682 1.73051 0
M  V30 4620 C 431.839 0.925901 3.26007 0
M  V30 4621 C 431.012 2.10746 3.83281 0
M  V30 4622 C 430.071 1.74352 4.96475 0
M  V30 4623 O 429.097 2.46416 5.13096 0
M  V30 4624 N 430.299 0.676058 5.7655 0
M  V30 4625 H 433.064 2.22915 2.00323 0
M  V30 4626 H 430.625 1.29659 0.969546 0
M  V30 4627 H 432.617 0.663636 3.99222 0
M  V30 4628 H 431.187 0.0491581 3.12561 0
M  V30 4629 H 430.407 2.53264 3.02077 0
M  V30 4630 H 431.695 2.8969 4.18279 0
M  V30 4631 H 431.093 0.0776467 5.65647 0
M  V30 4632 H 429.65 0.473612 6.50077 0
M  V30 4633 N 433.083 -1.0153 1.20538 0
M  V30 4634 C 434.323 -1.76689 1.02763 0
M  V30 4635 C 434.687 -1.87065 -0.432513 0
M  V30 4636 O 435.888 -2.58684 -0.730481 0
M  V30 4637 C 434.159 -3.14707 1.69393 0
M  V30 4638 S 435.718 -4.05886 1.66738 0
M  V30 4639 H 432.536 -0.608076 0.368463 0
M  V30 4640 H 435.138 -1.21558 1.53114 0
M  V30 4641 H 433.842 -3.04782 2.74838 0
M  V30 4642 H 433.373 -3.74913 1.19179 0
M  V30 4643 H 435.388 -4.91221 0.70117 0
M  V30 4644 N 434.561 -1.01147 -1.20859 0
M  V30 4645 C 435.807 -0.708598 -1.90658 0
M  V30 4646 C 436.162 0.753069 -1.7705 0
M  V30 4647 O 435.455 1.53952 -1.14059 0
M  V30 4648 C 435.649 -1.0727 -3.40922 0
M  V30 4649 C 435.478 -2.56821 -3.69152 0
M  V30 4650 C 434.248 -3.23524 -3.8815 0
M  V30 4651 C 436.446 -3.54997 -3.72131 0
M  V30 4652 N 434.428 -4.62359 -4.03853 0
M  V30 4653 C 435.799 -4.79371 -3.93196 0
M  V30 4654 C 437.854 -3.49042 -3.55069 0
M  V30 4655 C 436.557 -5.98512 -3.98969 0
M  V30 4656 C 438.583 -4.67579 -3.6211 0
M  V30 4657 C 437.945 -5.9076 -3.83643 0
M  V30 4658 H 434.044 -0.31088 -0.71755 0
M  V30 4659 H 436.628 -1.29526 -1.45366 0
M  V30 4660 H 434.799 -0.51443 -3.84978 0
M  V30 4661 H 436.531 -0.723891 -3.98173 0
M  V30 4662 H 433.286 -2.73958 -3.86321 0
M  V30 4663 H 433.71 -5.34427 -4.15592 0
M  V30 4664 H 438.352 -2.54808 -3.37391 0
M  V30 4665 H 436.07 -6.93132 -4.15444 0
M  V30 4666 H 439.656 -4.64581 -3.50222 0
M  V30 4667 H 438.536 -6.8095 -3.88944 0
M  V30 4668 N 436.039 1.36541 -0.78704 0
M  V30 4669 C 437.267 2.03561 -0.370199 0
M  V30 4670 C 437.682 1.59347 1.01263 0
M  V30 4671 O 437.039 0.781781 1.64907 0
M  V30 4672 C 437.09 3.59033 -0.421614 0
M  V30 4673 O 436.811 4.01634 -1.7499 0
M  V30 4674 C 438.312 4.433 0.00489763 0
M  V30 4675 H 435.532 0.653346 -0.152904 0
M  V30 4676 H 438.076 1.74566 -1.06522 0
M  V30 4677 H 436.231 3.86746 0.224971 0
M  V30 4678 H 436.645 4.96217 -1.69909 0
M  V30 4679 H 438.119 5.51939 -0.0822184 0
M  V30 4680 H 438.596 4.26285 1.05723 0
M  V30 4681 H 439.202 4.20843 -0.614085 0
M  V30 4682 N 437.518 0.538854 1.48102 0
M  V30 4683 C 438.743 0.0102694 2.07397 0
M  V30 4684 C 439.168 -1.26562 1.39153 0
M  V30 4685 O 438.526 -1.75357 0.460387 0
M  V30 4686 C 438.574 -0.187602 3.60112 0
M  V30 4687 O 437.678 -1.25432 3.92862 0
M  V30 4688 H 437.019 0.0430975 0.6626 0
M  V30 4689 H 439.549 0.749301 1.90385 0
M  V30 4690 H 439.559 -0.407517 4.0596 0
M  V30 4691 H 438.234 0.744386 4.09184 0
M  V30 4692 H 436.811 -1.01636 3.58782 0
M  V30 4693 N 438.996 -1.55193 0.274407 0
M  V30 4694 C 439.944 -2.23924 -0.629362 0
M  V30 4695 C 440.938 -1.23602 -1.1584 0
M  V30 4696 O 442.144 -1.41535 -1.11211 0
M  V30 4697 H 438.519 -0.718637 -0.221507 0
M  V30 4698 H 440.49 -2.98388 -0.0268322 0
M  V30 4699 C 439.239 -2.97329 -1.80252 0
M  V30 4700 H 438.562 -3.74313 -1.40462 0
M  V30 4701 H 440.002 -3.48743 -2.41152 0
M  V30 4702 C 438.461 -2.0276 -2.69054 0
M  V30 4703 O 438.991 -1.57836 -3.69392 0
M  V30 4704 N 437.197 -1.69275 -2.36208 0
M  V30 4705 H 436.744 -2.06004 -1.54661 0
M  V30 4706 H 436.702 -1.06271 -2.95895 0
M  V30 4707 N 440.474 -0.00167713 -1.576 0
M  V30 4708 C 441.751 0.719951 -1.81868 0
M  V30 4709 C 442.131 1.91895 -0.879747 0
M  V30 4710 O 441.479 2.28389 0.0711423 0
M  V30 4711 C 441.689 1.12409 -3.30402 0
M  V30 4712 C 443.037 1.52724 -3.96182 0
M  V30 4713 O 444.061 1.21784 -3.34734 0
M  V30 4714 O 442.92 2.10265 -5.04431 0
M  V30 4715 H 440.014 0.350707 -0.748955 0
M  V30 4716 H 442.56 -0.0272597 -1.69678 0
M  V30 4717 H 441.332 0.269532 -3.90371 0
M  V30 4718 H 440.955 1.93035 -3.47596 0
M  V30 4719 N 441.952 1.55251 0.271103 0
M  V30 4720 C 442.9 1.89054 1.35504 0
M  V30 4721 C 443.894 0.767064 1.51038 0
M  V30 4722 O 445.1 0.951429 1.528 0
M  V30 4723 H 441.475 0.600072 0.45323 0
M  V30 4724 H 443.446 2.79598 1.04247 0
M  V30 4725 C 442.195 2.18068 2.70817 0
M  V30 4726 H 441.518 3.04005 2.59656 0
M  V30 4727 H 442.958 2.4564 3.45597 0
M  V30 4728 C 441.417 0.988901 3.2206 0
M  V30 4729 O 441.947 0.224501 4.01072 0
M  V30 4730 N 440.153 0.786085 2.79766 0
M  V30 4731 H 439.7 1.40937 2.15626 0
M  V30 4732 H 439.658 -0.00969349 3.14399 0
M  V30 4733 N 443.43 -0.535701 1.48216 0
M  V30 4734 C 444.363 -1.65726 1.56876 0
M  V30 4735 C 445.341 -1.57094 0.419542 0
M  V30 4736 O 446.525 -1.77648 0.630352 0
M  V30 4737 C 443.652 -3.04096 1.49142 0
M  V30 4738 C 442.698 -3.31105 2.68834 0
M  V30 4739 S 443.531 -3.18001 4.30854 0
M  V30 4740 C 444.687 -4.58828 4.25709 0
M  V30 4741 H 444.92 -1.58129 2.51759 0
M  V30 4742 H 442.453 -0.718218 1.36678 0
M  V30 4743 H 444.411 -3.839 1.45366 0
M  V30 4744 H 443.072 -3.09139 0.556067 0
M  V30 4745 H 442.265 -4.32033 2.59545 0
M  V30 4746 H 441.867 -2.58961 2.69843 0
M  V30 4747 H 444.159 -5.5023 3.95289 0
M  V30 4748 H 445.102 -4.73172 5.26796 0
M  V30 4749 H 445.51 -4.37883 3.56257 0
M  V30 4750 N 444.908 -1.36708 -0.784132 0
M  V30 4751 C 446.156 -1.30972 -1.53918 0
M  V30 4752 C 446.477 0.109086 -1.94695 0
M  V30 4753 O 445.747 1.05048 -1.65353 0
M  V30 4754 H 444.327 -0.481819 -0.570841 0
M  V30 4755 H 446.989 -1.71063 -0.934002 0
M  V30 4756 H 446.085 -1.94061 -2.44431 0
M  V30 4757 N 446.386 1.0089 -1.21074 0
M  V30 4758 C 447.633 1.74607 -1.0256 0
M  V30 4759 C 447.961 1.89426 0.44136 0
M  V30 4760 O 447.216 1.42266 1.34384 0
M  V30 4761 C 447.515 3.16335 -1.66334 0
M  V30 4762 C 447.181 3.21474 -3.16173 0
M  V30 4763 C 445.843 3.22583 -3.57062 0
M  V30 4764 C 448.195 3.19025 -4.12156 0
M  V30 4765 C 445.523 3.18925 -4.92446 0
M  V30 4766 C 447.875 3.16909 -5.47496 0
M  V30 4767 C 446.539 3.16326 -5.87787 0
M  V30 4768 H 445.809 0.638933 -0.375294 0
M  V30 4769 H 448.456 1.18274 -1.50611 0
M  V30 4770 H 446.761 3.75876 -1.10566 0
M  V30 4771 H 448.458 3.72083 -1.49516 0
M  V30 4772 H 445.048 3.2135 -2.83605 0
M  V30 4773 H 449.232 3.17332 -3.81595 0
M  V30 4774 H 444.488 3.16809 -5.22917 0
M  V30 4775 H 448.662 3.13968 -6.21609 0
M  V30 4776 H 446.289 3.13246 -6.92662 0
M  V30 4777 N 447.864 1.01787 1.20321 0
M  V30 4778 C 449.11 0.718699 1.90279 0
M  V30 4779 C 449.465 -0.743669 1.77447 0
M  V30 4780 O 448.758 -1.53345 1.14874 0
M  V30 4781 C 448.952 1.09076 3.40349 0
M  V30 4782 C 448.781 2.58775 3.67784 0
M  V30 4783 C 447.551 3.25578 3.86428 0
M  V30 4784 C 449.749 3.56966 3.70243 0
M  V30 4785 N 447.731 4.64495 4.01395 0
M  V30 4786 C 449.102 4.8145 3.90649 0
M  V30 4787 C 451.157 3.5092 3.53213 0
M  V30 4788 C 449.86 6.00619 3.95789 0
M  V30 4789 C 451.886 4.69493 3.59625 0
M  V30 4790 C 451.248 5.92786 3.80505 0
M  V30 4791 H 447.347 0.31468 0.715891 0
M  V30 4792 H 449.931 1.30295 1.44677 0
M  V30 4793 H 448.102 0.534839 3.847 0
M  V30 4794 H 449.834 0.744997 3.97784 0
M  V30 4795 H 446.589 2.76003 3.84862 0
M  V30 4796 H 447.013 5.36624 4.12752 0
M  V30 4797 H 451.655 2.56593 3.36035 0
M  V30 4798 H 449.373 6.95326 4.11762 0
M  V30 4799 H 452.959 4.66432 3.47754 0
M  V30 4800 H 451.839 6.83003 3.85327 0
M  V30 4801 N 449.342 -1.36122 0.79427 0
M  V30 4802 C 450.588 -1.99846 0.378542 0
M  V30 4803 C 450.943 -1.61898 -1.03955 0
M  V30 4804 O 450.236 -0.866013 -1.70912 0
M  V30 4805 C 450.43 -3.5409 0.48527 0
M  V30 4806 C 450.259 -4.0702 1.91219 0
M  V30 4807 C 449.029 -4.36944 2.53787 0
M  V30 4808 C 451.227 -4.26435 2.87502 0
M  V30 4809 N 449.209 -4.75727 3.88017 0
M  V30 4810 C 450.58 -4.68077 4.06576 0
M  V30 4811 C 452.635 -4.08616 2.84495 0
M  V30 4812 C 451.338 -4.93765 5.23057 0
M  V30 4813 C 453.364 -4.35453 4.00169 0
M  V30 4814 C 452.726 -4.77355 5.17988 0
M  V30 4815 H 448.825 -0.759549 0.186034 0
M  V30 4816 H 451.409 -1.65043 1.0329 0
M  V30 4817 H 449.58 -3.88151 -0.139023 0
M  V30 4818 H 451.312 -4.04675 0.0453192 0
M  V30 4819 H 448.067 -4.26822 2.05231 0
M  V30 4820 H 448.491 -4.99396 4.57092 0
M  V30 4821 H 453.133 -3.75373 1.94564 0
M  V30 4822 H 450.851 -5.25887 6.1357 0
M  V30 4823 H 454.437 -4.2323 3.99208 0
M  V30 4824 H 453.317 -4.97718 6.06008 0
M  V30 4825 N 450.82 -0.546701 -1.47814 0
M  V30 4826 C 452.069 -0.0166497 -2.01693 0
M  V30 4827 C 452.382 1.33721 -1.42752 0
M  V30 4828 O 453.588 1.95658 -1.8823 0
M  V30 4829 C 452.044 0.0206769 -3.59894 0
M  V30 4830 C 451.652 -1.3293 -4.27824 0
M  V30 4831 C 453.396 0.498674 -4.21561 0
M  V30 4832 C 451.303 -1.25165 -5.78003 0
M  V30 4833 H 450.233 -0.0024541 -0.753996 0
M  V30 4834 H 452.884 -0.692984 -1.69912 0
M  V30 4835 H 451.266 0.76244 -3.88591 0
M  V30 4836 H 452.44 -2.08795 -4.10781 0
M  V30 4837 H 450.755 -1.74438 -3.78101 0
M  V30 4838 H 453.352 0.575 -5.31599 0
M  V30 4839 H 453.695 1.5083 -3.88016 0
M  V30 4840 H 454.228 -0.18791 -3.97356 0
M  V30 4841 H 450.967 -2.23695 -6.1615 0
M  V30 4842 H 450.487 -0.53464 -5.97412 0
M  V30 4843 H 452.166 -0.949299 -6.39998 0
M  V30 4844 N 452.299 1.55045 -0.282633 0
M  V30 4845 C 453.229 2.2579 0.595066 0
M  V30 4846 C 454.21 1.25074 1.15284 0
M  V30 4847 O 455.395 1.5381 1.18559 0
M  V30 4848 C 452.525 2.98472 1.77572 0
M  V30 4849 C 451.479 4.0618 1.34914 0
M  V30 4850 C 450.805 4.66477 2.6135 0
M  V30 4851 C 452.105 5.1996 0.493821 0
M  V30 4852 H 453.799 2.994 0.00505653 0
M  V30 4853 H 451.345 1.44 0.000992001 0
M  V30 4854 H 453.298 3.46677 2.39568 0
M  V30 4855 H 452.022 2.2241 2.39168 0
M  V30 4856 H 450.681 3.58797 0.752338 0
M  V30 4857 H 450.329 3.87074 3.2122 0
M  V30 4858 H 450.029 5.39207 2.33516 0
M  V30 4859 H 451.553 5.17435 3.24181 0
M  V30 4860 H 452.967 5.64172 1.01898 0
M  V30 4861 H 451.364 5.99299 0.310047 0
M  V30 4862 H 452.434 4.82462 -0.485593 0
M  V30 4863 N 453.777 0.010035 1.57597 0
M  V30 4864 C 455.193 -0.346164 1.55801 0
M  V30 4865 C 455.393 -1.74144 1.01371 0
M  V30 4866 O 454.449 -2.43938 0.651968 0
M  V30 4867 C 455.762 -0.212216 2.9995 0
M  V30 4868 C 457.31 -0.286409 3.11687 0
M  V30 4869 C 457.785 -0.18147 4.5764 0
M  V30 4870 N 459.276 -0.239056 4.62583 0
M  V30 4871 C 460.011 -0.181351 5.73113 0
M  V30 4872 N 459.507 -0.073661 6.92761 0
M  V30 4873 N 461.3 -0.233949 5.61613 0
M  V30 4874 H 453.451 0.922657 1.91313 0
M  V30 4875 H 455.714 0.354595 0.879185 0
M  V30 4876 H 455.42 0.748169 3.4365 0
M  V30 4877 H 455.294 -0.990224 3.6397 0
M  V30 4878 H 457.681 -1.23724 2.67911 0
M  V30 4879 H 457.762 0.521645 2.50425 0
M  V30 4880 H 457.406 0.765863 5.02093 0
M  V30 4881 H 457.336 -1.00814 5.1686 0
M  V30 4882 H 459.827 -0.32321 3.76515 0
M  V30 4883 H 460.14 -0.0358003 7.72792 0
M  V30 4884 H 458.485 -0.0391461 6.94989 0
M  V30 4885 H 461.676 -0.316347 4.6703 0
M  V30 4886 H 461.849 -0.185514 6.47734 0
M  V30 4887 N 455.255 -1.55392 -0.262866 0
M  V30 4888 C 456.502 -1.76476 -0.993109 0
M  V30 4889 C 456.83 -0.571479 -1.85915 0
M  V30 4890 O 456.085 0.445733 -1.90556 0
M  V30 4891 C 456.384 -3.02889 -1.89718 0
M  V30 4892 C 456.05 -4.34974 -1.18781 0
M  V30 4893 C 454.712 -4.7087 -0.991699 0
M  V30 4894 C 457.064 -5.16695 -0.683798 0
M  V30 4895 C 454.392 -5.86036 -0.279024 0
M  V30 4896 C 456.744 -6.32598 0.0153327 0
M  V30 4897 C 455.408 -6.67127 0.223062 0
M  V30 4898 H 454.678 -0.64577 -0.363404 0
M  V30 4899 H 457.325 -1.89664 -0.264525 0
M  V30 4900 H 455.63 -2.84644 -2.6923 0
M  V30 4901 H 457.327 -3.16399 -2.46359 0
M  V30 4902 H 453.917 -4.06765 -1.35058 0
M  V30 4903 H 458.101 -4.8943 -0.8229 0
M  V30 4904 H 453.357 -6.11306 -0.107456 0
M  V30 4905 H 457.531 -6.95171 0.413584 0
M  V30 4906 H 455.158 -7.56216 0.777265 0
M  V30 4907 N 456.733 0.527833 -1.48498 0
M  V30 4908 C 458.144 1.10975 -1.50138 0
M  V30 4909 C 458.495 1.943 -0.272378 0
M  V30 4910 O 457.62 2.07319 0.620301 0
M  V30 4911 C 458.215 2.01927 -2.72049 0
M  V30 4912 C 456.774 2.55332 -2.76554 0
M  V30 4913 C 455.921 1.32341 -2.43683 0
M  V30 4914 H 458.872 0.312986 -1.55583 0
M  V30 4915 H 458.893 2.86244 -2.50689 0
M  V30 4916 H 458.405 1.41254 -3.61481 0
M  V30 4917 H 456.506 3.19721 -1.91336 0
M  V30 4918 H 456.619 2.94319 -3.78038 0
M  V30 4919 H 454.983 1.63989 -1.94884 0
M  V30 4920 H 455.766 0.734165 -3.35358 0
M  V30 4921 N 458.211 1.37122 0.776871 0
M  V30 4922 C 459.457 1.32243 1.53752 0
M  V30 4923 C 459.79 -0.0944745 1.9397 0
M  V30 4924 O 459.065 -1.05068 1.6368 0
M  V30 4925 C 459.348 2.25681 2.80607 0
M  V30 4926 C 459.201 3.76127 2.46676 0
M  V30 4927 C 460.52 2.17657 3.82509 0
M  V30 4928 H 457.639 0.481704 0.557791 0
M  V30 4929 H 460.281 1.6778 0.891612 0
M  V30 4930 H 458.431 1.95505 3.35723 0
M  V30 4931 H 460.103 4.16877 1.97513 0
M  V30 4932 H 458.346 3.94946 1.79443 0
M  V30 4933 H 459.017 4.36933 3.37333 0
M  V30 4934 H 461.493 2.44245 3.36873 0
M  V30 4935 H 460.369 2.85185 4.69 0
M  V30 4936 H 460.63 1.16785 4.26396 0
M  V30 4937 N 459.689 -1.00246 1.21608 0
M  V30 4938 C 460.936 -1.74061 1.03485 0
M  V30 4939 C 461.264 -1.89658 -0.431308 0
M  V30 4940 O 460.519 -1.42976 -1.33627 0
M  V30 4941 C 460.818 -3.15448 1.68009 0
M  V30 4942 C 460.484 -3.19792 3.17874 0
M  V30 4943 C 459.146 -3.20685 3.58768 0
M  V30 4944 C 461.498 -3.16835 4.13842 0
M  V30 4945 C 458.826 -3.16309 4.94131 0
M  V30 4946 C 461.178 -3.14001 5.49169 0
M  V30 4947 C 459.842 -3.13204 5.89457 0
M  V30 4948 H 459.112 -0.636934 0.378677 0
M  V30 4949 H 461.759 -1.17473 1.51236 0
M  V30 4950 H 460.064 -3.75284 1.12557 0
M  V30 4951 H 461.761 -3.71285 1.51487 0
M  V30 4952 H 458.351 -3.19842 2.85305 0
M  V30 4953 H 462.535 -3.15303 3.83272 0
M  V30 4954 H 457.791 -3.14032 5.24589 0
M  V30 4955 H 461.965 -3.10667 6.23265 0
M  V30 4956 H 459.592 -3.09568 6.94314 0
M  V30 4957 N 461.167 -1.02423 -1.1978 0
M  V30 4958 C 462.097 -0.62157 -2.25075 0
M  V30 4959 C 463.078 0.367148 -1.6609 0
M  V30 4960 O 464.263 0.250892 -1.92573 0
M  V30 4961 C 461.393 0.0331826 -3.47284 0
M  V30 4962 C 460.347 -0.877323 -4.18912 0
M  V30 4963 C 459.673 -0.0879296 -5.34628 0
M  V30 4964 C 460.973 -2.18892 -4.74219 0
M  V30 4965 H 462.667 -1.50179 -2.59011 0
M  V30 4966 H 460.213 -0.723547 -1.24502 0
M  V30 4967 H 462.166 0.326488 -4.20133 0
M  V30 4968 H 460.89 0.948164 -3.12534 0
M  V30 4969 H 459.549 -1.15475 -3.47938 0
M  V30 4970 H 459.197 0.828941 -4.96123 0
M  V30 4971 H 458.897 -0.694359 -5.83483 0
M  V30 4972 H 460.421 0.198743 -6.10276 0
M  V30 4973 H 461.835 -1.95746 -5.38847 0
M  V30 4974 H 460.232 -2.74686 -5.33542 0
M  V30 4975 H 461.302 -2.84674 -3.92541 0
M  V30 4976 N 462.645 1.35699 -0.801477 0
M  V30 4977 C 463.608 2.28199 -0.213994 0
M  V30 4978 C 464.608 1.49359 0.595691 0
M  V30 4979 O 465.798 1.69186 0.414921 0
M  V30 4980 C 462.93 3.33587 0.702297 0
M  V30 4981 H 464.123 2.81666 -1.02976 0
M  V30 4982 H 461.676 1.45467 -0.571759 0
M  V30 4983 H 462.411 2.85297 1.54195 0
M  V30 4984 H 462.196 3.91906 0.123484 0
M  V30 4985 H 463.686 4.02638 1.10783 0
M  V30 4986 N 464.123 0.554532 1.47522 0
M  V30 4987 C 465.372 0.0273458 2.01681 0
M  V30 4988 C 465.685 -1.32962 1.43459 0
M  V30 4989 O 466.891 -1.94657 1.89265 0
M  V30 4990 C 465.347 -0.00159057 3.599 0
M  V30 4991 C 464.955 1.35197 4.27113 0
M  V30 4992 C 466.699 -0.476311 4.21819 0
M  V30 4993 C 464.606 1.28229 5.77331 0
M  V30 4994 H 463.536 0.00645269 0.753972 0
M  V30 4995 H 466.187 0.701985 1.69542 0
M  V30 4996 H 464.569 -0.741821 3.8899 0
M  V30 4997 H 465.743 2.1097 4.09668 0
M  V30 4998 H 464.058 1.76441 3.77171 0
M  V30 4999 H 466.655 -0.5468 5.31897 0
M  V30 5000 H 466.998 -1.4877 3.8881 0
M  V30 5001 H 467.531 0.20898 3.97251 0
M  V30 5002 H 464.27 2.26959 6.14955 0
M  V30 5003 H 463.79 0.566314 5.97121 0
M  V30 5004 H 465.469 0.983226 6.39485 0
M  V30 5005 N 465.601 -1.54893 0.290851 0
M  V30 5006 C 466.531 -2.26103 -0.583084 0
M  V30 5007 C 467.512 -1.25684 -1.14619 0
M  V30 5008 O 468.697 -1.54436 -1.17741 0
M  V30 5009 C 465.827 -2.99409 -1.75987 0
M  V30 5010 C 464.781 -4.0689 -1.32758 0
M  V30 5011 C 464.107 -4.67856 -2.58872 0
M  V30 5012 C 465.407 -5.20215 -0.46624 0
M  V30 5013 H 467.101 -2.99398 0.0108214 0
M  V30 5014 H 464.647 -1.43998 0.00664468 0
M  V30 5015 H 466.6 -3.47943 -2.37727 0
M  V30 5016 H 465.324 -2.23675 -2.37985 0
M  V30 5017 H 463.983 -3.59191 -0.733299 0
M  V30 5018 H 463.631 -3.88772 -3.19163 0
M  V30 5019 H 463.331 -5.40438 -2.30653 0
M  V30 5020 H 464.855 -5.19147 -3.21433 0
M  V30 5021 H 466.269 -5.64704 -0.989047 0
M  V30 5022 H 464.666 -5.99455 -0.27826 0
M  V30 5023 H 465.736 -4.82198 0.511173 0
M  V30 5024 N 467.08 -0.0183926 -1.57589 0
M  V30 5025 C 468.329 0.66185 -1.90532 0
M  V30 5026 C 468.642 1.73904 -0.895366 0
M  V30 5027 O 469.848 2.47518 -1.11566 0
M  V30 5028 C 468.304 1.22844 -3.38286 0
M  V30 5029 C 467.912 0.185103 -4.47617 0
M  V30 5030 C 469.656 1.88581 -3.80312 0
M  V30 5031 C 467.563 0.762723 -5.86461 0
M  V30 5032 H 466.493 0.250972 -0.711006 0
M  V30 5033 H 469.144 -0.0819435 -1.83317 0
M  V30 5034 H 467.526 2.0235 -3.40398 0
M  V30 5035 H 468.7 -0.58671 -4.5705 0
M  V30 5036 H 467.015 -0.372889 -4.14727 0
M  V30 5037 H 469.612 2.32735 -4.81392 0
M  V30 5038 H 469.955 2.72408 -3.14801 0
M  V30 5039 H 470.488 1.15782 -3.80578 0
M  V30 5040 H 467.227 -0.0371713 -6.55489 0
M  V30 5041 H 466.747 1.50327 -5.80656 0
M  V30 5042 H 468.426 1.25576 -6.34697 0
M  V30 5043 N 468.558 1.5553 0.254621 0
M  V30 5044 C 469.506 1.9048 1.33492 0
M  V30 5045 C 470.5 0.78304 1.50216 0
M  V30 5046 O 471.706 0.967582 1.51782 0
M  V30 5047 H 468.081 0.604846 0.44684 0
M  V30 5048 H 470.052 2.80688 1.01275 0
M  V30 5049 C 468.801 2.20928 2.68489 0
M  V30 5050 H 468.124 3.06742 2.56417 0
M  V30 5051 H 469.564 2.49291 3.42972 0
M  V30 5052 C 468.023 1.023 3.20993 0
M  V30 5053 O 468.553 0.267027 4.00811 0
M  V30 5054 N 466.759 0.815714 2.78917 0
M  V30 5055 H 466.306 1.43217 2.14119 0
M  V30 5056 H 466.264 0.0236532 3.14391 0
M  V30 5057 N 470.036 -0.519951 1.48776 0
M  V30 5058 C 471.283 -1.27522 1.57303 0
M  V30 5059 C 471.611 -1.92869 0.251328 0
M  V30 5060 O 470.866 -1.80372 -0.759243 0
M  V30 5061 C 471.165 -2.37864 2.6675 0
M  V30 5062 C 470.831 -1.90103 4.08867 0
M  V30 5063 C 469.493 -1.76795 4.47546 0
M  V30 5064 C 471.845 -1.54133 4.97888 0
M  V30 5065 C 469.173 -1.25868 5.73039 0
M  V30 5066 C 471.525 -1.04665 6.23881 0
M  V30 5067 C 470.189 -0.899823 6.61407 0
M  V30 5068 H 469.459 -0.466636 0.575614 0
M  V30 5069 H 472.106 -0.579109 1.82534 0
M  V30 5070 H 470.411 -3.13186 2.35418 0
M  V30 5071 H 472.108 -2.95969 2.70561 0
M  V30 5072 H 468.698 -2.01414 3.78326 0
M  V30 5073 H 472.882 -1.6327 4.68675 0
M  V30 5074 H 468.138 -1.13196 6.0083 0
M  V30 5075 H 472.312 -0.759074 6.92251 0
M  V30 5076 H 469.939 -0.503011 7.58534 0
M  V30 5077 N 471.514 -1.37532 -0.769588 0
M  V30 5078 C 472.761 -1.3286 -1.52822 0
M  V30 5079 C 473.089 0.0862597 -1.94309 0
M  V30 5080 O 472.344 1.05995 -1.6451 0
M  V30 5081 C 472.643 -2.21558 -2.8044 0
M  V30 5082 C 472.309 -3.69796 -2.57996 0
M  V30 5083 C 470.971 -4.10194 -2.51583 0
M  V30 5084 C 473.323 -4.63699 -2.37976 0
M  V30 5085 C 470.651 -5.42608 -2.23144 0
M  V30 5086 C 473.003 -5.96353 -2.1106 0
M  V30 5087 C 471.667 -6.35853 -2.03093 0
M  V30 5088 H 470.937 -0.486168 -0.559215 0
M  V30 5089 H 473.584 -1.69757 -0.886277 0
M  V30 5090 H 471.889 -1.77663 -3.49204 0
M  V30 5091 H 473.586 -2.15256 -3.38328 0
M  V30 5092 H 470.176 -3.37759 -2.63851 0
M  V30 5093 H 474.36 -4.33346 -2.41919 0
M  V30 5094 H 469.616 -5.72173 -2.15472 0
M  V30 5095 H 473.79 -6.68667 -1.94568 0
M  V30 5096 H 471.417 -7.38382 -1.8082 0
M  V30 5097 N 472.992 0.995999 -1.22138 0
M  V30 5098 C 474.241 1.72928 -1.03821 0
M  V30 5099 C 474.554 1.90872 0.427444 0
M  V30 5100 O 475.76 2.61496 0.730212 0
M  V30 5101 C 474.216 3.11124 -1.80913 0
M  V30 5102 C 473.824 3.01122 -3.31707 0
M  V30 5103 C 475.568 3.8852 -1.71035 0
M  V30 5104 C 473.475 4.34453 -4.01253 0
M  V30 5105 H 472.405 0.648376 -0.384869 0
M  V30 5106 H 475.056 1.11213 -1.45959 0
M  V30 5107 H 473.438 3.73503 -1.31573 0
M  V30 5108 H 474.612 2.47926 -3.88419 0
M  V30 5109 H 472.927 2.3721 -3.42228 0
M  V30 5110 H 475.524 4.872 -2.20318 0
M  V30 5111 H 475.867 4.1087 -0.670196 0
M  V30 5112 H 476.4 3.32812 -2.17902 0
M  V30 5113 H 473.139 4.17303 -5.05508 0
M  V30 5114 H 472.659 4.87574 -3.49331 0
M  V30 5115 H 474.338 5.03215 -4.06674 0
M  V30 5116 N 474.47 1.03057 1.19235 0
M  V30 5117 C 475.717 0.728019 1.88961 0
M  V30 5118 C 476.045 -0.743515 1.79728 0
M  V30 5119 O 475.3 -1.55729 1.1852 0
M  V30 5120 C 475.599 1.1268 3.39172 0
M  V30 5121 C 475.265 2.5969 3.68608 0
M  V30 5122 C 473.927 2.99854 3.76352 0
M  V30 5123 C 476.279 3.54793 3.81801 0
M  V30 5124 C 473.607 4.34031 3.94758 0
M  V30 5125 C 475.959 4.88675 4.0172 0
M  V30 5126 C 474.623 5.28526 4.07697 0
M  V30 5127 H 473.893 0.266401 0.691456 0
M  V30 5128 H 476.54 1.29373 1.41191 0
M  V30 5129 H 474.845 0.479722 3.88852 0
M  V30 5130 H 476.542 0.870203 3.91444 0
M  V30 5131 H 473.132 2.27575 3.63191 0
M  V30 5132 H 477.316 3.24914 3.7516 0
M  V30 5133 H 472.572 4.6444 3.97625 0
M  V30 5134 H 476.746 5.6228 4.1087 0
M  V30 5135 H 474.373 6.32506 4.21712 0
M  V30 5136 N 475.948 -1.35272 0.808662 0
M  V30 5137 C 477.194 -1.99003 0.390581 0
M  V30 5138 C 477.527 -1.63999 -1.0401 0
M  V30 5139 O 476.802 -0.904368 -1.72196 0
M  V30 5140 C 477.085 -3.55454 0.576566 0
M  V30 5141 C 476.938 -4.00249 2.05233 0
M  V30 5142 C 478.257 -4.401 0.00354277 0
M  V30 5143 H 475.376 -0.722917 0.143388 0
M  V30 5144 H 478.018 -1.6039 1.01858 0
M  V30 5145 H 476.168 -3.88477 0.0419766 0
M  V30 5146 H 477.84 -3.77626 2.64946 0
M  V30 5147 H 476.083 -3.51082 2.54801 0
M  V30 5148 H 476.754 -5.0911 2.13333 0
M  V30 5149 H 479.23 -4.13548 0.460117 0
M  V30 5150 H 478.106 -5.48656 0.163575 0
M  V30 5151 H 478.367 -4.28444 -1.09032 0
M  V30 5152 N 477.426 -0.562348 -1.47226 0
M  V30 5153 C 478.842 -0.222492 -1.58042 0
M  V30 5154 C 479.042 1.27505 -1.56028 0
M  V30 5155 O 478.098 2.05555 -1.46641 0
M  V30 5156 C 479.411 -0.853694 -2.88327 0
M  V30 5157 C 480.959 -0.825397 -3.01921 0
M  V30 5158 C 481.434 -1.43576 -4.34914 0
M  V30 5159 N 482.925 -1.39918 -4.41562 0
M  V30 5160 C 483.66 -1.84103 -5.43041 0
M  V30 5161 N 483.156 -2.36167 -6.51304 0
M  V30 5162 N 484.949 -1.75142 -5.34118 0
M  V30 5163 H 477.1 -1.53525 -1.46778 0
M  V30 5164 H 479.363 -0.640527 -0.698877 0
M  V30 5165 H 479.069 -1.90635 -2.95552 0
M  V30 5166 H 478.943 -0.34977 -3.75575 0
M  V30 5167 H 481.33 0.218583 -2.94289 0
M  V30 5168 H 481.411 -1.36713 -2.16202 0
M  V30 5169 H 481.055 -2.47884 -4.43301 0
M  V30 5170 H 480.985 -0.869427 -5.19373 0
M  V30 5171 H 483.476 -1.0184 -3.63919 0
M  V30 5172 H 483.789 -2.67793 -7.24919 0
M  V30 5173 H 482.134 -2.40181 -6.52179 0
M  V30 5174 H 485.325 -1.34241 -4.48439 0
M  V30 5175 H 485.498 -2.09895 -6.13065 0
M  V30 5176 N 478.904 1.54736 -0.299062 0
M  V30 5177 C 480.153 1.99279 0.311549 0
M  V30 5178 C 480.466 1.19107 1.55154 0
M  V30 5179 O 481.672 1.53908 2.23662 0
M  V30 5180 C 480.128 3.54768 0.605632 0
M  V30 5181 C 479.736 4.43746 -0.615914 0
M  V30 5182 C 481.48 4.07841 1.17754 0
M  V30 5183 C 479.387 5.90663 -0.29509 0
M  V30 5184 H 478.317 0.744359 0.120187 0
M  V30 5185 H 480.968 1.78919 -0.407464 0
M  V30 5186 H 479.35 3.71021 1.38419 0
M  V30 5187 H 480.524 4.39267 -1.39218 0
M  V30 5188 H 478.839 4.01434 -1.10633 0
M  V30 5189 H 481.436 5.15174 1.43179 0
M  V30 5190 H 481.779 3.58324 2.11918 0
M  V30 5191 H 482.312 3.95123 0.460739 0
M  V30 5192 H 479.051 6.44325 -1.20524 0
M  V30 5193 H 478.571 5.98155 0.44394 0
M  V30 5194 H 480.25 6.46916 0.104048 0
M  V30 5195 N 480.382 0.0267497 1.57577 0
M  V30 5196 C 481.628 -0.653371 1.91987 0
M  V30 5197 C 481.961 -1.71915 0.903263 0
M  V30 5198 O 481.236 -1.94358 -0.0743387 0
M  V30 5199 C 481.519 -1.272 3.36886 0
M  V30 5200 C 481.372 -0.215938 4.49281 0
M  V30 5201 C 482.691 -2.19069 3.81703 0
M  V30 5202 H 479.81 -0.236047 0.698177 0
M  V30 5203 H 482.452 0.0835236 1.89816 0
M  V30 5204 H 480.602 -1.90005 3.38866 0
M  V30 5205 H 482.274 0.41449 4.59434 0
M  V30 5206 H 480.517 0.458855 4.31366 0
M  V30 5207 H 481.188 -0.688347 5.47691 0
M  V30 5208 H 483.664 -1.66253 3.81444 0
M  V30 5209 H 482.54 -2.59307 4.83788 0
M  V30 5210 H 482.801 -3.08087 3.17072 0
M  V30 5211 N 481.861 -1.55662 -0.24637 0
M  V30 5212 C 482.793 -1.86811 -1.32794 0
M  V30 5213 C 483.806 -0.754413 -1.44265 0
M  V30 5214 O 484.995 -1.03253 -1.45606 0
M  V30 5215 C 482.095 -2.0397 -2.70646 0
M  V30 5216 C 481.268 -3.34832 -2.81436 0
M  V30 5217 C 480.327 -3.41727 -4.00136 0
M  V30 5218 O 479.353 -4.14934 -3.89639 0
M  V30 5219 N 480.555 -2.71058 -5.1333 0
M  V30 5220 H 483.32 -2.80174 -1.06409 0
M  V30 5221 H 480.881 -1.55906 -0.43647 0
M  V30 5222 H 482.873 -2.05924 -3.48393 0
M  V30 5223 H 481.443 -1.1735 -2.89738 0
M  V30 5224 H 480.663 -3.4519 -1.90361 0
M  V30 5225 H 481.951 -4.21085 -2.85595 0
M  V30 5226 H 481.349 -2.11314 -5.2475 0
M  V30 5227 H 479.906 -2.78704 -5.89209 0
M  V30 5228 N 483.339 0.512053 -1.4905 0
M  V30 5229 C 484.269 1.62365 -1.67809 0
M  V30 5230 C 485.25 1.61737 -0.526809 0
M  V30 5231 O 486.435 1.78651 -0.761404 0
M  V30 5232 C 483.565 3.00895 -1.73435 0
M  V30 5233 C 482.519 3.16387 -2.88242 0
M  V30 5234 C 481.845 4.56157 -2.78971 0
M  V30 5235 C 483.145 2.97457 -4.29321 0
M  V30 5236 H 484.839 1.46921 -2.60873 0
M  V30 5237 H 482.385 0.705379 -1.2554 0
M  V30 5238 H 484.338 3.78549 -1.85145 0
M  V30 5239 H 483.062 3.17403 -0.769619 0
M  V30 5240 H 481.721 2.41155 -2.76116 0
M  V30 5241 H 481.369 4.69525 -1.8043 0
M  V30 5242 H 481.069 4.67465 -3.5602 0
M  V30 5243 H 482.593 5.35886 -2.92675 0
M  V30 5244 H 484.007 3.64888 -4.42187 0
M  V30 5245 H 482.404 3.20245 -5.07507 0
M  V30 5246 H 483.474 1.93692 -4.44535 0
M  V30 5247 N 484.817 1.37938 0.762283 0
M  V30 5248 C 485.747 1.37176 1.88958 0
M  V30 5249 C 486.728 0.238945 1.68413 0
M  V30 5250 O 487.913 0.440726 1.89133 0
M  V30 5251 C 485.043 1.18742 3.2637 0
M  V30 5252 C 483.997 2.29136 3.61498 0
M  V30 5253 C 483.323 1.95816 4.97554 0
M  V30 5254 C 484.623 3.71363 3.6727 0
M  V30 5255 H 486.317 2.31509 1.89853 0
M  V30 5256 H 483.863 1.11438 0.912005 0
M  V30 5257 H 485.816 1.16837 4.04879 0
M  V30 5258 H 484.54 0.208683 3.25933 0
M  V30 5259 H 483.199 2.30213 2.85303 0
M  V30 5260 H 482.847 0.964475 4.93667 0
M  V30 5261 H 482.547 2.69745 5.22026 0
M  V30 5262 H 484.071 1.95513 5.78452 0
M  V30 5263 H 485.485 3.72364 4.35911 0
M  V30 5264 H 483.882 4.44425 4.03245 0
M  V30 5265 H 484.952 4.04305 2.67704 0
M  V30 5266 N 486.295 -0.989507 1.22664 0
M  V30 5267 C 487.541 -1.7321 1.05481 0
M  V30 5268 C 487.874 -1.89852 -0.408635 0
M  V30 5269 O 487.149 -1.44416 -1.30285 0
M  V30 5270 C 487.432 -3.1357 1.77047 0
M  V30 5271 C 487.285 -3.04555 3.31008 0
M  V30 5272 C 488.604 -4.12812 1.5256 0
M  V30 5273 H 485.723 -0.628697 0.384589 0
M  V30 5274 H 488.365 -1.15258 1.51049 0
M  V30 5275 H 486.515 -3.63046 1.3831 0
M  V30 5276 H 488.187 -2.62674 3.7921 0
M  V30 5277 H 486.43 -2.41278 3.6051 0
M  V30 5278 H 487.101 -4.03894 3.76263 0
M  V30 5279 H 489.577 -3.72106 1.86215 0
M  V30 5280 H 488.453 -5.09132 2.05124 0
M  V30 5281 H 488.714 -4.39711 0.458936 0
M  V30 5282 N 487.773 -1.03688 -1.18687 0
M  V30 5283 C 488.736 -0.629115 -2.20397 0
M  V30 5284 C 489.736 0.311495 -1.57754 0
M  V30 5285 O 490.926 0.0974107 -1.73927 0
M  V30 5286 C 488.058 0.0782231 -3.4081 0
M  V30 5287 H 489.251 -1.52915 -2.57987 0
M  V30 5288 H 486.804 -0.828988 -1.32505 0
M  V30 5289 H 487.539 0.992233 -3.08748 0
M  V30 5290 H 487.324 -0.597776 -3.87517 0
M  V30 5291 H 488.814 0.350156 -4.16129 0
M  V30 5292 N 489.251 1.34841 -0.815825 0
M  V30 5293 C 490.198 2.29644 -0.230664 0
M  V30 5294 C 491.168 1.53253 0.640533 0
M  V30 5295 O 492.353 1.81653 0.583672 0
M  V30 5296 C 489.493 3.39715 0.607275 0
M  V30 5297 C 488.606 4.31056 -0.28538 0
M  V30 5298 C 487.741 5.28225 0.561446 0
M  V30 5299 C 486.78 6.11204 -0.331035 0
M  V30 5300 N 485.917 7.00483 0.476302 0
M  V30 5301 H 490.757 2.79095 -1.0445 0
M  V30 5302 H 488.294 1.37351 -0.526595 0
M  V30 5303 H 490.252 4.02208 1.10835 0
M  V30 5304 H 488.882 2.91517 1.38629 0
M  V30 5305 H 487.934 3.69487 -0.904621 0
M  V30 5306 H 489.246 4.89239 -0.97193 0
M  V30 5307 H 488.4 5.96135 1.12728 0
M  V30 5308 H 487.139 4.70562 1.28153 0
M  V30 5309 H 486.144 5.42232 -0.909069 0
M  V30 5310 H 487.369 6.70947 -1.04912 0
M  V30 5311 H 485.315 6.45296 1.18019 0
M  V30 5312 H 485.232 7.55847 -0.152008 0
M  V30 5313 H 486.5 7.7273 1.02512 0
M  V30 5314 N 490.729 0.570148 1.46925 0
M  V30 5315 C 491.659 -0.158274 2.32963 0
M  V30 5316 C 492.64 -0.896093 1.44583 0
M  V30 5317 O 493.825 -0.874022 1.7342 0
M  V30 5318 C 490.955 -1.18055 3.26619 0
M  V30 5319 C 489.909 -0.558379 4.24342 0
M  V30 5320 C 489.235 -1.68623 5.07415 0
M  V30 5321 C 490.535 0.496295 5.19937 0
M  V30 5322 H 492.229 0.560046 2.94115 0
M  V30 5323 H 489.775 0.270775 1.41431 0
M  V30 5324 H 491.728 -1.69841 3.85658 0
M  V30 5325 H 490.452 -1.92899 2.63548 0
M  V30 5326 H 489.111 -0.0617157 3.66548 0
M  V30 5327 H 488.759 -2.42402 4.40738 0
M  V30 5328 H 488.459 -1.27564 5.73586 0
M  V30 5329 H 489.983 -2.20709 5.69315 0
M  V30 5330 H 491.397 0.0640052 5.73264 0
M  V30 5331 H 489.794 0.82649 5.94381 0
M  V30 5332 H 490.864 1.38735 4.6463 0
M  V30 5333 N 492.207 -1.54576 0.307264 0
M  V30 5334 C 493.623 -1.59534 -0.0459251 0
M  V30 5335 C 493.823 -1.32414 -1.51884 0
M  V30 5336 O 492.879 -1.1006 -2.27251 0
M  V30 5337 C 494.192 -2.98566 0.357649 0
M  V30 5338 C 495.74 -3.11491 0.306937 0
M  V30 5339 C 496.215 -4.52842 0.685427 0
M  V30 5340 N 497.706 -4.58782 0.638203 0
M  V30 5341 C 498.441 -5.66238 0.903458 0
M  V30 5342 N 497.937 -6.81703 1.23501 0
M  V30 5343 N 499.73 -5.55937 0.830102 0
M  V30 5344 H 491.881 -1.70464 1.26712 0
M  V30 5345 H 494.144 -0.79647 0.514139 0
M  V30 5346 H 493.85 -3.23356 1.38325 0
M  V30 5347 H 493.724 -3.76117 -0.285565 0
M  V30 5348 H 496.111 -2.86446 -0.709424 0
M  V30 5349 H 496.192 -2.36081 0.984861 0
M  V30 5350 H 495.836 -4.78618 1.69963 0
M  V30 5351 H 495.766 -5.26598 -0.0146346 0
M  V30 5352 H 498.257 -3.75849 0.393138 0
M  V30 5353 H 498.57 -7.59582 1.42322 0
M  V30 5354 H 496.915 -6.8324 1.27311 0
M  V30 5355 H 500.106 -4.64608 0.570693 0
M  V30 5356 H 500.279 -6.39597 1.04019 0
M  V30 5357 N 493.685 -0.035106 -1.57561 0
M  V30 5358 C 494.648 0.929819 -2.09492 0
M  V30 5359 C 495.648 1.25026 -1.01119 0
M  V30 5360 O 496.838 1.18961 -1.27255 0
M  V30 5361 C 493.97 2.24457 -2.56577 0
M  V30 5362 H 495.163 0.479935 -2.96035 0
M  V30 5363 H 492.716 0.213033 -1.54841 0
M  V30 5364 H 493.451 2.74061 -1.73382 0
M  V30 5365 H 493.236 2.02508 -3.35757 0
M  V30 5366 H 494.726 2.93607 -2.96959 0
M  V30 5367 N 495.163 1.55791 0.238111 0
M  V30 5368 C 496.579 1.48411 0.587045 0
M  V30 5369 C 496.779 0.72702 1.87927 0
M  V30 5370 O 495.835 0.259942 2.51158 0
M  V30 5371 C 497.148 2.92873 0.681623 0
M  V30 5372 C 498.696 3.03295 0.773363 0
M  V30 5373 C 499.171 4.49082 0.899428 0
M  V30 5374 N 500.662 4.53056 0.964075 0
M  V30 5375 C 501.397 5.63117 1.08104 0
M  V30 5376 N 500.893 6.82969 1.16299 0
M  V30 5377 N 502.686 5.50933 1.11488 0
M  V30 5378 H 494.837 2.0345 -0.610076 0
M  V30 5379 H 497.1 0.924034 -0.211813 0
M  V30 5380 H 496.806 3.51142 -0.19802 0
M  V30 5381 H 496.68 3.43851 1.55069 0
M  V30 5382 H 499.067 2.45101 1.64346 0
M  V30 5383 H 499.148 2.55513 -0.121034 0
M  V30 5384 H 498.792 5.07889 0.0338586 0
M  V30 5385 H 498.722 4.94553 1.809 0
M  V30 5386 H 501.213 3.66737 0.91173 0
M  V30 5387 H 501.526 7.62598 1.25155 0
M  V30 5388 H 499.871 6.85712 1.13241 0
M  V30 5389 H 503.062 4.56231 1.0474 0
M  V30 5390 H 503.235 6.36743 1.20259 0
M  V30 5391 N 496.642 -0.504142 1.49319 0
M  V30 5392 C 497.574 -1.62265 1.61872 0
M  V30 5393 C 498.587 -1.54881 0.501573 0
M  V30 5394 O 499.776 -1.6087 0.773497 0
M  V30 5395 C 496.876 -3.01042 1.55651 0
M  V30 5396 C 496.049 -3.33642 2.82845 0
M  V30 5397 C 495.108 -4.51816 2.69719 0
M  V30 5398 O 494.134 -4.53755 3.4365 0
M  V30 5399 N 495.336 -5.51543 1.81055 0
M  V30 5400 H 498.101 -1.51924 2.58339 0
M  V30 5401 H 495.662 -0.691954 1.46368 0
M  V30 5402 H 497.654 -3.78013 1.44528 0
M  V30 5403 H 496.224 -3.05323 0.670546 0
M  V30 5404 H 495.444 -2.45598 3.08343 0
M  V30 5405 H 496.732 -3.5222 3.67177 0
M  V30 5406 H 496.13 -5.52774 1.20241 0
M  V30 5407 H 494.687 -6.27629 1.75856 0
M  V30 5408 N 498.12 -1.38341 -0.754957 0
M  V30 5409 C 499.053 -1.29837 -1.87663 0
M  V30 5410 C 500.031 -0.175659 -1.61648 0
M  V30 5411 O 501.215 -0.352745 -1.8517 0
M  V30 5412 C 498.342 -1.01141 -3.23246 0
M  V30 5413 C 497.388 -2.15331 -3.6815 0
M  V30 5414 S 498.221 -3.77459 -3.79849 0
M  V30 5415 C 499.377 -3.50948 -5.18253 0
M  V30 5416 H 499.61 -2.24771 -1.9459 0
M  V30 5417 H 497.143 -1.24161 -0.917796 0
M  V30 5418 H 499.101 -0.852687 -4.01546 0
M  V30 5419 H 497.762 -0.0792784 -3.14 0
M  V30 5420 H 496.955 -1.90795 -4.6649 0
M  V30 5421 H 496.557 -2.27304 -2.97 0
M  V30 5422 H 498.849 -3.06977 -6.03963 0
M  V30 5423 H 499.792 -4.48677 -5.47809 0
M  V30 5424 H 500.2 -2.85492 -4.86985 0
M  V30 5425 N 499.598 0.982988 -1.23187 0
M  V30 5426 C 500.548 2.05962 -0.977942 0
M  V30 5427 C 501.532 1.60725 0.0751148 0
M  V30 5428 O 502.724 1.76471 -0.136683 0
M  V30 5429 C 499.853 3.38564 -0.568276 0
M  V30 5430 C 498.939 3.90407 -1.6566 0
M  V30 5431 N 499.33 4.15359 -2.88635 0
M  V30 5432 C 497.628 4.18915 -1.53058 0
M  V30 5433 C 498.329 4.57642 -3.5908 0
M  V30 5434 N 497.305 4.6192 -2.86584 0
M  V30 5435 H 501.107 2.23208 -1.91195 0
M  V30 5436 H 498.621 1.16555 -1.13087 0
M  V30 5437 H 500.618 4.15276 -0.36764 0
M  V30 5438 H 499.278 3.22712 0.358713 0
M  V30 5439 H 500.289 4.03258 -3.24966 0
M  V30 5440 H 496.966 4.12081 -0.670506 0
M  V30 5441 H 498.356 4.85488 -4.6449 0
M  V30 5442 N 501.076 1.04316 1.18135 0
M  V30 5443 C 502.026 0.606731 2.19779 0
M  V30 5444 C 503.01 -0.352144 1.56999 0
M  V30 5445 O 504.202 -0.170795 1.76174 0
M  V30 5446 C 501.331 -0.0262443 3.4329 0
M  V30 5447 C 500.417 0.955928 4.13186 0
M  V30 5448 N 500.808 2.12395 4.59045 0
M  V30 5449 C 499.106 0.782473 4.39082 0
M  V30 5450 C 499.807 2.74458 5.12882 0
M  V30 5451 N 498.783 2.02316 5.04548 0
M  V30 5452 H 502.585 1.49679 2.5293 0
M  V30 5453 H 500.099 0.912088 1.34368 0
M  V30 5454 H 502.096 -0.356617 4.15372 0
M  V30 5455 H 500.756 -0.911811 3.11635 0
M  V30 5456 H 501.767 2.50272 4.53414 0
M  V30 5457 H 498.444 -0.0527906 4.17467 0
M  V30 5458 H 499.834 3.73459 5.5855 0
M  V30 5459 N 502.554 -1.34406 0.822964 0
M  V30 5460 C 503.782 -2.02508 0.424039 0
M  V30 5461 C 504.197 -1.61975 -0.970022 0
M  V30 5462 O 503.554 -0.825228 -1.62777 0
M  V30 5463 C 503.605 -3.57789 0.516657 0
M  V30 5464 O 503.326 -3.96853 1.85577 0
M  V30 5465 C 504.827 -4.43157 0.112637 0
M  V30 5466 H 502.047 -0.649063 0.170173 0
M  V30 5467 H 504.591 -1.7168 1.11113 0
M  V30 5468 H 502.746 -3.87207 -0.122353 0
M  V30 5469 H 503.16 -4.91538 1.83005 0
M  V30 5470 H 504.634 -5.51527 0.228526 0
M  V30 5471 H 505.111 -4.28939 -0.943837 0
M  V30 5472 H 505.717 -4.19067 0.725449 0
M  V30 5473 N 504.032 -0.577932 -1.46621 0
M  V30 5474 C 505.309 0.00495287 -1.95599 0
M  V30 5475 C 505.689 1.46428 -1.5206 0
M  V30 5476 O 505.037 2.1517 -0.769046 0
M  V30 5477 C 505.247 -0.162114 -3.48623 0
M  V30 5478 C 506.595 -0.0274623 -4.24591 0
M  V30 5479 O 507.619 -0.0907067 -3.56084 0
M  V30 5480 O 506.478 0.1122 -5.46385 0
M  V30 5481 H 503.572 0.0525057 -0.825332 0
M  V30 5482 H 506.118 -0.645914 -1.56927 0
M  V30 5483 H 504.89 -1.17679 -3.73185 0
M  V30 5484 H 504.513 0.525407 -3.94113 0
M  V30 5485 N 505.51 1.54411 -0.315457 0
M  V30 5486 C 506.74 2.04536 0.291315 0
M  V30 5487 C 507.148 1.19162 1.4696 0
M  V30 5488 O 506.491 0.213199 1.82459 0
M  V30 5489 C 506.553 3.5056 0.796725 0
M  V30 5490 C 506.217 4.5627 -0.258178 0
M  V30 5491 C 507.214 5.08312 -1.09153 0
M  V30 5492 C 504.899 5.00672 -0.404036 0
M  V30 5493 C 506.893 6.03312 -2.05655 0
M  V30 5494 C 504.58 5.95488 -1.37248 0
M  V30 5495 C 505.578 6.46693 -2.19721 0
M  V30 5496 O 505.266 7.39648 -3.14921 0
M  V30 5497 H 504.998 0.672856 0.0651165 0
M  V30 5498 H 507.552 2.00244 -0.457308 0
M  V30 5499 H 505.782 3.52223 1.59612 0
M  V30 5500 H 507.471 3.83804 1.32096 0
M  V30 5501 H 508.237 4.74793 -0.98979 0
M  V30 5502 H 504.116 4.60436 0.22799 0
M  V30 5503 H 507.66 6.43203 -2.70067 0
M  V30 5504 H 503.557 6.28424 -1.47489 0
M  V30 5505 H 504.325 7.57496 -3.10067 0
M  V30 5506 N 506.988 0.0434614 1.5754 0
M  V30 5507 C 507.935 -0.93356 2.11077 0
M  V30 5508 C 508.905 -1.31383 1.01626 0
M  V30 5509 O 510.09 -1.40465 1.29129 0
M  V30 5510 C 507.23 -2.20578 2.65404 0
M  V30 5511 C 506.343 -1.88068 3.88914 0
M  V30 5512 C 505.478 -3.09691 4.31584 0
M  V30 5513 C 504.517 -2.73067 5.47815 0
M  V30 5514 N 503.654 -3.87359 5.85574 0
M  V30 5515 H 508.494 -0.470118 2.94268 0
M  V30 5516 H 506.031 -0.220434 1.45439 0
M  V30 5517 H 507.989 -2.95011 2.94999 0
M  V30 5518 H 506.619 -2.64513 1.85021 0
M  V30 5519 H 505.671 -1.03816 3.6596 0
M  V30 5520 H 506.983 -1.57104 4.73413 0
M  V30 5521 H 506.137 -3.92431 4.62691 0
M  V30 5522 H 504.876 -3.43827 3.45882 0
M  V30 5523 H 503.881 -1.88742 5.16388 0
M  V30 5524 H 505.106 -2.40131 6.35227 0
M  V30 5525 H 503.052 -4.21311 5.02825 0
M  V30 5526 H 502.969 -3.60068 6.64746 0
M  V30 5527 H 504.237 -4.70761 6.21292 0
M  V30 5528 N 508.466 -1.55915 -0.229846 0
M  V30 5529 C 509.713 -1.78542 -0.955452 0
M  V30 5530 C 510.041 -0.610785 -1.84661 0
M  V30 5531 O 509.296 0.405213 -1.91459 0
M  V30 5532 C 509.595 -3.06845 -1.8325 0
M  V30 5533 C 509.261 -4.37395 -1.09528 0
M  V30 5534 C 507.923 -4.72868 -0.891598 0
M  V30 5535 C 510.275 -5.18029 -0.574046 0
M  V30 5536 C 507.603 -5.86496 -0.154655 0
M  V30 5537 C 509.955 -6.32423 0.149513 0
M  V30 5538 C 508.619 -6.66504 0.364519 0
M  V30 5539 H 507.889 -0.653333 -0.349625 0
M  V30 5540 H 510.536 -1.90183 -0.224235 0
M  V30 5541 H 508.841 -2.90291 -2.63132 0
M  V30 5542 H 510.538 -3.21553 -2.39592 0
M  V30 5543 H 507.128 -4.09538 -1.26399 0
M  V30 5544 H 511.312 -4.91066 -0.718899 0
M  V30 5545 H 506.568 -6.11396 0.0222356 0
M  V30 5546 H 510.742 -6.94137 0.560947 0
M  V30 5547 H 508.369 -7.54397 0.937495 0
M  V30 5548 N 509.944 0.496216 -1.49584 0
M  V30 5549 C 511.36 0.827814 -1.36453 0
M  V30 5550 C 511.56 1.97464 -0.401285 0
M  V30 5551 O 510.616 2.51958 0.165296 0
M  V30 5552 C 511.929 1.16352 -2.77277 0
M  V30 5553 C 513.477 1.27145 -2.86013 0
M  V30 5554 C 513.952 1.64042 -4.27615 0
M  V30 5555 N 515.443 1.71082 -4.30448 0
M  V30 5556 C 516.178 2.01085 -5.36984 0
M  V30 5557 N 515.674 2.2928 -6.5376 0
M  V30 5558 N 517.467 2.02376 -5.24405 0
M  V30 5559 H 509.618 -0.259947 -2.10803 0
M  V30 5560 H 511.881 -0.0537163 -0.946477 0
M  V30 5561 H 511.587 0.394153 -3.49484 0
M  V30 5562 H 511.461 2.10582 -3.12946 0
M  V30 5563 H 513.848 2.03152 -2.1404 0
M  V30 5564 H 513.929 0.309542 -2.5392 0
M  V30 5565 H 513.573 0.88583 -5.00115 0
M  V30 5566 H 513.503 2.6134 -4.57175 0
M  V30 5567 H 515.994 1.51434 -3.46232 0
M  V30 5568 H 516.307 2.51376 -7.30774 0
M  V30 5569 H 514.652 2.26726 -6.56978 0
M  V30 5570 H 517.843 1.79829 -4.32179 0
M  V30 5571 H 518.016 2.25425 -6.07526 0
M  V30 5572 N 511.423 1.38739 0.74761 0
M  V30 5573 C 512.353 1.39173 1.87492 0
M  V30 5574 C 513.334 0.256794 1.6815 0
M  V30 5575 O 514.519 0.460762 1.88655 0
M  V30 5576 C 511.649 1.22197 3.25093 0
M  V30 5577 C 510.603 2.32957 3.59047 0
M  V30 5578 C 509.929 2.01082 4.95449 0
M  V30 5579 C 511.229 3.75237 3.6331 0
M  V30 5580 H 512.923 2.3351 1.87386 0
M  V30 5581 H 510.469 1.12399 0.900134 0
M  V30 5582 H 512.422 1.21124 4.03617 0
M  V30 5583 H 511.146 0.243241 3.25693 0
M  V30 5584 H 509.805 2.33226 2.82845 0
M  V30 5585 H 509.453 1.01678 4.92616 0
M  V30 5586 H 509.153 2.75267 5.19136 0
M  V30 5587 H 510.677 2.01638 5.76346 0
M  V30 5588 H 512.091 3.76966 4.31937 0
M  V30 5589 H 510.488 4.48677 3.98509 0
M  V30 5590 H 511.558 4.07122 2.634 0
M  V30 5591 N 512.901 -0.976442 1.23707 0
M  V30 5592 C 513.864 -2.0511 1.02287 0
M  V30 5593 C 514.864 -1.60791 -0.0167195 0
M  V30 5594 O 516.054 -1.72761 0.223408 0
M  V30 5595 C 513.186 -3.36458 0.548507 0
M  V30 5596 H 514.379 -2.25545 1.9766 0
M  V30 5597 H 511.932 -1.15042 1.05806 0
M  V30 5598 H 512.667 -3.21713 -0.408818 0
M  V30 5599 H 512.452 -3.69967 1.29874 0
M  V30 5600 H 513.942 -4.15489 0.419406 0
M  V30 5601 N 514.379 -1.04941 -1.1758 0
M  V30 5602 C 515.326 -0.648155 -2.21512 0
M  V30 5603 C 516.296 0.348431 -1.62404 0
M  V30 5604 O 517.481 0.240419 -1.89279 0
M  V30 5605 C 514.621 -0.0264291 -3.4509 0
M  V30 5606 C 513.734 -1.07154 -4.185 0
M  V30 5607 C 512.869 -0.417403 -5.29558 0
M  V30 5608 C 511.908 -1.447 -5.94751 0
M  V30 5609 N 511.045 -0.817203 -6.97328 0
M  V30 5610 H 515.885 -1.53891 -2.55189 0
M  V30 5611 H 513.422 -0.769699 -1.25356 0
M  V30 5612 H 515.38 0.351456 -4.15717 0
M  V30 5613 H 514.01 0.827802 -3.12005 0
M  V30 5614 H 513.062 -1.56728 -3.46613 0
M  V30 5615 H 514.374 -1.8532 -4.63096 0
M  V30 5616 H 513.528 0.0142061 -6.06698 0
M  V30 5617 H 512.267 0.396265 -4.86087 0
M  V30 5618 H 511.272 -1.88865 -5.16343 0
M  V30 5619 H 512.497 -2.26252 -6.40302 0
M  V30 5620 H 510.443 -0.0239995 -6.55996 0
M  V30 5621 H 510.36 -1.53644 -7.40223 0
M  V30 5622 H 511.628 -0.410283 -7.7842 0
M  V30 5623 N 515.857 1.33968 -0.830081 0
M  V30 5624 C 517.082 2.02813 -0.433796 0
M  V30 5625 C 517.507 1.62076 0.954614 0
M  V30 5626 O 516.865 0.808955 1.62252 0
M  V30 5627 C 516.913 3.56348 -0.552115 0
M  V30 5628 O 516.017 4.10202 0.425191 0
M  V30 5629 H 515.358 0.639817 -0.177567 0
M  V30 5630 H 517.888 1.7106 -1.12248 0
M  V30 5631 H 517.898 4.05722 -0.430513 0
M  V30 5632 H 516.573 3.85344 -1.56471 0
M  V30 5633 H 515.15 3.71979 0.261878 0
M  V30 5634 N 517.335 0.585699 1.46312 0
M  V30 5635 C 518.563 0.0781299 2.06752 0
M  V30 5636 C 518.978 -1.22812 1.43396 0
M  V30 5637 O 518.335 -1.74318 0.540314 0
M  V30 5638 C 518.386 -0.0911927 3.61385 0
M  V30 5639 O 518.107 1.16336 4.22371 0
M  V30 5640 C 519.608 -0.632765 4.38761 0
M  V30 5641 H 516.828 0.0588188 0.668417 0
M  V30 5642 H 519.372 0.807218 1.87894 0
M  V30 5643 H 517.527 -0.770514 3.7966 0
M  V30 5644 H 517.941 0.979082 5.15281 0
M  V30 5645 H 519.415 -0.70041 5.47538 0
M  V30 5646 H 519.892 -1.65039 4.07012 0
M  V30 5647 H 520.498 0.0117856 4.25298 0
M  V30 5648 N 518.813 -1.54241 0.323641 0
M  V30 5649 C 519.743 -2.27289 -0.534993 0
M  V30 5650 C 520.724 -1.28087 -1.11927 0
M  V30 5651 O 521.909 -1.56899 -1.14439 0
M  V30 5652 C 519.039 -3.03075 -1.69596 0
M  V30 5653 C 517.993 -4.09614 -1.24098 0
M  V30 5654 C 517.319 -4.73242 -2.4889 0
M  V30 5655 C 518.619 -5.21087 -0.355789 0
M  V30 5656 H 520.313 -2.99308 0.0743257 0
M  V30 5657 H 517.859 -1.43952 0.0371874 0
M  V30 5658 H 519.812 -3.52907 -2.30293 0
M  V30 5659 H 518.536 -2.28673 -2.33187 0
M  V30 5660 H 517.195 -3.60666 -0.656945 0
M  V30 5661 H 516.843 -3.95455 -3.10845 0
M  V30 5662 H 516.543 -5.45209 -2.19138 0
M  V30 5663 H 518.067 -5.25848 -3.10348 0
M  V30 5664 H 519.481 -5.66675 -0.869042 0
M  V30 5665 H 517.878 -5.9991 -0.151045 0
M  V30 5666 H 518.948 -4.81005 0.613339 0
M  V30 5667 N 520.291 -0.0518155 -1.57515 0
M  V30 5668 C 521.519 0.631395 -1.9703 0
M  V30 5669 C 521.934 1.64341 -0.92938 0
M  V30 5670 O 521.291 1.82296 0.0863266 0
M  V30 5671 C 521.342 1.31774 -3.36627 0
M  V30 5672 O 521.063 0.346247 -4.3673 0
M  V30 5673 C 522.564 2.09065 -3.90905 0
M  V30 5674 H 519.784 0.172576 -0.648428 0
M  V30 5675 H 522.328 -0.118306 -2.04158 0
M  V30 5676 H 520.483 2.01867 -3.30649 0
M  V30 5677 H 520.897 0.836226 -5.17791 0
M  V30 5678 H 522.371 2.52508 -4.9086 0
M  V30 5679 H 522.848 2.93908 -3.26366 0
M  V30 5680 H 523.454 1.43882 -4.00223 0
M  V30 5681 N 521.769 1.56035 0.221574 0
M  V30 5682 C 522.699 1.95434 1.2778 0
M  V30 5683 C 523.68 0.822564 1.48889 0
M  V30 5684 O 524.865 1.08486 1.61072 0
M  V30 5685 C 521.995 2.27102 2.62759 0
M  V30 5686 C 520.949 3.4277 2.56306 0
M  V30 5687 C 520.275 3.60043 3.95314 0
M  V30 5688 C 521.575 4.77742 2.11093 0
M  V30 5689 H 523.269 2.83912 0.950504 0
M  V30 5690 H 520.815 1.36596 0.455791 0
M  V30 5691 H 522.768 2.53256 3.36807 0
M  V30 5692 H 521.492 1.35478 2.97176 0
M  V30 5693 H 520.151 3.16664 1.84715 0
M  V30 5694 H 519.799 2.65794 4.27039 0
M  V30 5695 H 519.499 4.37841 3.91879 0
M  V30 5696 H 521.023 3.88545 4.71025 0
M  V30 5697 H 522.437 5.03102 2.74885 0
M  V30 5698 H 520.834 5.58823 2.18716 0
M  V30 5699 H 521.904 4.731 1.06321 0
M  V30 5700 N 523.247 -0.488276 1.49845 0
M  V30 5701 C 524.496 -1.23826 1.59217 0
M  V30 5702 C 524.809 -1.93439 0.289966 0
M  V30 5703 O 526.015 -2.70229 0.262382 0
M  V30 5704 C 524.471 -2.24902 2.80976 0
M  V30 5705 C 524.079 -1.6117 4.18005 0
M  V30 5706 C 525.823 -3.00648 2.99685 0
M  V30 5707 C 523.73 -2.60431 5.3097 0
M  V30 5708 H 522.66 -0.465858 0.592868 0
M  V30 5709 H 525.311 -0.510645 1.76252 0
M  V30 5710 H 523.693 -3.0088 2.57463 0
M  V30 5711 H 524.867 -0.910968 4.51706 0
M  V30 5712 H 523.182 -0.97767 4.0476 0
M  V30 5713 H 525.779 -3.74903 3.81251 0
M  V30 5714 H 526.122 -3.5902 2.10738 0
M  V30 5715 H 526.655 -2.31784 3.23297 0
M  V30 5716 H 523.394 -2.06823 6.22017 0
M  V30 5717 H 522.914 -3.28707 5.01709 0
M  V30 5718 H 524.593 -3.22606 5.60834 0
M  V30 5719 N 524.725 -1.39134 -0.740242 0
M  V30 5720 C 526.136 -1.32208 -1.31825 0
M  V30 5721 C 526.487 0.0159919 -1.96193 0
M  V30 5722 O 525.612 0.918111 -1.95958 0
M  V30 5723 C 526.207 -2.39436 -2.39699 0
M  V30 5724 C 524.766 -2.36048 -2.93187 0
M  V30 5725 C 523.913 -2.21599 -1.66701 0
M  V30 5726 H 526.864 -1.49298 -0.538133 0
M  V30 5727 H 526.885 -2.05922 -3.19963 0
M  V30 5728 H 526.397 -3.36811 -1.92821 0
M  V30 5729 H 524.498 -1.42295 -3.44359 0
M  V30 5730 H 524.611 -3.30704 -3.46658 0
M  V30 5731 H 522.975 -1.68681 -1.90837 0
M  V30 5732 H 523.758 -3.20936 -1.21882 0
M  V30 5733 N 526.204 0.969867 -1.24223 0
M  V30 5734 C 527.134 2.08191 -1.05729 0
M  V30 5735 C 528.115 1.70075 0.0290765 0
M  V30 5736 O 529.3 1.93712 -0.137583 0
M  V30 5737 C 526.43 3.40991 -0.658995 0
M  V30 5738 C 525.384 3.93054 -1.69389 0
M  V30 5739 C 524.71 5.22171 -1.15072 0
M  V30 5740 C 526.01 4.21137 -3.08935 0
M  V30 5741 H 527.704 2.23921 -1.98746 0
M  V30 5742 H 525.25 1.07602 -0.956967 0
M  V30 5743 H 527.203 4.18221 -0.51662 0
M  V30 5744 H 525.927 3.25155 0.30686 0
M  V30 5745 H 524.586 3.17977 -1.82444 0
M  V30 5746 H 524.234 5.02694 -0.175539 0
M  V30 5747 H 523.934 5.57973 -1.84229 0
M  V30 5748 H 525.458 6.02013 -1.02042 0
M  V30 5749 H 526.872 4.8908 -2.99121 0
M  V30 5750 H 525.269 4.68163 -3.75425 0
M  V30 5751 H 526.339 3.27996 -3.57137 0
M  V30 5752 N 527.682 1.05563 1.17022 0
M  V30 5753 C 528.612 0.681026 2.23348 0
M  V30 5754 C 529.593 -0.322983 1.67005 0
M  V30 5755 O 530.778 -0.199746 1.9317 0
M  V30 5756 C 527.908 0.0589053 3.4725 0
M  V30 5757 C 526.862 0.988082 4.16438 0
M  V30 5758 C 526.188 0.229646 5.34207 0
M  V30 5759 C 527.488 2.31388 4.68249 0
M  V30 5760 H 529.182 1.56993 2.54938 0
M  V30 5761 H 526.728 0.756302 1.2254 0
M  V30 5762 H 528.681 -0.214982 4.20851 0
M  V30 5763 H 527.405 -0.864968 3.14938 0
M  V30 5764 H 526.064 1.24659 3.44754 0
M  V30 5765 H 525.712 -0.697111 4.98146 0
M  V30 5766 H 525.412 0.848815 5.81437 0
M  V30 5767 H 526.936 -0.0368694 6.10589 0
M  V30 5768 H 528.35 2.09964 5.33468 0
M  V30 5769 H 526.747 2.88736 5.26072 0
M  V30 5770 H 527.817 2.94982 3.84855 0
M  V30 5771 N 529.16 -1.33526 0.837174 0
M  V30 5772 C 530.408 -1.97446 0.431211 0
M  V30 5773 C 530.729 -1.6665 -1.01255 0
M  V30 5774 O 529.999 -0.964559 -1.70508 0
M  V30 5775 H 528.579 -0.73043 0.156463 0
M  V30 5776 H 531.241 -1.62918 1.06976 0
M  V30 5777 H 530.337 -3.07001 0.561877 0
M  V30 5778 N 530.638 -0.59345 -1.46 0
M  V30 5779 C 531.884 -0.0832754 -2.02629 0
M  V30 5780 C 532.217 1.27749 -1.46266 0
M  V30 5781 O 531.492 1.8395 -0.631866 0
M  V30 5782 C 531.775 -0.0290756 -3.60088 0
M  V30 5783 C 531.628 -1.41951 -4.26814 0
M  V30 5784 C 532.947 0.666055 -4.35031 0
M  V30 5785 H 530.066 -0.031736 -0.736316 0
M  V30 5786 H 532.708 -0.762711 -1.74019 0
M  V30 5787 H 530.858 0.549532 -3.84594 0
M  V30 5788 H 532.53 -2.04411 -4.13538 0
M  V30 5789 H 530.773 -1.98422 -3.8576 0
M  V30 5790 H 531.444 -1.33395 -5.3564 0
M  V30 5791 H 533.92 0.174401 -4.15734 0
M  V30 5792 H 532.796 0.673041 -5.44758 0
M  V30 5793 H 533.057 1.72946 -4.06869 0
M  V30 5794 N 532.116 1.54067 -0.331816 0
M  V30 5795 C 533.066 2.21363 0.546101 0
M  V30 5796 C 534.05 1.19698 1.07523 0
M  V30 5797 O 535.242 1.45293 1.01088 0
M  V30 5798 C 532.371 2.98115 1.70242 0
M  V30 5799 C 531.457 4.07127 1.18779 0
M  V30 5800 N 531.848 5.04267 0.393465 0
M  V30 5801 C 530.146 4.21226 1.46576 0
M  V30 5802 C 530.847 5.81585 0.115572 0
M  V30 5803 N 529.823 5.39022 0.703987 0
M  V30 5804 H 533.625 2.93821 -0.0679751 0
M  V30 5805 H 531.139 1.61812 -0.138085 0
M  V30 5806 H 533.136 3.44818 2.34321 0
M  V30 5807 H 531.796 2.27181 2.31989 0
M  V30 5808 H 532.807 5.17888 0.0355757 0
M  V30 5809 H 529.484 3.61509 2.08848 0
M  V30 5810 H 530.874 6.6985 -0.524426 0
M  V30 5811 N 533.594 0.0601682 1.57485 0
M  V30 5812 C 534.504 -0.926121 2.15546 0
M  V30 5813 C 535.52 -1.33532 1.11558 0
M  V30 5814 O 536.696 -1.4104 1.4377 0
M  V30 5815 C 533.761 -2.17952 2.69625 0
M  V30 5816 C 532.822 -1.82783 3.88444 0
M  V30 5817 C 532.055 -3.02148 4.39935 0
M  V30 5818 O 532.278 -4.15803 3.90466 0
M  V30 5819 O 531.212 -2.82639 5.31412 0
M  V30 5820 H 535.038 -0.462289 3.00161 0
M  V30 5821 H 532.623 -0.162246 1.48516 0
M  V30 5822 H 534.505 -2.91474 3.04337 0
M  V30 5823 H 533.18 -2.63456 1.88077 0
M  V30 5824 H 532.087 -1.06549 3.58606 0
M  V30 5825 H 533.42 -1.42072 4.7125 0
M  V30 5826 N 535.072 -1.5615 -0.213296 0
M  V30 5827 C 536.318 -1.79812 -0.937849 0
M  V30 5828 C 536.651 -0.631201 -1.83656 0
M  V30 5829 O 535.926 0.369165 -1.90964 0
M  V30 5830 C 536.209 -3.13613 -1.76972 0
M  V30 5831 C 536.062 -4.40766 -0.89695 0
M  V30 5832 C 537.381 -3.43931 -2.7459 0
M  V30 5833 H 534.5 -0.654138 -0.339518 0
M  V30 5834 H 537.142 -1.88877 -0.20623 0
M  V30 5835 H 535.292 -3.06015 -2.39347 0
M  V30 5836 H 536.964 -4.60392 -0.289306 0
M  V30 5837 H 535.207 -4.33326 -0.202756 0
M  V30 5838 H 535.878 -5.30843 -1.51358 0
M  V30 5839 H 538.354 -3.5171 -2.22349 0
M  V30 5840 H 537.23 -4.38706 -3.29891 0
M  V30 5841 H 537.491 -2.6651 -3.52739 0
M  V30 5842 N 536.55 0.480323 -1.50102 0
M  V30 5843 C 537.796 1.23489 -1.60867 0
M  V30 5844 C 538.129 1.91809 -0.303827 0
M  V30 5845 O 537.404 1.81694 0.694092 0
M  V30 5846 C 537.687 2.28578 -2.78252 0
M  V30 5847 C 537.54 1.64624 -4.18592 0
M  V30 5848 C 538.859 3.2997 -2.91218 0
M  V30 5849 H 535.978 0.447605 -0.585507 0
M  V30 5850 H 538.62 0.530005 -1.82458 0
M  V30 5851 H 536.77 2.88697 -2.59974 0
M  V30 5852 H 538.442 1.08173 -4.48438 0
M  V30 5853 H 536.685 0.949645 -4.23278 0
M  V30 5854 H 537.356 2.40946 -4.96638 0
M  V30 5855 H 539.832 2.79864 -3.07921 0
M  V30 5856 H 538.708 4.00839 -3.74993 0
M  V30 5857 H 538.969 3.93541 -2.0144 0
M  V30 5858 N 538.028 1.39524 0.732853 0
M  V30 5859 C 539.275 1.36865 1.49246 0
M  V30 5860 C 539.603 -0.0347118 1.94469 0
M  V30 5861 O 538.858 -1.01596 1.67262 0
M  V30 5862 C 539.157 2.28916 2.74468 0
M  V30 5863 C 538.823 3.76506 2.481 0
M  V30 5864 C 537.485 4.16721 2.40619 0
M  V30 5865 C 539.837 4.69846 2.25598 0
M  V30 5866 C 537.165 5.48334 2.08679 0
M  V30 5867 C 539.517 6.01739 1.95174 0
M  V30 5868 C 538.181 6.41015 1.86163 0
M  V30 5869 H 537.451 0.500824 0.546129 0
M  V30 5870 H 540.098 1.72047 0.840958 0
M  V30 5871 H 538.403 1.86859 3.4437 0
M  V30 5872 H 540.1 2.2415 3.32502 0
M  V30 5873 H 536.69 3.44635 2.54803 0
M  V30 5874 H 540.874 4.39608 2.30344 0
M  V30 5875 H 536.13 5.77685 2.00226 0
M  V30 5876 H 540.304 6.73591 1.76771 0
M  V30 5877 H 537.931 7.42917 1.61179 0
M  V30 5878 N 539.506 -0.963266 1.24736 0
M  V30 5879 C 540.469 -2.04013 1.04457 0
M  V30 5880 C 541.469 -1.608 0.000335555 0
M  V30 5881 O 542.659 -1.72515 0.241719 0
M  V30 5882 C 539.791 -3.35858 0.584162 0
M  V30 5883 H 540.984 -2.23436 2.00041 0
M  V30 5884 H 538.537 -1.13914 1.07021 0
M  V30 5885 H 539.272 -3.22128 -0.374673 0
M  V30 5886 H 539.057 -3.68568 1.3379 0
M  V30 5887 H 540.547 -4.1502 0.463451 0
M  V30 5888 N 540.985 -1.06182 -1.16461 0
M  V30 5889 C 542.232 -0.777863 -1.86964 0
M  V30 5890 C 542.56 0.695602 -1.81636 0
M  V30 5891 O 541.815 1.52532 -1.22607 0
M  V30 5892 C 542.114 -1.21633 -3.36066 0
M  V30 5893 C 541.78 -2.69371 -3.61594 0
M  V30 5894 C 540.442 -3.09727 -3.6827 0
M  V30 5895 C 542.794 -3.64791 -3.7226 0
M  V30 5896 C 540.122 -4.44345 -3.83112 0
M  V30 5897 C 542.474 -4.99155 -3.88623 0
M  V30 5898 C 541.138 -5.39149 -3.93541 0
M  V30 5899 H 540.408 -0.28464 -0.68415 0
M  V30 5900 H 543.055 -1.33071 -1.37711 0
M  V30 5901 H 541.36 -0.582651 -3.87443 0
M  V30 5902 H 543.057 -0.973682 -3.88999 0
M  V30 5903 H 539.647 -2.37124 -3.57029 0
M  V30 5904 H 543.831 -3.34746 -3.66413 0
M  V30 5905 H 539.087 -4.74819 -3.85172 0
M  V30 5906 H 543.261 -5.72976 -3.95817 0
M  V30 5907 H 540.888 -6.43464 -4.04794 0
M  V30 5908 N 542.463 1.3308 -0.844243 0
M  V30 5909 C 543.709 1.97898 -0.443206 0
M  V30 5910 C 544.042 1.66699 0.99625 0
M  V30 5911 O 543.317 0.949704 1.69738 0
M  V30 5912 C 543.6 3.53801 -0.670606 0
M  V30 5913 C 543.453 3.94667 -2.15772 0
M  V30 5914 C 544.772 4.39936 -0.120226 0
M  V30 5915 H 541.891 0.718861 -0.162504 0
M  V30 5916 H 544.533 1.57633 -1.06075 0
M  V30 5917 H 542.683 3.88229 -0.14496 0
M  V30 5918 H 544.355 3.70469 -2.74865 0
M  V30 5919 H 542.598 3.44203 -2.6402 0
M  V30 5920 H 543.269 5.03275 -2.26757 0
M  V30 5921 H 545.745 4.12183 -0.5696 0
M  V30 5922 H 544.621 5.4803 -0.308984 0
M  V30 5923 H 544.882 4.31184 0.976347 0
M  V30 5924 N 543.941 0.601185 1.45683 0
M  V30 5925 C 545.169 0.100054 2.06658 0
M  V30 5926 C 545.584 -1.21285 1.44691 0
M  V30 5927 O 544.941 -1.73735 0.558772 0
M  V30 5928 C 544.992 -0.0528579 3.61461 0
M  V30 5929 O 544.713 1.20809 4.21114 0
M  V30 5930 C 546.214 -0.586193 4.39407 0
M  V30 5931 H 543.434 0.065905 0.667756 0
M  V30 5932 H 545.978 0.827101 1.87028 0
M  V30 5933 H 544.133 -0.730203 3.80456 0
M  V30 5934 H 544.547 1.03368 5.14213 0
M  V30 5935 H 546.021 -0.642297 5.4825 0
M  V30 5936 H 546.498 -1.60713 4.0874 0
M  V30 5937 H 547.104 0.0568935 4.25262 0
M  V30 5938 N 545.419 -1.53889 0.339982 0
M  V30 5939 C 546.696 -1.93084 -0.312719 0
M  V30 5940 C 547.076 -1.2712 -1.68534 0
M  V30 5941 O 546.424 -0.420835 -2.24591 0
M  V30 5942 C 546.634 -3.4683 -0.388558 0
M  V30 5943 C 547.982 -4.19732 -0.641088 0
M  V30 5944 O 549.006 -3.53075 -0.470818 0
M  V30 5945 O 547.865 -5.3781 -0.970685 0
M  V30 5946 H 544.959 -0.806784 -0.18174 0
M  V30 5947 H 547.505 -1.65137 0.390898 0
M  V30 5948 H 546.277 -3.87055 0.574821 0
M  V30 5949 H 545.9 -3.80933 -1.1391 0
M  V30 5950 N 546.897 -0.0685191 -1.57451 0
M  V30 5951 C 547.807 0.914677 -2.16034 0
M  V30 5952 C 548.823 1.32938 -1.12265 0
M  V30 5953 O 549.999 1.40275 -1.44516 0
M  V30 5954 C 547.064 2.16519 -2.70777 0
M  V30 5955 C 546.125 1.80721 -3.89408 0
M  V30 5956 C 545.358 2.9981 -4.41531 0
M  V30 5957 O 545.581 4.13727 -3.92666 0
M  V30 5958 O 544.515 2.79817 -5.32903 0
M  V30 5959 H 548.341 0.446364 -3.00402 0
M  V30 5960 H 545.926 0.154367 -1.486 0
M  V30 5961 H 547.808 2.89856 -3.05878 0
M  V30 5962 H 546.483 2.62454 -1.89471 0
M  V30 5963 H 545.39 1.04646 -3.59166 0
M  V30 5964 H 546.723 1.39571 -4.71997 0
M  V30 5965 N 548.375 1.56261 0.205012 0
M  V30 5966 C 549.325 1.90155 1.25798 0
M  V30 5967 C 550.309 0.766227 1.41484 0
M  V30 5968 O 551.501 1.02893 1.44021 0
M  V30 5969 C 548.63 2.23603 2.60493 0
M  V30 5970 C 547.716 3.43568 2.48639 0
M  V30 5971 N 548.107 4.61747 2.06455 0
M  V30 5972 C 546.405 3.4751 2.79558 0
M  V30 5973 C 547.106 5.43907 2.06253 0
M  V30 5974 N 546.082 4.84051 2.47377 0
M  V30 5975 H 549.884 2.79031 0.922986 0
M  V30 5976 H 547.398 1.57048 0.413501 0
M  V30 5977 H 549.395 2.46067 3.36537 0
M  V30 5978 H 548.055 1.36049 2.94823 0
M  V30 5979 H 549.066 4.86598 1.77321 0
M  V30 5980 H 545.743 2.70345 3.18151 0
M  V30 5981 H 547.133 6.48542 1.75622 0
M  V30 5982 N 549.853 -0.472356 1.50355 0
M  V30 5983 C 550.816 -1.5529 1.68576 0
M  V30 5984 C 551.816 -1.50863 0.556511 0
M  V30 5985 O 553.006 -1.53505 0.823516 0
M  V30 5986 C 550.138 -2.94921 1.70981 0
M  V30 5987 H 551.331 -1.40451 2.64978 0
M  V30 5988 H 548.884 -0.698645 1.39816 0
M  V30 5989 H 549.619 -3.15204 0.762675 0
M  V30 5990 H 549.404 -2.99541 2.53017 0
M  V30 5991 H 550.894 -3.73372 1.87037 0
M  V30 5992 N 551.331 -1.39911 -0.725443 0
M  V30 5993 C 552.263 -1.35301 -1.85003 0
M  V30 5994 C 553.276 -0.260102 -1.60709 0
M  V30 5995 O 554.465 -0.519749 -1.70766 0
M  V30 5996 C 551.565 -1.08039 -3.21218 0
M  V30 5997 C 550.738 -2.28793 -3.7279 0
M  V30 5998 C 549.797 -1.97841 -4.87591 0
M  V30 5999 O 548.823 -2.70616 -5.00755 0
M  V30 6000 N 550.025 -0.950367 -5.72668 0
M  V30 6001 H 552.79 -2.32218 -1.89459 0
M  V30 6002 H 550.351 -1.34137 -0.90658 0
M  V30 6003 H 552.343 -0.853354 -3.95601 0
M  V30 6004 H 550.913 -0.198229 -3.11971 0
M  V30 6005 H 550.133 -2.67388 -2.8965 0
M  V30 6006 H 551.421 -3.09317 -4.03981 0
M  V30 6007 H 550.819 -0.347436 -5.64632 0
M  V30 6008 H 549.376 -0.783232 -6.47077 0
M  V30 6009 N 552.809 0.956637 -1.25245 0
M  V30 6010 C 554.057 1.69764 -1.09657 0
M  V30 6011 C 554.378 1.91583 0.363464 0
M  V30 6012 O 553.648 1.50149 1.25825 0
M  V30 6013 H 552.228 0.629097 -0.402798 0
M  V30 6014 H 554.89 1.15026 -1.57337 0
M  V30 6015 H 553.986 2.67769 -1.60331 0
M  V30 6016 N 554.287 1.06798 1.15896 0
M  V30 6017 C 555.515 0.808694 1.90441 0
M  V30 6018 C 555.93 -0.637506 1.77711 0
M  V30 6019 O 555.287 -1.43684 1.12522 0
M  V30 6020 C 555.338 1.20068 3.40978 0
M  V30 6021 O 555.059 2.59013 3.53333 0
M  V30 6022 C 556.56 0.96987 4.3256 0
M  V30 6023 H 553.78 0.292809 0.603742 0
M  V30 6024 H 556.324 1.42296 1.46874 0
M  V30 6025 H 554.479 0.630842 3.82229 0
M  V30 6026 H 554.893 2.7485 4.46719 0
M  V30 6027 H 556.367 1.29371 5.36626 0
M  V30 6028 H 556.844 -0.0941209 4.39099 0
M  V30 6029 H 557.45 1.52433 3.97044 0
M  V30 6030 N 555.766 -1.3263 0.851289 0
M  V30 6031 C 556.696 -2.31449 0.308771 0
M  V30 6032 C 557.677 -1.59531 -0.590255 0
M  V30 6033 O 558.862 -1.87351 -0.511205 0
M  V30 6034 C 555.992 -3.43586 -0.506548 0
M  V30 6035 C 554.946 -4.26963 0.297753 0
M  V30 6036 C 554.272 -5.30831 -0.642094 0
M  V30 6037 C 555.572 -4.99643 1.52166 0
M  V30 6038 H 557.266 -2.77074 1.13447 0
M  V30 6039 H 554.812 -1.33207 0.546971 0
M  V30 6040 H 556.765 -4.11754 -0.896474 0
M  V30 6041 H 555.489 -2.96681 -1.36558 0
M  V30 6042 H 554.148 -3.60437 0.669391 0
M  V30 6043 H 553.796 -4.8018 -1.49788 0
M  V30 6044 H 553.496 -5.87501 -0.107968 0
M  V30 6045 H 555.02 -6.01862 -1.02927 0
M  V30 6046 H 556.434 -5.6051 1.20421 0
M  V30 6047 H 554.831 -5.66022 1.99347 0
M  V30 6048 H 555.901 -4.27701 2.28474 0
M  V30 6049 N 557.244 -0.608902 -1.45362 0
M  V30 6050 C 558.66 -0.272659 -1.57254 0
M  V30 6051 C 558.86 1.22477 -1.60005 0
M  V30 6052 O 557.916 2.00785 -1.53106 0
M  V30 6053 C 559.229 -0.944991 -2.85465 0
M  V30 6054 C 560.777 -0.921033 -2.99142 0
M  V30 6055 C 561.252 -1.5734 -4.30126 0
M  V30 6056 N 562.743 -1.53895 -4.36887 0
M  V30 6057 C 563.478 -2.01286 -5.36909 0
M  V30 6058 N 562.974 -2.56768 -6.43461 0
M  V30 6059 N 564.767 -1.92046 -5.28275 0
M  V30 6060 H 556.918 -1.58117 -1.4182 0
M  V30 6061 H 559.181 -0.662437 -0.678146 0
M  V30 6062 H 558.887 -1.99941 -2.89338 0
M  V30 6063 H 558.761 -0.469079 -3.74272 0
M  V30 6064 H 561.148 0.124846 -2.94836 0
M  V30 6065 H 561.229 -1.43522 -2.11743 0
M  V30 6066 H 560.873 -2.61862 -4.35191 0
M  V30 6067 H 560.803 -1.03422 -5.16344 0
M  V30 6068 H 563.294 -1.13366 -3.60495 0
M  V30 6069 H 563.607 -2.9072 -7.16032 0
M  V30 6070 H 561.952 -2.60808 -6.44208 0
M  V30 6071 H 565.143 -1.48439 -4.43941 0
M  V30 6072 H 565.316 -2.29293 -6.06077 0
M  V30 6073 N 558.722 1.53707 -0.348139 0
M  V30 6074 C 559.947 2.05877 0.250883 0
M  V30 6075 C 560.372 1.22115 1.43072 0
M  V30 6076 O 559.73 0.235986 1.79758 0
M  V30 6077 C 559.778 3.54886 0.639416 0
M  V30 6078 O 558.882 3.73948 1.73888 0
M  V30 6079 H 558.223 0.662754 0.040653 0
M  V30 6080 H 560.753 1.98303 -0.503685 0
M  V30 6081 H 560.763 3.97601 0.915295 0
M  V30 6082 H 559.438 4.153 -0.223386 0
M  V30 6083 H 558.015 3.43134 1.45991 0
M  V30 6084 N 560.2 0.0768682 1.57412 0
M  V30 6085 C 561.163 -0.873949 2.11884 0
M  V30 6086 C 562.163 -1.22301 1.04398 0
M  V30 6087 O 563.353 -1.15545 1.30365 0
M  V30 6088 C 560.485 -2.17575 2.62438 0
M  V30 6089 H 561.678 -0.401278 2.97203 0
M  V30 6090 H 559.231 -0.171904 1.55352 0
M  V30 6091 H 559.966 -2.69368 1.80587 0
M  V30 6092 H 559.751 -1.93534 3.41009 0
M  V30 6093 H 561.241 -2.85631 3.04639 0
M  V30 6094 N 561.678 -1.56367 -0.196722 0
M  V30 6095 C 562.625 -1.94417 -1.24382 0
M  V30 6096 C 563.595 -0.804543 -1.45315 0
M  V30 6097 O 564.78 -1.06256 -1.58475 0
M  V30 6098 C 561.92 -2.28757 -2.58388 0
M  V30 6099 C 561.033 -3.55775 -2.45047 0
M  V30 6100 C 560.168 -3.79445 -3.71746 0
M  V30 6101 C 559.207 -4.99894 -3.53231 0
M  V30 6102 N 558.344 -5.19826 -4.71938 0
M  V30 6103 H 563.184 -2.83691 -0.912338 0
M  V30 6104 H 560.721 -1.40392 -0.439135 0
M  V30 6105 H 562.679 -2.46682 -3.36457 0
M  V30 6106 H 561.309 -1.42625 -2.89582 0
M  V30 6107 H 560.361 -3.45905 -1.58284 0
M  V30 6108 H 561.673 -4.44 -2.27299 0
M  V30 6109 H 560.827 -3.97601 -4.58256 0
M  V30 6110 H 559.566 -2.89546 -3.92446 0
M  V30 6111 H 558.571 -4.81662 -2.65107 0
M  V30 6112 H 559.796 -5.913 -3.33978 0
M  V30 6113 H 557.742 -4.32875 -4.92905 0
M  V30 6114 H 557.659 -6.02228 -4.57009 0
M  V30 6115 H 558.927 -5.42439 -5.59803 0
M  V30 6116 N 563.156 0.464375 -1.50603 0
M  V30 6117 C 564.086 1.56944 -1.72889 0
M  V30 6118 C 565.067 1.59979 -0.577997 0
M  V30 6119 O 566.252 1.76138 -0.817855 0
M  V30 6120 C 563.382 2.95225 -1.8292 0
M  V30 6121 C 562.336 3.07056 -2.98162 0
M  V30 6122 C 561.662 4.47051 -2.93343 0
M  V30 6123 C 562.962 2.83648 -4.38567 0
M  V30 6124 H 564.656 1.38547 -2.65415 0
M  V30 6125 H 562.202 0.665082 -1.27721 0
M  V30 6126 H 564.155 3.72467 -1.97095 0
M  V30 6127 H 562.879 3.14793 -0.870209 0
M  V30 6128 H 561.538 2.32248 -2.83648 0
M  V30 6129 H 561.186 4.63547 -1.95276 0
M  V30 6130 H 560.886 4.55902 -3.70712 0
M  V30 6131 H 562.41 5.26304 -3.09575 0
M  V30 6132 H 563.824 3.50636 -4.53572 0
M  V30 6133 H 562.221 3.03937 -5.17438 0
M  V30 6134 H 563.291 1.79451 -4.50472 0
M  V30 6135 N 564.634 1.40294 0.718013 0
M  V30 6136 C 565.881 1.3844 1.47786 0
M  V30 6137 C 566.209 -0.0140838 1.94495 0
M  V30 6138 O 565.464 -0.998165 1.68331 0
M  V30 6139 C 565.763 2.31814 2.72024 0
M  V30 6140 C 565.429 3.79117 2.44093 0
M  V30 6141 C 564.091 4.19249 2.36185 0
M  V30 6142 C 566.443 4.72212 2.20602 0
M  V30 6143 C 563.771 5.50516 2.02851 0
M  V30 6144 C 566.123 6.03775 1.88781 0
M  V30 6145 C 564.787 6.42953 1.79354 0
M  V30 6146 H 564.057 0.506588 0.540786 0
M  V30 6147 H 566.704 1.72929 0.822663 0
M  V30 6148 H 565.009 1.90501 3.42369 0
M  V30 6149 H 566.706 2.27664 3.30106 0
M  V30 6150 H 563.296 3.47318 2.51133 0
M  V30 6151 H 567.48 4.42026 2.25669 0
M  V30 6152 H 562.736 5.79776 1.94088 0
M  V30 6153 H 566.91 6.75428 1.69617 0
M  V30 6154 H 564.537 7.44584 1.53291 0
M  V30 6155 N 566.112 -0.949982 1.2575 0
M  V30 6156 C 567.359 -1.69515 1.10774 0
M  V30 6157 C 567.687 -1.91316 -0.350479 0
M  V30 6158 O 566.942 -1.48515 -1.27443 0
M  V30 6159 C 567.241 -3.08039 1.81237 0
M  V30 6160 C 566.907 -3.06023 3.31151 0
M  V30 6161 C 565.569 -3.0518 3.72047 0
M  V30 6162 C 567.921 -2.98998 4.26907 0
M  V30 6163 C 565.249 -2.95067 5.07102 0
M  V30 6164 C 567.601 -2.90426 5.61992 0
M  V30 6165 C 566.265 -2.87922 6.0221 0
M  V30 6166 H 565.535 -0.6203 0.405351 0
M  V30 6167 H 568.182 -1.10953 1.56082 0
M  V30 6168 H 566.487 -3.70172 1.28373 0
M  V30 6169 H 568.184 -3.64526 1.67098 0
M  V30 6170 H 564.774 -3.07453 2.98614 0
M  V30 6171 H 568.958 -2.98764 3.963 0
M  V30 6172 H 564.214 -2.915 5.37436 0
M  V30 6173 H 568.388 -2.83952 6.35881 0
M  V30 6174 H 566.015 -2.79841 7.06819 0
M  V30 6175 N 567.59 -1.07411 -1.15328 0
M  V30 6176 C 568.867 -0.710732 -1.82231 0
M  V30 6177 C 569.247 0.806732 -1.95077 0
M  V30 6178 O 568.595 1.72139 -1.50268 0
M  V30 6179 C 568.805 -1.42586 -3.18544 0
M  V30 6180 C 570.153 -1.57836 -3.94174 0
M  V30 6181 O 571.177 -1.38669 -3.281 0
M  V30 6182 O 570.036 -1.8938 -5.12638 0
M  V30 6183 H 567.13 -0.25297 -0.78736 0
M  V30 6184 H 569.676 -1.17508 -1.22434 0
M  V30 6185 H 568.448 -2.46008 -3.04296 0
M  V30 6186 H 568.071 -0.952332 -3.86026 0
M  V30 6187 N 569.068 1.32177 -0.85831 0
M  V30 6188 C 569.998 2.31282 -0.321041 0
M  V30 6189 C 570.979 1.59841 0.581786 0
M  V30 6190 O 572.164 1.87619 0.501262 0
M  V30 6191 C 569.294 3.4385 0.48832 0
M  V30 6192 C 568.248 4.26799 -0.320391 0
M  V30 6193 C 567.574 5.31164 0.613934 0
M  V30 6194 C 568.874 4.98829 -1.54813 0
M  V30 6195 H 570.568 2.76469 -1.14915 0
M  V30 6196 H 568.114 1.32916 -0.554028 0
M  V30 6197 H 570.067 4.12224 0.874626 0
M  V30 6198 H 568.791 2.97401 1.34983 0
M  V30 6199 H 567.45 3.60077 -0.688497 0
M  V30 6200 H 567.098 4.80967 1.47239 0
M  V30 6201 H 566.798 5.8755 0.0768097 0
M  V30 6202 H 568.322 6.024 0.997336 0
M  V30 6203 H 569.736 5.59864 -1.23392 0
M  V30 6204 H 568.133 5.64957 -2.02346 0
M  V30 6205 H 569.203 4.26483 -2.30739 0
M  V30 6206 N 570.547 0.616602 1.45037 0
M  V30 6207 C 571.794 0.115331 2.02171 0
M  V30 6208 C 572.122 -1.25748 1.48383 0
M  V30 6209 O 571.377 -1.84511 0.652229 0
M  V30 6210 C 571.676 0.0356829 3.57382 0
M  V30 6211 C 571.342 1.34535 4.30362 0
M  V30 6212 C 570.004 1.70408 4.50016 0
M  V30 6213 C 572.356 2.21049 4.72003 0
M  V30 6214 C 569.684 2.92529 5.0857 0
M  V30 6215 C 572.036 3.42427 5.31908 0
M  V30 6216 C 570.7 3.78541 5.49784 0
M  V30 6217 H 569.97 0.0422024 0.739797 0
M  V30 6218 H 572.617 0.80002 1.73988 0
M  V30 6219 H 570.922 -0.732314 3.84895 0
M  V30 6220 H 572.619 -0.368463 3.99304 0
M  V30 6221 H 569.209 1.05615 4.15383 0
M  V30 6222 H 573.393 1.94632 4.56544 0
M  V30 6223 H 568.649 3.20605 5.20598 0
M  V30 6224 H 572.823 4.09709 5.63127 0
M  V30 6225 H 570.45 4.73255 5.94923 0
M  V30 6226 N 572.025 -1.5352 0.356285 0
M  V30 6227 C 572.955 -2.28372 -0.486661 0
M  V30 6228 C 573.936 -1.30432 -1.09185 0
M  V30 6229 O 575.121 -1.59291 -1.11085 0
M  V30 6230 C 572.251 -3.06604 -1.63129 0
M  V30 6231 C 571.205 -4.12154 -1.15381 0
M  V30 6232 C 570.531 -4.78415 -2.38796 0
M  V30 6233 C 571.831 -5.21724 -0.245179 0
M  V30 6234 H 573.525 -2.99083 0.137797 0
M  V30 6235 H 571.071 -1.43841 0.0677134 0
M  V30 6236 H 573.024 -3.57712 -2.22755 0
M  V30 6237 H 571.748 -2.33568 -2.28284 0
M  V30 6238 H 570.407 -3.61978 -0.580294 0
M  V30 6239 H 570.055 -4.01959 -3.02387 0
M  V30 6240 H 569.755 -5.49734 -2.07524 0
M  V30 6241 H 571.279 -5.32313 -2.99125 0
M  V30 6242 H 572.693 -5.68391 -0.748646 0
M  V30 6243 H 571.09 -6.00095 -0.0237608 0
M  V30 6244 H 572.16 -4.79596 0.715229 0
M  V30 6245 N 573.503 -0.0852151 -1.57369 0
M  V30 6246 C 574.728 0.592872 -1.98746 0
M  V30 6247 C 575.153 1.61538 -0.963689 0
M  V30 6248 O 574.511 1.81168 0.069071 0
M  V30 6249 C 574.559 1.22599 -3.39119 0
M  V30 6250 O 573.663 2.34185 -3.39457 0
M  V30 6251 H 573.004 0.151314 -0.646529 0
M  V30 6252 H 575.534 -0.163703 -2.03944 0
M  V30 6253 H 575.544 1.56965 -3.76598 0
M  V30 6254 H 574.219 0.476831 -4.13158 0
M  V30 6255 H 572.796 2.01512 -3.13763 0
M  V30 6256 N 574.981 1.5647 0.188427 0
M  V30 6257 C 576.206 1.85486 0.927891 0
M  V30 6258 C 576.631 0.669575 1.75779 0
M  V30 6259 O 575.989 -0.381573 1.77239 0
M  V30 6260 C 576.037 3.12784 1.7944 0
M  V30 6261 O 575.141 2.93805 2.894 0
M  V30 6262 H 574.482 0.610585 0.260925 0
M  V30 6263 H 577.012 2.037 0.191729 0
M  V30 6264 H 577.022 3.43749 2.19774 0
M  V30 6265 H 575.697 3.98671 1.18468 0
M  V30 6266 H 574.274 2.74153 2.52774 0
M  V30 6267 N 576.459 -0.456382 1.50847 0
M  V30 6268 C 577.706 -1.20736 1.62571 0
M  V30 6269 C 578.034 -1.9163 0.332904 0
M  V30 6270 O 577.289 -1.8343 -0.682058 0
M  V30 6271 C 577.588 -2.26336 2.76599 0
M  V30 6272 C 577.254 -1.7259 4.16562 0
M  V30 6273 C 575.916 -1.57654 4.54641 0
M  V30 6274 C 578.268 -1.32877 5.03977 0
M  V30 6275 C 575.596 -1.0145 5.77862 0
M  V30 6276 C 577.948 -0.7811 6.27759 0
M  V30 6277 C 576.612 -0.618488 6.64628 0
M  V30 6278 H 575.882 -0.441803 0.594888 0
M  V30 6279 H 578.529 -0.501169 1.84826 0
M  V30 6280 H 576.834 -3.0292 2.48489 0
M  V30 6281 H 578.531 -2.84227 2.82871 0
M  V30 6282 H 575.121 -1.85187 3.86528 0
M  V30 6283 H 579.305 -1.43245 4.75179 0
M  V30 6284 H 574.561 -0.876109 6.0509 0
M  V30 6285 H 578.735 -0.464783 6.94847 0
M  V30 6286 H 576.362 -0.180838 7.59985 0
M  V30 6287 N 577.937 -1.40673 -0.710563 0
M  V30 6288 C 578.869 -1.37256 -1.83558 0
M  V30 6289 C 579.882 -0.277133 -1.60424 0
M  V30 6290 O 581.071 -0.537831 -1.70205 0
M  V30 6291 C 578.171 -1.1144 -3.20054 0
M  V30 6292 C 577.344 -2.32734 -3.70342 0
M  V30 6293 C 576.403 -2.03002 -4.85465 0
M  V30 6294 O 575.429 -2.75912 -4.97857 0
M  V30 6295 N 576.631 -1.01105 -5.71627 0
M  V30 6296 H 579.396 -2.34215 -1.86985 0
M  V30 6297 H 576.957 -1.35091 -0.892301 0
M  V30 6298 H 578.949 -0.895265 -3.94673 0
M  V30 6299 H 577.519 -0.231307 -3.11743 0
M  V30 6300 H 576.739 -2.70446 -2.86798 0
M  V30 6301 H 578.027 -3.13584 -4.00678 0
M  V30 6302 H 577.425 -0.407303 -5.64232 0
M  V30 6303 H 575.982 -0.85182 -6.4621 0
M  V30 6304 N 579.415 0.9433 -1.26252 0
M  V30 6305 C 580.663 1.68592 -1.11451 0
M  V30 6306 C 580.984 1.91957 0.343123 0
M  V30 6307 O 580.254 1.51475 1.24226 0
M  V30 6308 H 578.834 0.624789 -0.409448 0
M  V30 6309 H 581.496 1.13351 -1.58548 0
M  V30 6310 H 580.592 2.66054 -1.63162 0
M  V30 6311 N 580.893 1.08022 1.14757 0
M  V30 6312 C 581.823 0.728248 2.21853 0
M  V30 6313 C 582.804 -0.287486 1.67653 0
M  V30 6314 O 583.989 -0.158727 1.9355 0
M  V30 6315 C 581.119 0.132549 3.47047 0
M  V30 6316 C 580.073 1.07619 4.14249 0
M  V30 6317 C 579.399 0.342907 5.33599 0
M  V30 6318 C 580.699 2.41268 4.63235 0
M  V30 6319 H 582.393 1.62365 2.51551 0
M  V30 6320 H 579.939 0.782125 1.20908 0
M  V30 6321 H 581.892 -0.125665 4.21213 0
M  V30 6322 H 580.616 -0.797971 3.16702 0
M  V30 6323 H 579.275 1.31944 3.42033 0
M  V30 6324 H 578.923 -0.59129 4.99513 0
M  V30 6325 H 578.623 0.971955 5.79506 0
M  V30 6326 H 580.147 0.0926538 6.1053 0
M  V30 6327 H 581.561 2.21232 5.28894 0
M  V30 6328 H 579.958 2.9983 5.19829 0
M  V30 6329 H 581.028 3.03079 3.78512 0
M  V30 6330 N 582.371 -1.3172 0.865308 0
M  V30 6331 C 583.301 -2.31109 0.333302 0
M  V30 6332 C 584.282 -1.60148 -0.573301 0
M  V30 6333 O 585.467 -1.87882 -0.491305 0
M  V30 6334 C 582.597 -3.44104 -0.470078 0
M  V30 6335 C 581.551 -4.26623 0.343021 0
M  V30 6336 C 580.877 -5.31482 -0.585756 0
M  V30 6337 C 582.177 -4.98001 1.57456 0
M  V30 6338 H 583.871 -2.75855 1.1638 0
M  V30 6339 H 581.417 -1.3262 0.561069 0
M  V30 6340 H 583.37 -4.12682 -0.852752 0
M  V30 6341 H 582.094 -2.98112 -1.33404 0
M  V30 6342 H 580.753 -3.59707 0.707583 0
M  V30 6343 H 580.401 -4.81741 -1.44686 0
M  V30 6344 H 580.101 -5.87582 -0.0456494 0
M  V30 6345 H 581.625 -6.0292 -0.965375 0
M  V30 6346 H 583.039 -5.59201 1.26359 0
M  V30 6347 H 581.436 -5.63876 2.05339 0
M  V30 6348 H 582.506 -4.25253 2.32997 0
M  V30 6349 N 583.85 -0.624285 -1.44708 0
M  V30 6350 C 585.096 -0.126237 -2.02407 0
M  V30 6351 C 585.428 1.24618 -1.48943 0
M  V30 6352 O 584.704 1.82569 -0.670742 0
M  V30 6353 C 584.986 -0.105449 -3.59946 0
M  V30 6354 C 584.84 -1.50972 -4.23707 0
M  V30 6355 C 586.159 0.573629 -4.36346 0
M  V30 6356 H 583.278 -0.0473472 -0.735478 0
M  V30 6357 H 585.92 -0.799452 -1.72362 0
M  V30 6358 H 584.07 0.46783 -3.85673 0
M  V30 6359 H 585.742 -2.13136 -4.0911 0
M  V30 6360 H 583.985 -2.0656 -3.81465 0
M  V30 6361 H 584.656 -1.44727 -5.32689 0
M  V30 6362 H 587.132 0.0861787 -4.16011 0
M  V30 6363 H 586.008 0.557338 -5.46063 0
M  V30 6364 H 586.269 1.64276 -4.10446 0
M  V30 6365 N 585.328 1.53329 -0.364422 0
M  V30 6366 C 586.291 2.24323 0.470292 0
M  V30 6367 C 587.291 1.25068 1.01067 0
M  V30 6368 O 588.481 1.49354 0.896605 0
M  V30 6369 C 585.613 2.97908 1.65722 0
M  V30 6370 H 586.806 2.9952 -0.150917 0
M  V30 6371 H 584.359 1.55868 -0.116092 0
M  V30 6372 H 585.094 2.2695 2.31655 0
M  V30 6373 H 584.879 3.70732 1.27671 0
M  V30 6374 H 586.369 3.5188 2.24878 0
M  V30 6375 N 586.806 0.0935595 1.57322 0
M  V30 6376 C 588.052 -0.571355 1.94585 0
M  V30 6377 C 588.385 -1.67929 0.975366 0
M  V30 6378 O 587.66 -1.94498 0.00816206 0
M  V30 6379 C 587.943 -1.12797 3.41978 0
M  V30 6380 C 587.796 -0.0251881 4.49793 0
M  V30 6381 C 589.115 -2.02682 3.90651 0
M  V30 6382 H 586.234 -0.206223 0.70756 0
M  V30 6383 H 588.876 0.163956 1.89291 0
M  V30 6384 H 587.026 -1.75461 3.4662 0
M  V30 6385 H 588.698 0.608979 4.57263 0
M  V30 6386 H 586.941 0.641399 4.29032 0
M  V30 6387 H 587.612 -0.455433 5.50118 0
M  V30 6388 H 590.088 -1.49925 3.88152 0
M  V30 6389 H 588.964 -2.38555 4.94351 0
M  V30 6390 H 589.225 -2.94362 3.29854 0
M  V30 6391 N 588.284 -1.56567 -0.180126 0
M  V30 6392 C 589.214 -1.98753 -1.22553 0
M  V30 6393 C 590.195 -0.86175 -1.46656 0
M  V30 6394 O 591.38 -1.12719 -1.58139 0
M  V30 6395 C 588.51 -2.33988 -2.56645 0
M  V30 6396 C 587.464 -3.49445 -2.47128 0
M  V30 6397 C 586.79 -3.70397 -3.8563 0
M  V30 6398 C 588.09 -4.83171 -1.98352 0
M  V30 6399 H 589.784 -2.86332 -0.874896 0
M  V30 6400 H 587.33 -1.37757 -0.419414 0
M  V30 6401 H 589.283 -2.62097 -3.29974 0
M  V30 6402 H 588.007 -1.43309 -2.93479 0
M  V30 6403 H 586.666 -3.2145 -1.76254 0
M  V30 6404 H 586.314 -2.77023 -4.19842 0
M  V30 6405 H 586.014 -4.48077 -3.80132 0
M  V30 6406 H 587.538 -4.00897 -4.60558 0
M  V30 6407 H 588.952 -5.10213 -2.61449 0
M  V30 6408 H 587.349 -5.64425 -2.03823 0
M  V30 6409 H 588.419 -4.75753 -0.937402 0
M  V30 6410 N 589.762 0.448376 -1.51087 0
M  V30 6411 C 590.992 1.21965 -1.66757 0
M  V30 6412 C 591.4 1.85748 -0.359753 0
M  V30 6413 O 590.743 1.71022 0.670604 0
M  V30 6414 C 590.805 2.35284 -2.71812 0
M  V30 6415 C 590.469 1.91957 -4.1473 0
M  V30 6416 C 591.466 1.42921 -4.9987 0
M  V30 6417 C 589.151 1.99985 -4.60772 0
M  V30 6418 C 591.145 1.02485 -6.29107 0
M  V30 6419 C 588.832 1.5916 -5.90009 0
M  V30 6420 C 589.83 1.10491 -6.74004 0
M  V30 6421 O 589.518 0.702413 -8.00825 0
M  V30 6422 H 589.25 0.374125 -0.563034 0
M  V30 6423 H 591.804 0.538927 -1.98204 0
M  V30 6424 H 590.034 3.06599 -2.35657 0
M  V30 6425 H 591.723 2.97184 -2.76472 0
M  V30 6426 H 592.489 1.36123 -4.65506 0
M  V30 6427 H 588.368 2.36814 -3.95525 0
M  V30 6428 H 591.912 0.644271 -6.94619 0
M  V30 6429 H 587.809 1.65626 -6.2389 0
M  V30 6430 H 588.577 0.829248 -8.14288 0
M  V30 6431 N 591.24 1.41047 0.703093 0
M  V30 6432 C 592.48 1.41461 1.4754 0
M  V30 6433 C 592.844 0.0199013 1.9199 0
M  V30 6434 O 594.045 -0.101138 2.6861 0
M  V30 6435 C 592.316 2.38703 2.66 0
M  V30 6436 S 593.875 2.57582 3.55242 0
M  V30 6437 H 590.693 0.501226 0.504275 0
M  V30 6438 H 593.295 1.77422 0.821074 0
M  V30 6439 H 591.999 3.3885 2.31536 0
M  V30 6440 H 591.53 2.04069 3.36333 0
M  V30 6441 H 593.545 1.83758 4.6092 0
M  V30 6442 N 592.718 -0.936591 1.26751 0
M  V30 6443 C 593.965 -1.68331 1.12566 0
M  V30 6444 C 594.293 -1.91677 -0.330168 0
M  V30 6445 O 593.548 -1.49859 -1.2586 0
M  V30 6446 C 593.847 -3.06099 1.84494 0
M  V30 6447 C 593.513 -3.02493 3.34378 0
M  V30 6448 C 592.175 -3.01217 3.75262 0
M  V30 6449 C 594.527 -2.94453 4.30055 0
M  V30 6450 C 591.855 -2.89672 5.10203 0
M  V30 6451 C 594.207 -2.84449 5.65041 0
M  V30 6452 C 592.871 -2.81518 6.0523 0
M  V30 6453 H 592.141 -0.615965 0.411907 0
M  V30 6454 H 594.788 -1.09292 1.5725 0
M  V30 6455 H 593.093 -3.6879 1.32292 0
M  V30 6456 H 594.79 -3.62733 1.70955 0
M  V30 6457 H 591.38 -3.04269 3.01858 0
M  V30 6458 H 595.564 -2.94544 3.99447 0
M  V30 6459 H 590.82 -2.85783 5.40498 0
M  V30 6460 H 594.994 -2.77192 6.38856 0
M  V30 6461 H 592.621 -2.72329 7.09747 0
M  V30 6462 N 594.196 -1.08629 -1.14182 0
M  V30 6463 C 595.126 -0.740003 -2.21464 0
M  V30 6464 C 596.107 0.278591 -1.67803 0
M  V30 6465 O 597.292 0.148461 -1.93632 0
M  V30 6466 C 594.422 -0.150952 -3.46972 0
M  V30 6467 C 593.376 -1.09815 -4.13672 0
M  V30 6468 C 592.702 -0.3712 -5.3341 0
M  V30 6469 C 594.002 -2.43722 -4.61949 0
M  V30 6470 H 595.696 -1.63697 -2.50686 0
M  V30 6471 H 593.242 -0.788526 -1.20492 0
M  V30 6472 H 595.195 0.103325 -4.21273 0
M  V30 6473 H 593.919 0.781164 -3.1712 0
M  V30 6474 H 592.578 -1.33756 -3.41328 0
M  V30 6475 H 592.226 0.564792 -4.99819 0
M  V30 6476 H 591.926 -1.00267 -5.78982 0
M  V30 6477 H 593.45 -0.12503 -6.10472 0
M  V30 6478 H 594.864 -2.24034 -5.27714 0
M  V30 6479 H 593.261 -3.02582 -5.18232 0
M  V30 6480 H 594.331 -3.05082 -3.76899 0
M  V30 6481 N 595.674 1.31259 -0.872281 0
M  V30 6482 C 596.622 2.30404 -0.318897 0
M  V30 6483 C 597.616 1.5962 0.567267 0
M  V30 6484 O 598.822 1.74204 0.453111 0
M  V30 6485 H 595.197 0.747243 -0.0844474 0
M  V30 6486 H 597.168 2.74549 -1.16899 0
M  V30 6487 C 595.917 3.44608 0.462683 0
M  V30 6488 H 595.24 3.99248 -0.209936 0
M  V30 6489 H 596.68 4.1609 0.815187 0
M  V30 6490 C 595.139 2.93456 1.65485 0
M  V30 6491 O 595.669 2.92418 2.75417 0
M  V30 6492 N 593.875 2.49628 1.48776 0
M  V30 6493 H 593.422 2.50671 0.593452 0
M  V30 6494 H 593.38 2.15759 2.28682 0
M  V30 6495 N 597.152 0.631951 1.44375 0
M  V30 6496 C 598.099 -0.0724807 2.30686 0
M  V30 6497 C 599.069 -0.835975 1.43529 0
M  V30 6498 O 600.254 -0.816849 1.7243 0
M  V30 6499 C 597.394 -1.04753 3.28817 0
M  V30 6500 C 596.507 -0.282367 4.31076 0
M  V30 6501 C 595.642 -1.2493 5.163 0
M  V30 6502 C 594.681 -0.473349 6.10267 0
M  V30 6503 N 593.818 -1.39079 6.88187 0
M  V30 6504 H 598.658 0.669477 2.90383 0
M  V30 6505 H 596.195 0.341927 1.43071 0
M  V30 6506 H 598.153 -1.62623 3.842 0
M  V30 6507 H 596.783 -1.75661 2.70819 0
M  V30 6508 H 595.835 0.412268 3.78159 0
M  V30 6509 H 597.147 0.321955 4.9776 0
M  V30 6510 H 596.301 -1.89931 5.76204 0
M  V30 6511 H 595.04 -1.88755 4.49692 0
M  V30 6512 H 594.045 0.190142 5.49471 0
M  V30 6513 H 595.27 0.16019 6.78911 0
M  V30 6514 H 593.216 -2.01623 6.24247 0
M  V30 6515 H 593.133 -0.840513 7.51313 0
M  V30 6516 H 594.401 -2.02961 7.52613 0
M  V30 6517 N 598.631 -1.53133 0.372548 0
M  V30 6518 C 599.541 -2.29671 -0.478379 0
M  V30 6519 C 600.557 -1.35913 -1.08644 0
M  V30 6520 O 601.733 -1.68975 -1.09588 0
M  V30 6521 C 598.798 -3.07625 -1.599 0
M  V30 6522 C 597.859 -4.17061 -1.01776 0
M  V30 6523 C 597.092 -4.91289 -2.08497 0
M  V30 6524 O 597.315 -4.65442 -3.29727 0
M  V30 6525 O 596.249 -5.7705 -1.71164 0
M  V30 6526 H 600.075 -3.03355 0.144649 0
M  V30 6527 H 597.66 -1.48773 0.136729 0
M  V30 6528 H 599.542 -3.56281 -2.25038 0
M  V30 6529 H 598.217 -2.3677 -2.2073 0
M  V30 6530 H 597.124 -3.72641 -0.330098 0
M  V30 6531 H 598.457 -4.90102 -0.453915 0
M  V30 6532 N 600.109 -0.101901 -1.5727 0
M  V30 6533 C 601.355 0.561027 -1.94885 0
M  V30 6534 C 601.688 1.6741 -0.984258 0
M  V30 6535 O 600.963 1.94491 -0.0184767 0
M  V30 6536 C 601.246 1.10982 -3.42571 0
M  V30 6537 C 601.099 0.00133418 -4.498 0
M  V30 6538 C 602.418 2.00608 -3.9172 0
M  V30 6539 H 599.537 0.202467 -0.708644 0
M  V30 6540 H 602.179 -0.173992 -1.89202 0
M  V30 6541 H 600.329 1.73621 -3.47546 0
M  V30 6542 H 602.001 -0.63322 -4.56933 0
M  V30 6543 H 600.244 -0.664143 -4.28686 0
M  V30 6544 H 600.915 0.426253 -5.50352 0
M  V30 6545 H 603.391 1.47864 -3.88941 0
M  V30 6546 H 602.267 2.3593 -4.95609 0
M  V30 6547 H 602.528 2.92608 -3.3141 0
M  V30 6548 N 601.587 1.56661 0.17182 0
M  V30 6549 C 602.519 1.92934 1.2373 0
M  V30 6550 C 603.532 0.822385 1.40502 0
M  V30 6551 O 604.721 1.10083 1.40514 0
M  V30 6552 C 601.821 2.16651 2.60607 0
M  V30 6553 C 600.994 3.47878 2.6514 0
M  V30 6554 C 600.053 3.60429 3.83377 0
M  V30 6555 O 599.079 4.33051 3.69398 0
M  V30 6556 N 600.281 2.95241 4.99813 0
M  V30 6557 H 603.046 2.84931 0.929205 0
M  V30 6558 H 600.607 1.5781 0.361588 0
M  V30 6559 H 602.599 2.22312 3.38171 0
M  V30 6560 H 601.169 1.3104 2.83809 0
M  V30 6561 H 600.389 3.53879 1.73675 0
M  V30 6562 H 601.677 4.34232 2.6518 0
M  V30 6563 H 601.075 2.3611 5.14071 0
M  V30 6564 H 599.632 3.06499 5.75241 0
M  V30 6565 N 603.065 -0.440357 1.51323 0
M  V30 6566 C 604.29 -1.21716 1.67928 0
M  V30 6567 C 604.715 -1.84328 0.374826 0
M  V30 6568 O 604.073 -1.68675 -0.664706 0
M  V30 6569 C 604.121 -2.27914 2.79442 0
M  V30 6570 O 603.225 -3.33325 2.42834 0
M  V30 6571 H 602.566 -0.35674 0.560029 0
M  V30 6572 H 605.096 -0.520417 1.97871 0
M  V30 6573 H 605.106 -2.72746 3.03436 0
M  V30 6574 H 603.781 -1.8172 3.741 0
M  V30 6575 H 602.358 -2.9399 2.294 0
M  V30 6576 N 604.543 -1.41418 -0.695603 0
M  V30 6577 C 605.453 -1.45622 -1.83933 0
M  V30 6578 C 606.469 -0.346825 -1.70508 0
M  V30 6579 O 607.645 -0.59454 -1.92424 0
M  V30 6580 C 604.71 -1.33627 -3.19914 0
M  V30 6581 C 603.771 -2.54882 -3.45447 0
M  V30 6582 C 603.004 -2.43449 -4.7494 0
M  V30 6583 O 603.227 -1.45905 -5.51424 0
M  V30 6584 O 602.161 -3.33206 -5.01256 0
M  V30 6585 H 605.987 -2.42114 -1.83342 0
M  V30 6586 H 603.572 -1.22956 -0.848658 0
M  V30 6587 H 605.454 -1.29221 -4.01098 0
M  V30 6588 H 604.129 -0.402508 -3.21188 0
M  V30 6589 H 603.036 -2.64865 -2.64192 0
M  V30 6590 H 604.369 -3.47087 -3.48987 0
M  V30 6591 N 606.021 0.929856 -1.27246 0
M  V30 6592 C 606.951 2.04722 -1.12299 0
M  V30 6593 C 607.932 1.70082 -0.0250464 0
M  V30 6594 O 609.117 1.93176 -0.199141 0
M  V30 6595 C 606.247 3.38721 -0.767145 0
M  V30 6596 C 605.201 3.87466 -1.81808 0
M  V30 6597 C 604.527 5.18246 -1.31626 0
M  V30 6598 C 605.827 4.11095 -3.22177 0
M  V30 6599 H 607.521 2.17485 -2.05769 0
M  V30 6600 H 605.067 1.04503 -0.990715 0
M  V30 6601 H 607.02 4.16366 -0.649413 0
M  V30 6602 H 605.744 3.25967 0.203259 0
M  V30 6603 H 604.403 3.12012 -1.92468 0
M  V30 6604 H 604.051 5.01881 -0.335378 0
M  V30 6605 H 603.751 5.51829 -2.01887 0
M  V30 6606 H 605.275 5.98462 -1.21143 0
M  V30 6607 H 606.689 4.79316 -3.1453 0
M  V30 6608 H 605.086 4.55982 -3.90129 0
M  V30 6609 H 606.156 3.16468 -3.67391 0
M  V30 6610 N 607.499 1.09233 1.13605 0
M  V30 6611 C 608.915 0.82163 1.36826 0
M  V30 6612 C 609.115 -0.565021 1.93416 0
M  V30 6613 O 608.171 -1.32026 2.15234 0
M  V30 6614 C 609.484 1.91124 2.32147 0
M  V30 6615 C 611.032 1.93824 2.45767 0
M  V30 6616 C 611.507 3.01923 3.44393 0
M  V30 6617 N 612.998 3.01149 3.51942 0
M  V30 6618 C 613.733 3.81434 4.2813 0
M  V30 6619 N 613.229 4.71621 5.07489 0
M  V30 6620 N 615.022 3.69702 4.23411 0
M  V30 6621 H 607.173 1.98633 0.752234 0
M  V30 6622 H 609.436 0.862482 0.393482 0
M  V30 6623 H 609.142 2.90862 1.97717 0
M  V30 6624 H 609.016 1.78777 3.32142 0
M  V30 6625 H 611.403 0.94726 2.79483 0
M  V30 6626 H 611.484 2.10248 1.45703 0
M  V30 6627 H 611.128 4.01232 3.11408 0
M  V30 6628 H 611.058 2.82742 4.44257 0
M  V30 6629 H 613.549 2.35789 2.95317 0
M  V30 6630 H 613.862 5.29468 5.62924 0
M  V30 6631 H 612.207 4.75658 5.06729 0
M  V30 6632 H 615.398 2.98606 3.60489 0
M  V30 6633 H 615.571 4.32509 4.82535 0
M  V30 6634 N 608.977 -1.30795 0.87923 0
M  V30 6635 C 610.393 -1.48981 0.57243 0
M  V30 6636 C 610.593 -1.80719 -0.891236 0
M  V30 6637 O 609.649 -1.89136 -1.67283 0
M  V30 6638 C 610.962 -2.61721 1.48063 0
M  V30 6639 C 612.51 -2.75603 1.48365 0
M  V30 6640 C 612.985 -3.91449 2.37763 0
M  V30 6641 N 614.476 -3.98751 2.35695 0
M  V30 6642 C 615.211 -4.87684 3.01583 0
M  V30 6643 N 614.707 -5.81454 3.76674 0
M  V30 6644 N 616.5 -4.81005 2.90844 0
M  V30 6645 H 608.651 -1.08465 1.82617 0
M  V30 6646 H 610.914 -0.536813 0.781368 0
M  V30 6647 H 610.62 -2.45073 2.52254 0
M  V30 6648 H 610.494 -3.58071 1.18596 0
M  V30 6649 H 612.881 -2.9166 0.44927 0
M  V30 6650 H 612.962 -1.79891 1.81859 0
M  V30 6651 H 612.606 -3.76149 3.41283 0
M  V30 6652 H 612.536 -4.86487 2.01589 0
M  V30 6653 H 615.027 -3.31668 1.81121 0
M  V30 6654 H 615.34 -6.46063 4.24054 0
M  V30 6655 H 613.685 -5.81403 3.80782 0
M  V30 6656 H 616.876 -4.06728 2.31711 0
M  V30 6657 H 617.049 -5.50107 3.42471 0
M  V30 6658 N 610.455 -0.639598 -1.44038 0
M  V30 6659 C 611.871 -0.305953 -1.5664 0
M  V30 6660 C 612.071 1.19055 -1.62567 0
M  V30 6661 O 611.127 1.97492 -1.57331 0
M  V30 6662 C 612.44 -1.00533 -2.83397 0
M  V30 6663 C 613.988 -0.984278 -2.97121 0
M  V30 6664 C 614.463 -1.66428 -4.26691 0
M  V30 6665 N 615.954 -1.63127 -4.33525 0
M  V30 6666 C 616.689 -2.12629 -5.32519 0
M  V30 6667 N 616.185 -2.70359 -6.3787 0
M  V30 6668 N 617.978 -2.03208 -5.24083 0
M  V30 6669 H 610.129 -1.6109 -1.38434 0
M  V30 6670 H 612.392 -0.676672 -0.663942 0
M  V30 6671 H 612.098 -2.06034 -2.85032 0
M  V30 6672 H 611.972 -0.548362 -3.73193 0
M  V30 6673 H 614.359 0.0622792 -2.95034 0
M  V30 6674 H 614.44 -1.47981 -2.08651 0
M  V30 6675 H 614.084 -2.71034 -4.29538 0
M  V30 6676 H 614.014 -1.14351 -5.14034 0
M  V30 6677 H 616.505 -1.20987 -3.58009 0
M  V30 6678 H 616.818 -3.05842 -7.09704 0
M  V30 6679 H 615.163 -2.74414 -6.38531 0
M  V30 6680 H 618.354 -1.57823 -4.40692 0
M  V30 6681 H 618.527 -2.42097 -6.01077 0
M  V30 6682 N 611.933 1.52934 -0.380664 0
M  V30 6683 C 613.179 2.02443 0.197089 0
M  V30 6684 C 613.534 1.26249 1.45186 0
M  V30 6685 O 612.827 0.351964 1.8834 0
M  V30 6686 C 613.021 3.5349 0.527199 0
M  V30 6687 C 612.85 4.44312 -0.694027 0
M  V30 6688 C 611.62 4.90582 -1.21068 0
M  V30 6689 C 613.818 4.8995 -1.56377 0
M  V30 6690 N 611.8 5.65451 -2.39036 0
M  V30 6691 C 613.171 5.63313 -2.58995 0
M  V30 6692 C 615.226 4.72002 -1.58488 0
M  V30 6693 C 613.929 6.20635 -3.63599 0
M  V30 6694 C 615.955 5.30201 -2.61995 0
M  V30 6695 C 615.317 6.03463 -3.63335 0
M  V30 6696 H 611.416 0.781241 0.0344357 0
M  V30 6697 H 614 1.87387 -0.528609 0
M  V30 6698 H 612.171 3.68677 1.22196 0
M  V30 6699 H 613.903 3.89707 1.09135 0
M  V30 6700 H 610.658 4.67249 -0.772995 0
M  V30 6701 H 611.082 6.07541 -2.98701 0
M  V30 6702 H 615.724 4.14873 -0.814891 0
M  V30 6703 H 613.442 6.76852 -4.41472 0
M  V30 6704 H 617.028 5.182 -2.645 0
M  V30 6705 H 615.908 6.47693 -4.42113 0
M  V30 6706 N 613.412 0.11024 1.57214 0
M  V30 6707 C 614.362 -0.854147 2.11396 0
M  V30 6708 C 615.346 -1.23394 1.03261 0
M  V30 6709 O 616.538 -1.20649 1.2951 0
M  V30 6710 C 613.667 -2.10752 2.70995 0
M  V30 6711 C 612.753 -1.75249 3.86198 0
M  V30 6712 N 613.144 -1.10377 4.9361 0
M  V30 6713 C 611.442 -2.04763 3.96217 0
M  V30 6714 C 612.143 -0.938199 5.74084 0
M  V30 6715 N 611.119 -1.46039 5.23616 0
M  V30 6716 H 614.921 -0.348897 2.91822 0
M  V30 6717 H 612.435 -0.0925071 1.62136 0
M  V30 6718 H 614.432 -2.80801 3.0815 0
M  V30 6719 H 613.092 -2.61829 1.9203 0
M  V30 6720 H 614.103 -0.768785 5.12162 0
M  V30 6721 H 610.78 -2.57948 3.28282 0
M  V30 6722 H 612.17 -0.429678 6.70525 0
M  V30 6723 N 614.89 -1.56749 -0.16351 0
M  V30 6724 C 616.306 -1.51043 -0.515567 0
M  V30 6725 C 616.506 -0.815855 -1.84245 0
M  V30 6726 O 615.562 -0.379477 -2.49632 0
M  V30 6727 C 616.875 -2.95791 -0.541114 0
M  V30 6728 C 618.423 -3.0664 -0.627776 0
M  V30 6729 C 618.898 -4.52861 -0.684141 0
M  V30 6730 N 620.389 -4.5714 -0.746818 0
M  V30 6731 C 621.124 -5.67634 -0.811137 0
M  V30 6732 N 620.62 -6.8774 -0.835811 0
M  V30 6733 N 622.413 -5.55624 -0.850756 0
M  V30 6734 H 614.564 -2.00307 0.70645 0
M  V30 6735 H 616.827 -0.912876 0.255659 0
M  V30 6736 H 616.533 -3.49797 0.365329 0
M  V30 6737 H 616.407 -3.50858 -1.38487 0
M  V30 6738 H 618.794 -2.52663 -1.52464 0
M  V30 6739 H 618.875 -2.54645 0.242805 0
M  V30 6740 H 618.519 -5.07472 0.2085 0
M  V30 6741 H 618.449 -5.02621 -1.57098 0
M  V30 6742 H 620.94 -3.70669 -0.735717 0
M  V30 6743 H 621.253 -7.67701 -0.886279 0
M  V30 6744 H 619.598 -6.90334 -0.803958 0
M  V30 6745 H 622.789 -4.60709 -0.828535 0
M  V30 6746 H 622.962 -6.41756 -0.897418 0
M  V30 6747 N 616.368 0.432326 -1.51554 0
M  V30 6748 C 617.614 1.17997 -1.65675 0
M  V30 6749 C 617.969 1.88794 -0.37076 0
M  V30 6750 O 617.262 1.80817 0.633692 0
M  V30 6751 C 617.456 2.21907 -2.80164 0
M  V30 6752 C 617.285 1.6131 -4.19773 0
M  V30 6753 C 616.055 1.39585 -4.85638 0
M  V30 6754 C 618.253 1.08659 -5.0269 0
M  V30 6755 N 616.235 0.746374 -6.09346 0
M  V30 6756 C 617.606 0.562685 -6.17441 0
M  V30 6757 C 619.661 0.978831 -4.88184 0
M  V30 6758 C 618.364 -0.0584015 -7.19276 0
M  V30 6759 C 620.39 0.371631 -5.90231 0
M  V30 6760 C 619.752 -0.141711 -7.04257 0
M  V30 6761 H 615.851 0.419277 -0.660099 0
M  V30 6762 H 618.435 0.475809 -1.88797 0
M  V30 6763 H 616.606 2.89706 -2.58698 0
M  V30 6764 H 618.338 2.88867 -2.8344 0
M  V30 6765 H 615.093 1.65897 -4.43593 0
M  V30 6766 H 615.517 0.438934 -6.75576 0
M  V30 6767 H 620.159 1.36157 -4.00276 0
M  V30 6768 H 617.877 -0.453262 -8.06828 0
M  V30 6769 H 621.463 0.290086 -5.81076 0
M  V30 6770 H 620.343 -0.60417 -7.81869 0
M  V30 6771 N 617.846 1.41785 0.688094 0
M  V30 6772 C 619.262 1.24419 0.999608 0
M  V30 6773 C 619.462 0.138868 2.01021 0
M  V30 6774 O 618.518 -0.494283 2.47615 0
M  V30 6775 C 619.831 2.59625 1.51709 0
M  V30 6776 C 621.379 2.66869 1.63554 0
M  V30 6777 C 621.854 4.0241 2.18702 0
M  V30 6778 N 623.345 4.04295 2.26053 0
M  V30 6779 C 624.08 5.05977 2.69768 0
M  V30 6780 N 623.576 6.18047 3.13033 0
M  V30 6781 N 625.369 4.93336 2.69398 0
M  V30 6782 H 617.52 2.12392 0.0187427 0
M  V30 6783 H 619.783 0.945347 0.0708673 0
M  V30 6784 H 619.489 3.41297 0.849059 0
M  V30 6785 H 619.363 2.82628 2.49803 0
M  V30 6786 H 621.75 1.8555 2.29467 0
M  V30 6787 H 621.831 2.47668 0.639857 0
M  V30 6788 H 621.475 4.8418 1.53402 0
M  V30 6789 H 621.405 4.18955 3.19037 0
M  V30 6790 H 623.896 3.23383 1.9553 0
M  V30 6791 H 624.209 6.91498 3.45038 0
M  V30 6792 H 622.554 6.21572 3.10923 0
M  V30 6793 H 625.745 4.04865 2.34952 0
M  V30 6794 H 625.918 5.72717 3.03148 0
M  V30 6795 N 619.324 -0.923095 1.27737 0
M  V30 6796 C 620.254 -2.04124 1.13383 0
M  V30 6797 C 621.235 -1.70066 0.0340658 0
M  V30 6798 O 622.42 -1.93068 0.209383 0
M  V30 6799 C 619.55 -3.3831 0.785097 0
M  V30 6800 C 618.504 -3.86496 1.8386 0
M  V30 6801 C 617.83 -5.1754 1.34373 0
M  V30 6802 C 619.13 -4.09381 3.24353 0
M  V30 6803 H 620.824 -2.1639 2.06919 0
M  V30 6804 H 618.37 -1.03976 0.996243 0
M  V30 6805 H 620.323 -4.16016 0.671485 0
M  V30 6806 H 619.047 -3.2607 -0.185969 0
M  V30 6807 H 617.706 -3.10987 1.9412 0
M  V30 6808 H 617.354 -5.01696 0.361989 0
M  V30 6809 H 617.054 -5.50751 2.04811 0
M  V30 6810 H 618.578 -5.97811 1.24315 0
M  V30 6811 H 619.992 -4.77641 3.17067 0
M  V30 6812 H 618.389 -4.53906 3.92542 0
M  V30 6813 H 619.459 -3.14515 3.69064 0
M  V30 6814 N 620.802 -1.09834 -1.13024 0
M  V30 6815 C 622.05 -0.835297 -1.8403 0
M  V30 6816 C 622.371 0.640944 -1.84165 0
M  V30 6817 O 621.641 1.46517 -1.30037 0
M  V30 6818 H 620.221 -0.306018 -0.681441 0
M  V30 6819 H 622.883 -1.38734 -1.36891 0
M  V30 6820 H 621.979 -1.19258 -2.88416 0
M  V30 6821 N 622.28 1.30327 -0.886154 0
M  V30 6822 C 623.227 2.28099 -0.352069 0
M  V30 6823 C 624.197 1.56433 0.558397 0
M  V30 6824 O 625.382 1.84492 0.486561 0
M  V30 6825 C 622.522 3.42456 0.426346 0
M  V30 6826 C 621.635 4.28938 -0.513472 0
M  V30 6827 C 620.77 5.30458 0.280657 0
M  V30 6828 C 619.809 6.0859 -0.654556 0
M  V30 6829 N 618.946 7.02022 0.104322 0
M  V30 6830 H 623.786 2.73166 -1.19097 0
M  V30 6831 H 621.323 1.34367 -0.598662 0
M  V30 6832 H 623.281 4.07518 0.893587 0
M  V30 6833 H 621.911 2.98455 1.22981 0
M  V30 6834 H 620.963 3.64173 -1.09921 0
M  V30 6835 H 622.275 4.83399 -1.2299 0
M  V30 6836 H 621.429 6.01273 0.8097 0
M  V30 6837 H 620.168 4.76693 1.03029 0
M  V30 6838 H 619.173 5.36651 -1.19522 0
M  V30 6839 H 620.398 6.64443 -1.4033 0
M  V30 6840 H 618.344 6.50645 0.836472 0
M  V30 6841 H 618.261 7.53979 -0.552453 0
M  V30 6842 H 619.529 7.77077 0.614069 0
M  V30 6843 N 623.758 0.647228 1.43697 0
M  V30 6844 C 625.004 0.158422 2.0218 0
M  V30 6845 C 625.337 -1.22233 1.50907 0
M  V30 6846 O 624.612 -1.81478 0.699702 0
M  V30 6847 C 624.895 0.1627 3.59732 0
M  V30 6848 C 624.748 1.57694 4.21251 0
M  V30 6849 C 626.067 -0.504138 4.37203 0
M  V30 6850 H 623.186 0.059042 0.734631 0
M  V30 6851 H 625.828 0.826772 1.71069 0
M  V30 6852 H 623.978 -0.406414 3.86368 0
M  V30 6853 H 625.65 2.19618 4.05667 0
M  V30 6854 H 623.893 2.12603 3.7813 0
M  V30 6855 H 624.564 1.53183 5.3032 0
M  V30 6856 H 627.04 -0.0199841 4.16095 0
M  V30 6857 H 625.916 -0.470394 5.46881 0
M  V30 6858 H 626.177 -1.57726 4.13007 0
M  V30 6859 N 625.236 -1.5273 0.388769 0
M  V30 6860 C 626.166 -2.29353 -0.438111 0
M  V30 6861 C 627.147 -1.32719 -1.06394 0
M  V30 6862 O 628.332 -1.61612 -1.07681 0
M  V30 6863 C 625.462 -3.09995 -1.56589 0
M  V30 6864 C 624.416 -4.14509 -1.06613 0
M  V30 6865 C 623.742 -4.83372 -2.28594 0
M  V30 6866 C 625.042 -5.22127 -0.134459 0
M  V30 6867 H 626.736 -2.98723 0.201206 0
M  V30 6868 H 624.282 -1.43665 0.0982089 0
M  V30 6869 H 626.235 -3.62357 -2.15118 0
M  V30 6870 H 624.959 -2.38357 -2.23279 0
M  V30 6871 H 623.618 -3.63128 -0.503383 0
M  V30 6872 H 623.266 -4.08283 -2.93792 0
M  V30 6873 H 622.966 -5.54012 -1.95817 0
M  V30 6874 H 624.49 -5.38538 -2.87766 0
M  V30 6875 H 625.904 -5.69851 -0.627914 0
M  V30 6876 H 624.301 -6.00011 0.103534 0
M  V30 6877 H 625.371 -4.77971 0.816798 0
M  V30 6878 N 626.714 -0.118576 -1.57153 0
M  V30 6879 C 627.96 0.534078 -1.96263 0
M  V30 6880 C 628.315 1.64316 -1.0009 0
M  V30 6881 O 627.608 1.91575 -0.0308582 0
M  V30 6882 C 627.802 1.11303 -3.39627 0
M  V30 6883 C 627.631 0.0615624 -4.49658 0
M  V30 6884 C 626.401 -0.370103 -5.03943 0
M  V30 6885 C 628.599 -0.719249 -5.09246 0
M  V30 6886 N 626.581 -1.40738 -5.9755 0
M  V30 6887 C 627.952 -1.60774 -5.98792 0
M  V30 6888 C 630.007 -0.770183 -4.91907 0
M  V30 6889 C 628.71 -2.54272 -6.72858 0
M  V30 6890 C 630.736 -1.69288 -5.66653 0
M  V30 6891 C 630.098 -2.56894 -6.55885 0
M  V30 6892 H 626.197 0.165072 -0.764379 0
M  V30 6893 H 628.781 -0.206596 -1.93601 0
M  V30 6894 H 626.952 1.82342 -3.42937 0
M  V30 6895 H 628.684 1.72996 -3.65861 0
M  V30 6896 H 625.439 0.0222121 -4.73595 0
M  V30 6897 H 625.863 -1.92493 -6.49057 0
M  V30 6898 H 630.505 -0.106999 -4.22665 0
M  V30 6899 H 628.223 -3.21605 -7.41347 0
M  V30 6900 H 631.809 -1.73772 -5.55243 0
M  V30 6901 H 630.689 -3.27131 -7.1271 0
M  V30 6902 N 628.193 1.56834 0.155195 0
M  V30 6903 C 629.103 2.009 1.21146 0
M  V30 6904 C 630.119 0.923029 1.475 0
M  V30 6905 O 631.295 1.23189 1.59331 0
M  V30 6906 C 628.36 2.37378 2.52691 0
M  V30 6907 C 627.421 3.59883 2.34057 0
M  V30 6908 C 626.654 3.94612 3.59329 0
M  V30 6909 O 626.877 3.30104 4.65175 0
M  V30 6910 O 625.811 4.87895 3.52479 0
M  V30 6911 H 629.637 2.9105 0.867371 0
M  V30 6912 H 627.222 1.44916 0.363298 0
M  V30 6913 H 629.104 2.61737 3.3026 0
M  V30 6914 H 627.779 1.50385 2.86646 0
M  V30 6915 H 626.686 3.40722 1.54465 0
M  V30 6916 H 628.019 4.47468 2.0502 0
M  V30 6917 N 629.671 -0.424282 1.51781 0
M  V30 6918 C 630.581 -1.54087 1.76902 0
M  V30 6919 C 631.597 -1.61249 0.653826 0
M  V30 6920 O 632.773 -1.78247 0.937552 0
M  V30 6921 C 629.838 -2.8996 1.90063 0
M  V30 6922 C 628.899 -2.92809 3.13945 0
M  V30 6923 C 628.132 -4.22201 3.26469 0
M  V30 6924 O 628.355 -5.15286 2.44616 0
M  V30 6925 O 627.289 -4.31599 4.1953 0
M  V30 6926 H 631.115 -1.358 2.71647 0
M  V30 6927 H 628.7 -0.608618 1.36441 0
M  V30 6928 H 630.582 -3.70575 2.0063 0
M  V30 6929 H 629.257 -3.08347 0.985067 0
M  V30 6930 H 628.164 -2.11102 3.08847 0
M  V30 6931 H 629.497 -2.79369 4.05233 0
M  V30 6932 N 631.149 -1.42148 -0.680565 0
M  V30 6933 C 632.565 -1.24947 -0.992995 0
M  V30 6934 C 632.765 -0.149527 -2.00944 0
M  V30 6935 O 631.821 0.481145 -2.47873 0
M  V30 6936 C 633.134 -2.60426 -1.5033 0
M  V30 6937 C 634.682 -2.67733 -1.62137 0
M  V30 6938 C 635.157 -4.03564 -2.16565 0
M  V30 6939 N 636.648 -4.05488 -2.23905 0
M  V30 6940 C 637.383 -5.07401 -2.67081 0
M  V30 6941 N 636.879 -6.19698 -3.09751 0
M  V30 6942 N 638.672 -4.94758 -2.66778 0
M  V30 6943 H 630.823 -2.12399 -0.0074788 0
M  V30 6944 H 633.086 -0.94571 -0.0658529 0
M  V30 6945 H 632.792 -3.41743 -0.830947 0
M  V30 6946 H 632.666 -2.83949 -2.483 0
M  V30 6947 H 635.053 -1.86765 -2.2848 0
M  V30 6948 H 635.134 -2.48004 -0.626713 0
M  V30 6949 H 634.778 -4.84987 -1.50833 0
M  V30 6950 H 634.708 -4.20641 -3.1681 0
M  V30 6951 H 637.199 -3.24415 -1.93812 0
M  V30 6952 H 637.512 -6.93318 -3.41365 0
M  V30 6953 H 635.857 -6.23212 -3.07623 0
M  V30 6954 H 639.048 -4.06105 -2.32801 0
M  V30 6955 H 639.221 -5.74317 -3.00107 0
M  V30 6956 N 632.627 0.916307 -1.28225 0
M  V30 6957 C 633.575 2.03977 -1.11786 0
M  V30 6958 C 634.569 1.69358 -0.0378265 0
M  V30 6959 O 635.775 1.78925 -0.196405 0
M  V30 6960 H 632.15 0.66829 -0.344809 0
M  V30 6961 H 634.121 2.14985 -2.06939 0
M  V30 6962 C 632.87 3.38518 -0.7938 0
M  V30 6963 H 632.193 3.65649 -1.61682 0
M  V30 6964 H 633.633 4.17864 -0.718719 0
M  V30 6965 C 632.092 3.33134 0.502353 0
M  V30 6966 O 632.622 3.71281 1.53341 0
M  V30 6967 N 630.828 2.86229 0.502147 0
M  V30 6968 H 630.375 2.55382 -0.337338 0
M  V30 6969 H 630.333 2.83009 1.36942 0
M  V30 6970 N 634.105 1.10431 1.1244 0
M  V30 6971 C 635.333 0.868872 1.87772 0
M  V30 6972 C 635.748 -0.580645 1.7965 0
M  V30 6973 O 635.105 -1.40031 1.17036 0
M  V30 6974 C 635.156 1.30855 3.36986 0
M  V30 6975 O 634.877 2.70123 3.44914 0
M  V30 6976 C 636.378 1.107 4.29256 0
M  V30 6977 H 633.598 0.311868 0.59412 0
M  V30 6978 H 636.142 1.46897 1.42273 0
M  V30 6979 H 634.297 0.752126 3.80029 0
M  V30 6980 H 634.711 2.88923 4.37748 0
M  V30 6981 H 636.185 1.46378 5.32238 0
M  V30 6982 H 636.662 0.0456228 4.39176 0
M  V30 6983 H 637.268 1.64988 3.91994 0
M  V30 6984 N 635.583 -1.29855 0.893053 0
M  V30 6985 C 636.808 -2.00512 0.530066 0
M  V30 6986 C 637.233 -1.66446 -0.876199 0
M  V30 6987 O 636.591 -0.885446 -1.58207 0
M  V30 6988 C 636.639 -3.53308 0.721505 0
M  V30 6989 O 635.743 -4.11764 -0.228994 0
M  V30 6990 H 635.084 -0.630617 0.207891 0
M  V30 6991 H 637.614 -1.6551 1.20282 0
M  V30 6992 H 637.624 -4.03206 0.623599 0
M  V30 6993 H 636.299 -3.77439 1.74678 0
M  V30 6994 H 634.876 -3.72805 -0.0841034 0
M  V30 6995 N 637.061 -0.65484 -1.43351 0
M  V30 6996 C 638.009 0.0476784 -2.32551 0
M  V30 6997 C 639.003 0.811403 -1.48703 0
M  V30 6998 O 640.209 0.721621 -1.64902 0
M  V30 6999 H 636.584 0.0342038 -0.751222 0
M  V30 7000 H 638.555 -0.722342 -2.89525 0
M  V30 7001 C 637.304 0.999251 -3.33032 0
M  V30 7002 H 636.627 0.421005 -3.97577 0
M  V30 7003 H 638.067 1.45986 -3.98076 0
M  V30 7004 C 636.526 2.09606 -2.63756 0
M  V30 7005 O 637.056 3.18004 -2.4543 0
M  V30 7006 N 635.262 1.86207 -2.23103 0
M  V30 7007 H 634.809 0.980555 -2.38208 0
M  V30 7008 H 634.767 2.59787 -1.77081 0
M  V30 7009 N 638.539 1.52521 -0.396863 0
M  V30 7010 C 639.489 2.2348 0.451722 0
M  V30 7011 C 640.473 1.2415 1.0235 0
M  V30 7012 O 641.665 1.4945 0.948348 0
M  V30 7013 C 638.794 3.05067 1.57445 0
M  V30 7014 C 637.88 4.11799 1.01404 0
M  V30 7015 N 638.271 5.05482 0.179234 0
M  V30 7016 C 636.569 4.27064 1.28578 0
M  V30 7017 C 637.27 5.81552 -0.131202 0
M  V30 7018 N 636.246 5.41523 0.474735 0
M  V30 7019 H 640.048 2.93269 -0.192534 0
M  V30 7020 H 637.562 1.61081 -0.206591 0
M  V30 7021 H 639.559 3.54446 2.19485 0
M  V30 7022 H 638.219 2.36816 2.22145 0
M  V30 7023 H 639.23 5.17573 -0.18411 0
M  V30 7024 H 635.907 3.70042 1.93327 0
M  V30 7025 H 637.297 6.67023 -0.808061 0
M  V30 7026 N 640.017 0.126909 1.57088 0
M  V30 7027 C 641.433 -0.229641 1.57939 0
M  V30 7028 C 641.633 -1.66145 1.1401 0
M  V30 7029 O 640.689 -2.3843 0.831119 0
M  V30 7030 C 642.002 0.0108648 3.00698 0
M  V30 7031 C 643.55 -0.054418 3.12953 0
M  V30 7032 C 644.025 0.158497 4.57726 0
M  V30 7033 N 645.516 0.104735 4.63082 0
M  V30 7034 C 646.251 0.24427 5.72879 0
M  V30 7035 N 645.747 0.440415 6.91399 0
M  V30 7036 N 647.54 0.183286 5.61801 0
M  V30 7037 H 639.691 1.06203 1.83942 0
M  V30 7038 H 641.954 0.418834 0.85046 0
M  V30 7039 H 641.66 1.00102 3.37154 0
M  V30 7040 H 641.534 -0.717512 3.70313 0
M  V30 7041 H 643.921 -1.0351 2.7635 0
M  V30 7042 H 644.002 0.705967 2.45865 0
M  V30 7043 H 643.646 1.13619 4.95028 0
M  V30 7044 H 643.576 -0.62197 5.22914 0
M  V30 7045 H 646.067 -0.0430298 3.77876 0
M  V30 7046 H 646.38 0.537536 7.70928 0
M  V30 7047 H 644.725 0.476488 6.93365 0
M  V30 7048 H 647.916 0.0309561 4.6809 0
M  V30 7049 H 648.089 0.295471 6.47326 0
M  V30 7050 N 641.495 -1.56914 -0.146875 0
M  V30 7051 C 642.458 -1.97368 -1.16526 0
M  V30 7052 C 643.458 -0.860223 -1.35856 0
M  V30 7053 O 644.648 -1.12684 -1.32846 0
M  V30 7054 C 641.78 -2.28974 -2.52555 0
M  V30 7055 H 642.973 -2.88523 -0.818209 0
M  V30 7056 H 640.526 -1.5135 -0.390221 0
M  V30 7057 H 641.261 -1.40611 -2.92231 0
M  V30 7058 H 641.046 -3.10157 -2.39886 0
M  V30 7059 H 642.536 -2.61109 -3.25902 0
M  V30 7060 N 642.974 0.416227 -1.52004 0
M  V30 7061 C 644.199 1.19029 -1.69843 0
M  V30 7062 C 644.624 1.83708 -0.404103 0
M  V30 7063 O 643.982 1.69711 0.637787 0
M  V30 7064 C 644.03 2.23439 -2.83032 0
M  V30 7065 O 643.134 3.29419 -2.48106 0
M  V30 7066 H 642.475 0.347785 -0.565634 0
M  V30 7067 H 645.005 0.488871 -1.98674 0
M  V30 7068 H 645.015 2.67884 -3.07737 0
M  V30 7069 H 643.69 1.75745 -3.76944 0
M  V30 7070 H 642.267 2.90303 -2.34048 0
M  V30 7071 N 644.452 1.42507 0.673017 0
M  V30 7072 C 645.677 1.4668 1.46627 0
M  V30 7073 C 646.102 0.080066 1.8793 0
M  V30 7074 O 645.46 -0.921879 1.56112 0
M  V30 7075 C 645.508 2.40091 2.69051 0
M  V30 7076 O 644.612 1.8735 3.67387 0
M  V30 7077 H 643.953 0.496908 0.44043 0
M  V30 7078 H 646.483 1.87215 0.825334 0
M  V30 7079 H 646.493 2.56731 3.17101 0
M  V30 7080 H 645.168 3.4084 2.3833 0
M  V30 7081 H 643.745 1.80274 3.26429 0
M  V30 7082 N 645.93 -0.909495 1.28709 0
M  V30 7083 C 647.155 -1.69801 1.1909 0
M  V30 7084 C 647.58 -1.86479 -0.246388 0
M  V30 7085 O 646.938 -1.37802 -1.17815 0
M  V30 7086 C 646.986 -3.06543 1.89904 0
M  V30 7087 O 646.09 -3.94268 1.2094 0
M  V30 7088 H 645.431 -0.519783 0.413185 0
M  V30 7089 H 647.961 -1.13689 1.70106 0
M  V30 7090 H 647.971 -3.56748 1.97977 0
M  V30 7091 H 646.646 -2.93722 2.94449 0
M  V30 7092 H 645.223 -3.52702 1.2106 0
M  V30 7093 N 647.408 -1.11026 -1.11852 0
M  V30 7094 C 648.819 -0.873203 -1.65021 0
M  V30 7095 C 649.17 0.595364 -1.86949 0
M  V30 7096 O 648.295 1.45645 -1.60051 0
M  V30 7097 C 648.89 -1.57859 -2.99777 0
M  V30 7098 C 647.449 -1.38807 -3.49871 0
M  V30 7099 C 646.596 -1.62403 -2.24768 0
M  V30 7100 H 649.547 -1.26712 -0.955503 0
M  V30 7101 H 649.568 -1.02111 -3.66543 0
M  V30 7102 H 649.08 -2.6474 -2.83786 0
M  V30 7103 H 647.181 -0.341163 -3.71035 0
M  V30 7104 H 647.294 -2.13421 -4.28938 0
M  V30 7105 H 645.658 -1.04714 -2.32179 0
M  V30 7106 H 646.441 -2.70549 -2.11324 0
M  V30 7107 N 648.886 1.2938 -0.899927 0
M  V30 7108 C 650.134 1.95164 -0.524924 0
M  V30 7109 C 650.455 1.71292 0.931888 0
M  V30 7110 O 649.725 1.04481 1.65712 0
M  V30 7111 H 648.305 0.722133 -0.191135 0
M  V30 7112 H 650.967 1.57628 -1.14627 0
M  V30 7113 H 650.063 3.0397 -0.707711 0
M  V30 7114 N 650.364 0.662433 1.43002 0
M  V30 7115 C 651.314 -0.0460442 2.27954 0
M  V30 7116 C 652.298 -0.785753 1.40409 0
M  V30 7117 O 653.49 -0.666701 1.63964 0
M  V30 7118 C 650.619 -1.00532 3.2825 0
M  V30 7119 C 649.705 -0.263604 4.2328 0
M  V30 7120 N 650.096 0.724855 5.00579 0
M  V30 7121 C 648.394 -0.503778 4.43146 0
M  V30 7122 C 649.095 1.16594 5.69895 0
M  V30 7123 N 648.071 0.498345 5.41311 0
M  V30 7124 H 651.873 0.712314 2.85137 0
M  V30 7125 H 649.387 0.490469 1.54817 0
M  V30 7126 H 651.384 -1.52775 3.87899 0
M  V30 7127 H 650.044 -1.76364 2.72628 0
M  V30 7128 H 651.055 1.10393 5.05998 0
M  V30 7129 H 647.732 -1.24255 3.98581 0
M  V30 7130 H 649.122 1.98434 6.4193 0
M  V30 7131 N 651.842 -1.52309 0.404946 0
M  V30 7132 C 653.09 -2.01368 -0.17186 0
M  V30 7133 C 653.411 -1.29261 -1.46002 0
M  V30 7134 O 652.681 -0.41729 -1.91404 0
M  V30 7135 H 651.261 -0.744034 -0.0664993 0
M  V30 7136 H 653.923 -1.87263 0.540228 0
M  V30 7137 H 653.019 -3.09888 -0.370957 0
M  V30 7138 N 653.32 -0.135238 -1.57019 0
M  V30 7139 C 654.731 0.387521 -1.82634 0
M  V30 7140 C 655.082 1.65528 -1.05332 0
M  V30 7141 O 654.207 2.14381 -0.294926 0
M  V30 7142 C 654.802 0.709852 -3.3128 0
M  V30 7143 C 653.361 1.17718 -3.57518 0
M  V30 7144 C 652.508 0.194183 -2.76619 0
M  V30 7145 H 655.459 -0.360126 -1.5456 0
M  V30 7146 H 655.48 1.5657 -3.46794 0
M  V30 7147 H 654.992 -0.213024 -3.87515 0
M  V30 7148 H 653.093 2.1164 -3.06658 0
M  V30 7149 H 653.206 1.11128 -4.66034 0
M  V30 7150 H 651.57 0.684478 -2.4533 0
M  V30 7151 H 652.353 -0.722076 -3.3562 0
M  V30 7152 N 654.798 1.5699 0.138552 0
M  V30 7153 C 656.209 1.73171 0.697754 0
M  V30 7154 C 656.56 0.750952 1.8126 0
M  V30 7155 O 655.685 -0.080549 2.1625 0
M  V30 7156 C 656.28 3.13996 1.27248 0
M  V30 7157 C 654.839 3.3175 1.77816 0
M  V30 7158 C 653.986 2.69084 0.669991 0
M  V30 7159 H 656.937 1.5846 -0.0871979 0
M  V30 7160 H 656.958 3.14463 2.14227 0
M  V30 7161 H 656.47 3.85354 0.460855 0
M  V30 7162 H 654.571 2.65403 2.61519 0
M  V30 7163 H 654.684 4.39768 1.90107 0
M  V30 7164 H 653.048 2.29782 1.09874 0
M  V30 7165 H 653.831 3.43053 -0.130329 0
M  V30 7166 N 656.276 -0.40816 1.52223 0
M  V30 7167 C 657.501 -1.18127 1.70472 0
M  V30 7168 C 657.926 -1.83491 0.41384 0
M  V30 7169 O 657.284 -1.70047 -0.628778 0
M  V30 7170 C 657.332 -2.21935 2.84213 0
M  V30 7171 O 656.436 -3.28099 2.4985 0
M  V30 7172 H 655.777 -0.344781 0.56747 0
M  V30 7173 H 658.307 -0.478328 1.9893 0
M  V30 7174 H 658.317 -2.66248 3.09153 0
M  V30 7175 H 656.992 -1.73744 3.7787 0
M  V30 7176 H 655.569 -2.89058 2.35584 0
M  V30 7177 N 657.755 -1.42862 -0.66545 0
M  V30 7178 C 658.702 -1.4707 -1.77874 0
M  V30 7179 C 659.672 -0.321654 -1.62956 0
M  V30 7180 O 660.857 -0.52707 -1.83376 0
M  V30 7181 C 657.997 -1.38788 -3.15962 0
M  V30 7182 C 657.11 -2.63801 -3.42101 0
M  V30 7183 C 656.245 -2.47594 -4.69969 0
M  V30 7184 C 655.284 -3.67936 -4.89172 0
M  V30 7185 N 654.421 -3.50614 -6.08288 0
M  V30 7186 H 659.261 -2.42204 -1.73613 0
M  V30 7187 H 656.798 -1.20239 -0.847401 0
M  V30 7188 H 658.756 -1.31982 -3.95773 0
M  V30 7189 H 657.386 -0.472431 -3.19324 0
M  V30 7190 H 656.438 -2.80935 -2.56475 0
M  V30 7191 H 657.75 -3.53228 -3.52181 0
M  V30 7192 H 656.904 -2.38427 -5.57886 0
M  V30 7193 H 655.643 -1.55672 -4.62188 0
M  V30 7194 H 654.648 -3.77525 -3.99694 0
M  V30 7195 H 655.873 -4.60851 -4.98792 0
M  V30 7196 H 653.819 -2.61417 -6.01662 0
M  V30 7197 H 653.736 -4.33634 -6.19272 0
M  V30 7198 H 655.004 -3.45276 -6.98859 0
M  V30 7199 N 659.233 0.902656 -1.29189 0
M  V30 7200 C 660.143 2.03946 -1.15944 0
M  V30 7201 C 661.159 1.738 -0.0833803 0
M  V30 7202 O 662.335 1.9923 -0.29487 0
M  V30 7203 C 659.4 3.36519 -0.834006 0
M  V30 7204 C 658.461 3.80203 -1.9936 0
M  V30 7205 C 657.694 5.06449 -1.68359 0
M  V30 7206 O 657.917 5.67202 -0.603141 0
M  V30 7207 O 656.851 5.46114 -2.53067 0
M  V30 7208 H 660.677 2.18043 -2.11403 0
M  V30 7209 H 658.262 1.02584 -1.08613 0
M  V30 7210 H 660.144 4.16089 -0.666949 0
M  V30 7211 H 658.819 3.23573 0.0908245 0
M  V30 7212 H 657.726 3.01413 -2.21588 0
M  V30 7213 H 659.059 3.97729 -2.89952 0
M  V30 7214 N 660.711 1.11618 1.11262 0
M  V30 7215 C 661.641 0.79846 2.19424 0
M  V30 7216 C 662.622 -0.234003 1.68483 0
M  V30 7217 O 663.807 -0.0970704 1.93957 0
M  V30 7218 C 660.937 0.242892 3.4645 0
M  V30 7219 C 659.891 1.20744 4.10615 0
M  V30 7220 C 659.217 0.512494 5.32238 0
M  V30 7221 C 660.517 2.55884 4.55325 0
M  V30 7222 H 662.211 1.70286 2.46258 0
M  V30 7223 H 659.757 0.820195 1.18359 0
M  V30 7224 H 661.71 0.00840447 4.21399 0
M  V30 7225 H 660.434 -0.696811 3.1908 0
M  V30 7226 H 659.093 1.42759 3.37662 0
M  V30 7227 H 658.741 -0.432075 5.01141 0
M  V30 7228 H 658.441 1.15583 5.7612 0
M  V30 7229 H 659.965 0.286842 6.09926 0
M  V30 7230 H 661.379 2.37946 5.21588 0
M  V30 7231 H 659.776 3.16216 5.10027 0
M  V30 7232 H 660.846 3.14968 3.68678 0
M  V30 7233 N 662.189 -1.289 0.906776 0
M  V30 7234 C 663.121 -2.26556 0.347159 0
M  V30 7235 C 664.134 -1.54589 -0.51049 0
M  V30 7236 O 665.323 -1.75489 -0.326501 0
M  V30 7237 C 662.423 -3.3484 -0.523024 0
M  V30 7238 C 661.596 -4.36296 0.310515 0
M  V30 7239 C 660.655 -5.23879 -0.493634 0
M  V30 7240 O 659.681 -5.69127 0.0913569 0
M  V30 7241 N 660.883 -5.51946 -1.7982 0
M  V30 7242 H 663.648 -2.75212 1.18652 0
M  V30 7243 H 661.209 -1.42309 0.771996 0
M  V30 7244 H 663.201 -3.90366 -1.06756 0
M  V30 7245 H 661.771 -2.85946 -1.26309 0
M  V30 7246 H 660.991 -3.80331 1.03644 0
M  V30 7247 H 662.279 -5.01113 0.881106 0
M  V30 7248 H 661.677 -5.17006 -2.2961 0
M  V30 7249 H 660.234 -6.10258 -2.28971 0
M  V30 7250 N 663.667 -0.670007 -1.42649 0
M  V30 7251 C 664.914 -0.190286 -2.01604 0
M  V30 7252 C 665.242 1.20155 -1.52948 0
M  V30 7253 O 664.497 1.81964 -0.72026 0
M  V30 7254 C 664.796 -0.168298 -3.57004 0
M  V30 7255 C 664.462 -1.50415 -4.25072 0
M  V30 7256 C 663.124 -1.86992 -4.43382 0
M  V30 7257 C 665.476 -2.38414 -4.63474 0
M  V30 7258 C 662.804 -3.11203 -4.97363 0
M  V30 7259 C 665.156 -3.61933 -5.18833 0
M  V30 7260 C 663.82 -3.98685 -5.35356 0
M  V30 7261 H 663.09 -0.0696305 -0.737721 0
M  V30 7262 H 665.737 -0.864044 -1.70899 0
M  V30 7263 H 664.042 0.588958 -3.87348 0
M  V30 7264 H 665.739 0.22001 -4.00396 0
M  V30 7265 H 662.329 -1.20959 -4.11177 0
M  V30 7266 H 666.513 -2.11442 -4.49006 0
M  V30 7267 H 661.769 -3.39705 -5.08341 0
M  V30 7268 H 665.943 -4.30326 -5.47533 0
M  V30 7269 H 663.57 -4.95009 -5.76949 0
M  V30 7270 N 665.145 1.52092 -0.413018 0
M  V30 7271 C 666.393 2.01456 0.161178 0
M  V30 7272 C 666.714 1.30034 1.45314 0
M  V30 7273 O 665.984 0.427435 1.9118 0
M  V30 7274 H 664.564 0.744376 0.0625526 0
M  V30 7275 H 667.226 1.86974 -0.550151 0
M  V30 7276 H 666.322 3.1008 0.354517 0
M  V30 7277 N 666.623 0.143563 1.56945 0
M  V30 7278 C 668.039 -0.212877 1.58174 0
M  V30 7279 C 668.239 -1.64926 1.15766 0
M  V30 7280 O 667.295 -2.37535 0.856361 0
M  V30 7281 C 668.608 0.0427573 3.0067 0
M  V30 7282 C 670.156 -0.0212221 3.12993 0
M  V30 7283 C 670.631 0.207036 4.57532 0
M  V30 7284 N 672.122 0.153845 4.62944 0
M  V30 7285 C 672.857 0.305018 5.72588 0
M  V30 7286 N 672.353 0.513722 6.90893 0
M  V30 7287 N 674.146 0.242862 5.61575 0
M  V30 7288 H 666.297 1.08148 1.82805 0
M  V30 7289 H 668.56 0.427831 0.84597 0
M  V30 7290 H 668.266 1.03672 3.36073 0
M  V30 7291 H 668.14 -0.678195 3.71053 0
M  V30 7292 H 670.527 -1.00574 2.77433 0
M  V30 7293 H 670.608 0.732004 2.45103 0
M  V30 7294 H 670.252 1.18863 4.93795 0
M  V30 7295 H 670.182 -0.566473 5.23544 0
M  V30 7296 H 672.673 -0.00294866 3.779 0
M  V30 7297 H 672.986 0.619273 7.70315 0
M  V30 7298 H 671.331 0.550001 6.9282 0
M  V30 7299 H 674.522 0.0806015 4.68031 0
M  V30 7300 H 674.695 0.364112 6.46976 0
M  V30 7301 N 668.101 -1.57061 -0.130224 0
M  V30 7302 C 669.349 -1.83893 -0.838313 0
M  V30 7303 C 669.67 -0.727046 -1.80939 0
M  V30 7304 O 668.94 0.249927 -1.94299 0
M  V30 7305 H 667.52 -0.67846 -0.312573 0
M  V30 7306 H 670.182 -1.94529 -0.120224 0
M  V30 7307 H 669.278 -2.79419 -1.39038 0
M  V30 7308 N 669.579 0.400081 -1.52437 0
M  V30 7309 C 670.827 1.14392 -1.6661 0
M  V30 7310 C 671.148 1.90792 -0.402927 0
M  V30 7311 O 670.418 1.87042 0.582425 0
M  V30 7312 H 668.998 0.425275 -0.614125 0
M  V30 7313 H 671.66 0.455076 -1.89513 0
M  V30 7314 H 670.756 1.85298 -2.51139 0
M  V30 7315 N 671.057 1.43213 0.657864 0
M  V30 7316 C 672.305 1.44298 1.41501 0
M  V30 7317 C 672.626 0.0666478 1.94886 0
M  V30 7318 O 671.896 -0.897345 1.74139 0
M  V30 7319 H 670.476 0.531257 0.525143 0
M  V30 7320 H 673.138 1.78777 0.776195 0
M  V30 7321 H 672.234 2.1528 2.25966 0
M  V30 7322 N 672.536 -0.895792 1.29666 0
M  V30 7323 C 673.761 -1.68528 1.20885 0
M  V30 7324 C 674.186 -1.8673 -0.226595 0
M  V30 7325 O 673.544 -1.39044 -1.16347 0
M  V30 7326 C 673.592 -3.04512 1.93144 0
M  V30 7327 O 672.696 -3.92963 1.25115 0
M  V30 7328 H 672.037 -0.515371 0.418675 0
M  V30 7329 H 674.567 -1.11878 1.71302 0
M  V30 7330 H 674.577 -3.54628 2.0175 0
M  V30 7331 H 673.252 -2.90582 2.97548 0
M  V30 7332 H 671.829 -3.51399 1.24794 0
M  V30 7333 N 674.014 -1.12206 -1.10668 0
M  V30 7334 C 674.946 -0.74552 -2.16736 0
M  V30 7335 C 675.959 0.226696 -1.61214 0
M  V30 7336 O 677.148 0.0083936 -1.78498 0
M  V30 7337 C 674.248 -0.0823368 -3.388 0
M  V30 7338 C 673.421 -1.08341 -4.2377 0
M  V30 7339 C 672.48 -0.448292 -5.24287 0
M  V30 7340 O 671.506 -1.10458 -5.58379 0
M  V30 7341 N 672.708 0.785336 -5.75163 0
M  V30 7342 H 675.473 -1.65818 -2.49649 0
M  V30 7343 H 673.034 -1.01335 -1.26265 0
M  V30 7344 H 675.026 0.354476 -4.03145 0
M  V30 7345 H 673.596 0.733041 -3.03884 0
M  V30 7346 H 672.816 -1.69792 -3.55759 0
M  V30 7347 H 674.104 -1.76042 -4.77375 0
M  V30 7348 H 673.502 1.33755 -5.4966 0
M  V30 7349 H 672.059 1.16501 -6.41304 0
M  V30 7350 N 675.492 1.28418 -0.913599 0
M  V30 7351 C 676.769 1.89977 -0.465619 0
M  V30 7352 C 677.149 1.82813 1.05559 0
M  V30 7353 O 676.497 1.26397 1.90358 0
M  V30 7354 C 676.707 3.34492 -0.995813 0
M  V30 7355 C 678.055 4.11468 -1.04782 0
M  V30 7356 O 679.079 3.43451 -0.944445 0
M  V30 7357 O 677.938 5.33046 -1.20518 0
M  V30 7358 H 675.032 0.813734 -0.147532 0
M  V30 7359 H 677.578 1.36786 -1.00437 0
M  V30 7360 H 676.35 3.33929 -2.03978 0
M  V30 7361 H 675.973 3.95181 -0.437878 0
M  V30 7362 N 676.97 0.677563 1.42291 0
M  V30 7363 C 678.195 0.207901 2.06355 0
M  V30 7364 C 678.62 -1.12723 1.50583 0
M  V30 7365 O 677.978 -1.70171 0.62543 0
M  V30 7366 C 678.026 0.156489 3.6026 0
M  V30 7367 O 677.13 -0.874162 4.03029 0
M  V30 7368 H 676.471 0.106056 0.655475 0
M  V30 7369 H 679.001 0.927354 1.82377 0
M  V30 7370 H 679.011 -0.0187258 4.07996 0
M  V30 7371 H 677.686 1.13101 4.00226 0
M  V30 7372 H 676.263 -0.669764 3.66836 0
M  V30 7373 N 678.448 -1.51871 0.421078 0
M  V30 7374 C 679.673 -2.0684 -0.152371 0
M  V30 7375 C 680.098 -1.28802 -1.37083 0
M  V30 7376 O 679.456 -0.321482 -1.78427 0
M  V30 7377 C 679.504 -3.57532 -0.469368 0
M  V30 7378 O 678.608 -3.81818 -1.55848 0
M  V30 7379 H 677.949 -0.663939 -0.00898586 0
M  V30 7380 H 680.479 -1.95674 0.597724 0
M  V30 7381 H 680.489 -4.01515 -0.724553 0
M  V30 7382 H 679.164 -4.13761 0.421276 0
M  V30 7383 H 677.741 -3.49709 -1.29453 0
M  V30 7384 N 679.926 -0.151884 -1.56866 0
M  V30 7385 C 680.889 0.771861 -2.15812 0
M  V30 7386 C 681.889 1.17181 -1.10115 0
M  V30 7387 O 683.079 1.09194 -1.35729 0
M  V30 7388 C 680.211 2.04806 -2.7252 0
M  V30 7389 H 681.404 0.259021 -2.98779 0
M  V30 7390 H 678.957 0.097588 -1.55995 0
M  V30 7391 H 679.692 2.60445 -1.93233 0
M  V30 7392 H 679.477 1.77044 -3.49854 0
M  V30 7393 H 680.967 2.70771 -3.1792 0
M  V30 7394 N 681.404 1.57128 0.121893 0
M  V30 7395 C 682.314 2.03425 1.16857 0
M  V30 7396 C 683.33 0.954108 1.45509 0
M  V30 7397 O 684.506 1.26541 1.56682 0
M  V30 7398 C 681.571 2.42685 2.47599 0
M  V30 7399 C 680.632 3.64767 2.2637 0
M  V30 7400 C 679.865 4.02145 3.50878 0
M  V30 7401 O 680.088 3.39897 4.58068 0
M  V30 7402 O 679.022 4.95262 3.42051 0
M  V30 7403 H 682.848 2.92825 0.80544 0
M  V30 7404 H 680.433 1.45654 0.332477 0
M  V30 7405 H 682.315 2.68684 3.24634 0
M  V30 7406 H 680.99 1.56432 2.83392 0
M  V30 7407 H 679.897 3.43922 1.47203 0
M  V30 7408 H 681.23 4.51716 1.95482 0
M  V30 7409 N 682.882 -0.391992 1.52647 0
M  V30 7410 C 684.11 -1.1586 1.71418 0
M  V30 7411 C 684.525 -1.8381 0.431216 0
M  V30 7412 O 683.882 -1.7256 -0.594085 0
M  V30 7413 C 683.933 -2.20888 2.86165 0
M  V30 7414 O 683.654 -1.5571 4.09495 0
M  V30 7415 C 685.155 -3.103 3.1659 0
M  V30 7416 H 682.375 -0.347494 0.574011 0
M  V30 7417 H 684.919 -0.458972 1.99283 0
M  V30 7418 H 683.074 -2.86492 2.6077 0
M  V30 7419 H 683.488 -2.25474 4.73563 0
M  V30 7420 H 684.962 -3.8003 4.00351 0
M  V30 7421 H 685.439 -3.73639 2.30848 0
M  V30 7422 H 686.045 -2.50345 3.43813 0
M  V30 7423 N 684.36 -1.4356 -0.65026 0
M  V30 7424 C 685.771 -1.40324 -1.2315 0
M  V30 7425 C 686.122 -0.108812 -1.95898 0
M  V30 7426 O 685.247 0.79163 -2.01401 0
M  V30 7427 C 685.842 -2.54195 -2.23987 0
M  V30 7428 C 684.401 -2.54215 -2.77582 0
M  V30 7429 C 683.548 -2.31752 -1.5227 0
M  V30 7430 H 686.499 -1.52418 -0.442095 0
M  V30 7431 H 686.52 -2.25854 -3.0622 0
M  V30 7432 H 686.032 -3.48392 -1.71011 0
M  V30 7433 H 684.133 -1.63907 -3.34612 0
M  V30 7434 H 684.246 -3.52081 -3.24925 0
M  V30 7435 H 682.61 -1.80476 -1.79723 0
M  V30 7436 H 683.393 -3.28037 -1.01225 0
M  V30 7437 N 685.838 0.888903 -1.30139 0
M  V30 7438 C 686.768 2.01046 -1.18755 0
M  V30 7439 C 687.749 1.69916 -0.0791438 0
M  V30 7440 O 688.934 1.92445 -0.260498 0
M  V30 7441 C 686.064 3.36109 -0.874518 0
M  V30 7442 C 685.018 3.81486 -1.94043 0
M  V30 7443 C 684.344 5.13796 -1.48047 0
M  V30 7444 C 685.644 4.00637 -3.35093 0
M  V30 7445 H 687.338 2.10828 -2.12584 0
M  V30 7446 H 684.884 1.01298 -1.02346 0
M  V30 7447 H 686.837 4.14089 -0.781548 0
M  V30 7448 H 685.561 3.26449 0.0994519 0
M  V30 7449 H 684.22 3.05731 -2.02297 0
M  V30 7450 H 683.868 5.0056 -0.494878 0
M  V30 7451 H 683.568 5.45127 -2.19341 0
M  V30 7452 H 685.092 5.94305 -1.40121 0
M  V30 7453 H 686.506 4.69067 -3.2962 0
M  V30 7454 H 684.903 4.43339 -4.04438 0
M  V30 7455 H 685.973 3.0462 -3.77273 0
M  V30 7456 N 687.317 1.12792 1.10072 0
M  V30 7457 C 688.28 0.802264 2.14701 0
M  V30 7458 C 689.28 -0.18515 1.59731 0
M  V30 7459 O 690.47 0.041109 1.74151 0
M  V30 7460 C 687.602 0.19285 3.40354 0
M  V30 7461 H 688.795 1.72932 2.45019 0
M  V30 7462 H 686.348 0.931662 1.25498 0
M  V30 7463 H 687.083 -0.743748 3.15656 0
M  V30 7464 H 686.868 0.903827 3.81541 0
M  V30 7465 H 688.358 -0.0183704 4.17596 0
M  V30 7466 N 688.795 -1.27931 0.920396 0
M  V30 7467 C 690.043 -1.94304 0.555906 0
M  V30 7468 C 690.364 -1.72753 -0.904519 0
M  V30 7469 O 689.634 -1.07104 -1.64029 0
M  V30 7470 H 688.214 -0.719001 0.202599 0
M  V30 7471 H 690.876 -1.55785 1.1712 0
M  V30 7472 H 689.972 -3.02806 0.755981 0
M  V30 7473 N 690.273 -0.685099 -1.4193 0
M  V30 7474 C 691.521 -0.21124 -2.00993 0
M  V30 7475 C 691.842 1.18985 -1.54491 0
M  V30 7476 O 691.112 1.8009 -0.771 0
M  V30 7477 H 689.692 -0.0751059 -0.743215 0
M  V30 7478 H 692.354 -0.883915 -1.73704 0
M  V30 7479 H 691.45 -0.220513 -3.1132 0
M  V30 7480 N 691.751 1.51645 -0.429126 0
M  V30 7481 C 692.681 2.30434 0.377148 0
M  V30 7482 C 693.662 1.35493 1.02838 0
M  V30 7483 O 694.847 1.6441 1.03359 0
M  V30 7484 C 691.977 3.14038 1.48315 0
M  V30 7485 C 690.931 4.1719 0.955855 0
M  V30 7486 C 690.257 4.89263 2.15698 0
M  V30 7487 C 691.557 5.223 -0.00402136 0
M  V30 7488 H 693.251 2.98085 -0.280336 0
M  V30 7489 H 690.797 1.43354 -0.136265 0
M  V30 7490 H 692.75 3.67933 2.05435 0
M  V30 7491 H 691.474 2.44193 2.16881 0
M  V30 7492 H 690.133 3.64335 0.406929 0
M  V30 7493 H 689.781 4.15929 2.82864 0
M  V30 7494 H 689.481 5.59009 1.81059 0
M  V30 7495 H 691.005 5.45978 2.73387 0
M  V30 7496 H 692.419 5.71315 0.476607 0
M  V30 7497 H 690.816 5.99525 -0.26258 0
M  V30 7498 H 691.886 4.75638 -0.943236 0
M  V30 7499 N 693.229 0.160201 1.56784 0
M  V30 7500 C 694.64 -0.358417 1.83227 0
M  V30 7501 C 694.991 -1.63831 1.07952 0
M  V30 7502 O 694.116 -2.13885 0.328995 0
M  V30 7503 C 694.711 -0.657058 3.32368 0
M  V30 7504 C 693.27 -1.12015 3.59346 0
M  V30 7505 C 692.417 -0.15015 2.76893 0
M  V30 7506 H 695.368 0.384669 1.53967 0
M  V30 7507 H 695.389 -1.51033 3.49241 0
M  V30 7508 H 694.901 0.274647 3.87127 0
M  V30 7509 H 693.002 -2.06734 3.09987 0
M  V30 7510 H 693.115 -1.037 4.67743 0
M  V30 7511 H 691.479 -0.645361 2.46388 0
M  V30 7512 H 692.262 0.775379 3.34429 0
M  V30 7513 N 694.707 -1.5719 -0.113559 0
M  V30 7514 C 696.123 -1.52607 -0.467253 0
M  V30 7515 C 696.323 -0.874058 -1.81556 0
M  V30 7516 O 695.379 -0.458703 -2.48299 0
M  V30 7517 C 696.692 -2.97363 -0.446736 0
M  V30 7518 C 698.24 -3.08482 -0.529903 0
M  V30 7519 C 698.715 -4.54809 -0.539721 0
M  V30 7520 N 700.206 -4.59284 -0.601005 0
M  V30 7521 C 700.941 -5.69927 -0.630138 0
M  V30 7522 N 700.437 -6.90051 -0.616589 0
M  V30 7523 N 702.23 -5.5805 -0.673558 0
M  V30 7524 H 694.381 -1.97958 0.769819 0
M  V30 7525 H 696.644 -0.90428 0.284572 0
M  V30 7526 H 696.35 -3.48458 0.47643 0
M  V30 7527 H 696.224 -3.55086 -1.27254 0
M  V30 7528 H 698.611 -2.57386 -1.44349 0
M  V30 7529 H 698.692 -2.53744 0.323695 0
M  V30 7530 H 698.336 -5.06552 0.369843 0
M  V30 7531 H 698.266 -5.07364 -1.41028 0
M  V30 7532 H 700.757 -3.72822 -0.617419 0
M  V30 7533 H 701.07 -7.70132 -0.641592 0
M  V30 7534 H 699.415 -6.92543 -0.583927 0
M  V30 7535 H 702.606 -4.63112 -0.681544 0
M  V30 7536 H 702.779 -6.44286 -0.692794 0
M  V30 7537 N 696.185 0.383891 -1.52853 0
M  V30 7538 C 697.115 1.47559 -1.80965 0
M  V30 7539 C 698.096 1.5669 -0.661986 0
M  V30 7540 O 699.281 1.71556 -0.910072 0
M  V30 7541 C 696.411 2.85114 -1.98312 0
M  V30 7542 C 695.365 2.9082 -3.14019 0
M  V30 7543 C 694.691 4.30873 -3.16627 0
M  V30 7544 C 695.991 2.60001 -4.52986 0
M  V30 7545 H 697.685 1.24283 -2.72386 0
M  V30 7546 H 695.231 0.596445 -1.31067 0
M  V30 7547 H 697.184 3.61496 -2.16561 0
M  V30 7548 H 695.908 3.09738 -1.03585 0
M  V30 7549 H 694.567 2.16886 -2.9556 0
M  V30 7550 H 694.215 4.52545 -2.19573 0
M  V30 7551 H 693.915 4.3561 -3.94357 0
M  V30 7552 H 695.439 5.09154 -3.37038 0
M  V30 7553 H 696.853 3.261 -4.71521 0
M  V30 7554 H 695.25 2.76081 -5.32822 0
M  V30 7555 H 696.32 1.5532 -4.59351 0
M  V30 7556 N 697.663 1.43903 0.642637 0
M  V30 7557 C 698.626 1.49538 1.73698 0
M  V30 7558 C 699.626 0.378776 1.56275 0
M  V30 7559 O 700.816 0.64095 1.6198 0
M  V30 7560 C 697.948 1.35821 3.12675 0
M  V30 7561 H 699.141 2.47008 1.70079 0
M  V30 7562 H 696.694 1.30824 0.85526 0
M  V30 7563 H 697.429 0.393994 3.21898 0
M  V30 7564 H 697.214 2.16776 3.26727 0
M  V30 7565 H 698.704 1.4272 3.92455 0
M  V30 7566 N 699.141 -0.881989 1.30609 0
M  V30 7567 C 700.051 -2.02076 1.19174 0
M  V30 7568 C 701.067 -1.73645 0.11102 0
M  V30 7569 O 702.243 -1.98735 0.326528 0
M  V30 7570 C 699.308 -3.3515 0.887438 0
M  V30 7571 C 698.369 -3.76983 2.05383 0
M  V30 7572 C 697.602 -5.03707 1.76395 0
M  V30 7573 O 697.825 -5.66171 0.693302 0
M  V30 7574 O 696.759 -5.42019 2.61723 0
M  V30 7575 H 700.585 -2.14652 2.14845 0
M  V30 7576 H 698.17 -1.00843 1.10232 0
M  V30 7577 H 700.052 -4.14975 0.73306 0
M  V30 7578 H 698.727 -3.23676 -0.0393354 0
M  V30 7579 H 697.634 -2.97849 2.26355 0
M  V30 7580 H 698.967 -3.93066 2.96243 0
M  V30 7581 N 700.619 -1.13374 -1.09472 0
M  V30 7582 C 701.844 -0.918711 -1.85942 0
M  V30 7583 C 702.269 0.527225 -1.8056 0
M  V30 7584 O 701.627 1.37408 -1.18274 0
M  V30 7585 C 701.675 -1.41056 -3.31867 0
M  V30 7586 O 700.779 -0.595496 -4.08078 0
M  V30 7587 H 700.12 -0.329297 -0.576593 0
M  V30 7588 H 702.65 -1.50829 -1.38245 0
M  V30 7589 H 702.66 -1.41398 -3.82715 0
M  V30 7590 H 701.335 -2.46335 -3.35099 0
M  V30 7591 H 699.912 -0.659911 -3.67014 0
M  V30 7592 N 702.098 1.27442 -0.927168 0
M  V30 7593 C 703.509 1.76385 -0.611979 0
M  V30 7594 C 703.86 1.75715 0.872853 0
M  V30 7595 O 702.985 1.3603 1.683 0
M  V30 7596 C 703.58 3.20303 -1.10414 0
M  V30 7597 C 702.139 3.66916 -0.839628 0
M  V30 7598 C 701.286 2.46859 -1.26317 0
M  V30 7599 H 704.237 1.13716 -1.107 0
M  V30 7600 H 704.258 3.77811 -0.451578 0
M  V30 7601 H 703.77 3.20759 -2.18484 0
M  V30 7602 H 701.871 3.71906 0.227292 0
M  V30 7603 H 701.984 4.56415 -1.45679 0
M  V30 7604 H 700.348 2.45407 -0.681723 0
M  V30 7605 H 701.131 2.50025 -2.3525 0
M  V30 7606 N 703.576 0.692616 1.41565 0
M  V30 7607 C 704.823 0.222335 2.01276 0
M  V30 7608 C 705.151 -1.17706 1.5484 0
M  V30 7609 O 704.406 -1.80795 0.749118 0
M  V30 7610 C 704.705 0.225073 3.56691 0
M  V30 7611 C 704.371 1.57158 4.22625 0
M  V30 7612 C 703.033 1.94022 4.40351 0
M  V30 7613 C 705.385 2.45758 4.59622 0
M  V30 7614 C 702.713 3.19076 4.92349 0
M  V30 7615 C 705.065 3.70141 5.13009 0
M  V30 7616 C 703.729 4.07152 5.28946 0
M  V30 7617 H 702.999 0.0813581 0.73652 0
M  V30 7618 H 705.646 0.891123 1.69503 0
M  V30 7619 H 703.951 -0.527259 3.88236 0
M  V30 7620 H 705.648 -0.156283 4.00695 0
M  V30 7621 H 702.238 1.27486 4.09201 0
M  V30 7622 H 706.422 2.18558 4.45585 0
M  V30 7623 H 701.678 3.4775 5.02872 0
M  V30 7624 H 705.852 4.38983 5.40617 0
M  V30 7625 H 703.479 5.04125 5.69001 0
M  V30 7626 O 705.093 -1.50756 0.579208 0
M  V30 7627 H 705.784 -1.93523 0.0829038 0
M  V30 END ATOM
M  V30 BEGIN BOND
M  V30 END BOND
M  V30 END CTAB
M  END
$$$$
