drugbank_target|O94804 Serine/threonine-protein kinase 10 (DB12010)
 OpenBabel12092121193D

  0  0  0     0  0            999 V3000
M  V30 BEGIN CTAB
M  V30 COUNTS 15735 15855 0 0 0
M  V30 BEGIN ATOM
M  V30 1 H -0.908 1.98254 -0.117106 0
M  V30 2 N 0 1.576 0 0
M  V30 3 C 0.933 2.03868 1.02534 0
M  V30 4 C 1.911 0.928543 1.3348 0
M  V30 5 O 3.095 1.19667 1.45644 0
M  V30 6 C 0.222 2.43627 2.35294 0
M  V30 7 C -0.732 3.65373 2.2001 0
M  V30 8 S 0.101 5.13292 1.52614 0
M  V30 9 C 1.257 5.56322 2.86805 0
M  V30 10 H 1.49 2.90518 0.631377 0
M  V30 11 H -0.977 1.52953 0.210867 0
M  V30 12 H 0.981 2.67203 3.11629 0
M  V30 13 H -0.358 1.57376 2.7183 0
M  V30 14 H -1.165 3.90944 3.18086 0
M  V30 15 H -1.563 3.418 1.51819 0
M  V30 16 H 0.729 5.58782 3.83104 0
M  V30 17 H 1.672 6.56266 2.65933 0
M  V30 18 H 2.08 4.83886 2.90714 0
M  V30 19 N 1.4781 -0.272755 1.55222 0
M  V30 20 C 2.4411 -1.32041 1.87344 0
M  V30 21 C 3.4411 -1.42342 0.74803 0
M  V30 22 O 4.6311 -1.41488 1.0162 0
M  V30 23 C 1.7631 -2.70173 2.07893 0
M  V30 24 H 2.9561 -1.04789 2.80997 0
M  V30 25 H 0.5091 -0.51083 1.47717 0
M  V30 26 H 1.2441 -3.02605 1.16622 0
M  V30 27 H 1.0291 -2.64082 2.89833 0
M  V30 28 H 2.5191 -3.45869 2.34017 0
M  V30 29 N 2.9562 -1.48159 -0.537278 0
M  V30 30 C 4.2032 -1.55804 -1.29349 0
M  V30 31 C 4.5312 -0.228802 -1.9315 0
M  V30 32 O 3.7862 0.780242 -1.79473 0
M  V30 33 C 4.0852 -2.63956 -2.40961 0
M  V30 34 C 3.7512 -4.0662 -1.94861 0
M  V30 35 C 2.4132 -4.45452 -1.82006 0
M  V30 36 C 4.7652 -4.96055 -1.59933 0
M  V30 37 C 2.0932 -5.71531 -1.32547 0
M  V30 38 C 4.4452 -6.22617 -1.11939 0
M  V30 39 C 3.1092 -6.60312 -0.976951 0
M  V30 40 H 2.3792 -0.570129 -0.473322 0
M  V30 41 H 5.0262 -1.81845 -0.600372 0
M  V30 42 H 3.3312 -2.31747 -3.15912 0
M  V30 43 H 5.0282 -2.67089 -2.99107 0
M  V30 44 H 1.6182 -3.75949 -2.05815 0
M  V30 45 H 5.8022 -4.66738 -1.68728 0
M  V30 46 H 1.0582 -5.99468 -1.202 0
M  V30 47 H 5.2322 -6.91318 -0.839811 0
M  V30 48 H 2.8592 -7.57895 -0.591501 0
M  V30 49 N 4.4343 0.785586 -1.36625 0
M  V30 50 C 5.3973 1.87999 -1.31107 0
M  V30 51 C 6.3973 1.59316 -0.217959 0
M  V30 52 O 7.5873 1.67656 -0.472977 0
M  V30 53 C 4.7193 3.24861 -1.03334 0
M  V30 54 H 5.9123 1.94307 -2.2844 0
M  V30 55 H 3.4653 0.983813 -1.21453 0
M  V30 56 H 4.2003 3.24235 -0.0647432 0
M  V30 57 H 3.9853 3.4707 -1.82441 0
M  V30 58 H 5.4753 4.04929 -1.02088 0
M  V30 59 N 5.9124 1.20967 1.01018 0
M  V30 60 C 6.8604 0.961223 2.1181 0
M  V30 61 C 7.8544 -0.0897034 1.69162 0
M  V30 62 O 9.0604 0.0612271 1.79896 0
M  V30 63 H 5.4354 0.29355 0.692338 0
M  V30 64 H 7.4064 1.90178 2.29946 0
M  V30 65 C 6.1554 0.536854 3.4353 0
M  V30 66 H 5.4784 1.33713 3.76777 0
M  V30 67 H 6.9184 0.402286 4.22087 0
M  V30 68 C 5.3774 -0.751574 3.2841 0
M  V30 69 O 5.9074 -1.80841 3.58691 0
M  V30 70 N 4.1134 -0.716079 2.81639 0
M  V30 71 H 3.6604 0.144236 2.57196 0
M  V30 72 H 3.6184 -1.57847 2.71904 0
M  V30 73 N 7.3905 -1.2043 1.01659 0
M  V30 74 C 8.6375 -1.89797 0.705917 0
M  V30 75 C 8.9655 -1.78848 -0.764439 0
M  V30 76 O 8.2205 -1.16694 -1.57102 0
M  V30 77 C 8.5195 -3.40464 1.08714 0
M  V30 78 C 8.1855 -3.71614 2.5537 0
M  V30 79 C 6.8475 -3.79826 2.95441 0
M  V30 80 C 9.1995 -3.85915 3.50313 0
M  V30 81 C 6.5275 -3.99797 4.29394 0
M  V30 82 C 8.8795 -4.07396 4.83954 0
M  V30 83 C 7.5435 -4.13837 5.23732 0
M  V30 84 H 6.8135 -0.694518 0.258313 0
M  V30 85 H 9.4605 -1.42691 1.27717 0
M  V30 86 H 7.7655 -3.89385 0.434309 0
M  V30 87 H 9.4625 -3.92433 0.824461 0
M  V30 88 H 6.0525 -3.65822 2.23321 0
M  V30 89 H 10.2365 -3.78926 3.20513 0
M  V30 90 H 5.4925 -4.03018 4.59768 0
M  V30 91 H 9.6665 -4.17404 5.57447 0
M  V30 92 H 7.2935 -4.29064 6.27541 0
M  V30 93 N 8.8686 -0.792821 -1.36206 0
M  V30 94 C 10.2846 -0.474903 -1.52371 0
M  V30 95 C 10.4846 1.00622 -1.74578 0
M  V30 96 O 9.5406 1.79162 -1.77924 0
M  V30 97 C 10.8536 -1.3083 -2.70747 0
M  V30 98 C 12.4016 -1.30234 -2.84619 0
M  V30 99 C 12.8766 -2.11956 -4.06004 0
M  V30 100 N 14.3676 -2.09419 -4.13156 0
M  V30 101 C 15.1026 -2.69419 -5.06163 0
M  V30 102 N 14.5986 -3.3829 -6.04592 0
M  V30 103 N 16.3916 -2.59134 -4.98804 0
M  V30 104 H 8.5426 -1.75222 -1.20046 0
M  V30 105 H 10.8056 -0.745024 -0.586211 0
M  V30 106 H 10.5116 -2.35881 -2.6087 0
M  V30 107 H 10.3856 -0.95196 -3.6499 0
M  V30 108 H 12.7726 -0.259748 -2.93955 0
M  V30 109 H 12.8536 -1.69847 -1.91274 0
M  V30 110 H 12.4976 -3.16248 -3.97429 0
M  V30 111 H 12.4276 -1.69711 -4.98503 0
M  V30 112 H 14.9186 -1.59297 -3.42685 0
M  V30 113 H 15.2316 -3.81394 -6.7213 0
M  V30 114 H 13.5766 -3.42393 -6.04807 0
M  V30 115 H 16.7676 -2.04927 -4.20859 0
M  V30 116 H 16.9406 -3.06185 -5.711 0
M  V30 117 N 10.3467 1.47872 -0.545128 0
M  V30 118 C 11.7627 1.5829 -0.204032 0
M  V30 119 C 11.9627 1.54529 1.29317 0
M  V30 120 O 11.0187 1.44232 2.07252 0
M  V30 121 C 12.3317 2.89304 -0.819987 0
M  V30 122 C 13.8797 3.02864 -0.790105 0
M  V30 123 C 14.3547 4.3656 -1.38491 0
M  V30 124 N 15.8457 4.43165 -1.34755 0
M  V30 125 C 16.5807 5.45153 -1.77753 0
M  V30 126 N 16.0767 6.54016 -2.2855 0
M  V30 127 N 17.8697 5.36125 -1.68897 0
M  V30 128 H 10.0207 1.4856 -1.51802 0
M  V30 129 H 12.2837 0.706305 -0.632327 0
M  V30 130 H 11.9897 2.97757 -1.87173 0
M  V30 131 H 11.8637 3.75957 -0.305915 0
M  V30 132 H 14.2507 2.94014 0.252913 0
M  V30 133 H 14.3317 2.17782 -1.34181 0
M  V30 134 H 13.9757 4.46164 -2.42693 0
M  V30 135 H 13.9057 5.20353 -0.808754 0
M  V30 136 H 16.3967 3.65083 -0.975855 0
M  V30 137 H 16.7097 7.27994 -2.59314 0
M  V30 138 H 15.0547 6.54938 -2.32553 0
M  V30 139 H 18.2457 4.49975 -1.28998 0
M  V30 140 H 18.4187 6.15472 -2.02726 0
M  V30 141 N 11.8248 0.280983 1.55075 0
M  V30 142 C 13.0738 -0.334784 1.98902 0
M  V30 143 C 13.3868 -1.56534 1.17288 0
M  V30 144 O 14.5928 -2.25443 1.51287 0
M  V30 145 C 13.0488 -0.646994 3.54037 0
M  V30 146 C 12.6568 0.564085 4.44435 0
M  V30 147 C 14.4008 -1.22506 4.06439 0
M  V30 148 C 12.3078 0.226137 5.90967 0
M  V30 149 H 11.2378 -0.128866 0.742906 0
M  V30 150 H 13.8888 0.386556 1.79382 0
M  V30 151 H 12.2708 -1.42739 3.6938 0
M  V30 152 H 13.4448 1.34082 4.40861 0
M  V30 153 H 11.7598 1.0594 4.02698 0
M  V30 154 H 14.3568 -1.49182 5.13468 0
M  V30 155 H 14.6998 -2.16085 3.55827 0
M  V30 156 H 15.2328 -0.50682 3.94558 0
M  V30 157 H 11.9718 1.12996 6.45687 0
M  V30 158 H 11.4918 -0.513717 5.97596 0
M  V30 159 H 13.1708 -0.179539 6.46751 0
M  V30 160 N 13.3029 -1.57598 0.00835791 0
M  V30 161 C 14.2329 -2.1198 -0.979113 0
M  V30 162 C 15.2139 -1.03091 -1.35301 0
M  V30 163 O 16.3989 -1.30818 -1.43528 0
M  V30 164 C 13.5289 -2.62995 -2.26828 0
M  V30 165 C 12.4829 -3.76485 -2.03576 0
M  V30 166 C 11.8089 -4.13846 -3.38579 0
M  V30 167 C 13.1089 -5.0342 -1.39161 0
M  V30 168 H 14.8029 -2.94738 -0.526281 0
M  V30 169 H 12.3489 -1.41783 -0.251704 0
M  V30 170 H 14.3019 -2.99669 -2.96271 0
M  V30 171 H 13.0259 -1.7737 -2.7424 0
M  V30 172 H 11.6849 -3.40217 -1.36557 0
M  V30 173 H 11.3329 -3.25232 -3.83709 0
M  V30 174 H 11.0329 -4.90312 -3.23834 0
M  V30 175 H 12.5569 -4.53086 -4.09323 0
M  V30 176 H 13.9709 -5.37812 -1.98573 0
M  V30 177 H 12.3679 -5.84746 -1.34878 0
M  V30 178 H 13.4379 -4.83548 -0.361868 0
M  V30 179 N 14.781 0.264519 -1.55364 0
M  V30 180 C 16.197 0.61215 -1.47394 0
M  V30 181 C 16.397 1.89134 -0.695018 0
M  V30 182 O 15.453 2.51563 -0.217275 0
M  V30 183 C 16.766 0.731235 -2.91674 0
M  V30 184 C 18.314 0.82473 -3.01939 0
M  V30 185 C 18.789 0.975522 -4.4749 0
M  V30 186 N 20.28 1.04083 -4.51354 0
M  V30 187 C 21.015 1.17646 -5.61201 0
M  V30 188 N 20.511 1.27874 -6.80896 0
M  V30 189 N 22.304 1.20823 -5.48961 0
M  V30 190 H 14.455 -0.575456 -2.04456 0
M  V30 191 H 16.718 -0.196099 -0.927496 0
M  V30 192 H 16.424 -0.138392 -3.51428 0
M  V30 193 H 16.298 1.60883 -3.41169 0
M  V30 194 H 18.685 1.68482 -2.42276 0
M  V30 195 H 18.766 -0.0776479 -2.55682 0
M  V30 196 H 18.41 0.120058 -5.07758 0
M  V30 197 H 18.34 1.89268 -4.91412 0
M  V30 198 H 20.831 0.973846 -3.65136 0
M  V30 199 H 21.144 1.38081 -7.60364 0
M  V30 200 H 19.489 1.24863 -6.83692 0
M  V30 201 H 22.68 1.12469 -4.54388 0
M  V30 202 H 22.853 1.31049 -6.3461 0
M  V30 203 N 16.2591 1.48442 0.529413 0
M  V30 204 C 17.1891 1.65902 1.64313 0
M  V30 205 C 18.1701 0.507897 1.6234 0
M  V30 206 O 19.3551 0.740503 1.79528 0
M  V30 207 C 16.4851 1.69911 3.02898 0
M  V30 208 C 15.4391 2.8453 3.19729 0
M  V30 209 C 14.7651 2.73629 4.59381 0
M  V30 210 C 16.0651 4.25821 3.02447 0
M  V30 211 H 17.7591 2.5914 1.49955 0
M  V30 212 H 15.3051 1.24709 0.719982 0
M  V30 213 H 17.2581 1.80715 3.80684 0
M  V30 214 H 15.9821 0.732524 3.18279 0
M  V30 215 H 14.6411 2.73283 2.44361 0
M  V30 216 H 14.2891 1.74938 4.71599 0
M  V30 217 H 13.9891 3.50541 4.71588 0
M  V30 218 H 15.5131 2.86401 5.39265 0
M  V30 219 H 16.9271 4.37898 3.70024 0
M  V30 220 H 15.3241 5.03735 3.26146 0
M  V30 221 H 16.3941 4.42244 1.98867 0
M  V30 222 N 17.7372 -0.778329 1.37039 0
M  V30 223 C 18.9622 -1.57248 1.35233 0
M  V30 224 C 19.3872 -1.87999 -0.0615568 0
M  V30 225 O 18.7452 -1.48734 -1.03672 0
M  V30 226 C 18.7932 -2.86353 2.19167 0
M  V30 227 O 17.8972 -3.80442 1.59178 0
M  V30 228 H 17.2382 -0.476569 0.462362 0
M  V30 229 H 19.7682 -0.963853 1.80474 0
M  V30 230 H 19.7782 -3.35519 2.32145 0
M  V30 231 H 18.4532 -2.63299 3.21942 0
M  V30 232 H 17.0302 -3.39067 1.55203 0
M  V30 233 N 19.2153 -1.21501 -1.00376 0
M  V30 234 C 20.4433 -1.059 -1.77744 0
M  V30 235 C 20.8583 0.391125 -1.84704 0
M  V30 236 O 20.2153 1.27133 -1.30933 0
M  V30 237 C 20.2663 -1.65111 -3.21591 0
M  V30 238 O 19.9873 -3.0445 -3.15027 0
M  V30 239 C 21.4883 -1.54637 -4.15454 0
M  V30 240 H 18.7083 -0.371825 -0.558558 0
M  V30 241 H 21.2523 -1.60865 -1.26264 0
M  V30 242 H 19.4073 -1.14235 -3.70175 0
M  V30 243 H 19.8213 -3.3278 -4.0541 0
M  V30 244 H 21.2953 -2.00808 -5.14179 0
M  V30 245 H 21.7723 -0.501022 -4.36333 0
M  V30 246 H 22.3783 -2.04767 -3.72761 0
M  V30 247 N 20.6934 1.19889 -1.02296 0
M  V30 248 C 21.9404 1.8942 -0.715972 0
M  V30 249 C 22.2684 1.79251 0.754944 0
M  V30 250 O 21.5234 1.17526 1.56481 0
M  V30 251 C 21.8224 3.39883 -1.10518 0
M  V30 252 C 21.4884 3.70254 -2.57337 0
M  V30 253 C 20.1504 3.78254 -2.97452 0
M  V30 254 C 22.5024 3.84052 -3.52354 0
M  V30 255 C 19.8304 3.97514 -4.31509 0
M  V30 256 C 22.1824 4.04824 -4.86108 0
M  V30 257 C 20.8464 4.11054 -5.25919 0
M  V30 258 H 20.1164 0.693138 -0.261993 0
M  V30 259 H 22.7634 1.42012 -1.28472 0
M  V30 260 H 21.0684 3.8915 -0.454953 0
M  V30 261 H 22.7654 3.9199 -0.845261 0
M  V30 262 H 19.3554 3.64632 -2.25258 0
M  V30 263 H 23.5394 3.77221 -3.22518 0
M  V30 264 H 18.7954 4.00574 -4.61898 0
M  V30 265 H 22.9694 4.14442 -5.59653 0
M  V30 266 H 20.5964 4.2573 -6.29808 0
M  V30 267 N 22.1715 0.800033 1.35784 0
M  V30 268 C 23.0815 0.207204 2.33683 0
M  V30 269 C 24.0975 -0.64631 1.61551 0
M  V30 270 O 25.2735 -0.559604 1.93469 0
M  V30 271 C 22.3385 -0.639659 3.40748 0
M  V30 272 C 21.3995 0.233585 4.28664 0
M  V30 273 C 20.6325 -0.572954 5.30616 0
M  V30 274 O 20.8555 -1.80816 5.40982 0
M  V30 275 O 19.7895 0.0327285 6.01891 0
M  V30 276 H 23.6155 1.01692 2.86169 0
M  V30 277 H 21.2005 0.561691 1.38439 0
M  V30 278 H 23.0825 -1.12223 4.06182 0
M  V30 279 H 21.7575 -1.42708 2.90544 0
M  V30 280 H 20.6645 0.763147 3.66233 0
M  V30 281 H 21.9975 0.984784 4.82248 0
M  V30 282 N 23.6496 -1.47581 0.552962 0
M  V30 283 C 24.5966 -2.29957 -0.197108 0
M  V30 284 C 25.5666 -1.38799 -0.912359 0
M  V30 285 O 26.7516 -1.67761 -0.908888 0
M  V30 286 C 23.8916 -3.22672 -1.22379 0
M  V30 287 C 23.0046 -4.28919 -0.515038 0
M  V30 288 C 22.1396 -5.0879 -1.52664 0
M  V30 289 C 21.1786 -6.06815 -0.802631 0
M  V30 290 N 20.3156 -6.7966 -1.76086 0
M  V30 291 H 25.1556 -2.93578 0.511486 0
M  V30 292 H 22.6926 -1.4471 0.264067 0
M  V30 293 H 24.6506 -3.74845 -1.83159 0
M  V30 294 H 23.2806 -2.60925 -1.90047 0
M  V30 295 H 22.3326 -3.79835 0.207192 0
M  V30 296 H 23.6446 -4.98773 0.0523425 0
M  V30 297 H 22.7986 -5.65091 -2.20809 0
M  V30 298 H 21.5376 -4.38828 -2.12794 0
M  V30 299 H 20.5426 -5.49695 -0.107238 0
M  V30 300 H 21.7676 -6.78784 -0.207135 0
M  V30 301 H 19.7136 -6.12432 -2.35081 0
M  V30 302 H 19.6306 -7.45669 -1.24552 0
M  V30 303 H 20.8986 -7.40538 -2.43359 0
M  V30 304 N 25.1277 -0.289203 -1.54924 0
M  V30 305 C 26.5437 0.0645403 -1.59469 0
M  V30 306 C 26.7437 1.53419 -1.30632 0
M  V30 307 O 25.7997 2.2852 -1.074 0
M  V30 308 C 27.1127 -0.32278 -2.98963 0
M  V30 309 C 28.6607 -0.270564 -3.11828 0
M  V30 310 C 29.1357 -0.632532 -4.53611 0
M  V30 311 N 30.6267 -0.584617 -4.59496 0
M  V30 312 C 31.3617 -0.837314 -5.67254 0
M  V30 313 N 30.8577 -1.15536 -6.83098 0
M  V30 314 N 32.6507 -0.765166 -5.56868 0
M  V30 315 H 24.8017 -1.24714 -1.71931 0
M  V30 316 H 27.0647 -0.504809 -0.802416 0
M  V30 317 H 26.7707 -1.34541 -3.24948 0
M  V30 318 H 26.6447 0.32944 -3.75759 0
M  V30 319 H 29.0317 0.742805 -2.85598 0
M  V30 320 H 29.1127 -0.957242 -2.37214 0
M  V30 321 H 28.7567 -1.64365 -4.80569 0
M  V30 322 H 28.6867 0.07609 -5.26545 0
M  V30 323 H 31.1777 -0.349248 -3.76283 0
M  V30 324 H 31.4907 -1.33447 -7.61191 0
M  V30 325 H 29.8357 -1.19328 -6.84679 0
M  V30 326 H 33.0267 -0.516432 -4.65243 0
M  V30 327 H 33.1997 -0.965477 -6.40767 0
M  V30 328 N 26.6058 1.57591 -0.0167156 0
M  V30 329 C 27.5528 2.09462 0.969251 0
M  V30 330 C 28.5228 0.99381 1.33089 0
M  V30 331 O 29.7078 1.26726 1.42636 0
M  V30 332 C 26.8478 2.61622 2.25051 0
M  V30 333 C 25.9608 3.85666 1.94642 0
M  V30 334 C 25.0958 4.26266 3.16972 0
M  V30 335 C 24.1348 5.43101 2.82326 0
M  V30 336 N 23.2718 5.78915 3.97243 0
M  V30 337 H 28.1118 2.93428 0.519997 0
M  V30 338 H 25.6488 1.45044 0.245087 0
M  V30 339 H 27.6068 2.89949 2.99976 0
M  V30 340 H 26.2368 1.80505 2.67615 0
M  V30 341 H 25.2888 3.64145 1.10013 0
M  V30 342 H 26.6008 4.70678 1.65117 0
M  V30 343 H 25.7548 4.55963 4.00228 0
M  V30 344 H 24.4938 3.39996 3.49648 0
M  V30 345 H 23.4988 5.1311 1.97479 0
M  V30 346 H 24.7238 6.3106 2.50879 0
M  V30 347 H 22.6698 4.95602 4.29785 0
M  V30 348 H 22.5868 6.58539 3.71299 0
M  V30 349 H 23.8548 6.13212 4.81239 0
M  V30 350 N 28.0839 -0.256276 1.55502 0
M  V30 351 C 29.3089 -1.00766 1.81276 0
M  V30 352 C 29.7339 -1.78524 0.59252 0
M  V30 353 O 29.0919 -1.75413 -0.45827 0
M  V30 354 C 29.1399 -1.92869 3.04687 0
M  V30 355 O 28.2439 -3.019 2.80945 0
M  V30 356 H 27.5849 -0.287224 0.598664 0
M  V30 357 H 30.1149 -0.280109 2.02674 0
M  V30 358 H 30.1249 -2.34511 3.33869 0
M  V30 359 H 28.7999 -1.35689 3.93143 0
M  V30 360 H 27.3769 -2.64454 2.62904 0
M  V30 361 N 29.562 -1.4872 -0.521534 0
M  V30 362 C 30.978 -1.35028 -0.850855 0
M  V30 363 C 31.178 -0.367712 -1.98116 0
M  V30 364 O 30.234 0.208037 -2.51642 0
M  V30 365 C 31.547 -2.75263 -1.21041 0
M  V30 366 C 33.095 -2.83813 -1.31981 0
M  V30 367 C 33.57 -4.24769 -1.71276 0
M  V30 368 N 35.061 -4.27482 -1.78363 0
M  V30 369 C 35.796 -5.33494 -2.1017 0
M  V30 370 N 35.292 -6.49775 -2.40343 0
M  V30 371 N 37.085 -5.20894 -2.11248 0
M  V30 372 H 29.236 -2.11214 0.22413 0
M  V30 373 H 31.499 -0.947252 0.0376439 0
M  V30 374 H 31.205 -3.48765 -0.453415 0
M  V30 375 H 31.079 -3.09327 -2.15863 0
M  V30 376 H 33.466 -2.10561 -2.06756 0
M  V30 377 H 33.547 -2.53358 -0.352596 0
M  V30 378 H 33.191 -4.9854 -0.970588 0
M  V30 379 H 33.121 -4.52673 -2.69062 0
M  V30 380 H 35.612 -3.43611 -1.57288 0
M  V30 381 H 35.925 -7.26402 -2.63743 0
M  V30 382 H 34.27 -6.53035 -2.37844 0
M  V30 383 H 37.461 -4.29065 -1.87139 0
M  V30 384 H 37.634 -6.03612 -2.35704 0
M  V30 385 N 31.0401 0.771051 -1.3745 0
M  V30 386 C 31.9501 1.91538 -1.35464 0
M  V30 387 C 32.9661 1.72134 -0.254123 0
M  V30 388 O 34.1421 1.95358 -0.489626 0
M  V30 389 C 31.2071 3.26671 -1.16134 0
M  V30 390 C 30.2681 3.58723 -2.35831 0
M  V30 391 C 29.5011 4.87409 -2.17413 0
M  V30 392 O 29.7241 5.58506 -1.15876 0
M  V30 393 O 28.6581 5.18539 -3.05615 0
M  V30 394 H 32.4841 1.96165 -2.31847 0
M  V30 395 H 30.0691 0.9139 -1.18187 0
M  V30 396 H 31.9511 4.07499 -1.07345 0
M  V30 397 H 30.6261 3.22894 -0.228251 0
M  V30 398 H 29.5331 2.78127 -2.50192 0
M  V30 399 H 30.8661 3.67243 -3.27709 0
M  V30 400 N 32.5182 1.22032 0.997298 0
M  V30 401 C 33.7482 1.06686 1.76923 0
M  V30 402 C 34.1562 -0.385838 1.85224 0
M  V30 403 O 33.4992 -1.27929 1.31833 0
M  V30 404 C 33.5612 1.59802 3.22031 0
M  V30 405 C 33.2252 3.08362 3.37286 0
M  V30 406 C 34.2222 4.05835 3.24952 0
M  V30 407 C 31.9072 3.47727 3.6248 0
M  V30 408 C 33.9012 5.4066 3.37588 0
M  V30 409 C 31.5882 4.82701 3.74757 0
M  V30 410 C 32.5862 5.78977 3.62319 0
M  V30 411 O 32.2742 7.11502 3.74193 0
M  V30 412 H 32.0062 0.374767 0.562606 0
M  V30 413 H 34.5602 1.61991 1.26286 0
M  V30 414 H 32.7902 0.989003 3.73839 0
M  V30 415 H 34.4792 1.40184 3.80924 0
M  V30 416 H 35.2452 3.76766 3.05405 0
M  V30 417 H 31.1242 2.73317 3.7124 0
M  V30 418 H 34.6682 6.15788 3.27796 0
M  V30 419 H 30.5652 5.11453 3.9381 0
M  V30 420 H 31.3332 7.19019 3.91093 0
M  V30 421 N 33.9963 -1.19345 1.0293 0
M  V30 422 C 34.9063 -2.26245 0.620515 0
M  V30 423 C 35.9223 -1.70486 -0.347928 0
M  V30 424 O 37.0983 -2.00347 -0.205704 0
M  V30 425 C 34.1633 -3.46693 -0.0218957 0
M  V30 426 C 33.2243 -4.17632 0.994102 0
M  V30 427 C 32.4573 -5.32329 0.382253 0
M  V30 428 O 32.6803 -5.64552 -0.814676 0
M  V30 429 O 31.6143 -5.91664 1.10531 0
M  V30 430 H 35.4403 -2.63453 1.51083 0
M  V30 431 H 33.0253 -1.26207 0.799513 0
M  V30 432 H 34.9073 -4.19683 -0.380072 0
M  V30 433 H 33.5823 -3.11333 -0.886209 0
M  V30 434 H 32.4893 -3.4676 1.40387 0
M  V30 435 H 33.8223 -4.56964 1.8288 0
M  V30 436 N 35.4744 -0.807222 -1.35358 0
M  V30 437 C 36.4244 -0.190706 -2.27201 0
M  V30 438 C 37.4084 0.635838 -1.47804 0
M  V30 439 O 38.6004 0.492991 -1.69996 0
M  V30 440 C 35.7294 0.659337 -3.36909 0
M  V30 441 C 34.8154 -0.176971 -4.23731 0
M  V30 442 N 35.2064 -1.24029 -4.90357 0
M  V30 443 C 33.5044 0.0412953 -4.45981 0
M  V30 444 C 34.2054 -1.75092 -5.54723 0
M  V30 445 N 33.1814 -1.05727 -5.33219 0
M  V30 446 H 36.9834 -1.0043 -2.76208 0
M  V30 447 H 34.4974 -0.648445 -1.48892 0
M  V30 448 H 36.4944 1.11706 -4.01656 0
M  V30 449 H 35.1544 1.47127 -2.89454 0
M  V30 450 H 36.1654 -1.62295 -4.91814 0
M  V30 451 H 32.8424 0.82232 -4.09322 0
M  V30 452 H 34.2324 -2.63963 -6.17878 0
M  V30 453 N 36.9525 1.47285 -0.560781 0
M  V30 454 C 38.1985 2.02764 -0.0381184 0
M  V30 455 C 38.5315 1.43384 1.30976 0
M  V30 456 O 37.8065 0.590733 1.85312 0
M  V30 457 C 38.0895 3.60064 0.0511427 0
M  V30 458 C 37.9425 4.2987 -1.32408 0
M  V30 459 C 39.2615 4.33439 0.762795 0
M  V30 460 H 36.3805 0.736841 -0.0153264 0
M  V30 461 H 39.0225 1.75675 -0.723759 0
M  V30 462 H 37.1725 3.83274 0.635065 0
M  V30 463 H 38.8445 4.17989 -1.95148 0
M  V30 464 H 37.0875 3.90085 -1.8978 0
M  V30 465 H 37.7585 5.38478 -1.21431 0
M  V30 466 H 40.2345 4.15243 0.266965 0
M  V30 467 H 39.1105 5.43124 0.794221 0
M  V30 468 H 39.3715 4.02915 1.81966 0
M  V30 469 N 38.4306 0.297415 1.54768 0
M  V30 470 C 39.8466 -0.0560823 1.59501 0
M  V30 471 C 40.0466 -1.52725 1.31444 0
M  V30 472 O 39.1026 -2.27947 1.08611 0
M  V30 473 C 40.4156 0.338631 2.98787 0
M  V30 474 C 41.9636 0.287097 3.11681 0
M  V30 475 C 42.4386 0.656579 4.53269 0
M  V30 476 N 43.9296 0.608977 4.59179 0
M  V30 477 C 44.6646 0.867385 5.66802 0
M  V30 478 N 44.1606 1.19157 6.82476 0
M  V30 479 N 45.9536 0.794687 5.56454 0
M  V30 480 H 38.1046 1.25624 1.71267 0
M  V30 481 H 40.3676 0.509057 0.799728 0
M  V30 482 H 40.0736 1.36263 3.2423 0
M  V30 483 H 39.9476 -0.309508 3.75928 0
M  V30 484 H 42.3346 -0.727649 2.85988 0
M  V30 485 H 42.4156 0.969809 2.36703 0
M  V30 486 H 42.0596 1.66912 4.7969 0
M  V30 487 H 41.9896 -0.0481649 5.26578 0
M  V30 488 H 44.4806 0.369198 3.76092 0
M  V30 489 H 44.7936 1.37482 7.60473 0
M  V30 490 H 43.1386 1.22958 6.84037 0
M  V30 491 H 46.3296 0.541098 4.64962 0
M  V30 492 H 46.5026 0.999445 6.40246 0
M  V30 493 N 39.9087 -1.5758 0.0250728 0
M  V30 494 C 41.3247 -1.56124 -0.331282 0
M  V30 495 C 41.5247 -1.03029 -1.73169 0
M  V30 496 O 40.5807 -0.675215 -2.43305 0
M  V30 497 C 41.8937 -3.00139 -0.183584 0
M  V30 498 C 43.4417 -3.11946 -0.256654 0
M  V30 499 C 43.9167 -4.57793 -0.137792 0
M  V30 500 N 45.4077 -4.6279 -0.194904 0
M  V30 501 C 46.1427 -5.7326 -0.126655 0
M  V30 502 N 45.6387 -6.928 -0.00755288 0
M  V30 503 N 47.4317 -5.61811 -0.180348 0
M  V30 504 H 39.5827 -1.90424 0.94087 0
M  V30 505 H 41.8457 -0.875761 0.362968 0
M  V30 506 H 41.5517 -3.4292 0.780927 0
M  V30 507 H 41.4257 -3.64899 -0.955448 0
M  V30 508 H 43.8127 -2.69079 -1.21162 0
M  V30 509 H 43.8937 -2.49915 0.545517 0
M  V30 510 H 43.5377 -5.01339 0.813739 0
M  V30 511 H 43.4677 -5.17798 -0.958775 0
M  V30 512 H 45.9587 -3.76807 -0.287267 0
M  V30 513 H 46.2717 -7.72791 0.0379428 0
M  V30 514 H 44.6167 -6.94995 0.0271731 0
M  V30 515 H 47.8077 -4.6731 -0.271767 0
M  V30 516 H 47.9807 -6.47882 -0.123697 0
M  V30 517 N 41.3868 0.248026 -1.55636 0
M  V30 518 C 42.6638 0.998988 -1.68165 0
M  V30 519 C 43.0438 2.03409 -0.564621 0
M  V30 520 O 42.3918 2.24378 0.432076 0
M  V30 521 C 42.6018 1.63334 -3.0842 0
M  V30 522 C 43.9498 2.13562 -3.66983 0
M  V30 523 O 44.9738 1.73277 -3.11213 0
M  V30 524 O 43.8328 2.87526 -4.64749 0
M  V30 525 H 40.9268 0.464933 -0.683935 0
M  V30 526 H 43.4728 0.241902 -1.67967 0
M  V30 527 H 42.2448 0.884583 -3.8117 0
M  V30 528 H 41.8678 2.45666 -3.12624 0
M  V30 529 N 42.8649 1.48995 0.513639 0
M  V30 530 C 43.7949 1.67636 1.62544 0
M  V30 531 C 44.7759 0.525087 1.61793 0
M  V30 532 O 45.9609 0.759502 1.78732 0
M  V30 533 C 43.0909 1.73114 3.01079 0
M  V30 534 C 42.0449 2.87905 3.16693 0
M  V30 535 C 41.3709 2.78486 4.56453 0
M  V30 536 C 42.6709 4.29005 2.97913 0
M  V30 537 H 44.3649 2.60716 1.47198 0
M  V30 538 H 41.9109 1.25465 0.706714 0
M  V30 539 H 43.8639 1.84742 3.78746 0
M  V30 540 H 42.5879 0.766241 3.17484 0
M  V30 541 H 41.2469 2.75859 2.41448 0
M  V30 542 H 40.8949 1.7993 4.69717 0
M  V30 543 H 40.5949 3.55523 4.67843 0
M  V30 544 H 42.1189 2.92104 5.36197 0
M  V30 545 H 43.5329 4.41798 3.65359 0
M  V30 546 H 41.9299 5.07166 3.20785 0
M  V30 547 H 42.9999 4.44329 1.94165 0
M  V30 548 N 44.343 -0.763751 1.37857 0
M  V30 549 C 45.62 -1.51244 1.24035 0
M  V30 550 C 46 -2.10472 -0.162649 0
M  V30 551 O 45.348 -1.96206 -1.17112 0
M  V30 552 C 45.558 -2.58694 2.34261 0
M  V30 553 C 46.906 -3.25878 2.72193 0
M  V30 554 O 47.93 -2.68993 2.33497 0
M  V30 555 O 46.789 -4.2874 3.38887 0
M  V30 556 H 43.883 -0.670243 0.484462 0
M  V30 557 H 46.429 -0.800031 1.49658 0
M  V30 558 H 45.201 -2.13105 3.2818 0
M  V30 559 H 44.824 -3.37527 2.10146 0
M  V30 560 N 45.8211 -1.22559 -0.990812 0
M  V30 561 C 47.2321 -1.04791 -1.54518 0
M  V30 562 C 47.5831 0.387998 -1.92325 0
M  V30 563 O 46.7081 1.27328 -1.74976 0
M  V30 564 C 47.3031 -1.896 -2.80779 0
M  V30 565 C 45.8621 -1.76124 -3.32652 0
M  V30 566 C 45.0091 -1.8594 -2.05722 0
M  V30 567 H 47.9601 -1.36374 -0.811662 0
M  V30 568 H 47.9811 -1.41464 -3.53225 0
M  V30 569 H 47.4931 -2.94101 -2.53231 0
M  V30 570 H 45.5941 -0.743643 -3.65104 0
M  V30 571 H 45.7071 -2.58913 -4.03114 0
M  V30 572 H 44.0711 -1.29403 -2.19379 0
M  V30 573 H 44.8541 -2.91976 -1.80568 0
M  V30 574 N 47.2992 1.18797 -1.03562 0
M  V30 575 C 48.2472 2.24297 -0.615905 0
M  V30 576 C 49.2412 1.65643 0.354808 0
M  V30 577 O 50.4472 1.78618 0.22265 0
M  V30 578 H 46.8222 0.729909 -0.180934 0
M  V30 579 H 48.7932 2.5701 -1.5162 0
M  V30 580 C 47.5422 3.47698 0.0104735 0
M  V30 581 H 46.8652 3.93125 -0.727509 0
M  V30 582 H 48.3052 4.23159 0.266995 0
M  V30 583 C 46.7642 3.12489 1.25905 0
M  V30 584 O 47.2942 3.25761 2.35038 0
M  V30 585 N 45.5002 2.6686 1.15039 0
M  V30 586 H 45.0472 2.56261 0.262328 0
M  V30 587 H 45.0052 2.43674 1.98672 0
M  V30 588 N 48.7773 0.814389 1.34928 0
M  V30 589 C 49.6873 0.231978 2.3345 0
M  V30 590 C 50.7033 -0.629139 1.62228 0
M  V30 591 O 51.8793 -0.539052 1.94052 0
M  V30 592 C 48.9443 -0.603482 3.41407 0
M  V30 593 C 48.0053 0.279037 4.28392 0
M  V30 594 C 47.2383 -0.516643 5.31193 0
M  V30 595 O 47.4613 -1.75068 5.4287 0
M  V30 596 O 46.3953 0.0965652 6.01823 0
M  V30 597 H 50.2213 1.04721 2.85074 0
M  V30 598 H 47.8063 0.576343 1.37836 0
M  V30 599 H 49.6883 -1.07908 4.0735 0
M  V30 600 H 48.3633 -1.39618 2.92042 0
M  V30 601 H 47.2703 0.801948 3.65403 0
M  V30 602 H 48.6033 1.03588 4.81176 0
M  V30 603 N 50.2554 -1.46986 0.568584 0
M  V30 604 C 51.5014 -2.02741 0.0488709 0
M  V30 605 C 51.8344 -1.44077 -1.30214 0
M  V30 606 O 51.1094 -0.600552 -1.84996 0
M  V30 607 C 51.3924 -3.60086 -0.032047 0
M  V30 608 C 51.2454 -4.29162 1.34686 0
M  V30 609 C 52.5644 -4.33838 -0.739798 0
M  V30 610 H 49.6834 -0.736749 0.0192338 0
M  V30 611 H 52.3254 -1.75289 0.733065 0
M  V30 612 H 50.4754 -3.83606 -0.61473 0
M  V30 613 H 52.1474 -4.16948 1.97362 0
M  V30 614 H 50.3904 -3.89073 1.91846 0
M  V30 615 H 51.0614 -5.37826 1.24285 0
M  V30 616 H 53.5374 -4.15378 -0.244939 0
M  V30 617 H 52.4134 -5.43537 -0.765406 0
M  V30 618 H 52.6744 -4.03875 -1.79827 0
M  V30 619 N 51.7335 -0.305618 -1.54608 0
M  V30 620 C 52.9795 0.295595 -2.01241 0
M  V30 621 C 53.3345 1.51171 -1.19018 0
M  V30 622 O 52.6275 1.89832 -0.259684 0
M  V30 623 C 52.8215 0.698983 -3.50498 0
M  V30 624 C 52.6505 -0.476491 -4.47168 0
M  V30 625 C 51.4205 -0.969963 -4.95903 0
M  V30 626 C 53.6185 -1.32294 -4.96994 0
M  V30 627 N 51.6005 -2.11172 -5.76437 0
M  V30 628 C 52.9715 -2.31212 -5.75275 0
M  V30 629 C 55.0265 -1.35278 -4.7917 0
M  V30 630 C 53.7295 -3.32896 -6.37631 0
M  V30 631 C 55.7555 -2.35823 -5.42348 0
M  V30 632 C 55.1175 -3.33469 -6.20466 0
M  V30 633 H 51.2165 0.0724992 -0.778632 0
M  V30 634 H 53.8005 -0.436583 -1.89742 0
M  V30 635 H 51.9715 1.40032 -3.62278 0
M  V30 636 H 53.7035 1.28013 -3.8392 0
M  V30 637 H 50.4585 -0.544178 -4.70463 0
M  V30 638 H 50.8825 -2.68714 -6.21387 0
M  V30 639 H 55.5245 -0.61157 -4.18354 0
M  V30 640 H 53.2425 -4.07933 -6.97579 0
M  V30 641 H 56.8285 -2.38911 -5.30484 0
M  V30 642 H 55.7085 -4.09996 -6.68485 0
M  V30 643 N 53.2116 1.57565 -0.0334293 0
M  V30 644 C 54.1216 2.13943 0.962572 0
M  V30 645 C 55.1376 1.09276 1.35406 0
M  V30 646 O 56.3136 1.41355 1.4346 0
M  V30 647 C 53.3786 2.65887 2.22497 0
M  V30 648 C 52.4396 3.85286 1.8935 0
M  V30 649 C 51.6726 4.34743 3.09571 0
M  V30 650 O 51.8956 3.83352 4.22371 0
M  V30 651 O 50.8296 5.26538 2.91618 0
M  V30 652 H 54.6556 2.99333 0.513169 0
M  V30 653 H 52.2406 1.4822 0.18743 0
M  V30 654 H 54.1226 2.99346 2.96598 0
M  V30 655 H 52.7976 1.83578 2.6661 0
M  V30 656 H 51.7046 3.56746 1.1262 0
M  V30 657 H 53.0376 4.68771 1.5005 0
M  V30 658 N 54.6897 -0.239769 1.55765 0
M  V30 659 C 55.9387 -0.964754 1.77131 0
M  V30 660 C 56.2517 -1.86213 0.59868 0
M  V30 661 O 57.4577 -2.6244 0.695522 0
M  V30 662 C 55.9137 -1.76552 3.1362 0
M  V30 663 C 55.5217 -0.915185 4.38553 0
M  V30 664 C 57.2657 -2.48281 3.44321 0
M  V30 665 C 55.1727 -1.71225 5.66071 0
M  V30 666 H 54.1027 -0.363953 0.660344 0
M  V30 667 H 56.7537 -0.219181 1.82186 0
M  V30 668 H 55.1357 -2.55331 3.02691 0
M  V30 669 H 56.3097 -0.169217 4.60489 0
M  V30 670 H 54.6247 -0.310889 4.15238 0
M  V30 671 H 57.2217 -3.08382 4.36812 0
M  V30 672 H 57.5647 -3.20256 2.65973 0
M  V30 673 H 58.0977 -1.76507 3.56497 0
M  V30 674 H 54.8367 -1.03612 6.4726 0
M  V30 675 H 54.3567 -2.43331 5.48224 0
M  V30 676 H 56.0357 -2.27758 6.05587 0
M  V30 677 N 56.1678 -1.49265 -0.50573 0
M  V30 678 C 57.4138 -1.58748 -1.26202 0
M  V30 679 C 57.7468 -0.271227 -1.92297 0
M  V30 680 O 57.0218 0.724831 -1.80489 0
M  V30 681 C 57.3048 -2.74332 -2.33268 0
M  V30 682 C 57.1578 -4.15737 -1.71705 0
M  V30 683 C 58.4768 -2.85576 -3.34865 0
M  V30 684 H 55.5958 -0.577826 -0.457478 0
M  V30 685 H 58.2378 -1.81532 -0.560897 0
M  V30 686 H 56.3878 -2.55036 -2.93068 0
M  V30 687 H 58.0598 -4.46537 -1.15769 0
M  V30 688 H 56.3028 -4.21605 -1.02135 0
M  V30 689 H 56.9738 -4.92477 -2.49341 0
M  V30 690 H 59.4498 -3.03127 -2.8505 0
M  V30 691 H 58.3258 -3.68135 -4.07146 0
M  V30 692 H 58.5868 -1.94732 -3.96903 0
M  V30 693 N 57.6459 0.756429 -1.3826 0
M  V30 694 C 58.8939 1.51248 -1.34047 0
M  V30 695 C 59.2149 1.94875 0.0698372 0
M  V30 696 O 58.4849 1.67436 1.01696 0
M  V30 697 H 57.0649 0.561018 -0.493222 0
M  V30 698 H 59.7269 0.899347 -1.7291 0
M  V30 699 H 58.8229 2.40472 -1.98947 0
M  V30 700 N 59.124 1.23083 0.984299 0
M  V30 701 C 60.034 1.02515 2.11016 0
M  V30 702 C 61.05 -0.0291702 1.73976 0
M  V30 703 O 62.226 0.165434 2.00719 0
M  V30 704 C 59.291 0.614673 3.41208 0
M  V30 705 C 58.352 1.74359 3.92297 0
M  V30 706 C 57.585 1.35261 5.16275 0
M  V30 707 O 57.808 0.235136 5.69915 0
M  V30 708 O 56.742 2.17227 5.61334 0
M  V30 709 H 60.568 1.96862 2.31255 0
M  V30 710 H 58.153 1.01753 1.09392 0
M  V30 711 H 60.035 0.396518 4.1953 0
M  V30 712 H 58.71 -0.299851 3.22308 0
M  V30 713 H 57.617 2.01635 3.1511 0
M  V30 714 H 58.95 2.63629 4.15645 0
M  V30 715 N 60.6021 -1.18246 1.0419 0
M  V30 716 C 61.5321 -2.24127 0.654914 0
M  V30 717 C 62.5131 -1.66617 -0.342451 0
M  V30 718 O 63.6981 -1.92924 -0.222277 0
M  V30 719 C 60.8281 -3.47295 0.0183757 0
M  V30 720 C 59.7821 -4.17563 0.939414 0
M  V30 721 C 59.1081 -5.34438 0.167286 0
M  V30 722 C 60.4081 -4.70917 2.25908 0
M  V30 723 H 62.1021 -2.56753 1.54007 0
M  V30 724 H 59.6481 -1.23414 0.74195 0
M  V30 725 H 61.6011 -4.20572 -0.264082 0
M  V30 726 H 60.3251 -3.13907 -0.901664 0
M  V30 727 H 58.9841 -3.46186 1.20628 0
M  V30 728 H 58.6321 -4.97298 -0.7552 0
M  V30 729 H 58.3321 -5.82388 0.780901 0
M  V30 730 H 59.8561 -6.10504 -0.108125 0
M  V30 731 H 61.2701 -5.35882 2.03724 0
M  V30 732 H 59.6671 -5.29406 2.82577 0
M  V30 733 H 60.7371 -3.88272 2.9047 0
M  V30 734 N 62.0802 -0.821533 -1.34494 0
M  V30 735 C 63.3282 -0.408139 -1.97936 0
M  V30 736 C 63.6492 1.03193 -1.65457 0
M  V30 737 O 62.9192 1.71622 -0.944595 0
M  V30 738 H 61.4992 -0.147928 -0.732206 0
M  V30 739 H 64.1612 -1.05067 -1.64155 0
M  V30 740 H 63.2572 -0.52601 -3.07635 0
M  V30 741 N 63.5583 1.46682 -0.576371 0
M  V30 742 C 64.8353 1.95599 0.00703437 0
M  V30 743 C 65.2153 1.51904 1.46589 0
M  V30 744 O 64.5633 0.766755 2.15251 0
M  V30 745 C 64.7733 3.4864 -0.158404 0
M  V30 746 C 66.1213 4.24594 -0.0229439 0
M  V30 747 O 67.1453 3.56094 -0.0869173 0
M  V30 748 O 66.0043 5.46373 0.118015 0
M  V30 749 H 63.0983 0.825275 0.053384 0
M  V30 750 H 65.6443 1.56996 -0.644244 0
M  V30 751 H 64.4163 3.7331 -1.17282 0
M  V30 752 H 64.0393 3.94057 0.5296 0
M  V30 753 N 65.0364 0.313813 1.54444 0
M  V30 754 C 66.2844 -0.291099 1.99993 0
M  V30 755 C 66.6054 -1.53418 1.20366 0
M  V30 756 O 65.8754 -1.93544 0.302927 0
M  V30 757 H 64.4554 -0.110552 0.738774 0
M  V30 758 H 67.1174 0.428106 1.9014 0
M  V30 759 H 66.2134 -0.554268 3.07139 0
M  V30 760 N 66.5145 -1.57545 0.0417849 0
M  V30 761 C 67.4775 -2.09885 -0.92093 0
M  V30 762 C 68.4775 -1.01648 -1.24596 0
M  V30 763 O 69.6675 -1.27759 -1.1842 0
M  V30 764 C 66.7995 -2.57527 -2.23367 0
M  V30 765 H 67.9925 -2.96236 -0.467382 0
M  V30 766 H 65.5455 -1.5493 -0.206467 0
M  V30 767 H 66.2805 -1.74542 -2.73323 0
M  V30 768 H 66.0655 -3.36613 -2.01083 0
M  V30 769 H 67.5555 -2.98201 -2.92346 0
M  V30 770 N 67.9926 0.231505 -1.5589 0
M  V30 771 C 69.2396 0.957352 -1.78441 0
M  V30 772 C 69.5676 1.84726 -0.60882 0
M  V30 773 O 68.8226 1.91416 0.40725 0
M  V30 774 C 69.1216 1.83577 -3.0665 0
M  V30 775 C 68.7876 1.09993 -4.37278 0
M  V30 776 C 67.4496 0.896629 -4.72773 0
M  V30 777 C 69.8016 0.579558 -5.17968 0
M  V30 778 C 67.1296 0.160896 -5.86479 0
M  V30 779 C 69.4816 -0.142783 -6.32439 0
M  V30 780 C 68.1456 -0.357427 -6.66542 0
M  V30 781 H 67.4156 0.35032 -0.65296 0
M  V30 782 H 70.0626 0.226259 -1.90159 0
M  V30 783 H 68.3676 2.63441 -2.90011 0
M  V30 784 H 70.0646 2.39934 -3.21298 0
M  V30 785 H 66.6546 1.26835 -4.09403 0
M  V30 786 H 70.8386 0.724125 -4.90989 0
M  V30 787 H 66.0946 -0.0157293 -6.11398 0
M  V30 788 H 70.2686 -0.553559 -6.94196 0
M  V30 789 H 67.8956 -0.929466 -7.54497 0
M  V30 790 N 69.4707 1.49531 0.497807 0
M  V30 791 C 70.7187 1.58865 1.24926 0
M  V30 792 C 71.0397 0.278721 1.92998 0
M  V30 793 O 70.3097 -0.702144 1.82885 0
M  V30 794 H 68.8897 0.585343 0.464094 0
M  V30 795 H 71.5517 1.86174 0.57666 0
M  V30 796 H 70.6477 2.38633 2.01149 0
M  V30 797 N 70.9488 -0.749086 1.3866 0
M  V30 798 C 71.8958 -1.86291 1.36251 0
M  V30 799 C 72.8658 -1.64578 0.224347 0
M  V30 800 O 74.0508 -1.86181 0.417279 0
M  V30 801 C 71.1908 -3.23644 1.19786 0
M  V30 802 C 70.3038 -3.57158 2.43027 0
M  V30 803 C 69.4388 -4.83838 2.19258 0
M  V30 804 C 68.4778 -5.10152 3.38247 0
M  V30 805 N 67.6148 -6.28029 3.13884 0
M  V30 806 H 72.4548 -1.87685 2.3147 0
M  V30 807 H 69.9918 -0.917287 1.14997 0
M  V30 808 H 71.9498 -4.0291 1.08254 0
M  V30 809 H 70.5798 -3.21566 0.282031 0
M  V30 810 H 69.6318 -2.72701 2.65214 0
M  V30 811 H 70.9438 -3.7253 3.31697 0
M  V30 812 H 70.0978 -5.71057 2.04888 0
M  V30 813 H 68.8368 -4.70614 1.2796 0
M  V30 814 H 67.8418 -4.21401 3.53131 0
M  V30 815 H 69.0668 -5.25271 4.30427 0
M  V30 816 H 67.0128 -6.1612 2.25238 0
M  V30 817 H 66.9298 -6.43922 3.96106 0
M  V30 818 H 68.1978 -7.18124 3.03179 0
M  V30 819 N 72.4269 -1.23603 -0.977757 0
M  V30 820 C 73.6729 -1.07129 -1.72195 0
M  V30 821 C 74.0059 0.390501 -1.90233 0
M  V30 822 O 73.2809 1.28902 -1.45653 0
M  V30 823 C 73.5639 -1.80031 -3.11867 0
M  V30 824 C 73.4169 -3.33899 -3.01383 0
M  V30 825 C 74.7359 -1.56492 -4.11337 0
M  V30 826 H 71.8549 -0.390571 -0.624999 0
M  V30 827 H 74.4969 -1.52142 -1.13811 0
M  V30 828 H 72.6469 -1.41768 -3.6171 0
M  V30 829 H 74.3189 -3.81699 -2.59043 0
M  V30 830 H 72.5619 -3.62796 -2.37827 0
M  V30 831 H 73.2329 -3.801 -4.00285 0
M  V30 832 H 75.7089 -1.89757 -3.70313 0
M  V30 833 H 74.5849 -2.09973 -5.07151 0
M  V30 834 H 74.8459 -0.500874 -4.39254 0
M  V30 835 N 73.905 1.17692 -1.04816 0
M  V30 836 C 75.135 1.91508 -0.775128 0
M  V30 837 C 75.543 1.76844 0.67253 0
M  V30 838 O 74.886 1.10057 1.47082 0
M  V30 839 C 74.948 3.43167 -1.0713 0
M  V30 840 C 74.612 3.81612 -2.51438 0
M  V30 841 C 75.609 3.84772 -3.49638 0
M  V30 842 C 73.294 4.12687 -2.86348 0
M  V30 843 C 75.288 4.18469 -4.80794 0
M  V30 844 C 72.975 4.46053 -4.17708 0
M  V30 845 C 73.973 4.48921 -5.14741 0
M  V30 846 O 73.661 4.81504 -6.43746 0
M  V30 847 H 73.393 0.614575 -0.281555 0
M  V30 848 H 75.947 1.50206 -1.40098 0
M  V30 849 H 74.177 3.84745 -0.388342 0
M  V30 850 H 75.866 3.98239 -0.784883 0
M  V30 851 H 76.632 3.60893 -3.24008 0
M  V30 852 H 72.511 4.09627 -2.11486 0
M  V30 853 H 76.055 4.20623 -5.56527 0
M  V30 854 H 71.952 4.69393 -4.43103 0
M  V30 855 H 72.72 4.99377 -6.4851 0
M  V30 856 N 75.3831 0.828654 1.34056 0
M  V30 857 C 76.3301 0.252567 2.29414 0
M  V30 858 C 77.3001 -0.62588 1.53857 0
M  V30 859 O 78.4851 -0.566312 1.82202 0
M  V30 860 C 75.6251 -0.574831 3.40279 0
M  V30 861 C 74.7381 0.326499 4.30764 0
M  V30 862 C 73.8731 -0.511016 5.28736 0
M  V30 863 C 72.9121 0.389342 6.1086 0
M  V30 864 N 72.0491 -0.409439 7.00905 0
M  V30 865 H 76.8891 1.07108 2.78086 0
M  V30 866 H 74.4261 0.539677 1.36843 0
M  V30 867 H 76.3841 -1.06992 4.03248 0
M  V30 868 H 75.0141 -1.35841 2.92826 0
M  V30 869 H 74.0661 0.939837 3.68607 0
M  V30 870 H 75.3781 1.01857 4.88289 0
M  V30 871 H 74.5321 -1.07035 5.97184 0
M  V30 872 H 73.2711 -1.23657 4.71763 0
M  V30 873 H 72.2761 0.960769 5.4134 0
M  V30 874 H 73.5011 1.1131 6.69916 0
M  V30 875 H 71.4471 -1.11856 6.46393 0
M  V30 876 H 71.3641 0.224126 7.55668 0
M  V30 877 H 72.6321 -0.951336 7.73673 0
M  V30 878 N 76.8612 -1.46375 0.584142 0
M  V30 879 C 77.8242 -2.28784 -0.138108 0
M  V30 880 C 78.8242 -1.38471 -0.817462 0
M  V30 881 O 80.0142 -1.60833 -0.669199 0
M  V30 882 C 77.1462 -3.18892 -1.20503 0
M  V30 883 H 78.3392 -2.94117 0.586127 0
M  V30 884 H 75.8922 -1.52509 0.342171 0
M  V30 885 H 76.6272 -2.58309 -1.96079 0
M  V30 886 H 76.4122 -3.85388 -0.722384 0
M  V30 887 H 77.9022 -3.80914 -1.71155 0
M  V30 888 N 78.3393 -0.321999 -1.54275 0
M  V30 889 C 79.2863 0.544664 -2.24281 0
M  V30 890 C 80.2563 1.1129 -1.23303 0
M  V30 891 O 81.4413 1.15354 -1.51981 0
M  V30 892 C 78.5813 1.70045 -3.00298 0
M  V30 893 C 77.6943 1.16159 -4.1609 0
M  V30 894 C 76.8293 2.28293 -4.79641 0
M  V30 895 C 75.8683 1.71648 -5.8754 0
M  V30 896 N 75.0053 2.77438 -6.44959 0
M  V30 897 H 79.8453 -0.0588907 -2.97942 0
M  V30 898 H 77.3823 -0.0408345 -1.47043 0
M  V30 899 H 79.3403 2.38054 -3.42616 0
M  V30 900 H 77.9703 2.27531 -2.28975 0
M  V30 901 H 77.0223 0.373092 -3.78566 0
M  V30 902 H 78.3343 0.707087 -4.93763 0
M  V30 903 H 77.4883 3.0421 -5.2492 0
M  V30 904 H 76.2273 2.77079 -4.01346 0
M  V30 905 H 75.2323 0.942282 -5.41665 0
M  V30 906 H 76.4573 1.23741 -6.67731 0
M  V30 907 H 74.4033 3.25519 -5.69538 0
M  V30 908 H 74.3203 2.36547 -7.1804 0
M  V30 909 H 75.5883 3.53189 -6.94894 0
M  V30 910 N 79.8174 1.5752 -0.0501392 0
M  V30 911 C 80.7654 2.12651 0.942459 0
M  V30 912 C 81.7594 1.05807 1.32292 0
M  V30 913 O 82.9654 1.24217 1.3027 0
M  V30 914 H 79.3404 0.679673 0.321789 0
M  V30 915 H 81.3114 2.94951 0.452356 0
M  V30 916 C 80.0604 2.68565 2.20836 0
M  V30 917 H 79.3834 3.50439 1.92439 0
M  V30 918 H 80.8234 3.10761 2.8845 0
M  V30 919 C 79.2824 1.62291 2.95234 0
M  V30 920 O 79.8124 1.03508 3.88135 0
M  V30 921 N 78.0184 1.33836 2.57946 0
M  V30 922 H 77.5654 1.81826 1.82475 0
M  V30 923 H 77.5234 0.629595 3.08032 0
M  V30 924 N 81.2955 -0.223234 1.56011 0
M  V30 925 C 82.2425 -1.27664 1.92277 0
M  V30 926 C 83.2125 -1.46659 0.779763 0
M  V30 927 O 84.3975 -1.60256 1.03551 0
M  V30 928 C 81.5375 -2.62234 2.24338 0
M  V30 929 C 80.6505 -2.51051 3.51564 0
M  V30 930 C 79.7855 -3.78133 3.7308 0
M  V30 931 C 78.8245 -3.61665 4.93827 0
M  V30 932 N 77.9615 -4.80693 5.11741 0
M  V30 933 H 82.8015 -0.960358 2.82101 0
M  V30 934 H 80.3385 -0.462901 1.39627 0
M  V30 935 H 82.2965 -3.40596 2.40936 0
M  V30 936 H 80.9265 -2.91961 1.3769 0
M  V30 937 H 79.9785 -1.64132 3.43169 0
M  V30 938 H 81.2905 -2.34803 4.40079 0
M  V30 939 H 80.4445 -4.64938 3.89766 0
M  V30 940 H 79.1835 -3.97304 2.82844 0
M  V30 941 H 78.1885 -2.73244 4.77093 0
M  V30 942 H 79.4135 -3.43966 5.85546 0
M  V30 943 H 77.3595 -5.00181 4.24446 0
M  V30 944 H 77.2765 -4.67165 5.94384 0
M  V30 945 H 78.5445 -5.6893 5.3286 0
M  V30 946 N 82.7736 -1.49793 -0.48987 0
M  V30 947 C 83.6836 -1.70036 -1.61632 0
M  V30 948 C 84.6996 -0.583102 -1.63939 0
M  V30 949 O 85.8756 -0.859169 -1.82154 0
M  V30 950 C 82.9406 -1.77277 -2.97949 0
M  V30 951 C 82.0016 -3.00918 -3.06181 0
M  V30 952 C 81.2346 -3.07804 -4.35996 0
M  V30 953 O 81.4576 -2.21982 -5.25433 0
M  V30 954 O 80.3916 -4.00369 -4.49431 0
M  V30 955 H 84.2176 -2.65486 -1.47482 0
M  V30 956 H 81.8026 -1.33666 -0.667362 0
M  V30 957 H 83.6846 -1.84329 -3.78947 0
M  V30 958 H 82.3596 -0.850076 -3.12339 0
M  V30 959 H 81.2666 -2.99377 -2.2433 0
M  V30 960 H 82.5996 -3.92704 -2.96723 0
M  V30 961 N 84.2517 0.741722 -1.39055 0
M  V30 962 C 85.4797 1.53098 -1.39171 0
M  V30 963 C 85.8947 1.88794 0.0155099 0
M  V30 964 O 85.2517 1.53626 0.985159 0
M  V30 965 C 85.3027 2.82274 -2.2584 0
M  V30 966 O 85.0237 2.48097 -3.61081 0
M  V30 967 C 86.5247 3.76343 -2.34266 0
M  V30 968 H 83.7447 0.473335 -0.4756 0
M  V30 969 H 86.2887 0.917045 -1.82785 0
M  V30 970 H 84.4437 3.40015 -1.85656 0
M  V30 971 H 84.8577 3.31029 -4.06842 0
M  V30 972 H 86.3317 4.63898 -2.9917 0
M  V30 973 H 86.8087 4.17619 -1.35982 0
M  V30 974 H 87.4147 3.24523 -2.74891 0
M  V30 975 N 85.7298 1.2412 0.971189 0
M  V30 976 C 86.9778 1.07668 1.71032 0
M  V30 977 C 87.2988 -0.385797 1.91146 0
M  V30 978 O 86.5688 -1.27569 1.4867 0
M  V30 979 H 85.1488 0.395429 0.633755 0
M  V30 980 H 87.8108 1.55984 1.16855 0
M  V30 981 H 86.9068 1.57195 2.69622 0
M  V30 982 N 87.2079 -1.17134 1.05439 0
M  V30 983 C 88.1709 -2.19439 0.661764 0
M  V30 984 C 89.1709 -1.58199 -0.288042 0
M  V30 985 O 90.3609 -1.74053 -0.0715803 0
M  V30 986 C 87.4929 -3.40889 -0.0276209 0
M  V30 987 H 88.6859 -2.55688 1.56728 0
M  V30 988 H 86.2389 -1.31259 0.848567 0
M  V30 989 H 86.9739 -3.10187 -0.94629 0
M  V30 990 H 86.7589 -3.86586 0.655238 0
M  V30 991 H 88.2489 -4.16603 -0.288342 0
M  V30 992 N 88.686 -0.835752 -1.33615 0
M  V30 993 C 89.616 -0.281739 -2.31794 0
M  V30 994 C 90.597 0.608833 -1.58831 0
M  V30 995 O 91.782 0.533035 -1.86741 0
M  V30 996 C 88.912 0.546612 -3.42971 0
M  V30 997 C 87.866 -0.247904 -4.27281 0
M  V30 998 C 87.192 0.704001 -5.30045 0
M  V30 999 C 88.492 -1.46324 -5.01385 0
M  V30 1000 H 90.186 -1.10206 -2.78379 0
M  V30 1001 H 87.732 -0.531388 -1.33837 0
M  V30 1002 H 89.685 0.944467 -4.1068 0
M  V30 1003 H 88.409 1.40011 -2.95067 0
M  V30 1004 H 87.068 -0.627281 -3.61194 0
M  V30 1005 H 86.716 1.55381 -4.78399 0
M  V30 1006 H 86.416 0.176524 -5.87335 0
M  V30 1007 H 87.94 1.09944 -6.0062 0
M  V30 1008 H 89.354 -1.13871 -5.61877 0
M  V30 1009 H 87.751 -1.92728 -5.6831 0
M  V30 1010 H 88.821 -2.23467 -4.30338 0
M  V30 1011 N 90.1641 1.46063 -0.591896 0
M  V30 1012 C 91.1271 2.28854 0.125973 0
M  V30 1013 C 92.1271 1.38903 0.810107 0
M  V30 1014 O 93.3171 1.61186 0.66066 0
M  V30 1015 C 90.4491 3.19526 1.1881 0
M  V30 1016 H 91.6421 2.93802 -0.601717 0
M  V30 1017 H 89.1951 1.52325 -0.350254 0
M  V30 1018 H 89.9301 2.59345 1.94707 0
M  V30 1019 H 89.7151 3.85766 0.701936 0
M  V30 1020 H 91.2051 3.81817 1.69132 0
M  V30 1021 N 91.6422 0.330177 1.54103 0
M  V30 1022 C 92.6052 -0.520144 2.2322 0
M  V30 1023 C 93.6052 -1.03828 1.22786 0
M  V30 1024 O 94.7952 -0.929652 1.4732 0
M  V30 1025 C 91.9272 -1.72317 2.94142 0
M  V30 1026 H 93.1202 0.0841605 2.99782 0
M  V30 1027 H 90.6732 0.0813433 1.56088 0
M  V30 1028 H 91.4082 -2.36653 2.21734 0
M  V30 1029 H 91.1932 -1.35898 3.67796 0
M  V30 1030 H 92.6832 -2.3266 3.46784 0
M  V30 1031 N 93.1203 -1.57491 0.0584922 0
M  V30 1032 C 94.0833 -2.1085 -0.898617 0
M  V30 1033 C 95.0833 -1.02964 -1.23511 0
M  V30 1034 O 96.2733 -1.29007 -1.17059 0
M  V30 1035 C 93.4053 -2.59881 -2.20623 0
M  V30 1036 H 94.5983 -2.96715 -0.435936 0
M  V30 1037 H 92.1513 -1.55141 -0.190023 0
M  V30 1038 H 92.8863 -1.77431 -2.71457 0
M  V30 1039 H 92.6713 -3.38727 -1.97501 0
M  V30 1040 H 94.1613 -3.01285 -2.89166 0
M  V30 1041 N 94.5984 0.214957 -1.56127 0
M  V30 1042 C 95.5454 1.26642 -1.92952 0
M  V30 1043 C 96.5154 1.46244 -0.78753 0
M  V30 1044 O 97.7004 1.59704 -1.04399 0
M  V30 1045 C 94.8404 2.6104 -2.25726 0
M  V30 1046 C 93.9534 2.49183 -3.52891 0
M  V30 1047 C 93.0884 3.76149 -3.7508 0
M  V30 1048 C 92.1274 3.59041 -4.95738 0
M  V30 1049 N 91.2644 4.77972 -5.14283 0
M  V30 1050 H 96.1044 0.945384 -2.82607 0
M  V30 1051 H 93.6414 0.455489 -1.3987 0
M  V30 1052 H 95.5994 3.39313 -2.42739 0
M  V30 1053 H 94.2294 2.91227 -1.39236 0
M  V30 1054 H 93.2814 1.6231 -3.44034 0
M  V30 1055 H 94.5934 2.32466 -4.41318 0
M  V30 1056 H 93.7474 4.62865 -3.92226 0
M  V30 1057 H 92.4864 3.95799 -2.84947 0
M  V30 1058 H 91.4914 2.7071 -4.78535 0
M  V30 1059 H 92.7164 3.40856 -5.87362 0
M  V30 1060 H 90.6624 4.97923 -4.27093 0
M  V30 1061 H 90.5794 4.64006 -5.96853 0
M  V30 1062 H 91.8474 5.66096 -5.35869 0
M  V30 1063 N 96.0765 1.50051 0.48192 0
M  V30 1064 C 97.3225 1.60736 1.2366 0
M  V30 1065 C 97.6555 0.301786 1.91841 0
M  V30 1066 O 96.9305 -0.696025 1.8162 0
M  V30 1067 C 97.2135 2.78009 2.28874 0
M  V30 1068 C 97.0665 4.18416 1.65069 0
M  V30 1069 C 98.3855 2.90867 3.30279 0
M  V30 1070 H 95.5045 0.585031 0.448228 0
M  V30 1071 H 98.1465 1.82402 0.531946 0
M  V30 1072 H 96.2965 2.59667 2.88973 0
M  V30 1073 H 97.9685 4.48322 1.0865 0
M  V30 1074 H 96.2115 4.23177 0.954148 0
M  V30 1075 H 96.8825 4.96381 2.41474 0
M  V30 1076 H 99.3585 3.07623 2.80191 0
M  V30 1077 H 98.2345 3.74566 4.01238 0
M  V30 1078 H 98.4955 2.01021 3.93755 0
M  V30 1079 N 97.5546 -0.734337 1.39446 0
M  V30 1080 C 98.8036 -1.48937 1.36017 0
M  V30 1081 C 99.1166 -1.95557 -0.0409005 0
M  V30 1082 O 100.323 -2.70779 -0.19778 0
M  V30 1083 C 98.7786 -2.69125 2.38955 0
M  V30 1084 C 98.3866 -2.29452 3.8478 0
M  V30 1085 C 100.131 -3.46944 2.44603 0
M  V30 1086 C 98.0376 -3.46366 4.79358 0
M  V30 1087 H 96.9676 -0.559296 0.505672 0
M  V30 1088 H 99.6186 -0.800983 1.65095 0
M  V30 1089 H 98.0006 -3.40041 2.02948 0
M  V30 1090 H 99.1746 -1.66077 4.29831 0
M  V30 1091 H 97.4896 -1.64723 3.82433 0
M  V30 1092 H 100.087 -4.33907 3.12456 0
M  V30 1093 H 100.43 -3.89454 1.47076 0
M  V30 1094 H 100.963 -2.83056 2.79507 0
M  V30 1095 H 97.7016 -3.08905 5.78151 0
M  V30 1096 H 97.2216 -4.08719 4.38986 0
M  V30 1097 H 98.9006 -4.12691 4.98292 0
M  V30 1098 N 99.0327 -1.24633 -0.964593 0
M  V30 1099 C 99.9427 -1.05859 -2.09359 0
M  V30 1100 C 100.959 0.00148855 -1.74 0
M  V30 1101 O 102.135 -0.197346 -2.00431 0
M  V30 1102 C 99.1997 -0.668879 -3.40187 0
M  V30 1103 C 98.2607 -1.80578 -3.89474 0
M  V30 1104 C 97.4937 -1.43457 -5.14058 0
M  V30 1105 O 97.7167 -0.325775 -5.69469 0
M  V30 1106 O 96.6507 -2.2613 -5.57807 0
M  V30 1107 H 100.477 -2.00516 -2.28094 0
M  V30 1108 H 98.0617 -1.03481 -1.0776 0
M  V30 1109 H 99.9437 -0.463211 -4.18846 0
M  V30 1110 H 98.6187 0.248536 -3.22744 0
M  V30 1111 H 97.5257 -2.06623 -3.11862 0
M  V30 1112 H 98.8587 -2.70208 -4.11398 0
M  V30 1113 N 100.511 1.16574 -1.06058 0
M  V30 1114 C 101.739 1.90952 -0.796552 0
M  V30 1115 C 102.154 1.77302 0.648808 0
M  V30 1116 O 101.511 1.11605 1.44397 0
M  V30 1117 C 101.562 3.41736 -1.17894 0
M  V30 1118 O 101.283 3.54975 -2.56758 0
M  V30 1119 C 102.784 4.33169 -0.942308 0
M  V30 1120 H 100.004 0.605594 -0.288959 0
M  V30 1121 H 102.548 1.47777 -1.41358 0
M  V30 1122 H 100.703 3.82623 -0.606491 0
M  V30 1123 H 101.117 4.4846 -2.72 0
M  V30 1124 H 102.591 5.37439 -1.25952 0
M  V30 1125 H 103.068 4.3903 0.122078 0
M  V30 1126 H 103.674 3.98007 -1.49902 0
M  V30 1127 N 101.989 0.842826 1.3317 0
M  V30 1128 C 102.936 0.276885 2.29133 0
M  V30 1129 C 103.906 -0.609527 1.54512 0
M  V30 1130 O 105.091 -0.546955 1.82792 0
M  V30 1131 C 102.231 -0.538707 3.40869 0
M  V30 1132 C 101.344 0.372169 4.30394 0
M  V30 1133 C 100.479 -0.454908 5.29249 0
M  V30 1134 C 99.5179 0.45411 6.10413 0
M  V30 1135 N 98.6549 -0.335075 7.013 0
M  V30 1136 H 103.495 1.10052 2.76934 0
M  V30 1137 H 101.032 0.554161 1.36262 0
M  V30 1138 H 102.99 -1.02709 4.0436 0
M  V30 1139 H 101.62 -1.32727 2.9425 0
M  V30 1140 H 100.672 0.97888 3.6759 0
M  V30 1141 H 101.984 1.0703 4.87182 0
M  V30 1142 H 101.138 -1.00695 5.98285 0
M  V30 1143 H 99.8769 -1.18646 4.73048 0
M  V30 1144 H 98.8819 1.01813 5.40291 0
M  V30 1145 H 100.107 1.18409 6.68697 0
M  V30 1146 H 98.0529 -1.04994 6.47543 0
M  V30 1147 H 97.9699 0.304262 7.55387 0
M  V30 1148 H 99.2379 -0.869224 7.74638 0
M  V30 1149 N 103.467 -1.45747 0.599634 0
M  V30 1150 C 104.692 -2.07178 0.0960198 0
M  V30 1151 C 105.117 -1.44268 -1.207 0
M  V30 1152 O 104.475 -0.532503 -1.73303 0
M  V30 1153 C 104.523 -3.60579 -0.0385348 0
M  V30 1154 O 103.627 -3.97713 -1.0908 0
M  V30 1155 H 102.968 -0.660251 0.0704593 0
M  V30 1156 H 105.498 -1.87124 0.827385 0
M  V30 1157 H 105.508 -4.07298 -0.239304 0
M  V30 1158 H 104.183 -4.05756 0.912947 0
M  V30 1159 H 102.76 -3.62678 -0.867135 0
M  V30 1160 N 104.945 -0.338344 -1.53925 0
M  V30 1161 C 105.855 0.529421 -2.28548 0
M  V30 1162 C 106.871 1.11645 -1.3346 0
M  V30 1163 O 108.047 1.13325 -1.66492 0
M  V30 1164 C 105.112 1.66713 -3.03987 0
M  V30 1165 C 104.173 1.11041 -4.14691 0
M  V30 1166 C 103.406 2.19389 -4.86522 0
M  V30 1167 O 103.629 3.40013 -4.57982 0
M  V30 1168 O 102.563 1.83976 -5.73094 0
M  V30 1169 H 106.389 -0.0770399 -3.03602 0
M  V30 1170 H 103.974 -0.103555 -1.49041 0
M  V30 1171 H 105.856 2.32918 -3.5118 0
M  V30 1172 H 104.531 2.25949 -2.31794 0
M  V30 1173 H 103.438 0.413024 -3.71813 0
M  V30 1174 H 104.771 0.562975 -4.8897 0
M  V30 1175 N 106.423 1.57458 -0.0668435 0
M  V30 1176 C 107.333 2.15937 0.916975 0
M  V30 1177 C 108.349 1.12123 1.33058 0
M  V30 1178 O 109.525 1.44366 1.40429 0
M  V30 1179 C 106.59 2.70547 2.16807 0
M  V30 1180 C 105.651 3.89215 1.81135 0
M  V30 1181 C 104.884 4.41211 3.0028 0
M  V30 1182 O 105.107 3.92225 4.14144 0
M  V30 1183 O 104.041 5.32605 2.80384 0
M  V30 1184 H 107.867 3.00354 0.449561 0
M  V30 1185 H 105.452 1.48584 0.155949 0
M  V30 1186 H 107.334 3.0557 2.90181 0
M  V30 1187 H 106.009 1.89192 2.62656 0
M  V30 1188 H 104.916 3.59054 1.05028 0
M  V30 1189 H 106.249 4.71848 1.40073 0
M  V30 1190 N 107.901 -0.206675 1.56239 0
M  V30 1191 C 108.811 -1.27686 1.96808 0
M  V30 1192 C 109.827 -1.50455 0.874035 0
M  V30 1193 O 111.003 -1.63295 1.17884 0
M  V30 1194 C 108.068 -2.60358 2.28942 0
M  V30 1195 C 107.129 -2.45762 3.51994 0
M  V30 1196 C 106.362 -3.72108 3.82585 0
M  V30 1197 O 106.585 -4.75776 3.14631 0
M  V30 1198 O 105.519 -3.6833 4.76043 0
M  V30 1199 H 109.345 -0.962593 2.88041 0
M  V30 1200 H 106.93 -0.410746 1.43643 0
M  V30 1201 H 108.812 -3.38687 2.50737 0
M  V30 1202 H 107.487 -2.91435 1.4088 0
M  V30 1203 H 106.394 -1.65584 3.35459 0
M  V30 1204 H 107.727 -2.19621 4.40486 0
M  V30 1205 N 109.379 -1.50304 -0.473955 0
M  V30 1206 C 110.309 -1.71886 -1.58042 0
M  V30 1207 C 111.29 -0.567799 -1.60344 0
M  V30 1208 O 112.475 -0.806623 -1.76656 0
M  V30 1209 C 109.605 -1.81036 -2.96384 0
M  V30 1210 C 108.559 -2.962 -3.08949 0
M  V30 1211 C 107.885 -2.9049 -4.48909 0
M  V30 1212 C 109.185 -4.36752 -2.86434 0
M  V30 1213 H 110.879 -2.64527 -1.40234 0
M  V30 1214 H 108.425 -1.27295 -0.673201 0
M  V30 1215 H 110.378 -1.94719 -3.73714 0
M  V30 1216 H 109.102 -0.850147 -3.15341 0
M  V30 1217 H 107.761 -2.82164 -2.3405 0
M  V30 1218 H 107.409 -1.92321 -4.64781 0
M  V30 1219 H 107.109 -3.67802 -4.58253 0
M  V30 1220 H 108.633 -3.06218 -5.28264 0
M  V30 1221 H 110.047 -4.5133 -3.53517 0
M  V30 1222 H 108.444 -5.15493 -3.07225 0
M  V30 1223 H 109.514 -4.49321 -1.82316 0
M  V30 1224 N 110.857 0.726932 -1.39834 0
M  V30 1225 C 111.767 1.87131 -1.41489 0
M  V30 1226 C 112.783 1.71239 -0.308757 0
M  V30 1227 O 113.959 1.93701 -0.551529 0
M  V30 1228 C 111.024 3.22811 -1.26468 0
M  V30 1229 C 110.085 3.51039 -2.47124 0
M  V30 1230 C 109.318 4.80245 -2.3281 0
M  V30 1231 O 109.541 5.54537 -1.33585 0
M  V30 1232 O 108.475 5.08554 -3.21957 0
M  V30 1233 H 112.301 1.8869 -2.3797 0
M  V30 1234 H 109.886 0.875837 -1.21035 0
M  V30 1235 H 111.768 4.03877 -1.20255 0
M  V30 1236 H 110.443 3.22005 -0.330862 0
M  V30 1237 H 109.35 2.70027 -2.58914 0
M  V30 1238 H 110.683 3.56632 -3.39227 0
M  V30 1239 N 112.336 1.25143 0.95797 0
M  V30 1240 C 113.613 1.00472 1.67823 0
M  V30 1241 C 113.993 -0.470056 2.058 0
M  V30 1242 O 113.341 -1.44663 1.76875 0
M  V30 1243 C 113.551 1.9372 2.90299 0
M  V30 1244 C 114.899 2.21371 3.62326 0
M  V30 1245 O 115.923 1.91451 3.00375 0
M  V30 1246 O 114.782 2.72231 4.7387 0
M  V30 1247 H 111.876 0.380752 0.734137 0
M  V30 1248 H 114.422 1.36283 1.01119 0
M  V30 1249 H 113.194 2.93316 2.59001 0
M  V30 1250 H 112.817 1.58286 3.64735 0
M  V30 1251 N 113.814 -1.1601 1.06675 0
M  V30 1252 C 115.044 -1.90251 0.805497 0
M  V30 1253 C 115.452 -1.77891 -0.64431 0
M  V30 1254 O 114.795 -1.12383 -1.45313 0
M  V30 1255 C 114.857 -3.41419 1.12576 0
M  V30 1256 C 114.521 -3.77564 2.57477 0
M  V30 1257 C 115.518 -3.79161 3.55715 0
M  V30 1258 C 113.203 -4.08079 2.92877 0
M  V30 1259 C 115.197 -4.10767 4.8739 0
M  V30 1260 C 112.884 -4.39351 4.24751 0
M  V30 1261 C 113.882 -4.40675 5.21818 0
M  V30 1262 O 113.57 -4.71202 6.51325 0
M  V30 1263 H 113.302 -0.610018 0.291297 0
M  V30 1264 H 115.856 -1.47958 1.4247 0
M  V30 1265 H 114.086 -3.84079 0.449503 0
M  V30 1266 H 115.775 -3.9694 0.84814 0
M  V30 1267 H 116.541 -3.55693 3.29708 0
M  V30 1268 H 112.42 -4.06211 2.17976 0
M  V30 1269 H 115.964 -4.11715 5.63148 0
M  V30 1270 H 111.861 -4.62285 4.50514 0
M  V30 1271 H 112.629 -4.88996 6.56373 0
M  V30 1272 N 115.292 -0.849877 -1.32721 0
M  V30 1273 C 116.541 -0.447175 -1.96681 0
M  V30 1274 C 116.854 1.00135 -1.68025 0
M  V30 1275 O 118.06 1.50926 -2.25685 0
M  V30 1276 C 116.516 -0.7487 -3.52026 0
M  V30 1277 C 116.124 -2.21264 -3.89546 0
M  V30 1278 C 117.868 -0.413487 -4.22481 0
M  V30 1279 C 115.775 -2.45763 -5.37917 0
M  V30 1280 H 114.705 -0.163486 -0.736063 0
M  V30 1281 H 117.356 -1.03999 -1.51183 0
M  V30 1282 H 115.738 -0.0853727 -3.95908 0
M  V30 1283 H 116.912 -2.91736 -3.56689 0
M  V30 1284 H 115.227 -2.5119 -3.32103 0
M  V30 1285 H 117.824 -0.574017 -5.3161 0
M  V30 1286 H 118.167 0.644492 -4.11281 0
M  V30 1287 H 118.7 -1.03251 -3.84167 0
M  V30 1288 H 115.439 -3.50168 -5.54132 0
M  V30 1289 H 114.959 -1.79864 -5.72197 0
M  V30 1290 H 116.638 -2.29471 -6.0494 0
M  V30 1291 N 116.77 1.45427 -0.607355 0
M  V30 1292 C 118.016 2.0254 -0.102607 0
M  V30 1293 C 118.349 1.47478 1.26348 0
M  V30 1294 O 117.624 0.64939 1.83339 0
M  V30 1295 C 117.907 3.60044 -0.0634347 0
M  V30 1296 C 117.76 4.2544 -1.46017 0
M  V30 1297 C 119.079 4.35646 0.624514 0
M  V30 1298 H 116.198 0.73598 -0.0387607 0
M  V30 1299 H 118.84 1.73284 -0.779282 0
M  V30 1300 H 116.99 3.85101 0.512808 0
M  V30 1301 H 118.662 4.11569 -2.08347 0
M  V30 1302 H 116.905 3.83849 -2.02094 0
M  V30 1303 H 117.576 5.34342 -1.385 0
M  V30 1304 H 120.052 4.15882 0.134723 0
M  V30 1305 H 118.928 5.45376 0.621028 0
M  V30 1306 H 119.189 4.08501 1.69055 0
M  V30 1307 N 118.248 0.346503 1.53744 0
M  V30 1308 C 119.158 -0.517293 2.28826 0
M  V30 1309 C 120.174 -1.10935 1.3405 0
M  V30 1310 O 121.35 -1.1244 1.6709 0
M  V30 1311 C 118.415 -1.65098 3.04866 0
M  V30 1312 C 117.476 -1.0884 4.15274 0
M  V30 1313 C 116.709 -2.16806 4.87679 0
M  V30 1314 O 116.932 -3.3758 4.59778 0
M  V30 1315 O 115.866 -1.80934 5.74061 0
M  V30 1316 H 119.692 0.0931396 3.03557 0
M  V30 1317 H 117.277 0.111458 1.48984 0
M  V30 1318 H 119.159 -2.31053 3.5241 0
M  V30 1319 H 117.834 -2.24717 2.32989 0
M  V30 1320 H 116.741 -0.3933 3.72027 0
M  V30 1321 H 118.074 -0.537036 4.89261 0
M  V30 1322 N 119.726 -1.57421 0.075193 0
M  V30 1323 C 120.975 -1.92794 -0.592731 0
M  V30 1324 C 121.288 -0.957478 -1.70563 0
M  V30 1325 O 122.494 -1.20417 -2.43335 0
M  V30 1326 C 120.95 -3.42495 -1.10569 0
M  V30 1327 C 120.558 -4.47994 -0.0236121 0
M  V30 1328 C 122.302 -3.86864 -1.74748 0
M  V30 1329 C 120.209 -5.88829 -0.550803 0
M  V30 1330 H 119.139 -0.719591 -0.225177 0
M  V30 1331 H 121.79 -1.82902 0.147978 0
M  V30 1332 H 120.172 -3.47471 -1.89947 0
M  V30 1333 H 121.346 -4.54637 0.751099 0
M  V30 1334 H 119.661 -4.13113 0.522159 0
M  V30 1335 H 122.258 -4.8947 -2.15229 0
M  V30 1336 H 122.601 -3.24417 -2.60882 0
M  V30 1337 H 123.134 -3.84504 -1.01986 0
M  V30 1338 H 119.873 -6.54929 0.273457 0
M  V30 1339 H 119.393 -5.85698 -1.29296 0
M  V30 1340 H 121.072 -6.38811 -1.02613 0
M  V30 1341 N 121.204 0.198386 -1.56346 0
M  V30 1342 C 122.114 1.2664 -1.97483 0
M  V30 1343 C 123.13 1.49989 -0.882002 0
M  V30 1344 O 124.306 1.62668 -1.18748 0
M  V30 1345 C 121.371 2.59141 -2.30319 0
M  V30 1346 C 120.432 2.43892 -3.53292 0
M  V30 1347 C 119.665 3.70074 -3.84553 0
M  V30 1348 O 119.888 4.74101 -3.1715 0
M  V30 1349 O 118.822 3.658 -4.7799 0
M  V30 1350 H 122.648 0.947304 -2.88548 0
M  V30 1351 H 120.233 0.403123 -1.43859 0
M  V30 1352 H 122.115 3.37352 -2.5253 0
M  V30 1353 H 120.79 2.90684 -1.42423 0
M  V30 1354 H 119.697 1.63803 -3.36332 0
M  V30 1355 H 121.03 2.17282 -4.41644 0
M  V30 1356 N 122.682 1.50554 0.465978 0
M  V30 1357 C 123.931 1.61038 1.21448 0
M  V30 1358 C 124.244 0.31865 1.92987 0
M  V30 1359 O 125.45 0.302469 2.6981 0
M  V30 1360 C 123.906 2.84283 2.20706 0
M  V30 1361 C 123.514 4.20352 1.54946 0
M  V30 1362 C 125.258 3.04115 2.96166 0
M  V30 1363 C 123.165 5.34778 2.5252 0
M  V30 1364 H 122.095 0.599718 0.457005 0
M  V30 1365 H 124.746 1.7699 0.484424 0
M  V30 1366 H 123.128 2.61901 2.97025 0
M  V30 1367 H 124.302 4.53008 0.843811 0
M  V30 1368 H 122.617 4.06167 0.917475 0
M  V30 1369 H 125.214 3.86774 3.69202 0
M  V30 1370 H 125.557 2.16045 3.55852 0
M  V30 1371 H 126.09 3.26702 2.26959 0
M  V30 1372 H 122.829 6.25018 1.97566 0
M  V30 1373 H 122.349 5.06534 3.21222 0
M  V30 1374 H 124.028 5.65561 3.14245 0
M  V30 1375 N 124.16 -0.719506 1.40217 0
M  V30 1376 C 125.09 -1.8465 1.42922 0
M  V30 1377 C 126.071 -1.67599 0.29062 0
M  V30 1378 O 127.256 -1.87688 0.498677 0
M  V30 1379 C 124.386 -3.22565 1.28722 0
M  V30 1380 C 123.34 -3.54281 2.40144 0
M  V30 1381 C 122.666 -4.91298 2.11023 0
M  V30 1382 C 123.966 -3.55676 3.82481 0
M  V30 1383 H 125.66 -1.82644 2.37237 0
M  V30 1384 H 123.206 -0.877305 1.1419 0
M  V30 1385 H 125.159 -4.01095 1.29232 0
M  V30 1386 H 123.883 -3.25137 0.308811 0
M  V30 1387 H 122.542 -2.78088 2.38877 0
M  V30 1388 H 122.19 -4.90468 1.11582 0
M  V30 1389 H 121.89 -5.13485 2.8567 0
M  V30 1390 H 123.414 -5.72166 2.13209 0
M  V30 1391 H 124.828 -4.24254 3.85592 0
M  V30 1392 H 123.225 -3.89388 4.56614 0
M  V30 1393 H 124.295 -2.55144 4.12346 0
M  V30 1394 N 125.638 -1.25649 -0.95132 0
M  V30 1395 C 126.601 -1.06399 -2.03007 0
M  V30 1396 C 127.601 -0.0156794 -1.60792 0
M  V30 1397 O 128.791 -0.25817 -1.72276 0
M  V30 1398 C 125.923 -0.616184 -3.35285 0
M  V30 1399 H 127.116 -2.02164 -2.21517 0
M  V30 1400 H 124.669 -1.08103 -1.12887 0
M  V30 1401 H 125.404 0.343917 -3.22471 0
M  V30 1402 H 125.189 -1.37301 -3.67275 0
M  V30 1403 H 126.679 -0.503032 -4.14559 0
M  V30 1404 N 127.117 1.15442 -1.07289 0
M  V30 1405 C 128.345 1.90096 -0.81676 0
M  V30 1406 C 128.76 1.7798 0.629966 0
M  V30 1407 O 128.117 1.1313 1.43206 0
M  V30 1408 C 128.168 3.40466 -1.21512 0
M  V30 1409 O 127.889 3.52232 -2.60508 0
M  V30 1410 C 129.39 4.32145 -0.988198 0
M  V30 1411 H 126.61 0.602495 -0.295366 0
M  V30 1412 H 129.154 1.4627 -1.42918 0
M  V30 1413 H 127.309 3.81958 -0.647039 0
M  V30 1414 H 127.723 4.45549 -2.76742 0
M  V30 1415 H 129.197 5.36072 -1.31645 0
M  V30 1416 H 129.674 4.39135 0.0755063 0
M  V30 1417 H 130.28 3.96395 -1.54115 0
M  V30 1418 N 128.595 0.856903 1.32268 0
M  V30 1419 C 129.835 0.467705 1.98977 0
M  V30 1420 C 130.199 -0.959231 1.66321 0
M  V30 1421 O 131.4 -1.4531 2.26138 0
M  V30 1422 C 129.671 0.70256 3.50427 0
M  V30 1423 S 131.23 0.411269 4.36868 0
M  V30 1424 H 128.048 0.175121 0.689096 0
M  V30 1425 H 130.65 1.1101 1.60925 0
M  V30 1426 H 129.354 1.74012 3.71683 0
M  V30 1427 H 128.885 0.0466707 3.93372 0
M  V30 1428 H 130.9 -0.761799 4.90317 0
M  V30 1429 N 130.073 -1.45103 0.615059 0
M  V30 1430 C 131.35 -1.95549 0.0448276 0
M  V30 1431 C 131.73 -1.55737 -1.4251 0
M  V30 1432 O 131.078 -0.823556 -2.13143 0
M  V30 1433 C 131.288 -3.48098 0.250785 0
M  V30 1434 C 132.636 -4.24384 0.135509 0
M  V30 1435 O 133.66 -3.55738 0.181299 0
M  V30 1436 O 132.519 -5.46493 0.0268878 0
M  V30 1437 H 129.613 -0.8264 -0.0314845 0
M  V30 1438 H 132.159 -1.55232 0.685642 0
M  V30 1439 H 130.931 -3.7007 1.27139 0
M  V30 1440 H 130.554 -3.95323 -0.424937 0
M  V30 1441 N 131.551 -0.354651 -1.53558 0
M  V30 1442 C 132.501 0.513179 -2.2215 0
M  V30 1443 C 133.485 1.05734 -1.21281 0
M  V30 1444 O 134.677 0.989202 -1.46778 0
M  V30 1445 C 131.806 1.65798 -3.00609 0
M  V30 1446 C 130.892 1.12722 -4.08845 0
M  V30 1447 N 131.283 0.318563 -5.04796 0
M  V30 1448 C 129.581 1.40307 -4.23356 0
M  V30 1449 C 130.282 0.0292224 -5.81693 0
M  V30 1450 N 129.258 0.623891 -5.40008 0
M  V30 1451 H 133.06 -0.111586 -2.93688 0
M  V30 1452 H 130.574 -0.162091 -1.61589 0
M  V30 1453 H 132.571 2.29176 -3.48258 0
M  V30 1454 H 131.231 2.28591 -2.306 0
M  V30 1455 H 132.242 -0.0413091 -5.17884 0
M  V30 1456 H 128.919 2.03458 -3.6457 0
M  V30 1457 H 130.309 -0.623808 -6.68998 0
M  V30 1458 N 133.029 1.57378 -0.0835403 0
M  V30 1459 C 134.44 1.81261 0.447358 0
M  V30 1460 C 134.791 0.998331 1.68902 0
M  V30 1461 O 133.916 0.224282 2.15235 0
M  V30 1462 C 134.511 3.28767 0.818386 0
M  V30 1463 C 133.07 3.53455 1.29409 0
M  V30 1464 C 132.217 2.75831 0.285024 0
M  V30 1465 H 135.168 1.5566 -0.309115 0
M  V30 1466 H 135.189 3.41459 1.67887 0
M  V30 1467 H 134.701 3.88006 -0.0855019 0
M  V30 1468 H 132.802 2.99534 2.21608 0
M  V30 1469 H 132.915 4.62128 1.2639 0
M  V30 1470 H 131.279 2.42947 0.764767 0
M  V30 1471 H 132.062 3.37813 -0.611341 0
M  V30 1472 N 134.507 -0.190092 1.56449 0
M  V30 1473 C 135.737 -0.92443 1.84764 0
M  V30 1474 C 136.145 -1.77146 0.664529 0
M  V30 1475 O 135.488 -1.79812 -0.375957 0
M  V30 1476 C 135.55 -1.86651 3.07248 0
M  V30 1477 C 135.214 -1.20094 4.40938 0
M  V30 1478 C 136.211 -0.575445 5.16706 0
M  V30 1479 C 133.896 -1.2033 4.87674 0
M  V30 1480 C 135.89 0.0388111 6.37388 0
M  V30 1481 C 133.577 -0.585214 6.08291 0
M  V30 1482 C 134.575 0.0347578 6.82991 0
M  V30 1483 O 134.263 0.643147 8.01323 0
M  V30 1484 H 133.995 -0.274974 0.617548 0
M  V30 1485 H 136.549 -0.200788 2.04416 0
M  V30 1486 H 134.779 -2.62998 2.83494 0
M  V30 1487 H 136.468 -2.46907 3.22167 0
M  V30 1488 H 137.234 -0.565728 4.81689 0
M  V30 1489 H 133.113 -1.67526 4.29484 0
M  V30 1490 H 136.657 0.523329 6.95634 0
M  V30 1491 H 132.554 -0.592451 6.42775 0
M  V30 1492 H 133.322 0.540545 8.16713 0
M  V30 1493 N 135.985 -1.50799 -0.457987 0
M  V30 1494 C 137.234 -1.6168 -1.20593 0
M  V30 1495 C 137.547 -0.32888 -1.92815 0
M  V30 1496 O 138.753 -0.316773 -2.69646 0
M  V30 1497 C 137.209 -2.8545 -2.19195 0
M  V30 1498 C 136.817 -4.21168 -1.52715 0
M  V30 1499 C 138.561 -3.05681 -2.94549 0
M  V30 1500 C 136.468 -5.3611 -2.4968 0
M  V30 1501 H 135.398 -0.602134 -0.453818 0
M  V30 1502 H 138.049 -1.77245 -0.475031 0
M  V30 1503 H 136.431 -2.63472 -2.95632 0
M  V30 1504 H 137.605 -4.53449 -0.819775 0
M  V30 1505 H 135.92 -4.06648 -0.895922 0
M  V30 1506 H 138.517 -3.88727 -3.67145 0
M  V30 1507 H 138.86 -2.17929 -3.54701 0
M  V30 1508 H 139.393 -3.27901 -2.25223 0
M  V30 1509 H 136.132 -6.26057 -1.94249 0
M  V30 1510 H 135.652 -5.0823 -3.18532 0
M  V30 1511 H 137.331 -5.6722 -3.11241 0
M  V30 1512 N 137.463 0.71206 -1.40597 0
M  V30 1513 C 138.709 1.47416 -1.39271 0
M  V30 1514 C 139.042 1.942 0.00388791 0
M  V30 1515 O 138.317 1.68403 0.973179 0
M  V30 1516 C 138.6 2.69774 -2.38525 0
M  V30 1517 C 138.453 2.28861 -3.87224 0
M  V30 1518 C 139.772 3.71939 -2.35264 0
M  V30 1519 H 136.891 0.534713 -0.5072 0
M  V30 1520 H 139.533 0.812375 -1.71757 0
M  V30 1521 H 137.683 3.26238 -2.10953 0
M  V30 1522 H 139.355 1.77852 -4.25636 0
M  V30 1523 H 137.598 1.60824 -4.02887 0
M  V30 1524 H 138.269 3.16584 -4.52193 0
M  V30 1525 H 140.745 3.25113 -2.59694 0
M  V30 1526 H 139.621 4.55186 -3.06753 0
M  V30 1527 H 139.882 4.20484 -1.36549 0
M  V30 1528 N 138.941 1.26152 0.944643 0
M  V30 1529 C 139.888 1.07408 2.04285 0
M  V30 1530 C 140.858 -0.0198413 1.66088 0
M  V30 1531 O 142.043 0.139264 1.90291 0
M  V30 1532 C 139.183 0.70945 3.37729 0
M  V30 1533 C 138.296 1.87926 3.88983 0
M  V30 1534 C 137.431 1.45807 5.10797 0
M  V30 1535 C 136.47 2.5964 5.54305 0
M  V30 1536 N 135.607 2.18226 6.67324 0
M  V30 1537 H 140.447 2.01389 2.1965 0
M  V30 1538 H 137.984 1.00275 1.07626 0
M  V30 1539 H 139.942 0.478948 4.14442 0
M  V30 1540 H 138.572 -0.193389 3.2222 0
M  V30 1541 H 137.624 2.22279 3.08701 0
M  V30 1542 H 138.936 2.73377 4.17213 0
M  V30 1543 H 138.09 1.18781 5.94959 0
M  V30 1544 H 136.829 0.574414 4.84305 0
M  V30 1545 H 135.834 2.87399 4.68702 0
M  V30 1546 H 137.059 3.48599 5.828 0
M  V30 1547 H 135.005 1.3229 6.42523 0
M  V30 1548 H 134.922 2.97221 6.95123 0
M  V30 1549 H 136.19 1.94403 7.54869 0
M  V30 1550 N 140.419 -1.14872 1.07899 0
M  V30 1551 C 141.349 -2.2193 0.725887 0
M  V30 1552 C 142.33 -1.67622 -0.28927 0
M  V30 1553 O 143.515 -1.93533 -0.160787 0
M  V30 1554 C 140.645 -3.47061 0.128856 0
M  V30 1555 C 139.599 -4.14363 1.07178 0
M  V30 1556 C 138.925 -5.33636 0.337229 0
M  V30 1557 C 140.225 -4.63492 2.40775 0
M  V30 1558 H 141.919 -2.51724 1.62097 0
M  V30 1559 H 139.465 -1.20991 0.780838 0
M  V30 1560 H 141.418 -4.21199 -0.130147 0
M  V30 1561 H 140.142 -3.16617 -0.80134 0
M  V30 1562 H 138.801 -3.42173 1.3158 0
M  V30 1563 H 138.449 -4.99449 -0.596606 0
M  V30 1564 H 138.149 -5.79609 0.965788 0
M  V30 1565 H 139.673 -6.10539 0.0861567 0
M  V30 1566 H 141.087 -5.2913 2.20669 0
M  V30 1567 H 139.484 -5.20148 2.99276 0
M  V30 1568 H 140.554 -3.78834 3.02676 0
M  V30 1569 N 141.898 -0.863906 -1.31812 0
M  V30 1570 C 142.828 -0.330843 -2.31144 0
M  V30 1571 C 143.809 0.575005 -1.60087 0
M  V30 1572 O 144.994 0.493304 -1.8783 0
M  V30 1573 C 142.124 0.47374 -3.44054 0
M  V30 1574 C 141.078 -0.338481 -4.26659 0
M  V30 1575 C 140.404 0.591412 -5.31419 0
M  V30 1576 C 141.704 -1.56926 -4.98168 0
M  V30 1577 H 143.398 -1.16086 -2.75979 0
M  V30 1578 H 140.944 -0.559657 -1.32679 0
M  V30 1579 H 142.897 0.857143 -4.12591 0
M  V30 1580 H 141.621 1.33721 -2.9797 0
M  V30 1581 H 140.28 -0.703754 -3.59782 0
M  V30 1582 H 139.928 1.45199 -4.81587 0
M  V30 1583 H 139.628 0.0519022 -5.87577 0
M  V30 1584 H 141.152 0.97179 -6.02817 0
M  V30 1585 H 142.566 -1.25764 -5.59336 0
M  V30 1586 H 140.963 -2.04739 -5.64094 0
M  V30 1587 H 142.033 -2.32544 -4.25501 0
M  V30 1588 N 143.376 1.44774 -0.622745 0
M  V30 1589 C 144.624 2.01721 -0.123655 0
M  V30 1590 C 144.945 1.49172 1.25589 0
M  V30 1591 O 144.215 0.691974 1.83272 0
M  V30 1592 H 142.795 0.745777 -0.0427225 0
M  V30 1593 H 145.457 1.77382 -0.807559 0
M  V30 1594 H 144.553 3.11984 -0.0849534 0
M  V30 1595 N 144.854 0.36279 1.53368 0
M  V30 1596 C 145.817 -0.472679 2.24273 0
M  V30 1597 C 146.817 -1.012 1.24961 0
M  V30 1598 O 148.007 -0.898194 1.49259 0
M  V30 1599 C 145.139 -1.66039 2.97731 0
M  V30 1600 H 146.332 0.14773 2.99536 0
M  V30 1601 H 143.885 0.114434 1.55881 0
M  V30 1602 H 144.62 -2.31896 2.26704 0
M  V30 1603 H 144.405 -1.28066 3.70596 0
M  V30 1604 H 145.895 -2.25252 3.51641 0
M  V30 1605 N 146.332 -1.57332 0.0918853 0
M  V30 1606 C 147.562 -1.98286 -0.580205 0
M  V30 1607 C 147.97 -0.969713 -1.6246 0
M  V30 1608 O 147.313 0.0493501 -1.83634 0
M  V30 1609 C 147.375 -3.35603 -1.28882 0
M  V30 1610 C 147.039 -4.55285 -0.395559 0
M  V30 1611 C 148.036 -5.18687 0.355002 0
M  V30 1612 C 145.721 -5.01314 -0.314556 0
M  V30 1613 C 147.715 -6.26484 1.17458 0
M  V30 1614 C 145.402 -6.08979 0.508677 0
M  V30 1615 C 146.4 -6.71429 1.2519 0
M  V30 1616 O 146.088 -7.77018 2.06151 0
M  V30 1617 H 145.82 -0.656678 -0.160466 0
M  V30 1618 H 148.374 -2.04721 0.16688 0
M  V30 1619 H 146.604 -3.25842 -2.08241 0
M  V30 1620 H 148.293 -3.61026 -1.85512 0
M  V30 1621 H 149.059 -4.84058 0.302134 0
M  V30 1622 H 144.938 -4.5247 -0.882697 0
M  V30 1623 H 148.482 -6.75159 1.75518 0
M  V30 1624 H 144.379 -6.4304 0.563037 0
M  V30 1625 H 145.147 -7.93991 1.98799 0
M  V30 1626 N 147.81 0.181792 -1.56548 0
M  V30 1627 C 149.04 0.914618 -1.85252 0
M  V30 1628 C 149.448 1.76791 -0.673914 0
M  V30 1629 O 148.791 1.80009 0.366416 0
M  V30 1630 C 148.853 1.85019 -3.08234 0
M  V30 1631 C 148.517 1.17754 -4.41569 0
M  V30 1632 C 149.514 0.548035 -5.17003 0
M  V30 1633 C 147.199 1.17742 -4.88305 0
M  V30 1634 C 149.193 -0.0726128 -6.37359 0
M  V30 1635 C 146.88 0.552946 -6.08593 0
M  V30 1636 C 147.878 -0.070978 -6.82963 0
M  V30 1637 O 147.566 -0.685635 -8.00971 0
M  V30 1638 H 147.298 0.271695 -0.618998 0
M  V30 1639 H 149.852 0.189944 -2.0452 0
M  V30 1640 H 148.082 2.61491 -2.84885 0
M  V30 1641 H 149.771 2.45195 -3.23472 0
M  V30 1642 H 150.537 0.540174 -4.81982 0
M  V30 1643 H 146.416 1.65246 -4.30366 0
M  V30 1644 H 149.96 -0.560213 -6.95347 0
M  V30 1645 H 145.857 0.558354 -6.43081 0
M  V30 1646 H 146.625 -0.58385 -8.16415 0
M  V30 1647 N 149.288 1.51039 0.449983 0
M  V30 1648 C 150.238 1.67824 1.54335 0
M  V30 1649 C 151.222 0.5324 1.51836 0
M  V30 1650 O 152.414 0.787762 1.58503 0
M  V30 1651 C 149.543 1.7951 2.92628 0
M  V30 1652 C 148.629 2.99838 2.9993 0
M  V30 1653 N 149.02 4.23207 2.77001 0
M  V30 1654 C 147.318 2.98832 3.31082 0
M  V30 1655 C 148.019 5.04361 2.89818 0
M  V30 1656 N 146.995 4.38746 3.2094 0
M  V30 1657 H 150.797 2.60884 1.35339 0
M  V30 1658 H 148.311 1.48513 0.657085 0
M  V30 1659 H 150.308 1.89642 3.7127 0
M  V30 1660 H 148.968 0.876227 3.12654 0
M  V30 1661 H 149.979 4.5236 2.52172 0
M  V30 1662 H 146.656 2.16527 3.56963 0
M  V30 1663 H 148.046 6.12528 2.76151 0
M  V30 1664 N 150.766 -0.704594 1.40972 0
M  V30 1665 C 152.043 -1.45847 1.30338 0
M  V30 1666 C 152.423 -2.10973 -0.0732344 0
M  V30 1667 O 151.771 -2.00997 -1.08685 0
M  V30 1668 C 151.981 -2.48525 2.45023 0
M  V30 1669 C 153.329 -3.1404 2.8577 0
M  V30 1670 O 154.353 -2.58848 2.44696 0
M  V30 1671 O 153.212 -4.13981 3.56766 0
M  V30 1672 H 150.306 -0.649092 0.512454 0
M  V30 1673 H 152.852 -0.735836 1.52917 0
M  V30 1674 H 151.624 -1.98994 3.36923 0
M  V30 1675 H 151.247 -3.2831 2.24272 0
M  V30 1676 N 152.244 -1.26651 -0.937939 0
M  V30 1677 C 153.492 -1.12165 -1.68118 0
M  V30 1678 C 153.813 0.334983 -1.92101 0
M  V30 1679 O 153.083 1.23583 -1.52 0
M  V30 1680 H 151.663 -0.412093 -0.623048 0
M  V30 1681 H 154.325 -1.59027 -1.12678 0
M  V30 1682 H 153.421 -1.64289 -2.6536 0
M  V30 1683 N 153.722 1.14298 -1.08507 0
M  V30 1684 C 154.669 2.19414 -0.715965 0
M  V30 1685 C 155.639 1.63399 0.298326 0
M  V30 1686 O 156.824 1.89929 0.182101 0
M  V30 1687 C 153.964 3.44845 -0.132534 0
M  V30 1688 C 153.077 4.15007 -1.19973 0
M  V30 1689 C 152.212 5.28024 -0.580048 0
M  V30 1690 C 151.251 5.9002 -1.62921 0
M  V30 1691 N 150.388 6.94485 -1.03125 0
M  V30 1692 H 155.228 2.50336 -1.61666 0
M  V30 1693 H 152.765 1.2293 -0.807882 0
M  V30 1694 H 154.723 4.16601 0.223454 0
M  V30 1695 H 153.353 3.14403 0.731467 0
M  V30 1696 H 152.405 3.41629 -1.67313 0
M  V30 1697 H 153.717 4.57178 -1.99473 0
M  V30 1698 H 152.871 6.06455 -0.172364 0
M  V30 1699 H 151.61 4.87076 0.246603 0
M  V30 1700 H 150.615 5.10291 -2.04654 0
M  V30 1701 H 151.84 6.33042 -2.45835 0
M  V30 1702 H 149.786 6.55612 -0.225711 0
M  V30 1703 H 149.703 7.35148 -1.76334 0
M  V30 1704 H 150.971 7.7679 -0.649458 0
M  V30 1705 N 155.201 0.870884 1.31352 0
M  V30 1706 C 156.131 0.343096 2.30966 0
M  V30 1707 C 157.112 -0.566507 1.60389 0
M  V30 1708 O 158.297 -0.483336 1.88089 0
M  V30 1709 C 155.427 -0.455487 3.443 0
M  V30 1710 C 154.381 0.361103 4.26474 0
M  V30 1711 C 153.707 -0.563221 5.31725 0
M  V30 1712 C 155.007 1.59566 4.97329 0
M  V30 1713 H 156.701 1.17548 2.75359 0
M  V30 1714 H 154.247 0.566686 1.32381 0
M  V30 1715 H 156.2 -0.83525 4.13039 0
M  V30 1716 H 154.924 -1.32139 2.98675 0
M  V30 1717 H 153.583 0.722825 3.59403 0
M  V30 1718 H 153.231 -1.42643 4.82351 0
M  V30 1719 H 152.931 -0.0207409 5.87596 0
M  V30 1720 H 154.455 -0.939808 6.03324 0
M  V30 1721 H 155.869 1.28728 5.58661 0
M  V30 1722 H 154.266 2.07728 5.63 0
M  V30 1723 H 155.336 2.34798 4.24262 0
M  V30 1724 N 156.679 -1.44442 0.630414 0
M  V30 1725 C 157.925 -2.02894 0.143332 0
M  V30 1726 C 158.28 -1.48697 -1.22094 0
M  V30 1727 O 157.573 -0.661171 -1.79831 0
M  V30 1728 C 157.767 -3.57332 0.0697835 0
M  V30 1729 C 157.596 -4.26512 1.42539 0
M  V30 1730 C 156.366 -4.63516 2.01198 0
M  V30 1731 C 158.564 -4.57004 2.35907 0
M  V30 1732 N 156.546 -5.17661 3.30001 0
M  V30 1733 C 157.917 -5.12223 3.49324 0
M  V30 1734 C 159.972 -4.38955 2.34995 0
M  V30 1735 C 158.675 -5.51295 4.62024 0
M  V30 1736 C 160.701 -4.79075 3.46758 0
M  V30 1737 C 160.063 -5.34407 4.58899 0
M  V30 1738 H 156.162 -0.776041 0.0963523 0
M  V30 1739 H 158.746 -1.75945 0.833752 0
M  V30 1740 H 156.917 -3.83894 -0.589915 0
M  V30 1741 H 158.649 -4.02451 -0.42606 0
M  V30 1742 H 155.404 -4.47811 1.54151 0
M  V30 1743 H 155.828 -5.4921 3.95851 0
M  V30 1744 H 160.47 -3.95469 1.49545 0
M  V30 1745 H 158.188 -5.93736 5.48182 0
M  V30 1746 H 161.774 -4.66824 3.47227 0
M  V30 1747 H 160.654 -5.64878 5.4395 0
M  V30 1748 N 158.157 -0.370918 -1.53173 0
M  V30 1749 C 159.406 0.218249 -2.00516 0
M  V30 1750 C 159.719 1.49429 -1.26215 0
M  V30 1751 O 160.925 2.16239 -1.64174 0
M  V30 1752 C 159.381 0.43948 -3.57207 0
M  V30 1753 C 158.989 -0.822244 -4.4039 0
M  V30 1754 C 160.733 0.986012 -4.1289 0
M  V30 1755 C 158.64 -0.570304 -5.88644 0
M  V30 1756 H 157.57 0.0853333 -0.749156 0
M  V30 1757 H 160.221 -0.490483 -1.76823 0
M  V30 1758 H 158.603 1.20961 -3.77074 0
M  V30 1759 H 159.777 -1.59557 -4.32294 0
M  V30 1760 H 158.092 -1.29238 -3.95836 0
M  V30 1761 H 160.689 1.18991 -5.21292 0
M  V30 1762 H 161.032 1.94972 -3.6782 0
M  V30 1763 H 161.565 0.27592 -3.96842 0
M  V30 1764 H 158.304 -1.50449 -6.38001 0
M  V30 1765 H 157.824 0.164427 -5.99575 0
M  V30 1766 H 159.503 -0.19784 -6.46697 0
M  V30 1767 N 159.635 1.57281 -0.100228 0
M  V30 1768 C 160.568 2.09976 0.893612 0
M  V30 1769 C 161.546 1.01155 1.27304 0
M  V30 1770 O 162.73 1.28687 1.37739 0
M  V30 1771 C 159.857 2.58098 2.19324 0
M  V30 1772 C 158.903 3.78626 1.96328 0
M  V30 1773 S 159.736 5.21959 1.19662 0
M  V30 1774 C 160.892 5.73435 2.50844 0
M  V30 1775 H 161.125 2.93946 0.44534 0
M  V30 1776 H 158.658 1.53985 0.113167 0
M  V30 1777 H 160.616 2.8648 2.94005 0
M  V30 1778 H 159.277 1.74344 2.61272 0
M  V30 1779 H 158.47 4.10382 2.92579 0
M  V30 1780 H 158.072 3.50763 1.29775 0
M  V30 1781 H 160.364 5.82015 3.46792 0
M  V30 1782 H 161.307 6.7185 2.23659 0
M  V30 1783 H 161.715 5.01395 2.59352 0
M  V30 1784 N 161.113 -0.173488 1.56642 0
M  V30 1785 C 162.362 -0.888758 1.81063 0
M  V30 1786 C 162.675 -1.83506 0.67712 0
M  V30 1787 O 163.881 -2.59254 0.806206 0
M  V30 1788 C 162.337 -1.63091 3.20826 0
M  V30 1789 C 161.945 -0.728357 4.4204 0
M  V30 1790 C 163.689 -2.33454 3.54541 0
M  V30 1791 C 161.596 -1.47062 5.72823 0
M  V30 1792 H 160.526 -0.335618 0.675186 0
M  V30 1793 H 163.177 -0.141712 1.82952 0
M  V30 1794 H 161.559 -2.42263 3.13248 0
M  V30 1795 H 162.733 0.0262449 4.60793 0
M  V30 1796 H 161.048 -0.134492 4.16183 0
M  V30 1797 H 163.645 -2.89578 4.49498 0
M  V30 1798 H 163.988 -3.08687 2.79317 0
M  V30 1799 H 164.521 -1.61227 3.63663 0
M  V30 1800 H 161.26 -0.760658 6.51072 0
M  V30 1801 H 160.78 -2.1986 5.58052 0
M  V30 1802 H 162.459 -2.01868 6.14702 0
M  V30 1803 N 162.591 -1.51276 -0.441967 0
M  V30 1804 C 163.501 -1.75092 -1.56141 0
M  V30 1805 C 164.517 -0.634963 -1.62001 0
M  V30 1806 O 165.693 -0.916686 -1.79329 0
M  V30 1807 C 162.758 -1.86666 -2.92158 0
M  V30 1808 C 161.819 -3.10506 -2.96453 0
M  V30 1809 C 161.052 -3.21519 -4.25982 0
M  V30 1810 O 161.275 -2.38586 -5.18105 0
M  V30 1811 O 160.209 -4.14465 -4.36466 0
M  V30 1812 H 164.035 -2.70044 -1.38961 0
M  V30 1813 H 161.62 -1.35722 -0.624499 0
M  V30 1814 H 163.502 -1.96292 -3.72891 0
M  V30 1815 H 162.177 -0.949014 -3.09476 0
M  V30 1816 H 161.084 -3.06363 -2.14692 0
M  V30 1817 H 162.417 -4.01945 -2.84079 0
M  V30 1818 N 164.069 0.697108 -1.41344 0
M  V30 1819 C 165.316 1.45714 -1.40619 0
M  V30 1820 C 165.644 1.94494 -0.0147907 0
M  V30 1821 O 164.899 1.69794 0.973066 0
M  V30 1822 C 165.198 2.68553 -2.35826 0
M  V30 1823 C 164.864 2.38438 -3.82698 0
M  V30 1824 C 163.526 2.29936 -4.22709 0
M  V30 1825 C 165.878 2.13567 -4.75435 0
M  V30 1826 C 163.206 1.94656 -5.53467 0
M  V30 1827 C 165.558 1.79797 -6.06511 0
M  V30 1828 C 164.222 1.69789 -6.45545 0
M  V30 1829 H 163.492 0.533206 -0.51456 0
M  V30 1830 H 166.139 0.796901 -1.74131 0
M  V30 1831 H 164.444 3.39503 -1.95563 0
M  V30 1832 H 166.141 3.2669 -2.32539 0
M  V30 1833 H 162.731 2.4595 -3.51008 0
M  V30 1834 H 166.915 2.19082 -4.45328 0
M  V30 1835 H 162.171 1.8546 -5.82593 0
M  V30 1836 H 166.345 1.59572 -6.77872 0
M  V30 1837 H 163.972 1.4222 -7.46778 0
M  V30 1838 N 165.547 1.27147 0.931209 0
M  V30 1839 C 166.787 1.14511 1.69312 0
M  V30 1840 C 167.151 -0.304638 1.89568 0
M  V30 1841 O 168.352 -0.553343 2.63043 0
M  V30 1842 C 166.623 1.90349 3.02493 0
M  V30 1843 S 168.182 1.93884 3.93642 0
M  V30 1844 H 165 0.408858 0.581684 0
M  V30 1845 H 167.602 1.61006 1.10893 0
M  V30 1846 H 166.306 2.94877 2.85439 0
M  V30 1847 H 165.837 1.44333 3.65966 0
M  V30 1848 H 167.852 1.03273 4.85334 0
M  V30 1849 N 167.025 -1.13721 1.09112 0
M  V30 1850 C 168.436 -1.6648 0.845068 0
M  V30 1851 C 168.787 -1.85911 -0.62701 0
M  V30 1852 O 167.912 -1.57556 -1.48341 0
M  V30 1853 C 168.507 -3.02413 1.52748 0
M  V30 1854 C 167.066 -3.52176 1.32849 0
M  V30 1855 C 166.213 -2.27492 1.58564 0
M  V30 1856 H 169.164 -0.976872 1.25072 0
M  V30 1857 H 169.185 -3.68223 0.958752 0
M  V30 1858 H 168.697 -2.88238 2.59885 0
M  V30 1859 H 166.798 -3.7156 0.278137 0
M  V30 1860 H 166.911 -4.32499 2.0611 0
M  V30 1861 H 165.275 -2.33923 1.00758 0
M  V30 1862 H 166.058 -2.15886 2.66924 0
M  V30 1863 N 168.503 -0.877838 -1.30888 0
M  V30 1864 C 169.751 -0.491723 -1.96027 0
M  V30 1865 C 170.072 0.960827 -1.69685 0
M  V30 1866 O 169.342 1.67462 -1.01654 0
M  V30 1867 H 167.922 -0.17885 -0.725273 0
M  V30 1868 H 170.584 -1.11935 -1.59551 0
M  V30 1869 H 169.68 -0.656016 -3.05128 0
M  V30 1870 N 169.982 1.44106 -0.638065 0
M  V30 1871 C 171.23 2.01579 -0.145043 0
M  V30 1872 C 171.551 1.50496 1.24 0
M  V30 1873 O 170.821 0.711374 1.82527 0
M  V30 1874 H 169.401 0.745282 -0.05063 0
M  V30 1875 H 172.063 1.76516 -0.826327 0
M  V30 1876 H 171.159 3.11877 -0.118039 0
M  V30 1877 N 171.46 0.379036 1.52974 0
M  V30 1878 C 172.423 -0.448865 2.24762 0
M  V30 1879 C 173.423 -0.998689 1.26027 0
M  V30 1880 O 174.613 -0.882313 1.50203 0
M  V30 1881 C 171.745 -1.62872 2.99476 0
M  V30 1882 H 172.938 0.179491 2.99362 0
M  V30 1883 H 170.491 0.13096 1.5575 0
M  V30 1884 H 171.226 -2.29479 2.29151 0
M  V30 1885 H 171.011 -1.24128 3.71934 0
M  V30 1886 H 172.501 -2.2151 3.5401 0
M  V30 1887 N 172.938 -1.57226 0.108567 0
M  V30 1888 C 174.184 -1.95121 -0.552761 0
M  V30 1889 C 174.517 -0.991345 -1.66991 0
M  V30 1890 O 173.792 -0.0267211 -1.94482 0
M  V30 1891 C 174.075 -3.43039 -1.09528 0
M  V30 1892 C 173.928 -4.49797 0.0177332 0
M  V30 1893 C 175.247 -3.92567 -1.98945 0
M  V30 1894 H 172.366 -0.709496 -0.199461 0
M  V30 1895 H 175.008 -1.89126 0.182011 0
M  V30 1896 H 173.158 -3.48279 -1.72146 0
M  V30 1897 H 174.83 -4.56661 0.652584 0
M  V30 1898 H 173.073 -4.284 0.682309 0
M  V30 1899 H 173.744 -5.50528 -0.402919 0
M  V30 1900 H 176.22 -3.89565 -1.46214 0
M  V30 1901 H 175.096 -4.96605 -2.33827 0
M  V30 1902 H 175.357 -3.32648 -2.91201 0
M  V30 1903 N 174.416 0.165178 -1.56732 0
M  V30 1904 C 175.693 0.908443 -1.73224 0
M  V30 1905 C 176.073 2.0013 -0.67165 0
M  V30 1906 O 175.421 2.26353 0.31253 0
M  V30 1907 C 175.631 1.46756 -3.16644 0
M  V30 1908 C 176.979 1.93809 -3.77787 0
M  V30 1909 O 178.003 1.56537 -3.1996 0
M  V30 1910 O 176.862 2.62486 -4.79336 0
M  V30 1911 H 173.956 0.428025 -0.707618 0
M  V30 1912 H 176.502 0.152526 -1.69013 0
M  V30 1913 H 175.274 0.68129 -3.85323 0
M  V30 1914 H 174.897 2.28749 -3.25207 0
M  V30 1915 N 175.894 1.51508 0.433938 0
M  V30 1916 C 176.857 1.72473 1.50949 0
M  V30 1917 C 177.857 0.594725 1.49398 0
M  V30 1918 O 179.047 0.862315 1.5136 0
M  V30 1919 C 176.179 1.78431 2.90474 0
M  V30 1920 H 177.372 2.68467 1.33662 0
M  V30 1921 H 174.925 1.41549 0.662836 0
M  V30 1922 H 175.66 0.842645 3.13161 0
M  V30 1923 H 175.445 2.60558 2.93005 0
M  V30 1924 H 176.935 1.96479 3.68491 0
M  V30 1925 N 177.372 -0.689602 1.41712 0
M  V30 1926 C 178.621 -1.44534 1.40686 0
M  V30 1927 C 178.934 -1.95588 0.0213352 0
M  V30 1928 O 180.14 -2.71271 -0.111534 0
M  V30 1929 C 178.596 -2.61387 2.47396 0
M  V30 1930 C 178.204 -2.17094 3.91885 0
M  V30 1931 C 179.948 -3.38986 2.55517 0
M  V30 1932 C 177.855 -3.3094 4.90135 0
M  V30 1933 H 176.785 -0.542925 0.52321 0
M  V30 1934 H 179.436 -0.748054 1.6756 0
M  V30 1935 H 177.818 -3.33412 2.13664 0
M  V30 1936 H 178.992 -1.52318 4.34897 0
M  V30 1937 H 177.307 -1.52473 3.8748 0
M  V30 1938 H 179.904 -4.23747 3.26102 0
M  V30 1939 H 180.247 -3.84578 1.59391 0
M  V30 1940 H 180.78 -2.74021 2.8837 0
M  V30 1941 H 177.519 -2.90355 5.87685 0
M  V30 1942 H 177.039 -3.94546 4.51767 0
M  V30 1943 H 178.718 -3.9663 5.11169 0
M  V30 1944 N 178.85 -1.27639 -0.924453 0
M  V30 1945 C 179.783 -1.04966 -2.02626 0
M  V30 1946 C 180.761 0.0309505 -1.62571 0
M  V30 1947 O 181.945 -0.114846 -1.8815 0
M  V30 1948 C 179.072 -0.59292 -3.3347 0
M  V30 1949 C 178.118 -1.66858 -3.92506 0
M  V30 1950 S 178.951 -3.2619 -4.24689 0
M  V30 1951 C 180.107 -2.82325 -5.58609 0
M  V30 1952 H 180.34 -1.98252 -2.21547 0
M  V30 1953 H 177.873 -1.11506 -1.06798 0
M  V30 1954 H 179.831 -0.336086 -4.09122 0
M  V30 1955 H 178.492 0.319939 -3.12466 0
M  V30 1956 H 177.685 -1.30038 -4.86935 0
M  V30 1957 H 177.287 -1.87766 -3.2345 0
M  V30 1958 H 179.579 -2.2783 -6.38044 0
M  V30 1959 H 180.522 -3.75511 -6.00331 0
M  V30 1960 H 180.93 -2.21367 -5.19285 0
M  V30 1961 N 180.328 1.1314 -1.09713 0
M  V30 1962 C 181.258 2.20748 -0.761102 0
M  V30 1963 C 182.239 1.68061 0.262566 0
M  V30 1964 O 183.424 1.93765 0.129977 0
M  V30 1965 C 180.554 3.46812 -0.184054 0
M  V30 1966 C 179.508 4.12606 -1.13757 0
M  V30 1967 C 178.834 5.33031 -0.422083 0
M  V30 1968 C 180.134 4.59603 -2.48118 0
M  V30 1969 H 181.828 2.49113 -1.66082 0
M  V30 1970 H 179.374 1.19734 -0.799987 0
M  V30 1971 H 181.327 4.21353 0.0631215 0
M  V30 1972 H 180.051 3.17851 0.750868 0
M  V30 1973 H 178.71 3.40036 -1.37007 0
M  V30 1974 H 178.358 5.00335 0.517072 0
M  V30 1975 H 178.058 5.77999 -1.05788 0
M  V30 1976 H 179.582 6.10325 -0.183277 0
M  V30 1977 H 180.996 5.25552 -2.29059 0
M  V30 1978 H 179.393 5.15321 -3.07514 0
M  V30 1979 H 180.463 3.73971 -3.08665 0
M  V30 1980 N 181.806 0.884767 1.30421 0
M  V30 1981 C 182.716 0.355398 2.31892 0
M  V30 1982 C 183.732 -0.542261 1.65335 0
M  V30 1983 O 184.908 -0.435432 1.96637 0
M  V30 1984 C 181.973 -0.421661 3.44126 0
M  V30 1985 C 181.034 0.505727 4.26311 0
M  V30 1986 C 180.267 -0.234343 5.33185 0
M  V30 1987 O 180.49 -1.46045 5.51386 0
M  V30 1988 O 179.424 0.415443 6.00465 0
M  V30 1989 H 183.25 1.19685 2.79122 0
M  V30 1990 H 180.835 0.648596 1.34587 0
M  V30 1991 H 182.717 -0.861641 4.12497 0
M  V30 1992 H 181.392 -1.23942 2.99032 0
M  V30 1993 H 180.299 0.994513 3.60639 0
M  V30 1994 H 181.632 1.28948 4.75009 0
M  V30 1995 N 183.284 -1.43765 0.645699 0
M  V30 1996 C 184.214 -2.33471 -0.0370477 0
M  V30 1997 C 185.195 -1.49042 -0.819779 0
M  V30 1998 O 186.38 -1.77726 -0.782758 0
M  V30 1999 C 183.51 -3.32311 -1.0093 0
M  V30 2000 C 182.464 -4.2667 -0.337201 0
M  V30 2001 C 181.79 -5.1549 -1.42037 0
M  V30 2002 C 183.09 -5.16657 0.765706 0
M  V30 2003 H 184.784 -2.90809 0.712069 0
M  V30 2004 H 182.33 -1.39834 0.343876 0
M  V30 2005 H 184.283 -3.9396 -1.49578 0
M  V30 2006 H 183.007 -2.73213 -1.78948 0
M  V30 2007 H 181.666 -3.66374 0.128771 0
M  V30 2008 H 181.314 -4.52735 -2.1918 0
M  V30 2009 H 181.014 -5.79438 -0.975966 0
M  V30 2010 H 182.538 -5.80012 -1.90838 0
M  V30 2011 H 183.952 -5.72158 0.361702 0
M  V30 2012 H 182.349 -5.89286 1.13413 0
M  V30 2013 H 183.419 -4.56796 1.62683 0
M  V30 2014 N 184.763 -0.387143 -1.52771 0
M  V30 2015 C 186.04 0.253197 -1.93954 0
M  V30 2016 C 186.42 1.64545 -1.32243 0
M  V30 2017 O 185.768 2.23191 -0.489699 0
M  V30 2018 C 185.978 0.281722 -3.47861 0
M  V30 2019 C 187.326 0.511715 -4.21505 0
M  V30 2020 O 188.35 0.362023 -3.54356 0
M  V30 2021 O 187.209 0.804847 -5.40541 0
M  V30 2022 H 184.303 0.156845 -0.811991 0
M  V30 2023 H 186.849 -0.441494 -1.63856 0
M  V30 2024 H 185.621 -0.693571 -3.85104 0
M  V30 2025 H 185.244 1.02142 -3.84256 0
M  V30 2026 N 186.241 1.57166 -0.116904 0
M  V30 2027 C 187.657 1.5779 0.239693 0
M  V30 2028 C 187.857 1.1295 1.66867 0
M  V30 2029 O 186.913 0.81592 2.38954 0
M  V30 2030 C 188.226 3.00699 0.00828202 0
M  V30 2031 C 189.774 3.12912 0.0743438 0
M  V30 2032 C 190.249 4.57817 -0.129348 0
M  V30 2033 N 191.74 4.63139 -0.075247 0
M  V30 2034 C 192.475 5.73023 -0.207788 0
M  V30 2035 N 191.971 6.91665 -0.396382 0
M  V30 2036 N 193.764 5.61906 -0.14751 0
M  V30 2037 H 185.915 1.84615 -1.05029 0
M  V30 2038 H 188.178 0.85311 -0.41341 0
M  V30 2039 H 187.884 3.37784 -0.979531 0
M  V30 2040 H 187.758 3.69848 0.741077 0
M  V30 2041 H 190.145 2.75686 1.05268 0
M  V30 2042 H 190.226 2.4631 -0.690297 0
M  V30 2043 H 189.87 4.95742 -1.10465 0
M  V30 2044 H 189.8 5.22507 0.655253 0
M  V30 2045 H 192.291 3.7784 0.0670898 0
M  V30 2046 H 192.604 7.71255 -0.488437 0
M  V30 2047 H 190.949 6.93654 -0.432329 0
M  V30 2048 H 194.14 4.681 -0.00115036 0
M  V30 2049 H 194.313 6.47501 -0.254247 0
M  V30 2050 N 187.719 -0.156864 1.56817 0
M  V30 2051 C 188.967 -0.869404 1.82444 0
M  V30 2052 C 189.288 -1.82147 0.69623 0
M  V30 2053 O 188.558 -1.93847 -0.28287 0
M  V30 2054 H 187.138 -0.324043 0.673056 0
M  V30 2055 H 189.8 -0.153224 1.94297 0
M  V30 2056 H 188.896 -1.43761 2.77019 0
M  V30 2057 N 189.197 -1.51736 -0.425897 0
M  V30 2058 C 190.127 -1.76827 -1.52494 0
M  V30 2059 C 191.108 -0.618524 -1.58456 0
M  V30 2060 O 192.293 -0.862416 -1.74 0
M  V30 2061 C 189.423 -1.90374 -2.90474 0
M  V30 2062 C 188.377 -3.0588 -2.99369 0
M  V30 2063 C 187.703 -3.04625 -4.3944 0
M  V30 2064 C 189.003 -4.45644 -2.72394 0
M  V30 2065 H 190.697 -2.68855 -1.31748 0
M  V30 2066 H 188.243 -1.29372 -0.632362 0
M  V30 2067 H 190.196 -2.0651 -3.6733 0
M  V30 2068 H 188.92 -0.95004 -3.12477 0
M  V30 2069 H 187.579 -2.89467 -2.24954 0
M  V30 2070 H 187.227 -2.0701 -4.58428 0
M  V30 2071 H 186.927 -3.82195 -4.46319 0
M  V30 2072 H 188.451 -3.22869 -5.18255 0
M  V30 2073 H 189.865 -4.62348 -3.38979 0
M  V30 2074 H 188.262 -5.25006 -2.9067 0
M  V30 2075 H 189.332 -4.54893 -1.67929 0
M  V30 2076 N 190.675 0.682077 -1.42076 0
M  V30 2077 C 191.903 1.47057 -1.4554 0
M  V30 2078 C 192.318 1.8869 -0.0645779 0
M  V30 2079 O 191.675 1.57666 0.919115 0
M  V30 2080 C 191.726 2.72442 -2.37609 0
M  V30 2081 O 191.447 2.32559 -3.71279 0
M  V30 2082 C 192.948 3.66069 -2.50017 0
M  V30 2083 H 190.168 0.452737 -0.495248 0
M  V30 2084 H 192.712 0.838695 -1.8651 0
M  V30 2085 H 190.867 3.31835 -1.9991 0
M  V30 2086 H 191.281 3.13475 -4.20516 0
M  V30 2087 H 192.755 4.50792 -3.18576 0
M  V30 2088 H 193.232 4.11476 -1.53572 0
M  V30 2089 H 193.838 3.12572 -2.88407 0
M  V30 2090 N 192.153 1.28127 0.917671 0
M  V30 2091 C 193.063 1.13556 2.05286 0
M  V30 2092 C 194.079 0.0630914 1.73886 0
M  V30 2093 O 195.255 0.271598 1.9956 0
M  V30 2094 C 192.32 0.794676 3.3747 0
M  V30 2095 C 191.381 1.94909 3.82504 0
M  V30 2096 C 190.614 1.62437 5.0838 0
M  V30 2097 O 190.837 0.536905 5.67867 0
M  V30 2098 O 189.771 2.46677 5.4903 0
M  V30 2099 H 193.597 2.08844 2.20495 0
M  V30 2100 H 191.182 1.07409 1.03845 0
M  V30 2101 H 193.064 0.618344 4.16839 0
M  V30 2102 H 191.739 -0.128581 3.23445 0
M  V30 2103 H 190.646 2.18055 3.03978 0
M  V30 2104 H 191.979 2.85291 4.01086 0
M  V30 2105 N 193.631 -1.12557 1.10312 0
M  V30 2106 C 195.042 -1.65574 0.862678 0
M  V30 2107 C 195.393 -1.86566 -0.607256 0
M  V30 2108 O 194.518 -1.59121 -1.46662 0
M  V30 2109 C 195.113 -3.00776 1.55947 0
M  V30 2110 C 193.672 -3.50748 1.36576 0
M  V30 2111 C 192.819 -2.25797 1.60968 0
M  V30 2112 H 195.77 -0.963552 1.26101 0
M  V30 2113 H 195.791 -3.67185 0.997753 0
M  V30 2114 H 195.303 -2.85465 2.62928 0
M  V30 2115 H 193.404 -3.71245 0.317531 0
M  V30 2116 H 193.517 -4.30289 2.10686 0
M  V30 2117 H 191.881 -2.32841 1.03234 0
M  V30 2118 H 192.664 -2.13043 2.69198 0
M  V30 2119 N 195.109 -0.891671 -1.2995 0
M  V30 2120 C 196.041 -0.320695 -2.26945 0
M  V30 2121 C 197.054 0.528497 -1.53983 0
M  V30 2122 O 198.243 0.346959 -1.75096 0
M  V30 2123 C 195.343 0.562066 -3.34207 0
M  V30 2124 C 194.516 -0.259576 -4.36629 0
M  V30 2125 C 193.575 0.554739 -5.23268 0
M  V30 2126 O 192.601 -0.0249311 -5.69195 0
M  V30 2127 N 193.803 1.8625 -5.4981 0
M  V30 2128 H 196.568 -1.15432 -2.76578 0
M  V30 2129 H 194.129 -0.755336 -1.432 0
M  V30 2130 H 196.121 1.11304 -3.89093 0
M  V30 2131 H 194.691 1.29637 -2.84452 0
M  V30 2132 H 193.911 -0.991986 -3.81514 0
M  V30 2133 H 195.199 -0.822564 -5.02107 0
M  V30 2134 H 194.597 2.35628 -5.14292 0
M  V30 2135 H 193.154 2.36078 -6.07545 0
M  V30 2136 N 196.587 1.43421 -0.653314 0
M  V30 2137 C 197.836 2.01032 -0.164076 0
M  V30 2138 C 198.149 1.52147 1.22926 0
M  V30 2139 O 199.355 2.02031 1.81371 0
M  V30 2140 C 197.811 3.59082 -0.24252 0
M  V30 2141 C 197.419 4.1696 -1.63855 0
M  V30 2142 C 199.163 4.24079 0.18911 0
M  V30 2143 C 197.07 5.67304 -1.67092 0
M  V30 2144 H 196 0.751798 -0.0575769 0
M  V30 2145 H 198.651 1.6439 -0.815362 0
M  V30 2146 H 197.033 3.93125 0.476276 0
M  V30 2147 H 198.207 3.94416 -2.38271 0
M  V30 2148 H 196.522 3.64335 -2.01616 0
M  V30 2149 H 199.119 5.34381 0.184775 0
M  V30 2150 H 199.462 3.98005 1.22056 0
M  V30 2151 H 199.995 3.94918 -0.477938 0
M  V30 2152 H 196.734 5.98145 -2.68146 0
M  V30 2153 H 196.254 5.91904 -0.970014 0
M  V30 2154 H 197.933 6.31344 -1.4147 0
M  V30 2155 N 198.065 0.39524 1.52563 0
M  V30 2156 C 198.997 -0.472201 2.24283 0
M  V30 2157 C 200.01 -1.02178 1.26742 0
M  V30 2158 O 201.199 -0.923097 1.52778 0
M  V30 2159 C 198.299 -1.66775 2.95024 0
M  V30 2160 C 197.472 -1.2445 4.19322 0
M  V30 2161 C 196.531 -2.30539 4.7301 0
M  V30 2162 O 195.557 -1.91702 5.35947 0
M  V30 2163 N 196.759 -3.6253 4.53379 0
M  V30 2164 H 199.524 0.142282 2.99362 0
M  V30 2165 H 197.085 0.2219 1.60372 0
M  V30 2166 H 199.077 -2.37283 3.27839 0
M  V30 2167 H 197.647 -2.18845 2.23217 0
M  V30 2168 H 196.867 -0.368069 3.92478 0
M  V30 2169 H 198.155 -0.938457 5.0007 0
M  V30 2170 H 197.553 -3.96841 4.03154 0
M  V30 2171 H 196.11 -4.29055 4.90668 0
M  V30 2172 N 199.544 -1.57102 0.125237 0
M  V30 2173 C 200.79 -1.95697 -0.532035 0
M  V30 2174 C 201.123 -1.009 -1.6593 0
M  V30 2175 O 200.398 -0.047347 -1.94442 0
M  V30 2176 C 200.681 -3.44181 -1.05884 0
M  V30 2177 C 200.534 -4.49752 0.0654392 0
M  V30 2178 C 201.853 -3.94655 -1.9477 0
M  V30 2179 H 198.972 -0.711571 -0.191925 0
M  V30 2180 H 201.614 -1.88923 0.20206 0
M  V30 2181 H 199.764 -3.50085 -1.68442 0
M  V30 2182 H 201.436 -4.55943 0.700982 0
M  V30 2183 H 199.679 -4.27653 0.727709 0
M  V30 2184 H 200.35 -5.50924 -0.344505 0
M  V30 2185 H 202.826 -3.91094 -1.42074 0
M  V30 2186 H 201.702 -4.99057 -2.28546 0
M  V30 2187 H 201.963 -3.35718 -2.87656 0
M  V30 2188 N 201.022 0.148545 -1.56898 0
M  V30 2189 C 202.268 0.862694 -1.83536 0
M  V30 2190 C 202.601 1.80889 -0.706604 0
M  V30 2191 O 201.876 1.92328 0.289885 0
M  V30 2192 C 202.159 1.63853 -3.20662 0
M  V30 2193 C 202.012 0.713925 -4.44098 0
M  V30 2194 C 203.331 2.60133 -3.54991 0
M  V30 2195 H 200.45 0.312179 -0.667618 0
M  V30 2196 H 203.092 0.127953 -1.89569 0
M  V30 2197 H 201.242 2.26489 -3.1565 0
M  V30 2198 H 202.914 0.098686 -4.61194 0
M  V30 2199 H 201.157 0.0234019 -4.33794 0
M  V30 2200 H 201.828 1.29278 -5.36648 0
M  V30 2201 H 204.304 2.07616 -3.60603 0
M  V30 2202 H 203.18 3.11468 -4.51972 0
M  V30 2203 H 203.441 3.41417 -2.80868 0
M  V30 2204 N 202.5 1.5196 0.417844 0
M  V30 2205 C 203.74 1.67262 1.17486 0
M  V30 2206 C 204.104 0.38983 1.88001 0
M  V30 2207 O 205.305 0.418845 2.65517 0
M  V30 2208 C 203.576 2.85526 2.14965 0
M  V30 2209 S 205.135 3.21263 2.98891 0
M  V30 2210 H 201.953 0.589077 0.398132 0
M  V30 2211 H 204.555 1.89927 0.463452 0
M  V30 2212 H 203.259 3.77145 1.61833 0
M  V30 2213 H 202.79 2.65107 2.90657 0
M  V30 2214 H 204.805 2.69208 4.16823 0
M  V30 2215 N 203.978 -0.674533 1.42435 0
M  V30 2216 C 205.394 -0.98769 1.25367 0
M  V30 2217 C 205.594 -2.00879 0.158044 0
M  V30 2218 O 204.65 -2.48075 -0.470633 0
M  V30 2219 C 205.963 -1.49224 2.6106 0
M  V30 2220 C 207.511 -1.61 2.68417 0
M  V30 2221 C 207.986 -2.14852 4.04478 0
M  V30 2222 N 209.477 -2.22185 4.06434 0
M  V30 2223 C 210.212 -2.64928 5.08528 0
M  V30 2224 N 209.708 -3.07121 6.21006 0
M  V30 2225 N 211.501 -2.64679 4.95885 0
M  V30 2226 H 203.652 0.00152503 2.124 0
M  V30 2227 H 205.915 -0.0618434 0.945981 0
M  V30 2228 H 205.621 -0.816453 3.42092 0
M  V30 2229 H 205.495 -2.47094 2.84999 0
M  V30 2230 H 207.882 -2.27686 1.87732 0
M  V30 2231 H 207.963 -0.616195 2.48267 0
M  V30 2232 H 207.607 -1.48775 4.85622 0
M  V30 2233 H 207.537 -3.15024 4.2198 0
M  V30 2234 H 210.028 -1.92435 3.25234 0
M  V30 2235 H 210.341 -3.38423 6.94759 0
M  V30 2236 H 208.686 -3.04978 6.24511 0
M  V30 2237 H 211.877 -2.31078 4.07088 0
M  V30 2238 H 212.05 -2.9767 5.75584 0
M  V30 2239 N 205.456 -1.28612 -0.910864 0
M  V30 2240 C 206.388 -1.08589 -2.01844 0
M  V30 2241 C 207.401 -0.0367419 -1.62759 0
M  V30 2242 O 208.59 -0.280101 -1.76289 0
M  V30 2243 C 205.69 -0.628626 -3.33019 0
M  V30 2244 C 204.863 -1.75382 -4.00699 0
M  V30 2245 C 203.922 -1.28945 -5.10156 0
M  V30 2246 O 202.948 -1.9922 -5.33198 0
M  V30 2247 N 204.15 -0.154224 -5.80295 0
M  V30 2248 H 206.915 -2.03973 -2.19579 0
M  V30 2249 H 204.476 -1.20403 -1.08234 0
M  V30 2250 H 206.468 -0.301508 -4.03575 0
M  V30 2251 H 205.038 0.232451 -3.11735 0
M  V30 2252 H 204.258 -2.25039 -3.23653 0
M  V30 2253 H 205.546 -2.50854 -4.42662 0
M  V30 2254 H 204.944 0.43194 -5.64049 0
M  V30 2255 H 203.501 0.113599 -6.51701 0
M  V30 2256 N 206.934 1.1197 -1.10907 0
M  V30 2257 C 207.867 2.16998 -0.706192 0
M  V30 2258 C 208.845 1.59903 0.294897 0
M  V30 2259 O 210.029 1.87513 0.192636 0
M  V30 2260 C 207.156 3.38673 -0.0427664 0
M  V30 2261 C 206.202 4.14414 -1.00811 0
M  V30 2262 S 207.035 4.72079 -2.52789 0
M  V30 2263 C 208.191 5.97083 -1.87731 0
M  V30 2264 H 208.424 2.50837 -1.59587 0
M  V30 2265 H 205.957 1.23508 -0.926555 0
M  V30 2266 H 207.915 4.09142 0.333668 0
M  V30 2267 H 206.576 3.03105 0.823788 0
M  V30 2268 H 205.769 5.016 -0.491259 0
M  V30 2269 H 205.371 3.49678 -1.3267 0
M  V30 2270 H 207.663 6.66599 -1.21044 0
M  V30 2271 H 208.606 6.53403 -2.72892 0
M  V30 2272 H 209.014 5.4837 -1.33979 0
M  V30 2273 N 208.412 0.89855 1.29475 0
M  V30 2274 C 209.342 0.39201 2.30186 0
M  V30 2275 C 210.323 -0.532359 1.61555 0
M  V30 2276 O 211.508 -0.443331 1.89072 0
M  V30 2277 C 208.638 -0.382353 3.45189 0
M  V30 2278 C 207.592 0.451483 4.25612 0
M  V30 2279 C 206.918 -0.450307 5.328 0
M  V30 2280 C 208.218 1.70079 4.93832 0
M  V30 2281 H 209.912 1.23362 2.72804 0
M  V30 2282 H 207.458 0.594638 1.31149 0
M  V30 2283 H 209.411 -0.747451 4.14718 0
M  V30 2284 H 208.135 -1.25774 3.01411 0
M  V30 2285 H 206.794 0.798897 3.57789 0
M  V30 2286 H 206.442 -1.32379 4.85268 0
M  V30 2287 H 206.142 0.103902 5.87508 0
M  V30 2288 H 207.666 -0.811623 6.05182 0
M  V30 2289 H 209.08 1.40549 5.55805 0
M  V30 2290 H 207.477 2.19623 5.58467 0
M  V30 2291 H 208.547 2.43744 4.19186 0
M  V30 2292 N 209.89 -1.43072 0.660911 0
M  V30 2293 C 210.8 -2.34585 -0.0264163 0
M  V30 2294 C 211.816 -1.54316 -0.803898 0
M  V30 2295 O 212.992 -1.86939 -0.749391 0
M  V30 2296 C 210.057 -3.32689 -0.975639 0
M  V30 2297 C 209.118 -4.2886 -0.194236 0
M  V30 2298 C 208.351 -5.22278 -1.09825 0
M  V30 2299 O 208.574 -5.20299 -2.33763 0
M  V30 2300 O 207.508 -5.99228 -0.566513 0
M  V30 2301 H 211.334 -2.94869 0.727034 0
M  V30 2302 H 208.919 -1.43342 0.42111 0
M  V30 2303 H 210.801 -3.92995 -1.52094 0
M  V30 2304 H 209.476 -2.74898 -1.70918 0
M  V30 2305 H 208.383 -3.72011 0.394835 0
M  V30 2306 H 209.716 -4.89655 0.499899 0
M  V30 2307 N 211.368 -0.403325 -1.52352 0
M  V30 2308 C 212.331 0.413051 -2.25447 0
M  V30 2309 C 213.331 0.978513 -1.276 0
M  V30 2310 O 214.521 0.858305 -1.51587 0
M  V30 2311 C 211.653 1.58087 -3.02029 0
M  V30 2312 H 212.846 -0.227094 -2.99039 0
M  V30 2313 H 210.399 -0.155722 -1.55522 0
M  V30 2314 H 211.134 2.25804 -2.32772 0
M  V30 2315 H 210.919 1.18195 -3.73861 0
M  V30 2316 H 212.409 2.1585 -3.57489 0
M  V30 2317 N 212.846 1.57033 -0.133567 0
M  V30 2318 C 213.776 2.1909 0.807567 0
M  V30 2319 C 214.757 1.13517 1.26681 0
M  V30 2320 O 215.942 1.41809 1.32679 0
M  V30 2321 C 213.072 2.80188 2.05212 0
M  V30 2322 C 212.026 3.91471 1.73015 0
M  V30 2323 C 211.352 4.39443 3.04622 0
M  V30 2324 C 212.652 5.12886 0.987168 0
M  V30 2325 H 214.346 2.97988 0.290403 0
M  V30 2326 H 211.892 1.43335 0.138239 0
M  V30 2327 H 213.845 3.22264 2.71521 0
M  V30 2328 H 212.569 1.98601 2.59278 0
M  V30 2329 H 211.228 3.49993 1.0909 0
M  V30 2330 H 210.876 3.54695 3.56651 0
M  V30 2331 H 210.576 5.14495 2.83847 0
M  V30 2332 H 212.1 4.8418 3.72024 0
M  V30 2333 H 213.514 5.51891 1.55208 0
M  V30 2334 H 211.911 5.93615 0.87985 0
M  V30 2335 H 212.981 4.84894 -0.0235286 0
M  V30 2336 N 214.325 -0.140222 1.56975 0
M  V30 2337 C 215.273 -1.19207 1.99731 0
M  V30 2338 C 216.267 -1.44089 0.890777 0
M  V30 2339 O 217.473 -1.44301 1.07597 0
M  V30 2340 H 213.848 -0.40142 0.635898 0
M  V30 2341 H 215.819 -0.804813 2.87342 0
M  V30 2342 C 214.568 -2.51617 2.39967 0
M  V30 2343 H 213.891 -2.33303 3.24669 0
M  V30 2344 H 215.331 -3.23827 2.73701 0
M  V30 2345 C 213.79 -3.12654 1.25496 0
M  V30 2346 O 214.32 -3.97786 0.559371 0
M  V30 2347 N 212.526 -2.72206 1.01746 0
M  V30 2348 H 212.073 -2.03074 1.58489 0
M  V30 2349 H 212.031 -3.13377 0.253461 0
M  V30 2350 N 215.803 -1.52179 -0.40978 0
M  V30 2351 C 217.05 -1.66206 -1.15679 0
M  V30 2352 C 217.378 -0.391674 -1.90516 0
M  V30 2353 O 216.633 0.62533 -1.8544 0
M  V30 2354 C 216.932 -2.83428 -2.17723 0
M  V30 2355 C 216.598 -4.21672 -1.59699 0
M  V30 2356 C 215.26 -4.59274 -1.43599 0
M  V30 2357 C 217.612 -5.07825 -1.17317 0
M  V30 2358 C 214.94 -5.80709 -0.836328 0
M  V30 2359 C 217.292 -6.29864 -0.587691 0
M  V30 2360 C 215.956 -6.66216 -0.413818 0
M  V30 2361 H 215.226 -0.608192 -0.423301 0
M  V30 2362 H 217.873 -1.86279 -0.444097 0
M  V30 2363 H 216.178 -2.57687 -2.95135 0
M  V30 2364 H 217.875 -2.91477 -2.75394 0
M  V30 2365 H 214.465 -3.9204 -1.73213 0
M  V30 2366 H 218.649 -4.79359 -1.28565 0
M  V30 2367 H 213.905 -6.07498 -0.689626 0
M  V30 2368 H 218.079 -6.95948 -0.250894 0
M  V30 2369 H 215.706 -7.60182 0.0529471 0
M  V30 2370 N 217.281 0.66697 -1.42791 0
M  V30 2371 C 218.211 1.79218 -1.49677 0
M  V30 2372 C 219.192 1.66405 -0.352623 0
M  V30 2373 O 220.377 1.85708 -0.567993 0
M  V30 2374 C 217.507 3.17565 -1.40605 0
M  V30 2375 C 216.461 3.45124 -2.53127 0
M  V30 2376 C 215.787 4.83127 -2.29112 0
M  V30 2377 C 217.087 3.41236 -3.95418 0
M  V30 2378 H 218.781 1.73713 -2.43853 0
M  V30 2379 H 216.327 0.83432 -1.17367 0
M  V30 2380 H 218.28 3.96022 -1.44029 0
M  V30 2381 H 217.004 3.23767 -0.429271 0
M  V30 2382 H 215.663 2.69031 -2.49034 0
M  V30 2383 H 215.311 4.85988 -1.29709 0
M  V30 2384 H 215.011 5.02528 -3.04531 0
M  V30 2385 H 216.535 5.63859 -2.34297 0
M  V30 2386 H 217.949 4.09651 -4.01073 0
M  V30 2387 H 216.346 3.72173 -4.70752 0
M  V30 2388 H 217.416 2.39665 -4.21532 0
M  V30 2389 N 218.759 1.29093 0.90403 0
M  V30 2390 C 219.709 1.10482 1.99443 0
M  V30 2391 C 220.693 0.0255401 1.6088 0
M  V30 2392 O 221.885 0.24677 1.75271 0
M  V30 2393 C 219.014 0.778882 3.34348 0
M  V30 2394 C 218.1 1.89749 3.79284 0
M  V30 2395 N 218.491 3.14045 3.96497 0
M  V30 2396 C 216.789 1.78955 4.08523 0
M  V30 2397 C 217.49 3.86996 4.34292 0
M  V30 2398 N 216.466 3.14909 4.43095 0
M  V30 2399 H 220.268 2.04778 2.10815 0
M  V30 2400 H 217.782 1.20155 1.09255 0
M  V30 2401 H 219.779 0.62661 4.12164 0
M  V30 2402 H 218.439 -0.156205 3.24324 0
M  V30 2403 H 219.45 3.49548 3.82148 0
M  V30 2404 H 216.127 0.926886 4.07081 0
M  V30 2405 H 217.517 4.93941 4.55491 0
M  V30 2406 N 220.237 -1.11381 1.11499 0
M  V30 2407 C 221.462 -1.87475 0.887019 0
M  V30 2408 C 221.887 -1.79639 -0.557796 0
M  V30 2409 O 221.245 -1.15924 -1.39396 0
M  V30 2410 C 221.293 -3.34213 1.35403 0
M  V30 2411 O 220.397 -4.0903 0.526146 0
M  V30 2412 H 219.738 -0.582099 0.319463 0
M  V30 2413 H 222.268 -1.40785 1.48461 0
M  V30 2414 H 222.278 -3.8506 1.34881 0
M  V30 2415 H 220.953 -3.39232 2.40612 0
M  V30 2416 H 219.53 -3.68082 0.597522 0
M  V30 2417 N 221.715 -0.905404 -1.28997 0
M  V30 2418 C 222.662 -0.385892 -2.27551 0
M  V30 2419 C 223.632 0.535113 -1.57244 0
M  V30 2420 O 224.817 0.459119 -1.85194 0
M  V30 2421 C 221.957 0.375461 -3.43051 0
M  V30 2422 C 221.07 -0.577092 -4.28128 0
M  V30 2423 C 220.205 0.201879 -5.30816 0
M  V30 2424 C 219.244 -0.744829 -6.07551 0
M  V30 2425 N 218.381 9.42587e-05 -7.021 0
M  V30 2426 H 223.221 -1.23139 -2.71368 0
M  V30 2427 H 220.758 -0.618542 -1.33463 0
M  V30 2428 H 222.716 0.832992 -4.088 0
M  V30 2429 H 221.346 1.18537 -3.00248 0
M  V30 2430 H 220.398 -1.15315 -3.62501 0
M  V30 2431 H 221.71 -1.30152 -4.8152 0
M  V30 2432 H 220.864 0.720351 -6.02408 0
M  V30 2433 H 219.603 0.959413 -4.7817 0
M  V30 2434 H 218.608 -1.27475 -5.34818 0
M  V30 2435 H 219.833 -1.50178 -6.62286 0
M  V30 2436 H 217.779 0.739791 -6.51815 0
M  V30 2437 H 217.696 -0.664321 -7.53076 0
M  V30 2438 H 218.964 0.498644 -7.77903 0
M  V30 2439 N 223.193 1.4272 -0.668489 0
M  V30 2440 C 224.609 1.55992 -0.33745 0
M  V30 2441 C 224.809 1.64933 1.15756 0
M  V30 2442 O 223.865 1.61278 1.94282 0
M  V30 2443 C 225.178 2.81314 -1.06222 0
M  V30 2444 C 226.726 2.95078 -1.04394 0
M  V30 2445 C 227.201 4.23252 -1.74991 0
M  V30 2446 N 228.692 4.3015 -1.71829 0
M  V30 2447 C 229.427 5.28127 -2.23315 0
M  V30 2448 N 228.923 6.32293 -2.83156 0
M  V30 2449 N 230.716 5.19882 -2.13726 0
M  V30 2450 H 222.867 1.3516 -1.63846 0
M  V30 2451 H 225.13 0.650174 -0.689912 0
M  V30 2452 H 224.836 2.80823 -2.11734 0
M  V30 2453 H 224.71 3.72012 -0.62344 0
M  V30 2454 H 227.097 2.951 0.0028244 0
M  V30 2455 H 227.178 2.05627 -1.52155 0
M  V30 2456 H 226.822 4.2399 -2.79633 0
M  V30 2457 H 226.752 5.11626 -1.24685 0
M  V30 2458 H 229.243 3.55499 -1.28175 0
M  V30 2459 H 229.556 7.03398 -3.20079 0
M  V30 2460 H 227.901 6.32873 -2.87223 0
M  V30 2461 H 231.092 4.37423 -1.66669 0
M  V30 2462 H 231.265 5.96077 -2.54158 0
M  V30 2463 N 224.671 0.411399 1.52136 0
M  V30 2464 C 225.92 -0.165009 2.01024 0
M  V30 2465 C 226.233 -1.4603 1.30133 0
M  V30 2466 O 227.439 -2.1181 1.69849 0
M  V30 2467 C 225.895 -0.344618 3.58246 0
M  V30 2468 C 225.503 0.938716 4.38055 0
M  V30 2469 C 227.247 -0.876195 4.15359 0
M  V30 2470 C 225.154 0.726172 5.86925 0
M  V30 2471 H 224.084 -0.0654407 0.751155 0
M  V30 2472 H 226.735 0.537192 1.75461 0
M  V30 2473 H 225.117 -1.10921 3.80148 0
M  V30 2474 H 226.291 1.70963 4.27912 0
M  V30 2475 H 224.606 1.39688 3.92271 0
M  V30 2476 H 227.203 -1.05128 5.24263 0
M  V30 2477 H 227.546 -1.85152 3.7286 0
M  V30 2478 H 228.079 -0.170607 3.97434 0
M  V30 2479 H 224.818 1.67312 6.33788 0
M  V30 2480 H 224.338 -0.00540283 5.998 0
M  V30 2481 H 226.017 0.369231 6.45946 0
M  V30 2482 N 226.149 -1.5696 0.141893 0
M  V30 2483 C 227.398 -1.95135 -0.510427 0
M  V30 2484 C 227.711 -1.02896 -1.66348 0
M  V30 2485 O 228.917 -1.30629 -2.38009 0
M  V30 2486 C 227.373 -3.46876 -0.959427 0
M  V30 2487 C 226.981 -4.47691 0.166419 0
M  V30 2488 C 228.725 -3.93927 -1.58183 0
M  V30 2489 C 226.632 -5.90636 -0.300565 0
M  V30 2490 H 225.562 -0.728494 -0.194454 0
M  V30 2491 H 228.213 -1.8211 0.22542 0
M  V30 2492 H 226.595 -3.55215 -1.75038 0
M  V30 2493 H 227.769 -4.51043 0.94325 0
M  V30 2494 H 226.084 -4.10527 0.696905 0
M  V30 2495 H 228.681 -4.98158 -1.94275 0
M  V30 2496 H 229.024 -3.3519 -2.46888 0
M  V30 2497 H 229.557 -3.88484 -0.855863 0
M  V30 2498 H 226.296 -6.5318 0.550989 0
M  V30 2499 H 225.816 -5.90655 -1.04338 0
M  V30 2500 H 227.495 -6.42588 -0.754265 0
M  V30 2501 N 227.627 0.131896 -1.57047 0
M  V30 2502 C 228.577 1.1679 -1.95816 0
M  V30 2503 C 229.561 1.37756 -0.831393 0
M  V30 2504 O 230.753 1.39065 -1.09499 0
M  V30 2505 C 227.882 2.49778 -2.35512 0
M  V30 2506 C 226.968 2.32342 -3.54793 0
M  V30 2507 N 227.359 1.8469 -4.70875 0
M  V30 2508 C 225.657 2.63043 -3.60173 0
M  V30 2509 C 226.358 1.80656 -5.52936 0
M  V30 2510 N 225.334 2.24528 -4.95064 0
M  V30 2511 H 229.136 0.791818 -2.83033 0
M  V30 2512 H 226.65 0.339791 -1.58805 0
M  V30 2513 H 228.647 3.24692 -2.61498 0
M  V30 2514 H 227.307 2.88156 -1.49654 0
M  V30 2515 H 228.318 1.54429 -4.9434 0
M  V30 2516 H 224.995 3.05193 -2.84892 0
M  V30 2517 H 226.385 1.45178 -6.56028 0
M  V30 2518 N 229.106 1.52395 0.401703 0
M  V30 2519 C 230.522 1.41363 0.740864 0
M  V30 2520 C 230.722 0.523982 1.94568 0
M  V30 2521 O 229.778 -0.00741204 2.52499 0
M  V30 2522 C 231.091 2.84011 0.987847 0
M  V30 2523 C 232.639 2.93404 1.09011 0
M  V30 2524 C 233.114 4.37036 1.3698 0
M  V30 2525 N 234.605 4.40304 1.43829 0
M  V30 2526 C 235.34 5.48508 1.67112 0
M  V30 2527 N 234.836 6.66819 1.87949 0
M  V30 2528 N 236.629 5.36034 1.69187 0
M  V30 2529 H 228.78 2.08765 -0.391262 0
M  V30 2530 H 231.043 0.941265 -0.112798 0
M  V30 2531 H 230.749 3.51265 0.174835 0
M  V30 2532 H 230.623 3.25502 1.906 0
M  V30 2533 H 233.01 2.26325 1.8937 0
M  V30 2534 H 233.091 2.55359 0.15015 0
M  V30 2535 H 232.735 5.04676 0.571353 0
M  V30 2536 H 232.665 4.72623 2.3224 0
M  V30 2537 H 235.156 3.55024 1.29486 0
M  V30 2538 H 235.469 7.45063 2.05185 0
M  V30 2539 H 233.814 6.6987 1.85199 0
M  V30 2540 H 237.005 4.42579 1.52451 0
M  V30 2541 H 237.178 6.20434 1.86993 0
M  V30 2542 N 230.584 -0.659388 1.43143 0
M  V30 2543 C 231.861 -1.41627 1.34912 0
M  V30 2544 C 232.241 -2.11099 -0.00607785 0
M  V30 2545 O 231.589 -2.04353 -1.02236 0
M  V30 2546 C 231.799 -2.40604 2.52805 0
M  V30 2547 C 233.147 -3.04789 2.95616 0
M  V30 2548 O 234.171 -2.50932 2.52807 0
M  V30 2549 O 233.03 -4.02421 3.69756 0
M  V30 2550 H 230.124 -0.63246 0.532844 0
M  V30 2551 H 232.67 -0.686814 1.5518 0
M  V30 2552 H 231.442 -1.88174 3.43083 0
M  V30 2553 H 231.065 -3.21009 2.34604 0
M  V30 2554 N 232.062 -1.29571 -0.897171 0
M  V30 2555 C 232.992 -1.17473 -2.01798 0
M  V30 2556 C 233.973 -0.068323 -1.69963 0
M  V30 2557 O 235.158 -0.248239 -1.92607 0
M  V30 2558 C 232.288 -0.853099 -3.36659 0
M  V30 2559 C 231.242 -1.9161 -3.82713 0
M  V30 2560 C 230.568 -1.44773 -5.14728 0
M  V30 2561 C 231.868 -3.32535 -4.02763 0
M  V30 2562 H 233.562 -2.11237 -2.12177 0
M  V30 2563 H 231.108 -1.01699 -1.01948 0
M  V30 2564 H 233.061 -0.755165 -4.14578 0
M  V30 2565 H 231.785 0.120236 -3.26379 0
M  V30 2566 H 230.444 -2.00346 -3.07013 0
M  V30 2567 H 230.092 -0.462995 -5.00865 0
M  V30 2568 H 229.792 -2.15865 -5.46513 0
M  V30 2569 H 231.316 -1.36334 -5.95185 0
M  V30 2570 H 232.73 -3.26626 -4.71156 0
M  V30 2571 H 231.127 -4.01607 -4.45905 0
M  V30 2572 H 232.197 -3.75326 -3.07016 0
M  V30 2573 N 233.54 1.10788 -1.12088 0
M  V30 2574 C 234.487 2.17025 -0.785407 0
M  V30 2575 C 235.457 1.64265 0.246191 0
M  V30 2576 O 236.642 1.90412 0.121584 0
M  V30 2577 C 233.782 3.44249 -0.242177 0
M  V30 2578 C 232.895 4.1098 -1.33115 0
M  V30 2579 C 232.03 5.25911 -0.747741 0
M  V30 2580 C 231.069 5.84538 -1.81609 0
M  V30 2581 N 230.206 6.90853 -1.25167 0
M  V30 2582 H 235.046 2.45066 -1.69548 0
M  V30 2583 H 232.583 1.20297 -0.846582 0
M  V30 2584 H 234.541 4.17101 0.0908026 0
M  V30 2585 H 233.171 3.16571 0.631072 0
M  V30 2586 H 232.223 3.36133 -1.78097 0
M  V30 2587 H 233.535 4.50601 -2.13917 0
M  V30 2588 H 232.689 6.056 -0.365216 0
M  V30 2589 H 231.428 4.87614 0.0915188 0
M  V30 2590 H 230.433 5.03522 -2.20785 0
M  V30 2591 H 231.658 6.249 -2.6585 0
M  V30 2592 H 229.604 6.54562 -0.434174 0
M  V30 2593 H 229.521 7.29166 -1.99633 0
M  V30 2594 H 230.789 7.7433 -0.896259 0
M  V30 2595 N 235.018 0.912232 1.28515 0
M  V30 2596 C 235.981 0.404223 2.25607 0
M  V30 2597 C 236.981 -0.468602 1.53821 0
M  V30 2598 O 238.171 -0.271873 1.72065 0
M  V30 2599 C 235.303 -0.420653 3.38295 0
M  V30 2600 H 236.496 1.26188 2.7206 0
M  V30 2601 H 234.049 0.691495 1.40171 0
M  V30 2602 H 234.784 -1.29777 2.97201 0
M  V30 2603 H 234.569 0.204935 3.91564 0
M  V30 2604 H 236.059 -0.766971 4.10496 0
M  V30 2605 N 236.496 -1.42363 0.676048 0
M  V30 2606 C 237.744 -2.01123 0.198437 0
M  V30 2607 C 238.065 -1.53731 -1.19966 0
M  V30 2608 O 237.335 -0.759518 -1.80577 0
M  V30 2609 H 235.915 -0.743678 0.0703721 0
M  V30 2610 H 238.577 -1.74263 0.872837 0
M  V30 2611 H 237.673 -3.11454 0.200686 0
M  V30 2612 N 237.974 -0.419461 -1.51915 0
M  V30 2613 C 238.922 0.415502 -2.28859 0
M  V30 2614 C 239.916 1.03674 -1.3397 0
M  V30 2615 O 241.122 0.973757 -1.51387 0
M  V30 2616 H 237.497 0.152786 -0.736315 0
M  V30 2617 H 239.468 -0.254531 -2.97312 0
M  V30 2618 C 238.217 1.51425 -3.12995 0
M  V30 2619 H 237.54 1.04556 -3.85886 0
M  V30 2620 H 238.98 2.07208 -3.6992 0
M  V30 2621 C 237.439 2.48745 -2.27217 0
M  V30 2622 O 237.969 3.52871 -1.9195 0
M  V30 2623 N 236.175 2.19202 -1.90785 0
M  V30 2624 H 235.722 1.34556 -2.19664 0
M  V30 2625 H 235.68 2.84561 -1.33687 0
M  V30 2626 N 239.452 1.56882 -0.150215 0
M  V30 2627 C 240.698 1.96518 0.500834 0
M  V30 2628 C 241.031 1.03527 1.64304 0
M  V30 2629 O 240.306 0.0782751 1.94342 0
M  V30 2630 C 240.589 3.45822 1.00395 0
M  V30 2631 C 240.442 4.49591 -0.136983 0
M  V30 2632 C 241.761 3.97704 1.88467 0
M  V30 2633 H 238.88 0.714535 0.18058 0
M  V30 2634 H 241.522 1.88577 -0.232091 0
M  V30 2635 H 239.672 3.5272 1.62851 0
M  V30 2636 H 241.344 4.5477 -0.77343 0
M  V30 2637 H 239.587 4.26441 -0.795652 0
M  V30 2638 H 240.258 5.51402 0.256815 0
M  V30 2639 H 242.734 3.93304 1.35834 0
M  V30 2640 H 241.61 5.0263 2.20578 0
M  V30 2641 H 241.871 3.40252 2.82279 0
M  V30 2642 N 240.93 -0.123565 1.57115 0
M  V30 2643 C 241.86 -1.15309 2.03042 0
M  V30 2644 C 242.841 -1.43454 0.914061 0
M  V30 2645 O 244.026 -1.53973 1.18347 0
M  V30 2646 C 241.156 -2.48043 2.43089 0
M  V30 2647 C 240.11 -2.3437 3.58127 0
M  V30 2648 C 239.436 -3.72026 3.84059 0
M  V30 2649 C 240.736 -1.80804 4.90007 0
M  V30 2650 H 242.43 -0.771102 2.893 0
M  V30 2651 H 239.976 -0.369479 1.39179 0
M  V30 2652 H 241.929 -3.20311 2.73823 0
M  V30 2653 H 240.653 -2.88122 1.53796 0
M  V30 2654 H 239.312 -1.64551 3.27595 0
M  V30 2655 H 238.96 -4.09582 2.91979 0
M  V30 2656 H 238.66 -3.63732 4.6149 0
M  V30 2657 H 240.184 -4.45806 4.1724 0
M  V30 2658 H 241.598 -2.42886 5.19307 0
M  V30 2659 H 239.995 -1.83343 5.71407 0
M  V30 2660 H 241.065 -0.76528 4.78823 0
M  V30 2661 N 242.408 -1.52605 -0.393616 0
M  V30 2662 C 243.341 -1.71798 -1.50202 0
M  V30 2663 C 244.319 -0.565743 -1.52441 0
M  V30 2664 O 245.503 -0.794987 -1.70916 0
M  V30 2665 C 242.63 -1.7714 -2.88685 0
M  V30 2666 C 241.676 -2.98845 -3.04292 0
M  V30 2667 S 242.509 -4.58909 -2.75976 0
M  V30 2668 C 243.665 -4.6706 -4.1666 0
M  V30 2669 H 243.898 -2.65542 -1.33696 0
M  V30 2670 H 241.431 -1.42839 -0.586195 0
M  V30 2671 H 243.389 -1.80903 -3.68489 0
M  V30 2672 H 242.05 -0.844969 -3.02521 0
M  V30 2673 H 241.243 -2.99111 -4.05646 0
M  V30 2674 H 240.845 -2.9305 -2.32374 0
M  V30 2675 H 243.137 -4.45391 -5.10523 0
M  V30 2676 H 244.08 -5.6905 -4.21412 0
M  V30 2677 H 244.488 -3.95944 -4.02354 0
M  V30 2678 N 243.887 0.651787 -1.4349 0
M  V30 2679 C 245.115 1.43937 -1.48626 0
M  V30 2680 C 245.53 1.8851 -0.104587 0
M  V30 2681 O 244.887 1.5958 0.885464 0
M  V30 2682 C 244.938 2.6734 -2.43334 0
M  V30 2683 O 244.659 2.24631 -3.76128 0
M  V30 2684 C 246.16 3.60683 -2.57726 0
M  V30 2685 H 243.38 0.44213 -0.504739 0
M  V30 2686 H 245.924 0.798944 -1.88248 0
M  V30 2687 H 244.079 3.2752 -2.06904 0
M  V30 2688 H 244.493 3.04485 -4.2707 0
M  V30 2689 H 245.967 4.43933 -3.28067 0
M  V30 2690 H 246.444 4.08126 -1.62265 0
M  V30 2691 H 247.05 3.06384 -2.94973 0
M  V30 2692 N 245.365 1.30045 0.890287 0
M  V30 2693 C 246.295 1.18541 2.01172 0
M  V30 2694 C 247.276 0.0773356 1.69924 0
M  V30 2695 O 248.461 0.25845 1.92473 0
M  V30 2696 C 245.591 0.870941 3.36202 0
M  V30 2697 C 244.545 1.93637 3.81692 0
M  V30 2698 C 243.871 1.475 5.13953 0
M  V30 2699 C 245.171 3.34666 4.00994 0
M  V30 2700 H 246.865 2.12359 2.11054 0
M  V30 2701 H 244.411 1.02238 1.01407 0
M  V30 2702 H 246.364 0.777141 4.14172 0
M  V30 2703 H 245.088 -0.102926 3.26438 0
M  V30 2704 H 243.747 2.01972 3.05946 0
M  V30 2705 H 243.395 0.489551 5.00612 0
M  V30 2706 H 243.095 2.1876 5.4536 0
M  V30 2707 H 244.619 1.39489 5.94454 0
M  V30 2708 H 246.033 3.2912 4.69417 0
M  V30 2709 H 244.43 4.03966 4.43769 0
M  V30 2710 H 245.5 3.76949 3.05021 0
M  V30 2711 N 246.843 -1.10192 1.12674 0
M  V30 2712 C 247.753 -2.20172 0.810026 0
M  V30 2713 C 248.769 -1.72821 -0.202188 0
M  V30 2714 O 249.945 -2.01369 -0.0351691 0
M  V30 2715 C 247.01 -3.45631 0.272007 0
M  V30 2716 C 246.071 -4.07704 1.34447 0
M  V30 2717 C 245.304 -5.27175 0.832029 0
M  V30 2718 O 245.527 -5.69425 -0.333284 0
M  V30 2719 O 244.461 -5.80168 1.60277 0
M  V30 2720 H 248.287 -2.49701 1.72867 0
M  V30 2721 H 245.872 -1.18977 0.903597 0
M  V30 2722 H 247.754 -4.21394 -0.0230219 0
M  V30 2723 H 246.429 -3.17723 -0.619164 0
M  V30 2724 H 245.336 -3.33614 1.6927 0
M  V30 2725 H 246.669 -4.3982 2.2095 0
M  V30 2726 N 248.321 -0.919034 -1.28029 0
M  V30 2727 C 249.569 -0.553838 -1.94363 0
M  V30 2728 C 249.89 0.906357 -1.72656 0
M  V30 2729 O 249.16 1.64143 -1.0693 0
M  V30 2730 H 247.74 -0.201834 -0.719216 0
M  V30 2731 H 250.402 -1.16954 -1.55909 0
M  V30 2732 H 249.498 -0.752758 -3.02886 0
M  V30 2733 N 249.799 1.42003 -0.683588 0
M  V30 2734 C 251.076 1.95112 -0.138075 0
M  V30 2735 C 251.456 1.62359 1.34918 0
M  V30 2736 O 250.804 0.924311 2.08971 0
M  V30 2737 C 251.014 3.46505 -0.416581 0
M  V30 2738 C 252.362 4.23254 -0.337834 0
M  V30 2739 O 253.386 3.54468 -0.35082 0
M  V30 2740 O 252.245 5.45743 -0.287596 0
M  V30 2741 H 249.339 0.826961 -0.00797996 0
M  V30 2742 H 251.885 1.51784 -0.758924 0
M  V30 2743 H 250.657 3.63582 -1.4465 0
M  V30 2744 H 250.28 3.969 0.235839 0
M  V30 2745 N 251.277 0.427512 1.51691 0
M  V30 2746 C 252.526 -0.143679 2.01188 0
M  V30 2747 C 252.839 -1.44642 1.31674 0
M  V30 2748 O 254.045 -2.09997 1.72086 0
M  V30 2749 C 252.501 -0.306602 3.58592 0
M  V30 2750 C 252.109 0.985125 4.37035 0
M  V30 2751 C 253.853 -0.832091 4.16265 0
M  V30 2752 C 251.76 0.788382 5.86122 0
M  V30 2753 H 250.69 -0.0574701 0.751807 0
M  V30 2754 H 253.341 0.555772 1.74881 0
M  V30 2755 H 251.723 -1.06882 3.81303 0
M  V30 2756 H 252.897 1.75492 4.26074 0
M  V30 2757 H 251.212 1.4384 3.90767 0
M  V30 2758 H 253.809 -0.995617 5.25349 0
M  V30 2759 H 254.152 -1.81186 3.74803 0
M  V30 2760 H 254.685 -0.128444 3.97593 0
M  V30 2761 H 251.424 1.74025 6.31978 0
M  V30 2762 H 250.944 0.0582143 5.99772 0
M  V30 2763 H 252.623 0.437722 6.45518 0
M  V30 2764 N 252.755 -1.56801 0.158532 0
M  V30 2765 C 254.171 -1.5837 -0.197774 0
M  V30 2766 C 254.371 -1.17334 -1.63814 0
M  V30 2767 O 253.427 -0.878988 -2.36707 0
M  V30 2768 C 254.74 -3.00615 0.0714459 0
M  V30 2769 C 256.288 -3.12999 0.00864533 0
M  V30 2770 C 256.763 -4.57313 0.250685 0
M  V30 2771 N 258.254 -4.62777 0.198014 0
M  V30 2772 C 258.989 -5.72271 0.359642 0
M  V30 2773 N 258.485 -6.90371 0.579625 0
M  V30 2774 N 260.278 -5.61318 0.296438 0
M  V30 2775 H 252.429 -1.81765 1.09887 0
M  V30 2776 H 254.692 -0.841849 0.435884 0
M  V30 2777 H 254.398 -3.35068 1.06874 0
M  V30 2778 H 254.272 -3.71683 -0.642757 0
M  V30 2779 H 256.659 -2.7838 -0.979217 0
M  V30 2780 H 256.74 -2.44393 0.755359 0
M  V30 2781 H 256.384 -4.92639 1.2357 0
M  V30 2782 H 256.314 -5.24061 -0.516489 0
M  V30 2783 H 258.805 -3.77885 0.0331115 0
M  V30 2784 H 259.118 -7.69689 0.69275 0
M  V30 2785 H 257.463 -6.92264 0.616087 0
M  V30 2786 H 260.654 -4.67932 0.125258 0
M  V30 2787 H 260.827 -6.46599 0.425831 0
M  V30 2788 N 254.233 0.115231 -1.57178 0
M  V30 2789 C 255.163 1.1423 -2.03651 0
M  V30 2790 C 256.144 1.42967 -0.921655 0
M  V30 2791 O 257.329 1.53343 -1.19162 0
M  V30 2792 C 254.459 2.4675 -2.44401 0
M  V30 2793 C 253.413 2.32467 -3.59365 0
M  V30 2794 C 252.739 3.69984 -3.86026 0
M  V30 2795 C 254.039 1.78203 -4.90959 0
M  V30 2796 H 255.733 0.755749 -2.89705 0
M  V30 2797 H 253.279 0.362093 -1.39373 0
M  V30 2798 H 255.232 3.18854 -2.75517 0
M  V30 2799 H 253.956 2.87302 -1.55322 0
M  V30 2800 H 252.615 1.62811 -3.28463 0
M  V30 2801 H 252.263 4.08028 -2.94147 0
M  V30 2802 H 251.963 3.61279 -4.63412 0
M  V30 2803 H 253.487 4.43587 -4.19599 0
M  V30 2804 H 254.901 2.40128 -5.20587 0
M  V30 2805 H 253.298 1.8031 -5.72371 0
M  V30 2806 H 254.368 0.739876 -4.79222 0
M  V30 2807 N 255.711 1.52812 0.385517 0
M  V30 2808 C 256.674 1.77188 1.45386 0
M  V30 2809 C 257.674 0.641953 1.4743 0
M  V30 2810 O 258.864 0.910033 1.4854 0
M  V30 2811 C 255.996 1.87582 2.8465 0
M  V30 2812 H 257.189 2.72583 1.25054 0
M  V30 2813 H 254.742 1.43586 0.617467 0
M  V30 2814 H 255.477 0.941849 3.10322 0
M  V30 2815 H 255.262 2.69748 2.84567 0
M  V30 2816 H 256.752 2.08102 3.62054 0
M  V30 2817 N 257.189 -0.644168 1.43834 0
M  V30 2818 C 258.466 -1.40188 1.36406 0
M  V30 2819 C 258.846 -2.11094 0.0163124 0
M  V30 2820 O 258.194 -2.05426 -1.00062 0
M  V30 2821 C 258.404 -2.3791 2.55343 0
M  V30 2822 C 259.752 -3.01637 2.98832 0
M  V30 2823 O 260.776 -2.48237 2.55455 0
M  V30 2824 O 259.635 -3.98477 3.74003 0
M  V30 2825 H 256.729 -0.626773 0.539523 0
M  V30 2826 H 259.275 -0.670317 1.559 0
M  V30 2827 H 258.047 -1.84525 3.4506 0
M  V30 2828 H 257.67 -3.18503 2.37995 0
M  V30 2829 N 258.668 -1.30515 -0.883378 0
M  V30 2830 C 259.915 -1.1943 -1.63532 0
M  V30 2831 C 260.243 0.250627 -1.92878 0
M  V30 2832 O 259.498 1.19556 -1.54935 0
M  V30 2833 C 259.797 -1.96994 -2.98209 0
M  V30 2834 C 259.463 -3.466 -2.88408 0
M  V30 2835 C 258.125 -3.87397 -2.85442 0
M  V30 2836 C 260.477 -4.41863 -2.76418 0
M  V30 2837 C 257.805 -5.21745 -2.68327 0
M  V30 2838 C 260.157 -5.7632 -2.60841 0
M  V30 2839 C 258.821 -6.16354 -2.56251 0
M  V30 2840 H 258.091 -0.437025 -0.598406 0
M  V30 2841 H 260.738 -1.61635 -1.02696 0
M  V30 2842 H 259.043 -1.47429 -3.63004 0
M  V30 2843 H 260.74 -1.85808 -3.55354 0
M  V30 2844 H 257.33 -3.14182 -2.91527 0
M  V30 2845 H 261.514 -4.11285 -2.77775 0
M  V30 2846 H 256.77 -5.51853 -2.63189 0
M  V30 2847 H 260.944 -6.49772 -2.50538 0
M  V30 2848 H 258.571 -7.20401 -2.42748 0
M  V30 2849 N 260.146 1.09593 -1.13257 0
M  V30 2850 C 261.394 1.81375 -0.891492 0
M  V30 2851 C 261.715 1.86049 0.584009 0
M  V30 2852 O 260.985 1.34481 1.42449 0
M  V30 2853 H 259.565 0.671708 -0.326828 0
M  V30 2854 H 262.227 1.3256 -1.42877 0
M  V30 2855 H 261.323 2.84612 -1.28071 0
M  V30 2856 N 261.624 0.925811 1.2754 0
M  V30 2857 C 262.87 0.566092 1.94739 0
M  V30 2858 C 263.203 -0.890057 1.72603 0
M  V30 2859 O 262.478 -1.63467 1.05399 0
M  V30 2860 C 262.761 0.89054 3.48915 0
M  V30 2861 C 262.614 2.4003 3.80402 0
M  V30 2862 C 263.933 0.395101 4.38323 0
M  V30 2863 H 261.052 0.20714 0.707292 0
M  V30 2864 H 263.694 1.15725 1.50691 0
M  V30 2865 H 261.844 0.387452 3.86563 0
M  V30 2866 H 263.516 2.97494 3.52555 0
M  V30 2867 H 261.759 2.85028 3.2702 0
M  V30 2868 H 262.43 2.57785 4.8811 0
M  V30 2869 H 264.906 0.826241 4.07814 0
M  V30 2870 H 263.782 0.651086 5.45025 0
M  V30 2871 H 264.043 -0.704798 4.36446 0
M  V30 2872 N 263.102 -1.41638 0.69111 0
M  V30 2873 C 264.327 -2.06148 0.227583 0
M  V30 2874 C 264.752 -1.51652 -1.11281 0
M  V30 2875 O 264.11 -0.64164 -1.69566 0
M  V30 2876 C 264.158 -3.60095 0.190858 0
M  V30 2877 O 263.262 -4.03845 -0.835664 0
M  V30 2878 H 262.603 -0.654434 0.112306 0
M  V30 2879 H 265.133 -1.81484 0.944714 0
M  V30 2880 H 265.143 -4.07995 0.020207 0
M  V30 2881 H 263.818 -3.99129 1.16915 0
M  V30 2882 H 262.395 -3.67458 -0.63473 0
M  V30 2883 N 264.58 -0.43555 -1.51462 0
M  V30 2884 C 265.543 0.365137 -2.26273 0
M  V30 2885 C 266.543 0.951227 -1.29647 0
M  V30 2886 O 267.733 0.825958 -1.53374 0
M  V30 2887 C 264.865 1.51645 -3.05314 0
M  V30 2888 H 266.058 -0.290474 -2.9849 0
M  V30 2889 H 263.611 -0.188676 -1.55157 0
M  V30 2890 H 264.346 2.20816 -2.3751 0
M  V30 2891 H 264.131 1.10238 -3.76284 0
M  V30 2892 H 265.621 2.08218 -3.61987 0
M  V30 2893 N 266.058 1.56714 -0.166846 0
M  V30 2894 C 267.005 2.17746 0.765193 0
M  V30 2895 C 267.975 1.11614 1.23011 0
M  V30 2896 O 269.16 1.39745 1.29908 0
M  V30 2897 C 266.3 2.81882 1.9909 0
M  V30 2898 C 265.413 4.02462 1.56997 0
M  V30 2899 C 264.548 4.54537 2.749 0
M  V30 2900 C 263.587 5.67538 2.29275 0
M  V30 2901 N 262.724 6.14142 3.40255 0
M  V30 2902 H 267.564 2.97048 0.237952 0
M  V30 2903 H 265.101 1.4672 0.105725 0
M  V30 2904 H 267.059 3.17221 2.70974 0
M  V30 2905 H 265.689 2.05191 2.49192 0
M  V30 2906 H 264.741 3.72973 0.748037 0
M  V30 2907 H 266.053 4.84273 1.19503 0
M  V30 2908 H 265.207 4.92035 3.54946 0
M  V30 2909 H 263.946 3.71774 3.1565 0
M  V30 2910 H 262.951 5.29597 1.47674 0
M  V30 2911 H 264.176 6.52099 1.89588 0
M  V30 2912 H 262.122 5.3431 3.8059 0
M  V30 2913 H 262.039 6.9093 3.06841 0
M  V30 2914 H 263.307 6.56289 4.206 0
M  V30 2915 N 267.536 -0.106894 1.57237 0
M  V30 2916 C 268.484 -1.14944 2.02215 0
M  V30 2917 C 269.478 -1.42167 0.92114 0
M  V30 2918 O 270.684 -1.41987 1.10634 0
M  V30 2919 H 267.059 -0.387841 0.64427 0
M  V30 2920 H 269.03 -0.743683 2.88984 0
M  V30 2921 C 267.779 -2.4647 2.4525 0
M  V30 2922 H 267.102 -2.26363 3.29545 0
M  V30 2923 H 268.542 -3.17948 2.80508 0
M  V30 2924 C 267.001 -3.09921 1.321 0
M  V30 2925 O 267.531 -3.9651 0.643622 0
M  V30 2926 N 265.737 -2.69986 1.07497 0
M  V30 2927 H 265.284 -1.99667 1.62761 0
M  V30 2928 H 265.242 -3.12769 0.319876 0
M  V30 2929 N 269.014 -1.53014 -0.377408 0
M  V30 2930 C 269.944 -1.81589 -1.46791 0
M  V30 2931 C 270.925 -0.668622 -1.56408 0
M  V30 2932 O 272.11 -0.917337 -1.71168 0
M  V30 2933 C 269.24 -1.99519 -2.8427 0
M  V30 2934 C 268.194 -3.15249 -2.89486 0
M  V30 2935 C 267.52 -3.18451 -4.29527 0
M  V30 2936 C 268.82 -4.54084 -2.58079 0
M  V30 2937 H 270.514 -2.7291 -1.23127 0
M  V30 2938 H 268.06 -1.31319 -0.590883 0
M  V30 2939 H 270.013 -2.18092 -3.60575 0
M  V30 2940 H 268.737 -1.04897 -3.09296 0
M  V30 2941 H 267.396 -2.96477 -2.15631 0
M  V30 2942 H 267.044 -2.2149 -4.5161 0
M  V30 2943 H 266.744 -3.962 -4.33934 0
M  V30 2944 H 268.268 -3.39193 -5.07721 0
M  V30 2945 H 269.682 -4.72899 -3.24098 0
M  V30 2946 H 268.079 -5.33987 -2.7382 0
M  V30 2947 H 269.149 -4.60006 -1.53372 0
M  V30 2948 N 270.492 0.636531 -1.44174 0
M  V30 2949 C 271.439 1.74875 -1.50624 0
M  V30 2950 C 272.409 1.62275 -0.35442 0
M  V30 2951 O 273.594 1.82276 -0.563908 0
M  V30 2952 C 270.734 3.13102 -1.45125 0
M  V30 2953 C 269.847 3.36717 -2.7064 0
M  V30 2954 C 268.982 4.64885 -2.57013 0
M  V30 2955 C 268.021 4.8166 -3.77717 0
M  V30 2956 N 267.158 6.01101 -3.62798 0
M  V30 2957 H 271.998 1.68697 -2.45653 0
M  V30 2958 H 269.535 0.823004 -1.21922 0
M  V30 2959 H 271.493 3.93034 -1.39929 0
M  V30 2960 H 270.123 3.18308 -0.536671 0
M  V30 2961 H 269.175 2.50763 -2.86046 0
M  V30 2962 H 270.487 3.44993 -3.60252 0
M  V30 2963 H 269.641 5.52969 -2.49619 0
M  V30 2964 H 268.38 4.58957 -1.64953 0
M  V30 2965 H 267.385 3.92007 -3.85501 0
M  V30 2966 H 268.61 4.89406 -4.70807 0
M  V30 2967 H 266.556 5.96273 -2.73486 0
M  V30 2968 H 266.473 6.10409 -4.46023 0
M  V30 2969 H 267.741 6.91761 -3.59286 0
M  V30 2970 N 271.97 1.30982 0.876444 0
M  V30 2971 C 273.198 1.23242 1.6619 0
M  V30 2972 C 273.613 -0.203345 1.87702 0
M  V30 2973 O 272.97 -1.13317 1.43057 0
M  V30 2974 C 273.021 1.96623 3.03351 0
M  V30 2975 O 272.742 3.34594 2.82804 0
M  V30 2976 C 274.243 1.95644 3.97792 0
M  V30 2977 H 271.463 0.426126 0.518322 0
M  V30 2978 H 274.007 1.7275 1.09442 0
M  V30 2979 H 272.162 1.50892 3.56806 0
M  V30 2980 H 272.576 3.71873 3.69879 0
M  V30 2981 H 274.05 2.51511 4.91372 0
M  V30 2982 H 274.527 0.937395 4.2908 0
M  V30 2983 H 275.133 2.41225 3.50272 0
M  V30 2984 N 273.449 -1.08991 1.13837 0
M  V30 2985 C 274.379 -2.17771 0.842507 0
M  V30 2986 C 275.36 -1.6892 -0.20001 0
M  V30 2987 O 276.545 -1.94113 -0.0579731 0
M  V30 2988 C 273.675 -3.4589 0.312644 0
M  V30 2989 C 272.629 -4.08099 1.28992 0
M  V30 2990 C 271.955 -5.31098 0.619623 0
M  V30 2991 C 273.255 -4.50077 2.65005 0
M  V30 2992 H 274.949 -2.42777 1.75213 0
M  V30 2993 H 272.495 -1.16682 0.843875 0
M  V30 2994 H 274.448 -4.21297 0.0933043 0
M  V30 2995 H 273.172 -3.20419 -0.632382 0
M  V30 2996 H 271.831 -3.34717 1.49533 0
M  V30 2997 H 271.479 -5.0191 -0.33102 0
M  V30 2998 H 271.179 -5.73674 1.27167 0
M  V30 2999 H 272.703 -6.09224 0.409669 0
M  V30 3000 H 274.117 -5.16688 2.48407 0
M  V30 3001 H 272.514 -5.03553 3.26427 0
M  V30 3002 H 273.584 -3.62257 3.22332 0
M  V30 3003 N 274.927 -0.932562 -1.27047 0
M  V30 3004 C 275.859 -0.392734 -2.2581 0
M  V30 3005 C 276.872 0.479241 -1.55586 0
M  V30 3006 O 278.061 0.291078 -1.76111 0
M  V30 3007 C 275.161 0.455456 -3.35826 0
M  V30 3008 C 274.334 -0.398355 -4.35582 0
M  V30 3009 C 273.393 0.387985 -5.24768 0
M  V30 3010 O 272.419 -0.206003 -5.68827 0
M  V30 3011 N 273.621 1.68664 -5.55457 0
M  V30 3012 H 276.386 -1.24173 -2.72766 0
M  V30 3013 H 273.947 -0.800511 -1.40725 0
M  V30 3014 H 275.939 0.988692 -3.92437 0
M  V30 3015 H 274.509 1.20522 -2.88432 0
M  V30 3016 H 273.729 -1.11286 -3.78165 0
M  V30 3017 H 275.017 -0.981889 -4.99236 0
M  V30 3018 H 274.415 2.19147 -5.21528 0
M  V30 3019 H 272.972 2.1663 -6.14748 0
M  V30 3020 N 276.405 1.4127 -0.698611 0
M  V30 3021 C 277.352 2.30773 -0.0352094 0
M  V30 3022 C 278.322 1.47273 0.768111 0
M  V30 3023 O 279.507 1.76053 0.735524 0
M  V30 3024 C 276.647 3.33346 0.893 0
M  V30 3025 C 275.76 4.31924 0.0809695 0
M  V30 3026 C 274.895 5.21566 1.0071 0
M  V30 3027 C 273.934 6.11811 0.188155 0
M  V30 3028 N 273.071 6.93926 1.06825 0
M  V30 3029 H 277.911 2.86943 -0.804207 0
M  V30 3030 H 275.448 1.4132 -0.408294 0
M  V30 3031 H 277.406 3.91368 1.44523 0
M  V30 3032 H 276.036 2.78719 1.62836 0
M  V30 3033 H 275.088 3.75825 -0.588224 0
M  V30 3034 H 276.4 4.95716 -0.553801 0
M  V30 3035 H 275.554 5.84437 1.62845 0
M  V30 3036 H 274.293 4.58008 1.67572 0
M  V30 3037 H 273.298 5.47986 -0.446254 0
M  V30 3038 H 274.523 6.77425 -0.476716 0
M  V30 3039 H 272.469 6.32973 1.72283 0
M  V30 3040 H 272.386 7.54416 0.489123 0
M  V30 3041 H 273.654 7.61262 1.67632 0
M  V30 3042 N 277.883 0.443576 1.51229 0
M  V30 3043 C 279.299 0.0962001 1.5931 0
M  V30 3044 C 279.499 -1.39501 1.45402 0
M  V30 3045 O 278.555 -2.16557 1.29843 0
M  V30 3046 C 279.868 0.621875 2.94199 0
M  V30 3047 C 281.416 0.582865 3.07525 0
M  V30 3048 C 281.891 1.08562 4.44948 0
M  V30 3049 N 283.382 1.04387 4.51284 0
M  V30 3050 C 284.117 1.40368 5.55954 0
M  V30 3051 N 283.613 1.83664 6.68011 0
M  V30 3052 N 285.406 1.32145 5.46346 0
M  V30 3053 H 277.557 1.41376 1.58514 0
M  V30 3054 H 279.82 0.582965 0.747567 0
M  V30 3055 H 279.526 1.66546 3.09767 0
M  V30 3056 H 279.4 0.0502125 3.77167 0
M  V30 3057 H 281.787 -0.451749 2.91622 0
M  V30 3058 H 281.868 1.191 2.26382 0
M  V30 3059 H 281.512 2.11873 4.61598 0
M  V30 3060 H 281.442 0.453956 5.2464 0
M  V30 3061 H 283.933 0.725986 3.70861 0
M  V30 3062 H 284.246 2.0934 7.43906 0
M  V30 3063 H 282.591 1.87596 6.69203 0
M  V30 3064 H 285.782 0.981808 4.57688 0
M  V30 3065 H 285.955 1.60514 6.27805 0
M  V30 3066 N 279.361 -1.56624 0.175154 0
M  V30 3067 C 280.638 -1.88688 -0.515373 0
M  V30 3068 C 281.018 -1.08564 -1.81044 0
M  V30 3069 O 280.366 -0.180703 -2.27784 0
M  V30 3070 C 280.576 -3.40768 -0.753552 0
M  V30 3071 C 281.924 -4.10587 -1.08184 0
M  V30 3072 O 282.948 -3.46106 -0.841961 0
M  V30 3073 O 281.807 -5.24512 -1.53459 0
M  V30 3074 H 278.901 -0.78301 -0.26613 0
M  V30 3075 H 281.447 -1.68347 0.213877 0
M  V30 3076 H 280.219 -3.90965 0.161829 0
M  V30 3077 H 279.842 -3.66733 -1.53598 0
M  V30 3078 N 280.839 0.0985539 -1.57292 0
M  V30 3079 C 282.064 0.820196 -1.90493 0
M  V30 3080 C 282.489 1.71658 -0.769094 0
M  V30 3081 O 281.847 1.79133 0.279495 0
M  V30 3082 C 281.895 1.61242 -3.22542 0
M  V30 3083 O 280.999 2.72108 -3.09888 0
M  V30 3084 H 280.34 0.225547 -0.62452 0
M  V30 3085 H 282.87 0.0748159 -2.04463 0
M  V30 3086 H 282.88 1.99737 -3.55766 0
M  V30 3087 H 281.555 0.954535 -4.04798 0
M  V30 3088 H 280.132 2.36667 -2.88172 0
M  V30 3089 N 282.317 1.53212 0.369288 0
M  V30 3090 C 283.564 1.69215 1.11232 0
M  V30 3091 C 283.892 0.442048 1.8941 0
M  V30 3092 O 283.147 -0.575944 1.87033 0
M  V30 3093 C 283.446 2.89101 2.10132 0
M  V30 3094 C 283.112 4.25758 1.48463 0
M  V30 3095 C 281.774 4.6292 1.31372 0
M  V30 3096 C 284.126 5.10757 1.03811 0
M  V30 3097 C 281.454 5.82722 0.68207 0
M  V30 3098 C 283.806 6.31201 0.420487 0
M  V30 3099 C 282.47 6.67079 0.237038 0
M  V30 3100 H 281.74 0.619201 0.407027 0
M  V30 3101 H 284.387 1.87391 0.394552 0
M  V30 3102 H 282.692 2.65421 2.88199 0
M  V30 3103 H 284.389 2.98676 2.6757 0
M  V30 3104 H 280.979 3.96494 1.62758 0
M  V30 3105 H 285.163 4.82599 1.1581 0
M  V30 3106 H 280.419 6.09113 0.528316 0
M  V30 3107 H 284.593 6.96368 0.0662874 0
M  V30 3108 H 282.22 7.59774 -0.254477 0
M  V30 3109 N 283.795 -0.628877 1.44509 0
M  V30 3110 C 285.044 -1.38437 1.4669 0
M  V30 3111 C 285.357 -1.95322 0.104272 0
M  V30 3112 O 286.563 -2.715 0.00362163 0
M  V30 3113 C 285.019 -2.50659 2.5826 0
M  V30 3114 C 284.627 -2.00277 4.0074 0
M  V30 3115 C 286.371 -3.27844 2.69664 0
M  V30 3116 C 284.278 -3.09854 5.0373 0
M  V30 3117 H 283.208 -0.520245 0.545766 0
M  V30 3118 H 285.859 -0.676313 1.70582 0
M  V30 3119 H 284.241 -3.2405 2.27612 0
M  V30 3120 H 285.415 -1.33736 4.40966 0
M  V30 3121 H 283.73 -1.35901 3.93599 0
M  V30 3122 H 286.327 -4.09534 3.43781 0
M  V30 3123 H 286.67 -3.77471 1.75559 0
M  V30 3124 H 287.203 -2.61543 2.99733 0
M  V30 3125 H 283.942 -2.65168 5.99472 0
M  V30 3126 H 283.462 -3.7503 4.68095 0
M  V30 3127 H 285.141 -3.74592 5.27532 0
M  V30 3128 N 285.273 -1.31445 -0.869486 0
M  V30 3129 C 286.521 -1.20918 -1.61936 0
M  V30 3130 C 286.842 0.232683 -1.93607 0
M  V30 3131 O 286.112 1.15352 -1.58338 0
M  V30 3132 H 284.692 -0.44454 -0.600328 0
M  V30 3133 H 287.354 -1.64776 -1.0409 0
M  V30 3134 H 286.45 -1.78124 -2.56278 0
M  V30 3135 N 286.751 1.08385 -1.14413 0
M  V30 3136 C 287.979 1.84517 -0.936001 0
M  V30 3137 C 288.394 1.81626 0.515503 0
M  V30 3138 O 287.751 1.22008 1.35721 0
M  V30 3139 C 287.802 3.32049 -1.42918 0
M  V30 3140 O 287.523 3.34951 -2.82381 0
M  V30 3141 C 289.024 4.24986 -1.26103 0
M  V30 3142 H 286.244 0.582491 -0.333084 0
M  V30 3143 H 288.788 1.36885 -1.5193 0
M  V30 3144 H 286.943 3.7707 -0.888641 0
M  V30 3145 H 287.357 4.27048 -3.04517 0
M  V30 3146 H 288.831 5.26615 -1.6547 0
M  V30 3147 H 289.308 4.38726 -0.20392 0
M  V30 3148 H 289.914 3.85791 -1.79012 0
M  V30 3149 N 288.23 0.939286 1.26551 0
M  V30 3150 C 289.641 0.628782 1.75793 0
M  V30 3151 C 289.992 -0.856046 1.7654 0
M  V30 3152 O 289.117 -1.66994 1.3763 0
M  V30 3153 C 289.712 1.13465 3.19235 0
M  V30 3154 C 288.271 0.874601 3.66098 0
M  V30 3155 C 287.418 1.28667 2.45642 0
M  V30 3156 H 290.369 1.1178 1.12654 0
M  V30 3157 H 290.39 0.487609 3.77363 0
M  V30 3158 H 289.902 2.21535 3.1866 0
M  V30 3159 H 288.003 -0.191793 3.72106 0
M  V30 3160 H 288.116 1.50028 4.55004 0
M  V30 3161 H 286.48 0.705109 2.44745 0
M  V30 3162 H 287.263 2.37625 2.47769 0
M  V30 3163 N 289.708 -1.40897 0.706093 0
M  V30 3164 C 290.938 -2.05075 0.250523 0
M  V30 3165 C 291.346 -1.53275 -1.10921 0
M  V30 3166 O 290.689 -0.680281 -1.7064 0
M  V30 3167 C 290.751 -3.59219 0.142178 0
M  V30 3168 C 290.415 -4.33864 1.43566 0
M  V30 3169 C 291.412 -4.62448 2.37566 0
M  V30 3170 C 289.097 -4.72946 1.69195 0
M  V30 3171 C 291.091 -5.29088 3.5545 0
M  V30 3172 C 288.778 -5.3932 2.87362 0
M  V30 3173 C 289.776 -5.6732 3.80312 0
M  V30 3174 O 289.464 -6.32325 4.96408 0
M  V30 3175 H 289.196 -0.666645 0.112074 0
M  V30 3176 H 291.75 -1.81467 0.962239 0
M  V30 3177 H 289.98 -3.81609 -0.6254 0
M  V30 3178 H 291.669 -4.0495 -0.277584 0
M  V30 3179 H 292.435 -4.32727 2.19027 0
M  V30 3180 H 288.314 -4.50527 0.977042 0
M  V30 3181 H 291.858 -5.50859 4.28018 0
M  V30 3182 H 287.755 -5.68461 3.05814 0
M  V30 3183 H 288.523 -6.50821 4.9636 0
M  V30 3184 N 291.186 -0.45159 -1.50991 0
M  V30 3185 C 292.432 0.102439 -2.03142 0
M  V30 3186 C 292.787 1.39138 -1.32884 0
M  V30 3187 O 292.08 1.86493 -0.439438 0
M  V30 3188 C 292.274 0.361728 -3.55565 0
M  V30 3189 C 292.103 -0.900535 -4.40591 0
M  V30 3190 C 290.873 -1.43821 -4.844 0
M  V30 3191 C 293.071 -1.79063 -4.82121 0
M  V30 3192 N 291.053 -2.65153 -5.53685 0
M  V30 3193 C 292.424 -2.84991 -5.50618 0
M  V30 3194 C 294.479 -1.80334 -4.64095 0
M  V30 3195 C 293.182 -3.92155 -6.02998 0
M  V30 3196 C 295.208 -2.86442 -5.17402 0
M  V30 3197 C 294.57 -3.9109 -5.85857 0
M  V30 3198 H 290.669 -0.00204537 -0.781997 0
M  V30 3199 H 293.253 -0.615446 -1.84717 0
M  V30 3200 H 291.424 1.04865 -3.73976 0
M  V30 3201 H 293.156 0.908372 -3.94374 0
M  V30 3202 H 289.911 -0.990117 -4.63135 0
M  V30 3203 H 290.335 -3.26717 -5.92946 0
M  V30 3204 H 294.977 -1.00753 -4.1062 0
M  V30 3205 H 292.695 -4.72565 -6.55521 0
M  V30 3206 H 296.281 -2.88386 -5.05297 0
M  V30 3207 H 295.161 -4.71845 -6.26364 0
M  V30 3208 N 292.664 1.56529 -0.183458 0
M  V30 3209 C 293.597 2.14417 0.781052 0
M  V30 3210 C 294.575 1.07761 1.21763 0
M  V30 3211 O 295.759 1.35807 1.30724 0
M  V30 3212 C 292.886 2.69361 2.05335 0
M  V30 3213 C 291.932 3.885 1.75982 0
M  V30 3214 S 292.765 5.27568 0.918256 0
M  V30 3215 C 293.921 5.85926 2.20095 0
M  V30 3216 H 294.154 2.95893 0.2889 0
M  V30 3217 H 291.687 1.54368 0.0313844 0
M  V30 3218 H 293.645 3.01662 2.78406 0
M  V30 3219 H 292.306 1.87949 2.51663 0
M  V30 3220 H 291.499 4.25314 2.70415 0
M  V30 3221 H 291.101 3.57149 1.10999 0
M  V30 3222 H 293.393 5.99579 3.15453 0
M  V30 3223 H 294.336 6.82761 1.87731 0
M  V30 3224 H 294.744 5.14438 2.32409 0
M  V30 3225 N 294.142 -0.090211 1.57342 0
M  V30 3226 C 295.105 -1.09335 2.01441 0
M  V30 3227 C 296.105 -1.32666 0.908641 0
M  V30 3228 O 297.295 -1.28697 1.174 0
M  V30 3229 C 294.427 -2.44136 2.3793 0
M  V30 3230 H 295.62 -0.713662 2.91285 0
M  V30 3231 H 293.173 -0.335404 1.52659 0
M  V30 3232 H 293.908 -2.86972 1.51055 0
M  V30 3233 H 293.693 -2.28548 3.18603 0
M  V30 3234 H 295.183 -3.16277 2.72688 0
M  V30 3235 N 295.62 -1.53406 -0.361157 0
M  V30 3236 C 297.031 -1.61442 -0.937728 0
M  V30 3237 C 297.382 -0.48461 -1.90121 0
M  V30 3238 O 296.507 0.388312 -2.12888 0
M  V30 3239 C 297.102 -2.92624 -1.70753 0
M  V30 3240 C 295.661 -3.02981 -2.23337 0
M  V30 3241 C 294.808 -2.5677 -1.04712 0
M  V30 3242 H 297.759 -1.58083 -0.139816 0
M  V30 3243 H 297.78 -2.80675 -2.56908 0
M  V30 3244 H 297.292 -3.74834 -1.00604 0
M  V30 3245 H 295.393 -2.25368 -2.96715 0
M  V30 3246 H 295.506 -4.0814 -2.50916 0
M  V30 3247 H 293.87 -2.11752 -1.41539 0
M  V30 3248 H 294.653 -3.41402 -0.360539 0
M  V30 3249 N 297.098 0.621204 -1.44841 0
M  V30 3250 C 298.008 1.7612 -1.5498 0
M  V30 3251 C 299.024 1.68477 -0.434927 0
M  V30 3252 O 300.2 1.89076 -0.693693 0
M  V30 3253 C 297.265 3.1254 -1.50065 0
M  V30 3254 C 296.326 3.31741 -2.72482 0
M  V30 3255 C 295.559 4.61653 -2.67792 0
M  V30 3256 O 295.782 5.431 -1.74352 0
M  V30 3257 O 294.716 4.83271 -3.58794 0
M  V30 3258 H 298.542 1.70518 -2.51311 0
M  V30 3259 H 296.127 0.783643 -1.27198 0
M  V30 3260 H 298.009 3.93844 -1.49882 0
M  V30 3261 H 296.684 3.18663 -0.568806 0
M  V30 3262 H 295.591 2.50077 -2.7823 0
M  V30 3263 H 296.924 3.30486 -3.64746 0
M  V30 3264 N 298.576 1.31904 0.862503 0
M  V30 3265 C 299.822 1.22197 1.61851 0
M  V30 3266 C 300.155 -0.217641 1.92977 0
M  V30 3267 O 299.43 -1.15264 1.56666 0
M  V30 3268 C 299.713 2.07378 2.94391 0
M  V30 3269 C 299.566 3.59678 2.70096 0
M  V30 3270 C 300.885 1.92891 3.95577 0
M  V30 3271 H 298.004 0.445255 0.587296 0
M  V30 3272 H 300.646 1.6177 0.99651 0
M  V30 3273 H 298.796 1.73758 3.47477 0
M  V30 3274 H 300.468 4.03472 2.23625 0
M  V30 3275 H 298.711 3.82735 2.04197 0
M  V30 3276 H 299.382 4.14595 3.64438 0
M  V30 3277 H 301.858 2.22327 3.51724 0
M  V30 3278 H 300.734 2.54781 4.86187 0
M  V30 3279 H 300.995 0.894315 4.3296 0
M  V30 3280 N 300.054 -1.07777 1.14986 0
M  V30 3281 C 301.3 -1.80557 0.923422 0
M  V30 3282 C 301.633 -1.86298 -0.548337 0
M  V30 3283 O 300.908 -1.34354 -1.40639 0
M  V30 3284 C 301.191 -3.25839 1.53299 0
M  V30 3285 C 301.044 -3.28269 3.07505 0
M  V30 3286 C 302.363 -4.22991 1.21518 0
M  V30 3287 H 299.482 -0.655493 0.336894 0
M  V30 3288 H 302.124 -1.26144 1.42083 0
M  V30 3289 H 300.274 -3.72306 1.10999 0
M  V30 3290 H 301.946 -2.90079 3.58681 0
M  V30 3291 H 300.189 -2.67355 3.4162 0
M  V30 3292 H 300.86 -4.30691 3.45266 0
M  V30 3293 H 303.336 -3.84894 1.581 0
M  V30 3294 H 302.212 -5.22945 1.66793 0
M  V30 3295 H 302.473 -4.41904 0.131505 0
M  V30 3296 N 301.532 -0.945985 -1.26051 0
M  V30 3297 C 302.465 -0.403619 -2.24602 0
M  V30 3298 C 303.443 0.510241 -1.54387 0
M  V30 3299 O 304.627 0.446593 -1.83133 0
M  V30 3300 C 301.754 0.419564 -3.36091 0
M  V30 3301 C 300.8 -0.433454 -4.24292 0
M  V30 3302 S 301.633 -1.86037 -5.02146 0
M  V30 3303 C 302.789 -1.04538 -6.17108 0
M  V30 3304 H 303.022 -1.23883 -2.7026 0
M  V30 3305 H 300.555 -0.749438 -1.34992 0
M  V30 3306 H 302.513 0.888595 -4.00767 0
M  V30 3307 H 301.174 1.22951 -2.89036 0
M  V30 3308 H 300.367 0.197486 -5.03613 0
M  V30 3309 H 299.969 -0.837357 -3.64506 0
M  V30 3310 H 302.261 -0.289923 -6.76879 0
M  V30 3311 H 303.204 -1.81222 -6.84518 0
M  V30 3312 H 303.612 -0.579319 -5.61519 0
M  V30 3313 N 303.011 1.40521 -0.713556 0
M  V30 3314 C 304.251 2.02783 -0.256584 0
M  V30 3315 C 304.615 1.55352 1.12827 0
M  V30 3316 O 305.816 2.09663 1.68211 0
M  V30 3317 C 304.087 3.5586 -0.331414 0
M  V30 3318 S 305.646 4.38773 0.0488703 0
M  V30 3319 H 302.464 0.703655 -0.101934 0
M  V30 3320 H 305.066 1.71674 -0.935325 0
M  V30 3321 H 303.77 3.87874 -1.34098 0
M  V30 3322 H 303.301 3.91695 0.365873 0
M  V30 3323 H 305.316 4.79633 1.2715 0
M  V30 3324 N 304.489 0.459591 1.5075 0
M  V30 3325 C 305.399 -0.34613 2.32033 0
M  V30 3326 C 306.415 -1.00686 1.41909 0
M  V30 3327 O 307.591 -0.997361 1.7497 0
M  V30 3328 C 304.656 -1.42029 3.16273 0
M  V30 3329 C 303.717 -0.777362 4.22203 0
M  V30 3330 C 302.95 -1.80034 5.02418 0
M  V30 3331 O 303.173 -3.02544 4.83553 0
M  V30 3332 O 302.107 -1.37853 5.85901 0
M  V30 3333 H 305.933 0.318054 3.0203 0
M  V30 3334 H 303.518 0.221663 1.47746 0
M  V30 3335 H 305.4 -2.04275 3.68578 0
M  V30 3336 H 304.075 -2.06815 2.49016 0
M  V30 3337 H 302.982 -0.116256 3.73919 0
M  V30 3338 H 304.315 -0.172634 4.91897 0
M  V30 3339 N 305.967 -1.56429 0.191757 0
M  V30 3340 C 307.195 -2.01867 -0.453586 0
M  V30 3341 C 307.61 -1.07191 -1.5542 0
M  V30 3342 O 306.967 -0.0762108 -1.82341 0
M  V30 3343 C 307.018 -3.47017 -1.013 0
M  V30 3344 O 306.739 -4.38078 0.0437005 0
M  V30 3345 C 308.24 -4.07956 -1.73456 0
M  V30 3346 H 305.46 -0.661211 -0.114199 0
M  V30 3347 H 308.004 -2.02295 0.299483 0
M  V30 3348 H 306.159 -3.47298 -1.71647 0
M  V30 3349 H 306.573 -5.23178 -0.372212 0
M  V30 3350 H 308.047 -5.1138 -2.07833 0
M  V30 3351 H 308.524 -3.51222 -2.63704 0
M  V30 3352 H 309.13 -4.11437 -1.07702 0
M  V30 3353 N 307.445 0.0818655 -1.57387 0
M  V30 3354 C 308.378 1.12986 -1.98266 0
M  V30 3355 C 309.356 1.38123 -0.857954 0
M  V30 3356 O 310.54 1.51663 -1.1194 0
M  V30 3357 C 307.667 2.47632 -2.31076 0
M  V30 3358 C 306.713 2.38693 -3.53452 0
M  V30 3359 S 307.546 1.79071 -5.04672 0
M  V30 3360 C 308.702 3.15316 -5.40673 0
M  V30 3361 H 308.935 0.781435 -2.86846 0
M  V30 3362 H 306.468 0.290034 -1.51651 0
M  V30 3363 H 308.426 3.25089 -2.50654 0
M  V30 3364 H 307.087 2.79638 -1.43043 0
M  V30 3365 H 306.28 3.37964 -3.73893 0
M  V30 3366 H 305.882 1.69369 -3.33452 0
M  V30 3367 H 308.174 4.11613 -5.38127 0
M  V30 3368 H 309.117 2.99664 -6.41566 0
M  V30 3369 H 309.525 3.15457 -4.68132 0
M  V30 3370 N 308.923 1.53595 0.353017 0
M  V30 3371 C 309.87 1.80919 1.43308 0
M  V30 3372 C 310.84 0.654288 1.5267 0
M  V30 3373 O 312.025 0.897759 1.6836 0
M  V30 3374 C 309.165 2.01605 2.80089 0
M  V30 3375 C 308.278 3.29321 2.79593 0
M  V30 3376 C 307.413 3.40125 4.0803 0
M  V30 3377 C 306.452 4.61826 4.01725 0
M  V30 3378 N 305.589 4.69716 5.21834 0
M  V30 3379 H 310.429 2.73074 1.19308 0
M  V30 3380 H 307.966 1.35263 0.578131 0
M  V30 3381 H 309.924 2.11586 3.59565 0
M  V30 3382 H 308.554 1.12772 3.0246 0
M  V30 3383 H 307.606 3.28229 1.92276 0
M  V30 3384 H 308.918 4.18884 2.70809 0
M  V30 3385 H 308.072 3.49488 4.95927 0
M  V30 3386 H 306.811 2.48601 4.19582 0
M  V30 3387 H 305.816 4.52552 3.12213 0
M  V30 3388 H 307.041 5.54705 3.91764 0
M  V30 3389 H 304.987 3.81097 5.33948 0
M  V30 3390 H 304.904 5.53202 5.1527 0
M  V30 3391 H 306.172 4.83376 6.11529 0
M  V30 3392 N 310.401 -0.613514 1.45168 0
M  V30 3393 C 311.678 -1.37263 1.39349 0
M  V30 3394 C 312.058 -2.11012 0.0610848 0
M  V30 3395 O 311.406 -2.07502 -0.956825 0
M  V30 3396 C 311.616 -2.3244 2.60332 0
M  V30 3397 C 312.964 -2.9523 3.05163 0
M  V30 3398 O 313.988 -2.42762 2.60663 0
M  V30 3399 O 312.847 -3.90454 3.82372 0
M  V30 3400 H 309.941 -0.615188 0.552696 0
M  V30 3401 H 312.487 -0.637097 1.57287 0
M  V30 3402 H 311.259 -1.77164 3.48896 0
M  V30 3403 H 310.882 -3.13383 2.44698 0
M  V30 3404 N 311.879 -1.3236 -0.855495 0
M  V30 3405 C 313.107 -1.2587 -1.64208 0
M  V30 3406 C 313.522 0.173457 -1.88002 0
M  V30 3407 O 312.879 1.11027 -1.44842 0
M  V30 3408 C 312.93 -2.01424 -3.00184 0
M  V30 3409 O 312.651 -3.39051 -2.77445 0
M  V30 3410 C 314.152 -2.01948 -3.94629 0
M  V30 3411 H 311.372 -0.434318 -0.511477 0
M  V30 3412 H 313.916 -1.74469 -1.0668 0
M  V30 3413 H 312.071 -1.56549 -3.5436 0
M  V30 3414 H 312.485 -3.77711 -3.63916 0
M  V30 3415 H 313.959 -2.59297 -4.87308 0
M  V30 3416 H 314.436 -1.00554 -4.27534 0
M  V30 3417 H 315.042 -2.46767 -3.4639 0
M  V30 3418 N 313.357 1.07166 -1.15556 0
M  V30 3419 C 314.768 1.6127 -0.940693 0
M  V30 3420 C 315.119 1.89251 0.517551 0
M  V30 3421 O 314.244 1.65937 1.38903 0
M  V30 3422 C 314.839 2.92993 -1.7012 0
M  V30 3423 C 313.398 3.43832 -1.53156 0
M  V30 3424 C 312.545 2.1786 -1.71558 0
M  V30 3425 H 315.496 0.90229 -1.30554 0
M  V30 3426 H 315.517 3.62007 -1.17181 0
M  V30 3427 H 315.029 2.72596 -2.76248 0
M  V30 3428 H 313.13 3.69307 -0.494294 0
M  V30 3429 H 313.243 4.19747 -2.30975 0
M  V30 3430 H 311.607 2.2765 -1.14225 0
M  V30 3431 H 312.39 1.99956 -2.79056 0
M  V30 3432 N 314.835 0.952656 1.25548 0
M  V30 3433 C 316.065 0.622592 1.96996 0
M  V30 3434 C 316.473 -0.809112 1.71026 0
M  V30 3435 O 315.816 -1.55258 0.981861 0
M  V30 3436 C 315.878 0.798946 3.5051 0
M  V30 3437 C 315.542 2.20744 4.00151 0
M  V30 3438 C 316.539 3.18394 4.11001 0
M  V30 3439 C 314.224 2.5311 4.33867 0
M  V30 3440 C 316.218 4.46504 4.54877 0
M  V30 3441 C 313.905 3.8145 4.7743 0
M  V30 3442 C 314.903 4.77959 4.87897 0
M  V30 3443 O 314.591 6.04012 5.30494 0
M  V30 3444 H 314.323 0.232503 0.634758 0
M  V30 3445 H 316.877 1.2789 1.60728 0
M  V30 3446 H 315.107 0.0854903 3.86605 0
M  V30 3447 H 316.796 0.47023 4.03167 0
M  V30 3448 H 317.562 2.94715 3.85186 0
M  V30 3449 H 313.441 1.78719 4.24948 0
M  V30 3450 H 316.985 5.21835 4.62962 0
M  V30 3451 H 312.882 4.04936 5.0269 0
M  V30 3452 H 313.65 6.0736 5.48685 0
M  V30 3453 N 316.313 -1.40141 0.720998 0
M  V30 3454 C 317.59 -1.94677 0.189757 0
M  V30 3455 C 317.97 -1.65879 -1.30566 0
M  V30 3456 O 317.318 -0.979391 -2.06447 0
M  V30 3457 C 317.528 -3.45279 0.508304 0
M  V30 3458 C 318.876 -4.22209 0.449934 0
M  V30 3459 O 319.9 -3.53413 0.444677 0
M  V30 3460 O 318.759 -5.44788 0.432189 0
M  V30 3461 H 315.853 -0.826459 0.0299026 0
M  V30 3462 H 318.399 -1.49719 0.7989 0
M  V30 3463 H 317.171 -3.59619 1.54239 0
M  V30 3464 H 316.794 -3.97386 -0.130525 0
M  V30 3465 N 317.792 -0.46758 -1.50504 0
M  V30 3466 C 319.022 0.086288 -2.0642 0
M  V30 3467 C 319.43 1.34369 -1.33197 0
M  V30 3468 O 318.773 1.79431 -0.393747 0
M  V30 3469 C 318.835 0.443846 -3.5675 0
M  V30 3470 C 318.499 -0.711035 -4.51435 0
M  V30 3471 C 319.496 -1.59205 -4.94924 0
M  V30 3472 C 317.181 -0.900363 -4.94165 0
M  V30 3473 C 319.175 -2.64683 -5.79846 0
M  V30 3474 C 316.862 -1.95837 -5.7887 0
M  V30 3475 C 317.86 -2.82997 -6.21612 0
M  V30 3476 O 317.548 -3.86977 -7.0463 0
M  V30 3477 H 317.28 -0.00217814 -0.675996 0
M  V30 3478 H 319.834 -0.654346 -1.94698 0
M  V30 3479 H 318.064 1.23762 -3.6636 0
M  V30 3480 H 319.753 0.932386 -3.95046 0
M  V30 3481 H 320.519 -1.45745 -4.62583 0
M  V30 3482 H 316.398 -0.231427 -4.60419 0
M  V30 3483 H 319.942 -3.32745 -6.13128 0
M  V30 3484 H 315.839 -2.09305 -6.10624 0
M  V30 3485 H 316.607 -3.83923 -7.22873 0
M  V30 3486 N 319.27 1.56325 -0.20005 0
M  V30 3487 C 320.217 2.1932 0.718833 0
M  V30 3488 C 321.187 1.14198 1.20615 0
M  V30 3489 O 322.372 1.42469 1.26914 0
M  V30 3490 C 319.512 2.86041 1.93066 0
M  V30 3491 C 318.625 4.05702 1.48425 0
M  V30 3492 C 317.76 4.60266 2.65196 0
M  V30 3493 C 316.799 5.72273 2.17185 0
M  V30 3494 N 315.936 6.21221 3.27152 0
M  V30 3495 H 320.776 2.97486 0.17489 0
M  V30 3496 H 318.313 1.46911 0.0745794 0
M  V30 3497 H 320.271 3.22897 2.64184 0
M  V30 3498 H 318.901 2.1043 2.44783 0
M  V30 3499 H 317.953 3.74475 0.668755 0
M  V30 3500 H 319.265 4.86699 1.09204 0
M  V30 3501 H 318.419 4.99453 3.4443 0
M  V30 3502 H 317.158 3.78386 3.07693 0
M  V30 3503 H 316.163 5.3261 1.36407 0
M  V30 3504 H 317.388 6.55974 1.75713 0
M  V30 3505 H 315.334 5.42263 3.69171 0
M  V30 3506 H 315.251 6.97284 2.92116 0
M  V30 3507 H 316.519 6.65063 4.06585 0
M  V30 3508 N 320.748 -0.0735177 1.57428 0
M  V30 3509 C 321.711 -1.07192 2.02589 0
M  V30 3510 C 322.711 -1.31695 0.922661 0
M  V30 3511 O 323.901 -1.27445 1.18758 0
M  V30 3512 C 321.033 -2.41599 2.40506 0
M  V30 3513 H 322.226 -0.682727 2.92025 0
M  V30 3514 H 319.779 -0.319193 1.53006 0
M  V30 3515 H 320.514 -2.85354 1.5409 0
M  V30 3516 H 320.299 -2.25156 3.21009 0
M  V30 3517 H 321.789 -3.13367 2.76027 0
M  V30 3518 N 322.226 -1.5378 -0.344866 0
M  V30 3519 C 323.503 -1.61589 -1.10219 0
M  V30 3520 C 323.883 -0.436316 -2.06542 0
M  V30 3521 O 323.231 0.571543 -2.21237 0
M  V30 3522 C 323.441 -2.97602 -1.82301 0
M  V30 3523 C 324.789 -3.5291 -2.36093 0
M  V30 3524 O 325.813 -2.99768 -1.924 0
M  V30 3525 O 324.672 -4.45859 -3.16026 0
M  V30 3526 H 321.766 -0.653522 -0.506792 0
M  V30 3527 H 324.312 -1.66126 -0.346465 0
M  V30 3528 H 323.084 -3.74893 -1.12121 0
M  V30 3529 H 322.707 -2.9665 -2.64735 0
M  V30 3530 N 323.704 0.605807 -1.45491 0
M  V30 3531 C 324.953 1.36086 -1.48874 0
M  V30 3532 C 325.266 1.95131 -0.135333 0
M  V30 3533 O 326.472 2.7146 -0.0468144 0
M  V30 3534 C 324.928 2.46518 -2.62215 0
M  V30 3535 C 324.536 1.93877 -4.03876 0
M  V30 3536 C 326.28 3.23512 -2.74846 0
M  V30 3537 C 324.187 3.01801 -5.08596 0
M  V30 3538 H 323.117 0.511497 -0.553974 0
M  V30 3539 H 325.768 0.649089 -1.71636 0
M  V30 3540 H 324.15 3.20388 -2.32739 0
M  V30 3541 H 325.324 1.26704 -4.43038 0
M  V30 3542 H 323.639 1.29622 -3.95711 0
M  V30 3543 H 326.236 4.04013 -3.50253 0
M  V30 3544 H 326.579 3.74631 -1.81542 0
M  V30 3545 H 327.112 2.56742 -3.03856 0
M  V30 3546 H 323.851 2.55597 -6.03614 0
M  V30 3547 H 323.371 3.67535 -4.74002 0
M  V30 3548 H 325.05 3.66152 -5.33424 0
M  V30 3549 N 325.182 1.32811 0.848464 0
M  V30 3550 C 326.428 1.24917 1.60522 0
M  V30 3551 C 326.783 -0.185761 1.91501 0
M  V30 3552 O 326.076 -1.12524 1.55077 0
M  V30 3553 C 326.27 2.04831 2.92881 0
M  V30 3554 C 326.099 3.55949 2.74828 0
M  V30 3555 C 324.869 4.25277 2.72887 0
M  V30 3556 C 327.067 4.50476 2.48145 0
M  V30 3557 N 325.049 5.62408 2.46111 0
M  V30 3558 C 326.42 5.75427 2.30832 0
M  V30 3559 C 328.475 4.39665 2.33664 0
M  V30 3560 C 327.178 6.90789 2.00508 0
M  V30 3561 C 329.204 5.54833 2.04731 0
M  V30 3562 C 328.566 6.78787 1.88223 0
M  V30 3563 H 324.665 0.512279 0.590842 0
M  V30 3564 H 327.249 1.67246 0.996839 0
M  V30 3565 H 325.42 1.64837 3.51686 0
M  V30 3566 H 327.152 1.88782 3.57971 0
M  V30 3567 H 323.907 3.77456 2.86049 0
M  V30 3568 H 324.331 6.3467 2.35634 0
M  V30 3569 H 328.973 3.44477 2.45144 0
M  V30 3570 H 326.691 7.85984 1.87765 0
M  V30 3571 H 330.277 5.48398 1.94295 0
M  V30 3572 H 329.157 7.66396 1.66155 0
M  V30 3573 N 326.66 -1.06551 1.16123 0
M  V30 3574 C 327.885 -1.83544 0.965735 0
M  V30 3575 C 328.31 -1.81843 -0.481102 0
M  V30 3576 O 327.668 -1.21732 -1.34354 0
M  V30 3577 C 327.716 -3.28169 1.49457 0
M  V30 3578 O 326.82 -4.0643 0.699157 0
M  V30 3579 H 326.161 -0.568026 0.343864 0
M  V30 3580 H 328.691 -1.34362 1.54299 0
M  V30 3581 H 328.701 -3.78992 1.51092 0
M  V30 3582 H 327.376 -3.28722 2.54784 0
M  V30 3583 H 325.953 -3.65216 0.7531 0
M  V30 3584 N 328.138 -0.959301 -1.25041 0
M  V30 3585 C 329.068 -0.501388 -2.28053 0
M  V30 3586 C 330.049 0.454673 -1.63911 0
M  V30 3587 O 331.234 0.352618 -1.90972 0
M  V30 3588 C 328.364 0.217224 -3.4662 0
M  V30 3589 C 327.318 -0.654034 -4.22973 0
M  V30 3590 C 326.644 0.195589 -5.34342 0
M  V30 3591 C 327.944 -1.93447 -4.85155 0
M  V30 3592 H 329.638 -1.36238 -2.66608 0
M  V30 3593 H 327.184 -0.656534 -1.28163 0
M  V30 3594 H 329.137 0.548732 -4.17812 0
M  V30 3595 H 327.861 1.1125 -3.07068 0
M  V30 3596 H 326.52 -0.968693 -3.5357 0
M  V30 3597 H 326.168 1.09076 -4.91031 0
M  V30 3598 H 325.868 -0.384091 -5.86343 0
M  V30 3599 H 327.392 0.521958 -6.08365 0
M  V30 3600 H 328.806 -1.66908 -5.48466 0
M  V30 3601 H 327.203 -2.46018 -5.47353 0
M  V30 3602 H 328.273 -2.63466 -4.07079 0
M  V30 3603 N 329.616 1.39756 -0.72842 0
M  V30 3604 C 330.864 2.00248 -0.272946 0
M  V30 3605 C 331.185 1.58077 1.14178 0
M  V30 3606 O 330.455 0.826014 1.77634 0
M  V30 3607 H 329.035 0.740554 -0.0979247 0
M  V30 3608 H 331.697 1.70903 -0.936912 0
M  V30 3609 H 330.793 3.10495 -0.316142 0
M  V30 3610 N 331.094 0.475555 1.50254 0
M  V30 3611 C 332.343 -0.0795996 2.01543 0
M  V30 3612 C 332.656 -1.4038 1.36209 0
M  V30 3613 O 333.862 -2.04415 1.7868 0
M  V30 3614 C 332.318 -0.192363 3.59386 0
M  V30 3615 C 331.926 1.12367 4.33679 0
M  V30 3616 C 333.67 -0.699238 4.18701 0
M  V30 3617 C 331.577 0.974453 5.83317 0
M  V30 3618 H 330.507 -0.0335228 0.753254 0
M  V30 3619 H 333.158 0.611128 1.73025 0
M  V30 3620 H 331.54 -0.946974 3.84511 0
M  V30 3621 H 332.714 1.88958 4.20276 0
M  V30 3622 H 331.029 1.562 3.85993 0
M  V30 3623 H 333.626 -0.827978 5.28251 0
M  V30 3624 H 333.969 -1.69171 3.80377 0
M  V30 3625 H 334.502 -0.00188807 3.978 0
M  V30 3626 H 331.241 1.94042 6.26121 0
M  V30 3627 H 330.761 0.248998 5.99283 0
M  V30 3628 H 332.44 0.642867 6.43798 0
M  V30 3629 N 332.573 -1.56217 0.208337 0
M  V30 3630 C 333.801 -2.02337 -0.43215 0
M  V30 3631 C 334.216 -1.08834 -1.54275 0
M  V30 3632 O 333.573 -0.0955462 -1.8225 0
M  V30 3633 C 333.624 -3.48072 -0.976138 0
M  V30 3634 O 333.345 -4.38007 0.0901621 0
M  V30 3635 C 334.846 -4.09773 -1.69119 0
M  V30 3636 H 332.066 -0.662385 -0.10718 0
M  V30 3637 H 334.61 -2.01966 0.320923 0
M  V30 3638 H 332.765 -3.49099 -1.67954 0
M  V30 3639 H 333.179 -5.23543 -0.316701 0
M  V30 3640 H 334.653 -5.13556 -2.02397 0
M  V30 3641 H 335.13 -3.53999 -2.59964 0
M  V30 3642 H 335.736 -4.12556 -1.03332 0
M  V30 3643 N 334.051 0.0651679 -1.57465 0
M  V30 3644 C 334.981 1.07693 -2.07182 0
M  V30 3645 C 335.962 1.39962 -0.966673 0
M  V30 3646 O 337.147 1.49475 -1.2398 0
M  V30 3647 C 334.277 2.3885 -2.52127 0
M  V30 3648 C 333.231 2.20917 -3.66579 0
M  V30 3649 C 332.557 3.57515 -3.97601 0
M  V30 3650 C 333.857 1.62493 -4.9638 0
M  V30 3651 H 335.551 0.663199 -2.91962 0
M  V30 3652 H 333.097 0.317569 -1.40455 0
M  V30 3653 H 335.05 3.09928 -2.85522 0
M  V30 3654 H 333.774 2.82215 -1.64384 0
M  V30 3655 H 332.433 1.52279 -3.33477 0
M  V30 3656 H 332.081 3.98463 -3.06979 0
M  V30 3657 H 331.781 3.46353 -4.74672 0
M  V30 3658 H 333.305 4.30013 -4.33499 0
M  V30 3659 H 334.719 2.23445 -5.27963 0
M  V30 3660 H 333.116 1.62009 -5.77818 0
M  V30 3661 H 334.186 0.587041 -4.81333 0
M  V30 3662 N 335.529 1.53961 0.336706 0
M  V30 3663 C 336.778 1.70751 1.07363 0
M  V30 3664 C 337.091 0.481061 1.89592 0
M  V30 3665 O 338.297 0.530046 2.66276 0
M  V30 3666 C 336.753 3.01965 1.95818 0
M  V30 3667 C 336.361 4.31971 1.18764 0
M  V30 3668 C 338.105 3.28121 2.69327 0
M  V30 3669 C 336.012 5.54255 2.06289 0
M  V30 3670 H 334.942 0.636292 0.404535 0
M  V30 3671 H 337.593 1.80459 0.332681 0
M  V30 3672 H 335.975 2.86132 2.7376 0
M  V30 3673 H 337.149 4.5853 0.456849 0
M  V30 3674 H 335.464 4.12481 0.569946 0
M  V30 3675 H 338.061 4.16673 3.35094 0
M  V30 3676 H 338.404 2.45426 3.36261 0
M  V30 3677 H 338.937 3.44762 1.98454 0
M  V30 3678 H 335.676 6.39513 1.43885 0
M  V30 3679 H 335.196 5.31935 2.77138 0
M  V30 3680 H 336.875 5.90159 2.65182 0
M  V30 3681 N 337.007 -0.598083 1.45811 0
M  V30 3682 C 337.917 -1.73632 1.57763 0
M  V30 3683 C 338.933 -1.67763 0.461676 0
M  V30 3684 O 340.109 -1.87949 0.723685 0
M  V30 3685 C 337.174 -3.10114 1.55018 0
M  V30 3686 C 336.235 -3.27364 2.77726 0
M  V30 3687 C 335.468 -4.57334 2.75102 0
M  V30 3688 O 335.691 -5.40258 1.8297 0
M  V30 3689 O 334.625 -4.77502 3.66437 0
M  V30 3690 H 338.451 -1.66498 2.53992 0
M  V30 3691 H 336.036 -0.763308 1.28429 0
M  V30 3692 H 337.918 -3.9141 1.56129 0
M  V30 3693 H 336.593 -3.17718 0.619431 0
M  V30 3694 H 335.5 -2.45619 2.82174 0
M  V30 3695 H 336.833 -3.24641 3.69958 0
M  V30 3696 N 338.485 -1.33259 -0.841409 0
M  V30 3697 C 339.418 -1.1764 -1.95541 0
M  V30 3698 C 340.396 -0.072501 -1.62438 0
M  V30 3699 O 341.58 -0.23427 -1.87039 0
M  V30 3700 C 338.707 -0.803794 -3.29024 0
M  V30 3701 C 337.753 -1.91482 -3.81099 0
M  V30 3702 S 338.586 -3.52538 -4.03085 0
M  V30 3703 C 339.742 -3.17279 -5.39523 0
M  V30 3704 H 339.975 -2.11941 -2.08491 0
M  V30 3705 H 337.508 -1.18072 -0.9949 0
M  V30 3706 H 339.466 -0.595592 -4.06156 0
M  V30 3707 H 338.127 0.120574 -3.13868 0
M  V30 3708 H 337.32 -1.60742 -4.7768 0
M  V30 3709 H 336.922 -2.07956 -3.10854 0
M  V30 3710 H 339.214 -2.67946 -6.22263 0
M  V30 3711 H 340.157 -4.1293 -5.75234 0
M  V30 3712 H 340.565 -2.53943 -5.04156 0
M  V30 3713 N 339.963 1.05934 -1.16686 0
M  V30 3714 C 340.926 2.11669 -0.879144 0
M  V30 3715 C 341.926 1.60294 0.127445 0
M  V30 3716 O 343.116 1.7389 -0.103865 0
M  V30 3717 C 340.248 3.39438 -0.315425 0
M  V30 3718 H 341.441 2.38626 -1.81653 0
M  V30 3719 H 338.994 1.22058 -0.976299 0
M  V30 3720 H 339.729 3.18132 0.629468 0
M  V30 3721 H 339.514 3.78034 -1.04079 0
M  V30 3722 H 341.004 4.17391 -0.132189 0
M  V30 3723 N 341.441 0.965919 1.2453 0
M  V30 3724 C 342.373 0.452465 2.2469 0
M  V30 3725 C 343.386 -0.437821 1.56802 0
M  V30 3726 O 344.575 -0.244283 1.76821 0
M  V30 3727 C 341.675 -0.366258 3.36915 0
M  V30 3728 C 340.848 0.513701 4.34373 0
M  V30 3729 C 339.907 -0.248716 5.25612 0
M  V30 3730 O 338.933 0.356745 5.68081 0
M  V30 3731 N 340.135 -1.53877 5.59734 0
M  V30 3732 H 342.9 1.31361 2.69378 0
M  V30 3733 H 340.461 0.837541 1.38553 0
M  V30 3734 H 342.453 -0.884297 3.94921 0
M  V30 3735 H 341.023 -1.12832 2.91526 0
M  V30 3736 H 340.243 1.21273 3.75082 0
M  V30 3737 H 341.531 1.11391 4.96457 0
M  V30 3738 H 340.929 -2.05243 5.27154 0
M  V30 3739 H 339.486 -2.00254 6.20275 0
M  V30 3740 N 342.919 -1.39368 0.735821 0
M  V30 3741 C 344.168 -1.99733 0.281004 0
M  V30 3742 C 344.481 -1.59055 -1.13846 0
M  V30 3743 O 345.687 -2.12262 -1.69284 0
M  V30 3744 C 344.143 -3.57057 0.451462 0
M  V30 3745 C 343.751 -4.06697 1.87886 0
M  V30 3746 C 345.495 -4.2446 0.0584616 0
M  V30 3747 C 343.402 -5.56598 1.99883 0
M  V30 3748 H 342.332 -0.747163 0.101311 0
M  V30 3749 H 344.983 -1.59357 0.909819 0
M  V30 3750 H 343.365 -3.95234 -0.246263 0
M  V30 3751 H 344.539 -3.79853 2.60861 0
M  V30 3752 H 342.854 -3.5196 2.22515 0
M  V30 3753 H 345.451 -5.34549 0.127099 0
M  V30 3754 H 345.794 -4.04444 -0.986433 0
M  V30 3755 H 346.327 -3.9146 0.707374 0
M  V30 3756 H 343.066 -5.81494 3.02564 0
M  V30 3757 H 342.586 -5.85242 1.31346 0
M  V30 3758 H 344.265 -6.22022 1.78039 0
M  V30 3759 N 344.397 -0.483516 -1.5 0
M  V30 3760 C 345.307 0.309172 -2.32554 0
M  V30 3761 C 346.323 0.984159 -1.43493 0
M  V30 3762 O 347.499 0.969399 -1.76535 0
M  V30 3763 C 344.564 1.36979 -3.18493 0
M  V30 3764 C 343.625 0.710095 -4.23387 0
M  V30 3765 C 342.858 1.72018 -5.05218 0
M  V30 3766 O 343.081 2.94813 -4.88305 0
M  V30 3767 O 342.015 1.28515 -5.8802 0
M  V30 3768 H 345.841 -0.366064 -3.01486 0
M  V30 3769 H 343.426 -0.24514 -1.47375 0
M  V30 3770 H 345.308 1.98385 -3.71781 0
M  V30 3771 H 343.983 2.02828 -2.52275 0
M  V30 3772 H 342.89 0.0567539 -3.74057 0
M  V30 3773 H 344.223 0.0943557 -4.9211 0
M  V30 3774 N 345.875 1.56104 -0.216619 0
M  V30 3775 C 347.286 1.844 0.292128 0
M  V30 3776 C 347.637 1.13788 1.59833 0
M  V30 3777 O 346.762 0.405888 2.12559 0
M  V30 3778 C 347.357 3.3452 0.53681 0
M  V30 3779 C 345.916 3.63151 0.989876 0
M  V30 3780 C 345.063 2.77255 0.0502302 0
M  V30 3781 H 348.014 1.52481 -0.439926 0
M  V30 3782 H 348.035 3.54459 1.38345 0
M  V30 3783 H 347.547 3.85885 -0.414031 0
M  V30 3784 H 345.648 3.17238 1.95425 0
M  V30 3785 H 345.761 4.71177 0.867698 0
M  V30 3786 H 344.125 2.48555 0.556117 0
M  V30 3787 H 344.908 3.31416 -0.89544 0
M  V30 3788 N 347.353 -0.0568162 1.57498 0
M  V30 3789 C 348.764 -0.606858 1.76562 0
M  V30 3790 C 349.115 -1.77114 0.844094 0
M  V30 3791 O 348.24 -2.16376 0.0318911 0
M  V30 3792 C 348.835 -1.10766 3.20182 0
M  V30 3793 C 347.394 -1.60344 3.40539 0
M  V30 3794 C 346.541 -0.529311 2.72201 0
M  V30 3795 H 349.492 0.169393 1.57793 0
M  V30 3796 H 349.513 -1.97602 3.25167 0
M  V30 3797 H 349.025 -0.26006 3.87228 0
M  V30 3798 H 347.126 -2.47379 2.78629 0
M  V30 3799 H 347.239 -1.67006 4.4905 0
M  V30 3800 H 345.603 -0.977893 2.35179 0
M  V30 3801 H 346.386 0.308352 3.41912 0
M  V30 3802 N 348.832 -1.54138 -0.328536 0
M  V30 3803 C 349.782 -1.79557 -1.4051 0
M  V30 3804 C 350.766 -0.651373 -1.47126 0
M  V30 3805 O 351.958 -0.911226 -1.51742 0
M  V30 3806 C 349.087 -2.02196 -2.77438 0
M  V30 3807 C 348.173 -3.22724 -2.75155 0
M  V30 3808 N 348.564 -4.43881 -2.42494 0
M  V30 3809 C 346.862 -3.24196 -3.06289 0
M  V30 3810 C 347.563 -5.25797 -2.48822 0
M  V30 3811 N 346.539 -4.62862 -2.8506 0
M  V30 3812 H 350.341 -2.70814 -1.1418 0
M  V30 3813 H 347.855 -1.53265 -0.536991 0
M  V30 3814 H 349.852 -2.18546 -3.55026 0
M  V30 3815 H 348.512 -1.12191 -3.04702 0
M  V30 3816 H 349.523 -4.70969 -2.15428 0
M  V30 3817 H 346.2 -2.44208 -3.38627 0
M  V30 3818 H 347.59 -6.32535 -2.26603 0
M  V30 3819 N 350.31 0.590341 -1.46126 0
M  V30 3820 C 351.26 1.69466 -1.5253 0
M  V30 3821 C 352.244 1.56179 -0.386917 0
M  V30 3822 O 353.436 1.65223 -0.634858 0
M  V30 3823 C 350.565 3.08245 -1.5113 0
M  V30 3824 C 349.651 3.26856 -2.70233 0
M  V30 3825 N 350.042 3.15657 -3.95214 0
M  V30 3826 C 348.34 3.57775 -2.66296 0
M  V30 3827 C 349.041 3.36066 -4.74799 0
M  V30 3828 N 348.017 3.60865 -4.06543 0
M  V30 3829 H 351.819 1.59326 -2.46966 0
M  V30 3830 H 349.333 0.79414 -1.41659 0
M  V30 3831 H 351.33 3.87492 -1.53804 0
M  V30 3832 H 349.99 3.19521 -0.577636 0
M  V30 3833 H 351.001 2.93686 -4.26578 0
M  V30 3834 H 347.678 3.75782 -1.81918 0
M  V30 3835 H 349.068 3.32655 -5.83772 0
M  V30 3836 N 351.788 1.33704 0.83433 0
M  V30 3837 C 352.698 1.26382 1.97648 0
M  V30 3838 C 353.714 0.173548 1.73132 0
M  V30 3839 O 354.89 0.397962 1.97429 0
M  V30 3840 C 351.955 1.00769 3.31733 0
M  V30 3841 C 351.016 2.1884 3.69334 0
M  V30 3842 C 350.249 1.9444 4.9702 0
M  V30 3843 O 350.472 0.896961 5.63303 0
M  V30 3844 O 349.406 2.81093 5.32231 0
M  V30 3845 H 353.232 2.22444 2.06767 0
M  V30 3846 H 350.817 1.13795 0.968037 0
M  V30 3847 H 352.699 0.882186 4.12062 0
M  V30 3848 H 351.374 0.0773783 3.23608 0
M  V30 3849 H 350.281 2.36946 2.89495 0
M  V30 3850 H 351.614 3.10221 3.82131 0
M  V30 3851 N 353.266 -1.05314 1.17247 0
M  V30 3852 C 354.196 -2.1498 0.911362 0
M  V30 3853 C 355.177 -1.69471 -0.146169 0
M  V30 3854 O 356.362 -1.942 0.003812 0
M  V30 3855 C 353.492 -3.4472 0.422528 0
M  V30 3856 C 352.446 -4.03789 1.4191 0
M  V30 3857 C 351.772 -5.28858 0.788274 0
M  V30 3858 C 353.072 -4.41418 2.7919 0
M  V30 3859 H 354.766 -2.3708 1.82848 0
M  V30 3860 H 352.312 -1.13938 0.880569 0
M  V30 3861 H 354.265 -4.20787 0.227289 0
M  V30 3862 H 352.989 -3.22269 -0.530123 0
M  V30 3863 H 351.648 -3.2979 1.60106 0
M  V30 3864 H 351.296 -5.02709 -0.171173 0
M  V30 3865 H 350.996 -5.69338 1.45353 0
M  V30 3866 H 352.52 -6.07612 0.603282 0
M  V30 3867 H 353.934 -5.08524 2.64719 0
M  V30 3868 H 352.331 -4.92913 3.42282 0
M  V30 3869 H 353.401 -3.51819 3.33693 0
M  V30 3870 N 354.744 -0.972509 -1.24016 0
M  V30 3871 C 355.692 -0.498562 -2.27194 0
M  V30 3872 C 356.686 0.440372 -1.63576 0
M  V30 3873 O 357.892 0.315133 -1.7722 0
M  V30 3874 H 354.267 -0.142775 -0.738322 0
M  V30 3875 H 356.238 -1.38065 -2.64539 0
M  V30 3876 C 354.987 0.191072 -3.47175 0
M  V30 3877 H 354.31 -0.522318 -3.96373 0
M  V30 3878 H 355.75 0.486445 -4.212 0
M  V30 3879 C 354.209 1.41967 -3.05527 0
M  V30 3880 O 354.739 2.51642 -3.13112 0
M  V30 3881 N 352.945 1.28746 -2.60524 0
M  V30 3882 H 352.492 0.395089 -2.54552 0
M  V30 3883 H 352.45 2.11061 -2.33025 0
M  V30 3884 N 356.222 1.38976 -0.743202 0
M  V30 3885 C 357.633 1.83123 -0.363732 0
M  V30 3886 C 357.984 1.6205 1.10609 0
M  V30 3887 O 357.109 1.11606 1.854 0
M  V30 3888 C 357.704 3.32439 -0.653408 0
M  V30 3889 C 356.263 3.74974 -0.327338 0
M  V30 3890 C 355.41 2.61878 -0.911875 0
M  V30 3891 H 358.361 1.27852 -0.940191 0
M  V30 3892 H 358.382 3.80432 0.0720031 0
M  V30 3893 H 357.894 3.47745 -1.72323 0
M  V30 3894 H 355.995 3.65252 0.736314 0
M  V30 3895 H 356.108 4.72106 -0.815631 0
M  V30 3896 H 354.472 2.52448 -0.337944 0
M  V30 3897 H 355.255 2.79987 -1.98651 0
M  V30 3898 N 357.7 0.491464 1.49741 0
M  V30 3899 C 358.633 -0.338464 2.25676 0
M  V30 3900 C 359.611 -0.978676 1.29849 0
M  V30 3901 O 360.795 -1.01064 1.59117 0
M  V30 3902 C 357.922 -1.47588 3.04853 0
M  V30 3903 C 356.968 -0.951 4.15762 0
M  V30 3904 S 357.801 0.150626 5.35288 0
M  V30 3905 C 358.957 -0.990178 6.18018 0
M  V30 3906 H 359.19 0.306068 2.9572 0
M  V30 3907 H 356.723 0.276622 1.51902 0
M  V30 3908 H 358.681 -2.12764 3.51058 0
M  V30 3909 H 357.342 -2.09199 2.34296 0
M  V30 3910 H 356.535 -1.80311 4.70642 0
M  V30 3911 H 356.137 -0.376607 3.72099 0
M  V30 3912 H 358.429 -1.89748 6.50386 0
M  V30 3913 H 359.372 -0.480205 7.0647 0
M  V30 3914 H 359.78 -1.25321 5.50413 0
M  V30 3915 N 359.178 -1.55987 0.224894 0
M  V30 3916 C 360.594 -1.59066 -0.130426 0
M  V30 3917 C 360.794 -1.24176 -1.5869 0
M  V30 3918 O 359.85 -0.978592 -2.32766 0
M  V30 3919 C 361.163 -3.00042 0.198883 0
M  V30 3920 C 362.711 -3.1268 0.141391 0
M  V30 3921 C 363.186 -4.55839 0.444422 0
M  V30 3922 N 364.677 -4.6152 0.394115 0
M  V30 3923 C 365.412 -5.70231 0.602038 0
M  V30 3924 N 364.908 -6.87291 0.871914 0
M  V30 3925 N 366.701 -5.59555 0.534245 0
M  V30 3926 H 358.852 -1.76941 1.17497 0
M  V30 3927 H 361.115 -0.822604 0.471197 0
M  V30 3928 H 360.821 -3.30234 1.2099 0
M  V30 3929 H 360.695 -3.74075 -0.484535 0
M  V30 3930 H 363.082 -2.82283 -0.860265 0
M  V30 3931 H 363.163 -2.40969 0.858335 0
M  V30 3932 H 362.807 -4.86954 1.44353 0
M  V30 3933 H 362.737 -5.2578 -0.293752 0
M  V30 3934 H 365.228 -3.77405 0.193356 0
M  V30 3935 H 365.541 -7.66058 1.01858 0
M  V30 3936 H 363.886 -6.89028 0.909145 0
M  V30 3937 H 367.077 -4.6698 0.323612 0
M  V30 3938 H 367.25 -6.44211 0.699693 0
M  V30 3939 N 360.656 0.0484629 -1.57525 0
M  V30 3940 C 361.902 0.744226 -1.88651 0
M  V30 3941 C 362.235 1.76029 -0.820212 0
M  V30 3942 O 361.51 1.93782 0.166985 0
M  V30 3943 C 361.793 1.43128 -3.30434 0
M  V30 3944 C 361.646 0.43005 -4.47739 0
M  V30 3945 C 362.965 2.37031 -3.70816 0
M  V30 3946 H 360.084 0.269089 -0.68612 0
M  V30 3947 H 362.726 0.00713532 -1.89999 0
M  V30 3948 H 360.876 2.05956 -3.29415 0
M  V30 3949 H 362.548 -0.194816 -4.60888 0
M  V30 3950 H 360.791 -0.252522 -4.33064 0
M  V30 3951 H 361.462 0.948874 -5.43783 0
M  V30 3952 H 363.938 1.84263 -3.73077 0
M  V30 3953 H 362.814 2.82094 -4.70865 0
M  V30 3954 H 363.075 3.22864 -3.02012 0
M  V30 3955 N 362.134 1.5431 0.320358 0
M  V30 3956 C 363.064 1.86912 1.3995 0
M  V30 3957 C 364.045 0.726211 1.53819 0
M  V30 3958 O 365.23 0.980233 1.67646 0
M  V30 3959 C 362.36 2.09932 2.7667 0
M  V30 3960 C 361.314 3.25776 2.77586 0
M  V30 3961 C 360.64 3.34173 4.17412 0
M  V30 3962 C 361.94 4.6335 2.41048 0
M  V30 3963 H 363.634 2.77292 1.12914 0
M  V30 3964 H 361.18 1.33421 0.541738 0
M  V30 3965 H 363.133 2.31324 3.52232 0
M  V30 3966 H 361.857 1.16304 3.0519 0
M  V30 3967 H 360.516 3.04276 2.04479 0
M  V30 3968 H 360.164 2.38098 4.43078 0
M  V30 3969 H 359.864 4.12033 4.18931 0
M  V30 3970 H 361.388 3.57803 4.94782 0
M  V30 3971 H 362.802 4.84602 3.06324 0
M  V30 3972 H 361.199 5.43782 2.53813 0
M  V30 3973 H 362.269 4.65381 1.36193 0
M  V30 3974 N 363.613 -0.582584 1.46437 0
M  V30 3975 C 364.543 -1.70187 1.59871 0
M  V30 3976 C 365.524 -1.64066 0.449042 0
M  V30 3977 O 366.709 -1.82081 0.6753 0
M  V30 3978 C 363.839 -3.08827 1.58881 0
M  V30 3979 C 362.793 -3.29779 2.72819 0
M  V30 3980 C 362.119 -4.68947 2.5689 0
M  V30 3981 C 363.419 -3.17601 4.1464 0
M  V30 3982 H 365.113 -1.592 2.53566 0
M  V30 3983 H 362.659 -0.764472 1.22032 0
M  V30 3984 H 364.612 -3.86951 1.66873 0
M  V30 3985 H 363.336 -3.20713 0.617306 0
M  V30 3986 H 361.995 -2.54054 2.64296 0
M  V30 3987 H 361.643 -4.77599 1.57823 0
M  V30 3988 H 361.343 -4.83919 3.33312 0
M  V30 3989 H 362.867 -5.4924 2.66773 0
M  V30 3990 H 364.281 -3.8557 4.24274 0
M  V30 3991 H 362.678 -3.44094 4.9165 0
M  V30 3992 H 363.748 -2.14681 4.34788 0
M  V30 3993 N 365.091 -1.34144 -0.827227 0
M  V30 3994 C 366.038 -1.25364 -1.93785 0
M  V30 3995 C 367.008 -0.129774 -1.65592 0
M  V30 3996 O 368.193 -0.310024 -1.88264 0
M  V30 3997 C 365.333 -1.01064 -3.2997 0
M  V30 3998 C 364.446 -2.22185 -3.70484 0
M  V30 3999 C 363.581 -1.91203 -4.95595 0
M  V30 4000 C 362.62 -3.08491 -5.28677 0
M  V30 4001 N 361.757 -2.77421 -6.44967 0
M  V30 4002 H 366.597 -2.20347 -2.00627 0
M  V30 4003 H 364.134 -1.09558 -0.981608 0
M  V30 4004 H 366.092 -0.850139 -4.08446 0
M  V30 4005 H 364.722 -0.0975026 -3.22653 0
M  V30 4006 H 363.774 -2.4917 -2.87434 0
M  V30 4007 H 365.086 -3.0983 -3.90905 0
M  V30 4008 H 364.24 -1.71864 -5.81848 0
M  V30 4009 H 362.979 -1.00812 -4.77167 0
M  V30 4010 H 361.984 -3.28431 -4.40923 0
M  V30 4011 H 363.209 -3.99655 -5.49047 0
M  V30 4012 H 361.155 -1.89601 -6.28003 0
M  V30 4013 H 361.072 -3.58598 -6.6554 0
M  V30 4014 H 362.34 -2.61577 -7.34301 0
M  V30 4015 N 366.569 1.04691 -1.17803 0
M  V30 4016 C 367.818 1.77176 -0.963931 0
M  V30 4017 C 368.131 1.88888 0.508015 0
M  V30 4018 O 369.337 2.58164 0.840465 0
M  V30 4019 C 367.793 3.18518 -1.67555 0
M  V30 4020 C 367.401 3.14919 -3.18637 0
M  V30 4021 C 369.145 3.95424 -1.54402 0
M  V30 4022 C 367.052 4.51081 -3.82466 0
M  V30 4023 H 365.982 0.664116 -0.357023 0
M  V30 4024 H 368.633 1.17303 -1.4111 0
M  V30 4025 H 367.015 3.78748 -1.15613 0
M  V30 4026 H 368.189 2.64178 -3.77554 0
M  V30 4027 H 366.504 2.51512 -3.31859 0
M  V30 4028 H 369.101 4.96106 -1.99456 0
M  V30 4029 H 369.444 4.13343 -0.495329 0
M  V30 4030 H 369.977 3.41754 -2.0359 0
M  V30 4031 H 366.716 4.38368 -4.87354 0
M  V30 4032 H 366.236 5.01951 -3.28337 0
M  V30 4033 H 367.915 5.2001 -3.84965 0
M  V30 4034 N 368.047 0.979072 1.23499 0
M  V30 4035 C 369.01 0.523244 2.23147 0
M  V30 4036 C 370.01 -0.386406 1.56088 0
M  V30 4037 O 371.2 -0.180283 1.73265 0
M  V30 4038 C 368.332 -0.240739 3.40049 0
M  V30 4039 H 369.525 1.40432 2.64989 0
M  V30 4040 H 367.078 0.764824 1.36309 0
M  V30 4041 H 367.813 -1.13841 3.03662 0
M  V30 4042 H 367.598 0.412207 3.89927 0
M  V30 4043 H 369.088 -0.548297 4.13985 0
M  V30 4044 N 369.525 -1.3858 0.750561 0
M  V30 4045 C 370.472 -2.30483 0.120835 0
M  V30 4046 C 371.442 -1.50022 -0.712923 0
M  V30 4047 O 372.627 -1.78662 -0.669676 0
M  V30 4048 C 369.767 -3.36431 -0.768666 0
M  V30 4049 C 368.88 -4.31927 0.0793922 0
M  V30 4050 C 368.015 -5.24944 -0.81283 0
M  V30 4051 C 367.054 -6.12088 0.0390447 0
M  V30 4052 N 366.191 -6.97412 -0.809969 0
M  V30 4053 H 371.031 -2.83761 0.91015 0
M  V30 4054 H 368.568 -1.39707 0.460463 0
M  V30 4055 H 370.526 -3.96462 -1.29898 0
M  V30 4056 H 369.156 -2.8457 -1.5238 0
M  V30 4057 H 368.208 -3.73382 0.727303 0
M  V30 4058 H 369.52 -4.93319 0.737401 0
M  V30 4059 H 368.674 -5.90078 -1.41042 0
M  V30 4060 H 367.413 -4.63911 -1.50458 0
M  V30 4061 H 366.418 -5.45952 0.649328 0
M  V30 4062 H 367.643 -6.75189 0.727809 0
M  V30 4063 H 365.589 -6.38931 -1.48672 0
M  V30 4064 H 365.506 -7.55712 -0.208789 0
M  V30 4065 H 366.774 -7.66959 -1.39263 0
M  V30 4066 N 371.003 -0.499398 -1.49478 0
M  V30 4067 C 372.228 0.044722 -2.07352 0
M  V30 4068 C 372.653 1.30207 -1.35749 0
M  V30 4069 O 372.011 1.76516 -0.413732 0
M  V30 4070 C 372.059 0.283013 -3.59488 0
M  V30 4071 O 371.163 1.35804 -3.89398 0
M  V30 4072 H 370.504 -0.0255147 -0.66351 0
M  V30 4073 H 373.034 -0.698561 -1.92305 0
M  V30 4074 H 373.044 0.515007 -4.04737 0
M  V30 4075 H 371.719 -0.635636 -4.11014 0
M  V30 4076 H 370.296 1.11113 -3.55961 0
M  V30 4077 N 372.481 1.55866 -0.233164 0
M  V30 4078 C 373.758 1.90471 0.444988 0
M  V30 4079 C 374.138 1.15209 1.7689 0
M  V30 4080 O 373.486 0.265119 2.26957 0
M  V30 4081 C 373.696 3.4333 0.626559 0
M  V30 4082 C 375.044 4.14319 0.92871 0
M  V30 4083 O 376.068 3.48993 0.712926 0
M  V30 4084 O 374.927 5.29846 1.33887 0
M  V30 4085 H 372.021 0.792347 0.236885 0
M  V30 4086 H 374.567 1.67437 -0.276211 0
M  V30 4087 H 373.339 3.90095 -0.306822 0
M  V30 4088 H 372.962 3.72181 1.39881 0
M  V30 4089 N 373.959 -0.0401083 1.57549 0
M  V30 4090 C 375.37 -0.588097 1.77196 0
M  V30 4091 C 375.721 -1.76209 0.862832 0
M  V30 4092 O 374.846 -2.16331 0.0548389 0
M  V30 4093 C 375.441 -1.07363 3.21339 0
M  V30 4094 C 374 -1.56723 3.42221 0
M  V30 4095 C 373.147 -0.50041 2.72747 0
M  V30 4096 H 376.098 0.186119 1.57605 0
M  V30 4097 H 376.119 -1.94143 3.27244 0
M  V30 4098 H 375.631 -0.218975 3.87482 0
M  V30 4099 H 373.732 -2.4441 2.81237 0
M  V30 4100 H 373.845 -1.62234 4.50796 0
M  V30 4101 H 372.209 -0.952894 2.36203 0
M  V30 4102 H 372.992 0.344599 3.41566 0
M  V30 4103 N 375.437 -1.54477 -0.31217 0
M  V30 4104 C 376.848 -1.64344 -0.885891 0
M  V30 4105 C 377.199 -0.54485 -1.88483 0
M  V30 4106 O 376.324 0.320387 -2.14015 0
M  V30 4107 C 376.919 -2.97908 -1.61357 0
M  V30 4108 C 375.478 -3.09933 -2.13585 0
M  V30 4109 C 374.625 -2.59971 -0.964897 0
M  V30 4110 H 377.576 -1.58448 -0.0894528 0
M  V30 4111 H 377.597 -2.88706 -2.47848 0
M  V30 4112 H 377.109 -3.77845 -0.886277 0
M  V30 4113 H 375.21 -2.34694 -2.89395 0
M  V30 4114 H 375.323 -4.15916 -2.37804 0
M  V30 4115 H 373.687 -2.16147 -1.34731 0
M  V30 4116 H 374.47 -3.42376 -0.251742 0
M  V30 4117 N 376.915 0.57481 -1.46744 0
M  V30 4118 C 378.143 1.35856 -1.56047 0
M  V30 4119 C 378.558 1.87691 -0.204365 0
M  V30 4120 O 377.915 1.64049 0.79963 0
M  V30 4121 C 377.966 2.54066 -2.57163 0
M  V30 4122 O 377.687 2.04377 -3.87507 0
M  V30 4123 C 379.188 3.46514 -2.76483 0
M  V30 4124 H 376.408 0.414754 -0.527466 0
M  V30 4125 H 378.952 0.698035 -1.92218 0
M  V30 4126 H 377.107 3.16092 -2.23974 0
M  V30 4127 H 377.521 2.81419 -4.4261 0
M  V30 4128 H 378.995 4.25919 -3.51137 0
M  V30 4129 H 379.472 3.98951 -1.83671 0
M  V30 4130 H 380.078 2.90318 -3.10799 0
M  V30 4131 N 378.394 1.34581 0.820102 0
M  V30 4132 C 379.324 1.29038 1.94606 0
M  V30 4133 C 380.305 0.1673 1.69275 0
M  V30 4134 O 381.49 0.360112 1.90832 0
M  V30 4135 C 378.62 1.04793 3.31113 0
M  V30 4136 C 377.574 2.13597 3.70891 0
M  V30 4137 C 376.9 1.74537 5.05412 0
M  V30 4138 C 378.2 3.55451 3.8269 0
M  V30 4139 H 379.894 2.23248 1.99501 0
M  V30 4140 H 377.44 1.0747 0.958449 0
M  V30 4141 H 379.393 0.995592 4.0947 0
M  V30 4142 H 378.117 0.0702565 3.26524 0
M  V30 4143 H 376.776 2.17905 2.9481 0
M  V30 4144 H 376.424 0.754226 4.97313 0
M  V30 4145 H 376.124 2.47361 5.32997 0
M  V30 4146 H 377.648 1.70803 5.86224 0
M  V30 4147 H 379.062 3.5354 4.51312 0
M  V30 4148 H 377.459 4.26922 4.21732 0
M  V30 4149 H 378.529 3.92587 2.84611 0
M  V30 4150 N 379.872 -1.04064 1.18357 0
M  V30 4151 C 380.802 -2.14001 0.934113 0
M  V30 4152 C 381.783 -1.69616 -0.128186 0
M  V30 4153 O 382.968 -1.94185 0.0244093 0
M  V30 4154 C 380.098 -3.44253 0.459066 0
M  V30 4155 C 379.052 -4.02261 1.46185 0
M  V30 4156 C 378.378 -5.27992 0.844322 0
M  V30 4157 C 379.678 -4.38432 2.83856 0
M  V30 4158 H 381.372 -2.35127 1.85352 0
M  V30 4159 H 378.918 -1.12998 0.892604 0
M  V30 4160 H 380.871 -4.20522 0.271907 0
M  V30 4161 H 379.595 -3.22813 -0.495912 0
M  V30 4162 H 378.254 -3.28074 1.63595 0
M  V30 4163 H 377.902 -5.02862 -0.117845 0
M  V30 4164 H 377.602 -5.67765 1.51384 0
M  V30 4165 H 379.126 -6.06938 0.667693 0
M  V30 4166 H 380.54 -5.05688 2.70098 0
M  V30 4167 H 378.937 -4.89254 3.47491 0
M  V30 4168 H 380.007 -3.4826 3.37406 0
M  V30 4169 N 381.35 -0.985608 -1.22978 0
M  V30 4170 C 382.578 -0.675582 -1.95559 0
M  V30 4171 C 382.993 0.758413 -1.72897 0
M  V30 4172 O 382.35 1.51094 -1.02357 0
M  V30 4173 C 382.401 -0.96293 -3.48439 0
M  V30 4174 O 382.122 -2.34057 -3.70336 0
M  V30 4175 C 383.623 -0.669585 -4.38214 0
M  V30 4176 H 380.843 -0.250523 -0.622478 0
M  V30 4177 H 383.387 -1.3184 -1.56328 0
M  V30 4178 H 381.542 -0.366033 -3.85667 0
M  V30 4179 H 381.956 -2.43424 -4.64591 0
M  V30 4180 H 383.43 -0.920967 -5.44263 0
M  V30 4181 H 383.907 0.396383 -4.37408 0
M  V30 4182 H 384.513 -1.2472 -4.06602 0
M  V30 4183 N 382.828 1.3818 -0.7579 0
M  V30 4184 C 384.239 1.82726 -0.383134 0
M  V30 4185 C 384.59 1.63214 1.08884 0
M  V30 4186 O 383.715 1.13566 1.84205 0
M  V30 4187 C 384.31 3.31728 -0.688631 0
M  V30 4188 C 382.869 3.74606 -0.367091 0
M  V30 4189 C 382.016 2.60896 -0.939599 0
M  V30 4190 H 384.967 1.26847 -0.953699 0
M  V30 4191 H 384.988 3.80487 0.0316492 0
M  V30 4192 H 384.5 3.45898 -1.76001 0
M  V30 4193 H 382.601 3.66013 0.697532 0
M  V30 4194 H 382.714 4.71215 -0.865658 0
M  V30 4195 H 381.078 2.52075 -0.3647 0
M  V30 4196 H 381.861 2.77864 -2.0161 0
M  V30 4197 N 384.306 0.507319 1.49211 0
M  V30 4198 C 385.531 -0.033725 2.07373 0
M  V30 4199 C 385.956 -1.29485 1.36437 0
M  V30 4200 O 385.314 -1.76294 0.423087 0
M  V30 4201 C 385.362 -0.263945 3.59633 0
M  V30 4202 O 384.466 -1.33737 3.90113 0
M  V30 4203 H 383.807 0.0290331 0.663365 0
M  V30 4204 H 386.337 0.708749 1.91932 0
M  V30 4205 H 386.347 -0.493536 4.05004 0
M  V30 4206 H 385.022 0.657424 4.10671 0
M  V30 4207 H 383.599 -1.09224 3.56545 0
M  V30 4208 N 385.784 -1.5574 0.241426 0
M  V30 4209 C 386.731 -2.21149 -0.660432 0
M  V30 4210 C 387.701 -1.17356 -1.17545 0
M  V30 4211 O 388.886 -1.45784 -1.23093 0
M  V30 4212 C 386.026 -2.91059 -1.85414 0
M  V30 4213 C 385.139 -4.09495 -1.37616 0
M  V30 4214 C 384.274 -4.67135 -2.529 0
M  V30 4215 C 383.313 -5.77831 -2.01936 0
M  V30 4216 N 382.45 -6.29677 -3.10566 0
M  V30 4217 H 387.29 -2.97845 -0.095955 0
M  V30 4218 H 384.827 -1.47057 -0.0356024 0
M  V30 4219 H 386.785 -3.29788 -2.5553 0
M  V30 4220 H 385.415 -2.16846 -2.39118 0
M  V30 4221 H 384.467 -3.76117 -0.569235 0
M  V30 4222 H 385.779 -4.89423 -0.962618 0
M  V30 4223 H 384.933 -5.08409 -3.31067 0
M  V30 4224 H 383.672 -3.86411 -2.97553 0
M  V30 4225 H 382.677 -5.36039 -1.22238 0
M  V30 4226 H 383.902 -6.60402 -1.58259 0
M  V30 4227 H 381.848 -5.5186 -3.54664 0
M  V30 4228 H 381.765 -7.04783 -2.73526 0
M  V30 4229 H 383.033 -6.75609 -3.88809 0
M  V30 4230 N 387.262 0.0317525 -1.57568 0
M  V30 4231 C 388.508 0.718712 -1.90279 0
M  V30 4232 C 388.863 1.73108 -0.839727 0
M  V30 4233 O 388.156 1.90997 0.15188 0
M  V30 4234 C 388.35 1.43167 -3.27472 0
M  V30 4235 C 388.179 0.489869 -4.47024 0
M  V30 4236 C 386.949 0.111909 -5.05176 0
M  V30 4237 C 389.147 -0.230592 -5.13783 0
M  V30 4238 N 387.129 -0.831427 -6.08244 0
M  V30 4239 C 388.5 -1.02968 -6.1139 0
M  V30 4240 C 390.555 -0.297821 -4.97008 0
M  V30 4241 C 389.258 -1.88982 -6.9403 0
M  V30 4242 C 391.284 -1.14507 -5.80209 0
M  V30 4243 C 390.646 -1.9321 -6.77384 0
M  V30 4244 H 386.745 0.237177 -0.745165 0
M  V30 4245 H 389.329 -0.0211267 -1.94689 0
M  V30 4246 H 387.5 2.14199 -3.23996 0
M  V30 4247 H 389.232 2.0708 -3.47707 0
M  V30 4248 H 385.987 0.473513 -4.71227 0
M  V30 4249 H 386.411 -1.29752 -6.6445 0
M  V30 4250 H 391.053 0.296346 -4.2176 0
M  V30 4251 H 388.771 -2.4948 -7.68626 0
M  V30 4252 H 392.357 -1.20059 -5.69278 0
M  V30 4253 H 391.237 -2.57711 -7.40645 0
M  V30 4254 N 388.74 1.54641 0.303973 0
M  V30 4255 C 389.965 1.78092 1.06292 0
M  V30 4256 C 390.39 0.537342 1.80262 0
M  V30 4257 O 389.748 -0.511993 1.7392 0
M  V30 4258 C 389.796 2.98612 2.02147 0
M  V30 4259 O 388.9 2.71528 3.10397 0
M  V30 4260 H 388.241 0.589548 0.305497 0
M  V30 4261 H 390.771 2.01716 0.3423 0
M  V30 4262 H 390.781 3.265 2.44667 0
M  V30 4263 H 389.456 3.88785 1.47714 0
M  V30 4264 H 388.033 2.54648 2.72413 0
M  V30 4265 N 390.218 -0.567019 1.47046 0
M  V30 4266 C 391.464 -1.32658 1.53394 0
M  V30 4267 C 391.797 -1.93254 0.19148 0
M  V30 4268 O 391.072 -1.77338 -0.798844 0
M  V30 4269 C 391.355 -2.44412 2.64452 0
M  V30 4270 C 391.208 -1.88749 4.08282 0
M  V30 4271 C 392.527 -3.46387 2.71485 0
M  V30 4272 H 389.646 -0.48098 0.558415 0
M  V30 4273 H 392.288 -0.635481 1.79058 0
M  V30 4274 H 390.438 -3.03363 2.427 0
M  V30 4275 H 392.11 -1.34134 4.41368 0
M  V30 4276 H 390.353 -1.19481 4.17021 0
M  V30 4277 H 391.024 -2.69491 4.81745 0
M  V30 4278 H 393.5 -2.9734 2.91081 0
M  V30 4279 H 392.376 -4.2202 3.50985 0
M  V30 4280 H 392.637 -4.04616 1.78153 0
M  V30 4281 N 391.696 -1.35014 -0.812953 0
M  V30 4282 C 392.606 -1.2951 -1.95613 0
M  V30 4283 C 393.622 -0.20107 -1.72834 0
M  V30 4284 O 394.798 -0.42932 -1.96771 0
M  V30 4285 C 391.863 -1.06033 -3.30088 0
M  V30 4286 C 390.924 -2.24688 -3.65805 0
M  V30 4287 C 390.157 -2.02322 -4.93864 0
M  V30 4288 O 390.38 -0.986464 -5.61805 0
M  V30 4289 O 389.314 -2.89525 -5.27692 0
M  V30 4290 H 393.14 -2.25705 -2.03202 0
M  V30 4291 H 390.725 -1.15321 -0.949811 0
M  V30 4292 H 392.607 -0.94763 -4.10607 0
M  V30 4293 H 391.282 -0.128852 -3.23443 0
M  V30 4294 H 390.189 -2.41521 -2.85689 0
M  V30 4295 H 391.522 -3.16261 -3.77147 0
M  V30 4296 N 393.175 1.03435 -1.18907 0
M  V30 4297 C 394.422 1.76743 -0.988334 0
M  V30 4298 C 394.75 1.88447 0.481441 0
M  V30 4299 O 394.005 1.39383 1.37371 0
M  V30 4300 C 394.304 3.19792 -1.59586 0
M  V30 4301 C 393.97 3.28108 -3.09283 0
M  V30 4302 C 392.632 3.30084 -3.5014 0
M  V30 4303 C 394.984 3.27696 -4.05296 0
M  V30 4304 C 392.312 3.29299 -4.85571 0
M  V30 4305 C 394.664 3.28451 -5.4065 0
M  V30 4306 C 393.328 3.28723 -5.80946 0
M  V30 4307 H 392.598 0.64675 -0.361657 0
M  V30 4308 H 395.245 1.21442 -1.48068 0
M  V30 4309 H 393.55 3.78136 -1.02568 0
M  V30 4310 H 395.247 3.75171 -1.41589 0
M  V30 4311 H 391.837 3.27294 -2.76725 0
M  V30 4312 H 396.021 3.25354 -3.74778 0
M  V30 4313 H 391.277 3.2783 -5.16079 0
M  V30 4314 H 395.451 3.27082 -6.14809 0
M  V30 4315 H 393.078 3.27868 -6.85862 0
M  V30 4316 N 394.653 0.992116 1.22453 0
M  V30 4317 C 396.069 0.702713 1.43297 0
M  V30 4318 C 396.269 -0.726909 1.87932 0
M  V30 4319 O 395.325 -1.49792 2.0327 0
M  V30 4320 C 396.638 1.70762 2.47509 0
M  V30 4321 C 398.186 1.72298 2.61309 0
M  V30 4322 C 398.661 2.71649 3.68742 0
M  V30 4323 N 400.152 2.70239 3.76199 0
M  V30 4324 C 400.887 3.43778 4.58917 0
M  V30 4325 N 400.383 4.26914 5.45633 0
M  V30 4326 N 402.176 3.32487 4.5322 0
M  V30 4327 H 394.327 1.91543 0.917871 0
M  V30 4328 H 396.59 0.826031 0.465162 0
M  V30 4329 H 396.296 2.73059 2.21657 0
M  V30 4330 H 396.17 1.49985 3.46099 0
M  V30 4331 H 398.557 0.706989 2.86506 0
M  V30 4332 H 398.638 1.97143 1.62997 0
M  V30 4333 H 398.282 3.73397 3.44292 0
M  V30 4334 H 398.212 2.44074 4.66622 0
M  V30 4335 H 400.703 2.09912 3.14237 0
M  V30 4336 H 401.016 4.79855 6.05771 0
M  V30 4337 H 399.361 4.31002 5.45218 0
M  V30 4338 H 402.552 2.6698 3.84499 0
M  V30 4339 H 402.725 3.90058 5.17454 0
M  V30 4340 N 396.131 -1.37776 0.765217 0
M  V30 4341 C 397.408 -1.93975 0.251596 0
M  V30 4342 C 397.788 -1.69949 -1.25222 0
M  V30 4343 O 397.136 -1.04457 -2.03226 0
M  V30 4344 C 397.346 -3.43487 0.617895 0
M  V30 4345 C 398.694 -4.20564 0.584029 0
M  V30 4346 O 399.718 -3.5182 0.556888 0
M  V30 4347 O 398.577 -5.43138 0.605291 0
M  V30 4348 H 395.671 -0.82509 0.0561806 0
M  V30 4349 H 398.217 -1.47101 0.846128 0
M  V30 4350 H 396.989 -3.5453 1.65602 0
M  V30 4351 H 396.612 -3.976 -0.00403411 0
M  V30 4352 N 397.609 -0.515225 -1.4894 0
M  V30 4353 C 398.856 0.024215 -2.02486 0
M  V30 4354 C 399.184 1.35671 -1.39368 0
M  V30 4355 O 398.439 1.88566 -0.523574 0
M  V30 4356 C 398.738 0.210595 -3.56779 0
M  V30 4357 C 398.404 -1.04569 -4.38607 0
M  V30 4358 C 397.066 -1.39002 -4.60686 0
M  V30 4359 C 399.418 -1.88008 -4.86109 0
M  V30 4360 C 396.746 -2.568 -5.27514 0
M  V30 4361 C 399.098 -3.04972 -5.54234 0
M  V30 4362 C 397.762 -3.39768 -5.74555 0
M  V30 4363 H 397.032 0.00886088 -0.740947 0
M  V30 4364 H 399.679 -0.678263 -1.79086 0
M  V30 4365 H 397.984 0.99572 -3.78936 0
M  V30 4366 H 399.681 0.642659 -3.95817 0
M  V30 4367 H 396.271 -0.767497 -4.21672 0
M  V30 4368 H 400.455 -1.62719 -4.68867 0
M  V30 4369 H 395.711 -2.8398 -5.41447 0
M  V30 4370 H 399.885 -3.69943 -5.90013 0
M  V30 4371 H 397.512 -4.31148 -6.26112 0
M  V30 4372 N 399.087 1.5561 -0.249682 0
M  V30 4373 C 400.017 2.24477 0.642826 0
M  V30 4374 C 400.998 1.22601 1.17911 0
M  V30 4375 O 402.183 1.5126 1.21795 0
M  V30 4376 C 399.313 2.94638 1.83863 0
M  V30 4377 C 398.267 4.03227 1.435 0
M  V30 4378 C 397.593 4.60828 2.71186 0
M  V30 4379 C 398.893 5.18796 0.604002 0
M  V30 4380 H 400.587 2.99321 0.0685625 0
M  V30 4381 H 398.133 1.43965 0.0315363 0
M  V30 4382 H 400.086 3.41517 2.46868 0
M  V30 4383 H 398.81 2.17287 2.43832 0
M  V30 4384 H 397.469 3.57121 0.828275 0
M  V30 4385 H 397.117 3.80174 3.29358 0
M  V30 4386 H 396.817 5.34132 2.44901 0
M  V30 4387 H 398.341 5.10442 3.35084 0
M  V30 4388 H 399.755 5.61883 1.13842 0
M  V30 4389 H 398.152 5.98506 0.437097 0
M  V30 4390 H 399.222 4.83384 -0.383147 0
M  V30 4391 N 400.565 -0.0233959 1.57583 0
M  V30 4392 C 401.512 -1.02224 2.06927 0
M  V30 4393 C 402.482 -1.35575 0.959617 0
M  V30 4394 O 403.667 -1.45815 1.23055 0
M  V30 4395 C 400.807 -2.31636 2.5581 0
M  V30 4396 C 399.92 -2.04394 3.80588 0
M  V30 4397 C 399.055 -3.27717 4.18061 0
M  V30 4398 C 398.094 -2.96056 5.3574 0
M  V30 4399 N 397.231 -4.11847 5.68618 0
M  V30 4400 H 402.071 -0.594504 2.9201 0
M  V30 4401 H 399.608 -0.281921 1.44373 0
M  V30 4402 H 401.566 -3.07258 2.82221 0
M  V30 4403 H 400.196 -2.72122 1.73636 0
M  V30 4404 H 399.248 -1.19244 3.61227 0
M  V30 4405 H 400.56 -1.77042 4.66323 0
M  V30 4406 H 399.714 -4.11702 4.4563 0
M  V30 4407 H 398.453 -3.58188 3.30988 0
M  V30 4408 H 397.458 -2.10474 5.07918 0
M  V30 4409 H 398.683 -2.66857 6.24471 0
M  V30 4410 H 396.629 -4.42258 4.84504 0
M  V30 4411 H 396.546 -3.87938 6.48876 0
M  V30 4412 H 397.814 -4.96689 6.00766 0
M  V30 4413 N 402.043 -1.548 -0.295768 0
M  V30 4414 C 403.292 -1.73538 -1.02798 0
M  V30 4415 C 403.605 -0.531159 -1.8825 0
M  V30 4416 O 404.811 -0.600458 -2.64777 0
M  V30 4417 C 403.267 -3.07051 -1.87744 0
M  V30 4418 C 402.875 -4.34968 -1.07269 0
M  V30 4419 C 404.619 -3.35146 -2.60533 0
M  V30 4420 C 402.526 -5.5953 -1.91521 0
M  V30 4421 H 401.456 -0.646794 -0.387522 0
M  V30 4422 H 404.107 -1.81278 -0.284718 0
M  V30 4423 H 402.489 -2.93289 -2.66078 0
M  V30 4424 H 403.663 -4.5958 -0.335117 0
M  V30 4425 H 401.978 -4.13847 -0.460384 0
M  V30 4426 H 404.575 -4.2541 -3.23929 0
M  V30 4427 H 404.918 -2.54255 -3.29636 0
M  V30 4428 H 405.451 -3.49902 -1.89244 0
M  V30 4429 H 402.19 -6.43103 -1.26878 0
M  V30 4430 H 401.71 -5.39096 -2.62937 0
M  V30 4431 H 403.389 -5.96982 -2.49442 0
M  V30 4432 N 403.521 0.559213 -1.47345 0
M  V30 4433 C 404.484 1.64854 -1.59235 0
M  V30 4434 C 405.484 1.53851 -0.467607 0
M  V30 4435 O 406.674 1.58045 -0.732617 0
M  V30 4436 C 403.806 3.04388 -1.53496 0
M  V30 4437 H 404.999 1.55662 -2.56339 0
M  V30 4438 H 402.552 0.778973 -1.35505 0
M  V30 4439 H 403.287 3.19115 -0.577604 0
M  V30 4440 H 403.072 3.13783 -2.35123 0
M  V30 4441 H 404.562 3.83642 -1.6495 0
M  V30 4442 N 404.999 1.35443 0.805782 0
M  V30 4443 C 405.929 1.31095 1.93226 0
M  V30 4444 C 406.91 0.185244 1.69088 0
M  V30 4445 O 408.095 0.380332 1.90439 0
M  V30 4446 C 405.225 1.08299 3.29983 0
M  V30 4447 C 404.179 2.17519 3.68605 0
M  V30 4448 C 403.505 1.79887 5.03532 0
M  V30 4449 C 404.805 3.5949 3.78898 0
M  V30 4450 H 406.499 2.25352 1.97122 0
M  V30 4451 H 404.045 1.0848 0.946996 0
M  V30 4452 H 405.998 1.03897 4.08391 0
M  V30 4453 H 404.722 0.104885 3.26432 0
M  V30 4454 H 403.381 2.2102 2.92482 0
M  V30 4455 H 403.029 0.80693 4.96485 0
M  V30 4456 H 402.729 2.53001 5.30344 0
M  V30 4457 H 404.253 1.77011 5.84379 0
M  V30 4458 H 405.667 3.58307 4.47536 0
M  V30 4459 H 404.064 4.31371 4.1718 0
M  V30 4460 H 405.134 3.95584 2.80431 0
M  V30 4461 N 406.477 -1.02803 1.19454 0
M  V30 4462 C 407.754 -1.73299 0.907013 0
M  V30 4463 C 408.134 -2.02772 -0.587086 0
M  V30 4464 O 407.482 -1.68304 -1.54551 0
M  V30 4465 C 407.692 -3.00912 1.76785 0
M  V30 4466 C 409.04 -3.74403 2.00268 0
M  V30 4467 O 410.064 -3.10841 1.73943 0
M  V30 4468 O 408.923 -4.88675 2.4466 0
M  V30 4469 H 406.017 -0.754727 0.338106 0
M  V30 4470 H 408.563 -1.08754 1.30271 0
M  V30 4471 H 407.335 -2.75366 2.7801 0
M  V30 4472 H 406.958 -3.73197 1.37149 0
M  V30 4473 N 407.956 -0.998596 -1.21925 0
M  V30 4474 C 408.903 -0.553621 -2.24062 0
M  V30 4475 C 409.873 0.416999 -1.6078 0
M  V30 4476 O 411.058 0.320482 -1.88089 0
M  V30 4477 C 408.198 0.119959 -3.44891 0
M  V30 4478 C 407.311 -0.893077 -4.22668 0
M  V30 4479 C 406.446 -0.192424 -5.30851 0
M  V30 4480 C 405.485 -1.19344 -6.00353 0
M  V30 4481 N 404.622 -0.520707 -7.00166 0
M  V30 4482 H 409.462 -1.4293 -2.61486 0
M  V30 4483 H 406.999 -0.715838 -1.28507 0
M  V30 4484 H 408.957 0.527459 -4.13852 0
M  V30 4485 H 407.587 0.959389 -3.08214 0
M  V30 4486 H 406.639 -1.41886 -3.52948 0
M  V30 4487 H 407.951 -1.65512 -4.70539 0
M  V30 4488 H 407.105 0.271515 -6.06092 0
M  V30 4489 H 405.844 0.602075 -4.83969 0
M  V30 4490 H 404.849 -1.66795 -5.23889 0
M  V30 4491 H 406.074 -1.98891 -6.49322 0
M  V30 4492 H 404.02 0.254252 -6.55507 0
M  V30 4493 H 403.937 -1.2211 -7.46073 0
M  V30 4494 H 405.205 -0.0797596 -7.79459 0
M  V30 4495 N 409.434 1.37368 -0.772513 0
M  V30 4496 C 410.382 2.32134 -0.147111 0
M  V30 4497 C 411.376 1.54972 0.684106 0
M  V30 4498 O 412.582 1.70363 0.581083 0
M  V30 4499 H 408.957 0.751449 -0.028786 0
M  V30 4500 H 410.928 2.82464 -0.962112 0
M  V30 4501 C 409.677 3.40226 0.71703 0
M  V30 4502 H 409 3.99706 0.0867951 0
M  V30 4503 H 410.44 4.08897 1.12159 0
M  V30 4504 C 408.899 2.80372 1.86797 0
M  V30 4505 O 409.429 2.71183 2.96349 0
M  V30 4506 N 407.635 2.37904 1.66883 0
M  V30 4507 H 407.182 2.45578 0.777759 0
M  V30 4508 H 407.14 1.98202 2.44056 0
M  V30 4509 N 410.912 0.523116 1.48665 0
M  V30 4510 C 412.323 0.0808997 1.86525 0
M  V30 4511 C 412.674 -1.33975 1.43336 0
M  V30 4512 O 411.799 -2.00221 0.821009 0
M  V30 4513 C 412.394 0.140037 3.3851 0
M  V30 4514 C 410.953 -0.246948 3.75589 0
M  V30 4515 C 410.1 0.502845 2.72703 0
M  V30 4516 H 413.051 0.734736 1.40667 0
M  V30 4517 H 413.072 -0.649945 3.74908 0
M  V30 4518 H 412.584 1.17412 3.69914 0
M  V30 4519 H 410.685 -1.28343 3.49798 0
M  V30 4520 H 410.798 0.0878859 4.79019 0
M  V30 4521 H 409.162 -0.0500581 2.54651 0
M  V30 4522 H 409.945 1.53743 3.0695 0
M  V30 4523 N 412.39 -1.55475 0.257931 0
M  V30 4524 C 413.3 -2.2549 -0.647425 0
M  V30 4525 C 414.316 -1.2748 -1.18427 0
M  V30 4526 O 415.492 -1.6038 -1.2182 0
M  V30 4527 C 412.557 -2.94916 -1.82278 0
M  V30 4528 C 411.618 -4.08363 -1.32432 0
M  V30 4529 C 410.851 -4.74469 -2.44366 0
M  V30 4530 O 411.074 -4.39701 -3.63344 0
M  V30 4531 O 410.008 -5.62763 -2.13497 0
M  V30 4532 H 413.834 -3.03593 -0.0807707 0
M  V30 4533 H 411.419 -1.49377 0.0259962 0
M  V30 4534 H 413.301 -3.38606 -2.50846 0
M  V30 4535 H 411.976 -2.19744 -2.37685 0
M  V30 4536 H 410.883 -3.69166 -0.605605 0
M  V30 4537 H 412.216 -4.85385 -0.816211 0
M  V30 4538 N 413.868 0.0150385 -1.57593 0
M  V30 4539 C 415.096 0.714395 -1.94175 0
M  V30 4540 C 415.511 1.68135 -0.858841 0
M  V30 4541 O 414.868 1.81766 0.163567 0
M  V30 4542 C 414.919 1.45933 -3.30735 0
M  V30 4543 O 414.64 0.531167 -4.34868 0
M  V30 4544 C 416.141 2.25456 -3.81686 0
M  V30 4545 H 413.361 0.199923 -0.640525 0
M  V30 4546 H 415.905 -0.0316096 -2.04476 0
M  V30 4547 H 414.06 2.15709 -3.21789 0
M  V30 4548 H 414.474 1.05509 -5.13778 0
M  V30 4549 H 415.948 2.731 -4.79709 0
M  V30 4550 H 416.425 3.07485 -3.13607 0
M  V30 4551 H 417.031 1.60727 -3.9376 0
M  V30 4552 N 415.346 1.54954 0.287554 0
M  V30 4553 C 416.762 1.46469 0.633964 0
M  V30 4554 C 416.962 0.666865 1.90145 0
M  V30 4555 O 416.018 0.179906 2.51858 0
M  V30 4556 C 417.331 2.90556 0.774454 0
M  V30 4557 C 418.879 3.00681 0.869462 0
M  V30 4558 C 419.354 4.45993 1.04184 0
M  V30 4559 N 420.845 4.4976 1.10772 0
M  V30 4560 C 421.58 5.59393 1.25964 0
M  V30 4561 N 421.076 6.78923 1.37968 0
M  V30 4562 N 422.869 5.47107 1.28959 0
M  V30 4563 H 415.02 2.05288 -0.545041 0
M  V30 4564 H 417.283 0.930305 -0.182308 0
M  V30 4565 H 416.989 3.51594 -0.086207 0
M  V30 4566 H 416.863 3.38743 1.6593 0
M  V30 4567 H 419.25 2.39749 1.7206 0
M  V30 4568 H 419.331 2.55769 -0.0396831 0
M  V30 4569 H 418.975 5.07524 0.195422 0
M  V30 4570 H 418.905 4.88548 1.96542 0
M  V30 4571 H 421.396 3.63651 1.02794 0
M  V30 4572 H 421.709 7.58231 1.49353 0
M  V30 4573 H 420.054 6.81763 1.34999 0
M  V30 4574 H 423.245 4.52668 1.19202 0
M  V30 4575 H 423.418 6.32595 1.40455 0
M  V30 4576 N 416.824 -0.551391 1.4764 0
M  V30 4577 C 418.235 -1.13349 1.48354 0
M  V30 4578 C 418.586 -1.94709 0.241432 0
M  V30 4579 O 417.711 -2.06306 -0.653205 0
M  V30 4580 C 418.306 -2.0623 2.68802 0
M  V30 4581 C 416.865 -2.597 2.72457 0
M  V30 4582 C 416.012 -1.36201 2.41546 0
M  V30 4583 H 418.963 -0.337698 1.55065 0
M  V30 4584 H 418.984 -2.90196 2.46103 0
M  V30 4585 H 418.496 -1.46987 3.59188 0
M  V30 4586 H 416.597 -3.22724 1.86225 0
M  V30 4587 H 416.71 -3.00296 3.73308 0
M  V30 4588 H 415.074 -1.67068 1.9225 0
M  V30 4589 H 415.857 -0.787425 3.34147 0
M  V30 4590 N 418.302 -1.35869 -0.798587 0
M  V30 4591 C 419.527 -1.32883 -1.59238 0
M  V30 4592 C 419.952 0.0894587 -1.87887 0
M  V30 4593 O 419.31 1.05869 -1.47178 0
M  V30 4594 C 419.358 -2.14892 -2.89575 0
M  V30 4595 O 418.462 -1.53512 -3.82763 0
M  V30 4596 H 417.803 -0.455236 -0.48338 0
M  V30 4597 H 420.333 -1.79024 -0.990539 0
M  V30 4598 H 420.343 -2.27139 -3.38928 0
M  V30 4599 H 419.018 -3.17998 -2.68049 0
M  V30 4600 H 417.595 -1.50153 -3.41334 0
M  V30 4601 N 419.78 1.02168 -1.19998 0
M  V30 4602 C 420.743 2.08765 -0.94604 0
M  V30 4603 C 421.743 1.60618 0.0763846 0
M  V30 4604 O 422.933 1.73472 -0.159135 0
M  V30 4605 C 420.065 3.38262 -0.423255 0
M  V30 4606 H 421.258 2.32726 -1.89153 0
M  V30 4607 H 418.811 1.1889 -1.01464 0
M  V30 4608 H 419.546 3.19974 0.527938 0
M  V30 4609 H 419.331 3.74532 -1.16053 0
M  V30 4610 H 420.821 4.16759 -0.264911 0
M  V30 4611 N 421.258 1.00505 1.21394 0
M  V30 4612 C 422.221 0.570459 2.21987 0
M  V30 4613 C 423.221 -0.353211 1.56873 0
M  V30 4614 O 424.411 -0.14349 1.73608 0
M  V30 4615 C 421.543 -0.168555 3.40483 0
M  V30 4616 H 422.736 1.46021 2.6195 0
M  V30 4617 H 420.289 0.793565 1.34656 0
M  V30 4618 H 421.024 -1.07374 3.06009 0
M  V30 4619 H 420.809 0.494823 3.88965 0
M  V30 4620 H 422.299 -0.460362 4.15055 0
M  V30 4621 N 422.737 -1.36956 0.779787 0
M  V30 4622 C 423.669 -2.28833 0.129639 0
M  V30 4623 C 424.682 -1.4902 -0.655511 0
M  V30 4624 O 425.871 -1.71578 -0.492279 0
M  V30 4625 C 422.971 -3.2833 -0.839792 0
M  V30 4626 C 422.144 -4.3727 -0.10675 0
M  V30 4627 C 421.203 -5.16789 -0.990717 0
M  V30 4628 O 420.229 -5.67406 -0.451516 0
M  V30 4629 N 421.431 -5.32294 -2.3161 0
M  V30 4630 H 424.196 -2.85268 0.918803 0
M  V30 4631 H 421.757 -1.49019 0.632841 0
M  V30 4632 H 423.749 -3.78413 -1.43477 0
M  V30 4633 H 422.319 -2.72605 -1.52988 0
M  V30 4634 H 421.539 -3.88478 0.669216 0
M  V30 4635 H 422.827 -5.07229 0.399464 0
M  V30 4636 H 422.225 -4.92768 -2.77843 0
M  V30 4637 H 420.782 -5.85656 -2.86095 0
M  V30 4638 N 424.215 -0.530993 -1.48385 0
M  V30 4639 C 425.145 0.219985 -2.32461 0
M  V30 4640 C 426.126 0.934111 -1.42156 0
M  V30 4641 O 427.311 0.919694 -1.71042 0
M  V30 4642 C 424.441 1.26674 -3.23375 0
M  V30 4643 C 423.395 0.67069 -4.22712 0
M  V30 4644 C 422.721 1.82017 -5.02766 0
M  V30 4645 C 424.021 -0.358268 -5.2107 0
M  V30 4646 H 425.715 -0.48187 -2.95497 0
M  V30 4647 H 423.261 -0.233182 -1.42099 0
M  V30 4648 H 425.214 1.80006 -3.81019 0
M  V30 4649 H 423.938 1.99818 -2.58341 0
M  V30 4650 H 422.597 0.158878 -3.66256 0
M  V30 4651 H 422.245 2.54002 -4.34157 0
M  V30 4652 H 421.945 1.42727 -5.70003 0
M  V30 4653 H 423.469 2.35725 -5.63264 0
M  V30 4654 H 424.883 0.0880081 -5.73232 0
M  V30 4655 H 423.28 -0.66861 -5.96364 0
M  V30 4656 H 424.35 -1.26367 -4.68145 0
M  V30 4657 N 425.693 1.55336 -0.266172 0
M  V30 4658 C 426.623 2.25146 0.618981 0
M  V30 4659 C 427.604 1.23845 1.16604 0
M  V30 4660 O 428.789 1.52544 1.20183 0
M  V30 4661 C 425.919 2.96572 1.80728 0
M  V30 4662 C 424.873 4.04726 1.39215 0
M  V30 4663 C 424.199 4.63678 2.66283 0
M  V30 4664 C 425.499 5.19407 0.548942 0
M  V30 4665 H 427.193 2.99377 0.0368116 0
M  V30 4666 H 424.739 1.43991 0.0162651 0
M  V30 4667 H 426.692 3.44116 2.43232 0
M  V30 4668 H 425.416 2.19861 2.41514 0
M  V30 4669 H 424.075 3.57979 0.790351 0
M  V30 4670 H 423.723 3.83646 3.25308 0
M  V30 4671 H 423.423 5.367 2.39222 0
M  V30 4672 H 424.947 5.13967 3.29651 0
M  V30 4673 H 426.361 5.63059 1.07876 0
M  V30 4674 H 424.758 5.98936 0.373593 0
M  V30 4675 H 425.828 4.8295 -0.434394 0
M  V30 4676 N 427.171 -0.0066808 1.57599 0
M  V30 4677 C 428.081 -1.01671 2.11424 0
M  V30 4678 C 429.097 -1.38143 1.05795 0
M  V30 4679 O 430.273 -1.47011 1.37658 0
M  V30 4680 C 427.338 -2.29192 2.60139 0
M  V30 4681 C 426.399 -1.99094 3.80342 0
M  V30 4682 C 425.632 -3.20535 4.26724 0
M  V30 4683 O 425.855 -4.3199 3.72479 0
M  V30 4684 O 424.789 -3.04924 5.18946 0
M  V30 4685 H 428.615 -0.589181 2.9793 0
M  V30 4686 H 426.2 -0.225091 1.47695 0
M  V30 4687 H 428.082 -3.0412 2.917 0
M  V30 4688 H 426.757 -2.71195 1.76733 0
M  V30 4689 H 425.664 -1.21663 3.53764 0
M  V30 4690 H 426.997 -1.61931 4.648 0
M  V30 4691 N 428.649 -1.55105 -0.279332 0
M  V30 4692 C 429.599 -1.83937 -1.34727 0
M  V30 4693 C 430.583 -0.69785 -1.44979 0
M  V30 4694 O 431.775 -0.95904 -1.48766 0
M  V30 4695 C 428.904 -2.1092 -2.70864 0
M  V30 4696 C 427.99 -3.31314 -2.64748 0
M  V30 4697 N 428.381 -4.51371 -2.2825 0
M  V30 4698 C 426.679 -3.33777 -2.95819 0
M  V30 4699 C 427.38 -5.33447 -2.31969 0
M  V30 4700 N 426.356 -4.71697 -2.7019 0
M  V30 4701 H 430.158 -2.74309 -1.05506 0
M  V30 4702 H 427.672 -1.54896 -0.487959 0
M  V30 4703 H 429.669 -2.2973 -3.47893 0
M  V30 4704 H 428.329 -1.21828 -3.00979 0
M  V30 4705 H 429.34 -4.77584 -2.00335 0
M  V30 4706 H 426.017 -2.54858 -3.30687 0
M  V30 4707 H 427.407 -6.39424 -2.06365 0
M  V30 4708 N 430.127 0.543554 -1.4793 0
M  V30 4709 C 431.538 1.12561 -1.48953 0
M  V30 4710 C 431.889 1.94578 -0.251754 0
M  V30 4711 O 431.014 2.0665 0.642255 0
M  V30 4712 C 431.609 2.04801 -2.69892 0
M  V30 4713 C 430.168 2.58251 -2.73831 0
M  V30 4714 C 429.315 1.34918 -2.42265 0
M  V30 4715 H 432.266 0.32947 -1.55242 0
M  V30 4716 H 432.287 2.88886 -2.47639 0
M  V30 4717 H 431.799 1.4508 -3.59963 0
M  V30 4718 H 429.9 3.21732 -1.87934 0
M  V30 4719 H 430.013 2.98312 -3.74895 0
M  V30 4720 H 428.377 1.66046 -1.93134 0
M  V30 4721 H 429.16 0.769693 -3.3456 0
M  V30 4722 N 431.605 1.3629 0.791371 0
M  V30 4723 C 432.852 1.30412 1.54916 0
M  V30 4724 C 433.18 -0.117162 1.94147 0
M  V30 4725 O 432.435 -1.08599 1.62803 0
M  V30 4726 C 432.734 2.17068 2.8393 0
M  V30 4727 C 432.4 3.65645 2.63846 0
M  V30 4728 C 431.062 4.0614 2.58077 0
M  V30 4729 C 433.414 4.59855 2.45322 0
M  V30 4730 C 430.742 5.3899 2.31748 0
M  V30 4731 C 433.094 5.9292 2.2052 0
M  V30 4732 C 431.758 6.32542 2.13183 0
M  V30 4733 H 431.028 0.47721 0.566879 0
M  V30 4734 H 433.675 1.68325 0.913172 0
M  V30 4735 H 431.98 1.72085 3.51986 0
M  V30 4736 H 433.677 2.09846 3.4171 0
M  V30 4737 H 430.267 3.33518 2.69191 0
M  V30 4738 H 434.451 4.29443 2.48782 0
M  V30 4739 H 429.707 5.68672 2.24548 0
M  V30 4740 H 433.881 6.65487 2.05182 0
M  V30 4741 H 431.508 7.35412 1.92544 0
M  V30 4742 N 433.083 -1.0153 1.20538 0
M  V30 4743 C 434.329 -1.75408 1.01783 0
M  V30 4744 C 434.662 -1.88943 -0.448814 0
M  V30 4745 O 433.937 -1.4162 -1.33319 0
M  V30 4746 C 434.22 -3.17255 1.70356 0
M  V30 4747 C 434.073 -3.11508 3.24473 0
M  V30 4748 C 435.392 -4.15955 1.43769 0
M  V30 4749 H 432.511 -0.636713 0.371167 0
M  V30 4750 H 435.153 -1.18436 1.4857 0
M  V30 4751 H 433.303 -3.65898 1.30578 0
M  V30 4752 H 434.975 -2.70658 3.73553 0
M  V30 4753 H 433.218 -2.4887 3.55311 0
M  V30 4754 H 433.889 -4.11784 3.67611 0
M  V30 4755 H 436.365 -3.75973 1.7828 0
M  V30 4756 H 435.241 -5.13368 1.94279 0
M  V30 4757 H 435.502 -4.40586 0.365564 0
M  V30 4758 N 434.561 -1.01147 -1.20859 0
M  V30 4759 C 435.786 -0.716698 -1.94623 0
M  V30 4760 C 436.211 0.715415 -1.73964 0
M  V30 4761 O 435.569 1.49157 -1.03062 0
M  V30 4762 C 435.617 -1.0513 -3.44935 0
M  V30 4763 O 434.721 -0.160131 -4.12089 0
M  V30 4764 H 434.062 -0.266404 -0.608214 0
M  V30 4765 H 436.592 -1.35346 -1.53436 0
M  V30 4766 H 436.602 -1.00086 -3.95533 0
M  V30 4767 H 435.277 -2.09475 -3.59295 0
M  V30 4768 H 433.854 -0.267657 -3.71938 0
M  V30 4769 N 436.039 1.36541 -0.78704 0
M  V30 4770 C 437.264 2.0409 -0.369053 0
M  V30 4771 C 437.689 1.58957 1.00569 0
M  V30 4772 O 437.047 0.756926 1.64743 0
M  V30 4773 C 437.095 3.57924 -0.438466 0
M  V30 4774 O 436.199 4.08642 0.555479 0
M  V30 4775 H 435.54 0.645142 -0.157122 0
M  V30 4776 H 438.07 1.74545 -1.06749 0
M  V30 4777 H 438.08 4.06887 -0.301218 0
M  V30 4778 H 436.755 3.90127 -1.44132 0
M  V30 4779 H 435.332 3.70958 0.380088 0
M  V30 4780 N 437.518 0.538854 1.48102 0
M  V30 4781 C 438.767 0.0059532 2.01699 0
M  V30 4782 C 439.08 -1.34476 1.42041 0
M  V30 4783 O 440.286 -1.96653 1.87189 0
M  V30 4784 C 438.742 -0.0397627 3.59878 0
M  V30 4785 C 438.35 1.30659 4.28523 0
M  V30 4786 C 440.094 -0.521024 4.2129 0
M  V30 4787 C 438.001 1.22098 5.78659 0
M  V30 4788 H 436.931 -0.00154456 0.753998 0
M  V30 4789 H 439.582 0.683963 1.70277 0
M  V30 4790 H 437.964 -0.783037 3.88181 0
M  V30 4791 H 439.138 2.06613 4.11883 0
M  V30 4792 H 437.453 1.7243 3.79021 0
M  V30 4793 H 440.05 -0.603184 5.31287 0
M  V30 4794 H 440.393 -1.52885 3.8721 0
M  V30 4795 H 440.926 0.166834 3.9745 0
M  V30 4796 H 437.665 2.20424 6.17328 0
M  V30 4797 H 437.185 0.50295 5.97688 0
M  V30 4798 H 438.864 0.915345 6.40492 0
M  V30 4799 N 438.996 -1.55193 0.274407 0
M  V30 4800 C 440.224 -2.03987 -0.345943 0
M  V30 4801 C 440.639 -1.15279 -1.4952 0
M  V30 4802 O 439.996 -0.172759 -1.8168 0
M  V30 4803 C 440.047 -3.51898 -0.827631 0
M  V30 4804 O 439.768 -4.37231 0.275855 0
M  V30 4805 C 441.269 -4.16577 -1.51587 0
M  V30 4806 H 438.489 -0.666335 -0.0789892 0
M  V30 4807 H 441.033 -2.00423 0.406294 0
M  V30 4808 H 439.188 -3.55909 -1.52996 0
M  V30 4809 H 439.602 -5.24415 -0.0943638 0
M  V30 4810 H 441.076 -5.21678 -1.80433 0
M  V30 4811 H 441.553 -3.64707 -2.44716 0
M  V30 4812 H 442.159 -4.16568 -0.857409 0
M  V30 4813 N 440.474 -0.00167713 -1.576 0
M  V30 4814 C 441.699 0.69739 -1.95323 0
M  V30 4815 C 442.124 1.6642 -0.876706 0
M  V30 4816 O 441.482 1.80548 0.165007 0
M  V30 4817 C 441.53 1.40403 -3.32144 0
M  V30 4818 O 440.634 2.5185 -3.26566 0
M  V30 4819 H 439.975 0.185373 -0.637599 0
M  V30 4820 H 442.505 -0.0553665 -2.04525 0
M  V30 4821 H 442.515 1.76707 -3.67748 0
M  V30 4822 H 441.19 0.695167 -4.10049 0
M  V30 4823 H 439.767 2.17861 -3.0264 0
M  V30 4824 N 441.952 1.55251 0.271103 0
M  V30 4825 C 442.9 1.89054 1.35504 0
M  V30 4826 C 443.894 0.767064 1.51038 0
M  V30 4827 O 445.1 0.951429 1.528 0
M  V30 4828 H 441.475 0.600072 0.45323 0
M  V30 4829 H 443.446 2.79598 1.04247 0
M  V30 4830 C 442.195 2.18068 2.70817 0
M  V30 4831 H 441.518 3.04005 2.59656 0
M  V30 4832 H 442.958 2.4564 3.45597 0
M  V30 4833 C 441.417 0.988901 3.2206 0
M  V30 4834 O 441.947 0.224501 4.01072 0
M  V30 4835 N 440.153 0.786085 2.79766 0
M  V30 4836 H 439.7 1.40937 2.15626 0
M  V30 4837 H 439.658 -0.00969349 3.14399 0
M  V30 4838 N 443.43 -0.535701 1.48216 0
M  V30 4839 C 444.377 -1.64083 1.62312 0
M  V30 4840 C 445.347 -1.59448 0.465365 0
M  V30 4841 O 446.532 -1.77959 0.688135 0
M  V30 4842 C 443.672 -3.0236 1.66349 0
M  V30 4843 C 442.785 -3.17273 2.93193 0
M  V30 4844 C 441.92 -4.46075 2.88427 0
M  V30 4845 C 440.959 -4.54496 4.1 0
M  V30 4846 N 440.096 -5.7468 4.03345 0
M  V30 4847 H 444.936 -1.51374 2.5669 0
M  V30 4848 H 442.473 -0.737059 1.27302 0
M  V30 4849 H 444.431 -3.82461 1.66672 0
M  V30 4850 H 443.061 -3.13854 0.754672 0
M  V30 4851 H 442.113 -2.30462 3.02641 0
M  V30 4852 H 443.425 -3.19357 3.83162 0
M  V30 4853 H 442.579 -5.3446 2.87119 0
M  V30 4854 H 441.318 -4.46504 1.96177 0
M  V30 4855 H 440.323 -3.64519 4.11589 0
M  V30 4856 H 441.548 -4.5581 5.03402 0
M  V30 4857 H 439.494 -5.76017 3.13912 0
M  V30 4858 H 439.411 -5.78234 4.87013 0
M  V30 4859 H 440.679 -6.65367 4.06087 0
M  V30 4860 N 444.908 -1.36708 -0.784132 0
M  V30 4861 C 445.871 -1.31307 -1.87859 0
M  V30 4862 C 446.871 -0.219654 -1.59293 0
M  V30 4863 O 448.061 -0.47476 -1.67606 0
M  V30 4864 C 445.193 -1.03679 -3.24751 0
M  V30 4865 H 446.386 -2.28647 -1.94064 0
M  V30 4866 H 443.939 -1.21558 -0.98252 0
M  V30 4867 H 444.674 -0.0681936 -3.24228 0
M  V30 4868 H 444.459 -1.82811 -3.46876 0
M  V30 4869 H 445.949 -1.02518 -4.04821 0
M  V30 4870 N 446.386 1.0089 -1.21074 0
M  V30 4871 C 447.316 2.1145 -0.990523 0
M  V30 4872 C 448.297 1.69897 0.0831699 0
M  V30 4873 O 449.482 1.94052 -0.0758853 0
M  V30 4874 C 446.612 3.42914 -0.550177 0
M  V30 4875 C 445.566 3.98244 -1.56799 0
M  V30 4876 C 444.892 5.25568 -0.984013 0
M  V30 4877 C 446.192 4.30752 -2.95381 0
M  V30 4878 H 447.886 2.3013 -1.91521 0
M  V30 4879 H 445.432 1.10592 -0.92225 0
M  V30 4880 H 447.385 4.19653 -0.383305 0
M  V30 4881 H 446.109 3.24014 0.41015 0
M  V30 4882 H 444.768 3.23621 -1.72236 0
M  V30 4883 H 444.416 5.02998 -0.0155216 0
M  V30 4884 H 444.116 5.63551 -1.66384 0
M  V30 4885 H 445.64 6.04955 -0.828378 0
M  V30 4886 H 447.054 4.98349 -2.8341 0
M  V30 4887 H 445.451 4.79869 -3.60341 0
M  V30 4888 H 446.521 3.39192 -3.46521 0
M  V30 4889 N 447.864 1.01787 1.20321 0
M  V30 4890 C 449.28 0.732951 1.41774 0
M  V30 4891 C 449.48 -0.686883 1.89431 0
M  V30 4892 O 448.536 -1.45446 2.06402 0
M  V30 4893 C 449.849 1.75973 2.43832 0
M  V30 4894 C 451.397 1.77802 2.57596 0
M  V30 4895 C 451.872 2.7941 3.62897 0
M  V30 4896 N 453.363 2.78157 3.70382 0
M  V30 4897 C 454.098 3.53434 4.51521 0
M  V30 4898 N 453.594 4.38392 5.36455 0
M  V30 4899 N 455.387 3.42026 4.46066 0
M  V30 4900 H 447.538 1.93447 0.877035 0
M  V30 4901 H 449.801 0.835712 0.447536 0
M  V30 4902 H 449.507 2.77699 2.15815 0
M  V30 4903 H 449.381 1.57292 3.4284 0
M  V30 4904 H 451.768 0.767602 2.84942 0
M  V30 4905 H 451.849 2.00557 1.58779 0
M  V30 4906 H 451.493 3.80616 3.36295 0
M  V30 4907 H 451.423 2.53916 4.61339 0
M  V30 4908 H 453.914 2.16531 3.09714 0
M  V30 4909 H 454.227 4.92596 5.95457 0
M  V30 4910 H 452.572 4.4247 5.35953 0
M  V30 4911 H 455.763 2.75075 3.78749 0
M  V30 4912 H 455.936 4.00946 5.09064 0
M  V30 4913 N 449.342 -1.36122 0.79427 0
M  V30 4914 C 450.252 -2.33769 0.197296 0
M  V30 4915 C 451.268 -1.61276 -0.653153 0
M  V30 4916 O 452.444 -1.9323 -0.5678 0
M  V30 4917 C 449.509 -3.40474 -0.654098 0
M  V30 4918 C 448.57 -4.28759 0.215411 0
M  V30 4919 C 447.803 -5.30368 -0.595443 0
M  V30 4920 O 448.026 -5.40211 -1.83107 0
M  V30 4921 O 446.96 -6.019 0.00721351 0
M  V30 4922 H 450.786 -2.86597 1.00478 0
M  V30 4923 H 448.371 -1.38676 0.555818 0
M  V30 4924 H 450.253 -4.05703 -1.13944 0
M  V30 4925 H 448.928 -2.89937 -1.43938 0
M  V30 4926 H 447.835 -3.66554 0.747615 0
M  V30 4927 H 449.168 -4.82661 0.964332 0
M  V30 4928 N 450.82 -0.546701 -1.47814 0
M  V30 4929 C 451.75 0.195317 -2.32682 0
M  V30 4930 C 452.731 0.918981 -1.43139 0
M  V30 4931 O 453.916 0.901501 -1.72008 0
M  V30 4932 C 451.046 1.23237 -3.247 0
M  V30 4933 C 450 0.625818 -4.234 0
M  V30 4934 C 449.326 1.76674 -5.04669 0
M  V30 4935 C 450.626 -0.413515 -5.2066 0
M  V30 4936 H 452.32 -0.513184 -2.94969 0
M  V30 4937 H 449.866 -0.248241 -1.41844 0
M  V30 4938 H 451.819 1.75955 -3.82907 0
M  V30 4939 H 450.543 1.97067 -2.60446 0
M  V30 4940 H 449.202 0.120023 -3.66403 0
M  V30 4941 H 448.85 2.49383 -4.36826 0
M  V30 4942 H 448.55 1.36673 -5.71484 0
M  V30 4943 H 450.074 2.29738 -5.65732 0
M  V30 4944 H 451.488 0.0272042 -5.73294 0
M  V30 4945 H 449.885 -0.731825 -5.95621 0
M  V30 4946 H 450.955 -1.31325 -4.66778 0
M  V30 4947 N 452.299 1.55045 -0.282633 0
M  V30 4948 C 453.545 2.00056 0.332481 0
M  V30 4949 C 453.878 1.1708 1.54939 0
M  V30 4950 O 453.153 0.2427 1.9298 0
M  V30 4951 C 453.436 3.53086 0.70725 0
M  V30 4952 C 453.289 4.46813 -0.517521 0
M  V30 4953 C 454.608 4.12245 1.54084 0
M  V30 4954 H 451.727 0.727268 0.119373 0
M  V30 4955 H 454.369 1.85932 -0.391076 0
M  V30 4956 H 452.519 3.65253 1.32372 0
M  V30 4957 H 454.191 4.46579 -1.15607 0
M  V30 4958 H 452.434 4.18163 -1.1542 0
M  V30 4959 H 453.105 5.51595 -0.211426 0
M  V30 4960 H 455.581 4.03401 1.02013 0
M  V30 4961 H 454.457 5.19515 1.77186 0
M  V30 4962 H 454.718 3.62951 2.52427 0
M  V30 4963 N 453.777 0.010035 1.57597 0
M  V30 4964 C 454.74 -0.963029 2.07986 0
M  V30 4965 C 455.74 -1.26619 0.991173 0
M  V30 4966 O 456.93 -1.2097 1.25347 0
M  V30 4967 C 454.062 -2.2851 2.52974 0
M  V30 4968 H 455.255 -0.526971 2.95234 0
M  V30 4969 H 452.808 -0.237639 1.54483 0
M  V30 4970 H 453.543 -2.76784 1.69 0
M  V30 4971 H 453.328 -2.07824 3.32493 0
M  V30 4972 H 454.818 -2.98294 2.9225 0
M  V30 4973 N 455.255 -1.55392 -0.262866 0
M  V30 4974 C 456.165 -1.92077 -1.34698 0
M  V30 4975 C 457.181 -0.819227 -1.53508 0
M  V30 4976 O 458.357 -1.11921 -1.67439 0
M  V30 4977 C 455.422 -2.19407 -2.68443 0
M  V30 4978 C 454.483 -3.42905 -2.58292 0
M  V30 4979 C 453.716 -3.68921 -3.85659 0
M  V30 4980 O 453.939 -2.97275 -4.8681 0
M  V30 4981 O 452.873 -4.62455 -3.85252 0
M  V30 4982 H 456.699 -2.84384 -1.06581 0
M  V30 4983 H 454.284 -1.42069 -0.462264 0
M  V30 4984 H 456.166 -2.38365 -3.47506 0
M  V30 4985 H 454.841 -1.30282 -2.96325 0
M  V30 4986 H 453.748 -3.29272 -1.7757 0
M  V30 4987 H 455.081 -4.32282 -2.35358 0
M  V30 4988 N 456.733 0.527833 -1.48498 0
M  V30 4989 C 457.696 1.61439 -1.62696 0
M  V30 4990 C 458.696 1.52824 -0.500136 0
M  V30 4991 O 459.886 1.56456 -0.765976 0
M  V30 4992 C 457.018 3.01063 -1.59918 0
M  V30 4993 H 458.211 1.50189 -2.59583 0
M  V30 4994 H 455.764 0.750055 -1.37127 0
M  V30 4995 H 456.499 3.17818 -0.645163 0
M  V30 4996 H 456.284 3.08725 -2.41726 0
M  V30 4997 H 457.774 3.80057 -1.73051 0
M  V30 4998 N 458.211 1.37122 0.776871 0
M  V30 4999 C 459.158 1.3247 1.88998 0
M  V30 5000 C 460.128 0.191143 1.64997 0
M  V30 5001 O 461.313 0.379683 1.86984 0
M  V30 5002 C 458.453 1.13241 3.25992 0
M  V30 5003 C 457.566 2.35782 3.61982 0
M  V30 5004 C 456.701 2.09465 4.88158 0
M  V30 5005 C 455.74 3.279 5.16864 0
M  V30 5006 N 454.877 3.01167 6.34226 0
M  V30 5007 H 459.717 2.27642 1.9231 0
M  V30 5008 H 457.254 1.13125 0.94027 0
M  V30 5009 H 459.212 1.00115 4.0501 0
M  V30 5010 H 457.842 0.217186 3.22069 0
M  V30 5011 H 456.894 2.59666 2.77989 0
M  V30 5012 H 458.206 3.24125 3.79137 0
M  V30 5013 H 457.36 1.93341 5.75069 0
M  V30 5014 H 456.099 1.18452 4.73097 0
M  V30 5015 H 455.104 3.44569 4.2843 0
M  V30 5016 H 456.329 4.19757 5.33836 0
M  V30 5017 H 454.275 2.12779 6.20533 0
M  V30 5018 H 454.192 3.83052 6.51772 0
M  V30 5019 H 455.46 2.88649 7.24087 0
M  V30 5020 N 459.689 -1.00246 1.21608 0
M  V30 5021 C 460.652 -2.07233 0.979133 0
M  V30 5022 C 461.652 -1.6072 -0.0508219 0
M  V30 5023 O 462.842 -1.73196 0.186712 0
M  V30 5024 C 459.974 -3.37546 0.477016 0
M  V30 5025 H 461.167 -2.29687 1.92831 0
M  V30 5026 H 458.72 -1.17261 1.03342 0
M  V30 5027 H 459.455 -3.20773 -0.476966 0
M  V30 5028 H 459.24 -3.72638 1.21997 0
M  V30 5029 H 460.73 -4.16285 0.331181 0
M  V30 5030 N 461.167 -1.02423 -1.1978 0
M  V30 5031 C 462.077 -0.610919 -2.26506 0
M  V30 5032 C 463.093 0.355152 -1.70337 0
M  V30 5033 O 464.269 0.214195 -2.00258 0
M  V30 5034 C 461.334 0.0365921 -3.46681 0
M  V30 5035 C 460.395 -0.976389 -4.18049 0
M  V30 5036 C 459.628 -0.359683 -5.32487 0
M  V30 5037 O 459.851 0.838601 -5.64202 0
M  V30 5038 O 458.785 -1.08022 -5.92127 0
M  V30 5039 H 462.611 -1.49965 -2.64091 0
M  V30 5040 H 460.196 -0.794156 -1.26545 0
M  V30 5041 H 462.078 0.39786 -4.19518 0
M  V30 5042 H 460.753 0.899398 -3.10954 0
M  V30 5043 H 459.66 -1.38916 -3.47352 0
M  V30 5044 H 460.993 -1.80941 -4.57735 0
M  V30 5045 N 462.645 1.35699 -0.801477 0
M  V30 5046 C 463.891 1.99208 -0.380022 0
M  V30 5047 C 464.224 1.63445 1.04878 0
M  V30 5048 O 463.499 0.895223 1.72673 0
M  V30 5049 C 463.782 3.55755 -0.557708 0
M  V30 5050 C 463.635 4.01332 -2.03107 0
M  V30 5051 C 464.954 4.40096 0.0197968 0
M  V30 5052 H 462.073 0.723667 -0.139552 0
M  V30 5053 H 464.715 1.60928 -1.01006 0
M  V30 5054 H 462.865 3.88494 -0.0213741 0
M  V30 5055 H 464.537 3.79026 -2.62939 0
M  V30 5056 H 462.78 3.52429 -2.52936 0
M  V30 5057 H 463.451 5.10234 -2.1063 0
M  V30 5058 H 465.927 4.13786 -0.438179 0
M  V30 5059 H 464.803 5.48735 -0.134477 0
M  V30 5060 H 465.064 4.2786 1.11303 0
M  V30 5061 N 464.123 0.554532 1.47522 0
M  V30 5062 C 465.056 -0.242442 2.26908 0
M  V30 5063 C 466.034 -0.922722 1.33883 0
M  V30 5064 O 467.218 -0.942244 1.63261 0
M  V30 5065 C 464.345 -1.34525 3.10839 0
M  V30 5066 C 463.391 -0.773805 4.19422 0
M  V30 5067 S 464.224 0.377525 5.34168 0
M  V30 5068 C 465.38 -0.727164 6.21662 0
M  V30 5069 H 465.613 0.431218 2.94156 0
M  V30 5070 H 463.146 0.3408 1.50592 0
M  V30 5071 H 465.104 -1.97683 3.59766 0
M  V30 5072 H 463.765 -1.99073 2.42958 0
M  V30 5073 H 462.958 -1.60187 4.77866 0
M  V30 5074 H 462.56 -0.218448 3.73361 0
M  V30 5075 H 464.852 -1.61992 6.57849 0
M  V30 5076 H 465.795 -0.180135 7.07871 0
M  V30 5077 H 466.203 -1.01863 5.55233 0
M  V30 5078 N 465.601 -1.54893 0.290851 0
M  V30 5079 C 466.511 -2.26812 -0.59945 0
M  V30 5080 C 467.527 -1.29963 -1.15696 0
M  V30 5081 O 468.703 -1.62928 -1.18391 0
M  V30 5082 C 465.768 -2.98716 -1.75982 0
M  V30 5083 C 464.829 -4.1108 -1.2374 0
M  V30 5084 C 464.062 -4.79546 -2.34246 0
M  V30 5085 O 464.285 -4.47309 -3.53936 0
M  V30 5086 O 463.219 -5.67165 -2.01512 0
M  V30 5087 H 467.045 -3.03696 -0.0163561 0
M  V30 5088 H 464.63 -1.49289 0.0576755 0
M  V30 5089 H 466.512 -3.43851 -2.43607 0
M  V30 5090 H 465.187 -2.24737 -2.3297 0
M  V30 5091 H 464.094 -3.70367 -0.527163 0
M  V30 5092 H 465.427 -4.87007 -0.71307 0
M  V30 5093 N 467.08 -0.0183926 -1.57589 0
M  V30 5094 C 467.99 0.982943 -2.13015 0
M  V30 5095 C 469.006 1.36443 -1.07979 0
M  V30 5096 O 470.182 1.44802 -1.3998 0
M  V30 5097 C 467.247 2.25024 -2.63752 0
M  V30 5098 C 466.308 1.93018 -3.83461 0
M  V30 5099 C 465.541 3.13706 -4.31769 0
M  V30 5100 O 465.764 4.2601 -3.79305 0
M  V30 5101 O 464.698 2.96629 -5.23732 0
M  V30 5102 H 468.524 0.541709 -2.9883 0
M  V30 5103 H 466.109 0.201565 -1.48034 0
M  V30 5104 H 467.991 2.99441 -2.96502 0
M  V30 5105 H 466.666 2.68349 -1.81026 0
M  V30 5106 H 465.573 1.16019 -3.55655 0
M  V30 5107 H 466.906 1.54516 -4.67317 0
M  V30 5108 N 468.558 1.5553 0.254621 0
M  V30 5109 C 469.807 1.76202 0.981612 0
M  V30 5110 C 470.12 0.580883 1.86776 0
M  V30 5111 O 471.326 0.670448 2.63092 0
M  V30 5112 C 469.782 3.11921 1.79537 0
M  V30 5113 C 469.39 4.37659 0.956991 0
M  V30 5114 C 471.134 3.41936 2.51555 0
M  V30 5115 C 469.041 5.64411 1.76619 0
M  V30 5116 H 467.971 0.656841 0.370237 0
M  V30 5117 H 470.622 1.81969 0.236556 0
M  V30 5118 H 469.004 3.00241 2.58208 0
M  V30 5119 H 470.178 4.60307 0.21315 0
M  V30 5120 H 468.493 4.14922 0.350497 0
M  V30 5121 H 471.09 4.33849 3.12536 0
M  V30 5122 H 471.433 2.62905 3.22779 0
M  V30 5123 H 471.966 3.54797 1.799 0
M  V30 5124 H 468.705 6.46241 1.09783 0
M  V30 5125 H 468.225 5.45877 2.48551 0
M  V30 5126 H 469.904 6.03386 2.33527 0
M  V30 5127 N 470.036 -0.519951 1.48776 0
M  V30 5128 C 470.946 -1.65025 1.66745 0
M  V30 5129 C 471.962 -1.6508 0.549954 0
M  V30 5130 O 473.138 -1.83848 0.822295 0
M  V30 5131 C 470.203 -3.0146 1.71238 0
M  V30 5132 C 469.264 -3.12182 2.94688 0
M  V30 5133 C 468.497 -4.42109 2.98958 0
M  V30 5134 O 468.72 -5.29799 2.1135 0
M  V30 5135 O 467.654 -4.57406 3.91233 0
M  V30 5136 H 471.48 -1.52801 2.62461 0
M  V30 5137 H 469.065 -0.694157 1.32294 0
M  V30 5138 H 470.947 -3.82584 1.76657 0
M  V30 5139 H 469.622 -3.13988 0.786975 0
M  V30 5140 H 468.529 -2.30316 2.94797 0
M  V30 5141 H 469.862 -3.04574 3.86646 0
M  V30 5142 N 471.514 -1.37532 -0.769588 0
M  V30 5143 C 472.791 -1.23392 -1.51768 0
M  V30 5144 C 473.171 0.17157 -2.10402 0
M  V30 5145 O 472.519 1.17943 -1.95708 0
M  V30 5146 C 472.729 -2.33163 -2.59685 0
M  V30 5147 C 474.077 -2.70809 -3.27028 0
M  V30 5148 O 475.101 -2.32355 -2.69981 0
M  V30 5149 O 473.96 -3.37066 -4.30173 0
M  V30 5150 H 471.054 -0.481617 -0.67229 0
M  V30 5151 H 473.6 -1.49318 -0.806368 0
M  V30 5152 H 472.372 -3.27273 -2.14494 0
M  V30 5153 H 471.995 -2.08713 -3.38415 0
M  V30 5154 N 472.992 0.995999 -1.22138 0
M  V30 5155 C 474.24 1.73167 -1.042 0
M  V30 5156 C 474.561 1.90329 0.42423 0
M  V30 5157 O 473.831 1.4607 1.30539 0
M  V30 5158 H 472.411 0.641593 -0.38258 0
M  V30 5159 H 475.073 1.19974 -1.53598 0
M  V30 5160 H 474.169 2.72734 -1.51731 0
M  V30 5161 N 474.47 1.03057 1.19235 0
M  V30 5162 C 475.886 0.747947 1.40989 0
M  V30 5163 C 476.086 -0.666752 1.90149 0
M  V30 5164 O 475.142 -1.43249 2.07933 0
M  V30 5165 C 476.455 1.7855 2.41951 0
M  V30 5166 C 478.003 1.80524 2.55695 0
M  V30 5167 C 478.478 2.83243 3.59913 0
M  V30 5168 N 479.969 2.8207 3.67411 0
M  V30 5169 C 480.704 3.58204 4.47747 0
M  V30 5170 N 480.2 4.44057 5.31775 0
M  V30 5171 N 481.993 3.46738 4.42413 0
M  V30 5172 H 474.144 1.94367 0.856468 0
M  V30 5173 H 476.407 0.840412 0.438647 0
M  V30 5174 H 476.113 2.79973 2.12857 0
M  V30 5175 H 475.987 1.6092 3.41152 0
M  V30 5176 H 478.374 0.79778 2.84112 0
M  V30 5177 H 478.455 2.02229 1.56643 0
M  V30 5178 H 478.099 3.84161 3.32239 0
M  V30 5179 H 478.029 2.58795 4.5862 0
M  V30 5180 H 480.52 2.19803 3.074 0
M  V30 5181 H 480.833 4.98884 5.90199 0
M  V30 5182 H 479.178 4.48129 5.3123 0
M  V30 5183 H 482.369 2.79077 3.75811 0
M  V30 5184 H 482.542 4.06322 5.04783 0
M  V30 5185 N 475.948 -1.35272 0.808662 0
M  V30 5186 C 477.225 -1.93077 0.313181 0
M  V30 5187 C 477.605 -1.73847 -1.19752 0
M  V30 5188 O 476.953 -1.1087 -1.998 0
M  V30 5189 C 477.163 -3.41347 0.726859 0
M  V30 5190 C 478.511 -4.18493 0.717532 0
M  V30 5191 O 479.535 -3.4987 0.668535 0
M  V30 5192 O 478.394 -5.40937 0.777779 0
M  V30 5193 H 475.488 -0.822885 0.0824018 0
M  V30 5194 H 478.034 -1.44335 0.892499 0
M  V30 5195 H 476.806 -3.49082 1.76797 0
M  V30 5196 H 476.429 -3.97411 0.122461 0
M  V30 5197 N 477.426 -0.562348 -1.47226 0
M  V30 5198 C 478.336 0.185466 -2.33866 0
M  V30 5199 C 479.352 0.906713 -1.48508 0
M  V30 5200 O 480.528 0.874458 -1.81425 0
M  V30 5201 C 477.593 1.19904 -3.25306 0
M  V30 5202 C 476.654 0.484669 -4.26555 0
M  V30 5203 C 475.887 1.44996 -5.13626 0
M  V30 5204 O 476.11 2.68515 -5.03245 0
M  V30 5205 O 475.044 0.971642 -5.94006 0
M  V30 5206 H 478.87 -0.525361 -2.99121 0
M  V30 5207 H 476.455 -0.322916 -1.45868 0
M  V30 5208 H 478.337 1.78399 -3.81774 0
M  V30 5209 H 477.012 1.8917 -2.62672 0
M  V30 5210 H 475.919 -0.141605 -3.73832 0
M  V30 5211 H 477.252 -0.166634 -4.91918 0
M  V30 5212 N 478.904 1.54736 -0.299062 0
M  V30 5213 C 480.152 1.99706 0.31017 0
M  V30 5214 C 480.473 1.18896 1.54559 0
M  V30 5215 O 479.743 0.284445 1.93824 0
M  V30 5216 H 478.323 0.737686 0.117596 0
M  V30 5217 H 480.985 1.9054 -0.409943 0
M  V30 5218 H 480.081 3.06596 0.58355 0
M  V30 5219 N 480.382 0.0267497 1.57577 0
M  V30 5220 C 481.292 -0.971633 2.13533 0
M  V30 5221 C 482.308 -1.35868 1.08701 0
M  V30 5222 O 483.484 -1.44058 1.40746 0
M  V30 5223 C 480.549 -2.23622 2.64941 0
M  V30 5224 C 479.61 -1.90982 3.8448 0
M  V30 5225 C 478.843 -3.11411 4.33427 0
M  V30 5226 O 479.066 -4.23992 3.81558 0
M  V30 5227 O 478 -2.93848 5.25297 0
M  V30 5228 H 481.826 -0.525853 2.99113 0
M  V30 5229 H 479.411 -0.193712 1.48139 0
M  V30 5230 H 481.293 -2.97864 2.98086 0
M  V30 5231 H 479.968 -2.67386 1.82446 0
M  V30 5232 H 478.875 -1.14132 3.56265 0
M  V30 5233 H 480.208 -1.52036 4.6813 0
M  V30 5234 N 481.861 -1.55662 -0.24637 0
M  V30 5235 C 482.771 -1.93495 -1.32653 0
M  V30 5236 C 483.787 -0.835462 -1.5263 0
M  V30 5237 O 484.963 -1.1369 -1.66242 0
M  V30 5238 C 482.028 -2.22242 -2.66101 0
M  V30 5239 C 481.089 -3.45625 -2.54641 0
M  V30 5240 C 480.322 -3.72991 -3.81724 0
M  V30 5241 O 480.545 -3.02421 -4.8363 0
M  V30 5242 O 479.479 -4.66515 -3.80325 0
M  V30 5243 H 483.305 -2.85498 -1.03559 0
M  V30 5244 H 480.89 -1.42551 -0.44717 0
M  V30 5245 H 482.772 -2.42037 -3.44958 0
M  V30 5246 H 481.447 -1.33417 -2.94926 0
M  V30 5247 H 480.354 -3.31136 -1.74067 0
M  V30 5248 H 481.687 -4.34754 -2.3076 0
M  V30 5249 N 483.339 0.512053 -1.4905 0
M  V30 5250 C 484.249 1.64139 -1.67617 0
M  V30 5251 C 485.265 1.64786 -0.558701 0
M  V30 5252 O 486.441 1.8341 -0.832034 0
M  V30 5253 C 483.506 3.00548 -1.72835 0
M  V30 5254 C 482.567 3.10615 -2.96339 0
M  V30 5255 C 481.8 4.40517 -3.01298 0
M  V30 5256 O 482.023 5.28671 -2.14157 0
M  V30 5257 O 480.957 4.55325 -3.93653 0
M  V30 5258 H 484.783 1.51407 -2.63267 0
M  V30 5259 H 482.368 0.687131 -1.32661 0
M  V30 5260 H 484.25 3.81641 -1.78683 0
M  V30 5261 H 482.925 3.13566 -0.803616 0
M  V30 5262 H 481.832 2.2875 -2.96014 0
M  V30 5263 H 483.165 3.0252 -3.88256 0
M  V30 5264 N 484.817 1.37938 0.762283 0
M  V30 5265 C 486.094 1.24196 1.51112 0
M  V30 5266 C 486.474 -0.160409 2.1049 0
M  V30 5267 O 485.822 -1.16904 1.96331 0
M  V30 5268 C 486.032 2.34537 2.58445 0
M  V30 5269 C 487.38 2.7254 3.25588 0
M  V30 5270 O 488.404 2.33783 2.68745 0
M  V30 5271 O 487.263 3.39343 4.28379 0
M  V30 5272 H 484.357 0.485175 0.669727 0
M  V30 5273 H 486.903 1.49743 0.798438 0
M  V30 5274 H 485.675 3.28406 2.12756 0
M  V30 5275 H 485.298 2.10505 3.37303 0
M  V30 5276 N 486.295 -0.989507 1.22664 0
M  V30 5277 C 487.258 -2.06183 1.00106 0
M  V30 5278 C 488.258 -1.60765 -0.0337726 0
M  V30 5279 O 489.448 -1.72989 0.205072 0
M  V30 5280 C 486.58 -3.37021 0.51279 0
M  V30 5281 H 487.773 -2.27629 1.95256 0
M  V30 5282 H 485.326 -1.16158 1.0458 0
M  V30 5283 H 486.061 -3.21261 -0.442917 0
M  V30 5284 H 485.846 -3.71323 1.25942 0
M  V30 5285 H 487.336 -4.1591 0.375315 0
M  V30 5286 N 487.773 -1.03688 -1.18687 0
M  V30 5287 C 489.019 -0.739123 -1.88851 0
M  V30 5288 C 489.352 0.731042 -1.79915 0
M  V30 5289 O 488.627 1.53313 -1.19688 0
M  V30 5290 C 488.91 -1.20106 -3.3948 0
M  V30 5291 C 488.763 -2.73304 -3.57246 0
M  V30 5292 C 490.082 -0.788134 -4.32986 0
M  V30 5293 H 487.201 -0.269978 -0.68577 0
M  V30 5294 H 489.843 -1.28822 -1.3966 0
M  V30 5295 H 487.993 -0.733915 -3.81505 0
M  V30 5296 H 489.665 -3.28027 -3.24339 0
M  V30 5297 H 487.908 -3.13313 -3.00029 0
M  V30 5298 H 488.579 -3.00684 -4.62918 0
M  V30 5299 H 491.055 -1.19005 -3.98719 0
M  V30 5300 H 489.931 -1.13915 -5.36949 0
M  V30 5301 H 490.192 0.308988 -4.41019 0
M  V30 5302 N 489.251 1.34841 -0.815825 0
M  V30 5303 C 490.528 1.92908 -0.323416 0
M  V30 5304 C 490.908 1.74479 1.18828 0
M  V30 5305 O 490.256 1.11928 1.99209 0
M  V30 5306 C 490.466 3.40957 -0.744952 0
M  V30 5307 C 491.814 4.18107 -0.739716 0
M  V30 5308 O 492.838 3.49511 -0.68708 0
M  V30 5309 O 491.697 5.40517 -0.806456 0
M  V30 5310 H 488.791 0.822436 -0.0867646 0
M  V30 5311 H 491.337 1.4386 -0.90014 0
M  V30 5312 H 490.109 3.4814 -1.78646 0
M  V30 5313 H 489.732 3.97341 -0.143535 0
M  V30 5314 N 490.729 0.570148 1.46925 0
M  V30 5315 C 491.692 -0.159933 2.28641 0
M  V30 5316 C 492.692 -0.830638 1.37685 0
M  V30 5317 O 493.882 -0.684516 1.60187 0
M  V30 5318 C 491.014 -1.2354 3.17727 0
M  V30 5319 H 492.207 0.558035 2.94662 0
M  V30 5320 H 489.76 0.327603 1.52828 0
M  V30 5321 H 490.495 -1.98535 2.56426 0
M  V30 5322 H 490.28 -0.759125 3.84681 0
M  V30 5323 H 491.77 -1.74782 3.79264 0
M  V30 5324 N 492.207 -1.54576 0.307264 0
M  V30 5325 C 493.17 -2.22423 -0.553224 0
M  V30 5326 C 494.17 -1.21231 -1.05639 0
M  V30 5327 O 495.36 -1.45923 -0.951419 0
M  V30 5328 C 492.492 -2.91552 -1.76664 0
M  V30 5329 H 493.685 -2.99874 0.0396484 0
M  V30 5330 H 491.238 -1.56192 0.0581629 0
M  V30 5331 H 491.973 -2.18196 -2.39918 0
M  V30 5332 H 491.758 -3.65738 -1.41343 0
M  V30 5333 H 493.248 -3.43292 -2.37783 0
M  V30 5334 N 493.685 -0.035106 -1.57561 0
M  V30 5335 C 494.91 0.655802 -1.96759 0
M  V30 5336 C 495.335 1.64523 -0.911809 0
M  V30 5337 O 494.693 1.80857 0.126673 0
M  V30 5338 C 494.741 1.33326 -3.35047 0
M  V30 5339 O 493.845 2.44866 -3.31835 0
M  V30 5340 H 493.186 0.171807 -0.641388 0
M  V30 5341 H 495.716 -0.0987369 -2.04362 0
M  V30 5342 H 495.726 1.68867 -3.71413 0
M  V30 5343 H 494.401 0.608033 -4.11431 0
M  V30 5344 H 492.978 2.11392 -3.07193 0
M  V30 5345 N 495.163 1.55791 0.238111 0
M  V30 5346 C 496.391 1.82098 0.982233 0
M  V30 5347 C 496.806 0.612025 1.78605 0
M  V30 5348 O 496.163 -0.419381 1.77616 0
M  V30 5349 C 496.214 3.0673 1.91309 0
M  V30 5350 O 495.935 4.2296 1.14179 0
M  V30 5351 C 497.436 3.45903 2.77248 0
M  V30 5352 H 494.656 0.605748 0.288635 0
M  V30 5353 H 497.2 2.02862 0.258341 0
M  V30 5354 H 495.355 2.87991 2.59114 0
M  V30 5355 H 495.769 4.93653 1.7722 0
M  V30 5356 H 497.243 4.36189 3.38295 0
M  V30 5357 H 497.72 2.66891 3.48806 0
M  V30 5358 H 498.326 3.67024 2.14881 0
M  V30 5359 N 496.642 -0.504142 1.49319 0
M  V30 5360 C 497.572 -1.61473 1.68667 0
M  V30 5361 C 498.553 -1.61455 0.535378 0
M  V30 5362 O 499.738 -1.78245 0.770868 0
M  V30 5363 C 496.868 -2.99971 1.75028 0
M  V30 5364 C 495.822 -3.14854 2.89916 0
M  V30 5365 C 495.148 -4.54671 2.81387 0
M  V30 5366 C 496.448 -2.95176 4.30893 0
M  V30 5367 H 498.142 -1.45535 2.61648 0
M  V30 5368 H 495.688 -0.698711 1.25913 0
M  V30 5369 H 497.641 -3.77562 1.8715 0
M  V30 5370 H 496.365 -3.1699 0.786441 0
M  V30 5371 H 495.024 -2.39687 2.77391 0
M  V30 5372 H 494.672 -4.68562 1.82917 0
M  V30 5373 H 494.372 -4.6557 3.58494 0
M  V30 5374 H 495.896 -5.34327 2.95512 0
M  V30 5375 H 497.31 -3.62538 4.44116 0
M  V30 5376 H 495.707 -3.17549 5.09198 0
M  V30 5377 H 496.777 -1.91332 4.45556 0
M  V30 5378 N 498.12 -1.38341 -0.754957 0
M  V30 5379 C 499.03 -1.3769 -1.89944 0
M  V30 5380 C 500.046 -0.274194 -1.71826 0
M  V30 5381 O 501.222 -0.512391 -1.94773 0
M  V30 5382 C 498.287 -1.19938 -3.25293 0
M  V30 5383 C 497.348 -2.40001 -3.55946 0
M  V30 5384 C 496.581 -2.23087 -4.84838 0
M  V30 5385 O 496.804 -1.22386 -5.57116 0
M  V30 5386 O 495.738 -3.11646 -5.14937 0
M  V30 5387 H 499.564 -2.3412 -1.93446 0
M  V30 5388 H 497.149 -1.19246 -0.900044 0
M  V30 5389 H 499.031 -1.12093 -4.06218 0
M  V30 5390 H 497.706 -0.265919 -3.22606 0
M  V30 5391 H 496.613 -2.53421 -2.75188 0
M  V30 5392 H 497.946 -3.31973 -3.63394 0
M  V30 5393 N 499.598 0.982988 -1.23187 0
M  V30 5394 C 500.546 2.09616 -1.00817 0
M  V30 5395 C 501.54 1.6932 0.0519995 0
M  V30 5396 O 502.746 1.79715 -0.101284 0
M  V30 5397 H 499.121 0.685628 -0.308899 0
M  V30 5398 H 501.092 2.25652 -1.95253 0
M  V30 5399 C 499.841 3.42249 -0.613243 0
M  V30 5400 H 499.164 3.73705 -1.42073 0
M  V30 5401 H 500.604 4.21086 -0.496208 0
M  V30 5402 C 499.063 3.30002 0.678233 0
M  V30 5403 O 499.593 3.6263 1.72807 0
M  V30 5404 N 497.799 2.83164 0.653165 0
M  V30 5405 H 497.346 2.56811 -0.201492 0
M  V30 5406 H 497.304 2.75352 1.51752 0
M  V30 5407 N 501.076 1.04316 1.18135 0
M  V30 5408 C 502.026 0.606731 2.19779 0
M  V30 5409 C 503.01 -0.352144 1.56999 0
M  V30 5410 O 504.202 -0.170795 1.76174 0
M  V30 5411 C 501.331 -0.0262443 3.4329 0
M  V30 5412 C 500.417 0.955928 4.13186 0
M  V30 5413 N 500.808 2.12395 4.59045 0
M  V30 5414 C 499.106 0.782473 4.39082 0
M  V30 5415 C 499.807 2.74458 5.12882 0
M  V30 5416 N 498.783 2.02316 5.04548 0
M  V30 5417 H 502.585 1.49679 2.5293 0
M  V30 5418 H 500.099 0.912088 1.34368 0
M  V30 5419 H 502.096 -0.356617 4.15372 0
M  V30 5420 H 500.756 -0.911811 3.11635 0
M  V30 5421 H 501.767 2.50272 4.53414 0
M  V30 5422 H 498.444 -0.0527906 4.17467 0
M  V30 5423 H 499.834 3.73459 5.5855 0
M  V30 5424 N 502.554 -1.34406 0.822964 0
M  V30 5425 C 503.782 -2.02508 0.424039 0
M  V30 5426 C 504.197 -1.61975 -0.970022 0
M  V30 5427 O 503.554 -0.825228 -1.62777 0
M  V30 5428 C 503.605 -3.57789 0.516657 0
M  V30 5429 O 503.326 -3.96853 1.85577 0
M  V30 5430 C 504.827 -4.43157 0.112637 0
M  V30 5431 H 502.047 -0.649063 0.170173 0
M  V30 5432 H 504.591 -1.7168 1.11113 0
M  V30 5433 H 502.746 -3.87207 -0.122353 0
M  V30 5434 H 503.16 -4.91538 1.83005 0
M  V30 5435 H 504.634 -5.51527 0.228526 0
M  V30 5436 H 505.111 -4.28939 -0.943837 0
M  V30 5437 H 505.717 -4.19067 0.725449 0
M  V30 5438 N 504.032 -0.577932 -1.46621 0
M  V30 5439 C 504.964 0.195801 -2.28362 0
M  V30 5440 C 505.977 0.859983 -1.38232 0
M  V30 5441 O 507.166 0.730349 -1.62875 0
M  V30 5442 C 504.266 1.29639 -3.13124 0
M  V30 5443 C 503.439 0.725049 -4.31349 0
M  V30 5444 C 502.498 1.71274 -4.97546 0
M  V30 5445 O 501.524 1.25067 -5.5529 0
M  V30 5446 N 502.726 3.04672 -4.94121 0
M  V30 5447 H 505.491 -0.505468 -2.95407 0
M  V30 5448 H 503.052 -0.415381 -1.56481 0
M  V30 5449 H 505.044 1.95631 -3.54275 0
M  V30 5450 H 503.614 1.90059 -2.48186 0
M  V30 5451 H 502.834 -0.112205 -3.9404 0
M  V30 5452 H 504.122 0.323034 -5.07774 0
M  V30 5453 H 503.52 3.4484 -4.48444 0
M  V30 5454 H 502.077 3.66166 -5.39227 0
M  V30 5455 N 505.51 1.54411 -0.315457 0
M  V30 5456 C 506.458 2.25514 0.569771 0
M  V30 5457 C 507.452 1.2663 1.12522 0
M  V30 5458 O 508.658 1.44434 1.07419 0
M  V30 5459 H 505.033 0.724257 0.202376 0
M  V30 5460 H 507.004 2.98354 -0.0522895 0
M  V30 5461 C 505.753 3.02004 1.72305 0
M  V30 5462 H 505.076 3.77906 1.30488 0
M  V30 5463 H 506.516 3.55014 2.31821 0
M  V30 5464 C 504.975 2.09822 2.63583 0
M  V30 5465 O 505.505 1.67574 3.65078 0
M  V30 5466 N 503.711 1.75478 2.31637 0
M  V30 5467 H 503.258 2.10032 1.49145 0
M  V30 5468 H 503.216 1.14079 2.92973 0
M  V30 5469 N 506.988 0.0434614 1.5754 0
M  V30 5470 C 508.213 -0.645358 1.97104 0
M  V30 5471 C 508.638 -1.64037 0.920521 0
M  V30 5472 O 507.996 -1.80922 -0.11708 0
M  V30 5473 C 508.044 -1.31547 3.35749 0
M  V30 5474 O 507.148 -2.43103 3.33129 0
M  V30 5475 H 506.489 -0.168403 0.64229 0
M  V30 5476 H 509.019 0.109573 2.04306 0
M  V30 5477 H 509.029 -1.66895 3.72304 0
M  V30 5478 H 507.704 -0.586205 4.11748 0
M  V30 5479 H 506.281 -2.0976 3.0831 0
M  V30 5480 N 508.466 -1.55915 -0.229846 0
M  V30 5481 C 509.691 -1.8296 -0.976743 0
M  V30 5482 C 510.116 -0.622735 -1.77493 0
M  V30 5483 O 509.474 0.428431 -1.76165 0
M  V30 5484 C 509.522 -3.07916 -1.8767 0
M  V30 5485 O 508.626 -2.86028 -2.97088 0
M  V30 5486 H 507.967 -0.603453 -0.277021 0
M  V30 5487 H 510.497 -2.0312 -0.245669 0
M  V30 5488 H 510.507 -3.37802 -2.2881 0
M  V30 5489 H 509.182 -3.95389 -1.28996 0
M  V30 5490 H 507.759 -2.67355 -2.59954 0
M  V30 5491 N 509.944 0.496216 -1.49584 0
M  V30 5492 C 510.854 1.62352 -1.69349 0
M  V30 5493 C 511.87 1.64184 -0.576147 0
M  V30 5494 O 513.046 1.82517 -0.85144 0
M  V30 5495 C 510.111 2.98698 -1.76013 0
M  V30 5496 C 509.172 3.07454 -2.99617 0
M  V30 5497 C 508.405 4.37296 -3.05953 0
M  V30 5498 O 508.628 5.2637 -2.19752 0
M  V30 5499 O 507.562 4.51124 -3.9846 0
M  V30 5500 H 511.388 1.48606 -2.64859 0
M  V30 5501 H 508.973 0.673022 -1.33382 0
M  V30 5502 H 510.855 3.79725 -1.82721 0
M  V30 5503 H 509.53 3.12696 -0.836828 0
M  V30 5504 H 508.437 2.25597 -2.98424 0
M  V30 5505 H 509.77 2.98385 -3.91443 0
M  V30 5506 N 511.423 1.38739 0.74761 0
M  V30 5507 C 512.669 1.35475 1.50912 0
M  V30 5508 C 513.002 -0.0533093 1.94127 0
M  V30 5509 O 512.277 -1.01572 1.65871 0
M  V30 5510 C 512.56 2.31582 2.75757 0
M  V30 5511 C 512.413 3.81274 2.38642 0
M  V30 5512 C 513.732 2.25722 3.77806 0
M  V30 5513 H 510.851 0.493427 0.547447 0
M  V30 5514 H 513.493 1.69634 0.855823 0
M  V30 5515 H 511.643 2.02582 3.31501 0
M  V30 5516 H 513.315 4.20972 1.88626 0
M  V30 5517 H 511.558 3.98664 1.71025 0
M  V30 5518 H 512.229 4.4399 3.27989 0
M  V30 5519 H 514.705 2.51336 3.31616 0
M  V30 5520 H 513.581 2.95069 4.62845 0
M  V30 5521 H 513.842 1.25803 4.23823 0
M  V30 5522 N 512.901 -0.976442 1.23707 0
M  V30 5523 C 514.126 -1.75875 1.09922 0
M  V30 5524 C 514.551 -1.84911 -0.34489 0
M  V30 5525 O 513.909 -1.31363 -1.24954 0
M  V30 5526 C 513.957 -3.16179 1.73388 0
M  V30 5527 O 513.061 -4.00124 0.99871 0
M  V30 5528 H 512.402 -0.540954 0.385052 0
M  V30 5529 H 514.932 -1.22546 1.6384 0
M  V30 5530 H 514.942 -3.66741 1.78788 0
M  V30 5531 H 513.617 -3.08917 2.78466 0
M  V30 5532 H 512.194 -3.58624 1.02193 0
M  V30 5533 N 514.379 -1.04941 -1.1758 0
M  V30 5534 C 515.79 -0.784501 -1.69418 0
M  V30 5535 C 516.141 0.693625 -1.8353 0
M  V30 5536 O 515.266 1.53925 -1.52106 0
M  V30 5537 C 515.861 -1.41746 -3.07723 0
M  V30 5538 C 514.42 -1.20066 -3.56737 0
M  V30 5539 C 513.567 -1.5026 -2.33061 0
M  V30 5540 H 516.518 -1.21469 -1.02133 0
M  V30 5541 H 516.539 -0.825381 -3.7144 0
M  V30 5542 H 516.051 -2.49325 -2.9742 0
M  V30 5543 H 514.152 -0.144006 -3.72322 0
M  V30 5544 H 514.265 -1.90384 -4.39648 0
M  V30 5545 H 512.629 -0.922598 -2.37403 0
M  V30 5546 H 513.412 -2.58967 -2.25368 0
M  V30 5547 N 515.857 1.33968 -0.830081 0
M  V30 5548 C 517.268 1.80439 -0.479455 0
M  V30 5549 C 517.619 1.68756 1.00079 0
M  V30 5550 O 516.744 1.23171 1.77927 0
M  V30 5551 C 517.339 3.27611 -0.863505 0
M  V30 5552 C 515.898 3.72133 -0.565145 0
M  V30 5553 C 515.045 2.55549 -1.07657 0
M  V30 5554 H 517.996 1.21614 -1.0196 0
M  V30 5555 H 518.017 3.8012 -0.170083 0
M  V30 5556 H 517.529 3.36082 -1.94089 0
M  V30 5557 H 515.63 3.69196 0.502536 0
M  V30 5558 H 515.743 4.65963 -1.11422 0
M  V30 5559 H 514.107 2.49788 -0.497807 0
M  V30 5560 H 514.89 2.66786 -2.16055 0
M  V30 5561 N 517.335 0.585699 1.46312 0
M  V30 5562 C 518.56 0.0762461 2.0726 0
M  V30 5563 C 518.985 -1.22071 1.43109 0
M  V30 5564 O 518.343 -1.73804 0.515942 0
M  V30 5565 C 518.391 -0.0729404 3.60526 0
M  V30 5566 O 517.495 -1.1287 3.96654 0
M  V30 5567 H 516.836 0.0641558 0.660893 0
M  V30 5568 H 519.366 0.809492 1.87905 0
M  V30 5569 H 519.376 -0.278158 4.07051 0
M  V30 5570 H 518.051 0.874188 4.06609 0
M  V30 5571 H 516.628 -0.901703 3.61834 0
M  V30 5572 N 518.813 -1.54241 0.323641 0
M  V30 5573 C 519.743 -2.27289 -0.534993 0
M  V30 5574 C 520.724 -1.28087 -1.11927 0
M  V30 5575 O 521.909 -1.56899 -1.14439 0
M  V30 5576 C 519.039 -3.03075 -1.69596 0
M  V30 5577 C 517.993 -4.09614 -1.24098 0
M  V30 5578 C 517.319 -4.73242 -2.4889 0
M  V30 5579 C 518.619 -5.21087 -0.355789 0
M  V30 5580 H 520.313 -2.99308 0.0743257 0
M  V30 5581 H 517.859 -1.43952 0.0371874 0
M  V30 5582 H 519.812 -3.52907 -2.30293 0
M  V30 5583 H 518.536 -2.28673 -2.33187 0
M  V30 5584 H 517.195 -3.60666 -0.656945 0
M  V30 5585 H 516.843 -3.95455 -3.10845 0
M  V30 5586 H 516.543 -5.45209 -2.19138 0
M  V30 5587 H 518.067 -5.25848 -3.10348 0
M  V30 5588 H 519.481 -5.66675 -0.869042 0
M  V30 5589 H 517.878 -5.9991 -0.151045 0
M  V30 5590 H 518.948 -4.81005 0.613339 0
M  V30 5591 N 520.291 -0.0518155 -1.57515 0
M  V30 5592 C 521.239 0.940195 -2.12751 0
M  V30 5593 C 522.233 1.3218 -1.05948 0
M  V30 5594 O 523.439 1.30138 -1.24355 0
M  V30 5595 H 519.814 0.321066 -0.680015 0
M  V30 5596 H 521.785 0.449217 -2.94999 0
M  V30 5597 C 520.534 2.2055 -2.68799 0
M  V30 5598 H 519.857 1.92066 -3.50643 0
M  V30 5599 H 521.297 2.88119 -3.11068 0
M  V30 5600 C 519.756 2.95061 -1.62605 0
M  V30 5601 O 520.286 3.88025 -1.03921 0
M  V30 5602 N 518.492 2.57804 -1.34111 0
M  V30 5603 H 518.039 1.82281 -1.8202 0
M  V30 5604 H 517.997 3.07964 -0.632872 0
M  V30 5605 N 521.769 1.56035 0.221574 0
M  V30 5606 C 522.732 1.91584 1.2581 0
M  V30 5607 C 523.732 0.794425 1.39805 0
M  V30 5608 O 524.922 1.06217 1.38071 0
M  V30 5609 C 522.054 2.16663 2.63192 0
M  V30 5610 H 523.247 2.8429 0.954935 0
M  V30 5611 H 520.8 1.49316 0.461988 0
M  V30 5612 H 521.535 1.26508 2.98607 0
M  V30 5613 H 521.32 2.98358 2.5441 0
M  V30 5614 H 522.81 2.45262 3.37988 0
M  V30 5615 N 523.247 -0.488276 1.49845 0
M  V30 5616 C 524.524 -1.24959 1.50481 0
M  V30 5617 C 524.904 -2.09735 0.239698 0
M  V30 5618 O 524.252 -2.14865 -0.777524 0
M  V30 5619 C 524.462 -2.0954 2.79095 0
M  V30 5620 C 525.81 -2.68305 3.29086 0
M  V30 5621 O 526.834 -2.19797 2.80299 0
M  V30 5622 O 525.693 -3.56643 4.14087 0
M  V30 5623 H 522.787 -0.566133 0.602845 0
M  V30 5624 H 525.333 -0.501504 1.6212 0
M  V30 5625 H 524.105 -1.46958 3.62656 0
M  V30 5626 H 523.728 -2.91517 2.70377 0
M  V30 5627 N 524.725 -1.39134 -0.740242 0
M  V30 5628 C 525.672 -1.37434 -1.8542 0
M  V30 5629 C 526.642 -0.234822 -1.64432 0
M  V30 5630 O 527.827 -0.429125 -1.85912 0
M  V30 5631 C 524.967 -1.21844 -3.22875 0
M  V30 5632 C 524.08 -2.45296 -3.55603 0
M  V30 5633 C 523.215 -2.22334 -4.82432 0
M  V30 5634 C 522.254 -3.41488 -5.07988 0
M  V30 5635 N 521.391 -3.17877 -6.26018 0
M  V30 5636 H 526.231 -2.3266 -1.86207 0
M  V30 5637 H 523.768 -1.15578 -0.909946 0
M  V30 5638 H 525.726 -1.10818 -4.02213 0
M  V30 5639 H 524.356 -0.3025 -3.21379 0
M  V30 5640 H 523.408 -2.66945 -2.71006 0
M  V30 5641 H 524.72 -3.34063 -3.7041 0
M  V30 5642 H 523.874 -2.0852 -5.69741 0
M  V30 5643 H 522.613 -1.30954 -4.6979 0
M  V30 5644 H 521.618 -3.55807 -4.19144 0
M  V30 5645 H 522.843 -4.33763 -5.22519 0
M  V30 5646 H 520.789 -2.29156 -6.14673 0
M  V30 5647 H 520.706 -4.00198 -6.41387 0
M  V30 5648 H 521.974 -3.07746 -7.16179 0
M  V30 5649 N 526.204 0.969867 -1.24223 0
M  V30 5650 C 527.615 1.52717 -1.07399 0
M  V30 5651 C 527.966 1.92956 0.355298 0
M  V30 5652 O 527.091 1.77112 1.2434 0
M  V30 5653 C 527.686 2.77521 -1.94339 0
M  V30 5654 C 526.245 3.29615 -1.81744 0
M  V30 5655 C 525.392 2.02537 -1.89405 0
M  V30 5656 H 528.343 0.788399 -1.37732 0
M  V30 5657 H 528.364 3.50773 -1.47439 0
M  V30 5658 H 527.876 2.48203 -2.98357 0
M  V30 5659 H 525.977 3.63789 -0.805505 0
M  V30 5660 H 526.09 3.98661 -2.65718 0
M  V30 5661 H 524.454 2.17151 -1.33108 0
M  V30 5662 H 525.237 1.75587 -2.94999 0
M  V30 5663 N 527.682 1.05563 1.17022 0
M  V30 5664 C 528.612 0.681026 2.23348 0
M  V30 5665 C 529.593 -0.322983 1.67005 0
M  V30 5666 O 530.778 -0.199746 1.9317 0
M  V30 5667 C 527.908 0.0589053 3.4725 0
M  V30 5668 C 526.862 0.988082 4.16438 0
M  V30 5669 C 526.188 0.229646 5.34207 0
M  V30 5670 C 527.488 2.31388 4.68249 0
M  V30 5671 H 529.182 1.56993 2.54938 0
M  V30 5672 H 526.728 0.756302 1.2254 0
M  V30 5673 H 528.681 -0.214982 4.20851 0
M  V30 5674 H 527.405 -0.864968 3.14938 0
M  V30 5675 H 526.064 1.24659 3.44754 0
M  V30 5676 H 525.712 -0.697111 4.98146 0
M  V30 5677 H 525.412 0.848815 5.81437 0
M  V30 5678 H 526.936 -0.0368694 6.10589 0
M  V30 5679 H 528.35 2.09964 5.33468 0
M  V30 5680 H 526.747 2.88736 5.26072 0
M  V30 5681 H 527.817 2.94982 3.84855 0
M  V30 5682 N 529.16 -1.33526 0.837174 0
M  V30 5683 C 530.07 -2.33023 0.271568 0
M  V30 5684 C 531.086 -1.63272 -0.601514 0
M  V30 5685 O 532.262 -1.94939 -0.506038 0
M  V30 5686 C 529.327 -3.42382 -0.545448 0
M  V30 5687 C 528.388 -4.27857 0.351709 0
M  V30 5688 C 527.621 -5.31994 -0.426409 0
M  V30 5689 O 527.844 -5.45763 -1.65828 0
M  V30 5690 O 526.778 -6.01572 0.1987 0
M  V30 5691 H 530.604 -2.83256 1.09545 0
M  V30 5692 H 528.189 -1.36837 0.599655 0
M  V30 5693 H 530.071 -4.09122 -1.00979 0
M  V30 5694 H 528.746 -2.94369 -1.34641 0
M  V30 5695 H 527.653 -3.6399 0.863853 0
M  V30 5696 H 528.986 -4.79349 1.1174 0
M  V30 5697 N 530.638 -0.59345 -1.46 0
M  V30 5698 C 531.548 0.135817 -2.34207 0
M  V30 5699 C 532.564 0.875008 -1.50398 0
M  V30 5700 O 533.74 0.835778 -1.83239 0
M  V30 5701 C 530.805 1.12977 -3.27776 0
M  V30 5702 C 529.866 0.394081 -4.27487 0
M  V30 5703 C 529.099 1.34068 -5.16586 0
M  V30 5704 O 529.322 2.5778 -5.08828 0
M  V30 5705 O 528.256 0.845426 -5.95933 0
M  V30 5706 H 532.082 -0.588691 -2.9794 0
M  V30 5707 H 529.667 -0.353784 -1.45151 0
M  V30 5708 H 531.549 1.70261 -3.85473 0
M  V30 5709 H 530.224 1.83556 -2.66625 0
M  V30 5710 H 529.131 -0.220869 -3.73447 0
M  V30 5711 H 530.464 -0.270939 -4.91454 0
M  V30 5712 N 532.116 1.54067 -0.331816 0
M  V30 5713 C 533.341 2.05599 0.272705 0
M  V30 5714 C 533.766 1.2059 1.44359 0
M  V30 5715 O 533.124 0.216907 1.79998 0
M  V30 5716 C 533.172 3.54188 0.677021 0
M  V30 5717 O 532.276 3.72082 1.77844 0
M  V30 5718 H 531.617 0.662286 0.0476801 0
M  V30 5719 H 534.147 1.98826 -0.482624 0
M  V30 5720 H 534.157 3.96608 0.957415 0
M  V30 5721 H 532.832 4.15513 -0.179325 0
M  V30 5722 H 531.409 3.41566 1.49622 0
M  V30 5723 N 533.594 0.0601682 1.57485 0
M  V30 5724 C 535.005 -0.474217 1.80577 0
M  V30 5725 C 535.356 -1.70365 0.973147 0
M  V30 5726 O 534.481 -2.15544 0.192306 0
M  V30 5727 C 535.076 -0.867102 3.27516 0
M  V30 5728 C 533.635 -1.34642 3.51495 0
M  V30 5729 C 532.782 -0.32594 2.75378 0
M  V30 5730 H 535.733 0.285973 1.56102 0
M  V30 5731 H 535.754 -1.72938 3.38929 0
M  V30 5732 H 535.266 0.0278927 3.8809 0
M  V30 5733 H 533.367 -2.2603 2.96212 0
M  V30 5734 H 533.48 -1.33237 4.60201 0
M  V30 5735 H 531.844 -0.800749 2.41785 0
M  V30 5736 H 532.627 0.561125 3.38683 0
M  V30 5737 N 535.072 -1.5615 -0.213296 0
M  V30 5738 C 536.297 -1.83986 -0.957282 0
M  V30 5739 C 536.722 -0.641526 -1.76822 0
M  V30 5740 O 536.08 0.409722 -1.7661 0
M  V30 5741 C 536.128 -3.09889 -1.84393 0
M  V30 5742 O 535.232 -2.89163 -2.94038 0
M  V30 5743 H 534.573 -0.606357 -0.270605 0
M  V30 5744 H 537.103 -2.03369 -0.224111 0
M  V30 5745 H 537.113 -3.40209 -2.25215 0
M  V30 5746 H 535.788 -3.96735 -1.24795 0
M  V30 5747 H 534.365 -2.70097 -2.57103 0
M  V30 5748 N 536.55 0.480323 -1.50102 0
M  V30 5749 C 537.778 1.25657 -1.64371 0
M  V30 5750 C 538.193 1.86011 -0.323316 0
M  V30 5751 O 537.55 1.68803 0.693682 0
M  V30 5752 C 537.601 2.37197 -2.728 0
M  V30 5753 O 537.322 1.7932 -3.9972 0
M  V30 5754 C 538.823 3.2823 -2.9796 0
M  V30 5755 H 536.043 0.380369 -0.552775 0
M  V30 5756 H 538.587 0.574379 -1.96268 0
M  V30 5757 H 536.742 3.01208 -2.43623 0
M  V30 5758 H 537.156 2.52701 -4.59611 0
M  V30 5759 H 538.63 4.02725 -3.77513 0
M  V30 5760 H 539.107 3.86462 -2.08671 0
M  V30 5761 H 539.713 2.69964 -3.28633 0
M  V30 5762 N 538.028 1.39524 0.732853 0
M  V30 5763 C 539.439 1.32905 1.31122 0
M  V30 5764 C 539.79 -0.00558708 1.96199 0
M  V30 5765 O 538.915 -0.907706 1.96443 0
M  V30 5766 C 539.51 2.40704 2.38426 0
M  V30 5767 C 538.069 2.37599 2.91931 0
M  V30 5768 C 537.216 2.2248 1.65523 0
M  V30 5769 H 540.167 1.49581 0.530207 0
M  V30 5770 H 540.188 2.07616 3.18867 0
M  V30 5771 H 539.7 3.37829 1.91033 0
M  V30 5772 H 537.801 1.44119 3.43599 0
M  V30 5773 H 537.914 3.32538 3.44899 0
M  V30 5774 H 536.278 1.69691 1.8994 0
M  V30 5775 H 537.061 3.21577 1.20178 0
M  V30 5776 N 539.506 -0.963266 1.24736 0
M  V30 5777 C 540.436 -2.07628 1.06832 0
M  V30 5778 C 541.417 -1.70088 -0.0200566 0
M  V30 5779 O 542.602 -1.93636 0.147854 0
M  V30 5780 C 539.732 -3.40636 0.677069 0
M  V30 5781 C 538.686 -3.9215 1.71471 0
M  V30 5782 C 538.012 -5.21553 1.1784 0
M  V30 5783 C 539.312 -4.19493 3.11164 0
M  V30 5784 H 541.006 -2.22864 1.9993 0
M  V30 5785 H 538.552 -1.07093 0.96266 0
M  V30 5786 H 540.505 -4.17941 0.538792 0
M  V30 5787 H 539.229 -3.25313 -0.289612 0
M  V30 5788 H 537.888 -3.17005 1.84128 0
M  V30 5789 H 537.536 -5.02593 0.202195 0
M  V30 5790 H 537.236 -5.56988 1.87185 0
M  V30 5791 H 538.76 -6.01463 1.05233 0
M  V30 5792 H 540.174 -4.87487 3.01711 0
M  V30 5793 H 538.571 -4.66165 3.77902 0
M  V30 5794 H 539.641 -3.26097 3.58871 0
M  V30 5795 N 540.985 -1.06182 -1.16461 0
M  V30 5796 C 541.948 -0.675723 -2.19013 0
M  V30 5797 C 542.948 0.277963 -1.58379 0
M  V30 5798 O 544.138 0.0604962 -1.74095 0
M  V30 5799 C 541.27 0.00591459 -3.40899 0
M  V30 5800 H 542.463 -1.58353 -2.54685 0
M  V30 5801 H 540.016 -0.856908 -1.30716 0
M  V30 5802 H 540.751 0.92652 -3.10783 0
M  V30 5803 H 540.536 -0.67984 -3.86161 0
M  V30 5804 H 542.026 0.26181 -4.16778 0
M  V30 5805 N 542.463 1.3308 -0.844243 0
M  V30 5806 C 543.874 1.7992 -0.498566 0
M  V30 5807 C 544.225 1.69808 0.982834 0
M  V30 5808 O 543.35 1.25051 1.7661 0
M  V30 5809 C 543.945 3.26677 -0.898204 0
M  V30 5810 C 542.504 3.71513 -0.604583 0
M  V30 5811 C 541.651 2.54393 -1.10362 0
M  V30 5812 H 544.602 1.20526 -1.03244 0
M  V30 5813 H 544.623 3.79918 -0.21039 0
M  V30 5814 H 544.135 3.34004 -1.97643 0
M  V30 5815 H 542.236 3.69708 0.46335 0
M  V30 5816 H 542.349 4.64755 -1.16358 0
M  V30 5817 H 540.713 2.49246 -0.524273 0
M  V30 5818 H 541.496 2.6448 -2.18873 0
M  V30 5819 N 543.941 0.601185 1.45683 0
M  V30 5820 C 545.166 0.0982245 2.07167 0
M  V30 5821 C 545.591 -1.20546 1.44396 0
M  V30 5822 O 544.949 -1.73247 0.534347 0
M  V30 5823 C 544.997 -0.0346976 3.60583 0
M  V30 5824 O 544.101 -1.08657 3.97828 0
M  V30 5825 H 543.442 0.0711618 0.660176 0
M  V30 5826 H 545.972 0.829376 1.87036 0
M  V30 5827 H 545.982 -0.234969 4.07323 0
M  V30 5828 H 544.657 0.917265 4.05659 0
M  V30 5829 H 543.234 -0.863275 3.6277 0
M  V30 5830 N 545.419 -1.53889 0.339982 0
M  V30 5831 C 546.351 -2.22435 -0.55275 0
M  V30 5832 C 547.364 -1.22975 -1.06681 0
M  V30 5833 O 548.553 -1.49351 -0.977575 0
M  V30 5834 C 545.653 -2.8882 -1.77302 0
M  V30 5835 C 544.826 -4.14563 -1.39486 0
M  V30 5836 C 543.885 -4.64391 -2.47442 0
M  V30 5837 O 542.911 -5.28687 -2.10899 0
M  V30 5838 N 544.113 -4.40015 -3.78639 0
M  V30 5839 H 546.878 -2.9968 0.0342669 0
M  V30 5840 H 544.439 -1.61068 0.16394 0
M  V30 5841 H 546.431 -3.19072 -2.48948 0
M  V30 5842 H 545.001 -2.15182 -2.26749 0
M  V30 5843 H 544.221 -3.90896 -0.509321 0
M  V30 5844 H 545.509 -4.96362 -1.11813 0
M  V30 5845 H 544.907 -3.88586 -4.11118 0
M  V30 5846 H 543.464 -4.74881 -4.46465 0
M  V30 5847 N 546.897 -0.0685191 -1.57451 0
M  V30 5848 C 548.122 0.613919 -1.98106 0
M  V30 5849 C 548.547 1.62551 -0.946501 0
M  V30 5850 O 547.905 1.81085 0.0882824 0
M  V30 5851 C 547.953 1.26189 -3.378 0
M  V30 5852 O 547.057 2.37773 -3.36954 0
M  V30 5853 H 546.398 0.158163 -0.644888 0
M  V30 5854 H 548.928 -0.142063 -2.04106 0
M  V30 5855 H 548.938 1.60951 -3.74912 0
M  V30 5856 H 547.613 0.520625 -4.12629 0
M  V30 5857 H 546.19 2.04829 -3.11608 0
M  V30 5858 N 548.375 1.56261 0.205012 0
M  V30 5859 C 549.307 1.90266 1.27795 0
M  V30 5860 C 550.32 0.792397 1.42214 0
M  V30 5861 O 551.509 1.07077 1.42817 0
M  V30 5862 C 548.609 2.11074 2.65143 0
M  V30 5863 C 547.782 3.42176 2.7246 0
M  V30 5864 C 546.841 3.52216 3.90936 0
M  V30 5865 O 545.867 4.25119 3.78501 0
M  V30 5866 N 547.069 2.84573 5.05963 0
M  V30 5867 H 549.834 2.82896 0.989434 0
M  V30 5868 H 547.395 1.57008 0.394981 0
M  V30 5869 H 549.387 2.15089 3.4281 0
M  V30 5870 H 547.957 1.2499 2.86524 0
M  V30 5871 H 547.177 3.50116 1.81142 0
M  V30 5872 H 548.465 4.28509 2.74331 0
M  V30 5873 H 547.863 2.25152 5.18963 0
M  V30 5874 H 546.42 2.94228 5.81613 0
M  V30 5875 N 549.853 -0.472356 1.50355 0
M  V30 5876 C 551.13 -1.23356 1.51798 0
M  V30 5877 C 551.51 -2.09469 0.26193 0
M  V30 5878 O 550.858 -2.15677 -0.754691 0
M  V30 5879 C 551.068 -2.06568 2.81302 0
M  V30 5880 C 552.416 -2.648 3.31913 0
M  V30 5881 O 553.44 -2.16812 2.82614 0
M  V30 5882 O 552.299 -3.52231 4.17846 0
M  V30 5883 H 549.393 -0.559707 0.608816 0
M  V30 5884 H 551.939 -0.48428 1.62643 0
M  V30 5885 H 550.711 -1.43103 3.64194 0
M  V30 5886 H 550.334 -2.88633 2.73454 0
M  V30 5887 N 551.331 -1.39911 -0.725443 0
M  V30 5888 C 552.556 -1.41137 -1.5197 0
M  V30 5889 C 552.981 -0.010262 -1.88097 0
M  V30 5890 O 552.339 0.979184 -1.52583 0
M  V30 5891 C 552.387 -2.2994 -2.77777 0
M  V30 5892 O 551.491 -1.73586 -3.74088 0
M  V30 5893 H 550.832 -0.480219 -0.458569 0
M  V30 5894 H 553.362 -1.84023 -0.894249 0
M  V30 5895 H 553.372 -2.44785 -3.26411 0
M  V30 5896 H 552.047 -3.31759 -2.50816 0
M  V30 5897 H 550.624 -1.68035 -3.32894 0
M  V30 5898 N 552.809 0.956637 -1.25245 0
M  V30 5899 C 554.055 1.70352 -1.10036 0
M  V30 5900 C 554.388 1.90869 0.358156 0
M  V30 5901 O 553.663 1.47819 1.26411 0
M  V30 5902 C 553.946 3.08766 -1.85298 0
M  V30 5903 C 553.799 2.95672 -3.38966 0
M  V30 5904 C 555.118 4.08622 -1.63451 0
M  V30 5905 H 552.237 0.618279 -0.401123 0
M  V30 5906 H 554.879 1.11212 -1.54051 0
M  V30 5907 H 553.029 3.59252 -1.47887 0
M  V30 5908 H 554.701 2.52527 -3.86041 0
M  V30 5909 H 552.944 2.31634 -3.6678 0
M  V30 5910 H 553.615 3.93776 -3.86839 0
M  V30 5911 H 556.091 3.67038 -1.96015 0
M  V30 5912 H 554.967 5.03514 -2.18551 0
M  V30 5913 H 555.228 4.3834 -0.575357 0
M  V30 5914 N 554.287 1.06798 1.15896 0
M  V30 5915 C 555.235 0.677525 2.22514 0
M  V30 5916 C 556.229 -0.308994 1.66558 0
M  V30 5917 O 557.435 -0.173308 1.79164 0
M  V30 5918 H 553.81 0.200994 0.724642 0
M  V30 5919 H 555.781 1.5865 2.52731 0
M  V30 5920 C 554.53 0.0854153 3.47595 0
M  V30 5921 H 553.853 0.835645 3.90969 0
M  V30 5922 H 555.293 -0.150199 4.23734 0
M  V30 5923 C 553.752 -1.1724 3.15843 0
M  V30 5924 O 554.282 -2.25965 3.32119 0
M  V30 5925 N 552.488 -1.07636 2.69931 0
M  V30 5926 H 552.035 -0.191559 2.56887 0
M  V30 5927 H 551.993 -1.91876 2.4906 0
M  V30 5928 N 555.766 -1.3263 0.851289 0
M  V30 5929 C 556.676 -2.32722 0.296268 0
M  V30 5930 C 557.692 -1.63901 -0.584162 0
M  V30 5931 O 558.868 -1.95465 -0.485334 0
M  V30 5932 C 555.933 -3.42942 -0.509103 0
M  V30 5933 C 554.994 -4.2746 0.397069 0
M  V30 5934 C 554.227 -5.32416 -0.36996 0
M  V30 5935 O 554.45 -5.47491 -1.6003 0
M  V30 5936 O 553.384 -6.01327 0.262493 0
M  V30 5937 H 557.21 -2.82078 1.12543 0
M  V30 5938 H 554.795 -1.36194 0.614135 0
M  V30 5939 H 556.677 -4.1017 -0.96634 0
M  V30 5940 H 555.352 -2.95781 -1.31512 0
M  V30 5941 H 554.259 -3.63053 0.902411 0
M  V30 5942 H 555.592 -4.78136 1.16818 0
M  V30 5943 N 557.244 -0.608902 -1.45362 0
M  V30 5944 C 558.655 -0.189511 -1.85736 0
M  V30 5945 C 559.006 1.2539 -1.50903 0
M  V30 5946 O 558.131 1.95094 -0.936347 0
M  V30 5947 C 558.726 -0.33716 -3.37118 0
M  V30 5948 C 557.285 0.0275487 -3.7639 0
M  V30 5949 C 556.432 -0.660983 -2.69307 0
M  V30 5950 H 559.383 -0.815499 -1.36144 0
M  V30 5951 H 559.404 0.430257 -3.7806 0
M  V30 5952 H 558.916 -1.38779 -3.62439 0
M  V30 5953 H 557.017 1.0773 -3.56686 0
M  V30 5954 H 557.13 -0.367018 -4.77692 0
M  V30 5955 H 555.494 -0.0984958 -2.54509 0
M  V30 5956 H 556.277 -1.71377 -2.97464 0
M  V30 5957 N 558.722 1.53707 -0.348139 0
M  V30 5958 C 559.962 2.02899 0.247254 0
M  V30 5959 C 560.326 1.23033 1.47401 0
M  V30 5960 O 561.527 1.62146 2.14388 0
M  V30 5961 C 559.798 3.53156 0.549151 0
M  V30 5962 S 561.357 4.24247 1.1207 0
M  V30 5963 H 558.175 0.707213 0.0732894 0
M  V30 5964 H 560.777 1.89338 -0.486965 0
M  V30 5965 H 559.481 4.08893 -0.351435 0
M  V30 5966 H 559.012 3.70845 1.31291 0
M  V30 5967 H 561.027 4.33958 2.40613 0
M  V30 5968 N 560.2 0.0768682 1.57412 0
M  V30 5969 C 561.425 -0.603404 1.98428 0
M  V30 5970 C 561.85 -1.62047 0.955108 0
M  V30 5971 O 561.208 -1.81129 -0.0786778 0
M  V30 5972 C 561.256 -1.24396 3.38464 0
M  V30 5973 O 560.36 -2.35982 3.3821 0
M  V30 5974 H 559.701 -0.154741 0.645718 0
M  V30 5975 H 562.231 0.152885 2.04028 0
M  V30 5976 H 562.241 -1.5896 3.7576 0
M  V30 5977 H 560.916 -0.498735 4.12899 0
M  V30 5978 H 559.493 -2.03173 3.1269 0
M  V30 5979 N 561.678 -1.56367 -0.196722 0
M  V30 5980 C 562.61 -1.90941 -1.26784 0
M  V30 5981 C 563.623 -0.799928 -1.41792 0
M  V30 5982 O 564.812 -1.07833 -1.42247 0
M  V30 5983 C 561.912 -2.12477 -2.6402 0
M  V30 5984 C 561.085 -3.43616 -2.70641 0
M  V30 5985 C 560.144 -3.54284 -3.89062 0
M  V30 5986 O 559.17 -4.2712 -3.76241 0
M  V30 5987 N 560.372 -2.87252 -5.04447 0
M  V30 5988 H 563.137 -2.83417 -0.974417 0
M  V30 5989 H 560.698 -1.57215 -0.386649 0
M  V30 5990 H 562.69 -2.16904 -3.41665 0
M  V30 5991 H 561.26 -1.26508 -2.85857 0
M  V30 5992 H 560.48 -3.51072 -1.79283 0
M  V30 5993 H 561.768 -4.29958 -2.72054 0
M  V30 5994 H 561.166 -2.27901 -5.17762 0
M  V30 5995 H 559.723 -2.97308 -5.80044 0
M  V30 5996 N 563.156 0.464375 -1.50603 0
M  V30 5997 C 564.567 1.04507 -1.5471 0
M  V30 5998 C 564.918 1.9297 -0.354542 0
M  V30 5999 O 564.043 2.09763 0.531812 0
M  V30 6000 C 564.638 1.90207 -2.80369 0
M  V30 6001 C 563.197 2.43373 -2.87135 0
M  V30 6002 C 562.344 1.21886 -2.49076 0
M  V30 6003 H 565.295 0.246716 -1.56771 0
M  V30 6004 H 565.316 2.75353 -2.62604 0
M  V30 6005 H 564.828 1.25796 -3.67147 0
M  V30 6006 H 562.929 3.11318 -2.04724 0
M  V30 6007 H 563.042 2.7802 -3.90181 0
M  V30 6008 H 561.406 1.55575 -2.01664 0
M  V30 6009 H 562.189 0.591268 -3.3817 0
M  V30 6010 N 564.634 1.40294 0.718013 0
M  V30 6011 C 565.859 1.41941 1.5122 0
M  V30 6012 C 566.284 0.0202371 1.88089 0
M  V30 6013 O 565.642 -0.971078 1.53101 0
M  V30 6014 C 565.69 2.3141 2.76554 0
M  V30 6015 O 564.794 1.75567 3.73162 0
M  V30 6016 H 564.135 0.482644 0.456016 0
M  V30 6017 H 566.665 1.84494 0.884478 0
M  V30 6018 H 566.675 2.46513 3.25108 0
M  V30 6019 H 565.35 3.33085 2.49053 0
M  V30 6020 H 563.927 1.69798 3.31999 0
M  V30 6021 N 566.112 -0.949982 1.2575 0
M  V30 6022 C 567.36 -1.6918 1.10555 0
M  V30 6023 C 567.681 -1.91773 -0.353298 0
M  V30 6024 O 566.951 -1.50814 -1.25027 0
M  V30 6025 H 565.531 -0.626952 0.406129 0
M  V30 6026 H 568.193 -1.1419 1.57945 0
M  V30 6027 H 567.289 -2.66915 1.61749 0
M  V30 6028 N 567.59 -1.07411 -1.15328 0
M  V30 6029 C 568.867 -0.710732 -1.82231 0
M  V30 6030 C 569.247 0.806732 -1.95077 0
M  V30 6031 O 568.595 1.72139 -1.50268 0
M  V30 6032 C 568.805 -1.42586 -3.18544 0
M  V30 6033 C 570.153 -1.57836 -3.94174 0
M  V30 6034 O 571.177 -1.38669 -3.281 0
M  V30 6035 O 570.036 -1.8938 -5.12638 0
M  V30 6036 H 567.13 -0.25297 -0.78736 0
M  V30 6037 H 569.676 -1.17508 -1.22434 0
M  V30 6038 H 568.448 -2.46008 -3.04296 0
M  V30 6039 H 568.071 -0.952332 -3.86026 0
M  V30 6040 N 569.068 1.32177 -0.85831 0
M  V30 6041 C 570.484 1.49873 -0.548656 0
M  V30 6042 C 570.684 1.79278 0.919874 0
M  V30 6043 O 569.74 1.86451 1.70271 0
M  V30 6044 C 571.053 2.64043 -1.4388 0
M  V30 6045 C 572.601 2.77928 -1.43961 0
M  V30 6046 C 573.076 3.95182 -2.31506 0
M  V30 6047 N 574.567 4.0245 -2.29321 0
M  V30 6048 C 575.302 4.9242 -2.93786 0
M  V30 6049 N 574.798 5.87373 -3.67376 0
M  V30 6050 N 576.591 4.85572 -2.83155 0
M  V30 6051 H 568.742 1.11357 -1.80868 0
M  V30 6052 H 571.005 0.549175 -0.772729 0
M  V30 6053 H 570.711 2.49055 -2.48324 0
M  V30 6054 H 570.585 3.59912 -1.12885 0
M  V30 6055 H 572.972 2.92338 -0.402813 0
M  V30 6056 H 573.053 1.82762 -1.78974 0
M  V30 6057 H 572.697 3.81531 -3.35256 0
M  V30 6058 H 572.627 4.89633 -1.93823 0
M  V30 6059 H 575.118 3.34507 -1.75822 0
M  V30 6060 H 575.431 6.52728 -4.13722 0
M  V30 6061 H 573.776 5.87388 -3.71484 0
M  V30 6062 H 576.967 4.10363 -2.25211 0
M  V30 6063 H 577.14 5.55486 -3.33676 0
M  V30 6064 N 570.547 0.616602 1.45037 0
M  V30 6065 C 571.772 0.120192 2.07051 0
M  V30 6066 C 572.197 -1.19008 1.45666 0
M  V30 6067 O 571.555 -1.7267 0.552692 0
M  V30 6068 C 571.603 0.00354901 3.606 0
M  V30 6069 O 570.707 -1.04431 3.98958 0
M  V30 6070 H 570.048 0.0781599 0.659384 0
M  V30 6071 H 572.578 0.849167 1.86146 0
M  V30 6072 H 572.588 -0.191754 4.07549 0
M  V30 6073 H 571.263 0.960239 4.04663 0
M  V30 6074 H 569.84 -0.824749 3.63665 0
M  V30 6075 N 572.025 -1.5352 0.356285 0
M  V30 6076 C 572.955 -2.28372 -0.486661 0
M  V30 6077 C 573.936 -1.30432 -1.09185 0
M  V30 6078 O 575.121 -1.59291 -1.11085 0
M  V30 6079 C 572.251 -3.06604 -1.63129 0
M  V30 6080 C 571.205 -4.12154 -1.15381 0
M  V30 6081 C 570.531 -4.78415 -2.38796 0
M  V30 6082 C 571.831 -5.21724 -0.245179 0
M  V30 6083 H 573.525 -2.99083 0.137797 0
M  V30 6084 H 571.071 -1.43841 0.0677134 0
M  V30 6085 H 573.024 -3.57712 -2.22755 0
M  V30 6086 H 571.748 -2.33568 -2.28284 0
M  V30 6087 H 570.407 -3.61978 -0.580294 0
M  V30 6088 H 570.055 -4.01959 -3.02387 0
M  V30 6089 H 569.755 -5.49734 -2.07524 0
M  V30 6090 H 571.279 -5.32313 -2.99125 0
M  V30 6091 H 572.693 -5.68391 -0.748646 0
M  V30 6092 H 571.09 -6.00095 -0.0237608 0
M  V30 6093 H 572.16 -4.79596 0.715229 0
M  V30 6094 N 573.503 -0.0852151 -1.57369 0
M  V30 6095 C 574.435 0.907099 -2.10486 0
M  V30 6096 C 575.448 1.25259 -1.03991 0
M  V30 6097 O 576.637 1.20743 -1.31467 0
M  V30 6098 C 573.737 2.21908 -2.56145 0
M  V30 6099 C 572.91 2.05042 -3.86363 0
M  V30 6100 C 571.969 3.19664 -4.17973 0
M  V30 6101 O 570.995 2.94062 -4.87356 0
M  V30 6102 N 572.197 4.45151 -3.72587 0
M  V30 6103 H 574.962 0.453505 -2.96249 0
M  V30 6104 H 572.523 0.100157 -1.6159 0
M  V30 6105 H 574.515 2.97519 -2.74343 0
M  V30 6106 H 573.085 2.58723 -1.75446 0
M  V30 6107 H 572.305 1.13819 -3.77411 0
M  V30 6108 H 573.593 1.91039 -4.71574 0
M  V30 6109 H 572.991 4.68834 -3.16561 0
M  V30 6110 H 571.548 5.17744 -3.9596 0
M  V30 6111 N 574.981 1.5647 0.188427 0
M  V30 6112 C 576.209 1.85131 0.923803 0
M  V30 6113 C 576.624 0.668537 1.76567 0
M  V30 6114 O 575.981 -0.362662 1.7886 0
M  V30 6115 C 576.032 3.12661 1.81453 0
M  V30 6116 O 575.753 4.26378 1.00665 0
M  V30 6117 C 577.254 3.54548 2.66103 0
M  V30 6118 H 574.474 0.614624 0.269218 0
M  V30 6119 H 577.018 2.03581 0.193671 0
M  V30 6120 H 575.173 2.96088 2.49821 0
M  V30 6121 H 575.587 4.99041 1.61425 0
M  V30 6122 H 577.061 4.4673 3.24247 0
M  V30 6123 H 577.538 2.77853 3.40139 0
M  V30 6124 H 578.144 3.73674 2.03096 0
M  V30 6125 N 576.459 -0.456382 1.50847 0
M  V30 6126 C 577.687 -1.23026 1.66349 0
M  V30 6127 C 578.102 -1.85473 0.352868 0
M  V30 6128 O 577.459 -1.69885 -0.666739 0
M  V30 6129 C 577.51 -2.32827 2.76539 0
M  V30 6130 O 577.231 -1.72938 4.02522 0
M  V30 6131 C 578.732 -3.23448 3.03144 0
M  V30 6132 H 575.952 -0.371527 0.558756 0
M  V30 6133 H 578.496 -0.543082 1.97157 0
M  V30 6134 H 576.651 -2.97294 2.48384 0
M  V30 6135 H 577.065 -2.45357 4.63573 0
M  V30 6136 H 578.539 -3.96669 3.83872 0
M  V30 6137 H 579.016 -3.83094 2.14793 0
M  V30 6138 H 579.622 -2.64702 3.32886 0
M  V30 6139 N 577.937 -1.40673 -0.710563 0
M  V30 6140 C 579.162 -1.42741 -1.50465 0
M  V30 6141 C 579.587 -0.0302116 -1.88076 0
M  V30 6142 O 578.945 0.962945 -1.53613 0
M  V30 6143 C 578.993 -2.32873 -2.75322 0
M  V30 6144 O 578.097 -1.77544 -3.72226 0
M  V30 6145 H 577.438 -0.485056 -0.45345 0
M  V30 6146 H 579.968 -1.84961 -0.874681 0
M  V30 6147 H 579.978 -2.48233 -3.23797 0
M  V30 6148 H 578.653 -3.34401 -2.47283 0
M  V30 6149 H 577.23 -1.71556 -3.31093 0
M  V30 6150 N 579.415 0.9433 -1.26252 0
M  V30 6151 C 580.826 1.50404 -1.10614 0
M  V30 6152 C 581.177 1.93666 0.31429 0
M  V30 6153 O 580.302 1.79709 1.20555 0
M  V30 6154 C 580.897 2.73336 -2.00182 0
M  V30 6155 C 579.456 3.25686 -1.88695 0
M  V30 6156 C 578.603 1.98474 -1.93658 0
M  V30 6157 H 581.554 0.759006 -1.39373 0
M  V30 6158 H 581.575 3.47567 -1.54847 0
M  V30 6159 H 581.087 2.41818 -3.03555 0
M  V30 6160 H 579.188 3.61998 -0.882489 0
M  V30 6161 H 579.301 3.92935 -2.74115 0
M  V30 6162 H 577.665 2.14278 -1.37684 0
M  V30 6163 H 578.448 1.6929 -2.98657 0
M  V30 6164 N 580.893 1.08022 1.14757 0
M  V30 6165 C 582.304 0.829144 1.67279 0
M  V30 6166 C 582.655 -0.644721 1.85305 0
M  V30 6167 O 581.78 -1.49838 1.56133 0
M  V30 6168 C 582.375 1.49855 3.03857 0
M  V30 6169 C 580.934 1.29482 3.53428 0
M  V30 6170 C 580.081 1.56386 2.28995 0
M  V30 6171 H 583.032 1.24134 0.988762 0
M  V30 6172 H 583.053 0.923572 3.69121 0
M  V30 6173 H 582.565 2.57123 2.90705 0
M  V30 6174 H 580.666 0.242669 3.71809 0
M  V30 6175 H 580.779 2.01974 4.34446 0
M  V30 6176 H 579.143 0.985217 2.34874 0
M  V30 6177 H 579.926 2.64851 2.18423 0
M  V30 6178 N 582.371 -1.3172 0.865308 0
M  V30 6179 C 583.617 -1.97168 0.474633 0
M  V30 6180 C 583.95 -1.68263 -0.969604 0
M  V30 6181 O 583.225 -0.976588 -1.68205 0
M  V30 6182 C 583.508 -3.52689 0.726808 0
M  V30 6183 C 583.361 -3.91185 2.22024 0
M  V30 6184 C 584.68 -4.39689 0.190201 0
M  V30 6185 H 581.799 -0.716185 0.17392 0
M  V30 6186 H 584.441 -1.55925 1.08569 0
M  V30 6187 H 582.591 -3.8795 0.206705 0
M  V30 6188 H 584.263 -3.66049 2.80724 0
M  V30 6189 H 582.506 -3.3996 2.69462 0
M  V30 6190 H 583.177 -4.99604 2.34735 0
M  V30 6191 H 585.653 -4.11225 0.635103 0
M  V30 6192 H 584.529 -5.47469 0.396132 0
M  V30 6193 H 584.79 -4.32683 -0.907625 0
M  V30 6194 N 583.85 -0.624285 -1.44708 0
M  V30 6195 C 585.096 -0.126237 -2.02407 0
M  V30 6196 C 585.428 1.24618 -1.48943 0
M  V30 6197 O 584.704 1.82569 -0.670742 0
M  V30 6198 C 584.986 -0.105449 -3.59946 0
M  V30 6199 C 584.84 -1.50972 -4.23707 0
M  V30 6200 C 586.159 0.573629 -4.36346 0
M  V30 6201 H 583.278 -0.0473472 -0.735478 0
M  V30 6202 H 585.92 -0.799452 -1.72362 0
M  V30 6203 H 584.07 0.46783 -3.85673 0
M  V30 6204 H 585.742 -2.13136 -4.0911 0
M  V30 6205 H 583.985 -2.0656 -3.81465 0
M  V30 6206 H 584.656 -1.44727 -5.32689 0
M  V30 6207 H 587.132 0.0861787 -4.16011 0
M  V30 6208 H 586.008 0.557338 -5.46063 0
M  V30 6209 H 586.269 1.64276 -4.10446 0
M  V30 6210 N 585.328 1.53329 -0.364422 0
M  V30 6211 C 586.291 2.24323 0.470292 0
M  V30 6212 C 587.291 1.25068 1.01067 0
M  V30 6213 O 588.481 1.49354 0.896605 0
M  V30 6214 C 585.613 2.97908 1.65722 0
M  V30 6215 H 586.806 2.9952 -0.150917 0
M  V30 6216 H 584.359 1.55868 -0.116092 0
M  V30 6217 H 585.094 2.2695 2.31655 0
M  V30 6218 H 584.879 3.70732 1.27671 0
M  V30 6219 H 586.369 3.5188 2.24878 0
M  V30 6220 N 586.806 0.0935595 1.57322 0
M  V30 6221 C 588.217 -0.435807 1.81542 0
M  V30 6222 C 588.568 -1.68263 1.00907 0
M  V30 6223 O 587.693 -2.15087 0.237983 0
M  V30 6224 C 588.288 -0.797436 3.29282 0
M  V30 6225 C 586.847 -1.27155 3.54272 0
M  V30 6226 C 585.994 -0.267455 2.76007 0
M  V30 6227 H 588.945 0.31902 1.5546 0
M  V30 6228 H 588.966 -1.6571 3.42521 0
M  V30 6229 H 588.478 0.110206 3.87943 0
M  V30 6230 H 586.579 -2.19696 3.00939 0
M  V30 6231 H 586.692 -1.23445 4.62923 0
M  V30 6232 H 585.056 -0.749282 2.43429 0
M  V30 6233 H 585.839 0.632839 3.37417 0
M  V30 6234 N 588.284 -1.56567 -0.180126 0
M  V30 6235 C 589.532 -1.81133 -0.896392 0
M  V30 6236 C 589.853 -0.669114 -1.83161 0
M  V30 6237 O 589.123 0.311616 -1.93406 0
M  V30 6238 H 587.703 -0.668172 -0.333999 0
M  V30 6239 H 590.365 -1.94048 -0.182051 0
M  V30 6240 H 589.461 -2.74854 -1.47857 0
M  V30 6241 N 589.762 0.448376 -1.51087 0
M  V30 6242 C 590.71 1.56407 -1.72161 0
M  V30 6243 C 591.704 1.58878 -0.587721 0
M  V30 6244 O 592.91 1.62755 -0.768822 0
M  V30 6245 H 589.285 0.519423 -0.543786 0
M  V30 6246 H 591.256 1.35803 -2.65707 0
M  V30 6247 C 590.005 2.94163 -1.85373 0
M  V30 6248 H 589.328 2.9299 -2.72024 0
M  V30 6249 H 590.768 3.71625 -2.04135 0
M  V30 6250 C 589.227 3.31317 -0.610803 0
M  V30 6251 O 589.757 4.00985 0.239636 0
M  V30 6252 N 587.963 2.86966 -0.458127 0
M  V30 6253 H 587.51 2.30443 -1.15124 0
M  V30 6254 H 587.468 3.12188 0.372289 0
M  V30 6255 N 591.24 1.41047 0.703093 0
M  V30 6256 C 592.15 1.44645 1.84703 0
M  V30 6257 C 593.166 0.337778 1.7069 0
M  V30 6258 O 594.342 0.584327 1.92737 0
M  V30 6259 C 591.407 1.31928 3.20618 0
M  V30 6260 C 590.468 2.53047 3.46794 0
M  V30 6261 C 589.701 2.40927 4.76224 0
M  V30 6262 O 589.924 1.42978 5.5219 0
M  V30 6263 O 588.858 3.30543 5.03016 0
M  V30 6264 H 592.684 2.41139 1.84624 0
M  V30 6265 H 590.269 1.22504 0.855167 0
M  V30 6266 H 592.151 1.27092 4.01778 0
M  V30 6267 H 590.826 0.385469 3.21397 0
M  V30 6268 H 589.733 2.6346 2.65593 0
M  V30 6269 H 591.066 3.45231 3.50822 0
M  V30 6270 N 592.718 -0.936591 1.26751 0
M  V30 6271 C 593.666 -2.0573 1.08527 0
M  V30 6272 C 594.66 -1.69397 0.0108784 0
M  V30 6273 O 595.866 -1.79215 0.167915 0
M  V30 6274 H 592.241 -0.673691 0.334133 0
M  V30 6275 H 594.212 -2.1825 2.03493 0
M  V30 6276 C 592.961 -3.39738 0.739845 0
M  V30 6277 H 592.284 -3.68174 1.55845 0
M  V30 6278 H 593.724 -4.18955 0.652149 0
M  V30 6279 C 592.183 -3.32292 -0.555288 0
M  V30 6280 O 592.713 -3.68794 -1.59229 0
M  V30 6281 N 590.919 -2.85394 -0.54762 0
M  V30 6282 H 590.466 -2.55886 0.296667 0
M  V30 6283 H 590.424 -2.80795 -1.41427 0
M  V30 6284 N 594.196 -1.08629 -1.14182 0
M  V30 6285 C 595.444 -0.815731 -1.84906 0
M  V30 6286 C 595.765 0.660441 -1.83475 0
M  V30 6287 O 595.035 1.47888 -1.28476 0
M  V30 6288 H 593.615 -0.298773 -0.684648 0
M  V30 6289 H 596.277 -1.37274 -1.38354 0
M  V30 6290 H 595.373 -1.16193 -2.89665 0
M  V30 6291 N 595.674 1.31259 -0.872281 0
M  V30 6292 C 596.604 2.30929 -0.345554 0
M  V30 6293 C 597.585 1.60449 0.5648 0
M  V30 6294 O 598.77 1.8814 0.481335 0
M  V30 6295 C 595.9 3.44348 0.451823 0
M  V30 6296 C 594.854 4.26435 -0.365641 0
M  V30 6297 C 594.18 5.31785 0.557562 0
M  V30 6298 C 595.48 4.97159 -1.60095 0
M  V30 6299 H 597.174 2.75234 -1.17841 0
M  V30 6300 H 594.72 1.3232 -0.568094 0
M  V30 6301 H 596.673 4.13128 0.830854 0
M  V30 6302 H 595.397 2.98816 1.31821 0
M  V30 6303 H 594.056 3.59326 -0.726649 0
M  V30 6304 H 593.704 4.82502 1.4213 0
M  V30 6305 H 593.404 5.87598 0.0144878 0
M  V30 6306 H 594.928 6.03424 0.933387 0
M  V30 6307 H 596.342 5.58523 -1.29323 0
M  V30 6308 H 594.739 5.62779 -2.08327 0
M  V30 6309 H 595.809 4.24012 -2.35249 0
M  V30 6310 N 597.152 0.631951 1.44375 0
M  V30 6311 C 598.115 -0.0628142 2.29114 0
M  V30 6312 C 599.115 -0.771494 1.41084 0
M  V30 6313 O 600.305 -0.615959 1.62947 0
M  V30 6314 C 597.437 -1.09953 3.22681 0
M  V30 6315 H 598.63 0.682509 2.92031 0
M  V30 6316 H 596.183 0.392128 1.51301 0
M  V30 6317 H 596.918 -1.87481 2.64616 0
M  V30 6318 H 596.703 -0.595286 3.87555 0
M  V30 6319 H 598.193 -1.58538 3.86336 0
M  V30 6320 N 598.631 -1.53133 0.372548 0
M  V30 6321 C 599.877 -2.01654 -0.215277 0
M  V30 6322 C 600.21 -1.25914 -1.47849 0
M  V30 6323 O 599.485 -0.3548 -1.91237 0
M  V30 6324 C 599.768 -3.56609 -0.500187 0
M  V30 6325 C 599.621 -4.43036 0.777145 0
M  V30 6326 C 600.94 -4.20528 -1.29786 0
M  V30 6327 H 598.059 -0.732991 -0.0767686 0
M  V30 6328 H 600.701 -1.83335 0.498814 0
M  V30 6329 H 598.851 -3.7235 -1.10852 0
M  V30 6330 H 600.523 -4.39079 1.41447 0
M  V30 6331 H 598.766 -4.10723 1.39604 0
M  V30 6332 H 599.437 -5.49424 0.532662 0
M  V30 6333 H 601.913 -4.08663 -0.783198 0
M  V30 6334 H 600.789 -5.28962 -1.46596 0
M  V30 6335 H 601.05 -3.77051 -2.30836 0
M  V30 6336 N 600.109 -0.101901 -1.5727 0
M  V30 6337 C 601.52 0.426173 -1.81771 0
M  V30 6338 C 601.871 1.67725 -1.01797 0
M  V30 6339 O 600.996 2.14958 -0.249386 0
M  V30 6340 C 601.591 0.779962 -3.297 0
M  V30 6341 C 600.15 1.25275 -3.54941 0
M  V30 6342 C 599.297 0.252814 -2.76145 0
M  V30 6343 H 602.248 -0.32726 -1.55289 0
M  V30 6344 H 602.269 1.63891 -3.43395 0
M  V30 6345 H 601.781 -0.130778 -3.8788 0
M  V30 6346 H 599.882 2.18097 -3.021 0
M  V30 6347 H 599.995 1.20988 -4.63572 0
M  V30 6348 H 598.359 0.736362 -2.43823 0
M  V30 6349 H 599.142 -0.650724 -3.37076 0
M  V30 6350 N 601.587 1.56661 0.17182 0
M  V30 6351 C 602.833 1.82235 0.889845 0
M  V30 6352 C 603.166 0.679673 1.81918 0
M  V30 6353 O 602.441 -0.318404 1.91876 0
M  V30 6354 C 602.724 3.18195 1.68595 0
M  V30 6355 C 602.577 4.42989 0.779773 0
M  V30 6356 C 603.896 3.5109 2.65375 0
M  V30 6357 H 601.015 0.66291 0.322056 0
M  V30 6358 H 603.657 1.89358 0.15608 0
M  V30 6359 H 601.807 3.12253 2.3115 0
M  V30 6360 H 603.479 4.60997 0.16714 0
M  V30 6361 H 601.722 4.33711 0.0877964 0
M  V30 6362 H 602.393 5.3467 1.3723 0
M  V30 6363 H 604.869 3.57482 2.12946 0
M  V30 6364 H 603.745 4.47298 3.18144 0
M  V30 6365 H 604.006 2.75768 3.45549 0
M  V30 6366 N 603.065 -0.440357 1.51323 0
M  V30 6367 C 604.476 -1.02032 1.56353 0
M  V30 6368 C 604.827 -1.92382 0.385197 0
M  V30 6369 O 603.952 -2.10583 -0.498373 0
M  V30 6370 C 604.547 -1.85723 2.83359 0
M  V30 6371 C 603.106 -2.38774 2.90971 0
M  V30 6372 C 602.253 -1.17908 2.50984 0
M  V30 6373 H 605.204 -0.221744 1.57143 0
M  V30 6374 H 605.225 -2.71141 2.66951 0
M  V30 6375 H 604.737 -1.19939 3.69102 0
M  V30 6376 H 602.838 -3.08021 2.09651 0
M  V30 6377 H 602.951 -2.71778 3.94555 0
M  V30 6378 H 601.315 -1.52347 2.04114 0
M  V30 6379 H 602.098 -0.537393 3.39068 0
M  V30 6380 N 604.543 -1.41418 -0.695603 0
M  V30 6381 C 605.473 -1.46035 -1.82197 0
M  V30 6382 C 606.454 -0.319025 -1.67082 0
M  V30 6383 O 607.639 -0.530462 -1.86815 0
M  V30 6384 C 604.769 -1.34179 -3.20333 0
M  V30 6385 C 603.723 -2.46123 -3.50154 0
M  V30 6386 C 603.049 -2.19332 -4.87645 0
M  V30 6387 C 604.349 -3.88463 -3.49133 0
M  V30 6388 H 606.043 -2.40303 -1.78591 0
M  V30 6389 H 603.589 -1.15663 -0.857797 0
M  V30 6390 H 605.542 -1.36021 -3.98844 0
M  V30 6391 H 604.266 -0.363952 -3.24566 0
M  V30 6392 H 602.925 -2.43563 -2.73994 0
M  V30 6393 H 602.573 -1.19891 -4.88503 0
M  V30 6394 H 602.273 -2.94344 -5.08562 0
M  V30 6395 H 603.797 -2.22889 -5.68465 0
M  V30 6396 H 605.211 -3.92738 -4.17648 0
M  V30 6397 H 603.608 -4.63158 -3.81582 0
M  V30 6398 H 604.678 -4.16617 -2.48109 0
M  V30 6399 N 606.021 0.929856 -1.27246 0
M  V30 6400 C 607.437 1.20542 -1.04603 0
M  V30 6401 C 607.637 2.00276 0.221754 0
M  V30 6402 O 606.693 2.34835 0.927833 0
M  V30 6403 C 608.006 1.95566 -2.28417 0
M  V30 6404 C 609.554 2.08513 -2.33433 0
M  V30 6405 C 610.029 2.86943 -3.5697 0
M  V30 6406 N 611.52 2.94512 -3.57515 0
M  V30 6407 C 612.255 3.55656 -4.49774 0
M  V30 6408 N 611.751 4.18209 -5.52334 0
M  V30 6409 N 613.544 3.53038 -4.37402 0
M  V30 6410 H 605.695 0.397113 -2.08655 0
M  V30 6411 H 607.958 0.238277 -0.917566 0
M  V30 6412 H 607.664 1.44395 -3.20691 0
M  V30 6413 H 607.538 2.9619 -2.33563 0
M  V30 6414 H 609.925 2.58872 -1.41666 0
M  V30 6415 H 610.006 1.07117 -2.32292 0
M  V30 6416 H 609.65 2.37268 -4.49072 0
M  V30 6417 H 609.58 3.8862 -3.55362 0
M  V30 6418 H 612.071 2.50053 -2.83341 0
M  V30 6419 H 612.384 4.62796 -6.18902 0
M  V30 6420 H 610.729 4.16761 -5.56179 0
M  V30 6421 H 613.92 3.0337 -3.56489 0
M  V30 6422 H 614.093 4.004 -5.09493 0
M  V30 6423 N 607.499 1.09233 1.13605 0
M  V30 6424 C 608.446 0.729921 2.18954 0
M  V30 6425 C 609.416 -0.287916 1.63586 0
M  V30 6426 O 610.601 -0.170003 1.90041 0
M  V30 6427 C 607.741 0.154489 3.44754 0
M  V30 6428 C 606.854 1.22613 4.14234 0
M  V30 6429 C 605.989 0.613657 5.27644 0
M  V30 6430 C 605.028 1.66674 5.8897 0
M  V30 6431 N 604.165 1.07545 6.93814 0
M  V30 6432 H 609.005 1.63257 2.49302 0
M  V30 6433 H 606.542 0.815693 1.22413 0
M  V30 6434 H 608.5 -0.196923 4.16735 0
M  V30 6435 H 607.13 -0.711433 3.14863 0
M  V30 6436 H 606.182 1.69485 3.40557 0
M  V30 6437 H 607.494 2.0238 4.55899 0
M  V30 6438 H 606.648 0.210976 6.06333 0
M  V30 6439 H 605.387 -0.215584 4.87223 0
M  V30 6440 H 604.392 2.07899 5.08978 0
M  V30 6441 H 605.617 2.49861 6.31464 0
M  V30 6442 H 603.563 0.267451 6.55455 0
M  V30 6443 H 603.48 1.81011 7.3401 0
M  V30 6444 H 604.748 0.698906 7.7636 0
M  V30 6445 N 608.977 -1.30795 0.87923 0
M  V30 6446 C 610.202 -2.01063 0.508769 0
M  V30 6447 C 610.627 -1.65508 -0.893803 0
M  V30 6448 O 609.985 -0.868616 -1.59138 0
M  V30 6449 C 610.033 -3.54054 0.683991 0
M  V30 6450 O 609.137 -4.11498 -0.272654 0
M  V30 6451 H 608.478 -0.632786 0.201191 0
M  V30 6452 H 611.008 -1.66776 1.18519 0
M  V30 6453 H 611.018 -4.03845 0.580798 0
M  V30 6454 H 609.693 -3.79271 1.70665 0
M  V30 6455 H 608.27 -3.72695 -0.12364 0
M  V30 6456 N 610.455 -0.639598 -1.44038 0
M  V30 6457 C 611.871 -0.305953 -1.5664 0
M  V30 6458 C 612.071 1.19055 -1.62567 0
M  V30 6459 O 611.127 1.97492 -1.57331 0
M  V30 6460 C 612.44 -1.00533 -2.83397 0
M  V30 6461 C 613.988 -0.984278 -2.97121 0
M  V30 6462 C 614.463 -1.66428 -4.26691 0
M  V30 6463 N 615.954 -1.63127 -4.33525 0
M  V30 6464 C 616.689 -2.12629 -5.32519 0
M  V30 6465 N 616.185 -2.70359 -6.3787 0
M  V30 6466 N 617.978 -2.03208 -5.24083 0
M  V30 6467 H 610.129 -1.6109 -1.38434 0
M  V30 6468 H 612.392 -0.676672 -0.663942 0
M  V30 6469 H 612.098 -2.06034 -2.85032 0
M  V30 6470 H 611.972 -0.548362 -3.73193 0
M  V30 6471 H 614.359 0.0622792 -2.95034 0
M  V30 6472 H 614.44 -1.47981 -2.08651 0
M  V30 6473 H 614.084 -2.71034 -4.29538 0
M  V30 6474 H 614.014 -1.14351 -5.14034 0
M  V30 6475 H 616.505 -1.20987 -3.58009 0
M  V30 6476 H 616.818 -3.05842 -7.09704 0
M  V30 6477 H 615.163 -2.74414 -6.38531 0
M  V30 6478 H 618.354 -1.57823 -4.40692 0
M  V30 6479 H 618.527 -2.42097 -6.01077 0
M  V30 6480 N 611.933 1.52934 -0.380664 0
M  V30 6481 C 613.344 1.86457 0.0952684 0
M  V30 6482 C 613.695 1.3007 1.46889 0
M  V30 6483 O 612.82 0.628636 2.07068 0
M  V30 6484 C 613.415 3.38323 0.179648 0
M  V30 6485 C 611.974 3.71589 0.599858 0
M  V30 6486 C 611.121 2.76228 -0.243572 0
M  V30 6487 H 614.072 1.46966 -0.59888 0
M  V30 6488 H 614.093 3.67113 1.00042 0
M  V30 6489 H 613.605 3.79333 -0.820228 0
M  V30 6490 H 611.706 3.36144 1.60742 0
M  V30 6491 H 611.819 4.77715 0.364003 0
M  V30 6492 H 610.183 2.53045 0.289855 0
M  V30 6493 H 610.966 3.20074 -1.24127 0
M  V30 6494 N 613.412 0.11024 1.57214 0
M  V30 6495 C 614.658 -0.550684 1.9518 0
M  V30 6496 C 614.991 -1.66885 0.993122 0
M  V30 6497 O 614.266 -1.94479 0.0287907 0
M  V30 6498 C 614.549 -1.09163 3.43155 0
M  V30 6499 C 614.402 0.0225198 4.49794 0
M  V30 6500 C 615.721 -1.98527 3.92778 0
M  V30 6501 H 612.84 -0.198706 0.709708 0
M  V30 6502 H 615.482 0.184024 1.89107 0
M  V30 6503 H 613.632 -1.71775 3.48462 0
M  V30 6504 H 615.304 0.657443 4.56591 0
M  V30 6505 H 613.547 0.686868 4.28328 0
M  V30 6506 H 614.218 -0.39706 5.5057 0
M  V30 6507 H 616.694 -1.458 3.8972 0
M  V30 6508 H 615.57 -2.33298 4.96853 0
M  V30 6509 H 615.831 -2.90846 3.32958 0
M  V30 6510 N 614.89 -1.56749 -0.16351 0
M  V30 6511 C 616.115 -1.86938 -0.898264 0
M  V30 6512 C 616.54 -0.697456 -1.74692 0
M  V30 6513 O 615.898 0.353327 -1.77824 0
M  V30 6514 C 615.946 -3.15599 -1.74441 0
M  V30 6515 O 615.05 -2.98371 -2.8469 0
M  V30 6516 H 614.391 -0.614659 -0.251178 0
M  V30 6517 H 616.921 -2.03979 -0.159298 0
M  V30 6518 H 616.931 -3.47202 -2.14277 0
M  V30 6519 H 615.606 -4.00505 -1.1211 0
M  V30 6520 H 614.183 -2.7814 -2.4838 0
M  V30 6521 N 616.368 0.432326 -1.51554 0
M  V30 6522 C 617.301 1.54525 -1.6792 0
M  V30 6523 C 618.279 1.53831 -0.526764 0
M  V30 6524 O 619.463 1.72884 -0.751233 0
M  V30 6525 C 616.59 2.931 -1.69736 0
M  V30 6526 C 615.636 3.11799 -2.91005 0
M  V30 6527 S 616.469 2.87565 -4.51737 0
M  V30 6528 C 617.625 4.28412 -4.56305 0
M  V30 6529 H 617.858 1.4041 -2.62054 0
M  V30 6530 H 615.391 0.622357 -1.41301 0
M  V30 6531 H 617.349 3.72974 -1.71467 0
M  V30 6532 H 616.01 3.04574 -0.767705 0
M  V30 6533 H 615.203 4.13127 -2.8869 0
M  V30 6534 H 614.805 2.39757 -2.87041 0
M  V30 6535 H 617.097 5.21692 -4.32254 0
M  V30 6536 H 618.04 4.35758 -5.58141 0
M  V30 6537 H 618.448 4.12301 -3.85576 0
M  V30 6538 N 617.846 1.41785 0.688094 0
M  V30 6539 C 619.123 1.32031 1.44316 0
M  V30 6540 C 619.503 -0.0486079 2.11044 0
M  V30 6541 O 618.851 -1.06332 2.02252 0
M  V30 6542 C 619.061 2.47906 2.45649 0
M  V30 6543 C 620.409 2.89415 3.10683 0
M  V30 6544 O 621.433 2.477 2.55975 0
M  V30 6545 O 620.292 3.61573 4.09789 0
M  V30 6546 H 617.386 0.519994 0.643067 0
M  V30 6547 H 619.932 1.53765 0.71794 0
M  V30 6548 H 618.704 3.39222 1.95048 0
M  V30 6549 H 618.327 2.28089 3.25671 0
M  V30 6550 N 619.324 -0.923095 1.27737 0
M  V30 6551 C 620.287 -2.00587 1.10894 0
M  V30 6552 C 621.287 -1.60718 0.0514927 0
M  V30 6553 O 622.477 -1.71658 0.296481 0
M  V30 6554 C 619.609 -3.33829 0.690717 0
M  V30 6555 H 620.802 -2.16959 2.07048 0
M  V30 6556 H 618.355 -1.10451 1.1059 0
M  V30 6557 H 619.09 -3.23157 -0.272 0
M  V30 6558 H 618.875 -3.64125 1.45448 0
M  V30 6559 H 620.365 -4.13336 0.595252 0
M  V30 6560 N 620.802 -1.09834 -1.13024 0
M  V30 6561 C 622.218 -0.828875 -1.36388 0
M  V30 6562 C 622.418 0.554756 -1.93713 0
M  V30 6563 O 621.474 1.30882 -2.15931 0
M  V30 6564 C 622.787 -1.92352 -2.3113 0
M  V30 6565 C 624.335 -1.95124 -2.44735 0
M  V30 6566 C 624.81 -3.03745 -3.42787 0
M  V30 6567 N 626.301 -3.03012 -3.5034 0
M  V30 6568 C 627.036 -3.83699 -4.26101 0
M  V30 6569 N 626.532 -4.74306 -5.04981 0
M  V30 6570 N 628.325 -3.71942 -4.21445 0
M  V30 6571 H 620.476 -1.99029 -0.74169 0
M  V30 6572 H 622.739 -0.864557 -0.388903 0
M  V30 6573 H 622.445 -2.91906 -1.96172 0
M  V30 6574 H 622.319 -1.80536 -3.3119 0
M  V30 6575 H 624.706 -0.962069 -2.78977 0
M  V30 6576 H 624.787 -2.11018 -1.44586 0
M  V30 6577 H 624.431 -4.02878 -3.09276 0
M  V30 6578 H 624.361 -2.85094 -4.42752 0
M  V30 6579 H 626.852 -2.37352 -2.94062 0
M  V30 6580 H 627.165 -5.32446 -5.60108 0
M  V30 6581 H 625.51 -4.78339 -5.04199 0
M  V30 6582 H 628.701 -3.00513 -3.589 0
M  V30 6583 H 628.874 -4.35062 -4.80235 0
M  V30 6584 N 622.28 1.30327 -0.886154 0
M  V30 6585 C 623.529 1.95373 -0.501243 0
M  V30 6586 C 623.842 1.70722 0.954634 0
M  V30 6587 O 625.048 2.29761 1.44644 0
M  V30 6588 C 623.504 3.49828 -0.845493 0
M  V30 6589 C 623.112 3.83296 -2.31922 0
M  V30 6590 C 624.856 4.2118 -0.529838 0
M  V30 6591 C 622.763 5.30935 -2.60504 0
M  V30 6592 H 621.693 0.731274 -0.183722 0
M  V30 6593 H 624.344 1.48258 -1.08129 0
M  V30 6594 H 622.726 3.95522 -0.19452 0
M  V30 6595 H 623.9 3.48508 -3.01461 0
M  V30 6596 H 622.215 3.2505 -2.60253 0
M  V30 6597 H 624.812 5.29825 -0.720401 0
M  V30 6598 H 625.155 4.12902 0.530828 0
M  V30 6599 H 625.688 3.81173 -1.13806 0
M  V30 6600 H 622.427 5.44265 -3.65316 0
M  V30 6601 H 621.947 5.67019 -1.95575 0
M  V30 6602 H 623.626 5.98381 -2.46066 0
M  V30 6603 N 623.758 0.647228 1.43697 0
M  V30 6604 C 624.69 -0.0866232 2.29036 0
M  V30 6605 C 625.703 -0.793051 1.42178 0
M  V30 6606 O 626.892 -0.651807 1.66174 0
M  V30 6607 C 623.992 -1.14552 3.18953 0
M  V30 6608 C 623.165 -0.518422 4.34317 0
M  V30 6609 C 622.224 -1.4734 5.05151 0
M  V30 6610 O 621.25 -0.984312 5.60625 0
M  V30 6611 N 622.452 -2.8075 5.08094 0
M  V30 6612 H 625.217 0.645834 2.92659 0
M  V30 6613 H 622.778 0.489567 1.54321 0
M  V30 6614 H 624.77 -1.78505 3.63205 0
M  V30 6615 H 623.34 -1.78001 2.56971 0
M  V30 6616 H 622.56 0.300079 3.93056 0
M  V30 6617 H 623.848 -0.080401 5.08736 0
M  V30 6618 H 623.246 -3.23052 4.64386 0
M  V30 6619 H 621.803 -3.40022 5.56083 0
M  V30 6620 N 625.236 -1.5273 0.388769 0
M  V30 6621 C 626.482 -2.01871 -0.193877 0
M  V30 6622 C 626.815 -1.27475 -1.46505 0
M  V30 6623 O 626.09 -0.375063 -1.90849 0
M  V30 6624 C 626.373 -3.5712 -0.462336 0
M  V30 6625 C 626.226 -4.42186 0.824091 0
M  V30 6626 C 627.545 -4.21881 -1.25319 0
M  V30 6627 H 624.664 -0.733764 -0.0689899 0
M  V30 6628 H 627.306 -1.82796 0.518231 0
M  V30 6629 H 625.456 -3.73504 -1.06896 0
M  V30 6630 H 627.128 -4.37554 1.46096 0
M  V30 6631 H 625.371 -4.09219 1.43952 0
M  V30 6632 H 626.042 -5.48828 0.590905 0
M  V30 6633 H 628.518 -4.0947 -0.73981 0
M  V30 6634 H 627.394 -5.30487 -1.40977 0
M  V30 6635 H 627.655 -3.79478 -2.26824 0
M  V30 6636 N 626.714 -0.118576 -1.57153 0
M  V30 6637 C 627.677 0.817464 -2.14127 0
M  V30 6638 C 628.677 1.1949 -1.07604 0
M  V30 6639 O 629.867 1.12048 -1.33382 0
M  V30 6640 C 626.999 2.10541 -2.68115 0
M  V30 6641 H 628.192 0.322339 -2.98163 0
M  V30 6642 H 625.745 0.130655 -1.55753 0
M  V30 6643 H 626.48 2.64485 -1.87665 0
M  V30 6644 H 626.265 1.84425 -3.4602 0
M  V30 6645 H 627.755 2.77453 -3.12105 0
M  V30 6646 N 628.193 1.56834 0.155195 0
M  V30 6647 C 629.125 1.94235 1.21677 0
M  V30 6648 C 630.138 0.83724 1.39621 0
M  V30 6649 O 631.327 1.11567 1.39338 0
M  V30 6650 C 628.427 2.19402 2.58294 0
M  V30 6651 C 627.6 3.50671 2.61436 0
M  V30 6652 C 626.659 3.64475 3.79532 0
M  V30 6653 O 625.685 4.36945 3.64784 0
M  V30 6654 N 626.887 3.00526 4.96653 0
M  V30 6655 H 629.652 2.85901 0.898932 0
M  V30 6656 H 627.213 1.58185 0.34483 0
M  V30 6657 H 629.205 2.25886 3.35794 0
M  V30 6658 H 627.775 1.34042 2.82403 0
M  V30 6659 H 626.995 3.55702 1.69912 0
M  V30 6660 H 628.283 4.3702 2.60559 0
M  V30 6661 H 627.681 2.41549 5.11538 0
M  V30 6662 H 626.238 3.12583 5.71958 0
M  V30 6663 N 629.671 -0.424282 1.51781 0
M  V30 6664 C 630.581 -1.54087 1.76902 0
M  V30 6665 C 631.597 -1.61249 0.653826 0
M  V30 6666 O 632.773 -1.78247 0.937552 0
M  V30 6667 C 629.838 -2.8996 1.90063 0
M  V30 6668 C 628.899 -2.92809 3.13945 0
M  V30 6669 C 628.132 -4.22201 3.26469 0
M  V30 6670 O 628.355 -5.15286 2.44616 0
M  V30 6671 O 627.289 -4.31599 4.1953 0
M  V30 6672 H 631.115 -1.358 2.71647 0
M  V30 6673 H 628.7 -0.608618 1.36441 0
M  V30 6674 H 630.582 -3.70575 2.0063 0
M  V30 6675 H 629.257 -3.08347 0.985067 0
M  V30 6676 H 628.164 -2.11102 3.08847 0
M  V30 6677 H 629.497 -2.79369 4.05233 0
M  V30 6678 N 631.149 -1.42148 -0.680565 0
M  V30 6679 C 632.096 -1.45175 -1.79424 0
M  V30 6680 C 633.066 -0.304352 -1.63288 0
M  V30 6681 O 634.251 -0.507591 -1.83924 0
M  V30 6682 C 631.391 -1.35429 -3.17416 0
M  V30 6683 C 630.504 -2.60158 -3.4488 0
M  V30 6684 C 629.639 -2.42596 -4.72568 0
M  V30 6685 C 628.678 -3.62727 -4.93047 0
M  V30 6686 N 627.815 -3.44143 -6.11973 0
M  V30 6687 H 632.655 -2.40349 -1.76172 0
M  V30 6688 H 630.192 -1.19334 -0.860107 0
M  V30 6689 H 632.15 -1.27777 -3.97151 0
M  V30 6690 H 630.78 -0.438536 -3.19807 0
M  V30 6691 H 629.832 -2.78199 -2.5944 0
M  V30 6692 H 631.144 -3.49473 -3.55908 0
M  V30 6693 H 630.298 -2.32497 -5.60384 0
M  V30 6694 H 629.037 -1.50761 -4.63813 0
M  V30 6695 H 628.042 -3.73264 -4.03676 0
M  V30 6696 H 629.267 -4.55534 -5.03652 0
M  V30 6697 H 627.213 -2.5502 -6.04401 0
M  V30 6698 H 627.13 -4.27041 -6.23836 0
M  V30 6699 H 628.398 -3.37845 -7.02482 0
M  V30 6700 N 632.627 0.916307 -1.28225 0
M  V30 6701 C 633.559 2.02303 -1.07732 0
M  V30 6702 C 634.572 1.62773 -0.0298421 0
M  V30 6703 O 635.761 1.76406 -0.272626 0
M  V30 6704 C 632.861 3.33282 -0.614504 0
M  V30 6705 C 632.034 4.01439 -1.73682 0
M  V30 6706 C 631.093 5.10698 -1.26781 0
M  V30 6707 O 630.119 5.34038 -1.96958 0
M  V30 6708 N 631.321 5.80355 -0.129624 0
M  V30 6709 H 634.086 2.20442 -2.03041 0
M  V30 6710 H 631.647 1.08744 -1.19943 0
M  V30 6711 H 633.639 4.03699 -0.284397 0
M  V30 6712 H 632.209 3.11633 0.245664 0
M  V30 6713 H 631.429 3.24604 -2.23665 0
M  V30 6714 H 632.717 4.43721 -2.48976 0
M  V30 6715 H 632.115 5.6386 0.455847 0
M  V30 6716 H 630.672 6.51647 0.141224 0
M  V30 6717 N 634.105 1.10431 1.1244 0
M  V30 6718 C 635.351 0.847972 1.84221 0
M  V30 6719 C 635.684 -0.624903 1.83871 0
M  V30 6720 O 634.959 -1.46074 1.28423 0
M  V30 6721 C 635.242 1.39695 3.319 0
M  V30 6722 C 635.095 2.93668 3.40704 0
M  V30 6723 C 636.414 1.03924 4.27654 0
M  V30 6724 H 633.533 0.309502 0.668863 0
M  V30 6725 H 636.175 1.36745 1.31912 0
M  V30 6726 H 634.325 0.955095 3.76577 0
M  V30 6727 H 635.997 3.46379 3.04662 0
M  V30 6728 H 634.24 3.30272 2.81252 0
M  V30 6729 H 634.911 3.27162 4.446 0
M  V30 6730 H 637.387 1.42049 3.91102 0
M  V30 6731 H 636.263 1.45027 5.29394 0
M  V30 6732 H 636.524 -0.051336 4.4207 0
M  V30 6733 N 635.583 -1.29855 0.893053 0
M  V30 6734 C 636.546 -2.26183 0.370687 0
M  V30 6735 C 637.546 -1.53108 -0.491385 0
M  V30 6736 O 638.736 -1.71643 -0.297386 0
M  V30 6737 C 635.868 -3.37633 -0.470827 0
M  V30 6738 H 637.061 -2.73903 1.22135 0
M  V30 6739 H 634.614 -1.41183 0.67061 0
M  V30 6740 H 635.349 -2.95241 -1.34175 0
M  V30 6741 H 635.134 -3.91825 0.146784 0
M  V30 6742 H 636.624 -4.09313 -0.827825 0
M  V30 6743 N 637.061 -0.65484 -1.43351 0
M  V30 6744 C 637.971 0.0363603 -2.34572 0
M  V30 6745 C 638.987 0.810432 -1.53974 0
M  V30 6746 O 640.163 0.757308 -1.86619 0
M  V30 6747 C 637.228 0.989733 -3.32273 0
M  V30 6748 C 636.289 0.212414 -4.28774 0
M  V30 6749 C 635.522 1.12038 -5.21808 0
M  V30 6750 O 635.745 2.35967 -5.19303 0
M  V30 6751 O 634.679 0.59191 -5.98982 0
M  V30 6752 H 638.505 -0.714527 -2.95175 0
M  V30 6753 H 636.09 -0.415029 -1.4352 0
M  V30 6754 H 637.972 1.53759 -3.92347 0
M  V30 6755 H 636.647 1.72082 -2.74171 0
M  V30 6756 H 635.554 -0.379062 -3.72175 0
M  V30 6757 H 636.887 -0.479138 -4.89862 0
M  V30 6758 N 638.539 1.52521 -0.396863 0
M  V30 6759 C 639.471 2.24333 0.469814 0
M  V30 6760 C 640.484 1.2685 1.02043 0
M  V30 6761 O 641.673 1.52876 0.92147 0
M  V30 6762 C 638.773 2.95202 1.66461 0
M  V30 6763 C 637.946 4.19454 1.24003 0
M  V30 6764 C 637.005 4.73255 2.30036 0
M  V30 6765 O 636.031 5.36151 1.91131 0
M  V30 6766 N 637.233 4.53765 3.62047 0
M  V30 6767 H 639.998 2.99347 -0.145468 0
M  V30 6768 H 637.559 1.60348 -0.223606 0
M  V30 6769 H 639.551 3.28092 2.36934 0
M  V30 6770 H 638.121 2.2345 2.18607 0
M  V30 6771 H 637.341 3.92517 0.363892 0
M  V30 6772 H 638.629 5.0017 0.933135 0
M  V30 6773 H 638.027 4.03576 3.96412 0
M  V30 6774 H 636.584 4.91124 4.28533 0
M  V30 6775 N 640.017 0.126909 1.57088 0
M  V30 6776 C 641.265 -0.528123 1.95078 0
M  V30 6777 C 641.586 -1.66708 1.0116 0
M  V30 6778 O 640.856 -1.95777 0.0693527 0
M  V30 6779 H 639.436 -0.198087 0.720257 0
M  V30 6780 H 642.098 0.197703 1.93895 0
M  V30 6781 H 641.194 -0.917507 2.98309 0
M  V30 6782 N 641.495 -1.56914 -0.146875 0
M  V30 6783 C 642.743 -1.82994 -0.85777 0
M  V30 6784 C 643.064 -0.707814 -1.817 0
M  V30 6785 O 642.334 0.270521 -1.94023 0
M  V30 6786 H 640.914 -0.675106 -0.319751 0
M  V30 6787 H 643.576 -1.9439 -0.140849 0
M  V30 6788 H 642.672 -2.77928 -1.41994 0
M  V30 6789 N 642.974 0.416227 -1.52004 0
M  V30 6790 C 644.251 1.17637 -1.56272 0
M  V30 6791 C 644.631 2.08352 -0.339493 0
M  V30 6792 O 643.979 2.1833 0.674124 0
M  V30 6793 C 644.189 1.95986 -2.88774 0
M  V30 6794 C 645.537 2.52299 -3.41512 0
M  V30 6795 O 646.561 2.06174 -2.90467 0
M  V30 6796 O 645.42 3.3648 -4.30631 0
M  V30 6797 H 642.514 0.536726 -0.629169 0
M  V30 6798 H 645.06 0.423583 -1.64329 0
M  V30 6799 H 643.832 1.29487 -3.69254 0
M  V30 6800 H 643.455 2.78285 -2.83978 0
M  V30 6801 N 644.452 1.42507 0.673017 0
M  V30 6802 C 645.382 1.48916 1.79851 0
M  V30 6803 C 646.363 0.345566 1.66553 0
M  V30 6804 O 647.548 0.560116 1.85947 0
M  V30 6805 C 644.678 1.39258 3.18158 0
M  V30 6806 C 643.632 2.51662 3.46194 0
M  V30 6807 C 642.958 2.27062 4.84094 0
M  V30 6808 C 644.258 3.93968 3.42909 0
M  V30 6809 H 645.952 2.43114 1.74745 0
M  V30 6810 H 643.498 1.17013 0.839288 0
M  V30 6811 H 645.451 1.42349 3.96629 0
M  V30 6812 H 644.175 0.415542 3.23946 0
M  V30 6813 H 642.834 2.47891 2.70084 0
M  V30 6814 H 642.482 1.27648 4.86534 0
M  V30 6815 H 642.182 3.02398 5.03815 0
M  V30 6816 H 643.706 2.31905 5.64847 0
M  V30 6817 H 645.12 3.99332 4.11347 0
M  V30 6818 H 643.517 4.6917 3.74165 0
M  V30 6819 H 644.587 4.20512 2.41449 0
M  V30 6820 N 645.93 -0.909495 1.28709 0
M  V30 6821 C 647.155 -1.69801 1.1909 0
M  V30 6822 C 647.58 -1.86479 -0.246388 0
M  V30 6823 O 646.938 -1.37802 -1.17815 0
M  V30 6824 C 646.986 -3.06543 1.89904 0
M  V30 6825 O 646.09 -3.94268 1.2094 0
M  V30 6826 H 645.431 -0.519783 0.413185 0
M  V30 6827 H 647.961 -1.13689 1.70106 0
M  V30 6828 H 647.971 -3.56748 1.97977 0
M  V30 6829 H 646.646 -2.93722 2.94449 0
M  V30 6830 H 645.223 -3.52702 1.2106 0
M  V30 6831 N 647.408 -1.11026 -1.11852 0
M  V30 6832 C 648.819 -0.873203 -1.65021 0
M  V30 6833 C 649.17 0.595364 -1.86949 0
M  V30 6834 O 648.295 1.45645 -1.60051 0
M  V30 6835 C 648.89 -1.57859 -2.99777 0
M  V30 6836 C 647.449 -1.38807 -3.49871 0
M  V30 6837 C 646.596 -1.62403 -2.24768 0
M  V30 6838 H 649.547 -1.26712 -0.955503 0
M  V30 6839 H 649.568 -1.02111 -3.66543 0
M  V30 6840 H 649.08 -2.6474 -2.83786 0
M  V30 6841 H 647.181 -0.341163 -3.71035 0
M  V30 6842 H 647.294 -2.13421 -4.28938 0
M  V30 6843 H 645.658 -1.04714 -2.32179 0
M  V30 6844 H 646.441 -2.70549 -2.11324 0
M  V30 6845 N 648.886 1.2938 -0.899927 0
M  V30 6846 C 649.849 2.25983 -0.382677 0
M  V30 6847 C 650.849 1.53366 0.483259 0
M  V30 6848 O 652.039 1.71798 0.28828 0
M  V30 6849 C 649.171 3.37878 0.452915 0
M  V30 6850 H 650.364 2.73252 -1.23586 0
M  V30 6851 H 647.917 1.40825 -0.678088 0
M  V30 6852 H 648.652 2.95949 1.32608 0
M  V30 6853 H 648.437 3.91742 -0.167562 0
M  V30 6854 H 649.927 4.09746 0.806107 0
M  V30 6855 N 650.364 0.662433 1.43002 0
M  V30 6856 C 651.327 -0.0142016 2.29196 0
M  V30 6857 C 652.327 -0.741394 1.42688 0
M  V30 6858 O 653.517 -0.581257 1.64216 0
M  V30 6859 C 650.649 -1.03084 3.24941 0
M  V30 6860 H 651.842 0.7443 2.90517 0
M  V30 6861 H 649.395 0.424133 1.50435 0
M  V30 6862 H 650.13 -1.81826 2.68533 0
M  V30 6863 H 649.915 -0.512946 3.8873 0
M  V30 6864 H 651.405 -1.50308 3.89612 0
M  V30 6865 N 651.842 -1.52309 0.404946 0
M  V30 6866 C 652.79 -2.28452 -0.437321 0
M  V30 6867 C 653.784 -1.32975 -1.04948 0
M  V30 6868 O 654.99 -1.50451 -0.988159 0
M  V30 6869 H 651.365 -0.734824 -0.159805 0
M  V30 6870 H 653.336 -2.97542 0.22615 0
M  V30 6871 C 652.085 -3.11536 -1.54404 0
M  V30 6872 H 651.408 -3.84871 -1.08233 0
M  V30 6873 H 652.848 -3.67926 -2.10729 0
M  V30 6874 C 651.307 -2.24833 -2.50902 0
M  V30 6875 O 651.837 -1.88574 -3.54687 0
M  V30 6876 N 650.043 -1.88685 -2.21012 0
M  V30 6877 H 649.59 -2.18371 -1.36646 0
M  V30 6878 H 649.548 -1.30966 -2.85824 0
M  V30 6879 N 653.32 -0.135238 -1.57019 0
M  V30 6880 C 654.736 0.221262 -1.58059 0
M  V30 6881 C 654.936 1.65538 -1.14889 0
M  V30 6882 O 653.992 2.37985 -0.843751 0
M  V30 6883 C 655.305 -0.0268114 -3.00688 0
M  V30 6884 C 656.853 0.0378206 -3.12977 0
M  V30 6885 C 657.328 -0.182769 -4.57635 0
M  V30 6886 N 658.819 -0.129292 -4.6302 0
M  V30 6887 C 659.554 -0.274648 -5.72742 0
M  V30 6888 N 659.05 -0.477075 -6.91155 0
M  V30 6889 N 660.843 -0.213077 -5.61696 0
M  V30 6890 H 652.994 -1.07177 -1.83376 0
M  V30 6891 H 655.257 -0.423338 -0.848227 0
M  V30 6892 H 654.963 -1.01889 -3.36618 0
M  V30 6893 H 654.837 0.697863 -3.70688 0
M  V30 6894 H 657.224 1.02043 -2.76896 0
M  V30 6895 H 657.305 -0.718996 -2.45487 0
M  V30 6896 H 656.949 -1.16243 -4.94419 0
M  V30 6897 H 656.879 0.59423 -5.23237 0
M  V30 6898 H 659.37 0.0229896 -3.77893 0
M  V30 6899 H 659.683 -0.578413 -7.70632 0
M  V30 6900 H 658.028 -0.513252 -6.93102 0
M  V30 6901 H 661.219 -0.0557796 -4.68067 0
M  V30 6902 H 661.392 -0.329796 -6.4716 0
M  V30 6903 N 654.798 1.5699 0.138552 0
M  V30 6904 C 656.023 1.88344 0.86841 0
M  V30 6905 C 656.448 0.725159 1.7356 0
M  V30 6906 O 655.806 -0.324992 1.78363 0
M  V30 6907 C 655.854 3.18334 1.69398 0
M  V30 6908 O 654.958 3.02863 2.79907 0
M  V30 6909 H 654.299 0.618577 0.241367 0
M  V30 6910 H 656.829 2.04207 0.126826 0
M  V30 6911 H 656.839 3.50567 2.08726 0
M  V30 6912 H 655.514 4.02238 1.05725 0
M  V30 6913 H 654.091 2.82056 2.43924 0
M  V30 6914 N 656.276 -0.40816 1.52223 0
M  V30 6915 C 657.208 -1.51642 1.71864 0
M  V30 6916 C 658.221 -1.51378 0.599056 0
M  V30 6917 O 659.41 -1.55626 0.874239 0
M  V30 6918 C 656.51 -2.90534 1.74481 0
M  V30 6919 C 655.683 -3.14979 3.03491 0
M  V30 6920 C 654.742 -4.33749 2.97907 0
M  V30 6921 O 653.768 -4.30982 3.71811 0
M  V30 6922 N 654.97 -5.38912 2.15764 0
M  V30 6923 H 657.735 -1.35188 2.67478 0
M  V30 6924 H 655.296 -0.597468 1.50472 0
M  V30 6925 H 657.288 -3.68056 1.68275 0
M  V30 6926 H 655.858 -3.00441 0.863363 0
M  V30 6927 H 655.078 -2.25492 3.23337 0
M  V30 6928 H 656.366 -3.28156 3.88833 0
M  V30 6929 H 655.764 -5.44008 1.55152 0
M  V30 6930 H 654.321 -6.15174 2.15415 0
M  V30 6931 N 657.755 -1.42862 -0.66545 0
M  V30 6932 C 658.702 -1.4707 -1.77874 0
M  V30 6933 C 659.672 -0.321654 -1.62956 0
M  V30 6934 O 660.857 -0.52707 -1.83376 0
M  V30 6935 C 657.997 -1.38788 -3.15962 0
M  V30 6936 C 657.11 -2.63801 -3.42101 0
M  V30 6937 C 656.245 -2.47594 -4.69969 0
M  V30 6938 C 655.284 -3.67936 -4.89172 0
M  V30 6939 N 654.421 -3.50614 -6.08288 0
M  V30 6940 H 659.261 -2.42204 -1.73613 0
M  V30 6941 H 656.798 -1.20239 -0.847401 0
M  V30 6942 H 658.756 -1.31982 -3.95773 0
M  V30 6943 H 657.386 -0.472431 -3.19324 0
M  V30 6944 H 656.438 -2.80935 -2.56475 0
M  V30 6945 H 657.75 -3.53228 -3.52181 0
M  V30 6946 H 656.904 -2.38427 -5.57886 0
M  V30 6947 H 655.643 -1.55672 -4.62188 0
M  V30 6948 H 654.648 -3.77525 -3.99694 0
M  V30 6949 H 655.873 -4.60851 -4.98792 0
M  V30 6950 H 653.819 -2.61417 -6.01662 0
M  V30 6951 H 653.736 -4.33634 -6.19272 0
M  V30 6952 H 655.004 -3.45276 -6.98859 0
M  V30 6953 N 659.233 0.902656 -1.29189 0
M  V30 6954 C 660.196 1.98797 -1.14071 0
M  V30 6955 C 661.196 1.60615 -0.0770549 0
M  V30 6956 O 662.386 1.71165 -0.323753 0
M  V30 6957 C 659.518 3.32688 -0.743739 0
M  V30 6958 H 660.711 2.13637 -2.10473 0
M  V30 6959 H 658.264 1.08678 -1.12334 0
M  V30 6960 H 658.999 3.23549 0.220554 0
M  V30 6961 H 658.784 3.61765 -1.51223 0
M  V30 6962 H 660.274 4.12337 -0.660935 0
M  V30 6963 N 660.711 1.11618 1.11262 0
M  V30 6964 C 661.936 0.889013 1.8738 0
M  V30 6965 C 662.361 -0.555884 1.79698 0
M  V30 6966 O 661.719 -1.39272 1.16073 0
M  V30 6967 C 661.767 1.35759 3.34069 0
M  V30 6968 O 660.871 0.530499 4.08974 0
M  V30 6969 H 660.212 0.320082 0.581759 0
M  V30 6970 H 662.742 1.48611 1.40627 0
M  V30 6971 H 662.752 1.35291 3.84916 0
M  V30 6972 H 661.427 2.40973 3.38976 0
M  V30 6973 H 660.004 0.601439 3.68018 0
M  V30 6974 N 662.189 -1.289 0.906776 0
M  V30 6975 C 663.121 -2.26556 0.347159 0
M  V30 6976 C 664.134 -1.54589 -0.51049 0
M  V30 6977 O 665.323 -1.75489 -0.326501 0
M  V30 6978 C 662.423 -3.3484 -0.523024 0
M  V30 6979 C 661.596 -4.36296 0.310515 0
M  V30 6980 C 660.655 -5.23879 -0.493634 0
M  V30 6981 O 659.681 -5.69127 0.0913569 0
M  V30 6982 N 660.883 -5.51946 -1.7982 0
M  V30 6983 H 663.648 -2.75212 1.18652 0
M  V30 6984 H 661.209 -1.42309 0.771996 0
M  V30 6985 H 663.201 -3.90366 -1.06756 0
M  V30 6986 H 661.771 -2.85946 -1.26309 0
M  V30 6987 H 660.991 -3.80331 1.03644 0
M  V30 6988 H 662.279 -5.01113 0.881106 0
M  V30 6989 H 661.677 -5.17006 -2.2961 0
M  V30 6990 H 660.234 -6.10258 -2.28971 0
M  V30 6991 N 663.667 -0.670007 -1.42649 0
M  V30 6992 C 664.892 -0.196955 -2.06463 0
M  V30 6993 C 665.317 1.1352 -1.49983 0
M  V30 6994 O 664.675 1.705 -0.616397 0
M  V30 6995 C 664.723 -0.137381 -3.60338 0
M  V30 6996 O 663.827 0.895523 -4.02559 0
M  V30 6997 H 663.168 -0.102579 -0.656029 0
M  V30 6998 H 665.698 -0.917669 -1.82866 0
M  V30 6999 H 665.708 0.0403625 -4.0798 0
M  V30 7000 H 664.383 -1.10977 -4.0082 0
M  V30 7001 H 662.96 0.689209 -3.66476 0
M  V30 7002 N 665.145 1.52092 -0.413018 0
M  V30 7003 C 666.561 1.59471 -0.0640836 0
M  V30 7004 C 666.761 1.42562 1.42402 0
M  V30 7005 O 665.817 1.25453 2.19129 0
M  V30 7006 C 667.13 2.95392 -0.562474 0
M  V30 7007 C 668.678 3.08637 -0.520788 0
M  V30 7008 C 669.153 4.47044 -0.995752 0
M  V30 7009 N 670.644 4.53296 -0.952732 0
M  V30 7010 C 671.379 5.58669 -1.29138 0
M  V30 7011 N 670.875 6.71576 -1.70168 0
M  V30 7012 N 672.668 5.48898 -1.2111 0
M  V30 7013 H 664.819 1.6133 -1.38153 0
M  V30 7014 H 667.082 0.75916 -0.567785 0
M  V30 7015 H 666.788 3.13059 -1.60271 0
M  V30 7016 H 666.662 3.77191 0.0257875 0
M  V30 7017 H 669.049 2.90652 0.510412 0
M  V30 7018 H 669.13 2.28735 -1.14515 0
M  V30 7019 H 668.774 4.65773 -2.0253 0
M  V30 7020 H 668.704 5.25448 -0.348162 0
M  V30 7021 H 671.195 3.72248 -0.651119 0
M  V30 7022 H 671.508 7.47973 -1.9431 0
M  V30 7023 H 669.853 6.72847 -1.74075 0
M  V30 7024 H 673.044 4.59573 -0.889396 0
M  V30 7025 H 673.217 6.30912 -1.47833 0
M  V30 7026 N 666.623 0.143563 1.56945 0
M  V30 7027 C 668.034 -0.37783 1.82837 0
M  V30 7028 C 668.385 -1.64967 1.06209 0
M  V30 7029 O 667.51 -2.14221 0.306291 0
M  V30 7030 C 668.105 -0.692274 3.31652 0
M  V30 7031 C 666.664 -1.1582 3.58138 0
M  V30 7032 C 665.811 -0.17951 2.76718 0
M  V30 7033 H 668.762 0.368317 1.54367 0
M  V30 7034 H 668.783 -1.54729 3.47619 0
M  V30 7035 H 668.295 0.233572 3.87397 0
M  V30 7036 H 666.396 -2.10011 3.07776 0
M  V30 7037 H 666.509 -1.08655 4.66616 0
M  V30 7038 H 664.873 -0.671458 2.4569 0
M  V30 7039 H 665.656 0.739865 3.35233 0
M  V30 7040 N 668.101 -1.57061 -0.130224 0
M  V30 7041 C 669.049 -2.00486 -1.17933 0
M  V30 7042 C 670.043 -0.899933 -1.43519 0
M  V30 7043 O 671.249 -1.08514 -1.43613 0
M  V30 7044 H 667.624 -0.638441 -0.397363 0
M  V30 7045 H 669.595 -2.87848 -0.786501 0
M  V30 7046 C 668.344 -2.41565 -2.50084 0
M  V30 7047 H 667.667 -3.26148 -2.31231 0
M  V30 7048 H 669.107 -2.75757 -3.22078 0
M  V30 7049 C 667.566 -1.27485 -3.11848 0
M  V30 7050 O 668.096 -0.584688 -3.97422 0
M  V30 7051 N 666.302 -1.03478 -2.71552 0
M  V30 7052 H 665.849 -1.59779 -2.02061 0
M  V30 7053 H 665.807 -0.27341 -3.13209 0
M  V30 7054 N 669.579 0.400081 -1.52437 0
M  V30 7055 C 670.804 1.17221 -1.71096 0
M  V30 7056 C 671.229 1.83269 -0.423565 0
M  V30 7057 O 670.587 1.70378 0.619751 0
M  V30 7058 C 670.635 2.20425 -2.85386 0
M  V30 7059 O 669.739 3.26769 -2.51586 0
M  V30 7060 H 669.08 0.341766 -0.569291 0
M  V30 7061 H 671.61 0.467772 -1.99181 0
M  V30 7062 H 671.62 2.64605 -3.10561 0
M  V30 7063 H 670.295 1.71737 -3.78786 0
M  V30 7064 H 668.872 2.87804 -2.37114 0
M  V30 7065 N 671.057 1.43213 0.657864 0
M  V30 7066 C 672.282 1.48227 1.45064 0
M  V30 7067 C 672.707 0.0999939 1.87834 0
M  V30 7068 O 672.065 -0.905269 1.57081 0
M  V30 7069 C 672.113 2.42931 2.6649 0
M  V30 7070 O 671.217 1.91237 3.6538 0
M  V30 7071 H 670.558 0.501551 0.435135 0
M  V30 7072 H 673.088 1.8808 0.805431 0
M  V30 7073 H 673.098 2.6008 3.1436 0
M  V30 7074 H 671.773 3.43348 2.34701 0
M  V30 7075 H 670.35 1.83726 3.24498 0
M  V30 7076 N 672.536 -0.895792 1.29666 0
M  V30 7077 C 673.499 -1.98189 1.15124 0
M  V30 7078 C 674.499 -1.60572 0.0855717 0
M  V30 7079 O 675.689 -1.70991 0.332826 0
M  V30 7080 C 672.821 -3.32289 0.761372 0
M  V30 7081 H 674.014 -2.12518 2.11603 0
M  V30 7082 H 671.567 -1.0808 1.12908 0
M  V30 7083 H 672.302 -3.23662 -0.203393 0
M  V30 7084 H 672.087 -3.60958 1.53139 0
M  V30 7085 H 673.577 -4.1198 0.682792 0
M  V30 7086 N 674.014 -1.12206 -1.10668 0
M  V30 7087 C 674.944 -0.810086 -2.18997 0
M  V30 7088 C 675.925 0.225065 -1.68604 0
M  V30 7089 O 677.11 0.086783 -1.94006 0
M  V30 7090 C 674.24 -0.261262 -3.46316 0
M  V30 7091 C 673.194 -1.2292 -4.09969 0
M  V30 7092 C 672.52 -0.540713 -5.31959 0
M  V30 7093 C 673.82 -2.58295 -4.53962 0
M  V30 7094 H 675.514 -1.7159 -2.45352 0
M  V30 7095 H 673.06 -0.82646 -1.17922 0
M  V30 7096 H 675.013 -0.0307522 -4.21389 0
M  V30 7097 H 673.737 0.679879 -3.19445 0
M  V30 7098 H 672.396 -1.44548 -3.369 0
M  V30 7099 H 672.044 0.405492 -5.01363 0
M  V30 7100 H 671.744 -1.18637 -5.75499 0
M  V30 7101 H 673.268 -0.319184 -6.09765 0
M  V30 7102 H 674.682 -2.40709 -5.20319 0
M  V30 7103 H 673.079 -3.18916 -5.08343 0
M  V30 7104 H 674.149 -3.16918 -3.67002 0
M  V30 7105 N 675.492 1.28418 -0.913599 0
M  V30 7106 C 676.402 2.31043 -0.406965 0
M  V30 7107 C 677.418 1.66501 0.505298 0
M  V30 7108 O 678.594 1.97558 0.391522 0
M  V30 7109 C 675.659 3.4498 0.344901 0
M  V30 7110 C 674.72 4.25078 -0.600563 0
M  V30 7111 C 673.953 5.33575 0.115516 0
M  V30 7112 O 674.176 5.54503 1.33727 0
M  V30 7113 O 673.11 5.9939 -0.549095 0
M  V30 7114 H 676.936 2.76387 -1.25873 0
M  V30 7115 H 674.521 1.33109 -0.678415 0
M  V30 7116 H 676.403 4.14314 0.769542 0
M  V30 7117 H 675.078 3.01719 1.1725 0
M  V30 7118 H 673.985 3.58334 -1.0746 0
M  V30 7119 H 675.318 4.72018 -1.39497 0
M  V30 7120 N 676.97 0.677563 1.42291 0
M  V30 7121 C 678.198 0.209459 2.05837 0
M  V30 7122 C 678.613 -1.13444 1.50917 0
M  V30 7123 O 677.97 -1.70529 0.65008 0
M  V30 7124 C 678.021 0.138819 3.61233 0
M  V30 7125 O 677.742 1.42962 4.14118 0
M  V30 7126 C 679.243 -0.352449 4.41897 0
M  V30 7127 H 676.463 0.101209 0.663323 0
M  V30 7128 H 679.007 0.925077 1.8238 0
M  V30 7129 H 677.162 -0.527505 3.83792 0
M  V30 7130 H 677.576 1.3048 5.08011 0
M  V30 7131 H 679.05 -0.350778 5.50884 0
M  V30 7132 H 679.527 -1.3882 4.16684 0
M  V30 7133 H 680.133 0.282236 4.24362 0
M  V30 7134 N 678.448 -1.51871 0.421078 0
M  V30 7135 C 679.378 -2.30231 -0.389363 0
M  V30 7136 C 680.359 -1.34946 -1.03555 0
M  V30 7137 O 681.544 -1.63859 -1.04229 0
M  V30 7138 C 678.674 -3.13247 -1.49979 0
M  V30 7139 C 677.628 -4.16677 -0.977966 0
M  V30 7140 C 676.954 -4.88112 -2.1829 0
M  V30 7141 C 678.254 -5.22295 -0.0236775 0
M  V30 7142 H 679.948 -2.98229 0.264524 0
M  V30 7143 H 677.494 -1.43424 0.12866 0
M  V30 7144 H 679.447 -3.66838 -2.07383 0
M  V30 7145 H 678.171 -2.4304 -2.18173 0
M  V30 7146 H 676.83 -3.64114 -0.426245 0
M  V30 7147 H 676.478 -4.14423 -2.85066 0
M  V30 7148 H 676.178 -5.58041 -1.84021 0
M  V30 7149 H 677.702 -5.44521 -2.76278 0
M  V30 7150 H 679.116 -5.71055 -0.506899 0
M  V30 7151 H 677.513 -5.99656 0.230782 0
M  V30 7152 H 678.583 -4.76131 0.917999 0
M  V30 7153 N 679.926 -0.151884 -1.56866 0
M  V30 7154 C 681.174 0.497021 -1.95893 0
M  V30 7155 C 681.495 1.65078 -1.03799 0
M  V30 7156 O 680.765 1.95642 -0.10049 0
M  V30 7157 H 679.345 0.186603 -0.723318 0
M  V30 7158 H 682.007 -0.228525 -1.93556 0
M  V30 7159 H 681.103 0.869933 -2.99731 0
M  V30 7160 N 681.404 1.57128 0.121893 0
M  V30 7161 C 682.652 1.84335 0.828548 0
M  V30 7162 C 682.973 0.736632 1.80551 0
M  V30 7163 O 682.243 -0.23962 1.94429 0
M  V30 7164 H 680.823 0.680108 0.30897 0
M  V30 7165 H 683.485 1.9459 0.109906 0
M  V30 7166 H 682.581 2.80152 1.37554 0
M  V30 7167 N 682.882 -0.391992 1.52647 0
M  V30 7168 C 683.792 -1.503 1.80131 0
M  V30 7169 C 684.808 -1.59825 0.687882 0
M  V30 7170 O 685.984 -1.76218 0.975149 0
M  V30 7171 C 683.049 -2.85863 1.96171 0
M  V30 7172 C 682.11 -2.86084 3.20085 0
M  V30 7173 C 681.343 -4.15181 3.35351 0
M  V30 7174 O 681.566 -5.09981 2.55491 0
M  V30 7175 O 680.5 -4.22603 4.28591 0
M  V30 7176 H 684.326 -1.30007 2.74466 0
M  V30 7177 H 681.911 -0.579539 1.37701 0
M  V30 7178 H 683.793 -3.66236 2.08445 0
M  V30 7179 H 682.468 -3.06189 1.05025 0
M  V30 7180 H 681.375 -2.04504 3.13256 0
M  V30 7181 H 682.708 -2.7071 4.11068 0
M  V30 7182 N 684.36 -1.4356 -0.65026 0
M  V30 7183 C 685.307 -1.48948 -1.76304 0
M  V30 7184 C 686.277 -0.338919 -1.62605 0
M  V30 7185 O 687.462 -0.54649 -1.82806 0
M  V30 7186 C 684.602 -1.42131 -3.14472 0
M  V30 7187 C 683.715 -2.67415 -3.39284 0
M  V30 7188 C 682.85 -2.52565 -4.67316 0
M  V30 7189 C 681.889 -3.73103 -4.85243 0
M  V30 7190 N 681.026 -3.57046 -6.04535 0
M  V30 7191 H 685.866 -2.44032 -1.71034 0
M  V30 7192 H 683.403 -1.21131 -0.834601 0
M  V30 7193 H 685.361 -1.36172 -3.94351 0
M  V30 7194 H 683.991 -0.506273 -3.18805 0
M  V30 7195 H 683.043 -2.8364 -2.53481 0
M  V30 7196 H 684.355 -3.56943 -3.48415 0
M  V30 7197 H 683.509 -2.44331 -5.55326 0
M  V30 7198 H 682.248 -1.60566 -4.60511 0
M  V30 7199 H 681.253 -3.81743 -3.95667 0
M  V30 7200 H 682.478 -4.66115 -4.93876 0
M  V30 7201 H 680.424 -2.67783 -5.98856 0
M  V30 7202 H 680.341 -4.40178 -6.14638 0
M  V30 7203 H 681.609 -3.52669 -6.95158 0
M  V30 7204 N 685.838 0.888903 -1.30139 0
M  V30 7205 C 686.768 2.01046 -1.18755 0
M  V30 7206 C 687.749 1.69916 -0.0791438 0
M  V30 7207 O 688.934 1.92445 -0.260498 0
M  V30 7208 C 686.064 3.36109 -0.874518 0
M  V30 7209 C 685.018 3.81486 -1.94043 0
M  V30 7210 C 684.344 5.13796 -1.48047 0
M  V30 7211 C 685.644 4.00637 -3.35093 0
M  V30 7212 H 687.338 2.10828 -2.12584 0
M  V30 7213 H 684.884 1.01298 -1.02346 0
M  V30 7214 H 686.837 4.14089 -0.781548 0
M  V30 7215 H 685.561 3.26449 0.0994519 0
M  V30 7216 H 684.22 3.05731 -2.02297 0
M  V30 7217 H 683.868 5.0056 -0.494878 0
M  V30 7218 H 683.568 5.45127 -2.19341 0
M  V30 7219 H 685.092 5.94305 -1.40121 0
M  V30 7220 H 686.506 4.69067 -3.2962 0
M  V30 7221 H 684.903 4.43339 -4.04438 0
M  V30 7222 H 685.973 3.0462 -3.77273 0
M  V30 7223 N 687.317 1.12792 1.10072 0
M  V30 7224 C 688.28 0.802264 2.14701 0
M  V30 7225 C 689.28 -0.18515 1.59731 0
M  V30 7226 O 690.47 0.041109 1.74151 0
M  V30 7227 C 687.602 0.19285 3.40354 0
M  V30 7228 H 688.795 1.72932 2.45019 0
M  V30 7229 H 686.348 0.931662 1.25498 0
M  V30 7230 H 687.083 -0.743748 3.15656 0
M  V30 7231 H 686.868 0.903827 3.81541 0
M  V30 7232 H 688.358 -0.0183704 4.17596 0
M  V30 7233 N 688.795 -1.27931 0.920396 0
M  V30 7234 C 689.743 -2.29061 0.404191 0
M  V30 7235 C 690.737 -1.61615 -0.507634 0
M  V30 7236 O 691.943 -1.75765 -0.388144 0
M  V30 7237 H 688.318 -0.743594 0.112123 0
M  V30 7238 H 690.289 -2.70021 1.27008 0
M  V30 7239 C 689.038 -3.46088 -0.334466 0
M  V30 7240 H 688.361 -3.98194 0.35797 0
M  V30 7241 H 689.801 -4.18829 -0.660196 0
M  V30 7242 C 688.26 -2.99396 -1.54479 0
M  V30 7243 O 688.79 -3.02439 -2.64374 0
M  V30 7244 N 686.996 -2.54978 -1.39408 0
M  V30 7245 H 686.543 -2.52701 -0.500009 0
M  V30 7246 H 686.501 -2.24098 -2.20516 0
M  V30 7247 N 690.273 -0.685099 -1.4193 0
M  V30 7248 C 691.521 -0.21124 -2.00993 0
M  V30 7249 C 691.842 1.18985 -1.54491 0
M  V30 7250 O 691.112 1.8009 -0.771 0
M  V30 7251 H 689.692 -0.0751059 -0.743215 0
M  V30 7252 H 692.354 -0.883915 -1.73704 0
M  V30 7253 H 691.45 -0.220513 -3.1132 0
M  V30 7254 N 691.751 1.51645 -0.429126 0
M  V30 7255 C 692.976 2.06917 0.141399 0
M  V30 7256 C 693.401 1.29527 1.36398 0
M  V30 7257 O 692.759 0.33094 1.78254 0
M  V30 7258 C 692.807 3.57776 0.4504 0
M  V30 7259 O 691.911 3.82639 1.53821 0
M  V30 7260 H 691.252 0.663978 0.0054647 0
M  V30 7261 H 693.782 1.95355 -0.608093 0
M  V30 7262 H 693.792 4.01894 0.703249 0
M  V30 7263 H 692.467 4.13532 -0.443213 0
M  V30 7264 H 691.044 3.5039 1.27597 0
M  V30 7265 N 693.229 0.160201 1.56784 0
M  V30 7266 C 694.159 -0.770264 2.2043 0
M  V30 7267 C 695.14 -1.24736 1.15651 0
M  V30 7268 O 696.325 -1.30253 1.44041 0
M  V30 7269 C 693.455 -2.00427 2.83631 0
M  V30 7270 C 692.409 -1.66345 3.94352 0
M  V30 7271 C 691.735 -2.97119 4.4455 0
M  V30 7272 C 693.035 -0.899972 5.14488 0
M  V30 7273 H 694.729 -0.239783 2.98438 0
M  V30 7274 H 692.275 -0.113891 1.43549 0
M  V30 7275 H 694.228 -2.66012 3.26827 0
M  V30 7276 H 692.952 -2.5587 2.02973 0
M  V30 7277 H 691.611 -1.03133 3.51794 0
M  V30 7278 H 691.259 -3.5058 3.60698 0
M  V30 7279 H 690.959 -2.75073 5.19238 0
M  V30 7280 H 692.483 -3.63753 4.90425 0
M  V30 7281 H 693.897 -1.45818 5.54446 0
M  V30 7282 H 692.294 -0.778968 5.95023 0
M  V30 7283 H 693.364 0.105827 4.84785 0
M  V30 7284 N 694.707 -1.5719 -0.113559 0
M  V30 7285 C 695.617 -2.04041 -1.15777 0
M  V30 7286 C 696.633 -0.961812 -1.45001 0
M  V30 7287 O 697.809 -1.2737 -1.56009 0
M  V30 7288 C 694.874 -2.43994 -2.46308 0
M  V30 7289 C 693.935 -3.65962 -2.24433 0
M  V30 7290 C 693.168 -4.04 -3.4874 0
M  V30 7291 O 693.391 -3.42321 -4.56259 0
M  V30 7292 O 692.325 -4.97069 -3.3942 0
M  V30 7293 H 696.151 -2.93248 -0.789899 0
M  V30 7294 H 693.736 -1.45828 -0.324748 0
M  V30 7295 H 695.618 -2.70401 -3.23204 0
M  V30 7296 H 694.293 -1.57932 -2.82558 0
M  V30 7297 H 693.2 -3.44697 -1.45377 0
M  V30 7298 H 694.533 -4.52746 -1.93084 0
M  V30 7299 N 696.185 0.383891 -1.52853 0
M  V30 7300 C 697.596 0.961591 -1.60032 0
M  V30 7301 C 697.947 1.90819 -0.456333 0
M  V30 7302 O 697.072 2.12288 0.419873 0
M  V30 7303 C 697.667 1.75078 -2.90057 0
M  V30 7304 C 696.226 2.2781 -2.99632 0
M  V30 7305 C 695.373 1.08512 -2.55187 0
M  V30 7306 H 698.324 0.163269 -1.57858 0
M  V30 7307 H 698.345 2.61046 -2.7683 0
M  V30 7308 H 697.857 1.06157 -3.73299 0
M  V30 7309 H 695.958 3.00028 -2.20939 0
M  V30 7310 H 696.071 2.56947 -4.0437 0
M  V30 7311 H 694.435 1.44667 -2.09627 0
M  V30 7312 H 695.218 0.41118 -3.40829 0
M  V30 7313 N 697.663 1.43903 0.642637 0
M  V30 7314 C 699.074 1.40975 1.22404 0
M  V30 7315 C 699.425 0.1192 1.95838 0
M  V30 7316 O 698.55 -0.780939 2.01818 0
M  V30 7317 C 699.145 2.5538 2.22636 0
M  V30 7318 C 697.704 2.55684 2.76229 0
M  V30 7319 C 696.851 2.32556 1.51039 0
M  V30 7320 H 699.802 1.5265 0.434006 0
M  V30 7321 H 699.823 2.27474 3.05017 0
M  V30 7322 H 699.335 3.49294 1.69161 0
M  V30 7323 H 697.436 1.65679 3.33738 0
M  V30 7324 H 697.549 3.53799 3.23053 0
M  V30 7325 H 695.913 1.81427 1.78764 0
M  V30 7326 H 696.696 3.28569 0.99484 0
M  V30 7327 N 699.141 -0.881989 1.30609 0
M  V30 7328 C 700.104 -1.96957 1.1722 0
M  V30 7329 C 701.104 -1.60472 0.102598 0
M  V30 7330 O 702.294 -1.70628 0.350943 0
M  V30 7331 C 699.426 -3.31463 0.796572 0
M  V30 7332 H 700.619 -2.10262 2.13846 0
M  V30 7333 H 698.172 -1.06877 1.14048 0
M  V30 7334 H 698.907 -3.23859 -0.169053 0
M  V30 7335 H 698.692 -3.59314 1.56959 0
M  V30 7336 H 700.182 -4.11233 0.72645 0
M  V30 7337 N 700.619 -1.13374 -1.09472 0
M  V30 7338 C 701.551 -0.768466 -2.15933 0
M  V30 7339 C 702.564 0.209585 -1.61445 0
M  V30 7340 O 703.753 -0.010539 -1.78497 0
M  V30 7341 C 700.853 -0.118266 -3.38694 0
M  V30 7342 C 700.026 -1.12829 -4.22597 0
M  V30 7343 C 699.085 -0.503875 -5.23782 0
M  V30 7344 O 698.111 -1.16374 -5.57177 0
M  V30 7345 N 699.313 0.724288 -5.75964 0
M  V30 7346 H 702.078 -1.68457 -2.47876 0
M  V30 7347 H 699.639 -1.02668 -1.25183 0
M  V30 7348 H 701.631 0.311698 -4.03498 0
M  V30 7349 H 700.201 0.700769 -3.04644 0
M  V30 7350 H 699.421 -1.73556 -3.53938 0
M  V30 7351 H 700.709 -1.81095 -4.75481 0
M  V30 7352 H 700.107 1.27918 -5.51048 0
M  V30 7353 H 698.664 1.09692 -6.42504 0
M  V30 7354 N 702.098 1.27442 -0.927168 0
M  V30 7355 C 703.061 2.2512 -0.430525 0
M  V30 7356 C 704.061 1.54357 0.450619 0
M  V30 7357 O 705.251 1.72371 0.251774 0
M  V30 7358 C 702.383 3.38763 0.381144 0
M  V30 7359 H 703.576 2.70569 -1.29354 0
M  V30 7360 H 701.129 1.39355 -0.707806 0
M  V30 7361 H 701.864 2.98695 1.263 0
M  V30 7362 H 701.649 3.91298 -0.250618 0
M  V30 7363 H 703.139 4.11364 0.719012 0
M  V30 7364 N 703.576 0.692616 1.41565 0
M  V30 7365 C 704.539 0.0344174 2.29174 0
M  V30 7366 C 705.539 -0.710961 1.44229 0
M  V30 7367 O 706.729 -0.546293 1.65412 0
M  V30 7368 C 703.861 -0.961682 3.27054 0
M  V30 7369 H 705.054 0.805755 2.88873 0
M  V30 7370 H 702.607 0.455947 1.49502 0
M  V30 7371 H 703.342 -1.76089 2.72329 0
M  V30 7372 H 703.127 -0.430375 3.89731 0
M  V30 7373 H 704.617 -1.4201 3.92712 0
M  V30 7374 N 705.054 -1.51416 0.437162 0
M  V30 7375 C 706.465 -1.86682 -0.0260005 0
M  V30 7376 C 706.816 -1.35432 -1.4196 0
M  V30 7377 O 705.941 -0.705055 -2.04592 0
M  V30 7378 C 706.536 -3.38757 -0.0539577 0
M  V30 7379 C 705.095 -3.7356 -0.461532 0
M  V30 7380 C 704.242 -2.75134 0.345924 0
M  V30 7381 H 707.193 -1.44642 0.653013 0
M  V30 7382 H 707.214 -3.70573 -0.863478 0
M  V30 7383 H 706.726 -3.76028 0.96045 0
M  V30 7384 H 704.827 -3.41878 -1.48155 0
M  V30 7385 H 704.94 -4.78737 -0.186451 0
M  V30 7386 H 703.304 -2.53947 -0.195739 0
M  V30 7387 H 704.087 -3.15247 1.35921 0
M  V30 7388 N 706.532 -0.168513 -1.56696 0
M  V30 7389 C 707.78 0.476216 -1.96409 0
M  V30 7390 C 708.101 1.63968 -1.05544 0
M  V30 7391 O 707.371 1.95525 -0.121235 0
M  V30 7392 H 705.951 0.178921 -0.725256 0
M  V30 7393 H 708.613 -0.249042 -1.93302 0
M  V30 7394 H 707.709 0.838094 -3.00637 0
M  V30 7395 N 708.01 1.57248 0.105221 0
M  V30 7396 C 709.421 1.74612 0.660865 0
M  V30 7397 C 709.772 0.789231 1.79626 0
M  V30 7398 O 708.897 -0.0346611 2.16372 0
M  V30 7399 C 709.492 3.16624 1.20559 0
M  V30 7400 C 708.051 3.35447 1.7074 0
M  V30 7401 C 707.198 2.70445 0.612764 0
M  V30 7402 H 710.149 1.5824 -0.12079 0
M  V30 7403 H 710.17 3.18937 2.07508 0
M  V30 7404 H 709.682 3.86245 0.379012 0
M  V30 7405 H 707.783 2.7089 2.5583 0
M  V30 7406 H 707.896 4.43702 1.80736 0
M  V30 7407 H 706.26 2.32061 1.04975 0
M  V30 7408 H 707.043 3.42699 -0.203066 0
M  V30 7409 N 709.488 -0.375779 1.53054 0
M  V30 7410 C 710.713 -1.14484 1.7294 0
M  V30 7411 C 711.138 -1.82572 0.452668 0
M  V30 7412 O 710.496 -1.71343 -0.592567 0
M  V30 7413 C 710.544 -2.15857 2.88857 0
M  V30 7414 O 709.648 -3.22725 2.56753 0
M  V30 7415 H 708.989 -0.332666 0.574656 0
M  V30 7416 H 711.519 -0.436025 1.999 0
M  V30 7417 H 711.529 -2.59631 3.14731 0
M  V30 7418 H 710.204 -1.65689 3.81471 0
M  V30 7419 H 708.781 -2.83996 2.41663 0
M  V30 7420 N 710.966 -1.44241 -0.634997 0
M  V30 7421 C 711.913 -1.5081 -1.74714 0
M  V30 7422 C 712.883 -0.356147 -1.62237 0
M  V30 7423 O 714.068 -0.565848 -1.82216 0
M  V30 7424 C 711.208 -1.45458 -3.12947 0
M  V30 7425 C 710.321 -2.70998 -3.36428 0
M  V30 7426 C 709.456 -2.57507 -4.64611 0
M  V30 7427 C 708.495 -3.78229 -4.81258 0
M  V30 7428 N 707.632 -3.63438 -6.00714 0
M  V30 7429 H 712.472 -2.45832 -1.68436 0
M  V30 7430 H 710.009 -1.2201 -0.821706 0
M  V30 7431 H 711.967 -1.40347 -3.92885 0
M  V30 7432 H 710.597 -0.540058 -3.1825 0
M  V30 7433 H 709.649 -2.86312 -2.50458 0
M  V30 7434 H 710.961 -3.60619 -3.44609 0
M  V30 7435 H 710.115 -2.50207 -5.52703 0
M  V30 7436 H 708.854 -1.65441 -4.58782 0
M  V30 7437 H 707.859 -3.85918 -3.91596 0
M  V30 7438 H 709.084 -4.71327 -4.88904 0
M  V30 7439 H 707.03 -2.7412 -5.95982 0
M  V30 7440 H 706.947 -4.46672 -6.09934 0
M  V30 7441 H 708.215 -3.60022 -6.91378 0
M  V30 7442 N 712.444 0.87505 -1.31075 0
M  V30 7443 C 713.86 1.15997 -1.09622 0
M  V30 7444 C 714.06 2.01036 0.136611 0
M  V30 7445 O 713.116 2.38559 0.827397 0
M  V30 7446 C 714.429 1.85702 -2.36506 0
M  V30 7447 C 715.977 1.98425 -2.42067 0
M  V30 7448 C 716.452 2.71544 -3.68819 0
M  V30 7449 N 717.943 2.79084 -3.69684 0
M  V30 7450 C 718.678 3.36259 -4.64454 0
M  V30 7451 N 718.174 3.94406 -5.69575 0
M  V30 7452 N 719.967 3.34169 -4.51982 0
M  V30 7453 H 712.118 0.308258 -2.10151 0
M  V30 7454 H 714.381 0.199145 -0.926847 0
M  V30 7455 H 714.087 1.30663 -3.26527 0
M  V30 7456 H 713.961 2.86017 -2.45915 0
M  V30 7457 H 716.348 2.5263 -1.52518 0
M  V30 7458 H 716.429 0.971682 -2.36626 0
M  V30 7459 H 716.073 2.18008 -4.58732 0
M  V30 7460 H 716.003 3.73198 -3.71525 0
M  V30 7461 H 718.494 2.3781 -2.93691 0
M  V30 7462 H 718.807 4.36129 -6.37974 0
M  V30 7463 H 717.152 3.92797 -5.73355 0
M  V30 7464 H 720.343 2.87977 -3.69035 0
M  V30 7465 H 720.516 3.78431 -5.26017 0
M  V30 7466 N 713.922 1.13953 1.08869 0
M  V30 7467 C 715.199 0.815768 1.77777 0
M  V30 7468 C 715.579 -0.691624 1.99449 0
M  V30 7469 O 714.927 -1.63085 1.60049 0
M  V30 7470 C 715.137 1.60916 3.09689 0
M  V30 7471 C 716.485 1.80549 3.84301 0
M  V30 7472 O 717.509 1.57562 3.19457 0
M  V30 7473 O 716.368 2.18946 5.00724 0
M  V30 7474 H 713.462 0.298445 0.771271 0
M  V30 7475 H 716.008 1.24446 1.15374 0
M  V30 7476 H 714.78 2.6333 2.89435 0
M  V30 7477 H 714.403 1.17578 3.79817 0
M  V30 7478 N 715.4 -1.26948 0.933913 0
M  V30 7479 C 716.625 -1.98724 0.593589 0
M  V30 7480 C 717.05 -1.6915 -0.822801 0
M  V30 7481 O 716.408 -0.93533 -1.5531 0
M  V30 7482 C 716.456 -3.50834 0.833542 0
M  V30 7483 O 715.56 -4.12284 -0.0978788 0
M  V30 7484 H 714.901 -0.623683 0.227849 0
M  V30 7485 H 717.431 -1.61599 1.25486 0
M  V30 7486 H 717.441 -4.01018 0.75156 0
M  V30 7487 H 716.116 -3.71691 1.86597 0
M  V30 7488 H 714.693 -3.72884 0.0345443 0
M  V30 7489 N 716.879 -0.700114 -1.41195 0
M  V30 7490 C 718.156 -0.160836 -1.94938 0
M  V30 7491 C 718.536 1.33014 -1.63922 0
M  V30 7492 O 717.884 2.07878 -0.948636 0
M  V30 7493 C 718.094 -0.456991 -3.45995 0
M  V30 7494 C 719.442 -0.387207 -4.22831 0
M  V30 7495 O 720.466 -0.392164 -3.54035 0
M  V30 7496 O 719.325 -0.351267 -5.4537 0
M  V30 7497 H 716.419 -0.0176304 -0.826812 0
M  V30 7498 H 718.965 -0.776586 -1.50888 0
M  V30 7499 H 717.737 -1.48884 -3.61869 0
M  V30 7500 H 717.36 0.189503 -3.97148 0
M  V30 7501 N 718.357 1.51182 -0.445186 0
M  V30 7502 C 719.597 2.04061 0.117717 0
M  V30 7503 C 719.961 1.32158 1.39278 0
M  V30 7504 O 721.162 1.75452 2.03642 0
M  V30 7505 C 719.433 3.55933 0.323445 0
M  V30 7506 S 720.992 4.30516 0.848627 0
M  V30 7507 H 717.81 0.710442 0.028165 0
M  V30 7508 H 720.412 1.85858 -0.606391 0
M  V30 7509 H 719.116 4.0583 -0.610764 0
M  V30 7510 H 718.647 3.78444 1.07441 0
M  V30 7511 H 720.662 4.48382 2.12528 0
M  V30 7512 N 719.835 0.176821 1.56605 0
M  V30 7513 C 721.06 -0.47599 2.01864 0
M  V30 7514 C 721.485 -1.55645 1.05623 0
M  V30 7515 O 720.843 -1.81263 0.0366729 0
M  V30 7516 C 720.891 -1.02619 3.4569 0
M  V30 7517 O 719.995 -2.13996 3.52533 0
M  V30 7518 H 719.336 -0.113363 0.654251 0
M  V30 7519 H 721.866 0.28233 2.02643 0
M  V30 7520 H 721.876 -1.34742 3.85109 0
M  V30 7521 H 720.551 -0.235138 4.15235 0
M  V30 7522 H 719.128 -1.82876 3.24978 0
M  V30 7523 N 721.313 -1.57302 -0.09688 0
M  V30 7524 C 722.538 -1.9058 -0.818169 0
M  V30 7525 C 722.963 -0.770921 -1.71576 0
M  V30 7526 O 722.321 0.277588 -1.79162 0
M  V30 7527 C 722.369 -3.22714 -1.60898 0
M  V30 7528 O 721.473 -3.10178 -2.71779 0
M  V30 7529 H 720.814 -0.624759 -0.224882 0
M  V30 7530 H 723.344 -2.04471 -0.07264 0
M  V30 7531 H 723.354 -3.55978 -1.99358 0
M  V30 7532 H 722.029 -4.04899 -0.950227 0
M  V30 7533 H 720.606 -2.88424 -2.3636 0
M  V30 7534 N 722.791 0.367657 -1.53252 0
M  V30 7535 C 723.721 1.45632 -1.8252 0
M  V30 7536 C 724.702 1.55979 -0.678568 0
M  V30 7537 O 725.887 1.70581 -0.928217 0
M  V30 7538 C 723.017 2.82994 -2.01325 0
M  V30 7539 C 721.971 2.87473 -3.17086 0
M  V30 7540 C 721.297 4.2749 -3.21179 0
M  V30 7541 C 722.597 2.55182 -4.55719 0
M  V30 7542 H 724.291 1.21387 -2.73689 0
M  V30 7543 H 721.837 0.58251 -1.31692 0
M  V30 7544 H 723.79 3.59179 -2.20383 0
M  V30 7545 H 722.514 3.08622 -1.06864 0
M  V30 7546 H 721.173 2.13739 -2.97844 0
M  V30 7547 H 720.821 4.5019 -2.24361 0
M  V30 7548 H 720.521 4.31403 -3.98955 0
M  V30 7549 H 722.045 5.0555 -3.42419 0
M  V30 7550 H 723.459 3.21081 -4.74953 0
M  V30 7551 H 721.856 2.70414 -5.3572 0
M  V30 7552 H 722.926 1.5044 -4.60973 0
M  V30 7553 N 724.269 1.44576 0.627338 0
M  V30 7554 C 725.509 1.49083 1.39834 0
M  V30 7555 C 725.873 0.121643 1.91614 0
M  V30 7556 O 727.074 0.0413885 2.68768 0
M  V30 7557 C 725.345 2.52467 2.52973 0
M  V30 7558 S 726.904 2.7605 3.41089 0
M  V30 7559 H 723.722 0.527252 0.476997 0
M  V30 7560 H 726.324 1.81525 0.725872 0
M  V30 7561 H 725.028 3.50646 2.13249 0
M  V30 7562 H 724.559 2.2161 3.25042 0
M  V30 7563 H 726.574 2.07932 4.50531 0
M  V30 7564 N 725.747 -0.868086 1.31537 0
M  V30 7565 C 726.975 -1.65402 1.24298 0
M  V30 7566 C 727.39 -1.87827 -0.191389 0
M  V30 7567 O 726.747 -1.43776 -1.12404 0
M  V30 7568 C 726.798 -3.02093 1.9855 0
M  V30 7569 O 726.519 -2.80668 3.36388 0
M  V30 7570 C 728.02 -3.96538 1.98173 0
M  V30 7571 H 725.24 -0.515598 0.429417 0
M  V30 7572 H 727.784 -1.0834 1.73444 0
M  V30 7573 H 725.939 -3.55838 1.53161 0
M  V30 7574 H 726.353 -3.67504 3.74221 0
M  V30 7575 H 727.827 -4.8976 2.54635 0
M  V30 7576 H 728.304 -4.28474 0.964697 0
M  V30 7577 H 728.91 -3.48729 2.4345 0
M  V30 7578 N 727.225 -1.14528 -1.08264 0
M  V30 7579 C 728.45 -0.938381 -1.84957 0
M  V30 7580 C 728.875 0.508044 -1.81109 0
M  V30 7581 O 728.233 1.36146 -1.19724 0
M  V30 7582 C 728.281 -1.44568 -3.30352 0
M  V30 7583 O 727.385 -0.638745 -4.07423 0
M  V30 7584 H 726.726 -0.335394 -0.573068 0
M  V30 7585 H 729.256 -1.52287 -1.36637 0
M  V30 7586 H 729.266 -1.45449 -3.81194 0
M  V30 7587 H 727.941 -2.49876 -3.32468 0
M  V30 7588 H 726.518 -0.698801 -3.66294 0
M  V30 7589 N 728.703 1.26451 -0.940633 0
M  V30 7590 C 729.613 2.30128 -0.455881 0
M  V30 7591 C 730.629 1.67536 0.469867 0
M  V30 7592 O 731.805 1.98344 0.349529 0
M  V30 7593 C 728.87 3.45634 0.271648 0
M  V30 7594 C 727.931 4.23709 -0.690594 0
M  V30 7595 C 727.164 5.337 0.00231047 0
M  V30 7596 O 727.387 5.57215 1.21935 0
M  V30 7597 O 726.321 5.98091 -0.676111 0
M  V30 7598 H 730.147 2.73655 -1.31707 0
M  V30 7599 H 727.732 1.3164 -0.706497 0
M  V30 7600 H 729.614 4.15853 0.681486 0
M  V30 7601 H 728.289 3.04138 1.10824 0
M  V30 7602 H 727.196 3.55974 -1.15037 0
M  V30 7603 H 728.529 4.68953 -1.49478 0
M  V30 7604 N 730.181 0.707592 1.40822 0
M  V30 7605 C 731.406 0.251626 2.05868 0
M  V30 7606 C 731.831 -1.09503 1.5294 0
M  V30 7607 O 731.189 -1.68806 0.661385 0
M  V30 7608 C 731.237 0.23287 3.59847 0
M  V30 7609 O 730.341 -0.788477 4.04792 0
M  V30 7610 H 729.682 0.119936 0.653078 0
M  V30 7611 H 732.212 0.96583 1.80369 0
M  V30 7612 H 732.222 0.0678204 4.07944 0
M  V30 7613 H 730.897 1.21565 3.97737 0
M  V30 7614 H 729.474 -0.591802 3.68174 0
M  V30 7615 N 731.66 -1.50943 0.453197 0
M  V30 7616 C 732.593 -2.24742 -0.395787 0
M  V30 7617 C 733.571 -1.27316 -1.01141 0
M  V30 7618 O 734.755 -1.56494 -1.05081 0
M  V30 7619 C 731.882 -3.00999 -1.55298 0
M  V30 7620 C 730.928 -4.13207 -1.0565 0
M  V30 7621 S 731.761 -5.35498 0.01435 0
M  V30 7622 C 732.917 -6.15298 -1.14714 0
M  V30 7623 H 733.15 -2.96403 0.23071 0
M  V30 7624 H 730.683 -1.52557 0.237874 0
M  V30 7625 H 732.641 -3.45529 -2.2163 0
M  V30 7626 H 731.302 -2.28896 -2.15094 0
M  V30 7627 H 730.495 -4.65901 -1.9223 0
M  V30 7628 H 730.097 -3.7102 -0.471182 0
M  V30 7629 H 732.389 -6.45346 -2.06239 0
M  V30 7630 H 733.332 -7.05019 -0.659842 0
M  V30 7631 H 733.74 -5.47046 -1.39288 0
M  V30 7632 N 733.138 -0.185124 -1.56509 0
M  V30 7633 C 734.415 0.503348 -1.89013 0
M  V30 7634 C 734.795 1.80349 -1.09715 0
M  V30 7635 O 734.143 2.27665 -0.195203 0
M  V30 7636 C 734.353 0.731839 -3.41241 0
M  V30 7637 C 735.701 1.05568 -4.11267 0
M  V30 7638 O 736.725 0.819906 -3.46635 0
M  V30 7639 O 735.584 1.50116 -5.25478 0
M  V30 7640 H 732.678 0.261139 -0.784688 0
M  V30 7641 H 735.224 -0.224592 -1.68207 0
M  V30 7642 H 733.996 -0.18672 -3.90854 0
M  V30 7643 H 733.619 1.5126 -3.67704 0
M  V30 7644 N 734.616 1.57351 0.0885366 0
M  V30 7645 C 735.846 1.90355 0.80303 0
M  V30 7646 C 736.254 0.777678 1.72478 0
M  V30 7647 O 735.597 -0.258908 1.81866 0
M  V30 7648 C 735.659 3.18674 1.66395 0
M  V30 7649 C 735.323 4.4778 0.913327 0
M  V30 7650 C 736.32 5.19345 0.240148 0
M  V30 7651 C 734.005 4.94434 0.885462 0
M  V30 7652 C 735.999 6.35803 -0.450854 0
M  V30 7653 C 733.686 6.10802 0.190679 0
M  V30 7654 C 734.684 6.81337 -0.476295 0
M  V30 7655 O 734.372 7.95488 -1.15992 0
M  V30 7656 H 734.104 0.634035 0.234469 0
M  V30 7657 H 736.658 2.05287 0.0681959 0
M  V30 7658 H 734.888 2.99906 2.44117 0
M  V30 7659 H 736.577 3.37458 2.2556 0
M  V30 7660 H 737.343 4.84339 0.253092 0
M  V30 7661 H 733.222 4.39417 1.39406 0
M  V30 7662 H 736.766 6.90795 -0.972019 0
M  V30 7663 H 732.663 6.45261 0.175603 0
M  V30 7664 H 733.431 8.11509 -1.06749 0
M  V30 7665 N 736.094 -0.359525 1.53444 0
M  V30 7666 C 737.342 -1.09935 1.69584 0
M  V30 7667 C 737.663 -1.89656 0.453371 0
M  V30 7668 O 736.933 -1.8852 -0.53263 0
M  V30 7669 H 735.513 -0.408843 0.625185 0
M  V30 7670 H 738.175 -0.40467 1.90653 0
M  V30 7671 H 737.271 -1.78575 2.55964 0
M  V30 7672 N 737.572 -1.44907 -0.619662 0
M  V30 7673 C 738.8 -1.51795 -1.40591 0
M  V30 7674 C 739.215 -0.146553 -1.8823 0
M  V30 7675 O 738.572 0.849698 -1.61513 0
M  V30 7676 C 738.623 -2.49229 -2.61853 0
M  V30 7677 O 738.344 -3.81039 -2.16197 0
M  V30 7678 C 739.845 -2.65696 -3.54853 0
M  V30 7679 H 737.065 -0.514463 -0.430777 0
M  V30 7680 H 739.609 -1.8998 -0.756813 0
M  V30 7681 H 737.764 -2.14149 -3.2283 0
M  V30 7682 H 738.178 -4.33747 -2.94896 0
M  V30 7683 H 739.652 -3.37874 -4.36515 0
M  V30 7684 H 740.129 -1.71316 -4.0441 0
M  V30 7685 H 740.735 -3.01724 -2.99737 0
M  V30 7686 N 739.05 0.861098 -1.31996 0
M  V30 7687 C 739.998 1.99052 -1.20337 0
M  V30 7688 C 740.992 1.69045 -0.109623 0
M  V30 7689 O 742.198 1.77931 -0.272117 0
M  V30 7690 H 738.573 0.653064 -0.372843 0
M  V30 7691 H 740.544 2.06015 -2.15872 0
M  V30 7692 C 739.293 3.34846 -0.936663 0
M  V30 7693 H 738.616 3.58462 -1.77045 0
M  V30 7694 H 740.056 4.1444 -0.895302 0
M  V30 7695 C 738.515 3.34965 0.360607 0
M  V30 7696 O 739.045 3.7745 1.37456 0
M  V30 7697 N 737.251 2.88101 0.380296 0
M  V30 7698 H 736.798 2.53721 -0.445351 0
M  V30 7699 H 736.756 2.88563 1.24816 0
M  V30 7700 N 740.528 1.15101 1.07655 0
M  V30 7701 C 741.458 0.867864 2.16773 0
M  V30 7702 C 742.439 -0.180283 1.69142 0
M  V30 7703 O 743.624 -0.0353152 1.94168 0
M  V30 7704 C 740.754 0.35299 3.45501 0
M  V30 7705 C 739.708 1.33746 4.06566 0
M  V30 7706 C 739.034 0.681562 5.30338 0
M  V30 7707 C 740.334 2.7024 4.46954 0
M  V30 7708 H 742.028 1.78034 2.40716 0
M  V30 7709 H 739.574 0.857435 1.15689 0
M  V30 7710 H 741.527 0.142465 4.21159 0
M  V30 7711 H 740.251 -0.594945 3.21135 0
M  V30 7712 H 738.91 1.53429 3.32949 0
M  V30 7713 H 738.558 -0.272422 5.02262 0
M  V30 7714 H 738.258 1.33853 5.72151 0
M  V30 7715 H 739.782 0.48074 6.08705 0
M  V30 7716 H 741.196 2.5442 5.13754 0
M  V30 7717 H 739.593 3.32282 4.99709 0
M  V30 7718 H 740.663 3.26537 3.58471 0
M  V30 7719 N 742.006 -1.2595 0.947325 0
M  V30 7720 C 743.231 -1.98083 0.614633 0
M  V30 7721 C 743.656 -1.70013 -0.804815 0
M  V30 7722 O 743.014 -0.95175 -1.54309 0
M  V30 7723 C 743.062 -3.4993 0.870706 0
M  V30 7724 O 742.166 -4.12364 -0.0541451 0
M  V30 7725 H 741.507 -0.621232 0.234451 0
M  V30 7726 H 744.037 -1.60259 1.27193 0
M  V30 7727 H 744.047 -4.00198 0.794051 0
M  V30 7728 H 742.722 -3.69691 1.90529 0
M  V30 7729 H 741.299 -3.72826 0.0740917 0
M  V30 7730 N 743.484 -0.715051 -1.40445 0
M  V30 7731 C 744.712 -0.263959 -2.05209 0
M  V30 7732 C 745.127 1.09403 -1.53871 0
M  V30 7733 O 744.484 1.68746 -0.695064 0
M  V30 7734 C 744.535 -0.234545 -3.60738 0
M  V30 7735 O 744.256 -1.53891 -4.10182 0
M  V30 7736 C 745.757 0.235164 -4.42676 0
M  V30 7737 H 742.977 -0.11876 -0.660407 0
M  V30 7738 H 745.521 -0.973107 -1.79864 0
M  V30 7739 H 743.676 0.425563 -3.85055 0
M  V30 7740 H 744.09 -1.43903 -5.04373 0
M  V30 7741 H 745.564 0.204598 -5.51621 0
M  V30 7742 H 746.041 1.27724 -4.20218 0
M  V30 7743 H 746.647 -0.394649 -4.23465 0
M  V30 7744 N 744.962 1.50701 -0.461195 0
M  V30 7745 C 746.239 1.94958 0.158296 0
M  V30 7746 C 746.619 1.40111 1.57899 0
M  V30 7747 O 745.967 0.597976 2.20537 0
M  V30 7748 C 746.177 3.48821 0.11172 0
M  V30 7749 C 747.525 4.23499 0.30552 0
M  V30 7750 O 748.549 3.557 0.188758 0
M  V30 7751 O 747.408 5.43823 0.540244 0
M  V30 7752 H 744.502 0.818674 0.117054 0
M  V30 7753 H 747.048 1.61508 -0.520888 0
M  V30 7754 H 745.82 3.81263 -0.880577 0
M  V30 7755 H 745.443 3.88781 0.832791 0
M  V30 7756 N 746.441 0.193421 1.56409 0
M  V30 7757 C 747.371 -0.723334 2.22014 0
M  V30 7758 C 748.352 -1.22254 1.1827 0
M  V30 7759 O 749.537 -1.27168 1.46771 0
M  V30 7760 C 746.667 -1.94366 2.87818 0
M  V30 7761 C 745.621 -1.57943 3.97791 0
M  V30 7762 C 744.947 -2.87623 4.50752 0
M  V30 7763 C 746.247 -0.790639 5.16281 0
M  V30 7764 H 747.941 -0.176426 2.9888 0
M  V30 7765 H 745.487 -0.0834166 1.43758 0
M  V30 7766 H 747.44 -2.5902 3.32396 0
M  V30 7767 H 746.164 -2.51507 2.08355 0
M  V30 7768 H 744.823 -0.956482 3.53903 0
M  V30 7769 H 744.471 -3.4285 3.68053 0
M  V30 7770 H 744.171 -2.63998 5.24956 0
M  V30 7771 H 745.695 -3.53268 4.9803 0
M  V30 7772 H 747.109 -1.34024 5.57414 0
M  V30 7773 H 745.506 -0.65258 5.96541 0
M  V30 7774 H 746.576 0.208633 4.84451 0
M  V30 7775 N 747.919 -1.57396 -0.0801906 0
M  V30 7776 C 749.144 -1.91437 -0.797909 0
M  V30 7777 C 749.569 -0.789075 -1.70749 0
M  V30 7778 O 748.927 0.25857 -1.79447 0
M  V30 7779 C 748.975 -3.24402 -1.57467 0
M  V30 7780 O 748.079 -3.13043 -2.68473 0
M  V30 7781 H 747.42 -0.627109 -0.218243 0
M  V30 7782 H 749.95 -2.04537 -0.050949 0
M  V30 7783 H 749.96 -3.58072 -1.95571 0
M  V30 7784 H 748.635 -4.05884 -0.907229 0
M  V30 7785 H 747.212 -2.90915 -2.33287 0
M  V30 7786 N 749.397 0.351382 -1.53633 0
M  V30 7787 C 750.327 1.43688 -1.84055 0
M  V30 7788 C 751.308 1.55251 -0.695073 0
M  V30 7789 O 752.493 1.69587 -0.946257 0
M  V30 7790 C 749.623 2.80843 -2.04315 0
M  V30 7791 C 748.577 2.84094 -3.20117 0
M  V30 7792 C 747.903 4.2406 -3.25696 0
M  V30 7793 C 749.203 2.50334 -4.58399 0
M  V30 7794 H 750.897 1.18478 -2.74961 0
M  V30 7795 H 748.443 0.568509 -1.32303 0
M  V30 7796 H 750.396 3.56821 -2.2418 0
M  V30 7797 H 749.12 3.07471 -1.10132 0
M  V30 7798 H 747.779 2.10568 -3.00094 0
M  V30 7799 H 747.427 4.47785 -2.29123 0
M  V30 7800 H 747.127 4.27147 -4.03509 0
M  V30 7801 H 748.651 5.0189 -3.47762 0
M  V30 7802 H 750.065 3.16025 -4.78332 0
M  V30 7803 H 748.462 2.64717 -5.38558 0
M  V30 7804 H 749.532 1.45542 -4.62543 0
M  V30 7805 N 750.875 1.45233 0.611969 0
M  V30 7806 C 751.823 1.53898 1.74408 0
M  V30 7807 C 752.817 0.409254 1.64382 0
M  V30 7808 O 754.023 0.584988 1.70229 0
M  V30 7809 H 750.398 0.483303 0.576127 0
M  V30 7810 H 752.369 2.49143 1.64227 0
M  V30 7811 C 751.118 1.51865 3.12782 0
M  V30 7812 H 750.441 2.38118 3.21154 0
M  V30 7813 H 751.881 1.61986 3.91838 0
M  V30 7814 C 750.34 0.242374 3.36027 0
M  V30 7815 O 750.87 -0.679587 3.9591 0
M  V30 7816 N 749.076 0.139448 2.90265 0
M  V30 7817 H 748.623 0.890571 2.41716 0
M  V30 7818 H 748.581 -0.713686 3.06193 0
M  V30 7819 N 752.353 -0.854086 1.3245 0
M  V30 7820 C 753.3 -1.96271 1.21434 0
M  V30 7821 C 754.27 -1.6582 0.0963851 0
M  V30 7822 O 755.455 -1.88851 0.27203 0
M  V30 7823 C 752.595 -3.31939 0.943952 0
M  V30 7824 C 751.708 -3.74885 2.14675 0
M  V30 7825 C 750.843 -4.99347 1.81179 0
M  V30 7826 C 749.882 -5.34785 2.97777 0
M  V30 7827 N 749.019 -6.50425 2.6437 0
M  V30 7828 H 753.859 -2.05025 2.16261 0
M  V30 7829 H 751.396 -1.00348 1.07558 0
M  V30 7830 H 753.354 -4.10076 0.767675 0
M  V30 7831 H 751.984 -3.22784 0.0324763 0
M  V30 7832 H 751.036 -2.92396 2.43328 0
M  V30 7833 H 752.348 -3.97068 3.01891 0
M  V30 7834 H 751.502 -5.85193 1.60107 0
M  V30 7835 H 750.241 -4.79101 0.911777 0
M  V30 7836 H 749.246 -4.47451 3.1948 0
M  V30 7837 H 750.471 -5.56988 3.88511 0
M  V30 7838 H 748.417 -6.31695 1.7691 0
M  V30 7839 H 748.334 -6.7263 3.45116 0
M  V30 7840 H 749.602 -7.39422 2.46729 0
M  V30 7841 N 753.831 -1.1567 -1.07043 0
M  V30 7842 C 754.741 -0.870435 -2.17855 0
M  V30 7843 C 755.757 0.154452 -1.73313 0
M  V30 7844 O 756.933 -0.0203759 -2.0139 0
M  V30 7845 C 753.998 -0.367219 -3.4475 0
M  V30 7846 C 753.059 -1.45639 -4.03841 0
M  V30 7847 C 752.292 -0.977092 -5.2468 0
M  V30 7848 O 752.515 0.176127 -5.70128 0
M  V30 7849 O 751.449 -1.76215 -5.75527 0
M  V30 7850 H 755.275 -1.79687 -2.44839 0
M  V30 7851 H 752.86 -0.936064 -1.1644 0
M  V30 7852 H 754.742 -0.0931947 -4.21297 0
M  V30 7853 H 753.417 0.53131 -3.1931 0
M  V30 7854 H 752.324 -1.78406 -3.28819 0
M  V30 7855 H 753.657 -2.32995 -4.3356 0
M  V30 7856 N 755.309 1.25446 -0.953992 0
M  V30 7857 C 756.242 2.24341 -0.417912 0
M  V30 7858 C 757.22 1.54709 0.5004 0
M  V30 7859 O 758.404 1.83414 0.434923 0
M  V30 7860 C 755.531 3.36352 0.398155 0
M  V30 7861 C 754.577 4.24007 -0.460461 0
M  V30 7862 S 755.41 5.00951 -1.89231 0
M  V30 7863 C 756.566 6.1643 -1.08465 0
M  V30 7864 H 756.799 2.69465 -1.25602 0
M  V30 7865 H 754.332 1.34512 -0.758018 0
M  V30 7866 H 756.29 4.01325 0.863059 0
M  V30 7867 H 754.951 2.89813 1.21108 0
M  V30 7868 H 754.144 5.03728 0.165415 0
M  V30 7869 H 753.746 3.63965 -0.860549 0
M  V30 7870 H 756.038 6.76681 -0.333017 0
M  V30 7871 H 756.981 6.8335 -1.85577 0
M  V30 7872 H 757.389 5.61139 -0.615062 0
M  V30 7873 N 756.787 0.722489 1.40064 0
M  V30 7874 C 758.035 0.264455 2.00362 0
M  V30 7875 C 758.356 -1.14847 1.57592 0
M  V30 7876 O 757.626 -1.77982 0.818477 0
M  V30 7877 H 756.206 0.0947846 0.740962 0
M  V30 7878 H 758.868 0.929659 1.71299 0
M  V30 7879 H 757.964 0.302977 3.10626 0
M  V30 7880 N 758.265 -1.50454 0.469181 0
M  V30 7881 C 759.49 -2.0722 -0.0864892 0
M  V30 7882 C 759.915 -1.33098 -1.32916 0
M  V30 7883 O 759.273 -0.378084 -1.77314 0
M  V30 7884 C 759.321 -3.58845 -0.355384 0
M  V30 7885 O 758.425 -3.86583 -1.43622 0
M  V30 7886 H 757.766 -0.663889 0.0121414 0
M  V30 7887 H 760.296 -1.93674 0.659674 0
M  V30 7888 H 760.306 -4.03617 -0.596447 0
M  V30 7889 H 758.981 -4.12211 0.552698 0
M  V30 7890 H 757.558 -3.5365 -1.18262 0
M  V30 7891 N 759.743 -0.201713 -1.56304 0
M  V30 7892 C 760.673 0.71155 -2.22394 0
M  V30 7893 C 761.654 1.21625 -1.18917 0
M  V30 7894 O 762.839 1.26388 -1.47444 0
M  V30 7895 C 759.969 1.92837 -2.88845 0
M  V30 7896 C 758.923 1.55831 -3.98623 0
M  V30 7897 C 758.249 2.85228 -4.52271 0
M  V30 7898 C 759.549 0.763249 -5.16693 0
M  V30 7899 H 761.243 0.160573 -2.98969 0
M  V30 7900 H 758.789 0.0757916 -1.438 0
M  V30 7901 H 760.742 2.57253 -3.33764 0
M  V30 7902 H 759.466 2.50398 -2.09686 0
M  V30 7903 H 758.125 0.9377 -3.54405 0
M  V30 7904 H 757.773 3.40893 -3.69866 0
M  V30 7905 H 757.473 2.6121 -5.26349 0
M  V30 7906 H 758.997 3.50622 -4.99897 0
M  V30 7907 H 760.411 1.31066 -5.58117 0
M  V30 7908 H 758.808 0.620935 -5.96879 0
M  V30 7909 H 759.878 -0.234322 -4.84334 0
M  V30 7910 N 761.222 1.57436 0.0718424 0
M  V30 7911 C 762.447 1.91858 0.787745 0
M  V30 7912 C 762.872 0.798119 1.70328 0
M  V30 7913 O 762.23 -0.24905 1.79581 0
M  V30 7914 C 762.278 3.25232 1.55744 0
M  V30 7915 O 761.382 3.14462 2.6681 0
M  V30 7916 H 760.723 0.628258 0.214914 0
M  V30 7917 H 763.253 2.04561 0.0401012 0
M  V30 7918 H 763.263 3.59105 1.9367 0
M  V30 7919 H 761.938 4.0636 0.885691 0
M  V30 7920 H 760.515 2.92148 2.31741 0
M  V30 7921 N 762.7 -0.34323 1.53817 0
M  V30 7922 C 763.949 -1.08086 1.70295 0
M  V30 7923 C 764.262 -1.89794 0.47302 0
M  V30 7924 O 765.468 -2.66498 0.518754 0
M  V30 7925 C 763.924 -1.97097 3.01133 0
M  V30 7926 C 763.532 -1.20594 4.31464 0
M  V30 7927 C 765.276 -2.70715 3.26976 0
M  V30 7928 C 763.183 -2.08636 5.53376 0
M  V30 7929 H 762.113 -0.407228 0.634572 0
M  V30 7930 H 764.764 -0.340328 1.80316 0
M  V30 7931 H 763.146 -2.74971 2.84969 0
M  V30 7932 H 764.32 -0.476282 4.58332 0
M  V30 7933 H 762.635 -0.587426 4.12236 0
M  V30 7934 H 765.232 -3.36857 4.15248 0
M  V30 7935 H 765.575 -3.37299 2.43998 0
M  V30 7936 H 766.108 -1.99914 3.43917 0
M  V30 7937 H 762.847 -1.46594 6.38898 0
M  V30 7938 H 762.367 -2.7939 5.30755 0
M  V30 7939 H 764.046 -2.67682 5.89029 0
M  V30 7940 N 764.178 -1.45556 -0.604258 0
M  V30 7941 C 765.125 -1.54482 -1.71476 0
M  V30 7942 C 766.095 -0.390479 -1.61445 0
M  V30 7943 O 767.28 -0.604371 -1.80975 0
M  V30 7944 C 764.42 -1.52064 -3.09791 0
M  V30 7945 C 763.533 -2.78073 -3.30604 0
M  V30 7946 C 762.668 -2.67304 -4.59044 0
M  V30 7947 C 761.707 -3.88352 -4.73127 0
M  V30 7948 N 760.844 -3.76098 -5.9287 0
M  V30 7949 H 765.684 -2.49349 -1.63184 0
M  V30 7950 H 763.221 -1.23725 -0.795641 0
M  V30 7951 H 765.179 -1.48649 -3.89819 0
M  V30 7952 H 763.809 -0.607442 -3.17033 0
M  V30 7953 H 762.861 -2.91561 -2.44329 0
M  V30 7954 H 764.173 -3.67847 -3.36883 0
M  V30 7955 H 763.327 -2.61875 -5.47272 0
M  V30 7956 H 762.066 -1.75135 -4.55169 0
M  V30 7957 H 761.071 -3.94137 -3.83322 0
M  V30 7958 H 762.296 -4.81591 -4.78797 0
M  V30 7959 H 760.242 -2.867 -5.90033 0
M  V30 7960 H 760.159 -4.59509 -6.00323 0
M  V30 7961 H 761.427 -3.74607 -6.83586 0
M  V30 7962 N 765.656 0.84705 -1.32902 0
M  V30 7963 C 766.933 1.58583 -1.14503 0
M  V30 7964 C 767.313 2.09075 0.291724 0
M  V30 7965 O 766.661 1.88636 1.28952 0
M  V30 7966 C 766.871 2.72605 -2.17916 0
M  V30 7967 C 768.219 3.41993 -2.51646 0
M  V30 7968 O 769.243 2.82838 -2.1652 0
M  V30 7969 O 768.102 4.48761 -3.1189 0
M  V30 7970 H 765.196 0.698756 -0.442345 0
M  V30 7971 H 767.742 0.890516 -1.44457 0
M  V30 7972 H 766.514 2.32876 -3.14459 0
M  V30 7973 H 766.137 3.49807 -1.89 0
M  V30 7974 N 767.134 1.16236 1.06428 0
M  V30 7975 C 768.545 0.950942 1.60667 0
M  V30 7976 C 768.896 -0.505491 1.89576 0
M  V30 7977 O 768.021 -1.37843 1.66818 0
M  V30 7978 C 768.616 1.71982 2.91904 0
M  V30 7979 C 767.175 1.55342 3.4285 0
M  V30 7980 C 766.322 1.72942 2.16763 0
M  V30 7981 H 769.273 1.31126 0.893959 0
M  V30 7982 H 769.294 1.19483 3.61253 0
M  V30 7983 H 768.806 2.77978 2.70831 0
M  V30 7984 H 766.907 0.5178 3.68985 0
M  V30 7985 H 767.02 2.33643 4.18267 0
M  V30 7986 H 765.384 1.15673 2.26918 0
M  V30 7987 H 766.167 2.80324 1.98175 0
M  V30 7988 N 768.612 -1.24939 0.960631 0
M  V30 7989 C 769.559 -2.25658 0.484459 0
M  V30 7990 C 770.529 -1.59422 -0.466242 0
M  V30 7991 O 771.714 -1.87015 -0.378169 0
M  V30 7992 C 768.854 -3.44359 -0.225958 0
M  V30 7993 C 767.967 -4.25214 0.762682 0
M  V30 7994 C 767.102 -5.31192 0.0290931 0
M  V30 7995 C 766.141 -6.03739 1.00827 0
M  V30 7996 N 765.278 -7.01437 0.305155 0
M  V30 7997 H 770.118 -2.65758 1.34821 0
M  V30 7998 H 767.655 -1.30648 0.675983 0
M  V30 7999 H 769.613 -4.12035 -0.654472 0
M  V30 8000 H 768.243 -3.05118 -1.05371 0
M  V30 8001 H 767.295 -3.57144 1.30966 0
M  V30 8002 H 768.607 -4.75406 1.50964 0
M  V30 8003 H 767.761 -6.04971 -0.457763 0
M  V30 8004 H 766.5 -4.81889 -0.750614 0
M  V30 8005 H 765.505 -5.2877 1.50607 0
M  V30 8006 H 766.73 -6.55131 1.7883 0
M  V30 8007 H 764.676 -6.54415 -0.455704 0
M  V30 8008 H 764.593 -7.49475 0.991104 0
M  V30 8009 H 765.861 -7.79336 -0.159966 0
M  V30 8010 N 770.09 -0.729906 -1.39679 0
M  V30 8011 C 771.02 -0.101618 -2.33279 0
M  V30 8012 C 772.001 0.729854 -1.53646 0
M  V30 8013 O 773.186 0.67587 -1.82059 0
M  V30 8014 C 770.316 0.81024 -3.37716 0
M  V30 8015 C 769.27 0.0833126 -4.27919 0
M  V30 8016 C 768.596 1.11185 -5.23012 0
M  V30 8017 C 769.896 -1.07107 -5.112 0
M  V30 8018 H 771.59 -0.883452 -2.86069 0
M  V30 8019 H 769.136 -0.426283 -1.37546 0
M  V30 8020 H 771.089 1.25927 -4.02145 0
M  V30 8021 H 769.813 1.62413 -2.83354 0
M  V30 8022 H 768.472 -0.346043 -3.64963 0
M  V30 8023 H 768.12 1.91917 -4.64948 0
M  V30 8024 H 767.82 0.63026 -5.8421 0
M  V30 8025 H 769.344 1.56068 -5.90318 0
M  V30 8026 H 770.758 -0.700726 -5.69002 0
M  V30 8027 H 769.155 -1.48196 -5.81514 0
M  V30 8028 H 770.225 -1.89513 -4.46332 0
M  V30 8029 N 771.568 1.50203 -0.477153 0
M  V30 8030 C 772.798 2.0647 0.0731427 0
M  V30 8031 C 773.206 1.3405 1.33518 0
M  V30 8032 O 772.549 0.405164 1.79176 0
M  V30 8033 C 772.611 3.57025 0.421121 0
M  V30 8034 C 772.275 4.50973 -0.739765 0
M  V30 8035 C 773.272 4.939 -1.62353 0
M  V30 8036 C 770.957 4.93581 -0.93181 0
M  V30 8037 C 772.951 5.78149 -2.6837 0
M  V30 8038 C 770.638 5.77612 -1.99519 0
M  V30 8039 C 771.636 6.19798 -2.86949 0
M  V30 8040 O 771.324 7.02152 -3.91456 0
M  V30 8041 H 771.056 0.675969 -0.00648243 0
M  V30 8042 H 773.61 1.94278 -0.66673 0
M  V30 8043 H 771.84 3.67141 1.21426 0
M  V30 8044 H 773.529 3.95632 0.907213 0
M  V30 8045 H 774.295 4.61646 -1.48687 0
M  V30 8046 H 770.174 4.60262 -0.260739 0
M  V30 8047 H 773.718 6.10997 -3.36643 0
M  V30 8048 H 769.615 6.09279 -2.13189 0
M  V30 8049 H 770.383 7.20414 -3.88518 0
M  V30 8050 N 773.046 0.209999 1.56195 0
M  V30 8051 C 773.993 -0.704854 2.19774 0
M  V30 8052 C 774.963 -1.19886 1.14964 0
M  V30 8053 O 776.148 -1.26005 1.43274 0
M  V30 8054 C 773.288 -1.91241 2.87265 0
M  V30 8055 C 772.401 -1.45838 4.06639 0
M  V30 8056 C 771.536 -2.6226 4.61945 0
M  V30 8057 C 770.575 -2.13537 5.73645 0
M  V30 8058 N 769.712 -3.2319 6.23292 0
M  V30 8059 H 774.552 -0.155944 2.97592 0
M  V30 8060 H 772.089 -0.0652235 1.46955 0
M  V30 8061 H 774.047 -2.62123 3.24573 0
M  V30 8062 H 772.677 -2.43439 2.11985 0
M  V30 8063 H 771.729 -0.644897 3.74894 0
M  V30 8064 H 773.041 -1.06103 4.87384 0
M  V30 8065 H 772.195 -3.41243 5.01636 0
M  V30 8066 H 770.934 -3.05278 3.80338 0
M  V30 8067 H 769.939 -1.33013 5.33468 0
M  V30 8068 H 771.164 -1.71533 6.57079 0
M  V30 8069 H 769.11 -3.65711 5.44602 0
M  V30 8070 H 769.027 -2.8767 6.99129 0
M  V30 8071 H 770.295 -4.02342 6.67639 0
M  V30 8072 N 774.524 -1.57472 -0.0634922 0
M  V30 8073 C 775.471 -2.04258 -1.07457 0
M  V30 8074 C 776.441 -0.924804 -1.37973 0
M  V30 8075 O 777.626 -1.19305 -1.48899 0
M  V30 8076 C 774.766 -2.49832 -2.38071 0
M  V30 8077 C 773.879 -3.75263 -2.14014 0
M  V30 8078 C 773.014 -4.09585 -3.38251 0
M  V30 8079 C 772.053 -5.28032 -3.09594 0
M  V30 8080 N 771.19 -5.57953 -4.26185 0
M  V30 8081 H 776.03 -2.90402 -0.668626 0
M  V30 8082 H 773.567 -1.43609 -0.318572 0
M  V30 8083 H 775.525 -2.7431 -3.14341 0
M  V30 8084 H 774.155 -1.66654 -2.76453 0
M  V30 8085 H 773.207 -3.58075 -1.28399 0
M  V30 8086 H 774.519 -4.61667 -1.88852 0
M  V30 8087 H 773.673 -4.35008 -4.2291 0
M  V30 8088 H 772.412 -3.21765 -3.66495 0
M  V30 8089 H 771.417 -5.02397 -2.23332 0
M  V30 8090 H 772.642 -6.17477 -2.82663 0
M  V30 8091 H 770.588 -4.73092 -4.54445 0
M  V30 8092 H 770.505 -6.38793 -4.04326 0
M  V30 8093 H 771.773 -5.87931 -5.11817 0
M  V30 8094 N 776.003 0.335068 -1.53997 0
M  V30 8095 C 777.231 1.09418 -1.756 0
M  V30 8096 C 777.646 1.82083 -0.499138 0
M  V30 8097 O 777.003 1.74646 0.529631 0
M  V30 8098 C 777.054 2.10115 -2.94166 0
M  V30 8099 O 776.775 1.40404 -4.14992 0
M  V30 8100 C 778.276 2.98336 -3.27888 0
M  V30 8101 H 775.496 0.32595 -0.586513 0
M  V30 8102 H 778.04 0.384693 -2.00849 0
M  V30 8103 H 776.195 2.76616 -2.71224 0
M  V30 8104 H 776.609 2.07743 -4.81605 0
M  V30 8105 H 778.083 3.6491 -4.1418 0
M  V30 8106 H 778.56 3.64814 -2.44556 0
M  V30 8107 H 779.166 2.37412 -3.52868 0
M  V30 8108 N 777.481 1.45874 0.596531 0
M  V30 8109 C 778.411 1.5824 1.71705 0
M  V30 8110 C 779.392 0.433366 1.64487 0
M  V30 8111 O 780.577 0.657895 1.82717 0
M  V30 8112 C 777.707 1.55927 3.10329 0
M  V30 8113 C 776.661 2.69659 3.32367 0
M  V30 8114 C 775.987 2.52403 4.71377 0
M  V30 8115 C 777.287 4.11591 3.21544 0
M  V30 8116 H 778.981 2.52035 1.61613 0
M  V30 8117 H 776.527 1.21297 0.776082 0
M  V30 8118 H 778.48 1.63173 3.88526 0
M  V30 8119 H 777.204 0.586674 3.21288 0
M  V30 8120 H 775.863 2.61859 2.56564 0
M  V30 8121 H 775.511 1.53258 4.79083 0
M  V30 8122 H 775.211 3.28679 4.87077 0
M  V30 8123 H 776.735 2.6152 5.5176 0
M  V30 8124 H 778.149 4.20576 3.89601 0
M  V30 8125 H 776.546 4.88344 3.4877 0
M  V30 8126 H 777.616 4.32719 2.1882 0
M  V30 8127 N 778.959 -0.83999 1.33349 0
M  V30 8128 C 779.906 -1.94972 1.23509 0
M  V30 8129 C 780.876 -1.65709 0.113967 0
M  V30 8130 O 782.061 -1.88552 0.292045 0
M  V30 8131 C 779.201 -3.30919 0.979105 0
M  V30 8132 C 778.314 -3.72587 2.18639 0
M  V30 8133 C 777.449 -4.97397 1.86465 0
M  V30 8134 C 776.488 -5.31597 3.03432 0
M  V30 8135 N 775.625 -6.47584 2.71254 0
M  V30 8136 H 780.465 -2.0272 2.18423 0
M  V30 8137 H 778.002 -0.992017 1.08616 0
M  V30 8138 H 779.96 -4.09239 0.811126 0
M  V30 8139 H 778.59 -3.22731 0.0667099 0
M  V30 8140 H 777.642 -2.89799 2.46416 0
M  V30 8141 H 778.954 -3.93844 3.06086 0
M  V30 8142 H 778.108 -5.83462 1.66305 0
M  V30 8143 H 776.847 -4.78107 0.96254 0
M  V30 8144 H 775.852 -4.44037 3.24208 0
M  V30 8145 H 777.077 -5.52836 3.94397 0
M  V30 8146 H 775.023 -6.29783 1.836 0
M  V30 8147 H 774.94 -6.68931 3.52231 0
M  V30 8148 H 776.208 -7.36764 2.54558 0
M  V30 8149 N 780.437 -1.16799 -1.0581 0
M  V30 8150 C 781.853 -0.913935 -1.30841 0
M  V30 8151 C 782.053 0.430439 -1.96849 0
M  V30 8152 O 781.109 1.16885 -2.23817 0
M  V30 8153 C 782.422 -2.06662 -2.18429 0
M  V30 8154 C 783.97 -2.10294 -2.31831 0
M  V30 8155 C 784.445 -3.2493 -3.22776 0
M  V30 8156 N 785.936 -3.24678 -3.30361 0
M  V30 8157 C 786.671 -4.10021 -4.00837 0
M  V30 8158 N 786.167 -5.05461 -4.73795 0
M  V30 8159 N 787.96 -3.97991 -3.96937 0
M  V30 8160 H 780.111 -2.03343 -0.613613 0
M  V30 8161 H 782.374 -0.88754 -0.333133 0
M  V30 8162 H 782.08 -3.03791 -1.77211 0
M  V30 8163 H 781.954 -2.01233 -3.19038 0
M  V30 8164 H 784.341 -1.13754 -2.72294 0
M  V30 8165 H 784.422 -2.19786 -1.30873 0
M  V30 8166 H 784.066 -4.21731 -2.83028 0
M  V30 8167 H 783.996 -3.12674 -4.23725 0
M  V30 8168 H 786.487 -2.55573 -2.78372 0
M  V30 8169 H 786.8 -5.66989 -5.25113 0
M  V30 8170 H 785.145 -5.09436 -4.72758 0
M  V30 8171 H 788.336 -3.2273 -3.39062 0
M  V30 8172 H 788.509 -4.64722 -4.51594 0
M  V30 8173 N 781.915 1.24427 -0.967243 0
M  V30 8174 C 783.143 1.96541 -0.646477 0
M  V30 8175 C 783.558 1.71753 0.783996 0
M  V30 8176 O 782.915 1.00102 1.52597 0
M  V30 8177 C 782.966 3.4983 -0.911098 0
M  V30 8178 O 782.687 3.7377 -2.28534 0
M  V30 8179 C 784.188 4.3916 -0.604458 0
M  V30 8180 H 781.408 0.626129 -0.241255 0
M  V30 8181 H 783.952 1.58268 -1.29505 0
M  V30 8182 H 782.107 3.86168 -0.308741 0
M  V30 8183 H 782.521 4.68154 -2.365 0
M  V30 8184 H 783.995 5.4557 -0.840069 0
M  V30 8185 H 784.472 4.36771 0.461273 0
M  V30 8186 H 785.078 4.08409 -1.1867 0
M  V30 8187 N 783.393 0.737304 1.3929 0
M  V30 8188 C 784.809 0.413132 1.5416 0
M  V30 8189 C 785.009 -1.07574 1.70382 0
M  V30 8190 O 784.065 -1.86185 1.70562 0
M  V30 8191 C 785.378 1.19817 2.75798 0
M  V30 8192 C 786.926 1.18662 2.89635 0
M  V30 8193 C 787.401 1.95427 4.14213 0
M  V30 8194 N 788.892 1.92605 4.21257 0
M  V30 8195 C 789.627 2.48808 5.16606 0
M  V30 8196 N 789.123 3.13659 6.1773 0
M  V30 8197 N 790.916 2.38829 5.08839 0
M  V30 8198 H 783.067 1.70243 1.27008 0
M  V30 8199 H 785.33 0.720802 0.61575 0
M  V30 8200 H 785.036 2.25179 2.70161 0
M  V30 8201 H 784.91 0.804144 3.68529 0
M  V30 8202 H 787.297 0.141112 2.94762 0
M  V30 8203 H 787.378 1.62003 1.97961 0
M  V30 8204 H 787.022 2.9998 4.09847 0
M  V30 8205 H 786.952 1.4949 5.04936 0
M  V30 8206 H 789.443 1.45362 3.48824 0
M  V30 8207 H 789.756 3.54006 6.8695 0
M  V30 8208 H 788.101 3.17749 6.1811 0
M  V30 8209 H 791.292 1.87806 4.28773 0
M  V30 8210 H 791.465 2.82929 5.82971 0
M  V30 8211 N 784.871 -1.49948 0.485112 0
M  V30 8212 C 785.818 -2.28819 -0.301729 0
M  V30 8213 C 786.788 -1.34496 -0.974683 0
M  V30 8214 O 787.973 -1.63444 -0.984418 0
M  V30 8215 C 785.113 -3.16758 -1.36961 0
M  V30 8216 C 784.226 -4.26125 -0.710027 0
M  V30 8217 C 783.361 -5.01302 -1.75699 0
M  V30 8218 C 782.4 -6.02525 -1.07841 0
M  V30 8219 N 781.537 -6.70927 -2.06886 0
M  V30 8220 H 786.377 -2.95604 0.377127 0
M  V30 8221 H 783.914 -1.45764 0.197826 0
M  V30 8222 H 785.872 -3.66106 -2.00056 0
M  V30 8223 H 784.502 -2.51991 -2.01744 0
M  V30 8224 H 783.554 -3.80385 0.0338278 0
M  V30 8225 H 784.866 -4.98493 -0.175079 0
M  V30 8226 H 784.02 -5.54438 -2.46339 0
M  V30 8227 H 782.759 -4.28672 -2.32577 0
M  V30 8228 H 781.764 -5.48635 -0.357706 0
M  V30 8229 H 782.989 -6.77134 -0.516345 0
M  V30 8230 H 780.935 -6.01079 -2.62755 0
M  V30 8231 H 780.852 -7.39216 -1.58414 0
M  V30 8232 H 782.12 -7.28675 -2.76863 0
M  V30 8233 N 786.349 -0.21828 -1.56081 0
M  V30 8234 C 787.596 0.414307 -1.98216 0
M  V30 8235 C 787.924 1.60005 -1.10584 0
M  V30 8236 O 787.179 1.95124 -0.150043 0
M  V30 8237 C 787.478 0.894782 -3.46018 0
M  V30 8238 C 787.144 -0.180083 -4.5054 0
M  V30 8239 C 785.806 -0.475367 -4.78846 0
M  V30 8240 C 788.158 -0.907191 -5.13244 0
M  V30 8241 C 785.486 -1.50233 -5.67139 0
M  V30 8242 C 787.838 -1.92347 -6.02649 0
M  V30 8243 C 786.502 -2.22571 -6.293 0
M  V30 8244 H 785.772 0.151606 -0.725325 0
M  V30 8245 H 788.419 -0.320113 -1.88806 0
M  V30 8246 H 786.724 1.7079 -3.52616 0
M  V30 8247 H 788.421 1.39403 -3.75989 0
M  V30 8248 H 785.011 0.06022 -4.28558 0
M  V30 8249 H 789.195 -0.692303 -4.91448 0
M  V30 8250 H 784.451 -1.74215 -5.86054 0
M  V30 8251 H 788.625 -2.49197 -6.50288 0
M  V30 8252 H 786.252 -3.0229 -6.97513 0
M  V30 8253 N 787.827 1.57504 0.0551401 0
M  V30 8254 C 789.073 1.88334 0.752216 0
M  V30 8255 C 789.406 0.812742 1.76375 0
M  V30 8256 O 788.681 -0.175198 1.93709 0
M  V30 8257 C 788.964 3.29824 1.44528 0
M  V30 8258 C 788.817 4.47553 0.449026 0
M  V30 8259 C 790.136 3.69808 2.38601 0
M  V30 8260 H 787.255 0.684973 0.271995 0
M  V30 8261 H 789.897 1.89994 0.0151895 0
M  V30 8262 H 788.047 3.28539 2.07351 0
M  V30 8263 H 789.719 4.60967 -0.175277 0
M  V30 8264 H 787.962 4.33168 -0.234162 0
M  V30 8265 H 788.633 5.43376 0.971917 0
M  V30 8266 H 791.109 3.72293 1.85842 0
M  V30 8267 H 789.985 4.69665 2.84088 0
M  V30 8268 H 790.246 3.00641 3.24141 0
M  V30 8269 N 789.305 -0.326896 1.54172 0
M  V30 8270 C 790.551 -1.06681 1.72473 0
M  V30 8271 C 790.884 -1.87779 0.49523 0
M  V30 8272 O 790.159 -1.87754 -0.507803 0
M  V30 8273 C 790.442 -1.99429 2.99834 0
M  V30 8274 C 790.295 -1.21682 4.33028 0
M  V30 8275 C 791.614 -2.99002 3.22933 0
M  V30 8276 H 788.733 -0.386438 0.627563 0
M  V30 8277 H 791.375 -0.343779 1.86864 0
M  V30 8278 H 789.525 -2.61081 2.87696 0
M  V30 8279 H 791.197 -0.625153 4.57044 0
M  V30 8280 H 789.44 -0.519045 4.30684 0
M  V30 8281 H 790.111 -1.89766 5.18356 0
M  V30 8282 H 792.587 -2.4747 3.34511 0
M  V30 8283 H 791.463 -3.61085 4.13412 0
M  V30 8284 H 791.724 -3.71281 2.40006 0
M  V30 8285 N 790.784 -1.46188 -0.588786 0
M  V30 8286 C 792.061 -1.41659 -1.34878 0
M  V30 8287 C 792.441 -0.0968913 -2.10878 0
M  V30 8288 O 791.789 0.921468 -2.09096 0
M  V30 8289 C 791.999 -2.6424 -2.27988 0
M  V30 8290 C 793.347 -3.1013 -2.90008 0
M  V30 8291 O 794.371 -2.64745 -2.38303 0
M  V30 8292 O 793.23 -3.88944 -3.83908 0
M  V30 8293 H 790.324 -0.563058 -0.605718 0
M  V30 8294 H 792.87 -1.58346 -0.610309 0
M  V30 8295 H 791.642 -3.51853 -1.71217 0
M  V30 8296 H 791.265 -2.49982 -3.09184 0
M  V30 8297 N 792.262 0.832906 -1.33792 0
M  V30 8298 C 793.51 1.58539 -1.25338 0
M  V30 8299 C 793.831 1.94175 0.179204 0
M  V30 8300 O 793.101 1.61458 1.10941 0
M  V30 8301 H 791.681 0.58784 -0.460926 0
M  V30 8302 H 794.343 0.995064 -1.67584 0
M  V30 8303 H 793.439 2.51268 -1.85123 0
M  V30 8304 N 793.74 1.17359 1.05189 0
M  V30 8305 C 794.986 0.963413 1.78455 0
M  V30 8306 C 795.319 -0.506703 1.87473 0
M  V30 8307 O 794.594 -1.37611 1.37453 0
M  V30 8308 C 794.877 1.60519 3.22344 0
M  V30 8309 C 794.73 3.14741 3.21338 0
M  V30 8310 C 796.049 1.3091 4.20179 0
M  V30 8311 H 793.168 0.351412 0.647826 0
M  V30 8312 H 795.81 1.44858 1.22948 0
M  V30 8313 H 793.96 1.19265 3.69741 0
M  V30 8314 H 795.632 3.65053 2.82017 0
M  V30 8315 H 793.875 3.4749 2.59679 0
M  V30 8316 H 794.546 3.54775 4.22894 0
M  V30 8317 H 797.022 1.66635 3.81277 0
M  V30 8318 H 795.898 1.784 5.191 0
M  V30 8319 H 796.159 0.229908 4.41502 0
M  V30 8320 N 795.218 -1.23913 0.973828 0
M  V30 8321 C 796.128 -2.28838 0.516735 0
M  V30 8322 C 797.144 -1.68723 -0.425282 0
M  V30 8323 O 798.32 -1.99201 -0.296819 0
M  V30 8324 C 795.385 -3.46233 -0.179914 0
M  V30 8325 C 794.446 -4.21729 0.80269 0
M  V30 8326 C 793.679 -5.33518 0.139191 0
M  V30 8327 O 793.902 -5.60252 -1.07118 0
M  V30 8328 O 792.836 -5.96088 0.834447 0
M  V30 8329 H 796.662 -2.70067 1.38916 0
M  V30 8330 H 794.247 -1.2972 0.74115 0
M  V30 8331 H 796.129 -4.17514 -0.570991 0
M  V30 8332 H 794.804 -3.06969 -1.02721 0
M  V30 8333 H 793.711 -3.52799 1.24434 0
M  V30 8334 H 795.044 -4.64825 1.61859 0
M  V30 8335 N 796.696 -0.74468 -1.38897 0
M  V30 8336 C 797.942 -0.297324 -2.00609 0
M  V30 8337 C 798.275 1.11547 -1.58968 0
M  V30 8338 O 797.55 1.76227 -0.823057 0
M  V30 8339 C 797.833 -0.410125 -3.57757 0
M  V30 8340 C 797.686 -1.86338 -4.09387 0
M  V30 8341 C 799.005 0.20176 -4.39637 0
M  V30 8342 H 796.124 -0.109509 -0.728819 0
M  V30 8343 H 798.766 -0.942653 -1.64967 0
M  V30 8344 H 796.916 0.139287 -3.8825 0
M  V30 8345 H 798.588 -2.47042 -3.89574 0
M  V30 8346 H 796.831 -2.38146 -3.62586 0
M  V30 8347 H 797.502 -1.89352 -5.18507 0
M  V30 8348 H 799.978 -0.266703 -4.15244 0
M  V30 8349 H 798.854 0.0925415 -5.48822 0
M  V30 8350 H 799.115 1.289 -4.22891 0
M  V30 8351 N 798.174 1.49689 -0.493057 0
M  V30 8352 C 799.399 2.07331 0.0535114 0
M  V30 8353 C 799.824 1.35196 1.30781 0
M  V30 8354 O 799.182 0.406246 1.7669 0
M  V30 8355 C 799.23 3.59364 0.29825 0
M  V30 8356 O 798.334 3.88819 1.37454 0
M  V30 8357 H 797.675 0.663612 -0.0227018 0
M  V30 8358 H 800.205 1.926 -0.690402 0
M  V30 8359 H 800.215 4.04515 0.532159 0
M  V30 8360 H 798.89 4.1128 -0.618207 0
M  V30 8361 H 797.467 3.55487 1.12621 0
M  V30 8362 N 799.652 0.226554 1.55963 0
M  V30 8363 C 800.901 -0.40417 1.97609 0
M  V30 8364 C 801.214 -1.60541 1.1174 0
M  V30 8365 O 802.42 -2.30598 1.43307 0
M  V30 8366 C 800.876 -0.770466 3.51556 0
M  V30 8367 C 800.484 0.408244 4.46136 0
M  V30 8368 C 802.228 -1.36651 4.01904 0
M  V30 8369 C 800.135 0.0192347 5.91397 0
M  V30 8370 H 799.065 -0.15478 0.737943 0
M  V30 8371 H 801.716 0.323558 1.80625 0
M  V30 8372 H 800.098 -1.55575 3.6416 0
M  V30 8373 H 801.272 1.18575 4.45283 0
M  V30 8374 H 799.587 0.917859 4.06158 0
M  V30 8375 H 802.184 -1.67055 5.07934 0
M  V30 8376 H 802.527 -2.28403 3.48049 0
M  V30 8377 H 803.06 -0.644556 3.92543 0
M  V30 8378 H 799.799 0.90336 6.49245 0
M  V30 8379 H 799.319 -0.722485 5.95433 0
M  V30 8380 H 800.998 -0.405711 6.45727 0
M  V30 8381 N 801.13 -1.57531 -0.0467866 0
M  V30 8382 C 802.358 -1.92696 -0.753371 0
M  V30 8383 C 802.773 -0.824792 -1.69831 0
M  V30 8384 O 802.13 0.200155 -1.81399 0
M  V30 8385 C 802.181 -3.27728 -1.52566 0
M  V30 8386 O 801.902 -4.3371 -0.618674 0
M  V30 8387 C 803.403 -3.77066 -2.33101 0
M  V30 8388 H 800.623 -0.636367 -0.212788 0
M  V30 8389 H 803.167 -2.04498 -0.00959361 0
M  V30 8390 H 801.322 -3.17378 -2.22148 0
M  V30 8391 H 801.736 -5.11548 -1.15839 0
M  V30 8392 H 803.21 -4.74109 -2.82709 0
M  V30 8393 H 803.687 -3.07348 -3.13741 0
M  V30 8394 H 804.293 -3.90442 -1.68628 0
M  V30 8395 N 802.608 0.318715 -1.54344 0
M  V30 8396 C 803.836 1.0755 -1.7675 0
M  V30 8397 C 804.251 1.81543 -0.518422 0
M  V30 8398 O 803.608 1.75198 0.511078 0
M  V30 8399 C 803.659 2.06983 -2.96378 0
M  V30 8400 O 803.38 1.35995 -4.16458 0
M  V30 8401 C 804.881 2.94841 -3.31034 0
M  V30 8402 H 802.101 0.319711 -0.589937 0
M  V30 8403 H 804.645 0.363369 -2.01246 0
M  V30 8404 H 802.8 2.73724 -2.74142 0
M  V30 8405 H 803.214 2.02623 -4.83781 0
M  V30 8406 H 804.688 3.60496 -4.18027 0
M  V30 8407 H 805.165 3.62199 -2.48412 0
M  V30 8408 H 805.771 2.33656 -3.55366 0
M  V30 8409 N 804.086 1.46499 0.581025 0
M  V30 8410 C 805.311 1.55708 1.37002 0
M  V30 8411 C 805.736 0.19942 1.8704 0
M  V30 8412 O 805.094 -0.820731 1.61659 0
M  V30 8413 C 805.142 2.56716 2.53238 0
M  V30 8414 O 804.246 2.10336 3.54729 0
M  V30 8415 H 803.587 0.523912 0.407937 0
M  V30 8416 H 806.117 1.92085 0.704602 0
M  V30 8417 H 806.127 2.76378 3.00132 0
M  V30 8418 H 804.802 3.55307 2.16171 0
M  V30 8419 H 803.379 2.00669 3.14303 0
M  V30 8420 N 805.565 -0.825799 1.34232 0
M  V30 8421 C 806.512 -1.93651 1.2557 0
M  V30 8422 C 807.482 -1.65578 0.131536 0
M  V30 8423 O 808.667 -1.88231 0.312027 0
M  V30 8424 C 805.807 -3.29862 1.01415 0
M  V30 8425 C 804.92 -3.70247 2.22579 0
M  V30 8426 C 804.055 -4.95392 1.91731 0
M  V30 8427 C 803.094 -5.28349 3.09053 0
M  V30 8428 N 802.231 -6.44671 2.78107 0
M  V30 8429 H 807.071 -2.00392 2.20561 0
M  V30 8430 H 804.608 -0.980441 1.09662 0
M  V30 8431 H 806.566 -4.08356 0.854485 0
M  V30 8432 H 805.196 -3.22642 0.100936 0
M  V30 8433 H 804.248 -2.87169 2.49476 0
M  V30 8434 H 805.56 -3.90575 3.10246 0
M  V30 8435 H 804.714 -5.81665 1.72484 0
M  V30 8436 H 803.453 -4.77059 1.0132 0
M  V30 8437 H 802.458 -4.40574 3.289 0
M  V30 8438 H 803.683 -5.48622 4.00239 0
M  V30 8439 H 801.629 -6.278 1.9027 0
M  V30 8440 H 801.546 -6.65158 3.59306 0
M  V30 8441 H 802.814 -7.34022 2.62358 0
M  V30 8442 N 807.043 -1.17915 -1.04565 0
M  V30 8443 C 808.292 -0.965816 -1.77073 0
M  V30 8444 C 808.605 0.506005 -1.88942 0
M  V30 8445 O 809.811 0.837717 -2.58253 0
M  V30 8446 C 808.267 -1.67894 -3.18339 0
M  V30 8447 C 807.875 -3.18972 -3.1458 0
M  V30 8448 C 809.619 -1.54823 -3.9526 0
M  V30 8449 C 807.526 -3.82946 -4.50674 0
M  V30 8450 H 806.456 -0.357729 -0.663736 0
M  V30 8451 H 809.107 -1.41235 -1.17153 0
M  V30 8452 H 807.489 -1.16016 -3.78624 0
M  V30 8453 H 808.663 -3.77835 -2.63776 0
M  V30 8454 H 806.978 -3.32127 -2.51159 0
M  V30 8455 H 809.575 -1.99984 -4.95894 0
M  V30 8456 H 809.918 -0.499727 -4.1329 0
M  V30 8457 H 810.451 -2.03953 -3.41538 0
M  V30 8458 H 807.19 -4.8782 -4.37849 0
M  V30 8459 H 806.71 -3.2887 -5.01602 0
M  V30 8460 H 808.389 -3.85518 -5.196 0
M  V30 8461 N 808.521 1.23394 -0.980386 0
M  V30 8462 C 809.77 1.91116 -0.644785 0
M  V30 8463 C 810.083 1.77333 0.825367 0
M  V30 8464 O 811.289 2.39858 1.27203 0
M  V30 8465 C 809.745 3.42592 -1.10266 0
M  V30 8466 C 809.353 3.65037 -2.59715 0
M  V30 8467 C 811.097 4.1609 -0.8408 0
M  V30 8468 C 809.004 5.10148 -2.9917 0
M  V30 8469 H 807.934 0.715632 -0.23746 0
M  V30 8470 H 810.585 1.39829 -1.18828 0
M  V30 8471 H 808.967 3.92989 -0.487372 0
M  V30 8472 H 810.141 3.25186 -3.26482 0
M  V30 8473 H 808.456 3.04849 -2.83647 0
M  V30 8474 H 811.053 5.23021 -1.11143 0
M  V30 8475 H 811.396 4.15702 0.223085 0
M  V30 8476 H 811.929 3.71681 -1.41767 0
M  V30 8477 H 808.668 5.15668 -4.04682 0
M  V30 8478 H 808.188 5.50949 -2.37097 0
M  V30 8479 H 809.867 5.7848 -2.89775 0
M  V30 8480 N 809.999 0.752036 1.385 0
M  V30 8481 C 811.224 0.316993 2.04963 0
M  V30 8482 C 811.649 -1.04582 1.56346 0
M  V30 8483 O 811.007 -1.66616 0.714755 0
M  V30 8484 C 811.055 0.347235 3.58924 0
M  V30 8485 O 810.159 -0.659296 4.07096 0
M  V30 8486 H 809.5 0.140652 0.648932 0
M  V30 8487 H 812.03 1.02272 1.77205 0
M  V30 8488 H 812.04 0.19757 4.07521 0
M  V30 8489 H 810.715 1.34157 3.93668 0
M  V30 8490 H 809.292 -0.474371 3.6987 0
M  V30 8491 N 811.477 -1.49425 0.500989 0
M  V30 8492 C 812.387 -2.32899 -0.282011 0
M  V30 8493 C 813.403 -1.44632 -0.967346 0
M  V30 8494 O 814.579 -1.77654 -0.94873 0
M  V30 8495 C 811.644 -3.20069 -1.33253 0
M  V30 8496 C 810.705 -4.24186 -0.660636 0
M  V30 8497 C 809.938 -5.07191 -1.6611 0
M  V30 8498 O 810.161 -4.91712 -2.89094 0
M  V30 8499 O 809.095 -5.8948 -1.21643 0
M  V30 8500 H 812.921 -3.01038 0.401224 0
M  V30 8501 H 810.506 -1.47079 0.262323 0
M  V30 8502 H 812.388 -3.74071 -1.94033 0
M  V30 8503 H 811.063 -2.54625 -1.9987 0
M  V30 8504 H 809.97 -3.74098 -0.0130959 0
M  V30 8505 H 811.303 -4.92186 -0.0369179 0
M  V30 8506 N 812.955 -0.234822 -1.55841 0
M  V30 8507 C 814.232 0.442961 -1.90518 0
M  V30 8508 C 814.612 1.76768 -1.15397 0
M  V30 8509 O 813.96 2.26928 -0.267534 0
M  V30 8510 C 814.17 0.622905 -3.43396 0
M  V30 8511 C 815.518 0.9243 -4.14417 0
M  V30 8512 O 816.542 0.709211 -3.49068 0
M  V30 8513 O 815.401 1.33323 -5.29988 0
M  V30 8514 H 812.495 0.236042 -0.792599 0
M  V30 8515 H 815.041 -0.277992 -1.67408 0
M  V30 8516 H 813.813 -0.310973 -3.90062 0
M  V30 8517 H 813.436 1.39485 -3.7233 0
M  V30 8518 N 814.433 1.57553 0.0384317 0
M  V30 8519 C 815.343 2.09333 1.0591 0
M  V30 8520 C 816.359 1.0299 1.40247 0
M  V30 8521 O 817.535 1.34669 1.49754 0
M  V30 8522 C 814.6 2.55468 2.34386 0
M  V30 8523 C 813.661 3.76254 2.06716 0
M  V30 8524 C 812.894 4.20179 3.29067 0
M  V30 8525 O 813.117 3.637 4.39407 0
M  V30 8526 O 812.051 5.12697 3.15317 0
M  V30 8527 H 815.877 2.96683 0.649087 0
M  V30 8528 H 813.462 1.47211 0.254802 0
M  V30 8529 H 815.344 2.85514 3.09935 0
M  V30 8530 H 814.019 1.71234 2.74701 0
M  V30 8531 H 812.926 3.51241 1.28766 0
M  V30 8532 H 814.259 4.61443 1.71263 0
M  V30 8533 N 815.911 -0.310526 1.54511 0
M  V30 8534 C 816.858 -1.38264 1.84802 0
M  V30 8535 C 817.828 -1.50808 0.696141 0
M  V30 8536 O 819.013 -1.6582 0.943846 0
M  V30 8537 C 816.153 -2.74422 2.09252 0
M  V30 8538 C 815.266 -2.70405 3.36906 0
M  V30 8539 C 814.401 -3.98495 3.51248 0
M  V30 8540 C 813.44 -3.88836 4.72729 0
M  V30 8541 N 812.577 -5.08683 4.83928 0
M  V30 8542 H 817.417 -1.11732 2.76261 0
M  V30 8543 H 814.954 -0.540609 1.36806 0
M  V30 8544 H 816.912 -3.53593 2.21422 0
M  V30 8545 H 815.542 -2.99235 1.2107 0
M  V30 8546 H 814.594 -1.83151 3.33406 0
M  V30 8547 H 815.906 -2.59155 4.26193 0
M  V30 8548 H 815.06 -4.861 3.63031 0
M  V30 8549 H 813.799 -4.12567 2.60077 0
M  V30 8550 H 812.804 -2.99615 4.60989 0
M  V30 8551 H 814.029 -3.76318 5.65298 0
M  V30 8552 H 811.975 -5.23236 3.95677 0
M  V30 8553 H 811.892 -4.99819 5.67201 0
M  V30 8554 H 813.16 -5.97966 5.00057 0
M  V30 8555 N 817.389 -1.46805 -0.573248 0
M  V30 8556 C 818.336 -1.58084 -1.68161 0
M  V30 8557 C 819.306 -0.424636 -1.6058 0
M  V30 8558 O 820.491 -0.642623 -1.79652 0
M  V30 8559 C 817.631 -1.58601 -3.06496 0
M  V30 8560 C 816.744 -2.85023 -3.24632 0
M  V30 8561 C 815.879 -2.76981 -4.53271 0
M  V30 8562 C 814.918 -3.983 -4.64783 0
M  V30 8563 N 814.055 -3.88589 -5.84759 0
M  V30 8564 H 818.895 -2.52755 -1.57858 0
M  V30 8565 H 816.432 -1.25385 -0.769218 0
M  V30 8566 H 818.39 -1.56885 -3.86579 0
M  V30 8567 H 817.02 -0.674553 -3.15673 0
M  V30 8568 H 816.072 -2.96678 -2.38089 0
M  V30 8569 H 817.384 -3.7491 -3.29004 0
M  V30 8570 H 816.538 -2.73424 -5.41594 0
M  V30 8571 H 815.277 -1.84751 -4.51352 0
M  V30 8572 H 814.282 -4.02179 -3.74876 0
M  V30 8573 H 815.507 -4.91639 -4.68474 0
M  V30 8574 H 813.453 -2.99151 -5.83819 0
M  V30 8575 H 813.37 -4.7214 -5.90441 0
M  V30 8576 H 814.638 -3.89022 -6.75486 0
M  V30 8577 N 818.867 0.818669 -1.34668 0
M  V30 8578 C 820.144 1.56118 -1.17841 0
M  V30 8579 C 820.524 2.09646 0.24731 0
M  V30 8580 O 819.872 1.91329 1.24922 0
M  V30 8581 C 820.082 2.67922 -2.23649 0
M  V30 8582 C 821.43 3.36579 -2.58843 0
M  V30 8583 O 822.454 2.78182 -2.22471 0
M  V30 8584 O 821.313 4.42045 -3.21339 0
M  V30 8585 H 818.407 0.689216 -0.457067 0
M  V30 8586 H 820.953 0.859674 -1.46314 0
M  V30 8587 H 819.725 2.26153 -3.19328 0
M  V30 8588 H 819.348 3.45719 -1.96377 0
M  V30 8589 N 820.346 1.18468 1.03938 0
M  V30 8590 C 821.256 0.927889 2.1547 0
M  V30 8591 C 822.272 -0.108447 1.73662 0
M  V30 8592 O 823.448 0.0737636 2.01265 0
M  V30 8593 C 820.513 0.458494 3.43655 0
M  V30 8594 C 819.574 1.56295 3.99838 0
M  V30 8595 C 818.807 1.11586 5.21904 0
M  V30 8596 O 819.03 -0.0249057 5.70395 0
M  V30 8597 O 817.964 1.91412 5.70653 0
M  V30 8598 H 821.79 1.86116 2.39989 0
M  V30 8599 H 819.375 0.966607 1.13917 0
M  V30 8600 H 821.257 0.204861 4.20902 0
M  V30 8601 H 819.932 -0.446464 3.20606 0
M  V30 8602 H 818.839 1.87061 3.23974 0
M  V30 8603 H 820.172 2.44408 4.2723 0
M  V30 8604 N 821.824 -1.22873 0.986916 0
M  V30 8605 C 822.734 -2.28277 0.540978 0
M  V30 8606 C 823.75 -1.69164 -0.407363 0
M  V30 8607 O 824.926 -1.99504 -0.275674 0
M  V30 8608 C 821.991 -3.46404 -0.143181 0
M  V30 8609 C 821.052 -4.20854 0.847375 0
M  V30 8610 C 820.285 -5.33341 0.19577 0
M  V30 8611 O 820.508 -5.61356 -1.0117 0
M  V30 8612 O 819.442 -5.95169 0.897623 0
M  V30 8613 H 823.268 -2.68578 1.41773 0
M  V30 8614 H 820.853 -1.28927 0.754867 0
M  V30 8615 H 822.735 -4.18096 -0.526676 0
M  V30 8616 H 821.41 -3.08041 -0.994593 0
M  V30 8617 H 820.317 -3.51459 1.28169 0
M  V30 8618 H 821.65 -4.63082 1.6678 0
M  V30 8619 N 823.302 -0.75937 -1.38099 0
M  V30 8620 C 824.235 -0.0838362 -2.28046 0
M  V30 8621 C 825.213 0.722229 -1.4568 0
M  V30 8622 O 826.397 0.699629 -1.75036 0
M  V30 8623 C 823.524 0.887916 -3.26854 0
M  V30 8624 C 822.57 0.167374 -4.26171 0
M  V30 8625 S 823.403 -1.13592 -5.23314 0
M  V30 8626 C 824.559 -0.167385 -6.25676 0
M  V30 8627 H 824.792 -0.846564 -2.84992 0
M  V30 8628 H 822.325 -0.552206 -1.44188 0
M  V30 8629 H 824.283 1.44322 -3.84293 0
M  V30 8630 H 822.944 1.62366 -2.68879 0
M  V30 8631 H 822.137 0.903567 -4.95834 0
M  V30 8632 H 821.739 -0.316572 -3.72658 0
M  V30 8633 H 824.031 0.664598 -6.74232 0
M  V30 8634 H 824.974 -0.831836 -7.03197 0
M  V30 8635 H 825.382 0.21589 -5.64087 0
M  V30 8636 N 824.78 1.49157 -0.508906 0
M  V30 8637 C 826.196 1.58741 -0.165372 0
M  V30 8638 C 826.396 1.5133 1.33047 0
M  V30 8639 O 825.452 1.39135 2.10707 0
M  V30 8640 C 826.765 2.91217 -0.749194 0
M  V30 8641 C 828.313 3.047 -0.716015 0
M  V30 8642 C 828.788 4.39807 -1.27804 0
M  V30 8643 N 830.279 4.46319 -1.23908 0
M  V30 8644 C 831.014 5.49325 -1.64406 0
M  V30 8645 N 830.51 6.59395 -2.12534 0
M  V30 8646 N 832.303 5.40084 -1.55773 0
M  V30 8647 H 824.454 1.52217 -1.48134 0
M  V30 8648 H 826.717 0.721514 -0.614915 0
M  V30 8649 H 826.423 3.02233 -1.79856 0
M  V30 8650 H 826.297 3.76592 -0.214144 0
M  V30 8651 H 828.684 2.9331 0.324535 0
M  V30 8652 H 828.765 2.2099 -1.2883 0
M  V30 8653 H 828.409 4.5195 -2.31741 0
M  V30 8654 H 828.339 5.2217 -0.681623 0
M  V30 8655 H 830.83 3.67354 -0.886537 0
M  V30 8656 H 831.143 7.34102 -2.41485 0
M  V30 8657 H 829.488 6.60414 -2.16513 0
M  V30 8658 H 832.679 4.52986 -1.17987 0
M  V30 8659 H 832.852 6.20233 -1.87657 0
M  V30 8660 N 826.258 0.243083 1.55714 0
M  V30 8661 C 827.505 -0.38272 1.9885 0
M  V30 8662 C 827.833 -1.58225 1.13115 0
M  V30 8663 O 827.088 -1.94861 0.181067 0
M  V30 8664 C 827.387 -0.839621 3.47398 0
M  V30 8665 C 827.053 0.251737 4.50197 0
M  V30 8666 C 825.715 0.551487 4.78029 0
M  V30 8667 C 828.067 0.988728 5.11736 0
M  V30 8668 C 825.395 1.59237 5.64677 0
M  V30 8669 C 827.747 2.0191 5.99512 0
M  V30 8670 C 826.411 2.32554 6.2568 0
M  V30 8671 H 825.681 -0.140047 0.727645 0
M  V30 8672 H 828.328 0.35011 1.88272 0
M  V30 8673 H 826.633 -1.65159 3.55288 0
M  V30 8674 H 828.33 -1.33404 3.78159 0
M  V30 8675 H 824.92 0.00796741 4.28599 0
M  V30 8676 H 829.104 0.7704 4.90284 0
M  V30 8677 H 824.36 1.83517 5.83208 0
M  V30 8678 H 828.534 2.59511 6.46241 0
M  V30 8679 H 826.161 3.13349 6.92616 0
M  V30 8680 N 827.736 -1.57571 -0.0300757 0
M  V30 8681 C 828.666 -2.0953 -1.03051 0
M  V30 8682 C 829.647 -0.99761 -1.37774 0
M  V30 8683 O 830.832 -1.27279 -1.46676 0
M  V30 8684 C 827.962 -2.57385 -2.33174 0
M  V30 8685 C 826.916 -3.71409 -2.12696 0
M  V30 8686 C 826.242 -4.05467 -3.4857 0
M  V30 8687 C 827.542 -4.99877 -1.51396 0
M  V30 8688 H 829.236 -2.93367 -0.597999 0
M  V30 8689 H 826.782 -1.41127 -0.286203 0
M  V30 8690 H 828.735 -2.92355 -3.03491 0
M  V30 8691 H 827.459 -1.70629 -2.78484 0
M  V30 8692 H 826.118 -3.36786 -1.44813 0
M  V30 8693 H 825.766 -3.15779 -3.91526 0
M  V30 8694 H 825.466 -4.82269 -3.35694 0
M  V30 8695 H 826.99 -4.4297 -4.2025 0
M  V30 8696 H 828.404 -5.3281 -2.11629 0
M  V30 8697 H 826.801 -5.81283 -1.49098 0
M  V30 8698 H 827.871 -4.82522 -0.479676 0
M  V30 8699 N 829.214 0.302327 -1.54673 0
M  V30 8700 C 830.63 0.647911 -1.45857 0
M  V30 8701 C 830.83 1.90773 -0.64869 0
M  V30 8702 O 829.886 2.52018 -0.155865 0
M  V30 8703 C 831.199 0.802144 -2.89804 0
M  V30 8704 C 832.747 0.898114 -2.99838 0
M  V30 8705 C 833.222 1.08436 -4.44978 0
M  V30 8706 N 834.713 1.15059 -4.48682 0
M  V30 8707 C 835.448 1.31296 -5.58166 0
M  V30 8708 N 834.944 1.4444 -6.77576 0
M  V30 8709 N 836.737 1.34174 -5.45851 0
M  V30 8710 H 828.888 -0.525428 -2.05798 0
M  V30 8711 H 831.151 -0.173423 -0.932002 0
M  V30 8712 H 830.857 -0.0526531 -3.51661 0
M  V30 8713 H 830.731 1.69155 -3.37145 0
M  V30 8714 H 833.118 1.7434 -2.38096 0
M  V30 8715 H 833.199 -0.0152752 -2.55795 0
M  V30 8716 H 832.843 0.243843 -5.07314 0
M  V30 8717 H 832.773 2.01195 -4.8665 0
M  V30 8718 H 835.264 1.0626 -3.62653 0
M  V30 8719 H 835.577 1.56582 -7.56771 0
M  V30 8720 H 833.922 1.41499 -6.80443 0
M  V30 8721 H 837.113 1.23516 -4.5151 0
M  V30 8722 H 837.286 1.46485 -6.31226 0
M  V30 8723 N 830.692 1.47107 0.565454 0
M  V30 8724 C 832.108 1.32443 0.890566 0
M  V30 8725 C 832.308 0.308735 1.99121 0
M  V30 8726 O 831.364 -0.28265 2.50913 0
M  V30 8727 C 832.677 2.71548 1.2916 0
M  V30 8728 C 834.225 2.7977 1.40349 0
M  V30 8729 C 834.7 4.19497 1.83811 0
M  V30 8730 N 836.191 4.21998 1.90975 0
M  V30 8731 C 836.926 5.2702 2.25916 0
M  V30 8732 N 836.422 6.42353 2.59527 0
M  V30 8733 N 838.215 5.14393 2.26619 0
M  V30 8734 H 830.366 2.11786 -0.161328 0
M  V30 8735 H 832.629 0.947952 -0.00950631 0
M  V30 8736 H 832.335 3.47265 0.556753 0
M  V30 8737 H 832.209 3.02782 2.24951 0
M  V30 8738 H 834.596 2.0433 2.12916 0
M  V30 8739 H 834.677 2.522 0.427655 0
M  V30 8740 H 834.321 4.95439 1.11816 0
M  V30 8741 H 834.251 4.44486 2.82382 0
M  V30 8742 H 836.742 3.38791 1.6742 0
M  V30 8743 H 837.055 7.18252 2.85191 0
M  V30 8744 H 835.4 6.45687 2.57126 0
M  V30 8745 H 838.591 4.2332 1.99794 0
M  V30 8746 H 838.764 5.96349 2.5352 0
M  V30 8747 N 832.17 -0.811516 1.35101 0
M  V30 8748 C 833.102 -1.93102 1.23468 0
M  V30 8749 C 834.115 -1.62021 0.159095 0
M  V30 8750 O 835.304 -1.73682 0.411945 0
M  V30 8751 C 832.404 -3.27345 0.877404 0
M  V30 8752 C 831.577 -3.86368 2.05033 0
M  V30 8753 C 830.636 -4.99009 1.66963 0
M  V30 8754 O 829.662 -5.16698 2.38772 0
M  V30 8755 N 830.864 -5.7749 0.590394 0
M  V30 8756 H 833.629 -2.0361 2.19916 0
M  V30 8757 H 831.19 -0.988687 1.28205 0
M  V30 8758 H 833.182 -4.00163 0.604298 0
M  V30 8759 H 831.752 -3.126 0.00275267 0
M  V30 8760 H 830.972 -3.05804 2.48752 0
M  V30 8761 H 832.26 -4.22533 2.83449 0
M  V30 8762 H 831.658 -5.657 -0.00633259 0
M  V30 8763 H 830.215 -6.50708 0.377055 0
M  V30 8764 N 833.648 -1.19017 -1.03309 0
M  V30 8765 C 834.558 -0.939303 -2.14975 0
M  V30 8766 C 835.574 0.0992359 -1.73717 0
M  V30 8767 O 836.75 -0.0844362 -2.01223 0
M  V30 8768 C 833.815 -0.476712 -3.43407 0
M  V30 8769 C 832.876 -1.58413 -3.99003 0
M  V30 8770 C 832.109 -1.14352 -5.21305 0
M  V30 8771 O 832.332 -0.00534408 -5.704 0
M  V30 8772 O 831.266 -1.94436 -5.6963 0
M  V30 8773 H 835.092 -1.87386 -2.38998 0
M  V30 8774 H 832.677 -0.972635 -1.13403 0
M  V30 8775 H 834.559 -0.22718 -4.20787 0
M  V30 8776 H 833.234 0.429455 -3.20839 0
M  V30 8777 H 832.141 -1.88777 -3.22977 0
M  V30 8778 H 833.474 -2.4667 -4.25928 0
M  V30 8779 N 835.127 1.22348 -0.993418 0
M  V30 8780 C 836.057 2.26584 -0.564088 0
M  V30 8781 C 837.038 1.65102 0.409298 0
M  V30 8782 O 838.223 1.91872 0.299819 0
M  V30 8783 C 835.353 3.47087 0.121554 0
M  V30 8784 C 834.307 4.21009 -0.770429 0
M  V30 8785 C 833.633 5.34678 0.0481586 0
M  V30 8786 C 834.933 4.79636 -2.06752 0
M  V30 8787 H 836.627 2.62749 -1.43538 0
M  V30 8788 H 834.173 1.26303 -0.691628 0
M  V30 8789 H 836.126 4.19166 0.433303 0
M  V30 8790 H 834.85 3.1002 1.0274 0
M  V30 8791 H 833.509 3.50764 -1.06583 0
M  V30 8792 H 833.157 4.93852 0.954933 0
M  V30 8793 H 832.857 5.85061 -0.545641 0
M  V30 8794 H 834.381 6.09573 0.353991 0
M  V30 8795 H 835.795 5.43654 -1.81969 0
M  V30 8796 H 834.192 5.4036 -2.61019 0
M  V30 8797 H 835.262 3.99659 -2.74592 0
M  V30 8798 N 836.605 0.766683 1.37694 0
M  V30 8799 C 838.021 0.445739 1.53249 0
M  V30 8800 C 838.221 -1.03935 1.72626 0
M  V30 8801 O 837.277 -1.82525 1.74473 0
M  V30 8802 C 838.59 1.2564 2.73194 0
M  V30 8803 C 840.138 1.24779 2.87053 0
M  V30 8804 C 840.613 2.04169 4.09974 0
M  V30 8805 N 842.104 2.01497 4.17077 0
M  V30 8806 C 842.839 2.5971 5.11212 0
M  V30 8807 N 842.335 3.26691 6.10938 0
M  V30 8808 N 844.128 2.49568 5.03659 0
M  V30 8809 H 836.279 1.72899 1.23368 0
M  V30 8810 H 838.542 0.733701 0.600322 0
M  V30 8811 H 838.248 2.30859 2.65324 0
M  V30 8812 H 838.122 0.882133 3.6674 0
M  V30 8813 H 840.509 0.203603 2.94397 0
M  V30 8814 H 840.59 1.66166 1.9448 0
M  V30 8815 H 840.234 3.08606 4.03392 0
M  V30 8816 H 840.164 1.60167 5.01651 0
M  V30 8817 H 842.655 1.52728 3.45662 0
M  V30 8818 H 842.968 3.68497 6.79286 0
M  V30 8819 H 841.313 3.30789 6.11231 0
M  V30 8820 H 844.504 1.96859 4.24693 0
M  V30 8821 H 844.677 2.95231 5.76839 0
M  V30 8822 N 838.083 -1.48885 0.516809 0
M  V30 8823 C 838.993 -2.33185 -0.257293 0
M  V30 8824 C 840.009 -1.4565 -0.951952 0
M  V30 8825 O 841.185 -1.78651 -0.929834 0
M  V30 8826 C 838.25 -3.21465 -1.29851 0
M  V30 8827 C 837.311 -4.24863 -0.615608 0
M  V30 8828 C 836.544 -5.08925 -1.60722 0
M  V30 8829 O 836.767 -4.9475 -2.83863 0
M  V30 8830 O 835.701 -5.90737 -1.15384 0
M  V30 8831 H 839.527 -3.00596 0.433131 0
M  V30 8832 H 837.112 -1.46792 0.277908 0
M  V30 8833 H 838.994 -3.76108 -1.90055 0
M  V30 8834 H 837.669 -2.5673 -1.97158 0
M  V30 8835 H 836.576 -3.74091 0.0265829 0
M  V30 8836 H 837.909 -4.92198 0.0152871 0
M  V30 8837 N 839.561 -0.251338 -1.55583 0
M  V30 8838 C 840.491 0.640437 -2.24545 0
M  V30 8839 C 841.472 1.17781 -1.22726 0
M  V30 8840 O 842.657 1.21633 -1.5139 0
M  V30 8841 C 839.787 1.8355 -2.94834 0
M  V30 8842 C 838.741 1.4307 -4.03379 0
M  V30 8843 C 838.067 2.70695 -4.61116 0
M  V30 8844 C 839.367 0.59848 -5.1886 0
M  V30 8845 H 841.061 0.0653772 -2.99329 0
M  V30 8846 H 838.607 0.0300042 -1.43969 0
M  V30 8847 H 840.56 2.46505 -3.4178 0
M  V30 8848 H 839.284 2.43601 -2.17546 0
M  V30 8849 H 837.943 0.824474 -3.57209 0
M  V30 8850 H 837.591 3.28954 -3.80524 0
M  V30 8851 H 837.291 2.44332 -5.34393 0
M  V30 8852 H 838.815 3.34541 -5.10798 0
M  V30 8853 H 840.229 1.13244 -5.62004 0
M  V30 8854 H 838.626 0.430728 -5.98552 0
M  V30 8855 H 839.696 -0.38829 -4.83343 0
M  V30 8856 N 841.039 1.57585 0.0217189 0
M  V30 8857 C 842.455 1.55072 0.377484 0
M  V30 8858 C 842.655 0.978423 1.76151 0
M  V30 8859 O 841.711 0.602688 2.45202 0
M  V30 8860 C 843.024 2.99462 0.272605 0
M  V30 8861 C 844.572 3.11047 0.349148 0
M  V30 8862 C 845.047 4.57182 0.273636 0
M  V30 8863 N 846.538 4.62007 0.332206 0
M  V30 8864 C 847.273 5.72631 0.296782 0
M  V30 8865 N 846.769 6.92472 0.21322 0
M  V30 8866 N 848.562 5.61028 0.347053 0
M  V30 8867 H 840.713 1.93133 -0.883925 0
M  V30 8868 H 842.976 0.886151 -0.33681 0
M  V30 8869 H 842.682 3.45088 -0.67878 0
M  V30 8870 H 842.556 3.61901 1.06335 0
M  V30 8871 H 844.943 2.65364 1.29097 0
M  V30 8872 H 845.024 2.51425 -0.471085 0
M  V30 8873 H 844.668 5.03534 -0.664548 0
M  V30 8874 H 844.598 5.14724 1.11207 0
M  V30 8875 H 847.089 3.75788 0.399003 0
M  V30 8876 H 847.402 7.72563 0.191492 0
M  V30 8877 H 845.747 6.94769 0.179161 0
M  V30 8878 H 848.938 4.66298 0.410378 0
M  V30 8879 H 849.111 6.47229 0.315979 0
M  V30 8880 N 842.517 -0.29412 1.54831 0
M  V30 8881 C 843.447 -1.36757 1.89261 0
M  V30 8882 C 844.428 -1.52564 0.752214 0
M  V30 8883 O 845.613 -1.65958 1.00855 0
M  V30 8884 C 842.743 -2.73066 2.14597 0
M  V30 8885 C 841.697 -2.72017 3.3044 0
M  V30 8886 C 841.023 -4.11679 3.4121 0
M  V30 8887 C 842.323 -2.33149 4.67375 0
M  V30 8888 H 844.017 -1.08191 2.79169 0
M  V30 8889 H 841.563 -0.519014 1.34321 0
M  V30 8890 H 843.516 -3.48255 2.37269 0
M  V30 8891 H 842.24 -3.03172 1.21467 0
M  V30 8892 H 840.899 -1.99285 3.07703 0
M  V30 8893 H 840.547 -4.38973 2.45584 0
M  V30 8894 H 840.247 -4.11877 4.19084 0
M  V30 8895 H 841.771 -4.88637 3.6615 0
M  V30 8896 H 843.185 -2.98054 4.89731 0
M  V30 8897 H 841.582 -2.44546 5.48012 0
M  V30 8898 H 842.652 -1.28275 4.67626 0
M  V30 8899 N 843.995 -1.47404 -0.557645 0
M  V30 8900 C 844.925 -1.62736 -1.67449 0
M  V30 8901 C 845.906 -0.476824 -1.6328 0
M  V30 8902 O 847.091 -0.706108 -1.80908 0
M  V30 8903 C 844.221 -1.641 -3.06086 0
M  V30 8904 C 843.175 -2.78377 -3.25101 0
M  V30 8905 C 842.501 -2.64812 -4.6452 0
M  V30 8906 C 843.801 -4.19971 -3.10518 0
M  V30 8907 H 845.495 -2.56232 -1.54873 0
M  V30 8908 H 843.041 -1.23312 -0.743649 0
M  V30 8909 H 844.994 -1.73417 -3.84063 0
M  V30 8910 H 843.718 -0.671652 -3.19619 0
M  V30 8911 H 842.377 -2.6857 -2.49531 0
M  V30 8912 H 842.025 -1.65906 -4.74852 0
M  V30 8913 H 841.725 -3.41477 -4.78191 0
M  V30 8914 H 843.249 -2.76057 -5.44633 0
M  V30 8915 H 844.663 -4.30757 -3.78313 0
M  V30 8916 H 843.06 -4.97419 -3.35699 0
M  V30 8917 H 844.13 -4.38369 -2.0727 0
M  V30 8918 N 845.473 0.80434 -1.35529 0
M  V30 8919 C 846.405 1.92445 -1.2449 0
M  V30 8920 C 847.418 1.61934 -0.167685 0
M  V30 8921 O 848.607 1.73461 -0.42115 0
M  V30 8922 C 845.707 3.26875 -0.894751 0
M  V30 8923 C 844.88 3.85275 -2.07079 0
M  V30 8924 C 843.939 4.98116 -1.69607 0
M  V30 8925 O 842.965 5.15424 -2.41509 0
M  V30 8926 N 844.167 5.77169 -0.621012 0
M  V30 8927 H 846.932 2.02441 -2.20993 0
M  V30 8928 H 844.493 0.981874 -1.28728 0
M  V30 8929 H 846.485 3.99837 -0.625511 0
M  V30 8930 H 845.055 3.12594 -0.0193306 0
M  V30 8931 H 844.275 3.0448 -2.5037 0
M  V30 8932 H 845.563 4.21024 -2.85685 0
M  V30 8933 H 844.961 5.65695 -0.0236679 0
M  V30 8934 H 843.518 6.50499 -0.411558 0
M  V30 8935 N 846.951 1.19563 1.02676 0
M  V30 8936 C 847.898 0.935291 2.11 0
M  V30 8937 C 848.868 -0.130685 1.65585 0
M  V30 8938 O 850.053 0.0119062 1.90796 0
M  V30 8939 C 847.193 0.482384 3.41712 0
M  V30 8940 C 846.306 1.61537 4.00662 0
M  V30 8941 C 845.441 1.11378 5.19392 0
M  V30 8942 C 844.48 2.22052 5.70403 0
M  V30 8943 N 843.617 1.73185 6.80405 0
M  V30 8944 H 848.457 1.86275 2.32606 0
M  V30 8945 H 845.994 0.928656 1.14081 0
M  V30 8946 H 847.952 0.20118 4.16715 0
M  V30 8947 H 846.582 -0.408086 3.2021 0
M  V30 8948 H 845.634 2.01173 3.22852 0
M  V30 8949 H 846.946 2.44912 4.34534 0
M  V30 8950 H 846.1 0.787935 6.01562 0
M  V30 8951 H 844.839 0.249789 4.8706 0
M  V30 8952 H 843.844 2.55465 4.86845 0
M  V30 8953 H 845.069 3.08911 6.04774 0
M  V30 8954 H 843.015 0.890973 6.49921 0
M  V30 8955 H 842.932 2.50148 7.13416 0
M  V30 8956 H 844.2 1.4357 7.66164 0
M  V30 8957 N 848.429 -1.21819 0.999893 0
M  V30 8958 C 849.339 -2.27691 0.565159 0
M  V30 8959 C 850.355 -1.69587 -0.389398 0
M  V30 8960 O 851.531 -1.99786 -0.254499 0
M  V30 8961 C 848.596 -3.46537 -0.106432 0
M  V30 8962 C 847.657 -4.19932 0.891964 0
M  V30 8963 C 846.89 -5.33103 0.252327 0
M  V30 8964 O 847.113 -5.62398 -0.952103 0
M  V30 8965 O 846.047 -5.94184 0.960698 0
M  V30 8966 H 849.873 -2.67059 1.44613 0
M  V30 8967 H 847.458 -1.28119 0.768499 0
M  V30 8968 H 849.34 -4.18631 -0.482301 0
M  V30 8969 H 848.015 -3.09079 -0.961865 0
M  V30 8970 H 846.922 -3.5008 1.3189 0
M  V30 8971 H 848.255 -4.61287 1.71682 0
M  V30 8972 N 849.908 -0.773975 -1.37286 0
M  V30 8973 C 850.818 -0.162571 -2.34036 0
M  V30 8974 C 851.834 0.677022 -1.60289 0
M  V30 8975 O 853.01 0.596423 -1.92366 0
M  V30 8976 C 850.075 0.70457 -3.39465 0
M  V30 8977 C 849.136 -0.151738 -4.29032 0
M  V30 8978 C 848.369 0.674111 -5.29426 0
M  V30 8979 O 848.592 1.91107 -5.37433 0
M  V30 8980 O 847.526 0.0821398 -6.01844 0
M  V30 8981 H 851.352 -0.962119 -2.88057 0
M  V30 8982 H 848.937 -0.53517 -1.39486 0
M  V30 8983 H 850.819 1.19954 -4.03967 0
M  V30 8984 H 849.494 1.48227 -2.87768 0
M  V30 8985 H 848.401 -0.693118 -3.67623 0
M  V30 8986 H 849.734 -0.892575 -4.84039 0
M  V30 8987 N 851.386 1.48609 -0.524698 0
M  V30 8988 C 852.336 2.26505 0.260696 0
M  V30 8989 C 853.32 1.32378 0.914597 0
M  V30 8990 O 854.512 1.5695 0.818277 0
M  V30 8991 C 851.641 3.17313 1.31024 0
M  V30 8992 C 850.727 4.18911 0.661391 0
M  V30 8993 N 851.118 5.05183 -0.24981 0
M  V30 8994 C 849.416 4.36425 0.91922 0
M  V30 8995 C 850.117 5.78348 -0.623598 0
M  V30 8996 N 849.093 5.43598 0.0140839 0
M  V30 8997 H 852.895 2.90582 -0.440388 0
M  V30 8998 H 850.409 1.5875 -0.342364 0
M  V30 8999 H 852.406 3.71772 1.88656 0
M  V30 9000 H 851.066 2.54791 2.01275 0
M  V30 9001 H 852.077 5.1415 -0.622093 0
M  V30 9002 H 848.754 3.85095 1.6127 0
M  V30 9003 H 850.144 6.57775 -1.37046 0
M  V30 9004 N 852.864 0.259585 1.55447 0
M  V30 9005 C 854.28 -0.094961 1.59317 0
M  V30 9006 C 854.48 -1.55884 1.2768 0
M  V30 9007 O 853.536 -2.30528 1.0302 0
M  V30 9008 C 854.849 0.265669 2.99524 0
M  V30 9009 C 856.397 0.211007 3.12288 0
M  V30 9010 C 856.872 0.545851 4.54736 0
M  V30 9011 N 858.363 0.496823 4.60528 0
M  V30 9012 C 859.098 0.728909 5.68748 0
M  V30 9013 N 858.594 1.02479 6.85179 0
M  V30 9014 N 860.387 0.658756 5.58226 0
M  V30 9015 H 852.538 1.2141 1.7428 0
M  V30 9016 H 854.801 0.489404 0.811904 0
M  V30 9017 H 854.507 1.28316 3.27457 0
M  V30 9018 H 854.381 -0.401089 3.75061 0
M  V30 9019 H 856.768 -0.797172 2.84129 0
M  V30 9020 H 856.849 0.911799 2.38998 0
M  V30 9021 H 856.493 1.55164 4.83618 0
M  V30 9022 H 856.423 -0.17656 5.26304 0
M  V30 9023 H 858.914 0.277376 3.76881 0
M  V30 9024 H 859.227 1.18897 7.63599 0
M  V30 9025 H 857.572 1.0624 6.86832 0
M  V30 9026 H 860.763 0.427553 4.66143 0
M  V30 9027 H 860.936 0.84302 6.42493 0
M  V30 9028 N 854.342 -1.57594 -0.0133615 0
M  V30 9029 C 855.29 -2.08682 -1.02736 0
M  V30 9030 C 856.284 -1.00391 -1.36448 0
M  V30 9031 O 857.49 -1.18868 -1.35168 0
M  V30 9032 H 853.865 -0.666158 -0.34891 0
M  V30 9033 H 855.836 -2.9289 -0.570815 0
M  V30 9034 C 854.585 -2.5945 -2.31476 0
M  V30 9035 H 853.908 -3.42401 -2.06401 0
M  V30 9036 H 855.348 -2.98888 -3.00735 0
M  V30 9037 C 853.807 -1.50266 -3.01533 0
M  V30 9038 O 854.337 -0.877875 -3.9199 0
M  V30 9039 N 852.543 -1.23336 -2.63129 0
M  V30 9040 H 852.09 -1.74327 -1.89652 0
M  V30 9041 H 852.048 -0.504987 -3.10318 0
M  V30 9042 N 855.82 0.285905 -1.54985 0
M  V30 9043 C 856.752 1.37505 -1.83371 0
M  V30 9044 C 857.765 1.46138 -0.717454 0
M  V30 9045 O 858.954 1.48186 -0.995142 0
M  V30 9046 C 856.054 2.7575 -1.97016 0
M  V30 9047 C 855.227 2.89866 -3.27561 0
M  V30 9048 C 854.286 4.08704 -3.31433 0
M  V30 9049 O 853.312 4.00073 -4.04883 0
M  V30 9050 N 854.514 5.20062 -2.57907 0
M  V30 9051 H 857.279 1.13505 -2.77375 0
M  V30 9052 H 854.84 0.476006 -1.54744 0
M  V30 9053 H 856.832 3.5352 -1.96991 0
M  V30 9054 H 855.402 2.9263 -1.09938 0
M  V30 9055 H 854.622 1.99085 -3.40234 0
M  V30 9056 H 855.91 2.96219 -4.13681 0
M  V30 9057 H 855.308 5.29958 -1.97891 0
M  V30 9058 H 853.865 5.96111 -2.63619 0
M  V30 9059 N 857.298 1.47698 0.54982 0
M  V30 9060 C 858.526 1.5833 1.33188 0
M  V30 9061 C 858.941 0.236193 1.87317 0
M  V30 9062 O 858.298 -0.77167 1.65383 0
M  V30 9063 C 858.349 2.61438 2.49664 0
M  V30 9064 O 858.07 3.9092 1.97771 0
M  V30 9065 C 859.571 2.82324 3.41772 0
M  V30 9066 H 856.791 0.53443 0.405741 0
M  V30 9067 H 859.335 1.93375 0.665309 0
M  V30 9068 H 857.49 2.29307 3.12245 0
M  V30 9069 H 857.904 4.47323 2.73866 0
M  V30 9070 H 859.378 3.58316 4.19897 0
M  V30 9071 H 859.855 1.90416 3.95776 0
M  V30 9072 H 860.461 3.15682 2.85 0
M  V30 9073 N 858.776 -0.797141 1.35954 0
M  V30 9074 C 859.708 -1.91782 1.25509 0
M  V30 9075 C 860.721 -1.61843 0.176271 0
M  V30 9076 O 861.91 -1.73235 0.430343 0
M  V30 9077 C 859.01 -3.26396 0.912073 0
M  V30 9078 C 858.183 -3.84171 2.0912 0
M  V30 9079 C 857.242 -4.9721 1.72246 0
M  V30 9080 O 856.268 -5.14136 2.44239 0
M  V30 9081 N 857.47 -5.76831 0.651611 0
M  V30 9082 H 860.235 -2.01266 2.22063 0
M  V30 9083 H 857.796 -0.975033 1.29247 0
M  V30 9084 H 859.788 -3.99499 0.646707 0
M  V30 9085 H 858.358 -3.12579 0.0359079 0
M  V30 9086 H 857.578 -3.03148 2.51982 0
M  V30 9087 H 858.866 -4.19503 2.87914 0
M  V30 9088 H 858.264 -5.65675 0.0536678 0
M  V30 9089 H 856.821 -6.50272 0.44605 0
M  V30 9090 N 860.254 -1.20106 -1.0204 0
M  V30 9091 C 861.184 -0.970301 -2.12385 0
M  V30 9092 C 862.165 0.099378 -1.69809 0
M  V30 9093 O 863.35 -0.057365 -1.94115 0
M  V30 9094 C 860.48 -0.517431 -3.43424 0
M  V30 9095 C 859.434 -1.52992 -3.99722 0
M  V30 9096 C 858.76 -0.933817 -5.26483 0
M  V30 9097 C 860.06 -2.91257 -4.33551 0
M  V30 9098 H 861.754 -1.89316 -2.31948 0
M  V30 9099 H 859.3 -0.911655 -1.11467 0
M  V30 9100 H 861.253 -0.343243 -4.2 0
M  V30 9101 H 859.977 0.441049 -3.23608 0
M  V30 9102 H 858.636 -1.6914 -3.2525 0
M  V30 9103 H 858.284 0.0324763 -5.0299 0
M  V30 9104 H 857.984 -1.60999 -5.65113 0
M  V30 9105 H 859.508 -0.770614 -6.05718 0
M  V30 9106 H 860.922 -2.78642 -5.0103 0
M  V30 9107 H 859.319 -3.55745 -4.83286 0
M  V30 9108 H 860.389 -3.43269 -3.42483 0
M  V30 9109 N 861.732 1.21287 -1.00634 0
M  V30 9110 C 862.957 1.94925 -0.708441 0
M  V30 9111 C 863.382 1.73659 0.722783 0
M  V30 9112 O 862.74 1.02429 1.49593 0
M  V30 9113 C 862.788 3.45377 -1.03667 0
M  V30 9114 O 861.892 4.12153 -0.142661 0
M  V30 9115 H 861.233 0.609338 -0.263824 0
M  V30 9116 H 863.763 1.54008 -1.34695 0
M  V30 9117 H 863.773 3.95954 -0.984086 0
M  V30 9118 H 862.448 3.6018 -2.0795 0
M  V30 9119 H 861.025 3.72048 -0.251888 0
M  V30 9120 N 863.21 0.781244 1.36873 0
M  V30 9121 C 864.158 0.161889 2.32036 0
M  V30 9122 C 865.152 -0.674225 1.55405 0
M  V30 9123 O 866.358 -0.570223 1.70729 0
M  V30 9124 H 862.733 0.0335702 0.75125 0
M  V30 9125 H 864.704 0.980078 2.81846 0
M  V30 9126 C 863.453 -0.695352 3.40676 0
M  V30 9127 H 862.776 -0.0613425 3.99753 0
M  V30 9128 H 864.216 -1.09553 4.09602 0
M  V30 9129 C 862.675 -1.85008 2.81556 0
M  V30 9130 O 863.205 -2.94616 2.73065 0
M  V30 9131 N 861.411 -1.65364 2.38962 0
M  V30 9132 H 860.958 -0.762106 2.46068 0
M  V30 9133 H 860.916 -2.42789 1.99752 0
M  V30 9134 N 864.689 -1.48329 0.532571 0
M  V30 9135 C 865.636 -2.29663 -0.228779 0
M  V30 9136 C 866.606 -1.37529 -0.931401 0
M  V30 9137 O 867.791 -1.66493 -0.931921 0
M  V30 9138 C 864.931 -3.20955 -1.26814 0
M  V30 9139 C 864.044 -4.28168 -0.574099 0
M  V30 9140 C 863.179 -5.06638 -1.59661 0
M  V30 9141 C 862.218 -6.05651 -0.88618 0
M  V30 9142 N 861.355 -6.77169 -1.85436 0
M  V30 9143 H 866.195 -2.94255 0.47098 0
M  V30 9144 H 863.732 -1.45061 0.2441 0
M  V30 9145 H 865.69 -3.72285 -1.88307 0
M  V30 9146 H 864.32 -2.58281 -1.93625 0
M  V30 9147 H 863.372 -3.80085 0.154827 0
M  V30 9148 H 864.684 -4.98797 -0.0163984 0
M  V30 9149 H 863.838 -5.61995 -2.28576 0
M  V30 9150 H 862.577 -4.35854 -2.18821 0
M  V30 9151 H 861.582 -5.49495 -0.182981 0
M  V30 9152 H 862.807 -6.78434 -0.300659 0
M  V30 9153 H 860.753 -6.09134 -2.43499 0
M  V30 9154 H 860.67 -7.43882 -1.34816 0
M  V30 9155 H 861.938 -7.37114 -2.53541 0
M  V30 9156 N 866.167 -0.267825 -1.55308 0
M  V30 9157 C 867.117 0.637168 -2.18916 0
M  V30 9158 C 868.101 1.12381 -1.15149 0
M  V30 9159 O 869.293 1.0701 -1.40989 0
M  V30 9160 C 866.422 1.82423 -2.90821 0
M  V30 9161 C 865.508 1.35512 -4.01867 0
M  V30 9162 N 865.899 0.601644 -5.02209 0
M  V30 9163 C 864.197 1.63868 -4.14805 0
M  V30 9164 C 864.898 0.35596 -5.8061 0
M  V30 9165 N 863.874 0.926271 -5.3565 0
M  V30 9166 H 867.676 0.0535787 -2.93851 0
M  V30 9167 H 865.19 -0.0710577 -1.62244 0
M  V30 9168 H 867.187 2.48379 -3.34834 0
M  V30 9169 H 865.847 2.41185 -2.17394 0
M  V30 9170 H 866.858 0.249693 -5.17298 0
M  V30 9171 H 863.535 2.23618 -3.52564 0
M  V30 9172 H 864.925 -0.246994 -6.71446 0
M  V30 9173 N 867.645 1.57599 0.00500368 0
M  V30 9174 C 868.555 2.11532 1.01446 0
M  V30 9175 C 869.571 1.05941 1.3803 0
M  V30 9176 O 870.747 1.37815 1.46864 0
M  V30 9177 C 867.812 2.60382 2.28915 0
M  V30 9178 C 866.873 3.80554 1.98689 0
M  V30 9179 C 866.106 4.27064 3.20081 0
M  V30 9180 O 866.329 3.72939 4.31593 0
M  V30 9181 O 865.263 5.1927 3.04371 0
M  V30 9182 H 869.089 2.97993 0.586011 0
M  V30 9183 H 866.674 1.47718 0.223519 0
M  V30 9184 H 868.556 2.92024 3.03809 0
M  V30 9185 H 867.231 1.77022 2.71007 0
M  V30 9186 H 866.138 3.53893 1.21286 0
M  V30 9187 H 867.471 4.64972 1.61437 0
M  V30 9188 N 869.123 -0.277682 1.55134 0
M  V30 9189 C 870.053 -1.34742 1.90701 0
M  V30 9190 C 871.034 -1.51757 0.768354 0
M  V30 9191 O 872.219 -1.64879 1.02609 0
M  V30 9192 C 869.349 -2.70775 2.17481 0
M  V30 9193 C 868.303 -2.68497 3.33307 0
M  V30 9194 C 867.629 -4.08037 3.45557 0
M  V30 9195 C 868.929 -2.28178 4.69821 0
M  V30 9196 H 870.623 -1.05224 2.803 0
M  V30 9197 H 868.169 -0.504738 1.34864 0
M  V30 9198 H 870.122 -3.45719 2.40949 0
M  V30 9199 H 868.846 -3.01867 1.24676 0
M  V30 9200 H 867.505 -1.9601 3.09799 0
M  V30 9201 H 867.153 -4.36344 2.50226 0
M  V30 9202 H 866.853 -4.07409 4.23429 0
M  V30 9203 H 868.377 -4.84726 3.71312 0
M  V30 9204 H 869.791 -2.92843 4.92865 0
M  V30 9205 H 868.188 -2.3872 5.50575 0
M  V30 9206 H 869.258 -1.23308 4.6896 0
M  V30 9207 N 870.601 -1.47988 -0.541979 0
M  V30 9208 C 871.533 -1.5769 -1.66332 0
M  V30 9209 C 872.546 -0.461994 -1.56107 0
M  V30 9210 O 873.735 -0.732306 -1.62787 0
M  V30 9211 C 870.835 -1.47939 -3.04905 0
M  V30 9212 C 870.008 -2.74263 -3.40733 0
M  V30 9213 C 869.067 -2.58133 -4.58534 0
M  V30 9214 O 868.093 -3.31991 -4.62354 0
M  V30 9215 N 869.295 -1.6696 -5.55972 0
M  V30 9216 H 872.06 -2.54389 -1.5845 0
M  V30 9217 H 869.621 -1.4456 -0.728979 0
M  V30 9218 H 871.613 -1.34861 -3.81569 0
M  V30 9219 H 870.183 -0.592626 -3.06931 0
M  V30 9220 H 869.403 -3.01992 -2.53366 0
M  V30 9221 H 870.691 -3.58094 -3.6145 0
M  V30 9222 H 870.089 -1.06134 -5.55655 0
M  V30 9223 H 868.646 -1.59826 -6.31901 0
M  V30 9224 N 872.079 0.78992 -1.36375 0
M  V30 9225 C 873.009 1.91683 -1.33341 0
M  V30 9226 C 873.99 1.68861 -0.204965 0
M  V30 9227 O 875.175 1.89982 -0.402531 0
M  V30 9228 C 872.305 3.28696 -1.12143 0
M  V30 9229 C 871.259 3.66041 -2.21806 0
M  V30 9230 C 870.585 5.01399 -1.85751 0
M  V30 9231 C 871.885 3.74677 -3.63888 0
M  V30 9232 H 873.579 1.94478 -2.27637 0
M  V30 9233 H 871.125 0.934271 -1.09578 0
M  V30 9234 H 873.078 4.07151 -1.08656 0
M  V30 9235 H 871.802 3.26287 -0.142974 0
M  V30 9236 H 870.461 2.89883 -2.24418 0
M  V30 9237 H 870.109 4.9551 -0.864817 0
M  V30 9238 H 869.809 5.27355 -2.59173 0
M  V30 9239 H 871.333 5.82274 -1.83819 0
M  V30 9240 H 872.747 4.43324 -3.63506 0
M  V30 9241 H 871.144 4.12118 -4.3621 0
M  V30 9242 H 872.214 2.75795 -3.9883 0
M  V30 9243 N 873.557 1.20646 1.01402 0
M  V30 9244 C 874.467 0.973385 2.13453 0
M  V30 9245 C 875.483 -0.0715865 1.73853 0
M  V30 9246 O 876.659 0.116438 2.01063 0
M  V30 9247 C 873.724 0.531285 3.42605 0
M  V30 9248 C 872.785 1.64741 3.96433 0
M  V30 9249 C 872.018 1.22631 5.1942 0
M  V30 9250 O 872.241 0.0960891 5.70319 0
M  V30 9251 O 871.175 2.03474 5.66465 0
M  V30 9252 H 875.001 1.91164 2.35987 0
M  V30 9253 H 872.586 0.990553 1.11841 0
M  V30 9254 H 874.468 0.294095 4.20373 0
M  V30 9255 H 873.143 -0.378358 3.21481 0
M  V30 9256 H 872.05 1.93891 3.19933 0
M  V30 9257 H 873.383 2.53415 4.2195 0
M  V30 9258 N 875.035 -1.20752 1.01276 0
M  V30 9259 C 875.967 -2.22798 0.537917 0
M  V30 9260 C 876.98 -1.5836 -0.377638 0
M  V30 9261 O 878.169 -1.77624 -0.176599 0
M  V30 9262 C 875.269 -3.38068 -0.237364 0
M  V30 9263 C 874.442 -4.32095 0.679161 0
M  V30 9264 C 873.501 -5.26178 -0.0478676 0
M  V30 9265 O 872.527 -5.66305 0.573366 0
M  V30 9266 N 873.729 -5.65201 -1.32396 0
M  V30 9267 H 876.494 -2.64166 1.4155 0
M  V30 9268 H 874.055 -1.35254 0.889826 0
M  V30 9269 H 876.047 -3.98009 -0.73288 0
M  V30 9270 H 874.617 -2.95622 -1.0162 0
M  V30 9271 H 873.837 -3.70179 1.35505 0
M  V30 9272 H 875.125 -4.91842 1.30263 0
M  V30 9273 H 874.523 -5.34606 -1.84968 0
M  V30 9274 H 873.08 -6.27468 -1.76428 0
M  V30 9275 N 876.513 -0.788492 -1.36457 0
M  V30 9276 C 877.446 -0.132189 -2.27817 0
M  V30 9277 C 878.424 0.691166 -1.47179 0
M  V30 9278 O 879.608 0.662344 -1.7648 0
M  V30 9279 C 876.735 0.818386 -3.28664 0
M  V30 9280 C 875.781 0.0769392 -4.26431 0
M  V30 9281 S 876.614 -1.24666 -5.20786 0
M  V30 9282 C 877.77 -0.300063 -6.2518 0
M  V30 9283 H 878.003 -0.906824 -2.83132 0
M  V30 9284 H 875.536 -0.582666 -1.42984 0
M  V30 9285 H 877.494 1.36138 -3.87268 0
M  V30 9286 H 876.155 1.56626 -2.72263 0
M  V30 9287 H 875.348 0.79819 -4.97639 0
M  V30 9288 H 874.95 -0.395547 -3.71902 0
M  V30 9289 H 877.242 0.521434 -6.7549 0
M  V30 9290 H 878.185 -0.980808 -7.01274 0
M  V30 9291 H 878.593 0.0961898 -5.64418 0
M  V30 9292 N 877.991 1.48044 -0.54043 0
M  V30 9293 C 878.941 2.26768 0.236657 0
M  V30 9294 C 879.925 1.33341 0.900505 0
M  V30 9295 O 881.117 1.57809 0.801584 0
M  V30 9296 C 878.246 3.18685 1.27651 0
M  V30 9297 C 877.332 4.19589 0.616923 0
M  V30 9298 N 877.723 5.04889 -0.303377 0
M  V30 9299 C 876.021 4.37375 0.872879 0
M  V30 9300 C 876.722 5.77654 -0.684905 0
M  V30 9301 N 875.698 5.43583 -0.0435728 0
M  V30 9302 H 879.5 2.90098 -0.471183 0
M  V30 9303 H 877.014 1.58378 -0.359183 0
M  V30 9304 H 879.011 3.73752 1.84702 0
M  V30 9305 H 877.671 2.56911 1.98562 0
M  V30 9306 H 878.682 5.13461 -0.676591 0
M  V30 9307 H 875.359 3.86784 1.57177 0
M  V30 9308 H 876.749 6.56285 -1.44015 0
M  V30 9309 N 879.47 0.276058 1.55163 0
M  V30 9310 C 880.417 -0.611006 2.22565 0
M  V30 9311 C 881.387 -1.14902 1.19945 0
M  V30 9312 O 882.572 -1.19815 1.48489 0
M  V30 9313 C 879.712 -1.78885 2.95117 0
M  V30 9314 C 878.825 -1.2846 4.12458 0
M  V30 9315 C 877.96 -2.42432 4.72652 0
M  V30 9316 C 876.999 -1.89015 5.82185 0
M  V30 9317 N 876.136 -2.96463 6.36439 0
M  V30 9318 H 880.976 -0.0295849 2.97985 0
M  V30 9319 H 878.513 -0.00283607 1.471 0
M  V30 9320 H 880.471 -2.48121 3.35398 0
M  V30 9321 H 879.101 -2.34229 2.22119 0
M  V30 9322 H 878.153 -0.485312 3.77292 0
M  V30 9323 H 879.465 -0.853358 4.91446 0
M  V30 9324 H 878.619 -3.19659 5.15658 0
M  V30 9325 H 877.358 -2.88872 3.92943 0
M  V30 9326 H 876.363 -1.10267 5.38629 0
M  V30 9327 H 877.588 -1.43509 6.63763 0
M  V30 9328 H 875.534 -3.42283 5.59623 0
M  V30 9329 H 875.451 -2.57759 7.10701 0
M  V30 9330 H 876.719 -3.73663 6.84103 0
M  V30 9331 N 880.948 -1.576 0.00335426 0
M  V30 9332 C 882.364 -1.55653 -0.352766 0
M  V30 9333 C 882.564 -1.00632 -1.74572 0
M  V30 9334 O 881.62 -0.641621 -2.44212 0
M  V30 9335 C 882.933 -2.99858 -0.224929 0
M  V30 9336 C 884.481 -3.11563 -0.299619 0
M  V30 9337 C 884.956 -4.57559 -0.200868 0
M  V30 9338 N 886.447 -4.62477 -0.258663 0
M  V30 9339 C 887.182 -5.73031 -0.205644 0
M  V30 9340 N 886.678 -6.92723 -0.103027 0
M  V30 9341 N 888.471 -5.61509 -0.257754 0
M  V30 9342 H 880.622 -1.91703 0.914539 0
M  V30 9343 H 882.885 -0.88068 0.350865 0
M  V30 9344 H 882.591 -3.43964 0.733595 0
M  V30 9345 H 882.465 -3.63547 -1.00564 0
M  V30 9346 H 884.852 -2.67384 -1.24859 0
M  V30 9347 H 884.933 -2.50644 0.511025 0
M  V30 9348 H 884.577 -5.02413 0.744572 0
M  V30 9349 H 884.507 -5.16428 -1.03004 0
M  V30 9350 H 886.998 -3.76375 -0.339168 0
M  V30 9351 H 887.311 -7.7277 -0.0685593 0
M  V30 9352 H 885.656 -6.94966 -0.0686069 0
M  V30 9353 H 888.847 -4.66892 -0.336142 0
M  V30 9354 H 889.02 -6.4765 -0.21297 0
M  V30 9355 N 882.426 0.269451 -1.5528 0
M  V30 9356 C 883.673 1.00058 -1.76053 0
M  V30 9357 C 884.001 1.86156 -0.563592 0
M  V30 9358 O 883.256 1.90366 0.453806 0
M  V30 9359 C 883.555 1.91 -3.02082 0
M  V30 9360 C 883.221 1.20623 -4.34466 0
M  V30 9361 C 881.883 1.01165 -4.70446 0
M  V30 9362 C 884.235 0.705695 -5.164 0
M  V30 9363 C 881.563 0.303865 -5.85913 0
M  V30 9364 C 883.915 0.0114838 -6.32599 0
M  V30 9365 C 882.579 -0.19478 -6.67216 0
M  V30 9366 H 881.849 0.366138 -0.644223 0
M  V30 9367 H 884.496 0.272563 -1.8955 0
M  V30 9368 H 882.801 2.70435 -2.835 0
M  V30 9369 H 884.498 2.47698 -3.15352 0
M  V30 9370 H 881.088 1.36781 -4.06188 0
M  V30 9371 H 885.272 0.84364 -4.89077 0
M  V30 9372 H 880.528 0.133368 -6.11255 0
M  V30 9373 H 884.702 -0.384111 -6.9534 0
M  V30 9374 H 882.329 -0.745201 -7.56539 0
M  V30 9375 N 883.904 1.48273 0.534124 0
M  V30 9376 C 884.814 1.65162 1.66609 0
M  V30 9377 C 885.83 0.534177 1.65598 0
M  V30 9378 O 887.006 0.804715 1.84625 0
M  V30 9379 C 884.071 1.68354 3.03081 0
M  V30 9380 C 883.132 2.91696 3.1498 0
M  V30 9381 C 882.365 2.94725 4.44941 0
M  V30 9382 O 882.588 2.06285 5.31792 0
M  V30 9383 O 881.522 3.8685 4.61119 0
M  V30 9384 H 885.348 2.60991 1.55298 0
M  V30 9385 H 882.933 1.31626 0.706749 0
M  V30 9386 H 884.815 1.72998 3.84252 0
M  V30 9387 H 883.49 0.756978 3.14725 0
M  V30 9388 H 882.397 2.92586 2.33119 0
M  V30 9389 H 883.73 3.83722 3.0825 0
M  V30 9390 N 885.382 -0.782676 1.36792 0
M  V30 9391 C 886.314 -1.9044 1.27536 0
M  V30 9392 C 887.327 -1.61647 0.193426 0
M  V30 9393 O 888.516 -1.72769 0.448692 0
M  V30 9394 C 885.616 -3.2541 0.946641 0
M  V30 9395 C 884.789 -3.81932 2.13183 0
M  V30 9396 C 883.848 -4.95355 1.7751 0
M  V30 9397 O 882.874 -5.11517 2.49678 0
M  V30 9398 N 884.076 -5.76108 0.712755 0
M  V30 9399 H 886.841 -1.98899 2.24186 0
M  V30 9400 H 884.402 -0.96127 1.30274 0
M  V30 9401 H 886.394 -3.98791 0.689043 0
M  V30 9402 H 884.964 -3.12524 0.0690591 0
M  V30 9403 H 884.184 -3.00459 2.55183 0
M  V30 9404 H 885.472 -4.16426 2.92347 0
M  V30 9405 H 884.87 -5.65586 0.113662 0
M  V30 9406 H 883.427 -6.49762 0.514995 0
M  V30 9407 N 886.86 -1.21182 -1.00761 0
M  V30 9408 C 887.77 -0.984691 -2.12934 0
M  V30 9409 C 888.786 0.0623657 -1.73888 0
M  V30 9410 O 889.962 -0.1271 -2.00999 0
M  V30 9411 C 887.027 -0.549447 -3.42319 0
M  V30 9412 C 886.088 -1.66841 -3.95553 0
M  V30 9413 C 885.321 -1.25384 -5.18763 0
M  V30 9414 O 885.544 -0.126333 -5.7026 0
M  V30 9415 O 884.478 -2.06475 -5.65377 0
M  V30 9416 H 888.304 -1.92413 -2.3497 0
M  V30 9417 H 885.889 -0.99647 -1.11314 0
M  V30 9418 H 887.771 -0.316384 -4.20211 0
M  V30 9419 H 886.446 0.361304 -3.21677 0
M  V30 9420 H 885.353 -1.95585 -3.189 0
M  V30 9421 H 886.686 -2.55649 -4.206 0
M  V30 9422 N 888.338 1.20213 -1.01915 0
M  V30 9423 C 889.587 1.88968 -0.705261 0
M  V30 9424 C 889.9 1.79869 0.768531 0
M  V30 9425 O 891.106 2.43783 1.19508 0
M  V30 9426 C 889.562 3.38911 -1.21109 0
M  V30 9427 C 889.17 3.5659 -2.71197 0
M  V30 9428 C 890.914 4.13204 -0.97275 0
M  V30 9429 C 888.821 5.00372 -3.15248 0
M  V30 9430 H 887.751 0.707715 -0.260107 0
M  V30 9431 H 890.402 1.35977 -1.23217 0
M  V30 9432 H 888.784 3.9124 -0.612152 0
M  V30 9433 H 889.958 3.14635 -3.36662 0
M  V30 9434 H 888.273 2.95671 -2.93202 0
M  V30 9435 H 890.87 5.19221 -1.27726 0
M  V30 9436 H 891.213 4.16201 0.09072 0
M  V30 9437 H 891.746 3.66983 -1.5352 0
M  V30 9438 H 888.485 5.02532 -4.20882 0
M  V30 9439 H 888.005 5.43127 -2.54505 0
M  V30 9440 H 889.684 5.68969 -3.08032 0
M  V30 9441 N 889.816 0.795718 1.36037 0
M  V30 9442 C 890.764 0.18649 2.31851 0
M  V30 9443 C 891.758 -0.657704 1.56111 0
M  V30 9444 O 892.964 -0.552083 1.71324 0
M  V30 9445 H 889.339 0.0415363 0.750852 0
M  V30 9446 H 891.31 1.00992 2.8079 0
M  V30 9447 C 890.059 -0.65918 3.41394 0
M  V30 9448 H 889.382 -0.01894 3.99796 0
M  V30 9449 H 890.822 -1.05202 4.10741 0
M  V30 9450 C 889.281 -1.82011 2.83502 0
M  V30 9451 O 889.811 -2.91703 2.76174 0
M  V30 9452 N 888.017 -1.62821 2.40703 0
M  V30 9453 H 887.564 -0.735965 2.46863 0
M  V30 9454 H 887.522 -2.40657 2.02316 0
M  V30 9455 N 891.294 -1.47756 0.548274 0
M  V30 9456 C 892.257 -2.28379 -0.193857 0
M  V30 9457 C 893.257 -1.36436 -0.850986 0
M  V30 9458 O 894.447 -1.59154 -0.70822 0
M  V30 9459 C 891.579 -3.15858 -1.28243 0
M  V30 9460 H 892.772 -2.95458 0.514231 0
M  V30 9461 H 890.325 -1.53298 0.304879 0
M  V30 9462 H 891.06 -2.5345 -2.0232 0
M  V30 9463 H 890.845 -3.83512 -0.816148 0
M  V30 9464 H 892.335 -3.76627 -1.80393 0
M  V30 9465 N 892.772 -0.284283 -1.55015 0
M  V30 9466 C 893.719 0.599194 -2.22886 0
M  V30 9467 C 894.689 1.14264 -1.20553 0
M  V30 9468 O 895.874 1.19025 -1.49123 0
M  V30 9469 C 893.014 1.77317 -2.96062 0
M  V30 9470 C 892.127 1.26271 -4.13134 0
M  V30 9471 C 891.262 2.39922 -4.73931 0
M  V30 9472 C 890.301 1.85925 -5.8318 0
M  V30 9473 N 889.438 2.93084 -6.38002 0
M  V30 9474 H 894.278 0.0137816 -2.97997 0
M  V30 9475 H 891.815 -0.00496503 -1.47099 0
M  V30 9476 H 893.773 2.46339 -3.36709 0
M  V30 9477 H 892.403 2.33047 -2.23358 0
M  V30 9478 H 891.455 0.465296 -3.77544 0
M  V30 9479 H 892.767 0.827284 -4.91892 0
M  V30 9480 H 891.921 3.1692 -5.17346 0
M  V30 9481 H 890.66 2.86784 -3.9447 0
M  V30 9482 H 889.665 1.07409 -5.39206 0
M  V30 9483 H 890.89 1.39987 -6.64515 0
M  V30 9484 H 888.836 3.3931 -5.61431 0
M  V30 9485 H 888.753 2.53986 -7.12058 0
M  V30 9486 H 890.021 3.7003 -6.86075 0
M  V30 9487 N 894.251 1.57596 -0.0117121 0
M  V30 9488 C 895.198 2.09153 0.975897 0
M  V30 9489 C 896.168 0.989579 1.33404 0
M  V30 9490 O 897.353 1.26273 1.43038 0
M  V30 9491 C 894.493 2.60906 2.2588 0
M  V30 9492 C 893.606 3.85046 1.95866 0
M  V30 9493 C 892.741 4.25257 3.18323 0
M  V30 9494 C 891.78 5.42202 2.84049 0
M  V30 9495 N 890.917 5.77651 3.99079 0
M  V30 9496 H 895.757 2.93261 0.52931 0
M  V30 9497 H 893.294 1.44965 0.249691 0
M  V30 9498 H 895.252 2.88995 3.00895 0
M  V30 9499 H 893.882 1.79654 2.68187 0
M  V30 9500 H 892.934 3.63794 1.11168 0
M  V30 9501 H 894.246 4.70151 1.66611 0
M  V30 9502 H 893.4 4.5469 4.01674 0
M  V30 9503 H 892.139 3.38884 3.50726 0
M  V30 9504 H 891.144 5.1248 1.99107 0
M  V30 9505 H 892.369 6.3026 2.52881 0
M  V30 9506 H 890.315 4.94235 4.31356 0
M  V30 9507 H 890.232 6.57356 3.73388 0
M  V30 9508 H 891.5 6.11681 4.83183 0
M  V30 9509 N 895.729 -0.261212 1.5542 0
M  V30 9510 C 896.676 -1.32315 1.89107 0
M  V30 9511 C 897.646 -1.48517 0.743767 0
M  V30 9512 O 898.831 -1.62733 0.996123 0
M  V30 9513 C 895.971 -2.67626 2.17877 0
M  V30 9514 C 895.084 -2.59549 3.45338 0
M  V30 9515 C 894.219 -3.87118 3.63748 0
M  V30 9516 C 893.258 -3.736 4.8486 0
M  V30 9517 N 892.395 -4.93029 4.99867 0
M  V30 9518 H 897.235 -1.02886 2.79675 0
M  V30 9519 H 894.772 -0.496812 1.38456 0
M  V30 9520 H 896.73 -3.4637 2.32559 0
M  V30 9521 H 895.36 -2.95232 1.30529 0
M  V30 9522 H 894.412 -1.72452 3.39064 0
M  V30 9523 H 895.724 -2.45465 4.34222 0
M  V30 9524 H 894.878 -4.74305 3.78312 0
M  V30 9525 H 893.617 -4.04084 2.73071 0
M  V30 9526 H 892.622 -2.84797 4.70288 0
M  V30 9527 H 893.847 -3.58143 5.76984 0
M  V30 9528 H 891.793 -5.10383 4.12123 0
M  V30 9529 H 891.71 -4.81521 5.82815 0
M  V30 9530 H 892.978 -5.81754 5.18828 0
M  V30 9531 N 897.207 -1.48554 -0.526253 0
M  V30 9532 C 898.454 -1.56761 -1.28188 0
M  V30 9533 C 898.782 -0.24315 -1.92974 0
M  V30 9534 O 898.037 0.766883 -1.80048 0
M  V30 9535 C 898.336 -2.65739 -2.38993 0
M  V30 9536 C 898.002 -4.08057 -1.91834 0
M  V30 9537 C 896.664 -4.46792 -1.78691 0
M  V30 9538 C 899.016 -4.9723 -1.56242 0
M  V30 9539 C 896.344 -5.72501 -1.28296 0
M  V30 9540 C 898.696 -6.23432 -1.07309 0
M  V30 9541 C 897.36 -6.6102 -0.927853 0
M  V30 9542 H 896.63 -0.573631 -0.469072 0
M  V30 9543 H 899.277 -1.82287 -0.586842 0
M  V30 9544 H 897.582 -2.34088 -3.14181 0
M  V30 9545 H 899.279 -2.69304 -2.97113 0
M  V30 9546 H 895.869 -3.77469 -2.03016 0
M  V30 9547 H 900.053 -4.67979 -1.65255 0
M  V30 9548 H 895.309 -6.00345 -1.15742 0
M  V30 9549 H 899.483 -6.91923 -0.788412 0
M  V30 9550 H 897.11 -7.58314 -0.535162 0
M  V30 9551 N 898.685 0.775411 -1.37205 0
M  V30 9552 C 899.932 1.53384 -1.32211 0
M  V30 9553 C 900.26 1.9427 0.0944958 0
M  V30 9554 O 899.515 1.64059 1.06692 0
M  V30 9555 C 899.814 2.81377 -2.20367 0
M  V30 9556 C 899.48 2.59561 -3.68699 0
M  V30 9557 C 898.142 2.53319 -4.09124 0
M  V30 9558 C 900.494 2.39939 -4.62686 0
M  V30 9559 C 897.822 2.25442 -5.41658 0
M  V30 9560 C 900.174 2.13586 -5.95453 0
M  V30 9561 C 898.838 2.05786 -6.34987 0
M  V30 9562 H 898.108 0.561271 -0.483793 0
M  V30 9563 H 900.755 0.893466 -1.6938 0
M  V30 9564 H 899.06 3.49954 -1.76181 0
M  V30 9565 H 900.757 3.39238 -2.13819 0
M  V30 9566 H 897.347 2.6528 -3.36637 0
M  V30 9567 H 901.531 2.43753 -4.32317 0
M  V30 9568 H 896.787 2.17896 -5.71254 0
M  V30 9569 H 900.961 1.97401 -6.67837 0
M  V30 9570 H 898.588 1.83948 -7.37609 0
M  V30 9571 N 900.163 1.21714 1.00117 0
M  V30 9572 C 901.44 0.945391 1.71236 0
M  V30 9573 C 901.82 -0.541772 2.0403 0
M  V30 9574 O 901.168 -1.50763 1.71705 0
M  V30 9575 C 901.378 1.83444 2.96899 0
M  V30 9576 C 902.726 2.08558 3.69849 0
M  V30 9577 O 903.75 1.80824 3.06889 0
M  V30 9578 O 902.609 2.55485 4.83104 0
M  V30 9579 H 899.703 0.354834 0.747009 0
M  V30 9580 H 902.249 1.32661 1.05825 0
M  V30 9581 H 901.021 2.84075 2.69105 0
M  V30 9582 H 900.644 1.45428 3.70049 0
M  V30 9583 N 901.641 -1.19671 1.02551 0
M  V30 9584 C 902.869 -1.93233 0.739513 0
M  V30 9585 C 903.284 -1.75298 -0.701158 0
M  V30 9586 O 902.641 -1.07269 -1.47647 0
M  V30 9587 C 902.692 -3.45085 1.07697 0
M  V30 9588 O 902.413 -3.62441 2.46106 0
M  V30 9589 C 903.914 -4.35776 0.813298 0
M  V30 9590 H 901.134 -0.613905 0.270853 0
M  V30 9591 H 903.678 -1.51909 1.36909 0
M  V30 9592 H 901.833 -3.84255 0.492635 0
M  V30 9593 H 902.247 -4.56337 2.58567 0
M  V30 9594 H 903.721 -5.40941 1.09941 0
M  V30 9595 H 904.198 -4.38474 -0.252359 0
M  V30 9596 H 904.804 -4.02282 1.38021 0
M  V30 9597 N 903.119 -0.802921 -1.35613 0
M  V30 9598 C 904.029 -0.212177 -2.33639 0
M  V30 9599 C 905.045 0.642871 -1.61689 0
M  V30 9600 O 906.221 0.555485 -1.93588 0
M  V30 9601 C 903.286 0.632406 -3.40883 0
M  V30 9602 C 902.347 -0.242708 -4.28613 0
M  V30 9603 C 901.58 0.56166 -5.30736 0
M  V30 9604 O 901.803 1.79664 -5.41366 0
M  V30 9605 O 900.737 -0.0455387 -6.01883 0
M  V30 9606 H 904.563 -1.023 -2.85952 0
M  V30 9607 H 902.148 -0.564636 -1.38319 0
M  V30 9608 H 904.03 1.11358 -4.0642 0
M  V30 9609 H 902.705 1.42089 -2.90848 0
M  V30 9610 H 901.612 -0.77094 -3.6607 0
M  V30 9611 H 902.945 -0.995046 -4.82037 0
M  V30 9612 N 904.597 1.47463 -0.556102 0
M  V30 9613 C 905.527 2.32801 0.180497 0
M  V30 9614 C 906.508 1.43721 0.909848 0
M  V30 9615 O 907.693 1.72578 0.89053 0
M  V30 9616 C 904.823 3.25478 1.21167 0
M  V30 9617 C 903.777 4.2379 0.598846 0
M  V30 9618 C 903.103 5.05783 1.73457 0
M  V30 9619 C 904.403 5.20387 -0.446659 0
M  V30 9620 H 906.097 2.94636 -0.531956 0
M  V30 9621 H 903.643 1.41683 -0.257267 0
M  V30 9622 H 905.596 3.8402 1.73513 0
M  V30 9623 H 904.32 2.61695 1.95405 0
M  V30 9624 H 902.979 3.66472 0.0966897 0
M  V30 9625 H 902.627 4.38405 2.46596 0
M  V30 9626 H 902.327 5.72343 1.33031 0
M  V30 9627 H 903.851 5.67183 2.26131 0
M  V30 9628 H 905.265 5.73299 -0.00930019 0
M  V30 9629 H 903.662 5.95143 -0.769735 0
M  V30 9630 H 904.732 4.65932 -1.34295 0
M  V30 9631 N 906.075 0.2925 1.54862 0
M  V30 9632 C 906.985 -0.597036 2.26876 0
M  V30 9633 C 908.001 -1.15558 1.30086 0
M  V30 9634 O 909.177 -1.18217 1.63054 0
M  V30 9635 C 906.242 -1.75664 2.98903 0
M  V30 9636 C 905.303 -1.23303 4.11212 0
M  V30 9637 C 904.536 -2.33736 4.79795 0
M  V30 9638 O 904.759 -3.53459 4.47686 0
M  V30 9639 O 903.693 -2.00908 5.67379 0
M  V30 9640 H 907.519 -0.0131242 3.03697 0
M  V30 9641 H 905.104 0.0592642 1.49282 0
M  V30 9642 H 906.986 -2.43241 3.4411 0
M  V30 9643 H 905.661 -2.32731 2.24984 0
M  V30 9644 H 904.568 -0.523222 3.70423 0
M  V30 9645 H 905.901 -0.707887 4.87083 0
M  V30 9646 N 907.553 -1.57587 0.0200696 0
M  V30 9647 C 908.501 -2.10814 -0.982868 0
M  V30 9648 C 909.495 -1.03263 -1.34287 0
M  V30 9649 O 910.701 -1.21708 -1.32617 0
M  V30 9650 H 907.076 -0.673409 -0.334701 0
M  V30 9651 H 909.047 -2.94034 -0.50856 0
M  V30 9652 C 907.796 -2.64301 -2.25921 0
M  V30 9653 H 907.119 -3.46703 -1.99091 0
M  V30 9654 H 908.559 -3.052 -2.94328 0
M  V30 9655 C 907.018 -1.56628 -2.98277 0
M  V30 9656 O 907.548 -0.960825 -3.9004 0
M  V30 9657 N 905.754 -1.28889 -2.60453 0
M  V30 9658 H 905.301 -1.7831 -1.85912 0
M  V30 9659 H 905.259 -0.570697 -3.09177 0
M  V30 9660 N 909.032 0.252966 -1.55557 0
M  V30 9661 C 909.962 1.31691 -1.9282 0
M  V30 9662 C 910.943 1.50516 -0.7924 0
M  V30 9663 O 912.128 1.63225 -1.05219 0
M  V30 9664 C 909.258 2.67281 -2.21762 0
M  V30 9665 C 908.212 2.6316 -3.37536 0
M  V30 9666 C 907.538 4.02488 -3.52005 0
M  V30 9667 C 908.838 2.20675 -4.73392 0
M  V30 9668 H 910.532 1.00751 -2.81939 0
M  V30 9669 H 908.078 0.483219 -1.3565 0
M  V30 9670 H 910.031 3.41842 -2.46419 0
M  V30 9671 H 908.755 2.99845 -1.29463 0
M  V30 9672 H 907.414 1.91057 -3.12878 0
M  V30 9673 H 907.062 4.32307 -2.57137 0
M  V30 9674 H 906.762 4.00621 -4.29857 0
M  V30 9675 H 908.286 4.78758 -3.78977 0
M  V30 9676 H 909.7 2.84965 -4.97461 0
M  V30 9677 H 908.097 2.29931 -5.54303 0
M  V30 9678 H 909.167 1.15831 -4.70862 0
M  V30 9679 N 910.51 1.48831 0.518367 0
M  V30 9680 C 911.42 1.6692 1.64848 0
M  V30 9681 C 912.436 0.551711 1.65022 0
M  V30 9682 O 913.612 0.824251 1.83761 0
M  V30 9683 C 910.677 1.71559 3.01278 0
M  V30 9684 C 909.738 2.9502 3.11868 0
M  V30 9685 C 908.971 2.99428 4.4179 0
M  V30 9686 O 909.194 2.11914 5.29574 0
M  V30 9687 O 908.128 3.91719 4.5699 0
M  V30 9688 H 911.954 2.62623 1.52521 0
M  V30 9689 H 909.539 1.32368 0.692749 0
M  V30 9690 H 911.421 1.77064 3.82396 0
M  V30 9691 H 910.096 0.790316 3.13904 0
M  V30 9692 H 909.003 2.95042 2.30003 0
M  V30 9693 H 910.336 3.8697 3.04163 0
M  V30 9694 N 911.988 -0.768124 1.37614 0
M  V30 9695 C 913.404 -1.06919 1.18493 0
M  V30 9696 C 913.604 -2.01486 0.0235753 0
M  V30 9697 O 912.66 -2.4438 -0.635209 0
M  V30 9698 C 913.973 -1.66321 2.50515 0
M  V30 9699 C 915.521 -1.78562 2.57069 0
M  V30 9700 C 915.996 -2.41377 3.89231 0
M  V30 9701 N 917.487 -2.48824 3.90693 0
M  V30 9702 C 918.222 -2.98288 4.89706 0
M  V30 9703 N 917.718 -3.47897 5.99115 0
M  V30 9704 N 919.511 -2.97196 4.77107 0
M  V30 9705 H 911.662 -0.140286 2.11936 0
M  V30 9706 H 913.925 -0.124863 0.939741 0
M  V30 9707 H 913.631 -1.04303 3.35878 0
M  V30 9708 H 913.505 -2.65571 2.67866 0
M  V30 9709 H 915.892 -2.39712 1.72111 0
M  V30 9710 H 915.973 -0.780574 2.43599 0
M  V30 9711 H 915.617 -1.80866 4.74605 0
M  V30 9712 H 915.547 -3.42495 4.00006 0
M  V30 9713 H 918.038 -2.1372 3.1166 0
M  V30 9714 H 918.351 -3.84053 6.70614 0
M  V30 9715 H 916.696 -3.45993 6.02755 0
M  V30 9716 H 919.887 -2.57741 3.90752 0
M  V30 9717 H 920.06 -3.35434 5.54426 0
M  V30 9718 N 913.466 -1.22244 -0.994698 0
M  V30 9719 C 914.398 -0.948706 -2.08644 0
M  V30 9720 C 915.411 0.0720049 -1.62641 0
M  V30 9721 O 916.6 -0.161778 -1.77765 0
M  V30 9722 C 913.7 -0.404885 -3.36473 0
M  V30 9723 C 912.873 -1.48239 -4.11514 0
M  V30 9724 C 911.932 -0.94597 -5.17627 0
M  V30 9725 O 910.958 -1.63177 -5.45309 0
M  V30 9726 N 912.16 0.23355 -5.8003 0
M  V30 9727 H 914.925 -1.88858 -2.32707 0
M  V30 9728 H 912.486 -1.12908 -1.16032 0
M  V30 9729 H 914.478 -0.0313903 -4.04688 0
M  V30 9730 H 913.048 0.440061 -3.09487 0
M  V30 9731 H 912.268 -2.02928 -3.37955 0
M  V30 9732 H 913.556 -2.20741 -4.58422 0
M  V30 9733 H 912.954 0.80756 -5.59906 0
M  V30 9734 H 911.511 0.54845 -6.49488 0
M  V30 9735 N 914.944 1.19125 -1.03184 0
M  V30 9736 C 915.876 2.21914 -0.573294 0
M  V30 9737 C 916.889 1.5894 0.352397 0
M  V30 9738 O 918.078 1.77883 0.148318 0
M  V30 9739 C 915.178 3.38403 0.18355 0
M  V30 9740 C 914.351 4.3096 -0.747817 0
M  V30 9741 C 913.41 5.26188 -0.0358489 0
M  V30 9742 O 912.436 5.65321 -0.663388 0
M  V30 9743 N 913.638 5.67235 1.23387 0
M  V30 9744 H 916.403 2.61881 -1.45734 0
M  V30 9745 H 913.964 1.33821 -0.911231 0
M  V30 9746 H 915.956 3.99124 0.669468 0
M  V30 9747 H 914.526 2.97201 0.969043 0
M  V30 9748 H 913.746 3.67976 -1.41377 0
M  V30 9749 H 915.034 4.89708 -1.38071 0
M  V30 9750 H 914.432 5.37481 1.76439 0
M  V30 9751 H 912.989 6.30196 1.66423 0
M  V30 9752 N 916.422 0.810101 1.35185 0
M  V30 9753 C 917.369 0.220927 2.2974 0
M  V30 9754 C 918.339 -0.647024 1.5298 0
M  V30 9755 O 919.524 -0.591367 1.81404 0
M  V30 9756 C 916.664 -0.62167 3.39454 0
M  V30 9757 C 915.777 0.267104 4.31173 0
M  V30 9758 C 914.912 -0.583833 5.27982 0
M  V30 9759 C 913.951 0.305123 6.11339 0
M  V30 9760 N 913.088 -0.505992 7.00274 0
M  V30 9761 H 917.928 1.03266 2.79536 0
M  V30 9762 H 915.465 0.520768 1.37573 0
M  V30 9763 H 917.423 -1.12539 4.01735 0
M  V30 9764 H 916.053 -1.39863 2.90926 0
M  V30 9765 H 915.105 0.88895 3.69867 0
M  V30 9766 H 916.417 0.951182 4.89647 0
M  V30 9767 H 915.571 -1.15254 5.95652 0
M  V30 9768 H 914.31 -1.30146 4.70014 0
M  V30 9769 H 913.315 0.886075 5.42613 0
M  V30 9770 H 914.54 1.02067 6.71386 0
M  V30 9771 H 912.486 -1.20753 6.4479 0
M  V30 9772 H 912.403 0.119966 7.55905 0
M  V30 9773 H 913.671 -1.05787 7.72288 0
M  V30 9774 N 917.9 -1.47166 0.563914 0
M  V30 9775 C 918.832 -2.28165 -0.217583 0
M  V30 9776 C 919.845 -1.37405 -0.873134 0
M  V30 9777 O 921.034 -1.6217 -0.745857 0
M  V30 9778 C 918.134 -3.11873 -1.32621 0
M  V30 9779 C 917.307 -4.30637 -0.766177 0
M  V30 9780 C 916.366 -4.95889 -1.76014 0
M  V30 9781 O 915.392 -5.54071 -1.3036 0
M  V30 9782 N 916.594 -4.91191 -3.09373 0
M  V30 9783 H 919.359 -2.95876 0.477256 0
M  V30 9784 H 916.92 -1.5687 0.40043 0
M  V30 9785 H 918.912 -3.52392 -1.99003 0
M  V30 9786 H 917.482 -2.46361 -1.92419 0
M  V30 9787 H 916.702 -3.94129 0.0745998 0
M  V30 9788 H 917.99 -5.07442 -0.371472 0
M  V30 9789 H 917.388 -4.45133 -3.49104 0
M  V30 9790 H 915.945 -5.35708 -3.71295 0
M  V30 9791 N 919.378 -0.300708 -1.54705 0
M  V30 9792 C 920.31 0.609179 -2.20956 0
M  V30 9793 C 921.323 1.09776 -1.20221 0
M  V30 9794 O 922.512 1.01527 -1.46815 0
M  V30 9795 C 919.612 1.84595 -2.84214 0
M  V30 9796 C 918.785 1.49991 -4.10879 0
M  V30 9797 C 917.844 2.5918 -4.57943 0
M  V30 9798 O 916.87 2.24285 -5.23149 0
M  V30 9799 N 918.072 3.89714 -4.30236 0
M  V30 9800 H 920.837 0.0420111 -2.99671 0
M  V30 9801 H 918.398 -0.122896 -1.61433 0
M  V30 9802 H 920.39 2.56988 -3.12633 0
M  V30 9803 H 918.96 2.32152 -2.09342 0
M  V30 9804 H 918.18 0.608637 -3.89473 0
M  V30 9805 H 919.468 1.24409 -4.93356 0
M  V30 9806 H 918.866 4.20874 -3.77997 0
M  V30 9807 H 917.423 4.58406 -4.63365 0
M  V30 9808 N 920.856 1.57574 -0.0284266 0
M  V30 9809 C 922.102 1.92056 0.651327 0
M  V30 9810 C 922.435 0.905092 1.71819 0
M  V30 9811 O 921.71 -0.0722703 1.94366 0
M  V30 9812 C 921.993 3.37021 1.26841 0
M  V30 9813 C 921.846 4.49304 0.211157 0
M  V30 9814 C 923.165 3.81936 2.18662 0
M  V30 9815 H 920.284 0.698428 0.235304 0
M  V30 9816 H 922.926 1.89807 -0.0855435 0
M  V30 9817 H 921.076 3.39068 1.89644 0
M  V30 9818 H 922.748 4.5939 -0.419379 0
M  V30 9819 H 920.991 4.31317 -0.463445 0
M  V30 9820 H 921.662 5.47764 0.682518 0
M  V30 9821 H 924.138 3.8162 1.65847 0
M  V30 9822 H 923.014 4.84064 2.58792 0
M  V30 9823 H 923.275 3.174 3.07749 0
M  V30 9824 N 922.334 -0.244713 1.55689 0
M  V30 9825 C 923.244 -1.32447 1.93636 0
M  V30 9826 C 924.26 -1.52541 0.837086 0
M  V30 9827 O 925.436 -1.66121 1.13867 0
M  V30 9828 C 922.501 -2.65864 2.22525 0
M  V30 9829 C 921.562 -2.54273 3.45896 0
M  V30 9830 C 920.795 -3.81327 3.73397 0
M  V30 9831 O 921.018 -4.83307 3.02936 0
M  V30 9832 O 919.952 -3.79829 4.66919 0
M  V30 9833 H 923.778 -1.03255 2.85608 0
M  V30 9834 H 921.363 -0.445652 1.42598 0
M  V30 9835 H 923.245 -3.447 2.42404 0
M  V30 9836 H 921.92 -2.94784 1.33731 0
M  V30 9837 H 920.827 -1.73715 3.31321 0
M  V30 9838 H 922.16 -2.30297 4.34999 0
M  V30 9839 N 923.813 -1.49104 -0.510467 0
M  V30 9840 C 924.76 -1.65074 -1.61305 0
M  V30 9841 C 925.73 -0.492362 -1.58635 0
M  V30 9842 O 926.915 -0.718241 -1.76765 0
M  V30 9843 C 924.055 -1.71457 -2.99493 0
M  V30 9844 C 923.168 -2.98536 -3.12251 0
M  V30 9845 C 922.303 -2.95957 -4.41116 0
M  V30 9846 C 921.342 -4.17655 -4.47471 0
M  V30 9847 N 920.479 -4.13041 -5.67751 0
M  V30 9848 H 925.319 -2.59222 -1.46996 0
M  V30 9849 H 922.856 -1.28535 -0.715346 0
M  V30 9850 H 924.814 -1.7314 -3.79577 0
M  V30 9851 H 923.444 -0.807834 -3.12528 0
M  V30 9852 H 922.496 -3.06509 -2.25292 0
M  V30 9853 H 923.808 -3.88527 -3.12807 0
M  V30 9854 H 922.962 -2.96149 -5.2951 0
M  V30 9855 H 921.701 -2.03728 -4.4311 0
M  V30 9856 H 920.706 -4.17717 -3.57481 0
M  V30 9857 H 921.931 -5.11066 -4.472 0
M  V30 9858 H 919.877 -3.23643 -5.70606 0
M  V30 9859 H 919.794 -4.96757 -5.69884 0
M  V30 9860 H 921.062 -4.17322 -6.58379 0
M  V30 9861 N 925.291 0.760815 -1.38019 0
M  V30 9862 C 926.224 1.88212 -1.2904 0
M  V30 9863 C 927.202 1.61721 -0.168805 0
M  V30 9864 O 928.386 1.85318 -0.344893 0
M  V30 9865 C 925.513 3.23672 -0.997702 0
M  V30 9866 C 924.559 3.6906 -2.13769 0
M  V30 9867 S 925.392 3.81445 -3.75845 0
M  V30 9868 C 926.548 5.19736 -3.48748 0
M  V30 9869 H 926.781 1.95541 -2.23944 0
M  V30 9870 H 924.314 0.923051 -1.2377 0
M  V30 9871 H 926.272 4.01904 -0.835657 0
M  V30 9872 H 924.933 3.14031 -0.065967 0
M  V30 9873 H 924.126 4.67295 -1.88816 0
M  V30 9874 H 923.728 2.97961 -2.26043 0
M  V30 9875 H 926.02 6.05259 -3.04414 0
M  V30 9876 H 926.963 5.49706 -4.46351 0
M  V30 9877 H 927.371 4.88191 -2.83425 0
M  V30 9878 N 926.769 1.22769 0.988202 0
M  V30 9879 C 927.679 1.01844 2.11341 0
M  V30 9880 C 928.695 -0.0346937 1.73965 0
M  V30 9881 O 929.871 0.159061 2.00771 0
M  V30 9882 C 926.936 0.603837 3.41401 0
M  V30 9883 C 925.997 1.73113 3.92849 0
M  V30 9884 C 925.23 1.33621 5.16702 0
M  V30 9885 O 925.453 0.217041 5.69987 0
M  V30 9886 O 924.387 2.15444 5.62021 0
M  V30 9887 H 928.213 1.96127 2.31879 0
M  V30 9888 H 925.798 1.01405 1.09715 0
M  V30 9889 H 927.68 0.383196 4.19654 0
M  V30 9890 H 926.355 -0.310082 3.22211 0
M  V30 9891 H 925.262 2.00634 3.15748 0
M  V30 9892 H 926.595 2.62308 4.1648 0
M  V30 9893 N 928.247 -1.18576 1.03814 0
M  V30 9894 C 929.179 -2.21607 0.585055 0
M  V30 9895 C 930.192 -1.59125 -0.343963 0
M  V30 9896 O 931.381 -1.77959 -0.138882 0
M  V30 9897 C 928.481 -3.38495 -0.165602 0
M  V30 9898 C 927.654 -4.30557 0.770662 0
M  V30 9899 C 926.713 -5.26161 0.0637534 0
M  V30 9900 O 925.739 -5.64961 0.693359 0
M  V30 9901 N 926.941 -5.67882 -1.20377 0
M  V30 9902 H 929.706 -2.61104 1.47121 0
M  V30 9903 H 927.267 -1.33336 0.918316 0
M  V30 9904 H 929.259 -3.99474 -0.648292 0
M  V30 9905 H 927.829 -2.97711 -0.953268 0
M  V30 9906 H 927.049 -3.67221 1.43326 0
M  V30 9907 H 928.337 -4.88969 1.40667 0
M  V30 9908 H 927.735 -5.38409 -1.73586 0
M  V30 9909 H 926.292 -6.31069 -1.63079 0
M  V30 9910 N 929.725 -0.817259 -1.34754 0
M  V30 9911 C 931.002 -0.325468 -1.92873 0
M  V30 9912 C 931.382 1.18643 -1.74606 0
M  V30 9913 O 930.73 1.9909 -1.1214 0
M  V30 9914 C 930.94 -0.74858 -3.40877 0
M  V30 9915 C 932.288 -0.744165 -4.18028 0
M  V30 9916 O 933.312 -0.690799 -3.49437 0
M  V30 9917 O 932.171 -0.812207 -5.40431 0
M  V30 9918 H 929.265 -0.0876397 -0.822343 0
M  V30 9919 H 931.811 -0.901671 -1.43764 0
M  V30 9920 H 930.583 -1.79017 -3.47949 0
M  V30 9921 H 930.206 -0.147764 -3.97325 0
M  V30 9922 N 931.203 1.46865 -0.571711 0
M  V30 9923 C 932.153 2.27219 0.188503 0
M  V30 9924 C 933.137 1.35221 0.872019 0
M  V30 9925 O 934.329 1.59474 0.76793 0
M  V30 9926 C 931.458 3.21321 1.20862 0
M  V30 9927 C 930.544 4.20803 0.527783 0
M  V30 9928 N 930.935 5.04132 -0.410403 0
M  V30 9929 C 929.233 4.39128 0.779909 0
M  V30 9930 C 929.934 5.76071 -0.80728 0
M  V30 9931 N 928.91 5.43368 -0.158865 0
M  V30 9932 H 932.712 2.89034 -0.532611 0
M  V30 9933 H 930.226 1.57581 -0.392696 0
M  V30 9934 H 932.223 3.77586 1.76733 0
M  V30 9935 H 930.883 2.61065 1.93067 0
M  V30 9936 H 931.894 5.11911 -0.785351 0
M  V30 9937 H 928.571 3.90031 1.48937 0
M  V30 9938 H 929.961 6.53082 -1.57903 0
M  V30 9939 N 932.681 0.308908 1.54543 0
M  V30 9940 C 933.644 -0.550857 2.22482 0
M  V30 9941 C 934.644 -1.0551 1.21344 0
M  V30 9942 O 935.834 -0.949866 1.46025 0
M  V30 9943 C 932.966 -1.76354 2.9174 0
M  V30 9944 H 934.159 0.0428395 2.99869 0
M  V30 9945 H 931.712 0.059825 1.56185 0
M  V30 9946 H 932.447 -2.39686 2.18451 0
M  V30 9947 H 932.232 -1.40954 3.65889 0
M  V30 9948 H 933.722 -2.37417 3.43545 0
M  V30 9949 N 934.159 -1.57557 0.0367827 0
M  V30 9950 C 935.405 -1.92399 -0.641133 0
M  V30 9951 C 935.738 -0.914191 -1.71336 0
M  V30 9952 O 935.013 0.0619616 -1.94401 0
M  V30 9953 C 935.296 -3.37689 -1.25052 0
M  V30 9954 C 935.149 -4.4941 -0.187326 0
M  V30 9955 C 936.468 -3.8309 -2.16634 0
M  V30 9956 H 933.587 -0.699666 -0.231597 0
M  V30 9957 H 936.229 -1.89759 0.0956083 0
M  V30 9958 H 934.379 -3.40069 -1.87843 0
M  V30 9959 H 936.051 -4.59161 0.443736 0
M  V30 9960 H 934.294 -4.31065 0.486313 0
M  V30 9961 H 934.965 -5.48119 -0.653459 0
M  V30 9962 H 937.441 -3.82494 -1.63821 0
M  V30 9963 H 936.317 -4.85429 -2.56222 0
M  V30 9964 H 936.578 -3.19028 -3.06062 0
M  V30 9965 N 935.637 0.236453 -1.55816 0
M  V30 9966 C 937.053 0.585465 -1.48474 0
M  V30 9967 C 937.253 1.8785 -0.72902 0
M  V30 9968 O 936.309 2.51131 -0.262614 0
M  V30 9969 C 937.622 0.678506 -2.92945 0
M  V30 9970 C 939.17 0.770135 -3.03378 0
M  V30 9971 C 939.645 0.894649 -4.49177 0
M  V30 9972 N 941.136 0.959253 -4.53158 0
M  V30 9973 C 941.871 1.07505 -5.63232 0
M  V30 9974 N 941.367 1.15572 -6.83092 0
M  V30 9975 N 943.16 1.10902 -5.51051 0
M  V30 9976 H 935.311 -0.612241 -2.03385 0
M  V30 9977 H 937.574 -0.212796 -0.923808 0
M  V30 9978 H 937.28 -0.201757 -3.51121 0
M  V30 9979 H 937.154 1.54703 -3.44016 0
M  V30 9980 H 939.541 1.64085 -2.45276 0
M  V30 9981 H 939.622 -0.123753 -2.555 0
M  V30 9982 H 939.266 0.0284537 -5.07892 0
M  V30 9983 H 939.196 1.80373 -4.94745 0
M  V30 9984 H 941.687 0.907827 -3.66834 0
M  V30 9985 H 942 1.24343 -7.62731 0
M  V30 9986 H 940.345 1.12511 -6.85833 0
M  V30 9987 H 943.536 1.04255 -4.56343 0
M  V30 9988 H 943.709 1.19581 -6.36871 0
M  V30 9989 N 937.115 1.49373 0.502552 0
M  V30 9990 C 938.531 1.36101 0.833591 0
M  V30 9991 C 938.731 0.392911 1.97632 0
M  V30 9992 O 937.787 -0.175975 2.51886 0
M  V30 9993 C 939.1 2.76782 1.17526 0
M  V30 9994 C 940.648 2.85471 1.28356 0
M  V30 9995 C 941.123 4.26915 1.65853 0
M  V30 9996 N 942.614 4.29719 1.72905 0
M  V30 9997 C 943.349 5.36127 2.0336 0
M  V30 9998 N 942.845 6.52782 2.32049 0
M  V30 9999 N 944.638 5.23542 2.04598 0
M  V30 10000 H 936.789 2.10912 -0.251008 0
M  V30 10001 H 939.052 0.946696 -0.0497037 0
M  V30 10002 H 938.758 3.49314 0.408965 0
M  V30 10003 H 938.632 3.1205 2.11907 0
M  V30 10004 H 941.019 2.13177 2.04058 0
M  V30 10005 H 941.1 2.53787 0.320304 0
M  V30 10006 H 940.744 4.99735 0.907022 0
M  V30 10007 H 940.674 4.56063 2.63276 0
M  V30 10008 H 943.165 3.45586 1.529 0
M  V30 10009 H 943.478 7.29701 2.54471 0
M  V30 10010 H 941.823 6.56011 2.29509 0
M  V30 10011 H 945.014 4.31413 1.8166 0
M  V30 10012 H 945.187 6.06565 2.27998 0
M  V30 10013 N 938.594 -0.753485 1.38421 0
M  V30 10014 C 940.01 -1.05656 1.1962 0
M  V30 10015 C 940.21 -2.0145 0.0449443 0
M  V30 10016 O 939.266 -2.45039 -0.609253 0
M  V30 10017 C 940.579 -1.63655 2.52265 0
M  V30 10018 C 942.127 -1.75825 2.58949 0
M  V30 10019 C 942.602 -2.37236 3.91769 0
M  V30 10020 N 944.093 -2.44666 3.9331 0
M  V30 10021 C 944.828 -2.93077 4.92842 0
M  V30 10022 N 944.324 -3.41523 6.02772 0
M  V30 10023 N 946.117 -2.92118 4.80232 0
M  V30 10024 H 938.268 -0.117799 2.12073 0
M  V30 10025 H 940.531 -0.114889 0.941012 0
M  V30 10026 H 940.237 -1.00734 3.36965 0
M  V30 10027 H 940.111 -2.62715 2.70667 0
M  V30 10028 H 942.498 -2.37873 1.74644 0
M  V30 10029 H 942.579 -0.754693 2.44414 0
M  V30 10030 H 942.223 -1.75822 4.76497 0
M  V30 10031 H 942.153 -3.38233 4.03616 0
M  V30 10032 H 944.644 -2.10403 3.1391 0
M  V30 10033 H 944.957 -3.76919 6.74649 0
M  V30 10034 H 943.302 -3.3958 6.06391 0
M  V30 10035 H 946.493 -2.53582 3.93464 0
M  V30 10036 H 946.666 -3.29535 5.57952 0
M  V30 10037 N 940.072 -1.23292 -0.981677 0
M  V30 10038 C 940.982 -1.02964 -2.10798 0
M  V30 10039 C 941.998 0.0254674 -1.73981 0
M  V30 10040 O 943.174 -0.169706 -2.00684 0
M  V30 10041 C 940.239 -0.621934 -3.41076 0
M  V30 10042 C 939.3 -1.75194 -3.91926 0
M  V30 10043 C 938.533 -1.36359 -5.15986 0
M  V30 10044 O 938.756 -0.247265 -5.69864 0
M  V30 10045 O 937.69 -2.18421 -5.60871 0
M  V30 10046 H 941.516 -1.97354 -2.30836 0
M  V30 10047 H 939.101 -1.01986 -1.09175 0
M  V30 10048 H 940.983 -0.405446 -4.19445 0
M  V30 10049 H 939.658 0.29299 -3.22371 0
M  V30 10050 H 938.565 -2.02305 -3.1468 0
M  V30 10051 H 939.898 -2.64513 -4.15083 0
M  V30 10052 N 941.55 1.18024 -1.04442 0
M  V30 10053 C 942.46 2.25436 -0.649276 0
M  V30 10054 C 943.476 1.70915 0.326189 0
M  V30 10055 O 944.652 2.00592 0.180174 0
M  V30 10056 C 941.717 3.46693 -0.0222558 0
M  V30 10057 C 940.778 4.16332 -1.0472 0
M  V30 10058 C 940.011 5.31799 -0.450011 0
M  V30 10059 O 940.234 5.65544 0.742717 0
M  V30 10060 O 939.168 5.90209 -1.18056 0
M  V30 10061 H 942.994 2.61508 -1.54426 0
M  V30 10062 H 940.579 1.25178 -0.81552 0
M  V30 10063 H 942.461 4.20132 0.326597 0
M  V30 10064 H 941.136 3.12436 0.84649 0
M  V30 10065 H 940.043 3.44944 -1.44792 0
M  V30 10066 H 941.376 4.54598 -1.88684 0
M  V30 10067 N 943.028 0.824394 1.34319 0
M  V30 10068 C 943.991 0.252696 2.27803 0
M  V30 10069 C 944.991 -0.570254 1.50349 0
M  V30 10070 O 946.181 -0.386145 1.69866 0
M  V30 10071 C 943.313 -0.645575 3.34731 0
M  V30 10072 H 944.506 1.07742 2.79878 0
M  V30 10073 H 942.059 0.596367 1.44475 0
M  V30 10074 H 942.794 -1.4933 2.87873 0
M  V30 10075 H 942.579 -0.0569478 3.92059 0
M  V30 10076 H 944.069 -1.03933 4.0446 0
M  V30 10077 N 944.506 -1.46559 0.579492 0
M  V30 10078 C 945.922 -1.57771 0.240921 0
M  V30 10079 C 946.122 -1.57505 -1.25676 0
M  V30 10080 O 945.178 -1.4903 -2.03829 0
M  V30 10081 C 946.491 -2.87311 0.887285 0
M  V30 10082 C 948.039 -3.00937 0.860576 0
M  V30 10083 C 948.514 -4.33208 1.48642 0
M  V30 10084 N 950.005 -4.39899 1.45062 0
M  V30 10085 C 950.74 -5.40856 1.90428 0
M  V30 10086 N 950.236 -6.48503 2.43752 0
M  V30 10087 N 952.029 -5.32037 1.81364 0
M  V30 10088 H 944.18 -1.44976 1.55228 0
M  V30 10089 H 946.443 -0.691354 0.648639 0
M  V30 10090 H 946.149 -2.93307 1.94071 0
M  V30 10091 H 946.023 -3.75141 0.393577 0
M  V30 10092 H 948.41 -2.94524 -0.184223 0
M  V30 10093 H 948.491 -2.14591 1.39227 0
M  V30 10094 H 948.135 -4.40378 2.5304 0
M  V30 10095 H 948.065 -5.18323 0.92998 0
M  V30 10096 H 950.556 -3.62706 1.0608 0
M  V30 10097 H 950.869 -7.21744 2.76234 0
M  V30 10098 H 949.214 -6.49332 2.47776 0
M  V30 10099 H 952.405 -4.46841 1.39465 0
M  V30 10100 H 952.578 -6.10573 2.17035 0
M  V30 10101 N 945.984 -0.3171 -1.54377 0
M  V30 10102 C 947.4 0.035766 -1.5956 0
M  V30 10103 C 947.6 1.51038 -1.33378 0
M  V30 10104 O 946.656 2.26546 -1.11505 0
M  V30 10105 C 947.969 -0.376652 -2.98332 0
M  V30 10106 C 949.517 -0.326765 -3.1129 0
M  V30 10107 C 949.992 -0.714247 -4.52396 0
M  V30 10108 N 951.483 -0.667402 -4.58367 0
M  V30 10109 C 952.218 -0.939494 -5.65651 0
M  V30 10110 N 951.714 -1.27839 -6.80903 0
M  V30 10111 N 953.507 -0.865484 -5.55397 0
M  V30 10112 H 945.658 -1.27794 -1.69654 0
M  V30 10113 H 947.921 -0.5192 -0.79318 0
M  V30 10114 H 947.627 -1.40381 -3.22469 0
M  V30 10115 H 947.501 0.261611 -3.76292 0
M  V30 10116 H 949.888 0.69117 -2.86892 0
M  V30 10117 H 949.969 -0.999873 -2.35449 0
M  V30 10118 H 949.613 -1.73007 -4.77526 0
M  V30 10119 H 949.543 -0.0188962 -5.26597 0
M  V30 10120 H 952.034 -0.417062 -3.75592 0
M  V30 10121 H 952.347 -1.47155 -7.5866 0
M  V30 10122 H 950.692 -1.31658 -6.82416 0
M  V30 10123 H 953.883 -0.600265 -4.64235 0
M  V30 10124 H 954.056 -1.0809 -6.38921 0
M  V30 10125 N 947.462 1.57535 -0.0451378 0
M  V30 10126 C 948.711 1.91628 0.629415 0
M  V30 10127 C 949.024 0.924754 1.72359 0
M  V30 10128 O 950.23 1.15751 2.45589 0
M  V30 10129 C 948.686 3.40322 1.17084 0
M  V30 10130 C 948.294 4.47867 0.109101 0
M  V30 10131 C 950.038 3.83458 1.82099 0
M  V30 10132 C 947.945 5.87671 0.663072 0
M  V30 10133 H 946.875 0.715163 0.238868 0
M  V30 10134 H 949.526 1.83151 -0.113046 0
M  V30 10135 H 947.908 3.43783 1.96543 0
M  V30 10136 H 949.082 4.55988 -0.664201 0
M  V30 10137 H 947.397 4.14034 -0.443227 0
M  V30 10138 H 949.994 4.85273 2.2453 0
M  V30 10139 H 950.337 3.19379 2.67026 0
M  V30 10140 H 950.87 3.82488 1.09305 0
M  V30 10141 H 947.609 6.55332 -0.148423 0
M  V30 10142 H 947.129 5.83124 1.4045 0
M  V30 10143 H 948.808 6.36737 1.14785 0
M  V30 10144 N 948.94 -0.228186 1.55939 0
M  V30 10145 C 950.356 -0.577583 1.48782 0
M  V30 10146 C 950.556 -1.87461 0.738972 0
M  V30 10147 O 949.612 -2.50988 0.275929 0
M  V30 10148 C 950.925 -0.662961 2.93301 0
M  V30 10149 C 952.473 -0.754035 3.03782 0
M  V30 10150 C 952.948 -0.870815 4.49645 0
M  V30 10151 N 954.439 -0.935208 4.53661 0
M  V30 10152 C 955.174 -1.04516 5.63794 0
M  V30 10153 N 954.67 -1.11948 6.83696 0
M  V30 10154 N 956.463 -1.07978 5.51631 0
M  V30 10155 H 948.614 0.623018 2.03057 0
M  V30 10156 H 950.877 0.217692 0.922667 0
M  V30 10157 H 950.583 0.220375 3.51009 0
M  V30 10158 H 950.457 -1.52876 3.44831 0
M  V30 10159 H 952.844 -1.62782 2.46143 0
M  V30 10160 H 952.925 0.137301 2.55431 0
M  V30 10161 H 952.569 -0.0015186 5.079 0
M  V30 10162 H 952.499 -1.77747 4.95695 0
M  V30 10163 H 954.99 -0.88836 3.6731 0
M  V30 10164 H 955.303 -1.20297 7.6338 0
M  V30 10165 H 953.648 -1.08873 6.8642 0
M  V30 10166 H 956.839 -1.01833 4.56889 0
M  V30 10167 H 957.012 -1.16202 6.37496 0
M  V30 10168 N 950.418 -1.49637 -0.494624 0
M  V30 10169 C 951.348 -1.69692 -1.60396 0
M  V30 10170 C 952.329 -0.545648 -1.61111 0
M  V30 10171 O 953.514 -0.782202 -1.77751 0
M  V30 10172 C 950.644 -1.76934 -2.9885 0
M  V30 10173 C 949.598 -2.91915 -3.13001 0
M  V30 10174 C 948.924 -2.84276 -4.5287 0
M  V30 10175 C 950.224 -4.32764 -2.92426 0
M  V30 10176 H 951.918 -2.6257 -1.43866 0
M  V30 10177 H 949.464 -1.26355 -0.690679 0
M  V30 10178 H 951.417 -1.8955 -3.76362 0
M  V30 10179 H 950.141 -0.806609 -3.16483 0
M  V30 10180 H 948.8 -2.78911 -2.37916 0
M  V30 10181 H 948.448 -1.85897 -4.67388 0
M  V30 10182 H 948.148 -3.61452 -4.63278 0
M  V30 10183 H 949.672 -2.98909 -5.32434 0
M  V30 10184 H 951.086 -4.46415 -3.59703 0
M  V30 10185 H 949.483 -5.1121 -3.143 0
M  V30 10186 H 950.553 -4.46765 -1.88491 0
M  V30 10187 N 951.896 0.746133 -1.38819 0
M  V30 10188 C 952.806 1.89063 -1.38897 0
M  V30 10189 C 953.822 1.71648 -0.28513 0
M  V30 10190 O 954.998 1.94443 -0.524783 0
M  V30 10191 C 952.063 3.24523 -1.22007 0
M  V30 10192 C 951.124 3.54411 -2.42263 0
M  V30 10193 C 950.357 4.83408 -2.26169 0
M  V30 10194 O 950.58 5.56325 -1.25931 0
M  V30 10195 O 949.514 5.12943 -3.14918 0
M  V30 10196 H 953.34 1.91951 -2.35347 0
M  V30 10197 H 950.925 0.892433 -1.19816 0
M  V30 10198 H 952.807 4.05496 -1.14677 0
M  V30 10199 H 951.482 3.2243 -0.286455 0
M  V30 10200 H 950.389 2.73569 -2.55168 0
M  V30 10201 H 951.722 3.61273 -3.3428 0
M  V30 10202 N 953.375 1.23811 0.975125 0
M  V30 10203 C 954.307 0.981779 2.07108 0
M  V30 10204 C 955.32 -0.0461211 1.62735 0
M  V30 10205 O 956.509 0.190039 1.77486 0
M  V30 10206 C 953.609 0.458364 3.35786 0
M  V30 10207 C 952.782 1.54767 4.09104 0
M  V30 10208 C 951.841 1.0282 5.16057 0
M  V30 10209 O 950.867 1.71831 5.42644 0
M  V30 10210 N 952.069 -0.141243 5.80328 0
M  V30 10211 H 954.834 1.92537 2.29673 0
M  V30 10212 H 952.395 1.1474 1.14221 0
M  V30 10213 H 954.387 0.0957686 4.04587 0
M  V30 10214 H 952.957 -0.390768 3.10148 0
M  V30 10215 H 952.177 2.08279 3.34684 0
M  V30 10216 H 953.465 2.28006 4.54853 0
M  V30 10217 H 952.863 -0.718382 5.6112 0
M  V30 10218 H 951.42 -0.445052 6.50279 0
M  V30 10219 N 954.853 -1.17469 1.05066 0
M  V30 10220 C 956.13 -1.83625 0.673872 0
M  V30 10221 C 956.51 -1.93412 -0.845871 0
M  V30 10222 O 955.858 -1.4677 -1.75131 0
M  V30 10223 C 956.068 -3.21352 1.36139 0
M  V30 10224 C 957.416 -3.97274 1.49863 0
M  V30 10225 O 958.44 -3.30827 1.3203 0
M  V30 10226 O 957.299 -5.16349 1.79013 0
M  V30 10227 H 954.393 -0.792297 0.237055 0
M  V30 10228 H 956.939 -1.24776 1.15017 0
M  V30 10229 H 955.711 -3.0919 2.39827 0
M  V30 10230 H 955.334 -3.87867 0.874364 0
M  V30 10231 N 956.331 -0.831506 -1.3388 0
M  V30 10232 C 957.747 -0.518349 -1.50948 0
M  V30 10233 C 957.947 0.955807 -1.77388 0
M  V30 10234 O 957.003 1.73993 -1.82983 0
M  V30 10235 C 958.316 -1.38531 -2.66889 0
M  V30 10236 C 959.864 -1.38332 -2.80772 0
M  V30 10237 C 960.339 -2.23497 -3.99766 0
M  V30 10238 N 961.83 -2.21167 -4.06988 0
M  V30 10239 C 962.565 -2.83805 -4.98239 0
M  V30 10240 N 962.061 -3.55468 -5.94655 0
M  V30 10241 N 963.854 -2.73314 -4.91178 0
M  V30 10242 H 956.005 -1.78588 -1.14978 0
M  V30 10243 H 958.268 -0.761508 -0.564633 0
M  V30 10244 H 957.974 -2.43255 -2.54007 0
M  V30 10245 H 957.848 -1.05611 -3.62114 0
M  V30 10246 H 960.235 -0.343832 -2.9309 0
M  V30 10247 H 960.316 -1.75256 -1.86331 0
M  V30 10248 H 959.96 -3.27501 -3.88208 0
M  V30 10249 H 959.89 -1.83919 -4.93438 0
M  V30 10250 H 962.381 -1.69046 -3.37982 0
M  V30 10251 H 962.694 -4.00487 -6.60931 0
M  V30 10252 H 961.039 -3.59575 -5.94753 0
M  V30 10253 H 964.23 -2.16897 -4.14817 0
M  V30 10254 H 964.403 -3.22416 -5.62096 0
M  V30 10255 N 957.809 1.4625 -0.587256 0
M  V30 10256 C 959.086 1.95599 -0.00750181 0
M  V30 10257 C 959.466 1.52989 1.45457 0
M  V30 10258 O 958.814 0.782731 2.14676 0
M  V30 10259 C 959.024 3.48513 -0.184309 0
M  V30 10260 C 960.372 4.24565 -0.0544972 0
M  V30 10261 O 961.396 3.5602 -0.113378 0
M  V30 10262 O 960.255 5.46445 0.0774075 0
M  V30 10263 H 957.349 0.825649 0.0472495 0
M  V30 10264 H 959.895 1.56512 -0.655893 0
M  V30 10265 H 958.667 3.72428 -1.20053 0
M  V30 10266 H 958.29 3.9444 0.500301 0
M  V30 10267 N 959.287 0.325282 1.54207 0
M  V30 10268 C 960.517 -0.278285 2.04717 0
M  V30 10269 C 960.925 -1.46198 1.20095 0
M  V30 10270 O 960.268 -1.82319 0.224813 0
M  V30 10271 C 960.33 -0.774387 3.51061 0
M  V30 10272 C 959.994 0.287225 4.56096 0
M  V30 10273 C 960.991 1.12388 5.07607 0
M  V30 10274 C 958.676 0.435908 5.00405 0
M  V30 10275 C 960.67 2.09492 6.0199 0
M  V30 10276 C 958.357 1.41037 5.94602 0
M  V30 10277 C 959.355 2.23834 6.45281 0
M  V30 10278 O 959.043 3.19625 7.37628 0
M  V30 10279 H 958.775 -0.0608309 0.673257 0
M  V30 10280 H 961.329 0.470049 1.99949 0
M  V30 10281 H 959.559 -1.57366 3.53232 0
M  V30 10282 H 961.248 -1.29649 3.84637 0
M  V30 10283 H 962.014 1.02 4.74153 0
M  V30 10284 H 957.893 -0.198668 4.60572 0
M  V30 10285 H 961.437 2.74157 6.4147 0
M  V30 10286 H 957.334 1.51487 6.27473 0
M  V30 10287 H 958.102 3.14884 7.55507 0
M  V30 10288 N 960.765 -1.57509 0.0534917 0
M  V30 10289 C 961.993 -1.97098 -0.629298 0
M  V30 10290 C 962.408 -0.931128 -1.64242 0
M  V30 10291 O 961.765 0.0843866 -1.82305 0
M  V30 10292 C 961.816 -3.36767 -1.31415 0
M  V30 10293 O 961.537 -4.36766 -0.341599 0
M  V30 10294 C 963.038 -3.91127 -2.08649 0
M  V30 10295 H 960.258 -0.648611 -0.171886 0
M  V30 10296 H 962.802 -2.04145 0.120479 0
M  V30 10297 H 960.957 -3.30863 -2.01515 0
M  V30 10298 H 961.371 -5.1788 -0.830715 0
M  V30 10299 H 962.845 -4.91129 -2.51985 0
M  V30 10300 H 963.322 -3.26679 -2.9356 0
M  V30 10301 H 963.928 -4.00376 -1.43456 0
M  V30 10302 N 962.243 0.219913 -1.56058 0
M  V30 10303 C 963.659 0.569685 -1.49086 0
M  V30 10304 C 963.859 1.87066 -0.748903 0
M  V30 10305 O 962.915 2.50838 -0.289235 0
M  V30 10306 C 964.228 0.647397 -2.93648 0
M  V30 10307 C 965.776 0.737914 -3.04177 0
M  V30 10308 C 966.251 0.846957 -4.50101 0
M  V30 10309 N 967.742 0.911136 -4.5415 0
M  V30 10310 C 968.477 1.01525 -5.64341 0
M  V30 10311 N 967.973 1.0832 -6.8428 0
M  V30 10312 N 969.766 1.05051 -5.52196 0
M  V30 10313 H 961.917 -0.633778 -2.02724 0
M  V30 10314 H 964.18 -0.222583 -0.921499 0
M  V30 10315 H 963.886 -0.238987 -3.50887 0
M  V30 10316 H 963.76 1.51046 -3.45637 0
M  V30 10317 H 966.147 1.61474 -2.47002 0
M  V30 10318 H 966.228 -0.150845 -2.55355 0
M  V30 10319 H 965.872 -0.0254166 -5.07894 0
M  V30 10320 H 965.802 1.75116 -4.96631 0
M  V30 10321 H 968.293 0.868869 -3.67776 0
M  V30 10322 H 968.606 1.16247 -7.64007 0
M  V30 10323 H 966.951 1.05231 -6.86987 0
M  V30 10324 H 970.142 0.994086 -4.57423 0
M  V30 10325 H 970.315 1.12819 -6.38103 0
M  V30 10326 N 963.721 1.49897 0.486681 0
M  V30 10327 C 964.968 1.60105 1.23986 0
M  V30 10328 C 965.296 0.294228 1.92262 0
M  V30 10329 O 964.551 -0.718876 1.82018 0
M  V30 10330 C 964.85 2.71982 2.31863 0
M  V30 10331 C 964.516 4.13 1.80948 0
M  V30 10332 C 963.178 4.51373 1.66782 0
M  V30 10333 C 965.53 5.01198 1.43004 0
M  V30 10334 C 962.858 5.75701 1.13072 0
M  V30 10335 C 965.21 6.26058 0.90742 0
M  V30 10336 C 963.874 6.63247 0.752269 0
M  V30 10337 H 963.144 0.585866 0.453698 0
M  V30 10338 H 965.791 1.83778 0.538305 0
M  V30 10339 H 964.096 2.42336 3.07865 0
M  V30 10340 H 965.793 2.77087 2.89869 0
M  V30 10341 H 962.383 3.82718 1.92937 0
M  V30 10342 H 966.567 4.72196 1.52789 0
M  V30 10343 H 961.823 6.03202 0.997842 0
M  V30 10344 H 965.997 6.9377 0.604684 0
M  V30 10345 H 963.624 7.59466 0.33392 0
M  V30 10346 N 965.199 -0.738761 1.39212 0
M  V30 10347 C 966.131 -1.86286 1.3353 0
M  V30 10348 C 967.144 -1.6095 0.244755 0
M  V30 10349 O 968.333 -1.71254 0.50343 0
M  V30 10350 C 965.433 -3.22234 1.04969 0
M  V30 10351 C 964.606 -3.74956 2.25226 0
M  V30 10352 C 963.665 -4.89457 1.9318 0
M  V30 10353 O 962.691 -5.03314 2.65826 0
M  V30 10354 N 963.893 -5.73548 0.895679 0
M  V30 10355 H 966.658 -1.91666 2.304 0
M  V30 10356 H 964.219 -0.919338 1.33266 0
M  V30 10357 H 966.211 -3.96397 0.815566 0
M  V30 10358 H 964.781 -3.12146 0.168451 0
M  V30 10359 H 964.001 -2.92188 2.64612 0
M  V30 10360 H 965.289 -4.06914 3.05448 0
M  V30 10361 H 964.687 -5.64938 0.293541 0
M  V30 10362 H 963.244 -6.47795 0.721451 0
M  V30 10363 N 966.677 -1.24326 -0.968545 0
M  V30 10364 C 967.587 -1.05194 -2.09694 0
M  V30 10365 C 968.603 0.00701291 -1.73999 0
M  V30 10366 O 969.779 -0.190981 -2.00492 0
M  V30 10367 C 966.844 -0.658075 -3.40397 0
M  V30 10368 C 965.905 -1.79341 -3.90045 0
M  V30 10369 C 965.138 -1.41824 -5.14511 0
M  V30 10370 O 965.361 -0.307693 -5.69569 0
M  V30 10371 O 964.295 -2.24358 -5.58522 0
M  V30 10372 H 968.121 -1.99791 -2.2873 0
M  V30 10373 H 965.706 -1.03138 -1.08088 0
M  V30 10374 H 967.588 -0.449911 -4.18991 0
M  V30 10375 H 966.263 0.258782 -3.22664 0
M  V30 10376 H 965.17 -2.05632 -3.12516 0
M  V30 10377 H 966.503 -2.68901 -4.12254 0
M  V30 10378 N 968.156 1.1691 -1.05688 0
M  V30 10379 C 969.088 2.20648 -0.620237 0
M  V30 10380 C 970.101 1.59652 0.318604 0
M  V30 10381 O 971.29 1.78157 0.110553 0
M  V30 10382 C 968.39 3.38716 0.111729 0
M  V30 10383 C 967.563 4.29277 -0.839062 0
M  V30 10384 C 966.622 5.25993 -0.147453 0
M  V30 10385 O 965.648 5.63787 -0.783151 0
M  V30 10386 N 966.85 5.69725 1.11327 0
M  V30 10387 H 969.615 2.58731 -1.51256 0
M  V30 10388 H 967.176 1.31858 -0.939412 0
M  V30 10389 H 969.168 4.00455 0.584657 0
M  V30 10390 H 967.738 2.99189 0.905784 0
M  V30 10391 H 966.958 3.64894 -1.4915 0
M  V30 10392 H 968.246 4.86669 -1.48428 0
M  V30 10393 H 967.644 5.41103 1.64999 0
M  V30 10394 H 966.201 6.33584 1.53018 0
M  V30 10395 N 969.634 0.838594 1.33437 0
M  V30 10396 C 970.564 0.286672 2.31734 0
M  V30 10397 C 971.545 -0.605451 1.5896 0
M  V30 10398 O 972.73 -0.529059 1.86854 0
M  V30 10399 C 969.86 -0.539311 3.43087 0
M  V30 10400 C 968.814 0.256997 4.27228 0
M  V30 10401 C 968.14 -0.692718 5.30194 0
M  V30 10402 C 969.44 1.47391 5.01072 0
M  V30 10403 H 971.134 1.10798 2.78144 0
M  V30 10404 H 968.68 0.534235 1.33723 0
M  V30 10405 H 970.633 -0.935724 4.1088 0
M  V30 10406 H 969.357 -1.39383 2.95364 0
M  V30 10407 H 968.016 0.634967 3.61059 0
M  V30 10408 H 967.664 -1.54363 4.78729 0
M  V30 10409 H 967.364 -0.164023 5.87371 0
M  V30 10410 H 968.888 -1.08665 6.00853 0
M  V30 10411 H 970.302 1.15067 5.61634 0
M  V30 10412 H 968.699 1.93937 5.67898 0
M  V30 10413 H 969.769 2.24382 4.29861 0
M  V30 10414 N 971.112 -1.45937 0.595003 0
M  V30 10415 C 972.059 -2.30427 -0.131165 0
M  V30 10416 C 973.029 -1.41355 -0.872232 0
M  V30 10417 O 974.214 -1.70296 -0.860467 0
M  V30 10418 C 971.354 -3.26045 -1.13087 0
M  V30 10419 C 970.467 -4.30218 -0.391982 0
M  V30 10420 C 969.602 -5.12953 -1.3803 0
M  V30 10421 C 968.641 -6.08865 -0.628505 0
M  V30 10422 N 967.778 -6.84425 -1.56548 0
M  V30 10423 H 972.618 -2.91992 0.595359 0
M  V30 10424 H 970.155 -1.43895 0.305405 0
M  V30 10425 H 972.113 -3.79937 -1.72348 0
M  V30 10426 H 970.743 -2.66261 -1.82496 0
M  V30 10427 H 969.795 -3.79086 0.315895 0
M  V30 10428 H 971.107 -4.98418 0.195173 0
M  V30 10429 H 970.261 -5.71184 -2.04534 0
M  V30 10430 H 969 -4.44743 -2.00138 0
M  V30 10431 H 968.005 -5.49777 0.0502431 0
M  V30 10432 H 969.23 -6.79099 -0.012641 0
M  V30 10433 H 967.176 -6.18913 -2.17444 0
M  V30 10434 H 967.093 -7.48931 -1.03145 0
M  V30 10435 H 968.361 -7.47204 -2.22049 0
M  V30 10436 N 972.59 -0.333456 -1.54032 0
M  V30 10437 C 973.52 0.52051 -2.27625 0
M  V30 10438 C 974.501 1.1111 -1.28797 0
M  V30 10439 O 975.686 1.13438 -1.57625 0
M  V30 10440 C 972.816 1.67663 -3.04149 0
M  V30 10441 C 971.77 1.21487 -4.10396 0
M  V30 10442 C 971.096 2.45872 -4.74817 0
M  V30 10443 C 972.396 0.322603 -5.21303 0
M  V30 10444 H 974.09 -0.0933823 -2.99254 0
M  V30 10445 H 971.636 -0.0463526 -1.43925 0
M  V30 10446 H 973.589 2.28041 -3.54366 0
M  V30 10447 H 972.313 2.31727 -2.30153 0
M  V30 10448 H 970.972 0.633966 -3.61077 0
M  V30 10449 H 970.62 3.0832 -3.97426 0
M  V30 10450 H 970.32 2.15662 -5.46593 0
M  V30 10451 H 971.844 3.06994 -5.27814 0
M  V30 10452 H 973.258 0.832942 -5.67217 0
M  V30 10453 H 971.655 0.112843 -5.99994 0
M  V30 10454 H 972.725 -0.643954 -4.80605 0
M  V30 10455 N 974.068 1.57479 -0.061844 0
M  V30 10456 C 975.001 2.07734 0.94455 0
M  V30 10457 C 975.979 0.980207 1.29733 0
M  V30 10458 O 977.163 1.2529 1.40836 0
M  V30 10459 C 974.29 2.52673 2.25553 0
M  V30 10460 C 973.336 3.73725 2.05503 0
M  V30 10461 S 974.169 5.18886 1.32354 0
M  V30 10462 C 975.325 5.67148 2.64753 0
M  V30 10463 H 975.558 2.92772 0.516888 0
M  V30 10464 H 973.091 1.53663 0.150684 0
M  V30 10465 H 975.049 2.79226 3.00904 0
M  V30 10466 H 973.71 1.67921 2.65445 0
M  V30 10467 H 972.903 4.03125 3.025 0
M  V30 10468 H 972.505 3.47494 1.3829 0
M  V30 10469 H 974.797 5.73385 3.60882 0
M  V30 10470 H 975.74 6.66196 2.39976 0
M  V30 10471 H 976.148 4.94921 2.71502 0
M  V30 10472 N 975.546 -0.211634 1.56173 0
M  V30 10473 C 976.493 -1.26231 1.93221 0
M  V30 10474 C 977.463 -1.46076 0.790641 0
M  V30 10475 O 978.648 -1.59482 1.04739 0
M  V30 10476 C 975.788 -2.60559 2.26281 0
M  V30 10477 C 974.901 -2.48431 3.5342 0
M  V30 10478 C 974.036 -3.7535 3.7588 0
M  V30 10479 C 973.075 -3.57985 4.96501 0
M  V30 10480 N 972.212 -4.76877 5.15299 0
M  V30 10481 H 977.052 -0.939367 2.82807 0
M  V30 10482 H 974.589 -0.452511 1.39967 0
M  V30 10483 H 976.547 -3.38796 2.43461 0
M  V30 10484 H 975.177 -2.9093 1.39855 0
M  V30 10485 H 974.229 -1.61577 3.44379 0
M  V30 10486 H 975.541 -2.31526 4.41811 0
M  V30 10487 H 974.695 -4.62029 3.9321 0
M  V30 10488 H 973.434 -3.95191 2.85788 0
M  V30 10489 H 972.439 -2.69691 4.79111 0
M  V30 10490 H 973.664 -3.39605 5.88086 0
M  V30 10491 H 971.61 -4.97013 4.28152 0
M  V30 10492 H 971.527 -4.62735 5.9784 0
M  V30 10493 H 972.795 -5.64954 5.37073 0
M  V30 10494 N 977.024 -1.50153 -0.478725 0
M  V30 10495 C 977.971 -1.68458 -1.57767 0
M  V30 10496 C 978.941 -0.5259 -1.57555 0
M  V30 10497 O 980.126 -0.755574 -1.75202 0
M  V30 10498 C 977.266 -1.77772 -2.95789 0
M  V30 10499 C 976.379 -3.05092 -3.05848 0
M  V30 10500 C 975.514 -3.05247 -4.34739 0
M  V30 10501 C 974.553 -4.27053 -4.38512 0
M  V30 10502 N 973.69 -4.24991 -5.58862 0
M  V30 10503 H 978.53 -2.62282 -1.41464 0
M  V30 10504 H 976.067 -1.30023 -0.687921 0
M  V30 10505 H 978.025 -1.81152 -3.75819 0
M  V30 10506 H 976.655 -0.873944 -3.10744 0
M  V30 10507 H 975.707 -3.11219 -2.1874 0
M  V30 10508 H 977.019 -3.95075 -3.04495 0
M  V30 10509 H 976.173 -3.07314 -5.23109 0
M  V30 10510 H 974.912 -2.13081 -4.38689 0
M  V30 10511 H 973.917 -4.25206 -3.4854 0
M  V30 10512 H 975.142 -5.20437 -4.36259 0
M  V30 10513 H 973.088 -3.35674 -5.63612 0
M  V30 10514 H 973.005 -5.08734 -5.59219 0
M  V30 10515 H 974.273 -4.31193 -6.49379 0
M  V30 10516 N 978.502 0.731368 -1.39602 0
M  V30 10517 C 979.412 1.87579 -1.40894 0
M  V30 10518 C 980.428 1.71336 -0.303319 0
M  V30 10519 O 981.604 1.93875 -0.545377 0
M  V30 10520 C 978.669 3.23211 -1.25442 0
M  V30 10521 C 977.73 3.51822 -2.46008 0
M  V30 10522 C 976.963 4.80982 -2.31284 0
M  V30 10523 O 977.186 5.54958 -1.31824 0
M  V30 10524 O 976.12 5.09574 -3.20341 0
M  V30 10525 H 979.946 1.89444 -2.3737 0
M  V30 10526 H 977.531 0.879675 -1.20756 0
M  V30 10527 H 979.413 4.04257 -1.18972 0
M  V30 10528 H 978.088 3.22108 -0.320637 0
M  V30 10529 H 976.995 2.70847 -2.58055 0
M  V30 10530 H 978.328 3.57707 -3.38093 0
M  V30 10531 N 979.98 1.24838 0.961938 0
M  V30 10532 C 981.226 1.09313 1.70817 0
M  V30 10533 C 981.559 -0.366244 1.90715 0
M  V30 10534 O 980.834 -1.27036 1.47282 0
M  V30 10535 C 981.117 1.83988 3.09549 0
M  V30 10536 C 980.97 3.3771 2.97106 0
M  V30 10537 C 982.289 1.61718 4.09311 0
M  V30 10538 H 979.408 0.398498 0.619974 0
M  V30 10539 H 982.05 1.53579 1.11864 0
M  V30 10540 H 980.2 1.46363 3.59875 0
M  V30 10541 H 981.872 3.84967 2.54161 0
M  V30 10542 H 980.115 3.65795 2.33187 0
M  V30 10543 H 980.786 3.85166 3.95412 0
M  V30 10544 H 983.262 1.94458 3.67866 0
M  V30 10545 H 982.138 2.16415 5.04436 0
M  V30 10546 H 982.399 0.55677 4.3858 0
M  V30 10547 N 981.458 -1.16348 1.06306 0
M  V30 10548 C 982.405 -2.20741 0.673962 0
M  V30 10549 C 983.375 -1.628 -0.329454 0
M  V30 10550 O 984.56 -1.89547 -0.218313 0
M  V30 10551 C 981.7 -3.45036 0.0667008 0
M  V30 10552 C 980.813 -4.17221 1.12031 0
M  V30 10553 C 979.948 -5.29034 0.479176 0
M  V30 10554 C 978.987 -5.93021 1.51631 0
M  V30 10555 N 978.124 -6.96327 0.898528 0
M  V30 10556 H 982.964 -2.53376 1.56859 0
M  V30 10557 H 980.501 -1.24449 0.784276 0
M  V30 10558 H 982.459 -4.16099 -0.302916 0
M  V30 10559 H 981.089 -3.1295 -0.791333 0
M  V30 10560 H 980.141 -3.4476 1.60763 0
M  V30 10561 H 981.453 -4.60902 1.90712 0
M  V30 10562 H 980.607 -6.06674 0.0565993 0
M  V30 10563 H 979.346 -4.86517 -0.33951 0
M  V30 10564 H 978.351 -5.14104 1.94878 0
M  V30 10565 H 979.576 -6.37618 2.3371 0
M  V30 10566 H 977.522 -6.55923 0.100555 0
M  V30 10567 H 977.439 -7.38379 1.62272 0
M  V30 10568 H 978.707 -7.77888 0.5011 0
M  V30 10569 N 982.937 -0.845659 -1.3299 0
M  V30 10570 C 983.885 -0.272412 -2.30999 0
M  V30 10571 C 984.879 0.599311 -1.58444 0
M  V30 10572 O 986.085 0.488117 -1.73255 0
M  V30 10573 H 982.46 -0.0693751 -0.748793 0
M  V30 10574 H 984.431 -1.11343 -2.76849 0
M  V30 10575 C 983.18 0.532019 -3.43606 0
M  V30 10576 H 982.503 -0.129455 -3.9959 0
M  V30 10577 H 983.943 0.898853 -4.14363 0
M  V30 10578 C 982.402 1.71364 -2.90062 0
M  V30 10579 O 982.932 2.81252 -2.8681 0
M  V30 10580 N 981.138 1.53775 -2.4658 0
M  V30 10581 H 980.685 0.643836 -2.49424 0
M  V30 10582 H 980.643 2.32982 -2.11108 0
M  V30 10583 N 984.415 1.45619 -0.602734 0
M  V30 10584 C 985.325 2.34288 0.120902 0
M  V30 10585 C 986.341 1.50952 0.865414 0
M  V30 10586 O 987.517 1.83768 0.824094 0
M  V30 10587 C 984.582 3.28489 1.10888 0
M  V30 10588 C 983.643 4.2773 0.366853 0
M  V30 10589 C 982.876 5.17429 1.30776 0
M  V30 10590 O 983.099 5.10459 2.54535 0
M  V30 10591 O 982.033 5.96459 0.807464 0
M  V30 10592 H 985.859 2.97559 -0.60765 0
M  V30 10593 H 983.444 1.44922 -0.363019 0
M  V30 10594 H 985.326 3.86549 1.67803 0
M  V30 10595 H 984.001 2.67789 1.81854 0
M  V30 10596 H 982.908 3.73299 -0.244643 0
M  V30 10597 H 984.241 4.91271 -0.302226 0
M  V30 10598 N 985.893 0.34162 1.53853 0
M  V30 10599 C 987.139 -0.255862 2.01179 0
M  V30 10600 C 987.472 -1.50356 1.22909 0
M  V30 10601 O 986.747 -1.91913 0.316198 0
M  V30 10602 C 987.03 -0.571934 3.55529 0
M  V30 10603 C 986.883 0.687727 4.44511 0
M  V30 10604 C 988.202 -1.38233 4.17827 0
M  V30 10605 H 985.321 -0.091521 0.731295 0
M  V30 10606 H 987.963 0.461775 1.84303 0
M  V30 10607 H 986.113 -1.18331 3.70041 0
M  V30 10608 H 987.785 1.32572 4.4184 0
M  V30 10609 H 986.028 1.313 4.13452 0
M  V30 10610 H 986.699 0.421858 5.50386 0
M  V30 10611 H 989.175 -0.865374 4.07002 0
M  V30 10612 H 988.051 -1.57223 5.25901 0
M  V30 10613 H 988.312 -2.38386 3.72323 0
M  V30 10614 N 987.371 -1.57444 0.0701946 0
M  V30 10615 C 988.281 -2.16132 -0.912377 0
M  V30 10616 C 989.297 -1.12406 -1.32819 0
M  V30 10617 O 990.473 -1.44665 -1.40121 0
M  V30 10618 C 987.538 -2.71008 -2.16231 0
M  V30 10619 C 986.599 -3.896 -1.80306 0
M  V30 10620 C 985.832 -4.4185 -2.9934 0
M  V30 10621 O 986.055 -3.93106 -4.13309 0
M  V30 10622 O 984.989 -5.33201 -2.7925 0
M  V30 10623 H 988.815 -3.00449 -0.443167 0
M  V30 10624 H 986.4 -1.48617 -0.152786 0
M  V30 10625 H 988.282 -3.06186 -2.8953 0
M  V30 10626 H 986.957 -1.8975 -2.62253 0
M  V30 10627 H 985.864 -3.59277 -1.04264 0
M  V30 10628 H 987.197 -4.72145 -1.39068 0
M  V30 10629 N 988.849 0.203349 -1.56283 0
M  V30 10630 C 989.796 1.25205 -1.93888 0
M  V30 10631 C 990.766 1.45654 -0.798376 0
M  V30 10632 O 991.951 1.58924 -1.05583 0
M  V30 10633 C 989.091 2.59355 -2.27659 0
M  V30 10634 C 988.204 2.46553 -3.54733 0
M  V30 10635 C 987.339 3.73351 -3.77865 0
M  V30 10636 C 986.378 3.55347 -4.98392 0
M  V30 10637 N 985.515 4.74137 -5.17821 0
M  V30 10638 H 990.355 0.924356 -2.83301 0
M  V30 10639 H 987.892 0.445082 -1.40205 0
M  V30 10640 H 989.85 3.375 -2.45254 0
M  V30 10641 H 988.48 2.90184 -1.41396 0
M  V30 10642 H 987.532 1.59749 -3.45231 0
M  V30 10643 H 988.844 2.2918 -4.43033 0
M  V30 10644 H 987.998 4.59937 -3.95655 0
M  V30 10645 H 986.737 3.9367 -2.8788 0
M  V30 10646 H 985.742 2.67146 -4.80534 0
M  V30 10647 H 986.967 3.36482 -5.89879 0
M  V30 10648 H 984.913 4.94735 -4.30782 0
M  V30 10649 H 984.83 4.59558 -6.00285 0
M  V30 10650 H 986.098 5.62098 -5.40061 0
M  V30 10651 N 990.327 1.50405 0.470755 0
M  V30 10652 C 991.257 1.72222 1.57676 0
M  V30 10653 C 992.238 0.57121 1.60222 0
M  V30 10654 O 993.423 0.810381 1.76484 0
M  V30 10655 C 990.553 1.81666 2.95998 0
M  V30 10656 C 989.507 2.96857 3.08318 0
M  V30 10657 C 988.833 2.91445 4.4829 0
M  V30 10658 C 990.133 4.37361 2.85504 0
M  V30 10659 H 991.827 2.64825 1.39671 0
M  V30 10660 H 989.373 1.27438 0.67049 0
M  V30 10661 H 991.326 1.95514 3.73299 0
M  V30 10662 H 990.05 0.856856 3.1516 0
M  V30 10663 H 988.709 2.82661 2.33449 0
M  V30 10664 H 988.357 1.93309 4.64371 0
M  V30 10665 H 988.057 3.68776 4.57469 0
M  V30 10666 H 989.581 3.07341 5.27611 0
M  V30 10667 H 990.995 4.52081 3.52555 0
M  V30 10668 H 989.392 5.16145 3.06127 0
M  V30 10669 H 990.462 4.49708 1.81359 0
M  V30 10670 N 991.805 -0.723954 1.39988 0
M  V30 10671 C 993.216 -1.30273 1.33738 0
M  V30 10672 C 993.567 -1.96199 0.00690581 0
M  V30 10673 O 992.692 -1.97016 -0.895179 0
M  V30 10674 C 993.287 -2.36889 2.42217 0
M  V30 10675 C 991.846 -2.90412 2.39453 0
M  V30 10676 C 990.993 -1.64103 2.2353 0
M  V30 10677 H 993.944 -0.520672 1.49916 0
M  V30 10678 H 993.965 -3.17538 2.09642 0
M  V30 10679 H 993.477 -1.88878 3.39038 0
M  V30 10680 H 991.578 -3.42674 1.46304 0
M  V30 10681 H 991.691 -3.42775 3.34727 0
M  V30 10682 H 990.055 -1.88855 1.70897 0
M  V30 10683 H 990.838 -1.18128 3.22336 0
M  V30 10684 N 993.283 -1.25346 -0.955304 0
M  V30 10685 C 994.699 -1.02154 -1.22625 0
M  V30 10686 C 994.899 0.26206 -1.99789 0
M  V30 10687 O 993.955 0.974958 -2.32918 0
M  V30 10688 C 995.268 -2.2443 -2.00129 0
M  V30 10689 C 996.816 -2.29185 -2.13174 0
M  V30 10690 C 997.291 -3.51117 -2.94077 0
M  V30 10691 N 998.782 -3.51509 -3.01655 0
M  V30 10692 C 999.517 -4.42517 -3.64645 0
M  V30 10693 N 999.013 -5.43796 -4.29252 0
M  V30 10694 N 1000.81 -4.302 -3.61779 0
M  V30 10695 H 992.957 -2.07812 -0.439071 0
M  V30 10696 H 995.22 -0.91258 -0.256715 0
M  V30 10697 H 994.926 -3.17717 -1.50827 0
M  V30 10698 H 994.8 -2.27548 -3.00835 0
M  V30 10699 H 997.187 -1.36422 -2.61674 0
M  V30 10700 H 997.268 -2.30087 -1.11775 0
M  V30 10701 H 996.912 -4.44201 -2.46268 0
M  V30 10702 H 996.842 -3.4746 -3.95701 0
M  V30 10703 H 999.333 -2.78245 -2.55711 0
M  V30 10704 H 999.646 -6.09453 -4.75171 0
M  V30 10705 H 997.991 -5.4767 -4.27882 0
M  V30 10706 H 1001.18 -3.50304 -3.10491 0
M  V30 10707 H 1001.36 -5.01323 -4.10584 0
M  V30 10708 N 994.761 1.15782 -1.06922 0
M  V30 10709 C 995.693 2.19978 -0.643604 0
M  V30 10710 C 996.706 1.59981 0.301653 0
M  V30 10711 O 997.895 1.78265 0.0916508 0
M  V30 10712 C 994.995 3.38815 0.0757973 0
M  V30 10713 C 994.168 4.28363 -0.884545 0
M  V30 10714 C 993.227 5.25807 -0.203233 0
M  V30 10715 O 992.253 5.62924 -0.842904 0
M  V30 10716 N 993.455 5.70874 1.05279 0
M  V30 10717 H 996.22 2.57112 -1.53992 0
M  V30 10718 H 993.781 1.30855 -0.953344 0
M  V30 10719 H 995.773 4.01052 0.542151 0
M  V30 10720 H 994.343 3.00133 0.874 0
M  V30 10721 H 993.563 3.63292 -1.53012 0
M  V30 10722 H 994.851 4.85067 -1.53581 0
M  V30 10723 H 994.249 5.42822 1.5925 0
M  V30 10724 H 992.806 6.35171 1.46289 0
M  V30 10725 N 996.239 0.8527 1.3254 0
M  V30 10726 C 997.171 0.253181 2.27797 0
M  V30 10727 C 998.184 -0.573977 1.52346 0
M  V30 10728 O 999.373 -0.398786 1.73988 0
M  V30 10729 C 996.473 -0.661034 3.32391 0
M  V30 10730 C 995.646 0.12984 4.37207 0
M  V30 10731 C 994.705 -0.709837 5.2139 0
M  V30 10732 O 993.731 -0.144056 5.69018 0
M  V30 10733 N 994.933 -2.0249 5.44039 0
M  V30 10734 H 997.698 1.07171 2.79883 0
M  V30 10735 H 995.259 0.712491 1.45379 0
M  V30 10736 H 997.251 -1.22806 3.85617 0
M  V30 10737 H 995.821 -1.38025 2.80478 0
M  V30 10738 H 995.041 0.878289 3.84291 0
M  V30 10739 H 996.329 0.673141 5.04328 0
M  V30 10740 H 995.727 -2.50792 5.0707 0
M  V30 10741 H 994.284 -2.5401 6.00269 0
M  V30 10742 N 997.718 -1.45297 0.610449 0
M  V30 10743 C 999.134 -1.57225 0.274332 0
M  V30 10744 C 999.334 -1.60136 -1.22306 0
M  V30 10745 O 998.39 -1.5332 -2.00622 0
M  V30 10746 C 999.703 -2.85365 0.948028 0
M  V30 10747 C 1001.25 -2.99044 0.924216 0
M  V30 10748 C 1001.73 -4.29958 1.57798 0
M  V30 10749 N 1003.22 -4.36723 1.5436 0
M  V30 10750 C 1003.95 -5.36695 2.01857 0
M  V30 10751 N 1003.45 -6.43187 2.57453 0
M  V30 10752 N 1005.24 -5.28071 1.92608 0
M  V30 10753 H 997.392 -1.41651 1.58268 0
M  V30 10754 H 999.655 -0.67744 0.663158 0
M  V30 10755 H 999.361 -2.89125 2.00249 0
M  V30 10756 H 999.235 -3.74222 0.473062 0
M  V30 10757 H 1001.62 -2.94849 -0.121709 0
M  V30 10758 H 1001.7 -2.1159 1.43748 0
M  V30 10759 H 1001.35 -4.34912 2.62325 0
M  V30 10760 H 1001.28 -5.16234 1.03972 0
M  V30 10761 H 1003.77 -3.60374 1.13749 0
M  V30 10762 H 1004.08 -7.15722 2.91482 0
M  V30 10763 H 1002.43 -6.4393 2.61493 0
M  V30 10764 H 1005.62 -4.43783 1.48912 0
M  V30 10765 H 1005.79 -6.05832 2.29938 0
M  V30 10766 N 999.196 -0.349774 -1.5367 0
M  V30 10767 C 1000.14 0.504121 -2.25227 0
M  V30 10768 C 1001.11 1.09048 -1.2529 0
M  V30 10769 O 1002.3 1.12594 -1.54037 0
M  V30 10770 C 999.438 1.64601 -3.03316 0
M  V30 10771 C 998.551 1.08635 -4.18118 0
M  V30 10772 C 997.686 2.19605 -4.83681 0
M  V30 10773 C 996.725 1.61023 -5.90541 0
M  V30 10774 N 995.862 2.6576 -6.49858 0
M  V30 10775 H 1000.7 -0.112621 -2.97787 0
M  V30 10776 H 998.239 -0.0673503 -1.46946 0
M  V30 10777 H 1000.2 2.31836 -3.46854 0
M  V30 10778 H 998.827 2.23364 -2.33041 0
M  V30 10779 H 997.879 0.304748 -3.79177 0
M  V30 10780 H 999.191 0.617911 -4.94958 0
M  V30 10781 H 998.345 2.94693 -5.30322 0
M  V30 10782 H 997.084 2.69795 -4.06278 0
M  V30 10783 H 996.089 0.844428 -5.43277 0
M  V30 10784 H 997.314 1.11677 -6.69855 0
M  V30 10785 H 995.26 3.15193 -5.75317 0
M  V30 10786 H 995.177 2.23557 -7.2219 0
M  V30 10787 H 996.445 3.40598 -7.01151 0
M  V30 10788 N 1000.67 1.57404 -0.0785433 0
M  V30 10789 C 1001.58 2.16612 0.900902 0
M  V30 10790 C 1002.6 1.13109 1.32221 0
M  V30 10791 O 1003.78 1.45406 1.39352 0
M  V30 10792 C 1000.84 2.7215 2.14791 0
M  V30 10793 C 999.902 3.90551 1.78237 0
M  V30 10794 C 999.135 4.43431 2.96993 0
M  V30 10795 O 999.358 3.95292 4.11218 0
M  V30 10796 O 998.292 5.34674 2.76418 0
M  V30 10797 H 1002.12 3.0068 0.427227 0
M  V30 10798 H 999.703 1.48696 0.144902 0
M  V30 10799 H 1001.58 3.07718 2.87902 0
M  V30 10800 H 1000.26 1.91139 2.61243 0
M  V30 10801 H 999.167 3.59825 1.02357 0
M  V30 10802 H 1000.5 4.72876 1.36562 0
M  V30 10803 N 1002.15 -0.195058 1.56388 0
M  V30 10804 C 1003.38 -0.935745 1.85091 0
M  V30 10805 C 1003.8 -1.76061 0.662118 0
M  V30 10806 O 1003.16 -1.77076 -0.389083 0
M  V30 10807 C 1003.21 -1.80764 3.1202 0
M  V30 10808 O 1002.31 -2.90643 2.92575 0
M  V30 10809 H 1001.65 -0.26351 0.609474 0
M  V30 10810 H 1004.18 -0.200362 2.03617 0
M  V30 10811 H 1004.19 -2.21229 3.42815 0
M  V30 10812 H 1002.87 -1.20157 3.98165 0
M  V30 10813 H 1001.44 -2.53934 2.73079 0
M  V30 10814 N 1003.63 -1.50653 -0.462772 0
M  V30 10815 C 1004.56 -1.64773 -1.57877 0
M  V30 10816 C 1005.54 -0.495664 -1.54861 0
M  V30 10817 O 1006.72 -0.716248 -1.74362 0
M  V30 10818 C 1003.85 -1.63796 -2.9646 0
M  V30 10819 C 1002.9 -2.84663 -3.17599 0
M  V30 10820 S 1003.73 -4.45852 -2.96608 0
M  V30 10821 C 1004.89 -4.47581 -4.37518 0
M  V30 10822 H 1005.12 -2.59172 -1.45661 0
M  V30 10823 H 1002.65 -1.40019 -0.650699 0
M  V30 10824 H 1004.61 -1.63918 -3.76353 0
M  V30 10825 H 1003.27 -0.706185 -3.06059 0
M  V30 10826 H 1002.46 -2.80308 -4.1886 0
M  V30 10827 H 1002.07 -2.82152 -2.45492 0
M  V30 10828 H 1004.36 -4.21656 -5.30295 0
M  V30 10829 H 1005.3 -5.49248 -4.46914 0
M  V30 10830 H 1005.71 -3.7719 -4.19985 0
M  V30 10831 N 1005.11 0.71652 -1.4037 0
M  V30 10832 C 1006.06 1.8306 -1.40562 0
M  V30 10833 C 1007.03 1.64009 -0.262697 0
M  V30 10834 O 1008.21 1.85157 -0.460619 0
M  V30 10835 C 1005.35 3.2076 -1.27307 0
M  V30 10836 C 1004.46 3.51389 -2.51296 0
M  V30 10837 C 1003.6 4.78589 -2.30491 0
M  V30 10838 C 1002.64 5.02119 -3.50061 0
M  V30 10839 N 1001.77 6.20533 -3.28457 0
M  V30 10840 H 1006.61 1.82231 -2.35788 0
M  V30 10841 H 1004.15 0.890198 -1.17106 0
M  V30 10842 H 1006.11 4.00274 -1.17628 0
M  V30 10843 H 1004.74 3.2082 -0.357005 0
M  V30 10844 H 1003.79 2.66436 -2.71507 0
M  V30 10845 H 1005.1 3.64686 -3.40302 0
M  V30 10846 H 1004.26 5.66119 -2.1816 0
M  V30 10847 H 1003 4.67499 -1.38909 0
M  V30 10848 H 1002 4.13044 -3.6287 0
M  V30 10849 H 1003.23 5.15082 -4.42569 0
M  V30 10850 H 1001.17 6.10695 -2.39556 0
M  V30 10851 H 1001.09 6.34502 -4.11027 0
M  V30 10852 H 1002.36 7.10853 -3.19857 0
M  V30 10853 N 1006.59 1.25851 0.948643 0
M  V30 10854 C 1007.52 1.02549 2.04979 0
M  V30 10855 C 1008.53 -0.0115923 1.62796 0
M  V30 10856 O 1009.72 0.227643 1.77042 0
M  V30 10857 C 1006.82 0.529486 3.34738 0
M  V30 10858 C 1005.99 1.6341 4.05729 0
M  V30 10859 C 1005.05 1.13743 5.1376 0
M  V30 10860 O 1004.08 1.83303 5.38877 0
M  V30 10861 N 1005.28 -0.0181151 5.80497 0
M  V30 10862 H 1008.05 1.97365 2.25537 0
M  V30 10863 H 1005.61 1.17137 1.11761 0
M  V30 10864 H 1007.6 0.181566 4.04293 0
M  V30 10865 H 1006.17 -0.324893 3.10907 0
M  V30 10866 H 1005.39 2.15331 3.30191 0
M  V30 10867 H 1006.68 2.37603 4.49914 0
M  V30 10868 H 1006.07 -0.599198 5.62518 0
M  V30 10869 H 1004.63 -0.307019 6.51077 0
M  V30 10870 N 1008.06 -1.15214 1.07534 0
M  V30 10871 C 1009.01 -2.20013 0.697337 0
M  V30 10872 C 1009.98 -1.6314 -0.312168 0
M  V30 10873 O 1011.17 -1.89768 -0.198196 0
M  V30 10874 C 1008.31 -3.44945 0.103293 0
M  V30 10875 C 1007.42 -4.16009 1.1645 0
M  V30 10876 C 1006.55 -5.28496 0.535261 0
M  V30 10877 C 1005.59 -5.9138 1.57912 0
M  V30 10878 N 1004.73 -6.95335 0.972332 0
M  V30 10879 H 1009.57 -2.51698 1.59538 0
M  V30 10880 H 1007.11 -1.2361 0.797431 0
M  V30 10881 H 1009.07 -4.16397 -0.258766 0
M  V30 10882 H 1007.7 -3.13772 -0.758096 0
M  V30 10883 H 1006.75 -3.43035 1.64411 0
M  V30 10884 H 1008.06 -4.58853 1.9559 0
M  V30 10885 H 1007.21 -6.06579 0.120942 0
M  V30 10886 H 1005.95 -4.8685 -0.287889 0
M  V30 10887 H 1004.96 -5.12008 2.0032 0
M  V30 10888 H 1006.18 -6.35103 2.40459 0
M  V30 10889 H 1004.13 -6.55779 0.170119 0
M  V30 10890 H 1004.05 -7.36616 1.70095 0
M  V30 10891 H 1005.31 -7.77312 0.583577 0
M  V30 10892 N 1009.54 -0.859717 -1.32086 0
M  V30 10893 C 1010.48 -0.252764 -2.26796 0
M  V30 10894 C 1011.45 0.612178 -1.50636 0
M  V30 10895 O 1012.64 0.567865 -1.79743 0
M  V30 10896 C 1009.76 0.643017 -3.3254 0
M  V30 10897 C 1008.81 -0.149211 -4.26239 0
M  V30 10898 S 1009.64 -1.52097 -5.13446 0
M  V30 10899 C 1010.8 -0.631035 -6.22711 0
M  V30 10900 H 1011.03 -1.05563 -2.77928 0
M  V30 10901 H 1008.57 -0.657639 -1.39694 0
M  V30 10902 H 1010.52 1.15418 -3.9394 0
M  V30 10903 H 1009.18 1.41974 -2.80183 0
M  V30 10904 H 1008.38 0.53328 -5.01171 0
M  V30 10905 H 1007.98 -0.592128 -3.69283 0
M  V30 10906 H 1010.27 0.162638 -6.77305 0
M  V30 10907 H 1011.21 -1.35116 -6.95089 0
M  V30 10908 H 1011.62 -0.203131 -5.64134 0
M  V30 10909 N 1011.02 1.44971 -0.618145 0
M  V30 10910 C 1011.93 2.34403 0.0960457 0
M  V30 10911 C 1012.95 1.51862 0.849355 0
M  V30 10912 O 1014.12 1.84632 0.804557 0
M  V30 10913 C 1011.19 3.29646 1.07397 0
M  V30 10914 C 1010.25 4.28095 0.321466 0
M  V30 10915 C 1009.48 5.18787 1.25281 0
M  V30 10916 O 1009.7 5.1313 2.49106 0
M  V30 10917 O 1008.64 5.97282 0.744156 0
M  V30 10918 H 1012.46 2.96898 -0.639176 0
M  V30 10919 H 1010.05 1.44529 -0.37837 0
M  V30 10920 H 1011.93 3.88307 1.63694 0
M  V30 10921 H 1010.61 2.69702 1.79004 0
M  V30 10922 H 1009.51 3.73019 -0.284223 0
M  V30 10923 H 1010.85 4.90923 -0.354315 0
M  V30 10924 N 1012.5 0.357919 1.53482 0
M  V30 10925 C 1013.41 -0.500273 2.29204 0
M  V30 10926 C 1014.42 -1.09936 1.3487 0
M  V30 10927 O 1015.6 -1.11195 1.67921 0
M  V30 10928 C 1012.67 -1.62828 3.06085 0
M  V30 10929 C 1011.73 -1.05751 4.16071 0
M  V30 10930 C 1010.96 -2.13176 4.89277 0
M  V30 10931 O 1011.18 -3.34153 4.62274 0
M  V30 10932 O 1010.12 -1.76663 5.7539 0
M  V30 10933 H 1013.94 0.115696 3.0348 0
M  V30 10934 H 1011.53 0.122527 1.48897 0
M  V30 10935 H 1013.41 -2.28427 3.54117 0
M  V30 10936 H 1012.08 -2.22979 2.34653 0
M  V30 10937 H 1010.99 -0.365642 3.72309 0
M  V30 10938 H 1012.32 -0.500661 4.89647 0
M  V30 10939 N 1013.98 -1.5736 0.0868897 0
M  V30 10940 C 1014.93 -2.10105 -0.885435 0
M  V30 10941 C 1015.91 -1.01417 -1.24913 0
M  V30 10942 O 1017.1 -1.27704 -1.22558 0
M  V30 10943 C 1014.23 -2.67837 -2.14752 0
M  V30 10944 C 1013.32 -3.83553 -1.80963 0
M  V30 10945 N 1013.71 -4.91917 -1.17693 0
M  V30 10946 C 1012.01 -3.93134 -2.10622 0
M  V30 10947 C 1012.71 -5.72628 -1.02332 0
M  V30 10948 N 1011.68 -5.2139 -1.53796 0
M  V30 10949 H 1015.49 -2.91272 -0.392179 0
M  V30 10950 H 1013 -1.61981 -0.116566 0
M  V30 10951 H 1015 -3.03948 -2.85344 0
M  V30 10952 H 1013.66 -1.88122 -2.64651 0
M  V30 10953 H 1014.67 -5.10964 -0.844731 0
M  V30 10954 H 1011.34 -3.24416 -2.62793 0
M  V30 10955 H 1012.73 -6.69813 -0.529171 0
M  V30 10956 N 1015.45 0.186762 -1.56489 0
M  V30 10957 C 1016.68 0.921832 -1.85229 0
M  V30 10958 C 1017.1 1.76496 -0.670416 0
M  V30 10959 O 1016.45 1.78899 0.360758 0
M  V30 10960 C 1016.51 1.81121 -3.12854 0
M  V30 10961 O 1016.23 1.00211 -4.26485 0
M  V30 10962 C 1017.73 2.65725 -3.54831 0
M  V30 10963 H 1014.95 0.268563 -0.61491 0
M  V30 10964 H 1017.49 0.191505 -2.03601 0
M  V30 10965 H 1015.65 2.49506 -2.96354 0
M  V30 10966 H 1016.06 1.60893 -4.99213 0
M  V30 10967 H 1017.53 3.23771 -4.47075 0
M  V30 10968 H 1018.01 3.39843 -2.78215 0
M  V30 10969 H 1018.62 2.02698 -3.7389 0
M  V30 10970 N 1016.93 1.50896 0.454776 0
M  V30 10971 C 1017.86 1.6712 1.56855 0
M  V30 10972 C 1018.88 0.552223 1.53148 0
M  V30 10973 O 1020.07 0.825969 1.5824 0
M  V30 10974 C 1017.17 1.65464 2.95762 0
M  V30 10975 C 1016.34 2.93662 3.24163 0
M  V30 10976 C 1015.4 2.84428 4.42704 0
M  V30 10977 O 1014.42 3.58382 4.42211 0
M  V30 10978 N 1015.63 1.9909 5.45292 0
M  V30 10979 H 1018.39 2.63194 1.43349 0
M  V30 10980 H 1015.95 1.48564 0.643457 0
M  V30 10981 H 1017.94 1.56878 3.73057 0
M  V30 10982 H 1016.51 0.770568 3.02954 0
M  V30 10983 H 1015.73 3.16251 2.35328 0
M  V30 10984 H 1017.02 3.78558 3.39957 0
M  V30 10985 H 1016.42 1.3835 5.48521 0
M  V30 10986 H 1014.98 1.96396 6.21508 0
M  V30 10987 N 1018.41 -0.709066 1.40748 0
M  V30 10988 C 1019.36 -1.82312 1.4153 0
M  V30 10989 C 1020.33 -1.63868 0.271392 0
M  V30 10990 O 1021.51 -1.8491 0.470431 0
M  V30 10991 C 1018.65 -3.2008 1.29006 0
M  V30 10992 C 1017.77 -3.50051 2.53156 0
M  V30 10993 C 1016.9 -4.7736 2.33025 0
M  V30 10994 C 1015.94 -5.00255 3.52719 0
M  V30 10995 N 1015.08 -6.18782 3.31743 0
M  V30 10996 H 1019.92 -1.80978 2.36751 0
M  V30 10997 H 1017.45 -0.883975 1.17577 0
M  V30 10998 H 1019.41 -3.99645 1.19749 0
M  V30 10999 H 1018.04 -3.20626 0.374014 0
M  V30 11000 H 1017.09 -2.64993 2.72916 0
M  V30 11001 H 1018.41 -3.62877 3.42231 0
M  V30 11002 H 1017.56 -5.64954 2.21159 0
M  V30 11003 H 1016.3 -4.66756 1.41386 0
M  V30 11004 H 1015.3 -4.11114 3.65055 0
M  V30 11005 H 1016.53 -5.12728 4.45295 0
M  V30 11006 H 1014.47 -6.09416 2.42791 0
M  V30 11007 H 1014.39 -6.32313 4.14386 0
M  V30 11008 H 1015.66 -7.09146 3.23623 0
M  V30 11009 N 1019.89 -1.26353 -0.941956 0
M  V30 11010 C 1020.84 -1.07842 -2.04056 0
M  V30 11011 C 1021.81 0.0163064 -1.66092 0
M  V30 11012 O 1022.99 -0.143313 -1.90261 0
M  V30 11013 C 1020.13 -0.716636 -3.37577 0
M  V30 11014 C 1019.24 -1.88754 -3.88582 0
M  V30 11015 C 1018.38 -1.46893 -5.10486 0
M  V30 11016 C 1017.42 -2.60819 -5.53751 0
M  V30 11017 N 1016.56 -2.19646 -6.66858 0
M  V30 11018 H 1021.4 -2.01856 -2.19221 0
M  V30 11019 H 1018.93 -1.00504 -1.07412 0
M  V30 11020 H 1020.89 -0.487768 -4.14339 0
M  V30 11021 H 1019.52 0.18653 -3.22261 0
M  V30 11022 H 1018.57 -2.22936 -3.08227 0
M  V30 11023 H 1019.88 -2.74264 -4.1663 0
M  V30 11024 H 1019.04 -1.20047 -5.94705 0
M  V30 11025 H 1017.78 -0.584721 -4.84182 0
M  V30 11026 H 1016.78 -2.88396 -4.6809 0
M  V30 11027 H 1018.01 -3.49838 -5.82057 0
M  V30 11028 H 1015.95 -1.33657 -6.4224 0
M  V30 11029 H 1015.87 -2.987 -6.94489 0
M  V30 11030 H 1017.14 -1.96009 -7.54454 0
M  V30 11031 N 1021.37 1.14642 -1.08144 0
M  V30 11032 C 1022.3 2.19283 -0.6669 0
M  V30 11033 C 1023.31 1.60292 0.284668 0
M  V30 11034 O 1024.5 1.78352 0.0727383 0
M  V30 11035 C 1021.6 3.38877 0.0398572 0
M  V30 11036 C 1020.77 4.274 -0.929929 0
M  V30 11037 C 1019.83 5.25562 -0.258991 0
M  V30 11038 O 1018.86 5.61999 -0.902563 0
M  V30 11039 N 1020.06 5.71958 0.992177 0
M  V30 11040 H 1022.83 2.55464 -1.5671 0
M  V30 11041 H 1020.39 1.29836 -0.96717 0
M  V30 11042 H 1022.38 4.01605 0.499583 0
M  V30 11043 H 1020.95 3.01043 0.842118 0
M  V30 11044 H 1020.17 3.61649 -1.56857 0
M  V30 11045 H 1021.46 4.83411 -1.58717 0
M  V30 11046 H 1020.86 5.44481 1.53484 0
M  V30 11047 H 1019.41 6.36687 1.39544 0
M  V30 11048 N 1022.85 0.866709 1.31628 0
M  V30 11049 C 1023.78 0.335762 2.31073 0
M  V30 11050 C 1024.76 -0.571597 1.60209 0
M  V30 11051 O 1025.94 -0.489306 1.87935 0
M  V30 11052 C 1023.07 -0.466416 3.44154 0
M  V30 11053 C 1022.03 0.347561 4.26586 0
M  V30 11054 C 1021.35 -0.5801 5.31544 0
M  V30 11055 C 1022.65 1.57986 4.97833 0
M  V30 11056 H 1024.35 1.16673 2.75731 0
M  V30 11057 H 1021.89 0.56248 1.3256 0
M  V30 11058 H 1023.84 -0.84836 4.12772 0
M  V30 11059 H 1022.57 -1.33086 2.98254 0
M  V30 11060 H 1021.23 0.71141 3.59631 0
M  V30 11061 H 1020.88 -1.44174 4.81895 0
M  V30 11062 H 1020.58 -0.0393965 5.87587 0
M  V30 11063 H 1022.1 -0.958958 6.03023 0
M  V30 11064 H 1023.51 1.26954 5.59067 0
M  V30 11065 H 1021.91 2.05939 5.63657 0
M  V30 11066 H 1022.98 2.3345 4.25005 0
M  V30 11067 N 1024.32 -1.44642 0.625825 0
M  V30 11068 C 1025.25 -2.33397 -0.0692188 0
M  V30 11069 C 1026.23 -1.47898 -0.840241 0
M  V30 11070 O 1027.42 -1.7663 -0.807176 0
M  V30 11071 C 1024.55 -3.30888 -1.055 0
M  V30 11072 C 1023.5 -4.26164 -0.395968 0
M  V30 11073 C 1022.83 -5.13483 -1.49128 0
M  V30 11074 C 1024.13 -5.17663 0.694433 0
M  V30 11075 H 1025.82 -2.91763 0.671925 0
M  V30 11076 H 1023.37 -1.40294 0.324573 0
M  V30 11077 H 1025.32 -3.91861 -1.54993 0
M  V30 11078 H 1024.05 -2.7072 -1.82696 0
M  V30 11079 H 1022.71 -3.66516 0.0782691 0
M  V30 11080 H 1022.35 -4.49672 -2.25399 0
M  V30 11081 H 1022.05 -5.78038 -1.05573 0
M  V30 11082 H 1023.58 -5.77327 -1.98813 0
M  V30 11083 H 1024.99 -5.72602 0.282818 0
M  V30 11084 H 1023.39 -5.90793 1.05281 0
M  V30 11085 H 1024.46 -4.58994 1.56372 0
M  V30 11086 N 1025.8 -0.366053 -1.5329 0
M  V30 11087 C 1027.08 0.279902 -1.93587 0
M  V30 11088 C 1027.46 1.66352 -1.29963 0
M  V30 11089 O 1026.81 2.23845 -0.458895 0
M  V30 11090 C 1027.02 0.329634 -3.4744 0
M  V30 11091 C 1028.36 0.569754 -4.2076 0
M  V30 11092 O 1029.39 0.410823 -3.53823 0
M  V30 11093 O 1028.25 0.879262 -5.3938 0
M  V30 11094 H 1025.34 0.16802 -0.809752 0
M  V30 11095 H 1027.89 -0.418871 -1.64449 0
M  V30 11096 H 1026.66 -0.640434 -3.86023 0
M  V30 11097 H 1026.28 1.07428 -3.82812 0
M  V30 11098 N 1027.28 1.57312 -0.0952337 0
M  V30 11099 C 1028.7 1.57445 0.261416 0
M  V30 11100 C 1028.9 1.10639 1.68408 0
M  V30 11101 O 1027.95 0.782912 2.40056 0
M  V30 11102 C 1029.26 3.00659 0.0497206 0
M  V30 11103 C 1030.81 3.1278 0.117459 0
M  V30 11104 C 1031.29 4.57952 -0.0662441 0
M  V30 11105 N 1032.78 4.63199 -0.0114146 0
M  V30 11106 C 1033.51 5.73255 -0.128799 0
M  V30 11107 N 1033.01 6.92146 -0.301026 0
M  V30 11108 N 1034.8 5.62056 -0.0700599 0
M  V30 11109 H 1026.95 1.86045 -1.02475 0
M  V30 11110 H 1029.22 0.858726 -0.401614 0
M  V30 11111 H 1028.92 3.39102 -0.932888 0
M  V30 11112 H 1028.8 3.68792 0.791975 0
M  V30 11113 H 1031.18 2.74209 1.09057 0
M  V30 11114 H 1031.26 2.47238 -0.656288 0
M  V30 11115 H 1030.91 4.97217 -1.03623 0
M  V30 11116 H 1030.84 5.21555 0.727198 0
M  V30 11117 H 1033.33 3.77712 0.119154 0
M  V30 11118 H 1033.64 7.71855 -0.382104 0
M  V30 11119 H 1031.99 6.94184 -0.336695 0
M  V30 11120 H 1035.18 4.68057 0.0633587 0
M  V30 11121 H 1035.35 6.4779 -0.164991 0
M  V30 11122 N 1028.76 -0.17846 1.56586 0
M  V30 11123 C 1030.03 -0.923096 1.72448 0
M  V30 11124 C 1030.41 -2.00692 0.654659 0
M  V30 11125 O 1029.76 -2.26079 -0.33171 0
M  V30 11126 C 1029.97 -1.49435 3.15389 0
M  V30 11127 C 1031.32 -1.97005 3.76131 0
M  V30 11128 O 1032.34 -1.59244 3.18622 0
M  V30 11129 O 1031.2 -2.66541 4.77094 0
M  V30 11130 H 1028.3 -0.434009 0.703964 0
M  V30 11131 H 1030.84 -0.16685 1.68878 0
M  V30 11132 H 1029.62 -0.713933 3.84732 0
M  V30 11133 H 1029.24 -2.31498 3.23256 0
M  V30 11134 N 1030.24 -1.51135 -0.446768 0
M  V30 11135 C 1031.48 -1.63336 -1.19698 0
M  V30 11136 C 1031.81 -0.345099 -1.91414 0
M  V30 11137 O 1031.07 0.670365 -1.8386 0
M  V30 11138 C 1031.36 -2.78034 -2.2457 0
M  V30 11139 C 1031.03 -4.17652 -1.69934 0
M  V30 11140 C 1029.69 -4.55636 -1.54756 0
M  V30 11141 C 1032.04 -5.04813 -1.29665 0
M  V30 11142 C 1029.37 -5.78496 -0.977689 0
M  V30 11143 C 1031.72 -6.28244 -0.741112 0
M  V30 11144 C 1030.39 -6.65009 -0.576156 0
M  V30 11145 H 1029.66 -0.597689 -0.438006 0
M  V30 11146 H 1032.31 -1.85141 -0.48939 0
M  V30 11147 H 1030.61 -2.50413 -3.01331 0
M  V30 11148 H 1032.31 -2.84675 -2.8242 0
M  V30 11149 H 1028.9 -3.87699 -1.82722 0
M  V30 11150 H 1033.08 -4.76081 -1.40216 0
M  V30 11151 H 1028.34 -6.05636 -0.837563 0
M  V30 11152 H 1032.51 -6.95129 -0.42053 0
M  V30 11153 H 1030.14 -7.60085 -0.132443 0
M  V30 11154 N 1031.71 0.701592 -1.41122 0
M  V30 11155 C 1032.96 1.46376 -1.40363 0
M  V30 11156 C 1033.29 1.94197 -0.0105442 0
M  V30 11157 O 1032.57 1.69121 0.960637 0
M  V30 11158 C 1032.85 2.67994 -2.40523 0
M  V30 11159 C 1032.7 2.25977 -3.88914 0
M  V30 11160 C 1034.02 3.70181 -2.38022 0
M  V30 11161 H 1031.14 0.530929 -0.511159 0
M  V30 11162 H 1033.78 0.799588 -1.72356 0
M  V30 11163 H 1031.93 3.24661 -2.13372 0
M  V30 11164 H 1033.61 1.74684 -4.26946 0
M  V30 11165 H 1031.85 1.57826 -4.04071 0
M  V30 11166 H 1032.52 3.13215 -4.54533 0
M  V30 11167 H 1035 3.23174 -2.62103 0
M  V30 11168 H 1033.87 4.52894 -3.10127 0
M  V30 11169 H 1034.13 4.19458 -1.3967 0
M  V30 11170 N 1033.19 1.2685 0.935242 0
M  V30 11171 C 1034.15 1.08975 2.01636 0
M  V30 11172 C 1035.15 0.0361543 1.60759 0
M  V30 11173 O 1036.34 0.280087 1.71934 0
M  V30 11174 C 1033.48 0.658831 3.34473 0
M  V30 11175 H 1034.67 2.04968 2.18925 0
M  V30 11176 H 1032.22 1.09531 1.11501 0
M  V30 11177 H 1032.96 -0.302824 3.22883 0
M  V30 11178 H 1032.74 1.41967 3.65497 0
M  V30 11179 H 1034.23 0.555783 4.13885 0
M  V30 11180 N 1034.67 -1.14067 1.0875 0
M  V30 11181 C 1035.62 -2.19261 0.720633 0
M  V30 11182 C 1036.59 -1.63462 -0.294847 0
M  V30 11183 O 1037.77 -1.89967 -0.178058 0
M  V30 11184 C 1034.91 -3.44816 0.139873 0
M  V30 11185 C 1034.03 -4.1475 1.20856 0
M  V30 11186 C 1033.16 -5.27899 0.591285 0
M  V30 11187 C 1032.2 -5.89672 1.64176 0
M  V30 11188 N 1031.34 -6.94264 1.04603 0
M  V30 11189 H 1036.18 -2.49991 1.62198 0
M  V30 11190 H 1033.71 -1.22757 0.810497 0
M  V30 11191 H 1035.67 -4.16648 -0.214587 0
M  V30 11192 H 1034.3 -3.14558 -0.724774 0
M  V30 11193 H 1033.35 -3.41272 1.6804 0
M  V30 11194 H 1034.67 -4.56753 2.00446 0
M  V30 11195 H 1033.82 -6.06417 0.185271 0
M  V30 11196 H 1032.56 -4.87128 -0.236236 0
M  V30 11197 H 1031.56 -5.09854 2.05739 0
M  V30 11198 H 1032.79 -6.32517 2.47182 0
M  V30 11199 H 1030.73 -6.55562 0.239664 0
M  V30 11200 H 1030.65 -7.34771 1.77898 0
M  V30 11201 H 1031.92 -7.7665 0.665989 0
M  V30 11202 N 1036.15 -0.873678 -1.31166 0
M  V30 11203 C 1037.08 -0.289389 -2.27366 0
M  V30 11204 C 1038.09 0.549667 -1.5324 0
M  V30 11205 O 1039.28 0.371056 -1.74601 0
M  V30 11206 C 1036.38 0.60807 -3.334 0
M  V30 11207 C 1035.56 -0.199379 -4.36945 0
M  V30 11208 C 1034.61 0.626798 -5.22454 0
M  V30 11209 O 1033.64 0.0535121 -5.69175 0
M  V30 11210 N 1034.84 1.93809 -5.47191 0
M  V30 11211 H 1037.61 -1.1161 -2.78143 0
M  V30 11212 H 1035.17 -0.735529 -1.44228 0
M  V30 11213 H 1037.16 1.16656 -3.87522 0
M  V30 11214 H 1035.73 1.33545 -2.82638 0
M  V30 11215 H 1034.95 -0.939316 -3.82845 0
M  V30 11216 H 1036.24 -0.75329 -5.03193 0
M  V30 11217 H 1035.64 2.42693 -5.10995 0
M  V30 11218 H 1034.19 2.44428 -6.04234 0
M  V30 11219 N 1037.63 1.44308 -0.633487 0
M  V30 11220 C 1038.57 2.30694 0.0700257 0
M  V30 11221 C 1039.54 1.43618 0.834447 0
M  V30 11222 O 1040.73 1.72517 0.815014 0
M  V30 11223 C 1037.87 3.28929 1.04403 0
M  V30 11224 C 1036.98 4.31106 0.277779 0
M  V30 11225 C 1036.12 5.16433 1.24381 0
M  V30 11226 C 1035.16 6.10317 0.466855 0
M  V30 11227 N 1034.29 6.88335 1.38347 0
M  V30 11228 H 1039.13 2.90311 -0.672567 0
M  V30 11229 H 1036.67 1.43034 -0.343449 0
M  V30 11230 H 1038.63 3.84373 1.62214 0
M  V30 11231 H 1037.26 2.71006 1.75372 0
M  V30 11232 H 1036.31 3.78115 -0.416292 0
M  V30 11233 H 1037.62 4.97725 -0.327251 0
M  V30 11234 H 1036.78 5.76406 1.89318 0
M  V30 11235 H 1035.51 4.49893 1.88276 0
M  V30 11236 H 1034.52 5.49451 -0.195989 0
M  V30 11237 H 1035.74 6.78894 -0.167414 0
M  V30 11238 H 1033.69 6.24461 2.00959 0
M  V30 11239 H 1033.61 7.51402 0.832517 0
M  V30 11240 H 1034.88 7.52829 2.0216 0
M  V30 11241 N 1039.1 0.374177 1.53094 0
M  V30 11242 C 1040.01 -0.475935 2.29722 0
M  V30 11243 C 1041.03 -1.085 1.36029 0
M  V30 11244 O 1042.21 -1.09408 1.69091 0
M  V30 11245 C 1039.27 -1.59572 3.07795 0
M  V30 11246 C 1038.33 -1.01332 4.17169 0
M  V30 11247 C 1037.57 -2.07975 4.9151 0
M  V30 11248 O 1037.79 -3.29232 4.65793 0
M  V30 11249 O 1036.72 -1.7055 5.77232 0
M  V30 11250 H 1040.55 0.147877 3.0334 0
M  V30 11251 H 1038.13 0.138312 1.48758 0
M  V30 11252 H 1040.02 -2.24658 3.5652 0
M  V30 11253 H 1038.69 -2.20478 2.37005 0
M  V30 11254 H 1037.6 -0.326133 3.72676 0
M  V30 11255 H 1038.93 -0.4487 4.90151 0
M  V30 11256 N 1040.58 -1.57259 0.103575 0
M  V30 11257 C 1041.86 -1.86143 -0.600852 0
M  V30 11258 C 1042.24 -1.00198 -1.85805 0
M  V30 11259 O 1041.59 -0.0766791 -2.28371 0
M  V30 11260 C 1041.8 -3.36978 -0.908108 0
M  V30 11261 C 1043.15 -4.05228 -1.26788 0
M  V30 11262 O 1044.17 -3.41908 -0.998859 0
M  V30 11263 O 1043.03 -5.16971 -1.7721 0
M  V30 11264 H 1040.12 -0.770064 -0.301547 0
M  V30 11265 H 1042.67 -1.69147 0.136914 0
M  V30 11266 H 1041.44 -3.91296 -0.0165615 0
M  V30 11267 H 1041.06 -3.5935 -1.70156 0
M  V30 11268 N 1042.06 0.170153 -1.56679 0
M  V30 11269 C 1042.99 1.21285 -1.9953 0
M  V30 11270 C 1043.97 1.46104 -0.871071 0
M  V30 11271 O 1045.16 1.57419 -1.13724 0
M  V30 11272 C 1042.29 2.5515 -2.35618 0
M  V30 11273 C 1041.24 2.44898 -3.51011 0
M  V30 11274 C 1040.57 3.83263 -3.72845 0
M  V30 11275 C 1041.87 1.95271 -4.84424 0
M  V30 11276 H 1043.56 0.856646 -2.86883 0
M  V30 11277 H 1041.11 0.410634 -1.38021 0
M  V30 11278 H 1043.06 3.28299 -2.64193 0
M  V30 11279 H 1041.78 2.92561 -1.45175 0
M  V30 11280 H 1040.44 1.74203 -3.22566 0
M  V30 11281 H 1040.09 4.18069 -2.79691 0
M  V30 11282 H 1039.79 3.77272 -4.50488 0
M  V30 11283 H 1041.31 4.57996 -4.03822 0
M  V30 11284 H 1042.73 2.58195 -5.11867 0
M  V30 11285 H 1041.13 2.00225 -5.65712 0
M  V30 11286 H 1042.2 0.90709 -4.7634 0
M  V30 11287 N 1043.54 1.5137 0.438746 0
M  V30 11288 C 1044.45 1.75424 1.55768 0
M  V30 11289 C 1045.46 0.638409 1.61865 0
M  V30 11290 O 1046.64 0.9205 1.79133 0
M  V30 11291 C 1043.71 1.87288 2.9176 0
M  V30 11292 C 1042.77 3.11137 2.95791 0
M  V30 11293 C 1042 3.22425 4.25297 0
M  V30 11294 O 1042.22 2.39688 5.17596 0
M  V30 11295 O 1041.16 4.15393 4.35583 0
M  V30 11296 H 1044.98 2.70339 1.38386 0
M  V30 11297 H 1042.57 1.35854 0.621609 0
M  V30 11298 H 1044.45 1.97085 3.72472 0
M  V30 11299 H 1043.12 0.955599 3.09273 0
M  V30 11300 H 1042.03 3.06819 2.1404 0
M  V30 11301 H 1043.36 4.02549 2.83223 0
M  V30 11302 N 1045.02 -0.694098 1.41492 0
M  V30 11303 C 1045.95 -1.82042 1.46229 0
M  V30 11304 C 1046.93 -1.67047 0.320803 0
M  V30 11305 O 1048.11 -1.86758 0.53245 0
M  V30 11306 C 1045.24 -3.2019 1.34519 0
M  V30 11307 C 1044.2 -3.49892 2.46495 0
M  V30 11308 C 1043.52 -4.87411 2.1985 0
M  V30 11309 C 1044.82 -3.4872 3.88834 0
M  V30 11310 H 1046.52 -1.78335 2.40493 0
M  V30 11311 H 1044.06 -0.856566 1.15754 0
M  V30 11312 H 1046.02 -3.98699 1.36445 0
M  V30 11313 H 1044.74 -3.24527 0.367406 0
M  V30 11314 H 1043.4 -2.73734 2.43854 0
M  V30 11315 H 1043.05 -4.88375 1.20411 0
M  V30 11316 H 1042.75 -5.08248 2.94885 0
M  V30 11317 H 1044.27 -5.68228 2.23494 0
M  V30 11318 H 1045.68 -4.1723 3.93182 0
M  V30 11319 H 1044.08 -3.81089 4.63564 0
M  V30 11320 H 1045.15 -2.47665 4.16881 0
M  V30 11321 N 1046.49 -1.27344 -0.928501 0
M  V30 11322 C 1047.46 -1.10043 -2.01055 0
M  V30 11323 C 1048.46 -0.0446793 -1.60738 0
M  V30 11324 O 1049.65 -0.289202 -1.71783 0
M  V30 11325 C 1046.78 -0.676559 -3.34119 0
M  V30 11326 H 1047.97 -2.06126 -2.17835 0
M  V30 11327 H 1045.53 -1.10121 -1.10919 0
M  V30 11328 H 1046.26 0.285697 -3.23039 0
M  V30 11329 H 1046.05 -1.43903 -3.64739 0
M  V30 11330 H 1047.54 -0.577725 -4.13584 0
M  V30 11331 N 1047.97 1.13488 -1.09353 0
M  V30 11332 C 1048.91 2.17951 -0.67622 0
M  V30 11333 C 1049.88 1.59482 0.316906 0
M  V30 11334 O 1051.07 1.8723 0.218459 0
M  V30 11335 C 1048.19 3.387 0.00391024 0
M  V30 11336 C 1047.24 4.15764 -0.950906 0
M  V30 11337 S 1048.07 4.75517 -2.46259 0
M  V30 11338 C 1049.23 5.99613 -1.79485 0
M  V30 11339 H 1049.46 2.53012 -1.56115 0
M  V30 11340 H 1047 1.24773 -0.909447 0
M  V30 11341 H 1048.95 4.08643 0.39002 0
M  V30 11342 H 1047.61 3.01941 0.86548 0
M  V30 11343 H 1046.81 5.02229 -0.422086 0
M  V30 11344 H 1046.41 3.51473 -1.27838 0
M  V30 11345 H 1048.7 6.68204 -1.11846 0
M  V30 11346 H 1049.64 6.57102 -2.63862 0
M  V30 11347 H 1050.05 5.50165 -1.26409 0
M  V30 11348 N 1049.45 0.880621 1.30701 0
M  V30 11349 C 1050.4 0.342397 2.28246 0
M  V30 11350 C 1051.37 -0.565023 1.56194 0
M  V30 11351 O 1052.55 -0.494377 1.84284 0
M  V30 11352 C 1049.69 -0.440859 3.42272 0
M  V30 11353 C 1048.81 0.495284 4.29151 0
M  V30 11354 C 1047.94 -0.303141 5.30334 0
M  V30 11355 C 1046.98 0.628751 6.08862 0
M  V30 11356 N 1046.12 -0.13408 7.01972 0
M  V30 11357 H 1050.96 1.17938 2.73669 0
M  V30 11358 H 1048.49 0.59296 1.34619 0
M  V30 11359 H 1050.45 -0.910854 4.07135 0
M  V30 11360 H 1049.08 -1.24245 2.97931 0
M  V30 11361 H 1048.13 1.08376 3.64635 0
M  V30 11362 H 1049.45 1.2094 4.83916 0
M  V30 11363 H 1048.6 -0.835181 6.00924 0
M  V30 11364 H 1047.34 -1.05049 4.76252 0
M  V30 11365 H 1046.34 1.17246 5.37153 0
M  V30 11366 H 1047.57 1.37512 6.65032 0
M  V30 11367 H 1045.52 -0.864046 6.50285 0
M  V30 11368 H 1045.43 0.520486 7.54206 0
M  V30 11369 H 1046.7 -0.647005 7.7681 0
M  V30 11370 N 1050.93 -1.4397 0.641131 0
M  V30 11371 C 1052.35 -1.56607 0.30762 0
M  V30 11372 C 1052.55 -1.62694 -1.18882 0
M  V30 11373 O 1051.6 -1.57541 -1.97325 0
M  V30 11374 C 1052.91 -2.83289 1.00834 0
M  V30 11375 C 1054.46 -2.97016 0.98744 0
M  V30 11376 C 1054.94 -4.26514 1.66882 0
M  V30 11377 N 1056.43 -4.33351 1.63589 0
M  V30 11378 C 1057.16 -5.32292 2.13196 0
M  V30 11379 N 1056.66 -6.37582 2.71038 0
M  V30 11380 N 1058.45 -5.23866 2.03766 0
M  V30 11381 H 1050.6 -1.38262 1.61237 0
M  V30 11382 H 1052.87 -0.663221 0.677378 0
M  V30 11383 H 1052.57 -2.84812 2.06337 0
M  V30 11384 H 1052.45 -3.73134 0.552333 0
M  V30 11385 H 1054.83 -2.95041 -0.0591395 0
M  V30 11386 H 1054.91 -2.08493 1.48203 0
M  V30 11387 H 1054.56 -4.2925 2.71491 0
M  V30 11388 H 1054.49 -5.13912 1.14898 0
M  V30 11389 H 1056.98 -3.5788 1.21368 0
M  V30 11390 H 1057.29 -7.09378 3.06597 0
M  V30 11391 H 1055.64 -6.38239 2.75093 0
M  V30 11392 H 1058.83 -4.40524 1.58291 0
M  V30 11393 H 1059 -6.00819 2.42737 0
M  V30 11394 N 1052.41 -0.382291 -1.52893 0
M  V30 11395 C 1053.34 0.447829 -2.29165 0
M  V30 11396 C 1054.32 1.06956 -1.32267 0
M  V30 11397 O 1055.5 1.08365 -1.61154 0
M  V30 11398 C 1052.63 1.57902 -3.09329 0
M  V30 11399 C 1051.59 1.08369 -4.14053 0
M  V30 11400 C 1050.91 2.30641 -4.82399 0
M  V30 11401 C 1052.21 0.156591 -5.22065 0
M  V30 11402 H 1053.91 -0.188541 -2.98806 0
M  V30 11403 H 1051.45 -0.0921179 -1.43705 0
M  V30 11404 H 1053.41 2.16652 -3.61442 0
M  V30 11405 H 1052.13 2.24287 -2.37409 0
M  V30 11406 H 1050.79 0.518772 -3.62911 0
M  V30 11407 H 1050.44 2.9552 -4.07034 0
M  V30 11408 H 1050.14 1.98163 -5.53177 0
M  V30 11409 H 1051.66 2.90047 -5.37313 0
M  V30 11410 H 1053.08 0.652065 -5.6958 0
M  V30 11411 H 1051.47 -0.0780978 -6.00049 0
M  V30 11412 H 1052.54 -0.796529 -4.78313 0
M  V30 11413 N 1053.89 1.57202 -0.111913 0
M  V30 11414 C 1055.11 1.99297 0.555713 0
M  V30 11415 C 1055.53 0.991444 1.60673 0
M  V30 11416 O 1054.89 -0.0166672 1.82492 0
M  V30 11417 C 1054.94 3.41413 1.18826 0
M  V30 11418 O 1054.66 4.37733 0.179261 0
M  V30 11419 C 1056.16 3.98602 1.93989 0
M  V30 11420 H 1053.38 0.654543 0.147695 0
M  V30 11421 H 1055.92 2.03557 -0.196163 0
M  V30 11422 H 1054.08 3.38115 1.89096 0
M  V30 11423 H 1054.49 5.20606 0.637935 0
M  V30 11424 H 1055.97 5.00143 2.33584 0
M  V30 11425 H 1056.44 3.37349 2.81233 0
M  V30 11426 H 1057.05 4.05424 1.28497 0
M  V30 11427 N 1055.36 -0.161842 1.56767 0
M  V30 11428 C 1056.59 -0.892247 1.86672 0
M  V30 11429 C 1057.01 -1.75407 0.69841 0
M  V30 11430 O 1056.36 -1.7945 -0.332251 0
M  V30 11431 C 1056.41 -1.7612 3.15696 0
M  V30 11432 O 1056.14 -0.934131 4.28025 0
M  V30 11433 C 1057.64 -2.60046 3.59014 0
M  V30 11434 H 1054.86 -0.258747 0.619105 0
M  V30 11435 H 1057.4 -0.159089 2.0388 0
M  V30 11436 H 1055.56 -2.44759 3.00286 0
M  V30 11437 H 1055.97 -1.52931 5.01709 0
M  V30 11438 H 1057.44 -3.16618 4.5217 0
M  V30 11439 H 1057.92 -3.35374 2.83586 0
M  V30 11440 H 1058.53 -1.96724 3.77067 0
M  V30 11441 N 1056.84 -1.516 -0.430713 0
M  V30 11442 C 1058.12 -1.55142 -1.19123 0
M  V30 11443 C 1058.5 -0.319596 -2.08667 0
M  V30 11444 O 1057.85 0.694927 -2.17676 0
M  V30 11445 C 1058.06 -2.86891 -1.98732 0
M  V30 11446 C 1059.4 -3.39089 -2.55546 0
M  V30 11447 O 1060.43 -2.88486 -2.08936 0
M  V30 11448 O 1059.29 -4.27401 -3.40574 0
M  V30 11449 H 1056.38 -0.624019 -0.542705 0
M  V30 11450 H 1058.93 -1.63917 -0.439244 0
M  V30 11451 H 1057.7 -3.68002 -1.33005 0
M  V30 11452 H 1057.32 -2.81309 -2.80982 0
M  V30 11453 N 1058.32 0.686584 -1.41858 0
M  V30 11454 C 1059.27 1.82167 -1.4463 0
M  V30 11455 C 1060.26 1.66286 -0.323313 0
M  V30 11456 O 1061.47 1.73038 -0.495773 0
M  V30 11457 H 1057.84 0.600454 -0.452724 0
M  V30 11458 H 1059.81 1.76947 -2.40276 0
M  V30 11459 C 1058.56 3.20248 -1.35412 0
M  V30 11460 H 1057.89 3.33089 -2.21115 0
M  V30 11461 H 1059.33 3.99723 -1.41413 0
M  V30 11462 C 1057.78 3.36832 -0.0674972 0
M  V30 11463 O 1058.31 3.91845 0.884325 0
M  V30 11464 N 1056.52 2.90598 0.011519 0
M  V30 11465 H 1056.07 2.46016 -0.76381 0
M  V30 11466 H 1056.03 3.02072 0.871774 0
M  V30 11467 N 1059.8 1.27835 0.921735 0
M  V30 11468 C 1061.21 1.05369 1.19873 0
M  V30 11469 C 1061.41 -0.208997 2.00413 0
M  V30 11470 O 1060.47 -0.912861 2.35421 0
M  V30 11471 C 1061.78 2.29658 1.94108 0
M  V30 11472 C 1063.33 2.34756 2.07023 0
M  V30 11473 C 1063.81 3.5879 2.84664 0
M  V30 11474 N 1065.3 3.59383 2.9223 0
M  V30 11475 C 1066.03 4.52029 3.52785 0
M  V30 11476 N 1065.53 5.54986 4.14683 0
M  V30 11477 N 1067.32 4.39641 3.50246 0
M  V30 11478 H 1059.47 2.08903 0.383819 0
M  V30 11479 H 1061.73 0.919065 0.232429 0
M  V30 11480 H 1061.44 3.21604 1.4235 0
M  V30 11481 H 1061.31 2.35444 2.94696 0
M  V30 11482 H 1063.7 1.43312 2.57965 0
M  V30 11483 H 1063.78 2.32969 1.05636 0
M  V30 11484 H 1063.43 4.50574 2.34404 0
M  V30 11485 H 1063.36 3.57829 3.86349 0
M  V30 11486 H 1065.85 2.84927 2.48244 0
M  V30 11487 H 1066.16 6.21837 4.58845 0
M  V30 11488 H 1064.51 5.58822 4.13211 0
M  V30 11489 H 1067.7 3.58413 3.01094 0
M  V30 11490 H 1067.87 5.12033 3.97148 0
M  V30 11491 N 1061.28 -1.12907 1.09954 0
M  V30 11492 C 1062.69 -1.363 0.830326 0
M  V30 11493 C 1062.89 -1.93772 -0.552694 0
M  V30 11494 O 1061.95 -2.1607 -1.30652 0
M  V30 11495 C 1063.26 -2.30925 1.92598 0
M  V30 11496 C 1064.81 -2.44528 1.95385 0
M  V30 11497 C 1065.28 -3.42464 3.0411 0
M  V30 11498 N 1066.77 -3.50018 3.03384 0
M  V30 11499 C 1067.51 -4.25693 3.84152 0
M  V30 11500 N 1067.01 -5.04476 4.74843 0
M  V30 11501 N 1068.8 -4.21049 3.7239 0
M  V30 11502 H 1060.95 -0.739571 1.99108 0
M  V30 11503 H 1063.21 -0.387983 0.86497 0
M  V30 11504 H 1062.92 -1.95861 2.92115 0
M  V30 11505 H 1062.79 -3.30997 1.80889 0
M  V30 11506 H 1065.18 -2.78875 0.965037 0
M  V30 11507 H 1065.26 -1.44361 2.11172 0
M  V30 11508 H 1064.9 -3.08847 4.03207 0
M  V30 11509 H 1064.83 -4.42448 2.85565 0
M  V30 11510 H 1067.33 -2.93809 2.37665 0
M  V30 11511 H 1067.64 -5.59541 5.33042 0
M  V30 11512 H 1065.98 -5.0369 4.78875 0
M  V30 11513 H 1069.17 -3.5858 3.00895 0
M  V30 11514 H 1069.35 -4.79771 4.35572 0
M  V30 11515 N 1062.75 -0.88754 -1.30232 0
M  V30 11516 C 1063.66 -0.360333 -2.31816 0
M  V30 11517 C 1064.68 0.538741 -1.6545 0
M  V30 11518 O 1065.86 0.431246 -1.96729 0
M  V30 11519 C 1062.92 0.414336 -3.44215 0
M  V30 11520 C 1061.98 -0.514799 -4.26202 0
M  V30 11521 C 1061.21 0.222994 -5.33234 0
M  V30 11522 O 1061.44 1.44871 -5.51696 0
M  V30 11523 O 1060.37 -0.428221 -6.00375 0
M  V30 11524 H 1064.2 -1.20279 -2.78867 0
M  V30 11525 H 1061.78 -0.651459 -1.34448 0
M  V30 11526 H 1063.66 0.852859 -4.12679 0
M  V30 11527 H 1062.34 1.23305 -2.99295 0
M  V30 11528 H 1061.25 -1.00219 -3.60426 0
M  V30 11529 H 1062.58 -1.29959 -4.74733 0
M  V30 11530 N 1064.23 1.43628 -0.648757 0
M  V30 11531 C 1065.48 2.01083 -0.157692 0
M  V30 11532 C 1065.79 1.51756 1.23408 0
M  V30 11533 O 1067 2.01455 1.82012 0
M  V30 11534 C 1065.46 3.59157 -0.231118 0
M  V30 11535 C 1065.06 4.17478 -1.6253 0
M  V30 11536 C 1066.81 4.24016 0.202573 0
M  V30 11537 C 1064.72 5.67832 -1.6529 0
M  V30 11538 H 1063.65 0.751977 -0.0551897 0
M  V30 11539 H 1066.3 1.64648 -0.810139 0
M  V30 11540 H 1064.68 3.92972 0.488755 0
M  V30 11541 H 1065.85 3.9517 -2.37017 0
M  V30 11542 H 1064.17 3.64973 -2.00459 0
M  V30 11543 H 1066.76 5.34319 0.20174 0
M  V30 11544 H 1067.11 3.97616 1.23319 0
M  V30 11545 H 1067.64 3.95068 -0.465398 0
M  V30 11546 H 1064.38 5.98994 -2.66246 0
M  V30 11547 H 1063.9 5.92209 -0.951217 0
M  V30 11548 H 1065.58 6.3179 -1.39465 0
M  V30 11549 N 1065.71 0.390394 1.52688 0
M  V30 11550 C 1066.95 -0.191207 2.03504 0
M  V30 11551 C 1067.31 -1.43952 1.27051 0
M  V30 11552 O 1068.52 -2.09835 1.67996 0
M  V30 11553 C 1066.79 -0.451552 3.54536 0
M  V30 11554 S 1068.35 -1.00328 4.27176 0
M  V30 11555 H 1065.16 -0.0537587 0.708965 0
M  V30 11556 H 1067.77 0.538993 1.87923 0
M  V30 11557 H 1066.47 0.464061 4.07768 0
M  V30 11558 H 1066 -1.21015 3.74325 0
M  V30 11559 H 1068.02 -2.28555 4.40428 0
M  V30 11560 N 1067.19 -1.57141 0.120249 0
M  V30 11561 C 1068.47 -1.8677 -0.581075 0
M  V30 11562 C 1068.85 -1.02163 -1.84732 0
M  V30 11563 O 1068.19 -0.100897 -2.28277 0
M  V30 11564 C 1068.4 -3.37923 -0.872316 0
M  V30 11565 C 1069.75 -4.0655 -1.22483 0
M  V30 11566 O 1070.78 -3.42948 -0.962539 0
M  V30 11567 O 1069.63 -5.18821 -1.71717 0
M  V30 11568 H 1066.73 -0.773219 -0.293362 0
M  V30 11569 H 1069.27 -1.68992 0.154846 0
M  V30 11570 H 1068.05 -3.91292 0.0249416 0
M  V30 11571 H 1067.67 -3.61135 -1.66335 0
M  V30 11572 N 1068.67 0.153526 -1.5685 0
M  V30 11573 C 1069.61 1.18973 -1.97773 0
M  V30 11574 C 1070.58 1.43041 -0.844311 0
M  V30 11575 O 1071.77 1.55484 -1.10586 0
M  V30 11576 C 1068.91 2.51981 -2.35795 0
M  V30 11577 C 1068.02 2.35143 -3.62397 0
M  V30 11578 C 1067.16 3.61141 -3.89552 0
M  V30 11579 C 1066.2 3.39311 -5.09445 0
M  V30 11580 N 1065.33 4.57423 -5.32643 0
M  V30 11581 H 1070.17 0.833758 -2.86099 0
M  V30 11582 H 1067.71 0.400252 -1.4155 0
M  V30 11583 H 1069.67 3.29527 -2.55867 0
M  V30 11584 H 1068.3 2.85539 -1.50557 0
M  V30 11585 H 1067.35 1.48684 -3.50139 0
M  V30 11586 H 1068.66 2.14969 -4.501 0
M  V30 11587 H 1067.82 4.47117 -4.10087 0
M  V30 11588 H 1066.55 3.84312 -3.00259 0
M  V30 11589 H 1065.56 2.51723 -4.8879 0
M  V30 11590 H 1066.78 3.17545 -6.00285 0
M  V30 11591 H 1064.73 4.8078 -4.46303 0
M  V30 11592 H 1064.65 4.40228 -6.14602 0
M  V30 11593 H 1065.92 5.44632 -5.57671 0
M  V30 11594 N 1070.14 1.51827 0.422667 0
M  V30 11595 C 1071.05 1.77066 1.53899 0
M  V30 11596 C 1072.07 0.655541 1.61179 0
M  V30 11597 O 1073.25 0.939448 1.78147 0
M  V30 11598 C 1070.31 1.90372 2.89758 0
M  V30 11599 C 1069.37 3.14256 2.92475 0
M  V30 11600 C 1068.61 3.26918 4.21853 0
M  V30 11601 O 1068.83 2.45164 5.15025 0
M  V30 11602 O 1067.76 4.19989 4.31153 0
M  V30 11603 H 1071.59 2.71791 1.35511 0
M  V30 11604 H 1069.17 1.36506 0.607165 0
M  V30 11605 H 1071.06 2.01024 3.70361 0
M  V30 11606 H 1069.73 0.988347 3.08242 0
M  V30 11607 H 1068.64 3.09072 2.10773 0
M  V30 11608 H 1069.97 4.0553 2.78937 0
M  V30 11609 N 1071.62 -0.679052 1.4222 0
M  V30 11610 C 1073.04 -0.991665 1.25053 0
M  V30 11611 C 1073.24 -2.00928 0.151665 0
M  V30 11612 O 1072.29 -2.47925 -0.478507 0
M  V30 11613 C 1073.61 -1.50053 2.60585 0
M  V30 11614 C 1075.16 -1.61852 2.67905 0
M  V30 11615 C 1075.63 -2.16135 4.03794 0
M  V30 11616 N 1077.12 -2.23474 4.05726 0
M  V30 11617 C 1077.86 -2.66541 5.07685 0
M  V30 11618 N 1077.35 -3.09092 6.20028 0
M  V30 11619 N 1079.15 -2.66252 4.95042 0
M  V30 11620 H 1071.3 -0.00521851 2.12399 0
M  V30 11621 H 1073.56 -0.0648465 0.94578 0
M  V30 11622 H 1073.27 -0.82731 3.41831 0
M  V30 11623 H 1073.14 -2.47998 2.84213 0
M  V30 11624 H 1075.53 -2.28281 1.87008 0
M  V30 11625 H 1075.61 -0.624074 2.4807 0
M  V30 11626 H 1075.25 -1.50316 4.85147 0
M  V30 11627 H 1075.18 -3.16363 4.20978 0
M  V30 11628 H 1077.67 -1.93467 3.24621 0
M  V30 11629 H 1077.99 -3.40627 6.93681 0
M  V30 11630 H 1076.33 -3.06959 6.23539 0
M  V30 11631 H 1079.52 -2.32369 4.06352 0
M  V30 11632 H 1079.69 -2.99496 5.74636 0
M  V30 11633 N 1073.1 -1.28322 -0.914942 0
M  V30 11634 C 1074.01 -1.13993 -2.05043 0
M  V30 11635 C 1075.03 -0.0667921 -1.73872 0
M  V30 11636 O 1076.2 -0.275845 -1.99502 0
M  V30 11637 C 1073.27 -0.801856 -3.373 0
M  V30 11638 C 1072.33 -1.95723 -3.82088 0
M  V30 11639 C 1071.56 -1.63519 -5.08033 0
M  V30 11640 O 1071.78 -0.54899 -5.67752 0
M  V30 11641 O 1070.72 -2.47844 -5.48504 0
M  V30 11642 H 1074.54 -2.09313 -2.2005 0
M  V30 11643 H 1072.13 -1.0763 -1.03616 0
M  V30 11644 H 1074.01 -0.627214 -4.16706 0
M  V30 11645 H 1072.69 0.121696 -3.23471 0
M  V30 11646 H 1071.59 -2.18702 -3.03514 0
M  V30 11647 H 1072.93 -2.86144 -4.00478 0
M  V30 11648 N 1074.58 1.12322 -1.10551 0
M  V30 11649 C 1075.82 1.85497 -0.858492 0
M  V30 11650 C 1076.18 1.8222 0.604966 0
M  V30 11651 O 1077.38 2.5075 0.968382 0
M  V30 11652 C 1075.65 3.29124 -1.39327 0
M  V30 11653 S 1077.21 4.19659 -1.28186 0
M  V30 11654 H 1074.03 0.639768 -0.31019 0
M  V30 11655 H 1076.63 1.35298 -1.41119 0
M  V30 11656 H 1075.34 3.29069 -2.45238 0
M  V30 11657 H 1074.87 3.84388 -0.837203 0
M  V30 11658 H 1076.88 4.95618 -0.240325 0
M  V30 11659 N 1076.06 0.894434 1.2976 0
M  V30 11660 C 1076.99 0.3847 2.30309 0
M  V30 11661 C 1077.97 -0.537486 1.61385 0
M  V30 11662 O 1079.15 -0.449332 1.8893 0
M  V30 11663 C 1076.28 -0.393311 3.45066 0
M  V30 11664 C 1075.24 0.437968 4.25753 0
M  V30 11665 C 1074.56 -0.467221 5.32655 0
M  V30 11666 C 1075.86 1.6851 4.9437 0
M  V30 11667 H 1077.56 1.22496 2.73194 0
M  V30 11668 H 1075.1 0.590471 1.31337 0
M  V30 11669 H 1077.06 -0.760614 4.14479 0
M  V30 11670 H 1075.78 -1.2673 3.0101 0
M  V30 11671 H 1074.44 0.787533 3.58041 0
M  V30 11672 H 1074.09 -1.33919 4.84845 0
M  V30 11673 H 1073.79 0.0852482 5.87538 0
M  V30 11674 H 1075.31 -0.830833 6.04921 0
M  V30 11675 H 1076.72 1.38784 5.56248 0
M  V30 11676 H 1075.12 2.17849 5.59162 0
M  V30 11677 H 1076.19 2.42412 4.19958 0
M  V30 11678 N 1077.53 -1.43282 0.656365 0
M  V30 11679 C 1078.47 -2.28049 -0.083127 0
M  V30 11680 C 1079.45 -1.40009 -0.826812 0
M  V30 11681 O 1080.63 -1.69452 -0.825736 0
M  V30 11682 C 1077.76 -3.19487 -1.12452 0
M  V30 11683 C 1076.8 -4.23807 -0.478527 0
M  V30 11684 S 1077.64 -5.30218 0.750248 0
M  V30 11685 C 1078.79 -6.25225 -0.290534 0
M  V30 11686 H 1079.02 -2.90419 0.635922 0
M  V30 11687 H 1076.56 -1.47839 0.445303 0
M  V30 11688 H 1078.52 -3.72713 -1.72034 0
M  V30 11689 H 1077.18 -2.56288 -1.81591 0
M  V30 11690 H 1076.37 -4.87901 -1.26368 0
M  V30 11691 H 1075.97 -3.73975 0.043251 0
M  V30 11692 H 1078.26 -6.67568 -1.15579 0
M  V30 11693 H 1079.21 -7.07397 0.315458 0
M  V30 11694 H 1079.61 -5.60999 -0.627751 0
M  V30 11695 N 1079.01 -0.398486 -1.52479 0
M  V30 11696 C 1079.96 0.432212 -2.26717 0
M  V30 11697 C 1080.93 1.05007 -1.28696 0
M  V30 11698 O 1082.12 1.07636 -1.57541 0
M  V30 11699 C 1079.26 1.54868 -3.08399 0
M  V30 11700 C 1078.37 0.952779 -4.21362 0
M  V30 11701 C 1077.5 2.04106 -4.90423 0
M  V30 11702 C 1076.54 1.42153 -5.95364 0
M  V30 11703 N 1075.68 2.44951 -6.57984 0
M  V30 11704 H 1080.52 -0.207303 -2.97278 0
M  V30 11705 H 1078.06 -0.114066 -1.46657 0
M  V30 11706 H 1080.01 2.20684 -3.54054 0
M  V30 11707 H 1078.64 2.15837 -2.4003 0
M  V30 11708 H 1077.7 0.183962 -3.79955 0
M  V30 11709 H 1079.01 0.460131 -4.96673 0
M  V30 11710 H 1078.16 2.77672 -5.39429 0
M  V30 11711 H 1076.9 2.56733 -4.14656 0
M  V30 11712 H 1075.91 0.671161 -5.45688 0
M  V30 11713 H 1077.13 0.903093 -6.73068 0
M  V30 11714 H 1075.08 2.9673 -5.85053 0
M  V30 11715 H 1074.99 2.00468 -7.28937 0
M  V30 11716 H 1076.26 3.18119 -7.11632 0
M  V30 11717 N 1080.49 1.57075 -0.12858 0
M  V30 11718 C 1081.44 2.15816 0.818064 0
M  V30 11719 C 1082.41 1.08581 1.25696 0
M  V30 11720 O 1083.59 1.36535 1.33277 0
M  V30 11721 C 1080.73 2.76943 2.05905 0
M  V30 11722 C 1079.85 3.98514 1.66764 0
M  V30 11723 C 1078.98 4.47698 2.85902 0
M  V30 11724 C 1078.02 5.61778 2.43047 0
M  V30 11725 N 1077.16 6.05662 3.5513 0
M  V30 11726 H 1082 2.9638 0.310318 0
M  V30 11727 H 1079.53 1.46418 0.141472 0
M  V30 11728 H 1081.49 3.10519 2.78629 0
M  V30 11729 H 1080.12 1.99053 2.54122 0
M  V30 11730 H 1079.17 3.71038 0.838766 0
M  V30 11731 H 1080.49 4.81215 1.31277 0
M  V30 11732 H 1079.64 4.83233 3.66839 0
M  V30 11733 H 1078.38 3.63967 3.24622 0
M  V30 11734 H 1077.38 5.25838 1.60544 0
M  V30 11735 H 1078.61 6.47282 2.05433 0
M  V30 11736 H 1076.56 5.2487 3.93506 0
M  V30 11737 H 1076.47 6.83242 3.23598 0
M  V30 11738 H 1077.74 6.45838 4.36479 0
M  V30 11739 N 1081.97 -0.145205 1.5693 0
M  V30 11740 C 1082.9 -1.20438 1.95006 0
M  V30 11741 C 1083.91 -1.39085 0.846114 0
M  V30 11742 O 1085.1 -1.38625 1.12452 0
M  V30 11743 C 1082.2 -2.56892 2.21043 0
M  V30 11744 C 1081.38 -2.59197 3.52329 0
M  V30 11745 C 1080.44 -3.77204 3.66884 0
M  V30 11746 O 1079.46 -3.61995 4.39259 0
M  V30 11747 N 1080.66 -4.9473 3.03682 0
M  V30 11748 H 1083.43 -0.880709 2.86467 0
M  V30 11749 H 1080.99 -0.334751 1.58401 0
M  V30 11750 H 1082.98 -3.34349 2.2802 0
M  V30 11751 H 1081.55 -2.81544 1.35838 0
M  V30 11752 H 1080.77 -1.67644 3.56776 0
M  V30 11753 H 1082.06 -2.57771 4.3867 0
M  V30 11754 H 1081.46 -5.09989 2.44801 0
M  V30 11755 H 1080.01 -5.69956 3.16218 0
M  V30 11756 N 1083.45 -1.52049 -0.414609 0
M  V30 11757 C 1084.36 -1.7788 -1.52958 0
M  V30 11758 C 1085.37 -0.66408 -1.60829 0
M  V30 11759 O 1086.55 -0.948882 -1.77646 0
M  V30 11760 C 1083.61 -1.91906 -2.88744 0
M  V30 11761 C 1082.68 -3.15803 -2.90804 0
M  V30 11762 C 1081.91 -3.29151 -4.20114 0
M  V30 11763 O 1082.13 -2.47892 -5.13718 0
M  V30 11764 O 1081.07 -4.2227 -4.28919 0
M  V30 11765 H 1084.89 -2.72506 -1.34067 0
M  V30 11766 H 1082.48 -1.36826 -0.599918 0
M  V30 11767 H 1084.36 -2.02986 -3.6929 0
M  V30 11768 H 1083.03 -1.00468 -3.07714 0
M  V30 11769 H 1081.94 -3.10185 -2.09131 0
M  V30 11770 H 1083.27 -4.07004 -2.76783 0
M  V30 11771 N 1084.93 0.6715 -1.42579 0
M  V30 11772 C 1085.86 1.79693 -1.49107 0
M  V30 11773 C 1086.84 1.66516 -0.347338 0
M  V30 11774 O 1088.02 1.85887 -0.562094 0
M  V30 11775 C 1085.15 3.1801 -1.39596 0
M  V30 11776 C 1084.11 3.45926 -2.5203 0
M  V30 11777 C 1083.43 4.83852 -2.27577 0
M  V30 11778 C 1084.73 3.4249 -3.94333 0
M  V30 11779 H 1086.43 1.74486 -2.433 0
M  V30 11780 H 1083.97 0.838042 -1.17102 0
M  V30 11781 H 1085.92 3.96478 -1.42771 0
M  V30 11782 H 1084.65 3.23901 -0.418989 0
M  V30 11783 H 1083.31 2.6982 -2.48178 0
M  V30 11784 H 1082.96 4.86398 -1.28165 0
M  V30 11785 H 1082.66 5.03493 -3.02934 0
M  V30 11786 H 1084.18 5.646 -2.32506 0
M  V30 11787 H 1085.59 4.10922 -3.9977 0
M  V30 11788 H 1083.99 3.73666 -4.69568 0
M  V30 11789 H 1085.06 2.41002 -4.20768 0
M  V30 11790 N 1086.4 1.28806 0.908124 0
M  V30 11791 C 1087.33 1.15758 2.02787 0
M  V30 11792 C 1088.31 0.053911 1.70015 0
M  V30 11793 O 1089.5 0.231901 1.9281 0
M  V30 11794 C 1086.63 0.824526 3.37371 0
M  V30 11795 C 1085.58 1.88359 3.84324 0
M  V30 11796 C 1084.91 1.40404 5.15937 0
M  V30 11797 C 1086.21 3.29108 4.05568 0
M  V30 11798 H 1087.9 2.09431 2.13961 0
M  V30 11799 H 1085.45 1.00831 1.02806 0
M  V30 11800 H 1087.4 0.71999 4.15204 0
M  V30 11801 H 1086.13 -0.147902 3.26265 0
M  V30 11802 H 1084.79 1.97736 3.087 0
M  V30 11803 H 1084.43 0.420515 5.01239 0
M  V30 11804 H 1084.13 2.11224 5.48323 0
M  V30 11805 H 1085.66 1.31283 5.9632 0
M  V30 11806 H 1087.07 3.2262 4.73909 0
M  V30 11807 H 1085.47 3.97812 4.49294 0
M  V30 11808 H 1086.54 3.72709 3.10187 0
M  V30 11809 N 1087.88 -1.11734 1.11145 0
M  V30 11810 C 1089.3 -1.35412 0.844736 0
M  V30 11811 C 1089.5 -1.94347 -0.532111 0
M  V30 11812 O 1088.55 -2.17443 -1.28353 0
M  V30 11813 C 1089.87 -2.28869 1.95037 0
M  V30 11814 C 1091.41 -2.42442 1.97967 0
M  V30 11815 C 1091.89 -3.39219 3.07725 0
M  V30 11816 N 1093.38 -3.4678 3.07079 0
M  V30 11817 C 1094.12 -4.21595 3.88646 0
M  V30 11818 N 1093.61 -4.99411 4.80167 0
M  V30 11819 N 1095.4 -4.17075 3.76835 0
M  V30 11820 H 1087.56 -0.718412 1.99881 0
M  V30 11821 H 1089.82 -0.378787 0.869037 0
M  V30 11822 H 1089.52 -1.92752 2.94176 0
M  V30 11823 H 1089.4 -3.2906 1.84389 0
M  V30 11824 H 1091.79 -2.77835 0.994561 0
M  V30 11825 H 1091.87 -1.42113 2.12691 0
M  V30 11826 H 1091.51 -3.04553 4.0646 0
M  V30 11827 H 1091.44 -4.39394 2.90242 0
M  V30 11828 H 1093.93 -2.91272 2.40767 0
M  V30 11829 H 1094.24 -5.53856 5.38946 0
M  V30 11830 H 1092.59 -4.98582 4.84191 0
M  V30 11831 H 1095.78 -3.55369 3.04681 0
M  V30 11832 H 1095.95 -4.75125 4.40637 0
M  V30 11833 N 1089.36 -0.901303 -1.29284 0
M  V30 11834 C 1090.64 -0.44747 -1.90413 0
M  V30 11835 C 1091.02 1.07298 -1.81797 0
M  V30 11836 O 1090.36 1.91555 -1.24574 0
M  V30 11837 C 1090.57 -0.963849 -3.35427 0
M  V30 11838 C 1091.92 -1.00851 -4.12449 0
M  V30 11839 O 1092.95 -0.91163 -3.44337 0
M  V30 11840 O 1091.81 -1.15426 -5.34171 0
M  V30 11841 H 1088.9 -0.13976 -0.815105 0
M  V30 11842 H 1091.45 -0.991274 -1.37738 0
M  V30 11843 H 1090.22 -2.00782 -3.3586 0
M  V30 11844 H 1089.84 -0.400149 -3.95581 0
M  V30 11845 N 1090.84 1.42931 -0.663954 0
M  V30 11846 C 1092.25 1.56098 -0.332496 0
M  V30 11847 C 1092.45 1.64564 1.16279 0
M  V30 11848 O 1091.51 1.6066 1.94794 0
M  V30 11849 C 1092.82 2.81649 -1.05329 0
M  V30 11850 C 1094.37 2.95408 -1.03457 0
M  V30 11851 C 1094.85 4.23805 -1.73647 0
M  V30 11852 N 1096.34 4.30693 -1.70462 0
M  V30 11853 C 1097.07 5.28833 -2.21637 0
M  V30 11854 N 1096.57 6.33189 -2.81147 0
M  V30 11855 N 1098.36 5.20558 -2.12075 0
M  V30 11856 H 1090.51 1.3568 -1.63416 0
M  V30 11857 H 1092.77 0.652361 -0.687844 0
M  V30 11858 H 1092.48 2.81494 -2.10842 0
M  V30 11859 H 1092.35 3.72208 -0.611626 0
M  V30 11860 H 1094.74 2.95097 0.0121936 0
M  V30 11861 H 1094.82 2.06109 -1.51502 0
M  V30 11862 H 1094.47 4.24876 -2.78285 0
M  V30 11863 H 1094.4 5.12019 -1.2306 0
M  V30 11864 H 1096.89 3.55904 -1.27046 0
M  V30 11865 H 1097.2 7.04411 -3.17844 0
M  V30 11866 H 1095.55 6.33781 -2.85212 0
M  V30 11867 H 1098.74 4.3795 -1.6528 0
M  V30 11868 H 1098.91 5.96881 -2.52264 0
M  V30 11869 N 1092.32 0.406567 1.52266 0
M  V30 11870 C 1093.23 -0.4271 2.30679 0
M  V30 11871 C 1094.24 -1.0559 1.383 0
M  V30 11872 O 1095.42 -1.05797 1.71374 0
M  V30 11873 C 1092.48 -1.53008 3.1111 0
M  V30 11874 C 1091.54 -0.924604 4.19225 0
M  V30 11875 C 1090.78 -1.97502 4.95811 0
M  V30 11876 O 1091 -3.19277 4.72671 0
M  V30 11877 O 1089.93 -1.58268 5.80719 0
M  V30 11878 H 1093.76 0.212187 3.02958 0
M  V30 11879 H 1091.34 0.169835 1.48432 0
M  V30 11880 H 1093.23 -2.17046 3.61205 0
M  V30 11881 H 1091.9 -2.15401 2.41628 0
M  V30 11882 H 1090.81 -0.247009 3.73284 0
M  V30 11883 H 1092.14 -0.34463 4.90992 0
M  V30 11884 N 1093.79 -1.57004 0.136909 0
M  V30 11885 C 1094.76 -2.15066 -0.792419 0
M  V30 11886 C 1095.76 -1.08991 -1.18226 0
M  V30 11887 O 1096.95 -1.34681 -1.10484 0
M  V30 11888 C 1094.08 -2.70554 -2.07397 0
M  V30 11889 H 1095.27 -2.98519 -0.28752 0
M  V30 11890 H 1092.83 -1.55895 -0.112469 0
M  V30 11891 H 1093.56 -1.90739 -2.62277 0
M  V30 11892 H 1093.35 -3.48149 -1.80374 0
M  V30 11893 H 1094.84 -3.15322 -2.73792 0
M  V30 11894 N 1095.27 0.136881 -1.57004 0
M  V30 11895 C 1096.24 1.15267 -1.98106 0
M  V30 11896 C 1097.24 1.35305 -0.868856 0
M  V30 11897 O 1098.43 1.32126 -1.13527 0
M  V30 11898 C 1095.56 2.51092 -2.30577 0
M  V30 11899 H 1096.75 0.799821 -2.89038 0
M  V30 11900 H 1094.3 0.380576 -1.51596 0
M  V30 11901 H 1095.04 2.9133 -1.42469 0
M  V30 11902 H 1094.82 2.37906 -3.11678 0
M  V30 11903 H 1096.31 3.24232 -2.63179 0
M  V30 11904 N 1096.75 1.52266 0.40654 0
M  V30 11905 C 1097.68 1.78755 1.50229 0
M  V30 11906 C 1098.66 0.638652 1.57655 0
M  V30 11907 O 1099.85 0.884505 1.72888 0
M  V30 11908 C 1096.98 1.94057 2.88026 0
M  V30 11909 C 1095.93 3.09667 2.95449 0
M  V30 11910 C 1095.26 3.10196 4.35526 0
M  V30 11911 C 1096.56 4.49077 2.66697 0
M  V30 11912 H 1098.25 2.70511 1.28313 0
M  V30 11913 H 1095.8 1.30167 0.615836 0
M  V30 11914 H 1097.75 2.11171 3.64671 0
M  V30 11915 H 1096.47 0.989755 3.11242 0
M  V30 11916 H 1095.13 2.92308 2.2125 0
M  V30 11917 H 1094.78 2.12831 4.55754 0
M  V30 11918 H 1094.48 3.87847 4.41416 0
M  V30 11919 H 1096 3.29443 5.14101 0
M  V30 11920 H 1097.42 4.66628 3.33064 0
M  V30 11921 H 1095.82 5.28665 2.8396 0
M  V30 11922 H 1096.89 4.56995 1.62122 0
M  V30 11923 N 1098.23 -0.663929 1.42933 0
M  V30 11924 C 1099.47 -1.42446 1.45192 0
M  V30 11925 C 1099.83 -1.92269 0.0710678 0
M  V30 11926 O 1099.12 -1.68688 -0.908565 0
M  V30 11927 C 1099.32 -2.62976 2.4203 0
M  V30 11928 C 1099.15 -2.24948 3.89395 0
M  V30 11929 C 1097.92 -2.13786 4.57847 0
M  V30 11930 C 1100.11 -1.85907 4.79524 0
M  V30 11931 N 1098.1 -1.68976 5.90187 0
M  V30 11932 C 1099.47 -1.52099 6.01054 0
M  V30 11933 C 1101.52 -1.72995 4.6688 0
M  V30 11934 C 1100.22 -1.06673 7.11346 0
M  V30 11935 C 1102.25 -1.28975 5.77165 0
M  V30 11936 C 1101.61 -0.960968 6.97814 0
M  V30 11937 H 1097.71 -0.517312 0.58644 0
M  V30 11938 H 1100.3 -0.765097 1.79037 0
M  V30 11939 H 1098.47 -3.26586 2.10229 0
M  V30 11940 H 1100.2 -3.29624 2.34798 0
M  V30 11941 H 1096.95 -2.33203 4.12206 0
M  V30 11942 H 1097.38 -1.48964 6.60408 0
M  V30 11943 H 1102.02 -1.97057 3.7407 0
M  V30 11944 H 1099.74 -0.813591 8.03994 0
M  V30 11945 H 1103.32 -1.19489 5.69398 0
M  V30 11946 H 1102.2 -0.625522 7.81701 0
M  V30 11947 N 1099.71 -1.29285 -0.901281 0
M  V30 11948 C 1100.62 -1.16161 -2.03823 0
M  V30 11949 C 1101.63 -0.0852298 -1.73791 0
M  V30 11950 O 1102.81 -0.29699 -1.99198 0
M  V30 11951 C 1099.87 -0.837586 -3.3643 0
M  V30 11952 C 1098.93 -1.99764 -3.7999 0
M  V30 11953 C 1098.17 -1.68898 -5.0627 0
M  V30 11954 O 1098.39 -0.609177 -5.67138 0
M  V30 11955 O 1097.32 -2.53648 -5.45845 0
M  V30 11956 H 1101.15 -2.11635 -2.17817 0
M  V30 11957 H 1098.74 -1.08722 -1.02468 0
M  V30 11958 H 1100.62 -0.671376 -4.16017 0
M  V30 11959 H 1099.29 0.0873811 -3.23582 0
M  V30 11960 H 1098.2 -2.21908 -3.01177 0
M  V30 11961 H 1099.53 -2.90376 -3.9742 0
M  V30 11962 N 1101.18 1.11143 -1.11736 0
M  V30 11963 C 1102.12 2.16467 -0.722299 0
M  V30 11964 C 1103.1 1.60118 0.283006 0
M  V30 11965 O 1104.28 1.87651 0.178696 0
M  V30 11966 C 1101.41 3.38632 -0.0679339 0
M  V30 11967 C 1100.45 4.13654 -1.03888 0
M  V30 11968 S 1101.29 4.70187 -2.5629 0
M  V30 11969 C 1102.44 5.95671 -1.92163 0
M  V30 11970 H 1102.67 2.49644 -1.61447 0
M  V30 11971 H 1100.21 1.22816 -0.935708 0
M  V30 11972 H 1102.17 4.09378 0.303253 0
M  V30 11973 H 1100.83 3.03709 0.80124 0
M  V30 11974 H 1100.02 5.01221 -0.528522 0
M  V30 11975 H 1099.62 3.48683 -1.35265 0
M  V30 11976 H 1101.91 6.65681 -1.25994 0
M  V30 11977 H 1102.86 6.51357 -2.77741 0
M  V30 11978 H 1103.26 5.47359 -1.3805 0
M  V30 11979 N 1102.66 0.908147 1.28804 0
M  V30 11980 C 1103.57 0.397167 2.31214 0
M  V30 11981 C 1104.59 -0.512352 1.66286 0
M  V30 11982 O 1105.76 -0.399893 1.9739 0
M  V30 11983 C 1102.83 -0.359522 3.44831 0
M  V30 11984 C 1101.89 0.582539 4.25329 0
M  V30 11985 C 1101.12 -0.138133 5.33521 0
M  V30 11986 O 1101.35 -1.36076 5.53931 0
M  V30 11987 O 1100.28 0.523682 5.99618 0
M  V30 11988 H 1104.11 1.247 2.76918 0
M  V30 11989 H 1101.69 0.672766 1.33395 0
M  V30 11990 H 1103.57 -0.787098 4.13984 0
M  V30 11991 H 1102.25 -1.18528 3.01219 0
M  V30 11992 H 1101.16 1.0594 3.58786 0
M  V30 11993 H 1102.49 1.37495 4.72605 0
M  V30 11994 N 1104.14 -1.42577 0.671525 0
M  V30 11995 C 1105.05 -2.34598 -0.00898225 0
M  V30 11996 C 1106.07 -1.54909 -0.792407 0
M  V30 11997 O 1107.24 -1.87491 -0.735477 0
M  V30 11998 C 1104.31 -3.33405 -0.950888 0
M  V30 11999 C 1103.37 -4.28993 -0.16236 0
M  V30 12000 C 1102.6 -5.2308 -1.0594 0
M  V30 12001 O 1102.82 -5.22022 -2.2989 0
M  V30 12002 O 1101.76 -5.99632 -0.521966 0
M  V30 12003 H 1105.58 -2.94321 0.748927 0
M  V30 12004 H 1103.17 -1.43025 0.43175 0
M  V30 12005 H 1105.05 -3.94115 -1.49169 0
M  V30 12006 H 1103.73 -2.7616 -1.68871 0
M  V30 12007 H 1102.63 -3.71707 0.42247 0
M  V30 12008 H 1103.97 -4.8927 0.536274 0
M  V30 12009 N 1105.62 -0.414636 -1.52048 0
M  V30 12010 C 1106.57 0.42561 -2.23992 0
M  V30 12011 C 1107.55 1.00894 -1.25337 0
M  V30 12012 O 1108.74 0.930842 -1.50547 0
M  V30 12013 C 1105.87 1.53874 -3.06884 0
M  V30 12014 C 1104.96 0.965913 -4.12954 0
M  V30 12015 N 1105.35 0.12023 -5.05657 0
M  V30 12016 C 1103.65 1.23586 -4.28535 0
M  V30 12017 C 1104.35 -0.199063 -5.81359 0
M  V30 12018 N 1103.33 0.411505 -5.4204 0
M  V30 12019 H 1107.13 -0.226746 -2.93024 0
M  V30 12020 H 1104.64 -0.225376 -1.60829 0
M  V30 12021 H 1106.64 2.15334 -3.56983 0
M  V30 12022 H 1105.3 2.19366 -2.39392 0
M  V30 12023 H 1106.31 -0.244501 -5.17323 0
M  V30 12024 H 1102.99 1.88995 -3.72273 0
M  V30 12025 H 1104.38 -0.88585 -6.66035 0
M  V30 12026 N 1107.1 1.56929 -0.145233 0
M  V30 12027 C 1108.03 2.13796 0.826078 0
M  V30 12028 C 1109.04 1.08697 1.21197 0
M  V30 12029 O 1110.23 1.3598 1.15635 0
M  V30 12030 C 1107.33 2.6443 2.11967 0
M  V30 12031 C 1106.5 3.9391 1.90142 0
M  V30 12032 C 1105.56 4.29872 3.03474 0
M  V30 12033 O 1104.59 4.98227 2.75242 0
M  V30 12034 N 1105.79 3.8931 4.30602 0
M  V30 12035 H 1108.56 2.97764 0.340073 0
M  V30 12036 H 1106.12 1.61854 0.0383928 0
M  V30 12037 H 1108.11 2.85502 2.86829 0
M  V30 12038 H 1106.68 1.85196 2.51836 0
M  V30 12039 H 1105.9 3.81481 0.993268 0
M  V30 12040 H 1107.19 4.78523 1.72896 0
M  V30 12041 H 1106.58 3.34229 4.56407 0
M  V30 12042 H 1105.14 4.15438 5.0225 0
M  V30 12043 N 1108.58 -0.128553 1.57075 0
M  V30 12044 C 1109.51 -1.15953 2.02675 0
M  V30 12045 C 1110.49 -1.43743 0.909501 0
M  V30 12046 O 1111.67 -1.54348 1.17857 0
M  V30 12047 C 1108.8 -2.48813 2.423 0
M  V30 12048 C 1107.76 -2.35506 3.57381 0
M  V30 12049 C 1107.08 -3.73243 3.82875 0
M  V30 12050 C 1108.38 -1.82359 4.89431 0
M  V30 12051 H 1110.08 -0.780283 2.89054 0
M  V30 12052 H 1107.62 -0.373896 1.39061 0
M  V30 12053 H 1109.57 -3.21179 2.72804 0
M  V30 12054 H 1108.3 -2.88609 1.52881 0
M  V30 12055 H 1106.96 -1.6559 3.27071 0
M  V30 12056 H 1106.61 -4.10507 2.90677 0
M  V30 12057 H 1106.31 -3.65195 4.60333 0
M  V30 12058 H 1107.83 -4.47128 4.15823 0
M  V30 12059 H 1109.24 -2.44533 5.18533 0
M  V30 12060 H 1107.64 -1.85156 5.70822 0
M  V30 12061 H 1108.71 -0.780478 4.78578 0
M  V30 12062 N 1110.05 -1.5248 -0.398459 0
M  V30 12063 C 1110.99 -1.72826 -1.50545 0
M  V30 12064 C 1112 -0.608683 -1.50993 0
M  V30 12065 O 1113.19 -0.88413 -1.55066 0
M  V30 12066 C 1110.29 -1.76327 -2.89417 0
M  V30 12067 C 1109.46 -3.05491 -3.1304 0
M  V30 12068 C 1108.52 -3.00663 -4.31843 0
M  V30 12069 O 1107.55 -3.74548 -4.28605 0
M  V30 12070 N 1108.75 -2.19191 -5.37527 0
M  V30 12071 H 1111.51 -2.68333 -1.33482 0
M  V30 12072 H 1109.07 -1.5085 -0.587875 0
M  V30 12073 H 1111.07 -1.70616 -3.66977 0
M  V30 12074 H 1109.64 -0.882476 -2.99885 0
M  V30 12075 H 1108.86 -3.24767 -2.23428 0
M  V30 12076 H 1110.14 -3.90915 -3.25673 0
M  V30 12077 H 1109.54 -1.58613 -5.43009 0
M  V30 12078 H 1108.1 -2.19328 -6.1379 0
M  V30 12079 N 1111.53 0.65634 -1.43283 0
M  V30 12080 C 1112.44 1.79847 -1.50639 0
M  V30 12081 C 1113.46 1.69487 -0.393714 0
M  V30 12082 O 1114.63 1.90712 -0.647379 0
M  V30 12083 C 1111.7 3.16107 -1.42398 0
M  V30 12084 C 1110.76 3.38287 -2.64312 0
M  V30 12085 C 1109.99 4.68046 -2.56454 0
M  V30 12086 O 1110.22 5.4719 -1.61056 0
M  V30 12087 O 1109.15 4.91877 -3.46902 0
M  V30 12088 H 1112.98 1.76596 -2.47078 0
M  V30 12089 H 1110.56 0.814428 -1.25249 0
M  V30 12090 H 1112.44 3.97382 -1.40233 0
M  V30 12091 H 1111.12 3.19956 -0.490929 0
M  V30 12092 H 1110.02 2.56788 -2.72049 0
M  V30 12093 H 1111.36 3.39282 -3.56579 0
M  V30 12094 N 1113.01 1.29761 0.894412 0
M  V30 12095 C 1114.43 1.07888 1.17611 0
M  V30 12096 C 1114.63 -0.16644 2.00811 0
M  V30 12097 O 1113.68 -0.86272 2.37304 0
M  V30 12098 C 1114.99 2.33723 1.89193 0
M  V30 12099 C 1116.54 2.39095 2.01997 0
M  V30 12100 C 1117.02 3.64747 2.7699 0
M  V30 12101 N 1118.51 3.65501 2.84541 0
M  V30 12102 C 1119.24 4.59411 3.43117 0
M  V30 12103 N 1118.74 5.63657 4.02818 0
M  V30 12104 N 1120.53 4.46971 3.40842 0
M  V30 12105 H 1112.68 2.0967 0.339421 0
M  V30 12106 H 1114.95 0.923788 0.212882 0
M  V30 12107 H 1114.65 3.24551 1.35496 0
M  V30 12108 H 1114.53 2.41642 2.89636 0
M  V30 12109 H 1116.91 1.48751 2.54867 0
M  V30 12110 H 1116.99 2.35158 1.0067 0
M  V30 12111 H 1116.64 4.55445 2.24794 0
M  V30 12112 H 1116.57 3.65944 3.78672 0
M  V30 12113 H 1119.06 2.90129 2.42144 0
M  V30 12114 H 1119.37 6.31429 4.45552 0
M  V30 12115 H 1117.72 5.67461 4.01265 0
M  V30 12116 H 1120.91 3.64719 2.93424 0
M  V30 12117 H 1121.08 5.20341 3.86198 0
M  V30 12118 N 1114.49 -1.10549 1.12324 0
M  V30 12119 C 1115.44 -2.14997 0.758979 0
M  V30 12120 C 1116.42 -1.59078 -0.241461 0
M  V30 12121 O 1117.61 -1.76937 -0.0471439 0
M  V30 12122 C 1114.74 -3.42633 0.21395 0
M  V30 12123 C 1113.83 -4.05487 1.24261 0
M  V30 12124 N 1114.22 -4.43064 2.43984 0
M  V30 12125 C 1112.52 -4.32534 1.08769 0
M  V30 12126 C 1113.22 -4.92427 3.09662 0
M  V30 12127 N 1112.19 -4.89161 2.37114 0
M  V30 12128 H 1116 -2.4184 1.67005 0
M  V30 12129 H 1113.51 -1.27659 1.00384 0
M  V30 12130 H 1115.51 -4.16849 -0.0651928 0
M  V30 12131 H 1114.17 -3.17249 -0.691591 0
M  V30 12132 H 1115.18 -4.34797 2.81375 0
M  V30 12133 H 1111.86 -4.16813 0.239354 0
M  V30 12134 H 1113.25 -5.31059 4.11614 0
M  V30 12135 N 1115.97 -0.914965 -1.28321 0
M  V30 12136 C 1116.9 -0.361578 -2.2633 0
M  V30 12137 C 1117.91 0.500637 -1.54911 0
M  V30 12138 O 1119.1 0.31532 -1.75693 0
M  V30 12139 C 1116.2 0.501693 -3.35166 0
M  V30 12140 C 1115.37 -0.338289 -4.3609 0
M  V30 12141 C 1114.43 0.460267 -5.24183 0
M  V30 12142 O 1113.46 -0.127594 -5.69057 0
M  V30 12143 N 1114.66 1.76302 -5.5308 0
M  V30 12144 H 1117.42 -1.20402 -2.74451 0
M  V30 12145 H 1114.99 -0.781042 -1.41814 0
M  V30 12146 H 1116.98 1.04268 -3.91037 0
M  V30 12147 H 1115.55 1.24485 -2.86744 0
M  V30 12148 H 1114.77 -1.06064 -3.79663 0
M  V30 12149 H 1116.06 -0.912996 -5.00542 0
M  V30 12150 H 1115.45 2.26314 -5.18458 0
M  V30 12151 H 1114.01 2.25081 -6.11704 0
M  V30 12152 N 1117.44 1.42219 -0.679077 0
M  V30 12153 C 1118.37 2.33493 -0.0174528 0
M  V30 12154 C 1119.35 1.50915 0.78477 0
M  V30 12155 O 1120.54 1.79504 0.741065 0
M  V30 12156 C 1117.67 3.34576 0.931463 0
M  V30 12157 C 1116.62 4.2734 0.237527 0
M  V30 12158 C 1115.95 5.18664 1.29967 0
M  V30 12159 C 1117.25 5.14729 -0.886082 0
M  V30 12160 H 1118.94 2.89068 -0.779748 0
M  V30 12161 H 1116.49 1.38993 -0.376419 0
M  V30 12162 H 1118.44 3.97343 1.40343 0
M  V30 12163 H 1117.17 2.77315 1.72523 0
M  V30 12164 H 1115.83 3.65973 -0.214245 0
M  V30 12165 H 1115.47 4.57727 2.08554 0
M  V30 12166 H 1115.17 5.81558 0.840463 0
M  V30 12167 H 1116.7 5.84308 1.77249 0
M  V30 12168 H 1118.11 5.71158 -0.495141 0
M  V30 12169 H 1116.51 5.86478 -1.27135 0
M  V30 12170 H 1117.58 4.52874 -1.733 0
M  V30 12171 N 1118.92 0.422693 1.51826 0
M  V30 12172 C 1120.17 -0.148861 2.02253 0
M  V30 12173 C 1120.5 -1.43629 1.30707 0
M  V30 12174 O 1119.78 -1.89967 0.417482 0
M  V30 12175 C 1120.06 -0.382672 3.58061 0
M  V30 12176 C 1119.91 0.922386 4.40241 0
M  V30 12177 C 1121.23 -1.1589 4.24567 0
M  V30 12178 H 1118.35 -0.0526279 0.735119 0
M  V30 12179 H 1120.99 0.558821 1.81596 0
M  V30 12180 H 1119.14 -0.985495 3.75793 0
M  V30 12181 H 1120.81 1.55806 4.34191 0
M  V30 12182 H 1119.06 1.53032 4.05911 0
M  V30 12183 H 1119.73 0.713012 5.47376 0
M  V30 12184 H 1122.2 -0.648415 4.11017 0
M  V30 12185 H 1121.08 -1.29125 5.33496 0
M  V30 12186 H 1121.34 -2.18315 3.84436 0
M  V30 12187 N 1120.4 -1.5685 0.153553 0
M  V30 12188 C 1121.35 -2.1709 -0.783626 0
M  V30 12189 C 1122.32 -1.10567 -1.23952 0
M  V30 12190 O 1123.5 -1.38638 -1.31088 0
M  V30 12191 C 1120.64 -2.80183 -2.01473 0
M  V30 12192 C 1119.75 -4.01117 -1.60403 0
M  V30 12193 C 1118.89 -4.5219 -2.78743 0
M  V30 12194 C 1117.93 -5.65574 -2.34079 0
M  V30 12195 N 1117.07 -6.11235 -3.4545 0
M  V30 12196 H 1121.91 -2.96836 -0.263127 0
M  V30 12197 H 1119.44 -1.46625 -0.11816 0
M  V30 12198 H 1121.4 -3.14912 -2.73654 0
M  V30 12199 H 1120.03 -2.03071 -2.50923 0
M  V30 12200 H 1119.08 -3.72325 -0.779631 0
M  V30 12201 H 1120.39 -4.83243 -1.23605 0
M  V30 12202 H 1119.55 -4.89008 -3.59105 0
M  V30 12203 H 1118.29 -3.69085 -3.18791 0
M  V30 12204 H 1117.29 -5.28326 -1.52158 0
M  V30 12205 H 1118.52 -6.50468 -1.95109 0
M  V30 12206 H 1116.46 -5.31064 -3.85106 0
M  V30 12207 H 1116.38 -6.88304 -3.12687 0
M  V30 12208 H 1117.65 -6.527 -4.26149 0
M  V30 12209 N 1121.88 0.120221 -1.57141 0
M  V30 12210 C 1122.81 1.1732 -1.96898 0
M  V30 12211 C 1123.82 1.37722 -0.868134 0
M  V30 12212 O 1125.01 1.36818 -1.14643 0
M  V30 12213 C 1122.11 2.53343 -2.25102 0
M  V30 12214 C 1121.28 2.53559 -3.56408 0
M  V30 12215 C 1120.34 3.71319 -3.72838 0
M  V30 12216 O 1119.37 3.54961 -4.44962 0
M  V30 12217 N 1120.57 4.89836 -3.11514 0
M  V30 12218 H 1123.34 0.835023 -2.87832 0
M  V30 12219 H 1120.9 0.309508 -1.58914 0
M  V30 12220 H 1122.89 3.30679 -2.3331 0
M  V30 12221 H 1121.46 2.79347 -1.403 0
M  V30 12222 H 1120.68 1.61946 -3.59398 0
M  V30 12223 H 1121.97 2.5076 -4.42716 0
M  V30 12224 H 1121.37 5.0603 -2.52884 0
M  V30 12225 H 1119.92 5.64853 -3.25246 0
M  V30 12226 N 1123.36 1.52689 0.390367 0
M  V30 12227 C 1124.29 1.73622 1.49626 0
M  V30 12228 C 1125.3 0.616682 1.50668 0
M  V30 12229 O 1126.49 0.892341 1.54595 0
M  V30 12230 C 1123.59 1.77859 2.88477 0
M  V30 12231 C 1122.76 3.07146 3.11416 0
M  V30 12232 C 1121.82 3.02949 4.30242 0
M  V30 12233 O 1120.85 3.76816 4.26613 0
M  V30 12234 N 1122.05 2.22039 5.36357 0
M  V30 12235 H 1124.82 2.69037 1.32057 0
M  V30 12236 H 1122.38 1.51159 0.579867 0
M  V30 12237 H 1124.37 1.72559 3.66067 0
M  V30 12238 H 1122.94 0.898367 2.99413 0
M  V30 12239 H 1122.16 3.25947 2.21703 0
M  V30 12240 H 1123.45 3.92637 3.23595 0
M  V30 12241 H 1122.84 1.6149 5.4216 0
M  V30 12242 H 1121.4 2.2258 6.12619 0
M  V30 12243 N 1124.83 -0.648732 1.43629 0
M  V30 12244 C 1125.76 -1.77298 1.51947 0
M  V30 12245 C 1126.75 -1.65942 0.373785 0
M  V30 12246 O 1127.93 -1.8497 0.591596 0
M  V30 12247 C 1125.06 -3.15749 1.44638 0
M  V30 12248 C 1124.01 -3.41872 2.57502 0
M  V30 12249 C 1123.34 -4.8017 2.35246 0
M  V30 12250 C 1124.64 -3.36173 3.99731 0
M  V30 12251 H 1126.33 -1.70594 2.46045 0
M  V30 12252 H 1123.88 -0.819306 1.1842 0
M  V30 12253 H 1125.83 -3.94156 1.4906 0
M  V30 12254 H 1124.56 -3.23194 0.470466 0
M  V30 12255 H 1123.22 -2.65838 2.5244 0
M  V30 12256 H 1122.86 -4.84297 1.35887 0
M  V30 12257 H 1122.56 -4.9861 3.10906 0
M  V30 12258 H 1124.09 -5.6083 2.41459 0
M  V30 12259 H 1125.5 -4.0451 4.06257 0
M  V30 12260 H 1123.9 -3.66148 4.75453 0
M  V30 12261 H 1124.97 -2.34277 4.24549 0
M  V30 12262 N 1126.31 -1.30234 -0.887518 0
M  V30 12263 C 1127.26 -1.164 -1.99298 0
M  V30 12264 C 1128.23 -0.0541536 -1.66012 0
M  V30 12265 O 1129.41 -0.223881 -1.89482 0
M  V30 12266 C 1126.55 -0.859169 -3.34234 0
M  V30 12267 C 1125.67 -2.05065 -3.80227 0
M  V30 12268 C 1124.8 -1.68413 -5.03796 0
M  V30 12269 C 1123.84 -2.8407 -5.4219 0
M  V30 12270 N 1122.98 -2.47732 -6.56942 0
M  V30 12271 H 1127.82 -2.10973 -2.10463 0
M  V30 12272 H 1125.36 -1.04969 -1.03053 0
M  V30 12273 H 1127.31 -0.663064 -4.11897 0
M  V30 12274 H 1125.94 0.0496808 -3.22762 0
M  V30 12275 H 1125 -2.35808 -2.98494 0
M  V30 12276 H 1126.31 -2.91688 -4.04623 0
M  V30 12277 H 1125.46 -1.45162 -5.89078 0
M  V30 12278 H 1124.2 -0.789553 -4.81266 0
M  V30 12279 H 1123.21 -3.0799 -4.55437 0
M  V30 12280 H 1124.43 -3.74211 -5.66695 0
M  V30 12281 H 1122.38 -1.60777 -6.35993 0
M  V30 12282 H 1122.29 -3.27887 -6.81195 0
M  V30 12283 H 1123.56 -2.27831 -7.45462 0
M  V30 12284 N 1127.79 1.09952 -1.12909 0
M  V30 12285 C 1129.07 1.78547 -0.798767 0
M  V30 12286 C 1129.45 1.9878 0.710624 0
M  V30 12287 O 1128.8 1.58485 1.64604 0
M  V30 12288 C 1129.01 3.1121 -1.57953 0
M  V30 12289 C 1130.35 3.86006 -1.76874 0
M  V30 12290 O 1131.38 3.20946 -1.54506 0
M  V30 12291 O 1130.24 5.02791 -2.14158 0
M  V30 12292 H 1127.33 0.774084 -0.291072 0
M  V30 12293 H 1129.88 1.16557 -1.2334 0
M  V30 12294 H 1128.65 2.91935 -2.60557 0
M  V30 12295 H 1128.27 3.80922 -1.13948 0
M  V30 12296 N 1129.27 0.921757 1.27833 0
M  V30 12297 C 1130.2 0.373575 2.26135 0
M  V30 12298 C 1131.21 -0.492414 1.55174 0
M  V30 12299 O 1132.4 -0.305998 1.75858 0
M  V30 12300 C 1129.5 -0.483911 3.35427 0
M  V30 12301 C 1128.68 0.361411 4.35904 0
M  V30 12302 C 1127.73 -0.432461 5.2442 0
M  V30 12303 O 1126.76 0.15777 5.68981 0
M  V30 12304 N 1127.96 -1.73367 5.54007 0
M  V30 12305 H 1130.73 1.21856 2.73809 0
M  V30 12306 H 1128.29 0.788552 1.41398 0
M  V30 12307 H 1130.28 -1.02193 3.91585 0
M  V30 12308 H 1128.85 -1.22963 2.874 0
M  V30 12309 H 1128.07 1.08076 3.79095 0
M  V30 12310 H 1129.36 0.939528 5.0005 0
M  V30 12311 H 1128.76 -2.23561 5.19651 0
M  V30 12312 H 1127.31 -2.21834 6.12889 0
M  V30 12313 N 1130.75 -1.41857 0.686609 0
M  V30 12314 C 1131.98 -2.05401 0.222238 0
M  V30 12315 C 1132.38 -1.51731 -1.13023 0
M  V30 12316 O 1131.73 -0.656701 -1.71561 0
M  V30 12317 C 1131.79 -3.59381 0.0926608 0
M  V30 12318 C 1131.45 -4.35801 1.37573 0
M  V30 12319 C 1132.45 -4.65678 2.31171 0
M  V30 12320 C 1130.14 -4.75233 1.62661 0
M  V30 12321 C 1132.13 -5.33936 3.48125 0
M  V30 12322 C 1129.82 -5.43229 2.79902 0
M  V30 12323 C 1130.81 -5.72507 3.72458 0
M  V30 12324 O 1130.5 -6.39106 4.87646 0
M  V30 12325 H 1130.23 -0.668126 0.102876 0
M  V30 12326 H 1132.79 -1.82775 0.93714 0
M  V30 12327 H 1131.02 -3.80711 -0.67793 0
M  V30 12328 H 1132.71 -4.04529 -0.333364 0
M  V30 12329 H 1133.47 -4.35704 2.13042 0
M  V30 12330 H 1129.35 -4.51831 0.914862 0
M  V30 12331 H 1132.9 -5.56706 4.20386 0
M  V30 12332 H 1128.79 -5.72621 2.97951 0
M  V30 12333 H 1129.56 -6.576 4.87344 0
M  V30 12334 N 1132.22 -0.430739 -1.51599 0
M  V30 12335 C 1133.47 0.137929 -2.0203 0
M  V30 12336 C 1133.8 1.43287 -1.31526 0
M  V30 12337 O 1133.05 1.9121 -0.416814 0
M  V30 12338 C 1133.35 0.410694 -3.55032 0
M  V30 12339 C 1133.02 -0.797634 -4.43789 0
M  V30 12340 C 1131.68 -1.12902 -4.67768 0
M  V30 12341 C 1134.03 -1.60403 -4.95904 0
M  V30 12342 C 1131.36 -2.2676 -5.41107 0
M  V30 12343 C 1133.71 -2.73354 -5.70491 0
M  V30 12344 C 1132.38 -3.06955 -5.92735 0
M  V30 12345 H 1131.65 0.0504718 -0.739279 0
M  V30 12346 H 1134.29 -0.576585 -1.82614 0
M  V30 12347 H 1132.6 1.20703 -3.72744 0
M  V30 12348 H 1134.3 0.864006 -3.91581 0
M  V30 12349 H 1130.89 -0.529397 -4.25318 0
M  V30 12350 H 1135.07 -1.36122 -4.77268 0
M  V30 12351 H 1130.33 -2.53114 -5.56546 0
M  V30 12352 H 1134.5 -3.36213 -6.09864 0
M  V30 12353 H 1132.13 -3.95293 -6.49344 0
M  V30 12354 N 1133.7 1.56767 -0.161869 0
M  V30 12355 C 1134.63 2.20511 0.767918 0
M  V30 12356 C 1135.61 1.15783 1.24612 0
M  V30 12357 O 1136.8 1.44179 1.301 0
M  V30 12358 C 1133.93 2.83844 2.00125 0
M  V30 12359 C 1132.88 3.94528 1.65926 0
M  V30 12360 C 1132.21 4.44866 2.96646 0
M  V30 12361 C 1133.51 5.14583 0.894497 0
M  V30 12362 H 1135.2 2.98464 0.236607 0
M  V30 12363 H 1132.75 1.43561 0.112363 0
M  V30 12364 H 1134.7 3.27109 2.65664 0
M  V30 12365 H 1133.43 2.03246 2.55654 0
M  V30 12366 H 1132.08 3.51904 1.02759 0
M  V30 12367 H 1131.73 3.61071 3.50196 0
M  V30 12368 H 1131.43 5.19531 2.74521 0
M  V30 12369 H 1132.96 4.90812 3.6323 0
M  V30 12370 H 1134.37 5.54601 1.45228 0
M  V30 12371 H 1132.77 5.95105 0.772636 0
M  V30 12372 H 1133.84 4.84773 -0.110986 0
M  V30 12373 N 1135.18 -0.111886 1.57202 0
M  V30 12374 C 1136.11 -1.16274 1.97517 0
M  V30 12375 C 1137.13 -1.37259 0.875425 0
M  V30 12376 O 1138.31 -1.36208 1.15367 0
M  V30 12377 C 1135.41 -2.52145 2.26442 0
M  V30 12378 C 1134.59 -2.51666 3.57747 0
M  V30 12379 C 1133.65 -3.69337 3.74802 0
M  V30 12380 O 1132.67 -3.52596 4.46839 0
M  V30 12381 N 1133.87 -4.88177 3.14108 0
M  V30 12382 H 1136.64 -0.819747 2.88271 0
M  V30 12383 H 1134.2 -0.301076 1.59076 0
M  V30 12384 H 1136.19 -3.29437 2.3506 0
M  V30 12385 H 1134.76 -2.78599 1.41779 0
M  V30 12386 H 1133.98 -1.60038 3.60252 0
M  V30 12387 H 1135.27 -2.48408 4.44039 0
M  V30 12388 H 1134.67 -5.04682 2.55564 0
M  V30 12389 H 1133.23 -5.6312 3.28237 0
M  V30 12390 N 1136.66 -1.52894 -0.382264 0
M  V30 12391 C 1138.07 -1.42295 -0.722802 0
M  V30 12392 C 1138.27 -0.548717 -1.93885 0
M  V30 12393 O 1137.33 -0.0247431 -2.52488 0
M  V30 12394 C 1138.64 -2.85246 -0.9516 0
M  V30 12395 C 1140.19 -2.94768 -1.05265 0
M  V30 12396 C 1140.67 -4.38745 -1.31404 0
M  V30 12397 N 1142.16 -4.421 -1.38211 0
M  V30 12398 C 1142.89 -5.50592 -1.60113 0
M  V30 12399 N 1142.39 -6.69158 -1.79442 0
M  V30 12400 N 1144.18 -5.38145 -1.62347 0
M  V30 12401 H 1136.33 -2.0825 0.417816 0
M  V30 12402 H 1138.6 -0.939753 0.124776 0
M  V30 12403 H 1138.3 -3.51459 -0.130088 0
M  V30 12404 H 1138.18 -3.27903 -1.86439 0
M  V30 12405 H 1140.56 -2.28718 -1.86472 0
M  V30 12406 H 1140.64 -2.55529 -0.117619 0
M  V30 12407 H 1140.29 -5.05363 -0.507038 0
M  V30 12408 H 1140.22 -4.75542 -2.26202 0
M  V30 12409 H 1142.71 -3.56644 -1.24954 0
M  V30 12410 H 1143.02 -7.47615 -1.95681 0
M  V30 12411 H 1141.37 -6.72175 -1.76653 0
M  V30 12412 H 1144.56 -4.44485 -1.46803 0
M  V30 12413 H 1144.73 -6.22764 -1.79077 0
M  V30 12414 N 1138.14 0.641106 -1.43971 0
M  V30 12415 C 1139.09 1.74699 -1.46507 0
M  V30 12416 C 1140.07 1.57437 -0.332037 0
M  V30 12417 O 1141.26 1.67343 -0.576663 0
M  V30 12418 C 1138.39 3.13344 -1.40252 0
M  V30 12419 C 1137.48 3.3611 -2.58632 0
M  V30 12420 N 1137.87 3.29291 -3.83929 0
M  V30 12421 C 1136.17 3.66873 -2.53615 0
M  V30 12422 C 1136.87 3.52472 -4.62751 0
M  V30 12423 N 1135.84 3.74868 -3.93668 0
M  V30 12424 H 1139.65 1.67869 -2.41241 0
M  V30 12425 H 1137.16 0.843217 -1.38793 0
M  V30 12426 H 1139.16 3.92636 -1.40153 0
M  V30 12427 H 1137.82 3.21346 -0.46549 0
M  V30 12428 H 1138.83 3.08431 -4.16041 0
M  V30 12429 H 1135.51 3.81917 -1.68659 0
M  V30 12430 H 1136.9 3.52876 -5.71776 0
M  V30 12431 N 1139.62 1.30703 0.880598 0
M  V30 12432 C 1140.53 1.19389 2.01949 0
M  V30 12433 C 1141.54 0.112868 1.73634 0
M  V30 12434 O 1142.72 0.328643 1.98701 0
M  V30 12435 C 1139.78 0.891004 3.35055 0
M  V30 12436 C 1138.84 2.05784 3.76764 0
M  V30 12437 C 1138.08 1.76931 5.03519 0
M  V30 12438 O 1138.3 0.699326 5.66097 0
M  V30 12439 O 1137.23 2.623 5.4174 0
M  V30 12440 H 1141.06 2.15073 2.14423 0
M  V30 12441 H 1138.64 1.10339 1.00726 0
M  V30 12442 H 1140.53 0.737476 4.14897 0
M  V30 12443 H 1139.2 -0.0358909 3.2368 0
M  V30 12444 H 1138.11 2.26672 2.97608 0
M  V30 12445 H 1139.44 2.96661 3.9275 0
M  V30 12446 N 1141.09 -1.09351 1.1349 0
M  V30 12447 C 1142.02 -2.18037 0.835588 0
M  V30 12448 C 1143 -1.68856 -0.205373 0
M  V30 12449 O 1144.19 -1.94094 -0.0641357 0
M  V30 12450 C 1141.32 -3.45987 0.301661 0
M  V30 12451 C 1140.27 -4.08507 1.27696 0
M  V30 12452 C 1139.6 -5.31292 0.602758 0
M  V30 12453 C 1140.9 -4.50916 2.63575 0
M  V30 12454 H 1142.59 -2.43332 1.74441 0
M  V30 12455 H 1140.14 -1.1695 0.840166 0
M  V30 12456 H 1142.09 -4.21324 0.079928 0
M  V30 12457 H 1140.82 -3.20217 -0.642552 0
M  V30 12458 H 1139.48 -3.3519 1.4847 0
M  V30 12459 H 1139.12 -5.01802 -0.346953 0
M  V30 12460 H 1138.82 -5.74075 1.25345 0
M  V30 12461 H 1140.35 -6.09351 0.390325 0
M  V30 12462 H 1141.76 -5.17474 2.46765 0
M  V30 12463 H 1140.16 -5.04586 3.24827 0
M  V30 12464 H 1141.23 -3.63279 3.2118 0
M  V30 12465 N 1142.57 -0.928524 -1.27343 0
M  V30 12466 C 1143.5 -0.445627 -2.29208 0
M  V30 12467 C 1144.48 0.494508 -1.62753 0
M  V30 12468 O 1145.67 0.399082 -1.90055 0
M  V30 12469 C 1142.8 0.301684 -3.45987 0
M  V30 12470 C 1141.75 -0.550695 -4.24442 0
M  V30 12471 C 1141.08 0.325833 -5.33706 0
M  V30 12472 C 1142.38 -1.81559 -4.89728 0
M  V30 12473 H 1144.07 -1.29696 -2.69851 0
M  V30 12474 H 1141.62 -0.625085 -1.29725 0
M  V30 12475 H 1143.57 0.650455 -4.1635 0
M  V30 12476 H 1142.29 1.18705 -3.04264 0
M  V30 12477 H 1140.95 -0.882185 -3.55827 0
M  V30 12478 H 1140.6 1.21018 -4.88225 0
M  V30 12479 H 1140.3 -0.240994 -5.87106 0
M  V30 12480 H 1141.83 0.670156 -6.06911 0
M  V30 12481 H 1143.24 -1.53483 -5.52373 0
M  V30 12482 H 1141.64 -2.32598 -5.53189 0
M  V30 12483 H 1142.71 -2.53461 -4.13383 0
M  V30 12484 N 1144.05 1.41491 -0.694123 0
M  V30 12485 C 1145.47 1.55358 -0.365532 0
M  V30 12486 C 1145.67 1.66994 1.12762 0
M  V30 12487 O 1144.72 1.64756 1.91342 0
M  V30 12488 C 1146.03 2.79352 -1.11279 0
M  V30 12489 C 1147.58 2.93147 -1.097 0
M  V30 12490 C 1148.06 4.20027 -1.82597 0
M  V30 12491 N 1149.55 4.26981 -1.7956 0
M  V30 12492 C 1150.28 5.24013 -2.32805 0
M  V30 12493 N 1149.78 6.27083 -2.94515 0
M  V30 12494 N 1151.57 5.15943 -2.23069 0
M  V30 12495 H 1143.72 1.32183 -1.66257 0
M  V30 12496 H 1145.99 0.637624 -0.701527 0
M  V30 12497 H 1145.69 2.76958 -2.16765 0
M  V30 12498 H 1145.57 3.70827 -0.690439 0
M  V30 12499 H 1147.95 2.95057 -0.0504037 0
M  V30 12500 H 1148.03 2.02849 -1.55839 0
M  V30 12501 H 1147.68 4.18878 -2.87235 0
M  V30 12502 H 1147.61 5.09294 -1.33893 0
M  V30 12503 H 1150.1 3.53129 -1.34567 0
M  V30 12504 H 1150.41 6.97511 -3.32714 0
M  V30 12505 H 1148.76 6.27589 -2.98592 0
M  V30 12506 H 1151.95 4.34346 -1.74532 0
M  V30 12507 H 1152.12 5.91396 -2.64868 0
M  V30 12508 N 1145.53 0.438773 1.51369 0
M  V30 12509 C 1146.47 -0.37195 2.27783 0
M  V30 12510 C 1147.44 -1.01558 1.31435 0
M  V30 12511 O 1148.63 -1.03421 1.60339 0
M  V30 12512 C 1145.77 -1.46636 3.12397 0
M  V30 12513 C 1144.88 -0.840727 4.2374 0
M  V30 12514 C 1144.02 -1.91031 4.95662 0
M  V30 12515 C 1143.06 -1.26318 5.98924 0
M  V30 12516 N 1142.19 -2.27419 6.64248 0
M  V30 12517 H 1147.03 0.286048 2.96624 0
M  V30 12518 H 1144.57 0.152909 1.46303 0
M  V30 12519 H 1146.53 -2.11219 3.59781 0
M  V30 12520 H 1145.16 -2.09397 2.45668 0
M  V30 12521 H 1144.21 -0.0831588 3.80309 0
M  V30 12522 H 1145.52 -0.328285 4.97719 0
M  V30 12523 H 1144.68 -2.63272 5.46601 0
M  V30 12524 H 1143.42 -2.45649 4.21317 0
M  V30 12525 H 1142.42 -0.526246 5.47276 0
M  V30 12526 H 1143.65 -0.724324 6.75226 0
M  V30 12527 H 1141.59 -2.81114 5.92715 0
M  V30 12528 H 1141.51 -1.81071 7.33996 0
M  V30 12529 H 1142.78 -2.99139 7.19817 0
M  V30 12530 N 1147.01 -1.56678 0.170181 0
M  V30 12531 C 1147.96 -2.14503 -0.772818 0
M  V30 12532 C 1148.94 -1.07896 -1.19362 0
M  V30 12533 O 1150.13 -1.34021 -1.15617 0
M  V30 12534 C 1147.26 -2.78844 -2.00253 0
M  V30 12535 C 1146.35 -3.92607 -1.60377 0
M  V30 12536 N 1146.74 -4.97464 -0.914519 0
M  V30 12537 C 1145.04 -4.03746 -1.89487 0
M  V30 12538 C 1145.74 -5.77248 -0.718343 0
M  V30 12539 N 1144.71 -5.2881 -1.25942 0
M  V30 12540 H 1148.51 -2.92941 -0.237231 0
M  V30 12541 H 1146.03 -1.62371 -0.0305396 0
M  V30 12542 H 1148.03 -3.18646 -2.68831 0
M  V30 12543 H 1146.69 -2.01886 -2.54307 0
M  V30 12544 H 1147.7 -5.14724 -0.572692 0
M  V30 12545 H 1144.37 -3.3789 -2.45227 0
M  V30 12546 H 1145.76 -6.71676 -0.173373 0
M  V30 12547 N 1148.48 0.103547 -1.57259 0
M  V30 12548 C 1149.39 1.14475 -2.04774 0
M  V30 12549 C 1150.41 1.44385 -0.971025 0
M  V30 12550 O 1151.59 1.55195 -1.28361 0
M  V30 12551 C 1148.65 2.4475 -2.45558 0
M  V30 12552 C 1147.71 2.22098 -3.67384 0
M  V30 12553 C 1146.94 3.4616 -4.06213 0
M  V30 12554 O 1147.17 4.5407 -3.45219 0
M  V30 12555 O 1146.1 3.36248 -4.9922 0
M  V30 12556 H 1149.93 0.771211 -2.93745 0
M  V30 12557 H 1147.51 0.315456 -1.46032 0
M  V30 12558 H 1149.39 3.21476 -2.72454 0
M  V30 12559 H 1148.07 2.81547 -1.59728 0
M  V30 12560 H 1146.98 1.43179 -3.45616 0
M  V30 12561 H 1148.31 1.90197 -4.53967 0
M  V30 12562 N 1149.96 1.53094 0.37415 0
M  V30 12563 C 1150.91 1.78927 1.45787 0
M  V30 12564 C 1151.88 0.633187 1.53558 0
M  V30 12565 O 1153.06 0.874472 1.69581 0
M  V30 12566 C 1150.2 1.97726 2.8284 0
M  V30 12567 C 1149.32 3.25436 2.84104 0
M  V30 12568 C 1148.45 3.3447 4.12678 0
M  V30 12569 C 1147.49 4.56246 4.08051 0
M  V30 12570 N 1146.63 4.6248 5.28258 0
M  V30 12571 H 1151.47 2.71404 1.2306 0
M  V30 12572 H 1149 1.34453 0.596716 0
M  V30 12573 H 1150.96 2.06611 3.62447 0
M  V30 12574 H 1149.59 1.08593 3.03986 0
M  V30 12575 H 1148.64 3.25548 1.96781 0
M  V30 12576 H 1149.96 4.15112 2.76556 0
M  V30 12577 H 1149.11 3.4262 5.00696 0
M  V30 12578 H 1147.85 2.42795 4.22968 0
M  V30 12579 H 1146.85 4.48206 3.1842 0
M  V30 12580 H 1148.08 5.49254 3.99371 0
M  V30 12581 H 1146.03 3.73703 5.3915 0
M  V30 12582 H 1145.94 5.46049 5.22845 0
M  V30 12583 H 1147.21 4.74903 6.18132 0
M  V30 12584 N 1151.44 -0.633461 1.44309 0
M  V30 12585 C 1152.35 -1.77428 1.53481 0
M  V30 12586 C 1153.37 -1.68839 0.420628 0
M  V30 12587 O 1154.54 -1.89658 0.677638 0
M  V30 12588 C 1151.61 -3.13801 1.47409 0
M  V30 12589 C 1150.67 -3.34039 2.6966 0
M  V30 12590 C 1149.9 -4.63907 2.63868 0
M  V30 12591 O 1150.12 -5.44559 1.69741 0
M  V30 12592 O 1149.06 -4.86295 3.54684 0
M  V30 12593 H 1152.88 -1.72642 2.49857 0
M  V30 12594 H 1150.47 -0.794399 1.26529 0
M  V30 12595 H 1152.35 -3.95101 1.46537 0
M  V30 12596 H 1151.03 -3.19134 0.541769 0
M  V30 12597 H 1149.93 -2.52427 2.761 0
M  V30 12598 H 1151.27 -3.33566 3.61931 0
M  V30 12599 N 1152.92 -1.31168 -0.873655 0
M  V30 12600 C 1154.33 -1.09745 -1.1588 0
M  V30 12601 C 1154.53 0.134471 -2.01051 0
M  V30 12602 O 1153.59 0.824857 -2.38647 0
M  V30 12603 C 1154.9 -2.36704 -1.85451 0
M  V30 12604 C 1156.45 -2.42278 -1.98167 0
M  V30 12605 C 1156.93 -3.69108 -2.71152 0
M  V30 12606 N 1158.42 -3.69981 -2.7869 0
M  V30 12607 C 1159.15 -4.64811 -3.35765 0
M  V30 12608 N 1158.65 -5.69995 -3.938 0
M  V30 12609 N 1160.44 -4.52337 -3.33688 0
M  V30 12610 H 1152.59 -2.10184 -0.306021 0
M  V30 12611 H 1154.86 -0.927058 -0.198159 0
M  V30 12612 H 1154.56 -3.26666 -1.30316 0
M  V30 12613 H 1154.44 -2.46219 -2.85755 0
M  V30 12614 H 1156.82 -1.52787 -2.52468 0
M  V30 12615 H 1156.9 -2.3673 -0.969164 0
M  V30 12616 H 1156.55 -4.58963 -2.1752 0
M  V30 12617 H 1156.48 -3.71922 -3.72803 0
M  V30 12618 H 1158.97 -2.93944 -2.37498 0
M  V30 12619 H 1159.28 -6.38438 -4.3545 0
M  V30 12620 H 1157.63 -5.73773 -3.92186 0
M  V30 12621 H 1160.82 -3.69341 -2.87584 0
M  V30 12622 H 1160.99 -5.2642 -3.77871 0
M  V30 12623 N 1154.4 1.08748 -1.14068 0
M  V30 12624 C 1155.31 2.19123 -0.837998 0
M  V30 12625 C 1156.32 1.73065 0.180164 0
M  V30 12626 O 1157.5 2.01398 0.00952285 0
M  V30 12627 C 1154.56 3.45257 -0.316 0
M  V30 12628 C 1153.62 4.05959 -1.39628 0
M  V30 12629 C 1152.86 5.26072 -0.899095 0
M  V30 12630 O 1153.08 5.69804 0.260744 0
M  V30 12631 O 1152.01 5.7808 -1.67652 0
M  V30 12632 H 1155.84 2.4748 -1.76033 0
M  V30 12633 H 1153.43 1.17816 -0.918675 0
M  V30 12634 H 1155.31 4.21389 -0.0306425 0
M  V30 12635 H 1153.98 3.18486 0.578654 0
M  V30 12636 H 1152.89 3.31432 -1.73505 0
M  V30 12637 H 1154.22 4.36971 -2.26533 0
M  V30 12638 N 1155.87 0.935264 1.26849 0
M  V30 12639 C 1156.81 0.397539 2.25726 0
M  V30 12640 C 1157.82 -0.475928 1.55688 0
M  V30 12641 O 1159.01 -0.287329 1.76172 0
M  V30 12642 C 1156.11 -0.448308 3.35922 0
M  V30 12643 C 1155.28 0.407624 4.35496 0
M  V30 12644 C 1154.34 -0.376815 5.24849 0
M  V30 12645 O 1153.37 0.218109 5.68782 0
M  V30 12646 N 1154.57 -1.67481 5.55815 0
M  V30 12647 H 1157.33 1.24753 2.72501 0
M  V30 12648 H 1154.89 0.803505 1.40554 0
M  V30 12649 H 1156.89 -0.980338 3.92647 0
M  V30 12650 H 1155.46 -1.19908 2.88688 0
M  V30 12651 H 1154.68 1.12091 3.77928 0
M  V30 12652 H 1155.96 0.992512 4.99026 0
M  V30 12653 H 1155.36 -2.18037 5.21993 0
M  V30 12654 H 1153.92 -2.15321 6.15207 0
M  V30 12655 N 1157.35 -1.41121 0.701616 0
M  V30 12656 C 1158.29 -2.28198 -0.010533 0
M  V30 12657 C 1159.26 -1.42569 -0.78185 0
M  V30 12658 O 1160.45 -1.71993 -0.771408 0
M  V30 12659 C 1157.57 -3.22903 -1.02231 0
M  V30 12660 C 1156.62 -4.25115 -0.343454 0
M  V30 12661 S 1157.45 -5.27563 0.918553 0
M  V30 12662 C 1158.61 -6.25833 -0.0914763 0
M  V30 12663 H 1158.84 -2.88249 0.727995 0
M  V30 12664 H 1156.38 -1.46348 0.492112 0
M  V30 12665 H 1158.33 -3.77997 -1.60089 0
M  V30 12666 H 1156.99 -2.61936 -1.73345 0
M  V30 12667 H 1156.19 -4.91674 -1.10782 0
M  V30 12668 H 1155.79 -3.73648 0.162206 0
M  V30 12669 H 1158.08 -6.70908 -0.942826 0
M  V30 12670 H 1159.02 -7.06035 0.540351 0
M  V30 12671 H 1159.43 -5.62712 -0.448956 0
M  V30 12672 N 1158.83 -0.446794 -1.51134 0
M  V30 12673 C 1159.76 0.395804 -2.25757 0
M  V30 12674 C 1160.78 0.978178 -1.30137 0
M  V30 12675 O 1161.96 0.87071 -1.55823 0
M  V30 12676 C 1159.06 1.56665 -3.00515 0
M  V30 12677 C 1158.24 1.10146 -4.23305 0
M  V30 12678 C 1157.3 2.14352 -4.80562 0
M  V30 12679 O 1156.32 1.73401 -5.42145 0
M  V30 12680 N 1157.52 3.46932 -4.65423 0
M  V30 12681 H 1160.29 -0.243808 -2.98707 0
M  V30 12682 H 1157.85 -0.276205 -1.59527 0
M  V30 12683 H 1159.84 2.26019 -3.35704 0
M  V30 12684 H 1158.41 2.11142 -2.30516 0
M  V30 12685 H 1157.63 0.234644 -3.93501 0
M  V30 12686 H 1158.92 0.768185 -5.02968 0
M  V30 12687 H 1158.32 3.82929 -4.16391 0
M  V30 12688 H 1156.88 4.12154 -5.04948 0
M  V30 12689 N 1160.31 1.56586 -0.178487 0
M  V30 12690 C 1161.72 1.58609 0.17759 0
M  V30 12691 C 1161.92 1.19411 1.62306 0
M  V30 12692 O 1160.98 0.90906 2.35568 0
M  V30 12693 C 1162.29 3.005 -0.109722 0
M  V30 12694 C 1163.84 3.12962 -0.0485036 0
M  V30 12695 C 1164.32 4.56957 -0.308901 0
M  V30 12696 N 1165.81 4.62487 -0.25693 0
M  V30 12697 C 1166.54 5.71767 -0.432488 0
M  V30 12698 N 1166.04 6.89577 -0.667494 0
M  V30 12699 N 1167.83 5.60895 -0.367895 0
M  V30 12700 H 1159.98 1.80351 -1.12193 0
M  V30 12701 H 1162.25 0.83623 -0.446569 0
M  V30 12702 H 1161.95 3.3368 -1.11133 0
M  V30 12703 H 1161.83 3.72472 0.595373 0
M  V30 12704 H 1164.21 2.79604 0.943687 0
M  V30 12705 H 1164.29 2.43411 -0.78642 0
M  V30 12706 H 1163.94 4.91025 -1.29833 0
M  V30 12707 H 1163.87 5.24676 0.449711 0
M  V30 12708 H 1166.36 3.77813 -0.0812308 0
M  V30 12709 H 1166.67 7.68744 -0.79071 0
M  V30 12710 H 1165.02 6.91423 -0.704193 0
M  V30 12711 H 1168.21 4.67735 -0.184837 0
M  V30 12712 H 1168.38 6.46005 -0.508138 0
M  V30 12713 N 1161.79 -0.095206 1.57312 0
M  V30 12714 C 1163.02 -0.811092 1.90013 0
M  V30 12715 C 1163.42 -1.72807 0.770359 0
M  V30 12716 O 1162.77 -1.81755 -0.266615 0
M  V30 12717 C 1162.83 -1.67744 3.17966 0
M  V30 12718 C 1162.49 -0.932301 4.47389 0
M  V30 12719 C 1163.49 -0.262161 5.19239 0
M  V30 12720 C 1161.18 -0.906414 4.94054 0
M  V30 12721 C 1163.17 0.423898 6.35989 0
M  V30 12722 C 1160.86 -0.216569 6.10716 0
M  V30 12723 C 1161.85 0.447408 6.81533 0
M  V30 12724 O 1161.54 1.12619 7.95972 0
M  V30 12725 H 1161.27 -0.237154 0.633035 0
M  V30 12726 H 1163.83 -0.0768976 2.05256 0
M  V30 12727 H 1162.06 -2.45387 2.98868 0
M  V30 12728 H 1163.75 -2.26988 3.36498 0
M  V30 12729 H 1164.51 -0.273621 4.84228 0
M  V30 12730 H 1160.39 -1.41267 4.38822 0
M  V30 12731 H 1163.94 0.942727 6.91201 0
M  V30 12732 H 1159.83 -0.202955 6.45181 0
M  V30 12733 H 1160.6 1.03308 8.11954 0
M  V30 12734 N 1163.26 -1.53291 -0.366026 0
M  V30 12735 C 1164.21 -1.80367 -1.4687 0
M  V30 12736 C 1165.21 -0.672767 -1.55468 0
M  V30 12737 O 1166.41 -0.8557 -1.5836 0
M  V30 12738 H 1162.79 -0.571076 -0.48926 0
M  V30 12739 H 1164.76 -2.72661 -1.21237 0
M  V30 12740 C 1163.51 -2.01008 -2.8371 0
M  V30 12741 H 1162.83 -2.87468 -2.77853 0
M  V30 12742 H 1164.27 -2.2393 -3.60043 0
M  V30 12743 C 1162.73 -0.789054 -3.27529 0
M  V30 12744 O 1163.26 0.0224712 -4.01694 0
M  V30 12745 N 1161.47 -0.612621 -2.84069 0
M  V30 12746 H 1161.01 -1.27416 -2.23881 0
M  V30 12747 H 1160.97 0.202943 -3.13744 0
M  V30 12748 N 1164.74 0.6258 -1.44643 0
M  V30 12749 C 1165.67 1.75086 -1.47911 0
M  V30 12750 C 1166.69 1.58496 -0.37188 0
M  V30 12751 O 1167.88 1.66712 -0.637925 0
M  V30 12752 C 1164.98 3.12874 -1.30243 0
M  V30 12753 C 1164.15 3.55873 -2.54309 0
M  V30 12754 C 1163.21 4.72558 -2.31464 0
M  V30 12755 O 1162.23 4.80599 -3.04981 0
M  V30 12756 N 1163.44 5.64617 -1.34862 0
M  V30 12757 H 1166.2 1.72751 -2.44902 0
M  V30 12758 H 1163.76 0.810531 -1.4015 0
M  V30 12759 H 1165.75 3.88663 -1.12798 0
M  V30 12760 H 1164.32 3.0982 -0.415966 0
M  V30 12761 H 1163.54 2.70237 -2.86994 0
M  V30 12762 H 1164.83 3.81355 -3.36817 0
M  V30 12763 H 1164.23 5.60819 -0.741542 0
M  V30 12764 H 1162.79 6.40013 -1.23394 0
M  V30 12765 N 1166.22 1.31629 0.866686 0
M  V30 12766 C 1167.64 1.10358 1.15296 0
M  V30 12767 C 1167.84 -0.123807 2.01119 0
M  V30 12768 O 1166.89 -0.81219 2.39081 0
M  V30 12769 C 1168.21 2.37684 1.84193 0
M  V30 12770 C 1169.75 2.43326 1.9688 0
M  V30 12771 C 1170.23 3.70541 2.69191 0
M  V30 12772 N 1171.72 3.71454 2.76724 0
M  V30 12773 C 1172.45 4.66585 3.33295 0
M  V30 12774 N 1171.95 5.72075 3.90771 0
M  V30 12775 N 1173.74 4.541 3.31284 0
M  V30 12776 H 1165.89 2.10343 0.29487 0
M  V30 12777 H 1168.16 0.928096 0.193239 0
M  V30 12778 H 1167.86 3.27352 1.28582 0
M  V30 12779 H 1167.74 2.47731 2.84445 0
M  V30 12780 H 1170.12 1.54124 2.51654 0
M  V30 12781 H 1170.21 2.3724 0.956596 0
M  V30 12782 H 1169.85 4.60111 2.15083 0
M  V30 12783 H 1169.78 3.73894 3.70825 0
M  V30 12784 H 1172.27 2.952 2.35936 0
M  V30 12785 H 1172.58 6.40738 4.32058 0
M  V30 12786 H 1170.93 5.75844 3.89138 0
M  V30 12787 H 1174.12 3.70861 2.85622 0
M  V30 12788 H 1174.29 5.28416 3.75074 0
M  V30 12789 N 1167.7 -1.08142 1.14644 0
M  V30 12790 C 1168.63 -2.14476 0.779437 0
M  V30 12791 C 1169.61 -1.60812 -0.240454 0
M  V30 12792 O 1170.79 -1.88059 -0.128881 0
M  V30 12793 C 1167.92 -3.38333 0.157692 0
M  V30 12794 C 1166.97 -4.10754 1.14819 0
M  V30 12795 S 1167.8 -4.63227 2.68666 0
M  V30 12796 C 1168.96 -5.90367 2.07888 0
M  V30 12797 H 1169.19 -2.45276 1.68009 0
M  V30 12798 H 1166.72 -1.20292 0.967942 0
M  V30 12799 H 1168.68 -4.10038 -0.194607 0
M  V30 12800 H 1167.34 -3.05726 -0.720435 0
M  V30 12801 H 1166.53 -4.99644 0.661226 0
M  V30 12802 H 1166.14 -3.44974 1.44462 0
M  V30 12803 H 1168.43 -6.62107 1.43599 0
M  V30 12804 H 1169.37 -6.43764 2.94913 0
M  V30 12805 H 1169.78 -5.43507 1.52514 0
M  V30 12806 N 1169.18 -0.941978 -1.26351 0
M  V30 12807 C 1170.43 -0.585711 -1.93009 0
M  V30 12808 C 1170.74 0.879507 -1.74711 0
M  V30 12809 O 1171.95 1.34518 -2.35833 0
M  V30 12810 C 1170.4 -0.996787 -3.45821 0
M  V30 12811 C 1170.01 -2.48367 -3.72851 0
M  V30 12812 C 1171.75 -0.712452 -4.18479 0
M  V30 12813 C 1169.66 -2.83341 -5.19107 0
M  V30 12814 H 1168.59 -0.215342 -0.722595 0
M  V30 12815 H 1171.24 -1.14472 -1.43417 0
M  V30 12816 H 1169.62 -0.366295 -3.94302 0
M  V30 12817 H 1170.8 -3.16328 -3.35072 0
M  V30 12818 H 1169.11 -2.74139 -3.13427 0
M  V30 12819 H 1171.71 -0.95007 -5.26192 0
M  V30 12820 H 1172.05 0.350811 -4.14819 0
M  V30 12821 H 1172.59 -1.3027 -3.75865 0
M  V30 12822 H 1169.32 -3.88633 -5.27868 0
M  V30 12823 H 1168.84 -2.20043 -5.5798 0
M  V30 12824 H 1170.52 -2.71849 -5.87118 0
M  V30 12825 N 1170.66 1.40747 -0.709091 0
M  V30 12826 C 1171.57 2.3454 -0.0532205 0
M  V30 12827 C 1172.58 1.56956 0.751057 0
M  V30 12828 O 1173.76 1.89375 0.685509 0
M  V30 12829 C 1170.82 3.35809 0.862157 0
M  V30 12830 C 1169.88 4.29273 0.0485632 0
M  V30 12831 C 1169.12 5.25705 0.920345 0
M  V30 12832 O 1169.34 5.27933 2.15969 0
M  V30 12833 O 1168.27 6.00806 0.3628 0
M  V30 12834 H 1172.1 2.92232 -0.826698 0
M  V30 12835 H 1169.68 1.4183 -0.469519 0
M  V30 12836 H 1171.57 3.97931 1.38668 0
M  V30 12837 H 1170.24 2.8054 1.61489 0
M  V30 12838 H 1169.15 3.70456 -0.520873 0
M  V30 12839 H 1170.48 4.87676 -0.665807 0
M  V30 12840 N 1172.13 0.454803 1.50895 0
M  V30 12841 C 1173.07 -0.383826 2.25963 0
M  V30 12842 C 1174.08 -0.971263 1.30653 0
M  V30 12843 O 1175.27 -0.862434 1.56283 0
M  V30 12844 C 1172.37 -1.55069 3.01342 0
M  V30 12845 C 1171.54 -1.07899 4.23883 0
M  V30 12846 C 1170.6 -2.118 4.81692 0
M  V30 12847 O 1169.63 -1.70523 5.43057 0
M  V30 12848 N 1170.83 -3.44459 4.67256 0
M  V30 12849 H 1173.59 0.259646 2.98573 0
M  V30 12850 H 1171.15 0.284661 1.59378 0
M  V30 12851 H 1173.15 -2.24236 3.36898 0
M  V30 12852 H 1171.72 -2.09917 2.31633 0
M  V30 12853 H 1170.94 -0.213773 3.9362 0
M  V30 12854 H 1172.22 -0.741501 5.03368 0
M  V30 12855 H 1171.62 -3.80716 4.18416 0
M  V30 12856 H 1170.18 -4.0947 5.07127 0
M  V30 12857 N 1173.61 -1.56489 0.186789 0
M  V30 12858 C 1174.54 -2.21705 -0.732739 0
M  V30 12859 C 1175.52 -1.17751 -1.22755 0
M  V30 12860 O 1176.71 -1.46231 -1.27789 0
M  V30 12861 C 1173.84 -2.86992 -1.95584 0
M  V30 12862 C 1172.79 -3.97118 -1.59628 0
M  V30 12863 C 1172.12 -4.49529 -2.89531 0
M  V30 12864 C 1173.42 -5.15941 -0.812518 0
M  V30 12865 H 1175.11 -2.98802 -0.189094 0
M  V30 12866 H 1172.66 -1.43722 -0.0895099 0
M  V30 12867 H 1174.61 -3.31295 -2.60426 0
M  V30 12868 H 1173.33 -2.07287 -2.52388 0
M  V30 12869 H 1171.99 -3.53494 -0.971475 0
M  V30 12870 H 1171.64 -3.66596 -3.44407 0
M  V30 12871 H 1171.34 -5.23832 -2.66221 0
M  V30 12872 H 1172.87 -4.96528 -3.55376 0
M  V30 12873 H 1174.28 -5.56841 -1.36386 0
M  V30 12874 H 1172.68 -5.96259 -0.677862 0
M  V30 12875 H 1173.75 -4.84535 0.188095 0
M  V30 12876 N 1175.09 0.086862 -1.5736 0
M  V30 12877 C 1176.04 1.10478 -2.02641 0
M  V30 12878 C 1177.01 1.39331 -0.904219 0
M  V30 12879 O 1178.19 1.50654 -1.17081 0
M  V30 12880 C 1175.33 2.41754 -2.4627 0
M  V30 12881 C 1174.44 2.19561 -3.72044 0
M  V30 12882 C 1173.58 3.44294 -4.04519 0
M  V30 12883 C 1172.62 3.17399 -5.23378 0
M  V30 12884 N 1171.76 4.3442 -5.51564 0
M  V30 12885 H 1176.6 0.711663 -2.89378 0
M  V30 12886 H 1174.13 0.339856 -1.4312 0
M  V30 12887 H 1176.09 3.18378 -2.69613 0
M  V30 12888 H 1174.72 2.78896 -1.62532 0
M  V30 12889 H 1173.77 1.337 -3.5613 0
M  V30 12890 H 1175.08 1.95685 -4.58812 0
M  V30 12891 H 1174.24 4.29321 -4.28682 0
M  V30 12892 H 1172.98 3.71232 -3.16289 0
M  V30 12893 H 1171.98 2.30765 -4.99026 0
M  V30 12894 H 1173.21 2.91799 -6.13213 0
M  V30 12895 H 1171.15 4.61418 -4.66293 0
M  V30 12896 H 1171.07 4.13764 -6.3272 0
M  V30 12897 H 1172.34 5.20489 -5.80269 0
M  V30 12898 N 1176.57 1.53483 0.357892 0
M  V30 12899 C 1177.81 1.70289 1.10134 0
M  V30 12900 C 1178.15 0.457296 1.88739 0
M  V30 12901 O 1177.42 -0.545527 1.86693 0
M  V30 12902 C 1177.7 2.95755 2.05429 0
M  V30 12903 C 1177.56 4.30489 1.30382 0
M  V30 12904 C 1178.88 3.16844 3.05447 0
M  V30 12905 H 1176 0.61965 0.399003 0
M  V30 12906 H 1178.64 1.86133 0.381357 0
M  V30 12907 H 1176.79 2.82377 2.66825 0
M  V30 12908 H 1178.46 4.55692 0.71711 0
M  V30 12909 H 1176.7 4.2955 0.605712 0
M  V30 12910 H 1177.37 5.14427 2.00171 0
M  V30 12911 H 1179.85 3.29458 2.54159 0
M  V30 12912 H 1178.73 4.06053 3.69341 0
M  V30 12913 H 1178.99 2.32476 3.76041 0
M  V30 12914 N 1178.05 -0.61812 1.44973 0
M  V30 12915 C 1179.46 -0.937734 1.29146 0
M  V30 12916 C 1179.66 -2.00104 0.236749 0
M  V30 12917 O 1178.72 -2.49731 -0.372923 0
M  V30 12918 C 1180.03 -1.38865 2.66715 0
M  V30 12919 C 1181.58 -1.50343 2.74529 0
M  V30 12920 C 1182.05 -1.98814 4.12598 0
M  V30 12921 N 1183.54 -2.06064 4.14839 0
M  V30 12922 C 1184.28 -2.44768 5.18533 0
M  V30 12923 N 1183.78 -2.82516 6.32579 0
M  V30 12924 N 1185.57 -2.45016 5.05889 0
M  V30 12925 H 1177.72 0.084872 2.1223 0
M  V30 12926 H 1179.98 -0.0246744 0.947679 0
M  V30 12927 H 1179.69 -0.681583 3.45032 0
M  V30 12928 H 1179.56 -2.3572 2.94475 0
M  V30 12929 H 1181.95 -2.20144 1.96522 0
M  V30 12930 H 1182.03 -0.518297 2.50494 0
M  V30 12931 H 1181.67 -1.29604 4.91086 0
M  V30 12932 H 1181.6 -2.98223 4.34017 0
M  V30 12933 H 1184.1 -1.79525 3.32535 0
M  V30 12934 H 1184.41 -3.109 7.07504 0
M  V30 12935 H 1182.75 -2.80237 6.35997 0
M  V30 12936 H 1185.94 -2.14925 4.15842 0
M  V30 12937 H 1186.12 -2.74854 5.86821 0
M  V30 12938 N 1179.52 -1.32087 -0.859693 0
M  V30 12939 C 1180.46 -1.16426 -1.97428 0
M  V30 12940 C 1181.47 -0.100582 -1.62489 0
M  V30 12941 O 1182.66 -0.349063 -1.75054 0
M  V30 12942 C 1179.76 -0.758822 -3.30295 0
M  V30 12943 C 1178.93 -1.90971 -3.93508 0
M  V30 12944 C 1177.99 -1.48865 -5.04704 0
M  V30 12945 O 1177.02 -2.1999 -5.2497 0
M  V30 12946 N 1178.22 -0.38182 -5.79243 0
M  V30 12947 H 1180.98 -2.12433 -2.11406 0
M  V30 12948 H 1178.54 -1.24558 -1.03426 0
M  V30 12949 H 1180.54 -0.459643 -4.02081 0
M  V30 12950 H 1179.11 0.109944 -3.12407 0
M  V30 12951 H 1178.33 -2.37566 -3.14573 0
M  V30 12952 H 1179.61 -2.68032 -4.32477 0
M  V30 12953 H 1179.01 0.210268 -5.65309 0
M  V30 12954 H 1177.57 -0.142224 -6.51645 0
M  V30 12955 N 1181 1.07532 -1.15215 0
M  V30 12956 C 1181.93 2.14598 -0.805006 0
M  V30 12957 C 1182.95 1.61778 0.182152 0
M  V30 12958 O 1184.14 1.78453 -0.040834 0
M  V30 12959 C 1181.24 3.38444 -0.175736 0
M  V30 12960 C 1180.41 4.20621 -1.19986 0
M  V30 12961 C 1179.47 5.22851 -0.592705 0
M  V30 12962 O 1178.49 5.55121 -1.25815 0
M  V30 12963 N 1179.7 5.7711 0.626425 0
M  V30 12964 H 1182.46 2.44981 -1.7264 0
M  V30 12965 H 1180.02 1.23423 -1.04778 0
M  V30 12966 H 1182.01 4.03969 0.243166 0
M  V30 12967 H 1180.58 3.0579 0.64896 0
M  V30 12968 H 1179.8 3.50941 -1.79539 0
M  V30 12969 H 1181.09 4.72339 -1.89139 0
M  V30 12970 H 1180.49 5.53139 1.18546 0
M  V30 12971 H 1179.05 6.44273 0.98771 0
M  V30 12972 N 1182.48 0.948665 1.2585 0
M  V30 12973 C 1183.41 0.421458 2.25292 0
M  V30 12974 C 1184.43 -0.459389 1.56184 0
M  V30 12975 O 1185.61 -0.268627 1.76467 0
M  V30 12976 C 1182.71 -0.412653 3.36378 0
M  V30 12977 C 1181.89 0.453792 4.3504 0
M  V30 12978 C 1180.95 -0.321127 5.25219 0
M  V30 12979 O 1179.97 0.278424 5.68519 0
M  V30 12980 N 1181.17 -1.61576 5.5756 0
M  V30 12981 H 1183.94 1.27636 2.71162 0
M  V30 12982 H 1181.5 0.818367 1.39694 0
M  V30 12983 H 1183.49 -0.938637 3.93664 0
M  V30 12984 H 1182.06 -1.16839 2.89944 0
M  V30 12985 H 1181.28 1.16093 3.76718 0
M  V30 12986 H 1182.57 1.04538 4.97945 0
M  V30 12987 H 1181.97 -2.12488 5.24276 0
M  V30 12988 H 1180.53 -2.08783 6.17457 0
M  V30 12989 N 1183.96 -1.40369 0.716545 0
M  V30 12990 C 1184.87 -2.34508 0.065658 0
M  V30 12991 C 1185.88 -1.57352 -0.742723 0
M  V30 12992 O 1187.06 -1.89735 -0.675456 0
M  V30 12993 C 1184.13 -3.36262 -0.844337 0
M  V30 12994 C 1183.19 -4.29292 -0.0257971 0
M  V30 12995 C 1182.42 -5.26185 -0.892452 0
M  V30 12996 O 1182.64 -5.29071 -2.13166 0
M  V30 12997 O 1181.58 -6.0099 -0.330933 0
M  V30 12998 H 1185.4 -2.91789 0.842184 0
M  V30 12999 H 1182.99 -1.41579 0.477034 0
M  V30 13000 H 1184.87 -3.98661 -1.36555 0
M  V30 13001 H 1183.54 -2.81393 -1.59999 0
M  V30 13002 H 1182.45 -3.70175 0.540512 0
M  V30 13003 H 1183.78 -4.87316 0.69166 0
M  V30 13004 N 1185.44 -0.462799 -1.50652 0
M  V30 13005 C 1186.38 0.335664 -2.28346 0
M  V30 13006 C 1187.35 0.994541 -1.33034 0
M  V30 13007 O 1188.54 1.00857 -1.61964 0
M  V30 13008 C 1185.68 1.41648 -3.1469 0
M  V30 13009 C 1184.79 0.773207 -4.25024 0
M  V30 13010 C 1183.93 1.83121 -4.98638 0
M  V30 13011 C 1182.97 1.16774 -6.00858 0
M  V30 13012 N 1182.1 2.16823 -6.67782 0
M  V30 13013 H 1186.94 -0.333202 -2.96131 0
M  V30 13014 H 1184.48 -0.176166 -1.46041 0
M  V30 13015 H 1186.44 2.05468 -3.63096 0
M  V30 13016 H 1185.07 2.05462 -2.48968 0
M  V30 13017 H 1184.12 0.0226444 -3.80393 0
M  V30 13018 H 1185.43 0.249061 -4.98178 0
M  V30 13019 H 1184.59 2.54543 -5.5072 0
M  V30 13020 H 1183.32 2.38915 -4.25172 0
M  V30 13021 H 1182.33 0.439112 -5.48044 0
M  V30 13022 H 1183.55 0.616809 -6.76293 0
M  V30 13023 H 1181.5 2.71649 -5.97112 0
M  V30 13024 H 1181.42 1.69371 -7.36783 0
M  V30 13025 H 1182.69 2.8765 -7.24484 0
M  V30 13026 N 1186.91 1.56388 -0.195085 0
M  V30 13027 C 1187.88 2.17859 0.712053 0
M  V30 13028 C 1188.88 1.13304 1.141 0
M  V30 13029 O 1190.07 1.38689 1.05409 0
M  V30 13030 C 1187.2 2.78065 1.97213 0
M  V30 13031 H 1188.39 2.9938 0.176529 0
M  V30 13032 H 1185.95 1.56205 0.0545322 0
M  V30 13033 H 1186.68 2.00342 2.55017 0
M  V30 13034 H 1186.47 3.54603 1.67329 0
M  V30 13035 H 1187.96 3.25266 2.619 0
M  V30 13036 N 1188.39 -0.0785156 1.57404 0
M  V30 13037 C 1189.81 -0.433143 1.5361 0
M  V30 13038 C 1190.01 -1.79564 0.914283 0
M  V30 13039 O 1189.06 -2.47215 0.513899 0
M  V30 13040 C 1190.38 -0.380387 2.98284 0
M  V30 13041 C 1191.93 -0.461056 3.09586 0
M  V30 13042 C 1192.4 -0.438276 4.55898 0
M  V30 13043 N 1193.89 -0.498548 4.60509 0
M  V30 13044 C 1194.63 -0.503028 5.71189 0
M  V30 13045 N 1194.12 -0.462724 6.91253 0
M  V30 13046 N 1195.92 -0.549083 5.59412 0
M  V30 13047 H 1188.07 0.813724 1.96195 0
M  V30 13048 H 1190.33 0.304644 0.897717 0
M  V30 13049 H 1190.04 0.553932 3.4731 0
M  V30 13050 H 1189.91 -1.19313 3.57833 0
M  V30 13051 H 1192.3 -1.3858 2.60537 0
M  V30 13052 H 1192.38 0.380138 2.5296 0
M  V30 13053 H 1192.02 0.482588 5.05602 0
M  V30 13054 H 1191.95 -1.29691 5.1038 0
M  V30 13055 H 1194.44 -0.534219 3.74105 0
M  V30 13056 H 1194.76 -0.469883 7.7137 0
M  V30 13057 H 1193.1 -0.429515 6.93672 0
M  V30 13058 H 1196.29 -0.578215 4.64515 0
M  V30 13059 H 1196.46 -0.549105 6.45669 0
M  V30 13060 N 1189.87 -1.5367 -0.349747 0
M  V30 13061 C 1190.8 -1.84208 -1.43492 0
M  V30 13062 C 1191.78 -0.696725 -1.55177 0
M  V30 13063 O 1192.97 -0.948061 -1.69486 0
M  V30 13064 C 1190.1 -2.04613 -2.80625 0
M  V30 13065 C 1189.05 -3.20419 -2.83753 0
M  V30 13066 C 1188.38 -3.26147 -4.23713 0
M  V30 13067 C 1189.68 -4.58666 -2.49846 0
M  V30 13068 H 1191.37 -2.75087 -1.18185 0
M  V30 13069 H 1188.92 -1.32363 -0.567101 0
M  V30 13070 H 1190.87 -2.2456 -3.56582 0
M  V30 13071 H 1189.59 -1.10459 -3.07354 0
M  V30 13072 H 1188.25 -3.00318 -2.10249 0
M  V30 13073 H 1187.9 -2.29599 -4.47541 0
M  V30 13074 H 1187.6 -4.03963 -4.26717 0
M  V30 13075 H 1189.12 -3.48296 -5.0152 0
M  V30 13076 H 1190.54 -4.78668 -3.15516 0
M  V30 13077 H 1188.94 -5.3884 -2.64144 0
M  V30 13078 H 1190.01 -4.62697 -1.4505 0
M  V30 13079 N 1191.35 0.610423 -1.45298 0
M  V30 13080 C 1192.76 1.19234 -1.43667 0
M  V30 13081 C 1193.11 1.95523 -0.162794 0
M  V30 13082 O 1192.24 2.03507 0.735789 0
M  V30 13083 C 1192.83 2.16892 -2.60276 0
M  V30 13084 C 1191.39 2.70465 -2.61774 0
M  V30 13085 C 1190.54 1.45821 -2.35863 0
M  V30 13086 H 1193.49 0.399895 -1.53579 0
M  V30 13087 H 1193.51 2.99875 -2.34212 0
M  V30 13088 H 1193.02 1.61339 -3.52975 0
M  V30 13089 H 1191.12 3.29965 -1.73072 0
M  V30 13090 H 1191.23 3.15092 -3.60907 0
M  V30 13091 H 1189.6 1.74678 -1.85364 0
M  V30 13092 H 1190.38 0.921403 -3.30704 0
M  V30 13093 N 1192.83 1.32541 0.852676 0
M  V30 13094 C 1193.77 1.21643 1.96142 0
M  V30 13095 C 1194.74 0.0981496 1.6581 0
M  V30 13096 O 1195.93 0.27404 1.88822 0
M  V30 13097 C 1193.07 0.947483 3.31838 0
M  V30 13098 C 1192.18 2.15074 3.74656 0
M  V30 13099 C 1191.32 1.81711 4.99154 0
M  V30 13100 C 1190.36 2.98346 5.34468 0
M  V30 13101 N 1189.49 2.65062 6.50143 0
M  V30 13102 H 1194.33 2.16479 2.04795 0
M  V30 13103 H 1191.87 1.07664 1.00234 0
M  V30 13104 H 1193.83 0.772038 4.09994 0
M  V30 13105 H 1192.46 0.0359112 3.2278 0
M  V30 13106 H 1191.51 2.43639 2.92137 0
M  V30 13107 H 1192.82 3.02314 3.96747 0
M  V30 13108 H 1191.98 1.60729 5.85022 0
M  V30 13109 H 1190.71 0.916875 4.79004 0
M  V30 13110 H 1189.72 3.19956 4.47111 0
M  V30 13111 H 1190.94 3.89104 5.56574 0
M  V30 13112 H 1188.89 1.77582 6.31507 0
M  V30 13113 H 1188.81 3.45832 6.72262 0
M  V30 13114 H 1190.08 2.47516 7.39159 0
M  V30 13115 N 1194.3 -1.0692 1.15784 0
M  V30 13116 C 1195.55 -1.78983 0.929944 0
M  V30 13117 C 1195.87 -1.87884 -0.543969 0
M  V30 13118 O 1197.07 -2.56513 -0.889578 0
M  V30 13119 C 1195.53 -3.21657 1.61446 0
M  V30 13120 C 1195.14 -3.20943 3.12569 0
M  V30 13121 C 1196.88 -3.98299 1.46828 0
M  V30 13122 C 1194.79 -4.58298 3.73788 0
M  V30 13123 H 1193.72 -0.670809 0.344284 0
M  V30 13124 H 1196.37 -1.19975 1.38846 0
M  V30 13125 H 1194.75 -3.80885 1.08364 0
M  V30 13126 H 1195.92 -2.71334 3.72444 0
M  V30 13127 H 1194.24 -2.57799 3.26999 0
M  V30 13128 H 1196.84 -4.99822 1.89952 0
M  V30 13129 H 1197.18 -4.14213 0.416358 0
M  V30 13130 H 1197.71 -3.45577 1.97031 0
M  V30 13131 H 1194.45 -4.47588 4.789 0
M  V30 13132 H 1193.97 -5.08126 3.18698 0
M  V30 13133 H 1195.65 -5.27262 3.74972 0
M  V30 13134 N 1195.78 -0.955326 -1.25345 0
M  V30 13135 C 1196.71 -0.4334 -2.25065 0
M  V30 13136 C 1197.73 0.451099 -1.56425 0
M  V30 13137 O 1198.92 0.259265 -1.76607 0
M  V30 13138 C 1196.02 0.394809 -3.36592 0
M  V30 13139 C 1195.19 -0.476856 -4.34793 0
M  V30 13140 C 1194.25 0.293269 -5.25382 0
M  V30 13141 O 1193.27 -0.30857 -5.68363 0
M  V30 13142 N 1194.48 1.58617 -5.58409 0
M  V30 13143 H 1197.24 -1.29073 -2.70482 0
M  V30 13144 H 1194.8 -0.825764 -1.39258 0
M  V30 13145 H 1196.79 0.917747 -3.94157 0
M  V30 13146 H 1195.36 1.153 -2.90559 0
M  V30 13147 H 1194.58 -1.18089 -3.76097 0
M  V30 13148 H 1195.87 -1.07178 -4.97384 0
M  V30 13149 H 1195.27 2.09705 -5.25395 0
M  V30 13150 H 1193.83 2.05506 -6.18555 0
M  V30 13151 N 1197.26 1.39987 -0.723979 0
M  V30 13152 C 1198.68 1.54547 -0.398403 0
M  V30 13153 C 1198.88 1.69348 1.09194 0
M  V30 13154 O 1197.93 1.68778 1.87804 0
M  V30 13155 C 1199.25 2.76929 -1.1718 0
M  V30 13156 C 1200.79 2.90754 -1.15893 0
M  V30 13157 C 1201.27 4.16059 -1.91465 0
M  V30 13158 N 1202.76 4.23076 -1.88576 0
M  V30 13159 C 1203.5 5.18957 -2.43867 0
M  V30 13160 N 1202.99 6.20695 -3.0775 0
M  V30 13161 N 1204.78 5.11095 -2.33962 0
M  V30 13162 H 1196.94 1.28626 -1.69024 0
M  V30 13163 H 1199.2 0.6226 -0.714894 0
M  V30 13164 H 1198.9 2.72298 -2.22591 0
M  V30 13165 H 1198.78 3.69279 -0.768941 0
M  V30 13166 H 1201.17 2.94884 -0.112978 0
M  V30 13167 H 1201.25 1.99498 -1.60107 0
M  V30 13168 H 1200.89 4.12691 -2.96055 0
M  V30 13169 H 1200.82 5.06339 -1.44665 0
M  V30 13170 H 1203.31 3.50195 -1.42027 0
M  V30 13171 H 1203.62 6.90296 -3.47435 0
M  V30 13172 H 1201.97 6.21114 -3.11837 0
M  V30 13173 H 1205.16 4.30546 -1.83706 0
M  V30 13174 H 1205.33 5.85644 -2.77353 0
M  V30 13175 N 1198.74 0.470782 1.50404 0
M  V30 13176 C 1199.96 -0.084284 2.07229 0
M  V30 13177 C 1200.39 -1.32774 1.33239 0
M  V30 13178 O 1199.75 -1.77274 0.379971 0
M  V30 13179 C 1199.8 -0.351565 3.58882 0
M  V30 13180 O 1198.9 -1.43211 3.86736 0
M  V30 13181 H 1198.24 0.0128479 0.663876 0
M  V30 13182 H 1200.77 0.661735 1.93603 0
M  V30 13183 H 1200.78 -0.592151 4.0368 0
M  V30 13184 H 1199.46 0.557084 4.12152 0
M  V30 13185 H 1198.03 -1.17886 3.53776 0
M  V30 13186 N 1200.22 -1.56282 0.203376 0
M  V30 13187 C 1201.13 -2.23086 -0.725922 0
M  V30 13188 C 1202.14 -1.23258 -1.22814 0
M  V30 13189 O 1203.32 -1.5602 -1.27357 0
M  V30 13190 C 1200.38 -2.88358 -1.92485 0
M  V30 13191 C 1199.45 -4.03479 -1.46639 0
M  V30 13192 C 1198.68 -4.65629 -2.60816 0
M  V30 13193 O 1198.9 -4.2672 -3.78506 0
M  V30 13194 O 1197.84 -5.54949 -2.33056 0
M  V30 13195 H 1201.66 -3.03124 -0.18694 0
M  V30 13196 H 1199.25 -1.49377 -0.0262829 0
M  V30 13197 H 1201.13 -3.29623 -2.62539 0
M  V30 13198 H 1199.8 -2.11294 -2.45228 0
M  V30 13199 H 1198.71 -3.66821 -0.734396 0
M  V30 13200 H 1200.04 -4.82232 -0.985535 0
M  V30 13201 N 1201.7 0.070167 -1.57444 0
M  V30 13202 C 1202.94 0.767495 -1.8696 0
M  V30 13203 C 1203.26 1.78032 -0.795595 0
M  V30 13204 O 1202.53 1.95112 0.175566 0
M  V30 13205 H 1201.11 0.286443 -0.689898 0
M  V30 13206 H 1203.78 0.0458692 -1.94846 0
M  V30 13207 H 1202.87 1.28269 -2.84523 0
M  V30 13208 N 1203.17 1.53854 0.341593 0
M  V30 13209 C 1204.12 1.81979 1.41959 0
M  V30 13210 C 1205.09 0.665616 1.5218 0
M  V30 13211 O 1206.28 0.910246 1.67688 0
M  V30 13212 C 1203.42 2.03681 2.78583 0
M  V30 13213 C 1202.53 3.31389 2.77137 0
M  V30 13214 C 1201.66 3.43148 4.05491 0
M  V30 13215 C 1200.7 4.64799 3.98282 0
M  V30 13216 N 1199.84 4.73581 5.18329 0
M  V30 13217 H 1204.68 2.73953 1.17275 0
M  V30 13218 H 1202.22 1.35689 0.568062 0
M  V30 13219 H 1204.17 2.14253 3.57983 0
M  V30 13220 H 1202.8 1.15017 3.01614 0
M  V30 13221 H 1201.86 3.29649 1.89832 0
M  V30 13222 H 1203.17 4.20885 2.67689 0
M  V30 13223 H 1202.32 3.53163 4.93316 0
M  V30 13224 H 1201.06 2.51712 4.17723 0
M  V30 13225 H 1200.07 4.54859 3.08842 0
M  V30 13226 H 1201.29 5.57601 3.87631 0
M  V30 13227 H 1199.24 3.85055 5.31102 0
M  V30 13228 H 1199.15 5.57016 5.11145 0
M  V30 13229 H 1200.42 4.87908 6.0792 0
M  V30 13230 N 1204.65 -0.602709 1.4562 0
M  V30 13231 C 1205.88 -1.3881 1.53426 0
M  V30 13232 C 1206.29 -1.88046 0.16851 0
M  V30 13233 O 1205.65 -1.62493 -0.830791 0
M  V30 13234 C 1205.7 -2.58927 2.52268 0
M  V30 13235 O 1205.42 -2.11735 3.83536 0
M  V30 13236 C 1206.92 -3.51728 2.69819 0
M  V30 13237 H 1204.14 -0.424744 0.519455 0
M  V30 13238 H 1206.69 -0.73459 1.90851 0
M  V30 13239 H 1204.84 -3.20309 2.17902 0
M  V30 13240 H 1205.26 -2.89814 4.37159 0
M  V30 13241 H 1206.73 -4.32542 3.42945 0
M  V30 13242 H 1207.21 -4.02383 1.76024 0
M  V30 13243 H 1207.81 -2.96196 3.05202 0
M  V30 13244 N 1206.13 -1.32992 -0.845635 0
M  V30 13245 C 1207.55 -1.12179 -1.13526 0
M  V30 13246 C 1207.75 0.091795 -2.01291 0
M  V30 13247 O 1206.8 0.774051 -2.40343 0
M  V30 13248 C 1208.11 -2.40584 -1.80388 0
M  V30 13249 C 1209.66 -2.46427 -1.92984 0
M  V30 13250 C 1210.14 -3.74776 -2.63261 0
M  V30 13251 N 1211.63 -3.75809 -2.7078 0
M  V30 13252 C 1212.36 -4.71829 -3.2583 0
M  V30 13253 N 1211.86 -5.78219 -3.81621 0
M  V30 13254 N 1213.65 -4.59313 -3.24018 0
M  V30 13255 H 1205.8 -2.10786 -0.261369 0
M  V30 13256 H 1208.07 -0.931053 -0.17845 0
M  V30 13257 H 1207.77 -3.29357 -1.23357 0
M  V30 13258 H 1207.65 -2.52225 -2.80468 0
M  V30 13259 H 1210.03 -1.58108 -2.4917 0
M  V30 13260 H 1210.11 -2.38732 -0.918732 0
M  V30 13261 H 1209.76 -4.63474 -2.07736 0
M  V30 13262 H 1209.69 -3.79746 -3.6483 0
M  V30 13263 H 1212.18 -2.98916 -2.31209 0
M  V30 13264 H 1212.49 -6.47531 -4.2181 0
M  V30 13265 H 1210.84 -5.81962 -3.79927 0
M  V30 13266 H 1214.03 -3.75358 -2.79685 0
M  V30 13267 H 1214.2 -5.34316 -3.6662 0
M  V30 13268 N 1207.61 1.06304 -1.1635 0
M  V30 13269 C 1208.54 2.13209 -0.81346 0
M  V30 13270 C 1209.52 1.61174 0.21484 0
M  V30 13271 O 1210.7 1.8824 0.0989458 0
M  V30 13272 C 1207.83 3.38039 -0.211498 0
M  V30 13273 C 1206.88 4.08875 -1.21339 0
M  V30 13274 S 1207.71 4.58894 -2.76001 0
M  V30 13275 C 1208.86 5.86985 -2.17254 0
M  V30 13276 H 1209.1 2.42572 -1.7189 0
M  V30 13277 H 1206.63 1.18737 -0.986957 0
M  V30 13278 H 1208.59 4.10296 0.129349 0
M  V30 13279 H 1207.25 3.06834 0.671705 0
M  V30 13280 H 1206.44 4.98528 -0.740631 0
M  V30 13281 H 1206.04 3.42632 -1.49932 0
M  V30 13282 H 1208.34 6.59738 -1.54115 0
M  V30 13283 H 1209.28 6.38991 -3.05117 0
M  V30 13284 H 1209.69 5.41012 -1.61141 0
M  V30 13285 N 1209.09 0.96196 1.24836 0
M  V30 13286 C 1210.05 0.492443 2.23847 0
M  V30 13287 C 1211.05 -0.40788 1.55541 0
M  V30 13288 O 1212.24 -0.204143 1.73 0
M  V30 13289 C 1209.37 -0.287578 3.39685 0
M  V30 13290 H 1210.56 1.36767 2.66899 0
M  V30 13291 H 1208.12 0.745967 1.3735 0
M  V30 13292 H 1208.85 -1.18015 3.02064 0
M  V30 13293 H 1208.64 0.358431 3.90458 0
M  V30 13294 H 1210.13 -0.605297 4.1319 0
M  V30 13295 N 1210.56 -1.39601 0.731392 0
M  V30 13296 C 1211.5 -2.28169 0.0378735 0
M  V30 13297 C 1212.47 -1.44195 -0.751434 0
M  V30 13298 O 1213.66 -1.7359 -0.734753 0
M  V30 13299 C 1210.79 -3.24999 -0.953589 0
M  V30 13300 C 1209.83 -4.25748 -0.253203 0
M  V30 13301 S 1210.66 -5.25496 1.03025 0
M  V30 13302 C 1211.82 -6.25886 0.0412927 0
M  V30 13303 H 1212.05 -2.8664 0.788973 0
M  V30 13304 H 1209.59 -1.45271 0.523044 0
M  V30 13305 H 1211.54 -3.81308 -1.52035 0
M  V30 13306 H 1210.21 -2.65554 -1.6775 0
M  V30 13307 H 1209.4 -4.93913 -1.00328 0
M  V30 13308 H 1209 -3.7322 0.241426 0
M  V30 13309 H 1211.29 -6.72757 -0.800305 0
M  V30 13310 H 1212.24 -7.0473 0.68999 0
M  V30 13311 H 1212.64 -5.63538 -0.329495 0
M  V30 13312 N 1212.04 -0.478751 -1.50152 0
M  V30 13313 C 1213.27 0.0709455 -2.06478 0
M  V30 13314 C 1213.68 1.33376 -1.34192 0
M  V30 13315 O 1213.02 1.79133 -0.40707 0
M  V30 13316 C 1213.09 0.417322 -3.5707 0
M  V30 13317 C 1212.75 -0.744563 -4.50894 0
M  V30 13318 C 1213.75 -1.62879 -4.93727 0
M  V30 13319 C 1211.43 -0.937062 -4.93482 0
M  V30 13320 C 1213.43 -2.68985 -5.77863 0
M  V30 13321 C 1211.11 -2.00134 -5.77399 0
M  V30 13322 C 1212.11 -2.87609 -6.19492 0
M  V30 13323 O 1211.8 -3.92203 -7.01735 0
M  V30 13324 H 1211.53 -0.00720177 -0.675962 0
M  V30 13325 H 1214.08 -0.668797 -1.94207 0
M  V30 13326 H 1212.31 1.21036 -3.6727 0
M  V30 13327 H 1214 0.903002 -3.95728 0
M  V30 13328 H 1214.77 -1.49179 -4.61488 0
M  V30 13329 H 1210.65 -0.265636 -4.60234 0
M  V30 13330 H 1214.19 -3.37293 -6.10639 0
M  V30 13331 H 1210.09 -2.13837 -6.09052 0
M  V30 13332 H 1210.86 -3.89284 -7.2 0
M  V30 13333 N 1213.52 1.56172 -0.211661 0
M  V30 13334 C 1214.47 2.19849 0.702515 0
M  V30 13335 C 1215.44 1.15091 1.19763 0
M  V30 13336 O 1216.62 1.43408 1.25852 0
M  V30 13337 C 1213.76 2.87468 1.90935 0
M  V30 13338 C 1212.88 4.06794 1.45406 0
M  V30 13339 C 1212.01 4.62224 2.61769 0
M  V30 13340 C 1211.05 5.73872 2.12926 0
M  V30 13341 N 1210.19 6.23635 3.22526 0
M  V30 13342 H 1215.03 2.97608 0.152777 0
M  V30 13343 H 1212.56 1.46962 0.0636596 0
M  V30 13344 H 1214.52 3.24851 2.61777 0
M  V30 13345 H 1213.15 2.12244 2.43213 0
M  V30 13346 H 1212.2 3.74962 0.640907 0
M  V30 13347 H 1213.52 4.87497 1.05584 0
M  V30 13348 H 1212.67 5.01999 3.40709 0
M  V30 13349 H 1211.41 3.80662 3.04873 0
M  V30 13350 H 1210.41 5.33609 1.32445 0
M  V30 13351 H 1211.64 6.57262 1.70833 0
M  V30 13352 H 1209.58 5.44991 3.65131 0
M  V30 13353 H 1209.5 6.99435 2.86926 0
M  V30 13354 H 1210.77 6.68066 4.01631 0
M  V30 13355 N 1215 -0.0618163 1.57479 0
M  V30 13356 C 1215.95 -1.0724 2.04373 0
M  V30 13357 C 1216.92 -1.37875 0.926271 0
M  V30 13358 O 1218.1 -1.48772 1.19463 0
M  V30 13359 C 1215.24 -2.37805 2.50085 0
M  V30 13360 C 1214.35 -2.13614 3.7549 0
M  V30 13361 C 1213.49 -3.37814 4.09945 0
M  V30 13362 C 1212.53 -3.09032 5.28361 0
M  V30 13363 N 1211.66 -4.25591 5.58406 0
M  V30 13364 H 1216.5 -0.665536 2.90473 0
M  V30 13365 H 1214.04 -0.317043 1.43643 0
M  V30 13366 H 1216 -3.14048 2.74644 0
M  V30 13367 H 1214.63 -2.76275 1.66948 0
M  V30 13368 H 1213.68 -1.28017 3.58212 0
M  V30 13369 H 1214.99 -1.88361 4.61867 0
M  V30 13370 H 1214.15 -4.22447 4.35458 0
M  V30 13371 H 1212.89 -3.66153 3.22154 0
M  V30 13372 H 1211.89 -2.22797 5.02635 0
M  V30 13373 H 1213.12 -2.82006 6.17778 0
M  V30 13374 H 1211.06 -4.53941 4.73575 0
M  V30 13375 H 1210.98 -4.03646 6.39223 0
M  V30 13376 H 1212.25 -5.11191 5.88476 0
M  V30 13377 N 1216.48 -1.54033 -0.333429 0
M  V30 13378 C 1217.7 -1.76031 -1.09672 0
M  V30 13379 C 1218.13 -0.502844 -1.81254 0
M  V30 13380 O 1217.48 0.54509 -1.72912 0
M  V30 13381 C 1217.53 -2.947 -2.07809 0
M  V30 13382 O 1216.64 -2.65555 -3.15522 0
M  V30 13383 H 1215.98 -0.583611 -0.316692 0
M  V30 13384 H 1218.51 -2.01026 -0.380732 0
M  V30 13385 H 1218.52 -3.21771 -2.50853 0
M  V30 13386 H 1217.19 -3.85895 -1.55106 0
M  V30 13387 H 1215.77 -2.49403 -2.77223 0
M  V30 13388 N 1217.95 0.594978 -1.45938 0
M  V30 13389 C 1218.88 1.71536 -1.58422 0
M  V30 13390 C 1219.87 1.64441 -0.435116 0
M  V30 13391 O 1221.05 1.82647 -0.659839 0
M  V30 13392 C 1218.18 3.10163 -1.56257 0
M  V30 13393 C 1217.13 3.3208 -2.70013 0
M  V30 13394 C 1216.46 4.71108 -2.52905 0
M  V30 13395 C 1217.76 3.21105 -4.11933 0
M  V30 13396 H 1219.45 1.61344 -2.52207 0
M  V30 13397 H 1217 0.774791 -1.2138 0
M  V30 13398 H 1218.95 3.88352 -1.63587 0
M  V30 13399 H 1217.68 3.21225 -0.590093 0
M  V30 13400 H 1216.34 2.56286 -2.62132 0
M  V30 13401 H 1215.98 4.7892 -1.53768 0
M  V30 13402 H 1215.68 4.86727 -3.29197 0
M  V30 13403 H 1217.21 5.51482 -2.62107 0
M  V30 13404 H 1218.62 3.89153 -4.2099 0
M  V30 13405 H 1217.02 3.4825 -4.88715 0
M  V30 13406 H 1218.09 2.18359 -4.32952 0
M  V30 13407 N 1219.43 1.33438 0.838571 0
M  V30 13408 C 1220.38 1.20285 1.93689 0
M  V30 13409 C 1221.37 0.105686 1.60553 0
M  V30 13410 O 1222.56 0.333814 1.73824 0
M  V30 13411 C 1219.69 0.944544 3.3005 0
M  V30 13412 C 1218.77 2.08416 3.69356 0
M  V30 13413 N 1219.16 3.33415 3.80353 0
M  V30 13414 C 1217.46 1.99092 3.99097 0
M  V30 13415 C 1218.16 4.08159 4.14465 0
M  V30 13416 N 1217.14 3.36601 4.2685 0
M  V30 13417 H 1220.94 2.1503 2.00348 0
M  V30 13418 H 1218.46 1.2545 1.03131 0
M  V30 13419 H 1220.45 0.831242 4.08529 0
M  V30 13420 H 1219.11 0.00562273 3.247 0
M  V30 13421 H 1220.12 3.68159 3.64252 0
M  V30 13422 H 1216.8 1.12861 4.01956 0
M  V30 13423 H 1218.19 5.16027 4.30308 0
M  V30 13424 N 1220.91 -1.05686 1.16912 0
M  V30 13425 C 1222.16 -1.77987 0.948875 0
M  V30 13426 C 1222.47 -1.8845 -0.524011 0
M  V30 13427 O 1223.68 -2.57442 -0.862322 0
M  V30 13428 C 1222.13 -3.19927 1.64848 0
M  V30 13429 C 1221.74 -3.1761 3.15956 0
M  V30 13430 C 1223.49 -3.96719 1.51044 0
M  V30 13431 C 1221.39 -4.54307 3.78628 0
M  V30 13432 H 1220.32 -0.667119 0.35138 0
M  V30 13433 H 1222.97 -1.18496 1.40111 0
M  V30 13434 H 1221.36 -3.79714 1.12397 0
M  V30 13435 H 1222.53 -2.67369 3.75301 0
M  V30 13436 H 1220.85 -2.54317 3.29715 0
M  V30 13437 H 1223.44 -4.97779 1.95243 0
M  V30 13438 H 1223.79 -4.13748 0.460268 0
M  V30 13439 H 1224.32 -3.43468 2.00685 0
M  V30 13440 H 1221.06 -4.42484 4.8362 0
M  V30 13441 H 1220.58 -5.04717 3.24069 0
M  V30 13442 H 1222.26 -5.23255 3.80543 0
M  V30 13443 N 1222.39 -0.968567 -1.24324 0
M  V30 13444 C 1223.34 -0.491346 -2.27351 0
M  V30 13445 C 1224.33 0.445563 -1.63435 0
M  V30 13446 O 1225.54 0.320758 -1.77119 0
M  V30 13447 H 1221.91 -0.14043 -0.738772 0
M  V30 13448 H 1223.88 -1.37224 -2.64976 0
M  V30 13449 C 1222.63 0.202093 -3.47112 0
M  V30 13450 H 1221.95 -0.50973 -3.96537 0
M  V30 13451 H 1223.39 0.499815 -4.21044 0
M  V30 13452 C 1221.85 1.42937 -3.05075 0
M  V30 13453 O 1222.38 2.52635 -3.12312 0
M  V30 13454 N 1220.59 1.29572 -2.60114 0
M  V30 13455 H 1220.14 0.403169 -2.54425 0
M  V30 13456 H 1220.09 2.118 -2.32353 0
M  V30 13457 N 1223.87 1.39211 -0.738786 0
M  V30 13458 C 1225.11 2.0004 -0.28782 0
M  V30 13459 C 1225.44 1.58921 1.13 0
M  V30 13460 O 1224.71 0.839193 1.77015 0
M  V30 13461 H 1223.29 0.739805 -0.103425 0
M  V30 13462 H 1225.95 1.70202 -0.949587 0
M  V30 13463 H 1225.04 3.10251 -0.339208 0
M  V30 13464 N 1225.34 0.486708 1.49896 0
M  V30 13465 C 1226.59 -0.0627279 2.02003 0
M  V30 13466 C 1226.91 -1.38799 1.36967 0
M  V30 13467 O 1226.18 -1.88868 0.520173 0
M  V30 13468 H 1224.76 -0.0261718 0.746541 0
M  V30 13469 H 1227.43 0.640692 1.84068 0
M  V30 13470 H 1226.52 -0.202856 3.1144 0
M  V30 13471 N 1226.82 -1.56058 0.219941 0
M  V30 13472 C 1228.07 -1.97869 -0.411383 0
M  V30 13473 C 1228.39 -1.10878 -1.60409 0
M  V30 13474 O 1227.66 -0.185454 -1.9502 0
M  V30 13475 H 1226.24 -0.730747 -0.154979 0
M  V30 13476 H 1228.9 -1.92379 0.312461 0
M  V30 13477 H 1228 -3.0323 -0.738798 0
M  V30 13478 N 1228.3 0.053464 -1.57509 0
M  V30 13479 C 1229.53 0.765301 -1.92764 0
M  V30 13480 C 1229.95 1.69385 -0.817943 0
M  V30 13481 O 1229.31 1.7986 0.228075 0
M  V30 13482 C 1229.36 1.51938 -3.27028 0
M  V30 13483 O 1228.46 2.63121 -3.17555 0
M  V30 13484 H 1227.8 0.207567 -0.630723 0
M  V30 13485 H 1230.33 0.0162254 -2.04594 0
M  V30 13486 H 1230.34 1.89466 -3.6134 0
M  V30 13487 H 1229.02 0.838207 -4.07366 0
M  V30 13488 H 1227.59 2.28316 -2.94832 0
M  V30 13489 N 1229.78 1.54207 0.325255 0
M  V30 13490 C 1230.74 1.82757 1.38321 0
M  V30 13491 C 1231.74 0.699312 1.44797 0
M  V30 13492 O 1232.93 0.96762 1.44854 0
M  V30 13493 C 1230.06 1.98608 2.7707 0
M  V30 13494 H 1231.26 2.7728 1.14261 0
M  V30 13495 H 1228.81 1.45899 0.560647 0
M  V30 13496 H 1229.55 1.0629 3.06387 0
M  V30 13497 H 1229.33 2.80707 2.73763 0
M  V30 13498 H 1230.82 2.2215 3.53609 0
M  V30 13499 N 1231.26 -0.58723 1.46251 0
M  V30 13500 C 1232.22 -1.67863 1.5606 0
M  V30 13501 C 1233.22 -1.54715 0.438162 0
M  V30 13502 O 1234.41 -1.59415 0.702323 0
M  V30 13503 C 1231.54 -3.07262 1.47659 0
M  V30 13504 H 1232.74 -1.60525 2.53321 0
M  V30 13505 H 1230.29 -0.804691 1.33994 0
M  V30 13506 H 1231.02 -3.20159 0.5166 0
M  V30 13507 H 1230.81 -3.18213 2.29092 0
M  V30 13508 H 1232.3 -3.8672 1.57599 0
M  V30 13509 N 1232.74 -1.33881 -0.831482 0
M  V30 13510 C 1233.65 -1.26802 -1.97379 0
M  V30 13511 C 1234.66 -0.177233 -1.73095 0
M  V30 13512 O 1235.84 -0.402163 -1.97344 0
M  V30 13513 C 1232.9 -1.01474 -3.31517 0
M  V30 13514 C 1231.96 -2.19626 -3.68867 0
M  V30 13515 C 1231.2 -1.95497 -4.96605 0
M  V30 13516 O 1231.42 -0.908948 -5.63111 0
M  V30 13517 O 1230.35 -2.82226 -5.31632 0
M  V30 13518 H 1234.18 -2.22883 -2.06293 0
M  V30 13519 H 1231.76 -1.14001 -0.965613 0
M  V30 13520 H 1233.65 -0.890954 -4.11874 0
M  V30 13521 H 1232.32 -0.0842656 -3.2359 0
M  V30 13522 H 1231.23 -2.37561 -2.88991 0
M  V30 13523 H 1232.56 -3.11034 -3.81469 0
M  V30 13524 N 1234.21 1.05064 -1.1747 0
M  V30 13525 C 1235.15 2.12842 -0.850344 0
M  V30 13526 C 1236.16 1.62128 0.147796 0
M  V30 13527 O 1237.35 1.78327 -0.0786774 0
M  V30 13528 C 1234.45 3.37995 -0.247486 0
M  V30 13529 C 1233.62 4.17981 -1.28881 0
M  V30 13530 C 1232.68 5.21476 -0.703476 0
M  V30 13531 O 1231.71 5.52327 -1.37561 0
M  V30 13532 N 1232.91 5.78309 0.50387 0
M  V30 13533 H 1235.67 2.41264 -1.77797 0
M  V30 13534 H 1233.23 1.21172 -1.07373 0
M  V30 13535 H 1235.23 4.04394 0.157424 0
M  V30 13536 H 1233.8 3.07097 0.583952 0
M  V30 13537 H 1233.02 3.47054 -1.86942 0
M  V30 13538 H 1234.3 4.6822 -1.99116 0
M  V30 13539 H 1233.7 5.5553 1.06787 0
M  V30 13540 H 1232.26 6.46223 0.850828 0
M  V30 13541 N 1235.69 0.975146 1.23809 0
M  V30 13542 C 1237.11 0.682899 1.44252 0
M  V30 13543 C 1237.31 -0.752739 1.86912 0
M  V30 13544 O 1236.36 -1.52579 2.01186 0
M  V30 13545 C 1237.68 1.67335 2.49839 0
M  V30 13546 C 1239.22 1.6868 2.63659 0
M  V30 13547 C 1239.7 2.66542 3.72451 0
M  V30 13548 N 1241.19 2.65028 3.79887 0
M  V30 13549 C 1241.93 3.37421 4.63611 0
M  V30 13550 N 1241.42 4.19355 5.51465 0
M  V30 13551 N 1243.21 3.2621 4.57759 0
M  V30 13552 H 1235.37 1.9026 0.94418 0
M  V30 13553 H 1237.63 0.819543 0.476502 0
M  V30 13554 H 1237.33 2.69978 2.25399 0
M  V30 13555 H 1237.21 1.45201 3.48133 0
M  V30 13556 H 1239.6 0.667438 2.87453 0
M  V30 13557 H 1239.68 1.94878 1.65699 0
M  V30 13558 H 1239.32 3.68617 3.49405 0
M  V30 13559 H 1239.25 2.3762 4.69941 0
M  V30 13560 H 1241.74 2.05562 3.171 0
M  V30 13561 H 1242.05 4.71461 6.12327 0
M  V30 13562 H 1240.4 4.23447 5.51106 0
M  V30 13563 H 1243.59 2.61656 3.88142 0
M  V30 13564 H 1243.76 3.82889 5.22781 0
M  V30 13565 N 1237.17 -1.38817 0.746158 0
M  V30 13566 C 1238.08 -2.34316 0.115386 0
M  V30 13567 C 1239.1 -1.58892 -0.709179 0
M  V30 13568 O 1240.27 -1.91126 -0.635059 0
M  V30 13569 C 1237.34 -3.37977 -0.772821 0
M  V30 13570 C 1236.4 -4.2925 0.0652679 0
M  V30 13571 C 1235.63 -5.2796 -0.78064 0
M  V30 13572 O 1235.85 -5.33474 -2.01896 0
M  V30 13573 O 1234.79 -6.01556 -0.20338 0
M  V30 13574 H 1238.61 -2.89937 0.903887 0
M  V30 13575 H 1236.2 -1.40536 0.506958 0
M  V30 13576 H 1238.08 -4.01468 -1.28068 0
M  V30 13577 H 1236.76 -2.84723 -1.53994 0
M  V30 13578 H 1235.66 -3.68945 0.61891 0
M  V30 13579 H 1237 -4.85739 0.794871 0
M  V30 13580 N 1238.65 -0.49465 -1.49636 0
M  V30 13581 C 1239.59 0.287153 -2.29007 0
M  V30 13582 C 1240.56 0.966099 -1.35114 0
M  V30 13583 O 1241.75 0.973991 -1.64067 0
M  V30 13584 C 1238.89 1.34941 -3.17624 0
M  V30 13585 C 1238 0.682879 -4.26569 0
M  V30 13586 C 1237.14 1.72503 -5.0241 0
M  V30 13587 C 1236.18 1.04003 -6.032 0
M  V30 13588 N 1235.31 2.0261 -6.7223 0
M  V30 13589 H 1240.15 -0.395941 -2.95358 0
M  V30 13590 H 1237.69 -0.207103 -1.45635 0
M  V30 13591 H 1239.65 1.9772 -3.67372 0
M  V30 13592 H 1238.28 2.00135 -2.5327 0
M  V30 13593 H 1237.33 -0.0580477 -3.80356 0
M  V30 13594 H 1238.64 0.143334 -4.98594 0
M  V30 13595 H 1237.8 2.42804 -5.55996 0
M  V30 13596 H 1236.54 2.29843 -4.30144 0
M  V30 13597 H 1235.54 0.322765 -5.48852 0
M  V30 13598 H 1236.77 0.473219 -6.77449 0
M  V30 13599 H 1234.71 2.58922 -6.0274 0
M  V30 13600 H 1234.63 1.53704 -7.4021 0
M  V30 13601 H 1235.9 2.72218 -7.30423 0
M  V30 13602 N 1240.13 1.55939 -0.228214 0
M  V30 13603 C 1241.37 1.97652 0.402067 0
M  V30 13604 C 1241.69 1.11911 1.60422 0
M  V30 13605 O 1242.89 1.43552 2.30445 0
M  V30 13606 C 1241.35 3.51638 0.766724 0
M  V30 13607 C 1240.96 4.46092 -0.412991 0
M  V30 13608 C 1242.7 4.02049 1.36224 0
M  V30 13609 C 1240.61 5.91394 -0.0255281 0
M  V30 13610 H 1239.54 0.738107 0.153994 0
M  V30 13611 H 1242.19 1.8059 -0.32548 0
M  V30 13612 H 1240.57 3.64325 1.55188 0
M  V30 13613 H 1241.75 4.45156 -1.19049 0
M  V30 13614 H 1240.06 4.0606 -0.92218 0
M  V30 13615 H 1242.66 5.08111 1.66514 0
M  V30 13616 H 1243 3.48292 2.28032 0
M  V30 13617 H 1243.53 3.92612 0.640378 0
M  V30 13618 H 1240.27 6.49149 -0.910269 0
M  V30 13619 H 1239.79 5.95509 0.716149 0
M  V30 13620 H 1241.47 6.4577 0.398839 0
M  V30 13621 N 1241.6 -0.0451101 1.57535 0
M  V30 13622 C 1242.55 -1.05066 2.05499 0
M  V30 13623 C 1243.52 -1.36884 0.940843 0
M  V30 13624 O 1244.71 -1.47497 1.21034 0
M  V30 13625 C 1241.85 -2.35139 2.52594 0
M  V30 13626 C 1240.96 -2.0962 3.77735 0
M  V30 13627 C 1240.09 -3.33447 4.13505 0
M  V30 13628 C 1239.13 -3.03411 5.31609 0
M  V30 13629 N 1238.27 -4.19644 5.62888 0
M  V30 13630 H 1243.11 -0.63469 2.91163 0
M  V30 13631 H 1240.65 -0.30179 1.43971 0
M  V30 13632 H 1242.61 -3.11118 2.7796 0
M  V30 13633 H 1241.24 -2.74489 1.69869 0
M  V30 13634 H 1240.29 -1.24211 3.59549 0
M  V30 13635 H 1241.6 -1.83452 4.63839 0
M  V30 13636 H 1240.75 -4.17805 4.39914 0
M  V30 13637 H 1239.49 -3.62715 3.2602 0
M  V30 13638 H 1238.5 -2.17453 5.04969 0
M  V30 13639 H 1239.72 -2.75438 6.20734 0
M  V30 13640 H 1237.67 -4.48893 4.78363 0
M  V30 13641 H 1237.59 -3.96843 6.43468 0
M  V30 13642 H 1238.85 -5.04921 5.93865 0
M  V30 13643 N 1243.08 -1.54377 -0.317073 0
M  V30 13644 C 1244.01 -1.80563 -1.41172 0
M  V30 13645 C 1245.03 -0.687865 -1.47554 0
M  V30 13646 O 1246.22 -0.965084 -1.50161 0
M  V30 13647 C 1243.32 -1.9142 -2.79663 0
M  V30 13648 C 1242.49 -3.21655 -2.96407 0
M  V30 13649 C 1241.55 -3.23131 -4.15298 0
M  V30 13650 O 1240.57 -3.96741 -4.08149 0
M  V30 13651 N 1241.78 -2.47376 -5.25153 0
M  V30 13652 H 1244.54 -2.75032 -1.1907 0
M  V30 13653 H 1242.1 -1.53754 -0.507086 0
M  V30 13654 H 1244.09 -1.89828 -3.57418 0
M  V30 13655 H 1242.66 -1.0402 -2.94786 0
M  V30 13656 H 1241.88 -3.36154 -2.05899 0
M  V30 13657 H 1243.17 -4.07629 -3.04494 0
M  V30 13658 H 1242.57 -1.87173 -5.33838 0
M  V30 13659 H 1241.13 -2.51555 -6.01301 0
M  V30 13660 N 1244.56 0.579466 -1.4656 0
M  V30 13661 C 1245.81 1.33756 -1.52038 0
M  V30 13662 C 1246.14 1.93725 -0.173423 0
M  V30 13663 O 1245.39 1.77167 0.831293 0
M  V30 13664 C 1245.69 2.48417 -2.56951 0
M  V30 13665 C 1245.36 2.0642 -4.00876 0
M  V30 13666 C 1244.02 1.94682 -4.4006 0
M  V30 13667 C 1246.37 1.74066 -4.91274 0
M  V30 13668 C 1243.7 1.48852 -5.67503 0
M  V30 13669 C 1246.05 1.29714 -6.19158 0
M  V30 13670 C 1244.71 1.16555 -6.57245 0
M  V30 13671 H 1243.98 0.489447 -0.556347 0
M  V30 13672 H 1246.63 0.652176 -1.80053 0
M  V30 13673 H 1244.94 3.22416 -2.2261 0
M  V30 13674 H 1246.63 3.06629 -2.58418 0
M  V30 13675 H 1243.22 2.16492 -3.69904 0
M  V30 13676 H 1247.41 1.82019 -4.61717 0
M  V30 13677 H 1242.66 1.3731 -5.95782 0
M  V30 13678 H 1246.84 1.03734 -6.88631 0
M  V30 13679 H 1244.46 0.808193 -7.55892 0
M  V30 13680 N 1246.04 1.3432 0.824371 0
M  V30 13681 C 1247.26 1.2982 1.61745 0
M  V30 13682 C 1247.69 -0.125298 1.87682 0
M  V30 13683 O 1247.05 -1.08658 1.45131 0
M  V30 13684 C 1247.09 2.09327 2.93623 0
M  V30 13685 O 1246.2 1.4618 3.85623 0
M  V30 13686 H 1245.54 0.445929 0.491979 0
M  V30 13687 H 1248.07 1.77101 1.02452 0
M  V30 13688 H 1248.08 2.20629 3.43201 0
M  V30 13689 H 1246.75 3.12825 2.74069 0
M  V30 13690 H 1245.33 1.43611 3.44137 0
M  V30 13691 N 1247.52 -1.0444 1.18026 0
M  V30 13692 C 1248.45 -2.12388 0.86162 0
M  V30 13693 C 1249.46 -1.62204 -0.139196 0
M  V30 13694 O 1250.65 -1.78282 0.0881334 0
M  V30 13695 C 1247.75 -3.37859 0.265407 0
M  V30 13696 C 1246.92 -4.17292 1.31096 0
M  V30 13697 C 1245.98 -5.21096 0.731121 0
M  V30 13698 O 1245.01 -5.5159 1.40488 0
M  V30 13699 N 1246.21 -5.78568 -0.473194 0
M  V30 13700 H 1248.98 -2.40317 1.79074 0
M  V30 13701 H 1246.54 -1.20601 1.08014 0
M  V30 13702 H 1248.53 -4.04472 -0.135976 0
M  V30 13703 H 1247.1 -3.07403 -0.567658 0
M  V30 13704 H 1246.32 -3.46057 1.8878 0
M  V30 13705 H 1247.61 -4.67158 2.01596 0
M  V30 13706 H 1247 -5.56088 -1.03839 0
M  V30 13707 H 1245.56 -6.46665 -0.816545 0
M  V30 13708 N 1248.99 -0.981699 -1.2329 0
M  V30 13709 C 1249.93 -0.481042 -2.24095 0
M  V30 13710 C 1250.94 0.417818 -1.57347 0
M  V30 13711 O 1252.13 0.221746 -1.77117 0
M  V30 13712 C 1249.23 0.323324 -3.37354 0
M  V30 13713 C 1248.4 -0.568975 -4.33684 0
M  V30 13714 C 1247.46 0.181761 -5.25886 0
M  V30 13715 O 1246.49 -0.429059 -5.67581 0
M  V30 13716 N 1247.69 1.46737 -5.61648 0
M  V30 13717 H 1250.45 -1.34781 -2.67683 0
M  V30 13718 H 1248.01 -0.855117 -1.37475 0
M  V30 13719 H 1250.01 0.833934 -3.96015 0
M  V30 13720 H 1248.58 1.09111 -2.9294 0
M  V30 13721 H 1247.8 -1.2604 -3.73507 0
M  V30 13722 H 1249.08 -1.17704 -4.94998 0
M  V30 13723 H 1248.48 1.98513 -5.29725 0
M  V30 13724 H 1247.04 1.92339 -6.22775 0
M  V30 13725 N 1250.47 1.3842 -0.753509 0
M  V30 13726 C 1251.38 2.34252 -0.127811 0
M  V30 13727 C 1252.4 1.59266 0.700743 0
M  V30 13728 O 1253.57 1.9146 0.624914 0
M  V30 13729 C 1250.64 3.38382 0.754886 0
M  V30 13730 C 1249.7 4.2921 -0.0880312 0
M  V30 13731 C 1248.93 5.28367 0.75263 0
M  V30 13732 O 1249.16 5.34537 1.99064 0
M  V30 13733 O 1248.09 6.01656 0.171475 0
M  V30 13734 H 1251.92 2.89454 -0.91925 0
M  V30 13735 H 1249.5 1.40265 -0.514404 0
M  V30 13736 H 1251.38 4.02141 1.25938 0
M  V30 13737 H 1250.06 2.85536 1.52482 0
M  V30 13738 H 1248.97 3.68611 -0.638468 0
M  V30 13739 H 1250.3 4.85311 -0.82062 0
M  V30 13740 N 1251.95 0.502579 1.49372 0
M  V30 13741 C 1252.86 -0.279532 2.32929 0
M  V30 13742 C 1253.88 -0.965806 1.44735 0
M  V30 13743 O 1255.05 -0.946839 1.77755 0
M  V30 13744 C 1252.12 -1.32913 3.20211 0
M  V30 13745 C 1251.18 -0.656121 4.24256 0
M  V30 13746 C 1250.41 -1.65571 5.07368 0
M  V30 13747 O 1250.63 -2.88571 4.92019 0
M  V30 13748 O 1249.57 -1.21016 5.89609 0
M  V30 13749 H 1253.39 0.404427 3.00995 0
M  V30 13750 H 1250.98 0.263888 1.47051 0
M  V30 13751 H 1252.86 -1.93635 3.74277 0
M  V30 13752 H 1251.54 -1.99598 2.54837 0
M  V30 13753 H 1250.44 -0.00911489 3.74099 0
M  V30 13754 H 1251.78 -0.0316802 4.9219 0
M  V30 13755 N 1253.43 -1.55816 0.23648 0
M  V30 13756 C 1254.38 -2.20938 -0.66745 0
M  V30 13757 C 1255.35 -1.16982 -1.17917 0
M  V30 13758 O 1256.53 -1.45392 -1.23555 0
M  V30 13759 C 1253.67 -2.90469 -1.86337 0
M  V30 13760 C 1252.78 -4.09056 -1.38915 0
M  V30 13761 C 1251.92 -4.6633 -2.54382 0
M  V30 13762 C 1250.96 -5.77187 -2.0377 0
M  V30 13763 N 1250.09 -6.28688 -3.12564 0
M  V30 13764 H 1254.93 -2.97814 -0.105411 0
M  V30 13765 H 1252.47 -1.47045 -0.0402712 0
M  V30 13766 H 1254.43 -3.28975 -2.56576 0
M  V30 13767 H 1253.06 -2.16086 -2.39806 0
M  V30 13768 H 1252.11 -3.75934 -0.581173 0
M  V30 13769 H 1253.42 -4.89115 -0.978152 0
M  V30 13770 H 1252.58 -5.07355 -3.32679 0
M  V30 13771 H 1251.32 -3.85464 -2.98778 0
M  V30 13772 H 1250.32 -5.35648 -1.23939 0
M  V30 13773 H 1251.55 -6.59896 -1.60355 0
M  V30 13774 H 1249.49 -5.50731 -3.56414 0
M  V30 13775 H 1249.41 -7.03911 -2.75762 0
M  V30 13776 H 1250.68 -6.74371 -3.90952 0
M  V30 13777 N 1254.91 0.036755 -1.57557 0
M  V30 13778 C 1256.32 0.392264 -1.54704 0
M  V30 13779 C 1256.52 1.77076 -0.96157 0
M  V30 13780 O 1255.58 2.45766 -0.579263 0
M  V30 13781 C 1256.89 0.301168 -2.99188 0
M  V30 13782 C 1258.44 0.378813 -3.10699 0
M  V30 13783 C 1258.91 0.317249 -4.569 0
M  V30 13784 N 1260.41 0.376277 -4.61669 0
M  V30 13785 C 1261.14 0.351411 -5.72322 0
M  V30 13786 N 1260.64 0.279288 -6.92237 0
M  V30 13787 N 1262.43 0.400571 -5.60671 0
M  V30 13788 H 1254.58 -0.865455 -1.93968 0
M  V30 13789 H 1256.84 -0.328339 -0.889324 0
M  V30 13790 H 1256.55 -0.64582 -3.4572 0
M  V30 13791 H 1256.42 1.09784 -3.6087 0
M  V30 13792 H 1258.81 1.31623 -2.6412 0
M  V30 13793 H 1258.89 -0.447072 -2.51863 0
M  V30 13794 H 1258.54 -0.616469 -5.04145 0
M  V30 13795 H 1258.47 1.16114 -5.13639 0
M  V30 13796 H 1260.96 0.434843 -3.7539 0
M  V30 13797 H 1261.27 0.265202 -7.72345 0
M  V30 13798 H 1259.61 0.24545 -6.94566 0
M  V30 13799 H 1262.81 0.454854 -4.65885 0
M  V30 13800 H 1262.98 0.377724 -6.46898 0
M  V30 13801 N 1256.39 1.54543 0.308881 0
M  V30 13802 C 1257.32 1.81309 1.40212 0
M  V30 13803 C 1258.33 0.69568 1.47187 0
M  V30 13804 O 1259.52 0.973034 1.49647 0
M  V30 13805 C 1256.62 1.92901 2.78644 0
M  V30 13806 C 1255.79 3.23222 2.94697 0
M  V30 13807 C 1254.85 3.25329 4.13579 0
M  V30 13808 O 1253.88 3.989 4.06039 0
M  V30 13809 N 1255.08 2.50158 5.23833 0
M  V30 13810 H 1257.84 2.75659 1.1761 0
M  V30 13811 H 1255.41 1.54021 0.498925 0
M  V30 13812 H 1257.4 1.91721 3.56406 0
M  V30 13813 H 1255.97 1.05582 2.9423 0
M  V30 13814 H 1255.19 3.37241 2.04113 0
M  V30 13815 H 1256.48 4.09238 3.02328 0
M  V30 13816 H 1255.87 1.90002 5.32838 0
M  V30 13817 H 1254.43 2.5474 5.99959 0
M  V30 13818 N 1257.86 -0.571685 1.46866 0
M  V30 13819 C 1258.81 -1.67992 1.58263 0
M  V30 13820 C 1259.78 -1.60535 0.426345 0
M  V30 13821 O 1260.97 -1.79584 0.644534 0
M  V30 13822 C 1258.11 -3.06327 1.58927 0
M  V30 13823 C 1257.22 -3.24328 2.85369 0
M  V30 13824 C 1256.35 -4.52976 2.77464 0
M  V30 13825 C 1255.39 -4.64359 3.98795 0
M  V30 13826 N 1254.53 -5.84345 3.89211 0
M  V30 13827 H 1259.37 -1.57589 2.52922 0
M  V30 13828 H 1256.91 -0.767883 1.25467 0
M  V30 13829 H 1258.86 -3.86411 1.57296 0
M  V30 13830 H 1257.49 -3.15601 0.677912 0
M  V30 13831 H 1256.55 -2.37774 2.96931 0
M  V30 13832 H 1257.86 -3.28605 3.7526 0
M  V30 13833 H 1257.01 -5.41303 2.74001 0
M  V30 13834 H 1255.75 -4.51155 1.85231 0
M  V30 13835 H 1254.76 -3.74448 4.02578 0
M  V30 13836 H 1255.98 -4.6795 4.92137 0
M  V30 13837 H 1253.93 -5.835 2.99772 0
M  V30 13838 H 1253.84 -5.89938 4.72768 0
M  V30 13839 H 1255.11 -6.75072 3.89741 0
M  V30 13840 N 1259.34 -1.34755 -0.817236 0
M  V30 13841 C 1260.57 -1.30676 -1.61054 0
M  V30 13842 C 1260.99 0.115343 -1.87746 0
M  V30 13843 O 1260.35 1.07887 -1.45705 0
M  V30 13844 C 1260.4 -2.10881 -2.92509 0
M  V30 13845 O 1259.5 -1.48223 -3.84842 0
M  V30 13846 H 1258.84 -0.448531 -0.489608 0
M  V30 13847 H 1261.37 -1.77642 -1.01512 0
M  V30 13848 H 1261.38 -2.22446 -3.42026 0
M  V30 13849 H 1260.06 -3.14274 -2.72406 0
M  V30 13850 H 1258.63 -1.45434 -3.4337 0
M  V30 13851 N 1260.82 1.03812 -1.18578 0
M  V30 13852 C 1261.73 2.15371 -0.930182 0
M  V30 13853 C 1262.75 1.73673 0.106599 0
M  V30 13854 O 1263.92 2.01257 -0.0759054 0
M  V30 13855 C 1260.99 3.43606 -0.462151 0
M  V30 13856 C 1260.05 3.99671 -1.5672 0
M  V30 13857 C 1259.28 5.21785 -1.12141 0
M  V30 13858 O 1259.5 5.70397 0.0188357 0
M  V30 13859 O 1258.44 5.70449 -1.9202 0
M  V30 13860 H 1262.26 2.39791 -1.86371 0
M  V30 13861 H 1259.85 1.13814 -0.967819 0
M  V30 13862 H 1261.73 4.2088 -0.20934 0
M  V30 13863 H 1260.41 3.20654 0.443052 0
M  V30 13864 H 1259.31 3.23774 -1.87406 0
M  V30 13865 H 1260.65 4.2697 -2.44862 0
M  V30 13866 N 1262.3 0.988223 1.22768 0
M  V30 13867 C 1263.71 0.69816 1.4352 0
M  V30 13868 C 1263.91 -0.732872 1.877 0
M  V30 13869 O 1262.97 -1.50436 2.02793 0
M  V30 13870 C 1264.28 1.69975 2.4805 0
M  V30 13871 C 1265.83 1.71467 2.61855 0
M  V30 13872 C 1266.31 2.70477 3.69603 0
M  V30 13873 N 1267.8 2.69043 3.77055 0
M  V30 13874 C 1268.53 3.42319 4.60006 0
M  V30 13875 N 1268.03 4.2518 5.46986 0
M  V30 13876 N 1269.82 3.31047 4.54274 0
M  V30 13877 H 1261.97 1.91251 0.923948 0
M  V30 13878 H 1264.23 0.82455 0.467783 0
M  V30 13879 H 1263.94 2.72354 2.22523 0
M  V30 13880 H 1263.81 1.48885 3.46573 0
M  V30 13881 H 1266.2 0.697889 2.86729 0
M  V30 13882 H 1266.28 1.96625 1.63622 0
M  V30 13883 H 1265.93 3.72302 3.45476 0
M  V30 13884 H 1265.86 2.42591 4.67394 0
M  V30 13885 H 1268.35 2.08914 3.14902 0
M  V30 13886 H 1268.66 4.77929 6.07292 0
M  V30 13887 H 1267.01 4.29268 5.46584 0
M  V30 13888 H 1270.2 2.65758 3.85345 0
M  V30 13889 H 1270.37 3.88413 5.1869 0
M  V30 13890 N 1263.78 -1.38018 0.760839 0
M  V30 13891 C 1264.71 -2.32995 0.153557 0
M  V30 13892 C 1265.69 -1.55234 -0.695448 0
M  V30 13893 O 1266.87 -1.8352 -0.635148 0
M  V30 13894 C 1264 -3.39437 -0.734811 0
M  V30 13895 C 1262.96 -4.27998 0.0120287 0
M  V30 13896 C 1262.28 -5.25359 -0.995067 0
M  V30 13897 C 1263.58 -5.08687 1.18468 0
M  V30 13898 H 1265.28 -2.8403 0.946956 0
M  V30 13899 H 1262.82 -1.36562 0.456816 0
M  V30 13900 H 1264.77 -4.0485 -1.16938 0
M  V30 13901 H 1263.5 -2.86901 -1.56061 0
M  V30 13902 H 1262.16 -3.64102 0.427254 0
M  V30 13903 H 1261.81 -4.69108 -1.81512 0
M  V30 13904 H 1261.51 -5.85469 -0.499969 0
M  V30 13905 H 1263.03 -5.93648 -1.4288 0
M  V30 13906 H 1264.44 -5.67299 0.8273 0
M  V30 13907 H 1262.84 -5.78068 1.61112 0
M  V30 13908 H 1263.91 -4.42 1.99409 0
M  V30 13909 N 1265.25 -0.510493 -1.49103 0
M  V30 13910 C 1266.19 0.299697 -2.27232 0
M  V30 13911 C 1267.2 0.922102 -1.34168 0
M  V30 13912 O 1268.39 0.803836 -1.59376 0
M  V30 13913 C 1265.49 1.43778 -3.06889 0
M  V30 13914 C 1264.66 0.920927 -4.27595 0
M  V30 13915 C 1263.72 1.93777 -4.89221 0
M  V30 13916 O 1262.75 1.5025 -5.49011 0
M  V30 13917 N 1263.95 3.2688 -4.79718 0
M  V30 13918 H 1266.71 -0.37028 -2.97404 0
M  V30 13919 H 1264.27 -0.343617 -1.58212 0
M  V30 13920 H 1266.27 2.11577 -3.44988 0
M  V30 13921 H 1264.84 2.01175 -2.39264 0
M  V30 13922 H 1264.06 0.0675358 -3.94142 0
M  V30 13923 H 1265.34 0.554168 -5.05773 0
M  V30 13924 H 1264.74 3.64924 -4.32258 0
M  V30 13925 H 1263.3 3.90366 -5.21974 0
M  V30 13926 N 1266.73 1.55688 -0.24474 0
M  V30 13927 C 1267.66 2.18616 0.68844 0
M  V30 13928 C 1268.68 1.16185 1.14039 0
M  V30 13929 O 1269.87 1.43059 1.06754 0
M  V30 13930 C 1266.97 2.77375 1.94721 0
M  V30 13931 C 1266.14 4.05204 1.64706 0
M  V30 13932 C 1265.2 4.48302 2.75521 0
M  V30 13933 O 1264.22 5.14723 2.42999 0
M  V30 13934 N 1265.43 4.15907 4.04971 0
M  V30 13935 H 1268.19 2.99324 0.150018 0
M  V30 13936 H 1265.75 1.61771 -0.0646183 0
M  V30 13937 H 1267.74 3.03165 2.68091 0
M  V30 13938 H 1266.31 2.00837 2.39548 0
M  V30 13939 H 1265.53 3.87026 0.74865 0
M  V30 13940 H 1266.82 4.8855 1.42114 0
M  V30 13941 H 1266.22 3.62579 4.34227 0
M  V30 13942 H 1264.78 4.46538 4.74813 0
M  V30 13943 N 1268.21 -0.0283989 1.57574 0
M  V30 13944 C 1269.14 -1.05641 2.03403 0
M  V30 13945 C 1270.15 -1.32426 0.946953 0
M  V30 13946 O 1271.34 -1.29902 1.22425 0
M  V30 13947 C 1268.44 -2.39788 2.39489 0
M  V30 13948 C 1267.62 -2.32348 3.70585 0
M  V30 13949 C 1266.68 -3.4895 3.93853 0
M  V30 13950 O 1265.7 -3.28414 4.64901 0
M  V30 13951 N 1266.9 -4.7084 3.39543 0
M  V30 13952 H 1269.67 -0.665788 2.92211 0
M  V30 13953 H 1267.23 -0.21633 1.60448 0
M  V30 13954 H 1269.22 -3.16514 2.52193 0
M  V30 13955 H 1267.79 -2.70692 1.56348 0
M  V30 13956 H 1267.01 -1.40717 3.68229 0
M  V30 13957 H 1268.3 -2.24521 4.56582 0
M  V30 13958 H 1267.7 -4.90425 2.81956 0
M  V30 13959 H 1266.25 -5.44929 3.57625 0
M  V30 13960 N 1269.69 -1.54705 -0.300681 0
M  V30 13961 C 1270.62 -1.8205 -1.39249 0
M  V30 13962 C 1271.63 -0.703476 -1.46816 0
M  V30 13963 O 1272.82 -0.980957 -1.49129 0
M  V30 13964 C 1269.92 -1.94376 -2.77617 0
M  V30 13965 C 1269.09 -3.2478 -2.92979 0
M  V30 13966 C 1268.15 -3.27518 -4.11848 0
M  V30 13967 O 1267.18 -4.01047 -4.03918 0
M  V30 13968 N 1268.38 -2.52932 -5.22499 0
M  V30 13969 H 1271.15 -2.76279 -1.16146 0
M  V30 13970 H 1268.71 -1.54283 -0.49075 0
M  V30 13971 H 1270.7 -1.93609 -3.55384 0
M  V30 13972 H 1269.27 -1.07141 -2.93666 0
M  V30 13973 H 1268.49 -3.38319 -2.02322 0
M  V30 13974 H 1269.78 -4.10835 -3.00153 0
M  V30 13975 H 1269.18 -1.92825 -5.31822 0
M  V30 13976 H 1267.73 -2.57919 -5.98599 0
M  V30 13977 N 1271.17 0.563888 -1.47167 0
M  V30 13978 C 1272.11 1.67151 -1.59152 0
M  V30 13979 C 1273.08 1.60307 -0.434852 0
M  V30 13980 O 1274.27 1.7924 -0.654049 0
M  V30 13981 C 1271.41 3.0548 -1.60549 0
M  V30 13982 C 1270.52 3.2281 -2.87085 0
M  V30 13983 C 1269.66 4.51498 -2.79862 0
M  V30 13984 C 1268.7 4.62237 -4.01252 0
M  V30 13985 N 1267.83 5.82273 -3.92305 0
M  V30 13986 H 1272.67 1.56245 -2.53755 0
M  V30 13987 H 1270.21 0.761219 -1.25872 0
M  V30 13988 H 1272.17 3.85572 -1.59343 0
M  V30 13989 H 1270.8 3.15237 -0.69464 0
M  V30 13990 H 1269.85 2.36196 -2.98188 0
M  V30 13991 H 1271.16 3.2661 -3.76997 0
M  V30 13992 H 1270.32 5.39842 -2.76867 0
M  V30 13993 H 1269.05 4.50166 -1.87621 0
M  V30 13994 H 1268.06 3.72307 -4.04558 0
M  V30 13995 H 1269.28 4.65334 -4.94612 0
M  V30 13996 H 1267.23 5.81902 -3.02862 0
M  V30 13997 H 1267.15 5.87422 -4.7589 0
M  V30 13998 H 1268.42 6.72996 -3.93315 0
M  V30 13999 N 1272.64 1.35187 0.810078 0
M  V30 14000 C 1273.59 1.24366 1.91094 0
M  V30 14001 C 1274.58 0.139718 1.60292 0
M  V30 14002 O 1275.77 0.370609 1.73077 0
M  V30 14003 C 1272.9 1.01434 3.27973 0
M  V30 14004 C 1271.99 2.16203 3.64852 0
M  V30 14005 N 1272.38 3.41408 3.73195 0
M  V30 14006 C 1270.67 2.07512 3.94784 0
M  V30 14007 C 1271.38 4.16858 4.05714 0
M  V30 14008 N 1270.35 3.45579 4.19614 0
M  V30 14009 H 1274.15 2.19232 1.95741 0
M  V30 14010 H 1271.67 1.2761 1.00447 0
M  V30 14011 H 1273.66 0.91771 4.06674 0
M  V30 14012 H 1272.32 0.074495 3.24615 0
M  V30 14013 H 1273.34 3.75802 3.56361 0
M  V30 14014 H 1270.01 1.21362 3.99472 0
M  V30 14015 H 1271.4 5.25039 4.19266 0
M  V30 14016 N 1274.12 -1.03182 1.19127 0
M  V30 14017 C 1275.03 -2.14875 0.94159 0
M  V30 14018 C 1276.05 -1.73727 -0.0973872 0
M  V30 14019 O 1277.22 -2.01214 0.0865775 0
M  V30 14020 C 1274.29 -3.43356 0.480366 0
M  V30 14021 C 1273.35 -3.98835 1.58838 0
M  V30 14022 C 1272.58 -5.21183 1.14907 0
M  V30 14023 O 1272.81 -5.70399 0.0114141 0
M  V30 14024 O 1271.74 -5.69423 1.95042 0
M  V30 14025 H 1275.57 -2.38799 1.8764 0
M  V30 14026 H 1273.15 -1.13299 0.973841 0
M  V30 14027 H 1275.03 -4.20763 0.231658 0
M  V30 14028 H 1273.71 -3.20884 -0.426041 0
M  V30 14029 H 1272.62 -3.22776 1.8912 0
M  V30 14030 H 1273.95 -4.25665 2.47123 0
M  V30 14031 N 1275.6 -0.99472 -1.22242 0
M  V30 14032 C 1276.55 -0.53946 -2.26258 0
M  V30 14033 C 1277.54 0.410796 -1.64344 0
M  V30 14034 O 1278.75 0.283116 -1.7776 0
M  V30 14035 H 1275.12 -0.156069 -0.735627 0
M  V30 14036 H 1277.09 -1.42814 -2.62005 0
M  V30 14037 C 1275.84 0.12842 -3.47463 0
M  V30 14038 H 1275.17 -0.593727 -3.95367 0
M  V30 14039 H 1276.61 0.410393 -4.22009 0
M  V30 14040 C 1275.07 1.36433 -3.08038 0
M  V30 14041 O 1275.6 2.45953 -3.176 0
M  V30 14042 N 1273.8 1.24026 -2.62804 0
M  V30 14043 H 1273.35 0.349111 -2.55223 0
M  V30 14044 H 1273.31 2.06824 -2.36794 0
M  V30 14045 N 1277.08 1.37613 -0.768148 0
M  V30 14046 C 1278.01 2.28935 -0.110234 0
M  V30 14047 C 1279.02 1.48459 0.668122 0
M  V30 14048 O 1280.21 1.71154 0.506808 0
M  V30 14049 C 1277.31 3.27606 0.867598 0
M  V30 14050 C 1276.49 4.37163 0.143819 0
M  V30 14051 C 1275.54 5.15931 1.03449 0
M  V30 14052 O 1274.57 5.67003 0.499605 0
M  V30 14053 N 1275.77 5.30311 2.36114 0
M  V30 14054 H 1278.54 2.86037 -0.894585 0
M  V30 14055 H 1276.1 1.4955 -0.620185 0
M  V30 14056 H 1278.09 3.77183 1.4668 0
M  V30 14057 H 1276.66 2.71298 1.55294 0
M  V30 14058 H 1275.88 3.89031 -0.636257 0
M  V30 14059 H 1277.17 5.0755 -0.356446 0
M  V30 14060 H 1276.57 4.90394 2.82011 0
M  V30 14061 H 1275.12 5.83209 2.9105 0
M  V30 14062 N 1278.56 0.518393 1.4883 0
M  V30 14063 C 1279.49 -0.297703 2.2625 0
M  V30 14064 C 1280.47 -0.955096 1.31593 0
M  V30 14065 O 1281.65 -0.981776 1.60914 0
M  V30 14066 C 1278.78 -1.42065 3.07466 0
M  V30 14067 C 1277.82 -0.875854 4.1741 0
M  V30 14068 S 1278.66 0.247153 5.34929 0
M  V30 14069 C 1279.81 -0.878544 6.19703 0
M  V30 14070 H 1280.05 0.359358 2.9512 0
M  V30 14071 H 1277.58 0.303976 1.51378 0
M  V30 14072 H 1279.54 -2.06398 3.54838 0
M  V30 14073 H 1278.2 -2.04939 2.38031 0
M  V30 14074 H 1277.39 -1.71793 4.73818 0
M  V30 14075 H 1276.99 -0.30943 3.72718 0
M  V30 14076 H 1279.29 -1.77986 6.53703 0
M  V30 14077 H 1280.23 -0.3527 7.07221 0
M  V30 14078 H 1280.64 -1.15372 5.52584 0
M  V30 14079 N 1280.03 -1.55556 0.252993 0
M  V30 14080 C 1281.45 -1.59276 -0.101714 0
M  V30 14081 C 1281.65 -1.27018 -1.56424 0
M  V30 14082 O 1280.71 -1.02042 -2.30963 0
M  V30 14083 C 1282.02 -2.99634 0.252969 0
M  V30 14084 C 1283.57 -3.12375 0.197767 0
M  V30 14085 C 1284.04 -4.54963 0.52657 0
M  V30 14086 N 1285.53 -4.60734 0.477296 0
M  V30 14087 C 1286.27 -5.69052 0.704793 0
M  V30 14088 N 1285.76 -6.85607 0.99574 0
M  V30 14089 N 1287.56 -5.58501 0.635086 0
M  V30 14090 H 1279.71 -1.74793 1.2067 0
M  V30 14091 H 1281.97 -0.813971 0.485958 0
M  V30 14092 H 1281.68 -3.27998 1.26926 0
M  V30 14093 H 1281.55 -3.74888 -0.416984 0
M  V30 14094 H 1283.94 -2.83788 -0.809209 0
M  V30 14095 H 1284.02 -2.39382 0.901659 0
M  V30 14096 H 1283.66 -4.84271 1.53113 0
M  V30 14097 H 1283.59 -5.26224 -0.198869 0
M  V30 14098 H 1286.08 -3.76995 0.261398 0
M  V30 14099 H 1286.4 -7.64096 1.15659 0
M  V30 14100 H 1284.74 -6.87276 1.03328 0
M  V30 14101 H 1287.93 -4.6632 0.407789 0
M  V30 14102 H 1288.11 -6.42845 0.815777 0
M  V30 14103 N 1281.51 0.0200419 -1.57587 0
M  V30 14104 C 1282.79 0.744946 -1.80859 0
M  V30 14105 C 1283.17 1.93089 -0.853218 0
M  V30 14106 O 1282.52 2.28269 0.10261 0
M  V30 14107 C 1282.73 1.16952 -3.28821 0
M  V30 14108 C 1284.08 1.5817 -3.9404 0
M  V30 14109 O 1285.1 1.26385 -3.33024 0
M  V30 14110 O 1283.96 2.17197 -5.01486 0
M  V30 14111 H 1281.05 0.360995 -0.744051 0
M  V30 14112 H 1283.6 -0.00387374 -1.697 0
M  V30 14113 H 1282.37 0.323304 -3.89962 0
M  V30 14114 H 1281.99 1.97807 -3.44903 0
M  V30 14115 N 1282.99 1.54862 0.292472 0
M  V30 14116 C 1283.92 1.81298 1.38586 0
M  V30 14117 C 1284.9 0.664704 1.48393 0
M  V30 14118 O 1286.09 0.905595 1.65322 0
M  V30 14119 C 1283.21 1.9573 2.76419 0
M  V30 14120 C 1282.26 3.18197 2.83994 0
M  V30 14121 S 1283.09 4.76054 2.45219 0
M  V30 14122 C 1284.25 4.93433 3.85064 0
M  V30 14123 H 1284.48 2.73755 1.15955 0
M  V30 14124 H 1282.01 1.46383 0.491053 0
M  V30 14125 H 1283.97 2.0473 3.55803 0
M  V30 14126 H 1282.63 1.04196 2.96314 0
M  V30 14127 H 1281.83 3.25123 3.85112 0
M  V30 14128 H 1281.43 3.07688 2.12613 0
M  V30 14129 H 1283.72 4.7798 4.80148 0
M  V30 14130 H 1284.66 5.95515 3.83103 0
M  V30 14131 H 1285.07 4.2153 3.75463 0
M  V30 14132 N 1284.47 -0.556076 1.47464 0
M  V30 14133 C 1285.4 -1.67275 1.62915 0
M  V30 14134 C 1286.38 -1.63229 0.478562 0
M  V30 14135 O 1287.56 -1.80833 0.708032 0
M  V30 14136 C 1284.69 -3.05911 1.64426 0
M  V30 14137 C 1283.65 -3.24804 2.78722 0
M  V30 14138 C 1282.97 -4.64238 2.65307 0
M  V30 14139 C 1284.27 -3.10071 4.20302 0
M  V30 14140 H 1285.97 -1.54601 2.56396 0
M  V30 14141 H 1283.51 -0.742337 1.23391 0
M  V30 14142 H 1285.47 -3.83878 1.73826 0
M  V30 14143 H 1284.19 -3.19547 0.675053 0
M  V30 14144 H 1282.85 -2.49246 2.68835 0
M  V30 14145 H 1282.5 -4.74675 1.66412 0
M  V30 14146 H 1282.2 -4.77828 3.41986 0
M  V30 14147 H 1283.72 -5.44339 2.76637 0
M  V30 14148 H 1285.14 -3.77855 4.3116 0
M  V30 14149 H 1283.53 -3.3517 4.97776 0
M  V30 14150 H 1284.6 -2.06803 4.38589 0
M  V30 14151 N 1285.95 -1.35615 -0.802897 0
M  V30 14152 C 1286.91 -1.28705 -1.89651 0
M  V30 14153 C 1287.91 -0.197681 -1.5958 0
M  V30 14154 O 1289.1 -0.451618 -1.68244 0
M  V30 14155 C 1286.23 -0.991941 -3.26149 0
M  V30 14156 H 1287.43 -2.25951 -1.97196 0
M  V30 14157 H 1284.98 -1.20192 -0.999179 0
M  V30 14158 H 1285.71 -0.0235051 -3.24291 0
M  V30 14159 H 1285.5 -1.78013 -3.49362 0
M  V30 14160 H 1286.99 -0.969298 -4.06195 0
M  V30 14161 N 1287.43 1.02549 -1.19673 0
M  V30 14162 C 1288.36 2.10991 -0.8953 0
M  V30 14163 C 1289.37 1.62405 0.113373 0
M  V30 14164 O 1290.56 1.7812 -0.116485 0
M  V30 14165 C 1287.66 3.37394 -0.319124 0
M  V30 14166 C 1286.83 4.15154 -1.37718 0
M  V30 14167 C 1285.89 5.19867 -0.81393 0
M  V30 14168 O 1284.92 5.49285 -1.49246 0
M  V30 14169 N 1286.12 5.79248 0.381089 0
M  V30 14170 H 1288.88 2.37438 -1.82875 0
M  V30 14171 H 1286.45 1.18867 -1.09919 0
M  V30 14172 H 1288.44 4.04637 0.0716106 0
M  V30 14173 H 1287.01 3.08267 0.518681 0
M  V30 14174 H 1286.23 3.4301 -1.94262 0
M  V30 14175 H 1287.52 4.63892 -2.09003 0
M  V30 14176 H 1286.91 5.5767 0.949791 0
M  V30 14177 H 1285.47 6.47882 0.713563 0
M  V30 14178 N 1288.9 1.00119 1.21713 0
M  V30 14179 C 1290.14 0.690044 1.924 0
M  V30 14180 C 1290.51 -0.764695 1.76115 0
M  V30 14181 O 1291.71 -1.18764 2.4114 0
M  V30 14182 C 1289.98 1.09491 3.40215 0
M  V30 14183 S 1291.54 0.903392 4.294 0
M  V30 14184 H 1288.36 0.252037 0.66483 0
M  V30 14185 H 1290.96 1.28521 1.47318 0
M  V30 14186 H 1289.66 2.14987 3.49584 0
M  V30 14187 H 1289.19 0.491878 3.90313 0
M  V30 14188 H 1291.21 -0.201597 4.9579 0
M  V30 14189 N 1290.38 -1.37203 0.775435 0
M  V30 14190 C 1291.29 -2.34019 0.165062 0
M  V30 14191 C 1292.31 -1.6036 -0.675316 0
M  V30 14192 O 1293.48 -1.9243 -0.594375 0
M  V30 14193 C 1290.55 -3.3954 -0.700957 0
M  V30 14194 C 1289.61 -4.29015 0.156304 0
M  V30 14195 C 1288.84 -5.29497 -0.668476 0
M  V30 14196 O 1289.07 -5.37636 -1.90535 0
M  V30 14197 O 1288 -6.01852 -0.0757351 0
M  V30 14198 H 1291.83 -2.87955 0.965184 0
M  V30 14199 H 1289.41 -1.39429 0.536654 0
M  V30 14200 H 1291.29 -4.04094 -1.19524 0
M  V30 14201 H 1289.97 -2.87926 -1.4792 0
M  V30 14202 H 1288.87 -3.67549 0.69703 0
M  V30 14203 H 1290.21 -4.83944 0.897725 0
M  V30 14204 N 1291.86 -0.526279 -1.48553 0
M  V30 14205 C 1293.08 0.00731432 -2.07399 0
M  V30 14206 C 1293.51 1.27737 -1.38075 0
M  V30 14207 O 1292.87 1.75741 -0.445503 0
M  V30 14208 C 1292.92 0.218126 -3.5994 0
M  V30 14209 O 1292.02 1.28759 -3.91784 0
M  V30 14210 H 1291.36 -0.0374784 -0.662941 0
M  V30 14211 H 1293.89 -0.733133 -1.91014 0
M  V30 14212 H 1293.9 0.44192 -4.056 0
M  V30 14213 H 1292.58 -0.709668 -4.09801 0
M  V30 14214 H 1291.15 1.04674 -3.57907 0
M  V30 14215 N 1293.34 1.5542 -0.261239 0
M  V30 14216 C 1294.29 2.23382 0.648324 0
M  V30 14217 C 1295.28 1.22615 1.16884 0
M  V30 14218 O 1296.49 1.40587 1.12407 0
M  V30 14219 H 1292.86 0.716733 0.227592 0
M  V30 14220 H 1294.83 2.98354 0.0521289 0
M  V30 14221 C 1293.58 2.9579 1.82766 0
M  V30 14222 H 1292.9 3.73109 1.4363 0
M  V30 14223 H 1294.34 3.46686 2.441 0
M  V30 14224 C 1292.8 2.00472 2.70763 0
M  V30 14225 O 1293.33 1.54698 3.70717 0
M  V30 14226 N 1291.54 1.67267 2.37635 0
M  V30 14227 H 1291.09 2.04685 1.56402 0
M  V30 14228 H 1291.04 1.03759 2.96785 0
M  V30 14229 N 1294.82 -0.0116844 1.57596 0
M  V30 14230 C 1295.75 -1.04043 2.03102 0
M  V30 14231 C 1296.73 -1.34164 0.918622 0
M  V30 14232 O 1297.91 -1.46527 1.18584 0
M  V30 14233 C 1295.04 -2.37094 2.41876 0
M  V30 14234 C 1294.08 -2.22713 3.63732 0
M  V30 14235 S 1294.92 -1.56416 5.12147 0
M  V30 14236 C 1296.07 -2.90921 5.5418 0
M  V30 14237 H 1296.31 -0.652899 2.90042 0
M  V30 14238 H 1293.84 -0.222201 1.52793 0
M  V30 14239 H 1295.8 -3.13602 2.64885 0
M  V30 14240 H 1294.46 -2.7299 1.55356 0
M  V30 14241 H 1293.65 -3.20976 3.88575 0
M  V30 14242 H 1293.25 -1.54349 3.40665 0
M  V30 14243 H 1295.54 -3.87237 5.55926 0
M  V30 14244 H 1296.49 -2.70792 6.54276 0
M  V30 14245 H 1296.9 -2.94293 4.81717 0
M  V30 14246 N 1296.29 -1.55015 -0.284256 0
M  V30 14247 C 1297.52 -1.79431 -1.04016 0
M  V30 14248 C 1297.94 -0.560254 -1.79563 0
M  V30 14249 O 1297.3 0.489804 -1.74558 0
M  V30 14250 C 1297.35 -3.01162 -1.98328 0
M  V30 14251 O 1296.45 -2.75459 -3.06914 0
M  V30 14252 H 1295.79 -0.593391 -0.297965 0
M  V30 14253 H 1298.32 -2.02136 -0.316585 0
M  V30 14254 H 1298.33 -3.29589 -2.40489 0
M  V30 14255 H 1297.01 -3.90634 -1.42751 0
M  V30 14256 H 1295.59 -2.58096 -2.69148 0
M  V30 14257 N 1297.77 0.548248 -1.47757 0
M  V30 14258 C 1298.68 1.68178 -1.63565 0
M  V30 14259 C 1299.7 1.661 -0.518351 0
M  V30 14260 O 1300.87 1.85384 -0.787061 0
M  V30 14261 C 1297.94 3.04673 -1.65454 0
M  V30 14262 C 1297 3.17749 -2.88677 0
M  V30 14263 C 1296.23 4.47733 -2.90466 0
M  V30 14264 O 1296.46 5.33736 -2.01201 0
M  V30 14265 O 1295.39 4.64789 -3.82433 0
M  V30 14266 H 1299.22 1.57781 -2.59497 0
M  V30 14267 H 1296.8 0.719277 -1.30946 0
M  V30 14268 H 1298.68 3.85885 -1.69324 0
M  V30 14269 H 1297.36 3.15433 -0.726912 0
M  V30 14270 H 1296.26 2.359 -2.90348 0
M  V30 14271 H 1297.6 3.11897 -3.80763 0
M  V30 14272 N 1299.25 1.36039 0.795694 0
M  V30 14273 C 1300.18 1.32528 1.92246 0
M  V30 14274 C 1301.16 0.197805 1.68946 0
M  V30 14275 O 1302.35 0.394474 1.90151 0
M  V30 14276 C 1299.48 1.10748 3.29169 0
M  V30 14277 C 1298.43 2.20253 3.66978 0
M  V30 14278 C 1297.76 1.83624 5.02181 0
M  V30 14279 C 1299.06 3.62296 3.76216 0
M  V30 14280 H 1300.75 2.2681 1.95442 0
M  V30 14281 H 1298.3 1.09181 0.938908 0
M  V30 14282 H 1300.25 1.06929 4.07608 0
M  V30 14283 H 1298.97 0.129141 3.26345 0
M  V30 14284 H 1297.63 2.23187 2.90832 0
M  V30 14285 H 1297.28 0.843804 4.95872 0
M  V30 14286 H 1296.98 2.56935 5.28449 0
M  V30 14287 H 1298.5 1.81349 5.83048 0
M  V30 14288 H 1299.92 3.61623 4.44861 0
M  V30 14289 H 1298.31 4.34459 4.13963 0
M  V30 14290 H 1299.38 3.97657 2.77483 0
M  V30 14291 N 1300.73 -1.01913 1.20215 0
M  V30 14292 C 1301.66 -2.10513 0.906476 0
M  V30 14293 C 1302.67 -1.62463 -0.104758 0
M  V30 14294 O 1303.86 -1.78055 0.12593 0
M  V30 14295 C 1300.96 -3.3722 0.337012 0
M  V30 14296 C 1300.14 -4.14417 1.39917 0
M  V30 14297 C 1299.19 -5.19428 0.841489 0
M  V30 14298 O 1298.22 -5.48486 1.52157 0
M  V30 14299 N 1299.42 -5.79442 -0.350365 0
M  V30 14300 H 1302.19 -2.36465 1.84132 0
M  V30 14301 H 1299.75 -1.18283 1.10548 0
M  V30 14302 H 1301.74 -4.04669 -0.0501507 0
M  V30 14303 H 1300.31 -3.08538 -0.502325 0
M  V30 14304 H 1299.53 -3.41975 1.96078 0
M  V30 14305 H 1300.82 -4.62777 2.1146 0
M  V30 14306 H 1300.22 -5.58166 -0.920204 0
M  V30 14307 H 1298.77 -6.48252 -0.679194 0
M  V30 14308 N 1302.21 -1.00763 -1.2118 0
M  V30 14309 C 1303.14 -0.528468 -2.23024 0
M  V30 14310 C 1304.15 0.384348 -1.58198 0
M  V30 14311 O 1305.34 0.184127 -1.77548 0
M  V30 14312 C 1302.44 0.251693 -3.37964 0
M  V30 14313 C 1301.61 -0.660838 -4.32379 0
M  V30 14314 C 1300.67 0.0701723 -5.26153 0
M  V30 14315 O 1299.7 -0.549355 -5.66543 0
M  V30 14316 N 1300.9 1.34791 -5.64634 0
M  V30 14317 H 1303.67 -1.40428 -2.64764 0
M  V30 14318 H 1301.23 -0.884085 -1.3563 0
M  V30 14319 H 1303.22 0.749746 -3.97694 0
M  V30 14320 H 1301.79 1.02872 -2.95188 0
M  V30 14321 H 1301.01 -1.33934 -3.7075 0
M  V30 14322 H 1302.3 -1.28177 -4.9239 0
M  V30 14323 H 1301.69 1.87232 -5.33817 0
M  V30 14324 H 1300.25 1.79086 -6.26715 0
M  V30 14325 N 1303.68 1.3679 -0.7827 0
M  V30 14326 C 1304.61 2.32721 -0.190604 0
M  V30 14327 C 1305.6 1.56321 0.670663 0
M  V30 14328 O 1306.78 1.84507 0.605871 0
M  V30 14329 C 1303.91 3.40564 0.680717 0
M  V30 14330 C 1302.86 4.27925 -0.080118 0
M  V30 14331 C 1302.19 5.26876 0.911361 0
M  V30 14332 C 1303.49 5.06738 -1.26545 0
M  V30 14333 H 1305.18 2.82488 -0.992023 0
M  V30 14334 H 1302.73 1.35818 -0.478484 0
M  V30 14335 H 1304.68 4.06659 1.10482 0
M  V30 14336 H 1303.41 2.89348 1.51477 0
M  V30 14337 H 1302.07 3.63376 -0.485125 0
M  V30 14338 H 1301.71 4.71936 1.74026 0
M  V30 14339 H 1301.41 5.8619 0.406762 0
M  V30 14340 H 1302.94 5.95846 1.33418 0
M  V30 14341 H 1304.35 5.65911 -0.917448 0
M  V30 14342 H 1302.75 5.75432 -1.70289 0
M  V30 14343 H 1303.82 4.38772 -2.06415 0
M  V30 14344 N 1305.16 0.53415 1.48272 0
M  V30 14345 C 1306.09 -0.263508 2.2768 0
M  V30 14346 C 1307.11 -0.90064 1.35618 0
M  V30 14347 O 1308.3 -0.778379 1.60635 0
M  V30 14348 C 1305.4 -1.38878 3.09138 0
M  V30 14349 C 1304.57 -0.852784 4.29006 0
M  V30 14350 C 1303.63 -1.85969 4.92242 0
M  V30 14351 O 1302.65 -1.41497 5.51332 0
M  V30 14352 N 1303.86 -3.19207 4.84858 0
M  V30 14353 H 1306.62 0.417548 2.96777 0
M  V30 14354 H 1304.18 0.368743 1.57645 0
M  V30 14355 H 1306.17 -2.06062 3.48311 0
M  V30 14356 H 1304.74 -1.97343 2.42434 0
M  V30 14357 H 1303.96 -0.0048227 3.942 0
M  V30 14358 H 1305.25 -0.473634 5.06591 0
M  V30 14359 H 1304.65 -3.58001 4.38009 0
M  V30 14360 H 1303.21 -3.82013 5.28119 0
M  V30 14361 N 1306.64 -1.55279 0.269478 0
M  V30 14362 C 1307.59 -2.23723 -0.636468 0
M  V30 14363 C 1308.58 -1.23234 -1.16232 0
M  V30 14364 O 1309.79 -1.41181 -1.1166 0
M  V30 14365 H 1306.16 -0.71793 -0.223788 0
M  V30 14366 H 1308.13 -2.98378 -0.0363057 0
M  V30 14367 C 1306.88 -2.96755 -1.81195 0
M  V30 14368 H 1306.21 -3.73865 -1.4165 0
M  V30 14369 H 1307.65 -3.47975 -2.42258 0
M  V30 14370 C 1306.11 -2.01905 -2.69696 0
M  V30 14371 O 1306.64 -1.56662 -3.69892 0
M  V30 14372 N 1304.84 -1.68524 -2.36744 0
M  V30 14373 H 1304.39 -2.05512 -1.55314 0
M  V30 14374 H 1304.35 -1.05331 -2.96231 0
M  V30 14375 N 1308.12 0.00332656 -1.576 0
M  V30 14376 C 1309.03 1.01221 -2.1164 0
M  V30 14377 C 1310.04 1.37918 -1.06088 0
M  V30 14378 O 1311.22 1.46717 -1.37971 0
M  V30 14379 C 1308.29 2.28638 -2.60626 0
M  V30 14380 C 1307.35 1.98284 -3.80765 0
M  V30 14381 C 1306.58 3.19626 -4.27405 0
M  V30 14382 O 1306.8 4.31196 -3.73398 0
M  V30 14383 O 1305.74 3.03819 -5.19594 0
M  V30 14384 H 1309.56 0.582839 -2.98055 0
M  V30 14385 H 1307.15 0.221947 -1.47742 0
M  V30 14386 H 1309.03 3.03498 -2.92347 0
M  V30 14387 H 1307.7 2.70819 -1.7731 0
M  V30 14388 H 1306.61 1.2091 -3.54022 0
M  V30 14389 H 1307.94 1.60942 -4.65144 0
M  V30 14390 N 1309.6 1.55164 0.276031 0
M  V30 14391 C 1310.54 1.87836 1.34113 0
M  V30 14392 C 1311.51 0.729562 1.4922 0
M  V30 14393 O 1312.7 0.980549 1.63676 0
M  V30 14394 C 1309.84 2.15313 2.69693 0
M  V30 14395 C 1308.95 3.42845 2.62833 0
M  V30 14396 C 1308.09 3.60038 3.90572 0
M  V30 14397 C 1307.13 4.81273 3.7821 0
M  V30 14398 N 1306.26 4.95139 4.97777 0
M  V30 14399 H 1311.1 2.78681 1.0555 0
M  V30 14400 H 1308.64 1.37976 0.510001 0
M  V30 14401 H 1310.6 2.29243 3.48573 0
M  V30 14402 H 1309.23 1.27706 2.96464 0
M  V30 14403 H 1308.28 3.37403 1.75679 0
M  V30 14404 H 1309.59 4.3186 2.49597 0
M  V30 14405 H 1308.75 3.73769 4.77893 0
M  V30 14406 H 1307.48 2.69203 4.06671 0
M  V30 14407 H 1306.49 4.67549 2.89271 0
M  V30 14408 H 1307.71 5.7354 3.63632 0
M  V30 14409 H 1305.66 4.07234 5.14292 0
M  V30 14410 H 1305.58 5.78194 4.8706 0
M  V30 14411 H 1306.85 5.13253 5.86679 0
M  V30 14412 N 1311.07 -0.540404 1.48045 0
M  V30 14413 C 1312.31 -1.30737 1.57121 0
M  V30 14414 C 1312.68 -1.90554 0.23518 0
M  V30 14415 O 1313.88 -2.68048 0.20087 0
M  V30 14416 C 1312.15 -2.37539 2.6704 0
M  V30 14417 S 1313.71 -3.241 2.95812 0
M  V30 14418 H 1310.53 -0.444856 0.554639 0
M  V30 14419 H 1313.13 -0.61683 1.85514 0
M  V30 14420 H 1311.83 -1.92057 3.62688 0
M  V30 14421 H 1311.36 -3.11313 2.40515 0
M  V30 14422 H 1313.38 -4.37393 2.34311 0
M  V30 14423 N 1312.55 -1.36459 -0.788468 0
M  V30 14424 C 1313.5 -1.27391 -1.89092 0
M  V30 14425 C 1314.49 -0.165201 -1.6005 0
M  V30 14426 O 1315.68 -0.398097 -1.72465 0
M  V30 14427 C 1312.81 -1.06639 -3.26317 0
M  V30 14428 C 1311.89 -2.21981 -3.61366 0
M  V30 14429 N 1312.28 -3.47302 -3.67716 0
M  V30 14430 C 1310.58 -2.13767 -3.91433 0
M  V30 14431 C 1311.28 -4.2326 -3.99031 0
M  V30 14432 N 1310.26 -3.52211 -4.14063 0
M  V30 14433 H 1314.06 -2.22318 -1.92229 0
M  V30 14434 H 1311.58 -1.29191 -0.98404 0
M  V30 14435 H 1313.57 -0.982292 -4.05162 0
M  V30 14436 H 1312.23 -0.126129 -3.24455 0
M  V30 14437 H 1313.24 -3.81424 -3.50337 0
M  V30 14438 H 1309.92 -1.27702 -3.9749 0
M  V30 14439 H 1311.31 -5.31643 -4.1086 0
M  V30 14440 N 1314.03 1.01274 -1.20754 0
M  V30 14441 C 1314.96 2.11763 -0.983805 0
M  V30 14442 C 1315.94 1.69869 0.0885635 0
M  V30 14443 O 1317.13 1.94075 -0.0697239 0
M  V30 14444 C 1314.26 3.43087 -0.539287 0
M  V30 14445 C 1313.21 3.9874 -1.55534 0
M  V30 14446 C 1312.54 5.25877 -0.967322 0
M  V30 14447 C 1313.84 4.31688 -2.94012 0
M  V30 14448 H 1315.53 2.30737 -1.90789 0
M  V30 14449 H 1313.08 1.10884 -0.918734 0
M  V30 14450 H 1315.03 4.19773 -0.369979 0
M  V30 14451 H 1313.75 3.23883 0.420435 0
M  V30 14452 H 1312.41 3.24166 -1.71207 0
M  V30 14453 H 1312.06 5.03 0.000448307 0
M  V30 14454 H 1311.76 5.64077 -1.64594 0
M  V30 14455 H 1313.28 6.05215 -0.809167 0
M  V30 14456 H 1314.7 4.99246 -2.81827 0
M  V30 14457 H 1313.1 4.81011 -3.58815 0
M  V30 14458 H 1314.17 3.4029 -3.45442 0
M  V30 14459 N 1315.51 1.01404 1.20644 0
M  V30 14460 C 1316.44 0.602465 2.25594 0
M  V30 14461 C 1317.42 -0.381216 1.65773 0
M  V30 14462 O 1318.61 -0.267209 1.92353 0
M  V30 14463 C 1315.74 -0.0626245 3.47244 0
M  V30 14464 C 1314.69 0.841776 4.1964 0
M  V30 14465 C 1314.02 0.0426002 5.34683 0
M  V30 14466 C 1315.32 2.14864 4.76058 0
M  V30 14467 H 1317.01 1.47977 2.60275 0
M  V30 14468 H 1314.56 0.712966 1.25111 0
M  V30 14469 H 1316.51 -0.362095 4.19841 0
M  V30 14470 H 1315.23 -0.974627 3.11719 0
M  V30 14471 H 1313.89 1.12521 3.48905 0
M  V30 14472 H 1313.54 -0.870973 4.95402 0
M  V30 14473 H 1313.24 0.644866 5.84051 0
M  V30 14474 H 1314.76 -0.250476 6.10086 0
M  V30 14475 H 1316.18 1.9117 5.40488 0
M  V30 14476 H 1314.57 2.70153 5.35852 0
M  V30 14477 H 1315.64 2.81336 3.9494 0
M  V30 14478 N 1316.99 -1.36373 0.789944 0
M  V30 14479 C 1318.23 -1.99523 0.363119 0
M  V30 14480 C 1318.57 -1.6255 -1.0626 0
M  V30 14481 O 1317.84 -0.880551 -1.73426 0
M  V30 14482 C 1318.12 -3.56215 0.527526 0
M  V30 14483 C 1317.98 -4.0304 1.99697 0
M  V30 14484 C 1319.3 -4.40063 -0.0571079 0
M  V30 14485 H 1316.42 -0.724824 0.133412 0
M  V30 14486 H 1319.06 -1.61778 0.996381 0
M  V30 14487 H 1317.21 -3.88498 -0.0115636 0
M  V30 14488 H 1318.88 -3.81241 2.59717 0
M  V30 14489 H 1317.12 -3.54561 2.49939 0
M  V30 14490 H 1317.79 -5.12001 2.06297 0
M  V30 14491 H 1320.27 -4.14143 0.403082 0
M  V30 14492 H 1319.15 -5.4883 0.0879494 0
M  V30 14493 H 1319.41 -4.26901 -1.14926 0
M  V30 14494 N 1318.47 -0.542005 -1.47987 0
M  V30 14495 C 1319.38 0.217677 -2.33588 0
M  V30 14496 C 1320.39 0.927093 -1.47245 0
M  V30 14497 O 1321.57 0.899378 -1.80203 0
M  V30 14498 C 1318.63 1.24376 -3.23622 0
M  V30 14499 C 1317.69 0.543407 -4.25847 0
M  V30 14500 C 1316.93 1.5206 -5.11579 0
M  V30 14501 O 1317.15 2.75425 -4.99497 0
M  V30 14502 O 1316.08 1.05341 -5.9261 0
M  V30 14503 H 1319.91 -0.484089 -2.99817 0
M  V30 14504 H 1317.49 -0.302783 -1.463 0
M  V30 14505 H 1319.38 1.83644 -3.7928 0
M  V30 14506 H 1318.05 1.92772 -2.6004 0
M  V30 14507 H 1316.96 -0.090074 -3.73992 0
M  V30 14508 H 1318.29 -0.0988264 -4.92101 0
M  V30 14509 N 1319.94 1.55134 -0.277709 0
M  V30 14510 C 1320.89 2.19317 0.623216 0
M  V30 14511 C 1321.88 1.15863 1.11645 0
M  V30 14512 O 1323.07 1.41668 1.0611 0
M  V30 14513 C 1320.2 2.91976 1.80568 0
M  V30 14514 C 1319.28 4.02722 1.3295 0
M  V30 14515 N 1319.68 5.02582 0.569654 0
M  V30 14516 C 1317.97 4.1584 1.61224 0
M  V30 14517 C 1318.67 5.80825 0.318983 0
M  V30 14518 N 1317.65 5.36229 0.892145 0
M  V30 14519 H 1321.45 2.93879 0.0348669 0
M  V30 14520 H 1318.97 1.62196 -0.0813871 0
M  V30 14521 H 1320.96 3.36408 2.46242 0
M  V30 14522 H 1319.62 2.18925 2.39796 0
M  V30 14523 H 1320.63 5.17446 0.216749 0
M  V30 14524 H 1317.31 3.53981 2.21368 0
M  V30 14525 H 1318.7 6.71275 -0.289742 0
M  V30 14526 N 1321.42 0.00503138 1.57599 0
M  V30 14527 C 1322.33 -1.00097 2.12174 0
M  V30 14528 C 1323.35 -1.37353 1.06818 0
M  V30 14529 O 1324.52 -1.45984 1.38747 0
M  V30 14530 C 1321.59 -2.27252 2.61835 0
M  V30 14531 C 1320.65 -1.96262 3.81811 0
M  V30 14532 C 1319.88 -3.17355 4.29094 0
M  V30 14533 O 1320.11 -4.2921 3.75679 0
M  V30 14534 O 1319.04 -3.01059 5.21198 0
M  V30 14535 H 1322.87 -0.567024 2.9836 0
M  V30 14536 H 1320.45 -0.214109 1.47858 0
M  V30 14537 H 1322.33 -3.01944 2.93952 0
M  V30 14538 H 1321.01 -2.69875 1.78744 0
M  V30 14539 H 1319.91 -1.19031 3.54658 0
M  V30 14540 H 1321.25 -1.58473 4.65991 0
M  V30 14541 N 1322.9 -1.55308 -0.267798 0
M  V30 14542 C 1324.13 -1.80191 -1.01681 0
M  V30 14543 C 1324.54 -0.57783 -1.7974 0
M  V30 14544 O 1323.9 0.4532 -1.76783 0
M  V30 14545 C 1323.95 -3.03023 -1.97127 0
M  V30 14546 O 1323.67 -4.20704 -1.22229 0
M  V30 14547 C 1325.17 -3.40549 -2.83798 0
M  V30 14548 H 1322.39 -0.60013 -0.300142 0
M  V30 14549 H 1324.94 -2.02332 -0.297007 0
M  V30 14550 H 1323.09 -2.82993 -2.64563 0
M  V30 14551 H 1323.51 -4.90181 -1.86608 0
M  V30 14552 H 1324.98 -4.29653 -3.46557 0
M  V30 14553 H 1325.46 -2.60186 -3.53836 0
M  V30 14554 H 1326.06 -3.62856 -2.21846 0
M  V30 14555 N 1324.38 0.532545 -1.4833 0
M  V30 14556 C 1325.31 1.65325 -1.58746 0
M  V30 14557 C 1326.32 1.5581 -0.471925 0
M  V30 14558 O 1327.51 1.62317 -0.742656 0
M  V30 14559 C 1324.61 3.03957 -1.49877 0
M  V30 14560 C 1323.78 3.38979 -2.76427 0
M  V30 14561 C 1322.84 4.56881 -2.61048 0
M  V30 14562 O 1321.87 4.6023 -3.34928 0
M  V30 14563 N 1323.07 5.54898 -1.70496 0
M  V30 14564 H 1325.84 1.56827 -2.55393 0
M  V30 14565 H 1323.4 0.71976 -1.45021 0
M  V30 14566 H 1325.39 3.80702 -1.37288 0
M  V30 14567 H 1323.96 3.06548 -0.612158 0
M  V30 14568 H 1323.18 2.51438 -3.03599 0
M  V30 14569 H 1324.47 3.59163 -3.60388 0
M  V30 14570 H 1323.87 5.54968 -1.0967 0
M  V30 14571 H 1322.42 6.3087 -1.63847 0
M  V30 14572 N 1325.86 1.36875 0.78122 0
M  V30 14573 C 1326.8 1.31869 1.89418 0
M  V30 14574 C 1327.77 0.185904 1.65056 0
M  V30 14575 O 1328.96 0.373745 1.87104 0
M  V30 14576 C 1326.1 1.12205 3.2635 0
M  V30 14577 C 1325.21 2.34631 3.62729 0
M  V30 14578 C 1324.35 2.07914 4.8882 0
M  V30 14579 C 1323.38 3.26257 5.17902 0
M  V30 14580 N 1322.52 2.99152 6.35179 0
M  V30 14581 H 1327.36 2.2703 1.93032 0
M  V30 14582 H 1324.9 1.12826 0.943857 0
M  V30 14583 H 1326.86 0.988282 4.05326 0
M  V30 14584 H 1325.49 0.206959 3.22136 0
M  V30 14585 H 1324.54 2.58782 2.78812 0
M  V30 14586 H 1325.85 3.22919 3.80164 0
M  V30 14587 H 1325 1.91514 5.7568 0
M  V30 14588 H 1323.74 1.1695 4.7347 0
M  V30 14589 H 1322.75 3.43207 4.29522 0
M  V30 14590 H 1323.97 4.1806 5.35166 0
M  V30 14591 H 1321.92 2.10807 6.21205 0
M  V30 14592 H 1321.84 3.80981 6.52985 0
M  V30 14593 H 1323.1 2.86349 7.25 0
M  V30 14594 N 1327.33 -1.00632 1.21289 0
M  V30 14595 C 1328.26 -2.11238 0.995021 0
M  V30 14596 C 1329.24 -1.69914 -0.0795537 0
M  V30 14597 O 1330.43 -1.94035 0.0800152 0
M  V30 14598 C 1327.56 -3.42797 0.557475 0
M  V30 14599 C 1326.51 -3.97909 1.57646 0
M  V30 14600 C 1325.84 -5.25357 0.995197 0
M  V30 14601 C 1327.14 -4.30123 2.96297 0
M  V30 14602 H 1328.83 -2.29722 1.9201 0
M  V30 14603 H 1326.38 -1.10395 0.924602 0
M  V30 14604 H 1328.33 -4.19571 0.392236 0
M  V30 14605 H 1327.06 -3.24101 -0.403253 0
M  V30 14606 H 1325.72 -3.23254 1.72924 0
M  V30 14607 H 1325.36 -5.02993 0.026227 0
M  V30 14608 H 1325.06 -5.63196 1.67583 0
M  V30 14609 H 1326.59 -6.04777 0.841251 0
M  V30 14610 H 1328 -4.97744 2.8447 0
M  V30 14611 H 1326.4 -4.79101 3.61361 0
M  V30 14612 H 1327.47 -3.38454 3.47242 0
M  V30 14613 N 1328.81 -1.02043 -1.20104 0
M  V30 14614 C 1329.76 -0.593945 -2.23027 0
M  V30 14615 C 1330.73 0.387931 -1.61506 0
M  V30 14616 O 1331.91 0.286504 -1.88637 0
M  V30 14617 C 1329.05 0.0577309 -3.45052 0
M  V30 14618 C 1328.17 -0.969169 -4.20988 0
M  V30 14619 C 1327.3 -0.288143 -5.30418 0
M  V30 14620 C 1326.34 -1.30154 -5.98102 0
M  V30 14621 N 1325.48 -0.646912 -6.99113 0
M  V30 14622 H 1330.32 -1.47623 -2.58866 0
M  V30 14623 H 1327.85 -0.738901 -1.27195 0
M  V30 14624 H 1329.81 0.452726 -4.14736 0
M  V30 14625 H 1328.44 0.90364 -3.09894 0
M  V30 14626 H 1327.49 -1.48229 -3.50332 0
M  V30 14627 H 1328.81 -1.73972 -4.67477 0
M  V30 14628 H 1327.96 0.162149 -6.06483 0
M  V30 14629 H 1326.7 0.514683 -4.84977 0
M  V30 14630 H 1325.7 -1.76218 -5.20795 0
M  V30 14631 H 1326.93 -2.10571 -6.45629 0
M  V30 14632 H 1324.88 0.135976 -6.55859 0
M  V30 14633 H 1324.79 -1.35548 -7.43749 0
M  V30 14634 H 1326.06 -0.220339 -7.79189 0
M  V30 14635 N 1330.29 1.35952 -0.797165 0
M  V30 14636 C 1331.25 2.28266 -0.206748 0
M  V30 14637 C 1332.25 1.49169 0.60043 0
M  V30 14638 O 1333.44 1.69054 0.42029 0
M  V30 14639 C 1330.58 3.33363 0.712884 0
M  V30 14640 H 1331.77 2.81992 -1.02082 0
M  V30 14641 H 1329.32 1.45648 -0.567138 0
M  V30 14642 H 1330.06 2.84806 1.551 0
M  V30 14643 H 1329.84 3.91864 0.135926 0
M  V30 14644 H 1331.33 4.02284 1.1206 0
M  V30 14645 N 1331.77 0.549846 1.47697 0
M  V30 14646 C 1332.7 -0.190364 2.32723 0
M  V30 14647 C 1333.68 -0.915933 1.43334 0
M  V30 14648 O 1334.86 -0.897838 1.72199 0
M  V30 14649 C 1331.99 -1.22545 3.24961 0
M  V30 14650 C 1330.95 -0.616805 4.23532 0
M  V30 14651 C 1330.27 -1.75599 5.05044 0
M  V30 14652 C 1331.57 0.424595 5.20571 0
M  V30 14653 H 1333.27 0.519461 2.94859 0
M  V30 14654 H 1330.81 0.251259 1.41791 0
M  V30 14655 H 1332.77 -1.75139 3.83281 0
M  V30 14656 H 1331.49 -1.96512 2.60865 0
M  V30 14657 H 1330.15 -0.112224 3.66428 0
M  V30 14658 H 1329.8 -2.48453 4.37356 0
M  V30 14659 H 1329.5 -1.35456 5.71774 0
M  V30 14660 H 1331.02 -2.28533 5.6622 0
M  V30 14661 H 1332.44 -0.0150025 5.73298 0
M  V30 14662 H 1330.83 0.7445 5.95464 0
M  V30 14663 H 1331.9 1.32318 4.66497 0
M  V30 14664 N 1333.25 -1.54984 0.285932 0
M  V30 14665 C 1334.52 -1.91872 -0.380083 0
M  V30 14666 C 1334.9 -1.21146 -1.72878 0
M  V30 14667 O 1334.25 -0.341999 -2.25926 0
M  V30 14668 C 1334.46 -3.45258 -0.509667 0
M  V30 14669 C 1335.81 -4.17232 -0.787549 0
M  V30 14670 O 1336.83 -3.51211 -0.594062 0
M  V30 14671 O 1335.69 -5.34085 -1.15826 0
M  V30 14672 H 1332.79 -0.799931 -0.209856 0
M  V30 14673 H 1335.33 -1.66403 0.332882 0
M  V30 14674 H 1334.1 -3.88829 0.439049 0
M  V30 14675 H 1333.73 -3.76715 -1.27168 0
M  V30 14676 N 1334.72 -0.0133892 -1.57594 0
M  V30 14677 C 1335.63 0.989701 -2.12702 0
M  V30 14678 C 1336.65 1.36785 -1.07545 0
M  V30 14679 O 1337.83 1.45246 -1.39519 0
M  V30 14680 C 1334.89 2.2586 -2.63036 0
M  V30 14681 C 1333.95 1.94234 -3.82847 0
M  V30 14682 C 1333.19 3.15075 -4.30771 0
M  V30 14683 O 1333.41 4.27212 -3.7795 0
M  V30 14684 O 1332.34 2.98291 -5.22787 0
M  V30 14685 H 1336.17 0.551194 -2.98656 0
M  V30 14686 H 1333.75 0.206264 -1.47969 0
M  V30 14687 H 1335.64 3.0038 -2.9555 0
M  V30 14688 H 1334.31 2.68923 -1.80173 0
M  V30 14689 H 1333.22 1.17148 -3.55285 0
M  V30 14690 H 1334.55 1.55999 -4.66824 0
M  V30 14691 N 1336.2 1.55448 0.259558 0
M  V30 14692 C 1337.43 1.81063 1.01148 0
M  V30 14693 C 1337.85 0.58875 1.78649 0
M  V30 14694 O 1337.21 -0.461971 1.75315 0
M  V30 14695 C 1337.26 3.04279 1.93512 0
M  V30 14696 O 1336.36 2.80307 3.02493 0
M  V30 14697 H 1335.7 0.598056 0.288487 0
M  V30 14698 H 1338.23 2.02614 0.284387 0
M  V30 14699 H 1338.24 3.33373 2.35215 0
M  V30 14700 H 1336.92 3.92856 1.36518 0
M  V30 14701 H 1335.5 2.62345 2.65008 0
M  V30 14702 N 1337.68 -0.524672 1.4861 0
M  V30 14703 C 1338.63 -1.62504 1.59927 0
M  V30 14704 C 1339.61 -1.543 0.456094 0
M  V30 14705 O 1340.81 -1.62231 0.707818 0
M  V30 14706 C 1337.94 -3.01207 1.64709 0
M  V30 14707 C 1337.02 -3.14495 2.84523 0
M  V30 14708 N 1337.41 -2.97741 4.08882 0
M  V30 14709 C 1335.71 -3.45559 2.81967 0
M  V30 14710 C 1336.41 -3.14585 4.89297 0
M  V30 14711 N 1335.39 -3.424 4.22212 0
M  V30 14712 H 1339.19 -1.48168 2.53818 0
M  V30 14713 H 1336.7 -0.730258 1.45055 0
M  V30 14714 H 1338.7 -3.80257 1.7091 0
M  V30 14715 H 1337.36 -3.16631 0.719376 0
M  V30 14716 H 1338.37 -2.74395 4.39235 0
M  V30 14717 H 1335.05 -3.67307 1.98474 0
M  V30 14718 H 1336.44 -3.06324 5.98009 0
M  V30 14719 N 1339.16 -1.37287 -0.77395 0
M  V30 14720 C 1340.11 -1.32955 -1.90855 0
M  V30 14721 C 1341.1 -0.218695 -1.67982 0
M  V30 14722 O 1342.31 -0.386594 -1.75799 0
M  V30 14723 H 1338.68 -0.414289 -0.62759 0
M  V30 14724 H 1340.65 -2.2874 -1.91626 0
M  V30 14725 C 1339.4 -1.15121 -3.28089 0
M  V30 14726 H 1338.72 -1.99852 -3.46264 0
M  V30 14727 H 1340.16 -1.1614 -4.07784 0
M  V30 14728 C 1338.62 0.14327 -3.36595 0
M  V30 14729 O 1339.15 1.12763 -3.85548 0
M  V30 14730 N 1337.36 0.193219 -2.89957 0
M  V30 14731 H 1336.91 -0.608471 -2.50311 0
M  V30 14732 H 1336.86 1.05897 -2.96029 0
M  V30 14733 N 1340.64 0.999871 -1.21821 0
M  V30 14734 C 1341.57 2.09044 -0.939852 0
M  V30 14735 C 1342.58 1.62609 0.0788987 0
M  V30 14736 O 1343.77 1.77832 -0.154241 0
M  V30 14737 C 1340.87 3.36641 -0.390618 0
M  V30 14738 C 1340.04 4.12139 -1.46493 0
M  V30 14739 C 1339.1 5.18023 -0.924019 0
M  V30 14740 O 1338.13 5.45996 -1.60864 0
M  V30 14741 N 1339.33 5.79926 0.258136 0
M  V30 14742 H 1342.1 2.33506 -1.8787 0
M  V30 14743 H 1339.66 1.16509 -1.12415 0
M  V30 14744 H 1341.65 4.04697 -0.0142349 0
M  V30 14745 H 1340.22 3.09298 0.453176 0
M  V30 14746 H 1339.44 3.38813 -2.01494 0
M  V30 14747 H 1340.73 4.59354 -2.18795 0
M  V30 14748 H 1340.12 5.59559 0.831288 0
M  V30 14749 H 1338.68 6.4925 0.575977 0
M  V30 14750 N 1342.11 1.02678 1.19562 0
M  V30 14751 C 1343.06 0.599259 2.24748 0
M  V30 14752 C 1344.06 -0.367079 1.65375 0
M  V30 14753 O 1345.26 -0.235887 1.78448 0
M  V30 14754 H 1341.64 0.175517 0.73123 0
M  V30 14755 H 1343.61 1.4971 2.58127 0
M  V30 14756 C 1342.36 -0.0362515 3.47681 0
M  V30 14757 H 1341.68 0.698343 3.93654 0
M  V30 14758 H 1343.12 -0.298361 4.22949 0
M  V30 14759 C 1341.58 -1.28218 3.11547 0
M  V30 14760 O 1342.11 -2.37446 3.24009 0
M  V30 14761 N 1340.32 -1.17014 2.66 0
M  V30 14762 H 1339.86 -0.28132 2.56059 0
M  V30 14763 H 1339.82 -2.00473 2.42194 0
M  V30 14764 N 1343.59 -1.35528 0.804364 0
M  V30 14765 C 1344.52 -2.32388 0.227604 0
M  V30 14766 C 1345.5 -1.57368 -0.645709 0
M  V30 14767 O 1346.69 -1.85448 -0.576441 0
M  V30 14768 C 1343.82 -3.41603 -0.62645 0
M  V30 14769 C 1342.77 -4.27743 0.148187 0
M  V30 14770 C 1342.1 -5.28259 -0.827425 0
M  V30 14771 C 1343.4 -5.04661 1.34591 0
M  V30 14772 H 1345.09 -2.80874 1.03684 0
M  V30 14773 H 1342.64 -1.3504 0.500031 0
M  V30 14774 H 1344.59 -4.08365 -1.03999 0
M  V30 14775 H 1343.32 -2.91721 -1.46855 0
M  V30 14776 H 1341.97 -3.62558 0.542874 0
M  V30 14777 H 1341.62 -4.74645 -1.66496 0
M  V30 14778 H 1341.32 -5.86763 -0.313453 0
M  V30 14779 H 1342.85 -5.97893 -1.23921 0
M  V30 14780 H 1344.26 -5.6438 1.00736 0
M  V30 14781 H 1342.66 -5.7265 1.79422 0
M  V30 14782 H 1343.73 -4.35432 2.1337 0
M  V30 14783 N 1345.07 -0.557671 -1.47404 0
M  V30 14784 C 1346.02 0.189765 -2.30019 0
M  V30 14785 C 1346.99 0.907923 -1.3909 0
M  V30 14786 O 1348.17 0.903528 -1.68051 0
M  V30 14787 C 1345.31 1.21348 -3.23061 0
M  V30 14788 C 1344.43 0.501343 -4.29081 0
M  V30 14789 C 1343.56 1.51039 -5.09275 0
M  V30 14790 C 1342.6 0.783254 -6.07068 0
M  V30 14791 N 1341.74 1.73916 -6.80219 0
M  V30 14792 H 1346.58 -0.520856 -2.93413 0
M  V30 14793 H 1344.11 -0.268686 -1.44625 0
M  V30 14794 H 1346.07 1.81961 -3.75428 0
M  V30 14795 H 1344.7 1.89213 -2.61531 0
M  V30 14796 H 1343.75 -0.219317 -3.79767 0
M  V30 14797 H 1345.07 -0.0682656 -4.98753 0
M  V30 14798 H 1344.22 2.19004 -5.65793 0
M  V30 14799 H 1342.96 2.11392 -4.39505 0
M  V30 14800 H 1341.96 0.0896883 -5.49727 0
M  V30 14801 H 1343.19 0.185464 -6.78847 0
M  V30 14802 H 1341.14 2.33125 -6.13179 0
M  V30 14803 H 1341.05 1.22171 -7.46063 0
M  V30 14804 H 1342.32 2.40993 -7.41311 0
M  V30 14805 N 1346.55 1.54831 -0.294147 0
M  V30 14806 C 1347.46 2.26939 0.594621 0
M  V30 14807 C 1348.48 1.30209 1.15419 0
M  V30 14808 O 1349.65 1.6318 1.18044 0
M  V30 14809 C 1346.72 2.9909 1.75345 0
M  V30 14810 C 1345.78 4.11342 1.22865 0
M  V30 14811 C 1345.01 4.80043 2.33225 0
M  V30 14812 O 1345.23 4.48062 3.52983 0
M  V30 14813 O 1344.17 5.67593 2.00304 0
M  V30 14814 H 1347.99 3.03698 0.00989235 0
M  V30 14815 H 1345.58 1.49276 -0.0608528 0
M  V30 14816 H 1347.46 3.44369 2.42875 0
M  V30 14817 H 1346.14 2.25232 2.32492 0
M  V30 14818 H 1345.04 3.70478 0.519279 0
M  V30 14819 H 1346.38 4.87158 0.702703 0
M  V30 14820 N 1348.03 0.0217466 1.57585 0
M  V30 14821 C 1349.27 -0.653715 1.92609 0
M  V30 14822 C 1349.63 -1.70158 0.897998 0
M  V30 14823 O 1348.92 -1.91403 -0.0869654 0
M  V30 14824 C 1349.12 -1.3197 3.32143 0
M  V30 14825 C 1348.94 -0.33786 4.48429 0
M  V30 14826 C 1347.71 0.0596192 5.05265 0
M  V30 14827 C 1349.91 0.404844 5.12704 0
M  V30 14828 N 1347.89 1.03739 6.05071 0
M  V30 14829 C 1349.27 1.2366 6.07543 0
M  V30 14830 C 1351.32 0.466341 4.95711 0
M  V30 14831 C 1350.02 2.1243 6.87216 0
M  V30 14832 C 1352.05 1.34134 5.75988 0
M  V30 14833 C 1351.41 2.1609 6.70436 0
M  V30 14834 H 1347.51 -0.211748 0.752786 0
M  V30 14835 H 1350.09 0.0871946 1.94505 0
M  V30 14836 H 1348.27 -2.03078 3.3108 0
M  V30 14837 H 1350 -1.95159 3.54535 0
M  V30 14838 H 1346.75 -0.313299 4.72563 0
M  V30 14839 H 1347.18 1.5223 6.59663 0
M  V30 14840 H 1351.82 -0.153024 4.22523 0
M  V30 14841 H 1349.54 2.75424 7.59715 0
M  V30 14842 H 1353.12 1.39312 5.64875 0
M  V30 14843 H 1352 2.82701 7.31471 0
M  V30 14844 N 1349.51 -1.55583 -0.251311 0
M  V30 14845 C 1350.92 -1.47908 -0.599606 0
M  V30 14846 C 1351.12 -0.711061 -1.88537 0
M  V30 14847 O 1350.18 -0.238639 -2.5137 0
M  V30 14848 C 1351.49 -2.92284 -0.706429 0
M  V30 14849 C 1353.04 -3.02629 -0.799049 0
M  V30 14850 C 1353.51 -4.48303 -0.93747 0
M  V30 14851 N 1355 -4.52222 -1.00245 0
M  V30 14852 C 1355.74 -5.62181 -1.12874 0
M  V30 14853 N 1355.24 -6.81958 -1.22085 0
M  V30 14854 N 1357.03 -5.49968 -1.16155 0
M  V30 14855 H 1349.18 -2.0396 0.592806 0
M  V30 14856 H 1351.44 -0.925797 0.203971 0
M  V30 14857 H 1351.15 -3.51297 0.168243 0
M  V30 14858 H 1351.02 -3.42524 -1.57979 0
M  V30 14859 H 1353.41 -2.43699 -1.66418 0
M  V30 14860 H 1353.49 -2.55607 0.099367 0
M  V30 14861 H 1353.13 -5.07842 -0.0769166 0
M  V30 14862 H 1353.06 -4.93002 -1.85086 0
M  V30 14863 H 1355.56 -3.65951 -0.94279 0
M  V30 14864 H 1355.87 -7.6151 -1.31616 0
M  V30 14865 H 1354.21 -6.84728 -1.1905 0
M  V30 14866 H 1357.4 -4.55327 -1.08604 0
M  V30 14867 H 1357.58 -6.35701 -1.25653 0
M  V30 14868 N 1350.98 0.516783 -1.48886 0
M  V30 14869 C 1352.26 1.27808 -1.48069 0
M  V30 14870 C 1352.64 2.10154 -0.19963 0
M  V30 14871 O 1351.99 2.13342 0.818386 0
M  V30 14872 C 1352.2 2.14828 -2.75045 0
M  V30 14873 C 1353.55 2.74536 -3.23906 0
M  V30 14874 O 1354.57 2.25107 -2.76053 0
M  V30 14875 O 1353.43 3.6448 -4.07206 0
M  V30 14876 H 1350.52 0.577535 -0.591931 0
M  V30 14877 H 1353.07 0.532351 -1.61134 0
M  V30 14878 H 1351.84 1.53852 -3.59785 0
M  V30 14879 H 1351.46 2.96624 -2.64764 0
M  V30 14880 N 1352.46 1.37696 0.766659 0
M  V30 14881 C 1353.41 1.33871 1.88009 0
M  V30 14882 C 1354.38 0.2034 1.6485 0
M  V30 14883 O 1355.56 0.393569 1.86697 0
M  V30 14884 C 1352.7 1.1566 3.25141 0
M  V30 14885 C 1351.82 2.38465 3.6022 0
M  V30 14886 C 1350.95 2.13087 4.86587 0
M  V30 14887 C 1349.99 3.31732 5.14413 0
M  V30 14888 N 1349.13 3.05872 6.3197 0
M  V30 14889 H 1353.97 2.29065 1.90613 0
M  V30 14890 H 1351.5 1.13821 0.931837 0
M  V30 14891 H 1353.46 1.03122 4.04255 0
M  V30 14892 H 1352.09 0.241115 3.21898 0
M  V30 14893 H 1351.14 2.61725 2.76051 0
M  V30 14894 H 1352.46 3.26933 3.76718 0
M  V30 14895 H 1351.61 1.97609 5.73616 0
M  V30 14896 H 1350.35 1.21965 4.72203 0
M  V30 14897 H 1349.35 3.47743 4.25858 0
M  V30 14898 H 1350.58 4.23712 5.30702 0
M  V30 14899 H 1348.53 2.17384 6.18935 0
M  V30 14900 H 1348.44 3.87885 6.48908 0
M  V30 14901 H 1349.71 2.94023 7.21922 0
M  V30 14902 N 1353.94 -0.993397 1.22349 0
M  V30 14903 C 1354.87 -2.10171 1.01737 0
M  V30 14904 C 1355.85 -1.69989 -0.0615276 0
M  V30 14905 O 1357.04 -1.93939 0.100591 0
M  V30 14906 C 1354.17 -3.42186 0.593801 0
M  V30 14907 C 1353.12 -3.96215 1.61858 0
M  V30 14908 C 1352.45 -5.24272 1.05086 0
M  V30 14909 C 1353.75 -4.26956 3.00842 0
M  V30 14910 H 1355.44 -2.27673 1.94436 0
M  V30 14911 H 1352.99 -1.09408 0.936258 0
M  V30 14912 H 1354.94 -4.19131 0.436715 0
M  V30 14913 H 1353.66 -3.2451 -0.368855 0
M  V30 14914 H 1352.32 -3.21401 1.76343 0
M  V30 14915 H 1351.97 -5.02937 0.0795747 0
M  V30 14916 H 1351.67 -5.61387 1.73547 0
M  V30 14917 H 1353.19 -6.03851 0.905349 0
M  V30 14918 H 1354.61 -4.94699 2.89734 0
M  V30 14919 H 1353 -4.75242 3.66422 0
M  V30 14920 H 1354.07 -3.34752 3.50812 0
M  V30 14921 N 1355.42 -1.03311 -1.19015 0
M  V30 14922 C 1356.83 -0.750946 -1.4083 0
M  V30 14923 C 1357.03 0.662704 -1.90291 0
M  V30 14924 O 1356.09 1.42806 -2.08237 0
M  V30 14925 C 1357.4 -1.79064 -2.41571 0
M  V30 14926 C 1358.95 -1.81068 -2.55311 0
M  V30 14927 C 1359.43 -2.84008 -3.59309 0
M  V30 14928 N 1360.92 -2.82852 -3.6681 0
M  V30 14929 C 1361.65 -3.59156 -4.46984 0
M  V30 14930 N 1361.15 -4.45188 -5.30829 0
M  V30 14931 N 1362.94 -3.47679 -4.41674 0
M  V30 14932 H 1355.09 -1.94548 -0.852329 0
M  V30 14933 H 1357.35 -0.841344 -0.436858 0
M  V30 14934 H 1357.06 -2.80425 -2.12261 0
M  V30 14935 H 1356.93 -1.61646 -3.40809 0
M  V30 14936 H 1359.32 -0.803825 -2.83941 0
M  V30 14937 H 1359.4 -2.02562 -1.56212 0
M  V30 14938 H 1359.05 -3.84867 -3.3142 0
M  V30 14939 H 1358.98 -2.59771 -4.58069 0
M  V30 14940 H 1361.47 -2.20457 -3.06932 0
M  V30 14941 H 1361.78 -5.00139 -5.89135 0
M  V30 14942 H 1360.13 -4.49259 -5.30275 0
M  V30 14943 H 1363.32 -2.79876 -3.75216 0
M  V30 14944 H 1363.49 -4.07396 -5.03917 0
M  V30 14945 N 1356.9 1.35099 -0.81154 0
M  V30 14946 C 1358.31 1.81082 -0.454543 0
M  V30 14947 C 1358.66 1.67361 1.02395 0
M  V30 14948 O 1357.78 1.20707 1.79607 0
M  V30 14949 C 1358.38 3.2877 -0.818274 0
M  V30 14950 C 1356.94 3.72877 -0.513808 0
M  V30 14951 C 1356.08 2.57008 -1.04125 0
M  V30 14952 H 1359.03 1.23007 -1.00274 0
M  V30 14953 H 1359.06 3.80318 -0.117683 0
M  V30 14954 H 1358.57 3.38725 -1.89439 0
M  V30 14955 H 1356.67 3.68468 0.553368 0
M  V30 14956 H 1356.78 4.67455 -1.0499 0
M  V30 14957 H 1355.15 2.5045 -0.463337 0
M  V30 14958 H 1355.93 2.69738 -2.12358 0
M  V30 14959 N 1358.37 0.56548 1.47106 0
M  V30 14960 C 1359.79 0.225855 1.57994 0
M  V30 14961 C 1359.99 -1.27173 1.56299 0
M  V30 14962 O 1359.05 -2.05242 1.47078 0
M  V30 14963 C 1360.36 0.859829 2.88145 0
M  V30 14964 C 1361.91 0.831821 3.01744 0
M  V30 14965 C 1362.38 1.44502 4.34607 0
M  V30 14966 N 1363.87 1.40857 4.41263 0
M  V30 14967 C 1364.61 1.85258 5.42648 0
M  V30 14968 N 1364.1 2.37553 6.508 0
M  V30 14969 N 1365.9 1.76279 5.33744 0
M  V30 14970 H 1358.05 1.53837 1.46451 0
M  V30 14971 H 1360.31 0.642013 0.697512 0
M  V30 14972 H 1360.02 1.91264 2.95146 0
M  V30 14973 H 1359.89 0.357762 3.755 0
M  V30 14974 H 1362.28 -0.212319 2.94335 0
M  V30 14975 H 1362.36 1.37173 2.1591 0
M  V30 14976 H 1362 2.48827 4.42773 0
M  V30 14977 H 1361.93 0.880479 5.19187 0
M  V30 14978 H 1364.42 1.02614 3.63702 0
M  V30 14979 H 1364.74 2.69335 7.24347 0
M  V30 14980 H 1363.08 2.41569 6.51667 0
M  V30 14981 H 1366.27 1.35195 4.48152 0
M  V30 14982 H 1366.45 2.11199 6.12616 0
M  V30 14983 N 1359.85 -1.54672 0.302354 0
M  V30 14984 C 1360.8 -2.2357 -0.573141 0
M  V30 14985 C 1361.77 -1.21878 -1.12849 0
M  V30 14986 O 1362.95 -1.50502 -1.17277 0
M  V30 14987 C 1360.09 -2.98111 -1.7385 0
M  V30 14988 C 1359.21 -4.14579 -1.21441 0
M  V30 14989 C 1358.34 -4.76699 -2.34374 0
M  V30 14990 C 1357.38 -5.8531 -1.79106 0
M  V30 14991 N 1356.52 -6.41379 -2.85618 0
M  V30 14992 H 1361.36 -2.97993 0.0209969 0
M  V30 14993 H 1358.9 -1.47083 0.0221318 0
M  V30 14994 H 1360.85 -3.39561 -2.42392 0
M  V30 14995 H 1359.48 -2.26063 -2.30425 0
M  V30 14996 H 1358.54 -3.78061 -0.421204 0
M  V30 14997 H 1359.85 -4.92824 -0.769821 0
M  V30 14998 H 1359 -5.21009 -3.10861 0
M  V30 14999 H 1357.74 -3.9779 -2.8216 0
M  V30 15000 H 1356.75 -5.40423 -1.01109 0
M  V30 15001 H 1357.97 -6.66104 -1.32222 0
M  V30 15002 H 1355.92 -5.65352 -3.32735 0
M  V30 15003 H 1355.83 -7.14974 -2.45659 0
M  V30 15004 H 1357.1 -6.90346 -3.61998 0
M  V30 15005 N 1361.33 -0.0301034 -1.57571 0
M  V30 15006 C 1362.28 0.951421 -2.10277 0
M  V30 15007 C 1363.25 1.3224 -1.00508 0
M  V30 15008 O 1364.43 1.41554 -1.27934 0
M  V30 15009 C 1361.57 2.2282 -2.63525 0
M  V30 15010 C 1360.69 1.91359 -3.87306 0
M  V30 15011 C 1359.82 3.13339 -4.28943 0
M  V30 15012 C 1358.86 2.77701 -5.4548 0
M  V30 15013 N 1358 3.9231 -5.82269 0
M  V30 15014 H 1362.84 0.495049 -2.93859 0
M  V30 15015 H 1360.37 0.232756 -1.45247 0
M  V30 15016 H 1362.33 2.97502 -2.92487 0
M  V30 15017 H 1360.96 2.66072 -1.82772 0
M  V30 15018 H 1360.01 1.06915 -3.65066 0
M  V30 15019 H 1361.33 1.61112 -4.72064 0
M  V30 15020 H 1360.48 3.9634 -4.59347 0
M  V30 15021 H 1359.22 3.46747 -3.42954 0
M  V30 15022 H 1358.22 1.93113 -5.14769 0
M  V30 15023 H 1359.45 2.45508 -6.33169 0
M  V30 15024 H 1357.39 4.25559 -4.99235 0
M  V30 15025 H 1357.31 3.65691 -6.61669 0
M  V30 15026 H 1358.58 4.76012 -6.17279 0
M  V30 15027 N 1362.81 1.55714 0.243056 0
M  V30 15028 C 1363.77 1.89832 1.28438 0
M  V30 15029 C 1364.77 0.775083 1.40887 0
M  V30 15030 O 1365.96 1.04304 1.39521 0
M  V30 15031 C 1363.09 2.13016 2.66153 0
M  V30 15032 H 1364.29 2.82947 0.994022 0
M  V30 15033 H 1361.84 1.48665 0.482521 0
M  V30 15034 H 1362.57 1.22381 3.00322 0
M  V30 15035 H 1362.36 2.94824 2.58498 0
M  V30 15036 H 1363.85 2.40581 3.41336 0
M  V30 15037 N 1364.29 -0.50888 1.49158 0
M  V30 15038 C 1365.22 -1.62008 1.68154 0
M  V30 15039 C 1366.2 -1.61624 0.53025 0
M  V30 15040 O 1367.38 -1.78489 0.765205 0
M  V30 15041 C 1364.51 -3.00525 1.74075 0
M  V30 15042 C 1363.47 -3.15773 2.88915 0
M  V30 15043 C 1362.79 -4.55562 2.79942 0
M  V30 15044 C 1364.09 -2.96542 4.29953 0
M  V30 15045 H 1365.79 -1.46365 2.61185 0
M  V30 15046 H 1363.33 -0.702705 1.2569 0
M  V30 15047 H 1365.29 -3.78154 1.8595 0
M  V30 15048 H 1364.01 -3.17238 0.776373 0
M  V30 15049 H 1362.67 -2.40567 2.76628 0
M  V30 15050 H 1362.32 -4.6914 1.81429 0
M  V30 15051 H 1362.02 -4.66706 3.57015 0
M  V30 15052 H 1363.54 -5.35262 2.93814 0
M  V30 15053 H 1364.95 -3.63947 4.42963 0
M  V30 15054 H 1363.35 -3.19164 5.08187 0
M  V30 15055 H 1364.42 -1.92745 4.44946 0
M  V30 15056 N 1365.76 -1.381 -0.759346 0
M  V30 15057 C 1366.67 -1.37086 -1.9038 0
M  V30 15058 C 1367.69 -0.268738 -1.71912 0
M  V30 15059 O 1368.87 -0.506205 -1.94935 0
M  V30 15060 C 1365.93 -1.18905 -3.25672 0
M  V30 15061 C 1364.99 -2.3887 -3.56707 0
M  V30 15062 C 1364.23 -2.21546 -4.85544 0
M  V30 15063 O 1364.45 -1.20616 -5.57501 0
M  V30 15064 O 1363.38 -3.10009 -5.15924 0
M  V30 15065 H 1367.21 -2.33505 -1.94188 0
M  V30 15066 H 1364.79 -1.18959 -0.903826 0
M  V30 15067 H 1366.68 -1.10803 -4.06572 0
M  V30 15068 H 1365.35 -0.255675 -3.22689 0
M  V30 15069 H 1364.26 -2.52546 -2.75992 0
M  V30 15070 H 1365.59 -3.30817 -3.64446 0
M  V30 15071 N 1367.24 0.986894 -1.22875 0
M  V30 15072 C 1368.15 2.11232 -1.02069 0
M  V30 15073 C 1369.17 1.73969 0.0328424 0
M  V30 15074 O 1370.34 2.00754 -0.161197 0
M  V30 15075 C 1367.41 3.41337 -0.60747 0
M  V30 15076 C 1366.47 3.92665 -1.73531 0
M  V30 15077 C 1365.7 5.1656 -1.34171 0
M  V30 15078 O 1365.93 5.69964 -0.223106 0
M  V30 15079 O 1364.86 5.61791 -2.16041 0
M  V30 15080 H 1368.69 2.3167 -1.96374 0
M  V30 15081 H 1366.27 1.09607 -1.01522 0
M  V30 15082 H 1368.15 4.19613 -0.387661 0
M  V30 15083 H 1366.83 3.22244 0.306653 0
M  V30 15084 H 1365.74 3.15534 -2.0097 0
M  V30 15085 H 1367.07 4.162 -2.62751 0
M  V30 15086 N 1368.72 1.0394 1.18466 0
M  V30 15087 C 1370 0.65632 1.8426 0
M  V30 15088 C 1370.38 -0.864288 1.92596 0
M  V30 15089 O 1369.73 -1.76524 1.45092 0
M  V30 15090 C 1369.94 1.33067 3.22636 0
M  V30 15091 C 1371.28 1.46065 3.98686 0
M  V30 15092 O 1372.31 1.28867 3.32072 0
M  V30 15093 O 1371.17 1.74078 5.18034 0
M  V30 15094 H 1368.26 0.229484 0.794523 0
M  V30 15095 H 1370.81 1.13821 1.25868 0
M  V30 15096 H 1369.58 2.36866 3.11465 0
M  V30 15097 H 1369.2 0.837313 3.88683 0
M  V30 15098 N 1370.2 -1.34667 0.818693 0
M  V30 15099 C 1371.13 -2.32134 0.252239 0
M  V30 15100 C 1372.11 -1.58044 -0.628982 0
M  V30 15101 O 1373.29 -1.86049 -0.55674 0
M  V30 15102 C 1370.42 -3.42249 -0.590183 0
M  V30 15103 C 1369.38 -4.27562 0.193547 0
M  V30 15104 C 1368.7 -5.29107 -0.771349 0
M  V30 15105 C 1370 -5.03205 1.39936 0
M  V30 15106 H 1371.7 -2.79758 1.06657 0
M  V30 15107 H 1369.24 -1.34502 0.514325 0
M  V30 15108 H 1371.2 -4.09445 -0.996616 0
M  V30 15109 H 1369.92 -2.93262 -1.43752 0
M  V30 15110 H 1368.58 -3.61962 0.581297 0
M  V30 15111 H 1368.23 -4.76384 -1.61453 0
M  V30 15112 H 1367.93 -5.87063 -0.251201 0
M  V30 15113 H 1369.45 -5.99174 -1.17573 0
M  V30 15114 H 1370.87 -5.6328 1.06717 0
M  V30 15115 H 1369.26 -5.70715 1.85485 0
M  V30 15116 H 1370.33 -4.33145 2.17976 0
M  V30 15117 N 1371.68 -0.573274 -1.46804 0
M  V30 15118 C 1372.62 0.178246 -2.31916 0
M  V30 15119 C 1373.62 0.89366 -1.4391 0
M  V30 15120 O 1374.82 0.81312 -1.60588 0
M  V30 15121 H 1371.2 0.0763519 -0.748114 0
M  V30 15122 H 1373.17 -0.558552 -2.93126 0
M  V30 15123 C 1371.92 1.18476 -3.26892 0
M  V30 15124 H 1371.24 0.643691 -3.94584 0
M  V30 15125 H 1372.68 1.68118 -3.89246 0
M  V30 15126 C 1371.14 2.24092 -2.51564 0
M  V30 15127 O 1371.67 3.3129 -2.27178 0
M  V30 15128 N 1369.88 1.98447 -2.1229 0
M  V30 15129 H 1369.42 1.11283 -2.32323 0
M  V30 15130 H 1369.38 2.69325 -1.62207 0
M  V30 15131 N 1373.15 1.5451 -0.310553 0
M  V30 15132 C 1374.09 2.2134 0.595098 0
M  V30 15133 C 1375.1 1.20917 1.09009 0
M  V30 15134 O 1376.29 1.47458 1.0059 0
M  V30 15135 C 1373.39 2.85384 1.82782 0
M  V30 15136 C 1372.56 4.11826 1.47372 0
M  V30 15137 C 1371.62 4.59584 2.56259 0
M  V30 15138 O 1370.65 5.24567 2.20949 0
M  V30 15139 N 1371.85 4.32709 3.86967 0
M  V30 15140 H 1374.61 2.99691 0.0229291 0
M  V30 15141 H 1372.17 1.61351 -0.133173 0
M  V30 15142 H 1374.17 3.14263 2.54992 0
M  V30 15143 H 1372.74 2.10816 2.30815 0
M  V30 15144 H 1371.96 3.89853 0.583826 0
M  V30 15145 H 1373.24 4.94138 1.21265 0
M  V30 15146 H 1372.64 3.80669 4.18458 0
M  V30 15147 H 1371.2 4.66275 4.55446 0
M  V30 15148 N 1374.63 0.0384594 1.57553 0
M  V30 15149 C 1375.58 -0.940256 2.10779 0
M  V30 15150 C 1376.55 -1.31705 1.01208 0
M  V30 15151 O 1377.74 -1.40874 1.28683 0
M  V30 15152 C 1374.88 -2.21419 2.64703 0
M  V30 15153 C 1373.99 -1.89302 3.88315 0
M  V30 15154 C 1373.12 -3.1106 4.30599 0
M  V30 15155 C 1372.16 -2.74805 5.46945 0
M  V30 15156 N 1371.3 -3.89217 5.84341 0
M  V30 15157 H 1376.14 -0.479458 2.94118 0
M  V30 15158 H 1373.68 -0.22505 1.45368 0
M  V30 15159 H 1375.63 -2.95946 2.94061 0
M  V30 15160 H 1374.26 -2.65099 1.84181 0
M  V30 15161 H 1373.32 -1.04977 3.65628 0
M  V30 15162 H 1374.63 -1.58607 4.72912 0
M  V30 15163 H 1373.78 -3.93898 4.61442 0
M  V30 15164 H 1372.52 -3.44924 3.44788 0
M  V30 15165 H 1371.53 -1.9038 5.15786 0
M  V30 15166 H 1372.75 -2.42147 6.34462 0
M  V30 15167 H 1370.7 -4.22905 5.01485 0
M  V30 15168 H 1370.61 -3.62177 6.63599 0
M  V30 15169 H 1371.88 -4.72732 6.19794 0
M  V30 15170 N 1376.11 -1.55841 -0.234795 0
M  V30 15171 C 1377.06 -1.91326 -1.29086 0
M  V30 15172 C 1378.03 -0.768868 -1.47233 0
M  V30 15173 O 1379.21 -1.0236 -1.61019 0
M  V30 15174 C 1376.35 -2.22388 -2.6389 0
M  V30 15175 C 1375.47 -3.49693 -2.5365 0
M  V30 15176 C 1374.6 -3.70267 -3.80889 0
M  V30 15177 C 1373.64 -4.91132 -3.65317 0
M  V30 15178 N 1372.78 -5.08163 -4.84474 0
M  V30 15179 H 1377.62 -2.81382 -0.981246 0
M  V30 15180 H 1375.15 -1.3928 -0.47324 0
M  V30 15181 H 1377.11 -2.38404 -3.42373 0
M  V30 15182 H 1375.74 -1.35521 -2.92974 0
M  V30 15183 H 1374.79 -3.41943 -1.66672 0
M  V30 15184 H 1376.11 -4.38326 -2.38059 0
M  V30 15185 H 1375.26 -3.86308 -4.67815 0
M  V30 15186 H 1374 -2.7989 -3.9939 0
M  V30 15187 H 1373 -4.75054 -2.76774 0
M  V30 15188 H 1374.23 -5.8298 -3.48298 0
M  V30 15189 H 1372.18 -4.20726 -5.03314 0
M  V30 15190 H 1372.09 -5.90904 -4.71559 0
M  V30 15191 H 1373.36 -5.28627 -5.72865 0
M  V30 15192 N 1377.59 0.500963 -1.49426 0
M  V30 15193 C 1379.01 0.832142 -1.36189 0
M  V30 15194 C 1379.21 1.9759 -0.395014 0
M  V30 15195 O 1378.26 2.51905 0.173294 0
M  V30 15196 C 1379.57 1.17232 -2.76907 0
M  V30 15197 C 1381.12 1.28052 -2.85607 0
M  V30 15198 C 1381.6 1.65399 -4.27092 0
M  V30 15199 N 1383.09 1.72448 -4.29902 0
M  V30 15200 C 1383.82 2.02789 -5.36343 0
M  V30 15201 N 1383.32 2.31354 -6.53029 0
M  V30 15202 N 1385.11 2.0404 -5.23759 0
M  V30 15203 H 1377.26 -0.253253 -2.10885 0
M  V30 15204 H 1379.53 -0.0507111 -0.946643 0
M  V30 15205 H 1379.23 0.405247 -3.49357 0
M  V30 15206 H 1379.11 2.11574 -3.12276 0
M  V30 15207 H 1381.49 2.03831 -2.13394 0
M  V30 15208 H 1381.57 0.317603 -2.53821 0
M  V30 15209 H 1381.22 0.901704 -4.99832 0
M  V30 15210 H 1381.15 2.6279 -4.56343 0
M  V30 15211 H 1383.64 1.52532 -3.45749 0
M  V30 15212 H 1383.95 2.53695 -7.29972 0
M  V30 15213 H 1382.3 2.28811 -6.56255 0
M  V30 15214 H 1385.49 1.812 -4.31606 0
M  V30 15215 H 1385.66 2.27353 -6.06807 0
M  V30 15216 N 1379.07 1.38501 0.752011 0
M  V30 15217 C 1379.98 1.38094 1.8965 0
M  V30 15218 C 1380.99 0.277851 1.71767 0
M  V30 15219 O 1382.17 0.516536 1.94663 0
M  V30 15220 C 1379.23 1.2063 3.25037 0
M  V30 15221 C 1378.3 2.40758 3.55435 0
M  V30 15222 C 1377.53 2.24118 4.84362 0
M  V30 15223 O 1377.75 1.23571 5.56854 0
M  V30 15224 O 1376.69 3.12741 5.14273 0
M  V30 15225 H 1380.51 2.34532 1.92947 0
M  V30 15226 H 1378.1 1.19437 0.897504 0
M  V30 15227 H 1379.98 1.12957 4.05979 0
M  V30 15228 H 1378.65 0.272785 3.22549 0
M  V30 15229 H 1377.56 2.54006 2.74648 0
M  V30 15230 H 1378.89 3.32745 3.62686 0
M  V30 15231 N 1380.55 -0.980364 1.23396 0
M  V30 15232 C 1381.48 -2.07522 0.972991 0
M  V30 15233 C 1382.49 -1.62714 -0.0530191 0
M  V30 15234 O 1383.68 -1.77564 0.182513 0
M  V30 15235 C 1380.78 -3.35977 0.444126 0
M  V30 15236 C 1379.95 -4.09756 1.53031 0
M  V30 15237 C 1379.01 -5.16488 1.00631 0
M  V30 15238 O 1378.04 -5.43368 1.69529 0
M  V30 15239 N 1379.24 -5.80263 -0.165842 0
M  V30 15240 H 1382 -2.30487 1.91561 0
M  V30 15241 H 1379.57 -1.14706 1.14255 0
M  V30 15242 H 1381.56 -4.04624 0.078617 0
M  V30 15243 H 1380.13 -3.0998 -0.403912 0
M  V30 15244 H 1379.35 -3.35564 2.06858 0
M  V30 15245 H 1380.64 -4.55815 2.26076 0
M  V30 15246 H 1380.03 -5.60811 -0.742162 0
M  V30 15247 H 1378.59 -6.50084 -0.472614 0
M  V30 15248 N 1382.02 -1.04567 -1.17913 0
M  V30 15249 C 1382.93 -0.651674 -2.25367 0
M  V30 15250 C 1383.95 0.32437 -1.7095 0
M  V30 15251 O 1385.13 0.178039 -2.00612 0
M  V30 15252 C 1382.19 -0.0259452 -3.4669 0
M  V30 15253 C 1381.25 -1.05163 -4.1622 0
M  V30 15254 C 1380.48 -0.45567 -5.31751 0
M  V30 15255 O 1380.71 0.736698 -5.65623 0
M  V30 15256 O 1379.64 -1.18684 -5.90083 0
M  V30 15257 H 1383.47 -1.54704 -2.61344 0
M  V30 15258 H 1381.05 -0.816852 -1.25092 0
M  V30 15259 H 1382.93 0.322126 -4.20167 0
M  V30 15260 H 1381.61 0.843165 -3.12526 0
M  V30 15261 H 1380.52 -1.45159 -3.44789 0
M  V30 15262 H 1381.85 -1.89168 -4.54397 0
M  V30 15263 N 1383.5 1.34231 -0.825823 0
M  V30 15264 C 1384.43 2.27366 -0.194964 0
M  V30 15265 C 1385.41 1.49029 0.650315 0
M  V30 15266 O 1386.6 1.7824 0.613424 0
M  V30 15267 C 1383.72 3.30796 0.727439 0
M  V30 15268 C 1382.77 4.26481 -0.0406869 0
M  V30 15269 S 1383.6 5.17151 -1.38981 0
M  V30 15270 C 1384.76 6.24115 -0.472354 0
M  V30 15271 H 1384.99 2.80524 -0.984559 0
M  V30 15272 H 1382.52 1.41323 -0.621875 0
M  V30 15273 H 1384.48 3.90875 1.25406 0
M  V30 15274 H 1383.14 2.76479 1.49058 0
M  V30 15275 H 1382.34 4.99651 0.660652 0
M  V30 15276 H 1381.94 3.7067 -0.497956 0
M  V30 15277 H 1384.23 6.76671 0.334956 0
M  V30 15278 H 1385.17 6.98303 -1.17383 0
M  V30 15279 H 1385.58 5.64469 -0.0594964 0
M  V30 15280 N 1384.98 0.581051 1.46498 0
M  V30 15281 C 1386.23 0.0659956 2.02392 0
M  V30 15282 C 1386.55 -1.29329 1.45273 0
M  V30 15283 O 1385.81 -1.86047 0.607041 0
M  V30 15284 C 1386.11 -0.0514774 3.57363 0
M  V30 15285 C 1385.77 1.24 4.33514 0
M  V30 15286 C 1384.44 1.59383 4.54038 0
M  V30 15287 C 1386.79 2.09473 4.77253 0
M  V30 15288 C 1384.12 2.8004 5.15552 0
M  V30 15289 C 1386.47 3.29355 5.401 0
M  V30 15290 C 1385.13 3.65022 5.58852 0
M  V30 15291 H 1384.4 0.0241495 0.740606 0
M  V30 15292 H 1387.05 0.757354 1.75887 0
M  V30 15293 H 1385.35 -0.825955 3.82995 0
M  V30 15294 H 1387.05 -0.465726 3.98286 0
M  V30 15295 H 1383.64 0.954547 4.17835 0
M  V30 15296 H 1387.83 1.83441 4.61154 0
M  V30 15297 H 1383.08 3.07814 5.28262 0
M  V30 15298 H 1387.26 3.95855 5.7295 0
M  V30 15299 H 1384.88 4.58607 6.06287 0
M  V30 15300 N 1386.46 -1.54343 0.318742 0
M  V30 15301 C 1387.7 -2.0048 -0.285276 0
M  V30 15302 C 1388.03 -1.20698 -1.5252 0
M  V30 15303 O 1387.29 -0.275893 -1.93746 0
M  V30 15304 C 1387.59 -3.51079 -0.669181 0
M  V30 15305 C 1387.25 -4.48433 0.471017 0
M  V30 15306 C 1385.91 -4.74771 0.783985 0
M  V30 15307 C 1388.27 -5.06304 1.23715 0
M  V30 15308 C 1385.59 -5.56239 1.86589 0
M  V30 15309 C 1387.95 -5.88951 2.30911 0
M  V30 15310 C 1386.61 -6.13592 2.62794 0
M  V30 15311 H 1385.88 -0.73361 -0.10439 0
M  V30 15312 H 1388.53 -1.86341 0.441521 0
M  V30 15313 H 1386.83 -3.62921 -1.47633 0
M  V30 15314 H 1388.53 -3.84216 -1.148 0
M  V30 15315 H 1385.12 -4.2805 0.217004 0
M  V30 15316 H 1389.3 -4.85943 1.00862 0
M  V30 15317 H 1384.56 -5.73563 2.11744 0
M  V30 15318 H 1388.73 -6.32814 2.90722 0
M  V30 15319 H 1386.36 -6.76508 3.46757 0
M  V30 15320 N 1387.94 -0.0468143 -1.5753 0
M  V30 15321 C 1388.88 0.929065 -2.11275 0
M  V30 15322 C 1389.85 1.31166 -1.01905 0
M  V30 15323 O 1391.04 1.40189 -1.29428 0
M  V30 15324 C 1388.18 2.20012 -2.65873 0
M  V30 15325 C 1387.29 1.8724 -3.89314 0
M  V30 15326 C 1386.43 3.08772 -4.32242 0
M  V30 15327 C 1385.46 2.719 -5.48395 0
M  V30 15328 N 1384.6 3.86112 -5.86397 0
M  V30 15329 H 1389.44 0.463854 -2.94368 0
M  V30 15330 H 1386.98 0.217338 -1.45486 0
M  V30 15331 H 1388.94 2.94383 -2.95626 0
M  V30 15332 H 1387.57 2.64118 -1.85584 0
M  V30 15333 H 1386.62 1.03037 -3.6618 0
M  V30 15334 H 1387.93 1.56096 -4.73746 0
M  V30 15335 H 1387.08 3.91446 -4.63525 0
M  V30 15336 H 1385.82 3.4309 -3.46613 0
M  V30 15337 H 1384.83 1.87642 -5.16789 0
M  V30 15338 H 1386.05 2.38779 -6.35737 0
M  V30 15339 H 1384 4.2024 -5.03721 0
M  V30 15340 H 1383.92 3.58652 -6.65511 0
M  V30 15341 H 1385.18 4.69438 -6.22293 0
M  V30 15342 N 1389.41 1.55964 0.226527 0
M  V30 15343 C 1390.34 1.95028 1.284 0
M  V30 15344 C 1391.33 0.817833 1.49149 0
M  V30 15345 O 1392.51 1.07975 1.61416 0
M  V30 15346 C 1389.64 2.26266 2.63478 0
M  V30 15347 C 1388.59 3.41954 2.57393 0
M  V30 15348 C 1387.92 3.58786 3.96456 0
M  V30 15349 C 1389.22 4.77069 2.12608 0
M  V30 15350 H 1390.91 2.83608 0.959513 0
M  V30 15351 H 1388.46 1.36451 0.460125 0
M  V30 15352 H 1390.41 2.52186 3.3761 0
M  V30 15353 H 1389.14 1.34533 2.97604 0
M  V30 15354 H 1387.8 3.16076 1.85719 0
M  V30 15355 H 1387.44 2.64437 4.27881 0
M  V30 15356 H 1387.14 4.36595 3.93267 0
M  V30 15357 H 1388.67 3.87048 4.72256 0
M  V30 15358 H 1390.08 5.02226 2.76481 0
M  V30 15359 H 1388.48 5.58126 2.2049 0
M  V30 15360 H 1389.55 4.7276 1.07823 0
M  V30 15361 N 1390.89 -0.493031 1.4969 0
M  V30 15362 C 1392.12 -1.27517 1.63567 0
M  V30 15363 C 1392.54 -1.85526 0.310105 0
M  V30 15364 O 1391.9 -1.66246 -0.723314 0
M  V30 15365 C 1391.95 -2.37551 2.71296 0
M  V30 15366 O 1391.05 -3.41617 2.31023 0
M  V30 15367 H 1390.39 -0.376116 0.547205 0
M  V30 15368 H 1392.92 -0.589328 1.95929 0
M  V30 15369 H 1392.93 -2.83196 2.93708 0
M  V30 15370 H 1391.61 -1.94697 3.67513 0
M  V30 15371 H 1390.19 -3.01836 2.18974 0
M  V30 15372 N 1392.37 -1.38898 -0.744656 0
M  V30 15373 C 1393.28 -1.39098 -1.88915 0
M  V30 15374 C 1394.3 -0.286956 -1.71617 0
M  V30 15375 O 1395.47 -0.526852 -1.94387 0
M  V30 15376 C 1392.54 -1.22352 -3.24393 0
M  V30 15377 C 1391.6 -2.4264 -3.54153 0
M  V30 15378 C 1390.83 -2.26683 -4.83167 0
M  V30 15379 O 1391.05 -1.26523 -5.56191 0
M  V30 15380 O 1389.99 -3.15464 -5.12607 0
M  V30 15381 H 1393.81 -2.35551 -1.91701 0
M  V30 15382 H 1391.4 -1.19911 -0.891158 0
M  V30 15383 H 1393.28 -1.15109 -4.05374 0
M  V30 15384 H 1391.96 -0.289886 -3.22399 0
M  V30 15385 H 1390.86 -2.55459 -2.73298 0
M  V30 15386 H 1392.2 -3.34664 -3.60917 0
M  V30 15387 N 1393.85 0.973806 -1.23914 0
M  V30 15388 C 1394.76 2.10138 -1.04304 0
M  V30 15389 C 1395.77 1.73994 0.0143888 0
M  V30 15390 O 1396.95 2.00572 -0.182481 0
M  V30 15391 C 1394.02 3.40673 -0.643639 0
M  V30 15392 C 1393.08 3.90802 -1.77686 0
M  V30 15393 C 1392.31 5.15108 -1.39642 0
M  V30 15394 O 1392.53 5.69695 -0.283546 0
M  V30 15395 O 1391.47 5.59468 -2.21988 0
M  V30 15396 H 1395.29 2.29574 -1.9882 0
M  V30 15397 H 1392.88 1.08524 -1.02679 0
M  V30 15398 H 1394.76 4.19178 -0.432145 0
M  V30 15399 H 1393.43 3.22551 0.272458 0
M  V30 15400 H 1392.34 3.13385 -2.04305 0
M  V30 15401 H 1393.67 4.1339 -2.67151 0
M  V30 15402 N 1395.33 1.05191 1.17357 0
M  V30 15403 C 1396.29 0.65713 2.19578 0
M  V30 15404 C 1397.29 -0.29138 1.58138 0
M  V30 15405 O 1398.48 -0.075254 1.74037 0
M  V30 15406 C 1395.61 -0.0348162 3.40882 0
M  V30 15407 H 1396.8 1.56188 2.56018 0
M  V30 15408 H 1394.36 0.845795 1.31438 0
M  V30 15409 H 1395.09 -0.952835 3.09986 0
M  V30 15410 H 1394.88 0.647076 3.86724 0
M  V30 15411 H 1396.37 -0.297135 4.16542 0
M  V30 15412 N 1396.8 -1.33791 0.83293 0
M  V30 15413 C 1397.71 -2.33108 0.264169 0
M  V30 15414 C 1398.73 -1.6308 -0.606694 0
M  V30 15415 O 1399.91 -1.94777 -0.512225 0
M  V30 15416 C 1396.97 -3.42208 -0.556315 0
M  V30 15417 C 1396.03 -4.27966 0.338123 0
M  V30 15418 C 1395.27 -5.31856 -0.443297 0
M  V30 15419 O 1395.49 -5.45234 -1.6756 0
M  V30 15420 O 1394.42 -6.01632 0.179599 0
M  V30 15421 H 1398.25 -2.83602 1.08645 0
M  V30 15422 H 1395.83 -1.37027 0.595307 0
M  V30 15423 H 1397.72 -4.088 -1.02277 0
M  V30 15424 H 1396.39 -2.9394 -1.35575 0
M  V30 15425 H 1395.3 -3.64262 0.852293 0
M  V30 15426 H 1396.63 -4.79701 1.10217 0
M  V30 15427 N 1398.28 -0.588812 -1.46187 0
M  V30 15428 C 1399.52 -0.0794904 -2.04245 0
M  V30 15429 C 1399.89 1.25893 -1.44965 0
M  V30 15430 O 1401.09 1.85785 -1.94261 0
M  V30 15431 C 1399.36 -0.0210846 -3.57394 0
M  V30 15432 S 1400.92 0.429775 -4.3669 0
M  V30 15433 H 1397.74 -0.0404337 -0.709849 0
M  V30 15434 H 1400.34 -0.782686 -1.79149 0
M  V30 15435 H 1399.04 -0.999032 -3.98055 0
M  V30 15436 H 1398.57 0.704691 -3.87037 0
M  V30 15437 H 1400.59 1.68327 -4.66777 0
M  V30 15438 N 1399.76 1.54172 -0.326923 0
M  V30 15439 C 1401.17 1.86009 0.160446 0
M  V30 15440 C 1401.52 1.24851 1.51349 0
M  V30 15441 O 1400.65 0.555804 2.09141 0
M  V30 15442 C 1401.24 3.37488 0.297909 0
M  V30 15443 C 1399.8 3.69263 0.7295 0
M  V30 15444 C 1398.95 2.76911 -0.146778 0
M  V30 15445 H 1401.9 1.48972 -0.547093 0
M  V30 15446 H 1401.92 3.63388 1.12825 0
M  V30 15447 H 1401.43 3.81971 -0.687007 0
M  V30 15448 H 1399.53 3.30314 1.72404 0
M  V30 15449 H 1399.65 4.76149 0.53092 0
M  V30 15450 H 1398.01 2.51876 0.378212 0
M  V30 15451 H 1398.79 3.24221 -1.12852 0
M  V30 15452 N 1401.24 0.0551678 1.57503 0
M  V30 15453 C 1402.19 -0.935665 2.12951 0
M  V30 15454 C 1403.18 -1.31954 1.06229 0
M  V30 15455 O 1404.39 -1.29873 1.24632 0
M  V30 15456 H 1400.76 -0.319618 0.680697 0
M  V30 15457 H 1402.73 -0.442937 2.95094 0
M  V30 15458 C 1401.48 -2.19977 2.69268 0
M  V30 15459 H 1400.8 -1.91319 3.51051 0
M  V30 15460 H 1402.24 -2.87456 3.11681 0
M  V30 15461 C 1400.7 -2.94714 1.63233 0
M  V30 15462 O 1401.23 -3.87803 1.04747 0
M  V30 15463 N 1399.44 -2.57518 1.34659 0
M  V30 15464 H 1398.99 -1.81894 1.82407 0
M  V30 15465 H 1398.94 -3.07829 0.639425 0
M  V30 15466 N 1402.72 -1.56081 -0.218252 0
M  V30 15467 C 1404.13 -1.69397 -0.784964 0
M  V30 15468 C 1404.48 -0.65775 -1.84846 0
M  V30 15469 O 1403.6 0.190478 -2.1556 0
M  V30 15470 C 1404.2 -3.07114 -1.4306 0
M  V30 15471 C 1402.76 -3.22273 -1.94466 0
M  V30 15472 C 1401.9 -2.65327 -0.80604 0
M  V30 15473 H 1404.86 -1.58699 0.0064566 0
M  V30 15474 H 1404.88 -3.03156 -2.2995 0
M  V30 15475 H 1404.39 -3.8251 -0.656335 0
M  V30 15476 H 1402.49 -2.51752 -2.74684 0
M  V30 15477 H 1402.6 -4.29526 -2.12237 0
M  V30 15478 H 1400.97 -2.23894 -1.21423 0
M  V30 15479 H 1401.75 -3.43271 -0.0443928 0
M  V30 15480 N 1404.2 0.485086 -1.49949 0
M  V30 15481 C 1405.42 1.26648 -1.64241 0
M  V30 15482 C 1405.85 1.85359 -0.319939 0
M  V30 15483 O 1405.2 1.66628 0.714487 0
M  V30 15484 C 1405.25 2.36109 -2.72552 0
M  V30 15485 O 1404.36 3.40387 -2.32832 0
M  V30 15486 H 1403.7 0.373208 -0.549192 0
M  V30 15487 H 1406.23 0.578929 -1.96239 0
M  V30 15488 H 1406.24 2.81634 -2.95205 0
M  V30 15489 H 1404.91 1.92745 -3.6854 0
M  V30 15490 H 1403.49 3.0067 -2.20571 0
M  V30 15491 N 1405.67 1.39291 0.737279 0
M  V30 15492 C 1406.9 1.39659 1.52653 0
M  V30 15493 C 1407.32 -0.00948259 1.88798 0
M  V30 15494 O 1406.67 -0.980249 1.53939 0
M  V30 15495 C 1406.72 2.2674 2.81552 0
M  V30 15496 O 1406.45 3.61871 2.46943 0
M  V30 15497 C 1407.95 2.35466 3.75594 0
M  V30 15498 H 1405.17 0.477108 0.471814 0
M  V30 15499 H 1407.71 1.83077 0.911205 0
M  V30 15500 H 1405.87 1.86741 3.39421 0
M  V30 15501 H 1406.28 4.07897 3.29728 0
M  V30 15502 H 1407.75 3.00649 4.62941 0
M  V30 15503 H 1408.23 1.37314 4.17183 0
M  V30 15504 H 1408.84 2.75925 3.23644 0
M  V30 15505 N 1407.15 -0.967221 1.24429 0
M  V30 15506 C 1408.56 -1.52488 1.07723 0
M  V30 15507 C 1408.91 -1.93031 -0.351191 0
M  V30 15508 O 1408.04 -1.77376 -1.23963 0
M  V30 15509 C 1408.63 -2.77107 1.94929 0
M  V30 15510 C 1407.19 -3.29227 1.82446 0
M  V30 15511 C 1406.34 -2.02133 1.89835 0
M  V30 15512 H 1409.29 -0.785465 1.37899 0
M  V30 15513 H 1409.31 -3.50459 1.48186 0
M  V30 15514 H 1408.82 -2.47567 2.98885 0
M  V30 15515 H 1406.92 -3.63617 0.813246 0
M  V30 15516 H 1407.04 -3.98095 2.66566 0
M  V30 15517 H 1405.4 -2.16867 1.3357 0
M  V30 15518 H 1406.18 -1.74958 2.95372 0
M  V30 15519 N 1408.63 -1.05812 -1.16797 0
M  V30 15520 C 1409.85 -0.792518 -1.91661 0
M  V30 15521 C 1410.28 0.646598 -1.76637 0
M  V30 15522 O 1409.64 1.44998 -1.08836 0
M  V30 15523 C 1409.69 -1.18585 -3.40544 0
M  V30 15524 O 1408.79 -0.321716 -4.11143 0
M  V30 15525 H 1408.13 -0.290066 -0.597292 0
M  V30 15526 H 1410.66 -1.41263 -1.48007 0
M  V30 15527 H 1410.67 -1.1553 -3.91301 0
M  V30 15528 H 1409.35 -2.23413 -3.50798 0
M  V30 15529 H 1407.92 -0.413403 -3.70601 0
M  V30 15530 N 1410.11 1.33347 -0.840014 0
M  V30 15531 C 1411.05 2.29191 -0.272048 0
M  V30 15532 C 1412.02 1.54383 0.612787 0
M  V30 15533 O 1413.21 1.82676 0.550812 0
M  V30 15534 C 1410.35 3.40755 0.545901 0
M  V30 15535 C 1409.46 4.30471 -0.363084 0
M  V30 15536 C 1408.6 5.29151 0.466078 0
M  V30 15537 C 1407.64 6.10508 -0.441225 0
M  V30 15538 N 1406.77 7.01228 0.349877 0
M  V30 15539 H 1411.61 2.77166 -1.09467 0
M  V30 15540 H 1409.15 1.36379 -0.551284 0
M  V30 15541 H 1411.11 4.04142 1.03562 0
M  V30 15542 H 1409.74 2.9397 1.33348 0
M  V30 15543 H 1408.79 3.67795 -0.971119 0
M  V30 15544 H 1410.1 4.87406 -1.06002 0
M  V30 15545 H 1409.26 5.98072 1.01957 0
M  V30 15546 H 1408 4.72796 1.19644 0
M  V30 15547 H 1407 5.40504 -1.00672 0
M  V30 15548 H 1408.23 6.68946 -1.16997 0
M  V30 15549 H 1406.17 6.4732 1.0636 0
M  V30 15550 H 1406.09 7.5545 -0.288317 0
M  V30 15551 H 1407.36 7.74453 0.885573 0
M  V30 15552 N 1411.59 0.596556 1.45873 0
M  V30 15553 C 1412.55 -0.118666 2.28893 0
M  V30 15554 C 1413.55 -0.805668 1.3916 0
M  V30 15555 O 1414.74 -0.655511 1.61396 0
M  V30 15556 C 1411.87 -1.17789 3.19904 0
M  V30 15557 H 1413.06 0.611093 2.93608 0
M  V30 15558 H 1410.62 0.355115 1.52212 0
M  V30 15559 H 1411.35 -1.93878 2.59965 0
M  V30 15560 H 1411.14 -0.689616 3.85988 0
M  V30 15561 H 1412.63 -1.67912 3.82355 0
M  V30 15562 N 1413.06 -1.53996 0.335095 0
M  V30 15563 C 1414.03 -2.23385 -0.513015 0
M  V30 15564 C 1415.03 -1.23117 -1.03435 0
M  V30 15565 O 1416.22 -1.47616 -0.924944 0
M  V30 15566 C 1413.35 -2.94691 -1.71377 0
M  V30 15567 H 1414.54 -2.99753 0.0937306 0
M  V30 15568 H 1412.09 -1.56061 0.086326 0
M  V30 15569 H 1412.83 -2.22488 -2.35944 0
M  V30 15570 H 1412.61 -3.68228 -1.34723 0
M  V30 15571 H 1414.1 -3.47525 -2.31552 0
M  V30 15572 N 1414.54 -0.0635198 -1.57472 0
M  V30 15573 C 1415.49 0.906604 -2.12248 0
M  V30 15574 C 1416.46 1.30078 -1.0329 0
M  V30 15575 O 1417.64 1.38809 -1.30907 0
M  V30 15576 C 1414.78 2.1718 -2.68192 0
M  V30 15577 C 1413.9 1.831 -3.91278 0
M  V30 15578 C 1413.03 3.0417 -4.35493 0
M  V30 15579 C 1412.07 2.66069 -5.51248 0
M  V30 15580 N 1411.21 3.79871 -5.9046 0
M  V30 15581 H 1416.05 0.432606 -2.94843 0
M  V30 15582 H 1413.58 0.201895 -1.45708 0
M  V30 15583 H 1415.54 2.91231 -2.98732 0
M  V30 15584 H 1414.17 2.62135 -1.88375 0
M  V30 15585 H 1413.22 0.991473 -3.67252 0
M  V30 15586 H 1414.54 1.51063 -4.75375 0
M  V30 15587 H 1413.69 3.86507 -4.6765 0
M  V30 15588 H 1412.43 3.39395 -3.50232 0
M  V30 15589 H 1411.43 1.82151 -5.1875 0
M  V30 15590 H 1412.66 2.32023 -6.38234 0
M  V30 15591 H 1410.61 4.14873 -5.0815 0
M  V30 15592 H 1410.52 3.51573 -6.69277 0
M  V30 15593 H 1411.79 4.62811 -6.27237 0
M  V30 15594 N 1416.02 1.56195 0.209972 0
M  V30 15595 C 1417.27 1.79745 0.932638 0
M  V30 15596 C 1417.59 0.634252 1.83868 0
M  V30 15597 O 1416.85 -0.380798 1.91959 0
M  V30 15598 C 1417.15 3.09154 1.79328 0
M  V30 15599 C 1416.81 4.38754 1.03949 0
M  V30 15600 C 1415.48 4.73965 0.831308 0
M  V30 15601 C 1417.83 5.18718 0.508031 0
M  V30 15602 C 1415.16 5.86646 0.0799547 0
M  V30 15603 C 1417.51 6.32182 -0.230037 0
M  V30 15604 C 1416.17 6.65986 -0.449366 0
M  V30 15605 H 1415.44 0.657732 0.341276 0
M  V30 15606 H 1418.09 1.90453 0.199998 0
M  V30 15607 H 1416.39 2.93618 2.59414 0
M  V30 15608 H 1418.09 3.24578 2.35478 0
M  V30 15609 H 1414.68 4.11114 1.21174 0
M  V30 15610 H 1418.87 4.91941 0.656306 0
M  V30 15611 H 1414.12 6.11318 -0.100092 0
M  V30 15612 H 1418.3 6.93367 -0.649296 0
M  V30 15613 H 1415.92 7.53142 -1.03349 0
M  V30 15614 N 1417.5 -0.477127 1.50204 0
M  V30 15615 C 1418.74 -1.22964 1.60891 0
M  V30 15616 C 1419.07 -1.9207 0.306464 0
M  V30 15617 O 1418.33 -1.82472 -0.707272 0
M  V30 15618 C 1418.63 -2.30126 2.73453 0
M  V30 15619 C 1418.29 -1.78314 4.14143 0
M  V30 15620 C 1416.95 -1.63904 4.52425 0
M  V30 15621 C 1419.31 -1.3981 5.02098 0
M  V30 15622 C 1416.63 -1.09404 5.76409 0
M  V30 15623 C 1418.99 -0.867538 6.26623 0
M  V30 15624 C 1417.65 -0.710022 6.63713 0
M  V30 15625 H 1416.92 -0.449959 0.588743 0
M  V30 15626 H 1419.57 -0.526592 1.84118 0
M  V30 15627 H 1417.87 -3.06315 2.44291 0
M  V30 15628 H 1419.57 -2.88099 2.78927 0
M  V30 15629 H 1416.16 -1.90496 3.83939 0
M  V30 15630 H 1420.34 -1.49779 4.73159 0
M  V30 15631 H 1415.6 -0.959413 6.03825 0
M  V30 15632 H 1419.77 -0.560496 6.94141 0
M  V30 15633 H 1417.4 -0.285555 7.59663 0
M  V30 15634 N 1418.98 -1.3968 -0.729882 0
M  V30 15635 C 1420.39 -1.33184 -1.30839 0
M  V30 15636 C 1420.74 0.00141129 -1.962 0
M  V30 15637 O 1419.86 0.903523 -1.96635 0
M  V30 15638 C 1420.46 -2.41211 -2.37913 0
M  V30 15639 C 1419.02 -2.3822 -2.91424 0
M  V30 15640 C 1418.16 -2.22832 -1.65049 0
M  V30 15641 H 1421.12 -1.49694 -0.527023 0
M  V30 15642 H 1421.14 -2.08294 -3.18424 0
M  V30 15643 H 1420.65 -3.38234 -1.90313 0
M  V30 15644 H 1418.75 -1.4485 -3.43292 0
M  V30 15645 H 1418.86 -3.33271 -3.44191 0
M  V30 15646 H 1417.23 -1.70095 -1.89578 0
M  V30 15647 H 1418.01 -3.21832 -1.19494 0
M  V30 15648 N 1420.45 0.960609 -1.2494 0
M  V30 15649 C 1421.68 1.73676 -1.11894 0
M  V30 15650 C 1422.09 1.86288 0.330648 0
M  V30 15651 O 1421.44 1.35575 1.23957 0
M  V30 15652 C 1421.5 3.17142 -1.69297 0
M  V30 15653 C 1421.16 3.27978 -3.18244 0
M  V30 15654 C 1422.16 3.12754 -4.15308 0
M  V30 15655 C 1419.84 3.51991 -3.5834 0
M  V30 15656 C 1421.84 3.21379 -5.50449 0
M  V30 15657 C 1419.52 3.60253 -4.9362 0
M  V30 15658 C 1420.52 3.44961 -5.89484 0
M  V30 15659 O 1420.21 3.52893 -7.22303 0
M  V30 15660 H 1419.94 0.551226 -0.391313 0
M  V30 15661 H 1422.5 1.21418 -1.65671 0
M  V30 15662 H 1420.73 3.70736 -1.09961 0
M  V30 15663 H 1422.42 3.76592 -1.51437 0
M  V30 15664 H 1423.18 2.94079 -3.85672 0
M  V30 15665 H 1419.06 3.62957 -2.84224 0
M  V30 15666 H 1422.6 3.0936 -6.25254 0
M  V30 15667 H 1418.5 3.78444 -5.22925 0
M  V30 15668 H 1419.27 3.69563 -7.30319 0
M  V30 15669 N 1421.93 1.0643 1.16234 0
M  V30 15670 C 1423.16 0.802671 1.91238 0
M  V30 15671 C 1423.58 -0.637222 1.76978 0
M  V30 15672 O 1422.94 -1.44419 1.09603 0
M  V30 15673 C 1422.99 1.20389 3.3991 0
M  V30 15674 O 1422.09 0.343516 4.10967 0
M  V30 15675 H 1421.43 0.29323 0.595745 0
M  V30 15676 H 1423.96 1.42046 1.47255 0
M  V30 15677 H 1423.97 1.17604 3.90683 0
M  V30 15678 H 1422.65 2.2527 3.49608 0
M  V30 15679 H 1421.23 0.433051 3.70377 0
M  V30 15680 N 1423.41 -1.329 0.847073 0
M  V30 15681 C 1424.64 -2.02244 0.459588 0
M  V30 15682 C 1425.06 -1.63279 -0.933897 0
M  V30 15683 O 1424.42 -0.829551 -1.61208 0
M  V30 15684 C 1424.47 -3.55616 0.59745 0
M  V30 15685 O 1423.57 -4.1071 -0.372919 0
M  V30 15686 H 1422.91 -0.637504 0.1857 0
M  V30 15687 H 1425.44 -1.69617 1.14417 0
M  V30 15688 H 1425.45 -4.05141 0.482145 0
M  V30 15689 H 1424.13 -3.8332 1.61365 0
M  V30 15690 H 1422.7 -3.72283 -0.214487 0
M  V30 15691 N 1424.89 -0.604284 -1.45555 0
M  V30 15692 C 1425.85 0.106526 -2.28952 0
M  V30 15693 C 1426.85 0.798277 -1.39586 0
M  V30 15694 O 1428.04 0.646943 -1.61741 0
M  V30 15695 C 1425.17 1.16091 -3.20524 0
M  V30 15696 H 1426.37 -0.626655 -2.9328 0
M  V30 15697 H 1423.92 -0.363183 -1.52022 0
M  V30 15698 H 1424.65 1.92496 -2.6099 0
M  V30 15699 H 1424.44 0.669137 -3.86348 0
M  V30 15700 H 1425.93 1.65882 -3.8324 0
M  V30 15701 N 1426.37 1.53816 -0.343257 0
M  V30 15702 C 1427.64 1.9315 0.308609 0
M  V30 15703 C 1428.02 1.27479 1.68263 0
M  V30 15704 O 1427.37 0.425614 2.24501 0
M  V30 15705 C 1427.58 3.46912 0.381176 0
M  V30 15706 C 1428.93 4.19868 0.632153 0
M  V30 15707 O 1429.95 3.53174 0.463303 0
M  V30 15708 O 1428.81 5.38016 0.959237 0
M  V30 15709 H 1425.91 0.807169 0.180022 0
M  V30 15710 H 1428.45 1.65053 -0.394412 0
M  V30 15711 H 1427.22 3.86932 -0.583058 0
M  V30 15712 H 1426.85 3.81175 1.13099 0
M  V30 15713 N 1427.84 0.0718701 1.57436 0
M  V30 15714 C 1428.81 -0.880671 2.11605 0
M  V30 15715 C 1429.81 -1.22632 1.0401 0
M  V30 15716 O 1431 -1.15958 1.29997 0
M  V30 15717 C 1428.13 -2.18407 2.61746 0
M  V30 15718 H 1429.32 -0.410712 2.97074 0
M  V30 15719 H 1426.88 -0.176836 1.55296 0
M  V30 15720 H 1427.61 -2.6994 1.79731 0
M  V30 15721 H 1427.4 -1.94616 3.40392 0
M  V30 15722 H 1428.89 -2.86596 3.03731 0
M  V30 15723 N 1429.32 -1.56304 -0.201686 0
M  V30 15724 C 1430.55 -1.84692 -0.943583 0
M  V30 15725 C 1430.97 -0.654649 -1.7634 0
M  V30 15726 O 1430.33 0.396586 -1.76909 0
M  V30 15727 C 1430.38 -3.11251 -1.82085 0
M  V30 15728 O 1429.48 -2.9134 -2.91881 0
M  V30 15729 H 1428.82 -0.608351 -0.266092 0
M  V30 15730 H 1431.35 -2.0353 -0.208992 0
M  V30 15731 H 1431.36 -3.41874 -2.2268 0
M  V30 15732 H 1430.04 -3.97652 -1.21844 0
M  V30 15733 H 1428.62 -2.72 -2.55089 0
M  V30 15734 O 1430.84 0.346968 -1.57729 0
M  V30 15735 H 1431.53 0.99676 -1.66085 0
M  V30 END ATOM
M  V30 BEGIN BOND
M  V30 END BOND
M  V30 END CTAB
M  END
$$$$
