drugbank_target|Q97E82 Probable 2-phosphosulfolactate phosphatase (DB02334)
 OpenBabel12092119543D

  0  0  0     0  0            999 V3000
M  V30 BEGIN CTAB
M  V30 COUNTS 3731 3750 0 0 0
M  V30 BEGIN ATOM
M  V30 1 H -0.908 1.98254 -0.117106 0
M  V30 2 N 0 1.576 0 0
M  V30 3 C 0.933 2.03868 1.02534 0
M  V30 4 C 1.911 0.928543 1.3348 0
M  V30 5 O 3.095 1.19667 1.45644 0
M  V30 6 C 0.222 2.43627 2.35294 0
M  V30 7 C -0.732 3.65373 2.2001 0
M  V30 8 S 0.101 5.13292 1.52614 0
M  V30 9 C 1.257 5.56322 2.86805 0
M  V30 10 H 1.49 2.90518 0.631377 0
M  V30 11 H -0.977 1.52953 0.210867 0
M  V30 12 H 0.981 2.67203 3.11629 0
M  V30 13 H -0.358 1.57376 2.7183 0
M  V30 14 H -1.165 3.90944 3.18086 0
M  V30 15 H -1.563 3.418 1.51819 0
M  V30 16 H 0.729 5.58782 3.83104 0
M  V30 17 H 1.672 6.56266 2.65933 0
M  V30 18 H 2.08 4.83886 2.90714 0
M  V30 19 N 1.4781 -0.272755 1.55222 0
M  V30 20 C 2.4251 -1.33716 1.88119 0
M  V30 21 C 3.3951 -1.49066 0.73271 0
M  V30 22 O 4.5801 -1.63469 0.984002 0
M  V30 23 C 1.7201 -2.69238 2.15882 0
M  V30 24 C 0.8331 -2.62108 3.43399 0
M  V30 25 C -0.0319 -3.89811 3.60861 0
M  V30 26 C -0.9929 -3.77193 4.8207 0
M  V30 27 N -1.8559 -4.9673 4.96189 0
M  V30 28 H 2.9841 -1.04962 2.78903 0
M  V30 29 H 0.5211 -0.507088 1.38083 0
M  V30 30 H 2.4791 -3.48089 2.29978 0
M  V30 31 H 1.1091 -2.96194 1.28331 0
M  V30 32 H 0.1611 -1.74967 3.37773 0
M  V30 33 H 1.4731 -2.48685 4.32386 0
M  V30 34 H 0.6271 -4.77103 3.74777 0
M  V30 35 H -0.6339 -4.06102 2.7006 0
M  V30 36 H -1.6289 -2.88284 4.68159 0
M  V30 37 H -0.4039 -3.62421 5.74307 0
M  V30 38 H -2.4579 -5.13431 4.08319 0
M  V30 39 H -2.5409 -4.85839 5.79221 0
M  V30 40 H -1.2729 -5.85594 5.1449 0
M  V30 41 N 2.9562 -1.48159 -0.537278 0
M  V30 42 C 4.2052 -1.5506 -1.28993 0
M  V30 43 C 4.5182 -0.226211 -1.94288 0
M  V30 44 O 5.7242 -0.173395 -2.70946 0
M  V30 45 C 4.1802 -2.73429 -2.34018 0
M  V30 46 C 3.7882 -4.1248 -1.74825 0
M  V30 47 C 5.5322 -2.89638 -3.10339 0
M  V30 48 C 3.4392 -5.22121 -2.77747 0
M  V30 49 H 2.3692 -0.577231 -0.485098 0
M  V30 50 H 5.0202 -1.74478 -0.568317 0
M  V30 51 H 3.4022 -2.47431 -3.09182 0
M  V30 52 H 4.5762 -4.48466 -1.05899 0
M  V30 53 H 2.8912 -4.01327 -1.11022 0
M  V30 54 H 5.4882 -3.68718 -3.87235 0
M  V30 55 H 5.8312 -1.9882 -3.65754 0
M  V30 56 H 6.3642 -3.15502 -2.42288 0
M  V30 57 H 3.1032 -6.1488 -2.27161 0
M  V30 58 H 2.6232 -4.90631 -3.45024 0
M  V30 59 H 4.3022 -5.49924 -3.4087 0
M  V30 60 N 4.4343 0.785586 -1.36625 0
M  V30 61 C 5.7113 1.53198 -1.21613 0
M  V30 62 C 6.0913 2.10187 0.196113 0
M  V30 63 O 5.4393 1.94318 1.20219 0
M  V30 64 C 5.6493 2.62388 -2.30116 0
M  V30 65 C 6.9973 3.30167 -2.66974 0
M  V30 66 O 8.0213 2.72674 -2.29188 0
M  V30 67 O 6.8803 4.34077 -3.32023 0
M  V30 68 H 3.9743 0.677865 -0.473738 0
M  V30 69 H 6.5203 0.823739 -1.48367 0
M  V30 70 H 5.2923 2.18299 -3.24748 0
M  V30 71 H 4.9153 3.40827 -2.0475 0
M  V30 72 N 5.9124 1.20967 1.01018 0
M  V30 73 C 6.8424 0.988272 2.11555 0
M  V30 74 C 7.8234 -0.0849778 1.69888 0
M  V30 75 O 9.0084 0.0738202 1.9406 0
M  V30 76 C 6.1384 0.546528 3.42973 0
M  V30 77 C 5.0924 1.56375 3.9841 0
M  V30 78 C 4.4184 0.97842 5.25672 0
M  V30 79 C 5.7184 2.94922 4.31066 0
M  V30 80 H 7.4124 1.91276 2.30334 0
M  V30 81 H 4.9584 0.921073 1.1069 0
M  V30 82 H 6.9114 0.378839 4.19694 0
M  V30 83 H 5.6354 -0.413598 3.23971 0
M  V30 84 H 4.2944 1.71891 3.23804 0
M  V30 85 H 3.9424 0.0101688 5.02999 0
M  V30 86 H 3.6424 1.65784 5.63728 0
M  V30 87 H 5.1664 0.821939 6.05043 0
M  V30 88 H 6.5804 2.8288 4.9865 0
M  V30 89 H 4.9774 3.5983 4.80253 0
M  V30 90 H 6.0474 3.4616 3.39561 0
M  V30 91 N 7.3905 -1.2043 1.01659 0
M  V30 92 C 8.6395 -1.89118 0.701237 0
M  V30 93 C 8.9525 -1.79705 -0.772358 0
M  V30 94 O 10.1585 -2.43528 -1.20026 0
M  V30 95 C 8.6145 -3.39168 1.20388 0
M  V30 96 C 8.2225 -3.57166 2.70438 0
M  V30 97 C 9.9665 -4.1341 0.963953 0
M  V30 98 C 7.8735 -5.01042 3.14183 0
M  V30 99 H 6.8035 -0.708267 0.2586 0
M  V30 100 H 9.4545 -1.36239 1.22927 0
M  V30 101 H 7.8365 -3.91369 0.603824 0
M  V30 102 H 9.0105 -3.15351 3.35992 0
M  V30 103 H 7.3255 -2.96294 2.92572 0
M  V30 104 H 9.9225 -5.19491 1.26621 0
M  V30 105 H 10.2655 -4.16181 -0.099578 0
M  V30 106 H 10.7985 -3.67309 1.52738 0
M  V30 107 H 7.5375 -5.03426 4.19812 0
M  V30 108 H 7.0575 -5.43668 2.53348 0
M  V30 109 H 8.7365 -5.69623 3.0682 0
M  V30 110 N 8.8686 -0.792821 -1.36206 0
M  V30 111 C 10.1176 -0.363353 -1.984 0
M  V30 112 C 10.4306 1.07172 -1.63626 0
M  V30 113 O 11.6366 1.60362 -2.19081 0
M  V30 114 C 10.0926 -0.59872 -3.54885 0
M  V30 115 C 9.7006 -2.04543 -3.9858 0
M  V30 116 C 11.4446 -0.233926 -4.23855 0
M  V30 117 C 9.3516 -2.22727 -5.47856 0
M  V30 118 H 8.2816 -0.13212 -0.742334 0
M  V30 119 H 10.9326 -0.974935 -1.55458 0
M  V30 120 H 9.3146 0.0826222 -3.95914 0
M  V30 121 H 10.4886 -2.76345 -3.68741 0
M  V30 122 H 8.8036 -2.36879 -3.42458 0
M  V30 123 H 11.4006 -0.348027 -5.33566 0
M  V30 124 H 11.7436 0.818351 -4.08177 0
M  V30 125 H 12.2766 -0.868639 -3.882 0
M  V30 126 H 9.0156 -3.2635 -5.68486 0
M  V30 127 H 8.5356 -1.55434 -5.7931 0
M  V30 128 H 10.2146 -2.03607 -6.14128 0
M  V30 129 N 10.3467 1.47872 -0.545128 0
M  V30 130 C 11.5717 2.07391 -0.0190611 0
M  V30 131 C 11.9967 1.39688 1.25971 0
M  V30 132 O 11.3547 0.467816 1.7516 0
M  V30 133 C 11.4027 3.60188 0.172335 0
M  V30 134 O 10.5067 3.9339 1.23766 0
M  V30 135 H 9.8477 0.662411 -0.0459059 0
M  V30 136 H 12.3777 1.90066 -0.757365 0
M  V30 137 H 12.3877 4.06129 0.390305 0
M  V30 138 H 11.0627 4.08865 -0.761725 0
M  V30 139 H 9.6397 3.5921 1.00114 0
M  V30 140 N 11.8248 0.280983 1.55075 0
M  V30 141 C 12.7878 -0.590896 2.21452 0
M  V30 142 C 13.7878 -1.07682 1.19421 0
M  V30 143 O 14.9778 -0.97605 1.44288 0
M  V30 144 C 12.1098 -1.81587 2.88511 0
M  V30 145 H 13.3028 -0.0112554 2.99898 0
M  V30 146 H 10.8558 0.0316438 1.56268 0
M  V30 147 H 11.5908 -2.43587 2.14093 0
M  V30 148 H 11.3758 -1.4753 3.63287 0
M  V30 149 H 12.8658 -2.43575 3.39206 0
M  V30 150 N 13.3029 -1.57598 0.00835791 0
M  V30 151 C 14.5799 -1.82172 -0.712235 0
M  V30 152 C 14.9599 -0.887873 -1.9152 0
M  V30 153 O 14.3079 0.06146 -2.28417 0
M  V30 154 C 14.5179 -3.30875 -1.11008 0
M  V30 155 C 15.8659 -3.96826 -1.51044 0
M  V30 156 O 16.8899 -3.35248 -1.20364 0
M  V30 157 O 15.7489 -5.05318 -2.08125 0
M  V30 158 H 12.8429 -0.750435 -0.347529 0
M  V30 159 H 15.3889 -1.69665 0.0344523 0
M  V30 160 H 14.1609 -3.90481 -0.252982 0
M  V30 161 H 13.7839 -3.48412 -1.9156 0
M  V30 162 N 14.781 0.264519 -1.55364 0
M  V30 163 C 16.058 1.01677 -1.67096 0
M  V30 164 C 16.438 2.03996 -0.543015 0
M  V30 165 O 15.786 2.23907 0.45585 0
M  V30 166 C 15.996 1.66596 -3.0667 0
M  V30 167 C 17.344 2.17442 -3.64697 0
M  V30 168 O 18.368 1.76568 -3.09358 0
M  V30 169 O 17.227 2.92439 -4.61673 0
M  V30 170 H 14.321 0.472161 -0.678965 0
M  V30 171 H 16.867 0.259703 -1.67701 0
M  V30 172 H 15.639 0.924962 -3.80211 0
M  V30 173 H 15.262 2.48968 -3.10001 0
M  V30 174 N 16.2591 1.48442 0.529413 0
M  V30 175 C 17.5081 1.55742 1.28169 0
M  V30 176 C 17.8211 0.236511 1.94165 0
M  V30 177 O 19.0271 0.187761 2.7085 0
M  V30 178 C 17.4831 2.74667 2.32564 0
M  V30 179 C 17.0911 4.13402 1.72636 0
M  V30 180 C 18.8351 2.9128 3.08798 0
M  V30 181 C 16.7421 5.23587 2.74975 0
M  V30 182 H 15.6721 0.579796 0.48203 0
M  V30 183 H 18.3231 1.74776 0.559056 0
M  V30 184 H 16.7051 2.49067 3.07866 0
M  V30 185 H 17.8791 4.49022 1.03519 0
M  V30 186 H 16.1941 4.0191 1.08892 0
M  V30 187 H 18.7911 3.70767 3.85274 0
M  V30 188 H 19.1341 2.00757 3.64695 0
M  V30 189 H 19.6671 3.16782 2.40611 0
M  V30 190 H 16.4061 6.16076 2.23897 0
M  V30 191 H 15.9261 4.92454 3.42417 0
M  V30 192 H 17.6051 5.51724 3.37949 0
M  V30 193 N 17.7372 -0.778329 1.37039 0
M  V30 194 C 18.6842 -1.89139 1.32269 0
M  V30 195 C 19.6542 -1.65017 0.189387 0
M  V30 196 O 20.8392 -1.87024 0.377693 0
M  V30 197 C 17.9792 -3.26112 1.12894 0
M  V30 198 C 17.0922 -3.62233 2.35396 0
M  V30 199 C 16.2272 -4.8838 2.08946 0
M  V30 200 C 15.2662 -5.17212 3.2735 0
M  V30 201 N 14.4032 -6.34546 3.00492 0
M  V30 202 H 19.2432 -1.92552 2.27437 0
M  V30 203 H 16.7802 -0.941473 1.13025 0
M  V30 204 H 18.7382 -4.05116 0.996835 0
M  V30 205 H 17.3682 -3.22091 0.213758 0
M  V30 206 H 16.4202 -2.78265 2.5937 0
M  V30 207 H 17.7322 -3.79481 3.23721 0
M  V30 208 H 16.8862 -5.75274 1.92729 0
M  V30 209 H 15.6252 -4.73222 1.17949 0
M  V30 210 H 14.6302 -4.28796 3.44113 0
M  V30 211 H 15.8552 -5.34283 4.19188 0
M  V30 212 H 13.8012 -6.20759 2.12118 0
M  V30 213 H 13.7182 -6.52179 3.82358 0
M  V30 214 H 14.9862 -7.24394 2.87879 0
M  V30 215 N 19.2153 -1.21501 -1.00376 0
M  V30 216 C 20.1253 -0.991447 -2.12621 0
M  V30 217 C 21.1413 0.0568446 -1.73907 0
M  V30 218 O 22.3173 -0.13348 -2.00957 0
M  V30 219 C 19.3823 -0.560312 -3.42142 0
M  V30 220 C 18.4433 -1.68096 -3.95022 0
M  V30 221 C 17.6763 -1.2703 -5.18362 0
M  V30 222 O 17.8993 -0.144438 -5.70217 0
M  V30 223 O 16.8333 -2.08269 -5.64719 0
M  V30 224 H 20.6593 -1.93158 -2.34358 0
M  V30 225 H 18.2443 -0.999999 -1.10997 0
M  V30 226 H 20.1263 -0.329724 -4.20108 0
M  V30 227 H 18.8013 0.351089 -3.2179 0
M  V30 228 H 17.7083 -1.96597 -3.18278 0
M  V30 229 H 19.0413 -2.56983 -4.19786 0
M  V30 230 N 20.6934 1.19889 -1.02296 0
M  V30 231 C 21.6034 2.26571 -0.608508 0
M  V30 232 C 22.6194 1.70299 0.356964 0
M  V30 233 O 23.7954 2.00235 0.216326 0
M  V30 234 C 20.8604 3.46677 0.0402814 0
M  V30 235 C 19.9214 4.18153 -0.97194 0
M  V30 236 C 19.1544 5.32525 -0.354016 0
M  V30 237 O 19.3774 5.64112 0.844604 0
M  V30 238 O 18.3114 5.92242 -1.07391 0
M  V30 239 H 22.1374 2.64251 -1.49684 0
M  V30 240 H 19.7224 1.26629 -0.792809 0
M  V30 241 H 21.6044 4.19475 0.402324 0
M  V30 242 H 20.2794 3.10858 0.902707 0
M  V30 243 H 19.1864 3.47499 -1.38546 0
M  V30 244 H 20.5194 4.57927 -1.80454 0
M  V30 245 N 22.1715 0.800033 1.35784 0
M  V30 246 C 23.1185 0.203848 2.29898 0
M  V30 247 C 24.0885 -0.658375 1.52495 0
M  V30 248 O 25.2735 -0.604832 1.8096 0
M  V30 249 C 22.4135 -0.64688 3.38983 0
M  V30 250 C 21.5265 0.235054 4.3136 0
M  V30 251 C 20.6615 -0.623054 5.27533 0
M  V30 252 C 19.7005 0.259682 6.11549 0
M  V30 253 N 18.8375 -0.558019 6.99879 0
M  V30 254 H 23.6775 1.01186 2.80295 0
M  V30 255 H 21.2145 0.51053 1.37957 0
M  V30 256 H 23.1725 -1.15521 4.00887 0
M  V30 257 H 21.8025 -1.42021 2.89879 0
M  V30 258 H 20.8545 0.861438 3.70518 0
M  V30 259 H 22.1665 0.914768 4.9034 0
M  V30 260 H 21.3205 -1.19678 5.94779 0
M  V30 261 H 20.0595 -1.33636 4.69034 0
M  V30 262 H 19.0645 0.845726 5.43256 0
M  V30 263 H 20.2895 0.970748 6.72126 0
M  V30 264 H 18.2355 -1.25542 6.43875 0
M  V30 265 H 18.1525 0.0637872 7.55973 0
M  V30 266 H 19.4205 -1.11523 7.71481 0
M  V30 267 N 23.6496 -1.47581 0.552962 0
M  V30 268 C 24.8956 -2.02782 0.0273648 0
M  V30 269 C 25.2286 -1.42687 -1.31734 0
M  V30 270 O 24.5036 -0.580897 -1.85623 0
M  V30 271 C 24.7866 -3.60031 -0.0702371 0
M  V30 272 C 24.6396 -4.30566 1.30126 0
M  V30 273 C 25.9586 -4.33028 -0.785771 0
M  V30 274 H 23.0776 -0.736912 0.0114185 0
M  V30 275 H 25.7196 -1.76056 0.714432 0
M  V30 276 H 23.8696 -3.82932 -0.655382 0
M  V30 277 H 25.5416 -4.19018 1.92929 0
M  V30 278 H 23.7846 -3.91086 1.87709 0
M  V30 279 H 24.4556 -5.39114 1.18573 0
M  V30 280 H 26.9316 -4.15095 -0.288982 0
M  V30 281 H 25.8076 -5.42695 -0.823013 0
M  V30 282 H 26.0686 -4.01945 -1.841 0
M  V30 283 N 25.1277 -0.289203 -1.54924 0
M  V30 284 C 26.0747 0.592115 -2.23075 0
M  V30 285 C 27.0447 1.13881 -1.20915 0
M  V30 286 O 28.2297 1.18551 -1.495 0
M  V30 287 C 25.3697 1.76376 -2.96623 0
M  V30 288 C 24.4827 1.24959 -4.13533 0
M  V30 289 C 23.6177 2.38416 -4.74691 0
M  V30 290 C 22.6567 1.84072 -5.83767 0
M  V30 291 N 21.7937 2.91057 -6.38929 0
M  V30 292 H 26.6337 0.00432038 -2.98 0
M  V30 293 H 24.1707 -0.00963529 -1.47097 0
M  V30 294 H 26.1287 2.45268 -3.3749 0
M  V30 295 H 24.7587 2.32337 -2.24097 0
M  V30 296 H 23.8107 0.453307 -3.77689 0
M  V30 297 H 25.1227 0.811662 -4.92152 0
M  V30 298 H 24.2767 3.15276 -5.18349 0
M  V30 299 H 23.0157 2.8553 -3.95378 0
M  V30 300 H 22.0207 1.05697 -5.39545 0
M  V30 301 H 23.2457 1.37877 -6.64956 0
M  V30 302 H 21.1917 3.37526 -5.62505 0
M  V30 303 H 21.1087 2.51724 -7.12861 0
M  V30 304 H 22.3767 3.6785 -6.87246 0
M  V30 305 N 26.6058 1.57591 -0.0167156 0
M  V30 306 C 27.5538 2.10604 0.987353 0
M  V30 307 C 28.5478 1.02977 1.34507 0
M  V30 308 O 29.7538 1.21425 1.32875 0
M  V30 309 H 26.1288 0.672695 0.336134 0
M  V30 310 H 28.0998 2.93925 0.514817 0
M  V30 311 C 26.8488 2.6382 2.26483 0
M  V30 312 H 26.1718 3.46278 1.99829 0
M  V30 313 H 27.6118 3.04573 2.94977 0
M  V30 314 C 26.0708 1.55992 2.9861 0
M  V30 315 O 26.6008 0.952521 3.90243 0
M  V30 316 N 24.8068 1.28335 2.60727 0
M  V30 317 H 24.3538 1.77914 1.86291 0
M  V30 318 H 24.3118 0.564115 3.09298 0
M  V30 319 N 28.0839 -0.256276 1.55502 0
M  V30 320 C 29.0309 -1.31714 1.89526 0
M  V30 321 C 30.0009 -1.4828 0.748479 0
M  V30 322 O 31.1859 -1.62416 1.00128 0
M  V30 323 C 28.3259 -2.66933 2.18725 0
M  V30 324 C 27.4389 -2.58452 3.4616 0
M  V30 325 C 26.5739 -3.85961 3.64976 0
M  V30 326 C 25.6129 -3.72059 4.86044 0
M  V30 327 N 24.7499 -4.9144 5.01429 0
M  V30 328 H 29.5899 -1.01998 2.80001 0
M  V30 329 H 27.1269 -0.492413 1.38613 0
M  V30 330 H 29.0849 -3.4563 2.33657 0
M  V30 331 H 27.7149 -2.94816 1.31466 0
M  V30 332 H 26.7669 -1.71374 3.3961 0
M  V30 333 H 28.0789 -2.44085 4.34999 0
M  V30 334 H 27.2329 -4.73101 3.79816 0
M  V30 335 H 25.9719 -4.03215 2.74353 0
M  V30 336 H 24.9769 -2.83302 4.7119 0
M  V30 337 H 26.2019 -3.56309 5.78118 0
M  V30 338 H 24.1479 -5.09072 4.13741 0
M  V30 339 H 24.0649 -4.79668 5.84341 0
M  V30 340 H 25.3329 -5.80104 5.20672 0
M  V30 341 N 29.562 -1.4872 -0.521534 0
M  V30 342 C 30.79 -1.60843 -1.30142 0
M  V30 343 C 31.205 -0.271897 -1.86832 0
M  V30 344 O 30.562 0.739969 -1.66825 0
M  V30 345 C 30.613 -2.66155 -2.4463 0
M  V30 346 O 30.334 -3.94623 -1.90275 0
M  V30 347 C 31.835 -2.88795 -3.36322 0
M  V30 348 H 29.055 -0.542075 -0.395468 0
M  V30 349 H 31.599 -1.94609 -0.628285 0
M  V30 350 H 29.754 -2.35224 -3.07812 0
M  V30 351 H 30.168 -4.52468 -2.65279 0
M  V30 352 H 31.642 -3.66264 -4.12983 0
M  V30 353 H 32.119 -1.97934 -3.9207 0
M  V30 354 H 32.725 -3.21063 -2.78924 0
M  V30 355 N 31.0401 0.771051 -1.3745 0
M  V30 356 C 32.0031 1.86598 -1.33093 0
M  V30 357 C 33.0031 1.59076 -0.234845 0
M  V30 358 O 34.1931 1.67145 -0.490732 0
M  V30 359 C 31.3251 3.23747 -1.06773 0
M  V30 360 H 32.5181 1.91873 -2.30488 0
M  V30 361 H 30.0711 0.970876 -1.2249 0
M  V30 362 H 30.8061 3.24148 -0.099129 0
M  V30 363 H 30.5911 3.45115 -1.86112 0
M  V30 364 H 32.0811 4.03824 -1.06377 0
M  V30 365 N 32.5182 1.22032 0.997298 0
M  V30 366 C 33.7642 1.04376 1.73878 0
M  V30 367 C 34.0972 -0.420716 1.89588 0
M  V30 368 O 33.3722 -1.31202 1.43583 0
M  V30 369 C 33.6552 1.75047 3.14691 0
M  V30 370 C 33.5082 3.29062 3.06656 0
M  V30 371 C 34.8272 1.49928 4.13775 0
M  V30 372 H 31.9462 0.380578 0.631133 0
M  V30 373 H 34.5882 1.50312 1.16217 0
M  V30 374 H 32.7382 1.35996 3.63919 0
M  V30 375 H 34.4102 3.7753 2.65083 0
M  V30 376 H 32.6532 3.58967 2.43568 0
M  V30 377 H 33.3242 3.73683 4.06282 0
M  V30 378 H 35.8002 1.83842 3.73285 0
M  V30 379 H 34.6762 2.01878 5.10428 0
M  V30 380 H 34.9372 0.430929 4.39995 0
M  V30 381 N 33.9963 -1.19345 1.0293 0
M  V30 382 C 35.2423 -1.89318 0.727083 0
M  V30 383 C 35.5753 -1.79446 -0.742483 0
M  V30 384 O 34.8503 -1.1871 -1.54072 0
M  V30 385 C 35.1333 -3.40238 1.17942 0
M  V30 386 C 34.9863 -3.58979 2.71024 0
M  V30 387 C 36.3053 -4.33479 0.760548 0
M  V30 388 H 33.4243 -0.687475 0.265606 0
M  V30 389 H 36.0663 -1.40477 1.2793 0
M  V30 390 H 34.2163 -3.81964 0.709608 0
M  V30 391 H 35.8883 -3.26421 3.25955 0
M  V30 392 H 34.1313 -3.02018 3.11396 0
M  V30 393 H 34.8023 -4.64823 2.9773 0
M  V30 394 H 37.2783 -3.99469 1.16464 0
M  V30 395 H 36.1543 -5.37664 1.10493 0
M  V30 396 H 36.4153 -4.40813 -0.337063 0
M  V30 397 N 35.4744 -0.807222 -1.35358 0
M  V30 398 C 36.7234 -0.384376 -1.98004 0
M  V30 399 C 37.0364 1.0543 -1.64754 0
M  V30 400 O 38.2424 1.58029 -2.20769 0
M  V30 401 C 36.6984 -0.636326 -3.5423 0
M  V30 402 C 36.3064 -2.08759 -3.96388 0
M  V30 403 C 38.0504 -0.278869 -4.23583 0
M  V30 404 C 35.9574 -2.28525 -5.45463 0
M  V30 405 H 34.8874 -0.139986 -0.740891 0
M  V30 406 H 37.5384 -0.991369 -1.54415 0
M  V30 407 H 35.9204 0.0406256 -3.95979 0
M  V30 408 H 37.0944 -2.8024 -3.6579 0
M  V30 409 H 35.4094 -2.40497 -3.39926 0
M  V30 410 H 38.0064 -0.404599 -5.33167 0
M  V30 411 H 38.3494 0.775012 -4.09022 0
M  V30 412 H 38.8824 -0.909764 -3.87257 0
M  V30 413 H 35.6214 -3.32361 -5.64992 0
M  V30 414 H 35.1414 -1.61569 -5.77629 0
M  V30 415 H 36.8204 -2.10109 -6.11934 0
M  V30 416 N 36.9525 1.47285 -0.560781 0
M  V30 417 C 38.2295 1.9558 0.0277798 0
M  V30 418 C 38.6095 1.5034 1.48192 0
M  V30 419 O 37.9575 0.743882 2.16052 0
M  V30 420 C 38.1675 3.48789 -0.121418 0
M  V30 421 C 39.5155 4.24594 0.0220912 0
M  V30 422 O 40.5395 3.56166 -0.0491439 0
M  V30 423 O 39.3985 5.46217 0.175958 0
M  V30 424 H 36.4925 0.824663 0.0621342 0
M  V30 425 H 39.0385 1.5767 -0.627556 0
M  V30 426 H 37.8105 3.74533 -1.13316 0
M  V30 427 H 37.4335 3.93473 0.571366 0
M  V30 428 N 38.4306 0.297415 1.54768 0
M  V30 429 C 39.3636 -0.622188 2.19554 0
M  V30 430 C 40.3416 -1.13558 1.16376 0
M  V30 431 O 41.5256 -1.20444 1.45002 0
M  V30 432 C 38.6526 -1.8509 2.83653 0
M  V30 433 C 37.6986 -1.47106 4.00328 0
M  V30 434 S 38.5316 -0.53006 5.3287 0
M  V30 435 C 39.6876 -1.76665 6.0045 0
M  V30 436 H 39.9206 -0.0717806 2.97213 0
M  V30 437 H 37.4536 0.0815678 1.54184 0
M  V30 438 H 39.4116 -2.55605 3.21211 0
M  V30 439 H 38.0726 -2.37247 2.05846 0
M  V30 440 H 37.2656 -2.38594 4.43947 0
M  V30 441 H 36.8676 -0.845885 3.64309 0
M  V30 442 H 39.1596 -2.7077 6.21039 0
M  V30 443 H 40.1026 -1.37308 6.9466 0
M  V30 444 H 40.5106 -1.94174 5.30054 0
M  V30 445 N 39.9087 -1.5758 0.0250728 0
M  V30 446 C 40.8387 -2.13007 -0.956575 0
M  V30 447 C 41.8197 -1.0452 -1.342 0
M  V30 448 O 43.0047 -1.32332 -1.42133 0
M  V30 449 C 40.1347 -2.65386 -2.24026 0
M  V30 450 C 39.0887 -3.78623 -1.99571 0
M  V30 451 C 38.4147 -4.17414 -3.3417 0
M  V30 452 C 39.7147 -5.04867 -1.33814 0
M  V30 453 H 41.4087 -2.9528 -0.494991 0
M  V30 454 H 38.9547 -1.42042 -0.236651 0
M  V30 455 H 40.9077 -3.02794 -2.93076 0
M  V30 456 H 39.6317 -1.80268 -2.72343 0
M  V30 457 H 38.2907 -3.41646 -1.32941 0
M  V30 458 H 37.9387 -3.29284 -3.80238 0
M  V30 459 H 37.6387 -4.93719 -3.18615 0
M  V30 460 H 39.1627 -4.57402 -4.04495 0
M  V30 461 H 40.5767 -5.39888 -1.92857 0
M  V30 462 H 38.9737 -5.86144 -1.28669 0
M  V30 463 H 40.0437 -4.83904 -0.310561 0
M  V30 464 N 41.3868 0.248026 -1.55636 0
M  V30 465 C 42.8028 0.596483 -1.48035 0
M  V30 466 C 43.0028 1.88386 -0.715039 0
M  V30 467 O 42.0588 2.51319 -0.243944 0
M  V30 468 C 43.3718 0.700258 -2.92433 0
M  V30 469 C 44.9198 0.792659 -3.02797 0
M  V30 470 C 45.3948 0.928005 -4.485 0
M  V30 471 N 46.8858 0.992903 -4.52433 0
M  V30 472 C 47.6208 1.11687 -5.62418 0
M  V30 473 N 47.1168 1.20645 -6.82214 0
M  V30 474 N 48.9098 1.14994 -5.50212 0
M  V30 475 H 41.0608 -0.597109 -2.03834 0
M  V30 476 H 43.3238 -0.205925 -0.925364 0
M  V30 477 H 43.0298 -0.175658 -3.51261 0
M  V30 478 H 42.9038 1.57255 -3.42857 0
M  V30 479 H 45.2908 1.65903 -2.4405 0
M  V30 480 H 45.3718 -0.104762 -2.55585 0
M  V30 481 H 45.0158 0.0661971 -5.07857 0
M  V30 482 H 44.9458 1.84045 -4.93391 0
M  V30 483 H 47.4368 0.935064 -3.66149 0
M  V30 484 H 47.7498 1.30008 -7.61786 0
M  V30 485 H 46.0948 1.17605 -6.84977 0
M  V30 486 H 49.2858 1.07643 -4.55555 0
M  V30 487 H 49.4588 1.24311 -6.35965 0
M  V30 488 N 42.8649 1.48995 0.513639 0
M  V30 489 C 43.8279 1.64229 1.59879 0
M  V30 490 C 44.8279 0.514696 1.5234 0
M  V30 491 O 46.0179 0.78087 1.55718 0
M  V30 492 C 43.1499 1.62783 2.99524 0
M  V30 493 H 44.3429 2.61004 1.47705 0
M  V30 494 H 41.8959 1.37837 0.736936 0
M  V30 495 H 42.6309 0.675461 3.17188 0
M  V30 496 H 42.4159 2.4466 3.06404 0
M  V30 497 H 43.9059 1.76669 3.78388 0
M  V30 498 N 44.343 -0.763751 1.37857 0
M  V30 499 C 45.571 -1.55293 1.36718 0
M  V30 500 C 45.986 -1.88745 -0.0455434 0
M  V30 501 O 45.343 -1.52039 -1.00947 0
M  V30 502 C 45.394 -2.85831 2.2132 0
M  V30 503 O 45.115 -2.5381 3.57089 0
M  V30 504 C 46.616 -3.80023 2.28249 0
M  V30 505 H 43.836 -0.480841 0.468009 0
M  V30 506 H 46.38 -0.946009 1.81303 0
M  V30 507 H 44.535 -3.42926 1.80223 0
M  V30 508 H 44.949 -3.37459 4.01524 0
M  V30 509 H 46.423 -4.68599 2.91752 0
M  V30 510 H 46.9 -4.1973 1.2932 0
M  V30 511 H 47.506 -3.28855 2.69693 0
M  V30 512 N 45.8211 -1.22559 -0.990812 0
M  V30 513 C 47.0461 -1.07862 -1.77145 0
M  V30 514 C 47.4711 0.366447 -1.84496 0
M  V30 515 O 46.8291 1.26478 -1.29896 0
M  V30 516 C 46.8771 -1.69686 -3.18181 0
M  V30 517 O 45.9811 -0.951946 -4.01263 0
M  V30 518 H 45.3221 -0.378712 -0.545411 0
M  V30 519 H 47.8521 -1.62399 -1.2445 0
M  V30 520 H 47.8621 -1.74496 -3.68802 0
M  V30 521 H 46.5371 -2.74841 -3.12146 0
M  V30 522 H 45.1141 -0.980011 -3.59792 0
M  V30 523 N 47.2992 1.18797 -1.03562 0
M  V30 524 C 48.5452 1.8893 -0.737113 0
M  V30 525 C 48.8782 1.79837 0.732956 0
M  V30 526 O 48.1532 1.19525 1.5344 0
M  V30 527 C 48.4362 3.39607 -1.19745 0
M  V30 528 C 48.2892 3.57537 -2.72924 0
M  V30 529 C 49.6082 4.33069 -0.783526 0
M  V30 530 H 46.7272 0.686057 -0.269249 0
M  V30 531 H 49.3692 1.39797 -1.28673 0
M  V30 532 H 47.5192 3.81583 -0.729855 0
M  V30 533 H 49.1912 3.24688 -3.27682 0
M  V30 534 H 47.4342 3.00363 -3.12993 0
M  V30 535 H 48.1052 4.63238 -3.00191 0
M  V30 536 H 50.5812 3.98846 -1.18581 0
M  V30 537 H 49.4572 5.3707 -1.13343 0
M  V30 538 H 49.7182 4.40986 0.313681 0
M  V30 539 N 48.7773 0.814389 1.34928 0
M  V30 540 C 50.0263 0.394871 1.97797 0
M  V30 541 C 50.3393 -1.04555 1.65311 0
M  V30 542 O 51.5453 -1.56856 2.21604 0
M  V30 543 C 50.0013 0.655103 3.53888 0
M  V30 544 C 49.6093 2.10858 3.95276 0
M  V30 545 C 51.3533 0.301329 4.23429 0
M  V30 546 C 49.2603 2.31415 5.44244 0
M  V30 547 H 48.1903 0.143913 0.740139 0
M  V30 548 H 50.8413 0.999544 1.53888 0
M  V30 549 H 49.2233 -0.0196253 3.95995 0
M  V30 550 H 50.3973 2.82176 3.64298 0
M  V30 551 H 48.7123 2.42297 3.38646 0
M  V30 552 H 51.3093 0.432869 5.32945 0
M  V30 553 H 51.6523 -0.75331 4.09428 0
M  V30 554 H 52.1853 0.930288 3.86769 0
M  V30 555 H 48.9243 3.35353 5.63222 0
M  V30 556 H 48.4443 1.6463 5.76764 0
M  V30 557 H 50.1233 2.13352 6.10811 0
M  V30 558 N 50.2554 -1.46986 0.568584 0
M  V30 559 C 51.4834 -2.0683 0.0539956 0
M  V30 560 C 51.8984 -1.41953 -1.24478 0
M  V30 561 O 51.2554 -0.519933 -1.74937 0
M  V30 562 C 51.3064 -3.61254 -0.133362 0
M  V30 563 O 51.0274 -4.237 1.11399 0
M  V30 564 C 52.5284 -4.37992 -0.683927 0
M  V30 565 H 49.7484 -0.669058 0.0510141 0
M  V30 566 H 52.2924 -1.88824 0.785234 0
M  V30 567 H 50.4474 -3.78735 -0.81477 0
M  V30 568 H 50.8614 -5.16388 0.91888 0
M  V30 569 H 52.3354 -5.46684 -0.764263 0
M  V30 570 H 52.8124 -4.05058 -1.69778 0
M  V30 571 H 53.4184 -4.25283 -0.0378494 0
M  V30 572 N 51.7335 -0.305618 -1.54608 0
M  V30 573 C 52.9615 0.304775 -2.04643 0
M  V30 574 C 53.3765 1.47167 -1.18268 0
M  V30 575 O 52.7335 1.81296 -0.209328 0
M  V30 576 C 52.7845 0.756564 -3.53495 0
M  V30 577 O 52.5055 -0.36389 -4.36586 0
M  V30 578 C 54.0065 1.43163 -4.19546 0
M  V30 579 H 51.2265 0.0655481 -0.667791 0
M  V30 580 H 53.7705 -0.446592 -1.99564 0
M  V30 581 H 51.9255 1.45794 -3.58919 0
M  V30 582 H 52.3395 -0.0113121 -5.24499 0
M  V30 583 H 53.8135 1.69886 -5.25207 0
M  V30 584 H 54.2905 2.37318 -3.69563 0
M  V30 585 H 54.8965 0.773307 -4.18211 0
M  V30 586 N 53.2116 1.57565 -0.0334293 0
M  V30 587 C 54.1746 2.09393 0.932048 0
M  V30 588 C 55.1746 1.00986 1.25134 0
M  V30 589 O 56.3646 1.27129 1.19096 0
M  V30 590 C 53.4966 2.56338 2.2473 0
M  V30 591 H 54.6896 2.95984 0.483085 0
M  V30 592 H 52.2426 1.54819 0.21468 0
M  V30 593 H 52.9776 1.7309 2.74245 0
M  V30 594 H 52.7626 3.35542 2.02865 0
M  V30 595 H 54.2526 2.96646 2.93923 0
M  V30 596 N 54.6897 -0.239769 1.55765 0
M  V30 597 C 55.6197 -1.30052 1.9393 0
M  V30 598 C 56.6007 -1.49839 0.805132 0
M  V30 599 O 57.7857 -1.62328 1.06599 0
M  V30 600 C 54.9157 -2.65391 2.2402 0
M  V30 601 C 53.8697 -2.60289 3.39755 0
M  V30 602 C 53.1957 -3.99489 3.55405 0
M  V30 603 C 54.4957 -2.16654 4.75246 0
M  V30 604 H 56.1897 -0.983573 2.82783 0
M  V30 605 H 53.7357 -0.471701 1.36055 0
M  V30 606 H 55.6887 -3.3974 2.49308 0
M  V30 607 H 54.4127 -2.98736 1.32 0
M  V30 608 H 53.0717 -1.88398 3.14487 0
M  V30 609 H 52.7197 -4.30112 2.60793 0
M  V30 610 H 52.4197 -3.96962 4.33238 0
M  V30 611 H 53.9437 -4.75528 3.83022 0
M  V30 612 H 55.3577 -2.80737 4.99859 0
M  V30 613 H 53.7547 -2.25223 5.56232 0
M  V30 614 H 54.8247 -1.11835 4.71827 0
M  V30 615 N 56.1678 -1.49265 -0.50573 0
M  V30 616 C 57.1158 -1.66065 -1.62866 0
M  V30 617 C 58.1098 -0.526636 -1.61006 0
M  V30 618 O 59.3158 -0.706126 -1.65571 0
M  V30 619 H 55.6908 -0.52356 -0.539805 0
M  V30 620 H 57.6618 -2.60329 -1.45848 0
M  V30 621 C 56.4108 -1.74008 -3.01026 0
M  V30 622 H 55.7338 -2.6064 -3.03161 0
M  V30 623 H 57.1738 -1.89798 -3.79147 0
M  V30 624 C 55.6328 -0.483868 -3.33407 0
M  V30 625 O 56.1628 0.392548 -3.99777 0
M  V30 626 N 54.3688 -0.348236 -2.88506 0
M  V30 627 H 53.9158 -1.06242 -2.34671 0
M  V30 628 H 53.8738 0.491204 -3.10539 0
M  V30 629 N 57.6459 0.756429 -1.3826 0
M  V30 630 C 58.5939 1.89149 -1.35372 0
M  V30 631 C 59.5879 1.67691 -0.24004 0
M  V30 632 O 60.7939 1.75294 -0.408919 0
M  V30 633 H 57.1689 0.622271 -0.422236 0
M  V30 634 H 59.1399 1.88701 -2.31159 0
M  V30 635 C 57.8889 3.26599 -1.19284 0
M  V30 636 H 57.2119 3.43695 -2.0424 0
M  V30 637 H 58.6519 4.06274 -1.21316 0
M  V30 638 C 57.1109 3.3675 0.100454 0
M  V30 639 O 57.6409 3.86951 1.07851 0
M  V30 640 N 55.8469 2.90179 0.15633 0
M  V30 641 H 55.3939 2.49517 -0.640253 0
M  V30 642 H 55.3519 2.97352 1.02123 0
M  V30 643 N 59.124 1.23083 0.984299 0
M  V30 644 C 60.372 1.05848 1.72165 0
M  V30 645 C 60.693 -0.406049 1.90726 0
M  V30 646 O 59.963 -1.29139 1.47309 0
M  V30 647 H 58.543 0.388685 0.637913 0
M  V30 648 H 61.205 1.54736 1.18503 0
M  V30 649 H 60.301 1.54327 2.71274 0
M  V30 650 N 60.6021 -1.18246 1.0419 0
M  V30 651 C 61.8421 -1.89948 0.754916 0
M  V30 652 C 62.2061 -1.78608 -0.70451 0
M  V30 653 O 63.4071 -2.4503 -1.10516 0
M  V30 654 C 61.6781 -3.36305 1.20969 0
M  V30 655 S 63.2371 -4.26088 1.04854 0
M  V30 656 H 60.0551 -0.655897 0.274446 0
M  V30 657 H 62.6571 -1.42873 1.33445 0
M  V30 658 H 61.3611 -3.42089 2.26722 0
M  V30 659 H 60.8921 -3.8842 0.624004 0
M  V30 660 H 62.9071 -4.96189 -0.0332896 0
M  V30 661 N 62.0802 -0.821533 -1.34494 0
M  V30 662 C 63.0272 -0.240397 -2.29545 0
M  V30 663 C 63.9972 0.634031 -1.53523 0
M  V30 664 O 65.1822 0.575966 -1.81899 0
M  V30 665 C 62.3222 0.592869 -3.39969 0
M  V30 666 C 61.4352 -0.30365 -4.30932 0
M  V30 667 C 60.5702 0.539049 -5.28458 0
M  V30 668 C 59.6092 -0.356942 -6.11058 0
M  V30 669 N 58.7462 0.446603 -7.00678 0
M  V30 670 H 63.5862 -1.05632 -2.7865 0
M  V30 671 H 61.1232 -0.532413 -1.37127 0
M  V30 672 H 63.0812 1.09129 -4.02675 0
M  V30 673 H 61.7112 1.37392 -2.92102 0
M  V30 674 H 60.7632 -0.920276 -3.691 0
M  V30 675 H 62.0752 -0.992661 -4.88823 0
M  V30 676 H 61.2292 1.102 -5.96608 0
M  V30 677 H 59.9682 1.26157 -4.71101 0
M  V30 678 H 58.9732 -0.932047 -5.41842 0
M  V30 679 H 60.1982 -1.07755 -6.70497 0
M  V30 680 H 58.1442 1.15282 -6.45791 0
M  V30 681 H 58.0612 -0.184048 -7.55776 0
M  V30 682 H 59.3292 0.992352 -7.73158 0
M  V30 683 N 63.5583 1.46682 -0.576371 0
M  V30 684 C 64.9743 1.57822 -0.237562 0
M  V30 685 C 65.1743 1.57237 1.26011 0
M  V30 686 O 64.2303 1.48596 2.04146 0
M  V30 687 C 65.5433 2.87499 -0.881168 0
M  V30 688 C 67.0913 3.01119 -0.85417 0
M  V30 689 C 67.5663 4.33524 -1.4772 0
M  V30 690 N 69.0573 4.40207 -1.44125 0
M  V30 691 C 69.7923 5.4126 -1.89276 0
M  V30 692 N 69.2883 6.49021 -2.42371 0
M  V30 693 N 71.0813 5.32422 -1.80231 0
M  V30 694 H 63.2323 1.45306 -1.54919 0
M  V30 695 H 65.4953 0.692733 -0.647167 0
M  V30 696 H 65.2013 2.9372 -1.93447 0
M  V30 697 H 65.0753 3.75224 -0.385592 0
M  V30 698 H 67.4623 2.94485 0.190491 0
M  V30 699 H 67.5433 2.14887 -1.3877 0
M  V30 700 H 67.1873 4.40916 -2.52103 0
M  V30 701 H 67.1173 5.1852 -0.918947 0
M  V30 702 H 69.6083 3.62931 -1.05307 0
M  V30 703 H 69.9213 7.2233 -2.74698 0
M  V30 704 H 68.2663 6.49858 -2.46393 0
M  V30 705 H 71.4573 4.47137 -1.38514 0
M  V30 706 H 71.6303 6.11034 -2.15735 0
M  V30 707 N 65.0364 0.313813 1.54444 0
M  V30 708 C 66.2824 -0.292108 2.00685 0
M  V30 709 C 66.6154 -1.52548 1.20177 0
M  V30 710 O 65.8904 -1.92452 0.281531 0
M  V30 711 C 66.1734 -0.635968 3.5444 0
M  V30 712 C 66.0264 0.607437 4.4568 0
M  V30 713 C 67.3454 -1.45747 4.15266 0
M  V30 714 H 64.4644 -0.104697 0.729526 0
M  V30 715 H 67.1064 0.428457 1.85106 0
M  V30 716 H 65.2564 -1.24986 3.67846 0
M  V30 717 H 66.9284 1.24581 4.44159 0
M  V30 718 H 65.1714 1.23822 4.15753 0
M  V30 719 H 65.8424 0.322515 5.51057 0
M  V30 720 H 68.3184 -0.938645 4.05375 0
M  V30 721 H 67.1944 -1.66683 5.2298 0
M  V30 722 H 67.4554 -2.45063 3.67963 0
M  V30 723 N 66.5145 -1.57545 0.0417849 0
M  V30 724 C 67.7605 -1.92601 -0.635021 0
M  V30 725 C 68.0935 -0.919627 -1.71045 0
M  V30 726 O 67.3685 0.0557892 -1.9442 0
M  V30 727 C 67.6515 -3.38085 -1.23979 0
M  V30 728 C 67.5045 -4.49467 -0.173057 0
M  V30 729 C 68.8235 -3.83776 -2.15416 0
M  V30 730 H 65.9425 -0.700397 -0.229374 0
M  V30 731 H 68.5845 -1.89728 0.101633 0
M  V30 732 H 66.7345 -3.40664 -1.86762 0
M  V30 733 H 68.4065 -4.59018 0.458312 0
M  V30 734 H 66.6495 -4.30909 0.499996 0
M  V30 735 H 67.3205 -5.48323 -0.636054 0
M  V30 736 H 69.7965 -3.83013 -1.62605 0
M  V30 737 H 68.6725 -4.8624 -2.54679 0
M  V30 738 H 68.9335 -3.19998 -3.05047 0
M  V30 739 N 67.9926 0.231505 -1.5589 0
M  V30 740 C 69.4036 0.799327 -1.68724 0
M  V30 741 C 69.7546 1.85398 -0.642022 0
M  V30 742 O 68.8796 2.1539 0.208784 0
M  V30 743 C 69.4746 1.45664 -3.05888 0
M  V30 744 C 68.0336 1.97197 -3.20609 0
M  V30 745 C 67.1806 0.828552 -2.64632 0
M  V30 746 H 70.1316 0.00702616 -1.58698 0
M  V30 747 H 70.1526 2.32517 -3.01191 0
M  V30 748 H 69.6646 0.688808 -3.81939 0
M  V30 749 H 67.7656 2.76813 -2.4941 0
M  V30 750 H 67.8786 2.15878 -4.27707 0
M  V30 751 H 66.2426 1.23321 -2.22854 0
M  V30 752 H 67.0256 0.0735544 -3.43221 0
M  V30 753 N 69.4707 1.49531 0.497807 0
M  V30 754 C 70.7167 1.59415 1.25358 0
M  V30 755 C 71.0497 0.281422 1.9215 0
M  V30 756 O 70.3247 -0.715249 1.80871 0
M  V30 757 C 70.6077 2.75566 2.3181 0
M  V30 758 C 70.4607 4.16642 1.69498 0
M  V30 759 C 71.7797 2.87347 3.33346 0
M  V30 760 H 68.8987 0.580244 0.454408 0
M  V30 761 H 71.5407 1.81827 0.551262 0
M  V30 762 H 69.6907 2.56587 2.91711 0
M  V30 763 H 71.3627 4.47145 1.13399 0
M  V30 764 H 69.6057 4.22141 0.998978 0
M  V30 765 H 70.2767 4.93792 2.46725 0
M  V30 766 H 72.7527 3.04634 2.83438 0
M  V30 767 H 71.6287 3.70289 4.05188 0
M  V30 768 H 71.8897 1.96834 3.95865 0
M  V30 769 N 70.9488 -0.749086 1.3866 0
M  V30 770 C 71.8788 -1.8764 1.38973 0
M  V30 771 C 72.8598 -1.68178 0.255004 0
M  V30 772 O 74.0448 -1.88704 0.458754 0
M  V30 773 C 71.1748 -3.25222 1.21851 0
M  V30 774 C 70.1288 -3.59295 2.32575 0
M  V30 775 C 69.4548 -4.95663 2.00555 0
M  V30 776 C 70.7548 -3.63709 3.7485 0
M  V30 777 H 72.4488 -1.87635 2.3331 0
M  V30 778 H 69.9948 -0.901329 1.12303 0
M  V30 779 H 71.9478 -4.03746 1.20695 0
M  V30 780 H 70.6718 -3.25719 0.239775 0
M  V30 781 H 69.3308 -2.83093 2.32925 0
M  V30 782 H 68.9788 -4.92724 1.01154 0
M  V30 783 H 68.6788 -5.19429 2.74714 0
M  V30 784 H 70.2028 -5.7656 2.01024 0
M  V30 785 H 71.6168 -4.32338 3.76506 0
M  V30 786 H 70.0138 -3.98986 4.48252 0
M  V30 787 H 71.0838 -2.63834 4.06841 0
M  V30 788 N 72.4269 -1.23603 -0.977757 0
M  V30 789 C 73.6549 -1.09646 -1.75458 0
M  V30 790 C 74.0699 0.351859 -1.85492 0
M  V30 791 O 73.4269 1.24327 -1.336 0
M  V30 792 C 73.4779 -1.71895 -3.18016 0
M  V30 793 O 73.1989 -3.11063 -3.08498 0
M  V30 794 C 74.6999 -1.63415 -4.12081 0
M  V30 795 H 71.9199 -0.38359 -0.550545 0
M  V30 796 H 74.4639 -1.63507 -1.22824 0
M  V30 797 H 72.6189 -1.22061 -3.67668 0
M  V30 798 H 73.0329 -3.41305 -3.9826 0
M  V30 799 H 74.5069 -2.11669 -5.09804 0
M  V30 800 H 74.9839 -0.593462 -4.35172 0
M  V30 801 H 75.5899 -2.12628 -3.68334 0
M  V30 802 N 73.905 1.17692 -1.04816 0
M  V30 803 C 75.151 1.88137 -0.75711 0
M  V30 804 C 75.484 1.80604 0.713841 0
M  V30 805 O 74.759 1.21146 1.52164 0
M  V30 806 C 75.042 3.38318 -1.2334 0
M  V30 807 C 74.895 3.54622 -2.76701 0
M  V30 808 C 76.214 4.32214 -0.829415 0
M  V30 809 H 73.333 0.683163 -0.27651 0
M  V30 810 H 75.975 1.38424 -1.30149 0
M  V30 811 H 74.125 3.80787 -0.770286 0
M  V30 812 H 75.797 3.21194 -3.31107 0
M  V30 813 H 74.04 2.97026 -3.16161 0
M  V30 814 H 74.711 4.60028 -3.05088 0
M  V30 815 H 77.187 3.97565 -1.22805 0
M  V30 816 H 76.063 5.35838 -1.19033 0
M  V30 817 H 76.324 4.41294 0.266891 0
M  V30 818 N 75.3831 0.828654 1.34056 0
M  V30 819 C 76.2931 0.256725 2.33191 0
M  V30 820 C 77.3091 -0.611898 1.62886 0
M  V30 821 O 78.4851 -0.51844 1.94613 0
M  V30 822 C 75.5501 -0.567238 3.42028 0
M  V30 823 C 74.6111 0.324458 4.28072 0
M  V30 824 C 73.8441 -0.460274 5.31712 0
M  V30 825 O 74.0671 -1.693 5.44696 0
M  V30 826 O 73.0011 0.160391 6.01686 0
M  V30 827 H 76.8271 1.07739 2.83947 0
M  V30 828 H 74.4121 0.59093 1.37217 0
M  V30 829 H 76.2941 -1.03582 4.08471 0
M  V30 830 H 74.9691 -1.36513 2.93506 0
M  V30 831 H 73.8761 0.840659 3.64532 0
M  V30 832 H 75.2091 1.08685 4.8005 0
M  V30 833 N 76.8612 -1.46375 0.584142 0
M  V30 834 C 77.7712 -2.34115 -0.150728 0
M  V30 835 C 78.7872 -1.49838 -0.884567 0
M  V30 836 O 79.9632 -1.82704 -0.847429 0
M  V30 837 C 77.0282 -3.2705 -1.15062 0
M  V30 838 C 76.0892 -4.27228 -0.421293 0
M  V30 839 C 75.3222 -5.15722 -1.37355 0
M  V30 840 O 75.5452 -5.07176 -2.61014 0
M  V30 841 O 74.4792 -5.95383 -0.883355 0
M  V30 842 H 78.3052 -2.98309 0.569708 0
M  V30 843 H 75.8902 -1.45373 0.344535 0
M  V30 844 H 77.7722 -3.84381 -1.72712 0
M  V30 845 H 76.4472 -2.65451 -1.8525 0
M  V30 846 H 75.3542 -3.7358 0.197085 0
M  V30 847 H 76.6872 -4.91616 0.239641 0
M  V30 848 N 78.3393 -0.321999 -1.54275 0
M  V30 849 C 79.3023 0.531975 -2.22941 0
M  V30 850 C 80.3023 1.04478 -1.22234 0
M  V30 851 O 81.4923 0.937452 -1.46825 0
M  V30 852 C 78.6243 1.73874 -2.93224 0
M  V30 853 H 79.8173 -0.0682612 -2.99822 0
M  V30 854 H 77.3703 -0.0730644 -1.56129 0
M  V30 855 H 78.1053 2.37825 -2.20476 0
M  V30 856 H 77.8903 1.37847 -3.6707 0
M  V30 857 H 79.3803 2.34496 -3.45545 0
M  V30 858 N 79.8174 1.5752 -0.0501392 0
M  V30 859 C 80.7474 2.14502 0.922566 0
M  V30 860 C 81.7284 1.06642 1.3252 0
M  V30 861 O 82.9134 1.34577 1.4001 0
M  V30 862 C 80.0434 2.68916 2.19776 0
M  V30 863 C 78.9974 3.8175 1.93523 0
M  V30 864 C 78.3234 4.22677 3.27487 0
M  V30 865 C 79.6234 5.06932 1.25765 0
M  V30 866 H 81.3174 2.9603 0.447952 0
M  V30 867 H 78.8634 1.42401 0.214024 0
M  V30 868 H 80.8164 3.07419 2.88222 0
M  V30 869 H 79.5404 1.84578 2.69441 0
M  V30 870 H 78.1994 3.43718 1.27489 0
M  V30 871 H 77.8474 3.35291 3.74952 0
M  V30 872 H 77.5474 4.98725 3.1072 0
M  V30 873 H 79.0714 4.63779 3.97166 0
M  V30 874 H 80.4854 5.42888 1.84244 0
M  V30 875 H 78.8824 5.88116 1.19328 0
M  V30 876 H 79.9524 4.84337 0.233536 0
M  V30 877 N 81.2955 -0.223234 1.56011 0
M  V30 878 C 82.2425 -1.27664 1.92277 0
M  V30 879 C 83.2125 -1.46659 0.779763 0
M  V30 880 O 84.3975 -1.60256 1.03551 0
M  V30 881 C 81.5375 -2.62234 2.24338 0
M  V30 882 C 80.6505 -2.51051 3.51564 0
M  V30 883 C 79.7855 -3.78133 3.7308 0
M  V30 884 C 78.8245 -3.61665 4.93827 0
M  V30 885 N 77.9615 -4.80693 5.11741 0
M  V30 886 H 82.8015 -0.960358 2.82101 0
M  V30 887 H 80.3385 -0.462901 1.39627 0
M  V30 888 H 82.2965 -3.40596 2.40936 0
M  V30 889 H 80.9265 -2.91961 1.3769 0
M  V30 890 H 79.9785 -1.64132 3.43169 0
M  V30 891 H 81.2905 -2.34803 4.40079 0
M  V30 892 H 80.4445 -4.64938 3.89766 0
M  V30 893 H 79.1835 -3.97304 2.82844 0
M  V30 894 H 78.1885 -2.73244 4.77093 0
M  V30 895 H 79.4135 -3.43966 5.85546 0
M  V30 896 H 77.3595 -5.00181 4.24446 0
M  V30 897 H 77.2765 -4.67165 5.94384 0
M  V30 898 H 78.5445 -5.6893 5.3286 0
M  V30 899 N 82.7736 -1.49793 -0.48987 0
M  V30 900 C 83.7206 -1.67281 -1.59014 0
M  V30 901 C 84.6906 -0.514177 -1.57941 0
M  V30 902 O 85.8756 -0.742533 -1.75759 0
M  V30 903 C 83.0156 -1.75569 -2.97102 0
M  V30 904 C 82.1286 -3.0281 -3.08107 0
M  V30 905 C 81.2636 -3.02008 -4.36995 0
M  V30 906 C 80.3026 -4.23782 -4.41673 0
M  V30 907 N 79.4396 -4.20826 -5.62005 0
M  V30 908 H 84.2796 -2.61224 -1.43409 0
M  V30 909 H 81.8166 -1.29508 -0.697565 0
M  V30 910 H 83.7746 -1.78354 -3.77155 0
M  V30 911 H 82.4046 -0.850827 -3.11385 0
M  V30 912 H 81.4566 -3.09584 -2.21047 0
M  V30 913 H 82.7686 -3.92801 -3.07423 0
M  V30 914 H 81.9226 -3.03418 -5.25378 0
M  V30 915 H 80.6616 -2.09815 -4.4026 0
M  V30 916 H 79.6666 -4.22604 -3.5169 0
M  V30 917 H 80.8916 -5.17181 -4.40115 0
M  V30 918 H 78.8376 -3.31476 -5.66091 0
M  V30 919 H 78.7546 -5.04564 -5.62984 0
M  V30 920 H 80.0226 -4.26355 -6.52565 0
M  V30 921 N 84.2517 0.741722 -1.39055 0
M  V30 922 C 85.4977 1.50336 -1.36113 0
M  V30 923 C 85.8307 1.94148 0.0450796 0
M  V30 924 O 85.1057 1.66301 1.00868 0
M  V30 925 C 85.3887 2.74773 -2.32749 0
M  V30 926 C 85.2417 2.37023 -3.82283 0
M  V30 927 C 86.5607 3.76846 -2.27322 0
M  V30 928 H 83.6797 0.545351 -0.495743 0
M  V30 929 H 86.3217 0.848624 -1.69995 0
M  V30 930 H 84.4717 3.30639 -2.03986 0
M  V30 931 H 86.1437 1.8684 -4.21768 0
M  V30 932 H 84.3867 1.69334 -3.99385 0
M  V30 933 H 85.0577 3.26104 -4.45376 0
M  V30 934 H 87.5337 3.30548 -2.5274 0
M  V30 935 H 86.4097 4.6159 -2.97028 0
M  V30 936 H 86.6707 4.23286 -1.27599 0
M  V30 937 N 85.7298 1.2412 0.971189 0
M  V30 938 C 86.6768 1.0305 2.06517 0
M  V30 939 C 87.6468 -0.0550666 1.66009 0
M  V30 940 O 88.8318 0.0988688 1.90544 0
M  V30 941 C 85.9718 0.637653 3.39158 0
M  V30 942 C 85.0848 1.79633 3.92882 0
M  V30 943 C 84.2198 1.34939 5.13775 0
M  V30 944 C 83.2588 2.47823 5.59687 0
M  V30 945 N 82.3958 2.04022 6.71803 0
M  V30 946 H 87.2358 1.96685 2.23873 0
M  V30 947 H 84.7728 0.979694 1.09729 0
M  V30 948 H 86.7308 0.390931 4.15364 0
M  V30 949 H 85.3608 -0.261693 3.21737 0
M  V30 950 H 84.4128 2.15681 3.13346 0
M  V30 951 H 85.7248 2.64466 4.22918 0
M  V30 952 H 84.8788 1.06134 5.97345 0
M  V30 953 H 83.6178 0.471557 4.85415 0
M  V30 954 H 82.6228 2.77392 4.74693 0
M  V30 955 H 83.8478 3.36158 5.90063 0
M  V30 956 H 81.7938 1.18632 6.45184 0
M  V30 957 H 81.7108 2.82409 7.01271 0
M  V30 958 H 82.9788 1.78347 7.58823 0
M  V30 959 N 87.2079 -1.17134 1.05439 0
M  V30 960 C 88.1179 -2.24878 0.668365 0
M  V30 961 C 89.1339 -1.71186 -0.311687 0
M  V30 962 O 90.3099 -2.00738 -0.163161 0
M  V30 963 C 87.3749 -3.46662 0.051648 0
M  V30 964 C 86.4359 -4.15429 1.08246 0
M  V30 965 C 85.6689 -5.31399 0.495082 0
M  V30 966 O 85.8919 -5.66153 -0.694743 0
M  V30 967 O 84.8259 -5.89187 1.23056 0
M  V30 968 H 88.6519 -2.60189 1.56637 0
M  V30 969 H 86.2369 -1.24482 0.826104 0
M  V30 970 H 88.1189 -4.20394 -0.290966 0
M  V30 971 H 86.7939 -3.13142 -0.819971 0
M  V30 972 H 85.7009 -3.43704 1.47711 0
M  V30 973 H 87.0339 -4.52982 1.92532 0
M  V30 974 N 88.686 -0.835752 -1.33615 0
M  V30 975 C 89.916 -0.442701 -2.01801 0
M  V30 976 C 90.324 0.959807 -1.63047 0
M  V30 977 O 89.667 1.63468 -0.838088 0
M  V30 978 C 89.729 -0.480125 -3.56279 0
M  V30 979 C 89.393 -1.8382 -4.18401 0
M  V30 980 C 90.39 -2.80097 -4.37998 0
M  V30 981 C 88.075 -2.13019 -4.54894 0
M  V30 982 C 90.069 -4.03736 -4.9323 0
M  V30 983 C 87.756 -3.36916 -5.09834 0
M  V30 984 C 88.754 -4.32091 -5.28948 0
M  V30 985 O 88.442 -5.53797 -5.82721 0
M  V30 986 H 88.174 -0.17441 -0.653114 0
M  V30 987 H 90.728 -1.129 -1.71589 0
M  V30 988 H 88.958 0.262931 -3.85805 0
M  V30 989 H 90.647 -0.105335 -4.05763 0
M  V30 990 H 91.413 -2.58838 -4.10156 0
M  V30 991 H 87.292 -1.39733 -4.39313 0
M  V30 992 H 90.836 -4.78034 -5.08064 0
M  V30 993 H 86.733 -3.58033 -5.37106 0
M  V30 994 H 87.501 -5.55494 -6.0114 0
M  V30 995 N 90.1641 1.46063 -0.591896 0
M  V30 996 C 91.4121 2.01938 -0.0808391 0
M  V30 997 C 91.7331 1.46475 1.28725 0
M  V30 998 O 91.0031 0.652944 1.84698 0
M  V30 999 H 89.5831 0.746516 -0.0268938 0
M  V30 1000 H 92.2451 1.79055 -0.769752 0
M  V30 1001 H 91.3411 3.12094 -0.0187578 0
M  V30 1002 N 91.6422 0.330177 1.54103 0
M  V30 1003 C 92.5892 -0.532762 2.24567 0
M  V30 1004 C 93.5592 -1.10635 1.23892 0
M  V30 1005 O 94.7442 -1.14546 1.5259 0
M  V30 1006 C 91.8842 -1.6845 3.01195 0
M  V30 1007 C 90.9972 -1.13951 4.167 0
M  V30 1008 C 90.1322 -2.25746 4.80845 0
M  V30 1009 C 89.1712 -1.6853 5.88442 0
M  V30 1010 N 88.3082 -2.74014 6.46421 0
M  V30 1011 H 93.1482 0.0746905 2.97906 0
M  V30 1012 H 90.6852 0.048632 1.4702 0
M  V30 1013 H 92.6432 -2.36234 3.43874 0
M  V30 1014 H 91.2732 -2.26314 2.30178 0
M  V30 1015 H 90.3252 -0.35301 3.78758 0
M  V30 1016 H 91.6372 -0.680892 4.94131 0
M  V30 1017 H 90.7912 -3.01422 5.26526 0
M  V30 1018 H 89.5302 -2.74947 4.0281 0
M  V30 1019 H 88.5352 -0.913543 5.42157 0
M  V30 1020 H 89.7602 -1.20198 6.68378 0
M  V30 1021 H 87.7062 -3.22494 5.71256 0
M  V30 1022 H 87.6232 -2.32735 7.19285 0
M  V30 1023 H 88.8912 -3.49499 6.96757 0
M  V30 1024 N 93.1203 -1.57491 0.0584922 0
M  V30 1025 C 94.3973 -1.84346 -0.653918 0
M  V30 1026 C 94.7773 -0.948355 -1.88599 0
M  V30 1027 O 94.1253 -0.0112403 -2.28497 0
M  V30 1028 C 94.3353 -3.34239 -1.00425 0
M  V30 1029 C 95.6833 -4.01431 -1.38342 0
M  V30 1030 O 96.7073 -3.38907 -1.09637 0
M  V30 1031 O 95.5663 -5.11683 -1.91943 0
M  V30 1032 H 92.6603 -0.761112 -0.323478 0
M  V30 1033 H 95.2063 -1.6947 0.0884125 0
M  V30 1034 H 93.9783 -3.91089 -0.128625 0
M  V30 1035 H 93.6013 -3.54329 -1.80378 0
M  V30 1036 N 94.5984 0.214957 -1.56127 0
M  V30 1037 C 95.5614 1.24997 -1.92116 0
M  V30 1038 C 96.5614 1.39467 -0.800344 0
M  V30 1039 O 97.7514 1.37619 -1.06802 0
M  V30 1040 C 94.8834 2.62271 -2.17777 0
M  V30 1041 H 96.0764 0.942875 -2.84693 0
M  V30 1042 H 93.6294 0.455654 -1.49511 0
M  V30 1043 H 94.3644 2.98068 -1.27773 0
M  V30 1044 H 94.1494 2.53143 -2.99434 0
M  V30 1045 H 95.6394 3.36946 -2.46693 0
M  V30 1046 N 96.0765 1.50051 0.48192 0
M  V30 1047 C 97.3255 1.59741 1.23149 0
M  V30 1048 C 97.6385 0.298163 1.93314 0
M  V30 1049 O 98.8445 0.273835 2.70116 0
M  V30 1050 C 97.3005 2.81926 2.23708 0
M  V30 1051 C 96.9085 4.18685 1.59396 0
M  V30 1052 C 98.6525 3.00956 2.99375 0
M  V30 1053 C 96.5595 5.3207 2.58178 0
M  V30 1054 H 95.4895 0.594838 0.46334 0
M  V30 1055 H 98.1405 1.76467 0.503169 0
M  V30 1056 H 96.5225 2.58736 2.99786 0
M  V30 1057 H 97.6965 4.52088 0.891811 0
M  V30 1058 H 96.0115 4.05171 0.960503 0
M  V30 1059 H 98.6085 3.82836 3.73283 0
M  V30 1060 H 98.9515 2.12258 3.58123 0
M  V30 1061 H 99.4845 3.24277 2.30411 0
M  V30 1062 H 96.2235 6.22888 2.04184 0
M  V30 1063 H 95.7435 5.03098 3.26577 0
M  V30 1064 H 97.4225 5.62196 3.20225 0
M  V30 1065 N 97.5546 -0.734337 1.39446 0
M  V30 1066 C 98.4846 -1.86155 1.40955 0
M  V30 1067 C 99.4656 -1.67898 0.272827 0
M  V30 1068 O 100.651 -1.88207 0.478743 0
M  V30 1069 C 97.7806 -3.23912 1.25294 0
M  V30 1070 C 96.7346 -3.56808 2.36373 0
M  V30 1071 C 96.0606 -4.93508 2.058 0
M  V30 1072 C 97.3606 -3.59713 3.78687 0
M  V30 1073 H 99.0546 -1.8515 2.35287 0
M  V30 1074 H 96.6006 -0.889367 1.13253 0
M  V30 1075 H 98.5536 -4.02443 1.2497 0
M  V30 1076 H 97.2776 -3.25446 0.274308 0
M  V30 1077 H 95.9366 -2.80606 2.35914 0
M  V30 1078 H 95.5846 -4.91623 1.06374 0
M  V30 1079 H 95.2846 -5.16486 2.80208 0
M  V30 1080 H 96.8086 -5.74396 2.07128 0
M  V30 1081 H 98.2226 -4.2832 3.81071 0
M  V30 1082 H 96.6196 -3.94209 4.52459 0
M  V30 1083 H 97.6896 -2.59504 4.09617 0
M  V30 1084 N 99.0327 -1.24633 -0.964593 0
M  V30 1085 C 100.281 -1.08573 -1.70459 0
M  V30 1086 C 100.602 0.375655 -1.91347 0
M  V30 1087 O 99.8717 1.26779 -1.49345 0
M  V30 1088 H 98.4517 -0.398784 -0.631649 0
M  V30 1089 H 101.114 -1.56601 -1.16026 0
M  V30 1090 H 100.21 -1.58623 -2.68785 0
M  V30 1091 N 100.511 1.16574 -1.06058 0
M  V30 1092 C 101.759 1.86677 -0.77434 0
M  V30 1093 C 102.08 1.81959 0.701147 0
M  V30 1094 O 101.35 1.2515 1.50713 0
M  V30 1095 H 99.9298 0.691134 -0.283449 0
M  V30 1096 H 102.592 1.41378 -1.34158 0
M  V30 1097 H 101.688 2.92181 -1.09711 0
M  V30 1098 N 101.989 0.842826 1.3317 0
M  V30 1099 C 102.899 0.281444 2.32906 0
M  V30 1100 C 103.915 -0.594587 1.63526 0
M  V30 1101 O 105.091 -0.49777 1.95152 0
M  V30 1102 C 102.156 -0.530929 3.42611 0
M  V30 1103 C 101.217 0.369843 4.27704 0
M  V30 1104 C 100.45 -0.403853 5.3217 0
M  V30 1105 O 100.673 -1.63513 5.46461 0
M  V30 1106 O 99.6069 0.224199 6.01482 0
M  V30 1107 H 103.433 1.10744 2.82789 0
M  V30 1108 H 101.018 0.60545 1.36582 0
M  V30 1109 H 102.9 -0.992437 4.09547 0
M  V30 1110 H 101.575 -1.33392 2.94938 0
M  V30 1111 H 100.482 0.879275 3.6362 0
M  V30 1112 H 101.815 1.13771 4.78871 0
M  V30 1113 N 103.467 -1.45747 0.599634 0
M  V30 1114 C 104.883 -1.57424 0.26264 0
M  V30 1115 C 105.083 -1.59222 -1.23493 0
M  V30 1116 O 104.139 -1.51825 -2.01756 0
M  V30 1117 C 105.452 -2.86061 0.926795 0
M  V30 1118 C 107 -2.99722 0.901967 0
M  V30 1119 C 107.475 -4.31119 1.54598 0
M  V30 1120 N 108.966 -4.37858 1.5111 0
M  V30 1121 C 109.701 -5.3818 1.97863 0
M  V30 1122 N 109.197 -6.45083 2.52666 0
M  V30 1123 N 110.99 -5.29487 1.88679 0
M  V30 1124 H 103.141 -1.42823 1.57211 0
M  V30 1125 H 105.404 -0.68235 0.658105 0
M  V30 1126 H 105.11 -2.90605 1.98095 0
M  V30 1127 H 104.984 -3.74563 0.445238 0
M  V30 1128 H 107.371 -2.9475 -0.143617 0
M  V30 1129 H 107.452 -2.12652 1.42171 0
M  V30 1130 H 107.096 -4.36849 2.59085 0
M  V30 1131 H 107.026 -5.16992 1.00132 0
M  V30 1132 H 109.517 -3.61209 1.11068 0
M  V30 1133 H 109.83 -7.17869 2.86155 0
M  V30 1134 H 108.175 -6.45856 2.56701 0
M  V30 1135 H 111.366 -4.44877 1.4561 0
M  V30 1136 H 111.539 -6.07524 2.25429 0
M  V30 1137 N 104.945 -0.338344 -1.53925 0
M  V30 1138 C 105.892 0.520845 -2.24846 0
M  V30 1139 C 106.862 1.09976 -1.24477 0
M  V30 1140 O 108.047 1.13735 -1.53196 0
M  V30 1141 C 105.187 1.6685 -3.02084 0
M  V30 1142 C 104.3 1.11739 -4.17299 0
M  V30 1143 C 103.435 2.23193 -4.82036 0
M  V30 1144 C 102.474 1.65407 -5.89328 0
M  V30 1145 N 101.611 2.70582 -6.47866 0
M  V30 1146 H 106.451 -0.0904881 -2.97863 0
M  V30 1147 H 103.988 -0.0564282 -1.46992 0
M  V30 1148 H 105.946 2.34407 -3.45122 0
M  V30 1149 H 104.576 2.2509 -2.31375 0
M  V30 1150 H 103.628 0.332919 -3.7894 0
M  V30 1151 H 104.94 0.654677 -4.94485 0
M  V30 1152 H 104.094 2.98626 -5.28117 0
M  V30 1153 H 102.833 2.72807 -4.04262 0
M  V30 1154 H 101.838 0.884779 -5.42634 0
M  V30 1155 H 103.063 1.16652 -6.69006 0
M  V30 1156 H 101.009 3.1946 -5.72959 0
M  V30 1157 H 100.926 2.28917 -7.20509 0
M  V30 1158 H 102.194 3.45799 -6.98601 0
M  V30 1159 N 106.423 1.57458 -0.0668435 0
M  V30 1160 C 107.671 1.92919 0.602214 0
M  V30 1161 C 107.992 0.947215 1.70449 0
M  V30 1162 O 107.262 -0.00544117 1.95899 0
M  V30 1163 H 105.842 0.71217 0.22544 0
M  V30 1164 H 108.504 1.94508 -0.123535 0
M  V30 1165 H 107.6 2.94589 1.03073 0
M  V30 1166 N 107.901 -0.206675 1.56239 0
M  V30 1167 C 108.831 -1.25909 1.96645 0
M  V30 1168 C 109.812 -1.48097 0.836734 0
M  V30 1169 O 110.997 -1.6003 1.10019 0
M  V30 1170 C 108.127 -2.6058 2.29599 0
M  V30 1171 C 107.081 -2.53024 3.452 0
M  V30 1172 C 106.407 -3.91861 3.63798 0
M  V30 1173 C 107.707 -2.06524 4.79734 0
M  V30 1174 H 109.401 -0.923369 2.84806 0
M  V30 1175 H 106.947 -0.442735 1.37025 0
M  V30 1176 H 108.9 -3.34375 2.56459 0
M  V30 1177 H 107.624 -2.95869 1.38307 0
M  V30 1178 H 106.283 -1.81684 3.18412 0
M  V30 1179 H 105.931 -4.24483 2.69857 0
M  V30 1180 H 105.631 -3.87683 4.4156 0
M  V30 1181 H 107.155 -4.67296 3.93022 0
M  V30 1182 H 108.569 -2.70072 5.05702 0
M  V30 1183 H 106.966 -2.13374 5.60885 0
M  V30 1184 H 108.036 -1.01802 4.74093 0
M  V30 1185 N 109.379 -1.50304 -0.473955 0
M  V30 1186 C 110.326 -1.68959 -1.57231 0
M  V30 1187 C 111.296 -0.530899 -1.57387 0
M  V30 1188 O 112.481 -0.761133 -1.74961 0
M  V30 1189 C 109.621 -1.7871 -2.95223 0
M  V30 1190 C 108.734 -3.06061 -3.04878 0
M  V30 1191 C 107.869 -3.06626 -4.33767 0
M  V30 1192 C 106.908 -4.28443 -4.37154 0
M  V30 1193 N 106.045 -4.26763 -5.5751 0
M  V30 1194 H 110.885 -2.6273 -1.40631 0
M  V30 1195 H 108.422 -1.30241 -0.683789 0
M  V30 1196 H 110.38 -1.82344 -3.75242 0
M  V30 1197 H 109.01 -0.883806 -3.10465 0
M  V30 1198 H 108.062 -3.11911 -2.17751 0
M  V30 1199 H 109.374 -3.96039 -3.0324 0
M  V30 1200 H 108.528 -3.08973 -5.22131 0
M  V30 1201 H 107.267 -2.14473 -4.3801 0
M  V30 1202 H 106.272 -4.2631 -3.47188 0
M  V30 1203 H 107.497 -5.2182 -4.34605 0
M  V30 1204 H 105.443 -3.37462 -5.62544 0
M  V30 1205 H 105.36 -5.10507 -5.57601 0
M  V30 1206 H 106.628 -4.33253 -6.48006 0
M  V30 1207 N 110.857 0.726932 -1.39834 0
M  V30 1208 C 112.106 1.48214 -1.36805 0
M  V30 1209 C 112.419 1.95576 0.0305291 0
M  V30 1210 O 113.625 2.7088 0.183417 0
M  V30 1211 C 112.081 2.67854 -2.40379 0
M  V30 1212 C 111.689 2.27408 -3.85992 0
M  V30 1213 C 113.433 3.45641 -2.46439 0
M  V30 1214 C 111.34 3.43819 -4.81189 0
M  V30 1215 H 110.27 0.556606 -0.508631 0
M  V30 1216 H 112.921 0.792216 -1.65518 0
M  V30 1217 H 111.303 3.3896 -2.04749 0
M  V30 1218 H 112.477 1.63795 -4.30706 0
M  V30 1219 H 110.792 1.62692 -3.83302 0
M  V30 1220 H 113.389 4.32244 -3.14753 0
M  V30 1221 H 113.732 3.88669 -1.49139 0
M  V30 1222 H 114.265 2.8157 -2.81004 0
M  V30 1223 H 111.004 3.05834 -5.79781 0
M  V30 1224 H 110.524 4.06385 -4.41148 0
M  V30 1225 H 112.203 4.10043 -5.00474 0
M  V30 1226 N 112.336 1.25143 0.95797 0
M  V30 1227 C 113.246 1.06968 2.08794 0
M  V30 1228 C 114.262 0.00773911 1.73998 0
M  V30 1229 O 115.438 0.207972 2.00323 0
M  V30 1230 C 112.503 0.68691 3.39827 0
M  V30 1231 C 111.564 1.82641 3.88511 0
M  V30 1232 C 110.797 1.46181 5.1329 0
M  V30 1233 O 111.02 0.355971 5.69288 0
M  V30 1234 O 109.954 2.29085 5.566 0
M  V30 1235 H 113.78 2.01723 2.27027 0
M  V30 1236 H 111.365 1.04051 1.07209 0
M  V30 1237 H 113.247 0.485417 4.18595 0
M  V30 1238 H 111.922 -0.231417 3.22872 0
M  V30 1239 H 110.829 2.08274 3.10762 0
M  V30 1240 H 112.162 2.72386 4.09959 0
M  V30 1241 N 113.814 -1.1601 1.06675 0
M  V30 1242 C 115.062 -1.86264 0.784229 0
M  V30 1243 C 115.383 -1.82328 -0.691488 0
M  V30 1244 O 114.653 -1.25947 -1.50047 0
M  V30 1245 H 113.233 -0.689621 0.28711 0
M  V30 1246 H 115.895 -1.40664 1.34906 0
M  V30 1247 H 114.991 -2.91595 1.11259 0
M  V30 1248 N 115.292 -0.849877 -1.32721 0
M  V30 1249 C 116.539 -0.450923 -1.97416 0
M  V30 1250 C 116.867 0.992376 -1.67279 0
M  V30 1251 O 116.122 1.71048 -0.950845 0
M  V30 1252 C 116.421 -0.631272 -3.51781 0
M  V30 1253 C 116.087 -2.04432 -4.01894 0
M  V30 1254 C 114.749 -2.4308 -4.1529 0
M  V30 1255 C 117.101 -2.96679 -4.28522 0
M  V30 1256 C 114.429 -3.73257 -4.52654 0
M  V30 1257 C 116.781 -4.26349 -4.67343 0
M  V30 1258 C 115.445 -4.64939 -4.78945 0
M  V30 1259 H 114.715 -0.165004 -0.722395 0
M  V30 1260 H 117.362 -1.07901 -1.58207 0
M  V30 1261 H 115.667 0.0800767 -3.91718 0
M  V30 1262 H 117.364 -0.302709 -3.99856 0
M  V30 1263 H 113.954 -1.73419 -3.91949 0
M  V30 1264 H 118.138 -2.68054 -4.17685 0
M  V30 1265 H 113.394 -4.02946 -4.59831 0
M  V30 1266 H 117.568 -4.97895 -4.86902 0
M  V30 1267 H 115.195 -5.65855 -5.07654 0
M  V30 1268 N 116.77 1.45427 -0.607355 0
M  V30 1269 C 118.047 1.9557 -0.0344566 0
M  V30 1270 C 118.427 1.54979 1.43334 0
M  V30 1271 O 117.775 0.812241 2.13576 0
M  V30 1272 C 117.985 3.48226 -0.232321 0
M  V30 1273 C 119.333 4.2445 -0.113001 0
M  V30 1274 O 120.357 3.55829 -0.162431 0
M  V30 1275 O 119.216 5.465 0.00209442 0
M  V30 1276 H 116.31 0.826222 0.0358667 0
M  V30 1277 H 118.856 1.55594 -0.6774 0
M  V30 1278 H 117.628 3.70739 -1.25174 0
M  V30 1279 H 117.251 3.95092 0.445896 0
M  V30 1280 N 118.248 0.346503 1.53744 0
M  V30 1281 C 119.495 -0.249104 2.00962 0
M  V30 1282 C 119.823 -1.5032 1.23426 0
M  V30 1283 O 119.078 -1.93217 0.310761 0
M  V30 1284 C 119.377 -0.605809 3.52228 0
M  V30 1285 C 119.043 0.551747 4.47512 0
M  V30 1286 C 117.705 0.86941 4.73281 0
M  V30 1287 C 120.057 1.32818 5.03993 0
M  V30 1288 C 117.385 1.96582 5.52786 0
M  V30 1289 C 119.737 2.41486 5.84694 0
M  V30 1290 C 118.401 2.73808 6.08757 0
M  V30 1291 H 117.671 -0.0911538 0.735372 0
M  V30 1292 H 120.318 0.475027 1.85515 0
M  V30 1293 H 118.623 -1.4107 3.65522 0
M  V30 1294 H 120.32 -1.07858 3.86222 0
M  V30 1295 H 116.91 0.294102 4.2759 0
M  V30 1296 H 121.094 1.09602 4.84047 0
M  V30 1297 H 116.35 2.22045 5.69654 0
M  V30 1298 H 120.524 3.02078 6.27473 0
M  V30 1299 H 118.151 3.58892 6.7015 0
M  V30 1300 N 119.726 -1.57421 0.075193 0
M  V30 1301 C 120.951 -1.98364 -0.605515 0
M  V30 1302 C 121.376 -0.953383 -1.62149 0
M  V30 1303 O 120.734 0.0806053 -1.81121 0
M  V30 1304 C 120.782 -3.38332 -1.24756 0
M  V30 1305 O 119.886 -3.37959 -2.36342 0
M  V30 1306 H 119.227 -0.645553 -0.155428 0
M  V30 1307 H 121.757 -2.04044 0.150714 0
M  V30 1308 H 121.767 -3.75591 -1.5936 0
M  V30 1309 H 120.442 -4.12846 -0.503129 0
M  V30 1310 H 119.019 -3.12474 -2.03506 0
M  V30 1311 N 121.204 0.198386 -1.56346 0
M  V30 1312 C 122.152 1.26538 -1.95169 0
M  V30 1313 C 123.146 1.47295 -0.836685 0
M  V30 1314 O 124.352 1.48195 -1.02167 0
M  V30 1315 H 120.727 0.424744 -0.620561 0
M  V30 1316 H 122.698 0.910904 -2.84157 0
M  V30 1317 C 121.447 2.6035 -2.30463 0
M  V30 1318 H 120.77 2.45192 -3.15786 0
M  V30 1319 H 122.21 3.33762 -2.61494 0
M  V30 1320 C 120.669 3.17096 -1.13806 0
M  V30 1321 O 121.199 3.99588 -0.41135 0
M  V30 1322 N 119.405 2.75795 -0.915736 0
M  V30 1323 H 118.952 2.08816 -1.50843 0
M  V30 1324 H 118.91 3.14101 -0.136979 0
M  V30 1325 N 122.682 1.50554 0.465978 0
M  V30 1326 C 123.907 1.65838 1.24549 0
M  V30 1327 C 124.332 0.343486 1.84937 0
M  V30 1328 O 123.69 -0.69324 1.67523 0
M  V30 1329 C 123.738 2.75533 2.32624 0
M  V30 1330 O 122.842 2.37142 3.37398 0
M  V30 1331 H 122.183 0.553893 0.366194 0
M  V30 1332 H 124.713 1.96959 0.553927 0
M  V30 1333 H 124.723 2.98763 2.77857 0
M  V30 1334 H 123.398 3.70962 1.88043 0
M  V30 1335 H 121.975 2.24377 2.97841 0
M  V30 1336 N 124.16 -0.719506 1.40217 0
M  V30 1337 C 125.571 -1.29848 1.34151 0
M  V30 1338 C 125.922 -1.96196 0.0131349 0
M  V30 1339 O 125.047 -1.973 -0.88892 0
M  V30 1340 C 125.642 -2.36118 2.42968 0
M  V30 1341 C 124.201 -2.8965 2.40374 0
M  V30 1342 C 123.348 -1.63393 2.24049 0
M  V30 1343 H 126.299 -0.51591 1.5008 0
M  V30 1344 H 126.32 -3.16871 2.10649 0
M  V30 1345 H 125.832 -1.878 3.39636 0
M  V30 1346 H 123.933 -3.42208 1.47392 0
M  V30 1347 H 124.046 -3.4171 3.35814 0
M  V30 1348 H 122.41 -1.88312 1.71495 0
M  V30 1349 H 123.193 -1.17104 3.2271 0
M  V30 1350 N 125.638 -1.25649 -0.95132 0
M  V30 1351 C 126.571 -1.00644 -2.04807 0
M  V30 1352 C 127.549 0.0654271 -1.62468 0
M  V30 1353 O 128.733 -0.074911 -1.88351 0
M  V30 1354 C 125.86 -0.522052 -3.34653 0
M  V30 1355 C 124.906 -1.58495 -3.95957 0
M  V30 1356 S 125.739 -3.17108 -4.31512 0
M  V30 1357 C 126.895 -2.70412 -5.64471 0
M  V30 1358 H 127.128 -1.93508 -2.25703 0
M  V30 1359 H 124.661 -1.09216 -1.09139 0
M  V30 1360 H 126.619 -0.24923 -4.09743 0
M  V30 1361 H 125.28 0.386146 -3.11717 0
M  V30 1362 H 124.473 -1.1968 -4.89584 0
M  V30 1363 H 124.075 -1.80862 -3.2736 0
M  V30 1364 H 126.367 -2.14245 -6.42733 0
M  V30 1365 H 127.31 -3.62693 -6.08161 0
M  V30 1366 H 127.718 -2.10302 -5.23864 0
M  V30 1367 N 127.117 1.15442 -1.07289 0
M  V30 1368 C 128.027 2.23786 -0.704057 0
M  V30 1369 C 129.043 1.7166 0.284413 0
M  V30 1370 O 130.219 2.00972 0.131205 0
M  V30 1371 C 127.284 3.46535 -0.106792 0
M  V30 1372 C 126.345 4.13654 -1.14842 0
M  V30 1373 C 125.578 5.30544 -0.57956 0
M  V30 1374 O 125.801 5.67187 0.604585 0
M  V30 1375 O 124.735 5.87154 -1.32414 0
M  V30 1376 H 128.561 2.57664 -1.60757 0
M  V30 1377 H 126.146 1.23152 -0.845803 0
M  V30 1378 H 128.028 4.20804 0.224048 0
M  V30 1379 H 126.703 3.14407 0.770049 0
M  V30 1380 H 125.61 3.4131 -1.5316 0
M  V30 1381 H 126.943 4.49861 -1.99714 0
M  V30 1382 N 128.595 0.856903 1.32268 0
M  V30 1383 C 129.825 0.47475 2.01071 0
M  V30 1384 C 130.233 -0.933746 1.64553 0
M  V30 1385 O 129.576 -1.62114 0.863989 0
M  V30 1386 C 129.638 0.536746 3.55471 0
M  V30 1387 C 129.302 1.90453 4.15423 0
M  V30 1388 C 130.299 2.87029 4.33486 0
M  V30 1389 C 127.984 2.20229 4.51447 0
M  V30 1390 C 129.978 4.11532 4.86744 0
M  V30 1391 C 127.665 3.44984 5.0441 0
M  V30 1392 C 128.663 4.40452 5.22007 0
M  V30 1393 O 128.351 5.62998 5.73837 0
M  V30 1394 H 128.083 0.184778 0.650256 0
M  V30 1395 H 130.637 1.15615 1.69771 0
M  V30 1396 H 128.867 -0.20152 3.86175 0
M  V30 1397 H 130.556 0.169875 4.05544 0
M  V30 1398 H 131.322 2.6533 4.05986 0
M  V30 1399 H 127.201 1.46705 4.37034 0
M  V30 1400 H 130.745 4.86056 5.00395 0
M  V30 1401 H 126.642 3.66532 5.31342 0
M  V30 1402 H 127.41 5.64987 5.92226 0
M  V30 1403 N 130.073 -1.45103 0.615059 0
M  V30 1404 C 131.301 -2.06553 0.11977 0
M  V30 1405 C 131.716 -1.45842 -1.19898 0
M  V30 1406 O 131.073 -0.575325 -1.73194 0
M  V30 1407 C 131.124 -3.61495 -0.018364 0
M  V30 1408 O 130.845 -4.19942 1.24822 0
M  V30 1409 C 132.346 -4.39947 -0.544237 0
M  V30 1410 H 129.566 -0.667096 0.0722739 0
M  V30 1411 H 132.11 -1.8623 0.84491 0
M  V30 1412 H 130.265 -3.81135 -0.693865 0
M  V30 1413 H 130.679 -5.13204 1.0827 0
M  V30 1414 H 132.153 -5.48838 -0.589953 0
M  V30 1415 H 132.63 -4.10255 -1.56805 0
M  V30 1416 H 133.236 -4.25188 0.0974703 0
M  V30 1417 N 131.551 -0.354651 -1.53558 0
M  V30 1418 C 132.461 0.50515 -2.29097 0
M  V30 1419 C 133.477 1.10223 -1.34636 0
M  V30 1420 O 134.653 1.11553 -1.67684 0
M  V30 1421 C 131.718 1.63479 -3.05738 0
M  V30 1422 C 130.779 1.06636 -4.15845 0
M  V30 1423 C 130.012 2.14217 -4.88822 0
M  V30 1424 O 130.235 3.35137 -4.61562 0
M  V30 1425 O 129.169 1.77887 -5.75013 0
M  V30 1426 H 132.995 -0.109237 -3.03503 0
M  V30 1427 H 130.58 -0.119357 -1.48922 0
M  V30 1428 H 132.462 2.2918 -3.5363 0
M  V30 1429 H 131.137 2.23478 -2.34178 0
M  V30 1430 H 130.044 0.373565 -3.7223 0
M  V30 1431 H 131.377 0.511081 -4.89539 0
M  V30 1432 N 133.029 1.57378 -0.0835403 0
M  V30 1433 C 134.306 1.85363 0.624507 0
M  V30 1434 C 134.686 0.978239 1.87066 0
M  V30 1435 O 134.034 0.0475908 2.2845 0
M  V30 1436 C 134.244 3.35795 0.950947 0
M  V30 1437 C 135.592 4.03581 1.31939 0
M  V30 1438 O 136.616 3.40609 1.04232 0
M  V30 1439 O 135.475 5.14672 1.83779 0
M  V30 1440 H 132.569 0.766162 0.311329 0
M  V30 1441 H 135.115 1.69307 -0.115362 0
M  V30 1442 H 133.887 3.91244 0.0663899 0
M  V30 1443 H 133.51 3.57154 1.74719 0
M  V30 1444 N 134.507 -0.190092 1.56449 0
M  V30 1445 C 135.753 -0.911052 1.81184 0
M  V30 1446 C 136.086 -1.82699 0.658396 0
M  V30 1447 O 135.361 -1.91491 -0.340775 0
M  V30 1448 C 135.644 -1.72297 3.16205 0
M  V30 1449 C 135.497 -0.831419 4.42049 0
M  V30 1450 C 136.816 -2.69454 3.47969 0
M  V30 1451 H 133.935 -0.32977 0.659106 0
M  V30 1452 H 136.577 -0.178169 1.89163 0
M  V30 1453 H 134.727 -2.34778 3.09534 0
M  V30 1454 H 136.399 -0.220929 4.60771 0
M  V30 1455 H 134.642 -0.138406 4.33579 0
M  V30 1456 H 135.313 -1.43461 5.33032 0
M  V30 1457 H 137.789 -2.17104 3.54972 0
M  V30 1458 H 136.665 -3.23342 4.43555 0
M  V30 1459 H 136.926 -3.48744 2.71717 0
M  V30 1460 N 135.985 -1.50799 -0.457987 0
M  V30 1461 C 137.231 -1.62683 -1.21088 0
M  V30 1462 C 137.564 -0.332268 -1.91336 0
M  V30 1463 O 136.839 0.667043 -1.82704 0
M  V30 1464 C 137.122 -2.81615 -2.24422 0
M  V30 1465 C 136.975 -4.20989 -1.58392 0
M  V30 1466 C 138.294 -2.96085 -3.2561 0
M  V30 1467 H 135.413 -0.592087 -0.438864 0
M  V30 1468 H 138.055 -1.83225 -0.50286 0
M  V30 1469 H 136.205 -2.64231 -2.84806 0
M  V30 1470 H 137.877 -4.49994 -1.01504 0
M  V30 1471 H 136.12 -4.24641 -0.886704 0
M  V30 1472 H 136.791 -5.0016 -2.33547 0
M  V30 1473 H 139.267 -3.12042 -2.75262 0
M  V30 1474 H 138.143 -3.80902 -3.95228 0
M  V30 1475 H 138.404 -2.0726 -3.90507 0
M  V30 1476 N 137.463 0.71206 -1.40597 0
M  V30 1477 C 138.41 1.82613 -1.41142 0
M  V30 1478 C 139.38 1.63925 -0.267903 0
M  V30 1479 O 140.565 1.85009 -0.466495 0
M  V30 1480 C 137.705 3.20354 -1.28324 0
M  V30 1481 C 136.818 3.50589 -2.52411 0
M  V30 1482 C 135.953 4.77855 -2.32009 0
M  V30 1483 C 134.992 5.01005 -3.51654 0
M  V30 1484 N 134.129 6.19487 -3.30425 0
M  V30 1485 H 138.969 1.81482 -2.36365 0
M  V30 1486 H 136.506 0.886475 -1.17388 0
M  V30 1487 H 138.464 3.99899 -1.18899 0
M  V30 1488 H 137.094 3.20705 -0.367189 0
M  V30 1489 H 136.146 2.65573 -2.72351 0
M  V30 1490 H 137.458 3.63604 -3.41458 0
M  V30 1491 H 136.612 5.65424 -2.19956 0
M  V30 1492 H 135.351 4.67056 -1.40392 0
M  V30 1493 H 134.356 4.1189 -3.64179 0
M  V30 1494 H 135.581 5.13674 -4.44202 0
M  V30 1495 H 133.527 6.09932 -2.41494 0
M  V30 1496 H 133.444 6.33194 -4.13039 0
M  V30 1497 H 134.712 7.09834 -3.22113 0
M  V30 1498 N 138.941 1.26152 0.944643 0
M  V30 1499 C 140.189 1.11271 1.6871 0
M  V30 1500 C 140.51 -0.345166 1.91921 0
M  V30 1501 O 139.78 -1.24387 1.51343 0
M  V30 1502 H 138.36 0.408783 0.625224 0
M  V30 1503 H 141.022 1.58427 1.1352 0
M  V30 1504 H 140.118 1.62879 2.66227 0
M  V30 1505 N 140.419 -1.14872 1.07899 0
M  V30 1506 C 141.366 -2.19791 0.704319 0
M  V30 1507 C 142.336 -1.63238 -0.306987 0
M  V30 1508 O 143.521 -1.8983 -0.192171 0
M  V30 1509 C 140.661 -3.44911 0.114244 0
M  V30 1510 C 139.774 -4.15637 1.1777 0
M  V30 1511 C 138.909 -5.28324 0.552037 0
M  V30 1512 C 137.948 -5.90875 1.59789 0
M  V30 1513 N 137.085 -6.95022 0.994404 0
M  V30 1514 H 141.925 -2.5119 1.60336 0
M  V30 1515 H 139.462 -1.23356 0.801352 0
M  V30 1516 H 141.42 -4.16477 -0.245544 0
M  V30 1517 H 140.05 -3.14011 -0.74813 0
M  V30 1518 H 139.102 -3.42512 1.65499 0
M  V30 1519 H 140.414 -4.5823 1.97046 0
M  V30 1520 H 139.568 -6.06538 0.1402 0
M  V30 1521 H 138.307 -4.86939 -0.272431 0
M  V30 1522 H 137.312 -5.11369 2.01945 0
M  V30 1523 H 138.537 -6.34337 2.42474 0
M  V30 1524 H 136.483 -6.55722 0.190939 0
M  V30 1525 H 136.4 -7.36073 1.72432 0
M  V30 1526 H 137.668 -7.77123 0.608253 0
M  V30 1527 N 141.898 -0.863906 -1.31812 0
M  V30 1528 C 143.126 -0.486111 -2.01108 0
M  V30 1529 C 143.541 0.919755 -1.64882 0
M  V30 1530 O 142.898 1.60162 -0.874893 0
M  V30 1531 C 142.949 -0.626435 -3.56031 0
M  V30 1532 O 142.67 -1.97693 -3.90959 0
M  V30 1533 C 144.171 -0.248857 -4.42601 0
M  V30 1534 H 141.391 -0.190052 -0.643523 0
M  V30 1535 H 143.935 -1.1634 -1.68182 0
M  V30 1536 H 142.09 0.00322717 -3.874 0
M  V30 1537 H 142.504 -1.98034 -4.85678 0
M  V30 1538 H 143.978 -0.398016 -5.50563 0
M  V30 1539 H 144.455 0.811489 -4.31638 0
M  V30 1540 H 145.061 -0.853971 -4.16638 0
M  V30 1541 N 143.376 1.44774 -0.622745 0
M  V30 1542 C 144.306 2.33382 0.0741861 0
M  V30 1543 C 145.287 1.47719 0.843387 0
M  V30 1544 O 146.472 1.76458 0.810934 0
M  V30 1545 C 143.602 3.30663 1.06204 0
M  V30 1546 C 142.556 4.26079 0.405037 0
M  V30 1547 C 141.882 5.13165 1.5022 0
M  V30 1548 C 143.182 5.1781 -0.683414 0
M  V30 1549 H 144.876 2.91905 -0.665713 0
M  V30 1550 H 142.422 1.40363 -0.321587 0
M  V30 1551 H 144.375 3.9153 1.55827 0
M  V30 1552 H 143.099 2.70331 1.83272 0
M  V30 1553 H 141.758 3.66532 -0.0704683 0
M  V30 1554 H 141.406 4.49191 2.26355 0
M  V30 1555 H 141.106 5.77812 1.06803 0
M  V30 1556 H 142.63 5.76902 2.00041 0
M  V30 1557 H 144.044 5.72661 -0.270631 0
M  V30 1558 H 142.441 5.91015 -1.04023 0
M  V30 1559 H 143.511 4.59326 -1.55395 0
M  V30 1560 N 144.854 0.36279 1.53368 0
M  V30 1561 C 146.103 -0.22888 2.00397 0
M  V30 1562 C 146.416 -1.50096 1.25421 0
M  V30 1563 O 147.622 -2.17106 1.63025 0
M  V30 1564 C 146.078 -0.458417 3.56969 0
M  V30 1565 C 145.686 0.798877 4.4082 0
M  V30 1566 C 147.43 -1.00789 4.12361 0
M  V30 1567 C 145.337 0.539078 5.88938 0
M  V30 1568 H 144.267 -0.089305 0.748693 0
M  V30 1569 H 146.918 0.481099 1.77081 0
M  V30 1570 H 145.3 -1.22959 3.76427 0
M  V30 1571 H 146.474 1.57262 4.33134 0
M  V30 1572 H 144.789 1.27137 3.96516 0
M  V30 1573 H 147.386 -1.21754 5.20653 0
M  V30 1574 H 147.729 -1.9692 3.66781 0
M  V30 1575 H 148.262 -0.296961 3.9669 0
M  V30 1576 H 145.001 1.47064 6.3879 0
M  V30 1577 H 144.521 -0.196222 5.99479 0
M  V30 1578 H 146.2 0.163542 6.46793 0
M  V30 1579 N 146.332 -1.57332 0.0918853 0
M  V30 1580 C 147.265 -2.09499 -0.904735 0
M  V30 1581 C 148.243 -1.00479 -1.27839 0
M  V30 1582 O 149.427 -1.27954 -1.38419 0
M  V30 1583 C 146.554 -2.56931 -2.2069 0
M  V30 1584 C 145.6 -3.77579 -1.98334 0
M  V30 1585 S 146.433 -5.21317 -1.22428 0
M  V30 1586 C 147.589 -5.72097 -2.53882 0
M  V30 1587 H 147.822 -2.93705 -0.460922 0
M  V30 1588 H 145.355 -1.53923 -0.121332 0
M  V30 1589 H 147.313 -2.84917 -2.95521 0
M  V30 1590 H 145.974 -1.72956 -2.62192 0
M  V30 1591 H 145.167 -4.08824 -2.94752 0
M  V30 1592 H 144.769 -3.5007 -1.31633 0
M  V30 1593 H 147.061 -5.80168 -3.49874 0
M  V30 1594 H 148.004 -6.70654 -2.27219 0
M  V30 1595 H 148.412 -5.00012 -2.62007 0
M  V30 1596 N 147.81 0.181792 -1.56548 0
M  V30 1597 C 149.038 0.915947 -1.85521 0
M  V30 1598 C 149.453 1.76282 -0.676016 0
M  V30 1599 O 148.81 1.79012 0.355077 0
M  V30 1600 C 148.861 1.80126 -3.13427 0
M  V30 1601 O 148.582 0.988562 -4.26801 0
M  V30 1602 C 150.083 2.64597 -3.55673 0
M  V30 1603 H 147.303 0.26661 -0.61576 0
M  V30 1604 H 149.847 0.185039 -2.03661 0
M  V30 1605 H 148.002 2.48563 -2.97145 0
M  V30 1606 H 148.416 1.59308 -4.99721 0
M  V30 1607 H 149.89 3.2235 -4.48101 0
M  V30 1608 H 150.367 3.38958 -2.79292 0
M  V30 1609 H 150.973 2.0151 -3.74532 0
M  V30 1610 N 149.288 1.51039 0.449983 0
M  V30 1611 C 150.516 1.66869 1.2232 0
M  V30 1612 C 150.931 0.360727 1.85322 0
M  V30 1613 O 150.288 -0.659531 1.70166 0
M  V30 1614 C 150.339 2.77524 2.31652 0
M  V30 1615 O 150.06 4.03252 1.7123 0
M  V30 1616 C 151.561 3.04512 3.2216 0
M  V30 1617 H 148.781 0.560326 0.369155 0
M  V30 1618 H 151.325 1.97385 0.534719 0
M  V30 1619 H 149.48 2.49642 2.96239 0
M  V30 1620 H 149.894 4.64609 2.43389 0
M  V30 1621 H 151.368 3.85551 3.95038 0
M  V30 1622 H 151.845 2.16415 3.8218 0
M  V30 1623 H 152.451 3.34005 2.63288 0
M  V30 1624 N 150.766 -0.704594 1.40972 0
M  V30 1625 C 151.994 -1.49354 1.43182 0
M  V30 1626 C 152.409 -1.88768 0.0345508 0
M  V30 1627 O 151.766 -1.56184 -0.944081 0
M  V30 1628 C 151.817 -2.76187 2.33244 0
M  V30 1629 O 151.538 -2.38436 3.67532 0
M  V30 1630 C 153.039 -3.7 2.44162 0
M  V30 1631 H 150.259 -0.460559 0.487982 0
M  V30 1632 H 152.803 -0.868261 1.85153 0
M  V30 1633 H 150.958 -3.34974 1.94606 0
M  V30 1634 H 151.372 -3.20126 4.15475 0
M  V30 1635 H 152.846 -4.55803 3.11364 0
M  V30 1636 H 153.323 -4.13867 1.47006 0
M  V30 1637 H 153.929 -3.17121 2.83398 0
M  V30 1638 N 152.244 -1.26651 -0.937939 0
M  V30 1639 C 153.192 -1.08308 -2.05845 0
M  V30 1640 C 154.186 -0.0090757 -1.69398 0
M  V30 1641 O 155.392 -0.166007 -1.79233 0
M  V30 1642 H 151.767 -0.333416 -0.674046 0
M  V30 1643 H 153.738 -2.03261 -2.18467 0
M  V30 1644 C 152.487 -0.736229 -3.39816 0
M  V30 1645 H 151.81 -1.55453 -3.6834 0
M  V30 1646 H 153.25 -0.64769 -4.19024 0
M  V30 1647 C 151.709 0.558824 -3.32233 0
M  V30 1648 O 152.239 1.59621 -3.68624 0
M  V30 1649 N 150.445 0.550657 -2.85335 0
M  V30 1650 H 149.992 -0.293943 -2.55917 0
M  V30 1651 H 149.95 1.41726 -2.80644 0
M  V30 1652 N 153.722 1.14298 -1.08507 0
M  V30 1653 C 154.97 1.84993 -0.813763 0
M  V30 1654 C 155.291 1.83405 0.662393 0
M  V30 1655 O 154.561 1.28319 1.48024 0
M  V30 1656 H 153.141 0.684966 -0.298045 0
M  V30 1657 H 155.803 1.385 -1.37126 0
M  V30 1658 H 154.899 2.89788 -1.15884 0
M  V30 1659 N 155.201 0.870884 1.31352 0
M  V30 1660 C 156.429 0.49677 2.00848 0
M  V30 1661 C 156.844 -0.910998 1.65367 0
M  V30 1662 O 156.201 -1.59696 0.883374 0
M  V30 1663 C 156.252 0.645308 3.55694 0
M  V30 1664 O 155.973 1.99764 3.89905 0
M  V30 1665 C 157.474 0.272326 4.42463 0
M  V30 1666 H 154.694 0.193462 0.642506 0
M  V30 1667 H 157.238 1.1723 1.67563 0
M  V30 1668 H 155.393 0.0173176 3.87396 0
M  V30 1669 H 155.807 2.00607 4.84621 0
M  V30 1670 H 157.281 0.427208 5.50344 0
M  V30 1671 H 157.758 -0.788587 4.32062 0
M  V30 1672 H 158.364 0.876054 4.1618 0
M  V30 1673 N 156.679 -1.44442 0.630414 0
M  V30 1674 C 158.095 -1.56832 0.295973 0
M  V30 1675 C 158.295 -1.61806 -1.20088 0
M  V30 1676 O 157.351 -1.5607 -1.9849 0
M  V30 1677 C 158.664 -2.84031 0.987264 0
M  V30 1678 C 160.212 -2.97742 0.96534 0
M  V30 1679 C 160.687 -4.27743 1.63708 0
M  V30 1680 N 162.178 -4.34555 1.60364 0
M  V30 1681 C 162.913 -5.33862 2.09234 0
M  V30 1682 N 162.409 -6.39578 2.66292 0
M  V30 1683 N 164.202 -5.25366 1.99867 0
M  V30 1684 H 156.353 -1.39457 1.60205 0
M  V30 1685 H 158.616 -0.668237 0.672431 0
M  V30 1686 H 158.322 -2.86338 2.04215 0
M  V30 1687 H 158.196 -3.73534 0.524588 0
M  V30 1688 H 160.583 -2.94989 -0.0810639 0
M  V30 1689 H 160.664 -2.09589 1.4665 0
M  V30 1690 H 160.308 -4.31255 2.68293 0
M  V30 1691 H 160.238 -5.14752 1.11076 0
M  V30 1692 H 162.729 -3.58772 1.18705 0
M  V30 1693 H 163.042 -7.11637 3.01317 0
M  V30 1694 H 161.387 -6.40265 2.70343 0
M  V30 1695 H 164.578 -4.41688 1.55013 0
M  V30 1696 H 164.751 -6.02606 2.38265 0
M  V30 1697 N 158.157 -0.370918 -1.53173 0
M  V30 1698 C 159.12 0.460778 -2.24521 0
M  V30 1699 C 160.12 1.00536 -1.25496 0
M  V30 1700 O 161.31 0.890266 -1.49733 0
M  V30 1701 C 158.442 1.64457 -2.98608 0
M  V30 1702 H 159.635 -0.163613 -2.99453 0
M  V30 1703 H 157.188 -0.122699 -1.55818 0
M  V30 1704 H 157.923 2.30691 -2.2793 0
M  V30 1705 H 157.708 1.26099 -3.7127 0
M  V30 1706 H 159.198 2.23384 -3.5283 0
M  V30 1707 N 159.635 1.57281 -0.100228 0
M  V30 1708 C 160.884 1.93713 0.561984 0
M  V30 1709 C 161.197 0.984492 1.69018 0
M  V30 1710 O 162.403 1.24273 2.41389 0
M  V30 1711 C 160.859 3.4421 1.05106 0
M  V30 1712 C 160.467 4.47975 -0.0476628 0
M  V30 1713 C 162.211 3.89595 1.68571 0
M  V30 1714 C 160.118 5.89631 0.457055 0
M  V30 1715 H 159.048 0.723082 0.2137 0
M  V30 1716 H 161.699 1.82644 -0.177057 0
M  V30 1717 H 160.081 3.50449 1.84395 0
M  V30 1718 H 161.255 4.53385 -0.823333 0
M  V30 1719 H 159.57 4.1223 -0.587816 0
M  V30 1720 H 162.167 4.92832 2.07414 0
M  V30 1721 H 162.51 3.28526 2.55688 0
M  V30 1722 H 163.043 3.86078 0.958562 0
M  V30 1723 H 159.782 6.54411 -0.377616 0
M  V30 1724 H 159.302 5.87681 1.19962 0
M  V30 1725 H 160.981 6.40363 0.92437 0
M  V30 1726 N 161.113 -0.173488 1.56642 0
M  V30 1727 C 162.06 -1.21482 1.96242 0
M  V30 1728 C 163.03 -1.44104 0.826027 0
M  V30 1729 O 164.215 -1.5688 1.08597 0
M  V30 1730 C 161.355 -2.54964 2.32567 0
M  V30 1731 C 160.468 -2.39739 3.59373 0
M  V30 1732 C 159.603 -3.66072 3.84921 0
M  V30 1733 C 158.642 -3.45771 5.05083 0
M  V30 1734 N 157.779 -4.64169 5.26775 0
M  V30 1735 H 162.619 -0.870123 2.85014 0
M  V30 1736 H 160.156 -0.418245 1.41029 0
M  V30 1737 H 162.114 -3.32758 2.5165 0
M  V30 1738 H 160.744 -2.87433 1.46908 0
M  V30 1739 H 159.796 -1.53131 3.48217 0
M  V30 1740 H 161.108 -2.20683 4.47326 0
M  V30 1741 H 160.262 -4.52303 4.0436 0
M  V30 1742 H 159.001 -3.88105 2.9534 0
M  V30 1743 H 158.006 -2.57927 4.85545 0
M  V30 1744 H 159.231 -3.25163 5.96193 0
M  V30 1745 H 157.177 -4.86425 4.40144 0
M  V30 1746 H 157.094 -4.48019 6.08946 0
M  V30 1747 H 158.362 -5.51689 5.5069 0
M  V30 1748 N 162.591 -1.51276 -0.441967 0
M  V30 1749 C 163.839 -1.63392 -1.18943 0
M  V30 1750 C 164.16 -0.350159 -1.9183 0
M  V30 1751 O 163.43 0.633784 -1.85364 0
M  V30 1752 H 162.01 -0.602164 -0.442049 0
M  V30 1753 H 164.672 -1.88186 -0.507165 0
M  V30 1754 H 163.768 -2.45934 -1.92154 0
M  V30 1755 N 164.069 0.697108 -1.41344 0
M  V30 1756 C 165.294 1.49096 -1.44171 0
M  V30 1757 C 165.719 1.88038 -0.0481568 0
M  V30 1758 O 165.077 1.54525 0.948243 0
M  V30 1759 C 165.125 2.73088 -2.3549 0
M  V30 1760 O 164.229 3.70514 -1.81088 0
M  V30 1761 H 163.57 0.448801 -0.489361 0
M  V30 1762 H 166.1 0.856992 -1.85787 0
M  V30 1763 H 166.11 3.21413 -2.51312 0
M  V30 1764 H 164.785 2.44081 -3.36745 0
M  V30 1765 H 163.362 3.29441 -1.74708 0
M  V30 1766 N 165.547 1.27147 0.931209 0
M  V30 1767 C 166.457 1.11372 2.06478 0
M  V30 1768 C 167.473 0.044645 1.73943 0
M  V30 1769 O 168.649 0.250417 1.99837 0
M  V30 1770 C 165.714 0.758838 3.38294 0
M  V30 1771 C 164.775 1.90841 3.84549 0
M  V30 1772 C 164.008 1.57036 5.10074 0
M  V30 1773 O 164.231 0.476645 5.68405 0
M  V30 1774 O 163.165 2.40839 5.51616 0
M  V30 1775 H 166.991 2.06493 2.22698 0
M  V30 1776 H 164.576 1.06301 1.04978 0
M  V30 1777 H 166.458 0.574098 4.17471 0
M  V30 1778 H 165.133 -0.162879 3.2329 0
M  V30 1779 H 164.04 2.14819 3.06274 0
M  V30 1780 H 165.373 2.81021 4.04089 0
M  V30 1781 N 167.025 -1.13721 1.09112 0
M  V30 1782 C 168.253 -1.88773 0.846899 0
M  V30 1783 C 168.668 -1.7896 -0.601572 0
M  V30 1784 O 168.025 -1.15394 -1.41388 0
M  V30 1785 C 168.076 -3.3849 1.26913 0
M  V30 1786 O 167.797 -3.48043 2.66079 0
M  V30 1787 C 169.298 -4.30518 1.05682 0
M  V30 1788 H 166.518 -0.59772 0.304914 0
M  V30 1789 H 169.062 -1.43977 1.45227 0
M  V30 1790 H 167.217 -3.80881 0.707723 0
M  V30 1791 H 167.631 -4.4109 2.83795 0
M  V30 1792 H 169.105 -5.3391 1.40156 0
M  V30 1793 H 169.582 -4.392 -0.00563416 0
M  V30 1794 H 170.188 -3.93893 1.60402 0
M  V30 1795 N 168.503 -0.877838 -1.30888 0
M  V30 1796 C 169.466 -0.344265 -2.266 0
M  V30 1797 C 170.466 0.50922 -1.52524 0
M  V30 1798 O 171.656 0.317398 -1.71284 0
M  V30 1799 C 168.788 0.510198 -3.37061 0
M  V30 1800 H 169.981 -1.1893 -2.7531 0
M  V30 1801 H 167.534 -0.654088 -1.41956 0
M  V30 1802 H 168.269 1.37612 -2.93655 0
M  V30 1803 H 168.054 -0.101047 -3.9197 0
M  V30 1804 H 169.544 0.875537 -4.08319 0
M  V30 1805 N 169.982 1.44106 -0.638065 0
M  V30 1806 C 171.398 1.56672 -0.304286 0
M  V30 1807 C 171.598 1.6244 1.19228 0
M  V30 1808 O 170.654 1.57121 1.9766 0
M  V30 1809 C 171.967 2.83503 -1.00231 0
M  V30 1810 C 173.515 2.97226 -0.981116 0
M  V30 1811 C 173.99 4.26868 -1.65974 0
M  V30 1812 N 175.481 4.33698 -1.62666 0
M  V30 1813 C 176.216 5.32745 -2.12063 0
M  V30 1814 N 175.712 6.38157 -2.6968 0
M  V30 1815 N 177.505 5.24299 -2.02651 0
M  V30 1816 H 169.656 1.38605 -1.60942 0
M  V30 1817 H 171.919 0.664661 -0.675965 0
M  V30 1818 H 171.625 2.85251 -2.0573 0
M  V30 1819 H 171.499 3.73251 -0.54439 0
M  V30 1820 H 173.886 2.95027 0.0654188 0
M  V30 1821 H 173.967 2.08808 -1.47759 0
M  V30 1822 H 173.611 4.29826 -2.70576 0
M  V30 1823 H 173.541 5.14156 -1.13804 0
M  V30 1824 H 176.032 3.58138 -1.20606 0
M  V30 1825 H 176.345 7.10029 -3.05087 0
M  V30 1826 H 174.69 6.38823 -2.73734 0
M  V30 1827 H 177.881 4.4086 -1.57353 0
M  V30 1828 H 178.054 6.01334 -2.41457 0
M  V30 1829 N 171.46 0.379036 1.52974 0
M  V30 1830 C 172.737 -0.263479 1.93817 0
M  V30 1831 C 173.117 -1.65244 1.31368 0
M  V30 1832 O 172.465 -2.23448 0.477856 0
M  V30 1833 C 172.675 -0.300166 3.47707 0
M  V30 1834 C 174.023 -0.534061 4.21228 0
M  V30 1835 O 175.047 -0.38081 3.54159 0
M  V30 1836 O 173.906 -0.833501 5.40106 0
M  V30 1837 H 171 -0.161149 0.811147 0
M  V30 1838 H 173.546 0.432798 1.64088 0
M  V30 1839 H 172.318 0.673138 3.85467 0
M  V30 1840 H 171.941 -1.04179 3.83709 0
M  V30 1841 N 172.938 -1.57226 0.108567 0
M  V30 1842 C 174.187 -1.94008 -0.551703 0
M  V30 1843 C 174.5 -0.993442 -1.68494 0
M  V30 1844 O 175.706 -1.25551 -2.40726 0
M  V30 1845 C 174.162 -3.44763 -1.03279 0
M  V30 1846 C 173.77 -4.47943 0.0714193 0
M  V30 1847 C 175.514 -3.90483 -1.66503 0
M  V30 1848 C 173.421 -5.89865 -0.425779 0
M  V30 1849 H 172.351 -0.724206 -0.209863 0
M  V30 1850 H 175.002 -1.82547 0.186741 0
M  V30 1851 H 173.384 -3.51422 -1.82533 0
M  V30 1852 H 174.558 -4.52942 0.847365 0
M  V30 1853 H 172.873 -4.11913 0.609669 0
M  V30 1854 H 175.47 -4.93925 -2.04798 0
M  V30 1855 H 175.813 -3.29877 -2.53942 0
M  V30 1856 H 176.346 -3.86581 -0.938074 0
M  V30 1857 H 173.085 -6.54202 0.412316 0
M  V30 1858 H 172.605 -5.88309 -1.16843 0
M  V30 1859 H 174.284 -6.40844 -0.890397 0
M  V30 1860 N 174.416 0.165178 -1.56732 0
M  V30 1861 C 175.346 1.20651 -1.99914 0
M  V30 1862 C 176.327 1.45827 -0.875705 0
M  V30 1863 O 177.512 1.57057 -1.14223 0
M  V30 1864 C 174.642 2.54401 -2.36427 0
M  V30 1865 C 173.596 2.43782 -3.51787 0
M  V30 1866 C 172.922 3.82078 -3.7406 0
M  V30 1867 C 174.222 1.93732 -4.85041 0
M  V30 1868 H 175.916 0.847534 -2.87154 0
M  V30 1869 H 173.462 0.40625 -1.38151 0
M  V30 1870 H 175.415 3.27458 -2.65234 0
M  V30 1871 H 174.139 2.92098 -1.46103 0
M  V30 1872 H 172.798 1.73178 -3.23117 0
M  V30 1873 H 172.446 4.17179 -2.81017 0
M  V30 1874 H 172.146 3.7584 -4.51684 0
M  V30 1875 H 173.67 4.56712 -4.05274 0
M  V30 1876 H 175.084 2.56569 -5.12684 0
M  V30 1877 H 173.481 1.98428 -5.66345 0
M  V30 1878 H 174.551 0.891962 -4.76626 0
M  V30 1879 N 175.894 1.51508 0.433938 0
M  V30 1880 C 177.143 1.63578 1.18005 0
M  V30 1881 C 177.456 0.359514 1.92268 0
M  V30 1882 O 178.662 0.359632 2.69108 0
M  V30 1883 C 177.118 2.88901 2.14626 0
M  V30 1884 C 176.726 4.23544 1.45995 0
M  V30 1885 C 178.47 3.10328 2.89649 0
M  V30 1886 C 176.377 5.40014 2.4112 0
M  V30 1887 H 175.307 0.609277 0.444182 0
M  V30 1888 H 177.958 1.77978 0.446773 0
M  V30 1889 H 176.34 2.68142 2.91403 0
M  V30 1890 H 177.514 4.54696 0.747532 0
M  V30 1891 H 175.829 4.08021 0.831115 0
M  V30 1892 H 178.426 3.94518 3.60915 0
M  V30 1893 H 178.769 2.23544 3.51189 0
M  V30 1894 H 179.302 3.31443 2.19978 0
M  V30 1895 H 176.041 6.29068 1.84264 0
M  V30 1896 H 175.561 5.13233 3.10406 0
M  V30 1897 H 177.24 5.72099 3.02177 0
M  V30 1898 N 177.372 -0.689602 1.41712 0
M  V30 1899 C 178.62 -1.4468 1.4111 0
M  V30 1900 C 178.941 -1.94986 0.0232196 0
M  V30 1901 O 178.211 -1.72097 -0.935913 0
M  V30 1902 H 176.791 -0.536847 0.519427 0
M  V30 1903 H 179.453 -0.815825 1.77004 0
M  V30 1904 H 178.549 -2.30706 2.10193 0
M  V30 1905 N 178.85 -1.27639 -0.924453 0
M  V30 1906 C 180.075 -1.17101 -1.71179 0
M  V30 1907 C 180.5 0.268134 -1.86179 0
M  V30 1908 O 179.858 1.19415 -1.36418 0
M  V30 1909 C 179.906 -1.86313 -3.08739 0
M  V30 1910 O 179.01 -1.16331 -3.95652 0
M  V30 1911 H 178.351 -0.407091 -0.524569 0
M  V30 1912 H 180.881 -1.68767 -1.15666 0
M  V30 1913 H 180.891 -1.938 -3.59034 0
M  V30 1914 H 179.566 -2.91001 -2.97138 0
M  V30 1915 H 178.143 -1.16935 -3.54091 0
M  V30 1916 N 180.328 1.1314 -1.09713 0
M  V30 1917 C 181.574 1.84757 -0.836224 0
M  V30 1918 C 181.907 1.8347 0.636598 0
M  V30 1919 O 181.182 1.27491 1.46889 0
M  V30 1920 C 181.465 3.32782 -1.37578 0
M  V30 1921 C 181.318 3.42567 -2.91493 0
M  V30 1922 C 182.637 4.28307 -1.01198 0
M  V30 1923 H 179.756 0.67082 -0.305236 0
M  V30 1924 H 182.398 1.3278 -1.35903 0
M  V30 1925 H 180.548 3.77177 -0.931097 0
M  V30 1926 H 182.22 3.06862 -3.44432 0
M  V30 1927 H 180.463 2.83349 -3.28475 0
M  V30 1928 H 181.134 4.46674 -3.24324 0
M  V30 1929 H 183.61 3.91999 -1.39556 0
M  V30 1930 H 182.486 5.30307 -1.41653 0
M  V30 1931 H 182.747 4.42029 0.0794833 0
M  V30 1932 N 181.806 0.884767 1.30421 0
M  V30 1933 C 182.736 0.367574 2.30589 0
M  V30 1934 C 183.717 -0.549464 1.60981 0
M  V30 1935 O 184.902 -0.46336 1.88591 0
M  V30 1936 C 182.032 -0.418944 3.44764 0
M  V30 1937 C 180.986 0.406316 4.26067 0
M  V30 1938 C 180.312 -0.506793 5.32293 0
M  V30 1939 C 181.612 1.64832 4.95608 0
M  V30 1940 H 183.306 1.20462 2.74097 0
M  V30 1941 H 180.852 0.580695 1.31772 0
M  V30 1942 H 182.805 -0.791395 4.13902 0
M  V30 1943 H 181.529 -1.28964 3.0006 0
M  V30 1944 H 180.188 0.760903 3.58617 0
M  V30 1945 H 179.836 -1.37519 4.83836 0
M  V30 1946 H 179.536 0.0415828 5.87585 0
M  V30 1947 H 181.06 -0.875764 6.04287 0
M  V30 1948 H 182.474 1.34646 5.57264 0
M  V30 1949 H 180.871 2.13688 5.60765 0
M  V30 1950 H 181.941 2.39284 4.21748 0
M  V30 1951 N 183.284 -1.43765 0.645699 0
M  V30 1952 C 184.232 -2.32516 -0.0624849 0
M  V30 1953 C 185.226 -1.48183 -0.820855 0
M  V30 1954 O 186.432 -1.64439 -0.732106 0
M  V30 1955 H 182.807 -0.750989 -0.0389864 0
M  V30 1956 H 184.778 -2.89979 0.703892 0
M  V30 1957 C 183.527 -3.32389 -1.02044 0
M  V30 1958 H 182.85 -3.97301 -0.446312 0
M  V30 1959 H 184.29 -3.97138 -1.48517 0
M  V30 1960 C 182.749 -2.62416 -2.11281 0
M  V30 1961 O 183.279 -2.434 -3.19561 0
M  V30 1962 N 181.485 -2.21913 -1.87624 0
M  V30 1963 H 181.032 -2.37578 -0.995703 0
M  V30 1964 H 180.99 -1.75424 -2.6091 0
M  V30 1965 N 184.763 -0.387143 -1.52771 0
M  V30 1966 C 186.011 0.195349 -2.01154 0
M  V30 1967 C 186.332 1.475 -1.27549 0
M  V30 1968 O 185.602 1.91878 -0.394924 0
M  V30 1969 H 184.182 0.075178 -0.743207 0
M  V30 1970 H 186.844 -0.518337 -1.87881 0
M  V30 1971 H 185.94 0.407096 -3.09434 0
M  V30 1972 N 186.241 1.57166 -0.116904 0
M  V30 1973 C 187.151 2.18745 0.847812 0
M  V30 1974 C 188.167 1.163 1.29423 0
M  V30 1975 O 189.343 1.48761 1.35765 0
M  V30 1976 C 186.408 2.77307 2.0809 0
M  V30 1977 C 185.469 3.94781 1.68661 0
M  V30 1978 C 184.702 4.50541 2.86091 0
M  V30 1979 O 184.925 4.05202 4.01456 0
M  V30 1980 O 183.859 5.41256 2.63298 0
M  V30 1981 H 187.685 3.01632 0.353778 0
M  V30 1982 H 185.27 1.49005 0.108599 0
M  V30 1983 H 187.152 3.14647 2.80313 0
M  V30 1984 H 185.827 1.97452 2.56504 0
M  V30 1985 H 184.734 3.62214 0.935518 0
M  V30 1986 H 186.067 4.76065 1.24991 0
M  V30 1987 N 187.719 -0.156864 1.56817 0
M  V30 1988 C 188.682 -1.17781 1.96622 0
M  V30 1989 C 189.682 -1.36401 0.851555 0
M  V30 1990 O 190.872 -1.33561 1.11836 0
M  V30 1991 C 188.004 -2.54008 2.27361 0
M  V30 1992 H 189.197 -0.836564 2.87996 0
M  V30 1993 H 186.75 -0.39985 1.51099 0
M  V30 1994 H 187.485 -2.9312 1.38748 0
M  V30 1995 H 187.27 -2.41856 3.08623 0
M  V30 1996 H 188.76 -3.27558 2.59029 0
M  V30 1997 N 189.197 -1.51736 -0.425897 0
M  V30 1998 C 190.443 -1.65214 -1.1761 0
M  V30 1999 C 190.776 -0.372778 -1.90589 0
M  V30 2000 O 190.051 0.628139 -1.84078 0
M  V30 2001 C 190.334 -2.86312 -2.18398 0
M  V30 2002 C 190.187 -4.24254 -1.49426 0
M  V30 2003 C 191.506 -3.02925 -3.19256 0
M  V30 2004 H 188.625 -0.601263 -0.426206 0
M  V30 2005 H 191.267 -1.8425 -0.463882 0
M  V30 2006 H 189.417 -2.70213 -2.79137 0
M  V30 2007 H 191.089 -4.52046 -0.919362 0
M  V30 2008 H 189.332 -4.26426 -0.796432 0
M  V30 2009 H 190.003 -5.05001 -2.22885 0
M  V30 2010 H 192.479 -3.1781 -2.68581 0
M  V30 2011 H 191.355 -3.89199 -3.8706 0
M  V30 2012 H 191.616 -2.15497 -3.86023 0
M  V30 2013 N 190.675 0.682077 -1.42076 0
M  V30 2014 C 191.638 1.77756 -1.44691 0
M  V30 2015 C 192.638 1.5726 -0.335535 0
M  V30 2016 O 193.828 1.63686 -0.596037 0
M  V30 2017 C 190.96 3.16301 -1.27146 0
M  V30 2018 H 192.153 1.76826 -2.42224 0
M  V30 2019 H 189.706 0.891012 -1.28416 0
M  V30 2020 H 190.441 3.22862 -0.305075 0
M  V30 2021 H 190.226 3.32581 -2.07683 0
M  V30 2022 H 191.716 3.96241 -1.31843 0
M  V30 2023 N 192.153 1.28127 0.917671 0
M  V30 2024 C 193.063 1.13556 2.05286 0
M  V30 2025 C 194.079 0.0630914 1.73886 0
M  V30 2026 O 195.255 0.271598 1.9956 0
M  V30 2027 C 192.32 0.794676 3.3747 0
M  V30 2028 C 191.381 1.94909 3.82504 0
M  V30 2029 C 190.614 1.62437 5.0838 0
M  V30 2030 O 190.837 0.536905 5.67867 0
M  V30 2031 O 189.771 2.46677 5.4903 0
M  V30 2032 H 193.597 2.08844 2.20495 0
M  V30 2033 H 191.182 1.07409 1.03845 0
M  V30 2034 H 193.064 0.618344 4.16839 0
M  V30 2035 H 191.739 -0.128581 3.23445 0
M  V30 2036 H 190.646 2.18055 3.03978 0
M  V30 2037 H 191.979 2.85291 4.01086 0
M  V30 2038 N 193.631 -1.12557 1.10312 0
M  V30 2039 C 194.578 -2.18247 0.750781 0
M  V30 2040 C 195.548 -1.63853 -0.272293 0
M  V30 2041 O 196.733 -1.90195 -0.151862 0
M  V30 2042 C 193.873 -3.44591 0.187379 0
M  V30 2043 C 192.986 -4.13046 1.2656 0
M  V30 2044 C 192.121 -5.27034 0.663978 0
M  V30 2045 C 191.16 -5.87353 1.72287 0
M  V30 2046 N 190.297 -6.92757 1.1416 0
M  V30 2047 H 195.137 -2.47732 1.65628 0
M  V30 2048 H 192.674 -1.21629 0.827337 0
M  V30 2049 H 194.632 -4.16904 -0.157148 0
M  V30 2050 H 193.262 -3.15527 -0.681355 0
M  V30 2051 H 192.314 -3.38924 1.72727 0
M  V30 2052 H 193.626 -4.53947 2.06721 0
M  V30 2053 H 192.78 -6.06104 0.268824 0
M  V30 2054 H 191.519 -4.87407 -0.169082 0
M  V30 2055 H 190.524 -5.06971 2.12746 0
M  V30 2056 H 191.749 -6.29051 2.55875 0
M  V30 2057 H 189.695 -6.5517 0.329984 0
M  V30 2058 H 189.612 -7.3225 1.88007 0
M  V30 2059 H 190.88 -7.75658 0.772956 0
M  V30 2060 N 195.109 -0.891671 -1.2995 0
M  V30 2061 C 196.358 -0.509521 -1.95158 0
M  V30 2062 C 196.671 0.947388 -1.71125 0
M  V30 2063 O 197.877 1.43669 -2.30372 0
M  V30 2064 C 196.333 -0.860315 -3.49466 0
M  V30 2065 C 195.941 -2.33545 -3.8231 0
M  V30 2066 C 197.685 -0.547687 -4.20952 0
M  V30 2067 C 195.592 -2.62752 -5.29826 0
M  V30 2068 H 194.522 -0.18682 -0.730489 0
M  V30 2069 H 197.173 -1.08756 -1.47798 0
M  V30 2070 H 195.555 -0.211285 -3.95436 0
M  V30 2071 H 196.729 -3.02936 -3.47227 0
M  V30 2072 H 195.044 -2.61629 -3.23944 0
M  V30 2073 H 197.641 -0.742854 -5.29515 0
M  V30 2074 H 197.984 0.51332 -4.13123 0
M  V30 2075 H 198.517 -1.1542 -3.80688 0
M  V30 2076 H 195.256 -3.6762 -5.42712 0
M  V30 2077 H 194.776 -1.97977 -5.66185 0
M  V30 2078 H 196.455 -2.48601 -5.97333 0
M  V30 2079 N 196.587 1.43421 -0.653314 0
M  V30 2080 C 197.833 2.02111 -0.166992 0
M  V30 2081 C 198.166 1.51423 1.21592 0
M  V30 2082 O 197.441 0.707389 1.8118 0
M  V30 2083 C 197.724 3.5966 -0.177948 0
M  V30 2084 C 197.577 4.20579 -1.59478 0
M  V30 2085 C 198.896 4.37413 0.4856 0
M  V30 2086 H 196.015 0.734374 -0.0621557 0
M  V30 2087 H 198.657 1.70717 -0.834016 0
M  V30 2088 H 196.807 3.86537 0.390032 0
M  V30 2089 H 198.479 4.04732 -2.21336 0
M  V30 2090 H 196.722 3.77226 -2.14204 0
M  V30 2091 H 197.393 5.29665 -1.5543 0
M  V30 2092 H 199.869 4.161 0.00234528 0
M  V30 2093 H 198.745 5.47075 0.447207 0
M  V30 2094 H 199.006 4.13672 1.55974 0
M  V30 2095 N 198.065 0.39524 1.52563 0
M  V30 2096 C 198.975 -0.444232 2.30356 0
M  V30 2097 C 199.991 -1.06615 1.37511 0
M  V30 2098 O 201.167 -1.07067 1.70583 0
M  V30 2099 C 198.232 -1.55315 3.09964 0
M  V30 2100 C 197.293 -0.955734 4.18526 0
M  V30 2101 C 196.526 -2.01181 4.9433 0
M  V30 2102 O 196.749 -3.22781 4.70285 0
M  V30 2103 O 195.683 -1.62579 5.79527 0
M  V30 2104 H 199.509 0.189667 3.03107 0
M  V30 2105 H 197.094 0.1588 1.48554 0
M  V30 2106 H 198.976 -2.19724 3.59582 0
M  V30 2107 H 197.651 -2.17191 2.4002 0
M  V30 2108 H 196.558 -0.274743 3.7309 0
M  V30 2109 H 197.891 -0.381109 4.90722 0
M  V30 2110 N 199.544 -1.57102 0.125237 0
M  V30 2111 C 200.474 -2.18659 -0.819174 0
M  V30 2112 C 201.455 -1.12843 -1.27281 0
M  V30 2113 O 202.64 -1.41104 -1.33429 0
M  V30 2114 C 199.77 -2.79096 -2.06695 0
M  V30 2115 C 198.724 -3.90548 -1.75088 0
M  V30 2116 C 198.05 -4.37821 -3.06948 0
M  V30 2117 C 199.35 -5.12356 -1.01435 0
M  V30 2118 H 201.044 -2.9783 -0.306202 0
M  V30 2119 H 198.59 -1.4326 -0.145839 0
M  V30 2120 H 200.543 -3.2082 -2.73226 0
M  V30 2121 H 199.267 -1.97223 -2.60328 0
M  V30 2122 H 197.926 -3.49409 -1.10944 0
M  V30 2123 H 197.574 -3.52799 -3.58527 0
M  V30 2124 H 197.274 -5.12982 -2.86571 0
M  V30 2125 H 198.798 -4.822 -3.74587 0
M  V30 2126 H 200.212 -5.5106 -1.58132 0
M  V30 2127 H 198.609 -5.9314 -0.911319 0
M  V30 2128 H 199.679 -4.849 -0.00218681 0
M  V30 2129 N 201.022 0.148545 -1.56898 0
M  V30 2130 C 201.97 1.20265 -1.99096 0
M  V30 2131 C 202.964 1.44559 -0.883123 0
M  V30 2132 O 204.17 1.4487 -1.0683 0
M  V30 2133 H 200.545 0.404786 -0.63376 0
M  V30 2134 H 202.516 0.82004 -2.86911 0
M  V30 2135 C 201.265 2.52886 -2.3863 0
M  V30 2136 H 200.588 2.35021 -3.23427 0
M  V30 2137 H 202.028 3.25274 -2.7198 0
M  V30 2138 C 200.487 3.13315 -1.23837 0
M  V30 2139 O 201.017 3.98077 -0.538268 0
M  V30 2140 N 199.223 2.72742 -1.00301 0
M  V30 2141 H 198.77 2.03912 -1.5741 0
M  V30 2142 H 198.728 3.13507 -0.236838 0
M  V30 2143 N 202.5 1.5196 0.417844 0
M  V30 2144 C 203.448 1.75278 1.52907 0
M  V30 2145 C 204.442 0.619611 1.57662 0
M  V30 2146 O 205.648 0.801457 1.61173 0
M  V30 2147 H 202.023 0.554141 0.508362 0
M  V30 2148 H 203.994 2.68389 1.30422 0
M  V30 2149 C 202.743 1.91262 2.90369 0
M  V30 2150 H 202.066 2.77872 2.8745 0
M  V30 2151 H 203.506 2.11581 3.67436 0
M  V30 2152 C 201.965 0.677431 3.30019 0
M  V30 2153 O 202.495 -0.158799 4.01386 0
M  V30 2154 N 200.701 0.515851 2.85985 0
M  V30 2155 H 200.248 1.19744 2.28077 0
M  V30 2156 H 200.206 -0.309315 3.12875 0
M  V30 2157 N 203.978 -0.674533 1.42435 0
M  V30 2158 C 205.255 -1.4305 1.33402 0
M  V30 2159 C 205.635 -2.11081 -0.0284674 0
M  V30 2160 O 204.983 -2.03257 -1.04397 0
M  V30 2161 C 205.193 -2.43272 2.50239 0
M  V30 2162 C 206.541 -3.07907 2.92367 0
M  V30 2163 O 207.565 -2.53599 2.50132 0
M  V30 2164 O 206.424 -4.0632 3.65467 0
M  V30 2165 H 203.518 -0.638076 0.526106 0
M  V30 2166 H 206.064 -0.703235 1.54443 0
M  V30 2167 H 204.836 -1.91803 3.41068 0
M  V30 2168 H 204.459 -3.23479 2.31186 0
M  V30 2169 N 205.456 -1.28612 -0.910864 0
M  V30 2170 C 206.702 -1.16106 -1.66274 0
M  V30 2171 C 207.035 0.289113 -1.92036 0
M  V30 2172 O 206.31 1.21 -1.52281 0
M  V30 2173 C 206.593 -1.96309 -3.01885 0
M  V30 2174 C 206.446 -3.49405 -2.8326 0
M  V30 2175 C 207.765 -1.78076 -4.02463 0
M  V30 2176 H 204.884 -0.423152 -0.603417 0
M  V30 2177 H 207.526 -1.57961 -1.05586 0
M  V30 2178 H 205.676 -1.60742 -3.53687 0
M  V30 2179 H 207.348 -3.94894 -2.38446 0
M  V30 2180 H 205.591 -3.74893 -2.18261 0
M  V30 2181 H 206.262 -4.00784 -3.79574 0
M  V30 2182 H 208.738 -2.0912 -3.59733 0
M  V30 2183 H 207.614 -2.36561 -4.95308 0
M  V30 2184 H 207.875 -0.733008 -4.35981 0
M  V30 2185 N 206.934 1.1197 -1.10907 0
M  V30 2186 C 208.18 1.8386 -0.855773 0
M  V30 2187 C 208.513 1.84134 0.617103 0
M  V30 2188 O 207.788 1.29041 1.45529 0
M  V30 2189 C 208.071 3.31305 -1.411 0
M  V30 2190 C 207.924 3.39456 -2.9511 0
M  V30 2191 C 209.243 4.2721 -1.05736 0
M  V30 2192 H 206.362 0.667545 -0.312334 0
M  V30 2193 H 209.004 1.31331 -1.37303 0
M  V30 2194 H 207.154 3.76169 -0.97105 0
M  V30 2195 H 208.826 3.03191 -3.47668 0
M  V30 2196 H 207.069 2.79849 -3.31462 0
M  V30 2197 H 207.74 4.43209 -3.29044 0
M  V30 2198 H 210.216 3.90497 -1.43706 0
M  V30 2199 H 209.092 5.28775 -1.47269 0
M  V30 2200 H 209.353 4.42088 0.0325958 0
M  V30 2201 N 208.412 0.89855 1.29475 0
M  V30 2202 C 209.661 0.519863 1.94885 0
M  V30 2203 C 209.974 -0.9383 1.71625 0
M  V30 2204 O 211.18 -1.42445 2.31131 0
M  V30 2205 C 209.636 0.878836 3.49005 0
M  V30 2206 C 209.244 2.35569 3.81066 0
M  V30 2207 C 210.988 0.570004 4.20656 0
M  V30 2208 C 208.895 2.65558 5.28425 0
M  V30 2209 H 207.825 0.190692 0.729488 0
M  V30 2210 H 210.476 1.09539 1.47219 0
M  V30 2211 H 208.858 0.232253 3.95318 0
M  V30 2212 H 210.032 3.04773 3.45616 0
M  V30 2213 H 208.347 2.63343 3.22552 0
M  V30 2214 H 210.944 0.770925 5.29113 0
M  V30 2215 H 211.287 -0.491404 4.1339 0
M  V30 2216 H 211.82 1.17438 3.8007 0
M  V30 2217 H 208.559 3.70493 5.40754 0
M  V30 2218 H 208.079 2.00977 5.65127 0
M  V30 2219 H 209.758 2.51765 5.96006 0
M  V30 2220 N 209.89 -1.43072 0.660911 0
M  V30 2221 C 211.136 -2.0202 0.177708 0
M  V30 2222 C 211.469 -1.52066 -1.20787 0
M  V30 2223 O 210.744 -0.716987 -1.80802 0
M  V30 2224 C 211.027 -3.59561 0.197019 0
M  V30 2225 C 210.88 -4.19727 1.61706 0
M  V30 2226 C 212.199 -4.37664 -0.462396 0
M  V30 2227 H 209.318 -0.734034 0.0660494 0
M  V30 2228 H 211.96 -1.70272 0.843058 0
M  V30 2229 H 210.11 -3.86739 -0.369527 0
M  V30 2230 H 211.782 -4.03553 2.23479 0
M  V30 2231 H 210.025 -3.76084 2.16201 0
M  V30 2232 H 210.696 -5.28834 1.58237 0
M  V30 2233 H 213.172 -4.16095 0.0197215 0
M  V30 2234 H 212.048 -5.47305 -0.418188 0
M  V30 2235 H 212.309 -4.14493 -1.53778 0
M  V30 2236 N 211.368 -0.403325 -1.52352 0
M  V30 2237 C 212.316 0.439752 -2.28405 0
M  V30 2238 C 213.31 1.05089 -1.32863 0
M  V30 2239 O 214.516 0.989759 -1.50345 0
M  V30 2240 H 210.891 0.160587 -0.734653 0
M  V30 2241 H 212.862 -0.222983 -2.97566 0
M  V30 2242 C 211.611 1.54736 -3.11371 0
M  V30 2243 H 210.934 1.08643 -3.84755 0
M  V30 2244 H 212.374 2.1112 -3.67701 0
M  V30 2245 C 210.833 2.51141 -2.24566 0
M  V30 2246 O 211.363 3.54887 -1.88196 0
M  V30 2247 N 209.569 2.21213 -1.8845 0
M  V30 2248 H 209.116 1.36878 -2.18225 0
M  V30 2249 H 209.074 2.85963 -1.30662 0
M  V30 2250 N 212.846 1.57033 -0.133567 0
M  V30 2251 C 213.809 2.14897 0.796995 0
M  V30 2252 C 214.809 1.0874 1.18458 0
M  V30 2253 O 215.999 1.34446 1.1077 0
M  V30 2254 C 213.131 2.70112 2.07973 0
M  V30 2255 H 214.324 2.98457 0.293873 0
M  V30 2256 H 211.877 1.55871 0.115787 0
M  V30 2257 H 212.612 1.9018 2.62682 0
M  V30 2258 H 212.397 3.47764 1.81115 0
M  V30 2259 H 213.887 3.14738 2.74462 0
M  V30 2260 N 214.325 -0.140222 1.56975 0
M  V30 2261 C 215.573 -0.850005 1.83356 0
M  V30 2262 C 215.894 -1.81399 0.71551 0
M  V30 2263 O 215.164 -1.94136 -0.262294 0
M  V30 2264 H 213.744 -0.316886 0.676456 0
M  V30 2265 H 216.406 -0.132608 1.94448 0
M  V30 2266 H 215.502 -1.40814 2.78528 0
M  V30 2267 N 215.803 -1.52179 -0.40978 0
M  V30 2268 C 217.031 -1.70054 -1.17853 0
M  V30 2269 C 217.446 -0.409735 -1.843 0
M  V30 2270 O 216.803 0.614183 -1.71855 0
M  V30 2271 C 216.854 -2.83568 -2.24213 0
M  V30 2272 O 216.575 -4.0765 -1.60478 0
M  V30 2273 C 218.076 -3.12947 -3.13973 0
M  V30 2274 H 215.296 -0.569917 -0.354169 0
M  V30 2275 H 217.84 -1.98734 -0.482198 0
M  V30 2276 H 215.995 -2.57409 -2.89516 0
M  V30 2277 H 216.409 -4.70899 -2.30986 0
M  V30 2278 H 217.883 -3.95889 -3.84677 0
M  V30 2279 H 218.36 -2.26472 -3.76307 0
M  V30 2280 H 218.966 -3.40868 -2.5434 0
M  V30 2281 N 217.281 0.66697 -1.42791 0
M  V30 2282 C 218.511 1.45294 -1.46878 0
M  V30 2283 C 218.919 1.89027 -0.0809861 0
M  V30 2284 O 218.262 1.59219 0.916246 0
M  V30 2285 C 218.324 2.72908 -2.34012 0
M  V30 2286 C 217.988 2.51203 -3.81767 0
M  V30 2287 C 218.985 2.15302 -4.73224 0
M  V30 2288 C 216.67 2.65954 -4.26115 0
M  V30 2289 C 218.664 1.94431 -6.07022 0
M  V30 2290 C 216.351 2.44699 -5.59969 0
M  V30 2291 C 217.349 2.08992 -6.5024 0
M  V30 2292 O 217.037 1.87948 -7.81621 0
M  V30 2293 H 216.769 0.453306 -0.501487 0
M  V30 2294 H 219.323 0.826232 -1.88049 0
M  V30 2295 H 217.553 3.38089 -1.87703 0
M  V30 2296 H 219.242 3.34816 -2.29462 0
M  V30 2297 H 220.008 2.03495 -4.40244 0
M  V30 2298 H 215.887 2.92724 -3.56137 0
M  V30 2299 H 219.431 1.66484 -6.77443 0
M  V30 2300 H 215.328 2.56105 -5.9252 0
M  V30 2301 H 216.096 2.02483 -7.93059 0
M  V30 2302 N 218.759 1.29093 0.90403 0
M  V30 2303 C 220.007 1.16583 1.65085 0
M  V30 2304 C 220.328 -0.283933 1.92922 0
M  V30 2305 O 219.598 -1.19509 1.55224 0
M  V30 2306 H 218.178 0.428467 0.611903 0
M  V30 2307 H 220.84 1.61959 1.08422 0
M  V30 2308 H 219.936 1.71266 2.6091 0
M  V30 2309 N 220.237 -1.11381 1.11499 0
M  V30 2310 C 221.147 -2.21019 0.786628 0
M  V30 2311 C 222.163 -1.72597 -0.220507 0
M  V30 2312 O 223.339 -2.01321 -0.0565251 0
M  V30 2313 C 220.404 -3.459 0.235333 0
M  V30 2314 C 219.465 -4.09107 1.30115 0
M  V30 2315 C 218.698 -5.28027 0.776068 0
M  V30 2316 O 218.921 -5.6904 -0.393661 0
M  V30 2317 O 217.855 -5.81835 1.54114 0
M  V30 2318 H 221.681 -2.51521 1.70209 0
M  V30 2319 H 219.266 -1.19928 0.890928 0
M  V30 2320 H 221.148 -4.21346 -0.067715 0
M  V30 2321 H 219.823 -3.17049 -0.652828 0
M  V30 2322 H 218.73 -3.35391 1.65722 0
M  V30 2323 H 220.063 -4.42139 2.16273 0
M  V30 2324 N 221.715 -0.905404 -1.28997 0
M  V30 2325 C 222.962 -0.534248 -1.95325 0
M  V30 2326 C 223.29 0.920535 -1.71337 0
M  V30 2327 O 222.545 1.66861 -1.02254 0
M  V30 2328 C 222.844 -0.779906 -3.48787 0
M  V30 2329 C 222.51 -2.21293 -3.92861 0
M  V30 2330 C 221.172 -2.60475 -4.04606 0
M  V30 2331 C 223.524 -3.14587 -4.15553 0
M  V30 2332 C 220.852 -3.9212 -4.36416 0
M  V30 2333 C 223.204 -4.45787 -4.48839 0
M  V30 2334 C 221.868 -4.84834 -4.58794 0
M  V30 2335 H 221.138 -0.195495 -0.714747 0
M  V30 2336 H 223.785 -1.14514 -1.53488 0
M  V30 2337 H 222.09 -0.0861365 -3.91705 0
M  V30 2338 H 223.787 -0.472029 -3.98212 0
M  V30 2339 H 220.377 -1.89887 -3.84241 0
M  V30 2340 H 224.561 -2.85528 -4.0594 0
M  V30 2341 H 219.817 -4.22086 -4.42327 0
M  V30 2342 H 223.991 -5.18098 -4.65346 0
M  V30 2343 H 221.618 -5.86877 -4.83197 0
M  V30 2344 N 223.193 1.4272 -0.668489 0
M  V30 2345 C 224.418 2.06484 -0.194758 0
M  V30 2346 C 224.843 1.49862 1.13679 0
M  V30 2347 O 224.201 0.614582 1.70565 0
M  V30 2348 C 224.249 3.60353 -0.133546 0
M  V30 2349 O 223.353 4.02464 0.899806 0
M  V30 2350 H 222.694 0.656137 -0.10188 0
M  V30 2351 H 225.224 1.82964 -0.915722 0
M  V30 2352 H 225.234 4.07976 0.0447041 0
M  V30 2353 H 223.909 4.00938 -1.1055 0
M  V30 2354 H 222.486 3.66402 0.693109 0
M  V30 2355 N 224.671 0.411399 1.52136 0
M  V30 2356 C 225.92 -0.165009 2.01024 0
M  V30 2357 C 226.233 -1.4603 1.30133 0
M  V30 2358 O 227.439 -2.1181 1.69849 0
M  V30 2359 C 225.895 -0.344618 3.58246 0
M  V30 2360 C 225.503 0.938716 4.38055 0
M  V30 2361 C 227.247 -0.876195 4.15359 0
M  V30 2362 C 225.154 0.726172 5.86925 0
M  V30 2363 H 224.084 -0.0654407 0.751155 0
M  V30 2364 H 226.735 0.537192 1.75461 0
M  V30 2365 H 225.117 -1.10921 3.80148 0
M  V30 2366 H 226.291 1.70963 4.27912 0
M  V30 2367 H 224.606 1.39688 3.92271 0
M  V30 2368 H 227.203 -1.05128 5.24263 0
M  V30 2369 H 227.546 -1.85152 3.7286 0
M  V30 2370 H 228.079 -0.170607 3.97434 0
M  V30 2371 H 224.818 1.67312 6.33788 0
M  V30 2372 H 224.338 -0.00540283 5.998 0
M  V30 2373 H 226.017 0.369231 6.45946 0
M  V30 2374 N 226.149 -1.5696 0.141893 0
M  V30 2375 C 227.426 -1.87553 -0.555281 0
M  V30 2376 C 227.806 -1.04699 -1.83306 0
M  V30 2377 O 227.154 -0.132346 -2.28116 0
M  V30 2378 C 227.364 -3.39093 -0.825664 0
M  V30 2379 C 228.712 -4.08199 -1.16869 0
M  V30 2380 O 229.736 -3.44242 -0.915185 0
M  V30 2381 O 228.595 -5.21139 -1.6455 0
M  V30 2382 H 225.689 -0.777188 -0.282679 0
M  V30 2383 H 228.235 -1.68763 0.17812 0
M  V30 2384 H 227.007 -3.91221 0.0788633 0
M  V30 2385 H 226.63 -3.63393 -1.61343 0
M  V30 2386 N 227.627 0.131896 -1.57047 0
M  V30 2387 C 228.904 0.871495 -1.75112 0
M  V30 2388 C 229.284 1.9866 -0.713949 0
M  V30 2389 O 228.632 2.26965 0.264447 0
M  V30 2390 C 228.842 1.40007 -3.19686 0
M  V30 2391 C 230.19 1.85752 -3.81813 0
M  V30 2392 O 231.214 1.49715 -3.23209 0
M  V30 2393 O 230.073 2.5226 -4.84796 0
M  V30 2394 H 227.167 0.412919 -0.716538 0
M  V30 2395 H 229.713 0.116641 -1.69299 0
M  V30 2396 H 228.485 0.599404 -3.86682 0
M  V30 2397 H 228.108 2.218 -3.29986 0
M  V30 2398 N 229.106 1.52395 0.401703 0
M  V30 2399 C 230.353 1.66817 1.14796 0
M  V30 2400 C 230.681 0.401772 1.90305 0
M  V30 2401 O 229.936 -0.615487 1.85769 0
M  V30 2402 C 230.235 2.84578 2.16217 0
M  V30 2403 C 229.901 4.22513 1.5746 0
M  V30 2404 C 228.563 4.60029 1.41161 0
M  V30 2405 C 230.915 5.0844 1.14622 0
M  V30 2406 C 228.243 5.81144 0.80552 0
M  V30 2407 C 230.595 6.30167 0.55428 0
M  V30 2408 C 229.259 6.66426 0.378482 0
M  V30 2409 H 228.529 0.610428 0.420069 0
M  V30 2410 H 231.176 1.86512 0.434212 0
M  V30 2411 H 229.481 2.59248 2.93764 0
M  V30 2412 H 231.178 2.92933 2.73845 0
M  V30 2413 H 227.768 3.92953 1.71132 0
M  V30 2414 H 231.952 4.80034 1.26021 0
M  V30 2415 H 227.208 6.07855 0.657399 0
M  V30 2416 H 231.382 6.96071 0.213983 0
M  V30 2417 H 229.009 7.60143 -0.0932606 0
M  V30 2418 N 230.584 -0.659388 1.43143 0
M  V30 2419 C 231.833 -1.41518 1.43721 0
M  V30 2420 C 232.146 -1.95499 0.0628176 0
M  V30 2421 O 233.352 -2.71446 -0.0539683 0
M  V30 2422 C 231.808 -2.5608 2.52885 0
M  V30 2423 C 231.416 -2.08733 3.96402 0
M  V30 2424 C 233.16 -3.3349 2.62649 0
M  V30 2425 C 231.067 -3.20469 4.97045 0
M  V30 2426 H 229.997 -0.531705 0.534608 0
M  V30 2427 H 232.648 -0.712343 1.69109 0
M  V30 2428 H 231.03 -3.28805 2.20688 0
M  V30 2429 H 232.204 -1.43059 4.3803 0
M  V30 2430 H 230.519 -1.44219 3.90627 0
M  V30 2431 H 233.116 -4.16734 3.35017 0
M  V30 2432 H 233.459 -3.8111 1.67513 0
M  V30 2433 H 233.992 -2.67842 2.94118 0
M  V30 2434 H 230.731 -2.77824 5.93712 0
M  V30 2435 H 230.251 -3.84874 4.60034 0
M  V30 2436 H 231.93 -3.85698 5.19467 0
M  V30 2437 N 232.062 -1.29571 -0.897171 0
M  V30 2438 C 233.302 -1.18959 -1.66217 0
M  V30 2439 C 233.666 0.254271 -1.90309 0
M  V30 2440 O 234.867 0.483407 -2.64417 0
M  V30 2441 C 233.138 -1.98302 -2.9734 0
M  V30 2442 S 234.697 -2.04253 -3.88364 0
M  V30 2443 H 231.515 -0.424137 -0.570639 0
M  V30 2444 H 234.117 -1.6389 -1.06585 0
M  V30 2445 H 232.821 -3.02342 -2.77521 0
M  V30 2446 H 232.352 -1.53986 -3.62011 0
M  V30 2447 H 234.367 -1.16105 -4.82425 0
M  V30 2448 N 233.54 1.10788 -1.12088 0
M  V30 2449 C 234.765 1.87002 -0.896949 0
M  V30 2450 C 235.19 1.79933 0.548261 0
M  V30 2451 O 234.548 1.16662 1.38779 0
M  V30 2452 C 234.596 3.3349 -1.37174 0
M  V30 2453 O 233.7 4.08745 -0.547831 0
M  V30 2454 H 233.041 0.580397 -0.322545 0
M  V30 2455 H 235.571 1.39996 -1.49206 0
M  V30 2456 H 235.581 3.84339 -1.36922 0
M  V30 2457 H 234.256 3.37951 -2.42408 0
M  V30 2458 H 232.833 3.6776 -0.617034 0
M  V30 2459 N 235.018 0.912232 1.28515 0
M  V30 2460 C 236.266 0.543523 1.94654 0
M  V30 2461 C 236.587 -0.9155 1.72173 0
M  V30 2462 O 235.857 -1.64708 1.06058 0
M  V30 2463 H 234.437 0.198017 0.720277 0
M  V30 2464 H 237.099 1.16126 1.56527 0
M  V30 2465 H 236.195 0.736684 3.03281 0
M  V30 2466 N 236.496 -1.42363 0.676048 0
M  V30 2467 C 237.726 -2.05561 0.206967 0
M  V30 2468 C 238.134 -1.50887 -1.14148 0
M  V30 2469 O 237.477 -0.643933 -1.72044 0
M  V30 2470 C 237.539 -3.5944 0.0659508 0
M  V30 2471 C 237.203 -4.36812 1.34331 0
M  V30 2472 C 238.2 -4.67383 2.27704 0
M  V30 2473 C 235.885 -4.76429 1.59125 0
M  V30 2474 C 237.879 -5.36509 3.44147 0
M  V30 2475 C 235.566 -5.45294 2.75857 0
M  V30 2476 C 236.564 -5.75259 3.68193 0
M  V30 2477 O 236.252 -6.42712 4.82883 0
M  V30 2478 H 235.984 -0.668872 0.0979084 0
M  V30 2479 H 238.538 -1.83467 0.923531 0
M  V30 2480 H 236.768 -3.80197 -0.706204 0
M  V30 2481 H 238.457 -4.0427 -0.363418 0
M  V30 2482 H 239.223 -4.37275 2.09799 0
M  V30 2483 H 235.102 -4.52498 0.881258 0
M  V30 2484 H 238.646 -5.59814 4.16238 0
M  V30 2485 H 234.543 -5.7482 2.93688 0
M  V30 2486 H 235.311 -6.61204 4.82444 0
M  V30 2487 N 237.974 -0.419461 -1.51915 0
M  V30 2488 C 239.223 0.154346 -2.01109 0
M  V30 2489 C 239.536 1.45338 -1.30905 0
M  V30 2490 O 240.742 2.10906 -1.7097 0
M  V30 2491 C 239.198 0.325615 -3.58424 0
M  V30 2492 C 238.806 -0.961934 -4.37551 0
M  V30 2493 C 240.55 0.854155 -4.15818 0
M  V30 2494 C 238.457 -0.757287 -5.86531 0
M  V30 2495 H 237.387 0.0614563 -0.751491 0
M  V30 2496 H 240.038 -0.54649 -1.75173 0
M  V30 2497 H 238.42 1.08903 -3.80731 0
M  V30 2498 H 239.594 -1.7323 -4.26999 0
M  V30 2499 H 237.909 -1.41766 -3.91524 0
M  V30 2500 H 240.506 1.02346 -5.24814 0
M  V30 2501 H 240.849 1.83172 -3.73837 0
M  V30 2502 H 241.382 0.149528 -3.97519 0
M  V30 2503 H 238.121 -1.70671 -6.32892 0
M  V30 2504 H 237.641 -0.0264061 -5.99794 0
M  V30 2505 H 239.32 -0.403482 -6.45741 0
M  V30 2506 N 239.452 1.56882 -0.150215 0
M  V30 2507 C 240.701 1.95403 0.500071 0
M  V30 2508 C 241.014 1.03777 1.658 0
M  V30 2509 O 242.22 1.31889 2.37313 0
M  V30 2510 C 240.676 3.4738 0.941018 0
M  V30 2511 C 240.284 4.47596 -0.190158 0
M  V30 2512 C 242.028 3.9476 1.56091 0
M  V30 2513 C 239.935 5.90787 0.269237 0
M  V30 2514 H 238.865 0.729515 0.190588 0
M  V30 2515 H 241.516 1.81988 -0.235074 0
M  V30 2516 H 239.898 3.56138 1.73152 0
M  V30 2517 H 241.072 4.50536 -0.967157 0
M  V30 2518 H 239.387 4.10151 -0.718666 0
M  V30 2519 H 241.984 4.99181 1.9163 0
M  V30 2520 H 242.327 3.36494 2.45107 0
M  V30 2521 H 242.86 3.88932 0.835249 0
M  V30 2522 H 239.599 6.52879 -0.585621 0
M  V30 2523 H 239.119 5.912 1.01204 0
M  V30 2524 H 240.798 6.42979 0.720176 0
M  V30 2525 N 240.93 -0.123565 1.57115 0
M  V30 2526 C 241.878 -1.17082 2.00984 0
M  V30 2527 C 242.872 -1.43136 0.906009 0
M  V30 2528 O 244.078 -1.43152 1.09121 0
M  V30 2529 H 240.453 -0.394653 0.64012 0
M  V30 2530 H 242.424 -0.774292 2.88179 0
M  V30 2531 C 241.173 -2.49057 2.42623 0
M  V30 2532 H 240.496 -2.29846 3.27125 0
M  V30 2533 H 241.936 -3.20906 2.7712 0
M  V30 2534 C 240.395 -3.11305 1.28805 0
M  V30 2535 O 240.925 -3.97171 0.60153 0
M  V30 2536 N 239.131 -2.71111 1.04628 0
M  V30 2537 H 238.678 -2.01382 1.60634 0
M  V30 2538 H 238.636 -3.1309 0.286685 0
M  V30 2539 N 242.408 -1.52605 -0.393616 0
M  V30 2540 C 243.648 -1.6911 -1.1481 0
M  V30 2541 C 244.012 -0.41969 -1.87357 0
M  V30 2542 O 245.213 -0.461034 -2.64817 0
M  V30 2543 C 243.484 -2.88909 -2.10395 0
M  V30 2544 S 245.043 -3.25977 -2.93742 0
M  V30 2545 H 241.861 -0.595337 -0.38871 0
M  V30 2546 H 244.463 -1.90641 -0.433178 0
M  V30 2547 H 243.167 -3.79672 -1.55812 0
M  V30 2548 H 242.698 -2.69698 -2.86403 0
M  V30 2549 H 244.713 -2.75806 -4.12487 0
M  V30 2550 N 243.887 0.651787 -1.4349 0
M  V30 2551 C 245.133 1.41376 -1.45398 0
M  V30 2552 C 245.466 1.94041 -0.0784823 0
M  V30 2553 O 244.741 1.72379 0.900878 0
M  V30 2554 C 245.024 2.59414 -2.49752 0
M  V30 2555 C 244.877 2.12232 -3.96582 0
M  V30 2556 C 246.196 3.61626 -2.50827 0
M  V30 2557 H 243.315 0.512719 -0.529422 0
M  V30 2558 H 245.957 0.738796 -1.75048 0
M  V30 2559 H 244.107 3.16997 -2.246 0
M  V30 2560 H 245.779 1.59639 -4.32797 0
M  V30 2561 H 244.022 1.43592 -4.09346 0
M  V30 2562 H 244.693 2.9712 -4.65214 0
M  V30 2563 H 247.169 3.13805 -2.7325 0
M  V30 2564 H 246.045 4.41766 -3.25783 0
M  V30 2565 H 246.306 4.14314 -1.5426 0
M  V30 2566 N 245.365 1.30045 0.890287 0
M  V30 2567 C 246.298 1.10301 1.99772 0
M  V30 2568 C 247.276 0.0121631 1.62595 0
M  V30 2569 O 248.46 0.16469 1.87779 0
M  V30 2570 C 245.587 0.681125 3.31781 0
M  V30 2571 C 244.633 1.77206 3.87944 0
M  V30 2572 S 245.466 3.37335 4.15891 0
M  V30 2573 C 246.622 2.97036 5.50927 0
M  V30 2574 H 246.855 2.04057 2.16213 0
M  V30 2575 H 244.388 1.14299 1.03804 0
M  V30 2576 H 246.346 0.444439 4.08087 0
M  V30 2577 H 245.007 -0.236981 3.13205 0
M  V30 2578 H 244.2 1.42903 4.83316 0
M  V30 2579 H 243.802 1.96275 3.18358 0
M  V30 2580 H 246.094 2.44666 6.31779 0
M  V30 2581 H 247.037 3.91296 5.90164 0
M  V30 2582 H 247.445 2.35057 5.13233 0
M  V30 2583 N 246.843 -1.10192 1.12674 0
M  V30 2584 C 248.12 -1.78717 0.794965 0
M  V30 2585 C 248.5 -1.98628 -0.714853 0
M  V30 2586 O 247.848 -1.58135 -1.64941 0
M  V30 2587 C 248.058 -3.11546 1.5729 0
M  V30 2588 C 249.406 -3.86382 1.76052 0
M  V30 2589 O 250.43 -3.21274 1.53823 0
M  V30 2590 O 249.289 -5.03246 2.13087 0
M  V30 2591 H 246.383 -0.774702 0.289423 0
M  V30 2592 H 248.929 -1.16819 1.23091 0
M  V30 2593 H 247.701 -2.92489 2.59935 0
M  V30 2594 H 247.324 -3.81164 1.13137 0
M  V30 2595 N 248.321 -0.919034 -1.28029 0
M  V30 2596 C 249.737 -0.617972 -1.4715 0
M  V30 2597 C 249.937 0.835242 -1.83374 0
M  V30 2598 O 248.993 1.61388 -1.94191 0
M  V30 2599 C 250.306 -1.56041 -2.57044 0
M  V30 2600 C 251.854 -1.56769 -2.7091 0
M  V30 2601 C 252.329 -2.49688 -3.83953 0
M  V30 2602 N 253.82 -2.47845 -3.91314 0
M  V30 2603 C 254.555 -3.16437 -4.78179 0
M  V30 2604 N 254.051 -3.94376 -5.69596 0
M  V30 2605 N 255.844 -3.05498 -4.71834 0
M  V30 2606 H 247.995 -1.85866 -1.02798 0
M  V30 2607 H 250.258 -0.797506 -0.512531 0
M  V30 2608 H 249.964 -2.59671 -2.372 0
M  V30 2609 H 249.838 -1.29551 -3.54255 0
M  V30 2610 H 252.225 -0.538745 -2.90141 0
M  V30 2611 H 252.306 -1.87305 -1.74214 0
M  V30 2612 H 251.95 -3.52688 -3.65477 0
M  V30 2613 H 251.88 -2.16453 -4.80058 0
M  V30 2614 H 254.371 -1.91234 -3.25941 0
M  V30 2615 H 254.684 -4.43721 -6.32718 0
M  V30 2616 H 253.029 -3.98481 -5.69419 0
M  V30 2617 H 256.22 -2.44108 -3.99411 0
M  V30 2618 H 256.393 -3.59225 -5.39316 0
M  V30 2619 N 249.799 1.42003 -0.683588 0
M  V30 2620 C 250.732 2.28166 0.039592 0
M  V30 2621 C 251.71 1.41562 0.799942 0
M  V30 2622 O 252.894 1.70997 0.793248 0
M  V30 2623 C 250.021 3.21575 1.06335 0
M  V30 2624 C 249.067 4.24643 0.397562 0
M  V30 2625 S 249.9 5.2869 -0.851296 0
M  V30 2626 C 251.056 6.25666 0.171166 0
M  V30 2627 H 251.289 2.89153 -0.691229 0
M  V30 2628 H 248.822 1.46962 -0.473435 0
M  V30 2629 H 250.78 3.75928 1.6489 0
M  V30 2630 H 249.441 2.59707 1.76667 0
M  V30 2631 H 248.634 4.90223 1.17035 0
M  V30 2632 H 248.236 3.73824 -0.114611 0
M  V30 2633 H 250.528 6.69653 1.02819 0
M  V30 2634 H 251.471 7.06666 -0.450397 0
M  V30 2635 H 251.879 5.62095 0.520578 0
M  V30 2636 N 251.277 0.427512 1.51691 0
M  V30 2637 C 252.224 -0.388867 2.275 0
M  V30 2638 C 253.194 -1.02532 1.30677 0
M  V30 2639 O 254.379 -1.0461 1.59566 0
M  V30 2640 C 251.519 -1.48954 3.11298 0
M  V30 2641 C 250.632 -0.872194 4.23104 0
M  V30 2642 C 249.767 -1.94709 4.94228 0
M  V30 2643 C 248.806 -1.30766 5.97969 0
M  V30 2644 N 247.943 -2.32349 6.62539 0
M  V30 2645 H 252.783 0.263997 2.96828 0
M  V30 2646 H 250.32 0.142033 1.46413 0
M  V30 2647 H 252.278 -2.13887 3.58201 0
M  V30 2648 H 250.908 -2.11217 2.44105 0
M  V30 2649 H 249.96 -0.111419 3.80237 0
M  V30 2650 H 251.272 -0.365264 4.97461 0
M  V30 2651 H 250.426 -2.67327 5.44629 0
M  V30 2652 H 249.165 -2.48773 4.1948 0
M  V30 2653 H 248.17 -0.566902 5.4687 0
M  V30 2654 H 249.395 -0.774483 6.74669 0
M  V30 2655 H 247.341 -2.85511 5.90609 0
M  V30 2656 H 247.258 -1.8652 7.3263 0
M  V30 2657 H 248.526 -3.04481 7.17574 0
M  V30 2658 N 252.755 -1.56801 0.158532 0
M  V30 2659 C 253.702 -2.17337 -0.776729 0
M  V30 2660 C 254.672 -1.1096 -1.23601 0
M  V30 2661 O 255.857 -1.39054 -1.30647 0
M  V30 2662 C 252.997 -2.80822 -2.00582 0
M  V30 2663 C 252.11 -4.01624 -1.59129 0
M  V30 2664 C 251.245 -4.53072 -2.77306 0
M  V30 2665 C 250.284 -5.66314 -2.32282 0
M  V30 2666 N 249.421 -6.12329 -3.43508 0
M  V30 2667 H 254.261 -2.96918 -0.253701 0
M  V30 2668 H 251.798 -1.46661 -0.113504 0
M  V30 2669 H 253.756 -3.15779 -2.72652 0
M  V30 2670 H 252.386 -2.03866 -2.50277 0
M  V30 2671 H 251.438 -3.72571 -0.767806 0
M  V30 2672 H 252.75 -4.83633 -1.2207 0
M  V30 2673 H 251.904 -4.90145 -3.57551 0
M  V30 2674 H 250.643 -3.70095 -3.17617 0
M  V30 2675 H 249.648 -5.28806 -1.5048 0
M  V30 2676 H 250.873 -6.51085 -1.93043 0
M  V30 2677 H 248.819 -5.32284 -3.83418 0
M  V30 2678 H 248.736 -6.89293 -3.105 0
M  V30 2679 H 250.004 -6.5405 -4.24075 0
M  V30 2680 N 254.233 0.115231 -1.57178 0
M  V30 2681 C 255.163 1.1423 -2.03651 0
M  V30 2682 C 256.144 1.42967 -0.921655 0
M  V30 2683 O 257.329 1.53343 -1.19162 0
M  V30 2684 C 254.459 2.4675 -2.44401 0
M  V30 2685 C 253.413 2.32467 -3.59365 0
M  V30 2686 C 252.739 3.69984 -3.86026 0
M  V30 2687 C 254.039 1.78203 -4.90959 0
M  V30 2688 H 255.733 0.755749 -2.89705 0
M  V30 2689 H 253.279 0.362093 -1.39373 0
M  V30 2690 H 255.232 3.18854 -2.75517 0
M  V30 2691 H 253.956 2.87302 -1.55322 0
M  V30 2692 H 252.615 1.62811 -3.28463 0
M  V30 2693 H 252.263 4.08028 -2.94147 0
M  V30 2694 H 251.963 3.61279 -4.63412 0
M  V30 2695 H 253.487 4.43587 -4.19599 0
M  V30 2696 H 254.901 2.40128 -5.20587 0
M  V30 2697 H 253.298 1.8031 -5.72371 0
M  V30 2698 H 254.368 0.739876 -4.79222 0
M  V30 2699 N 255.711 1.52812 0.385517 0
M  V30 2700 C 256.621 1.80766 1.49535 0
M  V30 2701 C 257.637 0.694651 1.59532 0
M  V30 2702 O 258.813 0.982611 1.75803 0
M  V30 2703 C 255.878 1.97381 2.85029 0
M  V30 2704 C 254.939 3.21295 2.84724 0
M  V30 2705 C 254.172 3.37108 4.13756 0
M  V30 2706 O 254.395 2.5765 5.08893 0
M  V30 2707 O 253.329 4.30378 4.20783 0
M  V30 2708 H 257.155 2.75015 1.28842 0
M  V30 2709 H 254.74 1.37946 0.573697 0
M  V30 2710 H 256.622 2.09996 3.65349 0
M  V30 2711 H 255.297 1.06322 3.05741 0
M  V30 2712 H 254.204 3.1412 2.03174 0
M  V30 2713 H 255.537 4.12212 2.68965 0
M  V30 2714 N 257.189 -0.644168 1.43834 0
M  V30 2715 C 258.119 -1.76814 1.52509 0
M  V30 2716 C 259.1 -1.65823 0.379052 0
M  V30 2717 O 260.285 -1.84781 0.597466 0
M  V30 2718 C 257.415 -3.15288 1.4564 0
M  V30 2719 C 256.369 -3.41053 2.58586 0
M  V30 2720 C 255.695 -4.79421 2.36769 0
M  V30 2721 C 256.995 -3.34902 4.00797 0
M  V30 2722 H 258.689 -1.69812 2.46586 0
M  V30 2723 H 256.235 -0.815542 1.1868 0
M  V30 2724 H 258.188 -3.93681 1.50311 0
M  V30 2725 H 256.912 -3.23043 0.480725 0
M  V30 2726 H 255.571 -2.65035 2.53282 0
M  V30 2727 H 255.219 -4.83863 1.37424 0
M  V30 2728 H 254.919 -4.9762 3.12487 0
M  V30 2729 H 256.443 -5.6006 2.43238 0
M  V30 2730 H 257.857 -4.03218 4.07539 0
M  V30 2731 H 256.254 -3.64637 4.76613 0
M  V30 2732 H 257.324 -2.32928 4.25291 0
M  V30 2733 N 258.668 -1.30515 -0.883378 0
M  V30 2734 C 259.896 -1.22359 -1.66841 0
M  V30 2735 C 260.311 0.213296 -1.87591 0
M  V30 2736 O 259.668 1.14075 -1.42454 0
M  V30 2737 C 259.719 -1.95011 -3.04389 0
M  V30 2738 O 259.44 -3.3309 -2.84575 0
M  V30 2739 C 260.941 -1.93532 -3.98824 0
M  V30 2740 H 258.161 -0.423371 -0.520575 0
M  V30 2741 H 260.705 -1.72167 -1.10357 0
M  V30 2742 H 258.86 -1.48997 -3.57601 0
M  V30 2743 H 259.274 -3.69907 -3.71846 0
M  V30 2744 H 260.748 -2.48902 -4.92699 0
M  V30 2745 H 261.225 -0.914627 -4.29571 0
M  V30 2746 H 261.831 -2.39364 -3.51547 0
M  V30 2747 N 260.146 1.09593 -1.13257 0
M  V30 2748 C 261.423 1.78293 -0.804432 0
M  V30 2749 C 261.803 1.99004 0.70431 0
M  V30 2750 O 261.151 1.59007 1.641 0
M  V30 2751 C 261.361 3.10707 -1.5894 0
M  V30 2752 C 262.709 3.85443 -1.78099 0
M  V30 2753 O 263.733 3.20454 -1.55525 0
M  V30 2754 O 262.592 5.02108 -2.15753 0
M  V30 2755 H 259.686 0.773156 -0.293528 0
M  V30 2756 H 262.232 1.16164 -1.23709 0
M  V30 2757 H 261.004 2.91106 -2.61482 0
M  V30 2758 H 260.627 3.80558 -1.15157 0
M  V30 2759 N 261.624 0.925811 1.2754 0
M  V30 2760 C 262.587 0.428129 2.25166 0
M  V30 2761 C 263.587 -0.452261 1.54309 0
M  V30 2762 O 264.777 -0.253608 1.72344 0
M  V30 2763 C 261.909 -0.384749 3.38722 0
M  V30 2764 H 263.102 1.29066 2.70706 0
M  V30 2765 H 260.655 0.706323 1.3943 0
M  V30 2766 H 261.39 -1.26618 2.98561 0
M  V30 2767 H 261.175 0.246454 3.91325 0
M  V30 2768 H 262.665 -0.723389 4.11287 0
M  V30 2769 N 263.102 -1.41638 0.69111 0
M  V30 2770 C 264.065 -2.29178 0.0319786 0
M  V30 2771 C 265.065 -1.44153 -0.712496 0
M  V30 2772 O 266.255 -1.65354 -0.548053 0
M  V30 2773 C 263.387 -3.26952 -0.965161 0
M  V30 2774 H 264.58 -2.88959 0.802681 0
M  V30 2775 H 262.133 -1.4955 0.454356 0
M  V30 2776 H 262.868 -2.72142 -1.76378 0
M  V30 2777 H 262.653 -3.89685 -0.434522 0
M  V30 2778 H 264.143 -3.92561 -1.42428 0
M  V30 2779 N 264.58 -0.43555 -1.51462 0
M  V30 2780 C 265.808 0.130242 -2.0649 0
M  V30 2781 C 266.223 1.36614 -1.30315 0
M  V30 2782 O 265.58 1.78869 -0.362223 0
M  V30 2783 C 265.631 0.454253 -3.58635 0
M  V30 2784 O 265.352 -0.73259 -4.31931 0
M  V30 2785 C 266.853 1.07091 -4.3017 0
M  V30 2786 H 264.073 0.00871669 -0.670943 0
M  V30 2787 H 266.617 -0.614117 -1.95061 0
M  V30 2788 H 264.772 1.14851 -3.69984 0
M  V30 2789 H 265.186 -0.455787 -5.22516 0
M  V30 2790 H 266.66 1.24764 -5.37716 0
M  V30 2791 H 267.137 2.05144 -3.88346 0
M  V30 2792 H 267.743 0.416089 -4.2326 0
M  V30 2793 N 266.058 1.56714 -0.166846 0
M  V30 2794 C 267.286 2.0112 0.485644 0
M  V30 2795 C 267.701 1.04705 1.57106 0
M  V30 2796 O 267.058 0.0471923 1.82439 0
M  V30 2797 C 267.109 3.45361 1.06808 0
M  V30 2798 O 266.83 4.38092 0.0259995 0
M  V30 2799 C 268.331 4.05145 1.79924 0
M  V30 2800 H 265.551 0.65931 0.124704 0
M  V30 2801 H 268.095 2.02746 -0.267262 0
M  V30 2802 H 266.25 3.44524 1.7715 0
M  V30 2803 H 266.664 5.22519 0.455398 0
M  V30 2804 H 268.138 5.08009 2.15942 0
M  V30 2805 H 268.615 3.46982 2.69258 0
M  V30 2806 H 269.221 4.09672 1.14234 0
M  V30 2807 N 267.536 -0.106894 1.57237 0
M  V30 2808 C 268.499 -1.11466 2.0027 0
M  V30 2809 C 269.499 -1.33623 0.894519 0
M  V30 2810 O 270.689 -1.29935 1.16028 0
M  V30 2811 C 267.821 -2.46646 2.35327 0
M  V30 2812 H 269.014 -0.744516 2.90512 0
M  V30 2813 H 266.567 -0.351576 1.52295 0
M  V30 2814 H 267.302 -2.88558 1.48003 0
M  V30 2815 H 267.087 -2.31915 3.16161 0
M  V30 2816 H 268.577 -3.19151 2.69318 0
M  V30 2817 N 269.014 -1.53014 -0.377408 0
M  V30 2818 C 269.946 -1.74884 -1.48149 0
M  V30 2819 C 270.959 -0.629433 -1.5014 0
M  V30 2820 O 272.148 -0.905416 -1.53833 0
M  V30 2821 C 269.248 -1.80299 -2.86959 0
M  V30 2822 C 268.421 -3.09776 -3.08801 0
M  V30 2823 C 267.48 -3.06586 -4.27658 0
M  V30 2824 O 266.506 -3.80419 -4.23403 0
M  V30 2825 N 267.708 -2.26578 -5.34455 0
M  V30 2826 H 270.473 -2.70147 -1.29771 0
M  V30 2827 H 268.034 -1.51646 -0.56703 0
M  V30 2828 H 270.026 -1.75657 -3.64591 0
M  V30 2829 H 268.596 -0.92372 -2.98641 0
M  V30 2830 H 267.816 -3.27815 -2.18931 0
M  V30 2831 H 269.104 -3.95366 -3.20255 0
M  V30 2832 H 268.502 -1.66081 -5.40771 0
M  V30 2833 H 267.059 -2.27766 -6.10709 0
M  V30 2834 N 270.492 0.636531 -1.44174 0
M  V30 2835 C 271.722 1.42146 -1.49927 0
M  V30 2836 C 272.13 1.88812 -0.121063 0
M  V30 2837 O 271.473 1.61126 0.882267 0
M  V30 2838 C 271.535 2.67883 -2.39748 0
M  V30 2839 C 271.199 2.43048 -3.8701 0
M  V30 2840 C 272.196 2.05216 -4.77684 0
M  V30 2841 C 269.881 2.56856 -4.3166 0
M  V30 2842 C 271.875 1.81512 -6.11009 0
M  V30 2843 C 269.562 2.32766 -5.65034 0
M  V30 2844 C 270.56 1.95152 -6.54526 0
M  V30 2845 O 270.248 1.71326 -7.85431 0
M  V30 2846 H 269.98 0.442567 -0.51099 0
M  V30 2847 H 272.534 0.786158 -1.8976 0
M  V30 2848 H 270.764 3.34032 -1.94832 0
M  V30 2849 H 272.453 3.29874 -2.36513 0
M  V30 2850 H 273.219 1.94111 -4.44462 0
M  V30 2851 H 269.098 2.85104 -3.62266 0
M  V30 2852 H 272.642 1.52077 -6.80822 0
M  V30 2853 H 268.539 2.43479 -5.97819 0
M  V30 2854 H 269.307 1.85616 -7.97176 0
M  V30 2855 N 271.97 1.30982 0.876444 0
M  V30 2856 C 273.216 1.20474 1.63138 0
M  V30 2857 C 273.549 -0.238096 1.92735 0
M  V30 2858 O 272.824 -1.1692 1.55435 0
M  V30 2859 C 273.107 2.04244 2.96574 0
M  V30 2860 C 272.96 3.56793 2.73896 0
M  V30 2861 C 274.279 1.88684 3.97601 0
M  V30 2862 H 271.398 0.439001 0.591985 0
M  V30 2863 H 274.04 1.60704 1.01361 0
M  V30 2864 H 272.19 1.70063 3.493 0
M  V30 2865 H 273.862 4.01077 2.27892 0
M  V30 2866 H 272.105 3.80548 2.08245 0
M  V30 2867 H 272.776 4.10706 3.68815 0
M  V30 2868 H 275.252 2.18584 3.54062 0
M  V30 2869 H 274.128 2.4961 4.88862 0
M  V30 2870 H 274.389 0.848343 4.33884 0
M  V30 2871 N 273.449 -1.08991 1.13837 0
M  V30 2872 C 274.679 -1.84743 0.924859 0
M  V30 2873 C 275.087 -1.81629 -0.529874 0
M  V30 2874 O 274.43 -1.21397 -1.37872 0
M  V30 2875 C 274.492 -3.33568 1.34061 0
M  V30 2876 C 274.156 -3.60425 2.80968 0
M  V30 2877 C 275.153 -3.55771 3.79108 0
M  V30 2878 C 272.838 -3.88627 3.18236 0
M  V30 2879 C 274.832 -3.78939 5.12527 0
M  V30 2880 C 272.519 -4.11449 4.51833 0
M  V30 2881 C 273.517 -4.06598 5.48787 0
M  V30 2882 O 273.205 -4.28826 6.79973 0
M  V30 2883 H 272.937 -0.590258 0.329502 0
M  V30 2884 H 275.491 -1.38598 1.51591 0
M  V30 2885 H 273.721 -3.80442 0.692853 0
M  V30 2886 H 275.41 -3.90743 1.09886 0
M  V30 2887 H 276.176 -3.34005 3.51661 0
M  V30 2888 H 272.055 -3.91526 2.43369 0
M  V30 2889 H 275.599 -3.75068 5.88192 0
M  V30 2890 H 271.496 -4.32698 4.79002 0
M  V30 2891 H 272.264 -4.46264 6.86142 0
M  V30 2892 N 274.927 -0.932562 -1.27047 0
M  V30 2893 C 275.874 -0.434072 -2.26681 0
M  V30 2894 C 276.844 0.501639 -1.58344 0
M  V30 2895 O 278.029 0.419734 -1.86126 0
M  V30 2896 C 275.169 0.30261 -3.43771 0
M  V30 2897 C 274.282 -0.667774 -4.26808 0
M  V30 2898 C 273.417 0.0892393 -5.31125 0
M  V30 2899 C 272.456 -0.873532 -6.05835 0
M  V30 2900 N 271.593 -0.148832 -7.01942 0
M  V30 2901 H 276.433 -1.28868 -2.68695 0
M  V30 2902 H 273.97 -0.646713 -1.32121 0
M  V30 2903 H 275.928 0.746092 -4.10474 0
M  V30 2904 H 274.558 1.12142 -3.02695 0
M  V30 2905 H 273.61 -1.22978 -3.59973 0
M  V30 2906 H 274.922 -1.40337 -4.78651 0
M  V30 2907 H 274.076 0.592409 -6.03801 0
M  V30 2908 H 272.815 0.85777 -4.80097 0
M  V30 2909 H 271.82 -1.38791 -5.31994 0
M  V30 2910 H 273.045 -1.64193 -6.58952 0
M  V30 2911 H 270.991 0.601365 -6.53238 0
M  V30 2912 H 270.908 -0.82391 -7.51497 0
M  V30 2913 H 272.176 0.333527 -7.78786 0
M  V30 2914 N 276.405 1.4127 -0.698611 0
M  V30 2915 C 277.633 2.05503 -0.239992 0
M  V30 2916 C 278.048 1.52584 1.11191 0
M  V30 2917 O 277.405 0.675323 1.69545 0
M  V30 2918 C 277.456 3.60987 -0.192429 0
M  V30 2919 O 277.177 4.1195 -1.49094 0
M  V30 2920 C 278.678 4.42371 0.28681 0
M  V30 2921 H 275.898 0.661748 -0.111045 0
M  V30 2922 H 278.442 1.80987 -0.95205 0
M  V30 2923 H 276.597 3.84533 0.470472 0
M  V30 2924 H 277.011 5.06018 -1.38007 0
M  V30 2925 H 278.485 5.51344 0.26896 0
M  V30 2926 H 278.962 4.18699 1.32619 0
M  V30 2927 H 279.568 4.23897 -0.345201 0
M  V30 2928 N 277.883 0.443576 1.51229 0
M  V30 2929 C 278.831 -0.37904 2.29491 0
M  V30 2930 C 279.825 -1.0153 1.35603 0
M  V30 2931 O 281.031 -0.94955 1.52917 0
M  V30 2932 H 277.406 -0.141053 0.738653 0
M  V30 2933 H 279.377 0.301799 2.9687 0
M  V30 2934 C 278.126 -1.46426 3.15364 0
M  V30 2935 H 277.449 -0.984037 3.87501 0
M  V30 2936 H 278.889 -2.01297 3.7317 0
M  V30 2937 C 277.348 -2.45099 2.31146 0
M  V30 2938 O 277.878 -3.49773 1.9754 0
M  V30 2939 N 276.084 -2.16139 1.94249 0
M  V30 2940 H 275.631 -1.31044 2.21777 0
M  V30 2941 H 275.589 -2.82398 1.38198 0
M  V30 2942 N 279.361 -1.56624 0.175154 0
M  V30 2943 C 280.271 -2.21741 -0.766042 0
M  V30 2944 C 281.287 -1.21023 -1.25018 0
M  V30 2945 O 282.463 -1.53697 -1.3015 0
M  V30 2946 C 279.528 -2.84839 -1.97655 0
M  V30 2947 C 278.589 -4.00769 -1.53892 0
M  V30 2948 C 277.822 -4.60849 -2.69173 0
M  V30 2949 O 278.045 -4.19823 -3.86141 0
M  V30 2950 O 276.979 -5.50655 -2.43028 0
M  V30 2951 H 280.805 -3.02738 -0.241585 0
M  V30 2952 H 278.39 -1.49305 -0.053222 0
M  V30 2953 H 280.272 -3.24834 -2.68442 0
M  V30 2954 H 278.947 -2.06836 -2.48999 0
M  V30 2955 H 277.854 -3.65436 -0.80044 0
M  V30 2956 H 279.187 -4.80376 -1.07236 0
M  V30 2957 N 280.839 0.0985539 -1.57292 0
M  V30 2958 C 282.116 0.834155 -1.76921 0
M  V30 2959 C 282.496 1.97101 -0.755928 0
M  V30 2960 O 281.844 2.27474 0.216245 0
M  V30 2961 C 282.054 1.33194 -3.22584 0
M  V30 2962 C 283.402 1.77611 -3.85668 0
M  V30 2963 O 284.426 1.42825 -3.26312 0
M  V30 2964 O 283.285 2.4192 -4.90038 0
M  V30 2965 H 280.379 0.397628 -0.725135 0
M  V30 2966 H 282.925 0.0807044 -1.69508 0
M  V30 2967 H 281.697 0.517248 -3.87866 0
M  V30 2968 H 281.32 2.1475 -3.34616 0
M  V30 2969 N 282.317 1.53212 0.369288 0
M  V30 2970 C 283.566 1.68436 1.10961 0
M  V30 2971 C 283.879 0.440738 1.9057 0
M  V30 2972 O 285.085 0.473446 2.6734 0
M  V30 2973 C 283.541 2.97744 2.0218 0
M  V30 2974 C 283.149 4.29355 1.279 0
M  V30 2975 C 284.893 3.22334 2.76226 0
M  V30 2976 C 282.8 5.49755 2.17999 0
M  V30 2977 H 281.73 0.627568 0.41794 0
M  V30 2978 H 284.381 1.79713 0.370884 0
M  V30 2979 H 282.763 2.8026 2.79768 0
M  V30 2980 H 283.937 4.57458 0.554007 0
M  V30 2981 H 282.252 4.11179 0.657311 0
M  V30 2982 H 284.849 4.09471 3.43857 0
M  V30 2983 H 285.192 2.38238 3.41392 0
M  V30 2984 H 285.725 3.40475 2.05723 0
M  V30 2985 H 282.464 6.36318 1.57417 0
M  V30 2986 H 281.984 5.25937 2.88359 0
M  V30 2987 H 283.663 5.84401 2.77641 0
M  V30 2988 N 283.795 -0.628877 1.44509 0
M  V30 2989 C 284.742 -1.74074 1.51549 0
M  V30 2990 C 285.712 -1.62084 0.363021 0
M  V30 2991 O 286.897 -1.81975 0.573567 0
M  V30 2992 C 284.037 -3.12328 1.46784 0
M  V30 2993 C 283.15 -3.35277 2.72422 0
M  V30 2994 C 282.285 -4.63515 2.59475 0
M  V30 2995 C 281.324 -4.7965 3.80266 0
M  V30 2996 N 280.461 -5.99168 3.65981 0
M  V30 2997 H 285.301 -1.67392 2.46544 0
M  V30 2998 H 282.838 -0.816527 1.22357 0
M  V30 2999 H 284.796 -3.92286 1.42012 0
M  V30 3000 H 283.426 -3.18018 0.553544 0
M  V30 3001 H 282.478 -2.49242 2.87372 0
M  V30 3002 H 283.79 -3.43078 3.62076 0
M  V30 3003 H 282.944 -5.51638 2.52548 0
M  V30 3004 H 281.683 -4.58076 1.67384 0
M  V30 3005 H 280.688 -3.89957 3.87574 0
M  V30 3006 H 281.913 -4.86902 4.73395 0
M  V30 3007 H 279.859 -5.94814 2.76644 0
M  V30 3008 H 279.776 -6.08035 4.49254 0
M  V30 3009 H 281.044 -6.89846 3.6295 0
M  V30 3010 N 285.273 -1.31445 -0.869486 0
M  V30 3011 C 286.521 -1.20918 -1.61936 0
M  V30 3012 C 286.842 0.232683 -1.93607 0
M  V30 3013 O 286.112 1.15352 -1.58338 0
M  V30 3014 H 284.692 -0.44454 -0.600328 0
M  V30 3015 H 287.354 -1.64776 -1.0409 0
M  V30 3016 H 286.45 -1.78124 -2.56278 0
M  V30 3017 N 286.751 1.08385 -1.14413 0
M  V30 3018 C 287.998 1.80776 -0.912482 0
M  V30 3019 C 288.326 1.86236 0.560934 0
M  V30 3020 O 287.581 1.33431 1.43159 0
M  V30 3021 C 287.88 3.26273 -1.45879 0
M  V30 3022 C 287.546 3.4093 -2.95089 0
M  V30 3023 C 286.208 3.44638 -3.35824 0
M  V30 3024 C 288.56 3.44591 -3.91033 0
M  V30 3025 C 285.888 3.49597 -4.71167 0
M  V30 3026 C 288.24 3.51086 -5.26233 0
M  V30 3027 C 286.904 3.53067 -5.6648 0
M  V30 3028 H 286.174 0.661507 -0.333901 0
M  V30 3029 H 288.821 1.27613 -1.42784 0
M  V30 3030 H 287.126 3.82146 -0.864376 0
M  V30 3031 H 288.823 3.80839 -1.2555 0
M  V30 3032 H 285.413 3.38736 -2.62594 0
M  V30 3033 H 289.597 3.40957 -3.60641 0
M  V30 3034 H 284.853 3.49424 -5.0171 0
M  V30 3035 H 289.027 3.52864 -6.00383 0
M  V30 3036 H 286.654 3.56662 -6.71339 0
M  V30 3037 N 288.23 0.939286 1.26551 0
M  V30 3038 C 289.476 0.586715 1.94128 0
M  V30 3039 C 289.809 -0.8717 1.73537 0
M  V30 3040 O 289.084 -1.62339 1.07127 0
M  V30 3041 C 289.367 0.927497 3.4795 0
M  V30 3042 C 289.22 2.44052 3.77834 0
M  V30 3043 C 290.539 0.441569 4.37879 0
M  V30 3044 H 287.658 0.21463 0.705055 0
M  V30 3045 H 290.3 1.17316 1.49455 0
M  V30 3046 H 288.45 0.428431 3.8613 0
M  V30 3047 H 290.122 3.01216 3.4938 0
M  V30 3048 H 288.365 2.8848 3.23978 0
M  V30 3049 H 289.036 2.62947 4.85348 0
M  V30 3050 H 291.512 0.869448 4.06915 0
M  V30 3051 H 290.388 0.708856 5.44304 0
M  V30 3052 H 290.649 -0.658467 4.37169 0
M  V30 3053 N 289.708 -1.40897 0.706093 0
M  V30 3054 C 290.655 -2.30751 0.0474474 0
M  V30 3055 C 291.625 -1.47678 -0.76029 0
M  V30 3056 O 292.81 -1.76441 -0.726177 0
M  V30 3057 C 289.95 -3.33815 -0.875309 0
M  V30 3058 C 289.063 -4.31961 -0.0580623 0
M  V30 3059 C 288.198 -5.22093 -0.979425 0
M  V30 3060 C 287.237 -6.11902 -0.155706 0
M  V30 3061 N 286.374 -6.94482 -1.03144 0
M  V30 3062 H 291.214 -2.86513 0.819413 0
M  V30 3063 H 288.751 -1.41102 0.415783 0
M  V30 3064 H 290.709 -3.92129 -1.42446 0
M  V30 3065 H 289.339 -2.79579 -1.61356 0
M  V30 3066 H 288.391 -3.75507 0.608147 0
M  V30 3067 H 289.703 -4.95415 0.580082 0
M  V30 3068 H 288.857 -5.85292 -1.59744 0
M  V30 3069 H 287.596 -4.5889 -1.65141 0
M  V30 3070 H 286.601 -5.47742 0.475309 0
M  V30 3071 H 287.826 -6.77162 0.512635 0
M  V30 3072 H 285.772 -6.33877 -1.68924 0
M  V30 3073 H 285.689 -7.54665 -0.449108 0
M  V30 3074 H 286.957 -7.6214 -1.63593 0
M  V30 3075 N 291.186 -0.45159 -1.50991 0
M  V30 3076 C 292.416 0.108177 -2.06317 0
M  V30 3077 C 292.824 1.35774 -1.31765 0
M  V30 3078 O 292.167 1.79838 -0.374694 0
M  V30 3079 C 292.229 0.481659 -3.56259 0
M  V30 3080 C 291.893 -0.663114 -4.52163 0
M  V30 3081 C 292.89 -1.53947 -4.96585 0
M  V30 3082 C 290.575 -0.8479 -4.95092 0
M  V30 3083 C 292.569 -2.58518 -5.82621 0
M  V30 3084 C 290.256 -1.89686 -5.80915 0
M  V30 3085 C 291.254 -2.76388 -6.24579 0
M  V30 3086 O 290.942 -3.79482 -7.08695 0
M  V30 3087 H 290.674 0.00499183 -0.675982 0
M  V30 3088 H 293.228 -0.633659 -1.95381 0
M  V30 3089 H 291.458 1.27641 -3.65027 0
M  V30 3090 H 293.147 0.974233 -3.94035 0
M  V30 3091 H 293.913 -1.4083 -4.64103 0
M  V30 3092 H 289.792 -0.18258 -4.60638 0
M  V30 3093 H 293.336 -3.26224 -6.16623 0
M  V30 3094 H 289.233 -2.02817 -6.12809 0
M  V30 3095 H 290.001 -3.76234 -7.26905 0
M  V30 3096 N 292.664 1.56529 -0.183458 0
M  V30 3097 C 293.627 2.17324 0.728223 0
M  V30 3098 C 294.627 1.12453 1.14939 0
M  V30 3099 O 295.817 1.37902 1.06437 0
M  V30 3100 C 292.949 2.76591 1.99274 0
M  V30 3101 H 294.142 2.99241 0.198772 0
M  V30 3102 H 291.695 1.5616 0.0661391 0
M  V30 3103 H 292.43 1.98441 2.56499 0
M  V30 3104 H 292.215 3.5335 1.69959 0
M  V30 3105 H 293.705 3.23311 2.6431 0
M  V30 3106 N 294.142 -0.090211 1.57342 0
M  V30 3107 C 295.089 -1.10909 2.02405 0
M  V30 3108 C 296.059 -1.39523 0.901252 0
M  V30 3109 O 297.244 -1.50903 1.1676 0
M  V30 3110 C 294.384 -2.42277 2.45755 0
M  V30 3111 C 293.497 -2.20352 3.71576 0
M  V30 3112 C 292.632 -3.45154 4.03785 0
M  V30 3113 C 291.671 -3.18512 5.22701 0
M  V30 3114 N 290.808 -4.35593 5.50639 0
M  V30 3115 H 295.648 -0.71782 2.89225 0
M  V30 3116 H 293.185 -0.342901 1.43048 0
M  V30 3117 H 295.143 -3.18951 2.68935 0
M  V30 3118 H 293.773 -2.79242 1.61938 0
M  V30 3119 H 292.825 -1.34458 3.55844 0
M  V30 3120 H 294.137 -1.96661 4.58395 0
M  V30 3121 H 293.291 -4.30233 4.27767 0
M  V30 3122 H 292.03 -3.71904 3.15498 0
M  V30 3123 H 291.035 -2.31827 4.98534 0
M  V30 3124 H 292.26 -2.93103 6.12591 0
M  V30 3125 H 290.206 -4.6241 4.6531 0
M  V30 3126 H 290.123 -4.1511 6.31838 0
M  V30 3127 H 291.391 -5.21723 5.7916 0
M  V30 3128 N 295.62 -1.53406 -0.361157 0
M  V30 3129 C 296.57 -1.76536 -1.44287 0
M  V30 3130 C 297.554 -0.620019 -1.48474 0
M  V30 3131 O 298.746 -0.878834 -1.53641 0
M  V30 3132 C 295.875 -1.96266 -2.81664 0
M  V30 3133 C 294.961 -3.16815 -2.81938 0
M  V30 3134 N 295.352 -4.38637 -2.51855 0
M  V30 3135 C 293.65 -3.17627 -3.13096 0
M  V30 3136 C 294.351 -5.20401 -2.59919 0
M  V30 3137 N 293.327 -4.56712 -2.94814 0
M  V30 3138 H 297.129 -2.68331 -1.19899 0
M  V30 3139 H 294.643 -1.52091 -0.56938 0
M  V30 3140 H 296.64 -2.10966 -3.59582 0
M  V30 3141 H 295.3 -1.05702 -3.07013 0
M  V30 3142 H 296.311 -4.66293 -2.25369 0
M  V30 3143 H 292.988 -2.36971 -3.43731 0
M  V30 3144 H 294.378 -6.27586 -2.39969 0
M  V30 3145 N 297.098 0.621204 -1.44841 0
M  V30 3146 C 298.328 1.40548 -1.51426 0
M  V30 3147 C 298.736 1.88673 -0.141083 0
M  V30 3148 O 298.079 1.62053 0.865128 0
M  V30 3149 C 298.141 2.65325 -2.42576 0
M  V30 3150 C 297.805 2.3893 -3.89566 0
M  V30 3151 C 298.802 2.00138 -4.79834 0
M  V30 3152 C 296.487 2.52263 -4.3436 0
M  V30 3153 C 298.481 1.75021 -6.129 0
M  V30 3154 C 296.168 2.2676 -5.67471 0
M  V30 3155 C 297.166 1.88199 -6.56559 0
M  V30 3156 O 296.854 1.62986 -7.87204 0
M  V30 3157 H 296.586 0.437122 -0.515655 0
M  V30 3158 H 299.14 0.765987 -1.90583 0
M  V30 3159 H 297.37 3.31947 -1.98364 0
M  V30 3160 H 299.059 3.27347 -2.39998 0
M  V30 3161 H 299.825 1.89386 -4.46495 0
M  V30 3162 H 295.704 2.81246 -3.65269 0
M  V30 3163 H 299.248 1.44848 -6.82396 0
M  V30 3164 H 295.145 2.37125 -6.00368 0
M  V30 3165 H 295.913 1.7715 -7.991 0
M  V30 3166 N 298.576 1.31904 0.862503 0
M  V30 3167 C 299.523 1.20182 1.9704 0
M  V30 3168 C 300.493 0.0858247 1.65878 0
M  V30 3169 O 301.678 0.26 1.8902 0
M  V30 3170 C 298.818 0.922797 3.32533 0
M  V30 3171 C 297.931 2.12284 3.76244 0
M  V30 3172 C 297.066 1.77996 5.00491 0
M  V30 3173 C 296.105 2.94366 5.36671 0
M  V30 3174 N 295.242 2.60223 6.52095 0
M  V30 3175 H 300.082 2.14951 2.06398 0
M  V30 3176 H 297.619 1.06917 1.01031 0
M  V30 3177 H 299.577 0.741548 4.10557 0
M  V30 3178 H 298.207 0.0119227 3.22798 0
M  V30 3179 H 297.259 2.41461 2.9394 0
M  V30 3180 H 298.571 2.99357 3.98982 0
M  V30 3181 H 297.725 1.56377 5.862 0
M  V30 3182 H 296.464 0.881252 4.79672 0
M  V30 3183 H 295.469 3.16625 4.49476 0
M  V30 3184 H 296.694 3.84957 5.59451 0
M  V30 3185 H 294.64 1.72884 6.32809 0
M  V30 3186 H 294.557 3.40827 6.74814 0
M  V30 3187 H 295.825 2.42016 7.40978 0
M  V30 3188 N 300.054 -1.07777 1.14986 0
M  V30 3189 C 301.47 -1.32373 0.891596 0
M  V30 3190 C 301.67 -1.9609 -0.463788 0
M  V30 3191 O 300.726 -2.21801 -1.20667 0
M  V30 3192 C 302.039 -2.21905 2.02925 0
M  V30 3193 C 303.587 -2.35367 2.06329 0
M  V30 3194 C 304.062 -3.28245 3.19405 0
M  V30 3195 N 305.553 -3.35824 3.19024 0
M  V30 3196 C 306.288 -4.07739 4.03158 0
M  V30 3197 N 305.784 -4.82306 4.97346 0
M  V30 3198 N 307.577 -4.03635 3.91197 0
M  V30 3199 H 299.728 -0.648039 2.02273 0
M  V30 3200 H 301.991 -0.348149 0.881757 0
M  V30 3201 H 301.697 -1.82342 3.0074 0
M  V30 3202 H 301.571 -3.22407 1.95789 0
M  V30 3203 H 303.958 -2.74186 1.09116 0
M  V30 3204 H 304.039 -1.34585 2.17533 0
M  V30 3205 H 303.683 -2.90146 4.16867 0
M  V30 3206 H 303.613 -4.28971 3.05437 0
M  V30 3207 H 306.104 -2.8267 2.50811 0
M  V30 3208 H 306.417 -5.34661 5.57994 0
M  V30 3209 H 304.762 -4.81337 5.01338 0
M  V30 3210 H 307.953 -3.44491 3.16928 0
M  V30 3211 H 308.126 -4.59417 4.5699 0
M  V30 3212 N 301.532 -0.945985 -1.26051 0
M  V30 3213 C 302.781 -0.591836 -1.92822 0
M  V30 3214 C 303.094 0.873956 -1.7499 0
M  V30 3215 O 304.3 1.33769 -2.36259 0
M  V30 3216 C 302.756 -1.00776 -3.45503 0
M  V30 3217 C 302.364 -2.4955 -3.7206 0
M  V30 3218 C 304.108 -0.725735 -4.1825 0
M  V30 3219 C 302.015 -2.84988 -5.18205 0
M  V30 3220 H 300.945 -0.217635 -0.721908 0
M  V30 3221 H 303.596 -1.14927 -1.43052 0
M  V30 3222 H 301.978 -0.378812 -3.94184 0
M  V30 3223 H 303.152 -3.1739 -3.34066 0
M  V30 3224 H 301.467 -2.75133 -3.12555 0
M  V30 3225 H 304.064 -0.966771 -5.25887 0
M  V30 3226 H 304.407 0.337639 -4.14929 0
M  V30 3227 H 304.94 -1.31463 -3.7545 0
M  V30 3228 H 301.679 -3.90307 -5.26631 0
M  V30 3229 H 301.199 -2.21813 -5.57278 0
M  V30 3230 H 302.878 -2.73712 -5.86252 0
M  V30 3231 N 303.011 1.40521 -0.713556 0
M  V30 3232 C 303.944 2.28198 -0.00881422 0
M  V30 3233 C 304.922 1.43227 0.769735 0
M  V30 3234 O 306.106 1.72641 0.756799 0
M  V30 3235 C 303.233 3.23758 0.994899 0
M  V30 3236 C 302.279 4.25391 0.3074 0
M  V30 3237 S 303.112 5.26765 -0.963247 0
M  V30 3238 C 304.268 6.25888 0.0384143 0
M  V30 3239 H 304.501 2.87622 -0.752407 0
M  V30 3240 H 302.034 1.45925 -0.504502 0
M  V30 3241 H 303.992 3.79341 1.56879 0
M  V30 3242 H 302.653 2.63396 1.71118 0
M  V30 3243 H 301.846 4.92596 1.0661 0
M  V30 3244 H 301.448 3.73497 -0.193879 0
M  V30 3245 H 303.74 6.71683 0.885912 0
M  V30 3246 H 304.683 7.05552 -0.60019 0
M  V30 3247 H 305.091 5.63072 0.401233 0
M  V30 3248 N 304.489 0.459591 1.5075 0
M  V30 3249 C 305.399 -0.34613 2.32033 0
M  V30 3250 C 306.415 -1.00686 1.41909 0
M  V30 3251 O 307.591 -0.997361 1.7497 0
M  V30 3252 C 304.656 -1.42029 3.16273 0
M  V30 3253 C 303.717 -0.777362 4.22203 0
M  V30 3254 C 302.95 -1.80034 5.02418 0
M  V30 3255 O 303.173 -3.02544 4.83553 0
M  V30 3256 O 302.107 -1.37853 5.85901 0
M  V30 3257 H 305.933 0.318054 3.0203 0
M  V30 3258 H 303.518 0.221663 1.47746 0
M  V30 3259 H 305.4 -2.04275 3.68578 0
M  V30 3260 H 304.075 -2.06815 2.49016 0
M  V30 3261 H 302.982 -0.116256 3.73919 0
M  V30 3262 H 304.315 -0.172634 4.91897 0
M  V30 3263 N 305.967 -1.56429 0.191757 0
M  V30 3264 C 306.897 -2.21937 -0.725696 0
M  V30 3265 C 307.878 -1.1814 -1.2238 0
M  V30 3266 O 309.063 -1.46636 -1.27325 0
M  V30 3267 C 306.193 -2.87611 -1.94672 0
M  V30 3268 C 305.147 -3.97623 -1.58366 0
M  V30 3269 C 304.473 -4.50446 -2.88102 0
M  V30 3270 C 305.773 -5.16197 -0.796133 0
M  V30 3271 H 307.467 -2.98861 -0.179606 0
M  V30 3272 H 305.013 -1.43749 -0.0849464 0
M  V30 3273 H 306.966 -3.3212 -2.59373 0
M  V30 3274 H 305.69 -2.08087 -2.51728 0
M  V30 3275 H 304.349 -3.53801 -0.960247 0
M  V30 3276 H 303.997 -3.67688 -3.43241 0
M  V30 3277 H 303.697 -5.24675 -2.64556 0
M  V30 3278 H 305.221 -4.97654 -3.53798 0
M  V30 3279 H 306.635 -5.57271 -1.34618 0
M  V30 3280 H 305.032 -5.96471 -0.658928 0
M  V30 3281 H 306.102 -4.84473 0.203478 0
M  V30 3282 N 307.445 0.0818655 -1.57387 0
M  V30 3283 C 308.693 0.781368 -1.86384 0
M  V30 3284 C 309.014 1.78618 -0.782342 0
M  V30 3285 O 308.284 1.94976 0.190061 0
M  V30 3286 H 306.864 0.291562 -0.687751 0
M  V30 3287 H 309.526 0.060348 -1.94807 0
M  V30 3288 H 308.622 1.3038 -2.83562 0
M  V30 3289 N 308.923 1.53595 0.353017 0
M  V30 3290 C 309.853 1.83902 1.43883 0
M  V30 3291 C 310.834 0.693421 1.55324 0
M  V30 3292 O 312.019 0.944452 1.69687 0
M  V30 3293 C 309.149 2.04016 2.8106 0
M  V30 3294 C 308.103 3.19814 2.84434 0
M  V30 3295 C 307.429 3.25244 4.24406 0
M  V30 3296 C 308.729 4.58133 2.50822 0
M  V30 3297 H 310.423 2.74835 1.1877 0
M  V30 3298 H 307.969 1.32242 0.569917 0
M  V30 3299 H 309.922 2.238 3.57059 0
M  V30 3300 H 308.646 1.09804 3.07588 0
M  V30 3301 H 307.305 2.9987 2.10887 0
M  V30 3302 H 306.953 2.28646 4.48029 0
M  V30 3303 H 306.653 4.03054 4.27576 0
M  V30 3304 H 308.177 3.47228 5.0226 0
M  V30 3305 H 309.591 4.77995 3.16534 0
M  V30 3306 H 307.988 5.38276 2.6529 0
M  V30 3307 H 309.058 4.62387 1.46034 0
M  V30 3308 N 310.401 -0.613514 1.45168 0
M  V30 3309 C 311.348 -1.72456 1.53387 0
M  V30 3310 C 312.318 -1.6169 0.380191 0
M  V30 3311 O 313.503 -1.81356 0.592836 0
M  V30 3312 C 310.643 -3.10753 1.50088 0
M  V30 3313 C 309.756 -3.32368 2.75963 0
M  V30 3314 C 308.891 -4.60737 2.64376 0
M  V30 3315 C 307.93 -4.7559 3.85332 0
M  V30 3316 N 307.067 -5.95253 3.72315 0
M  V30 3317 H 311.907 -1.64768 2.48305 0
M  V30 3318 H 309.444 -0.803503 1.23216 0
M  V30 3319 H 311.402 -3.90758 1.46164 0
M  V30 3320 H 310.032 -3.17413 0.587243 0
M  V30 3321 H 309.084 -2.4618 2.89999 0
M  V30 3322 H 310.396 -3.39218 3.65695 0
M  V30 3323 H 309.55 -5.48928 2.58385 0
M  V30 3324 H 308.289 -4.56275 1.72233 0
M  V30 3325 H 307.294 -3.85824 3.91688 0
M  V30 3326 H 308.519 -4.81854 4.78533 0
M  V30 3327 H 306.465 -5.91847 2.82937 0
M  V30 3328 H 306.382 -6.03236 4.55677 0
M  V30 3329 H 307.65 -6.85958 3.70246 0
M  V30 3330 N 311.879 -1.3236 -0.855495 0
M  V30 3331 C 312.826 -1.21225 -1.964 0
M  V30 3332 C 313.796 -0.0946204 -1.6583 0
M  V30 3333 O 314.981 -0.27002 -1.8888 0
M  V30 3334 C 312.121 -0.940419 -3.32039 0
M  V30 3335 C 311.234 -2.14276 -3.75113 0
M  V30 3336 C 310.369 -1.80648 -4.9954 0
M  V30 3337 C 309.408 -2.97208 -5.35102 0
M  V30 3338 N 308.545 -2.63678 -6.50706 0
M  V30 3339 H 313.385 -2.16042 -2.05255 0
M  V30 3340 H 310.922 -1.07451 -1.00463 0
M  V30 3341 H 312.88 -0.763311 -4.10158 0
M  V30 3342 H 311.51 -0.0290413 -3.22787 0
M  V30 3343 H 310.562 -2.43017 -2.92655 0
M  V30 3344 H 311.874 -3.01468 -3.97389 0
M  V30 3345 H 311.028 -1.59484 -5.85363 0
M  V30 3346 H 309.767 -0.906678 -4.79198 0
M  V30 3347 H 308.772 -3.19004 -4.47791 0
M  V30 3348 H 309.997 -3.87918 -5.57401 0
M  V30 3349 H 307.943 -1.76238 -6.31883 0
M  V30 3350 H 307.86 -3.444 -6.72997 0
M  V30 3351 H 309.128 -2.45942 -7.39684 0
M  V30 3352 N 313.357 1.07166 -1.15556 0
M  V30 3353 C 314.634 1.76546 -0.842069 0
M  V30 3354 C 315.014 2.00453 0.661939 0
M  V30 3355 O 314.362 1.62452 1.60691 0
M  V30 3356 C 314.572 3.07266 -1.65495 0
M  V30 3357 C 315.92 3.81578 -1.86234 0
M  V30 3358 O 316.944 3.17083 -1.62287 0
M  V30 3359 O 315.803 4.97419 -2.26355 0
M  V30 3360 H 312.897 0.766756 -0.309862 0
M  V30 3361 H 315.443 1.13514 -1.26145 0
M  V30 3362 H 314.215 2.85494 -2.67598 0
M  V30 3363 H 313.838 3.7803 -1.23203 0
M  V30 3364 N 314.835 0.952656 1.25548 0
M  V30 3365 C 316.082 0.606373 1.93208 0
M  V30 3366 C 316.41 -0.85631 1.74636 0
M  V30 3367 O 315.665 -1.62951 1.08376 0
M  V30 3368 C 315.964 0.908818 3.45652 0
M  V30 3369 C 315.63 2.35722 3.84378 0
M  V30 3370 C 314.292 2.75312 3.9466 0
M  V30 3371 C 316.644 3.29793 4.03591 0
M  V30 3372 C 313.972 4.08047 4.21562 0
M  V30 3373 C 316.324 4.62138 4.31985 0
M  V30 3374 C 314.988 5.01528 4.40484 0
M  V30 3375 H 314.258 0.221888 0.706998 0
M  V30 3376 H 316.905 1.20132 1.49133 0
M  V30 3377 H 315.21 0.231456 3.91116 0
M  V30 3378 H 316.907 0.619498 3.96186 0
M  V30 3379 H 313.497 2.04017 3.76928 0
M  V30 3380 H 317.681 3.00397 3.95064 0
M  V30 3381 H 312.937 4.38212 4.26357 0
M  V30 3382 H 317.111 5.35012 4.45797 0
M  V30 3383 H 314.738 6.04406 4.61083 0
M  V30 3384 N 316.313 -1.40141 0.720998 0
M  V30 3385 C 317.223 -2.34486 0.0731031 0
M  V30 3386 C 318.239 -1.57587 -0.737723 0
M  V30 3387 O 319.415 -1.89949 -0.669429 0
M  V30 3388 C 316.48 -3.36528 -0.833656 0
M  V30 3389 C 315.541 -4.29298 -0.0121673 0
M  V30 3390 C 314.774 -5.26466 -0.875742 0
M  V30 3391 O 314.997 -5.29745 -2.11485 0
M  V30 3392 O 313.931 -6.01092 -0.31185 0
M  V30 3393 H 317.757 -2.9152 0.851444 0
M  V30 3394 H 315.342 -1.41427 0.481527 0
M  V30 3395 H 317.224 -3.99093 -1.35289 0
M  V30 3396 H 315.899 -2.81899 -1.59105 0
M  V30 3397 H 314.806 -3.70001 0.552262 0
M  V30 3398 H 316.139 -4.87094 0.707129 0
M  V30 3399 N 317.792 -0.46758 -1.50504 0
M  V30 3400 C 319.022 0.086288 -2.0642 0
M  V30 3401 C 319.43 1.34369 -1.33197 0
M  V30 3402 O 318.773 1.79431 -0.393747 0
M  V30 3403 C 318.835 0.443846 -3.5675 0
M  V30 3404 C 318.499 -0.711035 -4.51435 0
M  V30 3405 C 319.496 -1.59205 -4.94924 0
M  V30 3406 C 317.181 -0.900363 -4.94165 0
M  V30 3407 C 319.175 -2.64683 -5.79846 0
M  V30 3408 C 316.862 -1.95837 -5.7887 0
M  V30 3409 C 317.86 -2.82997 -6.21612 0
M  V30 3410 O 317.548 -3.86977 -7.0463 0
M  V30 3411 H 317.28 -0.00217814 -0.675996 0
M  V30 3412 H 319.834 -0.654346 -1.94698 0
M  V30 3413 H 318.064 1.23762 -3.6636 0
M  V30 3414 H 319.753 0.932386 -3.95046 0
M  V30 3415 H 320.519 -1.45745 -4.62583 0
M  V30 3416 H 316.398 -0.231427 -4.60419 0
M  V30 3417 H 319.942 -3.32745 -6.13128 0
M  V30 3418 H 315.839 -2.09305 -6.10624 0
M  V30 3419 H 316.607 -3.83923 -7.22873 0
M  V30 3420 N 319.27 1.56325 -0.20005 0
M  V30 3421 C 320.51 1.99619 0.439519 0
M  V30 3422 C 320.874 1.08423 1.58456 0
M  V30 3423 O 322.075 1.40973 2.28867 0
M  V30 3424 C 320.346 3.46314 0.883258 0
M  V30 3425 S 321.905 4.11634 1.51997 0
M  V30 3426 H 318.723 0.697007 0.140363 0
M  V30 3427 H 321.325 1.93118 -0.304282 0
M  V30 3428 H 320.029 4.10381 0.0398967 0
M  V30 3429 H 319.56 3.56643 1.6604 0
M  V30 3430 H 321.575 4.09049 2.8088 0
M  V30 3431 N 320.748 -0.0735177 1.57428 0
M  V30 3432 C 321.988 -0.778363 1.89 0
M  V30 3433 C 322.352 -1.7483 0.793634 0
M  V30 3434 O 323.553 -2.49811 0.992367 0
M  V30 3435 C 321.824 -1.46929 3.25802 0
M  V30 3436 S 323.383 -2.20943 3.79117 0
M  V30 3437 H 320.201 -0.258874 0.662197 0
M  V30 3438 H 322.803 -0.0345338 1.95469 0
M  V30 3439 H 321.507 -0.749532 4.03497 0
M  V30 3440 H 321.038 -2.25258 3.22525 0
M  V30 3441 H 323.053 -3.47435 3.54265 0
M  V30 3442 N 322.226 -1.5378 -0.344866 0
M  V30 3443 C 323.173 -1.81676 -1.42346 0
M  V30 3444 C 324.143 -0.662376 -1.52321 0
M  V30 3445 O 325.328 -0.906675 -1.67881 0
M  V30 3446 C 322.468 -2.03087 -2.79015 0
M  V30 3447 C 321.581 -3.30799 -2.77842 0
M  V30 3448 C 320.716 -3.42285 -4.0622 0
M  V30 3449 C 319.755 -4.6395 -3.9927 0
M  V30 3450 N 318.892 -4.72477 -5.19336 0
M  V30 3451 H 323.732 -2.73703 -1.17858 0
M  V30 3452 H 321.269 -1.35568 -0.570949 0
M  V30 3453 H 323.227 -2.1349 -3.58438 0
M  V30 3454 H 321.857 -1.14375 -3.01858 0
M  V30 3455 H 320.909 -3.29244 -1.90533 0
M  V30 3456 H 322.221 -4.20314 -2.68584 0
M  V30 3457 H 321.375 -3.52113 -4.94066 0
M  V30 3458 H 320.114 -2.50823 -4.18258 0
M  V30 3459 H 319.119 -4.54201 -3.09809 0
M  V30 3460 H 320.344 -5.56775 -3.88817 0
M  V30 3461 H 318.29 -3.83924 -5.3192 0
M  V30 3462 H 318.207 -5.55927 -5.12329 0
M  V30 3463 H 319.475 -4.86613 -6.08957 0
M  V30 3464 N 323.704 0.605807 -1.45491 0
M  V30 3465 C 324.651 1.7164 -1.54299 0
M  V30 3466 C 325.621 1.61486 -0.388761 0
M  V30 3467 O 326.806 1.81039 -0.602445 0
M  V30 3468 C 323.946 3.09953 -1.51734 0
M  V30 3469 C 323.059 3.309 -2.77721 0
M  V30 3470 C 322.194 4.59329 -2.66816 0
M  V30 3471 C 321.233 4.7354 -3.87848 0
M  V30 3472 N 320.37 5.9327 -3.75467 0
M  V30 3473 H 325.21 1.63449 -2.49176 0
M  V30 3474 H 322.747 0.796957 -1.23641 0
M  V30 3475 H 324.705 3.89977 -1.48235 0
M  V30 3476 H 323.335 3.17098 -0.604068 0
M  V30 3477 H 322.387 2.44639 -2.913 0
M  V30 3478 H 323.699 3.37274 -3.67488 0
M  V30 3479 H 322.853 5.4755 -2.61292 0
M  V30 3480 H 321.592 4.55355 -1.74651 0
M  V30 3481 H 320.597 3.83741 -3.93729 0
M  V30 3482 H 321.822 4.79309 -4.81082 0
M  V30 3483 H 319.768 5.90338 -2.86072 0
M  V30 3484 H 319.685 6.00811 -4.5887 0
M  V30 3485 H 320.953 6.83984 -3.73879 0
M  V30 3486 N 325.182 1.32811 0.848464 0
M  V30 3487 C 326.459 1.14334 1.58704 0
M  V30 3488 C 326.839 -0.293948 2.09043 0
M  V30 3489 O 326.187 -1.29153 1.88499 0
M  V30 3490 C 326.397 2.17626 2.72837 0
M  V30 3491 C 327.745 2.51282 3.42261 0
M  V30 3492 O 328.769 2.16219 2.83068 0
M  V30 3493 O 327.628 3.11413 4.49093 0
M  V30 3494 H 324.722 0.441601 0.699226 0
M  V30 3495 H 327.268 1.44362 0.892053 0
M  V30 3496 H 326.04 3.14211 2.3321 0
M  V30 3497 H 325.663 1.88628 3.50008 0
M  V30 3498 N 326.66 -1.06551 1.16123 0
M  V30 3499 C 327.909 -1.78687 0.935622 0
M  V30 3500 C 328.222 -1.88056 -0.538001 0
M  V30 3501 O 329.428 -2.56794 -0.88143 0
M  V30 3502 C 327.884 -3.21143 1.62466 0
M  V30 3503 C 327.492 -3.19949 3.13587 0
M  V30 3504 C 329.236 -3.9783 1.48092 0
M  V30 3505 C 327.143 -4.57108 3.75241 0
M  V30 3506 H 326.073 -0.669712 0.346412 0
M  V30 3507 H 328.724 -1.19534 1.39226 0
M  V30 3508 H 327.106 -3.80539 1.09572 0
M  V30 3509 H 328.28 -2.70151 3.73303 0
M  V30 3510 H 326.595 -2.5676 3.27816 0
M  V30 3511 H 329.192 -4.99217 1.91538 0
M  V30 3512 H 329.535 -4.14078 0.429507 0
M  V30 3513 H 330.068 -3.4495 1.98127 0
M  V30 3514 H 326.807 -4.46065 4.80319 0
M  V30 3515 H 326.327 -5.07111 3.20309 0
M  V30 3516 H 328.006 -5.26069 3.76644 0
M  V30 3517 N 328.138 -0.959301 -1.25041 0
M  V30 3518 C 329.384 -0.617525 -1.9317 0
M  V30 3519 C 329.717 0.843981 -1.74902 0
M  V30 3520 O 328.992 1.60615 -1.09696 0
M  V30 3521 C 329.275 -0.982736 -3.46431 0
M  V30 3522 C 329.128 -2.50032 -3.73904 0
M  V30 3523 C 330.447 -0.511176 -4.37121 0
M  V30 3524 H 327.566 -0.22582 -0.701552 0
M  V30 3525 H 330.208 -1.19679 -1.4757 0
M  V30 3526 H 328.358 -0.489806 -3.854 0
M  V30 3527 H 330.03 -3.06737 -3.44544 0
M  V30 3528 H 328.273 -2.93598 -3.19348 0
M  V30 3529 H 328.944 -2.70635 -4.81103 0
M  V30 3530 H 331.42 -0.934075 -4.0548 0
M  V30 3531 H 330.296 -0.795361 -5.43107 0
M  V30 3532 H 330.557 0.588834 -4.38161 0
M  V30 3533 N 329.616 1.39756 -0.72842 0
M  V30 3534 C 330.563 2.30647 -0.0841519 0
M  V30 3535 C 331.533 1.48869 0.7367 0
M  V30 3536 O 332.718 1.77574 0.698015 0
M  V30 3537 C 329.858 3.35165 0.822091 0
M  V30 3538 C 328.971 4.31999 -0.0106663 0
M  V30 3539 C 328.106 5.23585 0.896241 0
M  V30 3540 C 327.145 6.12072 0.0583381 0
M  V30 3541 N 326.282 6.96035 0.920818 0
M  V30 3542 H 331.122 2.85173 -0.864891 0
M  V30 3543 H 328.659 1.40422 -0.438179 0
M  V30 3544 H 330.617 3.94345 1.36189 0
M  V30 3545 H 329.247 2.8211 1.56888 0
M  V30 3546 H 328.299 3.74492 -0.66781 0
M  V30 3547 H 329.611 4.9443 -0.658825 0
M  V30 3548 H 328.765 5.87759 1.50412 0
M  V30 3549 H 327.504 4.61459 1.57819 0
M  V30 3550 H 326.509 5.46916 -0.562389 0
M  V30 3551 H 327.734 6.76261 -0.6203 0
M  V30 3552 H 325.68 6.36485 1.58818 0
M  V30 3553 H 325.597 7.55284 0.32899 0
M  V30 3554 H 326.865 7.64646 1.51447 0
M  V30 3555 N 331.094 0.475555 1.50254 0
M  V30 3556 C 332.024 -0.30611 2.31485 0
M  V30 3557 C 333.005 -0.986228 1.38591 0
M  V30 3558 O 334.19 -0.982541 1.67511 0
M  V30 3559 C 331.32 -1.38588 3.1845 0
M  V30 3560 C 330.274 -0.827115 4.19932 0
M  V30 3561 C 329.6 -2.00551 4.95665 0
M  V30 3562 C 330.9 0.16463 5.2204 0
M  V30 3563 H 332.594 0.371866 2.97082 0
M  V30 3564 H 330.14 0.180282 1.42867 0
M  V30 3565 H 332.093 -1.94023 3.74076 0
M  V30 3566 H 330.817 -2.09269 2.50747 0
M  V30 3567 H 329.476 -0.294702 3.65414 0
M  V30 3568 H 329.124 -2.6994 4.2443 0
M  V30 3569 H 328.824 -1.63784 5.64313 0
M  V30 3570 H 330.348 -2.56468 5.54127 0
M  V30 3571 H 331.762 -0.300699 5.72511 0
M  V30 3572 H 330.159 0.446813 5.98434 0
M  V30 3573 H 331.229 1.08905 4.72512 0
M  V30 3574 N 332.573 -1.56217 0.208337 0
M  V30 3575 C 333.819 -1.98242 -0.427552 0
M  V30 3576 C 334.152 -1.09554 -1.60348 0
M  V30 3577 O 333.427 -0.15035 -1.93918 0
M  V30 3578 C 333.71 -3.4931 -0.874907 0
M  V30 3579 C 333.563 -4.48773 0.303751 0
M  V30 3580 C 334.882 -4.04424 -1.73577 0
M  V30 3581 H 332.001 -0.720744 -0.153936 0
M  V30 3582 H 334.643 -1.87586 0.30192 0
M  V30 3583 H 332.793 -3.58522 -1.49648 0
M  V30 3584 H 334.465 -4.51586 0.941682 0
M  V30 3585 H 332.708 -4.23194 0.953375 0
M  V30 3586 H 333.379 -5.51976 -0.0519883 0
M  V30 3587 H 335.855 -3.98075 -1.21143 0
M  V30 3588 H 334.731 -5.1047 -2.01771 0
M  V30 3589 H 334.992 -3.50494 -2.69456 0
M  V30 3590 N 334.051 0.0651679 -1.57465 0
M  V30 3591 C 335.462 0.616213 -1.76238 0
M  V30 3592 C 335.813 1.7756 -0.834689 0
M  V30 3593 O 334.938 2.1639 -0.0204156 0
M  V30 3594 C 335.533 1.12462 -3.1959 0
M  V30 3595 C 334.092 1.62147 -3.39684 0
M  V30 3596 C 333.239 0.543739 -2.71917 0
M  V30 3597 H 336.19 -0.161022 -1.57881 0
M  V30 3598 H 336.211 1.99324 -3.24114 0
M  V30 3599 H 335.723 0.280592 -3.87084 0
M  V30 3600 H 333.824 2.48854 -2.77313 0
M  V30 3601 H 333.937 1.69385 -4.48158 0
M  V30 3602 H 332.301 0.990352 -2.34657 0
M  V30 3603 H 333.084 -0.290216 -3.42071 0
M  V30 3604 N 335.529 1.53961 0.336706 0
M  V30 3605 C 336.461 1.78751 1.4346 0
M  V30 3606 C 337.474 0.669019 1.48418 0
M  V30 3607 O 338.663 0.945884 1.51378 0
M  V30 3608 C 335.763 1.87844 2.82078 0
M  V30 3609 C 334.936 3.17854 3.00479 0
M  V30 3610 C 333.995 3.17816 4.19379 0
M  V30 3611 O 333.021 3.91511 4.13168 0
M  V30 3612 N 334.223 2.40669 5.2826 0
M  V30 3613 H 336.988 2.73493 1.22563 0
M  V30 3614 H 334.549 1.53096 0.526625 0
M  V30 3615 H 336.541 1.85261 3.59806 0
M  V30 3616 H 335.111 1.00257 2.96086 0
M  V30 3617 H 334.331 3.33504 2.10163 0
M  V30 3618 H 335.619 4.03718 3.0966 0
M  V30 3619 H 335.017 1.8036 5.36178 0
M  V30 3620 H 333.574 2.43877 6.04456 0
M  V30 3621 N 337.007 -0.598083 1.45811 0
M  V30 3622 C 338.237 -1.38121 1.53643 0
M  V30 3623 C 338.645 -1.88425 0.171081 0
M  V30 3624 O 337.988 -1.63409 -0.839237 0
M  V30 3625 C 338.05 -2.61432 2.46766 0
M  V30 3626 C 337.714 -2.32702 3.93318 0
M  V30 3627 C 338.711 -1.92479 4.82957 0
M  V30 3628 C 336.396 -2.45321 4.38318 0
M  V30 3629 C 338.39 -1.65248 6.15607 0
M  V30 3630 C 336.077 -2.17703 5.71007 0
M  V30 3631 C 337.075 -1.7773 6.5947 0
M  V30 3632 O 336.763 -1.50441 7.89698 0
M  V30 3633 H 336.495 -0.428863 0.522544 0
M  V30 3634 H 339.049 -0.73557 1.91777 0
M  V30 3635 H 337.279 -3.28749 2.0362 0
M  V30 3636 H 338.968 -3.23487 2.45175 0
M  V30 3637 H 339.734 -1.82258 4.49452 0
M  V30 3638 H 335.613 -2.75399 3.69697 0
M  V30 3639 H 339.157 -1.33973 6.84614 0
M  V30 3640 H 335.054 -2.27544 6.04065 0
M  V30 3641 H 335.822 -1.64415 8.01817 0
M  V30 3642 N 338.485 -1.33259 -0.841409 0
M  V30 3643 C 339.713 -1.27605 -1.62864 0
M  V30 3644 C 340.128 0.153507 -1.88175 0
M  V30 3645 O 339.485 1.09485 -1.46011 0
M  V30 3646 C 339.536 -2.04596 -2.98031 0
M  V30 3647 O 339.257 -3.41975 -2.73834 0
M  V30 3648 C 340.758 -2.06122 -3.92465 0
M  V30 3649 H 337.978 -0.439718 -0.506842 0
M  V30 3650 H 340.522 -1.75591 -1.04824 0
M  V30 3651 H 338.677 -1.60299 -3.5268 0
M  V30 3652 H 339.091 -3.81549 -3.59889 0
M  V30 3653 H 340.565 -2.64451 -4.84531 0
M  V30 3654 H 341.042 -1.05083 -4.26444 0
M  V30 3655 H 341.648 -2.50427 -3.43753 0
M  V30 3656 N 339.963 1.05934 -1.16686 0
M  V30 3657 C 340.911 2.15603 -0.872817 0
M  V30 3658 C 341.905 1.68647 0.159576 0
M  V30 3659 O 343.111 1.79995 0.0132125 0
M  V30 3660 H 339.486 0.703885 -0.264671 0
M  V30 3661 H 341.457 2.37613 -1.80507 0
M  V30 3662 C 340.206 3.45457 -0.394344 0
M  V30 3663 H 339.529 3.81984 -1.18019 0
M  V30 3664 H 340.969 4.2339 -0.227408 0
M  V30 3665 C 339.428 3.25021 0.88673 0
M  V30 3666 O 339.958 3.50906 1.95519 0
M  V30 3667 N 338.164 2.78437 0.831925 0
M  V30 3668 H 337.711 2.57572 -0.0377619 0
M  V30 3669 H 337.669 2.65144 1.68956 0
M  V30 3670 N 341.441 0.965919 1.2453 0
M  V30 3671 C 342.689 0.625593 1.92174 0
M  V30 3672 C 343.01 -0.841652 1.75901 0
M  V30 3673 O 342.28 -1.60061 1.12948 0
M  V30 3674 H 340.86 0.228388 0.71123 0
M  V30 3675 H 343.522 1.2266 1.51461 0
M  V30 3676 H 342.618 0.864653 2.99884 0
M  V30 3677 N 342.919 -1.39368 0.735821 0
M  V30 3678 C 343.829 -2.34395 0.0979693 0
M  V30 3679 C 344.845 -1.58361 -0.720968 0
M  V30 3680 O 346.021 -1.90648 -0.649245 0
M  V30 3681 C 343.086 -3.37393 -0.797916 0
M  V30 3682 C 342.147 -4.29287 0.0333662 0
M  V30 3683 C 341.38 -5.27365 -0.819854 0
M  V30 3684 O 341.603 -5.31959 -2.05855 0
M  V30 3685 O 340.537 -6.01389 -0.248079 0
M  V30 3686 H 344.363 -2.90601 0.882315 0
M  V30 3687 H 341.948 -1.40909 0.4965 0
M  V30 3688 H 343.83 -4.00505 -1.31048 0
M  V30 3689 H 342.505 -2.83571 -1.56106 0
M  V30 3690 H 341.412 -3.69395 0.591475 0
M  V30 3691 H 342.745 -4.86317 0.758752 0
M  V30 3692 N 344.397 -0.483516 -1.5 0
M  V30 3693 C 345.646 0.0689102 -2.01582 0
M  V30 3694 C 345.959 1.39655 -1.36952 0
M  V30 3695 O 347.165 2.03465 -1.79762 0
M  V30 3696 C 345.621 0.173302 -3.59483 0
M  V30 3697 C 345.229 -1.14665 -4.33077 0
M  V30 3698 C 346.973 0.677024 -4.19066 0
M  V30 3699 C 344.88 -1.00537 -5.82792 0
M  V30 3700 H 343.81 0.0295277 -0.753422 0
M  V30 3701 H 346.461 -0.620295 -1.72698 0
M  V30 3702 H 344.843 0.926569 -3.85007 0
M  V30 3703 H 346.017 -1.91184 -4.19268 0
M  V30 3704 H 344.332 -1.58244 -3.85159 0
M  V30 3705 H 346.929 0.799952 -5.28682 0
M  V30 3706 H 347.272 1.67151 -3.81269 0
M  V30 3707 H 347.805 -0.0192083 -3.97795 0
M  V30 3708 H 344.544 -1.9736 -6.25083 0
M  V30 3709 H 344.064 -0.280776 -5.99142 0
M  V30 3710 H 345.743 -0.677 -6.43448 0
M  V30 3711 N 345.875 1.56104 -0.216619 0
M  V30 3712 C 346.805 2.23063 0.690296 0
M  V30 3713 C 347.786 1.20072 1.20485 0
M  V30 3714 O 348.971 1.48643 1.24976 0
M  V30 3715 C 346.101 2.90672 1.90072 0
M  V30 3716 C 345.055 4.00092 1.5202 0
M  V30 3717 C 344.381 4.54972 2.80899 0
M  V30 3718 C 345.681 5.17398 0.71391 0
M  V30 3719 H 347.375 2.99109 0.132038 0
M  V30 3720 H 344.921 1.43866 0.0620664 0
M  V30 3721 H 346.874 3.36204 2.54057 0
M  V30 3722 H 345.598 2.12066 2.48386 0
M  V30 3723 H 344.257 3.55283 0.903839 0
M  V30 3724 H 343.905 3.73102 3.37348 0
M  V30 3725 H 343.605 5.28817 2.56176 0
M  V30 3726 H 345.129 5.0322 3.45836 0
M  V30 3727 H 346.543 5.59342 1.25735 0
M  V30 3728 H 344.94 5.97444 0.563951 0
M  V30 3729 H 346.01 4.84088 -0.280527 0
M  V30 3730 O 347.392 0.0802023 1.61301 0
M  V30 3731 H 348.083 -0.524716 1.86458 0
M  V30 END ATOM
M  V30 BEGIN BOND
M  V30 END BOND
M  V30 END CTAB
M  END
$$$$
