drugbank_target|Q5SLQ0 30S ribosomal protein S18 (DB08185)
 OpenBabel12092120483D

  0  0  0     0  0            999 V3000
M  V30 BEGIN CTAB
M  V30 COUNTS 1528 1535 0 0 0
M  V30 BEGIN ATOM
M  V30 1 H -0.908 1.98254 -0.117106 0
M  V30 2 N 0 1.576 0 0
M  V30 3 C 0.933 2.03868 1.02534 0
M  V30 4 C 1.911 0.928543 1.3348 0
M  V30 5 O 3.095 1.19667 1.45644 0
M  V30 6 C 0.222 2.43627 2.35294 0
M  V30 7 C -0.732 3.65373 2.2001 0
M  V30 8 S 0.101 5.13292 1.52614 0
M  V30 9 C 1.257 5.56322 2.86805 0
M  V30 10 H 1.49 2.90518 0.631377 0
M  V30 11 H -0.977 1.52953 0.210867 0
M  V30 12 H 0.981 2.67203 3.11629 0
M  V30 13 H -0.358 1.57376 2.7183 0
M  V30 14 H -1.165 3.90944 3.18086 0
M  V30 15 H -1.563 3.418 1.51819 0
M  V30 16 H 0.729 5.58782 3.83104 0
M  V30 17 H 1.672 6.56266 2.65933 0
M  V30 18 H 2.08 4.83886 2.90714 0
M  V30 19 N 1.4781 -0.272755 1.55222 0
M  V30 20 C 2.7031 -1.02683 1.80197 0
M  V30 21 C 3.1281 -1.79142 0.573551 0
M  V30 22 O 2.4861 -1.74917 -0.476849 0
M  V30 23 C 2.5341 -1.9609 3.02624 0
M  V30 24 O 1.6381 -3.04863 2.77727 0
M  V30 25 H 0.9791 -0.293557 0.595584 0
M  V30 26 H 3.5091 -0.30159 2.02365 0
M  V30 27 H 3.5191 -2.38039 3.31363 0
M  V30 28 H 2.1941 -1.39851 3.91682 0
M  V30 29 H 0.7711 -2.67228 2.60084 0
M  V30 30 N 2.9562 -1.48159 -0.537278 0
M  V30 31 C 4.1842 -1.59454 -1.31841 0
M  V30 32 C 4.5992 -0.252065 -1.8711 0
M  V30 33 O 3.9562 0.757621 -1.66031 0
M  V30 34 C 4.0072 -2.63546 -2.47439 0
M  V30 35 O 3.7282 -3.92583 -1.94449 0
M  V30 36 C 5.2292 -2.85212 -3.39366 0
M  V30 37 H 2.4492 -0.53785 -0.401196 0
M  V30 38 H 4.9932 -1.93932 -0.648891 0
M  V30 39 H 3.1482 -2.31946 -3.1029 0
M  V30 40 H 3.5622 -4.49629 -2.70063 0
M  V30 41 H 5.0362 -3.61863 -4.16844 0
M  V30 42 H 5.5132 -1.93765 -3.94147 0
M  V30 43 H 6.1192 -3.18086 -2.82314 0
M  V30 44 N 4.4343 0.785586 -1.36625 0
M  V30 45 C 5.3813 1.89838 -1.31264 0
M  V30 46 C 6.3513 1.65115 -0.180633 0
M  V30 47 O 7.5363 1.87222 -0.36777 0
M  V30 48 C 4.6763 3.26706 -1.11163 0
M  V30 49 C 3.7893 3.63476 -2.33472 0
M  V30 50 C 2.9243 4.89481 -2.06353 0
M  V30 51 C 1.9633 5.18941 -3.24602 0
M  V30 52 N 1.1003 6.36131 -2.97123 0
M  V30 53 H 5.9403 1.93756 -2.26413 0
M  V30 54 H 3.4773 0.947454 -1.12524 0
M  V30 55 H 5.4353 4.05639 -0.975337 0
M  V30 56 H 4.0653 3.222 -0.196674 0
M  V30 57 H 3.1173 2.79636 -2.57891 0
M  V30 58 H 4.4293 3.81193 -3.21704 0
M  V30 59 H 3.5833 5.76288 -1.89675 0
M  V30 60 H 2.3223 4.73841 -1.15437 0
M  V30 61 H 1.3273 4.30615 -3.41834 0
M  V30 62 H 2.5523 5.36498 -4.16349 0
M  V30 63 H 0.4983 6.21875 -2.08823 0
M  V30 64 H 0.4153 6.54198 -3.78894 0
M  V30 65 H 1.6833 7.2591 -2.84033 0
M  V30 66 N 5.9124 1.20967 1.01018 0
M  V30 67 C 6.8604 0.961223 2.1181 0
M  V30 68 C 7.8544 -0.0897034 1.69162 0
M  V30 69 O 9.0604 0.0612271 1.79896 0
M  V30 70 H 5.4354 0.29355 0.692338 0
M  V30 71 H 7.4064 1.90178 2.29946 0
M  V30 72 C 6.1554 0.536854 3.4353 0
M  V30 73 H 5.4784 1.33713 3.76777 0
M  V30 74 H 6.9184 0.402286 4.22087 0
M  V30 75 C 5.3774 -0.751574 3.2841 0
M  V30 76 O 5.9074 -1.80841 3.58691 0
M  V30 77 N 4.1134 -0.716079 2.81639 0
M  V30 78 H 3.6604 0.144236 2.57196 0
M  V30 79 H 3.6184 -1.57847 2.71904 0
M  V30 80 N 7.3905 -1.2043 1.01659 0
M  V30 81 C 8.3535 -2.21433 0.591616 0
M  V30 82 C 9.3535 -1.57203 -0.338226 0
M  V30 83 O 10.5435 -1.73737 -0.126918 0
M  V30 84 C 7.6755 -3.40628 -0.136058 0
M  V30 85 H 8.8685 -2.60545 1.48514 0
M  V30 86 H 6.4215 -1.33893 0.806379 0
M  V30 87 H 7.1565 -3.07019 -1.04449 0
M  V30 88 H 6.9415 -3.88475 0.531917 0
M  V30 89 H 8.4315 -4.15475 -0.420735 0
M  V30 90 N 8.8686 -0.792821 -1.36206 0
M  V30 91 C 9.8156 -0.191653 -2.30003 0
M  V30 92 C 10.7856 0.666453 -1.52143 0
M  V30 93 O 11.9706 0.61442 -1.80636 0
M  V30 94 C 9.1106 0.664848 -3.38635 0
M  V30 95 C 8.2236 -0.212175 -4.31479 0
M  V30 96 C 7.3586 0.651022 -5.27196 0
M  V30 97 C 6.3976 -0.227247 -6.11678 0
M  V30 98 N 5.5346 0.595127 -6.99573 0
M  V30 99 H 10.3746 -0.996978 -2.80828 0
M  V30 100 H 7.9116 -0.503206 -1.38225 0
M  V30 101 H 9.8696 1.17645 -4.00269 0
M  V30 102 H 8.4996 1.43557 -2.89122 0
M  V30 103 H 7.5516 -0.841777 -3.70969 0
M  V30 104 H 8.8636 -0.888751 -4.90818 0
M  V30 105 H 8.0176 1.2283 -5.94136 0
M  V30 106 H 6.7566 1.36121 -4.68319 0
M  V30 107 H 5.7616 -0.816904 -5.43697 0
M  V30 108 H 6.9866 -0.93509 -6.72631 0
M  V30 109 H 4.9326 1.28955 -6.432 0
M  V30 110 H 4.8496 -0.0236952 -7.55996 0
M  V30 111 H 6.1176 1.15613 -7.70879 0
M  V30 112 N 10.3467 1.47872 -0.545128 0
M  V30 113 C 11.7577 1.86384 -0.108581 0
M  V30 114 C 12.1087 1.45309 1.31832 0
M  V30 115 O 11.2337 0.850641 1.9898 0
M  V30 116 C 11.8287 3.38265 -0.190274 0
M  V30 117 C 10.3877 3.75914 0.191164 0
M  V30 118 C 9.5347 2.71926 -0.543273 0
M  V30 119 H 12.4857 1.39561 -0.755537 0
M  V30 120 H 12.5067 3.75831 0.594217 0
M  V30 121 H 12.0187 3.6813 -1.2289 0
M  V30 122 H 10.1197 3.51665 1.23136 0
M  V30 123 H 10.2327 4.78836 -0.158987 0
M  V30 124 H 8.5967 2.54697 0.0122495 0
M  V30 125 H 9.3797 3.04634 -1.58282 0
M  V30 126 N 11.8248 0.280983 1.55075 0
M  V30 127 C 12.7718 -0.603937 2.22758 0
M  V30 128 C 13.7418 -1.1452 1.20309 0
M  V30 129 O 14.9268 -1.19343 1.48869 0
M  V30 130 C 12.0668 -1.77947 2.95684 0
M  V30 131 C 11.1798 -1.2715 4.12864 0
M  V30 132 C 10.3148 -2.4093 4.7342 0
M  V30 133 C 9.3538 -1.87165 5.82783 0
M  V30 134 N 8.4908 -2.94441 6.37377 0
M  V30 135 H 13.3308 -0.020124 2.97993 0
M  V30 136 H 10.8678 0.00183425 1.471 0
M  V30 137 H 12.8258 -2.47055 3.36184 0
M  V30 138 H 11.4558 -2.33522 2.22861 0
M  V30 139 H 10.5078 -0.473331 3.77444 0
M  V30 140 H 11.8198 -0.837751 4.91715 0
M  V30 141 H 10.9738 -3.18021 5.1667 0
M  V30 142 H 9.7128 -2.87623 3.93859 0
M  V30 143 H 8.7178 -1.08556 5.38976 0
M  V30 144 H 9.9428 -1.41401 6.64216 0
M  V30 145 H 7.8888 -3.40505 5.60707 0
M  V30 146 H 7.8058 -2.55501 7.11516 0
M  V30 147 H 9.0738 -3.71489 6.85285 0
M  V30 148 N 13.3029 -1.57598 0.00835791 0
M  V30 149 C 14.2499 -2.08945 -0.980346 0
M  V30 150 C 15.2199 -0.986738 -1.33614 0
M  V30 151 O 16.4049 -1.25968 -1.43306 0
M  V30 152 C 13.5449 -2.60425 -2.26435 0
M  V30 153 C 12.6579 -3.84628 -1.96685 0
M  V30 154 C 11.7929 -4.24579 -3.19228 0
M  V30 155 C 10.8319 -5.41596 -2.85202 0
M  V30 156 N 9.9689 -5.768 -4.00307 0
M  V30 157 H 14.8089 -2.93148 -0.535551 0
M  V30 158 H 12.3459 -1.44912 -0.252776 0
M  V30 159 H 14.3039 -2.88354 -3.01509 0
M  V30 160 H 12.9339 -1.79083 -2.68568 0
M  V30 161 H 11.9859 -3.63556 -1.11942 0
M  V30 162 H 13.2979 -4.69796 -1.67611 0
M  V30 163 H 12.4519 -4.53834 -4.02641 0
M  V30 164 H 11.1909 -3.38137 -3.51447 0
M  V30 165 H 10.1959 -5.12056 -2.00198 0
M  V30 166 H 11.4209 -6.29721 -2.54222 0
M  V30 167 H 9.3669 -4.93316 -4.32407 0
M  V30 168 H 9.2839 -6.5656 -3.74786 0
M  V30 169 H 10.5519 -6.10652 -4.84484 0
M  V30 170 N 14.781 0.264519 -1.55364 0
M  V30 171 C 15.691 1.34902 -1.91934 0
M  V30 172 C 16.707 1.53595 -0.817593 0
M  V30 173 O 17.883 1.67558 -1.11742 0
M  V30 174 C 14.948 2.68676 -2.19121 0
M  V30 175 C 14.009 2.58657 -3.4263 0
M  V30 176 C 13.242 3.86051 -3.68511 0
M  V30 177 O 13.465 4.87126 -2.96757 0
M  V30 178 O 12.399 3.85744 -4.62045 0
M  V30 179 H 16.225 1.06883 -2.8427 0
M  V30 180 H 13.81 0.463775 -1.42019 0
M  V30 181 H 15.692 3.47759 -2.37995 0
M  V30 182 H 14.367 2.96463 -1.29966 0
M  V30 183 H 13.274 1.7792 -3.29082 0
M  V30 184 H 14.607 2.35818 -4.32031 0
M  V30 185 N 16.2591 1.48442 0.529413 0
M  V30 186 C 17.2221 1.62524 1.61612 0
M  V30 187 C 18.2221 0.498509 1.52877 0
M  V30 188 O 19.4121 0.76431 1.56537 0
M  V30 189 C 16.5441 1.59597 3.01233 0
M  V30 190 H 17.7371 2.59423 1.50465 0
M  V30 191 H 15.2901 1.37047 0.751514 0
M  V30 192 H 16.0251 0.641781 3.17886 0
M  V30 193 H 15.8101 2.41397 3.08982 0
M  V30 194 H 17.3001 1.72646 3.80241 0
M  V30 195 N 17.7372 -0.778329 1.37039 0
M  V30 196 C 18.6692 -1.90034 1.2814 0
M  V30 197 C 19.6822 -1.61585 0.198558 0
M  V30 198 O 20.8712 -1.72625 0.454175 0
M  V30 199 C 17.9712 -3.25108 0.956968 0
M  V30 200 C 17.1442 -3.81253 2.14394 0
M  V30 201 C 16.2032 -4.94789 1.79082 0
M  V30 202 O 15.2292 -5.10721 2.51301 0
M  V30 203 N 16.4312 -5.75878 0.731043 0
M  V30 204 H 19.1962 -1.98186 2.24816 0
M  V30 205 H 16.7572 -0.957129 1.30578 0
M  V30 206 H 18.7492 -3.9857 0.701701 0
M  V30 207 H 17.3192 -3.125 0.0789812 0
M  V30 208 H 16.5392 -2.99647 2.56135 0
M  V30 209 H 17.8272 -4.15495 2.93668 0
M  V30 210 H 17.2252 -5.65547 0.131618 0
M  V30 211 H 15.7822 -6.49596 0.535622 0
M  V30 212 N 19.2153 -1.21501 -1.00376 0
M  V30 213 C 20.6313 -0.972629 -1.26539 0
M  V30 214 C 20.8313 0.340257 -1.98606 0
M  V30 215 O 19.8873 1.06561 -2.28913 0
M  V30 216 C 21.2003 -2.16404 -2.08781 0
M  V30 217 C 22.7483 -2.20643 -2.22004 0
M  V30 218 C 23.2233 -3.39306 -3.07629 0
M  V30 219 N 24.7143 -3.39401 -3.15217 0
M  V30 220 C 25.4493 -4.27867 -3.81729 0
M  V30 221 N 24.9453 -5.26533 -4.5026 0
M  V30 222 N 26.7383 -4.15672 -3.78382 0
M  V30 223 H 18.8893 -2.05929 -0.520281 0
M  V30 224 H 21.1523 -0.901803 -0.292328 0
M  V30 225 H 20.8583 -3.11554 -1.63178 0
M  V30 226 H 20.7323 -2.15567 -3.09533 0
M  V30 227 H 23.1193 -1.26048 -2.66825 0
M  V30 228 H 23.2003 -2.25523 -1.20718 0
M  V30 229 H 22.8443 -4.34195 -2.63509 0
M  V30 230 H 22.7743 -3.31665 -4.09031 0
M  V30 231 H 25.2653 -2.67997 -2.66432 0
M  V30 232 H 25.5783 -5.90337 -4.98721 0
M  V30 233 H 23.9233 -5.30457 -4.49044 0
M  V30 234 H 27.1143 -3.3785 -3.23998 0
M  V30 235 H 27.2873 -4.84825 -4.2994 0
M  V30 236 N 20.6934 1.19889 -1.02296 0
M  V30 237 C 22.1094 1.41462 -0.738954 0
M  V30 238 C 22.3094 1.89721 0.678846 0
M  V30 239 O 21.3654 2.07016 1.4457 0
M  V30 240 C 22.6784 2.43083 -1.77005 0
M  V30 241 C 24.2264 2.5684 -1.78892 0
M  V30 242 C 24.7014 3.61709 -2.80945 0
M  V30 243 N 26.1924 3.69199 -2.79725 0
M  V30 244 C 26.9274 4.50019 -3.55345 0
M  V30 245 N 26.4234 5.34592 -4.40662 0
M  V30 246 N 28.2164 4.44612 -3.43914 0
M  V30 247 H 20.3674 0.868827 -1.93817 0
M  V30 248 H 22.6304 0.44399 -0.837602 0
M  V30 249 H 22.3364 2.14636 -2.78612 0
M  V30 250 H 22.2104 3.4217 -1.58744 0
M  V30 251 H 24.5974 2.84614 -0.779674 0
M  V30 252 H 24.6784 1.57927 -2.01228 0
M  V30 253 H 24.3224 3.34678 -3.82038 0
M  V30 254 H 24.2524 4.60259 -2.5587 0
M  V30 255 H 26.7434 3.08794 -2.17842 0
M  V30 256 H 27.0564 5.93363 -4.95116 0
M  V30 257 H 25.4014 5.34073 -4.44737 0
M  V30 258 H 28.5924 3.7758 -2.76679 0
M  V30 259 H 28.7654 5.0736 -4.031 0
M  V30 260 N 22.1715 0.800033 1.35784 0
M  V30 261 C 23.5825 0.439142 1.81462 0
M  V30 262 C 23.9335 -1.03813 1.66485 0
M  V30 263 O 23.0585 -1.80626 1.19177 0
M  V30 264 C 23.6535 0.790314 3.29453 0
M  V30 265 C 22.2125 0.482111 3.733 0
M  V30 266 C 21.3595 1.01938 2.57883 0
M  V30 267 H 24.3105 0.992254 1.23855 0
M  V30 268 H 24.3315 0.0853677 3.80404 0
M  V30 269 H 23.8435 1.86554 3.40322 0
M  V30 270 H 21.9445 -0.584652 3.67984 0
M  V30 271 H 22.0575 1.01015 4.6833 0
M  V30 272 H 20.4215 0.442043 2.50835 0
M  V30 273 H 21.2045 2.10059 2.71533 0
M  V30 274 N 23.6496 -1.47581 0.552962 0
M  V30 275 C 24.8746 -2.07378 0.0300593 0
M  V30 276 C 25.2996 -1.40355 -1.25229 0
M  V30 277 O 24.6576 -0.477099 -1.7491 0
M  V30 278 C 24.7056 -3.60274 -0.153231 0
M  V30 279 O 23.8096 -3.94041 -1.21678 0
M  V30 280 H 23.1506 -0.662158 0.0494182 0
M  V30 281 H 25.6806 -1.89662 0.767434 0
M  V30 282 H 25.6906 -4.0633 -0.368761 0
M  V30 283 H 24.3656 -4.08455 0.783397 0
M  V30 284 H 22.9426 -3.59735 -0.982079 0
M  V30 285 N 25.1277 -0.289203 -1.54924 0
M  V30 286 C 26.5437 0.0645403 -1.59469 0
M  V30 287 C 26.7437 1.53419 -1.30632 0
M  V30 288 O 25.7997 2.2852 -1.074 0
M  V30 289 C 27.1127 -0.32278 -2.98963 0
M  V30 290 C 28.6607 -0.270564 -3.11828 0
M  V30 291 C 29.1357 -0.632532 -4.53611 0
M  V30 292 N 30.6267 -0.584617 -4.59496 0
M  V30 293 C 31.3617 -0.837314 -5.67254 0
M  V30 294 N 30.8577 -1.15536 -6.83098 0
M  V30 295 N 32.6507 -0.765166 -5.56868 0
M  V30 296 H 24.8017 -1.24714 -1.71931 0
M  V30 297 H 27.0647 -0.504809 -0.802416 0
M  V30 298 H 26.7707 -1.34541 -3.24948 0
M  V30 299 H 26.6447 0.32944 -3.75759 0
M  V30 300 H 29.0317 0.742805 -2.85598 0
M  V30 301 H 29.1127 -0.957242 -2.37214 0
M  V30 302 H 28.7567 -1.64365 -4.80569 0
M  V30 303 H 28.6867 0.07609 -5.26545 0
M  V30 304 H 31.1777 -0.349248 -3.76283 0
M  V30 305 H 31.4907 -1.33447 -7.61191 0
M  V30 306 H 29.8357 -1.19328 -6.84679 0
M  V30 307 H 33.0267 -0.516432 -4.65243 0
M  V30 308 H 33.1997 -0.965477 -6.40767 0
M  V30 309 N 26.6058 1.57591 -0.0167156 0
M  V30 310 C 27.5528 2.09462 0.969251 0
M  V30 311 C 28.5228 0.99381 1.33089 0
M  V30 312 O 29.7078 1.26726 1.42636 0
M  V30 313 C 26.8478 2.61622 2.25051 0
M  V30 314 C 25.9608 3.85666 1.94642 0
M  V30 315 C 25.0958 4.26266 3.16972 0
M  V30 316 C 24.1348 5.43101 2.82326 0
M  V30 317 N 23.2718 5.78915 3.97243 0
M  V30 318 H 28.1118 2.93428 0.519997 0
M  V30 319 H 25.6488 1.45044 0.245087 0
M  V30 320 H 27.6068 2.89949 2.99976 0
M  V30 321 H 26.2368 1.80505 2.67615 0
M  V30 322 H 25.2888 3.64145 1.10013 0
M  V30 323 H 26.6008 4.70678 1.65117 0
M  V30 324 H 25.7548 4.55963 4.00228 0
M  V30 325 H 24.4938 3.39996 3.49648 0
M  V30 326 H 23.4988 5.1311 1.97479 0
M  V30 327 H 24.7238 6.3106 2.50879 0
M  V30 328 H 22.6698 4.95602 4.29785 0
M  V30 329 H 22.5868 6.58539 3.71299 0
M  V30 330 H 23.8548 6.13212 4.81239 0
M  V30 331 N 28.0839 -0.256276 1.55502 0
M  V30 332 C 29.0469 -1.30047 1.88734 0
M  V30 333 C 30.0469 -1.4154 0.763086 0
M  V30 334 O 31.2369 -1.40403 1.03115 0
M  V30 335 C 28.3689 -2.67953 2.10747 0
M  V30 336 H 29.5619 -1.01802 2.82093 0
M  V30 337 H 27.1149 -0.495134 1.4825 0
M  V30 338 H 27.8499 -3.01351 1.19825 0
M  V30 339 H 27.6349 -2.60993 2.92617 0
M  V30 340 H 29.1249 -3.43368 2.37673 0
M  V30 341 N 29.562 -1.4872 -0.521534 0
M  V30 342 C 30.509 -1.63871 -1.62527 0
M  V30 343 C 31.479 -0.480559 -1.58996 0
M  V30 344 O 32.664 -0.705085 -1.77294 0
M  V30 345 C 29.804 -1.69227 -3.00759 0
M  V30 346 C 28.917 -2.96207 -3.14461 0
M  V30 347 C 28.052 -2.92671 -4.43303 0
M  V30 348 C 27.091 -4.14318 -4.50563 0
M  V30 349 N 26.228 -4.0881 -5.70805 0
M  V30 350 H 31.068 -2.58123 -1.48918 0
M  V30 351 H 28.605 -1.28 -0.724878 0
M  V30 352 H 30.563 -1.70314 -3.80853 0
M  V30 353 H 29.193 -0.784586 -3.1312 0
M  V30 354 H 28.245 -3.04826 -2.27564 0
M  V30 355 H 29.557 -3.86192 -3.15686 0
M  V30 356 H 28.711 -2.92206 -5.31696 0
M  V30 357 H 27.45 -2.00429 -4.44612 0
M  V30 358 H 26.455 -4.15049 -3.60575 0
M  V30 359 H 27.68 -5.07729 -4.50986 0
M  V30 360 H 25.626 -3.19394 -5.72995 0
M  V30 361 H 25.543 -4.92509 -5.7356 0
M  V30 362 H 26.811 -4.12418 -6.61462 0
M  V30 363 N 31.0401 0.771051 -1.3745 0
M  V30 364 C 32.2861 1.5319 -1.32894 0
M  V30 365 C 32.6191 1.94008 0.0862511 0
M  V30 366 O 31.8941 1.64124 1.04373 0
M  V30 367 C 32.1771 2.79648 -2.26868 0
M  V30 368 C 32.0301 2.45079 -3.77169 0
M  V30 369 C 33.3491 3.81583 -2.19277 0
M  V30 370 H 30.4681 0.555744 -0.484064 0
M  V30 371 H 33.1101 0.884492 -1.68157 0
M  V30 372 H 31.2601 3.34891 -1.96926 0
M  V30 373 H 32.9321 1.95745 -4.1771 0
M  V30 374 H 31.1751 1.77767 -3.95704 0
M  V30 375 H 31.8461 3.35478 -4.38359 0
M  V30 376 H 34.3221 3.35835 -2.45671 0
M  V30 377 H 33.1981 4.67787 -2.87171 0
M  V30 378 H 33.4591 4.25897 -1.18592 0
M  V30 379 N 32.5182 1.22032 0.997298 0
M  V30 380 C 33.4652 0.986467 2.08656 0
M  V30 381 C 34.4352 -0.0902671 1.65855 0
M  V30 382 O 35.6202 0.0584294 1.90711 0
M  V30 383 C 32.7602 0.565569 3.40434 0
M  V30 384 C 31.8732 1.71259 3.96604 0
M  V30 385 C 31.0082 1.24011 5.16522 0
M  V30 386 C 30.0472 2.35896 5.64818 0
M  V30 387 N 29.1842 1.89726 6.7598 0
M  V30 388 H 34.0242 1.91892 2.27994 0
M  V30 389 H 31.5612 0.956199 1.11782 0
M  V30 390 H 33.5192 0.302738 4.161 0
M  V30 391 H 32.1492 -0.329879 3.2111 0
M  V30 392 H 31.2012 2.08986 3.17851 0
M  V30 393 H 32.5132 2.55436 4.28432 0
M  V30 394 H 31.6672 0.934395 5.99461 0
M  V30 395 H 30.4062 0.368487 4.86306 0
M  V30 396 H 29.4112 2.67261 4.8047 0
M  V30 397 H 30.6362 3.23567 5.97061 0
M  V30 398 H 28.5822 1.0492 6.47555 0
M  V30 399 H 28.4992 2.67471 7.07103 0
M  V30 400 H 29.7672 1.62211 7.62435 0
M  V30 401 N 33.9963 -1.19345 1.0293 0
M  V30 402 C 34.9593 -2.20793 0.615069 0
M  V30 403 C 35.9593 -1.57553 -0.321533 0
M  V30 404 O 37.1493 -1.73862 -0.108483 0
M  V30 405 C 34.2813 -3.40754 -0.0999222 0
M  V30 406 H 35.4743 -2.58955 1.51269 0
M  V30 407 H 33.0273 -1.3303 0.820534 0
M  V30 408 H 33.7623 -3.0811 -1.01187 0
M  V30 409 H 33.5473 -3.87889 0.57309 0
M  V30 410 H 35.0373 -4.15898 -0.376645 0
M  V30 411 N 35.4744 -0.807222 -1.35358 0
M  V30 412 C 36.7024 -0.400377 -2.02989 0
M  V30 413 C 37.1174 0.988859 -1.60832 0
M  V30 414 O 36.4744 1.63729 -0.806175 0
M  V30 415 C 36.5254 -0.474867 -3.58368 0
M  V30 416 O 36.2464 -1.80933 -3.98992 0
M  V30 417 C 37.7474 -0.0609112 -4.43258 0
M  V30 418 H 34.9674 -0.162587 -0.651004 0
M  V30 419 H 37.5114 -1.09102 -1.72965 0
M  V30 420 H 35.6664 0.167534 -3.87038 0
M  V30 421 H 36.0804 -1.77256 -4.9364 0
M  V30 422 H 37.5544 -0.164145 -5.51756 0
M  V30 423 H 38.0314 0.993831 -4.27808 0
M  V30 424 H 38.6374 -0.676492 -4.19885 0
M  V30 425 N 36.9525 1.47285 -0.560781 0
M  V30 426 C 37.8825 2.32857 0.173105 0
M  V30 427 C 38.8635 1.44009 0.905281 0
M  V30 428 O 40.0485 1.7286 0.885046 0
M  V30 429 C 37.1785 3.25861 1.20133 0
M  V30 430 C 36.1325 4.23978 0.585388 0
M  V30 431 C 35.4585 5.06332 1.7185 0
M  V30 432 C 36.7585 5.20242 -0.463178 0
M  V30 433 H 38.4525 2.94466 -0.541307 0
M  V30 434 H 35.9985 1.41601 -0.261764 0
M  V30 435 H 37.9515 3.84569 1.72293 0
M  V30 436 H 36.6755 2.62315 1.94573 0
M  V30 437 H 35.3345 3.66501 0.085054 0
M  V30 438 H 34.9825 4.39186 2.45203 0
M  V30 439 H 34.6825 5.72762 1.31213 0
M  V30 440 H 36.2065 5.67899 2.24329 0
M  V30 441 H 37.6205 5.73293 -0.027502 0
M  V30 442 H 36.0175 5.94896 -0.788627 0
M  V30 443 H 37.0875 4.65504 -1.35773 0
M  V30 444 N 38.4306 0.297415 1.54768 0
M  V30 445 C 39.6786 -0.312295 1.99673 0
M  V30 446 C 39.9996 -1.54686 1.18732 0
M  V30 447 O 39.2696 -1.93854 0.282382 0
M  V30 448 H 37.8496 -0.118381 0.73756 0
M  V30 449 H 40.5116 0.407915 1.90583 0
M  V30 450 H 39.6076 -0.586813 3.06534 0
M  V30 451 N 39.9087 -1.5758 0.0250728 0
M  V30 452 C 40.8187 -2.1343 -0.973905 0
M  V30 453 C 41.8347 -1.08556 -1.35984 0
M  V30 454 O 43.0107 -1.40592 -1.44207 0
M  V30 455 C 40.0757 -2.64703 -2.23904 0
M  V30 456 C 39.1367 -3.84276 -1.91391 0
M  V30 457 C 38.3697 -4.33095 -3.11873 0
M  V30 458 O 38.5927 -3.81107 -4.24398 0
M  V30 459 O 37.5267 -5.24984 -2.94406 0
M  V30 460 H 41.3527 -2.99057 -0.529036 0
M  V30 461 H 38.9377 -1.48118 -0.195288 0
M  V30 462 H 40.8197 -2.97769 -2.98181 0
M  V30 463 H 39.4947 -1.82161 -2.6758 0
M  V30 464 H 38.4017 -3.56143 -1.14511 0
M  V30 465 H 39.7347 -4.67968 -1.52534 0
M  V30 466 N 41.3868 0.248026 -1.55636 0
M  V30 467 C 42.6338 0.976224 -1.77415 0
M  V30 468 C 42.9618 1.85361 -0.589193 0
M  V30 469 O 42.2168 1.90973 0.427529 0
M  V30 470 C 42.5158 1.86819 -3.04686 0
M  V30 471 C 42.1818 1.14625 -4.36087 0
M  V30 472 C 40.8438 0.946723 -4.71795 0
M  V30 473 C 43.1958 0.634463 -5.17324 0
M  V30 474 C 40.5238 0.223091 -5.86276 0
M  V30 475 C 42.8758 -0.0756959 -6.32555 0
M  V30 476 C 41.5398 -0.286711 -6.66884 0
M  V30 477 H 40.8098 0.357226 -0.649208 0
M  V30 478 H 43.4568 0.246415 -1.89908 0
M  V30 479 H 41.7618 2.66502 -2.872 0
M  V30 480 H 43.4588 2.43329 -3.18735 0
M  V30 481 H 40.0488 1.3117 -4.08035 0
M  V30 482 H 44.2328 0.77616 -4.90193 0
M  V30 483 H 39.4888 0.0491185 -6.1138 0
M  V30 484 H 43.6628 -0.479899 -6.94745 0
M  V30 485 H 41.2898 -0.849389 -7.5544 0
M  V30 486 N 42.8649 1.48995 0.513639 0
M  V30 487 C 44.1419 1.48338 1.27495 0
M  V30 488 C 44.5219 0.204065 2.10111 0
M  V30 489 O 43.8699 -0.813881 2.13514 0
M  V30 490 C 44.0799 2.75498 2.14247 0
M  V30 491 C 45.4279 3.24484 2.73852 0
M  V30 492 O 46.4519 2.76528 2.24523 0
M  V30 493 O 45.3109 4.07974 3.6362 0
M  V30 494 H 42.4049 0.593149 0.576284 0
M  V30 495 H 44.9509 1.61246 0.528948 0
M  V30 496 H 43.7229 3.60109 1.53092 0
M  V30 497 H 43.3459 2.6539 2.96064 0
M  V30 498 N 44.343 -0.763751 1.37857 0
M  V30 499 C 45.273 -1.89103 1.36975 0
M  V30 500 C 46.254 -1.68439 0.237152 0
M  V30 501 O 47.439 -1.8918 0.438713 0
M  V30 502 C 44.569 -3.26496 1.18395 0
M  V30 503 C 43.523 -3.61741 2.28751 0
M  V30 504 C 42.849 -4.97762 1.95286 0
M  V30 505 C 44.149 -3.67665 3.70972 0
M  V30 506 H 45.843 -1.90099 2.31307 0
M  V30 507 H 43.389 -0.91319 1.11341 0
M  V30 508 H 45.342 -4.05003 1.16406 0
M  V30 509 H 44.066 -3.25955 0.205215 0
M  V30 510 H 42.725 -2.85547 2.29909 0
M  V30 511 H 42.373 -4.93769 0.959221 0
M  V30 512 H 42.073 -5.22313 2.69189 0
M  V30 513 H 43.597 -5.7866 1.94898 0
M  V30 514 H 45.011 -4.36307 3.719 0
M  V30 515 H 43.408 -4.03718 4.43995 0
M  V30 516 H 44.478 -2.68134 4.0402 0
M  V30 517 N 45.8211 -1.22559 -0.990812 0
M  V30 518 C 47.2371 -0.985996 -1.255 0
M  V30 519 C 47.4371 0.319173 -1.98956 0
M  V30 520 O 46.4931 1.04127 -2.3003 0
M  V30 521 C 47.8061 -2.18607 -2.06474 0
M  V30 522 C 49.3541 -2.22985 -2.19651 0
M  V30 523 C 49.8291 -3.4255 -3.04012 0
M  V30 524 N 51.3201 -3.42725 -3.11599 0
M  V30 525 C 52.0551 -4.31892 -3.7717 0
M  V30 526 N 51.5511 -5.31279 -4.44651 0
M  V30 527 N 53.3441 -4.19662 -3.73952 0
M  V30 528 H 45.4951 -2.06469 -0.49841 0
M  V30 529 H 47.7581 -0.904853 -0.282747 0
M  V30 530 H 47.4641 -3.13267 -1.59865 0
M  V30 531 H 47.3381 -2.18838 -3.07229 0
M  V30 532 H 49.7251 -1.28871 -2.65474 0
M  V30 533 H 49.8061 -2.26791 -1.18319 0
M  V30 534 H 49.4501 -4.36965 -2.58889 0
M  V30 535 H 49.3801 -3.35984 -4.0549 0
M  V30 536 H 51.8711 -2.70807 -2.63575 0
M  V30 537 H 52.1841 -5.95593 -4.92431 0
M  V30 538 H 50.5291 -5.3519 -4.43392 0
M  V30 539 H 53.7201 -3.41268 -3.20396 0
M  V30 540 H 53.8931 -4.89358 -4.24774 0
M  V30 541 N 47.2992 1.18797 -1.03562 0
M  V30 542 C 48.5762 1.84469 -0.650434 0
M  V30 543 C 48.9562 1.92319 0.870433 0
M  V30 544 O 48.3042 1.44528 1.76986 0
M  V30 545 C 48.5142 3.2306 -1.32036 0
M  V30 546 C 49.8622 3.9915 -1.44792 0
M  V30 547 O 50.8862 3.32481 -1.27806 0
M  V30 548 O 49.7452 5.18587 -1.72423 0
M  V30 549 H 46.8392 0.795251 -0.226946 0
M  V30 550 H 49.3852 1.26231 -1.13419 0
M  V30 551 H 48.1572 3.1222 -2.3587 0
M  V30 552 H 47.7802 3.88949 -0.8249 0
M  V30 553 N 48.7773 0.814389 1.34928 0
M  V30 554 C 50.0073 0.41054 2.0248 0
M  V30 555 C 50.4153 -0.985625 1.61499 0
M  V30 556 O 49.7583 -1.64781 0.811976 0
M  V30 557 C 49.8203 0.423384 3.56998 0
M  V30 558 C 49.4843 1.77141 4.21272 0
M  V30 559 C 50.4813 2.73093 4.42398 0
M  V30 560 C 48.1663 2.05755 4.58225 0
M  V30 561 C 50.1603 3.95838 4.9959 0
M  V30 562 C 47.8473 3.28762 5.1513 0
M  V30 563 C 48.8453 4.23621 5.35755 0
M  V30 564 O 48.5333 5.44456 5.91458 0
M  V30 565 H 48.2653 0.163997 0.655806 0
M  V30 566 H 50.8193 1.10155 1.73364 0
M  V30 567 H 49.0493 -0.324276 3.85338 0
M  V30 568 H 50.7383 0.0407683 4.0588 0
M  V30 569 H 51.5043 2.5228 4.14222 0
M  V30 570 H 47.3833 1.32727 4.4148 0
M  V30 571 H 50.9273 4.69891 5.15605 0
M  V30 572 H 46.8243 3.49443 5.42734 0
M  V30 573 H 47.5923 5.4586 6.09901 0
M  V30 574 N 50.2554 -1.46986 0.568584 0
M  V30 575 C 51.6714 -1.57946 0.229189 0
M  V30 576 C 51.8714 -1.56567 -1.26843 0
M  V30 577 O 50.9274 -1.47511 -2.04931 0
M  V30 578 C 52.2404 -2.87963 0.865909 0
M  V30 579 C 53.7884 -3.01568 0.838188 0
M  V30 580 C 54.2634 -4.34301 1.45419 0
M  V30 581 N 55.7544 -4.40965 1.41788 0
M  V30 582 C 56.4894 -5.42256 1.86403 0
M  V30 583 N 55.9854 -6.50297 2.38926 0
M  V30 584 N 57.7784 -5.3337 1.77405 0
M  V30 585 H 49.9294 -1.46126 1.54146 0
M  V30 586 H 52.1924 -0.696156 0.643484 0
M  V30 587 H 51.8984 -2.94742 1.91886 0
M  V30 588 H 51.7724 -3.75423 0.365687 0
M  V30 589 H 54.1594 -2.94379 -0.206106 0
M  V30 590 H 54.2404 -2.1562 1.37629 0
M  V30 591 H 53.8844 -4.42247 2.49761 0
M  V30 592 H 53.8144 -5.19 0.891435 0
M  V30 593 H 56.3054 -3.63484 1.03381 0
M  V30 594 H 56.6184 -7.23777 2.70863 0
M  V30 595 H 54.9634 -6.51155 2.42944 0
M  V30 596 H 58.1544 -4.47865 1.3614 0
M  V30 597 H 58.3274 -6.12169 2.12492 0
M  V30 598 N 51.7335 -0.305618 -1.54608 0
M  V30 599 C 52.6815 0.584119 -2.25146 0
M  V30 600 C 53.6755 1.13326 -1.25911 0
M  V30 601 O 54.8815 1.08337 -1.43747 0
M  V30 602 H 51.2565 0.206983 -0.722954 0
M  V30 603 H 53.2275 -0.033291 -2.98381 0
M  V30 604 C 51.9765 1.74225 -3.009 0
M  V30 605 H 51.2995 1.32892 -3.77067 0
M  V30 606 H 52.7395 2.34077 -3.53531 0
M  V30 607 C 51.1985 2.64914 -2.0814 0
M  V30 608 O 51.7285 3.66137 -1.65246 0
M  V30 609 N 49.9345 2.3275 -1.74 0
M  V30 610 H 49.4815 1.50479 -2.09078 0
M  V30 611 H 49.4395 2.93694 -1.12211 0
M  V30 612 N 53.2116 1.57565 -0.0334293 0
M  V30 613 C 54.4576 1.92262 0.645226 0
M  V30 614 C 54.7906 0.910543 1.71531 0
M  V30 615 O 54.0656 -0.066099 1.94388 0
M  V30 616 C 54.3486 3.37422 1.2577 0
M  V30 617 C 54.2016 4.49369 0.196891 0
M  V30 618 C 55.5206 3.82628 2.17449 0
M  V30 619 H 52.6396 0.699171 0.233085 0
M  V30 620 H 55.2816 1.89779 -0.0915694 0
M  V30 621 H 53.4316 3.39669 1.88566 0
M  V30 622 H 55.1036 4.59254 -0.433962 0
M  V30 623 H 53.3466 4.31168 -0.477137 0
M  V30 624 H 54.0176 5.47978 0.665124 0
M  V30 625 H 56.4936 3.82145 1.64634 0
M  V30 626 H 55.3696 4.84883 2.57254 0
M  V30 627 H 55.6306 3.18376 3.0674 0
M  V30 628 N 54.6897 -0.239769 1.55765 0
M  V30 629 C 55.5997 -1.31831 1.94056 0
M  V30 630 C 56.6157 -1.52275 0.841925 0
M  V30 631 O 57.7917 -1.65759 1.14394 0
M  V30 632 C 54.8567 -2.65156 2.23368 0
M  V30 633 C 53.9177 -2.53173 3.46701 0
M  V30 634 C 53.1507 -3.8014 3.74606 0
M  V30 635 O 53.3737 -4.82343 3.04469 0
M  V30 636 O 52.3077 -3.78344 4.68123 0
M  V30 637 H 56.1337 -1.02347 2.85935 0
M  V30 638 H 53.7187 -0.441123 1.42739 0
M  V30 639 H 55.6007 -3.43929 2.43497 0
M  V30 640 H 54.2757 -2.94358 1.34666 0
M  V30 641 H 53.1827 -1.72662 3.31871 0
M  V30 642 H 54.5157 -2.28915 4.35728 0
M  V30 643 N 56.1678 -1.49265 -0.50573 0
M  V30 644 C 57.4138 -1.58748 -1.26202 0
M  V30 645 C 57.7468 -0.271227 -1.92297 0
M  V30 646 O 57.0218 0.724831 -1.80489 0
M  V30 647 C 57.3048 -2.74332 -2.33268 0
M  V30 648 C 57.1578 -4.15737 -1.71705 0
M  V30 649 C 58.4768 -2.85576 -3.34865 0
M  V30 650 H 55.5958 -0.577826 -0.457478 0
M  V30 651 H 58.2378 -1.81532 -0.560897 0
M  V30 652 H 56.3878 -2.55036 -2.93068 0
M  V30 653 H 58.0598 -4.46537 -1.15769 0
M  V30 654 H 56.3028 -4.21605 -1.02135 0
M  V30 655 H 56.9738 -4.92477 -2.49341 0
M  V30 656 H 59.4498 -3.03127 -2.8505 0
M  V30 657 H 58.3258 -3.68135 -4.07146 0
M  V30 658 H 58.5868 -1.94732 -3.96903 0
M  V30 659 N 57.6459 0.756429 -1.3826 0
M  V30 660 C 58.5759 1.88374 -1.37976 0
M  V30 661 C 59.5569 1.68311 -0.246082 0
M  V30 662 O 60.7419 1.88944 -0.44874 0
M  V30 663 C 57.8719 3.25864 -1.20125 0
M  V30 664 C 56.8259 3.60523 -2.30666 0
M  V30 665 C 56.1519 4.9672 -1.97923 0
M  V30 666 C 57.4519 3.65692 -3.72916 0
M  V30 667 H 59.1459 1.88869 -2.32312 0
M  V30 668 H 56.6919 0.907272 -1.11824 0
M  V30 669 H 58.6449 4.0438 -1.18552 0
M  V30 670 H 57.3689 3.25841 -0.222498 0
M  V30 671 H 56.0279 2.84324 -2.3142 0
M  V30 672 H 55.6759 4.93253 -0.985393 0
M  V30 673 H 55.3759 5.20878 -2.71955 0
M  V30 674 H 56.8999 5.77618 -1.97964 0
M  V30 675 H 58.3139 4.34328 -3.74208 0
M  V30 676 H 56.7109 4.01358 -4.4613 0
M  V30 677 H 57.7809 2.65987 -4.05436 0
M  V30 678 N 59.124 1.23083 0.984299 0
M  V30 679 C 60.071 1.00854 2.07598 0
M  V30 680 C 61.041 -0.0726709 1.65941 0
M  V30 681 O 62.226 0.0786535 1.90638 0
M  V30 682 C 59.366 0.601645 3.39815 0
M  V30 683 C 58.479 1.75456 3.94765 0
M  V30 684 C 57.614 1.29482 5.15177 0
M  V30 685 C 56.653 2.41873 5.62284 0
M  V30 686 N 55.79 1.96885 6.73929 0
M  V30 687 H 60.63 1.943 2.25946 0
M  V30 688 H 58.167 0.968001 1.10762 0
M  V30 689 H 60.125 0.346854 4.15756 0
M  V30 690 H 58.755 -0.295803 3.21442 0
M  V30 691 H 57.807 2.12346 3.15616 0
M  V30 692 H 59.119 2.59965 4.25699 0
M  V30 693 H 58.273 0.997923 5.98437 0
M  V30 694 H 57.012 0.420046 4.85888 0
M  V30 695 H 56.017 2.72342 4.77608 0
M  V30 696 H 57.242 3.29881 5.93595 0
M  V30 697 H 55.188 1.11782 6.46406 0
M  V30 698 H 55.105 2.74956 7.04227 0
M  V30 699 H 56.373 1.70289 7.60672 0
M  V30 700 N 60.6021 -1.18246 1.0419 0
M  V30 701 C 62.0181 -1.40269 0.761366 0
M  V30 702 C 62.2181 -1.90777 -0.648578 0
M  V30 703 O 61.2741 -2.0929 -1.41258 0
M  V30 704 C 62.5871 -2.40237 1.8085 0
M  V30 705 C 64.1351 -2.53961 1.82955 0
M  V30 706 C 64.6101 -3.57194 2.86664 0
M  V30 707 N 66.1011 -3.64702 2.85563 0
M  V30 708 C 66.8361 -4.44309 3.6246 0
M  V30 709 N 66.3321 -5.27514 4.49111 0
M  V30 710 N 68.1251 -4.39084 3.50944 0
M  V30 711 H 60.2761 -0.837882 1.95175 0
M  V30 712 H 62.5391 -0.430608 0.84456 0
M  V30 713 H 62.2451 -2.10176 2.81991 0
M  V30 714 H 62.1191 -3.39601 1.64168 0
M  V30 715 H 64.5061 -2.83338 0.824855 0
M  V30 716 H 64.5871 -1.54706 2.03715 0
M  V30 717 H 64.2311 -3.28558 3.87314 0
M  V30 718 H 64.1611 -4.5613 2.6316 0
M  V30 719 H 66.6521 -3.05289 2.22727 0
M  V30 720 H 66.9651 -5.85411 5.04493 0
M  V30 721 H 65.3101 -5.2693 4.53178 0
M  V30 722 H 68.5011 -3.7313 2.82651 0
M  V30 723 H 68.6741 -5.00883 4.11121 0
M  V30 724 N 62.0802 -0.821533 -1.34494 0
M  V30 725 C 63.3272 -0.408946 -1.98328 0
M  V30 726 C 63.6552 1.02764 -1.65136 0
M  V30 727 O 62.9102 1.73026 -0.914349 0
M  V30 728 C 63.2092 -0.556512 -3.53041 0
M  V30 729 C 62.8752 -1.95861 -4.0614 0
M  V30 730 C 61.5372 -2.34217 -4.20352 0
M  V30 731 C 63.8892 -2.87523 -4.34718 0
M  V30 732 C 61.2172 -3.63572 -4.6047 0
M  V30 733 C 63.5692 -4.1634 -4.76281 0
M  V30 734 C 62.2332 -4.54675 -4.88699 0
M  V30 735 H 61.5032 -0.149644 -0.725732 0
M  V30 736 H 64.1502 -1.04521 -1.6046 0
M  V30 737 H 62.4552 0.163148 -3.9146 0
M  V30 738 H 64.1522 -0.217826 -4.00408 0
M  V30 739 H 60.7422 -1.65066 -3.95539 0
M  V30 740 H 64.9262 -2.59133 -4.23277 0
M  V30 741 H 60.1822 -3.93101 -4.68275 0
M  V30 742 H 64.3562 -4.87455 -4.97354 0
M  V30 743 H 61.9832 -5.54959 -5.19542 0
M  V30 744 N 63.5583 1.46682 -0.576371 0
M  V30 745 C 64.4883 2.33028 0.148397 0
M  V30 746 C 65.4693 1.44961 0.889956 0
M  V30 747 O 66.6543 1.73789 0.866662 0
M  V30 748 C 63.7843 3.27117 1.1667 0
M  V30 749 C 62.7383 4.24575 0.540386 0
M  V30 750 C 62.0643 5.08126 1.6647 0
M  V30 751 C 63.3643 5.19722 -0.518331 0
M  V30 752 H 65.0583 2.93875 -0.572509 0
M  V30 753 H 62.6043 1.41315 -0.276768 0
M  V30 754 H 64.5573 3.86374 1.68204 0
M  V30 755 H 63.2813 2.64364 1.9178 0
M  V30 756 H 61.9403 3.66571 0.0461769 0
M  V30 757 H 61.5883 4.41762 2.40531 0
M  V30 758 H 61.2883 5.74122 1.25131 0
M  V30 759 H 62.8123 5.70246 2.18293 0
M  V30 760 H 64.2263 5.73232 -0.0883058 0
M  V30 761 H 62.6233 5.94026 -0.851679 0
M  V30 762 H 63.6933 4.64037 -1.40703 0
M  V30 763 N 65.0364 0.313813 1.54444 0
M  V30 764 C 66.2614 -0.296681 2.05267 0
M  V30 765 C 66.6864 -1.45757 1.18897 0
M  V30 766 O 66.0444 -1.80239 0.195886 0
M  V30 767 C 66.0924 -0.71831 3.53373 0
M  V30 768 O 65.1964 -1.82175 3.69981 0
M  V30 769 H 64.5374 -0.0554061 0.661684 0
M  V30 770 H 67.0674 0.459387 1.99376 0
M  V30 771 H 67.0774 -1.00364 3.95463 0
M  V30 772 H 65.7524 0.130821 4.15694 0
M  V30 773 H 64.3294 -1.53598 3.39797 0
M  V30 774 N 66.5145 -1.57545 0.0417849 0
M  V30 775 C 67.4245 -2.14451 -0.951213 0
M  V30 776 C 68.4405 -1.09992 -1.34825 0
M  V30 777 O 69.6165 -1.42114 -1.42708 0
M  V30 778 C 66.6815 -2.67063 -2.21084 0
M  V30 779 C 65.7425 -3.86284 -1.87304 0
M  V30 780 C 64.9755 -4.36378 -3.07261 0
M  V30 781 O 65.1985 -3.85587 -4.20332 0
M  V30 782 O 64.1325 -5.28077 -2.88822 0
M  V30 783 H 67.9585 -2.99601 -0.497287 0
M  V30 784 H 65.5435 -1.48317 -0.179567 0
M  V30 785 H 67.4255 -3.00914 -2.95006 0
M  V30 786 H 66.1005 -1.84989 -2.65633 0
M  V30 787 H 65.0075 -3.57338 -1.10727 0
M  V30 788 H 66.3405 -4.6956 -1.47562 0
M  V30 789 N 67.9926 0.231505 -1.5589 0
M  V30 790 C 69.2206 0.974505 -1.82513 0
M  V30 791 C 69.6356 1.78344 -0.619591 0
M  V30 792 O 68.9926 1.77792 0.411848 0
M  V30 793 C 69.0436 1.90007 -3.07538 0
M  V30 794 O 68.7646 1.12385 -4.2344 0
M  V30 795 C 70.2656 2.75779 -3.47075 0
M  V30 796 H 67.4856 0.286065 -0.606966 0
M  V30 797 H 70.0296 0.249739 -2.02969 0
M  V30 798 H 68.1846 2.57891 -2.89086 0
M  V30 799 H 68.5986 1.75125 -4.944 0
M  V30 800 H 70.0726 3.36443 -4.37619 0
M  V30 801 H 70.5496 3.47672 -2.68367 0
M  V30 802 H 71.1556 2.13323 -3.67931 0
M  V30 803 N 69.4707 1.49531 0.497807 0
M  V30 804 C 70.7187 1.58865 1.24926 0
M  V30 805 C 71.0397 0.278721 1.92998 0
M  V30 806 O 70.3097 -0.702144 1.82885 0
M  V30 807 H 68.8897 0.585343 0.464094 0
M  V30 808 H 71.5517 1.86174 0.57666 0
M  V30 809 H 70.6477 2.38633 2.01149 0
M  V30 810 N 70.9488 -0.749086 1.3866 0
M  V30 811 C 71.8958 -1.86291 1.36251 0
M  V30 812 C 72.8658 -1.64578 0.224347 0
M  V30 813 O 74.0508 -1.86181 0.417279 0
M  V30 814 C 71.1908 -3.23644 1.19786 0
M  V30 815 C 70.3038 -3.57158 2.43027 0
M  V30 816 C 69.4388 -4.83838 2.19258 0
M  V30 817 C 68.4778 -5.10152 3.38247 0
M  V30 818 N 67.6148 -6.28029 3.13884 0
M  V30 819 H 72.4548 -1.87685 2.3147 0
M  V30 820 H 69.9918 -0.917287 1.14997 0
M  V30 821 H 71.9498 -4.0291 1.08254 0
M  V30 822 H 70.5798 -3.21566 0.282031 0
M  V30 823 H 69.6318 -2.72701 2.65214 0
M  V30 824 H 70.9438 -3.7253 3.31697 0
M  V30 825 H 70.0978 -5.71057 2.04888 0
M  V30 826 H 68.8368 -4.70614 1.2796 0
M  V30 827 H 67.8418 -4.21401 3.53131 0
M  V30 828 H 69.0668 -5.25271 4.30427 0
M  V30 829 H 67.0128 -6.1612 2.25238 0
M  V30 830 H 66.9298 -6.43922 3.96106 0
M  V30 831 H 68.1978 -7.18124 3.03179 0
M  V30 832 N 72.4269 -1.23603 -0.977757 0
M  V30 833 C 73.6759 -1.06377 -1.71368 0
M  V30 834 C 73.9889 0.399062 -1.91486 0
M  V30 835 O 75.1949 0.691312 -2.62551 0
M  V30 836 C 73.6509 -1.85512 -3.08404 0
M  V30 837 C 73.2589 -3.36141 -2.96164 0
M  V30 838 C 75.0029 -1.76783 -3.85938 0
M  V30 839 C 72.9099 -4.07659 -4.28449 0
M  V30 840 H 71.8399 -0.394452 -0.642591 0
M  V30 841 H 74.4909 -1.47594 -1.09034 0
M  V30 842 H 72.8729 -1.37103 -3.71509 0
M  V30 843 H 74.0469 -3.92056 -2.42133 0
M  V30 844 H 72.3619 -3.45712 -2.32104 0
M  V30 845 H 74.9589 -2.27526 -4.83876 0
M  V30 846 H 75.3019 -0.731116 -4.0983 0
M  V30 847 H 75.8349 -2.22818 -3.2954 0
M  V30 848 H 72.5739 -5.11648 -4.09752 0
M  V30 849 H 72.0939 -3.5653 -4.82334 0
M  V30 850 H 73.7729 -4.141 -4.97122 0
M  V30 851 N 73.905 1.17692 -1.04816 0
M  V30 852 C 74.835 2.23777 -0.666791 0
M  V30 853 C 75.816 1.66796 0.33361 0
M  V30 854 O 77.001 1.93039 0.212042 0
M  V30 855 C 74.131 3.47281 -0.0367933 0
M  V30 856 C 73.085 4.17059 -0.961546 0
M  V30 857 C 72.411 5.34342 -0.195626 0
M  V30 858 C 73.711 4.69713 -2.28402 0
M  V30 859 H 75.405 2.55933 -1.55367 0
M  V30 860 H 72.951 1.23019 -0.748484 0
M  V30 861 H 74.904 4.20706 0.241775 0
M  V30 862 H 73.628 3.14381 0.885004 0
M  V30 863 H 72.287 3.45541 -1.22462 0
M  V30 864 H 71.935 4.97692 0.728816 0
M  V30 865 H 71.635 5.81966 -0.811775 0
M  V30 866 H 73.159 6.10553 0.0757473 0
M  V30 867 H 74.573 5.34794 -2.06563 0
M  V30 868 H 72.97 5.279 -2.8538 0
M  V30 869 H 74.04 3.86726 -2.92525 0
M  V30 870 N 75.3831 0.828654 1.34056 0
M  V30 871 C 76.7941 0.477534 1.8049 0
M  V30 872 C 77.1451 -1.00258 1.6865 0
M  V30 873 O 76.2701 -1.78057 1.22982 0
M  V30 874 C 76.8651 0.860018 3.27703 0
M  V30 875 C 75.4241 0.561185 3.72193 0
M  V30 876 C 74.5711 1.07385 2.55663 0
M  V30 877 H 77.5221 1.0183 1.21722 0
M  V30 878 H 77.5431 0.166038 3.80138 0
M  V30 879 H 77.0551 1.93731 3.36288 0
M  V30 880 H 75.1561 -0.506465 3.69142 0
M  V30 881 H 75.2691 1.10926 4.66082 0
M  V30 882 H 73.6331 0.495149 2.49841 0
M  V30 883 H 74.4161 2.15771 2.67016 0
M  V30 884 N 76.8612 -1.46375 0.584142 0
M  V30 885 C 78.2772 -1.57694 0.245929 0
M  V30 886 C 78.4772 -1.57903 -1.25175 0
M  V30 887 O 77.5332 -1.49676 -2.03355 0
M  V30 888 C 78.8462 -2.87028 0.896402 0
M  V30 889 C 80.3942 -3.00662 0.870127 0
M  V30 890 C 80.8692 -4.32734 1.50017 0
M  V30 891 N 82.3602 -4.39436 1.46458 0
M  V30 892 C 83.0952 -5.40248 1.92144 0
M  V30 893 N 82.5912 -6.47726 2.4581 0
M  V30 894 N 84.3842 -5.31459 1.83052 0
M  V30 895 H 76.5352 -1.44483 1.55687 0
M  V30 896 H 78.7982 -0.689291 0.650831 0
M  V30 897 H 78.5042 -2.9269 1.95002 0
M  V30 898 H 78.3782 -3.75014 0.405486 0
M  V30 899 H 80.7652 -2.94581 -0.174871 0
M  V30 900 H 80.8462 -2.14148 1.39908 0
M  V30 901 H 80.4902 -4.39573 2.54437 0
M  V30 902 H 80.4202 -5.18025 0.946432 0
M  V30 903 H 82.9112 -3.62367 1.07231 0
M  V30 904 H 83.2242 -7.20863 2.78525 0
M  V30 905 H 81.5692 -6.48542 2.49836 0
M  V30 906 H 84.7602 -4.46396 1.40883 0
M  V30 907 H 84.9332 -6.09881 2.18973 0
M  V30 908 N 78.3393 -0.321999 -1.54275 0
M  V30 909 C 79.7553 0.0306999 -1.5957 0
M  V30 910 C 79.9553 1.50614 -1.33857 0
M  V30 911 O 79.0113 2.2619 -1.12223 0
M  V30 912 C 80.3243 -0.386122 -2.98211 0
M  V30 913 C 81.8723 -0.336647 -3.11184 0
M  V30 914 C 82.3473 -0.728607 -4.52167 0
M  V30 915 N 83.8383 -0.681952 -4.58152 0
M  V30 916 C 84.5733 -0.957449 -5.6535 0
M  V30 917 N 84.0693 -1.3 -6.80494 0
M  V30 918 N 85.8623 -0.883113 -5.55119 0
M  V30 919 H 78.0133 -1.28332 -1.69247 0
M  V30 920 H 80.2763 -0.521716 -0.791528 0
M  V30 921 H 79.9823 -1.41404 -3.22022 0
M  V30 922 H 79.8563 0.249662 -3.76373 0
M  V30 923 H 82.2433 0.682058 -2.8711 0
M  V30 924 H 82.3243 -1.00734 -2.3513 0
M  V30 925 H 81.9683 -1.74522 -4.76974 0
M  V30 926 H 81.8983 -0.0356152 -5.26588 0
M  V30 927 H 84.3893 -0.428985 -3.75457 0
M  V30 928 H 84.7023 -1.49563 -7.58189 0
M  V30 929 H 83.0473 -1.33824 -6.81994 0
M  V30 930 H 86.2383 -0.615001 -4.64042 0
M  V30 931 H 86.4113 -1.10118 -6.38575 0
M  V30 932 N 79.8174 1.5752 -0.0501392 0
M  V30 933 C 81.2334 1.56631 0.306402 0
M  V30 934 C 81.4334 1.0577 1.71508 0
M  V30 935 O 80.4894 0.713837 2.422 0
M  V30 936 C 81.8024 3.00393 0.135811 0
M  V30 937 C 83.3504 3.12315 0.206993 0
M  V30 938 C 83.8254 4.57954 0.064944 0
M  V30 939 N 85.3164 4.63041 0.121254 0
M  V30 940 C 86.0514 5.73389 0.0354381 0
M  V30 941 N 85.5474 6.92724 -0.102666 0
M  V30 942 N 87.3404 5.62026 0.090946 0
M  V30 943 H 79.4914 1.88903 -0.971046 0
M  V30 944 H 81.7544 0.869876 -0.376855 0
M  V30 945 H 81.4604 3.41635 -0.835384 0
M  V30 946 H 81.3344 3.66373 0.897275 0
M  V30 947 H 83.7214 2.70973 1.16866 0
M  V30 948 H 83.8024 2.49016 -0.585208 0
M  V30 949 H 83.4464 4.99981 -0.893394 0
M  V30 950 H 83.3764 5.19258 0.876277 0
M  V30 951 H 85.8674 3.77216 0.227284 0
M  V30 952 H 86.1804 7.72633 -0.160882 0
M  V30 953 H 84.5254 6.94864 -0.137737 0
M  V30 954 H 87.7164 4.67684 0.197388 0
M  V30 955 H 87.8894 6.47997 0.0206089 0
M  V30 956 N 81.2955 -0.223234 1.56011 0
M  V30 957 C 82.5235 -0.964812 1.83027 0
M  V30 958 C 82.9385 -1.78013 0.62904 0
M  V30 959 O 82.2955 -1.78008 -0.402414 0
M  V30 960 C 82.3465 -1.88373 3.08542 0
M  V30 961 O 82.0675 -1.10137 4.2403 0
M  V30 962 C 83.5685 -2.73934 3.48533 0
M  V30 963 H 80.7885 -0.282842 0.608475 0
M  V30 964 H 83.3325 -0.238971 2.03099 0
M  V30 965 H 81.4875 -2.56354 2.9045 0
M  V30 966 H 81.9015 -1.72501 4.95322 0
M  V30 967 H 83.3755 -3.34117 4.39397 0
M  V30 968 H 83.8525 -3.46244 2.70207 0
M  V30 969 H 84.4585 -2.11369 3.69057 0
M  V30 970 N 82.7736 -1.49793 -0.48987 0
M  V30 971 C 84.0216 -1.59525 -1.24081 0
M  V30 972 C 84.3426 -0.288953 -1.92847 0
M  V30 973 O 83.6126 0.692436 -1.83254 0
M  V30 974 H 82.1926 -0.587796 -0.460983 0
M  V30 975 H 84.8546 -1.86477 -0.566778 0
M  V30 976 H 83.9506 -2.39696 -1.99881 0
M  V30 977 N 84.2517 0.741722 -1.39055 0
M  V30 978 C 85.1817 1.869 -1.39966 0
M  V30 979 C 86.1627 1.6804 -0.26392 0
M  V30 980 O 87.3477 1.88458 -0.468755 0
M  V30 981 C 84.4777 3.24572 -1.23574 0
M  V30 982 C 83.4317 3.58056 -2.34477 0
M  V30 983 C 82.7577 4.94593 -2.0318 0
M  V30 984 C 84.0577 3.61716 -3.76774 0
M  V30 985 H 85.7517 1.86395 -2.34302 0
M  V30 986 H 83.2977 0.895361 -1.1278 0
M  V30 987 H 85.2507 4.031 -1.22834 0
M  V30 988 H 83.9747 3.25587 -0.257045 0
M  V30 989 H 82.6337 2.81854 -2.34423 0
M  V30 990 H 82.2817 4.92181 -1.03765 0
M  V30 991 H 81.9817 5.17964 -2.77465 0
M  V30 992 H 83.5057 5.75486 -2.04079 0
M  V30 993 H 84.9197 4.30335 -3.78794 0
M  V30 994 H 83.3167 3.96603 -4.50362 0
M  V30 995 H 84.3867 2.61672 -4.08235 0
M  V30 996 N 85.7298 1.2412 0.971189 0
M  V30 997 C 86.9548 1.10667 1.75407 0
M  V30 998 C 87.3798 -0.337048 1.85056 0
M  V30 999 O 86.7378 -1.24396 1.31892 0
M  V30 1000 C 86.7858 1.74726 3.15441 0
M  V30 1001 O 85.8898 1.01566 3.99697 0
M  V30 1002 H 85.2308 0.387341 0.539317 0
M  V30 1003 H 87.7608 1.64358 1.2185 0
M  V30 1004 H 87.7708 1.80341 3.6598 0
M  V30 1005 H 86.4458 2.79773 3.07734 0
M  V30 1006 H 85.0228 1.03713 3.58187 0
M  V30 1007 N 87.2079 -1.17134 1.05439 0
M  V30 1008 C 88.1709 -2.19439 0.661764 0
M  V30 1009 C 89.1709 -1.58199 -0.288042 0
M  V30 1010 O 90.3609 -1.74053 -0.0715803 0
M  V30 1011 C 87.4929 -3.40889 -0.0276209 0
M  V30 1012 H 88.6859 -2.55688 1.56728 0
M  V30 1013 H 86.2389 -1.31259 0.848567 0
M  V30 1014 H 86.9739 -3.10187 -0.94629 0
M  V30 1015 H 86.7589 -3.86586 0.655238 0
M  V30 1016 H 88.2489 -4.16603 -0.288342 0
M  V30 1017 N 88.686 -0.835752 -1.33615 0
M  V30 1018 C 89.633 -0.26473 -2.29277 0
M  V30 1019 C 90.603 0.617712 -1.54187 0
M  V30 1020 O 91.788 0.556641 -1.825 0
M  V30 1021 C 88.928 0.556777 -3.40579 0
M  V30 1022 C 88.041 -0.349339 -4.30585 0
M  V30 1023 C 87.176 0.482969 -5.29 0
M  V30 1024 C 86.215 -0.421732 -6.10645 0
M  V30 1025 N 85.352 0.372262 -7.01112 0
M  V30 1026 H 90.192 -1.08582 -2.77514 0
M  V30 1027 H 87.729 -0.546927 -1.36554 0
M  V30 1028 H 89.687 1.04852 -4.03809 0
M  V30 1029 H 88.317 1.34286 -2.93542 0
M  V30 1030 H 87.369 -0.959372 -3.68104 0
M  V30 1031 H 88.681 -1.04445 -4.87742 0
M  V30 1032 H 87.835 1.03866 -5.97743 0
M  V30 1033 H 86.574 1.21153 -4.72412 0
M  V30 1034 H 85.579 -0.989464 -5.40823 0
M  V30 1035 H 86.804 -1.14861 -6.69316 0
M  V30 1036 H 84.75 1.08426 -6.46977 0
M  V30 1037 H 84.667 -0.264198 -7.55538 0
M  V30 1038 H 85.935 0.910293 -7.74167 0
M  V30 1039 N 90.1641 1.46063 -0.591896 0
M  V30 1040 C 91.0741 2.34192 0.13831 0
M  V30 1041 C 92.0901 1.50305 0.876608 0
M  V30 1042 O 93.2661 1.8315 0.837728 0
M  V30 1043 C 90.3311 3.27656 1.13326 0
M  V30 1044 C 89.3921 4.27445 0.39863 0
M  V30 1045 C 88.6251 5.16443 1.34618 0
M  V30 1046 O 88.8481 5.08553 2.58321 0
M  V30 1047 O 87.7821 5.95843 0.851768 0
M  V30 1048 H 91.6081 2.98002 -0.58552 0
M  V30 1049 H 89.1931 1.45188 -0.352239 0
M  V30 1050 H 91.0751 3.85291 1.70671 0
M  V30 1051 H 89.7501 2.6643 1.83839 0
M  V30 1052 H 88.6571 3.73471 -0.216895 0
M  V30 1053 H 89.9901 4.91482 -0.265709 0
M  V30 1054 N 91.6422 0.330177 1.54103 0
M  V30 1055 C 92.5742 -0.566902 2.22079 0
M  V30 1056 C 93.5872 -1.07462 1.22294 0
M  V30 1057 O 94.7762 -0.987065 1.48726 0
M  V30 1058 C 91.8762 -1.79138 2.87685 0
M  V30 1059 C 91.0492 -1.42123 4.13666 0
M  V30 1060 C 90.1082 -2.50394 4.62806 0
M  V30 1061 O 89.1342 -2.14261 5.27334 0
M  V30 1062 N 90.3362 -3.81433 4.37595 0
M  V30 1063 H 93.1012 0.0151844 2.99696 0
M  V30 1064 H 90.6622 0.153681 1.61169 0
M  V30 1065 H 92.6542 -2.50975 3.1748 0
M  V30 1066 H 91.2242 -2.28115 2.13734 0
M  V30 1067 H 90.4442 -0.534201 3.90564 0
M  V30 1068 H 91.7322 -1.14971 4.9564 0
M  V30 1069 H 91.1302 -4.13584 3.8596 0
M  V30 1070 H 89.6872 -4.4948 4.72029 0
M  V30 1071 N 93.1203 -1.57491 0.0584922 0
M  V30 1072 C 94.5363 -1.56792 -0.298091 0
M  V30 1073 C 94.7363 -1.06679 -1.70944 0
M  V30 1074 O 93.7923 -0.726672 -2.41818 0
M  V30 1075 C 95.1053 -3.00461 -0.119879 0
M  V30 1076 C 96.6533 -3.1242 -0.190428 0
M  V30 1077 C 97.1283 -4.57982 -0.0406567 0
M  V30 1078 N 98.6193 -4.63099 -0.0966958 0
M  V30 1079 C 99.3543 -5.734 -0.00502943 0
M  V30 1080 N 98.8503 -6.9266 0.139402 0
M  V30 1081 N 100.643 -5.62067 -0.0611391 0
M  V30 1082 H 92.7943 -1.88386 0.98105 0
M  V30 1083 H 95.0573 -0.867865 0.381463 0
M  V30 1084 H 94.7633 -3.41187 0.85349 0
M  V30 1085 H 94.6373 -3.66843 -0.877833 0
M  V30 1086 H 97.0243 -2.71589 -1.15427 0
M  V30 1087 H 97.1053 -2.48702 0.598405 0
M  V30 1088 H 96.7493 -4.995 0.919897 0
M  V30 1089 H 96.6793 -5.19715 -0.848727 0
M  V30 1090 H 99.1703 -3.77331 -0.207277 0
M  V30 1091 H 99.4833 -7.72536 0.201855 0
M  V30 1092 H 97.8283 -6.94781 0.174586 0
M  V30 1093 H 101.019 -4.67782 -0.172583 0
M  V30 1094 H 101.192 -6.47999 0.0137562 0
M  V30 1095 N 94.5984 0.214957 -1.56127 0
M  V30 1096 C 95.8474 0.936451 -1.78643 0
M  V30 1097 C 96.1604 1.85237 -0.628229 0
M  V30 1098 O 97.3664 2.613 -0.737186 0
M  V30 1099 C 95.8224 1.7154 -3.16389 0
M  V30 1100 C 95.4304 0.845299 -4.39953 0
M  V30 1101 C 97.1744 2.42772 -3.48227 0
M  V30 1102 C 95.0814 1.62198 -5.68723 0
M  V30 1103 H 94.0114 0.353401 -0.666051 0
M  V30 1104 H 96.6624 0.190169 -1.82512 0
M  V30 1105 H 95.0444 2.50484 -3.06715 0
M  V30 1106 H 96.2184 0.0959353 -4.607 0
M  V30 1107 H 94.5334 0.244789 -4.1568 0
M  V30 1108 H 97.1304 3.01394 -4.41663 0
M  V30 1109 H 97.4734 3.15984 -2.71035 0
M  V30 1110 H 98.0064 1.70813 -3.5926 0
M  V30 1111 H 94.7454 0.933011 -6.48826 0
M  V30 1112 H 94.2654 2.34579 -5.52026 0
M  V30 1113 H 95.9444 2.18095 -6.09133 0
M  V30 1114 N 96.0765 1.50051 0.48192 0
M  V30 1115 C 97.0065 1.71046 1.58951 0
M  V30 1116 C 97.9875 0.559288 1.60642 0
M  V30 1117 O 99.1725 0.797243 1.77081 0
M  V30 1118 C 96.3025 1.79462 2.97339 0
M  V30 1119 C 95.2565 2.94558 3.10515 0
M  V30 1120 C 94.5825 2.88105 4.50444 0
M  V30 1121 C 95.8825 4.35227 2.88747 0
M  V30 1122 H 97.5765 2.6378 1.41635 0
M  V30 1123 H 95.1225 1.26936 0.679942 0
M  V30 1124 H 97.0755 1.92734 3.74742 0
M  V30 1125 H 95.7995 0.833412 3.15788 0
M  V30 1126 H 94.4585 2.80918 2.35543 0
M  V30 1127 H 94.1065 1.89853 4.65795 0
M  V30 1128 H 93.8065 3.65366 4.60197 0
M  V30 1129 H 95.3305 3.03412 5.29881 0
M  V30 1130 H 96.7445 4.49449 3.55905 0
M  V30 1131 H 95.1415 5.13856 3.09955 0
M  V30 1132 H 96.2115 4.48347 1.84696 0
M  V30 1133 N 97.5546 -0.734337 1.39446 0
M  V30 1134 C 98.5176 -1.83004 1.37994 0
M  V30 1135 C 99.5176 -1.58397 0.276938 0
M  V30 1136 O 100.708 -1.65785 0.534875 0
M  V30 1137 C 97.8396 -3.20802 1.1532 0
M  V30 1138 H 99.0326 -1.85694 2.35494 0
M  V30 1139 H 96.5856 -0.938059 1.25021 0
M  V30 1140 H 97.3206 -3.23772 0.185036 0
M  V30 1141 H 97.1056 -3.4006 1.95197 0
M  V30 1142 H 98.5956 -4.00862 1.17046 0
M  V30 1143 N 99.0327 -1.24633 -0.964593 0
M  V30 1144 C 99.9797 -1.04144 -2.05968 0
M  V30 1145 C 100.95 0.046262 -1.66036 0
M  V30 1146 O 102.135 -0.108972 -1.90489 0
M  V30 1147 C 99.2747 -0.65563 -3.38815 0
M  V30 1148 C 98.3877 -1.81714 -3.91923 0
M  V30 1149 C 97.5227 -1.37662 -5.13052 0
M  V30 1150 C 96.5617 -2.50788 -5.58365 0
M  V30 1151 N 95.6987 -2.07582 -6.70712 0
M  V30 1152 H 100.539 -1.9787 -2.22827 0
M  V30 1153 H 98.0757 -0.9855 -1.09208 0
M  V30 1154 H 100.034 -0.412954 -4.15151 0
M  V30 1155 H 98.6637 0.244627 -3.21872 0
M  V30 1156 H 97.7157 -2.1734 -3.12198 0
M  V30 1157 H 99.0277 -2.66705 -4.21509 0
M  V30 1158 H 98.1817 -1.093 -5.96773 0
M  V30 1159 H 96.9207 -0.497293 -4.85158 0
M  V30 1160 H 95.9257 -2.79906 -4.73215 0
M  V30 1161 H 97.1507 -3.39283 -5.88272 0
M  V30 1162 H 95.0967 -1.22051 -6.44546 0
M  V30 1163 H 95.0137 -2.86125 -6.99763 0
M  V30 1164 H 96.2817 -1.82369 -7.57867 0
M  V30 1165 N 100.511 1.16574 -1.06058 0
M  V30 1166 C 101.739 1.90952 -0.796552 0
M  V30 1167 C 102.154 1.77302 0.648808 0
M  V30 1168 O 101.511 1.11605 1.44397 0
M  V30 1169 C 101.562 3.41736 -1.17894 0
M  V30 1170 O 101.283 3.54975 -2.56758 0
M  V30 1171 C 102.784 4.33169 -0.942308 0
M  V30 1172 H 100.004 0.605594 -0.288959 0
M  V30 1173 H 102.548 1.47777 -1.41358 0
M  V30 1174 H 100.703 3.82623 -0.606491 0
M  V30 1175 H 101.117 4.4846 -2.72 0
M  V30 1176 H 102.591 5.37439 -1.25952 0
M  V30 1177 H 103.068 4.3903 0.122078 0
M  V30 1178 H 103.674 3.98007 -1.49902 0
M  V30 1179 N 101.989 0.842826 1.3317 0
M  V30 1180 C 103.238 0.436738 1.96915 0
M  V30 1181 C 103.551 -1.01025 1.67491 0
M  V30 1182 O 104.757 -1.5212 2.24881 0
M  V30 1183 C 103.213 0.730021 3.52418 0
M  V30 1184 C 102.821 2.19195 3.90714 0
M  V30 1185 C 104.565 0.391076 4.22695 0
M  V30 1186 C 102.472 2.42907 5.39212 0
M  V30 1187 H 101.402 0.15958 0.736919 0
M  V30 1188 H 104.053 1.03196 1.51733 0
M  V30 1189 H 102.435 0.0643755 3.95948 0
M  V30 1190 H 103.609 2.8984 3.58231 0
M  V30 1191 H 101.924 2.49425 3.33431 0
M  V30 1192 H 104.521 0.545817 5.31907 0
M  V30 1193 H 104.864 -0.666294 4.10933 0
M  V30 1194 H 105.397 1.01212 3.84709 0
M  V30 1195 H 102.136 3.47224 5.55982 0
M  V30 1196 H 101.656 1.76827 5.73142 0
M  V30 1197 H 103.335 2.2626 6.06148 0
M  V30 1198 N 103.467 -1.45747 0.599634 0
M  V30 1199 C 104.414 -2.30467 -0.123849 0
M  V30 1200 C 105.384 -1.41632 -0.86774 0
M  V30 1201 O 106.569 -1.70568 -0.855056 0
M  V30 1202 C 103.709 -3.26402 -1.12051 0
M  V30 1203 C 102.822 -4.3034 -0.37832 0
M  V30 1204 C 101.957 -5.13389 -1.364 0
M  V30 1205 C 100.996 -6.09061 -0.609171 0
M  V30 1206 N 100.133 -6.84918 -1.54374 0
M  V30 1207 H 104.973 -2.91802 0.604627 0
M  V30 1208 H 102.51 -1.43797 0.309972 0
M  V30 1209 H 104.468 -3.80482 -1.7114 0
M  V30 1210 H 103.098 -2.66839 -1.8165 0
M  V30 1211 H 102.15 -3.78984 0.327929 0
M  V30 1212 H 103.462 -4.98354 0.210997 0
M  V30 1213 H 102.616 -5.7183 -2.02719 0
M  V30 1214 H 101.355 -4.45376 -1.98725 0
M  V30 1215 H 100.36 -5.49758 0.0676979 0
M  V30 1216 H 101.585 -6.79099 0.00891991 0
M  V30 1217 H 99.531 -6.19601 -2.15478 0
M  V30 1218 H 99.448 -7.49254 -1.00766 0
M  V30 1219 H 100.716 -7.47906 -2.19676 0
M  V30 1220 N 104.945 -0.338344 -1.53925 0
M  V30 1221 C 106.361 0.0137736 -1.59594 0
M  V30 1222 C 106.561 1.49186 -1.35447 0
M  V30 1223 O 105.617 2.24987 -1.14616 0
M  V30 1224 C 106.93 -0.41773 -2.97784 0
M  V30 1225 C 108.478 -0.369633 -3.1081 0
M  V30 1226 C 108.953 -0.776524 -4.51369 0
M  V30 1227 N 110.444 -0.730506 -4.57403 0
M  V30 1228 C 111.179 -1.01736 -5.64303 0
M  V30 1229 N 110.675 -1.3721 -6.79077 0
M  V30 1230 N 112.468 -0.941942 -5.54151 0
M  V30 1231 H 104.619 -1.3012 -1.67876 0
M  V30 1232 H 106.882 -0.530082 -0.78595 0
M  V30 1233 H 106.588 -1.44811 -3.20504 0
M  V30 1234 H 106.462 0.209729 -3.76616 0
M  V30 1235 H 108.849 0.651568 -2.87817 0
M  V30 1236 H 108.93 -1.03223 -2.34049 0
M  V30 1237 H 108.574 -1.79571 -4.75096 0
M  V30 1238 H 108.504 -0.0914649 -5.26521 0
M  V30 1239 H 110.995 -0.468783 -3.74981 0
M  V30 1240 H 111.308 -1.57597 -7.5656 0
M  V30 1241 H 109.653 -1.4105 -6.80536 0
M  V30 1242 H 112.844 -0.664184 -4.63364 0
M  V30 1243 H 113.017 -1.16884 -6.37371 0
M  V30 1244 N 106.423 1.57458 -0.0668435 0
M  V30 1245 C 107.386 2.11323 0.887422 0
M  V30 1246 C 108.386 1.03618 1.22964 0
M  V30 1247 O 109.576 1.29626 1.16373 0
M  V30 1248 C 106.708 2.61048 2.19242 0
M  V30 1249 H 107.901 2.96942 0.420194 0
M  V30 1250 H 105.454 1.55239 0.181793 0
M  V30 1251 H 106.189 1.78868 2.70512 0
M  V30 1252 H 105.974 3.39769 1.95702 0
M  V30 1253 H 107.464 3.02814 2.87565 0
M  V30 1254 N 107.901 -0.206675 1.56239 0
M  V30 1255 C 109.317 -0.557025 1.49564 0
M  V30 1256 C 109.517 -1.86424 0.764735 0
M  V30 1257 O 108.573 -2.50584 0.310491 0
M  V30 1258 C 109.886 -0.622478 2.94186 0
M  V30 1259 C 111.434 -0.712099 3.04792 0
M  V30 1260 C 111.909 -0.808767 4.50803 0
M  V30 1261 N 113.4 -0.8726 4.54907 0
M  V30 1262 C 114.135 -0.967365 5.65181 0
M  V30 1263 N 113.631 -1.02515 6.85173 0
M  V30 1264 N 115.424 -1.00366 5.53067 0
M  V30 1265 H 107.575 0.650943 2.02179 0
M  V30 1266 H 109.838 0.230387 0.919579 0
M  V30 1267 H 109.544 0.268727 3.50672 0
M  V30 1268 H 109.418 -1.4811 3.46905 0
M  V30 1269 H 111.805 -1.59374 2.48363 0
M  V30 1270 H 111.886 0.172489 2.55218 0
M  V30 1271 H 111.53 0.0684754 5.07854 0
M  V30 1272 H 111.46 -1.70899 4.98098 0
M  V30 1273 H 113.951 -0.837657 3.68499 0
M  V30 1274 H 114.264 -1.09765 7.64965 0
M  V30 1275 H 112.609 -0.994026 6.87855 0
M  V30 1276 H 115.8 -0.95527 4.58249 0
M  V30 1277 H 115.973 -1.07405 6.39037 0
M  V30 1278 N 109.379 -1.50304 -0.473955 0
M  V30 1279 C 110.628 -1.60392 -1.22301 0
M  V30 1280 C 110.941 -0.308411 -1.93153 0
M  V30 1281 O 112.147 -0.288156 -2.69966 0
M  V30 1282 C 110.603 -2.83109 -2.2221 0
M  V30 1283 C 110.211 -4.19524 -1.57173 0
M  V30 1284 C 111.955 -3.0254 -2.97775 0
M  V30 1285 C 109.862 -5.33431 -2.55353 0
M  V30 1286 H 108.792 -0.597286 -0.460179 0
M  V30 1287 H 111.443 -1.76731 -0.493803 0
M  V30 1288 H 109.825 -2.60322 -2.9841 0
M  V30 1289 H 110.999 -4.52554 -0.867824 0
M  V30 1290 H 109.314 -4.05674 -0.939002 0
M  V30 1291 H 111.911 -3.84811 -3.71248 0
M  V30 1292 H 112.254 -2.14154 -3.56992 0
M  V30 1293 H 112.787 -3.25494 -2.28688 0
M  V30 1294 H 109.526 -6.23962 -2.00878 0
M  V30 1295 H 109.046 -5.04823 -3.23904 0
M  V30 1296 H 110.725 -5.63887 -3.17239 0
M  V30 1297 N 110.857 0.726932 -1.39834 0
M  V30 1298 C 111.787 1.85405 -1.41941 0
M  V30 1299 C 112.768 1.67751 -0.281728 0
M  V30 1300 O 113.953 1.8795 -0.488717 0
M  V30 1301 C 111.083 3.23243 -1.2701 0
M  V30 1302 C 110.037 3.55549 -2.38262 0
M  V30 1303 C 109.363 4.9241 -2.08415 0
M  V30 1304 C 110.663 3.577 -3.80589 0
M  V30 1305 H 112.357 1.83899 -2.36266 0
M  V30 1306 H 109.903 0.883349 -1.13723 0
M  V30 1307 H 111.856 4.01775 -1.27103 0
M  V30 1308 H 110.58 3.25296 -0.291564 0
M  V30 1309 H 109.239 2.79351 -2.37399 0
M  V30 1310 H 108.887 4.91052 -1.0898 0
M  V30 1311 H 108.587 5.14992 -2.82943 0
M  V30 1312 H 110.111 5.73289 -2.10171 0
M  V30 1313 H 111.525 4.26293 -3.83337 0
M  V30 1314 H 109.922 3.91804 -4.54543 0
M  V30 1315 H 110.992 2.57328 -4.10987 0
M  V30 1316 N 112.336 1.25143 0.95797 0
M  V30 1317 C 113.584 1.09476 1.69881 0
M  V30 1318 C 113.905 -0.365502 1.91544 0
M  V30 1319 O 113.175 -1.25985 1.50015 0
M  V30 1320 H 111.755 0.402128 0.629525 0
M  V30 1321 H 114.417 1.57214 1.15194 0
M  V30 1322 H 113.513 1.60046 2.6794 0
M  V30 1323 N 113.814 -1.1601 1.06675 0
M  V30 1324 C 114.744 -2.22688 0.702307 0
M  V30 1325 C 115.725 -1.67306 -0.307032 0
M  V30 1326 O 116.91 -1.93352 -0.181305 0
M  V30 1327 C 114.04 -3.47178 0.092038 0
M  V30 1328 C 112.994 -4.15477 1.02777 0
M  V30 1329 C 112.32 -5.33963 0.28061 0
M  V30 1330 C 113.62 -4.66019 2.35846 0
M  V30 1331 H 115.314 -2.53429 1.59419 0
M  V30 1332 H 112.86 -1.21813 0.767961 0
M  V30 1333 H 114.813 -4.21037 -0.174814 0
M  V30 1334 H 113.537 -3.15749 -0.834877 0
M  V30 1335 H 112.196 -3.43549 1.27944 0
M  V30 1336 H 111.844 -4.98788 -0.649545 0
M  V30 1337 H 111.544 -5.806 0.904258 0
M  V30 1338 H 113.068 -6.10596 0.021396 0
M  V30 1339 H 114.482 -5.3144 2.15045 0
M  V30 1340 H 112.879 -5.23293 2.93743 0
M  V30 1341 H 113.949 -3.82023 2.98641 0
M  V30 1342 N 115.292 -0.849877 -1.32721 0
M  V30 1343 C 116.222 -0.306308 -2.31482 0
M  V30 1344 C 117.203 0.591952 -1.59468 0
M  V30 1345 O 118.388 0.513199 -1.87296 0
M  V30 1346 C 115.518 0.510204 -3.43532 0
M  V30 1347 C 114.472 -0.293209 -4.26994 0
M  V30 1348 C 113.798 0.647743 -5.30762 0
M  V30 1349 C 115.098 -1.51634 -4.99804 0
M  V30 1350 H 116.792 -1.13153 -2.77195 0
M  V30 1351 H 114.338 -0.545553 -1.33266 0
M  V30 1352 H 116.291 0.900856 -4.11658 0
M  V30 1353 H 115.015 1.36874 -2.96535 0
M  V30 1354 H 113.674 -0.665555 -3.60508 0
M  V30 1355 H 113.322 1.50299 -4.8002 0
M  V30 1356 H 113.022 0.11422 -5.87489 0
M  V30 1357 H 114.546 1.03567 -6.01753 0
M  V30 1358 H 115.96 -1.19824 -5.60638 0
M  V30 1359 H 114.357 -1.98745 -5.66234 0
M  V30 1360 H 115.427 -2.28018 -4.27943 0
M  V30 1361 N 116.77 1.45427 -0.607355 0
M  V30 1362 C 118.181 1.85756 -0.187535 0
M  V30 1363 C 118.532 1.5077 1.25551 0
M  V30 1364 O 117.657 0.93427 1.95193 0
M  V30 1365 C 118.252 3.37154 -0.333572 0
M  V30 1366 C 116.811 3.76387 0.0315542 0
M  V30 1367 C 115.958 2.69377 -0.658117 0
M  V30 1368 H 118.909 1.36231 -0.81405 0
M  V30 1369 H 118.93 3.78014 0.43428 0
M  V30 1370 H 118.442 3.62586 -1.38393 0
M  V30 1371 H 116.543 3.56571 1.0811 0
M  V30 1372 H 116.656 4.77731 -0.361935 0
M  V30 1373 H 115.02 2.5452 -0.0957873 0
M  V30 1374 H 115.803 2.97646 -1.7106 0
M  V30 1375 N 118.248 0.346503 1.53744 0
M  V30 1376 C 119.495 -0.249104 2.00962 0
M  V30 1377 C 119.823 -1.5032 1.23426 0
M  V30 1378 O 119.078 -1.93217 0.310761 0
M  V30 1379 C 119.377 -0.605809 3.52228 0
M  V30 1380 C 119.043 0.551747 4.47512 0
M  V30 1381 C 117.705 0.86941 4.73281 0
M  V30 1382 C 120.057 1.32818 5.03993 0
M  V30 1383 C 117.385 1.96582 5.52786 0
M  V30 1384 C 119.737 2.41486 5.84694 0
M  V30 1385 C 118.401 2.73808 6.08757 0
M  V30 1386 H 117.671 -0.0911538 0.735372 0
M  V30 1387 H 120.318 0.475027 1.85515 0
M  V30 1388 H 118.623 -1.4107 3.65522 0
M  V30 1389 H 120.32 -1.07858 3.86222 0
M  V30 1390 H 116.91 0.294102 4.2759 0
M  V30 1391 H 121.094 1.09602 4.84047 0
M  V30 1392 H 116.35 2.22045 5.69654 0
M  V30 1393 H 120.524 3.02078 6.27473 0
M  V30 1394 H 118.151 3.58892 6.7015 0
M  V30 1395 N 119.726 -1.57421 0.075193 0
M  V30 1396 C 120.954 -1.97946 -0.602076 0
M  V30 1397 C 121.369 -0.953674 -1.62943 0
M  V30 1398 O 120.726 0.0592551 -1.82404 0
M  V30 1399 C 120.777 -3.38546 -1.26762 0
M  V30 1400 O 120.498 -4.37195 -0.281376 0
M  V30 1401 C 121.999 -3.93966 -2.03239 0
M  V30 1402 H 119.219 -0.650918 -0.162931 0
M  V30 1403 H 121.763 -2.03959 0.148601 0
M  V30 1404 H 119.918 -3.33609 -1.96936 0
M  V30 1405 H 120.332 -5.18975 -0.759267 0
M  V30 1406 H 121.806 -4.94555 -2.45193 0
M  V30 1407 H 122.283 -3.30693 -2.8903 0
M  V30 1408 H 122.889 -4.02315 -1.37924 0
M  V30 1409 N 121.204 0.198386 -1.56346 0
M  V30 1410 C 122.114 1.2664 -1.97483 0
M  V30 1411 C 123.13 1.49989 -0.882002 0
M  V30 1412 O 124.306 1.62668 -1.18748 0
M  V30 1413 C 121.371 2.59141 -2.30319 0
M  V30 1414 C 120.432 2.43892 -3.53292 0
M  V30 1415 C 119.665 3.70074 -3.84553 0
M  V30 1416 O 119.888 4.74101 -3.1715 0
M  V30 1417 O 118.822 3.658 -4.7799 0
M  V30 1418 H 122.648 0.947304 -2.88548 0
M  V30 1419 H 120.233 0.403123 -1.43859 0
M  V30 1420 H 122.115 3.37352 -2.5253 0
M  V30 1421 H 120.79 2.90684 -1.42423 0
M  V30 1422 H 119.697 1.63803 -3.36332 0
M  V30 1423 H 121.03 2.17282 -4.41644 0
M  V30 1424 N 122.682 1.50554 0.465978 0
M  V30 1425 C 123.629 1.6979 1.56333 0
M  V30 1426 C 124.599 0.539239 1.57103 0
M  V30 1427 O 125.784 0.770401 1.74555 0
M  V30 1428 C 122.924 1.80273 2.94271 0
M  V30 1429 C 122.037 3.07674 3.0325 0
M  V30 1430 C 121.172 3.08922 4.32135 0
M  V30 1431 C 120.211 4.30755 4.34875 0
M  V30 1432 N 119.348 4.29714 5.55239 0
M  V30 1433 H 124.188 2.63472 1.39235 0
M  V30 1434 H 121.725 1.30602 0.676873 0
M  V30 1435 H 123.683 1.84332 3.74269 0
M  V30 1436 H 122.313 0.900258 3.09992 0
M  V30 1437 H 121.365 3.13062 2.16094 0
M  V30 1438 H 122.677 3.97642 3.01135 0
M  V30 1439 H 121.831 3.11738 5.20485 0
M  V30 1440 H 120.57 2.16792 4.36866 0
M  V30 1441 H 119.575 4.28146 3.44922 0
M  V30 1442 H 120.8 5.24117 4.31831 0
M  V30 1443 H 118.746 3.4044 5.60746 0
M  V30 1444 H 118.663 5.13456 5.54886 0
M  V30 1445 H 119.931 4.36683 6.457 0
M  V30 1446 N 124.16 -0.719506 1.40217 0
M  V30 1447 C 125.09 -1.8465 1.42922 0
M  V30 1448 C 126.071 -1.67599 0.29062 0
M  V30 1449 O 127.256 -1.87688 0.498677 0
M  V30 1450 C 124.386 -3.22565 1.28722 0
M  V30 1451 C 123.34 -3.54281 2.40144 0
M  V30 1452 C 122.666 -4.91298 2.11023 0
M  V30 1453 C 123.966 -3.55676 3.82481 0
M  V30 1454 H 125.66 -1.82644 2.37237 0
M  V30 1455 H 123.206 -0.877305 1.1419 0
M  V30 1456 H 125.159 -4.01095 1.29232 0
M  V30 1457 H 123.883 -3.25137 0.308811 0
M  V30 1458 H 122.542 -2.78088 2.38877 0
M  V30 1459 H 122.19 -4.90468 1.11582 0
M  V30 1460 H 121.89 -5.13485 2.8567 0
M  V30 1461 H 123.414 -5.72166 2.13209 0
M  V30 1462 H 124.828 -4.24254 3.85592 0
M  V30 1463 H 123.225 -3.89388 4.56614 0
M  V30 1464 H 124.295 -2.55144 4.12346 0
M  V30 1465 N 125.638 -1.25649 -0.95132 0
M  V30 1466 C 126.884 -1.10757 -1.69884 0
M  V30 1467 C 127.217 0.350061 -1.91019 0
M  V30 1468 O 126.492 1.25783 -1.48354 0
M  V30 1469 C 126.775 -1.86606 -3.07978 0
M  V30 1470 C 126.628 -3.40217 -2.94232 0
M  V30 1471 C 127.947 -1.65182 -4.07925 0
M  V30 1472 H 125.066 -0.40374 -0.616574 0
M  V30 1473 H 127.708 -1.54521 -1.10558 0
M  V30 1474 H 125.858 -1.49409 -3.58621 0
M  V30 1475 H 127.53 -3.87108 -2.50889 0
M  V30 1476 H 125.773 -3.67759 -2.30078 0
M  V30 1477 H 126.444 -3.88505 -3.92133 0
M  V30 1478 H 128.92 -1.9757 -3.66204 0
M  V30 1479 H 127.796 -2.20683 -5.02583 0
M  V30 1480 H 128.057 -0.593933 -4.38092 0
M  V30 1481 N 127.117 1.15442 -1.07289 0
M  V30 1482 C 128.533 1.38201 -0.798288 0
M  V30 1483 C 128.733 1.92429 0.597769 0
M  V30 1484 O 127.789 2.12962 1.3566 0
M  V30 1485 C 129.102 2.35357 -1.87156 0
M  V30 1486 C 130.65 2.49021 -1.89624 0
M  V30 1487 C 131.125 3.49468 -2.96034 0
M  V30 1488 N 132.616 3.57003 -2.95132 0
M  V30 1489 C 133.351 4.34543 -3.74112 0
M  V30 1490 N 132.847 5.15421 -4.6294 0
M  V30 1491 N 134.64 4.29625 -3.62462 0
M  V30 1492 H 126.791 0.78584 -1.97328 0
M  V30 1493 H 129.054 0.408065 -0.855679 0
M  V30 1494 H 128.76 2.02626 -2.87464 0
M  V30 1495 H 128.634 3.35129 -1.73114 0
M  V30 1496 H 131.021 2.81051 -0.899687 0
M  V30 1497 H 131.102 1.4925 -2.07745 0
M  V30 1498 H 130.746 3.18173 -3.95889 0
M  V30 1499 H 130.676 4.48992 -2.75161 0
M  V30 1500 H 133.167 2.99276 -2.30743 0
M  V30 1501 H 133.48 5.7183 -5.19837 0
M  V30 1502 H 131.825 5.14729 -4.66989 0
M  V30 1503 H 135.016 3.65505 -2.92444 0
M  V30 1504 H 135.189 4.89807 -4.24256 0
M  V30 1505 N 128.595 0.856903 1.32268 0
M  V30 1506 C 129.542 0.301172 2.28827 0
M  V30 1507 C 130.512 -0.593104 1.5515 0
M  V30 1508 O 131.697 -0.527537 1.83362 0
M  V30 1509 C 128.837 -0.502523 3.41422 0
M  V30 1510 C 127.95 0.417797 4.29975 0
M  V30 1511 C 127.085 -0.398749 5.29701 0
M  V30 1512 C 126.124 0.518827 6.09897 0
M  V30 1513 N 125.261 -0.260674 7.01616 0
M  V30 1514 H 130.101 1.12983 2.75751 0
M  V30 1515 H 127.638 0.568582 1.35667 0
M  V30 1516 H 129.596 -0.984141 4.05426 0
M  V30 1517 H 128.226 -1.29599 2.95642 0
M  V30 1518 H 127.278 1.01781 3.66531 0
M  V30 1519 H 128.59 1.12191 4.86019 0
M  V30 1520 H 127.744 -0.943435 5.9932 0
M  V30 1521 H 126.483 -1.13622 4.7428 0
M  V30 1522 H 125.488 1.07538 5.39181 0
M  V30 1523 H 126.713 1.25495 6.67404 0
M  V30 1524 H 124.659 -0.981198 6.4862 0
M  V30 1525 H 124.576 0.384364 7.55022 0
M  V30 1526 H 125.844 -0.787014 7.75517 0
M  V30 1527 O 130.112 -1.4275 0.755297 0
M  V30 1528 H 130.803 -1.91143 0.313685 0
M  V30 END ATOM
M  V30 BEGIN BOND
M  V30 END BOND
M  V30 END CTAB
M  END
$$$$
