drugbank_target|Q08460 Calcium-activated potassium channel subunit alpha-1 (DB08837)
 OpenBabel12092120593D

  0  0  0     0  0            999 V3000
M  V30 BEGIN CTAB
M  V30 COUNTS 18838 19043 0 0 0
M  V30 BEGIN ATOM
M  V30 1 H -0.908 1.98254 -0.117106 0
M  V30 2 N 0 1.576 0 0
M  V30 3 C 0.933 2.03868 1.02534 0
M  V30 4 C 1.911 0.928543 1.3348 0
M  V30 5 O 3.095 1.19667 1.45644 0
M  V30 6 C 0.222 2.43627 2.35294 0
M  V30 7 C -0.732 3.65373 2.2001 0
M  V30 8 S 0.101 5.13292 1.52614 0
M  V30 9 C 1.257 5.56322 2.86805 0
M  V30 10 H 1.49 2.90518 0.631377 0
M  V30 11 H -0.977 1.52953 0.210867 0
M  V30 12 H 0.981 2.67203 3.11629 0
M  V30 13 H -0.358 1.57376 2.7183 0
M  V30 14 H -1.165 3.90944 3.18086 0
M  V30 15 H -1.563 3.418 1.51819 0
M  V30 16 H 0.729 5.58782 3.83104 0
M  V30 17 H 1.672 6.56266 2.65933 0
M  V30 18 H 2.08 4.83886 2.90714 0
M  V30 19 N 1.4781 -0.272755 1.55222 0
M  V30 20 C 2.4411 -1.32041 1.87344 0
M  V30 21 C 3.4411 -1.42342 0.74803 0
M  V30 22 O 4.6311 -1.41488 1.0162 0
M  V30 23 C 1.7631 -2.70173 2.07893 0
M  V30 24 H 2.9561 -1.04789 2.80997 0
M  V30 25 H 0.5091 -0.51083 1.47717 0
M  V30 26 H 1.2441 -3.02605 1.16622 0
M  V30 27 H 1.0291 -2.64082 2.89833 0
M  V30 28 H 2.5191 -3.45869 2.34017 0
M  V30 29 N 2.9562 -1.48159 -0.537278 0
M  V30 30 C 3.9042 -1.62573 -1.66352 0
M  V30 31 C 4.8982 -0.492366 -1.62087 0
M  V30 32 O 6.1042 -0.670847 -1.67032 0
M  V30 33 H 2.4792 -0.511992 -0.550789 0
M  V30 34 H 4.4502 -2.57176 -1.51337 0
M  V30 35 C 3.1992 -1.67583 -3.04649 0
M  V30 36 H 2.5222 -2.54151 -3.08622 0
M  V30 37 H 3.9622 -1.81713 -3.83088 0
M  V30 38 C 2.4212 -0.413039 -3.34358 0
M  V30 39 O 2.9512 0.477259 -3.98855 0
M  V30 40 N 1.1572 -0.286961 -2.8918 0
M  V30 41 H 0.7042 -1.01241 -2.36871 0
M  V30 42 H 0.6622 0.556963 -3.09427 0
M  V30 43 N 4.4343 0.785586 -1.36625 0
M  V30 44 C 5.6823 1.54057 -1.30808 0
M  V30 45 C 6.0033 1.94683 0.111157 0
M  V30 46 O 5.2733 1.65241 1.05224 0
M  V30 47 H 3.8533 0.571354 -0.481211 0
M  V30 48 H 6.5153 0.935821 -1.70963 0
M  V30 49 H 5.6113 2.44637 -1.93801 0
M  V30 50 N 5.9124 1.20967 1.01018 0
M  V30 51 C 7.1604 1.02172 1.74371 0
M  V30 52 C 7.4814 -0.446414 1.89821 0
M  V30 53 O 6.7514 -1.32234 1.44537 0
M  V30 54 H 5.3314 0.375066 0.646014 0
M  V30 55 H 7.9934 1.52187 1.21758 0
M  V30 56 H 7.0894 1.48538 2.74487 0
M  V30 57 N 7.3905 -1.2043 1.01659 0
M  V30 58 C 8.6385 -1.89423 0.704522 0
M  V30 59 C 8.9595 -1.79231 -0.768197 0
M  V30 60 O 8.2295 -1.1947 -1.55254 0
M  V30 61 H 6.8095 -0.701178 0.257602 0
M  V30 62 H 9.4715 -1.4626 1.28818 0
M  V30 63 H 8.5675 -2.96052 0.987916 0
M  V30 64 N 8.8686 -0.792821 -1.36206 0
M  V30 65 C 10.1166 -0.366062 -1.98757 0
M  V30 66 C 10.4376 1.0668 -1.63231 0
M  V30 67 O 9.7076 1.73587 -0.907978 0
M  V30 68 H 8.2876 -0.132364 -0.735179 0
M  V30 69 H 10.9496 -1.01562 -1.66347 0
M  V30 70 H 10.0456 -0.460638 -3.08682 0
M  V30 71 N 10.3467 1.47872 -0.545128 0
M  V30 72 C 11.5947 2.02093 -0.016553 0
M  V30 73 C 11.9157 1.42305 1.3332 0
M  V30 74 O 11.1857 0.593853 1.86682 0
M  V30 75 H 9.7657 0.746993 -0.00313038 0
M  V30 76 H 12.4277 1.81414 -0.712397 0
M  V30 77 H 11.5237 3.11996 0.0805422 0
M  V30 78 N 11.8248 0.280983 1.55075 0
M  V30 79 C 13.0728 -0.333455 1.9933 0
M  V30 80 C 13.3938 -1.55937 1.17085 0
M  V30 81 O 12.6638 -1.94143 0.261805 0
M  V30 82 H 11.2438 -0.126197 0.736263 0
M  V30 83 H 13.9058 0.387678 1.91005 0
M  V30 84 H 13.0018 -0.619292 3.05894 0
M  V30 85 N 13.3029 -1.57598 0.00835791 0
M  V30 86 C 14.5509 -1.90551 -0.6734 0
M  V30 87 C 14.8719 -0.883301 -1.73847 0
M  V30 88 O 14.1419 0.0781442 -1.95744 0
M  V30 89 H 12.7219 -0.703312 -0.251717 0
M  V30 90 H 15.3839 -1.94833 0.0512592 0
M  V30 91 H 14.4799 -2.9056 -1.13935 0
M  V30 92 N 14.781 0.264519 -1.55364 0
M  V30 93 C 16.006 1.01726 -1.80739 0
M  V30 94 C 16.431 1.78836 -0.583044 0
M  V30 95 O 15.789 1.75167 0.467566 0
M  V30 96 C 15.837 1.94482 -3.03659 0
M  V30 97 O 14.941 3.03386 -2.7934 0
M  V30 98 H 14.282 0.290395 -0.597132 0
M  V30 99 H 16.812 0.290854 -2.02522 0
M  V30 100 H 16.822 2.36278 -3.32621 0
M  V30 101 H 15.497 1.37772 -3.92418 0
M  V30 102 H 14.074 2.65844 -2.61498 0
M  V30 103 N 16.2591 1.48442 0.529413 0
M  V30 104 C 17.4841 1.60406 1.31471 0
M  V30 105 C 17.9091 0.264738 1.86228 0
M  V30 106 O 17.2671 -0.763668 1.64432 0
M  V30 107 C 17.3151 2.65419 2.44101 0
M  V30 108 O 16.4191 2.22618 3.47153 0
M  V30 109 H 15.7601 0.537863 0.389357 0
M  V30 110 H 18.2901 1.94432 0.636965 0
M  V30 111 H 18.3001 2.86709 2.90279 0
M  V30 112 H 16.9751 3.62652 2.03608 0
M  V30 113 H 15.5521 2.11543 3.0709 0
M  V30 114 N 17.7372 -0.778329 1.37039 0
M  V30 115 C 18.9852 -1.53361 1.31623 0
M  V30 116 C 19.3062 -1.94739 -0.100831 0
M  V30 117 O 18.5762 -1.65797 -1.04347 0
M  V30 118 H 17.1562 -0.568794 0.484234 0
M  V30 119 H 19.8182 -0.926742 1.71457 0
M  V30 120 H 18.9142 -2.43606 1.95096 0
M  V30 121 N 19.2153 -1.21501 -1.00376 0
M  V30 122 C 20.4633 -1.03095 -1.73827 0
M  V30 123 C 20.7843 0.436341 -1.90055 0
M  V30 124 O 20.0543 1.31466 -1.45236 0
M  V30 125 H 18.6343 -0.378487 -0.644016 0
M  V30 126 H 21.2963 -1.52831 -1.20949 0
M  V30 127 H 20.3923 -1.49991 -2.73695 0
M  V30 128 N 20.6934 1.19889 -1.02296 0
M  V30 129 C 21.9414 1.89046 -0.714558 0
M  V30 130 C 22.2624 1.79636 0.758681 0
M  V30 131 O 21.5324 1.20292 1.54618 0
M  V30 132 H 20.1124 0.699802 -0.261317 0
M  V30 133 H 22.7744 1.45574 -1.29592 0
M  V30 134 H 21.8704 2.95524 -1.0036 0
M  V30 135 N 22.1715 0.800033 1.35784 0
M  V30 136 C 23.4195 0.376597 1.9856 0
M  V30 137 C 23.7405 -1.05812 1.63795 0
M  V30 138 O 23.0105 -1.73103 0.917171 0
M  V30 139 H 21.5905 0.136261 0.734467 0
M  V30 140 H 24.2525 1.02442 1.65806 0
M  V30 141 H 23.3485 0.477002 3.08433 0
M  V30 142 N 23.6496 -1.47581 0.552962 0
M  V30 143 C 24.8976 -2.02082 0.0272703 0
M  V30 144 C 25.2186 -1.4301 -1.32563 0
M  V30 145 O 24.4886 -0.603745 -1.86365 0
M  V30 146 H 23.0686 -0.746966 0.00709182 0
M  V30 147 H 25.7306 -1.81033 0.722008 0
M  V30 148 H 24.8266 -3.12034 -0.0639951 0
M  V30 149 N 25.1277 -0.289203 -1.54924 0
M  V30 150 C 26.3757 0.322879 -1.99504 0
M  V30 151 C 26.6967 1.55313 -1.1791 0
M  V30 152 O 25.9667 1.94001 -0.272097 0
M  V30 153 H 24.5467 0.122291 -0.736922 0
M  V30 154 H 27.2087 -0.397802 -1.90797 0
M  V30 155 H 26.3047 0.603061 -3.06218 0
M  V30 156 N 26.6058 1.57591 -0.0167156 0
M  V30 157 C 27.8538 1.90906 0.663285 0
M  V30 158 C 28.1748 0.892509 1.73376 0
M  V30 159 O 27.4448 -0.0677623 1.95783 0
M  V30 160 H 26.0248 0.704637 0.247983 0
M  V30 161 H 28.6868 1.94803 -0.0615909 0
M  V30 162 H 27.7828 2.9116 1.12393 0
M  V30 163 N 28.0839 -0.256276 1.55502 0
M  V30 164 C 29.3319 -0.983672 1.76545 0
M  V30 165 C 29.6529 -1.86206 0.578982 0
M  V30 166 O 28.9229 -1.91656 -0.405577 0
M  V30 167 H 27.5029 -0.366191 0.651086 0
M  V30 168 H 30.1649 -0.276479 1.92929 0
M  V30 169 H 29.2609 -1.61087 2.67315 0
M  V30 170 N 29.562 -1.4872 -0.521534 0
M  V30 171 C 30.81 -1.56857 -1.27437 0
M  V30 172 C 31.131 -0.247982 -1.93417 0
M  V30 173 O 30.401 0.731151 -1.81744 0
M  V30 174 H 28.981 -0.577885 -0.473347 0
M  V30 175 H 31.643 -1.85233 -0.606205 0
M  V30 176 H 30.739 -2.35402 -2.0492 0
M  V30 177 N 31.0401 0.771051 -1.3745 0
M  V30 178 C 32.2651 1.56529 -1.36065 0
M  V30 179 C 32.6901 1.88029 0.0515859 0
M  V30 180 O 32.0481 1.49282 1.02882 0
M  V30 181 C 32.0961 2.85187 -2.20683 0
M  V30 182 O 31.2001 3.79593 -1.61193 0
M  V30 183 H 30.5411 0.47411 -0.464883 0
M  V30 184 H 33.0711 0.954269 -1.80983 0
M  V30 185 H 33.0811 3.34283 -2.33921 0
M  V30 186 H 31.7561 2.61588 -3.23334 0
M  V30 187 H 30.3331 3.38239 -1.56999 0
M  V30 188 N 32.5182 1.22032 0.997298 0
M  V30 189 C 33.7662 1.04016 1.73278 0
M  V30 190 C 34.0872 -0.426255 1.90284 0
M  V30 191 O 33.3572 -1.30694 1.45931 0
M  V30 192 H 31.9372 0.381897 0.642 0
M  V30 193 H 34.5992 1.5347 1.20137 0
M  V30 194 H 33.6952 1.51441 2.72896 0
M  V30 195 N 33.9963 -1.19345 1.0293 0
M  V30 196 C 34.9263 -2.2481 0.631105 0
M  V30 197 C 35.9073 -1.66245 -0.360104 0
M  V30 198 O 37.0923 -1.92677 -0.242726 0
M  V30 199 C 34.2223 -3.47295 -0.0184607 0
M  V30 200 C 33.1763 -4.18536 0.895073 0
M  V30 201 C 32.5023 -5.34586 0.110592 0
M  V30 202 C 33.8023 -4.73287 2.209 0
M  V30 203 H 35.4963 -2.58372 1.51275 0
M  V30 204 H 33.0423 -1.24194 0.728818 0
M  V30 205 H 34.9953 -4.20268 -0.308675 0
M  V30 206 H 33.7193 -3.12933 -0.934907 0
M  V30 207 H 32.3783 -3.47446 1.16949 0
M  V30 208 H 32.0263 -4.96469 -0.807902 0
M  V30 209 H 31.7263 -5.83183 0.719087 0
M  V30 210 H 33.2503 -6.10355 -0.172871 0
M  V30 211 H 34.6643 -5.38013 1.98028 0
M  V30 212 H 33.0613 -5.32373 2.76946 0
M  V30 213 H 34.1313 -3.91331 2.86336 0
M  V30 214 N 35.4744 -0.807222 -1.35358 0
M  V30 215 C 36.8904 -0.491038 -1.51858 0
M  V30 216 C 37.0904 0.987648 -1.75635 0
M  V30 217 O 36.1464 1.77265 -1.79815 0
M  V30 218 C 37.4594 -1.33695 -2.69344 0
M  V30 219 C 39.0074 -1.33246 -2.83222 0
M  V30 220 C 39.4824 -2.1625 -4.03733 0
M  V30 221 N 40.9734 -2.1379 -4.10911 0
M  V30 222 C 41.7084 -2.74772 -5.03277 0
M  V30 223 N 41.2044 -3.44684 -6.0097 0
M  V30 224 N 42.9974 -2.6441 -4.96028 0
M  V30 225 H 35.1484 -1.76485 -1.18181 0
M  V30 226 H 37.4114 -0.751199 -0.578276 0
M  V30 227 H 37.1174 -2.38634 -2.58354 0
M  V30 228 H 36.9914 -0.990618 -3.6396 0
M  V30 229 H 39.3784 -0.290911 -2.93663 0
M  V30 230 H 39.4594 -1.71866 -1.89461 0
M  V30 231 H 39.1034 -3.20445 -3.94052 0
M  V30 232 H 39.0334 -1.74989 -4.96675 0
M  V30 233 H 41.5244 -1.62923 -3.40976 0
M  V30 234 H 41.8374 -3.88501 -6.68047 0
M  V30 235 H 40.1824 -3.48788 -6.01142 0
M  V30 236 H 43.3734 -2.0938 -4.18662 0
M  V30 237 H 43.5464 -3.12225 -5.6782 0
M  V30 238 N 36.9525 1.47285 -0.560781 0
M  V30 239 C 37.8855 2.27009 0.232821 0
M  V30 240 C 38.8635 1.34273 0.917039 0
M  V30 241 O 40.0475 1.63659 0.935315 0
M  V30 242 C 37.1745 3.11406 1.33206 0
M  V30 243 C 36.2205 4.19746 0.756019 0
M  V30 244 S 37.0535 5.34003 -0.400165 0
M  V30 245 C 38.2095 6.21964 0.700805 0
M  V30 246 H 38.4425 2.93971 -0.443683 0
M  V30 247 H 35.9755 1.50446 -0.347181 0
M  V30 248 H 37.9335 3.60601 1.96156 0
M  V30 249 H 36.5945 2.438 1.98041 0
M  V30 250 H 35.7875 4.78541 1.5816 0
M  V30 251 H 35.3895 3.73451 0.202619 0
M  V30 252 H 37.6815 6.58529 1.59202 0
M  V30 253 H 38.6245 7.07941 0.150126 0
M  V30 254 H 39.0325 5.5566 0.995083 0
M  V30 255 N 38.4306 0.297415 1.54768 0
M  V30 256 C 39.6556 -0.318435 2.04941 0
M  V30 257 C 40.0806 -1.4701 1.17345 0
M  V30 258 O 39.4386 -1.80436 0.176758 0
M  V30 259 C 39.4866 -0.755749 3.52592 0
M  V30 260 O 38.5906 -1.86088 3.68028 0
M  V30 261 H 37.9316 -0.062421 0.661059 0
M  V30 262 H 40.4616 0.438215 1.99852 0
M  V30 263 H 40.4716 -1.04552 3.94376 0
M  V30 264 H 39.1466 0.0867233 4.1581 0
M  V30 265 H 37.7236 -1.57193 3.38149 0
M  V30 266 N 39.9087 -1.5758 0.0250728 0
M  V30 267 C 41.1337 -1.96337 -0.668317 0
M  V30 268 C 41.5587 -0.901314 -1.651 0
M  V30 269 O 40.9167 0.138187 -1.80773 0
M  V30 270 C 40.9647 -3.34191 -1.35457 0
M  V30 271 O 40.0687 -3.30269 -2.46974 0
M  V30 272 H 39.4097 -0.640281 -0.175887 0
M  V30 273 H 41.9397 -2.0442 0.0857224 0
M  V30 274 H 41.9497 -3.70331 -1.71228 0
M  V30 275 H 40.6247 -4.11036 -0.634218 0
M  V30 276 H 39.2017 -3.05841 -2.13344 0
M  V30 277 N 41.3868 0.248026 -1.55636 0
M  V30 278 C 42.3348 1.32683 -1.91045 0
M  V30 279 C 43.3288 1.49883 -0.789401 0
M  V30 280 O 44.5348 1.51371 -0.974007 0
M  V30 281 H 40.9098 0.444272 -0.606734 0
M  V30 282 H 42.8808 1.00085 -2.81115 0
M  V30 283 C 41.6298 2.6755 -2.22064 0
M  V30 284 H 40.9528 2.55114 -3.07826 0
M  V30 285 H 42.3928 3.41912 -2.50743 0
M  V30 286 C 40.8518 3.20556 -1.0366 0
M  V30 287 O 41.3818 4.00695 -0.284016 0
M  V30 288 N 39.5878 2.78568 -0.82753 0
M  V30 289 H 39.1348 2.1351 -1.44123 0
M  V30 290 H 39.0928 3.14378 -0.0369803 0
M  V30 291 N 42.8649 1.48995 0.513639 0
M  V30 292 C 44.1139 1.57093 1.2651 0
M  V30 293 C 44.4269 0.257091 1.93903 0
M  V30 294 O 45.6329 0.216478 2.70636 0
M  V30 295 C 44.0889 2.77118 2.29638 0
M  V30 296 C 43.6969 4.15209 1.68241 0
M  V30 297 C 45.4409 2.94538 3.05692 0
M  V30 298 C 43.3479 5.26474 2.69406 0
M  V30 299 H 42.2779 0.584876 0.475854 0
M  V30 300 H 44.9289 1.7536 0.540487 0
M  V30 301 H 43.3109 2.52319 3.05207 0
M  V30 302 H 44.4849 4.50094 0.987505 0
M  V30 303 H 42.7999 4.03042 1.04623 0
M  V30 304 H 45.3969 3.74832 3.8132 0
M  V30 305 H 45.7399 2.04614 3.62545 0
M  V30 306 H 46.2729 3.19316 2.37238 0
M  V30 307 H 43.0119 6.18417 2.17351 0
M  V30 308 H 42.5319 4.96058 3.37175 0
M  V30 309 H 44.2109 5.55277 3.32078 0
M  V30 310 N 44.343 -0.763751 1.37857 0
M  V30 311 C 45.293 -1.86765 1.30777 0
M  V30 312 C 46.277 -1.59726 0.194015 0
M  V30 313 O 47.469 -1.7172 0.42911 0
M  V30 314 C 44.598 -3.24343 1.12502 0
M  V30 315 C 43.684 -3.57307 2.28456 0
M  V30 316 N 44.075 -3.61398 3.53871 0
M  V30 317 C 42.373 -3.87517 2.20786 0
M  V30 318 C 43.074 -3.91339 4.30382 0
M  V30 319 N 42.05 -4.07649 3.59615 0
M  V30 320 H 45.852 -1.88191 2.25746 0
M  V30 321 H 43.366 -0.9606 1.30944 0
M  V30 322 H 45.363 -4.03327 1.05514 0
M  V30 323 H 44.023 -3.24175 0.184574 0
M  V30 324 H 45.034 -3.43407 3.87675 0
M  V30 325 H 41.711 -3.95125 1.34844 0
M  V30 326 H 43.101 -4.01213 5.3896 0
M  V30 327 N 45.8211 -1.22559 -0.990812 0
M  V30 328 C 46.7841 -0.998863 -2.0629 0
M  V30 329 C 47.7841 0.0354834 -1.60761 0
M  V30 330 O 48.9741 -0.203231 -1.7301 0
M  V30 331 C 46.1061 -0.509203 -3.37076 0
M  V30 332 H 47.2991 -1.95014 -2.27837 0
M  V30 333 H 44.8521 -1.04456 -1.16269 0
M  V30 334 H 45.5871 0.446335 -3.21214 0
M  V30 335 H 45.3721 -1.25547 -3.71457 0
M  V30 336 H 46.8621 -0.370888 -4.1595 0
M  V30 337 N 47.2992 1.18797 -1.03562 0
M  V30 338 C 48.2472 2.24297 -0.615905 0
M  V30 339 C 49.2412 1.65643 0.354808 0
M  V30 340 O 50.4472 1.78618 0.22265 0
M  V30 341 H 46.8222 0.729909 -0.180934 0
M  V30 342 H 48.7932 2.5701 -1.5162 0
M  V30 343 C 47.5422 3.47698 0.0104735 0
M  V30 344 H 46.8652 3.93125 -0.727509 0
M  V30 345 H 48.3052 4.23159 0.266995 0
M  V30 346 C 46.7642 3.12489 1.25905 0
M  V30 347 O 47.2942 3.25761 2.35038 0
M  V30 348 N 45.5002 2.6686 1.15039 0
M  V30 349 H 45.0472 2.56261 0.262328 0
M  V30 350 H 45.0052 2.43674 1.98672 0
M  V30 351 N 48.7773 0.814389 1.34928 0
M  V30 352 C 49.7253 0.218424 2.31572 0
M  V30 353 C 50.7193 -0.636128 1.57002 0
M  V30 354 O 51.9253 -0.52842 1.72069 0
M  V30 355 H 48.3003 0.0518799 0.750208 0
M  V30 356 H 50.2713 1.04852 2.79372 0
M  V30 357 C 49.0203 -0.61207 3.4227 0
M  V30 358 H 48.3433 0.0361578 3.99784 0
M  V30 359 H 49.7833 -0.995317 4.12152 0
M  V30 360 C 48.2423 -1.78087 2.85984 0
M  V30 361 O 48.7723 -2.8787 2.80168 0
M  V30 362 N 46.9783 -1.59488 2.42924 0
M  V30 363 H 46.5253 -0.701874 2.47854 0
M  V30 364 H 46.4833 -2.37846 2.05613 0
M  V30 365 N 50.2554 -1.46986 0.568584 0
M  V30 366 C 51.1854 -2.32946 -0.160753 0
M  V30 367 C 52.1664 -1.44487 -0.897631 0
M  V30 368 O 53.3514 -1.73327 -0.875867 0
M  V30 369 C 50.4814 -3.26494 -1.18403 0
M  V30 370 C 49.4354 -4.24282 -0.562895 0
M  V30 371 C 48.7614 -5.07236 -1.69163 0
M  V30 372 C 50.0614 -5.19989 0.490761 0
M  V30 373 H 51.7554 -2.94175 0.556916 0
M  V30 374 H 49.3014 -1.4146 0.26927 0
M  V30 375 H 51.2544 -3.85477 -1.70251 0
M  V30 376 H 49.9784 -2.63343 -1.93179 0
M  V30 377 H 48.6374 -3.66541 -0.0656164 0
M  V30 378 H 48.2854 -4.4048 -2.42871 0
M  V30 379 H 47.9854 -5.7345 -1.28174 0
M  V30 380 H 49.5094 -5.6908 -2.21314 0
M  V30 381 H 50.9234 -5.73271 0.0579047 0
M  V30 382 H 49.3204 -5.94469 0.820165 0
M  V30 383 H 50.3904 -4.64777 1.3824 0
M  V30 384 N 51.7335 -0.305618 -1.54608 0
M  V30 385 C 52.9585 0.307562 -2.05107 0
M  V30 386 C 53.3835 1.46385 -1.18123 0
M  V30 387 O 52.7415 1.8034 -0.186324 0
M  V30 388 C 52.7895 0.73704 -3.52987 0
M  V30 389 O 51.8935 1.84134 -3.6901 0
M  V30 390 H 51.2345 0.0589143 -0.661381 0
M  V30 391 H 53.7645 -0.448807 -1.99617 0
M  V30 392 H 53.7745 1.02459 -3.94925 0
M  V30 393 H 52.4495 -0.108773 -4.15758 0
M  V30 394 H 51.0265 1.55398 -3.38978 0
M  V30 395 N 53.2116 1.57565 -0.0334293 0
M  V30 396 C 54.1416 2.13511 0.945265 0
M  V30 397 C 55.1226 1.05231 1.33643 0
M  V30 398 O 56.3076 1.33084 1.41429 0
M  V30 399 C 53.4376 2.6657 2.22616 0
M  V30 400 C 52.3916 3.79676 1.97561 0
M  V30 401 C 51.7176 4.1918 3.31952 0
M  V30 402 C 53.0176 5.0557 1.31135 0
M  V30 403 H 54.7116 2.95538 0.479325 0
M  V30 404 H 52.2576 1.42166 0.229115 0
M  V30 405 H 54.2106 3.04344 2.91466 0
M  V30 406 H 52.9346 1.8171 2.71384 0
M  V30 407 H 51.5936 3.42347 1.31127 0
M  V30 408 H 51.2416 3.31296 3.78487 0
M  V30 409 H 50.9416 4.95402 3.15992 0
M  V30 410 H 52.4656 4.59541 4.02063 0
M  V30 411 H 53.8796 5.40903 1.89992 0
M  V30 412 H 52.2766 5.86818 1.25559 0
M  V30 413 H 53.3466 4.84062 0.284894 0
M  V30 414 N 54.6897 -0.239769 1.55765 0
M  V30 415 C 55.9667 -0.990056 1.68693 0
M  V30 416 C 56.3467 -2.03107 0.5754 0
M  V30 417 O 55.6947 -2.24604 -0.42017 0
M  V30 418 C 55.9047 -1.61696 3.09282 0
M  V30 419 C 57.2527 -2.11613 3.6811 0
M  V30 420 O 58.2767 -1.71624 3.12127 0
M  V30 421 O 57.1357 -2.85057 4.66267 0
M  V30 422 H 54.2297 -0.461299 0.686391 0
M  V30 423 H 56.7757 -0.232991 1.68093 0
M  V30 424 H 55.5477 -0.864357 3.81634 0
M  V30 425 H 55.1707 -2.44005 3.13923 0
M  V30 426 N 56.1678 -1.49265 -0.50573 0
M  V30 427 C 57.1308 -1.65075 -1.59006 0
M  V30 428 C 58.1308 -0.522768 -1.52065 0
M  V30 429 O 59.3208 -0.789117 -1.55302 0
M  V30 430 C 56.4528 -1.64369 -2.98656 0
M  V30 431 H 57.6458 -2.61784 -1.46319 0
M  V30 432 H 55.1988 -1.38226 -0.729616 0
M  V30 433 H 55.9338 -0.692272 -3.16825 0
M  V30 434 H 55.7188 -2.46282 -3.05103 0
M  V30 435 H 57.2088 -1.78674 -3.77446 0
M  V30 436 N 57.6459 0.756429 -1.3826 0
M  V30 437 C 58.8709 1.55077 -1.37717 0
M  V30 438 C 59.2959 1.88073 0.03164 0
M  V30 439 O 58.6539 1.50364 1.01293 0
M  V30 440 C 58.7019 2.8283 -2.23695 0
M  V30 441 O 57.8059 3.77862 -1.6521 0
M  V30 442 H 57.1469 0.469152 -0.469885 0
M  V30 443 H 59.6769 0.935019 -1.81985 0
M  V30 444 H 59.6869 3.31783 -2.37453 0
M  V30 445 H 58.3619 2.58144 -3.2609 0
M  V30 446 H 56.9389 3.36555 -1.60578 0
M  V30 447 N 59.124 1.23083 0.984299 0
M  V30 448 C 60.349 1.088 1.76571 0
M  V30 449 C 60.774 -0.356657 1.84688 0
M  V30 450 O 60.132 -1.25788 1.30565 0
M  V30 451 C 60.18 1.71371 3.17277 0
M  V30 452 O 59.284 0.973213 4.00752 0
M  V30 453 H 58.625 0.381599 0.543395 0
M  V30 454 H 61.155 1.63057 1.23587 0
M  V30 455 H 61.165 1.76449 3.67872 0
M  V30 456 H 59.84 2.76493 3.10684 0
M  V30 457 H 58.417 0.999078 3.59267 0
M  V30 458 N 60.6021 -1.18246 1.0419 0
M  V30 459 C 61.8271 -1.92736 0.765996 0
M  V30 460 C 62.2521 -1.75728 -0.67091 0
M  V30 461 O 61.6101 -1.06825 -1.46486 0
M  V30 462 C 61.6581 -3.42148 1.13875 0
M  V30 463 O 60.7621 -4.11548 0.264954 0
M  V30 464 H 60.1031 -0.601238 0.281797 0
M  V30 465 H 62.6331 -1.49942 1.39207 0
M  V30 466 H 62.6431 -3.92858 1.1012 0
M  V30 467 H 61.3181 -3.53848 2.18551 0
M  V30 468 H 59.8951 -3.71137 0.362226 0
M  V30 469 N 62.0802 -0.821533 -1.34494 0
M  V30 470 C 63.3052 -0.420873 -2.03085 0
M  V30 471 C 63.7302 0.964915 -1.61465 0
M  V30 472 O 63.0882 1.62763 -0.798607 0
M  V30 473 C 63.1362 -0.529414 -3.56693 0
M  V30 474 O 62.2402 0.451302 -4.09923 0
M  V30 475 H 61.5812 -0.173489 -0.640935 0
M  V30 476 H 64.1112 -1.11157 -1.71771 0
M  V30 477 H 64.1212 -0.404671 -4.05988 0
M  V30 478 H 62.7962 -1.54014 -3.86332 0
M  V30 479 H 61.3732 0.285558 -3.71805 0
M  V30 480 N 63.5583 1.46682 -0.576371 0
M  V30 481 C 64.7833 2.07304 -0.0630475 0
M  V30 482 C 65.2083 1.42329 1.2298 0
M  V30 483 O 64.5663 0.504865 1.74129 0
M  V30 484 C 64.6143 3.60472 0.095895 0
M  V30 485 O 63.7183 3.95927 1.15394 0
M  V30 486 H 63.0593 0.661288 -0.0599463 0
M  V30 487 H 65.5893 1.88417 -0.797511 0
M  V30 488 H 65.5993 4.06865 0.304071 0
M  V30 489 H 64.2743 4.07157 -0.84828 0
M  V30 490 H 62.8513 3.61252 0.924724 0
M  V30 491 N 65.0364 0.313813 1.54444 0
M  V30 492 C 66.2614 -0.296681 2.05267 0
M  V30 493 C 66.6864 -1.45757 1.18897 0
M  V30 494 O 66.0444 -1.80239 0.195886 0
M  V30 495 C 66.0924 -0.71831 3.53373 0
M  V30 496 O 65.1964 -1.82175 3.69981 0
M  V30 497 H 64.5374 -0.0554061 0.661684 0
M  V30 498 H 67.0674 0.459387 1.99376 0
M  V30 499 H 67.0774 -1.00364 3.95463 0
M  V30 500 H 65.7524 0.130821 4.15694 0
M  V30 501 H 64.3294 -1.53598 3.39797 0
M  V30 502 N 66.5145 -1.57545 0.0417849 0
M  V30 503 C 67.7395 -1.97035 -0.647455 0
M  V30 504 C 68.1645 -0.918775 -1.64135 0
M  V30 505 O 67.5225 0.119006 -1.80909 0
M  V30 506 C 67.5705 -3.35609 -1.31905 0
M  V30 507 O 66.6745 -3.3287 -2.43457 0
M  V30 508 H 66.0155 -0.64211 -0.169086 0
M  V30 509 H 68.5455 -2.04318 0.107399 0
M  V30 510 H 68.5555 -3.72126 -1.67291 0
M  V30 511 H 67.2305 -4.11685 -0.590586 0
M  V30 512 H 65.8075 -3.08087 -2.10088 0
M  V30 513 N 67.9926 0.231505 -1.5589 0
M  V30 514 C 69.2176 0.978689 -1.82856 0
M  V30 515 C 69.6426 1.77559 -0.620846 0
M  V30 516 O 69.0006 1.76119 0.430305 0
M  V30 517 C 69.0486 1.87997 -3.07716 0
M  V30 518 O 68.1526 2.97393 -2.85712 0
M  V30 519 H 67.4936 0.277663 -0.603158 0
M  V30 520 H 70.0236 0.24783 -2.03093 0
M  V30 521 H 70.0336 2.2917 -3.37558 0
M  V30 522 H 68.7086 1.29417 -3.95252 0
M  V30 523 H 67.2856 2.60238 -2.67078 0
M  V30 524 N 69.4707 1.49531 0.497807 0
M  V30 525 C 70.6957 1.63159 1.28039 0
M  V30 526 C 71.1207 0.30418 1.85624 0
M  V30 527 O 70.4787 -0.728618 1.66015 0
M  V30 528 C 70.5267 2.70537 2.38416 0
M  V30 529 O 69.6307 2.29931 3.42353 0
M  V30 530 H 68.9717 0.546001 0.377861 0
M  V30 531 H 71.5017 1.9574 0.59558 0
M  V30 532 H 71.5117 2.92802 2.84132 0
M  V30 533 H 70.1867 3.6689 1.95869 0
M  V30 534 H 68.7637 2.18009 3.02533 0
M  V30 535 N 70.9488 -0.749086 1.3866 0
M  V30 536 C 72.1738 -1.54344 1.38538 0
M  V30 537 C 72.5988 -1.88088 -0.0216655 0
M  V30 538 O 71.9568 -1.50899 -1.00494 0
M  V30 539 C 72.0048 -2.8164 2.25192 0
M  V30 540 O 71.1088 -3.7698 1.67212 0
M  V30 541 H 70.4498 -0.466654 0.472367 0
M  V30 542 H 72.9798 -0.925355 1.82478 0
M  V30 543 H 72.9898 -3.30519 2.3921 0
M  V30 544 H 71.6648 -2.56411 3.27454 0
M  V30 545 H 70.2418 -3.35699 1.6236 0
M  V30 546 N 72.4269 -1.23603 -0.977757 0
M  V30 547 C 73.6519 -1.09735 -1.75991 0
M  V30 548 C 74.0769 0.346858 -1.84874 0
M  V30 549 O 73.4349 1.25093 -1.3123 0
M  V30 550 C 73.4829 -1.73051 -3.16363 0
M  V30 551 O 72.5869 -0.994452 -4.0023 0
M  V30 552 H 71.9279 -0.384476 -0.541364 0
M  V30 553 H 74.4579 -1.6371 -1.2272 0
M  V30 554 H 74.4679 -1.78398 -3.66931 0
M  V30 555 H 73.1429 -2.78137 -3.09213 0
M  V30 556 H 71.7199 -1.01812 -3.58732 0
M  V30 557 N 73.905 1.17692 -1.04816 0
M  V30 558 C 75.13 1.92327 -0.776207 0
M  V30 559 C 75.555 1.76082 0.661581 0
M  V30 560 O 74.913 1.076 1.45917 0
M  V30 561 C 74.961 3.41539 -1.15687 0
M  V30 562 O 74.065 4.11402 -0.286775 0
M  V30 563 H 73.406 0.599735 -0.284981 0
M  V30 564 H 75.936 1.49201 -1.4 0
M  V30 565 H 75.946 3.92269 -1.12202 0
M  V30 566 H 74.621 3.52684 -2.20425 0
M  V30 567 H 73.198 3.70939 -0.381903 0
M  V30 568 N 75.3831 0.828654 1.34056 0
M  V30 569 C 76.6081 0.431637 2.02859 0
M  V30 570 C 77.0331 -0.956339 1.61975 0
M  V30 571 O 76.3911 -1.62338 0.807228 0
M  V30 572 C 76.4391 0.548323 3.56407 0
M  V30 573 O 75.5431 -0.429556 4.10157 0
M  V30 574 H 74.8841 0.176886 0.640006 0
M  V30 575 H 77.4141 1.12066 1.71179 0
M  V30 576 H 77.4241 0.426196 4.05768 0
M  V30 577 H 76.0991 1.5606 3.8551 0
M  V30 578 H 74.6761 -0.265836 3.71951 0
M  V30 579 N 76.8612 -1.46375 0.584142 0
M  V30 580 C 78.0862 -2.07268 0.0740405 0
M  V30 581 C 78.5112 -1.42979 -1.22223 0
M  V30 582 O 77.8692 -0.514092 -1.73859 0
M  V30 583 C 77.9172 -3.60518 -0.0767769 0
M  V30 584 O 77.0212 -3.96533 -1.13292 0
M  V30 585 H 76.3622 -0.660961 0.0634524 0
M  V30 586 H 78.8922 -1.87991 0.807492 0
M  V30 587 H 78.9022 -4.07021 -0.282489 0
M  V30 588 H 77.5772 -4.06702 0.86986 0
M  V30 589 H 76.1542 -3.61738 -0.905553 0
M  V30 590 N 78.3393 -0.321999 -1.54275 0
M  V30 591 C 79.5643 0.285791 -2.05422 0
M  V30 592 C 79.9893 1.45124 -1.19669 0
M  V30 593 O 79.3473 1.80132 -0.205441 0
M  V30 594 C 79.3953 0.69956 -3.53749 0
M  V30 595 O 78.4993 1.8021 -3.70942 0
M  V30 596 H 77.8403 0.0518962 -0.661969 0
M  V30 597 H 80.3703 -0.469954 -1.9913 0
M  V30 598 H 80.3803 0.982649 -3.9599 0
M  V30 599 H 79.0553 -0.152864 -4.15619 0
M  V30 600 H 77.6323 1.51794 -3.40607 0
M  V30 601 N 79.8174 1.5752 -0.0501392 0
M  V30 602 C 81.0424 1.97376 0.636997 0
M  V30 603 C 81.4674 0.927466 1.63645 0
M  V30 604 O 80.8254 -0.10941 1.8097 0
M  V30 605 C 80.8734 3.36304 1.30123 0
M  V30 606 O 79.9774 3.34156 2.41689 0
M  V30 607 H 79.3184 0.642998 0.165679 0
M  V30 608 H 81.8484 2.04258 -0.118233 0
M  V30 609 H 81.8584 3.73008 1.65315 0
M  V30 610 H 80.5334 4.11993 0.568746 0
M  V30 611 H 79.1104 3.09196 2.08451 0
M  V30 612 N 81.2955 -0.223234 1.56011 0
M  V30 613 C 82.5205 -0.968978 1.83373 0
M  V30 614 C 82.9455 -1.77227 0.630254 0
M  V30 615 O 82.3035 -1.76345 -0.420959 0
M  V30 616 C 82.3515 -1.86363 3.08709 0
M  V30 617 O 81.4555 -2.95873 2.87285 0
M  V30 618 H 80.7965 -0.274461 0.604622 0
M  V30 619 H 83.3265 -0.237056 2.03222 0
M  V30 620 H 83.3365 -2.27376 3.38768 0
M  V30 621 H 82.0115 -1.27319 3.95933 0
M  V30 622 H 80.5885 -2.58818 2.68454 0
M  V30 623 N 82.7736 -1.49793 -0.48987 0
M  V30 624 C 83.9986 -1.63836 -1.27172 0
M  V30 625 C 84.4236 -0.31402 -1.8546 0
M  V30 626 O 83.7816 0.719803 -1.66399 0
M  V30 627 C 83.8296 -2.71797 -2.36978 0
M  V30 628 O 82.9336 -2.31744 -3.41128 0
M  V30 629 H 82.2746 -0.547997 -0.37496 0
M  V30 630 H 84.8046 -1.96053 -0.585191 0
M  V30 631 H 84.8146 -2.94305 -2.82575 0
M  V30 632 H 83.4896 -3.67923 -1.93921 0
M  V30 633 H 82.0666 -2.1961 -3.01373 0
M  V30 634 N 84.2517 0.741722 -1.39055 0
M  V30 635 C 85.4767 1.53607 -1.39354 0
M  V30 636 C 85.9017 1.88096 0.0116905 0
M  V30 637 O 85.2597 1.5143 0.996924 0
M  V30 638 C 85.3077 2.80441 -2.26682 0
M  V30 639 O 84.4117 3.76088 -1.69208 0
M  V30 640 H 83.7527 0.464142 -0.474835 0
M  V30 641 H 86.2827 0.915665 -1.82967 0
M  V30 642 H 86.2927 3.29246 -2.40959 0
M  V30 643 H 84.9677 2.5467 -3.2881 0
M  V30 644 H 83.5447 3.34833 -1.64138 0
M  V30 645 N 85.7298 1.2412 0.971189 0
M  V30 646 C 86.9548 1.10667 1.75407 0
M  V30 647 C 87.3798 -0.337048 1.85056 0
M  V30 648 O 86.7378 -1.24396 1.31892 0
M  V30 649 C 86.7858 1.74726 3.15441 0
M  V30 650 O 85.8898 1.01566 3.99697 0
M  V30 651 H 85.2308 0.387341 0.539317 0
M  V30 652 H 87.7608 1.64358 1.2185 0
M  V30 653 H 87.7708 1.80341 3.6598 0
M  V30 654 H 86.4458 2.79773 3.07734 0
M  V30 655 H 85.0228 1.03713 3.58187 0
M  V30 656 N 87.2079 -1.17134 1.05439 0
M  V30 657 C 88.4329 -1.91913 0.786396 0
M  V30 658 C 88.8579 -1.7643 -0.652234 0
M  V30 659 O 88.2159 -1.08372 -1.45345 0
M  V30 660 C 88.2639 -3.40921 1.17497 0
M  V30 661 O 87.3679 -4.11244 0.308589 0
M  V30 662 H 86.7089 -0.598215 0.288158 0
M  V30 663 H 89.2389 -1.48457 1.4079 0
M  V30 664 H 89.2489 -3.91668 1.14281 0
M  V30 665 H 87.9239 -3.5151 2.22292 0
M  V30 666 H 86.5009 -3.70731 0.40157 0
M  V30 667 N 88.686 -0.835752 -1.33615 0
M  V30 668 C 89.932 -0.430596 -1.98176 0
M  V30 669 C 90.265 1.00684 -1.66061 0
M  V30 670 O 89.54 1.70339 -0.938877 0
M  V30 671 C 89.823 -0.648065 -3.5422 0
M  V30 672 C 89.676 -2.13255 -3.96033 0
M  V30 673 C 90.995 -0.0922113 -4.40003 0
M  V30 674 H 88.114 -0.157924 -0.719881 0
M  V30 675 H 90.756 -1.05069 -1.58305 0
M  V30 676 H 88.906 -0.120237 -3.88314 0
M  V30 677 H 90.578 -2.725 -3.72211 0
M  V30 678 H 88.821 -2.61823 -3.45878 0
M  V30 679 H 89.492 -2.23547 -5.04708 0
M  V30 680 H 91.968 -0.543343 -4.12537 0
M  V30 681 H 90.844 -0.274083 -5.48215 0
M  V30 682 H 91.105 1.00378 -4.30554 0
M  V30 683 N 90.1641 1.46063 -0.591896 0
M  V30 684 C 91.1141 2.27458 0.157172 0
M  V30 685 C 92.0981 1.3641 0.853301 0
M  V30 686 O 93.2901 1.60517 0.74588 0
M  V30 687 C 90.4191 3.22956 1.16423 0
M  V30 688 C 89.5051 4.2149 0.469742 0
M  V30 689 N 89.8961 5.03519 -0.479839 0
M  V30 690 C 88.1941 4.40161 0.719319 0
M  V30 691 C 88.8951 5.74904 -0.886591 0
M  V30 692 N 87.8711 5.43097 -0.233731 0
M  V30 693 H 91.6731 2.88272 -0.572392 0
M  V30 694 H 89.1871 1.57024 -0.414375 0
M  V30 695 H 91.1841 3.79986 1.71513 0
M  V30 696 H 89.8441 2.63701 1.89451 0
M  V30 697 H 90.8551 5.1078 -0.855823 0
M  V30 698 H 87.5321 3.92046 1.43548 0
M  V30 699 H 88.9221 6.50844 -1.66888 0
M  V30 700 N 91.6422 0.330177 1.54103 0
M  V30 701 C 92.5522 -0.541534 2.28264 0
M  V30 702 C 93.5682 -1.12351 1.32866 0
M  V30 703 O 94.7442 -1.14206 1.65888 0
M  V30 704 C 91.8092 -1.68322 3.03098 0
M  V30 705 C 90.8702 -1.13238 4.14096 0
M  V30 706 C 90.1032 -2.21966 4.85352 0
M  V30 707 O 90.3262 -3.42437 4.56172 0
M  V30 708 O 89.2602 -1.87013 5.7211 0
M  V30 709 H 93.0862 0.060938 3.03639 0
M  V30 710 H 90.6712 0.09565 1.49093 0
M  V30 711 H 92.5532 -2.34777 3.49939 0
M  V30 712 H 91.2282 -2.27176 2.30593 0
M  V30 713 H 90.1352 -0.432736 3.71589 0
M  V30 714 H 91.4682 -0.588898 4.88664 0
M  V30 715 N 93.1203 -1.57491 0.0584922 0
M  V30 716 C 94.5313 -1.80526 -0.476138 0
M  V30 717 C 94.8823 -0.971334 -1.70469 0
M  V30 718 O 94.0073 -0.190012 -2.15564 0
M  V30 719 C 94.6023 -3.27424 -0.870587 0
M  V30 720 C 93.1613 -3.51351 -1.35015 0
M  V30 721 C 92.3083 -2.75343 -0.32887 0
M  V30 722 H 95.2593 -1.56133 0.284312 0
M  V30 723 H 95.2803 -3.38745 -1.73299 0
M  V30 724 H 94.7923 -3.88093 0.0237627 0
M  V30 725 H 92.8933 -2.95971 -2.26345 0
M  V30 726 H 93.0063 -4.60059 -1.33726 0
M  V30 727 H 91.3703 -2.417 -0.803321 0
M  V30 728 H 92.1533 -3.38743 0.557521 0
M  V30 729 N 94.5984 0.214957 -1.56127 0
M  V30 730 C 95.5454 1.26642 -1.92952 0
M  V30 731 C 96.5154 1.46244 -0.78753 0
M  V30 732 O 97.7004 1.59704 -1.04399 0
M  V30 733 C 94.8404 2.6104 -2.25726 0
M  V30 734 C 93.9534 2.49183 -3.52891 0
M  V30 735 C 93.0884 3.76149 -3.7508 0
M  V30 736 C 92.1274 3.59041 -4.95738 0
M  V30 737 N 91.2644 4.77972 -5.14283 0
M  V30 738 H 96.1044 0.945384 -2.82607 0
M  V30 739 H 93.6414 0.455489 -1.3987 0
M  V30 740 H 95.5994 3.39313 -2.42739 0
M  V30 741 H 94.2294 2.91227 -1.39236 0
M  V30 742 H 93.2814 1.6231 -3.44034 0
M  V30 743 H 94.5934 2.32466 -4.41318 0
M  V30 744 H 93.7474 4.62865 -3.92226 0
M  V30 745 H 92.4864 3.95799 -2.84947 0
M  V30 746 H 91.4914 2.7071 -4.78535 0
M  V30 747 H 92.7164 3.40856 -5.87362 0
M  V30 748 H 90.6624 4.97923 -4.27093 0
M  V30 749 H 90.5794 4.64006 -5.96853 0
M  V30 750 H 91.8474 5.66096 -5.35869 0
M  V30 751 N 96.0765 1.50051 0.48192 0
M  V30 752 C 97.0095 1.62749 1.59963 0
M  V30 753 C 97.9875 0.475903 1.5548 0
M  V30 754 O 99.1715 0.693986 1.7526 0
M  V30 755 C 96.2985 1.60008 2.98522 0
M  V30 756 C 95.3445 2.80596 3.21198 0
M  V30 757 S 96.1775 4.42038 3.02262 0
M  V30 758 C 97.3335 4.41973 4.43182 0
M  V30 759 H 97.5665 2.57296 1.4895 0
M  V30 760 H 95.0995 1.39179 0.668477 0
M  V30 761 H 97.0575 1.59112 3.78409 0
M  V30 762 H 95.7185 0.667153 3.06933 0
M  V30 763 H 94.9115 2.74952 4.22395 0
M  V30 764 H 94.5135 2.79003 2.49065 0
M  V30 765 H 96.8055 4.14868 5.35622 0
M  V30 766 H 97.7485 5.43512 4.53873 0
M  V30 767 H 98.1565 3.71812 4.24755 0
M  V30 768 N 97.5546 -0.734337 1.39446 0
M  V30 769 C 98.8316 -1.48579 1.27215 0
M  V30 770 C 99.2116 -2.1077 -0.117968 0
M  V30 771 O 98.5596 -1.98646 -1.12924 0
M  V30 772 C 98.7696 -2.53667 2.39696 0
M  V30 773 C 100.118 -3.20031 2.79044 0
M  V30 774 O 101.142 -2.6398 2.39151 0
M  V30 775 O 100.001 -4.21455 3.47905 0
M  V30 776 H 97.0946 -0.659816 0.49857 0
M  V30 777 H 99.6406 -0.768106 1.51322 0
M  V30 778 H 98.4126 -2.06096 3.32626 0
M  V30 779 H 98.0356 -3.32994 2.17258 0
M  V30 780 N 99.0327 -1.24633 -0.964593 0
M  V30 781 C 99.9957 -1.0424 -2.04124 0
M  V30 782 C 100.996 0.00137563 -1.608 0
M  V30 783 O 102.186 -0.239883 -1.7254 0
M  V30 784 C 99.3177 -0.580588 -3.3592 0
M  V30 785 H 100.511 -1.99803 -2.23649 0
M  V30 786 H 98.0637 -1.06899 -1.14027 0
M  V30 787 H 98.7987 0.3781 -3.22088 0
M  V30 788 H 98.5837 -1.33398 -3.6871 0
M  V30 789 H 100.074 -0.459034 -4.15069 0
M  V30 790 N 100.511 1.16574 -1.06058 0
M  V30 791 C 101.441 2.23057 -0.690488 0
M  V30 792 C 102.422 1.67141 0.315901 0
M  V30 793 O 103.607 1.93253 0.191556 0
M  V30 794 C 100.737 3.47222 -0.073625 0
M  V30 795 C 99.6908 4.16016 -1.00573 0
M  V30 796 C 99.0168 5.34104 -0.252289 0
M  V30 797 C 100.317 4.67264 -2.33371 0
M  V30 798 H 102.011 2.54271 -1.58072 0
M  V30 799 H 99.5568 1.22218 -0.76149 0
M  V30 800 H 101.51 4.20939 0.19714 0
M  V30 801 H 100.234 3.15302 0.85161 0
M  V30 802 H 98.8928 3.44223 -1.2612 0
M  V30 803 H 98.5408 4.98437 0.675988 0
M  V30 804 H 98.2408 5.81072 -0.873455 0
M  V30 805 H 99.7648 6.10599 0.0109857 0
M  V30 806 H 101.179 5.32573 -2.12223 0
M  V30 807 H 99.5758 5.24843 -2.90963 0
M  V30 808 H 100.646 3.83602 -2.96611 0
M  V30 809 N 101.989 0.842826 1.3317 0
M  V30 810 C 103.238 0.436738 1.96915 0
M  V30 811 C 103.551 -1.01025 1.67491 0
M  V30 812 O 104.757 -1.5212 2.24881 0
M  V30 813 C 103.213 0.730021 3.52418 0
M  V30 814 C 102.821 2.19195 3.90714 0
M  V30 815 C 104.565 0.391076 4.22695 0
M  V30 816 C 102.472 2.42907 5.39212 0
M  V30 817 H 101.402 0.15958 0.736919 0
M  V30 818 H 104.053 1.03196 1.51733 0
M  V30 819 H 102.435 0.0643755 3.95948 0
M  V30 820 H 103.609 2.8984 3.58231 0
M  V30 821 H 101.924 2.49425 3.33431 0
M  V30 822 H 104.521 0.545817 5.31907 0
M  V30 823 H 104.864 -0.666294 4.10933 0
M  V30 824 H 105.397 1.01212 3.84709 0
M  V30 825 H 102.136 3.47224 5.55982 0
M  V30 826 H 101.656 1.76827 5.73142 0
M  V30 827 H 103.335 2.2626 6.06148 0
M  V30 828 N 103.467 -1.45747 0.599634 0
M  V30 829 C 104.716 -2.01502 0.0893511 0
M  V30 830 C 105.029 -1.4748 -1.28488 0
M  V30 831 O 106.235 -1.95161 -1.88745 0
M  V30 832 C 104.691 -3.59735 0.109082 0
M  V30 833 C 104.299 -4.22754 1.48267 0
M  V30 834 C 106.043 -4.23085 -0.346374 0
M  V30 835 C 103.95 -5.73115 1.45921 0
M  V30 836 H 102.88 -0.753417 0.0296347 0
M  V30 837 H 105.531 -1.67303 0.753788 0
M  V30 838 H 103.913 -3.91087 -0.621854 0
M  V30 839 H 105.087 -4.02987 2.23468 0
M  V30 840 H 103.402 -3.71567 1.87955 0
M  V30 841 H 105.999 -5.33327 -0.38298 0
M  V30 842 H 106.342 -3.93201 -1.36743 0
M  V30 843 H 106.875 -3.9642 0.331038 0
M  V30 844 H 103.614 -6.07685 2.45762 0
M  V30 845 H 103.134 -5.95097 0.749665 0
M  V30 846 H 104.813 -6.3616 1.17941 0
M  V30 847 N 104.945 -0.338344 -1.53925 0
M  V30 848 C 106.356 0.146651 -1.86123 0
M  V30 849 C 106.707 1.5042 -1.2597 0
M  V30 850 O 105.832 2.08723 -0.571294 0
M  V30 851 C 106.427 0.272879 -3.37699 0
M  V30 852 C 104.986 0.702103 -3.69794 0
M  V30 853 C 104.133 -0.167304 -2.76795 0
M  V30 854 H 107.084 -0.558123 -1.48562 0
M  V30 855 H 107.105 1.10128 -3.64214 0
M  V30 856 H 106.617 -0.715307 -3.81451 0
M  V30 857 H 104.718 1.6995 -3.31584 0
M  V30 858 H 104.831 0.495604 -4.7653 0
M  V30 859 H 103.195 0.359527 -2.5215 0
M  V30 860 H 103.978 -1.15253 -3.23375 0
M  V30 861 N 106.423 1.57458 -0.0668435 0
M  V30 862 C 107.669 1.93587 0.6043 0
M  V30 863 C 108.002 0.946722 1.69561 0
M  V30 864 O 107.277 -0.0248516 1.94484 0
M  V30 865 C 107.56 3.40014 1.18585 0
M  V30 866 C 107.413 4.49685 0.101529 0
M  V30 867 C 108.732 3.87154 2.09284 0
M  V30 868 H 105.851 0.703958 0.218202 0
M  V30 869 H 108.493 1.89542 -0.131804 0
M  V30 870 H 106.643 3.43592 1.81319 0
M  V30 871 H 108.315 4.5823 -0.531279 0
M  V30 872 H 106.558 4.30059 -0.568487 0
M  V30 873 H 107.229 5.49266 0.54874 0
M  V30 874 H 109.705 3.85551 1.56491 0
M  V30 875 H 108.581 4.90231 2.46911 0
M  V30 876 H 108.842 3.2481 2.99918 0
M  V30 877 N 107.901 -0.206675 1.56239 0
M  V30 878 C 109.129 -0.945345 1.8404 0
M  V30 879 C 109.544 -1.77336 0.647885 0
M  V30 880 O 108.901 -1.78425 -0.383511 0
M  V30 881 C 108.952 -1.8509 3.10522 0
M  V30 882 O 108.673 -1.05634 4.25174 0
M  V30 883 C 110.174 -2.70222 3.51418 0
M  V30 884 H 107.394 -0.276372 0.61144 0
M  V30 885 H 109.938 -0.217417 2.03341 0
M  V30 886 H 108.093 -2.53259 2.93153 0
M  V30 887 H 108.507 -1.67238 4.97124 0
M  V30 888 H 109.981 -3.29438 4.42916 0
M  V30 889 H 110.458 -3.43358 2.73864 0
M  V30 890 H 111.064 -2.07443 3.71278 0
M  V30 891 N 109.379 -1.50304 -0.473955 0
M  V30 892 C 110.312 -1.63595 -1.59097 0
M  V30 893 C 111.29 -0.484142 -1.55225 0
M  V30 894 O 112.474 -0.703271 -1.7489 0
M  V30 895 C 109.601 -1.61589 -2.97669 0
M  V30 896 C 108.647 -2.82295 -3.19705 0
M  V30 897 S 109.48 -4.43635 -2.99913 0
M  V30 898 C 110.636 -4.44317 -4.40832 0
M  V30 899 H 110.869 -2.58082 -1.47583 0
M  V30 900 H 108.402 -1.39531 -0.661087 0
M  V30 901 H 110.36 -1.61116 -3.7756 0
M  V30 902 H 109.021 -0.683421 -3.06575 0
M  V30 903 H 108.214 -2.77188 -4.20931 0
M  V30 904 H 107.816 -2.8032 -2.47582 0
M  V30 905 H 110.108 -4.17703 -5.33414 0
M  V30 906 H 111.051 -5.45911 -4.50984 0
M  V30 907 H 111.459 -3.74059 -4.22777 0
M  V30 908 N 110.857 0.726932 -1.39834 0
M  V30 909 C 111.767 1.87131 -1.41489 0
M  V30 910 C 112.783 1.71239 -0.308757 0
M  V30 911 O 113.959 1.93701 -0.551529 0
M  V30 912 C 111.024 3.22811 -1.26468 0
M  V30 913 C 110.085 3.51039 -2.47124 0
M  V30 914 C 109.318 4.80245 -2.3281 0
M  V30 915 O 109.541 5.54537 -1.33585 0
M  V30 916 O 108.475 5.08554 -3.21957 0
M  V30 917 H 112.301 1.8869 -2.3797 0
M  V30 918 H 109.886 0.875837 -1.21035 0
M  V30 919 H 111.768 4.03877 -1.20255 0
M  V30 920 H 110.443 3.22005 -0.330862 0
M  V30 921 H 109.35 2.70027 -2.58914 0
M  V30 922 H 110.683 3.56632 -3.39227 0
M  V30 923 N 112.336 1.25143 0.95797 0
M  V30 924 C 113.582 1.09855 1.70469 0
M  V30 925 C 113.915 -0.360187 1.90831 0
M  V30 926 O 113.19 -1.26568 1.47685 0
M  V30 927 C 113.473 1.8497 3.08963 0
M  V30 928 C 113.326 3.38652 2.96032 0
M  V30 929 C 114.645 1.63016 4.08795 0
M  V30 930 H 111.764 0.400465 0.618706 0
M  V30 931 H 114.406 1.53933 1.11376 0
M  V30 932 H 112.556 1.47505 3.59409 0
M  V30 933 H 114.228 3.85772 2.52938 0
M  V30 934 H 112.471 3.66534 2.32025 0
M  V30 935 H 113.142 3.8642 3.94187 0
M  V30 936 H 115.618 1.95625 3.67247 0
M  V30 937 H 114.494 2.18015 5.03747 0
M  V30 938 H 114.755 0.570692 4.38401 0
M  V30 939 N 113.814 -1.1601 1.06675 0
M  V30 940 C 115.225 -1.68235 0.809565 0
M  V30 941 C 115.576 -1.8454 -0.666303 0
M  V30 942 O 114.701 -1.54374 -1.5165 0
M  V30 943 C 115.296 -3.05585 1.46299 0
M  V30 944 C 113.855 -3.54915 1.25349 0
M  V30 945 C 113.002 -2.30804 1.53703 0
M  V30 946 H 115.953 -1.00318 1.22971 0
M  V30 947 H 115.974 -3.70174 0.880431 0
M  V30 948 H 115.486 -2.93686 2.53713 0
M  V30 949 H 113.587 -3.72067 0.199261 0
M  V30 950 H 113.7 -4.36774 1.9689 0
M  V30 951 H 112.064 -2.36007 0.957739 0
M  V30 952 H 112.847 -2.21499 2.62284 0
M  V30 953 N 115.292 -0.849877 -1.32721 0
M  V30 954 C 116.532 -0.457146 -1.99222 0
M  V30 955 C 116.896 0.968038 -1.6581 0
M  V30 956 O 118.097 1.46507 -2.25364 0
M  V30 957 C 116.368 -0.683966 -3.50794 0
M  V30 958 S 117.927 -0.388095 -4.3708 0
M  V30 959 H 114.745 -0.171464 -0.690015 0
M  V30 960 H 117.347 -1.10155 -1.61512 0
M  V30 961 H 116.051 -1.72038 -3.726 0
M  V30 962 H 115.582 -0.0258086 -3.93392 0
M  V30 963 H 117.597 0.787791 -4.89906 0
M  V30 964 N 116.77 1.45427 -0.607355 0
M  V30 965 C 118.047 1.9557 -0.0344566 0
M  V30 966 C 118.427 1.54979 1.43334 0
M  V30 967 O 117.775 0.812241 2.13576 0
M  V30 968 C 117.985 3.48226 -0.232321 0
M  V30 969 C 119.333 4.2445 -0.113001 0
M  V30 970 O 120.357 3.55829 -0.162431 0
M  V30 971 O 119.216 5.465 0.00209442 0
M  V30 972 H 116.31 0.826222 0.0358667 0
M  V30 973 H 118.856 1.55594 -0.6774 0
M  V30 974 H 117.628 3.70739 -1.25174 0
M  V30 975 H 117.251 3.95092 0.445896 0
M  V30 976 N 118.248 0.346503 1.53744 0
M  V30 977 C 119.473 -0.253074 2.0585 0
M  V30 978 C 119.898 -1.43202 1.21962 0
M  V30 979 O 119.256 -1.79783 0.234073 0
M  V30 980 C 119.304 -0.643193 3.54817 0
M  V30 981 O 118.408 -1.74286 3.73762 0
M  V30 982 H 117.749 -0.0413583 0.662711 0
M  V30 983 H 120.279 0.501574 1.98357 0
M  V30 984 H 120.289 -0.919526 3.97503 0
M  V30 985 H 118.964 0.218966 4.15323 0
M  V30 986 H 117.541 -1.46356 3.42979 0
M  V30 987 N 119.726 -1.57421 0.075193 0
M  V30 988 C 121.142 -1.57099 -0.281444 0
M  V30 989 C 121.342 -1.08486 -1.69803 0
M  V30 990 O 120.398 -0.752279 -2.41033 0
M  V30 991 C 121.711 -3.00571 -0.0880041 0
M  V30 992 C 123.259 -3.12605 -0.157281 0
M  V30 993 C 123.734 -4.57999 0.0079207 0
M  V30 994 N 125.225 -4.63176 -0.0475725 0
M  V30 995 C 125.96 -5.73373 0.0557876 0
M  V30 996 N 125.456 -6.92473 0.21286 0
M  V30 997 N 127.249 -5.621 -0.00152098 0
M  V30 998 H 119.4 -1.87335 1.00098 0
M  V30 999 H 121.663 -0.86377 0.390646 0
M  V30 1000 H 121.369 -3.40262 0.889629 0
M  V30 1001 H 121.243 -3.67754 -0.838875 0
M  V30 1002 H 123.63 -2.72798 -1.1254 0
M  V30 1003 H 123.711 -2.48053 0.62475 0
M  V30 1004 H 123.355 -4.98496 0.972824 0
M  V30 1005 H 123.285 -5.20586 -0.793556 0
M  V30 1006 H 125.776 -3.7753 -0.167244 0
M  V30 1007 H 126.089 -7.72279 0.283781 0
M  V30 1008 H 124.434 -6.94556 0.248267 0
M  V30 1009 H 127.625 -4.67938 -0.122958 0
M  V30 1010 H 127.798 -6.47948 0.0824844 0
M  V30 1011 N 121.204 0.198386 -1.56346 0
M  V30 1012 C 122.452 0.91747 -1.80075 0
M  V30 1013 C 122.773 1.83929 -0.647692 0
M  V30 1014 O 122.043 1.93029 0.334166 0
M  V30 1015 H 120.623 0.341774 -0.664228 0
M  V30 1016 H 123.285 0.204684 -1.93822 0
M  V30 1017 H 122.381 1.51055 -2.7311 0
M  V30 1018 N 122.682 1.50554 0.465978 0
M  V30 1019 C 123.614 1.65949 1.58093 0
M  V30 1020 C 124.627 0.540827 1.53554 0
M  V30 1021 O 125.816 0.814187 1.5885 0
M  V30 1022 C 122.916 1.63261 2.96983 0
M  V30 1023 C 122.089 2.91245 3.26336 0
M  V30 1024 C 121.148 2.8113 4.44806 0
M  V30 1025 O 120.174 3.55086 4.44862 0
M  V30 1026 N 121.376 1.95032 5.46756 0
M  V30 1027 H 124.141 2.62122 1.45301 0
M  V30 1028 H 121.702 1.48082 0.65448 0
M  V30 1029 H 123.694 1.54101 3.74212 0
M  V30 1030 H 122.264 0.748032 3.03518 0
M  V30 1031 H 121.484 3.14493 2.37672 0
M  V30 1032 H 122.772 3.76022 3.42761 0
M  V30 1033 H 122.17 1.3427 5.49534 0
M  V30 1034 H 120.727 1.91772 6.2295 0
M  V30 1035 N 124.16 -0.719506 1.40217 0
M  V30 1036 C 125.576 -1.02707 1.22161 0
M  V30 1037 C 125.776 -2.0128 0.0940557 0
M  V30 1038 O 124.832 -2.46452 -0.549318 0
M  V30 1039 C 126.145 -1.57454 2.56181 0
M  V30 1040 C 127.693 -1.69458 2.63159 0
M  V30 1041 C 128.168 -2.27611 3.97438 0
M  V30 1042 N 129.659 -2.35002 3.99159 0
M  V30 1043 C 130.394 -2.80972 4.99842 0
M  V30 1044 N 129.89 -3.26723 6.10921 0
M  V30 1045 N 131.683 -2.80321 4.87213 0
M  V30 1046 H 123.834 -0.0660492 2.12297 0
M  V30 1047 H 126.097 -0.0919077 0.943534 0
M  V30 1048 H 125.803 -0.924873 3.39321 0
M  V30 1049 H 125.677 -2.56036 2.76993 0
M  V30 1050 H 128.064 -2.33543 1.80393 0
M  V30 1051 H 128.145 -0.694867 2.46181 0
M  V30 1052 H 127.789 -1.6415 4.80643 0
M  V30 1053 H 127.719 -3.2829 4.11744 0
M  V30 1054 H 130.21 -2.02685 3.18947 0
M  V30 1055 H 130.523 -3.60355 6.8364 0
M  V30 1056 H 128.868 -3.24692 6.14492 0
M  V30 1057 H 132.059 -2.43912 3.9953 0
M  V30 1058 H 132.232 -3.15831 5.65822 0
M  V30 1059 N 125.638 -1.25649 -0.95132 0
M  V30 1060 C 126.571 -1.00644 -2.04807 0
M  V30 1061 C 127.549 0.0654271 -1.62468 0
M  V30 1062 O 128.733 -0.074911 -1.88351 0
M  V30 1063 C 125.86 -0.522052 -3.34653 0
M  V30 1064 C 124.906 -1.58495 -3.95957 0
M  V30 1065 S 125.739 -3.17108 -4.31512 0
M  V30 1066 C 126.895 -2.70412 -5.64471 0
M  V30 1067 H 127.128 -1.93508 -2.25703 0
M  V30 1068 H 124.661 -1.09216 -1.09139 0
M  V30 1069 H 126.619 -0.24923 -4.09743 0
M  V30 1070 H 125.28 0.386146 -3.11717 0
M  V30 1071 H 124.473 -1.1968 -4.89584 0
M  V30 1072 H 124.075 -1.80862 -3.2736 0
M  V30 1073 H 126.367 -2.14245 -6.42733 0
M  V30 1074 H 127.31 -3.62693 -6.08161 0
M  V30 1075 H 127.718 -2.10302 -5.23864 0
M  V30 1076 N 127.117 1.15442 -1.07289 0
M  V30 1077 C 128.363 1.8672 -0.806679 0
M  V30 1078 C 128.718 1.80723 0.660084 0
M  V30 1079 O 128.011 1.21902 1.47819 0
M  V30 1080 C 128.205 3.3489 -1.24834 0
M  V30 1081 C 128.034 3.55313 -2.7565 0
M  V30 1082 C 126.804 3.7082 -3.4325 0
M  V30 1083 C 129.002 3.53188 -3.73848 0
M  V30 1084 N 126.984 3.7929 -4.82713 0
M  V30 1085 C 128.355 3.67765 -4.99149 0
M  V30 1086 C 130.41 3.36459 -3.67015 0
M  V30 1087 C 129.113 3.6734 -6.18428 0
M  V30 1088 C 131.139 3.37333 -4.85758 0
M  V30 1089 C 130.501 3.52438 -6.09891 0
M  V30 1090 H 126.6 0.700433 -0.347733 0
M  V30 1091 H 129.184 1.38441 -1.36902 0
M  V30 1092 H 127.355 3.81786 -0.713713 0
M  V30 1093 H 129.087 3.93875 -0.929745 0
M  V30 1094 H 125.842 3.71568 -2.93656 0
M  V30 1095 H 126.266 3.8727 -5.55294 0
M  V30 1096 H 130.908 3.237 -2.71989 0
M  V30 1097 H 128.626 3.78878 -7.13777 0
M  V30 1098 H 132.212 3.25617 -4.82146 0
M  V30 1099 H 131.092 3.53047 -7.00234 0
M  V30 1100 N 128.595 0.856903 1.32268 0
M  V30 1101 C 129.841 0.471355 1.97863 0
M  V30 1102 C 130.196 -0.962896 1.66572 0
M  V30 1103 O 129.489 -1.66686 0.944797 0
M  V30 1104 C 129.683 0.649919 3.51441 0
M  V30 1105 C 129.512 2.09997 3.97657 0
M  V30 1106 C 128.282 2.73893 4.2463 0
M  V30 1107 C 130.48 3.07081 4.1256 0
M  V30 1108 N 128.462 4.09786 4.57109 0
M  V30 1109 C 129.833 4.27968 4.48602 0
M  V30 1110 C 131.888 3.03247 3.949 0
M  V30 1111 C 130.591 5.45521 4.68827 0
M  V30 1112 C 132.617 4.20046 4.16311 0
M  V30 1113 C 131.979 5.39692 4.52672 0
M  V30 1114 H 128.078 0.221263 0.750044 0
M  V30 1115 H 130.662 1.10876 1.60045 0
M  V30 1116 H 128.833 0.0421938 3.88377 0
M  V30 1117 H 130.565 0.234044 4.04023 0
M  V30 1118 H 127.32 2.24918 4.16784 0
M  V30 1119 H 127.744 4.7989 4.7753 0
M  V30 1120 H 132.386 2.11863 3.65888 0
M  V30 1121 H 130.104 6.37434 4.96693 0
M  V30 1122 H 133.69 4.18517 4.04147 0
M  V30 1123 H 132.57 6.28566 4.68907 0
M  V30 1124 N 130.073 -1.45103 0.615059 0
M  V30 1125 C 131.036 -2.29025 -0.0895485 0
M  V30 1126 C 132.036 -1.40174 -0.787906 0
M  V30 1127 O 133.226 -1.62217 -0.634933 0
M  V30 1128 C 130.358 -3.21376 -1.13711 0
M  V30 1129 H 131.551 -2.92807 0.648382 0
M  V30 1130 H 129.104 -1.51749 0.374444 0
M  V30 1131 H 129.839 -2.6241 -1.90556 0
M  V30 1132 H 129.624 -3.86834 -0.640475 0
M  V30 1133 H 131.114 -3.84459 -1.63036 0
M  V30 1134 N 131.551 -0.354651 -1.53558 0
M  V30 1135 C 132.798 0.238443 -2.01091 0
M  V30 1136 C 133.126 1.49663 -1.24222 0
M  V30 1137 O 132.381 1.93049 -0.321003 0
M  V30 1138 C 132.68 0.587121 -3.52545 0
M  V30 1139 C 132.346 -0.575472 -4.47213 0
M  V30 1140 C 131.008 -0.894497 -4.72813 0
M  V30 1141 C 133.36 -1.35489 -5.03281 0
M  V30 1142 C 130.688 -1.99511 -5.51736 0
M  V30 1143 C 133.04 -2.44583 -5.83405 0
M  V30 1144 C 131.704 -2.77033 -6.07296 0
M  V30 1145 H 130.974 0.0872526 -0.735845 0
M  V30 1146 H 133.621 -0.484859 -1.8526 0
M  V30 1147 H 131.926 1.39129 -3.66265 0
M  V30 1148 H 133.623 1.05809 -3.86789 0
M  V30 1149 H 130.213 -0.316774 -4.27428 0
M  V30 1150 H 134.397 -1.12167 -4.83459 0
M  V30 1151 H 129.653 -2.25063 -5.68469 0
M  V30 1152 H 133.827 -3.05401 -6.25862 0
M  V30 1153 H 131.454 -3.6244 -6.68237 0
M  V30 1154 N 133.029 1.57378 -0.0835403 0
M  V30 1155 C 133.959 2.1641 0.87686 0
M  V30 1156 C 134.94 1.09429 1.30228 0
M  V30 1157 O 136.125 1.37516 1.37124 0
M  V30 1158 C 133.255 2.73517 2.14022 0
M  V30 1159 C 132.209 3.85769 1.85381 0
M  V30 1160 C 131.535 4.29529 3.18448 0
M  V30 1161 C 132.835 5.09486 1.14984 0
M  V30 1162 H 134.529 2.96914 0.385059 0
M  V30 1163 H 132.075 1.42823 0.18377 0
M  V30 1164 H 134.028 3.13463 2.81636 0
M  V30 1165 H 132.752 1.90252 2.65465 0
M  V30 1166 H 131.411 3.46345 1.20169 0
M  V30 1167 H 131.059 3.43169 3.67755 0
M  V30 1168 H 130.759 5.05204 3.00071 0
M  V30 1169 H 132.283 4.72099 3.8724 0
M  V30 1170 H 133.697 5.46674 1.72687 0
M  V30 1171 H 132.094 5.90515 1.06826 0
M  V30 1172 H 133.164 4.84724 0.130749 0
M  V30 1173 N 134.507 -0.190092 1.56449 0
M  V30 1174 C 135.47 -1.21925 1.9408 0
M  V30 1175 C 136.47 -1.38176 0.822431 0
M  V30 1176 O 137.66 -1.35903 1.08977 0
M  V30 1177 C 134.792 -2.58773 2.21922 0
M  V30 1178 H 135.985 -0.897464 2.86157 0
M  V30 1179 H 133.538 -0.43181 1.50217 0
M  V30 1180 H 134.273 -2.95998 1.32499 0
M  V30 1181 H 134.058 -2.48348 3.03424 0
M  V30 1182 H 135.548 -3.32978 2.52022 0
M  V30 1183 N 135.985 -1.50799 -0.457987 0
M  V30 1184 C 137.21 -1.66496 -1.23668 0
M  V30 1185 C 137.635 -0.353288 -1.84752 0
M  V30 1186 O 136.993 0.684346 -1.67888 0
M  V30 1187 C 137.041 -2.76763 -2.3116 0
M  V30 1188 O 136.145 -2.38928 -3.36136 0
M  V30 1189 H 135.486 -0.555828 -0.363252 0
M  V30 1190 H 138.016 -1.9725 -0.543474 0
M  V30 1191 H 138.026 -3.00232 -2.76269 0
M  V30 1192 H 136.701 -3.71954 -1.86073 0
M  V30 1193 H 135.278 -2.25953 -2.96647 0
M  V30 1194 N 137.463 0.71206 -1.40597 0
M  V30 1195 C 138.688 1.50617 -1.42581 0
M  V30 1196 C 139.113 1.88079 -0.0282102 0
M  V30 1197 O 138.471 1.53511 0.964579 0
M  V30 1198 C 138.519 2.7557 -2.3258 0
M  V30 1199 O 137.623 3.72414 -1.77148 0
M  V30 1200 H 136.964 0.453966 -0.484573 0
M  V30 1201 H 139.494 0.876649 -1.84868 0
M  V30 1202 H 139.504 3.2406 -2.47889 0
M  V30 1203 H 138.179 2.47639 -3.34138 0
M  V30 1204 H 136.756 3.31276 -1.71204 0
M  V30 1205 N 138.941 1.26152 0.944643 0
M  V30 1206 C 139.874 1.01729 2.04271 0
M  V30 1207 C 140.852 -0.0568101 1.62501 0
M  V30 1208 O 142.036 0.0848987 1.88309 0
M  V30 1209 C 139.163 0.539792 3.34371 0
M  V30 1210 C 138.209 1.60593 3.9511 0
M  V30 1211 S 139.042 3.19392 4.29825 0
M  V30 1212 C 140.198 2.73402 5.63029 0
M  V30 1213 H 140.431 1.94703 2.24673 0
M  V30 1214 H 137.964 1.09793 1.08558 0
M  V30 1215 H 139.922 0.270956 4.09605 0
M  V30 1216 H 138.583 -0.369609 3.11918 0
M  V30 1217 H 137.776 1.22275 4.88943 0
M  V30 1218 H 137.378 1.82596 3.26397 0
M  V30 1219 H 139.67 2.1765 6.41588 0
M  V30 1220 H 140.613 3.65913 6.06229 0
M  V30 1221 H 141.021 2.13077 5.22741 0
M  V30 1222 N 140.419 -1.14872 1.07899 0
M  V30 1223 C 141.665 -1.86064 0.806725 0
M  V30 1224 C 141.998 -1.82434 -0.665706 0
M  V30 1225 O 141.273 -1.25138 -1.48899 0
M  V30 1226 C 141.556 -3.34929 1.32267 0
M  V30 1227 C 141.409 -3.47161 2.86006 0
M  V30 1228 C 142.728 -4.29863 0.943717 0
M  V30 1229 H 139.847 -0.675591 0.294526 0
M  V30 1230 H 142.489 -1.34925 1.33773 0
M  V30 1231 H 140.639 -3.78611 0.870974 0
M  V30 1232 H 142.311 -3.12302 3.39507 0
M  V30 1233 H 140.554 -2.88539 3.23925 0
M  V30 1234 H 141.225 -4.51777 3.17177 0
M  V30 1235 H 143.701 -3.9417 1.33302 0
M  V30 1236 H 142.577 -5.32494 1.33198 0
M  V30 1237 H 142.838 -4.41846 -0.149796 0
M  V30 1238 N 141.898 -0.863906 -1.31812 0
M  V30 1239 C 143.126 -0.486111 -2.01108 0
M  V30 1240 C 143.541 0.919755 -1.64882 0
M  V30 1241 O 142.898 1.60162 -0.874893 0
M  V30 1242 C 142.949 -0.626435 -3.56031 0
M  V30 1243 O 142.67 -1.97693 -3.90959 0
M  V30 1244 C 144.171 -0.248857 -4.42601 0
M  V30 1245 H 141.391 -0.190052 -0.643523 0
M  V30 1246 H 143.935 -1.1634 -1.68182 0
M  V30 1247 H 142.09 0.00322717 -3.874 0
M  V30 1248 H 142.504 -1.98034 -4.85678 0
M  V30 1249 H 143.978 -0.398016 -5.50563 0
M  V30 1250 H 144.455 0.811489 -4.31638 0
M  V30 1251 H 145.061 -0.853971 -4.16638 0
M  V30 1252 N 143.376 1.44774 -0.622745 0
M  V30 1253 C 144.623 2.02121 -0.1239 0
M  V30 1254 C 144.951 1.48915 1.25118 0
M  V30 1255 O 144.206 0.660045 1.84233 0
M  V30 1256 C 144.505 3.57364 -0.0508323 0
M  V30 1257 C 144.171 4.29787 -1.36358 0
M  V30 1258 C 142.833 4.4929 -1.72314 0
M  V30 1259 C 145.185 4.71062 -2.23048 0
M  V30 1260 C 142.513 5.07325 -2.94682 0
M  V30 1261 C 144.865 5.30452 -3.44679 0
M  V30 1262 C 143.529 5.48175 -3.80868 0
M  V30 1263 H 142.799 0.739612 -0.0453381 0
M  V30 1264 H 145.446 1.73648 -0.807389 0
M  V30 1265 H 143.751 3.85202 0.715991 0
M  V30 1266 H 145.448 3.99456 0.351533 0
M  V30 1267 H 142.038 4.14932 -1.07375 0
M  V30 1268 H 146.222 4.55715 -1.96565 0
M  V30 1269 H 141.478 5.19235 -3.22809 0
M  V30 1270 H 145.652 5.61385 -4.12092 0
M  V30 1271 H 143.279 5.92912 -4.75773 0
M  V30 1272 N 144.854 0.36279 1.53368 0
M  V30 1273 C 146.101 -0.227776 2.01215 0
M  V30 1274 C 146.429 -1.49003 1.25014 0
M  V30 1275 O 145.684 -1.92876 0.331236 0
M  V30 1276 C 145.983 -0.568417 3.52851 0
M  V30 1277 C 145.649 0.59918 4.46901 0
M  V30 1278 C 144.311 0.919559 4.72332 0
M  V30 1279 C 146.663 1.38156 5.02556 0
M  V30 1280 C 143.991 2.02434 5.5067 0
M  V30 1281 C 146.343 2.47674 5.821 0
M  V30 1282 C 145.007 2.8025 6.05819 0
M  V30 1283 H 144.277 -0.083349 0.736297 0
M  V30 1284 H 146.924 0.494677 1.85001 0
M  V30 1285 H 145.229 -1.37185 3.66998 0
M  V30 1286 H 146.926 -1.03756 3.87344 0
M  V30 1287 H 143.516 0.339437 4.27254 0
M  V30 1288 H 147.7 1.14729 4.82857 0
M  V30 1289 H 142.956 2.28075 5.67267 0
M  V30 1290 H 147.13 3.08716 6.24234 0
M  V30 1291 H 144.757 3.65979 6.66306 0
M  V30 1292 N 146.332 -1.57332 0.0918853 0
M  V30 1293 C 147.58 -1.93853 -0.571446 0
M  V30 1294 C 147.901 -0.974212 -1.6892 0
M  V30 1295 O 147.171 -0.0257254 -1.95883 0
M  V30 1296 H 145.751 -0.715666 -0.214082 0
M  V30 1297 H 148.413 -1.94287 0.154464 0
M  V30 1298 H 147.509 -2.96191 -0.983729 0
M  V30 1299 N 147.81 0.181792 -1.56548 0
M  V30 1300 C 149.058 0.89832 -1.81038 0
M  V30 1301 C 149.379 1.83232 -0.667164 0
M  V30 1302 O 148.649 1.93372 0.313673 0
M  V30 1303 H 147.229 0.33471 -0.667816 0
M  V30 1304 H 149.891 0.184116 -1.94028 0
M  V30 1305 H 148.987 1.4815 -2.74696 0
M  V30 1306 N 149.288 1.51039 0.449983 0
M  V30 1307 C 150.218 1.74379 1.55288 0
M  V30 1308 C 151.199 0.593236 1.5942 0
M  V30 1309 O 152.384 0.834625 1.7535 0
M  V30 1310 C 149.514 1.85728 2.93466 0
M  V30 1311 C 148.468 3.01078 3.04197 0
M  V30 1312 C 147.794 2.97595 4.44231 0
M  V30 1313 C 149.094 4.41254 2.7945 0
M  V30 1314 H 150.788 2.66725 1.36008 0
M  V30 1315 H 148.334 1.2835 0.652864 0
M  V30 1316 H 150.287 2.0064 3.70569 0
M  V30 1317 H 149.011 0.900207 3.13949 0
M  V30 1318 H 147.67 2.85851 2.29531 0
M  V30 1319 H 147.318 1.99691 4.61663 0
M  V30 1320 H 147.018 3.75046 4.52343 0
M  V30 1321 H 148.542 3.14583 5.23326 0
M  V30 1322 H 149.956 4.56897 3.46292 0
M  V30 1323 H 148.353 5.20315 2.98985 0
M  V30 1324 H 149.423 4.52164 1.75144 0
M  V30 1325 N 150.766 -0.704594 1.40972 0
M  V30 1326 C 152.013 -1.46458 1.39844 0
M  V30 1327 C 152.341 -1.94499 0.00447594 0
M  V30 1328 O 151.596 -1.69275 -0.982057 0
M  V30 1329 C 151.895 -2.698 2.34399 0
M  V30 1330 C 151.561 -2.40464 3.81429 0
M  V30 1331 C 150.223 -2.32174 4.21484 0
M  V30 1332 C 152.575 -2.16086 4.74296 0
M  V30 1333 C 149.903 -1.97589 5.52427 0
M  V30 1334 C 152.255 -1.83011 6.05549 0
M  V30 1335 C 150.919 -1.7321 6.44635 0
M  V30 1336 H 150.189 -0.535927 0.511725 0
M  V30 1337 H 152.836 -0.806124 1.73706 0
M  V30 1338 H 151.141 -3.40536 1.93759 0
M  V30 1339 H 152.838 -3.27919 2.30804 0
M  V30 1340 H 149.428 -2.47808 3.49699 0
M  V30 1341 H 153.612 -2.2144 4.4416 0
M  V30 1342 H 148.868 -1.88547 5.81601 0
M  V30 1343 H 153.042 -1.63164 6.77016 0
M  V30 1344 H 150.669 -1.46179 7.46013 0
M  V30 1345 N 152.244 -1.26651 -0.937939 0
M  V30 1346 C 153.493 -1.11775 -1.67897 0
M  V30 1347 C 153.806 0.33794 -1.92659 0
M  V30 1348 O 155.012 0.607434 -2.64618 0
M  V30 1349 C 153.468 -1.9523 -3.02346 0
M  V30 1350 C 153.076 -3.45393 -2.8532 0
M  V30 1351 C 154.82 -1.88972 -3.80118 0
M  V30 1352 C 152.727 -4.21083 -4.15263 0
M  V30 1353 H 151.657 -0.414696 -0.629717 0
M  V30 1354 H 154.308 -1.50988 -1.04283 0
M  V30 1355 H 152.69 -1.48853 -3.66959 0
M  V30 1356 H 153.864 -3.99561 -2.29537 0
M  V30 1357 H 152.179 -3.52921 -2.20988 0
M  V30 1358 H 154.776 -2.42805 -4.76392 0
M  V30 1359 H 155.119 -0.86113 -4.07296 0
M  V30 1360 H 155.652 -2.33189 -3.22285 0
M  V30 1361 H 152.391 -5.24425 -3.93267 0
M  V30 1362 H 151.911 -3.71695 -4.70747 0
M  V30 1363 H 153.59 -4.29706 -4.83696 0
M  V30 1364 N 153.722 1.14298 -1.08507 0
M  V30 1365 C 154.971 1.84708 -0.810305 0
M  V30 1366 C 155.284 1.83903 0.666271 0
M  V30 1367 O 156.49 2.50112 1.05624 0
M  V30 1368 C 154.946 3.31572 -1.39957 0
M  V30 1369 C 154.554 3.40791 -2.90801 0
M  V30 1370 C 156.298 4.07087 -1.20334 0
M  V30 1371 C 154.205 4.81872 -3.4286 0
M  V30 1372 H 153.135 0.691985 -0.299454 0
M  V30 1373 H 155.786 1.28841 -1.30661 0
M  V30 1374 H 154.168 3.87183 -0.830976 0
M  V30 1375 H 155.342 2.95225 -3.53806 0
M  V30 1376 H 153.657 2.78732 -3.0935 0
M  V30 1377 H 156.254 5.11225 -1.56693 0
M  V30 1378 H 156.597 4.16054 -0.143237 0
M  V30 1379 H 157.13 3.57779 -1.73893 0
M  V30 1380 H 153.869 4.78094 -4.48449 0
M  V30 1381 H 153.389 5.27972 -2.84615 0
M  V30 1382 H 155.068 5.50765 -3.39509 0
M  V30 1383 N 155.201 0.870884 1.31352 0
M  V30 1384 C 156.131 0.343096 2.30966 0
M  V30 1385 C 157.112 -0.566507 1.60389 0
M  V30 1386 O 158.297 -0.483336 1.88089 0
M  V30 1387 C 155.427 -0.455487 3.443 0
M  V30 1388 C 154.381 0.361103 4.26474 0
M  V30 1389 C 153.707 -0.563221 5.31725 0
M  V30 1390 C 155.007 1.59566 4.97329 0
M  V30 1391 H 156.701 1.17548 2.75359 0
M  V30 1392 H 154.247 0.566686 1.32381 0
M  V30 1393 H 156.2 -0.83525 4.13039 0
M  V30 1394 H 154.924 -1.32139 2.98675 0
M  V30 1395 H 153.583 0.722825 3.59403 0
M  V30 1396 H 153.231 -1.42643 4.82351 0
M  V30 1397 H 152.931 -0.0207409 5.87596 0
M  V30 1398 H 154.455 -0.939808 6.03324 0
M  V30 1399 H 155.869 1.28728 5.58661 0
M  V30 1400 H 154.266 2.07728 5.63 0
M  V30 1401 H 155.336 2.34798 4.24262 0
M  V30 1402 N 156.679 -1.44442 0.630414 0
M  V30 1403 C 157.609 -2.33418 -0.0618083 0
M  V30 1404 C 158.59 -1.48165 -0.835541 0
M  V30 1405 O 159.775 -1.76886 -0.801564 0
M  V30 1406 C 156.905 -3.31222 -1.04449 0
M  V30 1407 C 155.859 -4.26288 -0.382436 0
M  V30 1408 C 155.185 -5.13954 -1.47497 0
M  V30 1409 C 156.485 -5.1744 0.710865 0
M  V30 1410 H 158.179 -2.91548 0.681184 0
M  V30 1411 H 155.725 -1.40191 0.329026 0
M  V30 1412 H 157.678 -3.92351 -1.53748 0
M  V30 1413 H 156.402 -2.71299 -1.81836 0
M  V30 1414 H 155.061 -3.6649 0.0899054 0
M  V30 1415 H 154.709 -4.50385 -2.2397 0
M  V30 1416 H 154.409 -5.7837 -1.03737 0
M  V30 1417 H 155.933 -5.77955 -1.96979 0
M  V30 1418 H 157.347 -5.72509 0.300996 0
M  V30 1419 H 155.744 -5.90455 1.07156 0
M  V30 1420 H 156.814 -4.58496 1.57829 0
M  V30 1421 N 158.157 -0.370918 -1.53173 0
M  V30 1422 C 159.403 0.209976 -2.02313 0
M  V30 1423 C 159.758 1.45987 -1.25322 0
M  V30 1424 O 159.051 1.8856 -0.339965 0
M  V30 1425 C 159.245 0.549696 -3.53147 0
M  V30 1426 C 159.074 -0.665721 -4.44745 0
M  V30 1427 C 157.844 -1.17942 -4.91343 0
M  V30 1428 C 160.042 -1.53255 -4.90935 0
M  V30 1429 N 158.024 -2.35431 -5.66962 0
M  V30 1430 C 159.395 -2.55403 -5.64951 0
M  V30 1431 C 161.45 -1.5548 -4.73002 0
M  V30 1432 C 160.153 -3.5964 -6.22938 0
M  V30 1433 C 162.179 -2.58613 -5.31858 0
M  V30 1434 C 161.541 -3.59485 -6.05764 0
M  V30 1435 H 157.64 0.0394095 -0.781006 0
M  V30 1436 H 160.224 -0.516666 -1.8772 0
M  V30 1437 H 158.395 1.24541 -3.67891 0
M  V30 1438 H 160.127 1.11614 -3.89004 0
M  V30 1439 H 156.882 -0.743228 -4.67732 0
M  V30 1440 H 157.306 -2.94827 -6.09431 0
M  V30 1441 H 161.948 -0.788457 -4.15383 0
M  V30 1442 H 159.666 -4.37153 -6.79649 0
M  V30 1443 H 163.252 -2.61195 -5.19873 0
M  V30 1444 H 162.132 -4.3798 -6.50495 0
M  V30 1445 N 159.635 1.57281 -0.100228 0
M  V30 1446 C 161.051 1.57527 0.256416 0
M  V30 1447 C 161.251 1.11173 1.68056 0
M  V30 1448 O 160.307 0.79053 2.39806 0
M  V30 1449 C 161.62 3.00673 0.0401747 0
M  V30 1450 C 163.168 3.12815 0.107528 0
M  V30 1451 C 163.643 4.57929 -0.0807834 0
M  V30 1452 N 165.134 4.63193 -0.0261207 0
M  V30 1453 C 165.869 5.73212 -0.146999 0
M  V30 1454 N 165.365 6.92047 -0.322999 0
M  V30 1455 N 167.158 5.62031 -0.0879044 0
M  V30 1456 H 159.309 1.85718 -1.03065 0
M  V30 1457 H 161.572 0.857446 -0.404339 0
M  V30 1458 H 161.278 3.38804 -0.943649 0
M  V30 1459 H 161.152 3.69042 0.780262 0
M  V30 1460 H 163.539 2.74554 1.08186 0
M  V30 1461 H 163.62 2.47028 -0.664134 0
M  V30 1462 H 163.264 4.96886 -1.05201 0
M  V30 1463 H 163.194 5.21783 0.710635 0
M  V30 1464 H 165.685 3.77748 0.107161 0
M  V30 1465 H 165.998 7.7173 -0.406608 0
M  V30 1466 H 164.343 6.94074 -0.358733 0
M  V30 1467 H 167.534 4.68075 0.048498 0
M  V30 1468 H 167.707 6.47734 -0.185557 0
M  V30 1469 N 161.113 -0.173488 1.56642 0
M  V30 1470 C 162.341 -0.906095 1.86004 0
M  V30 1471 C 162.756 -1.75921 0.685355 0
M  V30 1472 O 162.113 -1.79198 -0.345578 0
M  V30 1473 C 162.164 -1.78462 3.14378 0
M  V30 1474 O 161.885 -0.965914 4.27319 0
M  V30 1475 C 163.386 -2.62707 3.57071 0
M  V30 1476 H 160.606 -0.263341 0.617165 0
M  V30 1477 H 163.15 -0.174236 2.03756 0
M  V30 1478 H 161.305 -2.46984 2.98459 0
M  V30 1479 H 161.719 -1.56655 5.00559 0
M  V30 1480 H 163.193 -3.19969 4.49804 0
M  V30 1481 H 163.67 -3.37472 2.81086 0
M  V30 1482 H 164.276 -1.99521 3.75595 0
M  V30 1483 N 162.591 -1.51276 -0.441967 0
M  V30 1484 C 163.521 -1.752 -1.54361 0
M  V30 1485 C 164.502 -0.601682 -1.59103 0
M  V30 1486 O 165.687 -0.843913 -1.74905 0
M  V30 1487 C 162.817 -1.87282 -2.92477 0
M  V30 1488 C 161.771 -3.02687 -3.02596 0
M  V30 1489 C 161.097 -2.99947 -4.42647 0
M  V30 1490 C 162.397 -4.4273 -2.77106 0
M  V30 1491 H 164.091 -2.67442 -1.34592 0
M  V30 1492 H 161.637 -1.28694 -0.646048 0
M  V30 1493 H 163.59 -2.02602 -3.695 0
M  V30 1494 H 162.314 -0.916844 -3.13467 0
M  V30 1495 H 160.973 -2.87065 -2.28012 0
M  V30 1496 H 160.621 -2.02136 -4.60597 0
M  V30 1497 H 160.321 -3.77439 -4.50348 0
M  V30 1498 H 161.845 -3.17354 -5.2165 0
M  V30 1499 H 163.259 -4.58727 -3.43864 0
M  V30 1500 H 161.656 -5.21893 -2.96222 0
M  V30 1501 H 162.726 -4.53087 -1.72744 0
M  V30 1502 N 164.069 0.697108 -1.41344 0
M  V30 1503 C 165.016 1.81106 -1.43071 0
M  V30 1504 C 165.986 1.63632 -0.285275 0
M  V30 1505 O 167.171 1.84504 -0.486091 0
M  V30 1506 C 164.311 3.18975 -1.31715 0
M  V30 1507 C 163.424 3.47892 -2.56115 0
M  V30 1508 C 162.559 4.75367 -2.37064 0
M  V30 1509 C 161.598 4.97247 -3.56948 0
M  V30 1510 N 160.735 6.15947 -3.36977 0
M  V30 1511 H 165.575 1.78965 -2.38276 0
M  V30 1512 H 163.112 0.873975 -1.18322 0
M  V30 1513 H 165.07 3.98615 -1.23133 0
M  V30 1514 H 163.7 3.20297 -0.401183 0
M  V30 1515 H 162.752 2.62669 -2.75153 0
M  V30 1516 H 164.064 3.59962 -3.45295 0
M  V30 1517 H 163.218 5.63059 -2.25941 0
M  V30 1518 H 161.957 4.65541 -1.45338 0
M  V30 1519 H 160.962 4.08004 -3.68527 0
M  V30 1520 H 162.187 5.08934 -4.49626 0
M  V30 1521 H 160.133 6.07336 -2.47949 0
M  V30 1522 H 160.05 6.28777 -4.19732 0
M  V30 1523 H 161.318 7.06377 -3.29623 0
M  V30 1524 N 165.547 1.27147 0.931209 0
M  V30 1525 C 166.777 1.15914 1.71019 0
M  V30 1526 C 167.185 -0.287112 1.87009 0
M  V30 1527 O 166.528 -1.20761 1.38429 0
M  V30 1528 C 166.59 1.76647 3.13107 0
M  V30 1529 C 166.254 3.25807 3.20467 0
M  V30 1530 C 167.251 4.22489 3.02983 0
M  V30 1531 C 164.936 3.66452 3.43538 0
M  V30 1532 C 166.93 5.57794 3.08454 0
M  V30 1533 C 164.617 5.01888 3.48643 0
M  V30 1534 C 165.615 5.97369 3.31119 0
M  V30 1535 O 165.303 7.30337 3.35952 0
M  V30 1536 H 165.035 0.404062 0.54195 0
M  V30 1537 H 167.589 1.68457 1.17521 0
M  V30 1538 H 165.819 1.18578 3.68071 0
M  V30 1539 H 167.508 1.60179 3.72958 0
M  V30 1540 H 168.274 3.92425 2.85004 0
M  V30 1541 H 164.153 2.92611 3.5623 0
M  V30 1542 H 167.697 6.32298 2.94694 0
M  V30 1543 H 163.594 5.31609 3.66145 0
M  V30 1544 H 164.362 7.38739 3.5243 0
M  V30 1545 N 167.025 -1.13721 1.09112 0
M  V30 1546 C 167.955 -2.21148 0.749385 0
M  V30 1547 C 168.936 -1.6792 -0.271475 0
M  V30 1548 O 170.121 -1.93693 -0.140251 0
M  V30 1549 C 167.251 -3.46905 0.165659 0
M  V30 1550 C 166.205 -4.13203 1.11567 0
M  V30 1551 C 165.531 -5.33248 0.393809 0
M  V30 1552 C 166.831 -4.60912 2.45678 0
M  V30 1553 H 168.525 -2.4999 1.64758 0
M  V30 1554 H 166.071 -1.20156 0.793626 0
M  V30 1555 H 168.024 -4.21313 -0.085466 0
M  V30 1556 H 166.748 -3.17449 -0.767714 0
M  V30 1557 H 165.407 -3.40758 1.35202 0
M  V30 1558 H 165.055 -5.00054 -0.543599 0
M  V30 1559 H 164.755 -5.78552 1.02721 0
M  V30 1560 H 166.279 -6.10413 0.150908 0
M  V30 1561 H 167.693 -5.26759 2.26269 0
M  V30 1562 H 166.09 -5.16944 3.04776 0
M  V30 1563 H 167.16 -3.75603 3.06677 0
M  V30 1564 N 168.503 -0.877838 -1.30888 0
M  V30 1565 C 169.749 -0.502773 -1.97088 0
M  V30 1566 C 170.104 0.936274 -1.68082 0
M  V30 1567 O 169.397 1.65162 -0.971196 0
M  V30 1568 C 169.591 -0.705748 -3.50363 0
M  V30 1569 C 169.42 -2.16297 -3.94266 0
M  V30 1570 C 168.19 -2.80614 -4.20219 0
M  V30 1571 C 170.388 -3.13606 -4.07622 0
M  V30 1572 N 168.37 -4.17007 -4.50532 0
M  V30 1573 C 169.741 -4.35051 -4.41736 0
M  V30 1574 C 171.796 -3.09491 -3.90026 0
M  V30 1575 C 170.499 -5.52911 -4.60089 0
M  V30 1576 C 172.525 -4.26616 -4.09576 0
M  V30 1577 C 171.887 -5.46825 -4.44029 0
M  V30 1578 H 167.986 -0.233168 -0.746429 0
M  V30 1579 H 170.57 -1.13408 -1.58261 0
M  V30 1580 H 168.741 -0.103976 -3.88261 0
M  V30 1581 H 170.473 -0.298291 -4.03599 0
M  V30 1582 H 167.228 -2.3152 -4.13153 0
M  V30 1583 H 167.652 -4.87426 -4.69834 0
M  V30 1584 H 172.294 -2.17657 -3.62471 0
M  V30 1585 H 170.012 -6.45255 -4.86489 0
M  V30 1586 H 173.598 -4.24894 -3.97438 0
M  V30 1587 H 172.478 -6.35947 -4.58848 0
M  V30 1588 N 169.982 1.44106 -0.638065 0
M  V30 1589 C 171.21 2.06336 -0.152615 0
M  V30 1590 C 171.625 1.47731 1.17563 0
M  V30 1591 O 170.982 0.602806 1.72257 0
M  V30 1592 C 171.033 3.61479 -0.0391491 0
M  V30 1593 O 170.754 4.17903 -1.31487 0
M  V30 1594 C 172.255 4.40757 0.474176 0
M  V30 1595 H 169.475 0.665862 -0.0828776 0
M  V30 1596 H 172.019 1.84862 -0.87443 0
M  V30 1597 H 170.174 3.82191 0.633142 0
M  V30 1598 H 170.588 5.11416 -1.16421 0
M  V30 1599 H 172.062 5.49707 0.502562 0
M  V30 1600 H 172.539 4.12697 1.50258 0
M  V30 1601 H 173.145 4.24979 -0.165102 0
M  V30 1602 N 171.46 0.379036 1.52974 0
M  V30 1603 C 172.706 -0.206727 2.01744 0
M  V30 1604 C 173.039 -1.47314 1.26539 0
M  V30 1605 O 172.314 -1.91084 0.362903 0
M  V30 1606 C 172.597 -0.485066 3.56818 0
M  V30 1607 C 172.45 0.795919 4.42702 0
M  V30 1608 C 173.769 -1.28003 4.21074 0
M  V30 1609 H 170.888 -0.0736607 0.73331 0
M  V30 1610 H 173.53 0.506581 1.83122 0
M  V30 1611 H 171.68 -1.09272 3.72816 0
M  V30 1612 H 173.352 1.43307 4.38476 0
M  V30 1613 H 171.595 1.41344 4.10127 0
M  V30 1614 H 172.266 0.555947 5.49193 0
M  V30 1615 H 174.742 -0.765867 4.08991 0
M  V30 1616 H 173.618 -1.44352 5.29579 0
M  V30 1617 H 173.879 -2.29236 3.78026 0
M  V30 1618 N 172.938 -1.57226 0.108567 0
M  V30 1619 C 174.178 -1.96717 -0.555155 0
M  V30 1620 C 174.542 -0.990003 -1.64508 0
M  V30 1621 O 175.743 -1.2739 -2.36696 0
M  V30 1622 C 174.014 -3.40575 -1.08367 0
M  V30 1623 S 175.573 -4.02072 -1.75737 0
M  V30 1624 H 172.391 -0.687638 -0.180762 0
M  V30 1625 H 174.993 -1.94563 0.191172 0
M  V30 1626 H 173.697 -4.0945 -0.279092 0
M  V30 1627 H 173.228 -3.46356 -1.86551 0
M  V30 1628 H 175.243 -3.91977 -3.04251 0
M  V30 1629 N 174.416 0.165178 -1.56732 0
M  V30 1630 C 175.656 0.887231 -1.8414 0
M  V30 1631 C 176.02 1.79159 -0.690353 0
M  V30 1632 O 177.221 2.55172 -0.845032 0
M  V30 1633 C 175.492 1.65674 -3.16681 0
M  V30 1634 S 177.051 2.42671 -3.6559 0
M  V30 1635 H 173.869 0.297042 -0.645978 0
M  V30 1636 H 176.471 0.148439 -1.94936 0
M  V30 1637 H 175.175 0.983507 -3.98441 0
M  V30 1638 H 174.706 2.43679 -3.08843 0
M  V30 1639 H 176.721 3.67499 -3.33406 0
M  V30 1640 N 175.894 1.51508 0.433938 0
M  V30 1641 C 176.844 1.69451 1.52546 0
M  V30 1642 C 177.828 0.548474 1.51263 0
M  V30 1643 O 179.02 0.804529 1.57659 0
M  V30 1644 C 176.149 1.82604 2.90707 0
M  V30 1645 C 175.235 3.03002 2.96733 0
M  V30 1646 N 175.626 4.26121 2.72496 0
M  V30 1647 C 173.924 3.02327 3.27894 0
M  V30 1648 C 174.625 5.07407 2.84452 0
M  V30 1649 N 173.601 4.42126 3.16269 0
M  V30 1650 H 177.403 2.62305 1.32564 0
M  V30 1651 H 174.917 1.49202 0.641297 0
M  V30 1652 H 176.914 1.93569 3.69238 0
M  V30 1653 H 175.574 0.909339 3.11707 0
M  V30 1654 H 176.585 4.55009 2.4736 0
M  V30 1655 H 173.262 2.20301 3.54646 0
M  V30 1656 H 174.652 6.15422 2.69639 0
M  V30 1657 N 177.372 -0.689602 1.41712 0
M  V30 1658 C 178.612 -1.46184 1.42862 0
M  V30 1659 C 178.976 -1.91962 0.0382204 0
M  V30 1660 O 180.177 -2.68694 -0.0755019 0
M  V30 1661 C 178.448 -2.6371 2.4123 0
M  V30 1662 S 180.007 -3.52768 2.6096 0
M  V30 1663 H 176.825 -0.49947 0.506015 0
M  V30 1664 H 179.427 -0.804107 1.78198 0
M  V30 1665 H 178.131 -2.28293 3.41044 0
M  V30 1666 H 177.662 -3.3437 2.07269 0
M  V30 1667 H 179.677 -4.59146 1.88148 0
M  V30 1668 N 178.85 -1.27639 -0.924453 0
M  V30 1669 C 180.098 -1.13941 -1.66918 0
M  V30 1670 C 180.419 0.314589 -1.92446 0
M  V30 1671 O 179.689 1.21964 -1.53303 0
M  V30 1672 H 178.269 -0.418678 -0.618642 0
M  V30 1673 H 180.931 -1.60213 -1.10985 0
M  V30 1674 H 180.027 -1.67094 -2.63602 0
M  V30 1675 N 180.328 1.1314 -1.09713 0
M  V30 1676 C 181.576 1.84119 -0.833338 0
M  V30 1677 C 181.897 1.84097 0.642904 0
M  V30 1678 O 181.167 1.29881 1.46655 0
M  V30 1679 H 179.747 0.681766 -0.305293 0
M  V30 1680 H 182.409 1.37038 -1.38588 0
M  V30 1681 H 181.505 2.88543 -1.18951 0
M  V30 1682 N 181.806 0.884767 1.30421 0
M  V30 1683 C 182.753 0.349642 2.28136 0
M  V30 1684 C 183.723 -0.560061 1.56373 0
M  V30 1685 O 184.908 -0.488524 1.8444 0
M  V30 1686 C 182.048 -0.42999 3.42411 0
M  V30 1687 C 181.161 0.508907 4.28992 0
M  V30 1688 C 180.296 -0.286301 5.30428 0
M  V30 1689 C 179.335 0.648079 6.08659 0
M  V30 1690 N 178.472 -0.111792 7.02011 0
M  V30 1691 H 183.312 1.18807 2.73293 0
M  V30 1692 H 180.849 0.597231 1.3443 0
M  V30 1693 H 182.807 -0.897923 4.07423 0
M  V30 1694 H 181.437 -1.23299 2.98324 0
M  V30 1695 H 180.489 1.09533 3.64289 0
M  V30 1696 H 181.801 1.22475 4.8353 0
M  V30 1697 H 180.955 -0.816098 6.01186 0
M  V30 1698 H 179.694 -1.03536 4.76583 0
M  V30 1699 H 178.699 1.18951 5.36778 0
M  V30 1700 H 179.924 1.39623 6.64592 0
M  V30 1701 H 177.87 -0.843395 6.50556 0
M  V30 1702 H 177.787 0.544429 7.54037 0
M  V30 1703 H 179.055 -0.622339 7.77012 0
M  V30 1704 N 183.284 -1.43765 0.645699 0
M  V30 1705 C 184.512 -2.06253 0.163556 0
M  V30 1706 C 184.927 -1.48352 -1.16778 0
M  V30 1707 O 184.284 -0.611932 -1.71935 0
M  V30 1708 C 184.335 -3.61453 0.0583186 0
M  V30 1709 O 184.056 -4.172 1.33702 0
M  V30 1710 C 185.557 -4.41002 -0.450795 0
M  V30 1711 H 182.777 -0.665413 0.0864077 0
M  V30 1712 H 185.321 -1.84396 0.884222 0
M  V30 1713 H 183.476 -3.82522 -0.612865 0
M  V30 1714 H 183.89 -5.10791 1.19131 0
M  V30 1715 H 185.364 -5.49966 -0.473403 0
M  V30 1716 H 185.841 -4.13488 -1.48068 0
M  V30 1717 H 186.447 -4.24886 0.187637 0
M  V30 1718 N 184.763 -0.387143 -1.52771 0
M  V30 1719 C 185.71 0.449048 -2.26389 0
M  V30 1720 C 186.68 1.05961 -1.27912 0
M  V30 1721 O 187.865 1.08804 -1.56737 0
M  V30 1722 C 185.005 1.57155 -3.0724 0
M  V30 1723 C 184.118 0.984066 -4.20643 0
M  V30 1724 C 183.253 2.07745 -4.88892 0
M  V30 1725 C 182.292 1.46574 -5.94292 0
M  V30 1726 N 181.429 2.49834 -6.56146 0
M  V30 1727 H 186.269 -0.185205 -2.97424 0
M  V30 1728 H 183.806 -0.103164 -1.46738 0
M  V30 1729 H 185.764 2.23309 -3.52405 0
M  V30 1730 H 184.394 2.17615 -2.38419 0
M  V30 1731 H 183.446 0.212193 -3.79808 0
M  V30 1732 H 184.758 0.497029 -4.96318 0
M  V30 1733 H 183.912 2.81673 -5.3735 0
M  V30 1734 H 182.651 2.59807 -4.12737 0
M  V30 1735 H 181.656 0.711696 -5.45174 0
M  V30 1736 H 182.881 0.953088 -6.72379 0
M  V30 1737 H 180.827 3.0107 -5.82832 0
M  V30 1738 H 180.744 2.05879 -7.27427 0
M  V30 1739 H 182.012 3.23399 -7.09249 0
M  V30 1740 N 186.241 1.57166 -0.116904 0
M  V30 1741 C 187.151 2.18745 0.847812 0
M  V30 1742 C 188.167 1.163 1.29423 0
M  V30 1743 O 189.343 1.48761 1.35765 0
M  V30 1744 C 186.408 2.77307 2.0809 0
M  V30 1745 C 185.469 3.94781 1.68661 0
M  V30 1746 C 184.702 4.50541 2.86091 0
M  V30 1747 O 184.925 4.05202 4.01456 0
M  V30 1748 O 183.859 5.41256 2.63298 0
M  V30 1749 H 187.685 3.01632 0.353778 0
M  V30 1750 H 185.27 1.49005 0.108599 0
M  V30 1751 H 187.152 3.14647 2.80313 0
M  V30 1752 H 185.827 1.97452 2.56504 0
M  V30 1753 H 184.734 3.62214 0.935518 0
M  V30 1754 H 186.067 4.76065 1.24991 0
M  V30 1755 N 187.719 -0.156864 1.56817 0
M  V30 1756 C 188.682 -1.17781 1.96622 0
M  V30 1757 C 189.682 -1.36401 0.851555 0
M  V30 1758 O 190.872 -1.33561 1.11836 0
M  V30 1759 C 188.004 -2.54008 2.27361 0
M  V30 1760 H 189.197 -0.836564 2.87996 0
M  V30 1761 H 186.75 -0.39985 1.51099 0
M  V30 1762 H 187.485 -2.9312 1.38748 0
M  V30 1763 H 187.27 -2.41856 3.08623 0
M  V30 1764 H 188.76 -3.27558 2.59029 0
M  V30 1765 N 189.197 -1.51736 -0.425897 0
M  V30 1766 C 190.129 -1.70083 -1.53638 0
M  V30 1767 C 191.142 -0.581349 -1.52066 0
M  V30 1768 O 192.331 -0.856017 -1.56635 0
M  V30 1769 C 189.431 -1.71078 -2.9255 0
M  V30 1770 C 188.604 -2.99795 -3.185 0
M  V30 1771 C 187.663 -2.92825 -4.37196 0
M  V30 1772 O 186.689 -3.66756 -4.35291 0
M  V30 1773 N 187.891 -2.0946 -5.41393 0
M  V30 1774 H 190.656 -2.65882 -1.383 0
M  V30 1775 H 188.217 -1.49765 -0.614988 0
M  V30 1776 H 190.209 -1.63969 -3.69995 0
M  V30 1777 H 188.779 -0.828242 -3.01428 0
M  V30 1778 H 187.999 -3.20684 -2.2925 0
M  V30 1779 H 189.287 -3.84977 -3.32671 0
M  V30 1780 H 188.685 -1.48792 -5.45781 0
M  V30 1781 H 187.242 -2.08221 -6.17647 0
M  V30 1782 N 190.675 0.682077 -1.42076 0
M  V30 1783 C 191.622 1.79578 -1.44984 0
M  V30 1784 C 192.592 1.6332 -0.302614 0
M  V30 1785 O 193.777 1.83978 -0.505633 0
M  V30 1786 C 190.917 3.1756 -1.35091 0
M  V30 1787 C 190.03 3.45156 -2.59791 0
M  V30 1788 C 189.165 4.72826 -2.42093 0
M  V30 1789 C 188.204 4.93433 -3.62202 0
M  V30 1790 N 187.341 6.12338 -3.43491 0
M  V30 1791 H 192.181 1.76427 -2.40161 0
M  V30 1792 H 189.718 0.861376 -1.19242 0
M  V30 1793 H 191.676 3.97287 -1.27354 0
M  V30 1794 H 190.306 3.19854 -0.435133 0
M  V30 1795 H 189.358 2.59736 -2.77923 0
M  V30 1796 H 190.67 3.5628 -3.49094 0
M  V30 1797 H 189.824 5.60631 -2.319 0
M  V30 1798 H 188.563 4.63973 -1.50268 0
M  V30 1799 H 187.568 4.04073 -3.72834 0
M  V30 1800 H 188.793 5.04136 -4.54998 0
M  V30 1801 H 186.739 6.04672 -2.54377 0
M  V30 1802 H 186.656 6.2429 -4.26377 0
M  V30 1803 H 187.924 7.02841 -3.37097 0
M  V30 1804 N 192.153 1.28127 0.917671 0
M  V30 1805 C 193.402 1.14432 1.66097 0
M  V30 1806 C 193.715 -0.307247 1.93172 0
M  V30 1807 O 194.921 -0.565259 2.65551 0
M  V30 1808 C 193.377 2.00015 2.99202 0
M  V30 1809 C 192.985 3.49889 2.79789 0
M  V30 1810 C 194.729 1.94996 3.77064 0
M  V30 1811 C 192.636 4.27636 4.08511 0
M  V30 1812 H 191.566 0.424662 0.62304 0
M  V30 1813 H 194.217 1.52628 1.01868 0
M  V30 1814 H 192.599 1.54672 3.64544 0
M  V30 1815 H 193.773 4.03162 2.23152 0
M  V30 1816 H 192.088 3.56392 2.15345 0
M  V30 1817 H 194.685 2.50354 4.72469 0
M  V30 1818 H 195.028 0.925819 4.05875 0
M  V30 1819 H 195.561 2.38287 3.18534 0
M  V30 1820 H 192.3 5.30615 3.84874 0
M  V30 1821 H 191.82 3.79137 4.64774 0
M  V30 1822 H 193.499 4.37346 4.76799 0
M  V30 1823 N 193.631 -1.12557 1.10312 0
M  V30 1824 C 194.579 -2.20325 0.745629 0
M  V30 1825 C 195.573 -1.67429 -0.25763 0
M  V30 1826 O 196.779 -1.79612 -0.118132 0
M  V30 1827 H 193.154 -0.718118 0.223182 0
M  V30 1828 H 195.125 -2.47733 1.66346 0
M  V30 1829 C 193.874 -3.47168 0.192262 0
M  V30 1830 H 193.197 -3.88215 0.955475 0
M  V30 1831 H 194.637 -4.23995 -0.0198274 0
M  V30 1832 C 193.096 -3.19298 -1.07472 0
M  V30 1833 O 193.626 -3.3891 -2.15645 0
M  V30 1834 N 191.832 -2.73113 -0.992847 0
M  V30 1835 H 191.379 -2.57354 -0.112474 0
M  V30 1836 H 191.337 -2.54842 -1.84127 0
M  V30 1837 N 195.109 -0.891671 -1.2995 0
M  V30 1838 C 196.057 -0.353066 -2.29905 0
M  V30 1839 C 197.051 0.543509 -1.60444 0
M  V30 1840 O 198.257 0.4272 -1.74857 0
M  V30 1841 H 194.632 -0.095531 -0.745907 0
M  V30 1842 H 196.603 -1.20961 -2.72784 0
M  V30 1843 C 195.352 0.411475 -3.45257 0
M  V30 1844 H 194.675 -0.269182 -3.98893 0
M  V30 1845 H 196.115 0.753328 -4.17254 0
M  V30 1846 C 194.574 1.6111 -2.9588 0
M  V30 1847 O 195.104 2.71045 -2.96475 0
M  V30 1848 N 193.31 1.45054 -2.51809 0
M  V30 1849 H 192.857 0.556175 -2.51524 0
M  V30 1850 H 192.815 2.25453 -2.1913 0
M  V30 1851 N 196.587 1.43421 -0.653314 0
M  V30 1852 C 197.835 2.01414 -0.166415 0
M  V30 1853 C 198.156 1.51803 1.22397 0
M  V30 1854 O 197.426 0.730693 1.81763 0
M  V30 1855 H 196.006 0.744703 -0.0585319 0
M  V30 1856 H 198.668 1.75629 -0.845003 0
M  V30 1857 H 197.764 3.11734 -0.151111 0
M  V30 1858 N 198.065 0.39524 1.52563 0
M  V30 1859 C 199.29 -0.187456 2.06551 0
M  V30 1860 C 199.715 -1.39249 1.26457 0
M  V30 1861 O 199.073 -1.78947 0.291151 0
M  V30 1862 C 199.121 -0.529985 3.56684 0
M  V30 1863 O 198.225 -1.62307 3.79118 0
M  V30 1864 H 197.566 -0.0202537 0.663691 0
M  V30 1865 H 200.096 0.564426 1.96661 0
M  V30 1866 H 200.106 -0.792598 4.00227 0
M  V30 1867 H 198.781 0.350987 4.14416 0
M  V30 1868 H 197.358 -1.3537 3.47461 0
M  V30 1869 N 199.544 -1.57102 0.125237 0
M  V30 1870 C 200.769 -2.0019 -0.542101 0
M  V30 1871 C 201.194 -1.00449 -1.59034 0
M  V30 1872 O 200.552 0.0229423 -1.81285 0
M  V30 1873 C 200.6 -3.42129 -1.13929 0
M  V30 1874 O 199.704 -3.45307 -2.2547 0
M  V30 1875 H 199.045 -0.650171 -0.134812 0
M  V30 1876 H 201.575 -2.03461 0.215553 0
M  V30 1877 H 201.585 -3.80471 -1.4733 0
M  V30 1878 H 200.26 -4.14237 -0.371531 0
M  V30 1879 H 198.837 -3.1879 -1.93462 0
M  V30 1880 N 201.022 0.148545 -1.56898 0
M  V30 1881 C 201.954 1.20852 -1.9475 0
M  V30 1882 C 202.967 1.39265 -0.843152 0
M  V30 1883 O 204.156 1.38864 -1.12156 0
M  V30 1884 C 201.256 2.57362 -2.20495 0
M  V30 1885 C 200.429 2.59947 -3.51776 0
M  V30 1886 C 199.488 3.77984 -3.6608 0
M  V30 1887 O 198.514 3.62929 -4.38487 0
M  V30 1888 N 199.716 4.95375 -3.02629 0
M  V30 1889 H 202.481 0.886804 -2.86279 0
M  V30 1890 H 200.042 0.338121 -1.5833 0
M  V30 1891 H 202.034 3.34833 -2.27307 0
M  V30 1892 H 200.604 2.81832 -1.35238 0
M  V30 1893 H 199.824 1.68403 -3.56419 0
M  V30 1894 H 201.112 2.58704 -4.38121 0
M  V30 1895 H 200.51 5.10509 -2.43715 0
M  V30 1896 H 199.067 5.70627 -3.15004 0
M  V30 1897 N 202.5 1.5196 0.417844 0
M  V30 1898 C 203.463 1.74065 1.49111 0
M  V30 1899 C 204.463 0.610537 1.48758 0
M  V30 1900 O 205.653 0.87832 1.50437 0
M  V30 1901 C 202.785 1.81502 2.88565 0
M  V30 1902 H 203.978 2.69869 1.30807 0
M  V30 1903 H 201.531 1.42244 0.647785 0
M  V30 1904 H 202.266 0.875813 3.1225 0
M  V30 1905 H 202.051 2.63651 2.90225 0
M  V30 1906 H 203.541 2.00376 3.66387 0
M  V30 1907 N 203.978 -0.674533 1.42435 0
M  V30 1908 C 205.255 -1.4305 1.33402 0
M  V30 1909 C 205.635 -2.11081 -0.0284674 0
M  V30 1910 O 204.983 -2.03257 -1.04397 0
M  V30 1911 C 205.193 -2.43272 2.50239 0
M  V30 1912 C 206.541 -3.07907 2.92367 0
M  V30 1913 O 207.565 -2.53599 2.50132 0
M  V30 1914 O 206.424 -4.0632 3.65467 0
M  V30 1915 H 203.518 -0.638076 0.526106 0
M  V30 1916 H 206.064 -0.703235 1.54443 0
M  V30 1917 H 204.836 -1.91803 3.41068 0
M  V30 1918 H 204.459 -3.23479 2.31186 0
M  V30 1919 N 205.456 -1.28612 -0.910864 0
M  V30 1920 C 206.704 -1.15705 -1.65701 0
M  V30 1921 C 207.025 0.29416 -1.92769 0
M  V30 1922 O 206.295 1.20331 -1.54588 0
M  V30 1923 H 204.875 -0.425216 -0.614167 0
M  V30 1924 H 207.537 -1.61381 -1.0928 0
M  V30 1925 H 206.633 -1.6988 -2.61815 0
M  V30 1926 N 206.934 1.1197 -1.10907 0
M  V30 1927 C 208.162 1.87402 -0.876824 0
M  V30 1928 C 208.577 1.79894 0.573025 0
M  V30 1929 O 207.934 1.17629 1.39534 0
M  V30 1930 C 207.985 3.36428 -1.32282 0
M  V30 1931 O 207.706 3.43765 -2.71582 0
M  V30 1932 C 209.207 4.28783 -1.12518 0
M  V30 1933 H 206.427 0.592793 -0.314384 0
M  V30 1934 H 208.971 1.41649 -1.47499 0
M  V30 1935 H 207.126 3.79706 -0.768229 0
M  V30 1936 H 207.54 4.3652 -2.90776 0
M  V30 1937 H 209.014 5.31613 -1.48633 0
M  V30 1938 H 209.491 4.39153 -0.0642394 0
M  V30 1939 H 210.097 3.91291 -1.66648 0
M  V30 1940 N 208.412 0.89855 1.29475 0
M  V30 1941 C 209.342 0.39201 2.30186 0
M  V30 1942 C 210.323 -0.532359 1.61555 0
M  V30 1943 O 211.508 -0.443331 1.89072 0
M  V30 1944 C 208.638 -0.382353 3.45189 0
M  V30 1945 C 207.592 0.451483 4.25612 0
M  V30 1946 C 206.918 -0.450307 5.328 0
M  V30 1947 C 208.218 1.70079 4.93832 0
M  V30 1948 H 209.912 1.23362 2.72804 0
M  V30 1949 H 207.458 0.594638 1.31149 0
M  V30 1950 H 209.411 -0.747451 4.14718 0
M  V30 1951 H 208.135 -1.25774 3.01411 0
M  V30 1952 H 206.794 0.798897 3.57789 0
M  V30 1953 H 206.442 -1.32379 4.85268 0
M  V30 1954 H 206.142 0.103902 5.87508 0
M  V30 1955 H 207.666 -0.811623 6.05182 0
M  V30 1956 H 209.08 1.40549 5.55805 0
M  V30 1957 H 207.477 2.19623 5.58467 0
M  V30 1958 H 208.547 2.43744 4.19186 0
M  V30 1959 N 209.89 -1.43072 0.660911 0
M  V30 1960 C 210.837 -2.30785 -0.0259884 0
M  V30 1961 C 211.807 -1.45184 -0.806888 0
M  V30 1962 O 212.992 -1.74041 -0.781943 0
M  V30 1963 C 210.132 -3.30861 -0.981067 0
M  V30 1964 C 209.245 -4.31558 -0.195458 0
M  V30 1965 C 208.38 -5.18712 -1.14503 0
M  V30 1966 C 207.419 -6.11097 -0.350299 0
M  V30 1967 N 206.556 -6.90849 -1.25186 0
M  V30 1968 H 211.396 -2.88975 0.727846 0
M  V30 1969 H 208.933 -1.42353 0.370682 0
M  V30 1970 H 210.891 -3.87399 -1.54849 0
M  V30 1971 H 209.521 -2.74304 -1.70169 0
M  V30 1972 H 208.573 -3.77252 0.488374 0
M  V30 1973 H 209.885 -4.9701 0.422176 0
M  V30 1974 H 209.039 -5.79914 -1.78284 0
M  V30 1975 H 207.778 -4.53404 -1.79656 0
M  V30 1976 H 206.783 -5.48976 0.300808 0
M  V30 1977 H 208.008 -6.7845 0.296941 0
M  V30 1978 H 205.954 -6.28182 -1.89005 0
M  V30 1979 H 205.871 -7.52854 -0.688971 0
M  V30 1980 H 207.139 -7.5655 -1.87757 0
M  V30 1981 N 211.368 -0.403325 -1.52352 0
M  V30 1982 C 212.779 0.0675782 -1.86578 0
M  V30 1983 C 213.13 1.44941 -1.32236 0
M  V30 1984 O 212.255 2.06112 -0.659307 0
M  V30 1985 C 212.85 0.129404 -3.38553 0
M  V30 1986 C 211.409 0.544629 -3.72439 0
M  V30 1987 C 210.556 -0.284551 -2.75836 0
M  V30 1988 H 213.507 -0.620631 -1.46061 0
M  V30 1989 H 213.528 0.94581 -3.68558 0
M  V30 1990 H 213.04 -0.87645 -3.78074 0
M  V30 1991 H 211.141 1.55734 -3.38493 0
M  V30 1992 H 211.254 0.293046 -4.78203 0
M  V30 1993 H 209.618 0.252258 -2.53448 0
M  V30 1994 H 210.401 -1.28865 -3.18196 0
M  V30 1995 N 212.846 1.57033 -0.133567 0
M  V30 1996 C 214.092 1.95976 0.521649 0
M  V30 1997 C 214.425 1.01779 1.65393 0
M  V30 1998 O 213.7 0.0576581 1.94415 0
M  V30 1999 C 213.983 3.44738 1.04057 0
M  V30 2000 C 213.836 4.49711 -0.0892897 0
M  V30 2001 C 215.155 3.95682 1.92675 0
M  V30 2002 H 212.274 0.712579 0.188149 0
M  V30 2003 H 214.916 1.88813 -0.212076 0
M  V30 2004 H 213.066 3.50973 1.66583 0
M  V30 2005 H 214.738 4.55565 -0.725152 0
M  V30 2006 H 212.981 4.27261 -0.750378 0
M  V30 2007 H 213.652 5.51099 0.315284 0
M  V30 2008 H 216.128 3.91841 1.39998 0
M  V30 2009 H 215.004 5.00262 2.25897 0
M  V30 2010 H 215.265 3.37239 2.85872 0
M  V30 2011 N 214.325 -0.140222 1.56975 0
M  V30 2012 C 215.602 -0.880769 1.74648 0
M  V30 2013 C 215.982 -1.99036 0.703404 0
M  V30 2014 O 215.33 -2.26821 -0.27648 0
M  V30 2015 C 215.54 -1.417 3.18939 0
M  V30 2016 C 216.888 -1.87774 3.80823 0
M  V30 2017 O 217.912 -1.51427 3.2241 0
M  V30 2018 O 216.771 -2.54827 4.83452 0
M  V30 2019 H 213.865 -0.416713 0.714338 0
M  V30 2020 H 216.411 -0.125618 1.69234 0
M  V30 2021 H 215.183 -0.619902 3.86359 0
M  V30 2022 H 214.806 -2.23546 3.28805 0
M  V30 2023 N 215.803 -1.52179 -0.40978 0
M  V30 2024 C 216.713 -1.78364 -1.52392 0
M  V30 2025 C 217.729 -0.669183 -1.60617 0
M  V30 2026 O 218.905 -0.954518 -1.77344 0
M  V30 2027 C 215.97 -1.92822 -2.88133 0
M  V30 2028 C 215.031 -3.16725 -2.898 0
M  V30 2029 C 214.264 -3.30483 -4.19067 0
M  V30 2030 O 214.487 -2.49522 -5.12928 0
M  V30 2031 O 213.421 -4.2363 -4.27576 0
M  V30 2032 H 217.247 -2.72931 -1.33201 0
M  V30 2033 H 214.832 -1.37016 -0.59557 0
M  V30 2034 H 216.714 -2.04157 -3.68643 0
M  V30 2035 H 215.389 -1.01444 -3.07393 0
M  V30 2036 H 214.296 -3.10848 -2.08146 0
M  V30 2037 H 215.629 -4.07881 -2.75489 0
M  V30 2038 N 217.281 0.66697 -1.42791 0
M  V30 2039 C 218.228 1.7803 -1.4688 0
M  V30 2040 C 219.198 1.6299 -0.319919 0
M  V30 2041 O 220.383 1.83432 -0.525118 0
M  V30 2042 C 217.523 3.1611 -1.38451 0
M  V30 2043 C 216.636 3.42381 -2.63437 0
M  V30 2044 C 215.771 4.70232 -2.47094 0
M  V30 2045 C 214.81 4.89564 -3.67415 0
M  V30 2046 N 213.947 6.08661 -3.49966 0
M  V30 2047 H 218.787 1.7387 -2.42019 0
M  V30 2048 H 216.324 0.84868 -1.20149 0
M  V30 2049 H 218.282 3.95914 -1.31561 0
M  V30 2050 H 216.912 3.19374 -0.469033 0
M  V30 2051 H 215.964 2.56774 -2.80662 0
M  V30 2052 H 217.276 3.52557 -3.52853 0
M  V30 2053 H 216.43 5.5814 -2.37834 0
M  V30 2054 H 215.169 4.62353 -1.5518 0
M  V30 2055 H 214.174 4.00096 -3.77099 0
M  V30 2056 H 215.399 4.99282 -4.6032 0
M  V30 2057 H 213.345 6.0194 -2.60776 0
M  V30 2058 H 213.262 6.19733 -4.32975 0
M  V30 2059 H 214.53 6.99226 -3.44532 0
M  V30 2060 N 218.759 1.29093 0.90403 0
M  V30 2061 C 219.669 1.15727 2.0407 0
M  V30 2062 C 220.685 0.0815308 1.73809 0
M  V30 2063 O 221.861 0.292749 1.99261 0
M  V30 2064 C 218.926 0.830424 3.36608 0
M  V30 2065 C 217.987 1.98955 3.80415 0
M  V30 2066 C 217.22 1.6782 5.06628 0
M  V30 2067 O 217.443 0.597105 5.67266 0
M  V30 2068 O 216.377 2.52486 5.46383 0
M  V30 2069 H 220.203 2.11171 2.18267 0
M  V30 2070 H 217.788 1.08504 1.027 0
M  V30 2071 H 219.67 0.662521 4.16159 0
M  V30 2072 H 218.345 -0.0942678 3.23563 0
M  V30 2073 H 217.252 2.21267 3.01648 0
M  V30 2074 H 218.585 2.89529 3.98037 0
M  V30 2075 N 220.237 -1.11381 1.11499 0
M  V30 2076 C 221.147 -2.21019 0.786628 0
M  V30 2077 C 222.163 -1.72597 -0.220507 0
M  V30 2078 O 223.339 -2.01321 -0.0565251 0
M  V30 2079 C 220.404 -3.459 0.235333 0
M  V30 2080 C 219.465 -4.09107 1.30115 0
M  V30 2081 C 218.698 -5.28027 0.776068 0
M  V30 2082 O 218.921 -5.6904 -0.393661 0
M  V30 2083 O 217.855 -5.81835 1.54114 0
M  V30 2084 H 221.681 -2.51521 1.70209 0
M  V30 2085 H 219.266 -1.19928 0.890928 0
M  V30 2086 H 221.148 -4.21346 -0.067715 0
M  V30 2087 H 219.823 -3.17049 -0.652828 0
M  V30 2088 H 218.73 -3.35391 1.65722 0
M  V30 2089 H 220.063 -4.42139 2.16273 0
M  V30 2090 N 221.715 -0.905404 -1.28997 0
M  V30 2091 C 222.961 -0.535039 -1.95615 0
M  V30 2092 C 223.294 0.917404 -1.71165 0
M  V30 2093 O 222.569 1.65123 -1.02785 0
M  V30 2094 C 222.852 -0.834918 -3.50287 0
M  V30 2095 C 222.705 -2.33948 -3.84172 0
M  V30 2096 C 224.024 -0.325318 -4.38896 0
M  V30 2097 H 221.143 -0.195861 -0.710498 0
M  V30 2098 H 223.785 -1.13313 -1.52513 0
M  V30 2099 H 221.935 -0.325904 -3.87131 0
M  V30 2100 H 223.607 -2.91847 -3.57243 0
M  V30 2101 H 221.85 -2.79789 -3.31513 0
M  V30 2102 H 222.521 -2.49987 -4.92149 0
M  V30 2103 H 224.997 -0.761256 -4.09077 0
M  V30 2104 H 223.873 -0.564295 -5.45992 0
M  V30 2105 H 224.134 0.774144 -4.35269 0
M  V30 2106 N 223.193 1.4272 -0.668489 0
M  V30 2107 C 224.439 2.01923 -0.188419 0
M  V30 2108 C 224.772 1.52704 1.19979 0
M  V30 2109 O 224.047 0.726566 1.8042 0
M  V30 2110 C 224.33 3.59451 -0.216085 0
M  V30 2111 C 224.183 4.18864 -1.6393 0
M  V30 2112 C 225.502 4.37903 0.439179 0
M  V30 2113 H 222.621 0.733674 -0.0699412 0
M  V30 2114 H 225.263 1.69822 -0.852076 0
M  V30 2115 H 223.413 3.86929 0.349012 0
M  V30 2116 H 225.085 4.02362 -2.25616 0
M  V30 2117 H 223.328 3.74933 -2.18193 0
M  V30 2118 H 223.999 5.27987 -1.61039 0
M  V30 2119 H 226.475 4.16079 -0.0417878 0
M  V30 2120 H 225.351 5.47519 0.389157 0
M  V30 2121 H 225.612 4.15303 1.51577 0
M  V30 2122 N 224.671 0.411399 1.52136 0
M  V30 2123 C 225.634 -0.401089 2.25663 0
M  V30 2124 C 226.634 -0.971732 1.28117 0
M  V30 2125 O 227.824 -0.850254 1.52041 0
M  V30 2126 C 224.956 -1.56483 3.02863 0
M  V30 2127 H 226.149 0.24295 2.98914 0
M  V30 2128 H 223.702 0.163968 1.55438 0
M  V30 2129 H 224.437 -2.24567 2.33967 0
M  V30 2130 H 224.222 -1.16211 3.74483 0
M  V30 2131 H 225.712 -2.13951 3.58629 0
M  V30 2132 N 226.149 -1.5696 0.141893 0
M  V30 2133 C 227.112 -2.15316 -0.785587 0
M  V30 2134 C 228.112 -1.09366 -1.1788 0
M  V30 2135 O 229.302 -1.35031 -1.10056 0
M  V30 2136 C 226.434 -2.71211 -2.06537 0
M  V30 2137 H 227.627 -2.98608 -0.278041 0
M  V30 2138 H 225.18 -1.5593 -0.107519 0
M  V30 2139 H 225.915 -1.91571 -2.6167 0
M  V30 2140 H 225.7 -3.4872 -1.79268 0
M  V30 2141 H 227.19 -3.16189 -2.72789 0
M  V30 2142 N 227.627 0.131896 -1.57047 0
M  V30 2143 C 228.537 1.1815 -2.02676 0
M  V30 2144 C 229.553 1.46113 -0.944824 0
M  V30 2145 O 230.729 1.57485 -1.25541 0
M  V30 2146 C 227.794 2.49139 -2.41103 0
M  V30 2147 C 226.855 2.28688 -3.63318 0
M  V30 2148 C 226.088 3.53431 -3.99903 0
M  V30 2149 O 226.311 4.60223 -3.36973 0
M  V30 2150 O 225.245 3.45198 -4.93074 0
M  V30 2151 H 229.071 0.824069 -2.92306 0
M  V30 2152 H 226.656 0.341745 -1.45439 0
M  V30 2153 H 228.538 3.26338 -2.66611 0
M  V30 2154 H 227.213 2.84382 -1.54624 0
M  V30 2155 H 226.12 1.4939 -3.42977 0
M  V30 2156 H 227.453 1.98355 -4.50462 0
M  V30 2157 N 229.106 1.52395 0.401703 0
M  V30 2158 C 230.352 1.67065 1.14966 0
M  V30 2159 C 230.685 0.403052 1.89971 0
M  V30 2160 O 229.96 -0.598774 1.85054 0
M  V30 2161 C 230.243 2.8975 2.13815 0
M  V30 2162 C 230.096 4.26578 1.42658 0
M  V30 2163 C 231.415 3.07965 3.14397 0
M  V30 2164 H 228.534 0.607968 0.416587 0
M  V30 2165 H 231.176 1.84965 0.434511 0
M  V30 2166 H 229.326 2.74619 2.74803 0
M  V30 2167 H 230.998 4.53451 0.847329 0
M  V30 2168 H 229.241 4.27639 0.72849 0
M  V30 2169 H 229.912 5.08483 2.14823 0
M  V30 2170 H 232.388 3.22043 2.63491 0
M  V30 2171 H 231.264 3.95308 3.80819 0
M  V30 2172 H 231.525 2.21611 3.82545 0
M  V30 2173 N 230.584 -0.659388 1.43143 0
M  V30 2174 C 231.832 -1.41654 1.44147 0
M  V30 2175 C 232.153 -1.94893 0.0645739 0
M  V30 2176 O 231.423 -1.74044 -0.899198 0
M  V30 2177 H 230.003 -0.525708 0.530697 0
M  V30 2178 H 232.665 -0.778097 1.78694 0
M  V30 2179 H 231.761 -2.26195 2.1504 0
M  V30 2180 N 232.062 -1.29571 -0.897171 0
M  V30 2181 C 233.308 -1.18873 -1.65048 0
M  V30 2182 C 233.663 0.256707 -1.9068 0
M  V30 2183 O 232.956 1.18202 -1.50794 0
M  V30 2184 C 233.15 -1.9382 -3.00281 0
M  V30 2185 C 232.979 -3.45503 -2.8785 0
M  V30 2186 C 231.749 -4.14856 -2.88483 0
M  V30 2187 C 233.947 -4.40956 -2.64693 0
M  V30 2188 N 231.929 -5.52886 -2.66815 0
M  V30 2189 C 233.3 -5.66464 -2.5203 0
M  V30 2190 C 235.355 -4.3069 -2.49821 0
M  V30 2191 C 234.058 -6.82871 -2.26008 0
M  V30 2192 C 236.084 -5.46852 -2.25182 0
M  V30 2193 C 235.446 -6.71333 -2.13286 0
M  V30 2194 H 231.545 -0.489998 -0.609447 0
M  V30 2195 H 234.129 -1.63431 -1.05822 0
M  V30 2196 H 232.3 -1.51671 -3.57562 0
M  V30 2197 H 234.032 -1.75366 -3.64731 0
M  V30 2198 H 230.787 -3.66579 -2.99861 0
M  V30 2199 H 231.211 -6.25487 -2.59027 0
M  V30 2200 H 235.853 -3.35141 -2.5776 0
M  V30 2201 H 233.571 -7.78473 -2.16806 0
M  V30 2202 H 237.157 -5.40809 -2.14515 0
M  V30 2203 H 236.037 -7.59701 -1.94485 0
M  V30 2204 N 233.54 1.10788 -1.12088 0
M  V30 2205 C 234.473 2.16237 -0.729168 0
M  V30 2206 C 235.451 1.60207 0.277921 0
M  V30 2207 O 236.635 1.87707 0.172737 0
M  V30 2208 C 233.762 3.38609 -0.0786848 0
M  V30 2209 C 232.808 4.13322 -1.05201 0
M  V30 2210 S 233.641 4.69371 -2.57781 0
M  V30 2211 C 234.797 5.95058 -1.94053 0
M  V30 2212 H 235.03 2.4913 -1.62239 0
M  V30 2213 H 232.563 1.22519 -0.939603 0
M  V30 2214 H 234.521 4.09473 0.290254 0
M  V30 2215 H 233.182 3.03962 0.791593 0
M  V30 2216 H 232.375 5.01051 -0.544433 0
M  V30 2217 H 231.977 3.48251 -1.36371 0
M  V30 2218 H 234.269 6.65278 -1.28107 0
M  V30 2219 H 235.212 6.50472 -2.79807 0
M  V30 2220 H 235.62 5.46918 -1.39787 0
M  V30 2221 N 235.018 0.912232 1.28515 0
M  V30 2222 C 236.246 0.560416 1.99166 0
M  V30 2223 C 236.661 -0.857927 1.68182 0
M  V30 2224 O 236.018 -1.56805 0.933733 0
M  V30 2225 C 236.069 0.758142 3.53461 0
M  V30 2226 O 235.79 2.12067 3.83352 0
M  V30 2227 C 237.291 0.412954 4.41372 0
M  V30 2228 H 234.511 0.213805 0.636026 0
M  V30 2229 H 237.055 1.22502 1.63749 0
M  V30 2230 H 235.21 0.140556 3.87145 0
M  V30 2231 H 235.624 2.15923 4.77993 0
M  V30 2232 H 237.098 0.60208 5.48707 0
M  V30 2233 H 237.575 -0.65073 4.34353 0
M  V30 2234 H 238.181 1.00802 4.13182 0
M  V30 2235 N 236.496 -1.42363 0.676048 0
M  V30 2236 C 237.721 -2.06377 0.205705 0
M  V30 2237 C 238.146 -1.50463 -1.12883 0
M  V30 2238 O 237.504 -0.623619 -1.70237 0
M  V30 2239 C 237.552 -3.60277 0.152655 0
M  V30 2240 O 236.656 -4.02935 -0.87845 0
M  V30 2241 H 235.997 -0.655588 0.105359 0
M  V30 2242 H 238.527 -1.82475 0.925412 0
M  V30 2243 H 238.537 -4.07993 -0.0230675 0
M  V30 2244 H 237.212 -4.00346 1.12675 0
M  V30 2245 H 235.789 -3.66764 -0.673668 0
M  V30 2246 N 237.974 -0.419461 -1.51915 0
M  V30 2247 C 239.22 0.153166 -2.02221 0
M  V30 2248 C 239.553 1.43907 -1.30401 0
M  V30 2249 O 238.828 1.90055 -0.413438 0
M  V30 2250 C 239.111 0.390291 -3.57979 0
M  V30 2251 C 238.964 -0.913014 -4.40436 0
M  V30 2252 C 240.283 1.16794 -4.2432 0
M  V30 2253 H 237.402 0.0541924 -0.735005 0
M  V30 2254 H 240.044 -0.554955 -1.81715 0
M  V30 2255 H 238.194 0.993491 -3.75582 0
M  V30 2256 H 239.866 -1.54882 -4.34522 0
M  V30 2257 H 238.109 -1.52168 -4.06236 0
M  V30 2258 H 238.78 -0.701361 -5.47526 0
M  V30 2259 H 241.256 0.657161 -4.10878 0
M  V30 2260 H 240.132 1.3026 -5.3322 0
M  V30 2261 H 240.393 2.19132 -3.83971 0
M  V30 2262 N 239.452 1.56882 -0.150215 0
M  V30 2263 C 240.399 2.16922 0.788244 0
M  V30 2264 C 241.369 1.10303 1.24187 0
M  V30 2265 O 242.554 1.38359 1.31383 0
M  V30 2266 C 239.694 2.79754 2.02068 0
M  V30 2267 C 238.807 4.00775 1.61257 0
M  V30 2268 C 237.942 4.51595 2.79705 0
M  V30 2269 C 236.981 5.65074 2.35282 0
M  V30 2270 N 236.118 6.10499 3.4675 0
M  V30 2271 H 240.958 2.96779 0.269444 0
M  V30 2272 H 238.495 1.46599 0.12128 0
M  V30 2273 H 240.453 3.14329 2.74323 0
M  V30 2274 H 239.083 2.02536 2.51354 0
M  V30 2275 H 238.135 3.72158 0.787553 0
M  V30 2276 H 239.447 4.82978 1.24633 0
M  V30 2277 H 238.601 4.88242 3.60145 0
M  V30 2278 H 237.34 3.68406 3.19576 0
M  V30 2279 H 236.345 5.28 1.53283 0
M  V30 2280 H 237.57 6.50052 1.96493 0
M  V30 2281 H 235.516 5.30243 3.86236 0
M  V30 2282 H 235.433 6.87637 3.14152 0
M  V30 2283 H 236.701 6.51791 4.27537 0
M  V30 2284 N 240.93 -0.123565 1.57115 0
M  V30 2285 C 242.207 -0.862196 1.75572 0
M  V30 2286 C 242.587 -1.98279 0.724475 0
M  V30 2287 O 241.935 -2.27102 -0.252407 0
M  V30 2288 C 242.145 -1.38309 3.20424 0
M  V30 2289 C 243.493 -1.83724 3.82793 0
M  V30 2290 O 244.517 -1.47999 3.23998 0
M  V30 2291 O 243.376 -2.49685 4.86127 0
M  V30 2292 H 240.47 -0.409113 0.718718 0
M  V30 2293 H 243.016 -0.107661 1.69358 0
M  V30 2294 H 241.788 -0.578889 3.86994 0
M  V30 2295 H 241.411 -2.20046 3.31158 0
M  V30 2296 N 242.408 -1.52605 -0.393616 0
M  V30 2297 C 243.654 -1.68624 -1.13743 0
M  V30 2298 C 244.009 -0.418687 -1.87789 0
M  V30 2299 O 243.302 0.58747 -1.82371 0
M  V30 2300 C 243.496 -2.85721 -2.14705 0
M  V30 2301 C 243.325 -4.23742 -1.50575 0
M  V30 2302 C 242.095 -4.89033 -1.2718 0
M  V30 2303 C 244.293 -5.05293 -0.958311 0
M  V30 2304 N 242.275 -6.11048 -0.591058 0
M  V30 2305 C 243.646 -6.18673 -0.405367 0
M  V30 2306 C 245.701 -4.90517 -0.854274 0
M  V30 2307 C 244.404 -7.18895 0.241434 0
M  V30 2308 C 246.43 -5.90986 -0.221301 0
M  V30 2309 C 245.792 -7.03669 0.320894 0
M  V30 2310 H 241.891 -0.670556 -0.402342 0
M  V30 2311 H 244.475 -1.89946 -0.427607 0
M  V30 2312 H 242.646 -2.65987 -2.83029 0
M  V30 2313 H 244.378 -2.90699 -2.8156 0
M  V30 2314 H 241.133 -4.47672 -1.54554 0
M  V30 2315 H 241.557 -6.76474 -0.266862 0
M  V30 2316 H 246.199 -4.03612 -1.25926 0
M  V30 2317 H 243.917 -8.05413 0.658448 0
M  V30 2318 H 247.503 -5.81626 -0.142111 0
M  V30 2319 H 246.383 -7.80078 0.802956 0
M  V30 2320 N 243.887 0.651787 -1.4349 0
M  V30 2321 C 244.85 1.74647 -1.48429 0
M  V30 2322 C 245.85 1.56513 -0.368817 0
M  V30 2323 O 247.04 1.62385 -0.630623 0
M  V30 2324 C 244.172 3.13533 -1.33827 0
M  V30 2325 H 245.365 1.71649 -2.4592 0
M  V30 2326 H 242.918 0.863573 -1.30277 0
M  V30 2327 H 243.653 3.22142 -0.37349 0
M  V30 2328 H 243.438 3.28101 -2.14691 0
M  V30 2329 H 244.928 3.93356 -1.40218 0
M  V30 2330 N 245.365 1.30045 0.890287 0
M  V30 2331 C 246.613 1.18327 1.63839 0
M  V30 2332 C 246.934 -0.263455 1.93212 0
M  V30 2333 O 246.204 -1.17856 1.56482 0
M  V30 2334 H 244.784 0.434933 0.607324 0
M  V30 2335 H 247.446 1.631 1.06698 0
M  V30 2336 H 246.542 1.74024 2.59079 0
M  V30 2337 N 246.843 -1.10192 1.12674 0
M  V30 2338 C 248.089 -1.82475 0.884915 0
M  V30 2339 C 248.422 -1.85093 -0.58773 0
M  V30 2340 O 247.697 -1.3134 -1.43457 0
M  V30 2341 C 247.98 -3.29018 1.46353 0
M  V30 2342 C 247.833 -3.34718 3.00473 0
M  V30 2343 C 249.152 -4.25473 1.12519 0
M  V30 2344 H 246.271 -0.662492 0.322915 0
M  V30 2345 H 248.913 -1.2913 1.39375 0
M  V30 2346 H 247.063 -3.74576 1.03077 0
M  V30 2347 H 248.735 -2.97622 3.52447 0
M  V30 2348 H 246.978 -2.74541 3.35872 0
M  V30 2349 H 247.649 -4.37918 3.36053 0
M  V30 2350 H 250.125 -3.88161 1.499 0
M  V30 2351 H 249.001 -5.26365 1.55663 0
M  V30 2352 H 249.262 -4.42084 0.0377407 0
M  V30 2353 N 248.321 -0.919034 -1.28029 0
M  V30 2354 C 249.254 -0.355887 -2.25408 0
M  V30 2355 C 250.232 0.542874 -1.5327 0
M  V30 2356 O 251.416 0.485338 -1.82145 0
M  V30 2357 C 248.543 0.490759 -3.35126 0
M  V30 2358 C 247.589 -0.343358 -4.25116 0
M  V30 2359 S 248.422 -1.75344 -5.05979 0
M  V30 2360 C 249.578 -0.914244 -6.19187 0
M  V30 2361 H 249.811 -1.18123 -2.72826 0
M  V30 2362 H 247.344 -0.720636 -1.36551 0
M  V30 2363 H 249.302 0.973404 -3.98792 0
M  V30 2364 H 247.963 1.29054 -2.86363 0
M  V30 2365 H 247.156 0.304266 -5.03081 0
M  V30 2366 H 246.758 -0.759851 -3.662 0
M  V30 2367 H 249.05 -0.146282 -6.77342 0
M  V30 2368 H 249.993 -1.66661 -6.88208 0
M  V30 2369 H 250.401 -0.460082 -5.62622 0
M  V30 2370 N 249.799 1.42003 -0.683588 0
M  V30 2371 C 251.048 2.00638 -0.206681 0
M  V30 2372 C 251.361 1.5472 1.19671 0
M  V30 2373 O 252.567 2.05833 1.77045 0
M  V30 2374 C 251.023 3.58487 -0.318632 0
M  V30 2375 C 250.631 4.1339 -1.72663 0
M  V30 2376 C 252.375 4.24384 0.0991141 0
M  V30 2377 C 250.282 5.63633 -1.79087 0
M  V30 2378 H 249.212 0.750408 -0.0735107 0
M  V30 2379 H 251.863 1.62624 -0.850048 0
M  V30 2380 H 250.245 3.94047 0.392781 0
M  V30 2381 H 251.419 3.89273 -2.46583 0
M  V30 2382 H 249.734 3.59976 -2.09299 0
M  V30 2383 H 252.331 5.34652 0.0713833 0
M  V30 2384 H 252.674 4.00505 1.13586 0
M  V30 2385 H 253.207 3.93816 -0.561599 0
M  V30 2386 H 249.946 5.92323 -2.80774 0
M  V30 2387 H 249.466 5.89714 -1.09535 0
M  V30 2388 H 251.145 6.28201 -1.5483 0
M  V30 2389 N 251.277 0.427512 1.51691 0
M  V30 2390 C 252.502 -0.143601 2.06902 0
M  V30 2391 C 252.927 -1.36536 1.29382 0
M  V30 2392 O 252.285 -1.78289 0.329043 0
M  V30 2393 C 252.333 -0.454207 3.57728 0
M  V30 2394 O 251.437 -1.54228 3.82475 0
M  V30 2395 H 250.778 -0.00617128 0.663971 0
M  V30 2396 H 253.308 0.606014 1.95419 0
M  V30 2397 H 253.318 -0.707525 4.01818 0
M  V30 2398 H 251.993 0.438812 4.13579 0
M  V30 2399 H 250.57 -1.2797 3.50254 0
M  V30 2400 N 252.755 -1.56801 0.158532 0
M  V30 2401 C 253.718 -2.16138 -0.762705 0
M  V30 2402 C 254.718 -1.1061 -1.16713 0
M  V30 2403 O 255.908 -1.36191 -1.08617 0
M  V30 2404 C 253.04 -2.73386 -2.03649 0
M  V30 2405 H 254.233 -2.98886 -0.246354 0
M  V30 2406 H 251.786 -1.56035 -0.0909744 0
M  V30 2407 H 252.521 -1.94335 -2.59623 0
M  V30 2408 H 252.306 -3.50601 -1.75559 0
M  V30 2409 H 253.796 -3.19065 -2.6942 0
M  V30 2410 N 254.233 0.115231 -1.57178 0
M  V30 2411 C 255.165 1.16694 -1.97269 0
M  V30 2412 C 256.178 1.37445 -0.872502 0
M  V30 2413 O 257.367 1.36454 -1.15077 0
M  V30 2414 C 254.467 2.52627 -2.25905 0
M  V30 2415 C 253.64 2.52427 -3.57211 0
M  V30 2416 C 252.699 3.70134 -3.74016 0
M  V30 2417 O 251.725 3.53546 -4.46087 0
M  V30 2418 N 252.927 4.88844 -3.13068 0
M  V30 2419 H 255.692 0.82588 -2.88096 0
M  V30 2420 H 253.253 0.304461 -1.59011 0
M  V30 2421 H 255.245 3.29937 -2.34359 0
M  V30 2422 H 253.815 2.789 -1.41186 0
M  V30 2423 H 253.035 1.60805 -3.5991 0
M  V30 2424 H 254.323 2.49353 -4.43509 0
M  V30 2425 H 253.721 5.05225 -2.54489 0
M  V30 2426 H 252.278 5.63817 -3.27037 0
M  V30 2427 N 255.711 1.52812 0.385517 0
M  V30 2428 C 256.939 1.71907 1.15133 0
M  V30 2429 C 257.354 0.439004 1.83625 0
M  V30 2430 O 256.711 -0.586765 1.7281 0
M  V30 2431 C 256.762 2.87099 2.19673 0
M  V30 2432 O 256.483 4.10151 1.53973 0
M  V30 2433 C 257.984 3.17902 3.08955 0
M  V30 2434 H 255.204 0.575479 0.345057 0
M  V30 2435 H 257.748 1.99476 0.45052 0
M  V30 2436 H 255.903 2.61982 2.85384 0
M  V30 2437 H 256.317 4.74514 2.23465 0
M  V30 2438 H 257.791 4.01959 3.7833 0
M  V30 2439 H 258.268 2.3243 3.72657 0
M  V30 2440 H 258.874 3.44871 2.48885 0
M  V30 2441 N 257.189 -0.644168 1.43834 0
M  V30 2442 C 258.119 -1.76814 1.52509 0
M  V30 2443 C 259.1 -1.65823 0.379052 0
M  V30 2444 O 260.285 -1.84781 0.597466 0
M  V30 2445 C 257.415 -3.15288 1.4564 0
M  V30 2446 C 256.369 -3.41053 2.58586 0
M  V30 2447 C 255.695 -4.79421 2.36769 0
M  V30 2448 C 256.995 -3.34902 4.00797 0
M  V30 2449 H 258.689 -1.69812 2.46586 0
M  V30 2450 H 256.235 -0.815542 1.1868 0
M  V30 2451 H 258.188 -3.93681 1.50311 0
M  V30 2452 H 256.912 -3.23043 0.480725 0
M  V30 2453 H 255.571 -2.65035 2.53282 0
M  V30 2454 H 255.219 -4.83863 1.37424 0
M  V30 2455 H 254.919 -4.9762 3.12487 0
M  V30 2456 H 256.443 -5.6006 2.43238 0
M  V30 2457 H 257.857 -4.03218 4.07539 0
M  V30 2458 H 256.254 -3.64637 4.76613 0
M  V30 2459 H 257.324 -2.32928 4.25291 0
M  V30 2460 N 258.668 -1.30515 -0.883378 0
M  V30 2461 C 259.896 -1.22359 -1.66841 0
M  V30 2462 C 260.311 0.213296 -1.87591 0
M  V30 2463 O 259.668 1.14075 -1.42454 0
M  V30 2464 C 259.719 -1.95011 -3.04389 0
M  V30 2465 O 259.44 -3.3309 -2.84575 0
M  V30 2466 C 260.941 -1.93532 -3.98824 0
M  V30 2467 H 258.161 -0.423371 -0.520575 0
M  V30 2468 H 260.705 -1.72167 -1.10357 0
M  V30 2469 H 258.86 -1.48997 -3.57601 0
M  V30 2470 H 259.274 -3.69907 -3.71846 0
M  V30 2471 H 260.748 -2.48902 -4.92699 0
M  V30 2472 H 261.225 -0.914627 -4.29571 0
M  V30 2473 H 261.831 -2.39364 -3.51547 0
M  V30 2474 N 260.146 1.09593 -1.13257 0
M  V30 2475 C 261.394 1.81375 -0.891492 0
M  V30 2476 C 261.715 1.86049 0.584009 0
M  V30 2477 O 260.985 1.34481 1.42449 0
M  V30 2478 H 259.565 0.671708 -0.326828 0
M  V30 2479 H 262.227 1.3256 -1.42877 0
M  V30 2480 H 261.323 2.84612 -1.28071 0
M  V30 2481 N 261.624 0.925811 1.2754 0
M  V30 2482 C 263.04 0.625767 1.46821 0
M  V30 2483 C 263.24 -0.825506 1.83814 0
M  V30 2484 O 262.296 -1.60356 1.95044 0
M  V30 2485 C 263.609 1.57402 2.56213 0
M  V30 2486 C 265.157 1.58204 2.70075 0
M  V30 2487 C 265.632 2.51721 3.82623 0
M  V30 2488 N 267.123 2.49917 3.89994 0
M  V30 2489 C 267.858 3.18968 4.76494 0
M  V30 2490 N 267.354 3.97391 5.67496 0
M  V30 2491 N 269.147 3.07996 4.70208 0
M  V30 2492 H 261.298 1.86409 1.01811 0
M  V30 2493 H 263.561 0.800213 0.508295 0
M  V30 2494 H 263.267 2.60925 2.35819 0
M  V30 2495 H 263.141 1.31428 3.53563 0
M  V30 2496 H 265.528 0.554124 2.89851 0
M  V30 2497 H 265.609 1.88226 1.73218 0
M  V30 2498 H 265.253 3.54622 3.63601 0
M  V30 2499 H 265.183 2.18996 4.78903 0
M  V30 2500 H 267.674 1.9296 3.24923 0
M  V30 2501 H 267.987 4.4707 6.30356 0
M  V30 2502 H 266.332 4.01495 5.67298 0
M  V30 2503 H 269.523 2.46223 3.9811 0
M  V30 2504 H 269.696 3.6208 5.37403 0
M  V30 2505 N 263.102 -1.41638 0.69111 0
M  V30 2506 C 264.348 -2.01598 0.220519 0
M  V30 2507 C 264.681 -1.54594 -1.17535 0
M  V30 2508 O 263.956 -0.755177 -1.79241 0
M  V30 2509 C 264.239 -3.59062 0.273243 0
M  V30 2510 C 264.092 -4.16203 1.70573 0
M  V30 2511 C 265.411 -4.38546 -0.369457 0
M  V30 2512 H 262.53 -0.732468 0.0816045 0
M  V30 2513 H 265.172 -1.68445 0.878986 0
M  V30 2514 H 263.322 -3.87435 -0.287411 0
M  V30 2515 H 264.994 -3.98722 2.31989 0
M  V30 2516 H 263.237 -3.71414 2.2413 0
M  V30 2517 H 263.908 -5.25358 1.69419 0
M  V30 2518 H 266.384 -4.1596 0.107977 0
M  V30 2519 H 265.26 -5.48069 -0.302002 0
M  V30 2520 H 265.521 -4.17662 -1.44951 0
M  V30 2521 N 264.58 -0.43555 -1.51462 0
M  V30 2522 C 265.51 0.367376 -2.30592 0
M  V30 2523 C 266.491 1.02263 -1.35928 0
M  V30 2524 O 267.676 1.02661 -1.64847 0
M  V30 2525 C 264.806 1.46983 -3.14664 0
M  V30 2526 C 263.76 0.938161 -4.17591 0
M  V30 2527 C 263.086 2.13622 -4.90173 0
M  V30 2528 C 264.386 -0.0261621 -5.22293 0
M  V30 2529 H 266.08 -0.292969 -2.97963 0
M  V30 2530 H 263.626 -0.14234 -1.43295 0
M  V30 2531 H 265.579 2.03873 -3.688 0
M  V30 2532 H 264.303 2.15843 -2.4511 0
M  V30 2533 H 262.962 0.391481 -3.64504 0
M  V30 2534 H 262.61 2.81098 -4.17124 0
M  V30 2535 H 262.31 1.78688 -5.59772 0
M  V30 2536 H 263.834 2.7107 -5.47132 0
M  V30 2537 H 265.248 0.452384 -5.71512 0
M  V30 2538 H 263.645 -0.287992 -5.99409 0
M  V30 2539 H 264.715 -0.963391 -4.75233 0
M  V30 2540 N 266.058 1.56714 -0.166846 0
M  V30 2541 C 267.304 1.97039 0.479962 0
M  V30 2542 C 267.637 1.05264 1.63197 0
M  V30 2543 O 266.912 0.0988833 1.94248 0
M  V30 2544 C 267.195 3.46867 0.967212 0
M  V30 2545 C 267.048 4.49421 -0.18466 0
M  V30 2546 C 268.367 3.9968 1.84238 0
M  V30 2547 H 265.486 0.71641 0.172992 0
M  V30 2548 H 268.128 1.8832 -0.252079 0
M  V30 2549 H 266.278 3.54428 1.59101 0
M  V30 2550 H 267.95 4.53924 -0.821621 0
M  V30 2551 H 266.193 4.25573 -0.840837 0
M  V30 2552 H 266.864 5.51644 0.198317 0
M  V30 2553 H 269.34 3.94723 1.31655 0
M  V30 2554 H 268.216 5.04941 2.15234 0
M  V30 2555 H 268.477 3.43226 2.78654 0
M  V30 2556 N 267.536 -0.106894 1.57237 0
M  V30 2557 C 268.782 -0.81373 1.85759 0
M  V30 2558 C 269.115 -1.78952 0.754315 0
M  V30 2559 O 268.39 -1.93029 -0.23879 0
M  V30 2560 C 268.673 -1.55293 3.24894 0
M  V30 2561 C 268.526 -0.595929 4.45835 0
M  V30 2562 C 269.845 -2.5063 3.61763 0
M  V30 2563 H 266.964 -0.294369 0.67566 0
M  V30 2564 H 269.606 -0.0776472 1.89841 0
M  V30 2565 H 267.756 -2.1804 3.21544 0
M  V30 2566 H 269.428 0.0236262 4.61294 0
M  V30 2567 H 267.671 0.0916191 4.33703 0
M  V30 2568 H 268.342 -1.15004 5.39887 0
M  V30 2569 H 270.818 -1.97982 3.65981 0
M  V30 2570 H 269.694 -2.99376 4.60071 0
M  V30 2571 H 269.955 -3.3385 2.89821 0
M  V30 2572 N 269.014 -1.53014 -0.377408 0
M  V30 2573 C 269.944 -1.81589 -1.46791 0
M  V30 2574 C 270.925 -0.668622 -1.56408 0
M  V30 2575 O 272.11 -0.917337 -1.71168 0
M  V30 2576 C 269.24 -1.99519 -2.8427 0
M  V30 2577 C 268.194 -3.15249 -2.89486 0
M  V30 2578 C 267.52 -3.18451 -4.29527 0
M  V30 2579 C 268.82 -4.54084 -2.58079 0
M  V30 2580 H 270.514 -2.7291 -1.23127 0
M  V30 2581 H 268.06 -1.31319 -0.590883 0
M  V30 2582 H 270.013 -2.18092 -3.60575 0
M  V30 2583 H 268.737 -1.04897 -3.09296 0
M  V30 2584 H 267.396 -2.96477 -2.15631 0
M  V30 2585 H 267.044 -2.2149 -4.5161 0
M  V30 2586 H 266.744 -3.962 -4.33934 0
M  V30 2587 H 268.268 -3.39193 -5.07721 0
M  V30 2588 H 269.682 -4.72899 -3.24098 0
M  V30 2589 H 268.079 -5.33987 -2.7382 0
M  V30 2590 H 269.149 -4.60006 -1.53372 0
M  V30 2591 N 270.492 0.636531 -1.44174 0
M  V30 2592 C 271.738 1.39826 -1.4689 0
M  V30 2593 C 272.071 1.93947 -0.0990585 0
M  V30 2594 O 271.346 1.73325 0.882544 0
M  V30 2595 C 271.629 2.56751 -2.5249 0
M  V30 2596 C 271.482 2.08014 -3.98811 0
M  V30 2597 C 272.801 3.58946 -2.54649 0
M  V30 2598 H 269.92 0.507075 -0.53483 0
M  V30 2599 H 272.562 0.720188 -1.75822 0
M  V30 2600 H 270.712 3.14597 -2.2795 0
M  V30 2601 H 272.384 1.5504 -4.34466 0
M  V30 2602 H 270.627 1.39242 -4.10846 0
M  V30 2603 H 271.298 2.92169 -4.68339 0
M  V30 2604 H 273.774 3.1089 -2.76563 0
M  V30 2605 H 272.65 4.38286 -3.3045 0
M  V30 2606 H 272.911 4.12655 -1.58646 0
M  V30 2607 N 271.97 1.30982 0.876444 0
M  V30 2608 C 273.217 1.20296 1.62896 0
M  V30 2609 C 273.545 -0.240395 1.93009 0
M  V30 2610 O 272.8 -1.18733 1.55567 0
M  V30 2611 C 273.099 1.98572 2.9716 0
M  V30 2612 C 272.765 3.48125 2.86566 0
M  V30 2613 C 271.427 3.88905 2.83383 0
M  V30 2614 C 273.779 4.43322 2.74071 0
M  V30 2615 C 271.107 5.2316 2.65556 0
M  V30 2616 C 273.459 5.77695 2.57781 0
M  V30 2617 C 272.123 6.17704 2.52979 0
M  V30 2618 H 271.393 0.440193 0.59608 0
M  V30 2619 H 274.04 1.62177 1.01837 0
M  V30 2620 H 272.345 1.49352 3.62217 0
M  V30 2621 H 274.042 1.8769 3.54364 0
M  V30 2622 H 270.632 3.15723 2.89856 0
M  V30 2623 H 274.816 4.12752 2.75589 0
M  V30 2624 H 270.072 5.53241 2.60259 0
M  V30 2625 H 274.246 6.51091 2.47089 0
M  V30 2626 H 271.873 7.21678 2.38924 0
M  V30 2627 N 273.449 -1.08991 1.13837 0
M  V30 2628 C 274.412 -2.13925 0.822715 0
M  V30 2629 C 275.412 -1.599 -0.1699 0
M  V30 2630 O 276.602 -1.74104 0.0577251 0
M  V30 2631 C 273.734 -3.40155 0.225318 0
M  V30 2632 H 274.927 -2.43358 1.75262 0
M  V30 2633 H 272.48 -1.24603 0.943594 0
M  V30 2634 H 273.215 -3.16352 -0.713594 0
M  V30 2635 H 273 -3.80661 0.940193 0
M  V30 2636 H 274.49 -4.17594 0.0214784 0
M  V30 2637 N 274.927 -0.932562 -1.27047 0
M  V30 2638 C 275.857 -0.452902 -2.29066 0
M  V30 2639 C 276.838 0.489338 -1.62909 0
M  V30 2640 O 278.023 0.393046 -1.90181 0
M  V30 2641 C 275.153 0.290698 -3.46081 0
M  V30 2642 C 274.107 -0.564168 -4.24265 0
M  V30 2643 C 273.433 0.308886 -5.33807 0
M  V30 2644 C 274.733 -1.83112 -4.89149 0
M  V30 2645 H 276.427 -1.30552 -2.69437 0
M  V30 2646 H 273.973 -0.629201 -1.29526 0
M  V30 2647 H 275.926 0.637233 -4.16554 0
M  V30 2648 H 274.65 1.17738 -3.0464 0
M  V30 2649 H 273.309 -0.893477 -3.55545 0
M  V30 2650 H 272.957 1.19467 -4.88607 0
M  V30 2651 H 272.657 -0.259633 -5.87026 0
M  V30 2652 H 274.181 0.650884 -6.07121 0
M  V30 2653 H 275.595 -1.55236 -5.51883 0
M  V30 2654 H 273.992 -2.34353 -5.52448 0
M  V30 2655 H 275.062 -2.54772 -4.12576 0
M  V30 2656 N 276.405 1.4127 -0.698611 0
M  V30 2657 C 277.63 2.06024 -0.238512 0
M  V30 2658 C 278.055 1.5224 1.10475 0
M  V30 2659 O 277.413 0.650623 1.69223 0
M  V30 2660 C 277.461 3.59988 -0.209952 0
M  V30 2661 O 276.565 4.04282 0.814235 0
M  V30 2662 H 275.906 0.653829 -0.115775 0
M  V30 2663 H 278.436 1.8098 -0.954326 0
M  V30 2664 H 278.446 4.07979 -0.0418436 0
M  V30 2665 H 277.121 3.98503 -1.1903 0
M  V30 2666 H 275.698 3.6779 0.615234 0
M  V30 2667 N 277.883 0.443576 1.51229 0
M  V30 2668 C 279.132 -0.122332 2.01329 0
M  V30 2669 C 279.445 -1.43237 1.33201 0
M  V30 2670 O 280.651 -2.0816 1.74304 0
M  V30 2671 C 279.107 -0.268551 3.58897 0
M  V30 2672 C 278.715 1.03142 4.35965 0
M  V30 2673 C 280.459 -0.787894 4.17124 0
M  V30 2674 C 278.366 0.850504 5.85252 0
M  V30 2675 H 277.296 -0.0494929 0.752374 0
M  V30 2676 H 279.947 0.574289 1.74282 0
M  V30 2677 H 278.329 -1.02832 3.82415 0
M  V30 2678 H 279.503 1.80001 4.24189 0
M  V30 2679 H 277.818 1.47977 3.89219 0
M  V30 2680 H 280.415 -0.939841 5.26375 0
M  V30 2681 H 280.758 -1.77201 3.76703 0
M  V30 2682 H 281.291 -0.0862669 3.97706 0
M  V30 2683 H 278.03 1.80718 6.30096 0
M  V30 2684 H 277.55 0.121825 5.99676 0
M  V30 2685 H 279.229 0.506163 6.45017 0
M  V30 2686 N 279.361 -1.56624 0.175154 0
M  V30 2687 C 280.609 -1.96609 -0.467885 0
M  V30 2688 C 280.93 -1.06238 -1.63519 0
M  V30 2689 O 280.2 -0.129523 -1.95471 0
M  V30 2690 H 278.78 -0.726008 -0.175845 0
M  V30 2691 H 281.442 -1.93195 0.257234 0
M  V30 2692 H 280.538 -3.00989 -0.825342 0
M  V30 2693 N 280.839 0.0985539 -1.57292 0
M  V30 2694 C 281.802 1.10402 -2.00858 0
M  V30 2695 C 282.802 1.33146 -0.901593 0
M  V30 2696 O 283.992 1.29318 -1.16716 0
M  V30 2697 C 281.124 2.45394 -2.36632 0
M  V30 2698 H 282.317 0.729099 -2.90902 0
M  V30 2699 H 279.87 0.343495 -1.52479 0
M  V30 2700 H 280.605 2.87769 -1.49531 0
M  V30 2701 H 280.39 2.30235 -3.17387 0
M  V30 2702 H 281.88 3.17718 -2.71007 0
M  V30 2703 N 282.317 1.53212 0.369288 0
M  V30 2704 C 283.247 1.82365 1.45826 0
M  V30 2705 C 284.228 0.676907 1.56051 0
M  V30 2706 O 285.413 0.926401 1.70679 0
M  V30 2707 C 282.543 2.01023 2.83208 0
M  V30 2708 C 281.497 3.1678 2.8781 0
M  V30 2709 C 280.823 3.20724 4.27832 0
M  V30 2710 C 282.123 4.55447 2.55667 0
M  V30 2711 H 283.817 2.73559 1.21678 0
M  V30 2712 H 281.363 1.3163 0.583911 0
M  V30 2713 H 283.316 2.20001 3.59413 0
M  V30 2714 H 282.04 1.06536 3.08736 0
M  V30 2715 H 280.699 2.97616 2.14056 0
M  V30 2716 H 280.347 2.23882 4.50429 0
M  V30 2717 H 280.047 3.98496 4.31827 0
M  V30 2718 H 281.571 3.41881 5.05915 0
M  V30 2719 H 282.985 4.74611 3.21586 0
M  V30 2720 H 281.382 5.35432 2.70984 0
M  V30 2721 H 282.452 4.60812 1.5093 0
M  V30 2722 N 283.795 -0.628877 1.44509 0
M  V30 2723 C 285.041 -1.39045 1.47629 0
M  V30 2724 C 285.374 -1.93892 0.109343 0
M  V30 2725 O 284.649 -1.7379 -0.87334 0
M  V30 2726 C 284.932 -2.55408 2.53848 0
M  V30 2727 C 284.785 -2.05896 3.99909 0
M  V30 2728 C 286.104 -3.5759 2.56549 0
M  V30 2729 H 283.223 -0.504232 0.537512 0
M  V30 2730 H 285.865 -0.710854 1.76201 0
M  V30 2731 H 284.015 -3.13384 2.29615 0
M  V30 2732 H 285.687 -1.52734 4.35282 0
M  V30 2733 H 283.93 -1.37061 4.11578 0
M  V30 2734 H 284.601 -2.89681 4.69882 0
M  V30 2735 H 287.077 -3.09419 2.78207 0
M  V30 2736 H 285.953 -4.36527 3.32769 0
M  V30 2737 H 286.214 -4.11808 1.60832 0
M  V30 2738 N 285.273 -1.31445 -0.869486 0
M  V30 2739 C 286.522 -1.20517 -1.61736 0
M  V30 2740 C 286.835 0.235341 -1.94179 0
M  V30 2741 O 288.041 0.466312 -2.67465 0
M  V30 2742 C 286.497 -2.10982 -2.91573 0
M  V30 2743 C 286.105 -3.60032 -2.66611 0
M  V30 2744 C 287.849 -2.08856 -3.69567 0
M  V30 2745 C 285.756 -4.42503 -3.92358 0
M  V30 2746 H 284.686 -0.447493 -0.606849 0
M  V30 2747 H 287.337 -1.56303 -0.96133 0
M  V30 2748 H 285.719 -1.68095 -3.58553 0
M  V30 2749 H 286.893 -4.11167 -2.08035 0
M  V30 2750 H 285.208 -3.64139 -2.0197 0
M  V30 2751 H 287.805 -2.67716 -4.62852 0
M  V30 2752 H 288.148 -1.07582 -4.02159 0
M  V30 2753 H 288.681 -2.49945 -3.09471 0
M  V30 2754 H 285.42 -5.44533 -3.64916 0
M  V30 2755 H 284.94 -3.96125 -4.50383 0
M  V30 2756 H 286.619 -4.54741 -4.60238 0
M  V30 2757 N 286.751 1.08385 -1.14413 0
M  V30 2758 C 287.981 1.8425 -0.934644 0
M  V30 2759 C 288.389 1.81907 0.520234 0
M  V30 2760 O 287.732 1.22126 1.37226 0
M  V30 2761 C 287.794 3.32853 -1.35828 0
M  V30 2762 C 287.458 3.5893 -2.82875 0
M  V30 2763 C 288.455 3.53756 -3.80989 0
M  V30 2764 C 286.14 3.86934 -3.20293 0
M  V30 2765 C 288.134 3.76216 -5.14529 0
M  V30 2766 C 285.821 4.09047 -4.54008 0
M  V30 2767 C 286.819 4.03682 -5.50936 0
M  V30 2768 O 286.507 4.25214 -6.82238 0
M  V30 2769 H 286.239 0.588502 -0.332628 0
M  V30 2770 H 288.793 1.37792 -1.52324 0
M  V30 2771 H 287.023 3.8007 -0.713019 0
M  V30 2772 H 288.712 3.90154 -1.11957 0
M  V30 2773 H 289.478 3.32135 -3.53428 0
M  V30 2774 H 285.357 3.9023 -2.45442 0
M  V30 2775 H 288.901 3.71943 -5.90173 0
M  V30 2776 H 284.798 4.30151 -4.8129 0
M  V30 2777 H 285.566 4.42619 -6.88499 0
M  V30 2778 N 288.23 0.939286 1.26551 0
M  V30 2779 C 289.477 0.585847 1.9384 0
M  V30 2780 C 289.805 -0.874784 1.73718 0
M  V30 2781 O 289.06 -1.64092 1.06642 0
M  V30 2782 C 289.359 0.872106 3.46596 0
M  V30 2783 C 289.025 2.31632 3.86856 0
M  V30 2784 C 287.687 2.71111 3.97558 0
M  V30 2785 C 290.039 3.25494 4.07066 0
M  V30 2786 C 287.367 4.03553 4.25866 0
M  V30 2787 C 289.719 4.57531 4.36862 0
M  V30 2788 C 288.383 4.96828 4.45778 0
M  V30 2789 H 287.653 0.214377 0.709312 0
M  V30 2790 H 290.3 1.18544 1.50398 0
M  V30 2791 H 288.605 0.18996 3.91339 0
M  V30 2792 H 290.302 0.577442 3.96821 0
M  V30 2793 H 286.892 2.00008 3.79071 0
M  V30 2794 H 291.076 2.9619 3.98227 0
M  V30 2795 H 286.332 4.33665 4.30981 0
M  V30 2796 H 290.506 5.30254 4.51446 0
M  V30 2797 H 288.133 5.99482 4.67468 0
M  V30 2798 N 289.708 -1.40897 0.706093 0
M  V30 2799 C 290.957 -2.00284 0.238574 0
M  V30 2800 C 291.27 -1.56604 -1.17194 0
M  V30 2801 O 292.476 -2.08624 -1.73748 0
M  V30 2802 C 290.932 -3.57934 0.375623 0
M  V30 2803 C 290.54 -4.10591 1.79217 0
M  V30 2804 C 292.284 -4.24488 -0.0315857 0
M  V30 2805 C 290.191 -5.60712 1.88032 0
M  V30 2806 H 289.121 -0.749144 0.0854398 0
M  V30 2807 H 291.772 -1.61251 0.875813 0
M  V30 2808 H 290.154 -3.94622 -0.330042 0
M  V30 2809 H 291.328 -3.85301 2.52745 0
M  V30 2810 H 289.643 -3.56601 2.15 0
M  V30 2811 H 292.24 -5.34698 0.0136842 0
M  V30 2812 H 292.583 -4.02261 -1.072 0
M  V30 2813 H 293.116 -3.92873 0.624181 0
M  V30 2814 H 289.855 -5.87781 2.90161 0
M  V30 2815 H 289.375 -5.87896 1.18903 0
M  V30 2816 H 291.054 -6.25658 1.64805 0
M  V30 2817 N 291.186 -0.45159 -1.50991 0
M  V30 2818 C 292.463 0.170707 -1.94854 0
M  V30 2819 C 292.843 1.58788 -1.39103 0
M  V30 2820 O 292.191 2.20913 -0.583921 0
M  V30 2821 C 292.401 0.133929 -3.48743 0
M  V30 2822 C 293.749 0.33248 -4.23296 0
M  V30 2823 O 294.773 0.211403 -3.55572 0
M  V30 2824 O 293.632 0.57486 -5.43468 0
M  V30 2825 H 290.726 0.122264 -0.817912 0
M  V30 2826 H 293.272 -0.510594 -1.61836 0
M  V30 2827 H 292.044 -0.856283 -3.81816 0
M  V30 2828 H 291.667 0.857529 -3.88242 0
M  V30 2829 N 292.664 1.56529 -0.183458 0
M  V30 2830 C 293.889 2.02064 0.467428 0
M  V30 2831 C 294.314 1.06282 1.55196 0
M  V30 2832 O 293.672 0.0443565 1.81246 0
M  V30 2833 C 293.72 3.46122 1.01153 0
M  V30 2834 O 292.824 3.53437 2.12499 0
M  V30 2835 H 292.165 0.654726 0.110588 0
M  V30 2836 H 294.695 2.02521 -0.290917 0
M  V30 2837 H 294.705 3.85676 1.33108 0
M  V30 2838 H 293.38 4.15331 0.217533 0
M  V30 2839 H 291.957 3.2575 1.81497 0
M  V30 2840 N 294.142 -0.090211 1.57342 0
M  V30 2841 C 295.367 -0.810082 1.90925 0
M  V30 2842 C 295.792 -1.71248 0.778187 0
M  V30 2843 O 295.15 -1.79278 -0.269991 0
M  V30 2844 C 295.198 -1.59529 3.23393 0
M  V30 2845 O 294.302 -2.70461 3.11327 0
M  V30 2846 H 293.643 -0.222231 0.625707 0
M  V30 2847 H 296.173 -0.0639716 2.045 0
M  V30 2848 H 296.183 -1.97847 3.5682 0
M  V30 2849 H 294.858 -0.933055 4.05299 0
M  V30 2850 H 293.435 -2.35135 2.89423 0
M  V30 2851 N 295.62 -1.53406 -0.361157 0
M  V30 2852 C 296.568 -1.80832 -1.46296 0
M  V30 2853 C 297.562 -0.677699 -1.55253 0
M  V30 2854 O 298.768 -0.860723 -1.58087 0
M  V30 2855 H 295.143 -0.572627 -0.487445 0
M  V30 2856 H 297.114 -2.73045 -1.20371 0
M  V30 2857 C 295.863 -2.01907 -2.8307 0
M  V30 2858 H 295.186 -2.88349 -2.76938 0
M  V30 2859 H 296.626 -2.25072 -3.59331 0
M  V30 2860 C 295.085 -0.799449 -3.27277 0
M  V30 2861 O 295.615 0.00971761 -4.01699 0
M  V30 2862 N 293.821 -0.621637 -2.83873 0
M  V30 2863 H 293.368 -1.28126 -2.23476 0
M  V30 2864 H 293.326 0.19298 -3.13807 0
M  V30 2865 N 297.098 0.621204 -1.44841 0
M  V30 2866 C 298.509 1.20298 -1.42777 0
M  V30 2867 C 298.86 1.95639 -0.148259 0
M  V30 2868 O 297.985 2.02955 0.750892 0
M  V30 2869 C 298.58 2.1882 -2.58657 0
M  V30 2870 C 297.139 2.72403 -2.59756 0
M  V30 2871 C 296.286 1.4757 -2.34773 0
M  V30 2872 H 299.237 0.411297 -1.53278 0
M  V30 2873 H 299.258 3.01607 -2.31977 0
M  V30 2874 H 298.77 1.63957 -3.51766 0
M  V30 2875 H 296.871 3.31242 -1.70615 0
M  V30 2876 H 296.984 3.17765 -3.58556 0
M  V30 2877 H 295.348 1.76051 -1.8406 0
M  V30 2878 H 296.131 0.945954 -3.3001 0
M  V30 2879 N 298.576 1.31904 0.862503 0
M  V30 2880 C 299.825 1.21373 1.61094 0
M  V30 2881 C 300.138 -0.22504 1.94301 0
M  V30 2882 O 301.344 -0.452121 2.67709 0
M  V30 2883 C 299.8 2.12525 2.9045 0
M  V30 2884 C 299.408 3.61441 2.64697 0
M  V30 2885 C 301.152 2.10813 3.68454 0
M  V30 2886 C 299.059 4.44578 3.90006 0
M  V30 2887 H 297.989 0.450705 0.604468 0
M  V30 2888 H 300.64 1.56811 0.953027 0
M  V30 2889 H 299.022 1.69994 3.57656 0
M  V30 2890 H 300.196 4.12264 2.05851 0
M  V30 2891 H 298.511 3.65205 2.00036 0
M  V30 2892 H 301.108 2.70167 4.61426 0
M  V30 2893 H 301.451 1.09713 4.01583 0
M  V30 2894 H 301.984 2.51583 3.08141 0
M  V30 2895 H 298.723 5.46461 3.62023 0
M  V30 2896 H 298.243 3.98508 4.48276 0
M  V30 2897 H 299.922 4.57176 4.5782 0
M  V30 2898 N 300.054 -1.07777 1.14986 0
M  V30 2899 C 300.964 -2.18404 0.856546 0
M  V30 2900 C 301.98 -1.73211 -0.165485 0
M  V30 2901 O 303.156 -2.01399 0.00755219 0
M  V30 2902 C 300.221 -3.44977 0.34526 0
M  V30 2903 C 299.282 -4.0476 1.43065 0
M  V30 2904 C 298.515 -5.25291 0.943663 0
M  V30 2905 O 298.738 -5.70004 -0.212426 0
M  V30 2906 O 297.672 -5.76638 1.72547 0
M  V30 2907 H 301.498 -2.45978 1.78125 0
M  V30 2908 H 299.083 -1.17033 0.928631 0
M  V30 2909 H 300.965 -4.21348 0.0663671 0
M  V30 2910 H 299.64 -3.18965 -0.551631 0
M  V30 2911 H 298.547 -3.29949 1.76309 0
M  V30 2912 H 299.88 -4.35035 2.30229 0
M  V30 2913 N 301.532 -0.945985 -1.26051 0
M  V30 2914 C 302.757 -0.612525 -1.98149 0
M  V30 2915 C 303.182 0.806623 -1.69927 0
M  V30 2916 O 302.54 1.54411 -0.950108 0
M  V30 2917 C 302.588 -0.866981 -3.50023 0
M  V30 2918 O 301.692 0.0585333 -4.12358 0
M  V30 2919 H 301.033 -0.23379 -0.621481 0
M  V30 2920 H 303.563 -1.27023 -1.60395 0
M  V30 2921 H 303.573 -0.789792 -4.00283 0
M  V30 2922 H 302.248 -1.90135 -3.69894 0
M  V30 2923 H 300.825 -0.0701241 -3.72834 0
M  V30 2924 N 303.011 1.40521 -0.713556 0
M  V30 2925 C 304.251 2.02783 -0.256584 0
M  V30 2926 C 304.615 1.55352 1.12827 0
M  V30 2927 O 305.816 2.09663 1.68211 0
M  V30 2928 C 304.087 3.5586 -0.331414 0
M  V30 2929 S 305.646 4.38773 0.0488703 0
M  V30 2930 H 302.464 0.703655 -0.101934 0
M  V30 2931 H 305.066 1.71674 -0.935325 0
M  V30 2932 H 303.77 3.87874 -1.34098 0
M  V30 2933 H 303.301 3.91695 0.365873 0
M  V30 2934 H 305.316 4.79633 1.2715 0
M  V30 2935 N 304.489 0.459591 1.5075 0
M  V30 2936 C 305.421 -0.37665 2.26084 0
M  V30 2937 C 306.434 -0.967109 1.30961 0
M  V30 2938 O 307.623 -0.857468 1.56556 0
M  V30 2939 C 304.723 -1.54112 3.01832 0
M  V30 2940 C 303.896 -1.06553 4.24223 0
M  V30 2941 C 302.955 -2.1027 4.82362 0
M  V30 2942 O 301.981 -1.68798 5.43595 0
M  V30 2943 N 303.183 -3.42974 4.68347 0
M  V30 2944 H 305.948 0.269124 2.98489 0
M  V30 2945 H 303.509 0.28972 1.59287 0
M  V30 2946 H 305.501 -2.23165 3.37608 0
M  V30 2947 H 304.071 -2.0918 2.32298 0
M  V30 2948 H 303.291 -0.201274 3.93686 0
M  V30 2949 H 304.579 -0.725516 5.03601 0
M  V30 2950 H 303.977 -3.79385 4.19623 0
M  V30 2951 H 302.534 -4.07858 5.08424 0
M  V30 2952 N 305.967 -1.56429 0.191757 0
M  V30 2953 C 306.915 -2.20273 -0.747174 0
M  V30 2954 C 307.909 -1.17288 -1.22229 0
M  V30 2955 O 309.115 -1.35441 -1.18557 0
M  V30 2956 H 305.49 -0.705885 -0.259289 0
M  V30 2957 H 307.461 -2.97826 -0.184963 0
M  V30 2958 C 306.21 -2.87356 -1.95759 0
M  V30 2959 H 305.533 -3.66341 -1.60106 0
M  V30 2960 H 306.973 -3.3547 -2.59299 0
M  V30 2961 C 305.432 -1.88213 -2.79423 0
M  V30 2962 O 305.962 -1.38033 -3.7724 0
M  V30 2963 N 304.168 -1.56516 -2.44849 0
M  V30 2964 H 303.715 -1.97516 -1.65364 0
M  V30 2965 H 303.673 -0.904369 -3.01112 0
M  V30 2966 N 307.445 0.0818655 -1.57387 0
M  V30 2967 C 308.692 0.782914 -1.86753 0
M  V30 2968 C 309.02 1.78082 -0.782118 0
M  V30 2969 O 308.275 1.94426 0.22295 0
M  V30 2970 C 308.574 1.53513 -3.22752 0
M  V30 2971 C 308.24 0.678134 -4.45771 0
M  V30 2972 C 306.902 0.441929 -4.79166 0
M  V30 2973 C 309.254 0.0832243 -5.21134 0
M  V30 2974 C 306.582 -0.398833 -5.85343 0
M  V30 2975 C 308.934 -0.744935 -6.28199 0
M  V30 2976 C 307.598 -0.991107 -6.60101 0
M  V30 2977 H 306.868 0.286489 -0.683378 0
M  V30 2978 H 309.515 0.0439808 -1.91449 0
M  V30 2979 H 307.82 2.34599 -3.138 0
M  V30 2980 H 309.517 2.08218 -3.42705 0
M  V30 2981 H 306.107 0.872357 -4.19628 0
M  V30 2982 H 310.291 0.252847 -4.95655 0
M  V30 2983 H 305.547 -0.598405 -6.08465 0
M  V30 2984 H 309.721 -1.21271 -6.8576 0
M  V30 2985 H 307.348 -1.64437 -7.42202 0
M  V30 2986 N 308.923 1.53595 0.353017 0
M  V30 2987 C 310.153 1.74058 1.11299 0
M  V30 2988 C 310.561 0.475205 1.83135 0
M  V30 2989 O 309.904 -0.562344 1.74881 0
M  V30 2990 C 309.966 2.85994 2.17825 0
M  V30 2991 C 309.63 4.25923 1.65647 0
M  V30 2992 C 310.627 5.07829 1.11383 0
M  V30 2993 C 308.312 4.72377 1.7078 0
M  V30 2994 C 310.306 6.34285 0.629439 0
M  V30 2995 C 307.993 5.98808 1.21953 0
M  V30 2996 C 308.991 6.79594 0.681265 0
M  V30 2997 O 308.679 8.03651 0.200248 0
M  V30 2998 H 308.411 0.585327 0.338183 0
M  V30 2999 H 310.965 2.01186 0.413927 0
M  V30 3000 H 309.195 2.54368 2.91262 0
M  V30 3001 H 310.884 2.94515 2.79313 0
M  V30 3002 H 311.65 4.73107 1.06746 0
M  V30 3003 H 307.529 4.0956 2.11617 0
M  V30 3004 H 311.073 6.97288 0.208636 0
M  V30 3005 H 306.97 6.33026 1.26287 0
M  V30 3006 H 307.738 8.1788 0.318416 0
M  V30 3007 N 310.401 -0.613514 1.45168 0
M  V30 3008 C 311.348 -1.72456 1.53387 0
M  V30 3009 C 312.318 -1.6169 0.380191 0
M  V30 3010 O 313.503 -1.81356 0.592836 0
M  V30 3011 C 310.643 -3.10753 1.50088 0
M  V30 3012 C 309.756 -3.32368 2.75963 0
M  V30 3013 C 308.891 -4.60737 2.64376 0
M  V30 3014 C 307.93 -4.7559 3.85332 0
M  V30 3015 N 307.067 -5.95253 3.72315 0
M  V30 3016 H 311.907 -1.64768 2.48305 0
M  V30 3017 H 309.444 -0.803503 1.23216 0
M  V30 3018 H 311.402 -3.90758 1.46164 0
M  V30 3019 H 310.032 -3.17413 0.587243 0
M  V30 3020 H 309.084 -2.4618 2.89999 0
M  V30 3021 H 310.396 -3.39218 3.65695 0
M  V30 3022 H 309.55 -5.48928 2.58385 0
M  V30 3023 H 308.289 -4.56275 1.72233 0
M  V30 3024 H 307.294 -3.85824 3.91688 0
M  V30 3025 H 308.519 -4.81854 4.78533 0
M  V30 3026 H 306.465 -5.91847 2.82937 0
M  V30 3027 H 306.382 -6.03236 4.55677 0
M  V30 3028 H 307.65 -6.85958 3.70246 0
M  V30 3029 N 311.879 -1.3236 -0.855495 0
M  V30 3030 C 313.156 -1.13491 -1.59309 0
M  V30 3031 C 313.536 0.30503 -2.08885 0
M  V30 3032 O 312.884 1.30151 -1.87811 0
M  V30 3033 C 313.094 -2.16176 -2.73987 0
M  V30 3034 C 314.442 -2.49463 -3.43589 0
M  V30 3035 O 315.466 -2.14715 -2.84211 0
M  V30 3036 O 314.325 -3.09027 -4.50738 0
M  V30 3037 H 311.419 -0.437887 -0.701559 0
M  V30 3038 H 313.965 -1.43887 -0.899696 0
M  V30 3039 H 312.737 -3.1297 -2.34873 0
M  V30 3040 H 312.36 -1.86769 -3.51003 0
M  V30 3041 N 313.357 1.07166 -1.15556 0
M  V30 3042 C 314.604 1.79798 -0.931604 0
M  V30 3043 C 314.932 1.8682 0.54115 0
M  V30 3044 O 314.187 1.34942 1.41736 0
M  V30 3045 C 314.486 3.24707 -1.49332 0
M  V30 3046 C 314.152 3.37781 -2.98688 0
M  V30 3047 C 312.814 3.41057 -3.39461 0
M  V30 3048 C 315.166 3.40424 -3.94665 0
M  V30 3049 C 312.494 3.4458 -4.74849 0
M  V30 3050 C 314.846 3.45485 -5.29927 0
M  V30 3051 C 313.51 3.47039 -5.70193 0
M  V30 3052 H 312.78 0.657928 -0.340898 0
M  V30 3053 H 315.427 1.26091 -1.44129 0
M  V30 3054 H 313.732 3.81208 -0.904859 0
M  V30 3055 H 315.429 3.79486 -1.29582 0
M  V30 3056 H 312.019 3.35932 -2.66172 0
M  V30 3057 H 316.203 3.37113 -3.64237 0
M  V30 3058 H 311.459 3.44083 -5.05388 0
M  V30 3059 H 315.633 3.46476 -6.04092 0
M  V30 3060 H 313.26 3.49522 -6.75084 0
M  V30 3061 N 314.835 0.952656 1.25548 0
M  V30 3062 C 316.063 0.623496 1.97282 0
M  V30 3063 C 316.478 -0.803987 1.70826 0
M  V30 3064 O 315.835 -1.53755 0.983147 0
M  V30 3065 C 315.886 0.870209 3.5087 0
M  V30 3066 O 315.607 2.24156 3.76412 0
M  V30 3067 C 317.108 0.553164 4.39835 0
M  V30 3068 H 314.328 0.233931 0.628902 0
M  V30 3069 H 316.872 1.27649 1.59768 0
M  V30 3070 H 315.027 0.263652 3.86502 0
M  V30 3071 H 315.441 2.31021 4.70882 0
M  V30 3072 H 316.915 0.776342 5.46513 0
M  V30 3073 H 317.392 -0.512215 4.36203 0
M  V30 3074 H 317.998 1.13896 4.09766 0
M  V30 3075 N 316.313 -1.40141 0.720998 0
M  V30 3076 C 317.243 -2.33339 0.0867621 0
M  V30 3077 C 318.224 -1.53178 -0.739622 0
M  V30 3078 O 319.409 -1.81625 -0.687449 0
M  V30 3079 C 316.539 -3.37194 -0.831728 0
M  V30 3080 C 315.493 -4.27857 -0.110558 0
M  V30 3081 C 314.819 -5.22294 -1.14513 0
M  V30 3082 C 316.119 -5.11872 1.0385 0
M  V30 3083 H 317.813 -2.86626 0.865219 0
M  V30 3084 H 315.359 -1.37814 0.417516 0
M  V30 3085 H 317.312 -4.01335 -1.28485 0
M  V30 3086 H 316.036 -2.82314 -1.64214 0
M  V30 3087 H 314.695 -3.65176 0.322797 0
M  V30 3088 H 314.343 -4.63717 -1.94874 0
M  V30 3089 H 314.043 -5.83797 -0.667446 0
M  V30 3090 H 315.567 -5.89312 -1.59824 0
M  V30 3091 H 316.981 -5.69436 0.664482 0
M  V30 3092 H 315.378 -5.82445 1.4449 0
M  V30 3093 H 316.448 -4.4753 1.86668 0
M  V30 3094 N 317.792 -0.46758 -1.50504 0
M  V30 3095 C 318.724 0.364655 -2.26281 0
M  V30 3096 C 319.737 0.960151 -1.31472 0
M  V30 3097 O 320.926 0.849153 -1.57008 0
M  V30 3098 C 318.026 1.52509 -3.02645 0
M  V30 3099 C 317.199 1.04302 -4.24782 0
M  V30 3100 C 316.258 2.07709 -4.8347 0
M  V30 3101 O 315.284 1.65913 -5.44483 0
M  V30 3102 N 316.486 3.40485 -4.70159 0
M  V30 3103 H 319.251 -0.28495 -2.98342 0
M  V30 3104 H 316.812 -0.298163 -1.59131 0
M  V30 3105 H 318.804 2.21371 -3.38787 0
M  V30 3106 H 317.374 2.07945 -2.33404 0
M  V30 3107 H 316.594 0.180393 -3.93787 0
M  V30 3108 H 317.882 0.698798 -5.03978 0
M  V30 3109 H 317.28 3.77155 -4.21629 0
M  V30 3110 H 315.837 4.05156 -5.1058 0
M  V30 3111 N 319.27 1.56325 -0.20005 0
M  V30 3112 C 320.519 1.96895 0.437652 0
M  V30 3113 C 320.832 1.08999 1.62415 0
M  V30 3114 O 322.038 1.39372 2.32997 0
M  V30 3115 C 320.494 3.50198 0.830025 0
M  V30 3116 C 320.102 4.46765 -0.332461 0
M  V30 3117 C 321.846 3.99526 1.43453 0
M  V30 3118 C 319.753 5.91344 0.0811468 0
M  V30 3119 H 318.683 0.735209 0.167282 0
M  V30 3120 H 321.334 1.81148 -0.292853 0
M  V30 3121 H 319.716 3.61467 1.61734 0
M  V30 3122 H 320.89 4.47231 -1.11 0
M  V30 3123 H 319.205 4.07657 -0.848789 0
M  V30 3124 H 321.802 5.05025 1.75652 0
M  V30 3125 H 322.145 3.44122 2.34277 0
M  V30 3126 H 322.678 3.91393 0.71109 0
M  V30 3127 H 319.417 6.50685 -0.793033 0
M  V30 3128 H 318.937 5.94121 0.823445 0
M  V30 3129 H 320.616 6.44945 0.515252 0
M  V30 3130 N 320.748 -0.0735177 1.57428 0
M  V30 3131 C 322.025 -0.805903 1.78226 0
M  V30 3132 C 322.405 -1.95874 0.787189 0
M  V30 3133 O 321.753 -2.2779 -0.180029 0
M  V30 3134 C 321.963 -1.28045 3.24662 0
M  V30 3135 C 323.311 -1.71453 3.88444 0
M  V30 3136 O 324.335 -1.37616 3.28543 0
M  V30 3137 O 323.194 -2.34093 4.93825 0
M  V30 3138 H 320.288 -0.386041 0.73137 0
M  V30 3139 H 322.834 -0.0537269 1.69615 0
M  V30 3140 H 321.606 -0.455476 3.8864 0
M  V30 3141 H 321.229 -2.094 3.37991 0
M  V30 3142 N 322.226 -1.5378 -0.344866 0
M  V30 3143 C 323.159 -1.7649 -1.4466 0
M  V30 3144 C 324.137 -0.613954 -1.50563 0
M  V30 3145 O 325.321 -0.84896 -1.683 0
M  V30 3146 C 322.448 -1.86235 -2.82903 0
M  V30 3147 C 321.494 -3.08375 -2.94631 0
M  V30 3148 S 322.327 -4.67457 -2.61236 0
M  V30 3149 C 323.483 -4.80079 -4.0159 0
M  V30 3150 H 323.716 -2.69661 -1.2518 0
M  V30 3151 H 321.249 -1.44632 -0.540455 0
M  V30 3152 H 323.207 -1.92535 -3.62547 0
M  V30 3153 H 321.868 -0.940786 -2.9968 0
M  V30 3154 H 321.061 -3.11865 -3.95925 0
M  V30 3155 H 320.663 -3.00294 -2.22934 0
M  V30 3156 H 322.955 -4.61407 -4.96094 0
M  V30 3157 H 323.898 -5.82168 -4.03095 0
M  V30 3158 H 324.306 -4.08544 -3.89554 0
M  V30 3159 N 323.704 0.605807 -1.45491 0
M  V30 3160 C 324.667 1.69836 -1.5391 0
M  V30 3161 C 325.667 1.55261 -0.418424 0
M  V30 3162 O 326.857 1.60296 -0.681965 0
M  V30 3163 C 323.989 3.09117 -1.43734 0
M  V30 3164 H 325.182 1.63738 -2.51257 0
M  V30 3165 H 322.735 0.821689 -1.32959 0
M  V30 3166 H 323.47 3.20791 -0.475788 0
M  V30 3167 H 323.255 3.21104 -2.25021 0
M  V30 3168 H 324.745 3.88696 -1.52661 0
M  V30 3169 N 325.182 1.32811 0.848464 0
M  V30 3170 C 326.429 1.23724 1.60308 0
M  V30 3171 C 326.757 -0.1994 1.93475 0
M  V30 3172 O 326.012 -1.15406 1.5805 0
M  V30 3173 C 326.311 2.04831 2.92881 0
M  V30 3174 C 325.977 3.54125 2.79117 0
M  V30 3175 C 324.639 3.94829 2.7507 0
M  V30 3176 C 326.991 4.49036 2.64606 0
M  V30 3177 C 324.319 5.28675 2.544 0
M  V30 3178 C 326.671 5.83033 2.4547 0
M  V30 3179 C 325.335 6.22931 2.39819 0
M  V30 3180 H 324.605 0.452737 0.586609 0
M  V30 3181 H 327.252 1.64301 0.983743 0
M  V30 3182 H 325.557 1.57001 3.58968 0
M  V30 3183 H 327.254 1.95164 3.50303 0
M  V30 3184 H 323.844 3.21801 2.83094 0
M  V30 3185 H 328.028 4.18505 2.66772 0
M  V30 3186 H 323.284 5.58637 2.48465 0
M  V30 3187 H 327.458 6.56186 2.33222 0
M  V30 3188 H 325.085 7.26584 2.23562 0
M  V30 3189 N 326.66 -1.06551 1.16123 0
M  V30 3190 C 327.608 -2.16063 0.861371 0
M  V30 3191 C 328.602 -1.6856 -0.168517 0
M  V30 3192 O 329.808 -1.79986 -0.0227579 0
M  V30 3193 H 326.183 -0.705278 0.260934 0
M  V30 3194 H 328.154 -2.38567 1.79244 0
M  V30 3195 C 326.903 -3.45661 0.376018 0
M  V30 3196 H 326.226 -3.82604 1.15992 0
M  V30 3197 H 327.666 -4.23504 0.204951 0
M  V30 3198 C 326.125 -3.24546 -0.903954 0
M  V30 3199 O 326.655 -3.49865 -1.97377 0
M  V30 3200 N 324.861 -2.77992 -0.846679 0
M  V30 3201 H 324.408 -2.57589 0.0241017 0
M  V30 3202 H 324.366 -2.64244 -1.70359 0
M  V30 3203 N 328.138 -0.959301 -1.25041 0
M  V30 3204 C 329.384 -0.617525 -1.9317 0
M  V30 3205 C 329.717 0.843981 -1.74902 0
M  V30 3206 O 328.992 1.60615 -1.09696 0
M  V30 3207 C 329.275 -0.982736 -3.46431 0
M  V30 3208 C 329.128 -2.50032 -3.73904 0
M  V30 3209 C 330.447 -0.511176 -4.37121 0
M  V30 3210 H 327.566 -0.22582 -0.701552 0
M  V30 3211 H 330.208 -1.19679 -1.4757 0
M  V30 3212 H 328.358 -0.489806 -3.854 0
M  V30 3213 H 330.03 -3.06737 -3.44544 0
M  V30 3214 H 328.273 -2.93598 -3.19348 0
M  V30 3215 H 328.944 -2.70635 -4.81103 0
M  V30 3216 H 331.42 -0.934075 -4.0548 0
M  V30 3217 H 330.296 -0.795361 -5.43107 0
M  V30 3218 H 330.557 0.588834 -4.38161 0
M  V30 3219 N 329.616 1.39756 -0.72842 0
M  V30 3220 C 330.863 2.00645 -0.273487 0
M  V30 3221 C 331.191 1.57786 1.13727 0
M  V30 3222 O 330.446 0.794886 1.7883 0
M  V30 3223 C 330.745 3.56002 -0.315776 0
M  V30 3224 C 330.411 4.18489 -1.67863 0
M  V30 3225 C 329.073 4.3527 -2.05166 0
M  V30 3226 C 331.425 4.53219 -2.57375 0
M  V30 3227 C 328.753 4.84069 -3.31503 0
M  V30 3228 C 331.105 5.03423 -3.83077 0
M  V30 3229 C 329.769 5.18413 -4.20481 0
M  V30 3230 H 329.039 0.734211 -0.100076 0
M  V30 3231 H 331.686 1.6718 -0.933972 0
M  V30 3232 H 329.991 3.89452 0.428285 0
M  V30 3233 H 331.688 4.00963 0.0542575 0
M  V30 3234 H 328.278 4.05824 -1.37858 0
M  V30 3235 H 332.462 4.39878 -2.29827 0
M  V30 3236 H 327.718 4.93859 -3.60435 0
M  V30 3237 H 331.892 5.2927 -4.52599 0
M  V30 3238 H 329.519 5.55987 -5.18443 0
M  V30 3239 N 331.094 0.475555 1.50254 0
M  V30 3240 C 332.341 -0.0778919 2.0235 0
M  V30 3241 C 332.669 -1.39319 1.35722 0
M  V30 3242 O 331.924 -1.89888 0.473395 0
M  V30 3243 C 332.223 -0.305114 3.56095 0
M  V30 3244 C 331.889 0.92903 4.41225 0
M  V30 3245 C 330.551 1.26739 4.6421 0
M  V30 3246 C 332.903 1.75054 4.90923 0
M  V30 3247 C 330.231 2.42724 5.34137 0
M  V30 3248 C 332.583 2.9017 5.62125 0
M  V30 3249 C 331.247 3.24416 5.83362 0
M  V30 3250 H 330.517 -0.0285027 0.740452 0
M  V30 3251 H 333.164 0.630543 1.80821 0
M  V30 3252 H 331.469 -1.09584 3.76163 0
M  V30 3253 H 333.166 -0.747377 3.93974 0
M  V30 3254 H 329.756 0.655428 4.23559 0
M  V30 3255 H 333.94 1.50231 4.73016 0
M  V30 3256 H 329.196 2.69525 5.48786 0
M  V30 3257 H 333.37 3.54169 5.99614 0
M  V30 3258 H 330.997 4.14396 6.37323 0
M  V30 3259 N 332.573 -1.56217 0.208337 0
M  V30 3260 C 333.503 -2.22694 -0.702116 0
M  V30 3261 C 334.484 -1.19432 -1.2112 0
M  V30 3262 O 335.669 -1.47978 -1.25762 0
M  V30 3263 C 332.799 -2.8966 -1.9161 0
M  V30 3264 C 331.753 -3.9928 -1.5414 0
M  V30 3265 C 331.079 -4.53476 -2.83308 0
M  V30 3266 C 332.379 -5.17012 -0.741339 0
M  V30 3267 H 334.073 -2.99034 -0.147898 0
M  V30 3268 H 331.619 -1.43831 -0.0696951 0
M  V30 3269 H 333.572 -3.34852 -2.55836 0
M  V30 3270 H 332.296 -2.10746 -2.49507 0
M  V30 3271 H 330.955 -3.54799 -0.922668 0
M  V30 3272 H 330.603 -3.71308 -3.39322 0
M  V30 3273 H 330.303 -5.27451 -2.58976 0
M  V30 3274 H 331.827 -5.01378 -3.485 0
M  V30 3275 H 333.241 -5.58667 -1.28699 0
M  V30 3276 H 331.638 -5.97137 -0.595627 0
M  V30 3277 H 332.708 -4.8423 0.254851 0
M  V30 3278 N 334.051 0.0651679 -1.57465 0
M  V30 3279 C 334.981 1.07693 -2.07182 0
M  V30 3280 C 335.962 1.39962 -0.966673 0
M  V30 3281 O 337.147 1.49475 -1.2398 0
M  V30 3282 C 334.277 2.3885 -2.52127 0
M  V30 3283 C 333.231 2.20917 -3.66579 0
M  V30 3284 C 332.557 3.57515 -3.97601 0
M  V30 3285 C 333.857 1.62493 -4.9638 0
M  V30 3286 H 335.551 0.663199 -2.91962 0
M  V30 3287 H 333.097 0.317569 -1.40455 0
M  V30 3288 H 335.05 3.09928 -2.85522 0
M  V30 3289 H 333.774 2.82215 -1.64384 0
M  V30 3290 H 332.433 1.52279 -3.33477 0
M  V30 3291 H 332.081 3.98463 -3.06979 0
M  V30 3292 H 331.781 3.46353 -4.74672 0
M  V30 3293 H 333.305 4.30013 -4.33499 0
M  V30 3294 H 334.719 2.23445 -5.27963 0
M  V30 3295 H 333.116 1.62009 -5.77818 0
M  V30 3296 H 334.186 0.587041 -4.81333 0
M  V30 3297 N 335.529 1.53961 0.336706 0
M  V30 3298 C 336.759 1.75229 1.09446 0
M  V30 3299 C 337.167 0.494602 1.82621 0
M  V30 3300 O 336.51 -0.543764 1.75468 0
M  V30 3301 C 336.572 2.88288 2.1478 0
M  V30 3302 C 336.236 4.27656 1.6112 0
M  V30 3303 C 337.233 5.08981 1.0599 0
M  V30 3304 C 334.918 4.74161 1.6576 0
M  V30 3305 C 336.912 6.34916 0.562129 0
M  V30 3306 C 334.599 6.00067 1.15595 0
M  V30 3307 C 335.597 6.80278 0.609147 0
M  V30 3308 O 335.285 8.03818 0.114999 0
M  V30 3309 H 335.017 0.588881 0.331956 0
M  V30 3310 H 337.571 2.01614 0.392566 0
M  V30 3311 H 335.801 2.57443 2.88548 0
M  V30 3312 H 337.49 2.97461 2.76174 0
M  V30 3313 H 338.256 4.74213 1.01722 0
M  V30 3314 H 334.135 4.11781 2.07261 0
M  V30 3315 H 337.679 6.9747 0.134668 0
M  V30 3316 H 333.576 6.3433 1.19566 0
M  V30 3317 H 334.344 8.18172 0.231651 0
M  V30 3318 N 337.007 -0.598083 1.45811 0
M  V30 3319 C 338.254 -1.35681 1.50323 0
M  V30 3320 C 338.582 -1.9393 0.148739 0
M  V30 3321 O 337.837 -1.76094 -0.853787 0
M  V30 3322 C 338.136 -2.51669 2.53766 0
M  V30 3323 C 337.802 -2.11508 3.98215 0
M  V30 3324 C 336.464 -2.0027 4.37545 0
M  V30 3325 C 338.816 -1.80308 4.89018 0
M  V30 3326 C 336.144 -1.56067 5.65562 0
M  V30 3327 C 338.496 -1.37589 6.17456 0
M  V30 3328 C 337.16 -1.24916 6.55708 0
M  V30 3329 H 336.43 -0.496492 0.550069 0
M  V30 3330 H 339.077 -0.675052 1.79207 0
M  V30 3331 H 337.382 -3.25225 2.18486 0
M  V30 3332 H 339.079 -3.09895 2.54492 0
M  V30 3333 H 335.669 -2.21185 3.67117 0
M  V30 3334 H 339.853 -1.87884 4.59362 0
M  V30 3335 H 335.109 -1.44886 5.93985 0
M  V30 3336 H 339.283 -1.12495 6.87254 0
M  V30 3337 H 336.91 -0.904386 7.54801 0
M  V30 3338 N 338.485 -1.33259 -0.841409 0
M  V30 3339 C 339.733 -1.24326 -1.59334 0
M  V30 3340 C 340.054 0.191564 -1.94057 0
M  V30 3341 O 339.324 1.11967 -1.60749 0
M  V30 3342 H 337.904 -0.457174 -0.590763 0
M  V30 3343 H 340.566 -1.66947 -1.00571 0
M  V30 3344 H 339.662 -1.8352 -2.52442 0
M  V30 3345 N 339.963 1.05934 -1.16686 0
M  V30 3346 C 340.893 2.1546 -0.899949 0
M  V30 3347 C 341.874 1.69391 0.155154 0
M  V30 3348 O 343.059 1.94199 0.00648693 0
M  V30 3349 C 340.189 3.44939 -0.404241 0
M  V30 3350 C 339.143 4.04536 -1.39767 0
M  V30 3351 C 338.469 5.29268 -0.760216 0
M  V30 3352 C 339.769 4.42893 -2.76845 0
M  V30 3353 H 341.463 2.38046 -1.81588 0
M  V30 3354 H 339.009 1.14404 -0.874514 0
M  V30 3355 H 340.962 4.20901 -0.204971 0
M  V30 3356 H 339.686 3.21983 0.547206 0
M  V30 3357 H 338.345 3.30635 -1.58355 0
M  V30 3358 H 337.993 5.02611 0.197831 0
M  V30 3359 H 337.693 5.70101 -1.42332 0
M  V30 3360 H 339.217 6.07924 -0.57105 0
M  V30 3361 H 340.631 5.09921 -2.62019 0
M  V30 3362 H 339.028 4.94721 -3.39663 0
M  V30 3363 H 340.098 3.53584 -3.31823 0
M  V30 3364 N 341.441 0.965919 1.2453 0
M  V30 3365 C 342.857 0.67216 1.44756 0
M  V30 3366 C 343.057 -0.766609 1.86347 0
M  V30 3367 O 342.113 -1.5407 2.00047 0
M  V30 3368 C 343.426 1.65473 2.51076 0
M  V30 3369 C 344.974 1.66716 2.64905 0
M  V30 3370 C 345.449 2.63766 3.74421 0
M  V30 3371 N 346.94 2.62198 3.81846 0
M  V30 3372 C 347.675 3.33966 4.66106 0
M  V30 3373 N 347.171 4.15245 5.54566 0
M  V30 3374 N 348.964 3.22799 4.60171 0
M  V30 3375 H 341.115 1.89553 0.958293 0
M  V30 3376 H 343.378 0.815979 0.482579 0
M  V30 3377 H 343.084 2.68296 2.27399 0
M  V30 3378 H 342.958 1.4261 3.49202 0
M  V30 3379 H 345.345 0.646057 2.87941 0
M  V30 3380 H 345.426 1.93642 1.67142 0
M  V30 3381 H 345.07 3.6601 3.52135 0
M  V30 3382 H 345 2.34121 4.71694 0
M  V30 3383 H 347.491 2.032 3.18619 0
M  V30 3384 H 347.804 4.66898 6.15814 0
M  V30 3385 H 346.149 4.1934 5.54237 0
M  V30 3386 H 349.34 2.58764 3.90075 0
M  V30 3387 H 349.513 3.78994 5.25612 0
M  V30 3388 N 342.919 -1.39368 0.735821 0
M  V30 3389 C 344.166 -2.00497 0.284123 0
M  V30 3390 C 344.494 -1.58387 -1.12889 0
M  V30 3391 O 343.749 -0.804359 -1.78406 0
M  V30 3392 C 344.048 -3.5583 0.334651 0
M  V30 3393 C 343.714 -4.17593 1.7008 0
M  V30 3394 C 342.376 -4.34176 2.07472 0
M  V30 3395 C 344.728 -4.51848 2.59775 0
M  V30 3396 C 342.056 -4.82304 3.34065 0
M  V30 3397 C 344.408 -5.01384 3.85741 0
M  V30 3398 C 343.072 -5.16175 4.23225 0
M  V30 3399 H 342.342 -0.73367 0.103968 0
M  V30 3400 H 344.989 -1.66683 0.942825 0
M  V30 3401 H 343.294 -3.89674 -0.407625 0
M  V30 3402 H 344.991 -4.00986 -0.0329927 0
M  V30 3403 H 341.581 -4.05087 1.40008 0
M  V30 3404 H 345.765 -4.38653 2.32157 0
M  V30 3405 H 341.021 -4.91941 3.63049 0
M  V30 3406 H 345.195 -5.26863 4.55399 0
M  V30 3407 H 342.822 -5.5323 5.21384 0
M  V30 3408 N 344.397 -0.483516 -1.5 0
M  V30 3409 C 345.646 0.0689102 -2.01582 0
M  V30 3410 C 345.959 1.39655 -1.36952 0
M  V30 3411 O 347.165 2.03465 -1.79762 0
M  V30 3412 C 345.621 0.173302 -3.59483 0
M  V30 3413 C 345.229 -1.14665 -4.33077 0
M  V30 3414 C 346.973 0.677024 -4.19066 0
M  V30 3415 C 344.88 -1.00537 -5.82792 0
M  V30 3416 H 343.81 0.0295277 -0.753422 0
M  V30 3417 H 346.461 -0.620295 -1.72698 0
M  V30 3418 H 344.843 0.926569 -3.85007 0
M  V30 3419 H 346.017 -1.91184 -4.19268 0
M  V30 3420 H 344.332 -1.58244 -3.85159 0
M  V30 3421 H 346.929 0.799952 -5.28682 0
M  V30 3422 H 347.272 1.67151 -3.81269 0
M  V30 3423 H 347.805 -0.0192083 -3.97795 0
M  V30 3424 H 344.544 -1.9736 -6.25083 0
M  V30 3425 H 344.064 -0.280776 -5.99142 0
M  V30 3426 H 345.743 -0.677 -6.43448 0
M  V30 3427 N 345.875 1.56104 -0.216619 0
M  V30 3428 C 346.838 2.18819 0.681962 0
M  V30 3429 C 347.838 1.14866 1.12528 0
M  V30 3430 O 349.028 1.40128 1.03488 0
M  V30 3431 C 346.16 2.80756 1.93362 0
M  V30 3432 H 347.353 2.99595 0.135254 0
M  V30 3433 H 344.906 1.56265 0.0330003 0
M  V30 3434 H 345.641 2.03837 2.52232 0
M  V30 3435 H 345.426 3.56876 1.62426 0
M  V30 3436 H 346.916 3.28844 2.57393 0
M  V30 3437 N 347.353 -0.0568162 1.57498 0
M  V30 3438 C 348.316 -1.05038 2.03715 0
M  V30 3439 C 349.316 -1.30709 0.936577 0
M  V30 3440 O 350.506 -1.26178 1.20103 0
M  V30 3441 C 347.638 -2.39034 2.43055 0
M  V30 3442 H 348.831 -0.651715 2.92733 0
M  V30 3443 H 346.384 -0.302947 1.53336 0
M  V30 3444 H 347.119 -2.83703 1.57108 0
M  V30 3445 H 346.904 -2.21739 3.2338 0
M  V30 3446 H 348.394 -3.10421 2.79336 0
M  V30 3447 N 348.832 -1.54138 -0.328536 0
M  V30 3448 C 349.78 -1.83894 -1.42428 0
M  V30 3449 C 350.774 -0.710478 -1.53781 0
M  V30 3450 O 351.98 -0.894062 -1.56226 0
M  V30 3451 H 348.355 -0.582837 -0.475189 0
M  V30 3452 H 350.326 -2.75537 -1.14552 0
M  V30 3453 C 349.075 -2.07866 -2.78724 0
M  V30 3454 H 348.398 -2.94158 -2.7076 0
M  V30 3455 H 349.838 -2.32644 -3.54476 0
M  V30 3456 C 348.297 -0.868689 -3.25508 0
M  V30 3457 O 348.827 -0.0754908 -4.01629 0
M  V30 3458 N 347.033 -0.681711 -2.82491 0
M  V30 3459 H 346.58 -1.32838 -2.20708 0
M  V30 3460 H 346.538 0.126374 -3.14146 0
M  V30 3461 N 350.31 0.590341 -1.46126 0
M  V30 3462 C 351.587 1.35029 -1.41515 0
M  V30 3463 C 351.967 2.10888 -0.0946472 0
M  V30 3464 O 351.315 2.08998 0.923693 0
M  V30 3465 C 351.525 2.28269 -2.63997 0
M  V30 3466 C 352.873 2.90338 -3.09821 0
M  V30 3467 O 353.897 2.38585 -2.64492 0
M  V30 3468 O 352.756 3.84321 -3.88535 0
M  V30 3469 H 349.85 0.606317 -0.562413 0
M  V30 3470 H 352.396 0.611994 -1.58281 0
M  V30 3471 H 351.168 1.71591 -3.51671 0
M  V30 3472 H 350.791 3.0945 -2.49652 0
M  V30 3473 N 351.788 1.33704 0.83433 0
M  V30 3474 C 352.735 1.24335 1.94447 0
M  V30 3475 C 353.705 0.120991 1.65659 0
M  V30 3476 O 354.89 0.300035 1.88426 0
M  V30 3477 C 352.03 0.993124 3.30501 0
M  V30 3478 C 351.143 2.20217 3.71657 0
M  V30 3479 C 350.278 1.88572 4.96602 0
M  V30 3480 C 349.317 3.05683 5.30306 0
M  V30 3481 N 348.454 2.73997 6.46429 0
M  V30 3482 H 353.294 2.1928 2.01792 0
M  V30 3483 H 350.831 1.09035 0.987404 0
M  V30 3484 H 352.789 0.828467 4.08892 0
M  V30 3485 H 351.419 0.0803902 3.227 0
M  V30 3486 H 350.471 2.47642 2.88752 0
M  V30 3487 H 351.783 3.07752 3.92543 0
M  V30 3488 H 350.937 1.68776 5.82752 0
M  V30 3489 H 349.676 0.982799 4.77695 0
M  V30 3490 H 348.681 3.26088 4.42659 0
M  V30 3491 H 349.906 3.96737 5.51159 0
M  V30 3492 H 347.852 1.86268 6.28999 0
M  V30 3493 H 347.769 3.55064 6.67432 0
M  V30 3494 H 349.037 2.57679 7.35678 0
M  V30 3495 N 353.266 -1.05314 1.17247 0
M  V30 3496 C 354.196 -2.1498 0.911362 0
M  V30 3497 C 355.177 -1.69471 -0.146169 0
M  V30 3498 O 356.362 -1.942 0.003812 0
M  V30 3499 C 353.492 -3.4472 0.422528 0
M  V30 3500 C 352.446 -4.03789 1.4191 0
M  V30 3501 C 351.772 -5.28858 0.788274 0
M  V30 3502 C 353.072 -4.41418 2.7919 0
M  V30 3503 H 354.766 -2.3708 1.82848 0
M  V30 3504 H 352.312 -1.13938 0.880569 0
M  V30 3505 H 354.265 -4.20787 0.227289 0
M  V30 3506 H 352.989 -3.22269 -0.530123 0
M  V30 3507 H 351.648 -3.2979 1.60106 0
M  V30 3508 H 351.296 -5.02709 -0.171173 0
M  V30 3509 H 350.996 -5.69338 1.45353 0
M  V30 3510 H 352.52 -6.07612 0.603282 0
M  V30 3511 H 353.934 -5.08524 2.64719 0
M  V30 3512 H 352.331 -4.92913 3.42282 0
M  V30 3513 H 353.401 -3.51819 3.33693 0
M  V30 3514 N 354.744 -0.972509 -1.24016 0
M  V30 3515 C 355.99 -0.647583 -1.92816 0
M  V30 3516 C 356.345 0.809015 -1.74564 0
M  V30 3517 O 355.638 1.57502 -1.09103 0
M  V30 3518 C 355.832 -0.963694 -3.44162 0
M  V30 3519 C 355.661 -2.44947 -3.77135 0
M  V30 3520 C 354.431 -3.11012 -3.98246 0
M  V30 3521 C 356.629 -3.42978 -3.83237 0
M  V30 3522 N 354.611 -4.49277 -4.18358 0
M  V30 3523 C 355.982 -4.66619 -4.08248 0
M  V30 3524 C 358.037 -3.37569 -3.65994 0
M  V30 3525 C 356.74 -5.85516 -4.17808 0
M  V30 3526 C 358.766 -4.55822 -3.76802 0
M  V30 3527 C 358.128 -5.78256 -4.02243 0
M  V30 3528 H 354.227 -0.287894 -0.727077 0
M  V30 3529 H 356.811 -1.24835 -1.49413 0
M  V30 3530 H 354.982 -0.391692 -3.8642 0
M  V30 3531 H 356.714 -0.596849 -4.00275 0
M  V30 3532 H 353.469 -2.61529 -3.94841 0
M  V30 3533 H 353.893 -5.20935 -4.32384 0
M  V30 3534 H 358.535 -2.43945 -3.45327 0
M  V30 3535 H 356.253 -6.79564 -4.37285 0
M  V30 3536 H 359.839 -4.53204 -3.64825 0
M  V30 3537 H 358.719 -6.68231 -4.10411 0
M  V30 3538 N 356.222 1.38976 -0.743202 0
M  V30 3539 C 357.469 2.00343 -0.294752 0
M  V30 3540 C 357.797 1.58983 1.12047 0
M  V30 3541 O 357.052 0.813809 1.77977 0
M  V30 3542 C 357.351 3.55647 -0.353517 0
M  V30 3543 C 357.017 4.16685 -1.72292 0
M  V30 3544 C 355.679 4.3307 -2.09771 0
M  V30 3545 C 358.031 4.50464 -2.62168 0
M  V30 3546 C 355.359 4.80526 -3.36618 0
M  V30 3547 C 357.711 4.99332 -3.88395 0
M  V30 3548 C 356.375 5.13924 -4.25956 0
M  V30 3549 H 355.645 0.733108 -0.107857 0
M  V30 3550 H 358.292 1.6618 -0.951651 0
M  V30 3551 H 356.597 3.89884 0.386954 0
M  V30 3552 H 358.294 4.00998 0.0117269 0
M  V30 3553 H 354.884 4.04339 -1.42155 0
M  V30 3554 H 359.068 4.37416 -2.3448 0
M  V30 3555 H 354.324 4.90008 -3.65653 0
M  V30 3556 H 358.498 5.2444 -4.58187 0
M  V30 3557 H 356.125 5.50457 -5.2431 0
M  V30 3558 N 357.7 0.491464 1.49741 0
M  V30 3559 C 358.946 -0.0485431 2.03342 0
M  V30 3560 C 359.301 -1.35566 1.36527 0
M  V30 3561 O 358.594 -1.85262 0.488729 0
M  V30 3562 C 358.788 -0.267329 3.56399 0
M  V30 3563 C 358.617 1.01703 4.38049 0
M  V30 3564 C 357.387 1.56614 4.80417 0
M  V30 3565 C 359.585 1.91782 4.77204 0
M  V30 3566 N 357.567 2.7974 5.4646 0
M  V30 3567 C 358.938 2.99489 5.42868 0
M  V30 3568 C 360.993 1.92575 4.5915 0
M  V30 3569 C 359.696 4.08005 5.92389 0
M  V30 3570 C 361.722 3.0006 5.09626 0
M  V30 3571 C 361.084 4.06485 5.75282 0
M  V30 3572 H 357.183 0.0227779 0.781668 0
M  V30 3573 H 359.767 0.664204 1.8302 0
M  V30 3574 H 357.938 -0.949126 3.76625 0
M  V30 3575 H 359.67 -0.803492 3.96644 0
M  V30 3576 H 356.425 1.11256 4.60347 0
M  V30 3577 H 356.849 3.42323 5.84075 0
M  V30 3578 H 361.491 1.11605 4.07804 0
M  V30 3579 H 359.209 4.89779 6.42761 0
M  V30 3580 H 362.795 3.01681 4.97473 0
M  V30 3581 H 361.675 4.88287 6.13633 0
M  V30 3582 N 359.178 -1.55987 0.224894 0
M  V30 3583 C 360.108 -2.23426 -0.678457 0
M  V30 3584 C 361.089 -1.20709 -1.19847 0
M  V30 3585 O 362.274 -1.49304 -1.24186 0
M  V30 3586 C 359.404 -2.91676 -1.88527 0
M  V30 3587 C 358.358 -4.00893 -1.49896 0
M  V30 3588 C 357.684 -4.56455 -2.78483 0
M  V30 3589 C 358.984 -5.17769 -0.686461 0
M  V30 3590 H 360.678 -2.99175 -0.116173 0
M  V30 3591 H 358.224 -1.43897 -0.054436 0
M  V30 3592 H 360.177 -3.37547 -2.5227 0
M  V30 3593 H 358.901 -2.1338 -2.47258 0
M  V30 3594 H 357.56 -3.55758 -0.884985 0
M  V30 3595 H 357.208 -3.74886 -3.35365 0
M  V30 3596 H 356.908 -5.30169 -2.53368 0
M  V30 3597 H 358.432 -5.05047 -3.43162 0
M  V30 3598 H 359.846 -5.60001 -1.22767 0
M  V30 3599 H 358.243 -5.97735 -0.532259 0
M  V30 3600 H 359.313 -4.83932 0.306196 0
M  V30 3601 N 360.656 0.0484629 -1.57525 0
M  V30 3602 C 361.566 1.07241 -2.08654 0
M  V30 3603 C 362.582 1.409 -1.02095 0
M  V30 3604 O 363.758 1.50609 -1.33712 0
M  V30 3605 C 360.823 2.36008 -2.5397 0
M  V30 3606 C 359.884 2.09108 -3.7493 0
M  V30 3607 C 359.117 3.31736 -4.18075 0
M  V30 3608 O 359.34 4.41714 -3.60895 0
M  V30 3609 O 358.274 3.18576 -5.10679 0
M  V30 3610 H 362.1 0.667965 -2.96263 0
M  V30 3611 H 359.685 0.26417 -1.47046 0
M  V30 3612 H 361.567 3.11747 -2.83535 0
M  V30 3613 H 360.242 2.75786 -1.69481 0
M  V30 3614 H 359.149 1.31 -3.50414 0
M  V30 3615 H 360.482 1.74198 -4.60343 0
M  V30 3616 N 362.134 1.5431 0.320358 0
M  V30 3617 C 363.38 1.72924 1.05949 0
M  V30 3618 C 363.713 0.503185 1.87568 0
M  V30 3619 O 362.988 -0.499839 1.87968 0
M  V30 3620 C 363.271 3.00676 1.98156 0
M  V30 3621 C 363.124 4.3354 1.19845 0
M  V30 3622 C 364.443 3.24198 2.9763 0
M  V30 3623 H 361.562 0.629195 0.383774 0
M  V30 3624 H 364.204 1.87008 0.335854 0
M  V30 3625 H 362.354 2.888 2.59859 0
M  V30 3626 H 364.026 4.57305 0.605773 0
M  V30 3627 H 362.269 4.309 0.500784 0
M  V30 3628 H 362.94 5.19156 1.87567 0
M  V30 3629 H 365.416 3.35557 2.4605 0
M  V30 3630 H 364.292 4.14938 3.59329 0
M  V30 3631 H 364.553 2.41577 3.7026 0
M  V30 3632 N 363.613 -0.582584 1.46437 0
M  V30 3633 C 364.561 -1.71272 1.5738 0
M  V30 3634 C 365.555 -1.63524 0.44229 0
M  V30 3635 O 366.761 -1.69016 0.619166 0
M  V30 3636 H 363.136 -0.566273 0.494813 0
M  V30 3637 H 365.107 -1.59174 2.52401 0
M  V30 3638 C 363.856 -3.09658 1.58136 0
M  V30 3639 H 363.179 -3.16291 2.44541 0
M  V30 3640 H 364.619 -3.88494 1.69847 0
M  V30 3641 C 363.078 -3.3547 0.310026 0
M  V30 3642 O 363.608 -3.97199 -0.599683 0
M  V30 3643 N 361.814 -2.89925 0.197901 0
M  V30 3644 H 361.361 -2.39873 0.93909 0
M  V30 3645 H 361.319 -3.07568 -0.65185 0
M  V30 3646 N 365.091 -1.34144 -0.827227 0
M  V30 3647 C 366.316 -1.29476 -1.62021 0
M  V30 3648 C 366.741 0.129292 -1.87655 0
M  V30 3649 O 366.099 1.08967 -1.449 0
M  V30 3650 C 366.147 -2.08702 -2.94068 0
M  V30 3651 O 365.251 -1.45359 -3.85933 0
M  V30 3652 H 364.592 -0.444881 -0.492927 0
M  V30 3653 H 367.122 -1.76882 -1.02829 0
M  V30 3654 H 367.132 -2.19898 -3.43669 0
M  V30 3655 H 365.807 -3.12241 -2.74734 0
M  V30 3656 H 364.384 -1.42879 -3.44442 0
M  V30 3657 N 366.569 1.04691 -1.17803 0
M  V30 3658 C 367.815 1.78045 -0.970969 0
M  V30 3659 C 368.148 1.87686 0.498751 0
M  V30 3660 O 367.423 1.38035 1.37027 0
M  V30 3661 C 367.706 3.2166 -1.61884 0
M  V30 3662 C 367.559 3.20001 -3.161 0
M  V30 3663 C 368.878 4.1962 -1.3269 0
M  V30 3664 H 365.997 0.64633 -0.354155 0
M  V30 3665 H 368.639 1.22333 -1.45378 0
M  V30 3666 H 366.789 3.69232 -1.20831 0
M  V30 3667 H 368.461 2.80467 -3.66246 0
M  V30 3668 H 366.704 2.58203 -3.48588 0
M  V30 3669 H 367.375 4.21386 -3.56564 0
M  V30 3670 H 369.851 3.80567 -1.68249 0
M  V30 3671 H 368.727 5.18339 -1.80599 0
M  V30 3672 H 368.988 4.414 -0.248622 0
M  V30 3673 N 368.047 0.979072 1.23499 0
M  V30 3674 C 369.293 0.648178 1.92163 0
M  V30 3675 C 369.626 -0.816049 1.76222 0
M  V30 3676 O 368.901 -1.58849 1.12237 0
M  V30 3677 C 369.184 1.03773 3.44824 0
M  V30 3678 C 369.037 2.55948 3.69879 0
M  V30 3679 C 370.356 0.580653 4.36253 0
M  V30 3680 H 367.475 0.236952 0.69787 0
M  V30 3681 H 370.117 1.22012 1.45647 0
M  V30 3682 H 368.267 0.551058 3.84572 0
M  V30 3683 H 369.939 3.12179 3.3962 0
M  V30 3684 H 368.182 2.98641 3.14636 0
M  V30 3685 H 368.853 2.78255 4.76737 0
M  V30 3686 H 371.329 0.998465 4.03943 0
M  V30 3687 H 370.205 0.881663 5.41773 0
M  V30 3688 H 370.466 -0.519052 4.39042 0
M  V30 3689 N 369.525 -1.3858 0.750561 0
M  V30 3690 C 370.802 -1.94231 0.231009 0
M  V30 3691 C 371.182 -1.68611 -1.27018 0
M  V30 3692 O 370.53 -1.02296 -2.04323 0
M  V30 3693 C 370.74 -3.44123 0.581428 0
M  V30 3694 C 372.088 -4.2116 0.539389 0
M  V30 3695 O 373.112 -3.52391 0.519541 0
M  V30 3696 O 371.971 -5.43749 0.54765 0
M  V30 3697 H 369.065 -0.825639 0.0474263 0
M  V30 3698 H 371.611 -1.4799 0.830478 0
M  V30 3699 H 370.383 -3.56267 1.61833 0
M  V30 3700 H 370.006 -3.97573 -0.0462047 0
M  V30 3701 N 371.003 -0.499398 -1.49478 0
M  V30 3702 C 372.25 0.0456899 -2.02448 0
M  V30 3703 C 372.578 1.37142 -1.37921 0
M  V30 3704 O 371.833 1.89111 -0.503544 0
M  V30 3705 C 372.132 0.248424 -3.56536 0
M  V30 3706 C 371.798 -0.999107 -4.39692 0
M  V30 3707 C 370.46 -1.34108 -4.62135 0
M  V30 3708 C 372.812 -1.82842 -4.88076 0
M  V30 3709 C 370.14 -2.51191 -5.30208 0
M  V30 3710 C 372.492 -2.99076 -5.57437 0
M  V30 3711 C 371.156 -3.33655 -5.78127 0
M  V30 3712 H 370.426 0.0167191 -0.740811 0
M  V30 3713 H 373.073 -0.65923 -1.79795 0
M  V30 3714 H 371.378 1.03586 -3.77859 0
M  V30 3715 H 373.075 0.684605 -3.95113 0
M  V30 3716 H 369.665 -0.722729 -4.22463 0
M  V30 3717 H 373.849 -1.57737 -4.70566 0
M  V30 3718 H 369.105 -2.78221 -5.44429 0
M  V30 3719 H 373.279 -3.63664 -5.93904 0
M  V30 3720 H 370.906 -4.24483 -6.30649 0
M  V30 3721 N 372.481 1.55866 -0.233164 0
M  V30 3722 C 373.728 1.98603 0.395374 0
M  V30 3723 C 374.056 1.12105 1.58942 0
M  V30 3724 O 373.311 0.168656 1.94972 0
M  V30 3725 C 373.61 3.46856 0.861724 0
M  V30 3726 C 373.276 4.50348 -0.223066 0
M  V30 3727 C 371.938 4.78371 -0.521038 0
M  V30 3728 C 374.29 5.12355 -0.956124 0
M  V30 3729 C 371.618 5.6568 -1.55638 0
M  V30 3730 C 373.97 6.00786 -1.98089 0
M  V30 3731 C 372.634 6.27148 -2.28565 0
M  V30 3732 H 371.904 0.726739 0.144677 0
M  V30 3733 H 374.551 1.88491 -0.338114 0
M  V30 3734 H 372.856 3.5423 1.67418 0
M  V30 3735 H 374.553 3.77302 1.35809 0
M  V30 3736 H 371.143 4.28596 0.0193234 0
M  V30 3737 H 375.327 4.90765 -0.739166 0
M  V30 3738 H 370.583 5.84365 -1.798 0
M  V30 3739 H 374.757 6.4788 -2.55391 0
M  V30 3740 H 372.384 6.94597 -3.08932 0
M  V30 3741 N 373.959 -0.0401083 1.57549 0
M  V30 3742 C 375.187 -0.745196 1.93014 0
M  V30 3743 C 375.602 -1.6948 0.831984 0
M  V30 3744 O 374.959 -1.81482 -0.192463 0
M  V30 3745 C 375.01 -1.51176 3.28372 0
M  V30 3746 O 374.731 -0.600284 4.33968 0
M  V30 3747 C 376.232 -2.315 3.78051 0
M  V30 3748 H 373.452 -0.210088 0.637263 0
M  V30 3749 H 375.996 -0.000924689 2.045 0
M  V30 3750 H 374.151 -2.20801 3.18317 0
M  V30 3751 H 374.565 -1.13669 5.12035 0
M  V30 3752 H 376.039 -2.80697 4.75303 0
M  V30 3753 H 376.516 -3.12436 3.08675 0
M  V30 3754 H 377.122 -1.66971 3.91153 0
M  V30 3755 N 375.437 -1.54477 -0.31217 0
M  V30 3756 C 376.683 -1.73483 -1.0503 0
M  V30 3757 C 377.016 -0.513125 -1.87298 0
M  V30 3758 O 376.291 0.489864 -1.8823 0
M  V30 3759 C 376.574 -3.01723 -1.96558 0
M  V30 3760 C 376.427 -4.3417 -1.17545 0
M  V30 3761 C 377.746 -3.25772 -2.95907 0
M  V30 3762 H 374.865 -0.631222 -0.380432 0
M  V30 3763 H 377.507 -1.87184 -0.325932 0
M  V30 3764 H 375.657 -2.90174 -2.58324 0
M  V30 3765 H 377.329 -4.5762 -0.581513 0
M  V30 3766 H 375.572 -4.31159 -0.477925 0
M  V30 3767 H 376.243 -5.20143 -1.84811 0
M  V30 3768 H 378.719 -3.36857 -2.44267 0
M  V30 3769 H 377.595 -4.16838 -3.57123 0
M  V30 3770 H 377.856 -2.43537 -3.68974 0
M  V30 3771 N 376.915 0.57481 -1.46744 0
M  V30 3772 C 378.326 1.15695 -1.46532 0
M  V30 3773 C 378.677 1.95068 -0.210425 0
M  V30 3774 O 377.802 2.05241 0.685944 0
M  V30 3775 C 378.397 2.1048 -2.65487 0
M  V30 3776 C 376.956 2.64002 -2.68291 0
M  V30 3777 C 376.103 1.40026 -2.39349 0
M  V30 3778 H 379.054 0.362325 -1.54509 0
M  V30 3779 H 379.075 2.94074 -2.41455 0
M  V30 3780 H 378.587 1.52683 -3.56805 0
M  V30 3781 H 376.688 3.25646 -1.81067 0
M  V30 3782 H 376.801 3.06197 -3.68483 0
M  V30 3783 H 375.165 1.70106 -1.89568 0
M  V30 3784 H 375.948 0.840485 -3.32852 0
M  V30 3785 N 378.394 1.34581 0.820102 0
M  V30 3786 C 379.805 1.24298 1.39309 0
M  V30 3787 C 380.156 -0.130351 1.95767 0
M  V30 3788 O 379.281 -1.0308 1.90272 0
M  V30 3789 C 379.876 2.25054 2.53251 0
M  V30 3790 C 378.435 2.18552 3.0645 0
M  V30 3791 C 377.582 2.11503 1.79337 0
M  V30 3792 H 380.533 1.45906 0.624262 0
M  V30 3793 H 380.554 1.86917 3.31425 0
M  V30 3794 H 380.066 3.24996 2.1213 0
M  V30 3795 H 378.167 1.21976 3.52069 0
M  V30 3796 H 378.28 3.0993 3.65349 0
M  V30 3797 H 376.644 1.57268 2.00347 0
M  V30 3798 H 377.427 3.13284 1.40386 0
M  V30 3799 N 379.872 -1.04064 1.18357 0
M  V30 3800 C 381.118 -1.77528 0.980397 0
M  V30 3801 C 381.451 -1.87948 -0.48879 0
M  V30 3802 O 380.726 -1.3876 -1.36293 0
M  V30 3803 C 381.009 -3.20797 1.63588 0
M  V30 3804 C 380.862 -3.1832 3.17793 0
M  V30 3805 C 382.181 -4.18911 1.34914 0
M  V30 3806 H 379.3 -0.644443 0.357578 0
M  V30 3807 H 381.942 -1.2156 1.46024 0
M  V30 3808 H 380.092 -3.68586 1.22788 0
M  V30 3809 H 381.764 -2.78521 3.67728 0
M  V30 3810 H 380.007 -2.56351 3.49952 0
M  V30 3811 H 380.678 -4.19489 3.58794 0
M  V30 3812 H 383.154 -3.7967 1.70265 0
M  V30 3813 H 382.03 -5.17374 1.83346 0
M  V30 3814 H 382.291 -4.41262 0.272027 0
M  V30 3815 N 381.35 -0.985608 -1.22978 0
M  V30 3816 C 382.597 -0.657386 -1.91532 0
M  V30 3817 C 382.925 0.809707 -1.76845 0
M  V30 3818 O 382.18 1.60021 -1.12658 0
M  V30 3819 C 382.479 -1.00014 -3.43121 0
M  V30 3820 C 382.145 -2.4583 -3.77993 0
M  V30 3821 C 380.807 -2.85679 -3.87222 0
M  V30 3822 C 383.159 -3.40378 -3.94705 0
M  V30 3823 C 380.487 -4.19081 -4.10595 0
M  V30 3824 C 382.839 -4.73429 -4.1958 0
M  V30 3825 C 381.503 -5.1303 -4.27032 0
M  V30 3826 H 380.773 -0.240555 -0.700867 0
M  V30 3827 H 383.42 -1.24044 -1.45895 0
M  V30 3828 H 381.725 -0.335072 -3.90365 0
M  V30 3829 H 383.422 -0.724322 -3.94404 0
M  V30 3830 H 380.012 -2.13939 -3.71387 0
M  V30 3831 H 384.196 -3.10766 -3.8696 0
M  V30 3832 H 379.452 -4.49362 -4.14589 0
M  V30 3833 H 383.626 -5.46644 -4.31455 0
M  V30 3834 H 381.253 -6.16418 -4.44896 0
M  V30 3835 N 382.828 1.3818 -0.7579 0
M  V30 3836 C 384.074 2.00316 -0.316453 0
M  V30 3837 C 384.407 1.60026 1.10025 0
M  V30 3838 O 383.682 0.839835 1.75434 0
M  V30 3839 C 383.965 3.57349 -0.444245 0
M  V30 3840 C 383.818 4.07591 -1.90236 0
M  V30 3841 C 385.137 4.3981 0.1598 0
M  V30 3842 H 382.256 0.727741 -0.116459 0
M  V30 3843 H 384.898 1.6406 -0.958352 0
M  V30 3844 H 383.048 3.88365 0.102233 0
M  V30 3845 H 384.72 3.87199 -2.50748 0
M  V30 3846 H 382.963 3.60297 -2.41595 0
M  V30 3847 H 383.634 5.16677 -1.94291 0
M  V30 3848 H 386.11 4.14971 -0.306314 0
M  V30 3849 H 384.986 5.48885 0.0401675 0
M  V30 3850 H 385.247 4.24102 1.24859 0
M  V30 3851 N 384.306 0.507319 1.49211 0
M  V30 3852 C 385.531 -0.033725 2.07373 0
M  V30 3853 C 385.956 -1.29485 1.36437 0
M  V30 3854 O 385.314 -1.76294 0.423087 0
M  V30 3855 C 385.362 -0.263945 3.59633 0
M  V30 3856 O 384.466 -1.33737 3.90113 0
M  V30 3857 H 383.807 0.0290331 0.663365 0
M  V30 3858 H 386.337 0.708749 1.91932 0
M  V30 3859 H 386.347 -0.493536 4.05004 0
M  V30 3860 H 385.022 0.657424 4.10671 0
M  V30 3861 H 383.599 -1.09224 3.56545 0
M  V30 3862 N 385.784 -1.5574 0.241426 0
M  V30 3863 C 387.03 -1.99104 -0.385406 0
M  V30 3864 C 387.363 -1.1293 -1.57988 0
M  V30 3865 O 386.638 -0.191449 -1.93555 0
M  V30 3866 C 386.921 -3.51087 -0.800616 0
M  V30 3867 C 386.774 -4.48028 0.398874 0
M  V30 3868 C 388.093 -4.08015 -1.64959 0
M  V30 3869 H 385.212 -0.723848 -0.138614 0
M  V30 3870 H 387.854 -1.86903 0.341642 0
M  V30 3871 H 386.004 -3.61615 -1.4201 0
M  V30 3872 H 387.676 -4.49487 1.03726 0
M  V30 3873 H 385.919 -4.21077 1.04293 0
M  V30 3874 H 386.59 -5.51962 0.0651056 0
M  V30 3875 H 389.066 -4.00555 -1.12672 0
M  V30 3876 H 387.942 -5.14635 -1.90898 0
M  V30 3877 H 388.203 -3.56131 -2.61961 0
M  V30 3878 N 387.262 0.0317525 -1.57568 0
M  V30 3879 C 388.492 0.733884 -1.93126 0
M  V30 3880 C 388.9 1.69563 -0.839352 0
M  V30 3881 O 388.243 1.82681 0.193175 0
M  V30 3882 C 388.305 1.54798 -3.24465 0
M  V30 3883 C 387.969 0.751304 -4.50782 0
M  V30 3884 C 388.966 0.0527632 -5.19873 0
M  V30 3885 C 386.651 0.706639 -4.97305 0
M  V30 3886 C 388.645 -0.679774 -6.33765 0
M  V30 3887 C 386.332 -0.0296449 -6.11093 0
M  V30 3888 C 387.33 -0.721614 -6.79177 0
M  V30 3889 O 387.018 -1.44595 -7.90789 0
M  V30 3890 H 386.75 0.211459 -0.642076 0
M  V30 3891 H 389.304 -0.00585615 -2.05399 0
M  V30 3892 H 387.534 2.33147 -3.08512 0
M  V30 3893 H 389.223 2.13247 -3.4537 0
M  V30 3894 H 389.989 0.0783188 -4.84937 0
M  V30 3895 H 385.868 1.23474 -4.44157 0
M  V30 3896 H 389.412 -1.22042 -6.86842 0
M  V30 3897 H 385.309 -0.0571331 -6.45475 0
M  V30 3898 H 386.077 -1.35935 -8.07133 0
M  V30 3899 N 388.74 1.54641 0.303973 0
M  V30 3900 C 389.67 1.88386 1.3796 0
M  V30 3901 C 390.651 0.742485 1.5304 0
M  V30 3902 O 391.836 0.997959 1.66597 0
M  V30 3903 C 388.966 2.12854 2.74427 0
M  V30 3904 C 387.92 3.28702 2.74115 0
M  V30 3905 C 387.246 3.38582 4.13844 0
M  V30 3906 C 388.546 4.65881 2.3612 0
M  V30 3907 H 390.24 2.78474 1.09966 0
M  V30 3908 H 387.786 1.33988 0.527556 0
M  V30 3909 H 389.739 2.35047 3.49758 0
M  V30 3910 H 388.463 1.19535 3.03939 0
M  V30 3911 H 387.122 3.06428 2.0124 0
M  V30 3912 H 386.77 2.42784 4.40528 0
M  V30 3913 H 386.47 4.16453 4.14537 0
M  V30 3914 H 387.994 3.63031 4.90959 0
M  V30 3915 H 389.408 4.87823 3.01167 0
M  V30 3916 H 387.805 5.46444 2.48031 0
M  V30 3917 H 388.875 4.66799 1.3125 0
M  V30 3918 N 390.218 -0.567019 1.47046 0
M  V30 3919 C 391.166 -1.69593 1.59188 0
M  V30 3920 C 392.16 -1.63046 0.459609 0
M  V30 3921 O 393.366 -1.6835 0.637058 0
M  V30 3922 H 389.741 -0.560993 0.500791 0
M  V30 3923 H 391.712 -1.56488 2.54075 0
M  V30 3924 C 390.461 -3.07964 1.61411 0
M  V30 3925 H 389.784 -3.13679 2.47881 0
M  V30 3926 H 391.224 -3.86671 1.73958 0
M  V30 3927 C 389.683 -3.35123 0.34559 0
M  V30 3928 O 390.213 -3.97812 -0.557521 0
M  V30 3929 N 388.419 -2.89699 0.22864 0
M  V30 3930 H 387.966 -2.38863 0.964479 0
M  V30 3931 H 387.924 -3.08242 -0.619192 0
M  V30 3932 N 391.696 -1.35014 -0.812953 0
M  V30 3933 C 393.112 -1.14914 -1.10757 0
M  V30 3934 C 393.312 0.0426818 -2.01455 0
M  V30 3935 O 392.368 0.715212 -2.42159 0
M  V30 3936 C 393.681 -2.44911 -1.74468 0
M  V30 3937 C 395.229 -2.5106 -1.86917 0
M  V30 3938 C 395.704 -3.81085 -2.54044 0
M  V30 3939 N 397.195 -3.82301 -2.61535 0
M  V30 3940 C 397.93 -4.79634 -3.14227 0
M  V30 3941 N 397.426 -5.87353 -3.67407 0
M  V30 3942 N 399.219 -4.67078 -3.12721 0
M  V30 3943 H 391.37 -2.1136 -0.20989 0
M  V30 3944 H 393.633 -0.935128 -0.155692 0
M  V30 3945 H 393.339 -3.32267 -1.15289 0
M  V30 3946 H 393.213 -2.58989 -2.74234 0
M  V30 3947 H 395.6 -1.64137 -2.45241 0
M  V30 3948 H 395.681 -2.40901 -0.860242 0
M  V30 3949 H 395.325 -4.68402 -1.96372 0
M  V30 3950 H 395.255 -3.88529 -3.55461 0
M  V30 3951 H 397.746 -3.04465 -2.23851 0
M  V30 3952 H 398.059 -6.57624 -4.05894 0
M  V30 3953 H 396.404 -5.91054 -3.65623 0
M  V30 3954 H 399.595 -3.82067 -2.70449 0
M  V30 3955 H 399.768 -5.43098 -3.53481 0
M  V30 3956 N 393.175 1.03435 -1.18907 0
M  V30 3957 C 394.4 1.80919 -1.01406 0
M  V30 3958 C 394.825 1.83055 0.432721 0
M  V30 3959 O 394.183 1.25252 1.31079 0
M  V30 3960 C 394.231 3.24091 -1.58105 0
M  V30 3961 O 393.335 4.04434 -0.806669 0
M  V30 3962 H 392.676 0.558709 -0.358803 0
M  V30 3963 H 395.206 1.30223 -1.57807 0
M  V30 3964 H 395.216 3.74853 -1.61087 0
M  V30 3965 H 393.891 3.21851 -2.6341 0
M  V30 3966 H 392.468 3.63091 -0.849666 0
M  V30 3967 N 394.653 0.992116 1.22453 0
M  V30 3968 C 395.899 0.678177 1.91761 0
M  V30 3969 C 396.254 -0.781141 1.75829 0
M  V30 3970 O 395.547 -1.55747 1.11595 0
M  V30 3971 C 395.741 1.01832 3.42586 0
M  V30 3972 C 395.57 2.50916 3.73191 0
M  V30 3973 C 394.34 3.17308 3.93248 0
M  V30 3974 C 396.538 3.49032 3.77732 0
M  V30 3975 N 394.52 4.55876 4.11157 0
M  V30 3976 C 395.891 4.73055 4.00773 0
M  V30 3977 C 397.946 3.43349 3.60577 0
M  V30 3978 C 396.649 5.92089 4.0844 0
M  V30 3979 C 398.675 4.61759 3.69503 0
M  V30 3980 C 398.037 5.84582 3.92993 0
M  V30 3981 H 394.136 0.299425 0.722405 0
M  V30 3982 H 396.72 1.27197 1.47408 0
M  V30 3983 H 394.891 0.453118 3.85748 0
M  V30 3984 H 396.623 0.660454 3.99274 0
M  V30 3985 H 393.378 2.67778 3.9063 0
M  V30 3986 H 393.802 5.27748 4.24042 0
M  V30 3987 H 398.444 2.49408 3.41402 0
M  V30 3988 H 396.162 6.86435 4.26418 0
M  V30 3989 H 399.748 4.58951 3.57569 0
M  V30 3990 H 398.628 6.74676 3.99728 0
M  V30 3991 N 396.131 -1.37776 0.765217 0
M  V30 3992 C 397.061 -2.32945 0.160953 0
M  V30 3993 C 398.042 -1.55454 -0.690516 0
M  V30 3994 O 399.227 -1.83721 -0.629318 0
M  V30 3995 C 396.357 -3.39669 -0.724031 0
M  V30 3996 C 395.311 -4.27992 0.0256173 0
M  V30 3997 C 394.637 -5.25673 -0.978383 0
M  V30 3998 C 395.937 -5.08309 1.20082 0
M  V30 3999 H 397.631 -2.83728 0.955969 0
M  V30 4000 H 395.177 -1.36416 0.461149 0
M  V30 4001 H 397.13 -4.05219 -1.15652 0
M  V30 4002 H 395.854 -2.87396 -1.5515 0
M  V30 4003 H 394.513 -3.63964 0.438812 0
M  V30 4004 H 394.161 -4.69682 -1.80022 0
M  V30 4005 H 393.861 -5.85625 -0.481378 0
M  V30 4006 H 395.385 -5.94098 -1.40995 0
M  V30 4007 H 396.799 -5.67034 0.845307 0
M  V30 4008 H 395.196 -5.77554 1.62947 0
M  V30 4009 H 396.266 -4.41365 2.00811 0
M  V30 4010 N 397.609 -0.515225 -1.4894 0
M  V30 4011 C 398.857 0.0241671 -2.02086 0
M  V30 4012 C 399.178 1.3616 -1.3959 0
M  V30 4013 O 398.448 1.87841 -0.556121 0
M  V30 4014 H 397.028 0.0119203 -0.746905 0
M  V30 4015 H 399.69 -0.675702 -1.82812 0
M  V30 4016 H 398.786 0.143385 -3.1177 0
M  V30 4017 N 399.087 1.5561 -0.249682 0
M  V30 4018 C 400.017 2.24477 0.642826 0
M  V30 4019 C 400.998 1.22601 1.17911 0
M  V30 4020 O 402.183 1.5126 1.21795 0
M  V30 4021 C 399.313 2.94638 1.83863 0
M  V30 4022 C 398.267 4.03227 1.435 0
M  V30 4023 C 397.593 4.60828 2.71186 0
M  V30 4024 C 398.893 5.18796 0.604002 0
M  V30 4025 H 400.587 2.99321 0.0685625 0
M  V30 4026 H 398.133 1.43965 0.0315363 0
M  V30 4027 H 400.086 3.41517 2.46868 0
M  V30 4028 H 398.81 2.17287 2.43832 0
M  V30 4029 H 397.469 3.57121 0.828275 0
M  V30 4030 H 397.117 3.80174 3.29358 0
M  V30 4031 H 396.817 5.34132 2.44901 0
M  V30 4032 H 398.341 5.10442 3.35084 0
M  V30 4033 H 399.755 5.61883 1.13842 0
M  V30 4034 H 398.152 5.98506 0.437097 0
M  V30 4035 H 399.222 4.83384 -0.383147 0
M  V30 4036 N 400.565 -0.0233959 1.57583 0
M  V30 4037 C 401.981 -0.379134 1.55031 0
M  V30 4038 C 402.181 -1.76255 0.976548 0
M  V30 4039 O 401.237 -2.45266 0.600078 0
M  V30 4040 C 402.55 -0.275792 2.99433 0
M  V30 4041 C 404.098 -0.352458 3.11009 0
M  V30 4042 C 404.573 -0.278501 4.57152 0
M  V30 4043 N 406.064 -0.337123 4.61972 0
M  V30 4044 C 406.799 -0.302876 5.726 0
M  V30 4045 N 406.295 -0.220589 6.92449 0
M  V30 4046 N 408.088 -0.353023 5.6099 0
M  V30 4047 H 400.239 0.881869 1.93227 0
M  V30 4048 H 402.502 0.335867 0.886509 0
M  V30 4049 H 402.208 0.675108 3.4516 0
M  V30 4050 H 402.082 -1.06721 3.61788 0
M  V30 4051 H 404.469 -1.29379 2.65226 0
M  V30 4052 H 404.55 0.468409 2.51475 0
M  V30 4053 H 404.194 0.659189 5.03604 0
M  V30 4054 H 404.124 -1.11755 5.14605 0
M  V30 4055 H 406.615 -0.403002 3.75745 0
M  V30 4056 H 406.928 -0.199713 7.72542 0
M  V30 4057 H 405.273 -0.186555 6.9475 0
M  V30 4058 H 408.464 -0.415339 4.66254 0
M  V30 4059 H 408.637 -0.322866 6.47195 0
M  V30 4060 N 402.043 -1.548 -0.295768 0
M  V30 4061 C 403.29 -1.74329 -1.03032 0
M  V30 4062 C 403.618 -0.531915 -1.87085 0
M  V30 4063 O 402.873 0.486052 -1.89568 0
M  V30 4064 C 403.172 -2.98797 -1.961 0
M  V30 4065 C 402.838 -4.32356 -1.2798 0
M  V30 4066 C 401.5 -4.68661 -1.09135 0
M  V30 4067 C 403.852 -5.15128 -0.793243 0
M  V30 4068 C 401.18 -5.85312 -0.403269 0
M  V30 4069 C 403.532 -6.32488 -0.118854 0
M  V30 4070 C 402.196 -6.6745 0.0815043 0
M  V30 4071 H 401.466 -0.637916 -0.37702 0
M  V30 4072 H 404.113 -1.8906 -0.304696 0
M  V30 4073 H 402.418 -2.78869 -2.75207 0
M  V30 4074 H 404.115 -3.11102 -2.53015 0
M  V30 4075 H 400.705 -4.03808 -1.43655 0
M  V30 4076 H 404.889 -4.87575 -0.92653 0
M  V30 4077 H 400.145 -6.1094 -0.237098 0
M  V30 4078 H 404.319 -6.95892 0.266035 0
M  V30 4079 H 401.946 -7.57695 0.616685 0
M  V30 4080 N 403.521 0.559213 -1.47345 0
M  V30 4081 C 404.451 1.67622 -1.62558 0
M  V30 4082 C 405.432 1.63331 -0.475087 0
M  V30 4083 O 406.617 1.80983 -0.704182 0
M  V30 4084 C 403.747 3.0626 -1.63774 0
M  V30 4085 C 402.701 3.25397 -2.7803 0
M  V30 4086 C 402.027 4.64801 -2.64318 0
M  V30 4087 C 403.327 3.10965 -4.19641 0
M  V30 4088 H 405.021 1.55146 -2.56067 0
M  V30 4089 H 402.567 0.744961 -1.23233 0
M  V30 4090 H 404.52 3.84247 -1.73008 0
M  V30 4091 H 403.244 3.1969 -0.66825 0
M  V30 4092 H 401.903 2.49817 -2.68304 0
M  V30 4093 H 401.551 4.75028 -1.65401 0
M  V30 4094 H 401.251 4.78555 -3.40968 0
M  V30 4095 H 402.775 5.44926 -2.75478 0
M  V30 4096 H 404.189 3.78772 -4.30354 0
M  V30 4097 H 402.586 3.36229 -4.97062 0
M  V30 4098 H 403.656 2.07736 -4.38148 0
M  V30 4099 N 404.999 1.35443 0.805782 0
M  V30 4100 C 406.415 1.15499 1.10146 0
M  V30 4101 C 406.615 -0.0319975 2.01475 0
M  V30 4102 O 405.671 -0.70236 2.42535 0
M  V30 4103 C 406.984 2.45833 1.73166 0
M  V30 4104 C 408.532 2.52047 1.85583 0
M  V30 4105 C 409.007 3.82427 2.52019 0
M  V30 4106 N 410.498 3.83682 2.59504 0
M  V30 4107 C 411.233 4.81294 3.11679 0
M  V30 4108 N 410.729 5.89294 3.64287 0
M  V30 4109 N 412.522 4.6873 3.1024 0
M  V30 4110 H 404.673 2.11469 0.198678 0
M  V30 4111 H 406.936 0.93594 0.150731 0
M  V30 4112 H 406.642 3.32874 1.13526 0
M  V30 4113 H 406.516 2.6044 2.72857 0
M  V30 4114 H 408.903 1.65435 2.44367 0
M  V30 4115 H 408.984 2.41354 0.847455 0
M  V30 4116 H 408.628 4.69437 1.93885 0
M  V30 4117 H 408.558 3.90409 3.53395 0
M  V30 4118 H 411.049 3.05648 2.22234 0
M  V30 4119 H 411.362 6.59768 4.02401 0
M  V30 4120 H 409.707 5.92985 3.62483 0
M  V30 4121 H 412.898 3.83496 2.68419 0
M  V30 4122 H 413.071 5.44965 3.50596 0
M  V30 4123 N 406.477 -1.02803 1.19454 0
M  V30 4124 C 407.44 -2.09264 0.934955 0
M  V30 4125 C 408.44 -1.60576 -0.0849015 0
M  V30 4126 O 409.63 -1.73554 0.149933 0
M  V30 4127 C 406.762 -3.38482 0.40531 0
M  V30 4128 H 407.955 -2.33726 1.87916 0
M  V30 4129 H 405.508 -1.19426 1.00832 0
M  V30 4130 H 406.243 -3.19689 -0.544899 0
M  V30 4131 H 406.028 -3.75142 1.14065 0
M  V30 4132 H 407.518 -4.16894 0.242806 0
M  V30 4133 N 407.956 -0.998596 -1.21925 0
M  V30 4134 C 408.886 -0.573688 -2.26343 0
M  V30 4135 C 409.867 0.402296 -1.65274 0
M  V30 4136 O 411.052 0.291683 -1.91997 0
M  V30 4137 C 408.182 0.106839 -3.47136 0
M  V30 4138 C 407.136 -0.788269 -4.20678 0
M  V30 4139 C 406.462 0.0254927 -5.34694 0
M  V30 4140 C 407.762 -2.08784 -4.78755 0
M  V30 4141 H 409.456 -1.44651 -2.62138 0
M  V30 4142 H 407.002 -0.696975 -1.26009 0
M  V30 4143 H 408.955 0.415531 -4.19346 0
M  V30 4144 H 407.679 1.01424 -3.10452 0
M  V30 4145 H 406.338 -1.08069 -3.50309 0
M  V30 4146 H 405.986 0.933989 -4.94253 0
M  V30 4147 H 405.686 -0.570437 -5.84825 0
M  V30 4148 H 407.21 0.328147 -6.09718 0
M  V30 4149 H 408.624 -1.84272 -5.42878 0
M  V30 4150 H 407.021 -2.63307 -5.39249 0
M  V30 4151 H 408.091 -2.76284 -3.98491 0
M  V30 4152 N 409.434 1.37368 -0.772513 0
M  V30 4153 C 410.85 1.53059 -0.452231 0
M  V30 4154 C 411.05 1.73065 1.03203 0
M  V30 4155 O 410.106 1.75245 1.81784 0
M  V30 4156 C 411.419 2.72659 -1.26797 0
M  V30 4157 C 412.967 2.86521 -1.25995 0
M  V30 4158 C 413.442 4.09105 -2.05905 0
M  V30 4159 N 414.933 4.16219 -2.03263 0
M  V30 4160 C 415.668 5.10107 -2.61875 0
M  V30 4161 N 415.164 6.09547 -3.29278 0
M  V30 4162 N 416.957 5.02596 -2.51701 0
M  V30 4163 H 409.108 1.22634 -1.7342 0
M  V30 4164 H 411.371 0.597206 -0.736239 0
M  V30 4165 H 411.077 2.64343 -2.31982 0
M  V30 4166 H 410.951 3.66363 -0.897672 0
M  V30 4167 H 413.338 2.94308 -0.216081 0
M  V30 4168 H 413.419 1.93774 -1.66989 0
M  V30 4169 H 413.063 4.0208 -3.10313 0
M  V30 4170 H 412.993 5.00968 -1.62292 0
M  V30 4171 H 415.484 3.45012 -1.54192 0
M  V30 4172 H 415.797 6.77718 -3.71374 0
M  V30 4173 H 414.142 6.09824 -3.33377 0
M  V30 4174 H 417.333 4.23855 -1.98657 0
M  V30 4175 H 417.506 5.75582 -2.97673 0
M  V30 4176 N 410.912 0.523116 1.48665 0
M  V30 4177 C 411.842 -0.23231 2.32342 0
M  V30 4178 C 412.823 -0.941637 1.41659 0
M  V30 4179 O 414.008 -0.928751 1.70552 0
M  V30 4180 C 411.138 -1.28387 3.22698 0
M  V30 4181 C 410.092 -0.693098 4.22351 0
M  V30 4182 C 409.418 -1.8468 5.01794 0
M  V30 4183 C 410.718 0.33063 5.21252 0
M  V30 4184 H 412.412 0.466192 2.95748 0
M  V30 4185 H 409.958 0.225643 1.42221 0
M  V30 4186 H 411.911 -1.82024 3.80059 0
M  V30 4187 H 410.635 -2.01186 2.57278 0
M  V30 4188 H 409.294 -0.178299 3.66166 0
M  V30 4189 H 408.942 -2.56301 4.32804 0
M  V30 4190 H 408.642 -1.45747 5.69238 0
M  V30 4191 H 410.166 -2.38709 5.62006 0
M  V30 4192 H 411.58 -0.118407 5.73178 0
M  V30 4193 H 409.977 0.636974 5.9671 0
M  V30 4194 H 411.047 1.23883 4.68808 0
M  V30 4195 N 412.39 -1.55475 0.257931 0
M  V30 4196 C 413.639 -1.98383 -0.364275 0
M  V30 4197 C 413.952 -1.14952 -1.58258 0
M  V30 4198 O 415.158 -1.47924 -2.27664 0
M  V30 4199 C 413.614 -3.53037 -0.699479 0
M  V30 4200 C 413.222 -4.45223 0.498046 0
M  V30 4201 C 414.966 -4.04575 -1.28526 0
M  V30 4202 C 412.873 -5.91238 0.138383 0
M  V30 4203 H 411.803 -0.740911 -0.13988 0
M  V30 4204 H 414.454 -1.79936 0.359883 0
M  V30 4205 H 412.836 -3.6722 -1.48207 0
M  V30 4206 H 414.01 -4.42803 1.27522 0
M  V30 4207 H 412.325 -4.04226 0.999503 0
M  V30 4208 H 414.922 -5.11196 -1.56788 0
M  V30 4209 H 415.265 -3.5258 -2.21344 0
M  V30 4210 H 415.798 -3.93762 -0.565337 0
M  V30 4211 H 412.537 -6.47294 1.03398 0
M  V30 4212 H 412.057 -5.96768 -0.602374 0
M  V30 4213 H 413.736 -6.46413 -0.27553 0
M  V30 4214 N 413.868 0.0150385 -1.57593 0
M  V30 4215 C 414.8 1.03912 -2.04291 0
M  V30 4216 C 415.813 1.31618 -0.958146 0
M  V30 4217 O 417.002 1.28859 -1.23522 0
M  V30 4218 C 414.102 2.37749 -2.41514 0
M  V30 4219 C 413.275 2.29198 -3.72541 0
M  V30 4220 C 412.334 3.45598 -3.96797 0
M  V30 4221 O 411.36 3.24461 -4.67668 0
M  V30 4222 N 412.562 4.67945 -3.43523 0
M  V30 4223 H 415.327 0.64099 -2.92765 0
M  V30 4224 H 412.888 0.20272 -1.60626 0
M  V30 4225 H 414.88 3.14364 -2.54867 0
M  V30 4226 H 413.45 2.69357 -1.58637 0
M  V30 4227 H 412.67 1.3759 -3.69408 0
M  V30 4228 H 413.958 2.20642 -4.5847 0
M  V30 4229 H 413.356 4.88017 -2.86104 0
M  V30 4230 H 411.913 5.41878 -3.62232 0
M  V30 4231 N 415.346 1.54954 0.287554 0
M  V30 4232 C 416.593 1.74873 1.02106 0
M  V30 4233 C 416.921 0.541829 1.86801 0
M  V30 4234 O 416.176 -0.475992 1.89823 0
M  V30 4235 C 416.475 2.99833 1.94512 0
M  V30 4236 C 416.141 4.33029 1.25686 0
M  V30 4237 C 414.803 4.69233 1.06649 0
M  V30 4238 C 417.155 5.15542 0.765913 0
M  V30 4239 C 414.483 5.85518 0.372222 0
M  V30 4240 C 416.835 6.32542 0.0853101 0
M  V30 4241 C 415.499 6.67398 -0.1169 0
M  V30 4242 H 414.769 0.639906 0.373632 0
M  V30 4243 H 417.416 1.89219 0.294665 0
M  V30 4244 H 415.721 2.80325 2.73725 0
M  V30 4245 H 417.418 3.1244 2.51361 0
M  V30 4246 H 414.008 4.04564 1.41512 0
M  V30 4247 H 418.192 4.88059 0.90066 0
M  V30 4248 H 413.448 6.11057 0.204695 0
M  V30 4249 H 417.622 6.95741 -0.302936 0
M  V30 4250 H 415.249 7.57357 -0.656859 0
M  V30 4251 N 416.824 -0.551391 1.4764 0
M  V30 4252 C 418.049 -1.33837 1.58437 0
M  V30 4253 C 418.474 -1.866 0.237063 0
M  V30 4254 O 417.832 -1.6328 -0.787994 0
M  V30 4255 C 417.88 -2.48014 2.61766 0
M  V30 4256 O 416.984 -3.50419 2.1744 0
M  V30 4257 H 416.325 -0.397299 0.532024 0
M  V30 4258 H 418.855 -0.665759 1.93465 0
M  V30 4259 H 418.865 -2.94503 2.82369 0
M  V30 4260 H 417.54 -2.08969 3.5959 0
M  V30 4261 H 416.117 -3.10196 2.06961 0
M  V30 4262 N 418.302 -1.35869 -0.798587 0
M  V30 4263 C 419.212 -1.31578 -1.94228 0
M  V30 4264 C 420.228 -0.21939 -1.72611 0
M  V30 4265 O 421.404 -0.450167 -1.96305 0
M  V30 4266 C 418.469 -1.09528 -3.28944 0
M  V30 4267 C 417.53 -2.28556 -3.63402 0
M  V30 4268 C 416.763 -2.07549 -4.9169 0
M  V30 4269 O 416.986 -1.046 -5.60727 0
M  V30 4270 O 415.92 -2.95106 -5.24591 0
M  V30 4271 H 419.746 -2.27847 -2.00796 0
M  V30 4272 H 417.331 -1.16322 -0.937526 0
M  V30 4273 H 419.213 -0.991127 -4.09579 0
M  V30 4274 H 417.888 -0.16315 -3.23289 0
M  V30 4275 H 416.795 -2.44538 -2.83112 0
M  V30 4276 H 418.128 -3.20244 -3.73771 0
M  V30 4277 N 419.78 1.02168 -1.19998 0
M  V30 4278 C 421.029 1.75091 -1.0013 0
M  V30 4279 C 421.342 1.89923 0.467835 0
M  V30 4280 O 422.548 2.59888 0.785515 0
M  V30 4281 C 421.004 3.14892 -1.74273 0
M  V30 4282 C 420.612 3.0809 -3.25245 0
M  V30 4283 C 422.356 3.9206 -1.62755 0
M  V30 4284 C 420.263 4.42867 -3.91948 0
M  V30 4285 H 419.193 0.656394 -0.37103 0
M  V30 4286 H 421.844 1.14284 -1.43567 0
M  V30 4287 H 420.226 3.7621 -1.2362 0
M  V30 4288 H 421.4 2.5611 -3.83072 0
M  V30 4289 H 419.715 2.44416 -3.3712 0
M  V30 4290 H 422.312 4.91764 -2.09934 0
M  V30 4291 H 422.655 4.12199 -0.582894 0
M  V30 4292 H 423.188 3.37359 -2.10793 0
M  V30 4293 H 419.927 4.27931 -4.96543 0
M  V30 4294 H 419.447 4.94874 -3.3891 0
M  V30 4295 H 421.126 5.11728 -3.95909 0
M  V30 4296 N 421.258 1.00505 1.21394 0
M  V30 4297 C 422.188 0.585684 2.26035 0
M  V30 4298 C 423.169 -0.393525 1.65485 0
M  V30 4299 O 424.354 -0.281497 1.92149 0
M  V30 4300 C 421.484 -0.0884283 3.47187 0
M  V30 4301 C 420.438 0.810567 4.20254 0
M  V30 4302 C 419.764 0.00286382 5.347 0
M  V30 4303 C 421.064 2.1132 4.77641 0
M  V30 4304 H 422.758 1.46039 2.61368 0
M  V30 4305 H 420.304 0.703648 1.25638 0
M  V30 4306 H 422.257 -0.393286 4.19561 0
M  V30 4307 H 420.981 -0.997766 3.10986 0
M  V30 4308 H 419.64 1.09925 3.49731 0
M  V30 4309 H 419.288 -0.907765 4.94741 0
M  V30 4310 H 418.988 0.601444 5.84514 0
M  V30 4311 H 420.512 -0.295808 6.09883 0
M  V30 4312 H 421.926 1.87148 5.41893 0
M  V30 4313 H 420.323 2.66164 5.37845 0
M  V30 4314 H 421.393 2.78393 3.9702 0
M  V30 4315 N 422.737 -1.36956 0.779787 0
M  V30 4316 C 423.669 -2.28833 0.129639 0
M  V30 4317 C 424.682 -1.4902 -0.655511 0
M  V30 4318 O 425.871 -1.71578 -0.492279 0
M  V30 4319 C 422.971 -3.2833 -0.839792 0
M  V30 4320 C 422.144 -4.3727 -0.10675 0
M  V30 4321 C 421.203 -5.16789 -0.990717 0
M  V30 4322 O 420.229 -5.67406 -0.451516 0
M  V30 4323 N 421.431 -5.32294 -2.3161 0
M  V30 4324 H 424.196 -2.85268 0.918803 0
M  V30 4325 H 421.757 -1.49019 0.632841 0
M  V30 4326 H 423.749 -3.78413 -1.43477 0
M  V30 4327 H 422.319 -2.72605 -1.52988 0
M  V30 4328 H 421.539 -3.88478 0.669216 0
M  V30 4329 H 422.827 -5.07229 0.399464 0
M  V30 4330 H 422.225 -4.92768 -2.77843 0
M  V30 4331 H 420.782 -5.85656 -2.86095 0
M  V30 4332 N 424.215 -0.530993 -1.48385 0
M  V30 4333 C 425.462 0.0027373 -2.025 0
M  V30 4334 C 425.79 1.34186 -1.40799 0
M  V30 4335 O 425.045 1.88 -0.543544 0
M  V30 4336 C 425.344 0.172742 -3.56982 0
M  V30 4337 C 425.01 -1.09215 -4.37473 0
M  V30 4338 C 423.672 -1.43881 -4.59186 0
M  V30 4339 C 426.024 -1.93153 -4.84088 0
M  V30 4340 C 423.352 -2.62381 -5.2476 0
M  V30 4341 C 425.704 -3.10833 -5.50968 0
M  V30 4342 C 424.368 -3.45843 -5.70919 0
M  V30 4343 H 423.638 0.00100165 -0.740999 0
M  V30 4344 H 426.285 -0.697219 -1.78357 0
M  V30 4345 H 424.59 0.955473 -3.79971 0
M  V30 4346 H 426.287 0.600642 -3.96476 0
M  V30 4347 H 422.877 -0.812177 -4.20834 0
M  V30 4348 H 427.061 -1.67683 -4.67115 0
M  V30 4349 H 422.317 -2.89707 -5.38405 0
M  V30 4350 H 426.491 -3.7618 -5.86056 0
M  V30 4351 H 424.118 -4.37764 -6.21503 0
M  V30 4352 N 425.693 1.55336 -0.266172 0
M  V30 4353 C 426.623 2.25146 0.618981 0
M  V30 4354 C 427.604 1.23845 1.16604 0
M  V30 4355 O 428.789 1.52544 1.20183 0
M  V30 4356 C 425.919 2.96572 1.80728 0
M  V30 4357 C 424.873 4.04726 1.39215 0
M  V30 4358 C 424.199 4.63678 2.66283 0
M  V30 4359 C 425.499 5.19407 0.548942 0
M  V30 4360 H 427.193 2.99377 0.0368116 0
M  V30 4361 H 424.739 1.43991 0.0162651 0
M  V30 4362 H 426.692 3.44116 2.43232 0
M  V30 4363 H 425.416 2.19861 2.41514 0
M  V30 4364 H 424.075 3.57979 0.790351 0
M  V30 4365 H 423.723 3.83646 3.25308 0
M  V30 4366 H 423.423 5.367 2.39222 0
M  V30 4367 H 424.947 5.13967 3.29651 0
M  V30 4368 H 426.361 5.63059 1.07876 0
M  V30 4369 H 424.758 5.98936 0.373593 0
M  V30 4370 H 425.828 4.8295 -0.434394 0
M  V30 4371 N 427.171 -0.0066808 1.57599 0
M  V30 4372 C 428.119 -1.01851 2.09115 0
M  V30 4373 C 429.113 -1.36021 1.00969 0
M  V30 4374 O 430.319 -1.34663 1.19439 0
M  V30 4375 H 426.694 -0.346083 0.667631 0
M  V30 4376 H 428.665 -0.558394 2.93129 0
M  V30 4377 C 427.414 -2.30374 2.60429 0
M  V30 4378 H 426.737 -2.04947 3.43273 0
M  V30 4379 H 428.177 -2.99466 3.00161 0
M  V30 4380 C 426.636 -3.00893 1.51542 0
M  V30 4381 O 427.166 -3.91614 0.894484 0
M  V30 4382 N 425.372 -2.62603 1.2445 0
M  V30 4383 H 424.919 -1.88911 1.75129 0
M  V30 4384 H 424.877 -3.10101 0.518137 0
M  V30 4385 N 428.649 -1.55105 -0.279332 0
M  V30 4386 C 429.898 -1.74618 -1.00952 0
M  V30 4387 C 430.211 -0.551096 -1.87676 0
M  V30 4388 O 431.417 -0.628507 -2.64125 0
M  V30 4389 C 429.873 -3.09025 -1.84476 0
M  V30 4390 C 429.481 -4.36081 -1.0265 0
M  V30 4391 C 431.225 -3.37891 -2.56963 0
M  V30 4392 C 429.132 -5.6153 -1.85576 0
M  V30 4393 H 428.062 -0.650868 -0.38064 0
M  V30 4394 H 430.713 -1.81569 -0.265475 0
M  V30 4395 H 429.095 -2.96095 -2.62952 0
M  V30 4396 H 430.269 -4.59909 -0.286354 0
M  V30 4397 H 428.584 -4.14312 -0.416464 0
M  V30 4398 H 431.181 -4.28822 -3.19399 0
M  V30 4399 H 431.524 -2.57737 -3.26921 0
M  V30 4400 H 432.057 -3.5189 -1.85522 0
M  V30 4401 H 428.796 -6.44413 -1.2005 0
M  V30 4402 H 428.316 -5.41854 -2.57204 0
M  V30 4403 H 429.995 -5.99594 -2.43096 0
M  V30 4404 N 430.127 0.543554 -1.4793 0
M  V30 4405 C 431.057 1.65888 -1.64327 0
M  V30 4406 C 432.038 1.62818 -0.492383 0
M  V30 4407 O 433.223 1.80226 -0.723338 0
M  V30 4408 C 430.353 3.04506 -1.67013 0
M  V30 4409 C 429.307 3.2243 -2.81466 0
M  V30 4410 C 428.633 4.61972 -2.69233 0
M  V30 4411 C 429.933 3.06496 -4.22915 0
M  V30 4412 H 431.627 1.52421 -2.57698 0
M  V30 4413 H 429.173 0.731849 -1.24016 0
M  V30 4414 H 431.126 3.82391 -1.77074 0
M  V30 4415 H 429.85 3.18964 -0.70212 0
M  V30 4416 H 428.509 2.46957 -2.70938 0
M  V30 4417 H 428.157 4.73247 -1.7043 0
M  V30 4418 H 427.857 4.74911 -3.46025 0
M  V30 4419 H 429.381 5.41974 -2.81242 0
M  V30 4420 H 430.795 3.74186 -4.34348 0
M  V30 4421 H 429.192 3.30938 -5.006 0
M  V30 4422 H 430.262 2.03077 -4.40327 0
M  V30 4423 N 431.605 1.3629 0.791371 0
M  V30 4424 C 432.552 1.30458 1.90393 0
M  V30 4425 C 433.522 0.173632 1.6519 0
M  V30 4426 O 434.707 0.35983 1.87376 0
M  V30 4427 C 431.847 1.09777 3.27174 0
M  V30 4428 C 430.96 2.31929 3.64462 0
M  V30 4429 C 430.095 2.04276 4.90352 0
M  V30 4430 C 429.134 3.224 5.20312 0
M  V30 4431 N 428.271 2.94424 6.37385 0
M  V30 4432 H 433.111 2.25589 1.94714 0
M  V30 4433 H 430.648 1.12122 0.952216 0
M  V30 4434 H 432.606 0.958133 4.06049 0
M  V30 4435 H 431.236 0.183014 3.22281 0
M  V30 4436 H 430.288 2.56703 2.80727 0
M  V30 4437 H 431.6 3.20085 3.82553 0
M  V30 4438 H 430.754 1.87231 5.77087 0
M  V30 4439 H 429.493 1.13428 4.74326 0
M  V30 4440 H 428.498 3.40005 4.32061 0
M  V30 4441 H 429.723 4.14071 5.38258 0
M  V30 4442 H 427.669 2.06185 6.22755 0
M  V30 4443 H 427.586 3.76118 6.55798 0
M  V30 4444 H 428.854 2.80953 7.27108 0
M  V30 4445 N 433.083 -1.0153 1.20538 0
M  V30 4446 C 434.311 -1.78746 1.04199 0
M  V30 4447 C 434.726 -1.84323 -0.408733 0
M  V30 4448 O 434.083 -1.29714 -1.28377 0
M  V30 4449 C 434.134 -3.23152 1.62035 0
M  V30 4450 O 433.855 -3.17918 3.0143 0
M  V30 4451 C 435.356 -4.16911 1.50666 0
M  V30 4452 H 432.576 -0.56208 0.366479 0
M  V30 4453 H 435.12 -1.27794 1.59653 0
M  V30 4454 H 433.275 -3.71248 1.10697 0
M  V30 4455 H 433.689 -4.08567 3.28897 0
M  V30 4456 H 435.163 -5.16072 1.95892 0
M  V30 4457 H 435.64 -4.36791 0.459363 0
M  V30 4458 H 436.246 -3.74698 2.01201 0
M  V30 4459 N 434.561 -1.01147 -1.20859 0
M  V30 4460 C 435.786 -0.716698 -1.94623 0
M  V30 4461 C 436.211 0.715415 -1.73964 0
M  V30 4462 O 435.569 1.49157 -1.03062 0
M  V30 4463 C 435.617 -1.0513 -3.44935 0
M  V30 4464 O 434.721 -0.160131 -4.12089 0
M  V30 4465 H 434.062 -0.266404 -0.608214 0
M  V30 4466 H 436.592 -1.35346 -1.53436 0
M  V30 4467 H 436.602 -1.00086 -3.95533 0
M  V30 4468 H 435.277 -2.09475 -3.59295 0
M  V30 4469 H 433.854 -0.267657 -3.71938 0
M  V30 4470 N 436.039 1.36541 -0.78704 0
M  V30 4471 C 436.987 2.31965 -0.171724 0
M  V30 4472 C 437.981 1.55689 0.667631 0
M  V30 4473 O 439.187 1.70969 0.562981 0
M  V30 4474 H 435.562 0.751101 -0.0367545 0
M  V30 4475 H 437.533 2.81428 -0.992017 0
M  V30 4476 C 436.282 3.40968 0.680904 0
M  V30 4477 H 435.605 3.99775 0.0443961 0
M  V30 4478 H 437.045 4.10063 1.07815 0
M  V30 4479 C 435.504 2.82338 1.83813 0
M  V30 4480 O 436.034 2.74311 2.93456 0
M  V30 4481 N 434.24 2.39661 1.6435 0
M  V30 4482 H 433.787 2.46389 0.751668 0
M  V30 4483 H 433.745 2.00779 2.4194 0
M  V30 4484 N 437.518 0.538854 1.48102 0
M  V30 4485 C 438.743 0.0102694 2.07397 0
M  V30 4486 C 439.168 -1.26562 1.39153 0
M  V30 4487 O 438.526 -1.75357 0.460387 0
M  V30 4488 C 438.574 -0.187602 3.60112 0
M  V30 4489 O 437.678 -1.25432 3.92862 0
M  V30 4490 H 437.019 0.0430975 0.6626 0
M  V30 4491 H 439.549 0.749301 1.90385 0
M  V30 4492 H 439.559 -0.407517 4.0596 0
M  V30 4493 H 438.234 0.744386 4.09184 0
M  V30 4494 H 436.811 -1.01636 3.58782 0
M  V30 4495 N 438.996 -1.55193 0.274407 0
M  V30 4496 C 440.245 -1.98758 -0.343213 0
M  V30 4497 C 440.558 -1.16624 -1.5703 0
M  V30 4498 O 441.764 -1.5033 -2.26082 0
M  V30 4499 C 440.22 -3.53759 -0.661996 0
M  V30 4500 C 439.828 -4.4467 0.54524 0
M  V30 4501 C 441.572 -4.05916 -1.24228 0
M  V30 4502 C 439.479 -5.91058 0.201084 0
M  V30 4503 H 438.409 -0.742353 -0.132014 0
M  V30 4504 H 441.06 -1.79545 0.378948 0
M  V30 4505 H 439.442 -3.68772 -1.44304 0
M  V30 4506 H 440.616 -4.41426 1.32212 0
M  V30 4507 H 438.931 -4.03143 1.04232 0
M  V30 4508 H 441.528 -5.12831 -1.51357 0
M  V30 4509 H 441.871 -3.54908 -2.17592 0
M  V30 4510 H 442.404 -3.9434 -0.523542 0
M  V30 4511 H 439.143 -6.46161 1.10258 0
M  V30 4512 H 438.663 -5.97373 -0.539045 0
M  V30 4513 H 440.342 -6.46669 -0.206954 0
M  V30 4514 N 440.474 -0.00167713 -1.576 0
M  V30 4515 C 441.421 0.989195 -2.08527 0
M  V30 4516 C 442.391 1.34031 -0.981065 0
M  V30 4517 O 443.576 1.43839 -1.2536 0
M  V30 4518 C 440.716 2.27537 -2.59463 0
M  V30 4519 C 439.829 1.98314 -3.83791 0
M  V30 4520 C 438.964 3.21025 -4.23222 0
M  V30 4521 C 438.003 2.87495 -5.40382 0
M  V30 4522 N 437.14 4.02749 -5.75098 0
M  V30 4523 H 441.98 0.547973 -2.92919 0
M  V30 4524 H 439.517 0.258917 -1.44803 0
M  V30 4525 H 441.475 3.02729 -2.87073 0
M  V30 4526 H 440.105 2.69325 -1.77943 0
M  V30 4527 H 439.157 1.13482 -3.63078 0
M  V30 4528 H 440.469 1.69601 -4.69081 0
M  V30 4529 H 439.623 4.04561 -4.52123 0
M  V30 4530 H 438.362 3.52877 -3.36644 0
M  V30 4531 H 437.367 2.02367 -5.11202 0
M  V30 4532 H 438.592 2.56889 -6.28637 0
M  V30 4533 H 436.538 4.34494 -4.91478 0
M  V30 4534 H 436.455 3.77566 -6.54966 0
M  V30 4535 H 437.723 4.87068 -6.08592 0
M  V30 4536 N 441.952 1.55251 0.271103 0
M  V30 4537 C 442.882 1.9127 1.33933 0
M  V30 4538 C 443.863 0.77478 1.5143 0
M  V30 4539 O 445.048 1.03307 1.64442 0
M  V30 4540 C 442.178 2.18627 2.69851 0
M  V30 4541 C 441.132 3.34442 2.67081 0
M  V30 4542 C 440.458 3.47284 4.06569 0
M  V30 4543 C 441.758 4.70784 2.26185 0
M  V30 4544 H 443.452 2.80744 1.04035 0
M  V30 4545 H 440.998 1.35077 0.499017 0
M  V30 4546 H 442.951 2.42413 3.44694 0
M  V30 4547 H 441.675 1.25955 3.01335 0
M  V30 4548 H 440.334 3.10627 1.94695 0
M  V30 4549 H 439.982 2.52074 4.35279 0
M  V30 4550 H 439.682 4.25152 4.0561 0
M  V30 4551 H 441.206 3.73363 4.83148 0
M  V30 4552 H 442.62 4.94102 2.90751 0
M  V30 4553 H 441.017 5.51582 2.36384 0
M  V30 4554 H 442.087 4.69478 1.21319 0
M  V30 4555 N 443.43 -0.535701 1.48216 0
M  V30 4556 C 444.676 -1.29375 1.56173 0
M  V30 4557 C 445.009 -1.92804 0.232429 0
M  V30 4558 O 444.284 -1.78992 -0.761048 0
M  V30 4559 C 444.567 -2.38747 2.69577 0
M  V30 4560 C 444.42 -1.80046 4.12193 0
M  V30 4561 C 445.739 -3.40551 2.78771 0
M  V30 4562 H 442.858 -0.469027 0.568491 0
M  V30 4563 H 445.5 -0.597358 1.80365 0
M  V30 4564 H 443.65 -2.98147 2.4908 0
M  V30 4565 H 445.322 -1.24742 4.44114 0
M  V30 4566 H 443.565 -1.10609 4.19462 0
M  V30 4567 H 444.236 -2.59212 4.87353 0
M  V30 4568 H 446.712 -2.91099 2.97322 0
M  V30 4569 H 445.588 -4.1448 3.59857 0
M  V30 4570 H 445.849 -4.00746 1.86696 0
M  V30 4571 N 444.908 -1.36708 -0.784132 0
M  V30 4572 C 445.856 -1.31533 -1.91838 0
M  V30 4573 C 446.85 -0.206205 -1.6814 0
M  V30 4574 O 448.056 -0.373519 -1.76082 0
M  V30 4575 H 444.431 -0.409613 -0.630651 0
M  V30 4576 H 446.402 -2.2731 -1.9332 0
M  V30 4577 C 445.151 -1.12679 -3.28936 0
M  V30 4578 H 444.474 -1.97274 -3.4774 0
M  V30 4579 H 445.914 -1.13106 -4.08636 0
M  V30 4580 C 444.373 0.168281 -3.36479 0
M  V30 4581 O 444.903 1.15625 -3.84699 0
M  V30 4582 N 443.109 0.214762 -2.89805 0
M  V30 4583 H 442.656 -0.589852 -2.50756 0
M  V30 4584 H 442.614 1.08094 -2.95234 0
M  V30 4585 N 446.386 1.0089 -1.21074 0
M  V30 4586 C 447.316 2.1145 -0.990523 0
M  V30 4587 C 448.297 1.69897 0.0831699 0
M  V30 4588 O 449.482 1.94052 -0.0758853 0
M  V30 4589 C 446.612 3.42914 -0.550177 0
M  V30 4590 C 445.566 3.98244 -1.56799 0
M  V30 4591 C 444.892 5.25568 -0.984013 0
M  V30 4592 C 446.192 4.30752 -2.95381 0
M  V30 4593 H 447.886 2.3013 -1.91521 0
M  V30 4594 H 445.432 1.10592 -0.92225 0
M  V30 4595 H 447.385 4.19653 -0.383305 0
M  V30 4596 H 446.109 3.24014 0.41015 0
M  V30 4597 H 444.768 3.23621 -1.72236 0
M  V30 4598 H 444.416 5.02998 -0.0155216 0
M  V30 4599 H 444.116 5.63551 -1.66384 0
M  V30 4600 H 445.64 6.04955 -0.828378 0
M  V30 4601 H 447.054 4.98349 -2.8341 0
M  V30 4602 H 445.451 4.79869 -3.60341 0
M  V30 4603 H 446.521 3.39192 -3.46521 0
M  V30 4604 N 447.864 1.01787 1.20321 0
M  V30 4605 C 448.794 0.609625 2.25401 0
M  V30 4606 C 449.775 -0.375951 1.65893 0
M  V30 4607 O 450.96 -0.261101 1.92437 0
M  V30 4608 C 448.09 -0.0515995 3.47262 0
M  V30 4609 C 447.044 0.855095 4.19371 0
M  V30 4610 C 446.37 0.0595757 5.34667 0
M  V30 4611 C 447.67 2.16374 4.75373 0
M  V30 4612 H 449.364 1.48803 2.59804 0
M  V30 4613 H 446.91 0.716934 1.24884 0
M  V30 4614 H 448.863 -0.348764 4.19954 0
M  V30 4615 H 447.587 -0.964726 3.12027 0
M  V30 4616 H 446.246 1.13628 3.48546 0
M  V30 4617 H 445.894 -0.85524 4.95676 0
M  V30 4618 H 445.594 0.663406 5.83843 0
M  V30 4619 H 447.118 -0.231105 6.10162 0
M  V30 4620 H 448.532 1.92885 5.39878 0
M  V30 4621 H 446.929 2.71853 5.34991 0
M  V30 4622 H 447.999 2.82589 3.94045 0
M  V30 4623 N 449.342 -1.36122 0.79427 0
M  V30 4624 C 450.567 -2.03891 0.379871 0
M  V30 4625 C 450.992 -1.59488 -0.997251 0
M  V30 4626 O 450.35 -0.765652 -1.64339 0
M  V30 4627 C 450.398 -3.57687 0.457442 0
M  V30 4628 O 449.502 -4.08931 -0.5338 0
M  V30 4629 H 448.843 -0.6443 0.160541 0
M  V30 4630 H 451.373 -1.73976 1.07673 0
M  V30 4631 H 451.383 -4.06721 0.322792 0
M  V30 4632 H 450.058 -3.89357 1.46199 0
M  V30 4633 H 448.635 -3.71154 -0.360409 0
M  V30 4634 N 450.82 -0.546701 -1.47814 0
M  V30 4635 C 452.069 -0.0166497 -2.01693 0
M  V30 4636 C 452.382 1.33721 -1.42752 0
M  V30 4637 O 453.588 1.95658 -1.8823 0
M  V30 4638 C 452.044 0.0206769 -3.59894 0
M  V30 4639 C 451.652 -1.3293 -4.27824 0
M  V30 4640 C 453.396 0.498674 -4.21561 0
M  V30 4641 C 451.303 -1.25165 -5.78003 0
M  V30 4642 H 450.233 -0.0024541 -0.753996 0
M  V30 4643 H 452.884 -0.692984 -1.69912 0
M  V30 4644 H 451.266 0.76244 -3.88591 0
M  V30 4645 H 452.44 -2.08795 -4.10781 0
M  V30 4646 H 450.755 -1.74438 -3.78101 0
M  V30 4647 H 453.352 0.575 -5.31599 0
M  V30 4648 H 453.695 1.5083 -3.88016 0
M  V30 4649 H 454.228 -0.18791 -3.97356 0
M  V30 4650 H 450.967 -2.23695 -6.1615 0
M  V30 4651 H 450.487 -0.53464 -5.97412 0
M  V30 4652 H 452.166 -0.949299 -6.39998 0
M  V30 4653 N 452.299 1.55045 -0.282633 0
M  V30 4654 C 453.546 1.9976 0.33199 0
M  V30 4655 C 453.874 1.17105 1.55295 0
M  V30 4656 O 453.129 0.230599 1.94337 0
M  V30 4657 C 453.428 3.49422 0.750938 0
M  V30 4658 C 453.094 4.4941 -0.366228 0
M  V30 4659 C 451.756 4.76471 -0.672964 0
M  V30 4660 C 454.108 5.09054 -1.11864 0
M  V30 4661 C 451.436 5.60442 -1.73556 0
M  V30 4662 C 453.788 5.9418 -2.17102 0
M  V30 4663 C 452.452 6.19558 -2.48402 0
M  V30 4664 H 451.722 0.730974 0.121484 0
M  V30 4665 H 454.369 1.8732 -0.39791 0
M  V30 4666 H 452.674 3.59377 1.56063 0
M  V30 4667 H 454.371 3.81432 1.23736 0
M  V30 4668 H 450.961 4.2844 -0.117041 0
M  V30 4669 H 455.145 4.88165 -0.894925 0
M  V30 4670 H 450.401 5.78349 -1.983 0
M  V30 4671 H 454.575 6.39427 -2.75873 0
M  V30 4672 H 452.202 6.84417 -3.30874 0
M  V30 4673 N 453.777 0.010035 1.57597 0
M  V30 4674 C 455.026 -0.671945 1.90178 0
M  V30 4675 C 455.339 -1.74376 0.886131 0
M  V30 4676 O 456.545 -2.48107 1.10252 0
M  V30 4677 C 455.001 -1.24636 3.3763 0
M  V30 4678 C 454.609 -0.208838 4.47513 0
M  V30 4679 C 456.353 -1.90595 3.79307 0
M  V30 4680 C 454.26 -0.793814 5.86048 0
M  V30 4681 H 453.19 -0.25474 0.709665 0
M  V30 4682 H 455.841 0.0722206 1.83358 0
M  V30 4683 H 454.223 -2.04152 3.3932 0
M  V30 4684 H 455.397 0.562463 4.57354 0
M  V30 4685 H 453.712 0.350889 4.14919 0
M  V30 4686 H 456.309 -2.35284 4.80151 0
M  V30 4687 H 456.652 -2.74074 3.13352 0
M  V30 4688 H 457.185 -1.17798 3.79958 0
M  V30 4689 H 453.924 0.00240855 6.555 0
M  V30 4690 H 453.444 -1.53404 5.79851 0
M  V30 4691 H 455.123 -1.2894 6.34022 0
M  V30 4692 N 455.255 -1.55392 -0.262866 0
M  V30 4693 C 456.48 -1.80847 -1.01533 0
M  V30 4694 C 456.905 -0.584946 -1.78774 0
M  V30 4695 O 456.263 0.465701 -1.75217 0
M  V30 4696 C 456.311 -3.03866 -1.94159 0
M  V30 4697 O 455.415 -2.79662 -3.03089 0
M  V30 4698 H 454.756 -0.597441 -0.289759 0
M  V30 4699 H 457.286 -2.02553 -0.288698 0
M  V30 4700 H 457.296 -3.32872 -2.35924 0
M  V30 4701 H 455.971 -3.92564 -1.37354 0
M  V30 4702 H 454.548 -2.61781 -2.65566 0
M  V30 4703 N 456.733 0.527833 -1.48498 0
M  V30 4704 C 457.961 1.30823 -1.6029 0
M  V30 4705 C 458.376 1.86945 -0.263974 0
M  V30 4706 O 457.733 1.6651 0.747034 0
M  V30 4707 C 457.784 2.45756 -2.65116 0
M  V30 4708 O 457.505 1.91946 -3.93813 0
M  V30 4709 C 459.006 3.37543 -2.87367 0
M  V30 4710 H 456.226 0.397763 -0.540394 0
M  V30 4711 H 458.77 0.636529 -1.94341 0
M  V30 4712 H 456.925 3.08806 -2.33917 0
M  V30 4713 H 457.339 2.67195 -4.51339 0
M  V30 4714 H 458.813 4.14532 -3.6451 0
M  V30 4715 H 459.29 3.92905 -1.9627 0
M  V30 4716 H 459.896 2.80283 -3.19878 0
M  V30 4717 N 458.211 1.37122 0.776871 0
M  V30 4718 C 459.457 1.3325 1.53675 0
M  V30 4719 C 459.812 -0.0839891 1.92217 0
M  V30 4720 O 459.105 -1.04145 1.60824 0
M  V30 4721 C 459.299 2.20068 2.81611 0
M  V30 4722 C 459.128 3.70016 2.55574 0
M  V30 4723 C 457.898 4.39144 2.4996 0
M  V30 4724 C 460.096 4.62996 2.23917 0
M  V30 4725 N 458.078 5.74663 2.15953 0
M  V30 4726 C 459.449 5.86854 2.00005 0
M  V30 4727 C 461.504 4.51433 2.1003 0
M  V30 4728 C 460.207 7.00446 1.63609 0
M  V30 4729 C 462.233 5.64905 1.75033 0
M  V30 4730 C 461.595 6.8781 1.51977 0
M  V30 4731 H 457.694 0.542878 0.562856 0
M  V30 4732 H 460.278 1.72295 0.906784 0
M  V30 4733 H 458.449 1.83248 3.42454 0
M  V30 4734 H 460.181 2.07492 3.47461 0
M  V30 4735 H 456.936 3.92088 2.65639 0
M  V30 4736 H 457.36 6.46268 2.0166 0
M  V30 4737 H 462.002 3.56987 2.26539 0
M  V30 4738 H 459.72 7.94831 1.45837 0
M  V30 4739 H 463.306 5.57926 1.64952 0
M  V30 4740 H 462.186 7.74126 1.25296 0
M  V30 4741 N 459.689 -1.00246 1.21608 0
M  V30 4742 C 460.619 -2.10921 1.00172 0
M  V30 4743 C 461.6 -1.69938 -0.0741587 0
M  V30 4744 O 462.785 -1.94009 0.0861753 0
M  V30 4745 C 459.915 -3.42618 0.568355 0
M  V30 4746 C 458.869 -3.97407 1.58909 0
M  V30 4747 C 458.195 -5.25038 1.01187 0
M  V30 4748 C 459.495 -4.2918 2.97661 0
M  V30 4749 H 461.189 -2.29112 1.92739 0
M  V30 4750 H 458.735 -1.10101 0.928102 0
M  V30 4751 H 460.688 -4.19444 0.405555 0
M  V30 4752 H 459.412 -3.24227 -0.392961 0
M  V30 4753 H 458.071 -3.22703 1.73949 0
M  V30 4754 H 457.719 -5.02982 0.0421965 0
M  V30 4755 H 457.419 -5.62661 1.6937 0
M  V30 4756 H 458.943 -6.04507 0.860448 0
M  V30 4757 H 460.357 -4.96839 2.86049 0
M  V30 4758 H 458.754 -4.77952 3.6288 0
M  V30 4759 H 459.824 -3.3735 3.48315 0
M  V30 4760 N 461.167 -1.02423 -1.1978 0
M  V30 4761 C 462.395 -0.737456 -1.93311 0
M  V30 4762 C 462.81 0.703023 -1.75223 0
M  V30 4763 O 462.167 1.47761 -1.07112 0
M  V30 4764 C 462.218 -1.0733 -3.45199 0
M  V30 4765 O 461.939 -2.4572 -3.62702 0
M  V30 4766 C 463.44 -0.80866 -4.35862 0
M  V30 4767 H 460.66 -0.2702 -0.614193 0
M  V30 4768 H 463.204 -1.36747 -1.52054 0
M  V30 4769 H 461.359 -0.488545 -3.84307 0
M  V30 4770 H 461.773 -2.58081 -4.56612 0
M  V30 4771 H 463.247 -1.09365 -5.41057 0
M  V30 4772 H 463.724 0.257025 -4.38447 0
M  V30 4773 H 464.33 -1.37592 -4.02428 0
M  V30 4774 N 462.645 1.35699 -0.801477 0
M  V30 4775 C 463.608 2.28199 -0.213994 0
M  V30 4776 C 464.608 1.49359 0.595691 0
M  V30 4777 O 465.798 1.69186 0.414921 0
M  V30 4778 C 462.93 3.33587 0.702297 0
M  V30 4779 H 464.123 2.81666 -1.02976 0
M  V30 4780 H 461.676 1.45467 -0.571759 0
M  V30 4781 H 462.411 2.85297 1.54195 0
M  V30 4782 H 462.196 3.91906 0.123484 0
M  V30 4783 H 463.686 4.02638 1.10783 0
M  V30 4784 N 464.123 0.554532 1.47522 0
M  V30 4785 C 465.086 -0.184174 2.28459 0
M  V30 4786 C 466.086 -0.845195 1.36796 0
M  V30 4787 O 467.276 -0.701467 1.59452 0
M  V30 4788 C 464.408 -1.26903 3.16399 0
M  V30 4789 H 465.601 0.526751 2.95238 0
M  V30 4790 H 463.154 0.311375 1.53167 0
M  V30 4791 H 463.889 -2.01244 2.54306 0
M  V30 4792 H 463.674 -0.799883 3.83854 0
M  V30 4793 H 465.164 -1.78794 3.77389 0
M  V30 4794 N 465.601 -1.54893 0.290851 0
M  V30 4795 C 466.849 -1.99538 -0.320756 0
M  V30 4796 C 467.17 -1.18075 -1.55188 0
M  V30 4797 O 466.44 -0.274162 -1.93972 0
M  V30 4798 H 465.02 -0.737052 -0.121507 0
M  V30 4799 H 467.682 -1.90755 0.399832 0
M  V30 4800 H 466.778 -3.06282 -0.599802 0
M  V30 4801 N 467.08 -0.0183926 -1.57589 0
M  V30 4802 C 468.327 0.662562 -1.91354 0
M  V30 4803 C 468.655 1.72747 -0.893788 0
M  V30 4804 O 467.91 1.9545 0.0988509 0
M  V30 4805 C 468.209 1.32676 -3.31861 0
M  V30 4806 C 467.875 0.393267 -4.49182 0
M  V30 4807 C 466.537 0.136302 -4.81007 0
M  V30 4808 C 468.889 -0.248366 -5.20608 0
M  V30 4809 C 466.217 -0.770282 -5.81621 0
M  V30 4810 C 468.569 -1.14294 -6.22189 0
M  V30 4811 C 467.233 -1.4089 -6.52462 0
M  V30 4812 H 466.503 0.242448 -0.700214 0
M  V30 4813 H 469.15 -0.0778629 -1.91342 0
M  V30 4814 H 467.455 2.14168 -3.28084 0
M  V30 4815 H 469.152 1.86001 -3.55253 0
M  V30 4816 H 465.742 0.603723 -4.24327 0
M  V30 4817 H 469.926 -0.062883 -4.9626 0
M  V30 4818 H 465.182 -0.984154 -6.03427 0
M  V30 4819 H 469.356 -1.64637 -6.76659 0
M  V30 4820 H 466.983 -2.11306 -7.30242 0
M  V30 4821 N 468.558 1.5553 0.254621 0
M  V30 4822 C 469.807 1.76202 0.981612 0
M  V30 4823 C 470.12 0.580883 1.86776 0
M  V30 4824 O 471.326 0.670448 2.63092 0
M  V30 4825 C 469.782 3.11921 1.79537 0
M  V30 4826 C 469.39 4.37659 0.956991 0
M  V30 4827 C 471.134 3.41936 2.51555 0
M  V30 4828 C 469.041 5.64411 1.76619 0
M  V30 4829 H 467.971 0.656841 0.370237 0
M  V30 4830 H 470.622 1.81969 0.236556 0
M  V30 4831 H 469.004 3.00241 2.58208 0
M  V30 4832 H 470.178 4.60307 0.21315 0
M  V30 4833 H 468.493 4.14922 0.350497 0
M  V30 4834 H 471.09 4.33849 3.12536 0
M  V30 4835 H 471.433 2.62905 3.22779 0
M  V30 4836 H 471.966 3.54797 1.799 0
M  V30 4837 H 468.705 6.46241 1.09783 0
M  V30 4838 H 468.225 5.45877 2.48551 0
M  V30 4839 H 469.904 6.03386 2.33527 0
M  V30 4840 N 470.036 -0.519951 1.48776 0
M  V30 4841 C 470.986 -1.61995 1.60442 0
M  V30 4842 C 471.97 -1.54155 0.460991 0
M  V30 4843 O 473.162 -1.62006 0.712965 0
M  V30 4844 C 470.291 -3.00683 1.65664 0
M  V30 4845 C 469.377 -3.1359 2.8552 0
M  V30 4846 N 469.768 -2.96441 4.09825 0
M  V30 4847 C 468.066 -3.44662 2.83062 0
M  V30 4848 C 468.767 -3.1303 4.90293 0
M  V30 4849 N 467.743 -3.41058 4.23297 0
M  V30 4850 H 471.545 -1.47362 2.54287 0
M  V30 4851 H 469.059 -0.725649 1.45286 0
M  V30 4852 H 471.056 -3.79712 1.72117 0
M  V30 4853 H 469.716 -3.16401 0.729425 0
M  V30 4854 H 470.727 -2.72999 4.40104 0
M  V30 4855 H 467.404 -3.66675 1.9964 0
M  V30 4856 H 468.794 -3.04424 5.98979 0
M  V30 4857 N 471.514 -1.37532 -0.769588 0
M  V30 4858 C 472.444 -1.36172 -1.89682 0
M  V30 4859 C 473.425 -0.23001 -1.68538 0
M  V30 4860 O 474.61 -0.43069 -1.89364 0
M  V30 4861 C 471.74 -1.1701 -3.26995 0
M  V30 4862 C 470.694 -2.27216 -3.62708 0
M  V30 4863 C 470.02 -1.93174 -4.98586 0
M  V30 4864 C 471.32 -3.6941 -3.69234 0
M  V30 4865 H 473.014 -2.30499 -1.91078 0
M  V30 4866 H 470.56 -1.10953 -0.917902 0
M  V30 4867 H 472.513 -1.14688 -4.05493 0
M  V30 4868 H 471.237 -0.191395 -3.26039 0
M  V30 4869 H 469.896 -2.28697 -2.86519 0
M  V30 4870 H 469.544 -0.938281 -4.94171 0
M  V30 4871 H 469.244 -2.66973 -5.23449 0
M  V30 4872 H 470.768 -1.92443 -5.79481 0
M  V30 4873 H 472.182 -3.70047 -4.37879 0
M  V30 4874 H 470.579 -4.4228 -4.05597 0
M  V30 4875 H 471.649 -4.0288 -2.69844 0
M  V30 4876 N 472.992 0.995999 -1.22138 0
M  V30 4877 C 474.238 1.73767 -1.04561 0
M  V30 4878 C 474.571 1.89633 0.418698 0
M  V30 4879 O 473.846 1.43723 1.3105 0
M  V30 4880 C 474.129 3.14505 -1.75382 0
M  V30 4881 C 473.982 3.06306 -3.29388 0
M  V30 4882 C 475.301 4.13615 -1.50369 0
M  V30 4883 H 472.42 0.630728 -0.38125 0
M  V30 4884 H 475.062 1.16057 -1.50435 0
M  V30 4885 H 473.212 3.63775 -1.36383 0
M  V30 4886 H 474.884 2.64681 -3.77812 0
M  V30 4887 H 473.127 2.43186 -3.59226 0
M  V30 4888 H 473.798 4.05884 -3.74116 0
M  V30 4889 H 476.274 3.73089 -1.84239 0
M  V30 4890 H 475.15 5.10212 -2.02421 0
M  V30 4891 H 475.411 4.39949 -0.435611 0
M  V30 4892 N 474.47 1.03057 1.19235 0
M  V30 4893 C 475.38 0.622922 2.26179 0
M  V30 4894 C 476.396 -0.346113 1.70523 0
M  V30 4895 O 477.572 -0.203572 2.00369 0
M  V30 4896 C 474.637 -0.0182063 3.46695 0
M  V30 4897 C 473.698 0.998546 4.17526 0
M  V30 4898 C 472.931 0.387917 5.32288 0
M  V30 4899 O 473.154 -0.808668 5.64639 0
M  V30 4900 O 472.088 1.1116 5.91546 0
M  V30 4901 H 475.914 1.51363 2.63292 0
M  V30 4902 H 473.499 0.800856 1.26122 0
M  V30 4903 H 475.381 -0.375606 4.19723 0
M  V30 4904 H 474.056 -0.882895 3.11427 0
M  V30 4905 H 472.963 1.40756 3.4661 0
M  V30 4906 H 474.296 1.83366 4.56769 0
M  V30 4907 N 475.948 -1.35272 0.808662 0
M  V30 4908 C 476.896 -2.31663 0.208606 0
M  V30 4909 C 477.89 -1.56731 -0.642778 0
M  V30 4910 O 479.096 -1.71843 -0.53571 0
M  V30 4911 H 475.471 -0.750421 0.0486993 0
M  V30 4912 H 477.442 -2.79814 1.03666 0
M  V30 4913 C 476.191 -3.42008 -0.626573 0
M  V30 4914 H 475.514 -3.99795 0.0192103 0
M  V30 4915 H 476.954 -4.11727 -1.01278 0
M  V30 4916 C 475.413 -2.85226 -1.79298 0
M  V30 4917 O 475.943 -2.78945 -2.89055 0
M  V30 4918 N 474.149 -2.42245 -1.60516 0
M  V30 4919 H 473.696 -2.47554 -0.712375 0
M  V30 4920 H 473.654 -2.04603 -2.38715 0
M  V30 4921 N 477.426 -0.562348 -1.47226 0
M  V30 4922 C 478.651 -0.0432632 -2.07355 0
M  V30 4923 C 479.076 1.24332 -1.41149 0
M  V30 4924 O 478.434 1.74603 -0.488226 0
M  V30 4925 C 478.482 0.130288 -3.60365 0
M  V30 4926 O 477.586 1.19166 -3.94808 0
M  V30 4927 H 476.927 -0.0536334 -0.66183 0
M  V30 4928 H 479.457 -0.779495 -1.89169 0
M  V30 4929 H 479.467 0.342881 -4.06557 0
M  V30 4930 H 478.142 -0.809389 -4.07948 0
M  V30 4931 H 476.719 0.959153 -3.60354 0
M  V30 4932 N 478.904 1.54736 -0.299062 0
M  V30 4933 C 480.152 1.99706 0.31017 0
M  V30 4934 C 480.473 1.18896 1.54559 0
M  V30 4935 O 479.743 0.284445 1.93824 0
M  V30 4936 H 478.323 0.737686 0.117596 0
M  V30 4937 H 480.985 1.9054 -0.409943 0
M  V30 4938 H 480.081 3.06596 0.58355 0
M  V30 4939 N 480.382 0.0267497 1.57577 0
M  V30 4940 C 481.659 -0.690926 1.82991 0
M  V30 4941 C 482.039 -1.90471 0.910164 0
M  V30 4942 O 481.387 -2.28474 -0.0347985 0
M  V30 4943 C 481.597 -1.07139 3.32148 0
M  V30 4944 C 482.945 -1.46402 3.98562 0
M  V30 4945 O 483.969 -1.16443 3.36629 0
M  V30 4946 O 482.828 -2.02214 5.07712 0
M  V30 4947 H 479.922 -0.338747 0.75444 0
M  V30 4948 H 482.468 0.0542506 1.69613 0
M  V30 4949 H 481.24 -0.207394 3.9075 0
M  V30 4950 H 480.863 -1.87481 3.50623 0
M  V30 4951 N 481.861 -1.55662 -0.24637 0
M  V30 4952 C 483.272 -1.67953 -0.81539 0
M  V30 4953 C 483.623 -0.624302 -1.86002 0
M  V30 4954 O 482.748 0.229328 -2.15181 0
M  V30 4955 C 483.343 -3.04484 -1.48576 0
M  V30 4956 C 481.902 -3.18713 -2.00248 0
M  V30 4957 C 481.049 -2.6383 -0.853766 0
M  V30 4958 H 484 -1.58685 -0.0221692 0
M  V30 4959 H 484.021 -2.98959 -2.3538 0
M  V30 4960 H 483.533 -3.81264 -0.725222 0
M  V30 4961 H 481.634 -2.46757 -2.79181 0
M  V30 4962 H 481.747 -4.25628 -2.1995 0
M  V30 4963 H 480.111 -2.21667 -1.25442 0
M  V30 4964 H 480.894 -3.43135 -0.106302 0
M  V30 4965 N 483.339 0.512053 -1.4905 0
M  V30 4966 C 484.585 1.26613 -1.59187 0
M  V30 4967 C 484.94 1.90494 -0.270163 0
M  V30 4968 O 484.233 1.77204 0.728648 0
M  V30 4969 C 484.427 2.36446 -2.68008 0
M  V30 4970 C 484.256 1.83334 -4.10632 0
M  V30 4971 C 483.026 1.65131 -4.77556 0
M  V30 4972 C 485.224 1.35153 -4.96224 0
M  V30 4973 N 483.206 1.06833 -6.04533 0
M  V30 4974 C 484.577 0.889186 -6.13591 0
M  V30 4975 C 486.632 1.23623 -4.82309 0
M  V30 4976 C 485.335 0.322953 -7.18575 0
M  V30 4977 C 487.361 0.683978 -5.87431 0
M  V30 4978 C 486.723 0.2318 -7.04018 0
M  V30 4979 H 482.822 0.453678 -0.636946 0
M  V30 4980 H 485.406 0.575217 -1.86009 0
M  V30 4981 H 483.577 3.03012 -2.42978 0
M  V30 4982 H 485.309 3.03485 -2.67729 0
M  V30 4983 H 482.064 1.89178 -4.34176 0
M  V30 4984 H 482.488 0.796425 -6.72299 0
M  V30 4985 H 487.13 1.57184 -3.92496 0
M  V30 4986 H 484.848 -0.024943 -8.08096 0
M  V30 4987 H 488.434 0.597694 -5.78722 0
M  V30 4988 H 487.314 -0.188869 -7.83973 0
M  V30 4989 N 484.817 1.37938 0.762283 0
M  V30 4990 C 485.727 1.36681 1.90671 0
M  V30 4991 C 486.743 0.265078 1.71969 0
M  V30 4992 O 487.919 0.502055 1.95042 0
M  V30 4993 C 484.984 1.18211 3.25925 0
M  V30 4994 C 484.045 2.3811 3.57214 0
M  V30 4995 C 483.278 2.20512 4.86014 0
M  V30 4996 O 483.501 1.19429 5.57757 0
M  V30 4997 O 482.435 3.08911 5.16583 0
M  V30 4998 H 486.261 2.33091 1.94685 0
M  V30 4999 H 483.846 1.18767 0.906356 0
M  V30 5000 H 485.728 1.09937 4.06807 0
M  V30 5001 H 484.403 0.248807 3.22742 0
M  V30 5002 H 483.31 2.51958 2.76529 0
M  V30 5003 H 484.643 3.30041 3.65149 0
M  V30 5004 N 486.295 -0.989507 1.22664 0
M  V30 5005 C 487.243 -2.10148 0.997035 0
M  V30 5006 C 488.237 -1.6929 -0.0609783 0
M  V30 5007 O 489.443 -1.79766 0.0917523 0
M  V30 5008 H 485.818 -0.687256 0.305259 0
M  V30 5009 H 487.789 -2.26685 1.94053 0
M  V30 5010 C 486.538 -3.4257 0.595085 0
M  V30 5011 H 485.861 -3.74453 1.40089 0
M  V30 5012 H 487.301 -4.21344 0.473869 0
M  V30 5013 C 485.76 -3.29638 -0.695725 0
M  V30 5014 O 486.29 -3.61709 -1.74727 0
M  V30 5015 N 484.496 -2.82814 -0.668173 0
M  V30 5016 H 484.043 -2.56914 0.18787 0
M  V30 5017 H 484.001 -2.74544 -1.5321 0
M  V30 5018 N 487.773 -1.03688 -1.18687 0
M  V30 5019 C 489.02 -0.73803 -1.88572 0
M  V30 5020 C 489.348 0.733973 -1.8012 0
M  V30 5021 O 488.603 1.55098 -1.19344 0
M  V30 5022 C 488.902 -1.14477 -3.3857 0
M  V30 5023 C 488.568 -2.61641 -3.67226 0
M  V30 5024 C 487.23 -3.01846 -3.74757 0
M  V30 5025 C 489.582 -3.56812 -3.79914 0
M  V30 5026 C 486.91 -4.36118 -3.92451 0
M  V30 5027 C 489.262 -4.90799 -3.99123 0
M  V30 5028 C 487.926 -5.3068 -4.04888 0
M  V30 5029 H 487.196 -0.270064 -0.690034 0
M  V30 5030 H 489.843 -1.3012 -1.40503 0
M  V30 5031 H 488.148 -0.500337 -3.88592 0
M  V30 5032 H 489.845 -0.89095 -3.90977 0
M  V30 5033 H 486.435 -2.29498 -3.61979 0
M  V30 5034 H 490.619 -3.26899 -3.73431 0
M  V30 5035 H 485.875 -4.66542 -3.95157 0
M  V30 5036 H 490.049 -5.64451 -4.07882 0
M  V30 5037 H 487.676 -6.34733 -4.18351 0
M  V30 5038 N 489.251 1.34841 -0.815825 0
M  V30 5039 C 490.183 2.28409 -0.190265 0
M  V30 5040 C 491.196 1.50705 0.615771 0
M  V30 5041 O 492.385 1.72822 0.446616 0
M  V30 5042 C 489.485 3.30441 0.752446 0
M  V30 5043 C 488.658 4.37399 -0.00922152 0
M  V30 5044 C 487.717 5.19234 0.853351 0
M  V30 5045 O 486.743 5.68404 0.300919 0
M  V30 5046 N 487.945 5.38248 2.17416 0
M  V30 5047 H 490.71 2.82732 -0.994114 0
M  V30 5048 H 488.271 1.47289 -0.672129 0
M  V30 5049 H 490.263 3.82084 1.33394 0
M  V30 5050 H 488.833 2.76565 1.45707 0
M  V30 5051 H 488.053 3.86567 -0.771979 0
M  V30 5052 H 489.341 5.05992 -0.533807 0
M  V30 5053 H 488.739 4.99961 2.6468 0
M  V30 5054 H 487.296 5.93035 2.70467 0
M  V30 5055 N 490.729 0.570148 1.46925 0
M  V30 5056 C 491.677 -0.183181 2.31878 0
M  V30 5057 C 492.671 -0.896721 1.43719 0
M  V30 5058 O 493.877 -0.816536 1.60414 0
M  V30 5059 H 490.252 -0.077944 0.74795 0
M  V30 5060 H 492.223 0.552312 2.93244 0
M  V30 5061 C 490.972 -1.19172 3.2664 0
M  V30 5062 H 490.295 -0.652088 3.94446 0
M  V30 5063 H 491.735 -1.68946 3.88887 0
M  V30 5064 C 490.194 -2.24627 2.51086 0
M  V30 5065 O 490.724 -3.31773 2.26472 0
M  V30 5066 N 488.93 -1.98898 2.11867 0
M  V30 5067 H 488.477 -1.11777 2.32086 0
M  V30 5068 H 488.435 -2.6967 1.61634 0
M  V30 5069 N 492.207 -1.54576 0.307264 0
M  V30 5070 C 493.155 -2.25208 -0.581723 0
M  V30 5071 C 494.149 -1.26031 -1.13192 0
M  V30 5072 O 495.355 -1.43862 -1.08184 0
M  V30 5073 H 491.73 -0.723173 -0.206214 0
M  V30 5074 H 493.701 -2.98378 0.0364663 0
M  V30 5075 C 492.45 -3.01086 -1.73904 0
M  V30 5076 H 491.773 -3.77208 -1.32491 0
M  V30 5077 H 493.213 -3.5378 -2.33701 0
M  V30 5078 C 491.672 -2.08422 -2.64692 0
M  V30 5079 O 492.202 -1.65636 -3.65961 0
M  V30 5080 N 490.408 -1.74247 -2.32564 0
M  V30 5081 H 489.955 -2.09238 -1.50257 0
M  V30 5082 H 489.913 -1.12524 -2.93574 0
M  V30 5083 N 493.685 -0.035106 -1.57561 0
M  V30 5084 C 494.617 0.973604 -2.07494 0
M  V30 5085 C 495.63 1.28504 -0.999534 0
M  V30 5086 O 496.819 1.24864 -1.27559 0
M  V30 5087 C 493.919 2.29945 -2.48955 0
M  V30 5088 C 493.092 2.1723 -3.79644 0
M  V30 5089 C 492.151 3.328 -4.07592 0
M  V30 5090 O 491.177 3.09418 -4.77754 0
M  V30 5091 N 492.379 4.56779 -3.58236 0
M  V30 5092 H 495.144 0.547525 -2.94656 0
M  V30 5093 H 492.705 0.151515 -1.61189 0
M  V30 5094 H 494.697 3.06097 -2.64739 0
M  V30 5095 H 493.267 2.64173 -1.67126 0
M  V30 5096 H 492.487 1.25768 -3.73599 0
M  V30 5097 H 493.775 2.05945 -4.65257 0
M  V30 5098 H 493.173 4.78668 -3.01485 0
M  V30 5099 H 491.73 5.30079 -3.79288 0
M  V30 5100 N 495.163 1.55791 0.238111 0
M  V30 5101 C 496.126 1.90239 1.27835 0
M  V30 5102 C 497.126 0.779552 1.4064 0
M  V30 5103 O 498.316 1.04747 1.3919 0
M  V30 5104 C 495.448 2.13859 2.65475 0
M  V30 5105 H 496.641 2.83262 0.985034 0
M  V30 5106 H 494.194 1.48818 0.477799 0
M  V30 5107 H 494.929 1.23334 2.99932 0
M  V30 5108 H 494.714 2.95643 2.57561 0
M  V30 5109 H 496.204 2.41664 3.40571 0
M  V30 5110 N 496.642 -0.504142 1.49319 0
M  V30 5111 C 497.572 -1.61473 1.68667 0
M  V30 5112 C 498.553 -1.61455 0.535378 0
M  V30 5113 O 499.738 -1.78245 0.770868 0
M  V30 5114 C 496.868 -2.99971 1.75028 0
M  V30 5115 C 495.822 -3.14854 2.89916 0
M  V30 5116 C 495.148 -4.54671 2.81387 0
M  V30 5117 C 496.448 -2.95176 4.30893 0
M  V30 5118 H 498.142 -1.45535 2.61648 0
M  V30 5119 H 495.688 -0.698711 1.25913 0
M  V30 5120 H 497.641 -3.77562 1.8715 0
M  V30 5121 H 496.365 -3.1699 0.786441 0
M  V30 5122 H 495.024 -2.39687 2.77391 0
M  V30 5123 H 494.672 -4.68562 1.82917 0
M  V30 5124 H 494.372 -4.6557 3.58494 0
M  V30 5125 H 495.896 -5.34327 2.95512 0
M  V30 5126 H 497.31 -3.62538 4.44116 0
M  V30 5127 H 495.707 -3.17549 5.09198 0
M  V30 5128 H 496.777 -1.91332 4.45556 0
M  V30 5129 N 498.12 -1.38341 -0.754957 0
M  V30 5130 C 499.348 -1.37704 -1.54419 0
M  V30 5131 C 499.763 0.0335243 -1.8877 0
M  V30 5132 O 499.12 0.999773 -1.52679 0
M  V30 5133 C 499.171 -2.23136 -2.84416 0
M  V30 5134 O 498.892 -3.58697 -2.51531 0
M  V30 5135 C 500.393 -2.30664 -3.78562 0
M  V30 5136 H 497.613 -0.471061 -0.477852 0
M  V30 5137 H 500.157 -1.81902 -0.934446 0
M  V30 5138 H 498.312 -1.82403 -3.41772 0
M  V30 5139 H 498.726 -4.03665 -3.34896 0
M  V30 5140 H 500.2 -2.9473 -4.66732 0
M  V30 5141 H 500.677 -1.3199 -4.18898 0
M  V30 5142 H 501.283 -2.71781 -3.27131 0
M  V30 5143 N 499.598 0.982988 -1.23187 0
M  V30 5144 C 500.828 1.75666 -1.08743 0
M  V30 5145 C 501.236 1.85662 0.364195 0
M  V30 5146 O 500.579 1.33317 1.26382 0
M  V30 5147 C 500.641 3.20144 -1.63549 0
M  V30 5148 C 500.305 3.33665 -3.12277 0
M  V30 5149 C 501.302 3.20194 -4.096 0
M  V30 5150 C 498.987 3.58397 -3.51933 0
M  V30 5151 C 500.981 3.31256 -5.44563 0
M  V30 5152 C 498.668 3.69098 -4.87042 0
M  V30 5153 C 499.666 3.55537 -5.83166 0
M  V30 5154 O 499.354 3.65864 -7.1582 0
M  V30 5155 H 499.086 0.558194 -0.381307 0
M  V30 5156 H 501.64 1.24387 -1.63454 0
M  V30 5157 H 499.87 3.72659 -1.03256 0
M  V30 5158 H 501.559 3.79262 -1.4462 0
M  V30 5159 H 502.325 3.00987 -3.80305 0
M  V30 5160 H 498.204 3.68025 -2.77631 0
M  V30 5161 H 501.748 3.20588 -6.19572 0
M  V30 5162 H 497.645 3.87814 -5.16014 0
M  V30 5163 H 498.413 3.82675 -7.23534 0
M  V30 5164 N 501.076 1.04316 1.18135 0
M  V30 5165 C 502.322 0.758899 1.88712 0
M  V30 5166 C 502.677 -0.705863 1.78984 0
M  V30 5167 O 501.97 -1.50874 1.18101 0
M  V30 5168 C 502.164 1.16271 3.37958 0
M  V30 5169 C 501.993 2.66518 3.62213 0
M  V30 5170 C 500.763 3.33702 3.79436 0
M  V30 5171 C 502.961 3.64739 3.62588 0
M  V30 5172 N 500.943 4.72904 3.91452 0
M  V30 5173 C 502.314 4.89627 3.80348 0
M  V30 5174 C 504.369 3.58333 3.4569 0
M  V30 5175 C 503.072 6.08879 3.8296 0
M  V30 5176 C 505.098 4.77016 3.49586 0
M  V30 5177 C 504.46 6.00724 3.67845 0
M  V30 5178 H 500.559 0.329795 0.709055 0
M  V30 5179 H 503.143 1.33334 1.4188 0
M  V30 5180 H 501.314 0.616319 3.83479 0
M  V30 5181 H 503.046 0.829205 3.96114 0
M  V30 5182 H 499.801 2.84105 3.78921 0
M  V30 5183 H 500.225 5.45258 4.01277 0
M  V30 5184 H 504.867 2.63663 3.30517 0
M  V30 5185 H 502.585 7.03903 3.96921 0
M  V30 5186 H 506.171 4.73703 3.37782 0
M  V30 5187 H 505.051 6.91022 3.70753 0
M  V30 5188 N 502.554 -1.34406 0.822964 0
M  V30 5189 C 503.464 -2.33298 0.246838 0
M  V30 5190 C 504.48 -1.62625 -0.618797 0
M  V30 5191 O 505.656 -1.94391 -0.526685 0
M  V30 5192 C 502.721 -3.41785 -0.581731 0
M  V30 5193 C 501.782 -4.28206 0.306309 0
M  V30 5194 C 501.015 -5.31512 -0.48281 0
M  V30 5195 O 501.238 -5.43973 -1.71607 0
M  V30 5196 O 500.172 -6.01749 0.134884 0
M  V30 5197 H 503.998 -2.84401 1.06534 0
M  V30 5198 H 501.583 -1.37466 0.585108 0
M  V30 5199 H 503.465 -4.08028 -1.05313 0
M  V30 5200 H 502.14 -2.92925 -1.37756 0
M  V30 5201 H 501.047 -3.64885 0.825199 0
M  V30 5202 H 502.38 -4.80507 1.06649 0
M  V30 5203 N 504.032 -0.577932 -1.46621 0
M  V30 5204 C 505.272 -0.0643097 -2.04299 0
M  V30 5205 C 505.636 1.26967 -1.44026 0
M  V30 5206 O 506.837 1.87224 -1.92875 0
M  V30 5207 C 505.108 0.00547588 -3.574 0
M  V30 5208 S 506.667 0.462216 -4.36359 0
M  V30 5209 H 503.485 -0.0351573 -0.71013 0
M  V30 5210 H 506.087 -0.76935 -1.79725 0
M  V30 5211 H 504.791 -0.969423 -3.98786 0
M  V30 5212 H 504.322 0.733435 -3.86503 0
M  V30 5213 H 506.337 1.71791 -4.65513 0
M  V30 5214 N 505.51 1.54411 -0.315457 0
M  V30 5215 C 506.756 2.00716 0.289972 0
M  V30 5216 C 507.089 1.2034 1.5242 0
M  V30 5217 O 506.364 0.283579 1.92422 0
M  V30 5218 C 506.647 3.54507 0.632196 0
M  V30 5219 C 506.5 4.45615 -0.61218 0
M  V30 5220 C 507.819 4.15421 1.45305 0
M  V30 5221 H 504.938 0.729637 0.10392 0
M  V30 5222 H 507.58 1.8506 -0.430427 0
M  V30 5223 H 505.73 3.67979 1.24595 0
M  V30 5224 H 507.402 4.44026 -1.25053 0
M  V30 5225 H 505.645 4.15621 -1.24264 0
M  V30 5226 H 506.316 5.51022 -0.328379 0
M  V30 5227 H 508.792 4.05474 0.934331 0
M  V30 5228 H 507.668 5.23157 1.66127 0
M  V30 5229 H 507.929 3.68223 2.44671 0
M  V30 5230 N 506.988 0.0434614 1.5754 0
M  V30 5231 C 508.218 -0.640905 1.96408 0
M  V30 5232 C 508.626 -1.65365 0.919297 0
M  V30 5233 O 507.969 -1.83395 -0.105795 0
M  V30 5234 C 508.031 -1.39141 3.31482 0
M  V30 5235 C 507.695 -0.535375 4.53853 0
M  V30 5236 C 508.692 0.195335 5.19533 0
M  V30 5237 C 506.377 -0.468564 5.0011 0
M  V30 5238 C 508.371 0.981377 6.298 0
M  V30 5239 C 506.058 0.321171 6.10255 0
M  V30 5240 C 507.056 1.04484 6.74961 0
M  V30 5241 O 506.744 1.8216 7.8299 0
M  V30 5242 H 506.476 -0.180584 0.651433 0
M  V30 5243 H 509.03 0.103848 2.05137 0
M  V30 5244 H 507.26 -2.18162 3.19284 0
M  V30 5245 H 508.949 -1.96526 3.55151 0
M  V30 5246 H 509.715 0.15314 4.84758 0
M  V30 5247 H 505.594 -1.02142 4.49542 0
M  V30 5248 H 509.138 1.54674 6.80237 0
M  V30 5249 H 505.035 0.365032 6.44467 0
M  V30 5250 H 505.803 1.74289 7.99728 0
M  V30 5251 N 508.466 -1.55915 -0.229846 0
M  V30 5252 C 509.396 -1.94754 -1.28815 0
M  V30 5253 C 510.377 -0.814657 -1.49323 0
M  V30 5254 O 511.562 -1.07631 -1.61645 0
M  V30 5255 C 508.692 -2.25705 -2.63959 0
M  V30 5256 C 507.646 -3.41406 -2.5812 0
M  V30 5257 C 506.972 -3.57941 -3.97218 0
M  V30 5258 C 508.272 -4.76616 -2.13623 0
M  V30 5259 H 509.966 -2.83404 -0.965547 0
M  V30 5260 H 507.512 -1.36353 -0.463028 0
M  V30 5261 H 509.465 -2.51467 -3.38146 0
M  V30 5262 H 508.189 -1.339 -2.9789 0
M  V30 5263 H 506.848 -3.1568 -1.86391 0
M  V30 5264 H 506.496 -2.63526 -4.28443 0
M  V30 5265 H 506.196 -4.35757 -3.94195 0
M  V30 5266 H 507.72 -3.86042 -4.73079 0
M  V30 5267 H 509.134 -5.01637 -2.77549 0
M  V30 5268 H 507.531 -5.57655 -2.21677 0
M  V30 5269 H 508.601 -4.7253 -1.08829 0
M  V30 5270 N 509.944 0.496216 -1.49584 0
M  V30 5271 C 510.874 1.60576 -1.69521 0
M  V30 5272 C 511.855 1.61169 -0.543933 0
M  V30 5273 O 513.04 1.77834 -0.78031 0
M  V30 5274 C 510.17 2.99038 -1.76616 0
M  V30 5275 C 509.124 3.13312 -2.91581 0
M  V30 5276 C 508.45 4.53172 -2.83794 0
M  V30 5277 C 509.75 2.92886 -4.32452 0
M  V30 5278 H 511.444 1.44146 -2.62416 0
M  V30 5279 H 508.99 0.692024 -1.26282 0
M  V30 5280 H 510.943 3.76564 -1.8915 0
M  V30 5281 H 509.667 3.16568 -0.80324 0
M  V30 5282 H 508.326 2.38213 -2.78658 0
M  V30 5283 H 507.974 4.67585 -1.854 0
M  V30 5284 H 507.674 4.63662 -3.60958 0
M  V30 5285 H 509.198 5.32752 -2.98342 0
M  V30 5286 H 510.612 3.60178 -4.46032 0
M  V30 5287 H 509.009 3.14844 -5.10875 0
M  V30 5288 H 510.079 1.88966 -4.46565 0
M  V30 5289 N 511.423 1.38739 0.74761 0
M  V30 5290 C 512.356 1.3083 1.86972 0
M  V30 5291 C 513.334 0.184229 1.61553 0
M  V30 5292 O 514.518 0.36256 1.8498 0
M  V30 5293 C 511.645 1.02854 3.22705 0
M  V30 5294 C 510.691 2.17281 3.67003 0
M  V30 5295 S 511.524 3.79468 3.77842 0
M  V30 5296 C 512.68 3.53692 5.16385 0
M  V30 5297 H 512.913 2.258 1.93395 0
M  V30 5298 H 510.446 1.24646 0.911199 0
M  V30 5299 H 512.404 0.87397 4.01089 0
M  V30 5300 H 511.065 0.0959295 3.13953 0
M  V30 5301 H 510.258 1.93267 4.65472 0
M  V30 5302 H 509.86 2.28876 2.9579 0
M  V30 5303 H 512.152 3.10176 6.02327 0
M  V30 5304 H 513.095 4.51576 5.45422 0
M  V30 5305 H 513.503 2.8807 4.85464 0
M  V30 5306 N 512.901 -0.976442 1.23707 0
M  V30 5307 C 514.147 -1.72081 1.07312 0
M  V30 5308 C 514.48 -1.90275 -0.388476 0
M  V30 5309 O 513.755 -1.4579 -1.28746 0
M  V30 5310 C 514.038 -3.11675 1.80363 0
M  V30 5311 C 513.891 -3.01027 3.3422 0
M  V30 5312 C 515.21 -4.1117 1.5693 0
M  V30 5313 H 512.329 -0.624583 0.391236 0
M  V30 5314 H 514.971 -1.13649 1.52263 0
M  V30 5315 H 513.121 -3.61559 1.42153 0
M  V30 5316 H 514.793 -2.58637 3.81975 0
M  V30 5317 H 513.036 -2.3744 3.63049 0
M  V30 5318 H 513.707 -3.9988 3.80525 0
M  V30 5319 H 516.183 -3.7011 1.90151 0
M  V30 5320 H 515.059 -5.06928 2.10513 0
M  V30 5321 H 515.32 -4.392 0.505548 0
M  V30 5322 N 514.379 -1.04941 -1.1758 0
M  V30 5323 C 515.607 -0.778294 -1.91703 0
M  V30 5324 C 516.022 0.665697 -1.76675 0
M  V30 5325 O 515.379 1.45456 -1.10222 0
M  V30 5326 C 515.43 -1.14628 -3.42845 0
M  V30 5327 O 515.151 -2.53359 -3.57409 0
M  V30 5328 C 516.652 -0.900931 -4.34049 0
M  V30 5329 H 513.872 -0.283167 -0.608323 0
M  V30 5330 H 516.416 -1.39942 -1.49119 0
M  V30 5331 H 514.571 -0.569953 -3.83184 0
M  V30 5332 H 514.985 -2.67709 -4.51035 0
M  V30 5333 H 516.459 -1.20817 -5.38616 0
M  V30 5334 H 516.936 0.163966 -4.38894 0
M  V30 5335 H 517.542 -1.46097 -3.99419 0
M  V30 5336 N 515.857 1.33968 -0.830081 0
M  V30 5337 C 516.79 2.27303 -0.202182 0
M  V30 5338 C 517.768 1.49235 0.645581 0
M  V30 5339 O 518.952 1.78433 0.607762 0
M  V30 5340 C 516.079 3.31025 0.716932 0
M  V30 5341 C 515.125 4.26466 -0.0542271 0
M  V30 5342 S 515.958 5.16707 -1.40622 0
M  V30 5343 C 517.114 6.23962 -0.492167 0
M  V30 5344 H 517.347 2.8021 -0.99346 0
M  V30 5345 H 514.88 1.41124 -0.626359 0
M  V30 5346 H 516.838 3.91271 1.24165 0
M  V30 5347 H 515.499 2.76951 1.4818 0
M  V30 5348 H 514.692 4.99858 0.644785 0
M  V30 5349 H 514.294 3.7051 -0.509722 0
M  V30 5350 H 516.586 6.76774 0.31347 0
M  V30 5351 H 517.529 6.97927 -1.19599 0
M  V30 5352 H 517.937 5.64447 -0.0774176 0
M  V30 5353 N 517.335 0.585699 1.46312 0
M  V30 5354 C 518.56 0.0762461 2.0726 0
M  V30 5355 C 518.985 -1.22071 1.43109 0
M  V30 5356 O 518.343 -1.73804 0.515942 0
M  V30 5357 C 518.391 -0.0729404 3.60526 0
M  V30 5358 O 517.495 -1.1287 3.96654 0
M  V30 5359 H 516.836 0.0641558 0.660893 0
M  V30 5360 H 519.366 0.809492 1.87905 0
M  V30 5361 H 519.376 -0.278158 4.07051 0
M  V30 5362 H 518.051 0.874188 4.06609 0
M  V30 5363 H 516.628 -0.901703 3.61834 0
M  V30 5364 N 518.813 -1.54241 0.323641 0
M  V30 5365 C 520.041 -2.04985 -0.280871 0
M  V30 5366 C 520.456 -1.19978 -1.45777 0
M  V30 5367 O 519.813 -0.230471 -1.81039 0
M  V30 5368 C 519.864 -3.54353 -0.715258 0
M  V30 5369 O 519.585 -4.36132 0.414817 0
M  V30 5370 C 521.086 -4.21189 -1.38257 0
M  V30 5371 H 518.306 -0.66851 -0.0577502 0
M  V30 5372 H 520.85 -1.99029 0.469852 0
M  V30 5373 H 519.005 -3.60596 -1.41596 0
M  V30 5374 H 519.419 -5.2445 0.0725227 0
M  V30 5375 H 520.893 -5.27154 -1.63745 0
M  V30 5376 H 521.37 -3.72307 -2.32989 0
M  V30 5377 H 521.976 -4.19085 -0.724447 0
M  V30 5378 N 520.291 -0.0518155 -1.57515 0
M  V30 5379 C 521.537 0.622745 -1.93002 0
M  V30 5380 C 521.87 1.70456 -0.930499 0
M  V30 5381 O 521.145 1.94452 0.0434086 0
M  V30 5382 C 521.428 1.21824 -3.38867 0
M  V30 5383 C 521.281 0.144434 -4.49568 0
M  V30 5384 C 522.6 2.12968 -3.8514 0
M  V30 5385 H 519.719 0.22491 -0.701844 0
M  V30 5386 H 522.361 -0.113711 -1.89659 0
M  V30 5387 H 520.511 1.8459 -3.41846 0
M  V30 5388 H 522.183 -0.48753 -4.58717 0
M  V30 5389 H 520.426 -0.527424 -4.30582 0
M  V30 5390 H 521.097 0.601127 -5.48717 0
M  V30 5391 H 523.573 1.60163 -3.8404 0
M  V30 5392 H 522.449 2.51578 -4.87852 0
M  V30 5393 H 522.71 3.03004 -3.21934 0
M  V30 5394 N 521.769 1.56035 0.221574 0
M  V30 5395 C 523.017 1.78693 0.944102 0
M  V30 5396 C 523.338 0.620317 1.8487 0
M  V30 5397 O 522.608 -0.362784 1.92512 0
M  V30 5398 H 521.188 0.659082 0.351597 0
M  V30 5399 H 523.85 1.93497 0.233435 0
M  V30 5400 H 522.946 2.70837 1.55093 0
M  V30 5401 N 523.247 -0.488276 1.49845 0
M  V30 5402 C 524.477 -1.26344 1.63465 0
M  V30 5403 C 524.885 -1.86637 0.310379 0
M  V30 5404 O 524.228 -1.69184 -0.715712 0
M  V30 5405 C 524.29 -2.42407 2.65479 0
M  V30 5406 C 523.954 -2.02886 4.09495 0
M  V30 5407 C 524.951 -1.56124 4.95904 0
M  V30 5408 C 522.636 -2.12131 4.55308 0
M  V30 5409 C 524.63 -1.19129 6.26169 0
M  V30 5410 C 522.317 -1.74747 5.85582 0
M  V30 5411 C 523.315 -1.28322 6.70837 0
M  V30 5412 O 523.003 -0.914491 7.98682 0
M  V30 5413 H 522.735 -0.388921 0.552916 0
M  V30 5414 H 525.289 -0.591288 1.96705 0
M  V30 5415 H 523.519 -3.12739 2.27445 0
M  V30 5416 H 525.208 -3.04409 2.68495 0
M  V30 5417 H 525.974 -1.48417 4.61733 0
M  V30 5418 H 521.853 -2.47217 3.89107 0
M  V30 5419 H 525.397 -0.828211 6.92666 0
M  V30 5420 H 521.294 -1.82109 6.19279 0
M  V30 5421 H 522.062 -1.04485 8.11804 0
M  V30 5422 N 524.725 -1.39134 -0.740242 0
M  V30 5423 C 525.973 -1.35803 -1.49673 0
M  V30 5424 C 526.294 0.0470897 -1.94943 0
M  V30 5425 O 525.564 0.997347 -1.68611 0
M  V30 5426 H 524.144 -0.499736 -0.555224 0
M  V30 5427 H 526.806 -1.73947 -0.879107 0
M  V30 5428 H 525.902 -2.0174 -2.38133 0
M  V30 5429 N 526.204 0.969867 -1.24223 0
M  V30 5430 C 527.481 1.68774 -0.988664 0
M  V30 5431 C 527.861 2.05342 0.489673 0
M  V30 5432 O 527.209 1.75486 1.46345 0
M  V30 5433 C 527.419 2.92135 -1.90941 0
M  V30 5434 C 528.767 3.64422 -2.17903 0
M  V30 5435 O 529.791 3.02188 -1.88576 0
M  V30 5436 O 528.65 4.76446 -2.67697 0
M  V30 5437 H 525.744 0.737736 -0.37373 0
M  V30 5438 H 528.29 1.02415 -1.35312 0
M  V30 5439 H 527.062 2.61788 -2.90831 0
M  V30 5440 H 526.685 3.66228 -1.54798 0
M  V30 5441 N 527.682 1.05563 1.17022 0
M  V30 5442 C 528.928 0.769074 1.87652 0
M  V30 5443 C 529.261 -0.702326 1.81055 0
M  V30 5444 O 528.536 -1.5139 1.22112 0
M  V30 5445 C 528.819 1.25492 3.37526 0
M  V30 5446 C 528.672 2.78953 3.52853 0
M  V30 5447 C 529.991 0.856919 4.31677 0
M  V30 5448 H 527.11 0.280854 0.681388 0
M  V30 5449 H 529.752 1.31027 1.37593 0
M  V30 5450 H 527.902 0.794516 3.80289 0
M  V30 5451 H 529.574 3.33146 3.19079 0
M  V30 5452 H 527.817 3.18046 2.95007 0
M  V30 5453 H 528.488 3.08011 4.58076 0
M  V30 5454 H 530.964 1.25334 3.96775 0
M  V30 5455 H 529.84 1.22443 5.35069 0
M  V30 5456 H 530.101 -0.238787 4.41455 0
M  V30 5457 N 529.16 -1.33526 0.837174 0
M  V30 5458 C 530.39 -2.01754 0.444848 0
M  V30 5459 C 530.798 -1.63149 -0.958072 0
M  V30 5460 O 530.141 -0.839827 -1.63379 0
M  V30 5461 C 530.203 -3.56228 0.483917 0
M  V30 5462 C 529.867 -4.18205 1.84265 0
M  V30 5463 C 530.864 -4.37699 2.80563 0
M  V30 5464 C 528.549 -4.54667 2.13503 0
M  V30 5465 C 530.543 -4.928 4.04261 0
M  V30 5466 C 528.23 -5.09475 3.37458 0
M  V30 5467 C 529.228 -5.28488 4.32654 0
M  V30 5468 O 528.916 -5.82132 5.54417 0
M  V30 5469 H 528.648 -0.652928 0.175104 0
M  V30 5470 H 531.202 -1.71469 1.13082 0
M  V30 5471 H 529.432 -3.85833 -0.258826 0
M  V30 5472 H 531.121 -4.05752 0.109653 0
M  V30 5473 H 531.887 -4.0988 2.59274 0
M  V30 5474 H 527.766 -4.39164 1.40201 0
M  V30 5475 H 531.31 -5.07555 4.78574 0
M  V30 5476 H 527.207 -5.36725 3.58604 0
M  V30 5477 H 527.975 -6.00548 5.56133 0
M  V30 5478 N 530.638 -0.59345 -1.46 0
M  V30 5479 C 531.601 0.123538 -2.28867 0
M  V30 5480 C 532.601 0.808628 -1.38989 0
M  V30 5481 O 533.791 0.658945 -1.61256 0
M  V30 5482 C 530.923 1.1847 -3.19653 0
M  V30 5483 H 532.116 -0.604843 -2.93737 0
M  V30 5484 H 529.669 -0.351875 -1.52288 0
M  V30 5485 H 530.404 1.94431 -2.59552 0
M  V30 5486 H 530.189 0.69783 -3.8584 0
M  V30 5487 H 531.679 1.68726 -3.81997 0
M  V30 5488 N 532.116 1.54067 -0.331816 0
M  V30 5489 C 533.063 2.24623 0.530372 0
M  V30 5490 C 534.033 1.24009 1.10503 0
M  V30 5491 O 535.218 1.52712 1.14384 0
M  V30 5492 C 532.358 3.01374 1.68129 0
M  V30 5493 C 531.471 4.16821 1.13507 0
M  V30 5494 C 530.606 4.81085 2.25234 0
M  V30 5495 C 529.645 5.88621 1.67903 0
M  V30 5496 N 528.782 6.46713 2.73326 0
M  V30 5497 H 533.622 2.97898 -0.0778607 0
M  V30 5498 H 531.159 1.47014 -0.0501965 0
M  V30 5499 H 533.117 3.44125 2.35868 0
M  V30 5500 H 531.747 2.30419 2.26069 0
M  V30 5501 H 530.799 3.78796 0.348979 0
M  V30 5502 H 532.111 4.94203 0.675633 0
M  V30 5503 H 531.265 5.26846 3.00862 0
M  V30 5504 H 530.004 4.03102 2.74518 0
M  V30 5505 H 529.009 5.42254 0.907773 0
M  V30 5506 H 530.234 6.68506 1.19487 0
M  V30 5507 H 528.18 5.71599 3.21886 0
M  V30 5508 H 528.097 7.19532 2.3197 0
M  V30 5509 H 529.365 6.97129 3.48758 0
M  V30 5510 N 533.594 0.0601682 1.57485 0
M  V30 5511 C 534.822 -0.620937 1.97363 0
M  V30 5512 C 535.237 -1.63846 0.938082 0
M  V30 5513 O 534.594 -1.82339 -0.0766578 0
M  V30 5514 C 534.645 -1.29987 3.37321 0
M  V30 5515 O 534.366 -0.323081 4.36907 0
M  V30 5516 C 535.867 -2.06989 3.92008 0
M  V30 5517 H 533.087 -0.169135 0.649334 0
M  V30 5518 H 535.631 0.129132 2.04092 0
M  V30 5519 H 533.786 -2.0011 3.31715 0
M  V30 5520 H 534.2 -0.808754 5.18227 0
M  V30 5521 H 535.674 -2.49901 4.92192 0
M  V30 5522 H 536.151 -2.92173 3.2792 0
M  V30 5523 H 536.757 -1.41757 4.0098 0
M  V30 5524 N 535.072 -1.5615 -0.213296 0
M  V30 5525 C 536.3 -1.83638 -0.953139 0
M  V30 5526 C 536.715 -0.640362 -1.77609 0
M  V30 5527 O 536.072 0.391071 -1.78261 0
M  V30 5528 C 536.123 -3.09735 -1.86405 0
M  V30 5529 O 535.844 -4.24723 -1.07435 0
M  V30 5530 C 537.345 -3.5027 -2.71709 0
M  V30 5531 H 534.565 -0.610263 -0.278962 0
M  V30 5532 H 537.109 -2.03247 -0.226035 0
M  V30 5533 H 535.264 -2.92077 -2.545 0
M  V30 5534 H 535.678 -4.9641 -1.69343 0
M  V30 5535 H 537.152 -4.41515 -3.31313 0
M  V30 5536 H 537.629 -2.72406 -3.44516 0
M  V30 5537 H 538.235 -3.70396 -2.09015 0
M  V30 5538 N 536.55 0.480323 -1.50102 0
M  V30 5539 C 537.48 1.58769 -1.71215 0
M  V30 5540 C 538.461 1.60583 -0.560997 0
M  V30 5541 O 539.646 1.76996 -0.799127 0
M  V30 5542 C 536.776 2.97148 -1.79778 0
M  V30 5543 C 535.73 3.10201 -2.94888 0
M  V30 5544 C 535.056 4.50137 -2.88584 0
M  V30 5545 C 536.356 2.88283 -4.35534 0
M  V30 5546 H 538.05 1.41354 -2.6393 0
M  V30 5547 H 535.596 0.678591 -1.27008 0
M  V30 5548 H 537.549 3.74536 -1.93133 0
M  V30 5549 H 536.273 3.15699 -0.836772 0
M  V30 5550 H 534.932 2.35244 -2.81169 0
M  V30 5551 H 534.58 4.65593 -1.90349 0
M  V30 5552 H 534.28 4.59808 -3.65856 0
M  V30 5553 H 535.804 5.29558 -3.03976 0
M  V30 5554 H 537.218 3.55427 -4.49827 0
M  V30 5555 H 535.615 3.09408 -5.14186 0
M  V30 5556 H 536.685 1.84219 -4.48544 0
M  V30 5557 N 538.028 1.39524 0.732853 0
M  V30 5558 C 539.276 1.36594 1.48951 0
M  V30 5559 C 539.597 -0.0367507 1.94965 0
M  V30 5560 O 538.867 -0.988391 1.69138 0
M  V30 5561 H 537.447 0.502673 0.552566 0
M  V30 5562 H 540.109 1.74411 0.869869 0
M  V30 5563 H 539.205 2.03 2.3706 0
M  V30 5564 N 539.506 -0.963266 1.24736 0
M  V30 5565 C 540.922 -1.23273 1.01371 0
M  V30 5566 C 541.122 -1.99618 -0.274776 0
M  V30 5567 O 540.178 -2.32293 -0.989769 0
M  V30 5568 C 541.491 -2.01554 2.23152 0
M  V30 5569 C 543.039 -2.14629 2.27823 0
M  V30 5570 C 543.514 -2.96307 3.49237 0
M  V30 5571 N 545.005 -3.03887 3.49581 0
M  V30 5572 C 545.74 -3.67456 4.40186 0
M  V30 5573 N 545.236 -4.32706 5.41052 0
M  V30 5574 N 547.029 -3.64511 4.27888 0
M  V30 5575 H 539.18 -0.452294 2.07528 0
M  V30 5576 H 541.443 -0.262521 0.910926 0
M  V30 5577 H 541.149 -1.52847 3.1675 0
M  V30 5578 H 541.023 -3.02278 2.25628 0
M  V30 5579 H 543.41 -2.62537 1.34753 0
M  V30 5580 H 543.491 -1.13238 2.2937 0
M  V30 5581 H 543.135 -2.49091 4.42624 0
M  V30 5582 H 543.065 -3.97905 3.44933 0
M  V30 5583 H 545.556 -2.57477 2.76611 0
M  V30 5584 H 545.869 -4.79042 6.06415 0
M  V30 5585 H 544.214 -4.31361 5.44934 0
M  V30 5586 H 547.405 -3.12715 3.4832 0
M  V30 5587 H 547.578 -4.13768 4.98698 0
M  V30 5588 N 540.985 -1.06182 -1.16461 0
M  V30 5589 C 541.915 -0.692861 -2.22984 0
M  V30 5590 C 542.896 0.314122 -1.67174 0
M  V30 5591 O 544.081 0.189499 -1.93273 0
M  V30 5592 C 541.211 -0.07732 -3.47214 0
M  V30 5593 C 540.165 -1.01015 -4.15909 0
M  V30 5594 C 539.491 -0.257973 -5.34077 0
M  V30 5595 C 540.791 -2.33868 -4.67015 0
M  V30 5596 H 542.485 -1.58343 -2.54102 0
M  V30 5597 H 540.031 -0.76279 -1.22137 0
M  V30 5598 H 541.984 0.19266 -4.20959 0
M  V30 5599 H 540.708 0.848254 -3.15392 0
M  V30 5600 H 539.367 -1.26486 -3.44088 0
M  V30 5601 H 539.015 0.670684 -4.98509 0
M  V30 5602 H 538.715 -0.879638 -5.80979 0
M  V30 5603 H 540.239 0.00448788 -6.106 0
M  V30 5604 H 541.653 -2.1279 -5.32347 0
M  V30 5605 H 540.05 -2.91522 -5.24533 0
M  V30 5606 H 541.12 -2.97019 -3.83286 0
M  V30 5607 N 542.463 1.3308 -0.844243 0
M  V30 5608 C 543.71 1.97605 -0.44255 0
M  V30 5609 C 544.038 1.66856 0.999458 0
M  V30 5610 O 543.293 0.943586 1.7145 0
M  V30 5611 C 543.592 3.52045 -0.616354 0
M  V30 5612 C 543.258 4.02757 -2.02726 0
M  V30 5613 C 541.92 4.16316 -2.41317 0
M  V30 5614 C 544.272 4.29776 -2.9486 0
M  V30 5615 C 541.6 4.54232 -3.71335 0
M  V30 5616 C 543.952 4.69146 -4.24364 0
M  V30 5617 C 542.616 4.80911 -4.62904 0
M  V30 5618 H 541.886 0.723088 -0.161941 0
M  V30 5619 H 544.533 1.58663 -1.0723 0
M  V30 5620 H 542.838 3.91681 0.0966812 0
M  V30 5621 H 544.535 3.99981 -0.285756 0
M  V30 5622 H 541.125 3.9268 -1.71756 0
M  V30 5623 H 545.309 4.18818 -2.6628 0
M  V30 5624 H 540.565 4.61535 -4.00993 0
M  V30 5625 H 544.739 4.89008 -4.95827 0
M  V30 5626 H 542.366 5.10048 -5.63698 0
M  V30 5627 N 543.941 0.601185 1.45683 0
M  V30 5628 C 544.874 -0.17013 2.27565 0
M  V30 5629 C 545.852 -0.879661 1.36751 0
M  V30 5630 O 547.036 -0.889827 1.66176 0
M  V30 5631 C 544.163 -1.24568 3.14961 0
M  V30 5632 C 543.209 -0.639978 4.21671 0
M  V30 5633 S 544.042 0.547275 5.32696 0
M  V30 5634 C 545.198 -0.529019 6.2366 0
M  V30 5635 H 545.431 0.524583 2.92635 0
M  V30 5636 H 542.964 0.388537 1.49431 0
M  V30 5637 H 544.922 -1.86138 3.65873 0
M  V30 5638 H 543.583 -1.91243 2.49169 0
M  V30 5639 H 542.776 -1.44903 4.8272 0
M  V30 5640 H 542.378 -0.0995558 3.73867 0
M  V30 5641 H 544.67 -1.40981 6.62669 0
M  V30 5642 H 545.613 0.0451599 7.08086 0
M  V30 5643 H 546.021 -0.84147 5.58193 0
M  V30 5644 N 545.419 -1.53889 0.339982 0
M  V30 5645 C 546.665 -2.01152 -0.258003 0
M  V30 5646 C 546.998 -1.22749 -1.50487 0
M  V30 5647 O 546.273 -0.314156 -1.91946 0
M  V30 5648 C 546.556 -3.55468 -0.575717 0
M  V30 5649 C 546.409 -4.44584 0.682996 0
M  V30 5650 C 547.728 -4.1768 -1.38677 0
M  V30 5651 H 544.847 -0.731198 -0.0922992 0
M  V30 5652 H 547.489 -1.84352 0.459814 0
M  V30 5653 H 545.639 -3.69914 -1.18725 0
M  V30 5654 H 547.311 -4.41981 1.32102 0
M  V30 5655 H 545.554 -4.13592 1.3086 0
M  V30 5656 H 546.225 -5.5043 0.416001 0
M  V30 5657 H 548.701 -4.0691 -0.869705 0
M  V30 5658 H 547.577 -5.25734 -1.57783 0
M  V30 5659 H 547.838 -3.72069 -2.38782 0
M  V30 5660 N 546.897 -0.0685191 -1.57451 0
M  V30 5661 C 548.144 0.601348 -1.93365 0
M  V30 5662 C 548.472 1.69816 -0.948294 0
M  V30 5663 O 547.727 1.95666 0.0366199 0
M  V30 5664 C 548.026 1.22051 -3.35914 0
M  V30 5665 C 547.692 0.250165 -4.50205 0
M  V30 5666 C 546.354 -0.0167954 -4.81197 0
M  V30 5667 C 548.706 -0.413867 -5.19554 0
M  V30 5668 C 546.034 -0.95493 -5.78876 0
M  V30 5669 C 548.386 -1.3403 -6.18238 0
M  V30 5670 C 547.05 -1.61576 -6.47649 0
M  V30 5671 H 546.32 0.220049 -0.707573 0
M  V30 5672 H 548.967 -0.138697 -1.90997 0
M  V30 5673 H 547.272 2.03622 -3.34732 0
M  V30 5674 H 548.969 1.74605 -3.6099 0
M  V30 5675 H 545.559 0.468421 -4.26033 0
M  V30 5676 H 549.743 -0.220733 -4.95809 0
M  V30 5677 H 544.999 -1.17563 -5.99991 0
M  V30 5678 H 549.173 -1.86081 -6.71079 0
M  V30 5679 H 546.8 -2.34431 -7.2315 0
M  V30 5680 N 548.375 1.56261 0.205012 0
M  V30 5681 C 549.622 1.8004 0.926927 0
M  V30 5682 C 549.95 0.640086 1.83666 0
M  V30 5683 O 549.205 -0.374702 1.92079 0
M  V30 5684 C 549.504 3.09722 1.78345 0
M  V30 5685 C 549.17 4.39082 1.02555 0
M  V30 5686 C 547.832 4.74226 0.816256 0
M  V30 5687 C 550.184 5.18877 0.491559 0
M  V30 5688 C 547.512 5.86668 0.0613287 0
M  V30 5689 C 549.864 6.32105 -0.250107 0
M  V30 5690 C 548.528 6.6584 -0.470508 0
M  V30 5691 H 547.798 0.658812 0.339187 0
M  V30 5692 H 550.445 1.90515 0.19395 0
M  V30 5693 H 548.75 2.9444 2.5848 0
M  V30 5694 H 550.447 3.25324 2.34446 0
M  V30 5695 H 547.037 4.11497 1.19868 0
M  V30 5696 H 551.221 4.92147 0.640684 0
M  V30 5697 H 546.477 6.11283 -0.119501 0
M  V30 5698 H 550.651 6.93157 -0.671307 0
M  V30 5699 H 548.278 7.5281 -1.05739 0
M  V30 5700 N 549.853 -0.472356 1.50355 0
M  V30 5701 C 551.102 -1.2213 1.60522 0
M  V30 5702 C 551.415 -1.9312 0.310466 0
M  V30 5703 O 552.621 -2.69936 0.291029 0
M  V30 5704 C 551.077 -2.21909 2.83345 0
M  V30 5705 C 550.685 -1.56727 4.19691 0
M  V30 5706 C 552.429 -2.97453 3.02856 0
M  V30 5707 C 550.336 -2.54785 5.33703 0
M  V30 5708 H 549.266 -0.459543 0.597776 0
M  V30 5709 H 551.917 -0.491922 1.76783 0
M  V30 5710 H 550.299 -2.98133 2.60639 0
M  V30 5711 H 551.473 -0.863007 4.52646 0
M  V30 5712 H 549.788 -0.934685 4.05774 0
M  V30 5713 H 552.385 -3.70838 3.85205 0
M  V30 5714 H 552.728 -3.56764 2.14534 0
M  V30 5715 H 553.261 -2.28342 3.25737 0
M  V30 5716 H 550 -2.00214 6.24175 0
M  V30 5717 H 549.52 -3.23367 5.05167 0
M  V30 5718 H 551.199 -3.16639 5.64224 0
M  V30 5719 N 551.331 -1.39911 -0.725443 0
M  V30 5720 C 552.261 -1.42138 -1.85254 0
M  V30 5721 C 553.242 -0.283513 -1.67721 0
M  V30 5722 O 554.427 -0.490717 -1.87898 0
M  V30 5723 C 551.557 -1.27354 -3.23107 0
M  V30 5724 C 550.511 -2.3864 -3.55296 0
M  V30 5725 C 549.837 -2.08939 -4.92188 0
M  V30 5726 C 551.137 -3.8097 -3.57295 0
M  V30 5727 H 552.831 -2.36461 -1.83648 0
M  V30 5728 H 550.377 -1.13817 -0.882138 0
M  V30 5729 H 552.33 -1.2753 -4.01639 0
M  V30 5730 H 551.054 -0.295025 -3.25265 0
M  V30 5731 H 549.713 -2.37696 -2.79099 0
M  V30 5732 H 549.361 -1.09502 -4.90936 0
M  V30 5733 H 549.061 -2.83491 -5.14691 0
M  V30 5734 H 550.585 -2.10781 -5.73065 0
M  V30 5735 H 551.999 -3.8379 -4.25885 0
M  V30 5736 H 550.396 -4.5496 -3.9132 0
M  V30 5737 H 551.466 -4.11261 -2.5689 0
M  V30 5738 N 552.809 0.956637 -1.25245 0
M  V30 5739 C 554.057 1.69764 -1.09657 0
M  V30 5740 C 554.378 1.91583 0.363464 0
M  V30 5741 O 553.648 1.50149 1.25825 0
M  V30 5742 H 552.228 0.629097 -0.402798 0
M  V30 5743 H 554.89 1.15026 -1.57337 0
M  V30 5744 H 553.986 2.67769 -1.60331 0
M  V30 5745 N 554.287 1.06798 1.15896 0
M  V30 5746 C 555.535 0.786211 1.8618 0
M  V30 5747 C 555.856 -0.689547 1.82401 0
M  V30 5748 O 555.126 -1.49913 1.26107 0
M  V30 5749 H 553.706 0.287843 0.689315 0
M  V30 5750 H 556.368 1.35055 1.40521 0
M  V30 5751 H 555.464 1.1157 2.91477 0
M  V30 5752 N 555.766 -1.3263 0.851289 0
M  V30 5753 C 556.696 -2.31449 0.308771 0
M  V30 5754 C 557.677 -1.59531 -0.590255 0
M  V30 5755 O 558.862 -1.87351 -0.511205 0
M  V30 5756 C 555.992 -3.43586 -0.506548 0
M  V30 5757 C 554.946 -4.26963 0.297753 0
M  V30 5758 C 554.272 -5.30831 -0.642094 0
M  V30 5759 C 555.572 -4.99643 1.52166 0
M  V30 5760 H 557.266 -2.77074 1.13447 0
M  V30 5761 H 554.812 -1.33207 0.546971 0
M  V30 5762 H 556.765 -4.11754 -0.896474 0
M  V30 5763 H 555.489 -2.96681 -1.36558 0
M  V30 5764 H 554.148 -3.60437 0.669391 0
M  V30 5765 H 553.796 -4.8018 -1.49788 0
M  V30 5766 H 553.496 -5.87501 -0.107968 0
M  V30 5767 H 555.02 -6.01862 -1.02927 0
M  V30 5768 H 556.434 -5.6051 1.20421 0
M  V30 5769 H 554.831 -5.66022 1.99347 0
M  V30 5770 H 555.901 -4.27701 2.28474 0
M  V30 5771 N 557.244 -0.608902 -1.45362 0
M  V30 5772 C 558.207 0.0992563 -2.28985 0
M  V30 5773 C 559.207 0.793841 -1.39838 0
M  V30 5774 O 560.397 0.641804 -1.61946 0
M  V30 5775 C 557.529 1.15073 -3.20891 0
M  V30 5776 H 558.722 -0.635964 -2.93079 0
M  V30 5777 H 556.275 -0.368007 -1.51906 0
M  V30 5778 H 557.01 1.91667 -2.616 0
M  V30 5779 H 556.795 0.656867 -3.86559 0
M  V30 5780 H 558.285 1.64665 -3.83765 0
M  V30 5781 N 558.722 1.53707 -0.348139 0
M  V30 5782 C 559.655 2.21481 0.549667 0
M  V30 5783 C 560.633 1.20046 1.09671 0
M  V30 5784 O 561.817 1.48883 1.15612 0
M  V30 5785 C 558.944 2.89585 1.75664 0
M  V30 5786 C 557.99 4.04948 1.33864 0
M  V30 5787 S 558.823 5.34325 0.354577 0
M  V30 5788 C 559.979 6.05934 1.56828 0
M  V30 5789 H 560.212 2.97289 -0.0259755 0
M  V30 5790 H 557.745 1.53833 -0.132216 0
M  V30 5791 H 559.703 3.29441 2.44906 0
M  V30 5792 H 558.364 2.13535 2.30351 0
M  V30 5793 H 557.557 4.51552 2.23868 0
M  V30 5794 H 557.159 3.66893 0.725651 0
M  V30 5795 H 559.451 6.29606 2.50205 0
M  V30 5796 H 560.394 6.98799 1.14395 0
M  V30 5797 H 560.802 5.36151 1.76642 0
M  V30 5798 N 560.2 0.0768682 1.57412 0
M  V30 5799 C 561.447 -0.591085 1.93681 0
M  V30 5800 C 561.775 -1.69311 0.957286 0
M  V30 5801 O 561.03 -1.95682 -0.0262428 0
M  V30 5802 C 561.329 -1.20268 3.36557 0
M  V30 5803 C 560.995 -0.226286 4.50332 0
M  V30 5804 C 559.657 0.0423142 4.81181 0
M  V30 5805 C 562.009 0.441415 5.19327 0
M  V30 5806 C 559.337 0.985616 5.78362 0
M  V30 5807 C 561.689 1.37307 6.17519 0
M  V30 5808 C 560.353 1.65009 6.46783 0
M  V30 5809 H 559.623 -0.216293 0.70873 0
M  V30 5810 H 562.27 0.148824 1.90921 0
M  V30 5811 H 560.575 -2.01844 3.35807 0
M  V30 5812 H 562.272 -1.72688 3.61911 0
M  V30 5813 H 558.862 -0.445821 4.26275 0
M  V30 5814 H 563.046 0.247023 4.95685 0
M  V30 5815 H 558.302 1.20743 5.99359 0
M  V30 5816 H 562.476 1.89637 6.70083 0
M  V30 5817 H 560.103 2.38263 7.21897 0
M  V30 5818 N 561.678 -1.56367 -0.196722 0
M  V30 5819 C 562.641 -1.93561 -1.22746 0
M  V30 5820 C 563.641 -0.816566 -1.38524 0
M  V30 5821 O 564.831 -1.084 -1.36363 0
M  V30 5822 C 561.963 -2.20823 -2.59712 0
M  V30 5823 H 563.156 -2.85774 -0.909586 0
M  V30 5824 H 560.709 -1.50032 -0.438174 0
M  V30 5825 H 561.444 -1.31243 -2.96557 0
M  V30 5826 H 561.229 -3.02368 -2.49632 0
M  V30 5827 H 562.719 -2.50608 -3.34044 0
M  V30 5828 N 563.156 0.464375 -1.50603 0
M  V30 5829 C 564.381 1.24372 -1.65971 0
M  V30 5830 C 564.806 1.84901 -0.345453 0
M  V30 5831 O 564.164 1.67596 0.691457 0
M  V30 5832 C 564.212 2.32331 -2.7578 0
M  V30 5833 O 563.316 3.37146 -2.375 0
M  V30 5834 H 562.657 0.365604 -0.554283 0
M  V30 5835 H 565.187 0.55183 -1.97018 0
M  V30 5836 H 565.197 2.77539 -2.99059 0
M  V30 5837 H 563.872 1.87648 -3.71162 0
M  V30 5838 H 562.449 2.97602 -2.24694 0
M  V30 5839 N 564.634 1.40294 0.718013 0
M  V30 5840 C 565.864 1.41544 1.50495 0
M  V30 5841 C 566.272 0.0127877 1.89196 0
M  V30 5842 O 565.615 -0.97305 1.55812 0
M  V30 5843 C 565.677 2.24021 2.81167 0
M  V30 5844 C 565.341 3.72463 2.64803 0
M  V30 5845 C 566.338 4.65154 2.32223 0
M  V30 5846 C 564.023 4.1625 2.81143 0
M  V30 5847 C 566.017 5.99618 2.16189 0
M  V30 5848 C 563.704 5.50784 2.64727 0
M  V30 5849 C 564.702 6.42283 2.32297 0
M  V30 5850 O 564.39 7.74337 2.16004 0
M  V30 5851 H 564.122 0.484819 0.471091 0
M  V30 5852 H 566.676 1.84948 0.893488 0
M  V30 5853 H 564.906 1.75393 3.44636 0
M  V30 5854 H 566.595 2.17243 3.42871 0
M  V30 5855 H 567.361 4.32622 2.19234 0
M  V30 5856 H 563.24 3.45352 3.05373 0
M  V30 5857 H 566.784 6.71 1.90799 0
M  V30 5858 H 562.681 5.82902 2.773 0
M  V30 5859 H 563.449 7.85244 2.30942 0
M  V30 5860 N 566.112 -0.949982 1.2575 0
M  V30 5861 C 567.358 -1.69766 1.10938 0
M  V30 5862 C 567.691 -1.91056 -0.348028 0
M  V30 5863 O 566.966 -1.48488 -1.25625 0
M  V30 5864 C 567.249 -3.07779 1.86933 0
M  V30 5865 C 567.102 -2.9387 3.4053 0
M  V30 5866 C 568.421 -4.07749 1.65616 0
M  V30 5867 H 565.54 -0.616144 0.404396 0
M  V30 5868 H 568.182 -1.10394 1.54639 0
M  V30 5869 H 566.332 -3.58462 1.4979 0
M  V30 5870 H 568.004 -2.50476 3.87375 0
M  V30 5871 H 566.247 -2.29686 3.68004 0
M  V30 5872 H 566.918 -3.91719 3.88922 0
M  V30 5873 H 569.394 -3.65994 1.97959 0
M  V30 5874 H 568.27 -5.02348 2.21218 0
M  V30 5875 H 568.531 -4.38029 0.598595 0
M  V30 5876 N 567.59 -1.07411 -1.15328 0
M  V30 5877 C 569.001 -0.820261 -1.67716 0
M  V30 5878 C 569.352 0.654539 -1.8496 0
M  V30 5879 O 568.477 1.50664 -1.55337 0
M  V30 5880 C 569.072 -1.48242 -3.04647 0
M  V30 5881 C 567.631 -1.27606 -3.5411 0
M  V30 5882 C 566.778 -1.5517 -2.29821 0
M  V30 5883 H 569.729 -1.23608 -0.995332 0
M  V30 5884 H 569.75 -0.903984 -3.69606 0
M  V30 5885 H 569.262 -2.55578 -2.92064 0
M  V30 5886 H 567.363 -0.222948 -3.71932 0
M  V30 5887 H 567.476 -1.99667 -4.35511 0
M  V30 5888 H 565.84 -0.972747 -2.35393 0
M  V30 5889 H 566.623 -2.63689 -2.19824 0
M  V30 5890 N 569.068 1.32177 -0.85831 0
M  V30 5891 C 569.978 2.32561 -0.308606 0
M  V30 5892 C 570.994 1.64209 0.575462 0
M  V30 5893 O 572.17 1.95719 0.474961 0
M  V30 5894 C 569.235 3.43207 0.490909 0
M  V30 5895 C 568.296 4.27243 -0.419733 0
M  V30 5896 C 567.529 5.32605 0.341719 0
M  V30 5897 O 567.752 5.48332 1.57125 0
M  V30 5898 O 566.686 6.0118 -0.294379 0
M  V30 5899 H 570.512 2.81477 -1.14037 0
M  V30 5900 H 568.097 1.35866 -0.621349 0
M  V30 5901 H 569.979 4.10677 0.944574 0
M  V30 5902 H 568.654 2.96474 1.29941 0
M  V30 5903 H 567.561 3.62569 -0.921652 0
M  V30 5904 H 568.894 4.7751 -1.19352 0
M  V30 5905 N 570.547 0.616602 1.45037 0
M  V30 5906 C 571.796 0.112861 2.01384 0
M  V30 5907 C 572.109 -1.26758 1.48969 0
M  V30 5908 O 573.315 -1.86454 1.9735 0
M  V30 5909 C 571.771 0.151057 3.59583 0
M  V30 5910 C 571.379 1.53191 4.20995 0
M  V30 5911 C 573.123 -0.296974 4.2346 0
M  V30 5912 C 571.03 1.526 5.71373 0
M  V30 5913 H 569.96 0.0384254 0.75302 0
M  V30 5914 H 572.611 0.773262 1.66412 0
M  V30 5915 H 570.993 -0.57617 3.91786 0
M  V30 5916 H 572.167 2.28156 4.00352 0
M  V30 5917 H 570.482 1.92279 3.69348 0
M  V30 5918 H 573.079 -0.320712 5.33737 0
M  V30 5919 H 573.422 -1.32145 3.9477 0
M  V30 5920 H 573.955 0.377279 3.96007 0
M  V30 5921 H 570.694 2.52837 6.04776 0
M  V30 5922 H 570.214 0.819064 5.94181 0
M  V30 5923 H 571.893 1.25357 6.3474 0
M  V30 5924 N 572.025 -1.5352 0.356285 0
M  V30 5925 C 573.274 -2.00298 -0.237373 0
M  V30 5926 C 573.587 -1.24784 -1.50627 0
M  V30 5927 O 574.793 -1.62103 -2.17795 0
M  V30 5928 C 573.249 -3.56771 -0.473545 0
M  V30 5929 C 572.857 -4.41154 0.780183 0
M  V30 5930 C 574.601 -4.1193 -1.02537 0
M  V30 5931 C 572.508 -5.89161 0.514108 0
M  V30 5932 H 571.438 -0.748307 -0.092478 0
M  V30 5933 H 574.089 -1.77283 0.473588 0
M  V30 5934 H 572.471 -3.75902 -1.24553 0
M  V30 5935 H 573.645 -4.33797 1.55425 0
M  V30 5936 H 571.96 -3.97052 1.25455 0
M  V30 5937 H 574.557 -5.20133 -1.2396 0
M  V30 5938 H 574.9 -3.65943 -1.98473 0
M  V30 5939 H 575.433 -3.96561 -0.313775 0
M  V30 5940 H 572.172 -6.39408 1.44355 0
M  V30 5941 H 571.692 -5.9939 -0.221632 0
M  V30 5942 H 573.371 -6.46857 0.136122 0
M  V30 5943 N 573.503 -0.0852151 -1.57369 0
M  V30 5944 C 574.413 0.891712 -2.16992 0
M  V30 5945 C 575.429 1.3174 -1.13669 0
M  V30 5946 O 576.605 1.38735 -1.45995 0
M  V30 5947 C 573.67 2.13635 -2.73059 0
M  V30 5948 C 572.731 1.7658 -3.91303 0
M  V30 5949 C 571.964 2.95111 -4.44686 0
M  V30 5950 O 572.187 4.09539 -3.97032 0
M  V30 5951 O 571.121 2.74149 -5.35841 0
M  V30 5952 H 574.947 0.414477 -3.00858 0
M  V30 5953 H 572.532 0.138598 -1.48756 0
M  V30 5954 H 574.414 2.86595 -3.08935 0
M  V30 5955 H 573.089 2.6043 -1.92244 0
M  V30 5956 H 571.996 1.00831 -3.60255 0
M  V30 5957 H 573.329 1.34557 -4.7345 0
M  V30 5958 N 574.981 1.5647 0.188427 0
M  V30 5959 C 575.911 1.98101 1.23606 0
M  V30 5960 C 576.892 0.853961 1.47111 0
M  V30 5961 O 578.077 1.11879 1.58735 0
M  V30 5962 C 575.207 2.32624 2.57882 0
M  V30 5963 C 574.161 3.48129 2.48978 0
M  V30 5964 C 573.487 3.68347 3.87588 0
M  V30 5965 C 574.787 4.82112 2.00911 0
M  V30 5966 H 576.481 2.85864 0.890068 0
M  V30 5967 H 574.027 1.37532 0.426714 0
M  V30 5968 H 575.98 2.60343 3.3136 0
M  V30 5969 H 574.704 1.41751 2.94235 0
M  V30 5970 H 573.363 3.20511 1.77956 0
M  V30 5971 H 573.011 2.74793 4.21305 0
M  V30 5972 H 572.711 4.46055 3.82503 0
M  V30 5973 H 574.235 3.98449 4.62678 0
M  V30 5974 H 575.649 5.08819 2.64151 0
M  V30 5975 H 574.046 5.63337 2.06814 0
M  V30 5976 H 575.116 4.75249 0.96262 0
M  V30 5977 N 576.459 -0.456382 1.50847 0
M  V30 5978 C 577.708 -1.2042 1.61808 0
M  V30 5979 C 578.021 -1.9278 0.330932 0
M  V30 5980 O 579.227 -2.69612 0.319643 0
M  V30 5981 C 577.683 -2.18891 2.85683 0
M  V30 5982 C 577.291 -1.52267 4.2133 0
M  V30 5983 C 579.035 -2.94224 3.05994 0
M  V30 5984 C 576.942 -2.4911 5.36375 0
M  V30 5985 H 575.872 -0.453177 0.602616 0
M  V30 5986 H 578.523 -0.473144 1.77295 0
M  V30 5987 H 576.905 -2.95351 2.63787 0
M  V30 5988 H 578.079 -0.814949 4.53536 0
M  V30 5989 H 576.394 -0.891594 4.06743 0
M  V30 5990 H 578.991 -3.66732 3.89117 0
M  V30 5991 H 579.334 -3.54469 2.18306 0
M  V30 5992 H 579.867 -2.24874 3.28141 0
M  V30 5993 H 576.606 -1.93582 6.26264 0
M  V30 5994 H 576.126 -3.17991 5.08569 0
M  V30 5995 H 577.805 -3.10637 5.67551 0
M  V30 5996 N 577.937 -1.40673 -0.710563 0
M  V30 5997 C 579.185 -1.38947 -1.46759 0
M  V30 5998 C 579.506 0.00572879 -1.94999 0
M  V30 5999 O 578.776 0.961358 -1.70689 0
M  V30 6000 H 577.356 -0.5114 -0.544499 0
M  V30 6001 H 580.018 -1.75773 -0.842012 0
M  V30 6002 H 579.114 -2.06745 -2.33801 0
M  V30 6003 N 579.415 0.9433 -1.26252 0
M  V30 6004 C 580.363 2.06302 -1.07434 0
M  V30 6005 C 581.357 1.694 -0.00189471 0
M  V30 6006 O 582.563 1.79302 -0.158408 0
M  V30 6007 H 578.938 0.675453 -0.330556 0
M  V30 6008 H 580.909 2.19326 -2.02333 0
M  V30 6009 C 579.658 3.40125 -0.721817 0
M  V30 6010 H 578.981 3.68996 -1.5389 0
M  V30 6011 H 580.421 4.19295 -0.629922 0
M  V30 6012 C 578.88 3.31993 0.572902 0
M  V30 6013 O 579.41 3.67945 1.61182 0
M  V30 6014 N 577.616 2.85099 0.562748 0
M  V30 6015 H 577.163 2.5604 -0.283092 0
M  V30 6016 H 577.121 2.80041 1.42915 0
M  V30 6017 N 580.893 1.08022 1.14757 0
M  V30 6018 C 582.309 0.807072 1.3769 0
M  V30 6019 C 582.509 -0.585504 1.92806 0
M  V30 6020 O 581.565 -1.34301 2.13821 0
M  V30 6021 C 582.878 1.88651 2.34161 0
M  V30 6022 C 584.426 1.91206 2.47809 0
M  V30 6023 C 584.901 2.98253 3.47576 0
M  V30 6024 N 586.392 2.974 3.55117 0
M  V30 6025 C 587.127 3.76872 4.32152 0
M  V30 6026 N 586.623 4.66212 5.12463 0
M  V30 6027 N 588.416 3.6519 4.27309 0
M  V30 6028 H 580.567 1.97824 0.77326 0
M  V30 6029 H 582.83 0.85826 0.402608 0
M  V30 6030 H 582.536 2.88749 2.00791 0
M  V30 6031 H 582.41 1.75244 3.3402 0
M  V30 6032 H 584.797 0.917564 2.80472 0
M  V30 6033 H 584.878 2.08691 1.47925 0
M  V30 6034 H 584.522 3.97907 3.15646 0
M  V30 6035 H 584.452 2.78014 4.47231 0
M  V30 6036 H 586.943 2.32643 2.97801 0
M  V30 6037 H 587.256 5.23468 5.68508 0
M  V30 6038 H 585.601 4.70257 5.11745 0
M  V30 6039 H 588.792 2.94765 3.63636 0
M  V30 6040 H 588.965 4.27366 4.87095 0
M  V30 6041 N 582.371 -1.3172 0.865308 0
M  V30 6042 C 583.318 -2.2863 0.315736 0
M  V30 6043 C 584.288 -1.55524 -0.583213 0
M  V30 6044 O 585.473 -1.83694 -0.51585 0
M  V30 6045 C 582.613 -3.41735 -0.480773 0
M  V30 6046 C 581.726 -4.297 0.445167 0
M  V30 6047 C 580.861 -5.29944 -0.365012 0
M  V30 6048 C 579.9 -6.09554 0.557651 0
M  V30 6049 N 579.037 -7.01768 -0.215994 0
M  V30 6050 H 583.877 -2.75026 1.14736 0
M  V30 6051 H 581.414 -1.35302 0.577209 0
M  V30 6052 H 583.372 -4.06045 -0.958306 0
M  V30 6053 H 582.002 -2.96461 -1.27714 0
M  V30 6054 H 581.054 -3.65875 1.04113 0
M  V30 6055 H 582.366 -4.85295 1.15284 0
M  V30 6056 H 581.52 -5.99908 -0.905255 0
M  V30 6057 H 580.259 -4.74994 -1.106 0
M  V30 6058 H 579.264 -5.38485 1.10969 0
M  V30 6059 H 580.489 -6.66591 1.29742 0
M  V30 6060 H 578.435 -6.49232 -0.939878 0
M  V30 6061 H 578.352 -7.54762 0.432431 0
M  V30 6062 H 579.62 -7.76002 -0.737618 0
M  V30 6063 N 583.85 -0.624285 -1.44708 0
M  V30 6064 C 584.797 0.0847135 -2.30644 0
M  V30 6065 C 585.767 0.843575 -1.43084 0
M  V30 6066 O 586.952 0.825982 -1.71995 0
M  V30 6067 C 584.091 1.06495 -3.28257 0
M  V30 6068 C 583.205 0.305224 -4.3092 0
M  V30 6069 C 582.34 1.27667 -5.1563 0
M  V30 6070 C 581.379 0.505706 -6.10007 0
M  V30 6071 N 580.516 1.42727 -6.8744 0
M  V30 6072 H 585.356 -0.654068 -2.90733 0
M  V30 6073 H 582.893 -0.334334 -1.4325 0
M  V30 6074 H 584.851 1.64658 -3.83332 0
M  V30 6075 H 583.481 1.77094 -2.69884 0
M  V30 6076 H 582.533 -0.392207 -3.78373 0
M  V30 6077 H 583.845 -0.295553 -4.97924 0
M  V30 6078 H 582.999 1.92984 -5.75189 0
M  V30 6079 H 581.738 1.91137 -4.48685 0
M  V30 6080 H 580.743 -0.160999 -5.49564 0
M  V30 6081 H 581.968 -0.124183 -6.78986 0
M  V30 6082 H 579.913 2.04931 -6.23169 0
M  V30 6083 H 579.831 0.880345 -7.50857 0
M  V30 6084 H 581.099 2.0695 -7.51526 0
M  V30 6085 N 585.328 1.53329 -0.364422 0
M  V30 6086 C 586.558 2.05359 0.226096 0
M  V30 6087 C 586.966 1.23777 1.43094 0
M  V30 6088 O 586.309 0.271139 1.81688 0
M  V30 6089 C 586.371 3.52918 0.684794 0
M  V30 6090 C 586.035 4.55218 -0.403206 0
M  V30 6091 C 587.032 5.04583 -1.2527 0
M  V30 6092 C 584.717 4.99134 -0.563117 0
M  V30 6093 C 586.711 5.96463 -2.24745 0
M  V30 6094 C 584.398 5.9082 -1.56124 0
M  V30 6095 C 585.396 6.39375 -2.40184 0
M  V30 6096 O 585.084 7.29255 -3.38293 0
M  V30 6097 H 584.816 0.674588 0.0436772 0
M  V30 6098 H 587.37 1.98688 -0.520782 0
M  V30 6099 H 585.6 3.57122 1.48326 0
M  V30 6100 H 587.289 3.87812 1.19818 0
M  V30 6101 H 588.055 4.71403 -1.14034 0
M  V30 6102 H 583.934 4.60928 0.0813909 0
M  V30 6103 H 587.478 6.34285 -2.90393 0
M  V30 6104 H 583.375 6.23414 -1.67407 0
M  V30 6105 H 584.143 7.47249 -3.34009 0
M  V30 6106 N 586.806 0.0935595 1.57322 0
M  V30 6107 C 588.054 -0.569383 1.93913 0
M  V30 6108 C 588.375 -1.68817 0.976009 0
M  V30 6109 O 587.645 -1.9588 0.0278099 0
M  V30 6110 H 586.225 -0.21332 0.715894 0
M  V30 6111 H 588.887 0.156531 1.9427 0
M  V30 6112 H 587.983 -0.980577 2.96296 0
M  V30 6113 N 588.284 -1.56567 -0.180126 0
M  V30 6114 C 589.532 -1.81133 -0.896392 0
M  V30 6115 C 589.853 -0.669114 -1.83161 0
M  V30 6116 O 589.123 0.311616 -1.93406 0
M  V30 6117 H 587.703 -0.668172 -0.333999 0
M  V30 6118 H 590.365 -1.94048 -0.182051 0
M  V30 6119 H 589.461 -2.74854 -1.47857 0
M  V30 6120 N 589.762 0.448376 -1.51087 0
M  V30 6121 C 590.987 1.22605 -1.6728 0
M  V30 6122 C 591.412 1.84524 -0.365045 0
M  V30 6123 O 590.77 1.6832 0.673642 0
M  V30 6124 C 590.818 2.29393 -2.78229 0
M  V30 6125 O 589.922 3.34608 -2.41063 0
M  V30 6126 H 589.263 0.359705 -0.558129 0
M  V30 6127 H 591.793 0.530903 -1.97592 0
M  V30 6128 H 591.803 2.74352 -3.01986 0
M  V30 6129 H 590.478 1.83701 -3.73131 0
M  V30 6130 H 589.055 2.95202 -2.27838 0
M  V30 6131 N 591.24 1.41047 0.703093 0
M  V30 6132 C 592.47 1.43133 1.48985 0
M  V30 6133 C 592.878 0.0328537 1.89171 0
M  V30 6134 O 592.221 -0.956469 1.56835 0
M  V30 6135 C 592.283 2.26991 2.78775 0
M  V30 6136 C 591.947 3.7525 2.60837 0
M  V30 6137 C 592.944 4.67591 2.27276 0
M  V30 6138 C 590.629 4.19208 2.76712 0
M  V30 6139 C 592.623 6.01877 2.09817 0
M  V30 6140 C 590.31 5.53561 2.5887 0
M  V30 6141 C 591.308 6.4471 2.25472 0
M  V30 6142 O 590.996 7.76584 2.07778 0
M  V30 6143 H 590.728 0.489788 0.465922 0
M  V30 6144 H 593.282 1.85886 0.873822 0
M  V30 6145 H 591.512 1.79038 3.42757 0
M  V30 6146 H 593.201 2.20867 3.40547 0
M  V30 6147 H 593.967 4.34923 2.14633 0
M  V30 6148 H 589.846 3.48572 3.01693 0
M  V30 6149 H 593.39 6.72986 1.83671 0
M  V30 6150 H 589.287 5.85811 2.71102 0
M  V30 6151 H 590.055 7.87649 2.22601 0
M  V30 6152 N 592.718 -0.936591 1.26751 0
M  V30 6153 C 593.943 -1.72288 1.15462 0
M  V30 6154 C 594.368 -1.85915 -0.285887 0
M  V30 6155 O 593.726 -1.35272 -1.20711 0
M  V30 6156 C 593.774 -3.10503 1.83359 0
M  V30 6157 O 592.878 -3.96745 1.1255 0
M  V30 6158 H 592.219 -0.52843 0.402067 0
M  V30 6159 H 594.749 -1.17271 1.67656 0
M  V30 6160 H 594.759 -3.60867 1.90365 0
M  V30 6161 H 593.434 -2.99901 2.88153 0
M  V30 6162 H 592.011 -3.55191 1.13551 0
M  V30 6163 N 594.196 -1.08629 -1.14182 0
M  V30 6164 C 595.159 -0.722027 -2.1753 0
M  V30 6165 C 596.159 0.244305 -1.58933 0
M  V30 6166 O 597.349 0.0235545 -1.74184 0
M  V30 6167 C 594.481 -0.0663966 -3.40835 0
M  V30 6168 H 595.674 -1.63719 -2.51269 0
M  V30 6169 H 593.227 -0.884442 -1.28869 0
M  V30 6170 H 593.962 0.860389 -3.12678 0
M  V30 6171 H 593.747 -0.761598 -3.84632 0
M  V30 6172 H 595.237 0.173346 -4.1724 0
M  V30 6173 N 595.674 1.31259 -0.872281 0
M  V30 6174 C 596.92 1.96913 -0.485083 0
M  V30 6175 C 597.253 1.68774 0.960667 0
M  V30 6176 O 596.528 0.985495 1.67685 0
M  V30 6177 C 596.811 3.52299 -0.745502 0
M  V30 6178 C 596.664 3.90002 -2.24095 0
M  V30 6179 C 597.983 4.39582 -0.213516 0
M  V30 6180 H 595.102 0.715252 -0.177716 0
M  V30 6181 H 597.744 1.55347 -1.09395 0
M  V30 6182 H 595.894 3.87835 -0.227276 0
M  V30 6183 H 597.566 3.64555 -2.82661 0
M  V30 6184 H 595.809 3.38526 -2.71261 0
M  V30 6185 H 596.48 4.98352 -2.37381 0
M  V30 6186 H 598.956 4.10882 -0.656902 0
M  V30 6187 H 597.832 5.47251 -0.42516 0
M  V30 6188 H 598.093 4.33158 0.884666 0
M  V30 6189 N 597.152 0.631951 1.44375 0
M  V30 6190 C 598.377 0.142146 2.06912 0
M  V30 6191 C 598.802 -1.17456 1.4692 0
M  V30 6192 O 598.16 -1.72074 0.570975 0
M  V30 6193 C 598.208 0.0417952 3.60576 0
M  V30 6194 O 597.312 -1.00194 4.00044 0
M  V30 6195 H 596.653 0.0851491 0.658518 0
M  V30 6196 H 599.183 0.868863 1.85235 0
M  V30 6197 H 599.193 -0.148517 4.0773 0
M  V30 6198 H 597.868 1.0031 4.03622 0
M  V30 6199 H 596.445 -0.786131 3.64519 0
M  V30 6200 N 598.631 -1.53133 0.372548 0
M  V30 6201 C 599.879 -2.00958 -0.214534 0
M  V30 6202 C 600.2 -1.26135 -1.48711 0
M  V30 6203 O 599.47 -0.376597 -1.92246 0
M  V30 6204 H 598.05 -0.742456 -0.0822664 0
M  V30 6205 H 600.712 -1.88367 0.500385 0
M  V30 6206 H 599.808 -3.09031 -0.436605 0
M  V30 6207 N 600.109 -0.101901 -1.5727 0
M  V30 6208 C 601.525 0.254739 -1.57554 0
M  V30 6209 C 601.725 1.67937 -1.11352 0
M  V30 6210 O 600.781 2.39722 -0.793081 0
M  V30 6211 C 602.094 0.036975 -3.00677 0
M  V30 6212 C 603.642 0.104199 -3.12827 0
M  V30 6213 C 604.117 -0.0856565 -4.5792 0
M  V30 6214 N 605.608 -0.0310498 -4.6319 0
M  V30 6215 C 606.343 -0.153099 -5.73196 0
M  V30 6216 N 605.839 -0.330364 -6.92012 0
M  V30 6217 N 607.632 -0.0938854 -5.62022 0
M  V30 6218 H 599.783 -1.03263 -1.85609 0
M  V30 6219 H 602.046 -0.405251 -0.857016 0
M  V30 6220 H 601.752 -0.947254 -3.38703 0
M  V30 6221 H 601.626 0.776335 -3.69124 0
M  V30 6222 H 604.013 1.07894 -2.74669 0
M  V30 6223 H 604.094 -0.666762 -2.46957 0
M  V30 6224 H 603.738 -1.05729 -4.96773 0
M  V30 6225 H 603.668 0.705082 -5.21858 0
M  V30 6226 H 606.159 0.103141 -3.77759 0
M  V30 6227 H 606.472 -0.41482 -7.71686 0
M  V30 6228 H 604.817 -0.366119 -6.94035 0
M  V30 6229 H 608.008 0.0435168 -4.6808 0
M  V30 6230 H 608.181 -0.19245 -6.47714 0
M  V30 6231 N 601.587 1.56661 0.17182 0
M  V30 6232 C 602.534 1.96371 1.21273 0
M  V30 6233 C 603.504 0.82756 1.44016 0
M  V30 6234 O 604.689 1.08764 1.56764 0
M  V30 6235 C 601.829 2.32838 2.54716 0
M  V30 6236 C 600.942 3.59628 2.39356 0
M  V30 6237 C 600.077 3.85311 3.65662 0
M  V30 6238 C 599.116 5.0545 3.45234 0
M  V30 6239 N 598.253 5.27268 4.63608 0
M  V30 6240 H 603.093 2.85106 0.86709 0
M  V30 6241 H 600.63 1.41073 0.416744 0
M  V30 6242 H 602.588 2.52004 3.3249 0
M  V30 6243 H 601.218 1.47214 2.87277 0
M  V30 6244 H 600.27 3.4838 1.52761 0
M  V30 6245 H 601.582 4.4756 2.20207 0
M  V30 6246 H 600.736 4.04841 4.51872 0
M  V30 6247 H 599.475 2.95753 3.8779 0
M  V30 6248 H 598.48 4.85819 2.5741 0
M  V30 6249 H 599.705 5.96538 3.24529 0
M  V30 6250 H 597.651 4.40662 4.85956 0
M  V30 6251 H 597.568 6.09422 4.4737 0
M  V30 6252 H 598.836 5.51277 5.51103 0
M  V30 6253 N 603.065 -0.440357 1.51323 0
M  V30 6254 C 604.015 -1.53263 1.68803 0
M  V30 6255 C 604.999 -1.51494 0.542057 0
M  V30 6256 O 606.191 -1.57999 0.797839 0
M  V30 6257 C 603.32 -2.91479 1.8137 0
M  V30 6258 C 602.406 -2.98015 3.01742 0
M  V30 6259 N 602.797 -2.743 4.24962 0
M  V30 6260 C 601.095 -3.29173 3.00934 0
M  V30 6261 C 601.796 -2.86601 5.06197 0
M  V30 6262 N 600.772 -3.1814 4.40781 0
M  V30 6263 H 604.574 -1.33675 2.61741 0
M  V30 6264 H 602.088 -0.647616 1.48929 0
M  V30 6265 H 604.085 -3.70055 1.92002 0
M  V30 6266 H 602.745 -3.12089 0.896117 0
M  V30 6267 H 603.756 -2.49287 4.53957 0
M  V30 6268 H 600.433 -3.55577 2.18796 0
M  V30 6269 H 601.823 -2.72246 6.14274 0
M  V30 6270 N 604.543 -1.41418 -0.695603 0
M  V30 6271 C 605.792 -1.40073 -1.4513 0
M  V30 6272 C 606.105 -0.0130439 -1.95596 0
M  V30 6273 O 607.311 0.123032 -2.71221 0
M  V30 6274 C 605.767 -2.46286 -2.62433 0
M  V30 6275 C 605.375 -3.90962 -2.18753 0
M  V30 6276 C 607.119 -2.54077 -3.40066 0
M  V30 6277 C 605.026 -4.88728 -3.33015 0
M  V30 6278 H 603.956 -0.520903 -0.545138 0
M  V30 6279 H 606.607 -1.67242 -0.75515 0
M  V30 6280 H 604.989 -2.12248 -3.34315 0
M  V30 6281 H 606.163 -4.34248 -1.54161 0
M  V30 6282 H 604.478 -3.86831 -1.54114 0
M  V30 6283 H 607.075 -3.24303 -4.25125 0
M  V30 6284 H 607.418 -1.5776 -3.8525 0
M  V30 6285 H 607.951 -2.87206 -2.75241 0
M  V30 6286 H 604.69 -5.86449 -2.92844 0
M  V30 6287 H 604.21 -4.50091 -3.96457 0
M  V30 6288 H 605.889 -5.09483 -3.98793 0
M  V30 6289 N 606.021 0.929856 -1.27246 0
M  V30 6290 C 607.267 1.6798 -1.13625 0
M  V30 6291 C 607.6 1.91586 0.317589 0
M  V30 6292 O 606.875 1.50467 1.23247 0
M  V30 6293 C 607.158 3.04766 -1.91806 0
M  V30 6294 C 607.011 2.88415 -3.45162 0
M  V30 6295 C 608.33 4.05063 -1.72082 0
M  V30 6296 H 605.449 0.609632 -0.414147 0
M  V30 6297 H 608.091 1.0792 -1.56376 0
M  V30 6298 H 606.241 3.56034 -1.55474 0
M  V30 6299 H 607.913 2.44282 -3.91311 0
M  V30 6300 H 606.156 2.23802 -3.71611 0
M  V30 6301 H 606.827 3.85482 -3.95105 0
M  V30 6302 H 609.303 3.62798 -2.03757 0
M  V30 6303 H 608.179 4.98765 -2.29182 0
M  V30 6304 H 608.44 4.37021 -0.668206 0
M  V30 6305 N 607.499 1.09233 1.13605 0
M  V30 6306 C 608.745 0.828385 1.8511 0
M  V30 6307 C 609.078 -0.64437 1.83198 0
M  V30 6308 O 608.353 -1.47428 1.26867 0
M  V30 6309 C 608.636 1.36167 3.33363 0
M  V30 6310 C 608.489 2.90038 3.438 0
M  V30 6311 C 609.808 0.993819 4.28732 0
M  V30 6312 H 606.927 0.30239 0.672108 0
M  V30 6313 H 609.569 1.35339 1.33355 0
M  V30 6314 H 607.719 0.9151 3.77569 0
M  V30 6315 H 609.391 3.43128 3.08319 0
M  V30 6316 H 607.634 3.27271 2.84739 0
M  V30 6317 H 608.305 3.22428 4.48045 0
M  V30 6318 H 610.781 1.37893 3.92587 0
M  V30 6319 H 609.657 1.39403 5.30903 0
M  V30 6320 H 609.918 -0.0982206 4.41991 0
M  V30 6321 N 608.977 -1.30795 0.87923 0
M  V30 6322 C 610.217 -1.98155 0.50141 0
M  V30 6323 C 610.581 -1.67925 -0.930863 0
M  V30 6324 O 611.782 -2.28572 -1.41451 0
M  V30 6325 C 610.053 -3.49184 0.761937 0
M  V30 6326 S 611.612 -4.36107 0.485361 0
M  V30 6327 H 608.43 -0.686025 0.186792 0
M  V30 6328 H 611.032 -1.59018 1.13726 0
M  V30 6329 H 609.736 -3.68676 1.80295 0
M  V30 6330 H 609.267 -3.93236 0.113432 0
M  V30 6331 H 611.282 -4.9154 -0.678467 0
M  V30 6332 N 610.455 -0.639598 -1.44038 0
M  V30 6333 C 611.703 -0.147188 -2.01563 0
M  V30 6334 C 612.024 1.2384 -1.50628 0
M  V30 6335 O 611.294 1.82452 -0.713316 0
M  V30 6336 H 609.874 -0.0514231 -0.745228 0
M  V30 6337 H 612.536 -0.828205 -1.76428 0
M  V30 6338 H 611.632 -0.121358 -3.11864 0
M  V30 6339 N 611.933 1.52934 -0.380664 0
M  V30 6340 C 612.883 2.22989 0.475399 0
M  V30 6341 C 613.867 1.23058 1.03661 0
M  V30 6342 O 615.059 1.48436 0.964146 0
M  V30 6343 C 612.188 3.0338 1.60671 0
M  V30 6344 C 611.274 4.107 1.05766 0
M  V30 6345 N 611.665 5.05264 0.232837 0
M  V30 6346 C 609.963 4.25676 1.33101 0
M  V30 6347 C 610.664 5.81658 -0.0695134 0
M  V30 6348 N 609.64 5.40989 0.532144 0
M  V30 6349 H 613.442 2.93456 -0.161418 0
M  V30 6350 H 610.956 1.61291 -0.189495 0
M  V30 6351 H 612.953 3.52098 2.23232 0
M  V30 6352 H 611.613 2.34446 2.24644 0
M  V30 6353 H 612.624 5.17739 -0.129204 0
M  V30 6354 H 609.301 3.6797 1.97241 0
M  V30 6355 H 610.691 6.67843 -0.737269 0
M  V30 6356 N 613.412 0.11024 1.57214 0
M  V30 6357 C 614.661 -0.549638 1.94067 0
M  V30 6358 C 614.974 -1.68388 0.995234 0
M  V30 6359 O 616.18 -2.40593 1.25807 0
M  V30 6360 C 614.636 -1.02912 3.44873 0
M  V30 6361 C 614.244 0.0761861 4.47935 0
M  V30 6362 C 615.988 -1.66087 3.9066 0
M  V30 6363 C 613.895 -0.419502 5.8991 0
M  V30 6364 H 612.825 -0.209092 0.724428 0
M  V30 6365 H 615.476 0.188683 1.82527 0
M  V30 6366 H 613.858 -1.82159 3.51616 0
M  V30 6367 H 615.032 0.852185 4.52851 0
M  V30 6368 H 613.347 0.614052 4.11847 0
M  V30 6369 H 615.944 -2.04272 4.94143 0
M  V30 6370 H 616.287 -2.53591 3.30148 0
M  V30 6371 H 616.82 -0.933959 3.86681 0
M  V30 6372 H 613.559 0.419277 6.54158 0
M  V30 6373 H 613.079 -1.16217 5.88433 0
M  V30 6374 H 614.758 -0.883577 6.40938 0
M  V30 6375 N 614.89 -1.56749 -0.16351 0
M  V30 6376 C 616.118 -1.86577 -0.894233 0
M  V30 6377 C 616.533 -0.696543 -1.75481 0
M  V30 6378 O 615.89 0.334161 -1.79415 0
M  V30 6379 C 615.941 -3.15508 -1.76456 0
M  V30 6380 O 615.662 -4.27926 -0.938685 0
M  V30 6381 C 617.163 -3.58737 -2.60428 0
M  V30 6382 H 614.383 -0.618829 -0.259405 0
M  V30 6383 H 616.927 -2.03863 -0.161259 0
M  V30 6384 H 615.082 -3.00025 -2.45079 0
M  V30 6385 H 615.496 -5.01546 -1.53465 0
M  V30 6386 H 616.97 -4.51832 -3.17099 0
M  V30 6387 H 617.447 -2.83229 -3.35675 0
M  V30 6388 H 618.053 -3.76858 -1.97125 0
M  V30 6389 N 616.368 0.432326 -1.51554 0
M  V30 6390 C 617.298 1.53242 -1.76179 0
M  V30 6391 C 618.279 1.58717 -0.611801 0
M  V30 6392 O 619.464 1.74364 -0.855033 0
M  V30 6393 C 616.594 2.91278 -1.89141 0
M  V30 6394 C 615.548 3.00663 -3.04608 0
M  V30 6395 C 614.874 4.40728 -3.02759 0
M  V30 6396 C 616.174 2.74281 -4.44485 0
M  V30 6397 H 617.868 1.32886 -2.68294 0
M  V30 6398 H 615.414 0.637841 -1.29103 0
M  V30 6399 H 617.367 3.68203 -2.04951 0
M  V30 6400 H 616.091 3.12877 -0.936785 0
M  V30 6401 H 614.75 2.26179 -2.88511 0
M  V30 6402 H 614.398 4.59301 -2.05065 0
M  V30 6403 H 614.098 4.47936 -3.80299 0
M  V30 6404 H 615.622 5.19619 -3.20669 0
M  V30 6405 H 617.036 3.40936 -4.60907 0
M  V30 6406 H 615.433 2.92893 -5.23769 0
M  V30 6407 H 616.503 1.69856 -4.54177 0
M  V30 6408 N 617.846 1.41785 0.688094 0
M  V30 6409 C 618.756 1.46596 1.83158 0
M  V30 6410 C 619.772 0.355862 1.70322 0
M  V30 6411 O 620.948 0.604737 1.92106 0
M  V30 6412 C 618.013 1.35322 3.192 0
M  V30 6413 C 617.074 2.56711 3.4409 0
M  V30 6414 C 616.307 2.45965 4.73642 0
M  V30 6415 O 616.53 1.48827 5.50642 0
M  V30 6416 O 615.464 3.35859 4.99482 0
M  V30 6417 H 619.29 2.43083 1.82056 0
M  V30 6418 H 616.875 1.23404 0.842126 0
M  V30 6419 H 618.757 1.31347 4.00407 0
M  V30 6420 H 617.432 0.419536 3.2097 0
M  V30 6421 H 616.339 2.66262 2.62784 0
M  V30 6422 H 617.672 3.48933 3.47141 0
M  V30 6423 N 619.324 -0.923095 1.27737 0
M  V30 6424 C 620.549 -1.71054 1.17283 0
M  V30 6425 C 620.974 -1.86208 -0.266153 0
M  V30 6426 O 620.332 -1.36545 -1.1927 0
M  V30 6427 C 620.38 -3.0854 1.86642 0
M  V30 6428 O 619.484 -3.95528 1.16752 0
M  V30 6429 H 618.825 -0.524136 0.407649 0
M  V30 6430 H 621.355 -1.15487 1.6889 0
M  V30 6431 H 621.365 -3.58828 1.94182 0
M  V30 6432 H 620.04 -2.96828 2.91317 0
M  V30 6433 H 618.617 -3.53967 1.17312 0
M  V30 6434 N 620.802 -1.09834 -1.13024 0
M  V30 6435 C 622.048 -0.83819 -1.84668 0
M  V30 6436 C 622.381 0.634645 -1.83537 0
M  V30 6437 O 621.656 1.46753 -1.27647 0
M  V30 6438 C 621.939 -1.37933 -3.32636 0
M  V30 6439 C 621.792 -2.91857 -3.42257 0
M  V30 6440 C 623.111 -1.01654 -4.28199 0
M  V30 6441 H 620.23 -0.30595 -0.670495 0
M  V30 6442 H 622.872 -1.36044 -1.32635 0
M  V30 6443 H 621.022 -0.935111 -3.77078 0
M  V30 6444 H 622.694 -3.44759 -3.06495 0
M  V30 6445 H 620.937 -3.28776 -2.83 0
M  V30 6446 H 621.608 -3.24799 -4.46329 0
M  V30 6447 H 624.084 -1.39973 -3.9185 0
M  V30 6448 H 622.96 -1.42217 -5.30156 0
M  V30 6449 H 623.221 0.0747794 -4.42037 0
M  V30 6450 N 622.28 1.30327 -0.886154 0
M  V30 6451 C 623.505 2.0079 -0.519425 0
M  V30 6452 C 623.93 1.65979 0.885013 0
M  V30 6453 O 623.288 0.877043 1.58675 0
M  V30 6454 C 623.336 3.53686 -0.702758 0
M  V30 6455 O 622.44 4.11637 0.250828 0
M  V30 6456 H 621.781 0.63171 -0.204544 0
M  V30 6457 H 624.311 1.66145 -1.19402 0
M  V30 6458 H 624.321 4.03531 -0.602207 0
M  V30 6459 H 622.996 3.78361 -1.72673 0
M  V30 6460 H 621.573 3.72755 0.103873 0
M  V30 6461 N 623.758 0.647228 1.43697 0
M  V30 6462 C 624.706 -0.0600105 2.32523 0
M  V30 6463 C 625.7 -0.819277 1.48271 0
M  V30 6464 O 626.906 -0.730356 1.64517 0
M  V30 6465 H 623.281 -0.0381872 0.75103 0
M  V30 6466 H 625.252 0.706978 2.89904 0
M  V30 6467 C 624.001 -1.0169 3.32497 0
M  V30 6468 H 623.324 -0.442083 3.97348 0
M  V30 6469 H 624.764 -1.48095 3.97296 0
M  V30 6470 C 623.223 -2.11002 2.6264 0
M  V30 6471 O 623.753 -3.19302 2.4374 0
M  V30 6472 N 621.959 -1.87388 2.22113 0
M  V30 6473 H 621.506 -0.993174 2.37684 0
M  V30 6474 H 621.464 -2.60723 1.75701 0
M  V30 6475 N 625.236 -1.5273 0.388769 0
M  V30 6476 C 626.483 -2.01573 -0.19359 0
M  V30 6477 C 626.811 -1.27525 -1.46859 0
M  V30 6478 O 626.066 -0.363926 -1.92286 0
M  V30 6479 C 626.365 -3.53765 -0.508445 0
M  V30 6480 C 626.031 -4.4582 0.674947 0
M  V30 6481 C 624.693 -4.70703 0.999596 0
M  V30 6482 C 627.045 -5.00138 1.46666 0
M  V30 6483 C 624.373 -5.47155 2.11751 0
M  V30 6484 C 626.725 -5.77812 2.57518 0
M  V30 6485 C 625.389 -6.00975 2.90492 0
M  V30 6486 H 624.659 -0.737606 -0.0708397 0
M  V30 6487 H 627.306 -1.84134 0.526006 0
M  V30 6488 H 625.611 -3.69274 -1.30936 0
M  V30 6489 H 627.308 -3.8905 -0.971664 0
M  V30 6490 H 623.898 -4.26616 0.411906 0
M  V30 6491 H 628.082 -4.8084 1.22909 0
M  V30 6492 H 623.338 -5.63314 2.3767 0
M  V30 6493 H 627.512 -6.18904 3.19267 0
M  V30 6494 H 625.139 -6.59998 3.77236 0
M  V30 6495 N 626.714 -0.118576 -1.57153 0
M  V30 6496 C 627.644 0.828436 -2.1831 0
M  V30 6497 C 628.625 1.27758 -1.12303 0
M  V30 6498 O 629.81 1.34026 -1.40537 0
M  V30 6499 C 626.94 2.07876 -2.78217 0
M  V30 6500 C 625.894 1.76742 -3.89803 0
M  V30 6501 C 625.22 3.08801 -4.36516 0
M  V30 6502 C 626.52 1.03606 -5.11921 0
M  V30 6503 H 628.214 0.318824 -2.97698 0
M  V30 6504 H 625.76 0.151911 -1.43196 0
M  V30 6505 H 627.713 2.74584 -3.19659 0
M  V30 6506 H 626.437 2.61161 -1.96118 0
M  V30 6507 H 625.096 1.12424 -3.48936 0
M  V30 6508 H 624.744 3.6002 -3.51276 0
M  V30 6509 H 624.444 2.88743 -5.11763 0
M  V30 6510 H 625.968 3.76627 -4.80608 0
M  V30 6511 H 627.382 1.60467 -5.50385 0
M  V30 6512 H 625.779 0.936454 -5.92748 0
M  V30 6513 H 626.849 0.0227421 -4.84895 0
M  V30 6514 N 628.193 1.56834 0.155195 0
M  V30 6515 C 629.14 1.97646 1.19184 0
M  V30 6516 C 630.11 0.842788 1.4313 0
M  V30 6517 O 631.295 1.1042 1.55602 0
M  V30 6518 C 628.435 2.35527 2.52232 0
M  V30 6519 C 627.548 3.62147 2.35529 0
M  V30 6520 C 626.683 3.89167 3.61555 0
M  V30 6521 C 625.722 5.09084 3.39853 0
M  V30 6522 N 624.859 5.32156 4.5799 0
M  V30 6523 H 629.699 2.8601 0.836802 0
M  V30 6524 H 627.236 1.41507 0.401758 0
M  V30 6525 H 629.194 2.55516 3.29799 0
M  V30 6526 H 627.824 1.50253 2.85699 0
M  V30 6527 H 626.876 3.4998 1.49057 0
M  V30 6528 H 628.188 4.49871 2.15448 0
M  V30 6529 H 627.342 4.09611 4.47553 0
M  V30 6530 H 626.081 2.9985 3.84632 0
M  V30 6531 H 625.086 4.88522 2.52243 0
M  V30 6532 H 626.311 5.99947 3.18183 0
M  V30 6533 H 624.257 4.45791 4.81255 0
M  V30 6534 H 624.174 6.14133 4.40882 0
M  V30 6535 H 625.442 5.57091 5.45225 0
M  V30 6536 N 629.671 -0.424282 1.51781 0
M  V30 6537 C 630.948 -1.18464 1.55646 0
M  V30 6538 C 631.328 -2.08529 0.328438 0
M  V30 6539 O 630.676 -2.17969 -0.685693 0
M  V30 6540 C 630.886 -1.97514 2.87731 0
M  V30 6541 C 632.234 -2.54106 3.40169 0
M  V30 6542 O 633.258 -2.07711 2.89369 0
M  V30 6543 O 632.117 -3.38759 4.28841 0
M  V30 6544 H 629.211 -0.540055 0.626314 0
M  V30 6545 H 631.757 -0.432291 1.64102 0
M  V30 6546 H 630.529 -1.31444 3.68562 0
M  V30 6547 H 630.152 -2.79787 2.82498 0
M  V30 6548 N 631.149 -1.42148 -0.680565 0
M  V30 6549 C 632.396 -1.4231 -1.44063 0
M  V30 6550 C 632.724 -0.037488 -1.94464 0
M  V30 6551 O 631.979 0.953184 -1.70918 0
M  V30 6552 C 632.278 -2.38945 -2.65782 0
M  V30 6553 C 631.944 -3.85455 -2.33956 0
M  V30 6554 C 630.606 -4.25364 -2.24987 0
M  V30 6555 C 632.958 -4.77895 -2.08004 0
M  V30 6556 C 630.286 -5.55701 -1.88184 0
M  V30 6557 C 632.638 -6.08568 -1.72706 0
M  V30 6558 C 631.302 -6.47482 -1.62244 0
M  V30 6559 H 630.572 -0.520748 -0.527164 0
M  V30 6560 H 633.219 -1.7505 -0.776524 0
M  V30 6561 H 631.524 -1.99511 -3.37198 0
M  V30 6562 H 633.221 -2.36336 -3.23954 0
M  V30 6563 H 629.811 -3.53855 -2.41836 0
M  V30 6564 H 633.995 -4.47854 -2.1387 0
M  V30 6565 H 629.251 -5.84718 -1.78648 0
M  V30 6566 H 633.425 -6.79688 -1.5165 0
M  V30 6567 H 631.052 -7.48387 -1.33496 0
M  V30 6568 N 632.627 0.916307 -1.28225 0
M  V30 6569 C 633.557 2.0352 -1.14464 0
M  V30 6570 C 634.538 1.70045 -0.0430844 0
M  V30 6571 O 635.723 1.92954 -0.219619 0
M  V30 6572 C 632.853 3.37889 -0.803027 0
M  V30 6573 C 631.807 3.85516 -1.85908 0
M  V30 6574 C 631.133 5.1682 -1.37116 0
M  V30 6575 C 632.433 4.07655 -3.26519 0
M  V30 6576 H 634.127 2.1529 -2.08064 0
M  V30 6577 H 631.673 1.03446 -1.00174 0
M  V30 6578 H 633.626 4.15654 -0.693537 0
M  V30 6579 H 632.35 3.26164 0.168674 0
M  V30 6580 H 631.009 3.09953 -1.95767 0
M  V30 6581 H 630.657 5.01497 -0.38859 0
M  V30 6582 H 630.357 5.49657 -2.07728 0
M  V30 6583 H 631.881 5.97143 -1.27484 0
M  V30 6584 H 633.295 4.75953 -3.19596 0
M  V30 6585 H 631.692 4.51818 -3.94943 0
M  V30 6586 H 632.762 3.12553 -3.70727 0
M  V30 6587 N 634.105 1.10431 1.1244 0
M  V30 6588 C 635.055 0.722378 2.16254 0
M  V30 6589 C 636.039 -0.268427 1.58645 0
M  V30 6590 O 637.231 -0.077169 1.76832 0
M  V30 6591 C 634.36 0.155763 3.42946 0
M  V30 6592 C 633.446 1.17361 4.07538 0
M  V30 6593 N 633.837 2.36429 4.47141 0
M  V30 6594 C 632.135 1.01412 4.34317 0
M  V30 6595 C 632.836 3.01259 4.97612 0
M  V30 6596 N 631.812 2.28777 4.93115 0
M  V30 6597 H 635.614 1.62876 2.4464 0
M  V30 6598 H 633.128 0.982031 1.29344 0
M  V30 6599 H 635.125 -0.135936 4.16678 0
M  V30 6600 H 633.785 -0.745339 3.1603 0
M  V30 6601 H 634.796 2.73954 4.39511 0
M  V30 6602 H 631.473 0.168574 4.1716 0
M  V30 6603 H 632.863 4.02541 5.37968 0
M  V30 6604 N 635.583 -1.29855 0.893053 0
M  V30 6605 C 636.53 -2.27909 0.364161 0
M  V30 6606 C 637.5 -1.56726 -0.550093 0
M  V30 6607 O 638.685 -1.84747 -0.47677 0
M  V30 6608 C 635.825 -3.42678 -0.408178 0
M  V30 6609 C 634.938 -4.28659 0.536212 0
M  V30 6610 C 634.073 -5.30599 -0.252521 0
M  V30 6611 C 633.112 -6.08234 0.686822 0
M  V30 6612 N 632.249 -7.02068 -0.0670902 0
M  V30 6613 H 637.089 -2.72531 1.20544 0
M  V30 6614 H 634.626 -1.34047 0.605779 0
M  V30 6615 H 636.584 -4.07986 -0.871962 0
M  V30 6616 H 635.214 -2.99103 -1.21397 0
M  V30 6617 H 634.266 -3.63584 1.1185 0
M  V30 6618 H 635.578 -4.8274 1.25552 0
M  V30 6619 H 634.732 -6.01694 -0.777801 0
M  V30 6620 H 633.471 -4.77233 -1.005 0
M  V30 6621 H 632.476 -5.3601 1.22366 0
M  V30 6622 H 633.701 -6.63689 1.43852 0
M  V30 6623 H 631.647 -6.5108 -0.801955 0
M  V30 6624 H 631.564 -7.53675 0.59243 0
M  V30 6625 H 632.832 -7.77392 -0.572851 0
M  V30 6626 N 637.061 -0.65484 -1.43351 0
M  V30 6627 C 638.338 -0.0987371 -1.95351 0
M  V30 6628 C 638.718 1.38161 -1.59608 0
M  V30 6629 O 638.066 2.10791 -0.882021 0
M  V30 6630 C 638.276 -0.346684 -3.47274 0
M  V30 6631 C 639.624 -0.25249 -4.23849 0
M  V30 6632 O 640.648 -0.279332 -3.55103 0
M  V30 6633 O 639.507 -0.177584 -5.46211 0
M  V30 6634 H 636.601 0.0086829 -0.826954 0
M  V30 6635 H 639.147 -0.728189 -1.53282 0
M  V30 6636 H 637.919 -1.37296 -3.66423 0
M  V30 6637 H 637.542 0.315757 -3.96344 0
M  V30 6638 N 638.539 1.52521 -0.396863 0
M  V30 6639 C 639.955 1.5953 -0.0471659 0
M  V30 6640 C 640.155 1.41044 1.43906 0
M  V30 6641 O 639.211 1.23122 2.20448 0
M  V30 6642 C 640.524 2.95972 -0.531113 0
M  V30 6643 C 642.072 3.09172 -0.488024 0
M  V30 6644 C 642.547 4.48075 -0.948281 0
M  V30 6645 N 644.038 4.54281 -0.9046 0
M  V30 6646 C 644.773 5.60007 -1.23205 0
M  V30 6647 N 644.269 6.73343 -1.63036 0
M  V30 6648 N 646.062 5.50151 -1.15282 0
M  V30 6649 H 638.213 1.62786 -1.36435 0
M  V30 6650 H 640.476 0.76514 -0.559701 0
M  V30 6651 H 640.182 3.14741 -1.56942 0
M  V30 6652 H 640.056 3.77143 0.0657922 0
M  V30 6653 H 642.443 2.90095 0.541211 0
M  V30 6654 H 642.524 2.29937 -1.12083 0
M  V30 6655 H 642.168 4.67894 -1.97578 0
M  V30 6656 H 642.098 5.25788 -0.292412 0
M  V30 6657 H 644.589 3.72918 -0.6116 0
M  V30 6658 H 644.902 7.49992 -1.86365 0
M  V30 6659 H 643.247 6.74655 -1.66929 0
M  V30 6660 H 646.438 4.6049 -0.840602 0
M  V30 6661 H 646.611 6.32444 -1.41133 0
M  V30 6662 N 640.017 0.126909 1.57088 0
M  V30 6663 C 641.294 -0.573152 1.87014 0
M  V30 6664 C 641.674 -1.84297 1.02945 0
M  V30 6665 O 641.022 -2.28232 0.110573 0
M  V30 6666 C 641.232 -0.857984 3.38289 0
M  V30 6667 C 642.58 -1.20759 4.07066 0
M  V30 6668 O 643.604 -0.947992 3.43353 0
M  V30 6669 O 642.463 -1.69516 5.19545 0
M  V30 6670 H 639.557 -0.290082 0.774456 0
M  V30 6671 H 642.103 0.162008 1.68925 0
M  V30 6672 H 640.875 0.0415286 3.91278 0
M  V30 6673 H 640.498 -1.64803 3.61837 0
M  V30 6674 N 641.495 -1.56914 -0.146875 0
M  V30 6675 C 642.772 -1.74273 -0.888165 0
M  V30 6676 C 643.152 -0.69496 -1.99333 0
M  V30 6677 O 642.5 0.286093 -2.26702 0
M  V30 6678 C 642.71 -3.18336 -1.43051 0
M  V30 6679 C 644.058 -3.80024 -1.89387 0
M  V30 6680 O 645.082 -3.21765 -1.52792 0
M  V30 6681 O 643.941 -4.82367 -2.56874 0
M  V30 6682 H 641.035 -0.712565 -0.419738 0
M  V30 6683 H 643.581 -1.6918 -0.132791 0
M  V30 6684 H 642.353 -3.86092 -0.636274 0
M  V30 6685 H 641.976 -3.27854 -2.24938 0
M  V30 6686 N 642.974 0.416227 -1.52004 0
M  V30 6687 C 644.22 1.16555 -1.6596 0
M  V30 6688 C 644.553 1.90347 -0.384906 0
M  V30 6689 O 643.828 1.84474 0.616405 0
M  V30 6690 C 644.111 2.1657 -2.87696 0
M  V30 6691 C 643.964 1.46722 -4.25197 0
M  V30 6692 C 645.283 3.17321 -3.04951 0
M  V30 6693 H 642.402 0.422369 -0.603965 0
M  V30 6694 H 645.044 0.452141 -1.84542 0
M  V30 6695 H 643.194 2.77411 -2.71985 0
M  V30 6696 H 644.866 0.89056 -4.52622 0
M  V30 6697 H 643.109 0.769263 -4.26925 0
M  V30 6698 H 643.78 2.19665 -5.0641 0
M  V30 6699 H 646.256 2.66552 -3.19514 0
M  V30 6700 H 645.132 3.84573 -3.91656 0
M  V30 6701 H 645.393 3.84643 -2.17951 0
M  V30 6702 N 644.452 1.42507 0.673017 0
M  V30 6703 C 645.4 1.46362 1.80779 0
M  V30 6704 C 646.394 0.339166 1.6597 0
M  V30 6705 O 647.6 0.512262 1.72557 0
M  V30 6706 H 643.975 0.458433 0.596107 0
M  V30 6707 H 645.946 2.41953 1.74646 0
M  V30 6708 C 644.695 1.38462 3.18941 0
M  V30 6709 H 644.018 2.24283 3.30964 0
M  V30 6710 H 645.458 1.45221 3.98355 0
M  V30 6711 C 643.917 0.0996354 3.36753 0
M  V30 6712 O 644.447 -0.846894 3.92671 0
M  V30 6713 N 642.653 0.016211 2.90595 0
M  V30 6714 H 642.2 0.78725 2.45276 0
M  V30 6715 H 642.158 -0.84291 3.0289 0
M  V30 6716 N 645.93 -0.909495 1.28709 0
M  V30 6717 C 647.176 -1.66151 1.16283 0
M  V30 6718 C 647.509 -1.92067 -0.287069 0
M  V30 6719 O 646.784 -1.52409 -1.20837 0
M  V30 6720 C 647.067 -3.01676 1.9663 0
M  V30 6721 C 646.92 -2.82888 3.49707 0
M  V30 6722 C 648.239 -4.02274 1.78504 0
M  V30 6723 H 645.358 -0.602966 0.423793 0
M  V30 6724 H 648 -1.05418 1.58073 0
M  V30 6725 H 646.15 -3.53515 1.61119 0
M  V30 6726 H 647.822 -2.38026 3.95147 0
M  V30 6727 H 646.065 -2.17862 3.75125 0
M  V30 6728 H 646.736 -3.79147 4.01187 0
M  V30 6729 H 649.212 -3.59511 2.09503 0
M  V30 6730 H 648.088 -4.95056 2.37088 0
M  V30 6731 H 648.349 -4.35903 0.737647 0
M  V30 6732 N 647.408 -1.11026 -1.11852 0
M  V30 6733 C 648.318 -0.777252 -2.2135 0
M  V30 6734 C 649.334 0.227821 -1.72502 0
M  V30 6735 O 650.51 0.0650587 -2.01295 0
M  V30 6736 C 647.575 -0.220668 -3.45997 0
M  V30 6737 C 646.636 -1.2838 -4.09655 0
M  V30 6738 C 645.869 -0.753678 -5.28352 0
M  V30 6739 O 646.092 0.417779 -5.68868 0
M  V30 6740 O 645.026 -1.51647 -5.82483 0
M  V30 6741 H 648.852 -1.69141 -2.5224 0
M  V30 6742 H 646.437 -0.885836 -1.20305 0
M  V30 6743 H 648.319 0.0855756 -4.21313 0
M  V30 6744 H 646.994 0.666262 -3.16769 0
M  V30 6745 H 645.901 -1.64299 -3.3609 0
M  V30 6746 H 647.234 -2.14396 -4.43052 0
M  V30 6747 N 648.886 1.2938 -0.899927 0
M  V30 6748 C 650.135 1.9483 -0.521937 0
M  V30 6749 C 650.448 1.71725 0.936473 0
M  V30 6750 O 651.654 2.31282 1.42199 0
M  V30 6751 C 650.11 3.48911 -0.88255 0
M  V30 6752 C 649.718 3.80815 -2.35974 0
M  V30 6753 C 651.462 4.20595 -0.57448 0
M  V30 6754 C 649.369 5.28142 -2.66121 0
M  V30 6755 H 648.299 0.729285 -0.191468 0
M  V30 6756 H 650.95 1.47103 -1.09695 0
M  V30 6757 H 649.332 3.95293 -0.236459 0
M  V30 6758 H 650.506 3.45291 -3.05141 0
M  V30 6759 H 648.821 3.22271 -2.63686 0
M  V30 6760 H 651.418 5.29031 -0.776556 0
M  V30 6761 H 651.761 4.13442 0.487005 0
M  V30 6762 H 652.294 3.79945 -1.17842 0
M  V30 6763 H 649.033 5.4036 -3.71068 0
M  V30 6764 H 648.553 5.64913 -2.01578 0
M  V30 6765 H 650.232 5.95738 -2.52399 0
M  V30 6766 N 650.364 0.662433 1.43002 0
M  V30 6767 C 651.61 0.179857 2.02001 0
M  V30 6768 C 651.943 -1.20625 1.52195 0
M  V30 6769 O 651.218 -1.80726 0.718911 0
M  V30 6770 C 651.501 0.200845 3.59539 0
M  V30 6771 C 651.354 1.62153 4.19555 0
M  V30 6772 C 652.673 -0.457738 4.37713 0
M  V30 6773 H 649.792 0.0668305 0.733964 0
M  V30 6774 H 652.434 0.84487 1.70182 0
M  V30 6775 H 650.584 -0.365411 3.86778 0
M  V30 6776 H 652.256 2.23908 4.03315 0
M  V30 6777 H 650.499 2.16601 3.75854 0
M  V30 6778 H 651.17 1.58799 5.28665 0
M  V30 6779 H 653.646 0.0241495 4.16093 0
M  V30 6780 H 652.522 -0.412363 5.47349 0
M  V30 6781 H 652.783 -1.53336 4.14657 0
M  V30 6782 N 651.842 -1.52309 0.404946 0
M  V30 6783 C 653.089 -2.01767 -0.1722 0
M  V30 6784 C 653.417 -1.29075 -1.45498 0
M  V30 6785 O 652.672 -0.3843 -1.9189 0
M  V30 6786 C 652.971 -3.54284 -0.470895 0
M  V30 6787 C 652.637 -4.45079 0.722194 0
M  V30 6788 C 651.299 -4.69617 1.04946 0
M  V30 6789 C 653.651 -4.98555 1.51962 0
M  V30 6790 C 650.979 -5.44878 2.17543 0
M  V30 6791 C 653.331 -5.75049 2.63632 0
M  V30 6792 C 651.995 -5.9786 2.9685 0
M  V30 6793 H 651.265 -0.738316 -0.0630125 0
M  V30 6794 H 653.912 -1.83566 0.545506 0
M  V30 6795 H 652.217 -3.70642 -1.27012 0
M  V30 6796 H 653.914 -3.90058 -0.930346 0
M  V30 6797 H 650.504 -4.26155 0.457131 0
M  V30 6798 H 654.688 -4.79509 1.28002 0
M  V30 6799 H 649.944 -5.60762 2.43631 0
M  V30 6800 H 654.118 -6.15483 3.25813 0
M  V30 6801 H 651.745 -6.5596 3.84215 0
M  V30 6802 N 653.32 -0.135238 -1.57019 0
M  V30 6803 C 654.25 0.805235 -2.19176 0
M  V30 6804 C 655.231 1.2656 -1.13651 0
M  V30 6805 O 656.416 1.32528 -1.4195 0
M  V30 6806 C 653.546 2.04914 -2.80406 0
M  V30 6807 C 652.5 1.72598 -3.91655 0
M  V30 6808 C 651.826 3.04154 -4.39766 0
M  V30 6809 C 653.126 0.981709 -5.12991 0
M  V30 6810 H 654.82 0.287232 -2.98019 0
M  V30 6811 H 652.366 0.136714 -1.4335 0
M  V30 6812 H 654.319 2.71178 -3.22553 0
M  V30 6813 H 653.043 2.59067 -1.98877 0
M  V30 6814 H 651.702 1.08717 -3.50109 0
M  V30 6815 H 651.35 3.56274 -3.55075 0
M  V30 6816 H 651.05 2.83299 -5.14796 0
M  V30 6817 H 652.574 3.71509 -4.84576 0
M  V30 6818 H 653.988 1.5462 -5.52056 0
M  V30 6819 H 652.385 0.873533 -5.93708 0
M  V30 6820 H 653.455 -0.0286887 -4.84892 0
M  V30 6821 N 654.798 1.5699 0.138552 0
M  V30 6822 C 655.748 1.9532 1.17619 0
M  V30 6823 C 656.732 0.825545 1.38107 0
M  V30 6824 O 657.924 1.08908 1.39528 0
M  V30 6825 C 655.053 2.34451 2.50774 0
M  V30 6826 C 654.139 3.53805 2.33844 0
M  V30 6827 N 654.53 4.70088 1.86685 0
M  V30 6828 C 652.828 3.59055 2.64567 0
M  V30 6829 C 653.529 5.52165 1.82998 0
M  V30 6830 N 652.505 4.94108 2.26624 0
M  V30 6831 H 656.307 2.82694 0.803809 0
M  V30 6832 H 653.821 1.5866 0.346519 0
M  V30 6833 H 655.818 2.60119 3.25797 0
M  V30 6834 H 654.478 1.48431 2.88788 0
M  V30 6835 H 655.489 4.93681 1.56523 0
M  V30 6836 H 652.166 2.83596 3.06398 0
M  V30 6837 H 653.556 6.55407 1.47957 0
M  V30 6838 N 656.276 -0.40816 1.52223 0
M  V30 6839 C 657.224 -1.51788 1.76248 0
M  V30 6840 C 658.218 -1.57264 0.629638 0
M  V30 6841 O 659.424 -1.60659 0.811704 0
M  V30 6842 H 655.799 -0.504823 0.557367 0
M  V30 6843 H 657.77 -1.2871 2.69214 0
M  V30 6844 C 656.519 -2.89145 1.93107 0
M  V30 6845 H 655.842 -2.85674 2.79697 0
M  V30 6846 H 657.282 -3.66082 2.13916 0
M  V30 6847 C 655.741 -3.29581 0.698431 0
M  V30 6848 O 656.271 -4.01479 -0.133238 0
M  V30 6849 N 654.477 -2.85651 0.53405 0
M  V30 6850 H 654.024 -2.2731 1.21194 0
M  V30 6851 H 653.982 -3.13065 -0.289387 0
M  V30 6852 N 657.755 -1.42862 -0.66545 0
M  V30 6853 C 659.004 -1.43119 -1.42126 0
M  V30 6854 C 659.317 -0.0545297 -1.95524 0
M  V30 6855 O 660.523 0.0654747 -2.71421 0
M  V30 6856 C 658.979 -2.51797 -2.5715 0
M  V30 6857 C 658.587 -3.95514 -2.10411 0
M  V30 6858 C 660.331 -2.61233 -3.346 0
M  V30 6859 C 658.238 -4.95682 -3.22573 0
M  V30 6860 H 657.168 -0.532349 -0.533966 0
M  V30 6861 H 659.819 -1.68806 -0.719506 0
M  V30 6862 H 658.201 -2.19292 -3.29738 0
M  V30 6863 H 659.375 -4.3742 -1.44915 0
M  V30 6864 H 657.69 -3.90012 -1.45874 0
M  V30 6865 H 660.287 -3.33248 -4.18151 0
M  V30 6866 H 660.63 -1.65896 -3.81817 0
M  V30 6867 H 661.163 -2.9298 -2.69087 0
M  V30 6868 H 657.902 -5.92529 -2.80338 0
M  V30 6869 H 657.422 -4.58399 -3.86821 0
M  V30 6870 H 659.101 -5.17828 -3.87896 0
M  V30 6871 N 659.233 0.902656 -1.29189 0
M  V30 6872 C 660.458 1.69167 -1.19989 0
M  V30 6873 C 660.883 1.86607 0.236495 0
M  V30 6874 O 660.241 1.38425 1.17082 0
M  V30 6875 C 660.289 3.05532 -1.91527 0
M  V30 6876 O 659.393 3.93621 -1.2303 0
M  V30 6877 H 658.734 0.517584 -0.415936 0
M  V30 6878 H 661.264 1.12785 -1.70706 0
M  V30 6879 H 661.274 3.55693 -1.99866 0
M  V30 6880 H 659.949 2.92156 -2.96003 0
M  V30 6881 H 658.526 3.52055 -1.22928 0
M  V30 6882 N 660.711 1.11618 1.11262 0
M  V30 6883 C 662.122 0.881942 1.64556 0
M  V30 6884 C 662.473 -0.585442 1.87262 0
M  V30 6885 O 661.598 -1.44795 1.60821 0
M  V30 6886 C 662.193 1.59446 2.98935 0
M  V30 6887 C 660.752 1.40661 3.4913 0
M  V30 6888 C 659.899 1.63593 2.23903 0
M  V30 6889 H 662.85 1.27217 0.94877 0
M  V30 6890 H 662.871 1.04054 3.65996 0
M  V30 6891 H 662.383 2.66241 2.82378 0
M  V30 6892 H 660.484 0.360835 3.70849 0
M  V30 6893 H 660.597 2.15693 4.27801 0
M  V30 6894 H 658.961 1.05944 2.3162 0
M  V30 6895 H 659.744 2.71666 2.09886 0
M  V30 6896 N 662.189 -1.289 0.906776 0
M  V30 6897 C 663.137 -2.29477 0.379873 0
M  V30 6898 C 664.131 -1.61068 -0.524747 0
M  V30 6899 O 665.337 -1.75344 -0.406765 0
M  V30 6900 H 661.712 -0.744742 0.10423 0
M  V30 6901 H 663.683 -2.71353 1.24137 0
M  V30 6902 C 662.432 -3.45713 -0.371154 0
M  V30 6903 H 661.755 -3.98551 0.315716 0
M  V30 6904 H 663.195 -4.18105 -0.704581 0
M  V30 6905 C 661.654 -2.9774 -1.57646 0
M  V30 6906 O 662.184 -2.99618 -2.67567 0
M  V30 6907 N 660.39 -2.53485 -1.42105 0
M  V30 6908 H 659.937 -2.52156 -0.526783 0
M  V30 6909 H 659.895 -2.21747 -2.22881 0
M  V30 6910 N 663.667 -0.670007 -1.42649 0
M  V30 6911 C 664.597 -0.00258501 -2.335 0
M  V30 6912 C 665.578 0.794364 -1.50412 0
M  V30 6913 O 666.763 0.75248 -1.79029 0
M  V30 6914 C 663.893 0.952748 -3.33976 0
M  V30 6915 C 662.847 0.264733 -4.2718 0
M  V30 6916 C 662.173 1.33267 -5.17826 0
M  V30 6917 C 663.473 -0.853289 -5.15283 0
M  V30 6918 H 665.167 -0.761326 -2.89559 0
M  V30 6919 H 662.713 -0.367561 -1.3923 0
M  V30 6920 H 664.666 1.4287 -3.96442 0
M  V30 6921 H 663.39 1.74285 -2.7621 0
M  V30 6922 H 662.049 -0.190938 -3.66102 0
M  V30 6923 H 661.697 2.11464 -4.5639 0
M  V30 6924 H 661.397 0.877476 -5.81011 0
M  V30 6925 H 662.921 1.80965 -5.83167 0
M  V30 6926 H 664.335 -0.458763 -5.71462 0
M  V30 6927 H 662.732 -1.23398 -5.87276 0
M  V30 6928 H 663.802 -1.70412 -4.53969 0
M  V30 6929 N 665.145 1.52092 -0.413018 0
M  V30 6930 C 666.055 2.30858 0.417318 0
M  V30 6931 C 667.071 1.38746 1.05003 0
M  V30 6932 O 668.247 1.71821 1.05069 0
M  V30 6933 C 665.312 3.11756 1.51687 0
M  V30 6934 C 664.373 4.19613 0.906825 0
M  V30 6935 C 663.606 4.96644 1.95399 0
M  V30 6936 O 663.829 4.7402 3.17271 0
M  V30 6937 O 662.763 5.81385 1.55805 0
M  V30 6938 H 666.589 3.02865 -0.225028 0
M  V30 6939 H 664.174 1.48358 -0.176126 0
M  V30 6940 H 666.056 3.62122 2.15512 0
M  V30 6941 H 664.731 2.42539 2.14375 0
M  V30 6942 H 663.638 3.73385 0.231183 0
M  V30 6943 H 664.971 4.91134 0.323814 0
M  V30 6944 N 666.623 0.143563 1.56945 0
M  V30 6945 C 667.553 -0.7936 2.196 0
M  V30 6946 C 668.534 -1.25955 1.14321 0
M  V30 6947 O 669.719 -1.31773 1.42651 0
M  V30 6948 C 666.849 -2.03424 2.81489 0
M  V30 6949 C 665.803 -1.70519 3.92565 0
M  V30 6950 C 665.129 -3.01817 4.41373 0
M  V30 6951 C 666.429 -0.95449 5.13504 0
M  V30 6952 H 668.123 -0.271423 2.98167 0
M  V30 6953 H 665.669 -0.12911 1.4342 0
M  V30 6954 H 667.622 -2.69463 3.23987 0
M  V30 6955 H 666.346 -2.58008 2.00248 0
M  V30 6956 H 665.005 -1.06859 3.5068 0
M  V30 6957 H 664.653 -3.54386 3.56959 0
M  V30 6958 H 664.353 -2.80565 5.16292 0
M  V30 6959 H 665.877 -3.68934 4.86539 0
M  V30 6960 H 667.291 -1.5169 5.52868 0
M  V30 6961 H 665.688 -0.842035 5.94163 0
M  V30 6962 H 666.758 0.0544033 4.84869 0
M  V30 6963 N 668.101 -1.57061 -0.130224 0
M  V30 6964 C 669.011 -2.02802 -1.17934 0
M  V30 6965 C 670.027 -0.946378 -1.46013 0
M  V30 6966 O 671.203 -1.25708 -1.57351 0
M  V30 6967 C 668.268 -2.41368 -2.48882 0
M  V30 6968 C 667.329 -3.63561 -2.28301 0
M  V30 6969 C 666.562 -4.00279 -3.53005 0
M  V30 6970 O 666.785 -3.37463 -4.59864 0
M  V30 6971 O 665.719 -4.93441 -3.44673 0
M  V30 6972 H 669.545 -2.92394 -0.820958 0
M  V30 6973 H 667.13 -1.45475 -0.340197 0
M  V30 6974 H 669.012 -2.66958 -3.26054 0
M  V30 6975 H 667.687 -1.54926 -2.84217 0
M  V30 6976 H 666.594 -3.43136 -1.49025 0
M  V30 6977 H 667.927 -4.50673 -1.97875 0
M  V30 6978 N 669.579 0.400081 -1.52437 0
M  V30 6979 C 670.542 1.4707 -1.75793 0
M  V30 6980 C 671.542 1.48036 -0.627856 0
M  V30 6981 O 672.732 1.49401 -0.895817 0
M  V30 6982 C 669.864 2.86427 -1.84858 0
M  V30 6983 H 671.057 1.27649 -2.71377 0
M  V30 6984 H 668.61 0.631141 -1.42991 0
M  V30 6985 H 669.345 3.11207 -0.912194 0
M  V30 6986 H 669.13 2.87128 -2.6702 0
M  V30 6987 H 670.62 3.64023 -2.04638 0
M  V30 6988 N 671.057 1.43213 0.657864 0
M  V30 6989 C 671.987 1.50815 1.78262 0
M  V30 6990 C 672.968 0.363211 1.66177 0
M  V30 6991 O 674.153 0.579806 1.85343 0
M  V30 6992 C 671.283 1.42625 3.16663 0
M  V30 6993 C 670.237 2.5532 3.43505 0
M  V30 6994 C 669.563 2.32184 4.81658 0
M  V30 6995 C 670.863 3.97583 3.38711 0
M  V30 6996 H 672.557 2.44954 1.72157 0
M  V30 6997 H 670.103 1.17896 0.82683 0
M  V30 6998 H 672.056 1.46548 3.95097 0
M  V30 6999 H 670.78 0.449877 3.23487 0
M  V30 7000 H 669.439 2.50742 2.6744 0
M  V30 7001 H 669.087 1.32801 4.85153 0
M  V30 7002 H 668.787 3.07724 5.00579 0
M  V30 7003 H 670.311 2.37883 5.62356 0
M  V30 7004 H 671.725 4.03673 4.07089 0
M  V30 7005 H 670.122 4.73112 3.69168 0
M  V30 7006 H 671.192 4.23049 2.36976 0
M  V30 7007 N 672.536 -0.895792 1.29666 0
M  V30 7008 C 673.783 -1.64664 1.17864 0
M  V30 7009 C 674.111 -1.92631 -0.26902 0
M  V30 7010 O 673.366 -1.53787 -1.21029 0
M  V30 7011 C 673.665 -3.00075 1.94139 0
M  V30 7012 C 673.331 -2.91702 3.43833 0
M  V30 7013 C 671.993 -2.89126 3.84656 0
M  V30 7014 C 674.345 -2.80622 4.39205 0
M  V30 7015 C 671.673 -2.73293 5.1916 0
M  V30 7016 C 674.025 -2.66329 5.73805 0
M  V30 7017 C 672.689 -2.62121 6.1388 0
M  V30 7018 H 671.959 -0.602549 0.431295 0
M  V30 7019 H 674.606 -1.04234 1.60648 0
M  V30 7020 H 672.911 -3.64394 1.43958 0
M  V30 7021 H 674.608 -3.57111 1.82408 0
M  V30 7022 H 671.198 -2.94511 3.11386 0
M  V30 7023 H 675.382 -2.81686 4.08615 0
M  V30 7024 H 670.638 -2.68443 5.49316 0
M  V30 7025 H 674.812 -2.56727 6.47352 0
M  V30 7026 H 672.439 -2.49611 7.18052 0
M  V30 7027 N 674.014 -1.12206 -1.10668 0
M  V30 7028 C 674.961 -0.787716 -2.16942 0
M  V30 7029 C 675.931 0.244442 -1.64291 0
M  V30 7030 O 677.116 0.119558 -1.90425 0
M  V30 7031 C 674.256 -0.24584 -3.44223 0
M  V30 7032 C 673.369 -1.33552 -4.10838 0
M  V30 7033 C 672.504 -0.753337 -5.25831 0
M  V30 7034 C 671.543 -1.82231 -5.84344 0
M  V30 7035 N 670.68 -1.25902 -6.90719 0
M  V30 7036 H 675.52 -1.69809 -2.44885 0
M  V30 7037 H 673.057 -0.847862 -1.20207 0
M  V30 7038 H 675.015 0.0863639 -4.17111 0
M  V30 7039 H 673.645 0.627702 -3.16638 0
M  V30 7040 H 672.697 -1.78454 -3.35944 0
M  V30 7041 H 674.009 -2.14396 -4.50373 0
M  V30 7042 H 673.163 -0.37166 -6.05561 0
M  V30 7043 H 671.902 0.0863297 -4.87624 0
M  V30 7044 H 670.907 -2.2132 -5.03287 0
M  V30 7045 H 672.132 -2.66515 -6.24617 0
M  V30 7046 H 670.078 -0.44114 -6.54515 0
M  V30 7047 H 669.995 -2.00408 -7.28953 0
M  V30 7048 H 671.263 -0.904498 -7.74235 0
M  V30 7049 N 675.492 1.28418 -0.913599 0
M  V30 7050 C 676.908 1.47411 -0.611728 0
M  V30 7051 C 677.108 1.83018 0.843008 0
M  V30 7052 O 676.164 1.93505 1.6221 0
M  V30 7053 C 677.477 2.57703 -1.5495 0
M  V30 7054 C 679.025 2.71572 -1.5562 0
M  V30 7055 C 679.5 3.85008 -2.48058 0
M  V30 7056 N 680.991 3.92361 -2.46184 0
M  V30 7057 C 681.726 4.79516 -3.14407 0
M  V30 7058 N 681.222 5.71262 -3.91958 0
M  V30 7059 N 683.015 4.73125 -3.03495 0
M  V30 7060 H 675.166 1.03585 -1.85429 0
M  V30 7061 H 677.429 0.515907 -0.795326 0
M  V30 7062 H 677.135 2.38298 -2.58663 0
M  V30 7063 H 677.009 3.54801 -1.28048 0
M  V30 7064 H 679.396 2.90366 -0.526441 0
M  V30 7065 H 679.477 1.75006 -1.86565 0
M  V30 7066 H 679.121 3.66969 -3.51136 0
M  V30 7067 H 679.051 4.80971 -2.14416 0
M  V30 7068 H 681.542 3.26749 -1.89851 0
M  V30 7069 H 681.855 6.34593 -4.41034 0
M  V30 7070 H 680.2 5.71103 -3.96063 0
M  V30 7071 H 683.391 4.00442 -2.42413 0
M  V30 7072 H 683.564 5.40834 -3.56935 0
M  V30 7073 N 676.97 0.677563 1.42291 0
M  V30 7074 C 677.92 -0.0218641 2.2799 0
M  V30 7075 C 678.904 -0.770816 1.41235 0
M  V30 7076 O 680.096 -0.649273 1.64662 0
M  V30 7077 C 677.225 -0.970449 3.29298 0
M  V30 7078 C 676.311 -0.218695 4.23536 0
M  V30 7079 N 676.702 0.777908 4.99782 0
M  V30 7080 C 675 -0.456748 4.43655 0
M  V30 7081 C 675.701 1.22632 5.68627 0
M  V30 7082 N 674.677 0.55573 5.40752 0
M  V30 7083 H 678.479 0.742516 2.84366 0
M  V30 7084 H 675.993 0.506862 1.54288 0
M  V30 7085 H 677.99 -1.48652 3.89497 0
M  V30 7086 H 676.65 -1.73463 2.74483 0
M  V30 7087 H 677.661 1.15754 5.04798 0
M  V30 7088 H 674.338 -1.20021 3.99877 0
M  V30 7089 H 675.728 2.05231 6.39789 0
M  V30 7090 N 678.448 -1.51871 0.421078 0
M  V30 7091 C 679.695 -2.01938 -0.15079 0
M  V30 7092 C 680.023 -1.30611 -1.44121 0
M  V30 7093 O 679.278 -0.404631 -1.91471 0
M  V30 7094 C 679.577 -3.54764 -0.433292 0
M  V30 7095 C 679.243 -4.44288 0.76936 0
M  V30 7096 C 677.905 -4.68477 1.09921 0
M  V30 7097 C 680.257 -4.96915 1.57242 0
M  V30 7098 C 677.585 -5.4254 2.2331 0
M  V30 7099 C 679.937 -5.7222 2.69716 0
M  V30 7100 C 678.601 -5.94678 3.03174 0
M  V30 7101 H 677.871 -0.738943 -0.0551781 0
M  V30 7102 H 680.518 -1.82977 0.564945 0
M  V30 7103 H 678.823 -3.71968 -1.23074 0
M  V30 7104 H 680.52 -3.91023 -0.888922 0
M  V30 7105 H 677.11 -4.25646 0.502305 0
M  V30 7106 H 681.294 -4.78125 1.3308 0
M  V30 7107 H 676.55 -5.58146 2.49565 0
M  V30 7108 H 680.724 -6.11992 3.32323 0
M  V30 7109 H 678.351 -6.51848 3.9115 0
M  V30 7110 N 679.926 -0.151884 -1.56866 0
M  V30 7111 C 681.154 0.504813 -2.00647 0
M  V30 7112 C 681.569 1.58098 -1.03201 0
M  V30 7113 O 680.926 1.82476 -0.0297814 0
M  V30 7114 C 680.977 1.10099 -3.44326 0
M  V30 7115 O 680.698 0.0678021 -4.38048 0
M  V30 7116 C 682.199 1.83782 -4.03409 0
M  V30 7117 H 679.419 0.130989 -0.65809 0
M  V30 7118 H 681.963 -0.247903 -2.02992 0
M  V30 7119 H 680.118 1.8043 -3.42817 0
M  V30 7120 H 680.532 0.505237 -5.22061 0
M  V30 7121 H 682.006 2.2078 -5.05925 0
M  V30 7122 H 682.483 2.72557 -3.44397 0
M  V30 7123 H 683.089 1.18138 -4.08563 0
M  V30 7124 N 681.404 1.57128 0.121893 0
M  V30 7125 C 682.336 1.96773 1.17529 0
M  V30 7126 C 683.349 0.866668 1.37814 0
M  V30 7127 O 684.538 1.14497 1.3694 0
M  V30 7128 C 681.638 2.24832 2.53582 0
M  V30 7129 C 680.811 3.56138 2.53939 0
M  V30 7130 C 679.87 3.72443 3.71716 0
M  V30 7131 O 678.896 4.44584 3.55434 0
M  V30 7132 N 680.098 3.10993 4.90167 0
M  V30 7133 H 682.863 2.87743 0.838086 0
M  V30 7134 H 680.424 1.58881 0.311199 0
M  V30 7135 H 682.416 2.32958 3.30927 0
M  V30 7136 H 680.986 1.40002 2.79496 0
M  V30 7137 H 680.206 3.59226 1.62329 0
M  V30 7138 H 681.494 4.42448 2.51231 0
M  V30 7139 H 680.892 2.52345 5.06299 0
M  V30 7140 H 679.449 3.24644 5.65198 0
M  V30 7141 N 682.882 -0.391992 1.52647 0
M  V30 7142 C 684.128 -1.139 1.67793 0
M  V30 7143 C 684.461 -1.89711 0.41514 0
M  V30 7144 O 683.736 -1.85431 -0.586979 0
M  V30 7145 C 684.019 -2.11966 2.91105 0
M  V30 7146 C 683.872 -1.39939 4.27478 0
M  V30 7147 C 685.191 -3.1243 3.09961 0
M  V30 7148 H 682.31 -0.412707 0.610608 0
M  V30 7149 H 684.952 -0.422725 1.85238 0
M  V30 7150 H 683.102 -2.73048 2.76364 0
M  V30 7151 H 684.774 -0.818439 4.53982 0
M  V30 7152 H 683.017 -0.701246 4.28095 0
M  V30 7153 H 683.688 -2.1158 5.09841 0
M  V30 7154 H 686.164 -2.61435 3.23714 0
M  V30 7155 H 685.04 -3.78294 3.97725 0
M  V30 7156 H 685.301 -3.81127 2.24042 0
M  V30 7157 N 684.36 -1.4356 -0.65026 0
M  V30 7158 C 685.27 -1.514 -1.79207 0
M  V30 7159 C 686.286 -0.400895 -1.69319 0
M  V30 7160 O 687.462 -0.655458 -1.90436 0
M  V30 7161 C 684.527 -1.43737 -3.155 0
M  V30 7162 C 683.588 -2.65743 -3.37163 0
M  V30 7163 C 682.821 -2.58436 -4.66954 0
M  V30 7164 O 683.044 -1.63374 -5.46503 0
M  V30 7165 O 681.978 -3.48984 -4.90402 0
M  V30 7166 H 685.804 -2.47825 -1.75547 0
M  V30 7167 H 683.389 -1.25594 -0.809111 0
M  V30 7168 H 685.271 -1.41916 -3.96784 0
M  V30 7169 H 683.946 -0.504488 -3.19745 0
M  V30 7170 H 682.853 -2.73136 -2.55632 0
M  V30 7171 H 684.186 -3.58014 -3.37768 0
M  V30 7172 N 685.838 0.888903 -1.30139 0
M  V30 7173 C 687.085 1.64037 -1.18736 0
M  V30 7174 C 687.413 1.92771 0.258801 0
M  V30 7175 O 686.668 1.54427 1.20212 0
M  V30 7176 C 686.967 2.99041 -1.95728 0
M  V30 7177 C 686.633 2.89874 -3.45375 0
M  V30 7178 C 685.295 2.87082 -3.86183 0
M  V30 7179 C 687.647 2.78289 -4.40687 0
M  V30 7180 C 684.975 2.70536 -5.20603 0
M  V30 7181 C 687.327 2.63282 -5.75209 0
M  V30 7182 C 685.991 2.58861 -6.15262 0
M  V30 7183 H 685.261 0.600253 -0.434485 0
M  V30 7184 H 687.908 1.0338 -1.61198 0
M  V30 7185 H 686.213 3.63626 -1.45888 0
M  V30 7186 H 687.91 3.56139 -1.843 0
M  V30 7187 H 684.5 2.92856 -3.12943 0
M  V30 7188 H 688.684 2.79516 -4.10103 0
M  V30 7189 H 683.94 2.65526 -5.50732 0
M  V30 7190 H 688.114 2.5329 -6.48704 0
M  V30 7191 H 685.741 2.45799 -7.19366 0
M  V30 7192 N 687.317 1.12792 1.10072 0
M  V30 7193 C 688.547 0.907189 1.85617 0
M  V30 7194 C 688.955 -0.547181 1.81115 0
M  V30 7195 O 688.298 -1.39024 1.20075 0
M  V30 7196 C 688.36 1.30872 3.34832 0
M  V30 7197 C 688.024 2.77516 3.6309 0
M  V30 7198 C 689.021 3.75696 3.59373 0
M  V30 7199 C 686.706 3.14513 3.91646 0
M  V30 7200 C 688.7 5.08888 3.83812 0
M  V30 7201 C 686.387 4.47886 4.15742 0
M  V30 7202 C 687.385 5.44882 4.11816 0
M  V30 7203 O 687.073 6.7585 4.35295 0
M  V30 7204 H 686.805 0.323855 0.593375 0
M  V30 7205 H 689.359 1.50262 1.40038 0
M  V30 7206 H 687.589 0.656518 3.81086 0
M  V30 7207 H 689.278 1.06153 3.91773 0
M  V30 7208 H 690.044 3.48458 3.37345 0
M  V30 7209 H 685.923 2.39622 3.93831 0
M  V30 7210 H 689.467 5.84586 3.80663 0
M  V30 7211 H 685.364 4.74851 4.37249 0
M  V30 7212 H 686.132 6.81853 4.52791 0
M  V30 7213 N 688.795 -1.27931 0.920396 0
M  V30 7214 C 689.727 -2.26175 0.371169 0
M  V30 7215 C 690.74 -1.55122 -0.494065 0
M  V30 7216 O 691.929 -1.75825 -0.30787 0
M  V30 7217 C 689.029 -3.35376 -0.487481 0
M  V30 7218 C 688.202 -4.35943 0.356772 0
M  V30 7219 C 687.261 -5.24374 -0.438042 0
M  V30 7220 O 686.287 -5.68998 0.151715 0
M  V30 7221 N 687.489 -5.53823 -1.73956 0
M  V30 7222 H 690.254 -2.73938 1.21564 0
M  V30 7223 H 687.815 -1.41482 0.787047 0
M  V30 7224 H 689.807 -3.91476 -1.02609 0
M  V30 7225 H 688.377 -2.87269 -1.23269 0
M  V30 7226 H 687.597 -3.7921 1.07672 0
M  V30 7227 H 688.885 -5.0015 0.934206 0
M  V30 7228 H 688.283 -5.19413 -2.24114 0
M  V30 7229 H 686.84 -6.12653 -2.22486 0
M  V30 7230 N 690.273 -0.685099 -1.4193 0
M  V30 7231 C 691.521 -0.21124 -2.00993 0
M  V30 7232 C 691.842 1.18985 -1.54491 0
M  V30 7233 O 691.112 1.8009 -0.771 0
M  V30 7234 H 689.692 -0.0751059 -0.743215 0
M  V30 7235 H 692.354 -0.883915 -1.73704 0
M  V30 7236 H 691.45 -0.220513 -3.1132 0
M  V30 7237 N 691.751 1.51645 -0.429126 0
M  V30 7238 C 692.976 2.06917 0.141399 0
M  V30 7239 C 693.401 1.29527 1.36398 0
M  V30 7240 O 692.759 0.33094 1.78254 0
M  V30 7241 C 692.807 3.57776 0.4504 0
M  V30 7242 O 691.911 3.82639 1.53821 0
M  V30 7243 H 691.252 0.663978 0.0054647 0
M  V30 7244 H 693.782 1.95355 -0.608093 0
M  V30 7245 H 693.792 4.01894 0.703249 0
M  V30 7246 H 692.467 4.13532 -0.443213 0
M  V30 7247 H 691.044 3.5039 1.27597 0
M  V30 7248 N 693.229 0.160201 1.56784 0
M  V30 7249 C 694.475 -0.48831 1.96833 0
M  V30 7250 C 694.808 -1.63641 1.04571 0
M  V30 7251 O 694.083 -1.94289 0.0906481 0
M  V30 7252 C 694.366 -0.981908 3.46454 0
M  V30 7253 C 694.219 0.165607 4.49495 0
M  V30 7254 C 695.538 -1.85931 3.98896 0
M  V30 7255 H 692.657 -0.176027 0.71567 0
M  V30 7256 H 695.299 0.244093 1.88426 0
M  V30 7257 H 693.449 -1.60602 3.5375 0
M  V30 7258 H 695.121 0.802372 4.54268 0
M  V30 7259 H 693.364 0.822789 4.25926 0
M  V30 7260 H 694.035 -0.221699 5.51555 0
M  V30 7261 H 696.511 -1.33327 3.94161 0
M  V30 7262 H 695.387 -2.17373 5.04024 0
M  V30 7263 H 695.648 -2.80106 3.42042 0
M  V30 7264 N 694.707 -1.5719 -0.113559 0
M  V30 7265 C 695.637 -2.03772 -1.14013 0
M  V30 7266 C 696.618 -0.923176 -1.42869 0
M  V30 7267 O 697.803 -1.19325 -1.53216 0
M  V30 7268 C 694.933 -2.44663 -2.4649 0
M  V30 7269 C 693.887 -3.59612 -2.32085 0
M  V30 7270 C 693.213 -3.8642 -3.69573 0
M  V30 7271 C 694.513 -4.91149 -1.7768 0
M  V30 7272 H 696.207 -2.89785 -0.752665 0
M  V30 7273 H 693.753 -1.39412 -0.360609 0
M  V30 7274 H 695.706 -2.75857 -3.18561 0
M  V30 7275 H 694.43 -1.55628 -2.87137 0
M  V30 7276 H 693.089 -3.28636 -1.62461 0
M  V30 7277 H 692.737 -2.94581 -4.07715 0
M  V30 7278 H 692.437 -4.63797 -3.60786 0
M  V30 7279 H 693.961 -4.2007 -4.4314 0
M  V30 7280 H 695.375 -5.20843 -2.39574 0
M  V30 7281 H 693.772 -5.72562 -1.79701 0
M  V30 7282 H 694.842 -4.79301 -0.734776 0
M  V30 7283 N 696.185 0.383891 -1.52853 0
M  V30 7284 C 697.133 1.48965 -1.7864 0
M  V30 7285 C 698.127 1.56242 -0.654577 0
M  V30 7286 O 699.333 1.59347 -0.83716 0
M  V30 7287 H 695.708 0.495892 -0.565328 0
M  V30 7288 H 697.679 1.24411 -2.71228 0
M  V30 7289 C 696.428 2.86036 -1.97683 0
M  V30 7290 H 695.751 2.81188 -2.84206 0
M  V30 7291 H 697.191 3.62632 -2.19713 0
M  V30 7292 C 695.65 3.28428 -0.750776 0
M  V30 7293 O 696.18 4.0164 0.0693491 0
M  V30 7294 N 694.386 2.84765 -0.579427 0
M  V30 7295 H 693.933 2.25353 -1.24795 0
M  V30 7296 H 693.891 3.13486 0.239544 0
M  V30 7297 N 697.663 1.43903 0.642637 0
M  V30 7298 C 699.074 1.40975 1.22404 0
M  V30 7299 C 699.425 0.1192 1.95838 0
M  V30 7300 O 698.55 -0.780939 2.01818 0
M  V30 7301 C 699.145 2.5538 2.22636 0
M  V30 7302 C 697.704 2.55684 2.76229 0
M  V30 7303 C 696.851 2.32556 1.51039 0
M  V30 7304 H 699.802 1.5265 0.434006 0
M  V30 7305 H 699.823 2.27474 3.05017 0
M  V30 7306 H 699.335 3.49294 1.69161 0
M  V30 7307 H 697.436 1.65679 3.33738 0
M  V30 7308 H 697.549 3.53799 3.23053 0
M  V30 7309 H 695.913 1.81427 1.78764 0
M  V30 7310 H 696.696 3.28569 0.99484 0
M  V30 7311 N 699.141 -0.881989 1.30609 0
M  V30 7312 C 700.091 -1.97539 1.13852 0
M  V30 7313 C 701.075 -1.60813 0.0528428 0
M  V30 7314 O 702.267 -1.74827 0.276484 0
M  V30 7315 C 699.396 -3.32977 0.835519 0
M  V30 7316 C 698.482 -3.76008 1.96159 0
M  V30 7317 N 698.873 -3.91109 3.20729 0
M  V30 7318 C 697.171 -4.05427 1.85863 0
M  V30 7319 C 697.872 -4.27661 3.94311 0
M  V30 7320 N 696.848 -4.37686 3.22385 0
M  V30 7321 H 700.65 -2.07309 2.08327 0
M  V30 7322 H 698.164 -1.072 1.21992 0
M  V30 7323 H 700.161 -4.11041 0.696477 0
M  V30 7324 H 698.821 -3.24542 -0.101135 0
M  V30 7325 H 699.832 -3.7616 3.55984 0
M  V30 7326 H 696.509 -4.05449 0.995847 0
M  V30 7327 H 697.899 -4.47042 5.01601 0
M  V30 7328 N 700.619 -1.13374 -1.09472 0
M  V30 7329 C 701.896 -0.806329 -1.78207 0
M  V30 7330 C 702.276 0.702191 -1.99079 0
M  V30 7331 O 701.624 1.63931 -1.59182 0
M  V30 7332 C 701.834 -1.59271 -3.10538 0
M  V30 7333 C 703.182 -1.78509 -3.85253 0
M  V30 7334 O 704.206 -1.55866 -3.20288 0
M  V30 7335 O 703.065 -2.16287 -5.01879 0
M  V30 7336 H 700.159 -0.29435 -0.772843 0
M  V30 7337 H 702.705 -1.23833 -1.16033 0
M  V30 7338 H 701.477 -2.61792 -2.90828 0
M  V30 7339 H 701.1 -1.15562 -3.80436 0
M  V30 7340 N 702.098 1.27442 -0.927168 0
M  V30 7341 C 703.028 2.29256 -0.443188 0
M  V30 7342 C 704.009 1.62701 0.49624 0
M  V30 7343 O 705.194 1.90013 0.401105 0
M  V30 7344 C 702.324 3.45955 0.305366 0
M  V30 7345 C 701.278 4.24501 -0.546178 0
M  V30 7346 C 700.604 5.33671 0.331512 0
M  V30 7347 C 701.904 4.89921 -1.81037 0
M  V30 7348 H 703.598 2.69988 -1.29409 0
M  V30 7349 H 701.144 1.29792 -0.623705 0
M  V30 7350 H 703.097 4.1628 0.654885 0
M  V30 7351 H 701.821 3.04138 1.19029 0
M  V30 7352 H 700.48 3.55921 -0.878398 0
M  V30 7353 H 700.128 4.88096 1.21537 0
M  V30 7354 H 699.828 5.87131 -0.234746 0
M  V30 7355 H 701.352 6.0684 0.676614 0
M  V30 7356 H 702.766 5.52536 -1.52895 0
M  V30 7357 H 701.163 5.53436 -2.32009 0
M  V30 7358 H 702.233 4.13652 -2.53021 0
M  V30 7359 N 703.576 0.692616 1.41565 0
M  V30 7360 C 704.539 0.0344174 2.29174 0
M  V30 7361 C 705.539 -0.710961 1.44229 0
M  V30 7362 O 706.729 -0.546293 1.65412 0
M  V30 7363 C 703.861 -0.961682 3.27054 0
M  V30 7364 H 705.054 0.805755 2.88873 0
M  V30 7365 H 702.607 0.455947 1.49502 0
M  V30 7366 H 703.342 -1.76089 2.72329 0
M  V30 7367 H 703.127 -0.430375 3.89731 0
M  V30 7368 H 704.617 -1.4201 3.92712 0
M  V30 7369 N 705.054 -1.51416 0.437162 0
M  V30 7370 C 706.47 -1.59349 0.0894459 0
M  V30 7371 C 706.67 -1.44809 -1.40116 0
M  V30 7372 O 705.726 -1.28924 -2.17106 0
M  V30 7373 C 707.039 -2.9446 0.609398 0
M  V30 7374 C 708.587 -3.07769 0.569824 0
M  V30 7375 C 709.062 -4.45404 1.06675 0
M  V30 7376 N 710.553 -4.51723 1.02473 0
M  V30 7377 C 711.288 -5.56544 1.3801 0
M  V30 7378 N 710.784 -6.68784 1.80831 0
M  V30 7379 N 712.577 -5.46901 1.29828 0
M  V30 7380 H 704.728 -1.59112 1.40703 0
M  V30 7381 H 706.991 -0.750031 0.579791 0
M  V30 7382 H 706.697 -3.1047 1.65231 0
M  V30 7383 H 706.571 -3.77184 0.0342236 0
M  V30 7384 H 708.958 -2.91428 -0.464107 0
M  V30 7385 H 709.039 -2.26885 1.1814 0
M  V30 7386 H 708.683 -4.62492 2.09914 0
M  V30 7387 H 708.613 -5.24827 0.431712 0
M  V30 7388 H 711.104 -3.71165 0.710258 0
M  V30 7389 H 711.417 -7.44787 2.06185 0
M  V30 7390 H 709.762 -6.69992 1.84757 0
M  V30 7391 H 712.953 -4.581 0.962397 0
M  V30 7392 H 713.126 -6.2848 1.57851 0
M  V30 7393 N 706.532 -0.168513 -1.56696 0
M  V30 7394 C 707.778 0.477865 -1.9709 0
M  V30 7395 C 708.111 1.63084 -1.05438 0
M  V30 7396 O 707.386 1.94238 -0.10095 0
M  V30 7397 C 707.669 0.963521 -3.4697 0
M  V30 7398 C 707.522 -0.189443 -4.49401 0
M  V30 7399 C 708.841 1.83813 -3.99876 0
M  V30 7400 H 705.96 0.172229 -0.716593 0
M  V30 7401 H 708.602 -0.254083 -1.88293 0
M  V30 7402 H 706.752 1.58724 -3.54597 0
M  V30 7403 H 708.424 -0.826451 -4.53836 0
M  V30 7404 H 706.667 -0.845366 -4.25483 0
M  V30 7405 H 707.338 0.192446 -5.51664 0
M  V30 7406 H 709.814 1.31235 -3.94863 0
M  V30 7407 H 708.69 2.14697 -5.0517 0
M  V30 7408 H 708.951 2.78289 -3.43523 0
M  V30 7409 N 708.01 1.57248 0.105221 0
M  V30 7410 C 708.957 2.01338 1.12835 0
M  V30 7411 C 709.927 0.887897 1.40377 0
M  V30 7412 O 711.112 1.15315 1.5201 0
M  V30 7413 C 708.252 2.43432 2.44611 0
M  V30 7414 C 707.365 3.69457 2.23888 0
M  V30 7415 C 706.5 4.00473 3.48991 0
M  V30 7416 C 705.539 5.19638 3.23485 0
M  V30 7417 N 704.676 5.46457 4.40828 0
M  V30 7418 H 709.516 2.88527 0.745386 0
M  V30 7419 H 707.053 1.42714 0.356535 0
M  V30 7420 H 709.011 2.65879 3.21503 0
M  V30 7421 H 707.641 1.59266 2.80774 0
M  V30 7422 H 706.693 3.54545 1.37847 0
M  V30 7423 H 708.005 4.56497 2.01026 0
M  V30 7424 H 707.159 4.23642 4.34295 0
M  V30 7425 H 705.898 3.11935 3.74897 0
M  V30 7426 H 704.903 4.96299 2.36574 0
M  V30 7427 H 706.128 6.09766 2.98935 0
M  V30 7428 H 704.074 4.60876 4.66829 0
M  V30 7429 H 703.991 6.27849 4.2112 0
M  V30 7430 H 705.259 5.74155 5.27225 0
M  V30 7431 N 709.488 -0.375779 1.53054 0
M  V30 7432 C 710.737 -1.11674 1.67964 0
M  V30 7433 C 711.05 -1.90755 0.432655 0
M  V30 7434 O 712.256 -2.67538 0.462109 0
M  V30 7435 C 710.712 -2.0344 2.96884 0
M  V30 7436 C 710.32 -1.29719 4.28809 0
M  V30 7437 C 712.064 -2.7759 3.2116 0
M  V30 7438 C 709.971 -2.20327 5.48826 0
M  V30 7439 H 708.901 -0.420597 0.625791 0
M  V30 7440 H 711.552 -0.378499 1.79554 0
M  V30 7441 H 709.934 -2.80953 2.79072 0
M  V30 7442 H 711.108 -0.573394 4.57219 0
M  V30 7443 H 709.423 -0.674735 4.10897 0
M  V30 7444 H 712.02 -3.4559 4.0801 0
M  V30 7445 H 712.363 -3.42399 2.36789 0
M  V30 7446 H 712.896 -2.07164 3.396 0
M  V30 7447 H 709.635 -1.60113 6.35645 0
M  V30 7448 H 709.155 -2.90585 5.2471 0
M  V30 7449 H 710.834 -2.80116 5.83219 0
M  V30 7450 N 710.966 -1.44241 -0.634997 0
M  V30 7451 C 711.876 -1.53293 -1.77591 0
M  V30 7452 C 712.892 -0.418831 -1.68884 0
M  V30 7453 O 714.068 -0.675619 -1.8973 0
M  V30 7454 C 711.133 -1.47075 -3.13958 0
M  V30 7455 C 710.194 -2.69304 -3.34326 0
M  V30 7456 C 709.427 -2.63374 -4.64187 0
M  V30 7457 O 709.65 -1.69161 -5.44739 0
M  V30 7458 O 708.584 -3.54166 -4.86673 0
M  V30 7459 H 712.41 -2.49673 -1.72908 0
M  V30 7460 H 709.995 -1.26445 -0.795745 0
M  V30 7461 H 711.877 -1.46117 -3.95257 0
M  V30 7462 H 710.552 -0.538373 -3.19192 0
M  V30 7463 H 709.459 -2.75831 -2.52721 0
M  V30 7464 H 710.792 -3.61576 -3.33951 0
M  V30 7465 N 712.444 0.87505 -1.31075 0
M  V30 7466 C 713.669 1.66583 -1.23551 0
M  V30 7467 C 714.094 1.87067 0.19686 0
M  V30 7468 O 713.452 1.40877 1.1412 0
M  V30 7469 C 713.5 3.01401 -1.97965 0
M  V30 7470 O 712.604 3.90923 -1.31351 0
M  V30 7471 H 711.945 0.508645 -0.426821 0
M  V30 7472 H 714.475 1.09139 -1.7306 0
M  V30 7473 H 714.485 3.51374 -2.07366 0
M  V30 7474 H 713.16 2.85812 -3.02133 0
M  V30 7475 H 711.737 3.49369 -1.30368 0
M  V30 7476 N 713.922 1.13953 1.08869 0
M  V30 7477 C 714.885 0.824991 2.13838 0
M  V30 7478 C 715.885 -0.168198 1.59918 0
M  V30 7479 O 717.075 0.0595778 1.74098 0
M  V30 7480 C 714.207 0.228938 3.4013 0
M  V30 7481 H 715.4 1.75521 2.43171 0
M  V30 7482 H 712.953 0.94492 1.24503 0
M  V30 7483 H 713.688 -0.710227 3.16427 0
M  V30 7484 H 713.473 0.944243 3.80561 0
M  V30 7485 H 714.963 0.0259223 4.17592 0
M  V30 7486 N 715.4 -1.26948 0.933913 0
M  V30 7487 C 716.677 -1.89212 0.495784 0
M  V30 7488 C 717.057 -1.84469 -1.02637 0
M  V30 7489 O 716.405 -1.29409 -1.88323 0
M  V30 7490 C 716.615 -3.32865 1.0489 0
M  V30 7491 C 717.963 -4.09749 1.11315 0
M  V30 7492 O 718.987 -3.41905 0.998966 0
M  V30 7493 O 717.846 -5.31061 1.28983 0
M  V30 7494 H 714.94 -0.811284 0.160459 0
M  V30 7495 H 717.486 -1.35171 1.02601 0
M  V30 7496 H 716.258 -3.30642 2.09265 0
M  V30 7497 H 715.881 -3.94435 0.500692 0
M  V30 7498 N 716.879 -0.700114 -1.41195 0
M  V30 7499 C 717.842 -0.0465706 -2.29153 0
M  V30 7500 C 718.842 0.703302 -1.44604 0
M  V30 7501 O 720.032 0.537513 -1.657 0
M  V30 7502 C 717.164 0.944324 -3.2756 0
M  V30 7503 H 718.357 -0.821064 -2.88442 0
M  V30 7504 H 715.91 -0.463869 -1.49258 0
M  V30 7505 H 716.645 1.74642 -2.73259 0
M  V30 7506 H 716.43 0.409701 -3.89954 0
M  V30 7507 H 717.92 1.39925 -3.9346 0
M  V30 7508 N 718.357 1.51182 -0.445186 0
M  V30 7509 C 719.597 2.04061 0.117717 0
M  V30 7510 C 719.961 1.32158 1.39278 0
M  V30 7511 O 721.162 1.75452 2.03642 0
M  V30 7512 C 719.433 3.55933 0.323445 0
M  V30 7513 S 720.992 4.30516 0.848627 0
M  V30 7514 H 717.81 0.710442 0.028165 0
M  V30 7515 H 720.412 1.85858 -0.606391 0
M  V30 7516 H 719.116 4.0583 -0.610764 0
M  V30 7517 H 718.647 3.78444 1.07441 0
M  V30 7518 H 720.662 4.48382 2.12528 0
M  V30 7519 N 719.835 0.176821 1.56605 0
M  V30 7520 C 720.765 -0.746841 2.21234 0
M  V30 7521 C 721.746 -1.23502 1.16967 0
M  V30 7522 O 722.931 -1.28718 1.45414 0
M  V30 7523 C 720.061 -1.97407 2.8574 0
M  V30 7524 C 719.015 -1.62153 3.96094 0
M  V30 7525 C 718.341 -2.92387 4.47676 0
M  V30 7526 C 719.641 -0.845353 5.15413 0
M  V30 7527 H 721.335 -0.208116 2.98676 0
M  V30 7528 H 718.881 -0.0986594 1.43662 0
M  V30 7529 H 720.834 -2.62531 3.2963 0
M  V30 7530 H 719.558 -2.53703 2.05676 0
M  V30 7531 H 718.217 -0.993964 3.52868 0
M  V30 7532 H 717.865 -3.46734 3.64396 0
M  V30 7533 H 717.565 -2.69551 5.22127 0
M  V30 7534 H 719.089 -3.5853 4.94255 0
M  V30 7535 H 720.503 -1.39929 5.55961 0
M  V30 7536 H 718.9 -0.715814 5.95815 0
M  V30 7537 H 719.97 0.157239 4.84645 0
M  V30 7538 N 721.313 -1.57302 -0.09688 0
M  V30 7539 C 722.562 -1.85183 -0.799388 0
M  V30 7540 C 722.875 -0.765818 -1.79985 0
M  V30 7541 O 724.081 -0.931696 -2.55013 0
M  V30 7542 C 722.537 -3.28399 -1.47249 0
M  V30 7543 C 722.145 -4.45066 -0.511888 0
M  V30 7544 C 723.889 -3.65506 -2.15883 0
M  V30 7545 C 721.796 -5.79315 -1.18948 0
M  V30 7546 H 720.726 -0.690752 -0.302287 0
M  V30 7547 H 723.377 -1.83425 -0.0523104 0
M  V30 7548 H 721.759 -3.24692 -2.26697 0
M  V30 7549 H 722.933 -4.60116 0.250962 0
M  V30 7550 H 721.248 -4.16343 0.0686576 0
M  V30 7551 H 723.845 -4.63087 -2.67309 0
M  V30 7552 H 724.188 -2.94041 -2.94696 0
M  V30 7553 H 724.721 -3.71094 -1.43298 0
M  V30 7554 H 721.46 -6.54007 -0.442198 0
M  V30 7555 H 720.98 -5.68111 -1.9238 0
M  V30 7556 H 722.659 -6.23816 -1.71646 0
M  V30 7557 N 722.791 0.367657 -1.53252 0
M  V30 7558 C 723.721 1.45632 -1.8252 0
M  V30 7559 C 724.702 1.55979 -0.678568 0
M  V30 7560 O 725.887 1.70581 -0.928217 0
M  V30 7561 C 723.017 2.82994 -2.01325 0
M  V30 7562 C 721.971 2.87473 -3.17086 0
M  V30 7563 C 721.297 4.2749 -3.21179 0
M  V30 7564 C 722.597 2.55182 -4.55719 0
M  V30 7565 H 724.291 1.21387 -2.73689 0
M  V30 7566 H 721.837 0.58251 -1.31692 0
M  V30 7567 H 723.79 3.59179 -2.20383 0
M  V30 7568 H 722.514 3.08622 -1.06864 0
M  V30 7569 H 721.173 2.13739 -2.97844 0
M  V30 7570 H 720.821 4.5019 -2.24361 0
M  V30 7571 H 720.521 4.31403 -3.98955 0
M  V30 7572 H 722.045 5.0555 -3.42419 0
M  V30 7573 H 723.459 3.21081 -4.74953 0
M  V30 7574 H 721.856 2.70414 -5.3572 0
M  V30 7575 H 722.926 1.5044 -4.60973 0
M  V30 7576 N 724.269 1.44576 0.627338 0
M  V30 7577 C 725.232 1.51372 1.72102 0
M  V30 7578 C 726.232 0.395329 1.55865 0
M  V30 7579 O 727.422 0.658094 1.61291 0
M  V30 7580 C 724.554 1.39129 3.11217 0
M  V30 7581 H 725.747 2.48798 1.6745 0
M  V30 7582 H 723.3 1.31724 0.841336 0
M  V30 7583 H 724.035 0.428114 3.21462 0
M  V30 7584 H 723.82 2.20229 3.24409 0
M  V30 7585 H 725.31 1.46874 3.90919 0
M  V30 7586 N 725.747 -0.868086 1.31537 0
M  V30 7587 C 726.695 -1.99688 1.1928 0
M  V30 7588 C 727.689 -1.69101 0.100656 0
M  V30 7589 O 728.895 -1.78073 0.262677 0
M  V30 7590 H 725.27 -0.655032 0.369374 0
M  V30 7591 H 727.241 -2.07157 2.14776 0
M  V30 7592 C 725.99 -3.35338 0.918892 0
M  V30 7593 H 725.313 -3.59396 1.75142 0
M  V30 7594 H 726.753 -4.14909 0.873311 0
M  V30 7595 C 725.212 -3.34769 -0.378366 0
M  V30 7596 O 725.742 -3.76716 -1.39456 0
M  V30 7597 N 723.948 -2.87895 -0.39557 0
M  V30 7598 H 723.495 -2.53954 0.431889 0
M  V30 7599 H 723.453 -2.87897 -1.26344 0
M  V30 7600 N 727.225 -1.14528 -1.08264 0
M  V30 7601 C 728.172 -0.833556 -2.15222 0
M  V30 7602 C 729.142 0.209539 -1.64773 0
M  V30 7603 O 730.327 0.0791388 -1.90636 0
M  V30 7604 C 727.467 -0.318799 -3.43624 0
M  V30 7605 C 726.58 -1.42237 -4.07913 0
M  V30 7606 C 725.715 -0.864704 -5.24115 0
M  V30 7607 C 724.754 -1.94585 -5.80347 0
M  V30 7608 N 723.891 -1.40525 -6.87893 0
M  V30 7609 H 728.731 -1.74965 -2.41228 0
M  V30 7610 H 726.268 -0.873169 -1.18381 0
M  V30 7611 H 728.226 -0.00213088 -4.172 0
M  V30 7612 H 726.856 0.560397 -3.17898 0
M  V30 7613 H 725.908 -1.8554 -3.32083 0
M  V30 7614 H 727.22 -2.23901 -4.45724 0
M  V30 7615 H 726.374 -0.500025 -6.04636 0
M  V30 7616 H 725.113 -0.0171219 -4.87697 0
M  V30 7617 H 724.118 -2.31946 -4.98479 0
M  V30 7618 H 725.343 -2.79704 -6.18823 0
M  V30 7619 H 723.289 -0.579873 -6.53432 0
M  V30 7620 H 723.206 -2.15825 -7.24538 0
M  V30 7621 H 724.474 -1.06852 -7.72142 0
M  V30 7622 N 728.703 1.26451 -0.940633 0
M  V30 7623 C 729.933 1.97581 -0.603766 0
M  V30 7624 C 730.341 1.70246 0.825395 0
M  V30 7625 O 729.684 0.967001 1.56188 0
M  V30 7626 C 729.746 3.51256 -0.765463 0
M  V30 7627 C 729.41 4.0224 -2.16915 0
M  V30 7628 C 730.407 4.1402 -3.14457 0
M  V30 7629 C 728.092 4.36263 -2.48958 0
M  V30 7630 C 730.086 4.59117 -4.42143 0
M  V30 7631 C 727.773 4.81048 -3.76877 0
M  V30 7632 C 728.771 4.92436 -4.73282 0
M  V30 7633 O 728.459 5.36234 -5.98923 0
M  V30 7634 H 728.191 0.636948 -0.226436 0
M  V30 7635 H 730.745 1.61941 -1.2635 0
M  V30 7636 H 728.975 3.86669 -0.0485956 0
M  V30 7637 H 730.664 4.03597 -0.431738 0
M  V30 7638 H 731.43 3.87981 -2.91026 0
M  V30 7639 H 727.309 4.26634 -1.74656 0
M  V30 7640 H 730.853 4.6792 -5.17394 0
M  V30 7641 H 726.75 5.06531 -4.00121 0
M  V30 7642 H 727.518 5.54456 -6.02097 0
M  V30 7643 N 730.181 0.707592 1.40822 0
M  V30 7644 C 731.421 0.247986 2.0289 0
M  V30 7645 C 731.785 -1.13484 1.54872 0
M  V30 7646 O 732.986 -1.69098 2.08948 0
M  V30 7647 C 731.257 0.316326 3.55997 0
M  V30 7648 S 732.816 -0.0674698 4.38748 0
M  V30 7649 H 729.634 0.09895 0.704081 0
M  V30 7650 H 732.236 0.928039 1.72069 0
M  V30 7651 H 730.94 1.32453 3.88438 0
M  V30 7652 H 730.471 -0.382474 3.91536 0
M  V30 7653 H 732.486 -1.29182 4.79089 0
M  V30 7654 N 731.66 -1.50943 0.453197 0
M  V30 7655 C 732.623 -2.26684 -0.338705 0
M  V30 7656 C 733.623 -1.30748 -0.936032 0
M  V30 7657 O 734.813 -1.54327 -0.808002 0
M  V30 7658 C 731.945 -3.07063 -1.48071 0
M  V30 7659 H 733.138 -2.98131 0.325289 0
M  V30 7660 H 730.691 -1.54926 0.206771 0
M  V30 7661 H 731.426 -2.4007 -2.18029 0
M  V30 7662 H 731.211 -3.77545 -1.0584 0
M  V30 7663 H 732.701 -3.64393 -2.0398 0
M  V30 7664 N 733.138 -0.185124 -1.56509 0
M  V30 7665 C 734.415 0.503348 -1.89013 0
M  V30 7666 C 734.795 1.80349 -1.09715 0
M  V30 7667 O 734.143 2.27665 -0.195203 0
M  V30 7668 C 734.353 0.731839 -3.41241 0
M  V30 7669 C 735.701 1.05568 -4.11267 0
M  V30 7670 O 736.725 0.819906 -3.46635 0
M  V30 7671 O 735.584 1.50116 -5.25478 0
M  V30 7672 H 732.678 0.261139 -0.784688 0
M  V30 7673 H 735.224 -0.224592 -1.68207 0
M  V30 7674 H 733.996 -0.18672 -3.90854 0
M  V30 7675 H 733.619 1.5126 -3.67704 0
M  V30 7676 N 734.616 1.57351 0.0885366 0
M  V30 7677 C 736.027 1.75303 0.642308 0
M  V30 7678 C 736.378 0.808238 1.78779 0
M  V30 7679 O 735.503 -0.01171 2.16397 0
M  V30 7680 C 736.098 3.17885 1.17194 0
M  V30 7681 C 734.657 3.37239 1.67172 0
M  V30 7682 C 733.804 2.7108 0.584045 0
M  V30 7683 H 736.755 1.58103 -0.137567 0
M  V30 7684 H 736.776 3.2112 2.04114 0
M  V30 7685 H 736.288 3.86625 0.338024 0
M  V30 7686 H 734.389 2.73588 2.52943 0
M  V30 7687 H 734.502 4.45594 1.76019 0
M  V30 7688 H 732.866 2.33161 1.02508 0
M  V30 7689 H 733.649 3.42464 -0.239403 0
M  V30 7690 N 736.094 -0.359525 1.53444 0
M  V30 7691 C 737.371 -1.11756 1.6053 0
M  V30 7692 C 737.751 -2.06949 0.416587 0
M  V30 7693 O 737.099 -2.20681 -0.592628 0
M  V30 7694 C 737.309 -1.85133 2.95849 0
M  V30 7695 C 738.657 -2.3945 3.50641 0
M  V30 7696 O 739.681 -1.95251 2.97918 0
M  V30 7697 O 738.54 -3.20266 4.42823 0
M  V30 7698 H 735.634 -0.513005 0.648656 0
M  V30 7699 H 738.18 -0.362301 1.65787 0
M  V30 7700 H 736.952 -1.15694 3.73806 0
M  V30 7701 H 736.575 -2.67554 2.9411 0
M  V30 7702 N 737.572 -1.44907 -0.619662 0
M  V30 7703 C 738.535 -1.52282 -1.71297 0
M  V30 7704 C 739.535 -0.40359 -1.55653 0
M  V30 7705 O 740.725 -0.666638 -1.6094 0
M  V30 7706 C 737.857 -1.40778 -3.10474 0
M  V30 7707 H 739.05 -2.49683 -1.66128 0
M  V30 7708 H 736.603 -1.32168 -0.834339 0
M  V30 7709 H 737.338 -0.445156 -3.2123 0
M  V30 7710 H 737.123 -2.21947 -3.23237 0
M  V30 7711 H 738.613 -1.48946 -3.90135 0
M  V30 7712 N 739.05 0.861098 -1.31996 0
M  V30 7713 C 739.96 2.00154 -1.22374 0
M  V30 7714 C 740.976 1.73447 -0.138631 0
M  V30 7715 O 742.152 1.98191 -0.358104 0
M  V30 7716 C 739.217 3.33696 -0.940645 0
M  V30 7717 C 738.278 3.73668 -2.11355 0
M  V30 7718 C 737.511 5.00837 -1.84386 0
M  V30 7719 O 737.734 5.64996 -0.783287 0
M  V30 7720 O 736.668 5.37787 -2.70313 0
M  V30 7721 H 740.494 2.11207 -2.18233 0
M  V30 7722 H 738.079 0.990768 -1.11822 0
M  V30 7723 H 739.961 4.13756 -0.798987 0
M  V30 7724 H 738.636 3.23698 -0.0121636 0
M  V30 7725 H 737.543 2.94211 -2.31065 0
M  V30 7726 H 738.876 3.88303 -3.02459 0
M  V30 7727 N 740.528 1.15101 1.07655 0
M  V30 7728 C 741.805 0.834578 1.76902 0
M  V30 7729 C 742.185 -0.670431 2.00171 0
M  V30 7730 O 741.533 -1.61378 1.6177 0
M  V30 7731 C 741.743 1.64191 3.07965 0
M  V30 7732 C 743.091 1.84615 3.82364 0
M  V30 7733 O 744.115 1.60941 3.17768 0
M  V30 7734 O 742.974 2.24244 4.98374 0
M  V30 7735 H 740.068 0.306608 0.768063 0
M  V30 7736 H 742.614 1.25663 1.14048 0
M  V30 7737 H 741.386 2.66386 2.86626 0
M  V30 7738 H 741.009 1.216 3.78549 0
M  V30 7739 N 742.006 -1.2595 0.947325 0
M  V30 7740 C 742.969 -2.24407 0.466285 0
M  V30 7741 C 743.969 -1.55054 -0.426005 0
M  V30 7742 O 745.159 -1.7275 -0.224319 0
M  V30 7743 C 742.291 -3.39326 -0.327201 0
M  V30 7744 H 743.484 -2.68477 1.33642 0
M  V30 7745 H 741.037 -1.38211 0.729887 0
M  V30 7746 H 741.772 -3.00667 -1.21532 0
M  V30 7747 H 741.557 -3.9085 0.312839 0
M  V30 7748 H 743.047 -4.12455 -0.653477 0
M  V30 7749 N 743.484 -0.715051 -1.40445 0
M  V30 7750 C 744.709 -0.26254 -2.05732 0
M  V30 7751 C 745.134 1.08691 -1.53519 0
M  V30 7752 O 744.492 1.68453 -0.670328 0
M  V30 7753 C 744.54 -0.25195 -3.59719 0
M  V30 7754 O 743.644 0.766998 -4.05205 0
M  V30 7755 H 742.985 -0.123398 -0.652433 0
M  V30 7756 H 745.515 -0.975382 -1.79854 0
M  V30 7757 H 745.525 -0.0894537 -4.07902 0
M  V30 7758 H 744.2 -1.23672 -3.97087 0
M  V30 7759 H 742.777 0.572269 -3.68483 0
M  V30 7760 N 744.962 1.50701 -0.461195 0
M  V30 7761 C 745.91 2.29918 0.352231 0
M  V30 7762 C 746.904 1.36778 0.999403 0
M  V30 7763 O 748.11 1.54015 0.931639 0
M  V30 7764 H 744.485 0.740249 0.132423 0
M  V30 7765 H 746.456 2.96497 -0.336424 0
M  V30 7766 C 745.205 3.17052 1.42736 0
M  V30 7767 H 744.528 3.88623 0.938747 0
M  V30 7768 H 745.968 3.75493 1.96928 0
M  V30 7769 C 744.427 2.3399 2.42384 0
M  V30 7770 O 744.957 2.01608 3.47444 0
M  V30 7771 N 743.163 1.96758 2.13857 0
M  V30 7772 H 742.71 2.23292 1.28447 0
M  V30 7773 H 742.668 1.41484 2.80766 0
M  V30 7774 N 746.441 0.193421 1.56409 0
M  V30 7775 C 747.69 -0.445995 1.96707 0
M  V30 7776 C 748.003 -1.62876 1.08309 0
M  V30 7777 O 749.209 -2.33586 1.38383 0
M  V30 7778 C 747.665 -0.844863 3.49843 0
M  V30 7779 C 747.273 0.31352 4.46902 0
M  V30 7780 C 749.017 -1.45146 3.98915 0
M  V30 7781 C 746.924 -0.106214 5.91305 0
M  V30 7782 H 745.854 -0.170398 0.734493 0
M  V30 7783 H 748.505 0.285172 1.81271 0
M  V30 7784 H 746.887 -1.63265 3.60778 0
M  V30 7785 H 748.061 1.09103 4.47698 0
M  V30 7786 H 746.376 0.8315 4.08014 0
M  V30 7787 H 748.973 -1.77792 5.04276 0
M  V30 7788 H 749.316 -2.35734 3.43126 0
M  V30 7789 H 749.849 -0.727675 3.91088 0
M  V30 7790 H 746.588 0.765442 6.51016 0
M  V30 7791 H 746.108 -0.848623 5.93766 0
M  V30 7792 H 747.787 -0.542588 6.44721 0
M  V30 7793 N 747.919 -1.57396 -0.0801906 0
M  V30 7794 C 748.852 -1.98386 -1.12774 0
M  V30 7795 C 749.83 -0.859423 -1.38031 0
M  V30 7796 O 751.014 -1.12101 -1.51544 0
M  V30 7797 C 748.141 -2.3134 -2.47386 0
M  V30 7798 C 747.187 -3.53706 -2.38316 0
M  V30 7799 S 748.02 -5.04862 -1.78534 0
M  V30 7800 C 749.176 -5.41008 -3.1474 0
M  V30 7801 H 749.409 -2.86929 -0.778382 0
M  V30 7802 H 746.942 -1.51682 -0.28842 0
M  V30 7803 H 748.9 -2.51 -3.24822 0
M  V30 7804 H 747.561 -1.4334 -2.79486 0
M  V30 7805 H 746.754 -3.74253 -3.37566 0
M  V30 7806 H 746.356 -3.33632 -1.69014 0
M  V30 7807 H 748.648 -5.38565 -4.1104 0
M  V30 7808 H 749.591 -6.41885 -2.98981 0
M  V30 7809 H 749.999 -4.68467 -3.14958 0
M  V30 7810 N 749.397 0.351382 -1.53633 0
M  V30 7811 C 750.813 0.693987 -1.43722 0
M  V30 7812 C 751.013 1.9274 -0.587669 0
M  V30 7813 O 750.069 2.52387 -0.0756082 0
M  V30 7814 C 751.382 0.893937 -2.87105 0
M  V30 7815 C 752.93 0.993051 -2.96829 0
M  V30 7816 C 753.405 1.22537 -4.41303 0
M  V30 7817 N 754.896 1.29275 -4.44795 0
M  V30 7818 C 755.631 1.48988 -5.53706 0
M  V30 7819 N 755.127 1.65924 -6.72637 0
M  V30 7820 N 756.92 1.51472 -5.41306 0
M  V30 7821 H 749.071 -0.459688 -2.07366 0
M  V30 7822 H 751.334 -0.143684 -0.937048 0
M  V30 7823 H 751.04 0.0592517 -3.5165 0
M  V30 7824 H 750.914 1.79795 -3.31592 0
M  V30 7825 H 753.301 1.81827 -2.32429 0
M  V30 7826 H 753.382 0.0661119 -2.55715 0
M  V30 7827 H 753.026 0.405117 -5.06282 0
M  V30 7828 H 752.956 2.16575 -4.80003 0
M  V30 7829 H 755.447 1.17743 -3.59089 0
M  V30 7830 H 755.76 1.80578 -7.51406 0
M  V30 7831 H 754.105 1.63075 -6.75597 0
M  V30 7832 H 757.296 1.37818 -4.47352 0
M  V30 7833 H 757.469 1.66493 -6.26246 0
M  V30 7834 N 750.875 1.45233 0.611969 0
M  V30 7835 C 752.121 1.49242 1.37312 0
M  V30 7836 C 752.454 0.131963 1.93751 0
M  V30 7837 O 751.729 -0.852999 1.74798 0
M  V30 7838 C 752.012 2.56811 2.52428 0
M  V30 7839 C 751.865 4.02284 2.01215 0
M  V30 7840 C 753.184 2.60705 3.54572 0
M  V30 7841 H 750.303 0.54336 0.497925 0
M  V30 7842 H 752.945 1.77019 0.690242 0
M  V30 7843 H 751.095 2.33256 3.10683 0
M  V30 7844 H 752.767 4.37035 1.47643 0
M  V30 7845 H 751.01 4.1315 1.32248 0
M  V30 7846 H 751.681 4.7323 2.84178 0
M  V30 7847 H 754.157 2.81799 3.06151 0
M  V30 7848 H 753.033 3.37841 4.32614 0
M  V30 7849 H 753.294 1.65627 4.09903 0
M  V30 7850 N 752.353 -0.854086 1.3245 0
M  V30 7851 C 753.602 -1.60318 1.22397 0
M  V30 7852 C 753.915 -1.9444 -0.212664 0
M  V30 7853 O 755.121 -2.67991 -0.435066 0
M  V30 7854 C 753.577 -2.8909 2.1437 0
M  V30 7855 C 753.185 -2.62391 3.63119 0
M  V30 7856 C 754.929 -3.67104 2.13155 0
M  V30 7857 C 752.836 -3.87167 4.47052 0
M  V30 7858 H 751.766 -0.601586 0.454544 0
M  V30 7859 H 754.417 -0.943023 1.57415 0
M  V30 7860 H 752.799 -3.56567 1.72268 0
M  V30 7861 H 753.973 -2.03222 4.13567 0
M  V30 7862 H 752.288 -1.97706 3.66471 0
M  V30 7863 H 754.885 -4.59696 2.731 0
M  V30 7864 H 755.228 -4.00876 1.12268 0
M  V30 7865 H 755.761 -3.06533 2.5354 0
M  V30 7866 H 752.5 -3.58536 5.48755 0
M  V30 7867 H 752.02 -4.45729 4.01355 0
M  V30 7868 H 753.699 -4.549 4.60081 0
M  V30 7869 N 753.831 -1.1567 -1.07043 0
M  V30 7870 C 755.056 -0.957946 -1.83952 0
M  V30 7871 C 755.481 0.488807 -1.81638 0
M  V30 7872 O 754.839 1.34869 -1.21162 0
M  V30 7873 C 754.887 -1.48064 -3.288 0
M  V30 7874 O 753.991 -0.681921 -4.06723 0
M  V30 7875 H 753.332 -0.341453 -0.569479 0
M  V30 7876 H 755.862 -1.53728 -1.35015 0
M  V30 7877 H 755.872 -1.49484 -3.7963 0
M  V30 7878 H 754.547 -2.53388 -3.29799 0
M  V30 7879 H 753.124 -0.737612 -3.65532 0
M  V30 7880 N 755.309 1.25446 -0.953992 0
M  V30 7881 C 756.558 1.92441 -0.604101 0
M  V30 7882 C 756.871 1.75543 0.862796 0
M  V30 7883 O 758.077 2.37106 1.32262 0
M  V30 7884 C 756.533 3.44854 -1.02974 0
M  V30 7885 C 756.141 3.70464 -2.51914 0
M  V30 7886 C 757.885 4.1778 -0.752352 0
M  V30 7887 C 755.792 5.1638 -2.88281 0
M  V30 7888 H 754.722 0.720508 -0.222227 0
M  V30 7889 H 757.373 1.42318 -1.15836 0
M  V30 7890 H 755.755 3.93935 -0.403904 0
M  V30 7891 H 756.929 3.32038 -3.19511 0
M  V30 7892 H 755.244 3.10797 -2.77117 0
M  V30 7893 H 757.841 5.25261 -1.00024 0
M  V30 7894 H 758.184 4.15135 0.311212 0
M  V30 7895 H 758.717 3.74605 -1.33851 0
M  V30 7896 H 755.456 5.24135 -3.93653 0
M  V30 7897 H 754.976 5.55855 -2.25357 0
M  V30 7898 H 756.655 5.84497 -2.77439 0
M  V30 7899 N 756.787 0.722489 1.40064 0
M  V30 7900 C 757.734 0.0743738 2.3068 0
M  V30 7901 C 758.704 -0.743004 1.48555 0
M  V30 7902 O 759.889 -0.705536 1.77276 0
M  V30 7903 C 757.029 -0.836292 3.34814 0
M  V30 7904 C 756.142 -0.00764663 4.31999 0
M  V30 7905 C 755.277 -0.918428 5.232 0
M  V30 7906 C 754.316 -0.0842838 6.12042 0
M  V30 7907 N 753.453 -0.950316 6.95639 0
M  V30 7908 H 758.293 0.852794 2.85537 0
M  V30 7909 H 755.83 0.432222 1.40607 0
M  V30 7910 H 757.788 -1.3786 3.93765 0
M  V30 7911 H 756.418 -1.58082 2.81443 0
M  V30 7912 H 755.47 0.651928 3.74772 0
M  V30 7913 H 756.782 0.63786 4.94705 0
M  V30 7914 H 755.936 -1.52902 5.87116 0
M  V30 7915 H 754.675 -1.59774 4.60786 0
M  V30 7916 H 753.68 0.5392 5.4715 0
M  V30 7917 H 754.905 0.591628 6.76518 0
M  V30 7918 H 752.851 -1.61515 6.35806 0
M  V30 7919 H 752.768 -0.361004 7.55138 0
M  V30 7920 H 754.036 -1.54687 7.63997 0
M  V30 7921 N 758.265 -1.50454 0.469181 0
M  V30 7922 C 759.213 -2.30101 -0.340033 0
M  V30 7923 C 760.207 -1.37306 -0.992135 0
M  V30 7924 O 761.413 -1.54506 -0.923458 0
M  V30 7925 H 757.788 -0.740941 -0.128495 0
M  V30 7926 H 759.759 -2.96315 0.352144 0
M  V30 7927 C 758.508 -3.17804 -1.41052 0
M  V30 7928 H 757.831 -3.89115 -0.918124 0
M  V30 7929 H 759.271 -3.76533 -1.94934 0
M  V30 7930 C 757.73 -2.35272 -2.4114 0
M  V30 7931 O 758.26 -2.03448 -3.4637 0
M  V30 7932 N 756.466 -1.97889 -2.1281 0
M  V30 7933 H 756.013 -2.2397 -1.27261 0
M  V30 7934 H 755.971 -1.42971 -2.80012 0
M  V30 7935 N 759.743 -0.201713 -1.56304 0
M  V30 7936 C 760.973 0.440084 -2.01858 0
M  V30 7937 C 761.381 1.55279 -1.08098 0
M  V30 7938 O 760.724 1.83529 -0.0792216 0
M  V30 7939 C 760.786 1.05091 -3.43797 0
M  V30 7940 C 760.45 0.0761208 -4.56937 0
M  V30 7941 C 761.447 -0.716951 -5.14933 0
M  V30 7942 C 759.132 -0.0368815 -5.02286 0
M  V30 7943 C 761.126 -1.60993 -6.16733 0
M  V30 7944 C 758.813 -0.933409 -6.03929 0
M  V30 7945 C 759.811 -1.71849 -6.61027 0
M  V30 7946 O 759.499 -2.59998 -7.60695 0
M  V30 7947 H 759.231 0.114139 -0.666294 0
M  V30 7948 H 761.785 -0.309672 -2.03052 0
M  V30 7949 H 760.015 1.84938 -3.3961 0
M  V30 7950 H 761.704 1.59804 -3.73118 0
M  V30 7951 H 762.47 -0.63999 -4.80759 0
M  V30 7952 H 758.349 0.564034 -4.57537 0
M  V30 7953 H 761.893 -2.22315 -6.61227 0
M  V30 7954 H 757.79 -1.01146 -6.37526 0
M  V30 7955 H 758.558 -2.53851 -7.7814 0
M  V30 7956 N 761.222 1.57436 0.0718424 0
M  V30 7957 C 762.172 2.00132 1.09229 0
M  V30 7958 C 763.156 0.883379 1.34481 0
M  V30 7959 O 764.348 1.14728 1.34783 0
M  V30 7960 C 761.477 2.44876 2.40605 0
M  V30 7961 C 760.563 3.63405 2.18627 0
M  V30 7962 N 760.954 4.77583 1.66579 0
M  V30 7963 C 759.252 3.69953 2.491 0
M  V30 7964 C 759.953 5.5943 1.59415 0
M  V30 7965 N 758.929 5.03275 2.05464 0
M  V30 7966 H 762.731 2.85849 0.683185 0
M  V30 7967 H 760.245 1.59987 0.278914 0
M  V30 7968 H 762.242 2.73703 3.14471 0
M  V30 7969 H 760.902 1.60546 2.82232 0
M  V30 7970 H 761.913 4.99875 1.35443 0
M  V30 7971 H 758.59 2.96336 2.94094 0
M  V30 7972 H 759.98 6.61093 1.20026 0
M  V30 7973 N 762.7 -0.34323 1.53817 0
M  V30 7974 C 764.111 -0.918823 1.62525 0
M  V30 7975 C 764.462 -1.89542 0.506765 0
M  V30 7976 O 763.587 -2.13326 -0.363441 0
M  V30 7977 C 764.182 -1.67326 2.94597 0
M  V30 7978 C 762.741 -2.19786 3.05567 0
M  V30 7979 C 761.888 -1.01708 2.57974 0
M  V30 7980 H 764.839 -0.121358 1.58235 0
M  V30 7981 H 764.86 -2.53615 2.83654 0
M  V30 7982 H 764.372 -0.962223 3.75983 0
M  V30 7983 H 762.473 -2.94065 2.28816 0
M  V30 7984 H 762.586 -2.46135 4.1104 0
M  V30 7985 H 760.95 -1.39058 2.13389 0
M  V30 7986 H 761.733 -0.320671 3.41799 0
M  V30 7987 N 764.178 -1.45556 -0.604258 0
M  V30 7988 C 765.125 -1.54482 -1.71476 0
M  V30 7989 C 766.095 -0.390479 -1.61445 0
M  V30 7990 O 767.28 -0.604371 -1.80975 0
M  V30 7991 C 764.42 -1.52064 -3.09791 0
M  V30 7992 C 763.533 -2.78073 -3.30604 0
M  V30 7993 C 762.668 -2.67304 -4.59044 0
M  V30 7994 C 761.707 -3.88352 -4.73127 0
M  V30 7995 N 760.844 -3.76098 -5.9287 0
M  V30 7996 H 765.684 -2.49349 -1.63184 0
M  V30 7997 H 763.221 -1.23725 -0.795641 0
M  V30 7998 H 765.179 -1.48649 -3.89819 0
M  V30 7999 H 763.809 -0.607442 -3.17033 0
M  V30 8000 H 762.861 -2.91561 -2.44329 0
M  V30 8001 H 764.173 -3.67847 -3.36883 0
M  V30 8002 H 763.327 -2.61875 -5.47272 0
M  V30 8003 H 762.066 -1.75135 -4.55169 0
M  V30 8004 H 761.071 -3.94137 -3.83322 0
M  V30 8005 H 762.296 -4.81591 -4.78797 0
M  V30 8006 H 760.242 -2.867 -5.90033 0
M  V30 8007 H 760.159 -4.59509 -6.00323 0
M  V30 8008 H 761.427 -3.74607 -6.83586 0
M  V30 8009 N 765.656 0.84705 -1.32902 0
M  V30 8010 C 766.905 1.59667 -1.23245 0
M  V30 8011 C 767.218 1.94551 0.202349 0
M  V30 8012 O 768.424 2.68218 0.420847 0
M  V30 8013 C 766.88 2.8795 -2.15901 0
M  V30 8014 C 766.488 2.60461 -3.64505 0
M  V30 8015 C 768.232 3.65968 -2.15098 0
M  V30 8016 C 766.139 3.84791 -4.49099 0
M  V30 8017 H 765.069 0.599167 -0.457728 0
M  V30 8018 H 767.72 0.934662 -1.57912 0
M  V30 8019 H 766.102 3.55648 -1.74157 0
M  V30 8020 H 767.276 2.01026 -4.14639 0
M  V30 8021 H 765.591 1.9576 -3.67515 0
M  V30 8022 H 768.188 4.58241 -2.75534 0
M  V30 8023 H 768.531 4.00275 -1.14392 0
M  V30 8024 H 769.064 3.05184 -2.55162 0
M  V30 8025 H 765.803 3.55621 -5.50649 0
M  V30 8026 H 765.323 4.43594 -4.03713 0
M  V30 8027 H 767.002 4.52454 -4.62487 0
M  V30 8028 N 767.134 1.16236 1.06428 0
M  V30 8029 C 768.55 0.906983 1.31324 0
M  V30 8030 C 768.75 -0.440872 1.96618 0
M  V30 8031 O 767.806 -1.1807 2.23194 0
M  V30 8032 C 769.119 2.05501 2.19522 0
M  V30 8033 C 770.667 2.09061 2.32943 0
M  V30 8034 C 771.142 3.23214 3.24495 0
M  V30 8035 N 772.633 3.22922 3.32078 0
M  V30 8036 C 773.368 4.07889 4.03006 0
M  V30 8037 N 772.864 5.02941 4.76469 0
M  V30 8038 N 774.657 3.95881 3.99043 0
M  V30 8039 H 766.808 2.03015 0.624388 0
M  V30 8040 H 769.071 0.88576 0.337835 0
M  V30 8041 H 768.777 3.02847 1.78819 0
M  V30 8042 H 768.651 1.99538 3.201 0
M  V30 8043 H 771.038 1.12308 2.72893 0
M  V30 8044 H 771.119 2.19089 1.32037 0
M  V30 8045 H 770.763 4.20225 2.85261 0
M  V30 8046 H 770.693 3.10423 4.25377 0
M  V30 8047 H 773.184 2.54093 2.79724 0
M  V30 8048 H 773.497 5.64196 5.28112 0
M  V30 8049 H 771.842 5.06922 4.75453 0
M  V30 8050 H 775.033 3.20927 3.40769 0
M  V30 8051 H 775.206 4.62321 4.54052 0
M  V30 8052 N 768.612 -1.24939 0.960631 0
M  V30 8053 C 769.861 -1.92118 0.614298 0
M  V30 8054 C 770.174 -1.75998 -0.853474 0
M  V30 8055 O 771.38 -2.37804 -1.31003 0
M  V30 8056 C 769.836 -3.44303 1.04801 0
M  V30 8057 C 769.444 -3.69123 2.53875 0
M  V30 8058 C 771.188 -4.17375 0.774497 0
M  V30 8059 C 769.095 -5.14843 2.91016 0
M  V30 8060 H 768.025 -0.719319 0.226045 0
M  V30 8061 H 770.676 -1.41701 1.16589 0
M  V30 8062 H 769.058 -3.93715 0.42479 0
M  V30 8063 H 770.232 -3.30339 3.21267 0
M  V30 8064 H 768.547 -3.09323 2.78762 0
M  V30 8065 H 771.144 -5.24723 1.02808 0
M  V30 8066 H 771.487 -4.15294 -0.289192 0
M  V30 8067 H 772.02 -3.7389 1.35835 0
M  V30 8068 H 768.759 -5.2204 3.96427 0
M  V30 8069 H 768.279 -5.54652 2.28302 0
M  V30 8070 H 769.958 -5.83017 2.80535 0
M  V30 8071 N 770.09 -0.729906 -1.39679 0
M  V30 8072 C 771.339 -0.272534 -1.9985 0
M  V30 8073 C 771.652 1.14519 -1.58571 0
M  V30 8074 O 772.858 1.70182 -2.11543 0
M  V30 8075 C 771.314 -0.436322 -3.57245 0
M  V30 8076 C 770.922 -1.86161 -4.0749 0
M  V30 8077 C 772.666 -0.0404679 -4.24481 0
M  V30 8078 C 770.573 -1.97522 -5.5744 0
M  V30 8079 H 769.503 -0.0981428 -0.747585 0
M  V30 8080 H 772.154 -0.903056 -1.59741 0
M  V30 8081 H 770.536 0.263015 -3.95126 0
M  V30 8082 H 771.71 -2.59248 -3.80955 0
M  V30 8083 H 770.025 -2.21021 -3.529 0
M  V30 8084 H 772.622 -0.104437 -5.34598 0
M  V30 8085 H 772.965 1.00357 -4.04023 0
M  V30 8086 H 773.498 -0.690774 -3.91757 0
M  V30 8087 H 770.237 -3.00096 -5.82771 0
M  V30 8088 H 769.757 -1.28864 -5.85794 0
M  V30 8089 H 771.436 -1.754 -6.22771 0
M  V30 8090 N 771.568 1.50203 -0.477153 0
M  V30 8091 C 772.796 2.0677 0.0732489 0
M  V30 8092 C 773.211 1.34033 1.32968 0
M  V30 8093 O 772.568 0.411412 1.77802 0
M  V30 8094 C 772.619 3.59751 0.35518 0
M  V30 8095 O 772.34 4.29747 -0.851425 0
M  V30 8096 C 773.841 4.3296 0.951877 0
M  V30 8097 H 771.061 0.670929 -0.00978923 0
M  V30 8098 H 773.605 1.93293 -0.667676 0
M  V30 8099 H 771.76 3.7301 1.04605 0
M  V30 8100 H 772.174 5.2106 -0.599708 0
M  V30 8101 H 773.648 5.40952 1.09888 0
M  V30 8102 H 774.125 3.93856 1.94356 0
M  V30 8103 H 774.731 4.24246 0.299208 0
M  V30 8104 N 773.046 0.209999 1.56195 0
M  V30 8105 C 773.978 -0.736967 2.17029 0
M  V30 8106 C 774.991 -1.16599 1.13616 0
M  V30 8107 O 776.18 -1.09914 1.40646 0
M  V30 8108 C 773.28 -2.00852 2.72969 0
M  V30 8109 C 772.453 -1.73691 4.01435 0
M  V30 8110 C 771.512 -2.85439 4.42053 0
M  V30 8111 O 770.538 -2.54405 5.09183 0
M  V30 8112 N 771.74 -4.14135 4.06783 0
M  V30 8113 H 774.505 -0.216656 2.98916 0
M  V30 8114 H 772.066 0.0285672 1.61875 0
M  V30 8115 H 774.058 -2.74778 2.97118 0
M  V30 8116 H 772.628 -2.43963 1.95451 0
M  V30 8117 H 771.848 -0.834676 3.85262 0
M  V30 8118 H 773.136 -1.52961 4.85263 0
M  V30 8119 H 772.534 -4.42196 3.52816 0
M  V30 8120 H 771.091 -4.84642 4.35851 0
M  V30 8121 N 774.524 -1.57472 -0.0634922 0
M  V30 8122 C 775.457 -1.99571 -1.10664 0
M  V30 8123 C 776.435 -0.874015 -1.37112 0
M  V30 8124 O 777.619 -1.13702 -1.50347 0
M  V30 8125 C 774.746 -2.3395 -2.44918 0
M  V30 8126 C 773.792 -3.56213 -2.34551 0
M  V30 8127 S 774.625 -5.06727 -1.73169 0
M  V30 8128 C 775.781 -5.44316 -3.08984 0
M  V30 8129 H 776.014 -2.87739 -0.747905 0
M  V30 8130 H 773.547 -1.5198 -0.272316 0
M  V30 8131 H 775.505 -2.54431 -3.22141 0
M  V30 8132 H 774.166 -1.46297 -2.7795 0
M  V30 8133 H 773.359 -3.77812 -3.33578 0
M  V30 8134 H 772.961 -3.35406 -1.65466 0
M  V30 8135 H 775.253 -5.42894 -4.05305 0
M  V30 8136 H 776.196 -6.4502 -2.92156 0
M  V30 8137 H 776.604 -4.71781 -3.09972 0
M  V30 8138 N 776.003 0.335068 -1.53997 0
M  V30 8139 C 776.933 1.41727 -1.85568 0
M  V30 8140 C 777.914 1.54505 -0.7115 0
M  V30 8141 O 779.099 1.68573 -0.964191 0
M  V30 8142 C 776.229 2.7866 -2.07282 0
M  V30 8143 C 775.183 2.80682 -3.23112 0
M  V30 8144 C 774.509 4.20581 -3.30175 0
M  V30 8145 C 775.809 2.45458 -4.61029 0
M  V30 8146 H 777.503 1.15555 -2.76202 0
M  V30 8147 H 775.049 0.554445 -1.32898 0
M  V30 8148 H 777.002 3.54423 -2.27952 0
M  V30 8149 H 775.726 3.06286 -1.13387 0
M  V30 8150 H 774.385 2.07373 -3.02311 0
M  V30 8151 H 774.033 4.4533 -2.33859 0
M  V30 8152 H 773.733 4.22843 -4.08016 0
M  V30 8153 H 775.257 4.98174 -3.53066 0
M  V30 8154 H 776.671 3.10934 -4.81656 0
M  V30 8155 H 775.068 2.5899 -5.41336 0
M  V30 8156 H 776.138 1.40628 -4.6406 0
M  V30 8157 N 777.481 1.45874 0.596531 0
M  V30 8158 C 778.413 1.51408 1.7207 0
M  V30 8159 C 779.426 0.403738 1.57714 0
M  V30 8160 O 780.615 0.671384 1.65393 0
M  V30 8161 C 777.715 1.3652 3.10186 0
M  V30 8162 C 776.888 2.61428 3.50677 0
M  V30 8163 C 775.947 2.40937 4.67799 0
M  V30 8164 O 774.973 3.14602 4.74357 0
M  V30 8165 N 776.175 1.4621 5.61785 0
M  V30 8166 H 778.94 2.48333 1.67782 0
M  V30 8167 H 776.501 1.41755 0.782129 0
M  V30 8168 H 778.493 1.20606 3.86311 0
M  V30 8169 H 777.063 0.478302 3.08919 0
M  V30 8170 H 776.283 2.92381 2.644 0
M  V30 8171 H 777.571 3.44432 3.74491 0
M  V30 8172 H 776.969 0.854382 5.59211 0
M  V30 8173 H 775.526 1.36264 6.37397 0
M  V30 8174 N 778.959 -0.83999 1.33349 0
M  V30 8175 C 780.189 -1.62492 1.27593 0
M  V30 8176 C 780.597 -1.88559 -0.155597 0
M  V30 8177 O 779.94 -1.46537 -1.10782 0
M  V30 8178 C 780.002 -2.99984 1.98116 0
M  V30 8179 C 779.666 -2.96892 3.47425 0
M  V30 8180 C 780.663 -2.72688 4.42648 0
M  V30 8181 C 778.348 -3.17063 3.89585 0
M  V30 8182 C 780.342 -2.68681 5.78004 0
M  V30 8183 C 778.029 -3.12682 5.25046 0
M  V30 8184 C 779.027 -2.88522 6.19067 0
M  V30 8185 O 778.715 -2.84042 7.52047 0
M  V30 8186 H 778.447 -0.512358 0.440982 0
M  V30 8187 H 781.001 -1.0545 1.76265 0
M  V30 8188 H 779.231 -3.58875 1.44034 0
M  V30 8189 H 780.92 -3.6084 1.85875 0
M  V30 8190 H 781.686 -2.56856 4.114 0
M  V30 8191 H 777.565 -3.34889 3.16813 0
M  V30 8192 H 781.109 -2.49743 6.51363 0
M  V30 8193 H 777.006 -3.28063 5.55918 0
M  V30 8194 H 777.774 -2.99892 7.61582 0
M  V30 8195 N 780.437 -1.16799 -1.0581 0
M  V30 8196 C 781.387 -0.847231 -2.11674 0
M  V30 8197 C 782.371 0.175476 -1.5994 0
M  V30 8198 O 783.563 -0.0260602 -1.76981 0
M  V30 8199 C 780.692 -0.355446 -3.41455 0
M  V30 8200 C 779.778 -1.40922 -4.00002 0
M  V30 8201 N 780.169 -2.62096 -4.32596 0
M  V30 8202 C 778.467 -1.26562 -4.27666 0
M  V30 8203 C 779.168 -3.29759 -4.79201 0
M  V30 8204 N 778.144 -2.57138 -4.78938 0
M  V30 8205 H 781.946 -1.76862 -2.34727 0
M  V30 8206 H 779.46 -1.05577 -1.23399 0
M  V30 8207 H 781.457 -0.107231 -4.16762 0
M  V30 8208 H 780.117 0.559817 -3.19838 0
M  V30 8209 H 781.128 -2.99113 -4.22791 0
M  V30 8210 H 777.805 -0.411503 -4.15467 0
M  V30 8211 H 779.195 -4.33222 -5.13584 0
M  V30 8212 N 781.915 1.24427 -0.967243 0
M  V30 8213 C 782.863 2.27403 -0.488927 0
M  V30 8214 C 783.857 1.63388 0.447302 0
M  V30 8215 O 785.063 1.77085 0.322643 0
M  V30 8216 H 781.438 0.738921 -0.139643 0
M  V30 8217 H 783.409 2.65122 -1.36942 0
M  V30 8218 C 782.158 3.4709 0.205787 0
M  V30 8219 H 781.481 3.96591 -0.50551 0
M  V30 8220 H 782.921 4.2099 0.504296 0
M  V30 8221 C 781.38 3.04923 1.43261 0
M  V30 8222 O 781.91 3.12043 2.52967 0
M  V30 8223 N 780.116 2.59976 1.29849 0
M  V30 8224 H 779.663 2.54382 0.405876 0
M  V30 8225 H 779.621 2.32128 2.12047 0
M  V30 8226 N 783.393 0.737304 1.3929 0
M  V30 8227 C 784.34 0.0988364 2.30588 0
M  V30 8228 C 785.31 -0.727206 1.49335 0
M  V30 8229 O 786.495 -0.686694 1.78014 0
M  V30 8230 C 783.635 -0.800734 3.35682 0
M  V30 8231 C 782.748 0.0381731 4.31983 0
M  V30 8232 C 781.883 -0.862884 5.24145 0
M  V30 8233 C 780.922 -0.0193639 6.12097 0
M  V30 8234 N 780.059 -0.87648 6.96608 0
M  V30 8235 H 784.899 0.883031 2.84617 0
M  V30 8236 H 782.436 0.447111 1.4014 0
M  V30 8237 H 784.394 -1.33676 3.95205 0
M  V30 8238 H 783.024 -1.55088 2.83103 0
M  V30 8239 H 782.076 0.691641 3.74059 0
M  V30 8240 H 783.388 0.690294 4.94 0
M  V30 8241 H 782.542 -1.46667 5.88705 0
M  V30 8242 H 781.281 -1.54878 4.62454 0
M  V30 8243 H 780.286 0.597202 5.46547 0
M  V30 8244 H 781.511 0.663348 6.75852 0
M  V30 8245 H 779.457 -1.54762 6.37483 0
M  V30 8246 H 779.374 -0.280892 7.55478 0
M  V30 8247 H 780.642 -1.46575 7.65595 0
M  V30 8248 N 784.871 -1.49948 0.485112 0
M  V30 8249 C 785.834 -2.27351 -0.290546 0
M  V30 8250 C 786.834 -1.32704 -0.908087 0
M  V30 8251 O 788.024 -1.56007 -0.775085 0
M  V30 8252 C 785.156 -3.10135 -1.41524 0
M  V30 8253 H 786.349 -2.97374 0.388454 0
M  V30 8254 H 783.902 -1.54453 0.239586 0
M  V30 8255 H 784.637 -2.44641 -2.12888 0
M  V30 8256 H 784.422 -3.79705 -0.978074 0
M  V30 8257 H 785.912 -3.68638 -1.96204 0
M  V30 8258 N 786.349 -0.21828 -1.56081 0
M  V30 8259 C 787.299 0.706492 -2.16778 0
M  V30 8260 C 788.283 1.15987 -1.11516 0
M  V30 8261 O 789.475 1.11441 -1.37513 0
M  V30 8262 C 786.604 1.91583 -2.8487 0
M  V30 8263 C 785.69 1.48228 -3.97353 0
M  V30 8264 N 786.081 0.761113 -5.00041 0
M  V30 8265 C 784.379 1.76982 -4.09382 0
M  V30 8266 C 785.08 0.540496 -5.79184 0
M  V30 8267 N 784.056 1.09622 -5.32432 0
M  V30 8268 H 787.858 0.147038 -2.93532 0
M  V30 8269 H 785.372 -0.0194049 -1.62388 0
M  V30 8270 H 787.369 2.58906 -3.26762 0
M  V30 8271 H 786.029 2.47979 -2.09611 0
M  V30 8272 H 787.04 0.414141 -5.16241 0
M  V30 8273 H 783.717 2.34721 -3.45271 0
M  V30 8274 H 785.107 -0.0332531 -6.71892 0
M  V30 8275 N 787.827 1.57504 0.0551401 0
M  V30 8276 C 788.757 2.07864 1.06372 0
M  V30 8277 C 789.738 0.975565 1.39344 0
M  V30 8278 O 790.923 1.24929 1.48682 0
M  V30 8279 C 788.053 2.53643 2.3724 0
M  V30 8280 C 787.007 3.67978 2.18578 0
M  V30 8281 C 786.333 3.9987 3.54976 0
M  V30 8282 C 787.633 4.97405 1.59329 0
M  V30 8283 H 789.327 2.92379 0.644595 0
M  V30 8284 H 786.873 1.40654 0.308619 0
M  V30 8285 H 788.826 2.8749 3.08103 0
M  V30 8286 H 787.55 1.66177 2.81163 0
M  V30 8287 H 786.209 3.3444 1.50152 0
M  V30 8288 H 785.857 3.0951 3.965 0
M  V30 8289 H 785.557 4.76867 3.43324 0
M  V30 8290 H 787.081 4.36228 4.27244 0
M  V30 8291 H 788.495 5.29375 2.20078 0
M  V30 8292 H 786.892 5.78837 1.58327 0
M  V30 8293 H 787.962 4.81697 0.55638 0
M  V30 8294 N 789.305 -0.326896 1.54172 0
M  V30 8295 C 790.235 -1.40741 1.86317 0
M  V30 8296 C 791.216 -1.54125 0.719684 0
M  V30 8297 O 792.401 -1.6806 0.973117 0
M  V30 8298 C 789.531 -2.77557 2.08757 0
M  V30 8299 C 788.485 -2.78965 3.24596 0
M  V30 8300 C 787.811 -4.18824 3.32401 0
M  V30 8301 C 789.111 -2.4301 4.62324 0
M  V30 8302 H 790.805 -1.14088 2.76811 0
M  V30 8303 H 788.351 -0.547389 1.3319 0
M  V30 8304 H 790.304 -3.53209 2.29829 0
M  V30 8305 H 789.028 -3.0568 1.15009 0
M  V30 8306 H 787.687 -2.05767 3.03406 0
M  V30 8307 H 787.335 -4.44083 2.36218 0
M  V30 8308 H 787.035 -4.20673 4.10253 0
M  V30 8309 H 788.559 -4.96294 3.55703 0
M  V30 8310 H 789.973 -3.08375 4.83299 0
M  V30 8311 H 788.37 -2.56116 5.42701 0
M  V30 8312 H 789.44 -1.38165 4.64799 0
M  V30 8313 N 790.784 -1.46188 -0.588786 0
M  V30 8314 C 791.732 -1.56653 -1.71938 0
M  V30 8315 C 792.726 -0.435354 -1.6371 0
M  V30 8316 O 793.932 -0.611996 -1.69277 0
M  V30 8317 H 790.307 -0.492408 -0.568365 0
M  V30 8318 H 792.278 -2.51724 -1.60242 0
M  V30 8319 C 791.027 -1.56822 -3.10326 0
M  V30 8320 H 790.35 -2.43198 -3.17325 0
M  V30 8321 H 791.79 -1.68199 -3.89211 0
M  V30 8322 C 790.249 -0.295802 -3.35599 0
M  V30 8323 O 790.779 0.616515 -3.96941 0
M  V30 8324 N 788.985 -0.185609 -2.90007 0
M  V30 8325 H 788.532 -0.928914 -2.40269 0
M  V30 8326 H 788.49 0.664883 -3.07289 0
M  V30 8327 N 792.262 0.832906 -1.33792 0
M  V30 8328 C 793.511 1.58351 -1.24932 0
M  V30 8329 C 793.824 1.94754 0.181703 0
M  V30 8330 O 795.03 2.6865 0.392375 0
M  V30 8331 C 793.486 2.85643 -2.18943 0
M  V30 8332 C 793.094 2.56581 -3.67247 0
M  V30 8333 C 794.838 3.63667 -2.18968 0
M  V30 8334 C 792.745 3.80006 -4.53155 0
M  V30 8335 H 791.675 0.594278 -0.464058 0
M  V30 8336 H 794.326 0.91786 -1.58895 0
M  V30 8337 H 792.708 3.53781 -1.77919 0
M  V30 8338 H 793.882 1.96617 -4.16747 0
M  V30 8339 H 792.197 1.91851 -3.6957 0
M  V30 8340 H 794.794 4.55293 -2.80379 0
M  V30 8341 H 795.137 3.99039 -1.18631 0
M  V30 8342 H 795.67 3.0246 -2.58384 0
M  V30 8343 H 792.409 3.4976 -5.5439 0
M  V30 8344 H 791.929 4.39288 -4.08395 0
M  V30 8345 H 793.608 4.47523 -4.6726 0
M  V30 8346 N 793.74 1.17359 1.05189 0
M  V30 8347 C 795.151 0.96793 1.5965 0
M  V30 8348 C 795.502 -0.485355 1.90102 0
M  V30 8349 O 794.627 -1.36066 1.6827 0
M  V30 8350 C 795.222 1.75068 2.90063 0
M  V30 8351 C 793.781 1.58969 3.41183 0
M  V30 8352 C 792.928 1.75231 2.14917 0
M  V30 8353 H 795.879 1.32067 0.880001 0
M  V30 8354 H 795.9 1.23308 3.59966 0
M  V30 8355 H 795.412 2.80835 2.67868 0
M  V30 8356 H 793.513 0.556906 3.68415 0
M  V30 8357 H 793.626 2.38067 4.15766 0
M  V30 8358 H 791.99 1.18073 2.25679 0
M  V30 8359 H 792.773 2.8241 1.95191 0
M  V30 8360 N 795.218 -1.23913 0.973828 0
M  V30 8361 C 796.443 -1.96735 0.656511 0
M  V30 8362 C 796.868 -1.71682 -0.768571 0
M  V30 8363 O 796.226 -0.984267 -1.52256 0
M  V30 8364 C 796.274 -3.48004 0.944735 0
M  V30 8365 O 795.378 -4.12387 0.0333357 0
M  V30 8366 H 794.719 -0.616119 0.247575 0
M  V30 8367 H 797.249 -1.57525 1.30564 0
M  V30 8368 H 797.259 -3.98424 0.87876 0
M  V30 8369 H 795.934 -3.65567 1.98328 0
M  V30 8370 H 794.511 -3.72585 0.153157 0
M  V30 8371 N 796.696 -0.74468 -1.38897 0
M  V30 8372 C 797.942 -0.306249 -2.01081 0
M  V30 8373 C 798.297 1.09724 -1.58046 0
M  V30 8374 O 797.59 1.73923 -0.803834 0
M  V30 8375 C 797.784 -0.357302 -3.55609 0
M  V30 8376 C 797.613 -1.76421 -4.13649 0
M  V30 8377 C 796.383 -2.3787 -4.4581 0
M  V30 8378 C 798.581 -2.71942 -4.36523 0
M  V30 8379 N 796.563 -3.70614 -4.89406 0
M  V30 8380 C 797.934 -3.89437 -4.8243 0
M  V30 8381 C 799.989 -2.69579 -4.18607 0
M  V30 8382 C 798.692 -5.04917 -5.123 0
M  V30 8383 C 800.718 -3.8421 -4.49596 0
M  V30 8384 C 800.08 -5.00442 -4.95719 0
M  V30 8385 H 796.179 -0.158531 -0.765762 0
M  V30 8386 H 798.763 -0.972726 -1.6866 0
M  V30 8387 H 796.934 0.278865 -3.87398 0
M  V30 8388 H 798.666 0.100599 -4.04575 0
M  V30 8389 H 795.421 -1.8971 -4.33943 0
M  V30 8390 H 795.845 -4.38791 -5.1555 0
M  V30 8391 H 800.487 -1.80905 -3.82143 0
M  V30 8392 H 798.205 -5.94213 -5.47665 0
M  V30 8393 H 801.791 -3.83691 -4.37347 0
M  V30 8394 H 800.671 -5.87671 -5.19242 0
M  V30 8395 N 798.174 1.49689 -0.493057 0
M  V30 8396 C 799.122 2.30613 0.303383 0
M  V30 8397 C 800.116 1.38867 0.970165 0
M  V30 8398 O 801.322 1.55956 0.898761 0
M  V30 8399 H 797.697 0.742891 0.116691 0
M  V30 8400 H 799.668 2.95717 -0.39924 0
M  V30 8401 C 798.417 3.20008 1.35978 0
M  V30 8402 H 797.74 3.90526 0.856103 0
M  V30 8403 H 799.18 3.79586 1.88919 0
M  V30 8404 C 797.639 2.39079 2.37367 0
M  V30 8405 O 798.169 2.08933 3.43089 0
M  V30 8406 N 796.375 2.0125 2.09635 0
M  V30 8407 H 795.922 2.25966 1.23682 0
M  V30 8408 H 795.88 1.47408 2.77702 0
M  V30 8409 N 799.652 0.226554 1.55963 0
M  V30 8410 C 800.898 -0.397608 1.99476 0
M  V30 8411 C 801.253 -1.57031 1.11172 0
M  V30 8412 O 800.546 -1.90907 0.162757 0
M  V30 8413 C 800.74 -0.87642 3.46488 0
M  V30 8414 C 800.569 0.248344 4.49014 0
M  V30 8415 C 799.339 0.71638 5.00196 0
M  V30 8416 C 801.537 1.06835 5.03081 0
M  V30 8417 N 799.519 1.81568 5.86435 0
M  V30 8418 C 800.89 2.01641 5.86294 0
M  V30 8419 C 802.945 1.10722 4.85433 0
M  V30 8420 C 801.648 3.0002 6.53743 0
M  V30 8421 C 803.674 2.07921 5.53645 0
M  V30 8422 C 803.036 3.01466 6.3663 0
M  V30 8423 H 799.135 -0.112024 0.773935 0
M  V30 8424 H 801.719 0.339472 1.91718 0
M  V30 8425 H 799.89 -1.58285 3.54684 0
M  V30 8426 H 801.622 -1.47382 3.76909 0
M  V30 8427 H 798.377 0.30409 4.72623 0
M  V30 8428 H 798.801 2.36748 6.34255 0
M  V30 8429 H 803.443 0.397909 4.20923 0
M  V30 8430 H 801.161 3.71911 7.17432 0
M  V30 8431 H 804.747 2.11609 5.41953 0
M  V30 8432 H 803.627 3.75451 6.88481 0
M  V30 8433 N 801.13 -1.57531 -0.0467866 0
M  V30 8434 C 802.077 -2.05387 -1.05285 0
M  V30 8435 C 803.047 -0.939385 -1.36985 0
M  V30 8436 O 804.232 -1.20877 -1.47626 0
M  V30 8437 C 801.372 -2.52343 -2.35408 0
M  V30 8438 C 800.485 -3.77512 -2.10022 0
M  V30 8439 C 799.62 -4.1315 -3.33887 0
M  V30 8440 C 798.659 -5.31286 -3.03976 0
M  V30 8441 N 797.796 -5.62441 -4.20243 0
M  V30 8442 H 802.636 -2.91095 -0.637788 0
M  V30 8443 H 800.173 -1.43939 -0.303322 0
M  V30 8444 H 802.131 -2.77628 -3.11413 0
M  V30 8445 H 800.761 -1.69577 -2.7467 0
M  V30 8446 H 799.813 -3.59417 -1.24594 0
M  V30 8447 H 801.125 -4.63644 -1.83945 0
M  V30 8448 H 800.279 -4.39469 -4.18273 0
M  V30 8449 H 799.018 -3.25634 -3.63062 0
M  V30 8450 H 798.023 -5.04738 -2.17991 0
M  V30 8451 H 799.248 -6.20441 -2.76098 0
M  V30 8452 H 797.194 -4.77885 -4.49402 0
M  V30 8453 H 797.111 -6.43046 -3.97528 0
M  V30 8454 H 798.379 -5.93327 -5.05553 0
M  V30 8455 N 802.608 0.318715 -1.54344 0
M  V30 8456 C 803.518 1.41535 -1.87097 0
M  V30 8457 C 804.534 1.56361 -0.763353 0
M  V30 8458 O 805.71 1.71365 -1.05811 0
M  V30 8459 C 802.775 2.76178 -2.09587 0
M  V30 8460 C 801.836 2.70486 -3.3337 0
M  V30 8461 C 801.069 3.98708 -3.54778 0
M  V30 8462 O 801.292 4.9721 -2.79532 0
M  V30 8463 O 800.226 4.01674 -4.48266 0
M  V30 8464 H 804.052 1.16764 -2.80357 0
M  V30 8465 H 801.637 0.51318 -1.4031 0
M  V30 8466 H 803.519 3.55873 -2.25682 0
M  V30 8467 H 802.194 3.00829 -1.19514 0
M  V30 8468 H 801.101 1.89325 -3.22656 0
M  V30 8469 H 802.434 2.50789 -4.23516 0
M  V30 8470 N 804.086 1.46499 0.581025 0
M  V30 8471 C 805.334 1.51596 1.33653 0
M  V30 8472 C 805.655 0.169859 1.94259 0
M  V30 8473 O 804.925 -0.803776 1.78651 0
M  V30 8474 H 803.505 0.558346 0.496244 0
M  V30 8475 H 806.167 1.8264 0.680338 0
M  V30 8476 H 805.263 2.26956 2.14237 0
M  V30 8477 N 805.565 -0.825799 1.34232 0
M  V30 8478 C 806.842 -1.56741 1.17011 0
M  V30 8479 C 807.222 -2.09512 -0.258425 0
M  V30 8480 O 806.57 -1.90664 -1.25935 0
M  V30 8481 C 806.78 -2.69104 2.22225 0
M  V30 8482 C 808.128 -3.37947 2.57055 0
M  V30 8483 O 809.152 -2.79358 2.20992 0
M  V30 8484 O 808.011 -4.43743 3.1899 0
M  V30 8485 H 805.105 -0.69163 0.453405 0
M  V30 8486 H 807.651 -0.867422 1.45856 0
M  V30 8487 H 806.423 -2.27844 3.18124 0
M  V30 8488 H 806.046 -3.46756 1.94541 0
M  V30 8489 N 807.043 -1.17915 -1.04565 0
M  V30 8490 C 808.32 -0.881187 -1.74627 0
M  V30 8491 C 808.7 0.617123 -2.01878 0
M  V30 8492 O 808.048 1.57032 -1.65991 0
M  V30 8493 C 808.258 -1.72299 -3.03503 0
M  V30 8494 C 809.606 -1.94688 -3.77335 0
M  V30 8495 O 810.63 -1.6931 -3.13389 0
M  V30 8496 O 809.489 -2.37379 -4.92253 0
M  V30 8497 H 806.583 -0.326864 -0.759664 0
M  V30 8498 H 809.129 -1.28642 -1.10676 0
M  V30 8499 H 807.901 -2.73891 -2.79462 0
M  V30 8500 H 807.524 -1.31593 -3.75192 0
M  V30 8501 N 808.521 1.23394 -0.980386 0
M  V30 8502 C 809.484 2.23092 -0.525619 0
M  V30 8503 C 810.484 1.56129 0.384745 0
M  V30 8504 O 811.674 1.73284 0.178439 0
M  V30 8505 C 808.806 3.40074 0.23712 0
M  V30 8506 H 809.999 2.64839 -1.40714 0
M  V30 8507 H 807.552 1.36227 -0.766275 0
M  V30 8508 H 808.287 3.03783 1.13518 0
M  V30 8509 H 808.072 3.89883 -0.416356 0
M  V30 8510 H 809.562 4.14043 0.543892 0
M  V30 8511 N 809.999 0.752036 1.385 0
M  V30 8512 C 811.248 0.304294 1.99391 0
M  V30 8513 C 811.561 -1.11982 1.60373 0
M  V30 8514 O 812.767 -1.66795 2.14223 0
M  V30 8515 C 811.223 0.493101 3.56506 0
M  V30 8516 C 810.831 1.9262 4.04477 0
M  V30 8517 C 812.575 0.107994 4.24363 0
M  V30 8518 C 810.482 2.06365 5.54227 0
M  V30 8519 H 809.412 0.110024 0.745929 0
M  V30 8520 H 812.063 0.928355 1.58284 0
M  V30 8521 H 810.445 -0.20012 3.95494 0
M  V30 8522 H 811.619 2.65276 3.76783 0
M  V30 8523 H 809.934 2.26608 3.49339 0
M  V30 8524 H 812.531 0.189474 5.34364 0
M  V30 8525 H 812.874 -0.939165 4.05568 0
M  V30 8526 H 813.407 0.753011 3.90608 0
M  V30 8527 H 810.146 3.0933 5.77923 0
M  V30 8528 H 809.666 1.38167 5.83669 0
M  V30 8529 H 811.345 1.85286 6.19902 0
M  V30 8530 N 811.477 -1.49425 0.500989 0
M  V30 8531 C 812.717 -2.04357 -0.0419004 0
M  V30 8532 C 813.081 -1.37236 -1.34277 0
M  V30 8533 O 814.282 -1.82889 -1.9699 0
M  V30 8534 C 812.553 -3.56889 -0.19112 0
M  V30 8535 S 814.112 -4.33369 -0.688259 0
M  V30 8536 H 810.93 -0.710998 -0.00177796 0
M  V30 8537 H 813.532 -1.83479 0.674953 0
M  V30 8538 H 812.236 -4.03283 0.760964 0
M  V30 8539 H 811.767 -3.82171 -0.933214 0
M  V30 8540 H 813.782 -4.55961 -1.9574 0
M  V30 8541 N 812.955 -0.234822 -1.55841 0
M  V30 8542 C 813.885 0.664217 -2.23854 0
M  V30 8543 C 814.866 1.19076 -1.2147 0
M  V30 8544 O 816.051 1.23232 -1.50091 0
M  V30 8545 C 813.181 1.86666 -2.9287 0
M  V30 8546 C 812.135 1.47341 -4.01839 0
M  V30 8547 C 811.461 2.75571 -4.58219 0
M  V30 8548 C 812.761 0.653479 -5.18196 0
M  V30 8549 H 814.455 0.0971213 -2.99242 0
M  V30 8550 H 812.001 0.0452724 -1.43929 0
M  V30 8551 H 813.954 2.50116 -3.39146 0
M  V30 8552 H 812.678 2.45894 -2.1495 0
M  V30 8553 H 811.337 0.862314 -3.56314 0
M  V30 8554 H 810.985 3.32971 -3.77014 0
M  V30 8555 H 810.685 2.49987 -5.31771 0
M  V30 8556 H 812.209 3.39939 -5.07221 0
M  V30 8557 H 813.623 1.19198 -5.60771 0
M  V30 8558 H 812.02 0.494188 -5.98062 0
M  V30 8559 H 813.09 -0.337004 -4.83728 0
M  V30 8560 N 814.433 1.57553 0.0384317 0
M  V30 8561 C 815.396 2.04927 1.02653 0
M  V30 8562 C 816.396 0.951768 1.29607 0
M  V30 8563 O 817.586 1.21568 1.24768 0
M  V30 8564 C 814.718 2.45828 2.36181 0
M  V30 8565 H 815.911 2.93474 0.617508 0
M  V30 8566 H 813.464 1.53679 0.285031 0
M  V30 8567 H 814.199 1.60408 2.8185 0
M  V30 8568 H 813.984 3.25945 2.1795 0
M  V30 8569 H 815.474 2.82939 3.0714 0
M  V30 8570 N 815.911 -0.310526 1.54511 0
M  V30 8571 C 816.821 -1.4054 1.87844 0
M  V30 8572 C 817.837 -1.55954 0.771635 0
M  V30 8573 O 819.013 -1.70801 1.06719 0
M  V30 8574 C 816.078 -2.75063 2.11048 0
M  V30 8575 C 815.139 -2.68715 3.348 0
M  V30 8576 C 814.372 -3.96821 3.56887 0
M  V30 8577 O 814.595 -4.95721 2.82165 0
M  V30 8578 O 813.529 -3.99291 4.50389 0
M  V30 8579 H 817.355 -1.15275 2.80972 0
M  V30 8580 H 814.94 -0.505732 1.4058 0
M  V30 8581 H 816.822 -3.54671 2.27566 0
M  V30 8582 H 815.497 -3.00191 1.21108 0
M  V30 8583 H 814.404 -1.87611 3.23655 0
M  V30 8584 H 815.737 -2.4854 4.2484 0
M  V30 8585 N 817.389 -1.46805 -0.573248 0
M  V30 8586 C 818.319 -1.60951 -1.69165 0
M  V30 8587 C 819.3 -0.45948 -1.63777 0
M  V30 8588 O 820.485 -0.68688 -1.81647 0
M  V30 8589 C 817.615 -1.60844 -3.07809 0
M  V30 8590 C 816.569 -2.74913 -3.28035 0
M  V30 8591 C 815.895 -2.59871 -4.67302 0
M  V30 8592 C 817.195 -4.16654 -3.14955 0
M  V30 8593 H 818.889 -2.54574 -1.57582 0
M  V30 8594 H 816.435 -1.22516 -0.756686 0
M  V30 8595 H 818.388 -1.69334 -3.85881 0
M  V30 8596 H 817.112 -0.637714 -3.20314 0
M  V30 8597 H 815.771 -2.65908 -2.52366 0
M  V30 8598 H 815.419 -1.60861 -4.76585 0
M  V30 8599 H 815.119 -3.36386 -4.81786 0
M  V30 8600 H 816.643 -2.70265 -5.4753 0
M  V30 8601 H 818.057 -4.26721 -3.82861 0
M  V30 8602 H 816.454 -4.93831 -3.40956 0
M  V30 8603 H 817.524 -4.36146 -2.11908 0
M  V30 8604 N 818.867 0.818669 -1.34668 0
M  V30 8605 C 819.814 1.92983 -1.26595 0
M  V30 8606 C 820.784 1.65506 -0.140315 0
M  V30 8607 O 821.969 1.88063 -0.322005 0
M  V30 8608 C 819.109 3.2932 -1.03163 0
M  V30 8609 C 818.222 3.69061 -2.24539 0
M  V30 8610 C 817.357 4.94368 -1.94355 0
M  V30 8611 C 816.396 5.26702 -3.11851 0
M  V30 8612 N 815.533 6.43187 -2.81522 0
M  V30 8613 H 820.373 1.99219 -2.2162 0
M  V30 8614 H 817.91 0.974612 -1.1018 0
M  V30 8615 H 819.868 4.07897 -0.87613 0
M  V30 8616 H 818.498 3.22584 -0.118045 0
M  V30 8617 H 817.55 2.85842 -2.50995 0
M  V30 8618 H 818.862 3.88924 -3.12313 0
M  V30 8619 H 818.016 5.80742 -1.75566 0
M  V30 8620 H 816.755 4.76515 -1.03848 0
M  V30 8621 H 815.76 4.38823 -3.31231 0
M  V30 8622 H 816.985 5.46492 -4.03142 0
M  V30 8623 H 814.931 6.26783 -1.93596 0
M  V30 8624 H 814.848 6.63243 -3.62829 0
M  V30 8625 H 816.116 7.32621 -2.66247 0
M  V30 8626 N 820.346 1.18468 1.03938 0
M  V30 8627 C 821.276 0.936389 2.13902 0
M  V30 8628 C 822.257 -0.126381 1.6963 0
M  V30 8629 O 823.442 0.0264757 1.94182 0
M  V30 8630 C 820.572 0.462729 3.44204 0
M  V30 8631 C 819.526 1.46613 4.02105 0
M  V30 8632 C 818.852 0.84994 5.27902 0
M  V30 8633 C 820.152 2.84323 4.3813 0
M  V30 8634 H 821.846 1.85602 2.3493 0
M  V30 8635 H 819.392 0.893806 1.12903 0
M  V30 8636 H 821.345 0.276382 4.20493 0
M  V30 8637 H 820.069 -0.492477 3.22866 0
M  V30 8638 H 818.728 1.63944 3.27899 0
M  V30 8639 H 818.376 -0.112493 5.02874 0
M  V30 8640 H 818.076 1.51988 5.67603 0
M  V30 8641 H 819.6 0.674152 6.06867 0
M  V30 8642 H 821.014 2.70636 5.054 0
M  V30 8643 H 819.411 3.48012 4.88884 0
M  V30 8644 H 820.481 3.37776 3.47901 0
M  V30 8645 N 821.824 -1.22873 0.986916 0
M  V30 8646 C 823.072 -1.91084 0.658121 0
M  V30 8647 C 823.393 -1.77304 -0.811675 0
M  V30 8648 O 822.663 -1.15649 -1.58121 0
M  V30 8649 H 821.243 -0.707251 0.240427 0
M  V30 8650 H 823.905 -1.49357 1.25213 0
M  V30 8651 H 823.001 -2.98373 0.915428 0
M  V30 8652 N 823.302 -0.75937 -1.38099 0
M  V30 8653 C 824.549 -0.318113 -1.99986 0
M  V30 8654 C 824.877 1.10184 -1.6028 0
M  V30 8655 O 824.132 1.77015 -0.834524 0
M  V30 8656 C 824.431 -0.394999 -3.55211 0
M  V30 8657 C 824.097 -1.77143 -4.14646 0
M  V30 8658 C 822.759 -2.14811 -4.30592 0
M  V30 8659 C 825.111 -2.67407 -4.47373 0
M  V30 8660 C 822.439 -3.42203 -4.76565 0
M  V30 8661 C 824.791 -3.94196 -4.94765 0
M  V30 8662 C 823.455 -4.31925 -5.08918 0
M  V30 8663 H 822.725 -0.116406 -0.7318 0
M  V30 8664 H 825.372 -0.97098 -1.65058 0
M  V30 8665 H 823.677 0.341426 -3.9031 0
M  V30 8666 H 825.374 -0.0350722 -4.00985 0
M  V30 8667 H 821.964 -1.46864 -4.02652 0
M  V30 8668 H 826.148 -2.39569 -4.3465 0
M  V30 8669 H 821.404 -3.71346 -4.85708 0
M  V30 8670 H 825.578 -4.64276 -5.19057 0
M  V30 8671 H 823.205 -5.30699 -5.443 0
M  V30 8672 N 824.78 1.49157 -0.508906 0
M  V30 8673 C 826.029 2.0167 0.0346854 0
M  V30 8674 C 826.342 1.39302 1.37311 0
M  V30 8675 O 827.548 1.83189 2.00385 0
M  V30 8676 C 826.004 3.59725 0.112261 0
M  V30 8677 C 825.612 4.31069 -1.21999 0
M  V30 8678 C 827.356 4.20155 0.605798 0
M  V30 8679 C 825.263 5.81001 -1.10415 0
M  V30 8680 H 824.193 0.753814 0.0167355 0
M  V30 8681 H 826.844 1.7162 -0.649518 0
M  V30 8682 H 825.226 3.86525 0.861087 0
M  V30 8683 H 826.4 4.15962 -1.98273 0
M  V30 8684 H 824.715 3.82418 -1.64759 0
M  V30 8685 H 827.312 5.29964 0.710102 0
M  V30 8686 H 827.655 3.84051 1.60656 0
M  V30 8687 H 828.188 3.97705 -0.0867239 0
M  V30 8688 H 824.927 6.21643 -2.07941 0
M  V30 8689 H 824.447 5.9858 -0.382428 0
M  V30 8690 H 826.126 6.42207 -0.786116 0
M  V30 8691 N 826.258 0.243083 1.55714 0
M  V30 8692 C 827.221 -0.644723 2.19945 0
M  V30 8693 C 828.221 -1.10562 1.16759 0
M  V30 8694 O 829.411 -1.01095 1.41865 0
M  V30 8695 C 826.543 -1.88569 2.83997 0
M  V30 8696 H 827.736 -0.0843839 2.99781 0
M  V30 8697 H 825.289 -0.00647246 1.56299 0
M  V30 8698 H 826.024 -2.48736 2.08089 0
M  V30 8699 H 825.809 -1.56345 3.59581 0
M  V30 8700 H 827.299 -2.51774 3.33166 0
M  V30 8701 N 827.736 -1.57571 -0.0300757 0
M  V30 8702 C 828.668 -2.0329 -1.05857 0
M  V30 8703 C 829.681 -0.945543 -1.32527 0
M  V30 8704 O 830.87 -1.22287 -1.30032 0
M  V30 8705 C 827.97 -2.39234 -2.40042 0
M  V30 8706 C 827.143 -3.70337 -2.32743 0
M  V30 8707 C 826.202 -3.93482 -3.49369 0
M  V30 8708 O 825.228 -4.64551 -3.28909 0
M  V30 8709 N 826.43 -3.39042 -4.71201 0
M  V30 8710 H 829.195 -2.9214 -0.668897 0
M  V30 8711 H 826.756 -1.60425 -0.218038 0
M  V30 8712 H 828.748 -2.51856 -3.16782 0
M  V30 8713 H 827.318 -1.5606 -2.70858 0
M  V30 8714 H 826.538 -3.68079 -1.41109 0
M  V30 8715 H 827.826 -4.56343 -2.25007 0
M  V30 8716 H 827.224 -2.81434 -4.90725 0
M  V30 8717 H 825.781 -3.57045 -5.45309 0
M  V30 8718 N 829.214 0.302327 -1.54673 0
M  V30 8719 C 830.439 1.06103 -1.78205 0
M  V30 8720 C 830.864 1.80204 -0.53926 0
M  V30 8721 O 830.222 1.73975 0.510142 0
M  V30 8722 C 830.27 2.01829 -2.98827 0
M  V30 8723 O 829.374 3.10108 -2.71858 0
M  V30 8724 H 828.715 0.30487 -0.589873 0
M  V30 8725 H 831.245 0.340153 -2.01753 0
M  V30 8726 H 831.255 2.44319 -3.2676 0
M  V30 8727 H 829.93 1.473 -3.88942 0
M  V30 8728 H 828.507 2.72142 -2.54937 0
M  V30 8729 N 830.692 1.47107 0.565454 0
M  V30 8730 C 831.932 1.5488 1.33385 0
M  V30 8731 C 832.296 0.202804 1.90926 0
M  V30 8732 O 833.497 0.155345 2.68351 0
M  V30 8733 C 831.768 2.62969 2.42037 0
M  V30 8734 S 833.327 2.90269 3.29074 0
M  V30 8735 H 830.145 0.547008 0.454206 0
M  V30 8736 H 832.747 1.8444 0.648228 0
M  V30 8737 H 831.451 3.59376 1.98185 0
M  V30 8738 H 830.982 2.35197 3.15351 0
M  V30 8739 H 832.997 2.26854 4.41307 0
M  V30 8740 N 832.17 -0.811516 1.35101 0
M  V30 8741 C 833.1 -1.9378 1.30275 0
M  V30 8742 C 834.081 -1.69165 0.178075 0
M  V30 8743 O 835.266 -1.90599 0.372256 0
M  V30 8744 C 832.396 -3.30439 1.06899 0
M  V30 8745 C 831.35 -3.69523 2.15955 0
M  V30 8746 C 830.676 -5.0429 1.77751 0
M  V30 8747 C 831.976 -3.80419 3.57881 0
M  V30 8748 H 833.67 -1.98075 2.24514 0
M  V30 8749 H 831.216 -0.951586 1.08078 0
M  V30 8750 H 833.169 -4.08828 1.02164 0
M  V30 8751 H 831.893 -3.26473 0.0910462 0
M  V30 8752 H 830.552 -2.93416 2.19778 0
M  V30 8753 H 830.2 -4.96823 0.785876 0
M  V30 8754 H 829.9 -5.31411 2.5075 0
M  V30 8755 H 831.424 -5.85125 1.74533 0
M  V30 8756 H 832.838 -4.49051 3.56407 0
M  V30 8757 H 831.235 -4.19005 4.29598 0
M  V30 8758 H 832.305 -2.82105 3.94391 0
M  V30 8759 N 833.648 -1.19017 -1.03309 0
M  V30 8760 C 834.611 -0.926076 -2.09658 0
M  V30 8761 C 835.611 0.0917077 -1.60538 0
M  V30 8762 O 836.801 -0.142574 -1.73616 0
M  V30 8763 C 833.933 -0.390958 -3.38651 0
M  V30 8764 H 835.126 -1.86923 -2.3452 0
M  V30 8765 H 832.679 -1.00325 -1.19853 0
M  V30 8766 H 833.414 0.558446 -3.19456 0
M  V30 8767 H 833.199 -1.12474 -3.75622 0
M  V30 8768 H 834.689 -0.225131 -4.16993 0
M  V30 8769 N 835.127 1.22348 -0.993418 0
M  V30 8770 C 836.059 2.23626 -0.502404 0
M  V30 8771 C 837.072 1.57739 0.402784 0
M  V30 8772 O 838.261 1.77321 0.204835 0
M  V30 8773 C 835.361 3.37647 0.291118 0
M  V30 8774 C 834.534 4.33121 -0.610332 0
M  V30 8775 C 833.593 5.26035 0.131572 0
M  V30 8776 O 832.619 5.67145 -0.483199 0
M  V30 8777 N 833.821 5.63023 1.41371 0
M  V30 8778 H 836.586 2.66385 -1.37329 0
M  V30 8779 H 834.147 1.36653 -0.868196 0
M  V30 8780 H 836.139 3.96792 0.796107 0
M  V30 8781 H 834.709 2.93967 1.0631 0
M  V30 8782 H 833.929 3.72287 -1.29598 0
M  V30 8783 H 835.217 4.93853 -1.22422 0
M  V30 8784 H 834.615 5.31596 1.93449 0
M  V30 8785 H 833.172 6.24582 1.86388 0
M  V30 8786 N 836.605 0.766683 1.37694 0
M  V30 8787 C 837.853 0.328065 1.9942 0
M  V30 8788 C 838.174 -1.09775 1.61166 0
M  V30 8789 O 837.444 -1.75288 0.874686 0
M  V30 8790 H 836.024 0.11831 0.737572 0
M  V30 8791 H 838.686 0.983686 1.68255 0
M  V30 8792 H 837.782 0.401647 3.09505 0
M  V30 8793 N 838.083 -1.48885 0.516809 0
M  V30 8794 C 839.013 -2.32241 -0.242157 0
M  V30 8795 C 839.994 -1.41258 -0.947633 0
M  V30 8796 O 841.179 -1.70156 -0.935973 0
M  V30 8797 C 838.309 -3.22151 -1.29754 0
M  V30 8798 C 837.263 -4.22053 -0.710995 0
M  V30 8799 C 836.589 -5.01007 -1.86806 0
M  V30 8800 C 837.889 -5.21388 0.30853 0
M  V30 8801 H 839.583 -2.95943 0.453651 0
M  V30 8802 H 837.129 -1.42316 0.219612 0
M  V30 8803 H 839.082 -3.79284 -1.83634 0
M  V30 8804 H 837.806 -2.56423 -2.02274 0
M  V30 8805 H 836.465 -3.66087 -0.193819 0
M  V30 8806 H 836.113 -4.31713 -2.58133 0
M  V30 8807 H 835.813 -5.68615 -1.48159 0
M  V30 8808 H 837.337 -5.60989 -2.4109 0
M  V30 8809 H 838.751 -5.73122 -0.142703 0
M  V30 8810 H 837.148 -5.96975 0.611673 0
M  V30 8811 H 838.218 -4.69329 1.21894 0
M  V30 8812 N 839.561 -0.251338 -1.55583 0
M  V30 8813 C 840.786 0.379136 -2.03905 0
M  V30 8814 C 841.211 1.50428 -1.12929 0
M  V30 8815 O 840.569 1.80882 -0.123114 0
M  V30 8816 C 840.617 0.86009 -3.50193 0
M  V30 8817 O 839.721 1.96932 -3.62342 0
M  V30 8818 H 839.062 0.0820183 -0.658915 0
M  V30 8819 H 841.592 -0.378692 -2.01065 0
M  V30 8820 H 841.602 1.16214 -3.91099 0
M  V30 8821 H 840.277 0.0367559 -4.15884 0
M  V30 8822 H 838.854 1.67163 -3.33333 0
M  V30 8823 N 841.039 1.57585 0.0217189 0
M  V30 8824 C 842.267 1.93871 0.722619 0
M  V30 8825 C 842.682 0.851706 1.68498 0
M  V30 8826 O 842.039 -0.17127 1.81695 0
M  V30 8827 C 842.09 3.30114 1.47333 0
M  V30 8828 O 841.811 4.34639 0.549597 0
M  V30 8829 C 843.312 3.80727 2.27072 0
M  V30 8830 H 840.532 0.639671 0.202637 0
M  V30 8831 H 843.076 2.04487 -0.0229414 0
M  V30 8832 H 841.231 3.20872 2.17071 0
M  V30 8833 H 841.645 5.13326 1.07686 0
M  V30 8834 H 843.119 4.78547 2.75131 0
M  V30 8835 H 843.596 3.12301 3.08812 0
M  V30 8836 H 844.202 3.93075 1.62395 0
M  V30 8837 N 842.517 -0.29412 1.54831 0
M  V30 8838 C 843.45 -1.38779 1.81151 0
M  V30 8839 C 844.428 -1.48464 0.663124 0
M  V30 8840 O 845.612 -1.65418 0.903835 0
M  V30 8841 C 842.739 -2.76627 1.95436 0
M  V30 8842 C 841.785 -2.84333 3.17895 0
M  V30 8843 S 842.618 -2.45726 4.75793 0
M  V30 8844 C 843.774 -3.85589 4.93023 0
M  V30 8845 H 844.007 -1.16246 2.73631 0
M  V30 8846 H 841.54 -0.492611 1.46331 0
M  V30 8847 H 843.498 -3.56021 2.04351 0
M  V30 8848 H 842.159 -2.96425 1.03881 0
M  V30 8849 H 841.352 -3.85457 3.24713 0
M  V30 8850 H 840.954 -2.1294 3.07461 0
M  V30 8851 H 843.246 -4.80656 4.77468 0
M  V30 8852 H 844.189 -3.83737 5.95107 0
M  V30 8853 H 844.597 -3.75911 4.21131 0
M  V30 8854 N 843.995 -1.47404 -0.557645 0
M  V30 8855 C 844.925 -1.62736 -1.67449 0
M  V30 8856 C 845.906 -0.476824 -1.6328 0
M  V30 8857 O 847.091 -0.706108 -1.80908 0
M  V30 8858 C 844.221 -1.641 -3.06086 0
M  V30 8859 C 843.175 -2.78377 -3.25101 0
M  V30 8860 C 842.501 -2.64812 -4.6452 0
M  V30 8861 C 843.801 -4.19971 -3.10518 0
M  V30 8862 H 845.495 -2.56232 -1.54873 0
M  V30 8863 H 843.041 -1.23312 -0.743649 0
M  V30 8864 H 844.994 -1.73417 -3.84063 0
M  V30 8865 H 843.718 -0.671652 -3.19619 0
M  V30 8866 H 842.377 -2.6857 -2.49531 0
M  V30 8867 H 842.025 -1.65906 -4.74852 0
M  V30 8868 H 841.725 -3.41477 -4.78191 0
M  V30 8869 H 843.249 -2.76057 -5.44633 0
M  V30 8870 H 844.663 -4.30757 -3.78313 0
M  V30 8871 H 843.06 -4.97419 -3.35699 0
M  V30 8872 H 844.13 -4.38369 -2.0727 0
M  V30 8873 N 845.473 0.80434 -1.35529 0
M  V30 8874 C 846.436 1.89788 -1.28503 0
M  V30 8875 C 847.436 1.59601 -0.195983 0
M  V30 8876 O 848.626 1.68292 -0.449827 0
M  V30 8877 C 845.758 3.26255 -0.98847 0
M  V30 8878 H 846.951 1.97436 -2.25741 0
M  V30 8879 H 844.504 1.00046 -1.20086 0
M  V30 8880 H 845.239 3.24294 -0.0200541 0
M  V30 8881 H 845.024 3.49551 -1.77641 0
M  V30 8882 H 846.514 4.06298 -0.964975 0
M  V30 8883 N 846.951 1.19563 1.02676 0
M  V30 8884 C 847.899 0.931942 2.13114 0
M  V30 8885 C 848.893 -0.113007 1.69023 0
M  V30 8886 O 850.099 0.0364298 1.79963 0
M  V30 8887 H 846.474 0.283981 0.696318 0
M  V30 8888 H 848.445 1.86991 2.32545 0
M  V30 8889 C 847.194 0.489461 3.44238 0
M  V30 8890 H 846.517 1.28508 3.78584 0
M  V30 8891 H 847.957 0.34408 4.22602 0
M  V30 8892 C 846.416 -0.796761 3.27343 0
M  V30 8893 O 846.946 -1.85767 3.56165 0
M  V30 8894 N 845.152 -0.754824 2.80626 0
M  V30 8895 H 844.699 0.108778 2.5737 0
M  V30 8896 H 844.657 -1.6158 2.69702 0
M  V30 8897 N 848.429 -1.21819 0.999893 0
M  V30 8898 C 849.359 -2.26282 0.576096 0
M  V30 8899 C 850.34 -1.65317 -0.400537 0
M  V30 8900 O 851.525 -1.92028 -0.28964 0
M  V30 8901 C 848.655 -3.47147 -0.103145 0
M  V30 8902 C 847.609 -4.20594 0.792745 0
M  V30 8903 C 846.935 -5.34696 -0.0198026 0
M  V30 8904 C 848.235 -4.78533 2.09293 0
M  V30 8905 H 849.929 -2.61984 1.4493 0
M  V30 8906 H 847.475 -1.25935 0.698316 0
M  V30 8907 H 849.428 -4.1939 -0.411068 0
M  V30 8908 H 848.152 -3.1056 -1.01094 0
M  V30 8909 H 846.811 -3.50194 1.08442 0
M  V30 8910 H 846.459 -4.94352 -0.928729 0
M  V30 8911 H 846.159 -5.84764 0.576661 0
M  V30 8912 H 847.683 -6.09752 -0.321659 0
M  V30 8913 H 849.097 -5.42682 1.8485 0
M  V30 8914 H 847.494 -5.38968 2.63881 0
M  V30 8915 H 848.564 -3.98197 2.76708 0
M  V30 8916 N 849.908 -0.773975 -1.37286 0
M  V30 8917 C 851.155 -0.339306 -1.99637 0
M  V30 8918 C 851.483 1.08478 -1.61439 0
M  V30 8919 O 850.738 1.7612 -0.853252 0
M  V30 8920 C 851.037 -0.432651 -3.54772 0
M  V30 8921 C 850.703 -1.81531 -4.12744 0
M  V30 8922 C 849.365 -2.19366 -4.2829 0
M  V30 8923 C 851.717 -2.72137 -4.44512 0
M  V30 8924 C 849.045 -3.47239 -4.72908 0
M  V30 8925 C 851.397 -3.99421 -4.90556 0
M  V30 8926 C 850.061 -4.37298 -5.04308 0
M  V30 8927 H 849.331 -0.124161 -0.730524 0
M  V30 8928 H 851.978 -0.988432 -1.64019 0
M  V30 8929 H 850.283 0.30001 -3.9065 0
M  V30 8930 H 851.98 -0.0776 -4.00925 0
M  V30 8931 H 848.57 -1.51126 -4.01072 0
M  V30 8932 H 852.754 -2.44165 -4.32084 0
M  V30 8933 H 848.01 -3.76477 -4.81742 0
M  V30 8934 H 852.184 -4.69756 -5.14104 0
M  V30 8935 H 849.811 -5.36442 -5.38641 0
M  V30 8936 N 851.386 1.48609 -0.524698 0
M  V30 8937 C 852.611 2.07398 0.00952139 0
M  V30 8938 C 853.036 1.37939 1.27884 0
M  V30 8939 O 852.394 0.443633 1.75788 0
M  V30 8940 C 852.442 3.59916 0.221956 0
M  V30 8941 O 851.546 3.91647 1.29175 0
M  V30 8942 H 850.887 0.662981 -0.0367729 0
M  V30 8943 H 853.417 1.91092 -0.7311 0
M  V30 8944 H 853.427 4.05552 0.446236 0
M  V30 8945 H 852.102 4.09876 -0.705306 0
M  V30 8946 H 850.679 3.57796 1.05055 0
M  V30 8947 N 852.864 0.259585 1.55447 0
M  V30 8948 C 853.797 -0.675542 2.17972 0
M  V30 8949 C 854.775 -1.16362 1.13572 0
M  V30 8950 O 855.959 -1.23944 1.42021 0
M  V30 8951 C 853.086 -1.91952 2.79056 0
M  V30 8952 C 852.132 -1.56824 3.96621 0
M  V30 8953 S 852.965 -0.659846 5.31419 0
M  V30 8954 C 854.121 -1.91255 5.95963 0
M  V30 8955 H 854.354 -0.144236 2.9695 0
M  V30 8956 H 851.887 0.0439448 1.54337 0
M  V30 8957 H 853.845 -2.63362 3.14882 0
M  V30 8958 H 852.506 -2.42196 2 0
M  V30 8959 H 851.699 -2.49348 4.37997 0
M  V30 8960 H 851.301 -0.934472 3.62138 0
M  V30 8961 H 853.593 -2.85834 6.14252 0
M  V30 8962 H 854.536 -1.54207 6.91105 0
M  V30 8963 H 854.944 -2.07042 5.25161 0
M  V30 8964 N 854.342 -1.57594 -0.0133615 0
M  V30 8965 C 855.758 -1.5527 -0.369255 0
M  V30 8966 C 855.958 -0.987751 -1.7563 0
M  V30 8967 O 855.014 -0.615683 -2.44879 0
M  V30 8968 C 856.327 -2.99602 -0.25672 0
M  V30 8969 C 857.875 -3.11227 -0.332647 0
M  V30 8970 C 858.35 -4.57321 -0.249387 0
M  V30 8971 N 859.841 -4.62177 -0.3077 0
M  V30 8972 C 860.576 -5.72781 -0.26641 0
M  V30 8973 N 860.072 -6.92575 -0.176494 0
M  V30 8974 N 861.865 -5.61204 -0.317295 0
M  V30 8975 H 854.016 -1.92662 0.894154 0
M  V30 8976 H 856.279 -0.884352 0.341505 0
M  V30 8977 H 855.985 -3.44723 0.697072 0
M  V30 8978 H 855.859 -3.6246 -1.04415 0
M  V30 8979 H 858.246 -2.66045 -1.27688 0
M  V30 8980 H 858.327 -2.51171 0.484412 0
M  V30 8981 H 857.971 -5.03174 0.691242 0
M  V30 8982 H 857.901 -5.15306 -1.08476 0
M  V30 8983 H 860.392 -3.75994 -0.379069 0
M  V30 8984 H 860.705 -7.72653 -0.150518 0
M  V30 8985 H 859.05 -6.94854 -0.142314 0
M  V30 8986 H 862.241 -4.66509 -0.385643 0
M  V30 8987 H 862.414 -6.47388 -0.28165 0
M  V30 8988 N 855.82 0.285905 -1.54985 0
M  V30 8989 C 857.045 1.04207 -1.7932 0
M  V30 8990 C 857.47 1.79622 -0.558343 0
M  V30 8991 O 856.828 1.74506 0.491661 0
M  V30 8992 C 856.876 1.98648 -3.0095 0
M  V30 8993 O 855.98 3.07207 -2.75132 0
M  V30 8994 H 855.321 0.298596 -0.593074 0
M  V30 8995 H 857.851 0.318736 -2.02102 0
M  V30 8996 H 857.861 2.4084 -3.29333 0
M  V30 8997 H 856.536 1.43167 -3.90482 0
M  V30 8998 H 855.113 2.69423 -2.57809 0
M  V30 8999 N 857.298 1.47698 0.54982 0
M  V30 9000 C 858.545 1.54702 1.30665 0
M  V30 9001 C 858.873 0.212418 1.93337 0
M  V30 9002 O 858.128 -0.79543 1.78805 0
M  V30 9003 C 858.427 2.61903 2.4319 0
M  V30 9004 C 858.093 4.04953 1.98302 0
M  V30 9005 C 856.755 4.43893 1.85776 0
M  V30 9006 C 859.107 4.94682 1.64133 0
M  V30 9007 C 856.435 5.70387 1.37388 0
M  V30 9008 C 858.787 6.21646 1.17214 0
M  V30 9009 C 857.451 6.5946 1.0329 0
M  V30 9010 H 856.721 0.566096 0.478139 0
M  V30 9011 H 859.368 1.8133 0.615767 0
M  V30 9012 H 857.673 2.2906 3.17866 0
M  V30 9013 H 859.37 2.64543 3.0136 0
M  V30 9014 H 855.96 3.74191 2.08995 0
M  V30 9015 H 860.144 4.65291 1.72679 0
M  V30 9016 H 855.4 5.98427 1.25278 0
M  V30 9017 H 859.574 6.90581 0.898391 0
M  V30 9018 H 857.201 7.57367 0.655735 0
M  V30 9019 N 858.776 -0.797141 1.35954 0
M  V30 9020 C 860.025 -1.54983 1.29086 0
M  V30 9021 C 860.338 -1.95167 -0.130003 0
M  V30 9022 O 861.544 -2.69596 -0.32101 0
M  V30 9023 C 860 -2.79738 2.26439 0
M  V30 9024 C 859.608 -2.46753 3.73921 0
M  V30 9025 C 861.352 -3.57733 2.28533 0
M  V30 9026 C 859.259 -3.67858 4.63071 0
M  V30 9027 H 858.189 -0.581766 0.479651 0
M  V30 9028 H 860.84 -0.87541 1.61273 0
M  V30 9029 H 859.222 -3.48939 1.87236 0
M  V30 9030 H 860.396 -1.85499 4.21814 0
M  V30 9031 H 858.711 -1.81985 3.74527 0
M  V30 9032 H 861.308 -4.47699 2.92351 0
M  V30 9033 H 861.651 -3.95754 1.29169 0
M  V30 9034 H 862.184 -2.95504 2.66313 0
M  V30 9035 H 858.923 -3.34939 5.63468 0
M  V30 9036 H 858.443 -4.28305 4.19898 0
M  V30 9037 H 860.122 -4.34977 4.78961 0
M  V30 9038 N 860.254 -1.20106 -1.0204 0
M  V30 9039 C 861.201 -0.946468 -2.10501 0
M  V30 9040 C 862.171 0.121902 -1.65652 0
M  V30 9041 O 863.356 -0.0220244 -1.90787 0
M  V30 9042 C 860.496 -0.500499 -3.41451 0
M  V30 9043 C 859.609 -1.63659 -3.998 0
M  V30 9044 C 858.744 -1.14131 -5.18794 0
M  V30 9045 C 857.783 -2.25074 -5.69217 0
M  V30 9046 N 856.92 -1.76791 -6.79477 0
M  V30 9047 H 861.76 -1.87506 -2.31615 0
M  V30 9048 H 859.297 -0.934693 -1.13587 0
M  V30 9049 H 861.255 -0.223276 -4.16602 0
M  V30 9050 H 859.885 0.391099 -3.20422 0
M  V30 9051 H 858.937 -2.02882 -3.21781 0
M  V30 9052 H 860.249 -2.47213 -4.33229 0
M  V30 9053 H 859.403 -0.819826 -6.01135 0
M  V30 9054 H 858.142 -0.275615 -4.86921 0
M  V30 9055 H 857.147 -2.58043 -4.85483 0
M  V30 9056 H 858.372 -3.12114 -6.03127 0
M  V30 9057 H 856.318 -0.925428 -6.4944 0
M  V30 9058 H 856.235 -2.53928 -7.12079 0
M  V30 9059 H 857.503 -1.47631 -7.65392 0
M  V30 9060 N 861.732 1.21287 -1.00634 0
M  V30 9061 C 862.981 1.89706 -0.685178 0
M  V30 9062 C 863.294 1.79044 0.787566 0
M  V30 9063 O 864.5 2.42502 1.22086 0
M  V30 9064 C 862.956 3.40176 -1.17508 0
M  V30 9065 C 862.564 3.59446 -2.674 0
M  V30 9066 C 864.308 4.14213 -0.928869 0
M  V30 9067 C 862.215 5.03688 -3.09923 0
M  V30 9068 H 861.145 0.710434 -0.252586 0
M  V30 9069 H 863.796 1.37277 -1.21768 0
M  V30 9070 H 862.178 3.91867 -0.570622 0
M  V30 9071 H 863.352 3.18188 -3.33306 0
M  V30 9072 H 861.667 2.98764 -2.9005 0
M  V30 9073 H 864.264 5.20546 -1.22212 0
M  V30 9074 H 864.607 4.16082 0.134859 0
M  V30 9075 H 865.14 3.68591 -1.49619 0
M  V30 9076 H 861.879 5.06968 -4.15529 0
M  V30 9077 H 861.399 5.45796 -2.4873 0
M  V30 9078 H 863.078 5.72204 -3.0198 0
M  V30 9079 N 863.21 0.781244 1.36873 0
M  V30 9080 C 864.12 0.174981 2.33947 0
M  V30 9081 C 865.136 -0.668512 1.60645 0
M  V30 9082 O 866.312 -0.586213 1.9268 0
M  V30 9083 C 863.377 -0.686557 3.39834 0
M  V30 9084 C 862.438 0.174489 4.28945 0
M  V30 9085 C 861.671 -0.646024 5.29776 0
M  V30 9086 O 861.894 -1.88254 5.38439 0
M  V30 9087 O 860.828 -0.0502214 6.01879 0
M  V30 9088 H 864.654 0.977382 2.87543 0
M  V30 9089 H 862.239 0.542559 1.392 0
M  V30 9090 H 864.121 -1.1781 4.04597 0
M  V30 9091 H 862.796 -1.46699 2.8855 0
M  V30 9092 H 861.703 0.712604 3.6725 0
M  V30 9093 H 863.036 0.918232 4.83559 0
M  V30 9094 N 864.689 -1.48329 0.532571 0
M  V30 9095 C 865.599 -2.33445 -0.232546 0
M  V30 9096 C 866.615 -1.46651 -0.93645 0
M  V30 9097 O 867.791 -1.79627 -0.910834 0
M  V30 9098 C 864.856 -3.22824 -1.26434 0
M  V30 9099 C 863.917 -4.25492 -0.570511 0
M  V30 9100 C 863.15 -5.10601 -1.55315 0
M  V30 9101 O 863.373 -4.97733 -2.78599 0
M  V30 9102 O 862.307 -5.91927 -1.09112 0
M  V30 9103 H 866.133 -3.00119 0.464988 0
M  V30 9104 H 863.718 -1.46489 0.293462 0
M  V30 9105 H 865.6 -3.78103 -1.86055 0
M  V30 9106 H 864.275 -2.58807 -1.94424 0
M  V30 9107 H 863.182 -3.74041 0.0662587 0
M  V30 9108 H 864.515 -4.92154 0.0674904 0
M  V30 9109 N 866.167 -0.267825 -1.55308 0
M  V30 9110 C 867.444 0.402449 -1.91415 0
M  V30 9111 C 867.824 1.7428 -1.1912 0
M  V30 9112 O 867.172 2.2631 -0.315609 0
M  V30 9113 C 867.382 0.549926 -3.4464 0
M  V30 9114 C 868.73 0.836188 -4.16285 0
M  V30 9115 O 869.754 0.635009 -3.50494 0
M  V30 9116 O 868.613 1.22051 -5.32697 0
M  V30 9117 H 865.707 0.219177 -0.797427 0
M  V30 9118 H 868.253 -0.313439 -1.6678 0
M  V30 9119 H 867.025 -0.393641 -3.89315 0
M  V30 9120 H 866.648 1.31556 -3.75205 0
M  V30 9121 N 867.645 1.57599 0.00500368 0
M  V30 9122 C 868.873 1.94626 0.702016 0
M  V30 9123 C 869.288 0.86953 1.67585 0
M  V30 9124 O 868.645 -0.15199 1.81866 0
M  V30 9125 C 868.696 3.31658 1.43824 0
M  V30 9126 O 868.417 4.35197 0.503467 0
M  V30 9127 C 869.918 3.83114 2.23021 0
M  V30 9128 H 867.138 0.641785 0.195841 0
M  V30 9129 H 869.682 2.04451 -0.0446287 0
M  V30 9130 H 867.837 3.23156 2.13655 0
M  V30 9131 H 868.251 5.1444 1.02235 0
M  V30 9132 H 869.725 4.81438 2.7004 0
M  V30 9133 H 870.202 3.15559 3.05482 0
M  V30 9134 H 870.808 3.94775 1.58216 0
M  V30 9135 N 869.123 -0.277682 1.55134 0
M  V30 9136 C 870.369 -1.00733 1.76704 0
M  V30 9137 C 870.724 -1.84107 0.55879 0
M  V30 9138 O 870.017 -1.86275 -0.448591 0
M  V30 9139 C 870.211 -1.92599 3.01065 0
M  V30 9140 C 870.04 -1.18266 4.3387 0
M  V30 9141 C 868.81 -0.900254 4.97216 0
M  V30 9142 C 871.008 -0.575419 5.11071 0
M  V30 9143 N 868.99 -0.129637 6.13763 0
M  V30 9144 C 870.361 0.0612637 6.1997 0
M  V30 9145 C 872.416 -0.482794 4.95554 0
M  V30 9146 C 871.119 0.781637 7.15041 0
M  V30 9147 C 873.145 0.223977 5.90976 0
M  V30 9148 C 872.507 0.849416 6.9926 0
M  V30 9149 H 868.606 -0.35075 0.698927 0
M  V30 9150 H 871.19 -0.283482 1.92625 0
M  V30 9151 H 869.361 -2.62214 2.86528 0
M  V30 9152 H 871.093 -2.5889 3.1106 0
M  V30 9153 H 867.848 -1.20434 4.58031 0
M  V30 9154 H 868.272 0.242865 6.76564 0
M  V30 9155 H 872.914 -0.952023 4.11942 0
M  V30 9156 H 870.632 1.26256 7.98176 0
M  V30 9157 H 874.218 0.2959 5.81047 0
M  V30 9158 H 873.098 1.3876 7.71826 0
M  V30 9159 N 870.601 -1.47988 -0.541979 0
M  V30 9160 C 871.533 -1.5769 -1.66332 0
M  V30 9161 C 872.546 -0.461994 -1.56107 0
M  V30 9162 O 873.735 -0.732306 -1.62787 0
M  V30 9163 C 870.835 -1.47939 -3.04905 0
M  V30 9164 C 870.008 -2.74263 -3.40733 0
M  V30 9165 C 869.067 -2.58133 -4.58534 0
M  V30 9166 O 868.093 -3.31991 -4.62354 0
M  V30 9167 N 869.295 -1.6696 -5.55972 0
M  V30 9168 H 872.06 -2.54389 -1.5845 0
M  V30 9169 H 869.621 -1.4456 -0.728979 0
M  V30 9170 H 871.613 -1.34861 -3.81569 0
M  V30 9171 H 870.183 -0.592626 -3.06931 0
M  V30 9172 H 869.403 -3.01992 -2.53366 0
M  V30 9173 H 870.691 -3.58094 -3.6145 0
M  V30 9174 H 870.089 -1.06134 -5.55655 0
M  V30 9175 H 868.646 -1.59826 -6.31901 0
M  V30 9176 N 872.079 0.78992 -1.36375 0
M  V30 9177 C 873.026 1.90254 -1.3066 0
M  V30 9178 C 873.996 1.65171 -0.17539 0
M  V30 9179 O 875.181 1.87338 -0.361824 0
M  V30 9180 C 872.321 3.27057 -1.10125 0
M  V30 9181 C 871.434 3.64215 -2.32317 0
M  V30 9182 C 870.569 4.90134 -2.04798 0
M  V30 9183 C 869.608 5.19969 -3.22953 0
M  V30 9184 N 868.745 6.37071 -2.95102 0
M  V30 9185 H 873.585 1.94474 -2.25796 0
M  V30 9186 H 871.122 0.951022 -1.12223 0
M  V30 9187 H 873.08 4.05947 -0.962453 0
M  V30 9188 H 871.71 3.22261 -0.186444 0
M  V30 9189 H 870.762 2.80454 -2.57002 0
M  V30 9190 H 872.074 3.82212 -3.20492 0
M  V30 9191 H 871.228 5.76888 -1.87845 0
M  V30 9192 H 869.967 4.74205 -1.13932 0
M  V30 9193 H 868.972 4.31699 -3.40465 0
M  V30 9194 H 870.197 5.37817 -4.14644 0
M  V30 9195 H 868.143 6.22535 -2.06848 0
M  V30 9196 H 868.06 6.55398 -3.76815 0
M  V30 9197 H 869.328 7.26808 -2.81727 0
M  V30 9198 N 873.557 1.20646 1.01402 0
M  V30 9199 C 874.787 1.04238 1.78376 0
M  V30 9200 C 875.195 -0.411327 1.84675 0
M  V30 9201 O 874.538 -1.29734 1.30057 0
M  V30 9202 C 874.6 1.55349 3.24202 0
M  V30 9203 C 874.264 3.03684 3.41504 0
M  V30 9204 C 875.261 4.01318 3.30514 0
M  V30 9205 C 872.946 3.42698 3.67237 0
M  V30 9206 C 874.94 5.35956 3.45007 0
M  V30 9207 C 872.627 4.77491 3.81373 0
M  V30 9208 C 873.625 5.73929 3.70263 0
M  V30 9209 O 873.313 7.06277 3.83963 0
M  V30 9210 H 873.045 0.366978 0.567718 0
M  V30 9211 H 875.599 1.60235 1.28506 0
M  V30 9212 H 873.829 0.93739 3.75166 0
M  V30 9213 H 875.518 1.34921 3.8282 0
M  V30 9214 H 876.284 3.72522 3.10568 0
M  V30 9215 H 872.163 2.68175 3.74971 0
M  V30 9216 H 875.707 6.11212 3.36252 0
M  V30 9217 H 871.604 5.05977 4.00821 0
M  V30 9218 H 872.372 7.13561 4.00965 0
M  V30 9219 N 875.035 -1.20752 1.01276 0
M  V30 9220 C 876.265 -1.93725 0.717934 0
M  V30 9221 C 876.673 -1.74769 -0.724732 0
M  V30 9222 O 876.016 -1.05642 -1.50285 0
M  V30 9223 C 876.078 -3.46196 0.968954 0
M  V30 9224 C 875.742 -3.88909 2.39998 0
M  V30 9225 C 876.739 -3.94982 3.38061 0
M  V30 9226 C 874.424 -4.21006 2.7397 0
M  V30 9227 C 876.418 -4.32558 4.68159 0
M  V30 9228 C 874.105 -4.58257 4.04282 0
M  V30 9229 C 875.103 -4.64004 5.01187 0
M  V30 9230 O 874.791 -5.00403 6.29168 0
M  V30 9231 H 874.523 -0.622663 0.263186 0
M  V30 9232 H 877.077 -1.54299 1.35577 0
M  V30 9233 H 875.307 -3.85728 0.273952 0
M  V30 9234 H 876.996 -4.00394 0.666312 0
M  V30 9235 H 877.762 -3.70353 3.13151 0
M  V30 9236 H 873.641 -4.15725 1.99233 0
M  V30 9237 H 877.185 -4.36959 5.43795 0
M  V30 9238 H 873.082 -4.82341 4.28973 0
M  V30 9239 H 873.85 -5.18409 6.33399 0
M  V30 9240 N 876.513 -0.788492 -1.36457 0
M  V30 9241 C 877.443 -0.200468 -2.32638 0
M  V30 9242 C 878.424 0.664031 -1.56603 0
M  V30 9243 O 879.609 0.598045 -1.84762 0
M  V30 9244 C 876.739 0.666274 -3.40849 0
M  V30 9245 C 875.693 -0.0982574 -4.27887 0
M  V30 9246 C 875.019 0.889018 -5.27258 0
M  V30 9247 C 876.319 -1.28692 -5.06197 0
M  V30 9248 H 878.013 -1.00399 -2.82065 0
M  V30 9249 H 875.559 -0.484237 -1.35614 0
M  V30 9250 H 877.512 1.08757 -4.07124 0
M  V30 9251 H 876.236 1.50249 -2.89987 0
M  V30 9252 H 874.895 -0.500525 -3.63167 0
M  V30 9253 H 874.543 1.72024 -4.7267 0
M  V30 9254 H 874.243 0.381909 -5.86358 0
M  V30 9255 H 875.767 1.30891 -5.96406 0
M  V30 9256 H 877.181 -0.941429 -5.65517 0
M  V30 9257 H 875.578 -1.72726 -5.74705 0
M  V30 9258 H 876.648 -2.08273 -4.37893 0
M  V30 9259 N 877.991 1.48044 -0.54043 0
M  V30 9260 C 878.901 2.33565 0.220163 0
M  V30 9261 C 879.917 1.47146 0.928659 0
M  V30 9262 O 881.093 1.80107 0.901295 0
M  V30 9263 C 878.158 3.2349 1.2472 0
M  V30 9264 C 877.219 4.25789 0.547938 0
M  V30 9265 C 876.452 5.11417 1.52605 0
M  V30 9266 O 876.675 4.99204 2.75956 0
M  V30 9267 O 875.609 5.92498 1.05972 0
M  V30 9268 H 879.435 2.99868 -0.480898 0
M  V30 9269 H 877.02 1.46332 -0.301226 0
M  V30 9270 H 878.902 3.79084 1.84047 0
M  V30 9271 H 877.577 2.59835 1.93048 0
M  V30 9272 H 876.484 3.74001 -0.0860941 0
M  V30 9273 H 877.817 4.92111 -0.0935896 0
M  V30 9274 N 879.47 0.276058 1.55163 0
M  V30 9275 C 880.718 -0.339782 1.99223 0
M  V30 9276 C 881.039 -1.56307 1.16589 0
M  V30 9277 O 880.309 -1.94225 0.25564 0
M  V30 9278 H 878.889 -0.128534 0.735859 0
M  V30 9279 H 881.551 0.381612 1.91128 0
M  V30 9280 H 880.647 -0.629 3.05696 0
M  V30 9281 N 880.948 -1.576 0.00335426 0
M  V30 9282 C 882.194 -1.90996 -0.681799 0
M  V30 9283 C 882.527 -0.877643 -1.73237 0
M  V30 9284 O 881.802 0.103183 -1.94226 0
M  V30 9285 C 882.085 -3.34961 -1.32187 0
M  V30 9286 C 881.938 -4.48911 -0.28261 0
M  V30 9287 C 883.257 -3.78408 -2.24711 0
M  V30 9288 H 880.376 -0.694596 -0.246386 0
M  V30 9289 H 883.018 -1.89919 0.055336 0
M  V30 9290 H 881.168 -3.36008 -1.95014 0
M  V30 9291 H 882.84 -4.59999 0.346241 0
M  V30 9292 H 881.083 -4.32 0.394768 0
M  V30 9293 H 881.754 -5.46609 -0.769576 0
M  V30 9294 H 884.23 -3.78934 -1.71897 0
M  V30 9295 H 883.106 -4.79885 -2.66461 0
M  V30 9296 H 883.367 -3.12464 -3.1276 0
M  V30 9297 N 882.426 0.269451 -1.5528 0
M  V30 9298 C 883.651 1.02299 -1.80415 0
M  V30 9299 C 884.076 1.7902 -0.577363 0
M  V30 9300 O 883.434 1.75018 0.473125 0
M  V30 9301 C 883.482 1.95445 -3.0304 0
M  V30 9302 O 882.586 3.04271 -2.78375 0
M  V30 9303 H 881.927 0.292289 -0.596207 0
M  V30 9304 H 884.457 0.297282 -2.02429 0
M  V30 9305 H 884.467 2.37333 -3.31869 0
M  V30 9306 H 883.142 1.39017 -3.91978 0
M  V30 9307 H 881.719 2.66673 -2.60653 0
M  V30 9308 N 883.904 1.48273 0.534124 0
M  V30 9309 C 884.852 1.62926 1.66005 0
M  V30 9310 C 885.846 0.495814 1.61982 0
M  V30 9311 O 887.052 0.6744 1.66889 0
M  V30 9312 H 883.427 0.513163 0.549698 0
M  V30 9313 H 885.398 2.57498 1.50789 0
M  V30 9314 C 884.147 1.68231 3.04292 0
M  V30 9315 H 883.47 2.54807 3.0808 0
M  V30 9316 H 884.91 1.82528 3.827 0
M  V30 9317 C 883.369 0.420154 3.3427 0
M  V30 9318 O 883.899 -0.468769 3.98955 0
M  V30 9319 N 882.105 0.293115 2.89118 0
M  V30 9320 H 881.652 1.01745 2.36655 0
M  V30 9321 H 881.61 -0.550376 3.09545 0
M  V30 9322 N 885.382 -0.782676 1.36792 0
M  V30 9323 C 886.292 -1.92679 1.33835 0
M  V30 9324 C 887.308 -1.72344 0.23952 0
M  V30 9325 O 888.484 -1.95766 0.473045 0
M  V30 9326 C 885.549 -3.27644 1.1336 0
M  V30 9327 C 884.61 -3.6071 2.32781 0
M  V30 9328 C 883.843 -4.89234 2.13273 0
M  V30 9329 O 884.066 -5.59468 1.11136 0
M  V30 9330 O 883 -5.21112 3.01208 0
M  V30 9331 H 886.826 -1.98124 2.30175 0
M  V30 9332 H 884.411 -0.923887 1.17408 0
M  V30 9333 H 886.293 -4.08394 1.03886 0
M  V30 9334 H 884.968 -3.23076 0.200868 0
M  V30 9335 H 883.875 -2.80238 2.47825 0
M  V30 9336 H 885.208 -3.70008 3.24584 0
M  V30 9337 N 886.86 -1.21182 -1.00761 0
M  V30 9338 C 887.793 -0.912033 -2.09182 0
M  V30 9339 C 888.771 0.139421 -1.62001 0
M  V30 9340 O 889.955 0.0110272 -1.88497 0
M  V30 9341 C 887.082 -0.368957 -3.36684 0
M  V30 9342 C 886.128 -1.4028 -4.0277 0
M  V30 9343 S 886.961 -2.97108 -4.45519 0
M  V30 9344 C 888.117 -2.444 -5.76211 0
M  V30 9345 H 888.35 -1.83019 -2.34289 0
M  V30 9346 H 885.883 -1.04127 -1.14004 0
M  V30 9347 H 887.841 -0.0621883 -4.10453 0
M  V30 9348 H 886.502 0.527841 -3.09633 0
M  V30 9349 H 885.695 -0.97238 -4.94531 0
M  V30 9350 H 885.297 -1.65752 -3.35265 0
M  V30 9351 H 887.589 -1.84723 -6.51831 0
M  V30 9352 H 888.532 -3.34593 -6.24062 0
M  V30 9353 H 888.94 -1.86203 -5.32906 0
M  V30 9354 N 888.338 1.20213 -1.01915 0
M  V30 9355 C 889.568 1.93341 -0.728197 0
M  V30 9356 C 889.976 1.75151 0.715454 0
M  V30 9357 O 889.319 1.06437 1.49722 0
M  V30 9358 C 889.381 3.45677 -0.9873 0
M  V30 9359 C 889.045 3.8763 -2.42057 0
M  V30 9360 C 890.042 3.93184 -3.40151 0
M  V30 9361 C 887.727 4.19547 -2.76199 0
M  V30 9362 C 889.721 4.30069 -4.70446 0
M  V30 9363 C 887.408 4.56106 -4.06707 0
M  V30 9364 C 888.406 4.6134 -5.03641 0
M  V30 9365 O 888.094 4.97059 -6.31813 0
M  V30 9366 H 887.826 0.621258 -0.266485 0
M  V30 9367 H 890.38 1.53577 -1.36393 0
M  V30 9368 H 888.61 3.85578 -0.294405 0
M  V30 9369 H 890.299 4.00035 -0.687536 0
M  V30 9370 H 891.065 3.68687 -3.15111 0
M  V30 9371 H 886.944 4.14663 -2.01434 0
M  V30 9372 H 890.488 4.34069 -5.46105 0
M  V30 9373 H 886.385 4.80059 -4.31525 0
M  V30 9374 H 887.153 5.15043 -6.36139 0
M  V30 9375 N 889.816 0.795718 1.36037 0
M  V30 9376 C 891.044 0.383153 2.03321 0
M  V30 9377 C 891.459 -1.00246 1.59988 0
M  V30 9378 O 890.816 -1.64406 0.792265 0
M  V30 9379 C 890.867 0.444467 3.58757 0
M  V30 9380 O 890.588 1.77544 4.00512 0
M  V30 9381 C 892.089 0.0233291 4.43294 0
M  V30 9382 H 889.309 0.157061 0.652359 0
M  V30 9383 H 891.853 1.07632 1.73884 0
M  V30 9384 H 890.008 -0.200341 3.86882 0
M  V30 9385 H 890.422 1.73065 4.95125 0
M  V30 9386 H 891.896 0.117361 5.51875 0
M  V30 9387 H 892.373 -1.03007 4.2695 0
M  V30 9388 H 892.979 0.64087 4.20444 0
M  V30 9389 N 891.294 -1.47756 0.548274 0
M  V30 9390 C 892.204 -2.33678 -0.207773 0
M  V30 9391 C 893.22 -1.47636 -0.920843 0
M  V30 9392 O 894.396 -1.80583 -0.89173 0
M  V30 9393 C 891.461 -3.24147 -1.23003 0
M  V30 9394 C 890.522 -4.26073 -0.52535 0
M  V30 9395 C 889.755 -5.12219 -1.4989 0
M  V30 9396 O 889.978 -5.0066 -2.73305 0
M  V30 9397 O 888.912 -5.93051 -1.02828 0
M  V30 9398 H 892.738 -2.99609 0.496794 0
M  V30 9399 H 890.323 -1.4617 0.308982 0
M  V30 9400 H 892.205 -3.80055 -1.82034 0
M  V30 9401 H 890.88 -2.60855 -1.91668 0
M  V30 9402 H 889.787 -3.7395 0.105927 0
M  V30 9403 H 891.12 -4.92054 0.119686 0
M  V30 9404 N 892.772 -0.284283 -1.55015 0
M  V30 9405 C 894.002 0.332465 -2.03907 0
M  V30 9406 C 894.41 1.49331 -1.16177 0
M  V30 9407 O 893.753 1.82851 -0.176395 0
M  V30 9408 C 893.815 0.867193 -3.48884 0
M  V30 9409 C 893.479 -0.166198 -4.56698 0
M  V30 9410 C 894.476 -0.988898 -5.10408 0
M  V30 9411 C 892.161 -0.303081 -5.01385 0
M  V30 9412 C 894.155 -1.93458 -6.07333 0
M  V30 9413 C 891.842 -1.25223 -5.98133 0
M  V30 9414 C 892.84 -2.06647 -6.50988 0
M  V30 9415 O 892.528 -2.99955 -7.45843 0
M  V30 9416 H 892.26 0.0786597 -0.671408 0
M  V30 9417 H 894.814 -0.416871 -2.01125 0
M  V30 9418 H 893.044 1.66676 -3.48935 0
M  V30 9419 H 894.733 1.39802 -3.81065 0
M  V30 9420 H 895.499 -0.89393 -4.76691 0
M  V30 9421 H 891.378 0.320711 -4.59883 0
M  V30 9422 H 894.922 -2.57053 -6.48513 0
M  V30 9423 H 890.819 -1.34798 -6.31268 0
M  V30 9424 H 891.587 -2.94742 -7.6359 0
M  V30 9425 N 894.251 1.57596 -0.0117121 0
M  V30 9426 C 895.181 2.12188 0.9746 0
M  V30 9427 C 896.162 1.03379 1.35081 0
M  V30 9428 O 897.347 1.31123 1.4325 0
M  V30 9429 C 894.477 2.63477 2.26268 0
M  V30 9430 C 893.431 3.76917 2.02774 0
M  V30 9431 C 892.757 4.14566 3.37697 0
M  V30 9432 C 894.057 5.03715 1.38089 0
M  V30 9433 H 895.751 2.9485 0.520007 0
M  V30 9434 H 893.297 1.41836 0.248685 0
M  V30 9435 H 895.25 3.00299 2.95633 0
M  V30 9436 H 893.974 1.77953 2.73862 0
M  V30 9437 H 892.633 3.40507 1.35832 0
M  V30 9438 H 892.281 3.26048 3.83016 0
M  V30 9439 H 891.981 4.91 3.22789 0
M  V30 9440 H 893.505 4.53956 4.08358 0
M  V30 9441 H 894.919 5.38233 1.97428 0
M  V30 9442 H 893.316 5.85032 1.33634 0
M  V30 9443 H 894.386 4.83624 0.351575 0
M  V30 9444 N 895.729 -0.261212 1.5542 0
M  V30 9445 C 896.954 -1.01341 1.80955 0
M  V30 9446 C 897.379 -1.78711 0.586849 0
M  V30 9447 O 896.737 -1.75266 -0.463837 0
M  V30 9448 C 896.785 -1.93835 3.04073 0
M  V30 9449 O 895.889 -3.02791 2.79985 0
M  V30 9450 H 895.23 -0.289123 0.597749 0
M  V30 9451 H 897.76 -0.286543 2.02584 0
M  V30 9452 H 897.77 -2.3557 3.33123 0
M  V30 9453 H 896.445 -1.36936 3.9271 0
M  V30 9454 H 895.022 -2.65287 2.62063 0
M  V30 9455 N 897.207 -1.48554 -0.526253 0
M  V30 9456 C 898.432 -1.60686 -1.31129 0
M  V30 9457 C 898.857 -0.268701 -1.86171 0
M  V30 9458 O 898.215 0.760167 -1.64594 0
M  V30 9459 C 898.263 -2.65938 -2.43536 0
M  V30 9460 O 897.367 -2.23356 -3.46678 0
M  V30 9461 H 896.708 -0.538691 -0.388211 0
M  V30 9462 H 899.238 -1.94567 -0.632826 0
M  V30 9463 H 899.248 -2.87327 -2.89668 0
M  V30 9464 H 897.923 -3.63085 -2.02835 0
M  V30 9465 H 896.5 -2.12196 -3.06639 0
M  V30 9466 N 898.685 0.775411 -1.37205 0
M  V30 9467 C 899.648 1.8702 -1.325 0
M  V30 9468 C 900.648 1.5915 -0.229793 0
M  V30 9469 O 901.838 1.673 -0.485423 0
M  V30 9470 C 898.97 3.24085 -1.05745 0
M  V30 9471 H 900.163 1.92604 -2.29878 0
M  V30 9472 H 897.716 0.97476 -1.22181 0
M  V30 9473 H 898.451 3.24178 -0.0888371 0
M  V30 9474 H 898.236 3.45705 -1.85016 0
M  V30 9475 H 899.726 4.0416 -1.05094 0
M  V30 9476 N 900.163 1.21714 1.00117 0
M  V30 9477 C 901.41 1.0367 1.73951 0
M  V30 9478 C 901.738 -0.429289 1.89703 0
M  V30 9479 O 900.993 -1.33475 1.43119 0
M  V30 9480 C 901.292 1.68345 3.15269 0
M  V30 9481 C 900.958 3.18214 3.19454 0
M  V30 9482 C 899.62 3.59109 3.20303 0
M  V30 9483 C 901.972 4.14179 3.16394 0
M  V30 9484 C 899.3 4.94467 3.15783 0
M  V30 9485 C 901.652 5.49502 3.13416 0
M  V30 9486 C 900.316 5.8979 3.12577 0
M  V30 9487 H 899.586 0.379355 0.63653 0
M  V30 9488 H 902.233 1.51361 1.17312 0
M  V30 9489 H 900.538 1.12957 3.75164 0
M  V30 9490 H 902.235 1.51882 3.71124 0
M  V30 9491 H 898.825 2.85646 3.19538 0
M  V30 9492 H 903.009 3.83607 3.14895 0
M  V30 9493 H 898.265 5.24923 3.13473 0
M  V30 9494 H 902.439 6.23595 3.10003 0
M  V30 9495 H 900.066 6.94643 3.08829 0
M  V30 9496 N 901.641 -1.19671 1.02551 0
M  V30 9497 C 902.887 -1.89548 0.721069 0
M  V30 9498 C 903.22 -1.79209 -0.748176 0
M  V30 9499 O 902.495 -1.1822 -1.54448 0
M  V30 9500 C 902.778 -3.4061 1.16861 0
M  V30 9501 C 902.631 -3.59838 2.69883 0
M  V30 9502 C 903.95 -4.33718 0.746782 0
M  V30 9503 H 901.069 -0.688315 0.263422 0
M  V30 9504 H 903.711 -1.40883 1.27483 0
M  V30 9505 H 901.861 -3.82188 0.697477 0
M  V30 9506 H 903.533 -3.27454 3.24917 0
M  V30 9507 H 901.776 -3.03005 3.10435 0
M  V30 9508 H 902.447 -4.65766 2.96253 0
M  V30 9509 H 904.923 -3.99837 1.15195 0
M  V30 9510 H 903.799 -5.38012 1.08786 0
M  V30 9511 H 904.06 -4.40704 -0.351057 0
M  V30 9512 N 903.119 -0.802921 -1.35613 0
M  V30 9513 C 904.367 -0.380822 -1.9848 0
M  V30 9514 C 904.688 1.05464 -1.6402 0
M  V30 9515 O 903.958 1.72908 -0.920854 0
M  V30 9516 H 902.538 -0.137824 -0.734176 0
M  V30 9517 H 905.2 -1.02795 -1.65587 0
M  V30 9518 H 904.296 -0.483565 -3.08331 0
M  V30 9519 N 904.597 1.47463 -0.556102 0
M  V30 9520 C 905.527 2.32801 0.180497 0
M  V30 9521 C 906.508 1.43721 0.909848 0
M  V30 9522 O 907.693 1.72578 0.89053 0
M  V30 9523 C 904.823 3.25478 1.21167 0
M  V30 9524 C 903.777 4.2379 0.598846 0
M  V30 9525 C 903.103 5.05783 1.73457 0
M  V30 9526 C 904.403 5.20387 -0.446659 0
M  V30 9527 H 906.097 2.94636 -0.531956 0
M  V30 9528 H 903.643 1.41683 -0.257267 0
M  V30 9529 H 905.596 3.8402 1.73513 0
M  V30 9530 H 904.32 2.61695 1.95405 0
M  V30 9531 H 902.979 3.66472 0.0966897 0
M  V30 9532 H 902.627 4.38405 2.46596 0
M  V30 9533 H 902.327 5.72343 1.33031 0
M  V30 9534 H 903.851 5.67183 2.26131 0
M  V30 9535 H 905.265 5.73299 -0.00930019 0
M  V30 9536 H 903.662 5.95143 -0.769735 0
M  V30 9537 H 904.732 4.65932 -1.34295 0
M  V30 9538 N 906.075 0.2925 1.54862 0
M  V30 9539 C 907.3 -0.32494 2.04839 0
M  V30 9540 C 907.725 -1.47381 1.16877 0
M  V30 9541 O 907.083 -1.80492 0.171028 0
M  V30 9542 C 907.131 -0.76694 3.5235 0
M  V30 9543 O 906.235 -1.87256 3.67436 0
M  V30 9544 H 905.576 -0.0645195 0.660858 0
M  V30 9545 H 908.106 0.431867 1.9999 0
M  V30 9546 H 908.116 -1.05804 3.94043 0
M  V30 9547 H 906.791 0.0735212 4.15835 0
M  V30 9548 H 905.368 -1.58266 3.37648 0
M  V30 9549 N 907.553 -1.57587 0.0200696 0
M  V30 9550 C 908.8 -1.91424 -0.660525 0
M  V30 9551 C 909.128 -0.895626 -1.72652 0
M  V30 9552 O 908.383 0.096771 -1.95461 0
M  V30 9553 C 908.682 -3.32002 -1.32323 0
M  V30 9554 C 908.348 -4.49223 -0.388487 0
M  V30 9555 C 907.01 -4.81021 -0.131184 0
M  V30 9556 C 909.362 -5.20581 0.253906 0
M  V30 9557 C 906.69 -5.81539 0.776471 0
M  V30 9558 C 909.042 -6.22067 1.14956 0
M  V30 9559 C 907.706 -6.52311 1.41584 0
M  V30 9560 H 906.976 -0.700472 -0.241703 0
M  V30 9561 H 909.623 -1.91333 0.0798991 0
M  V30 9562 H 907.928 -3.28312 -2.13819 0
M  V30 9563 H 909.625 -3.5545 -1.85623 0
M  V30 9564 H 906.215 -4.24391 -0.599207 0
M  V30 9565 H 910.399 -4.96253 0.068164 0
M  V30 9566 H 905.655 -6.03322 0.990575 0
M  V30 9567 H 909.829 -6.76484 1.65357 0
M  V30 9568 H 907.456 -7.30017 2.12083 0
M  V30 9569 N 909.032 0.252966 -1.55557 0
M  V30 9570 C 910.443 0.822503 -1.67606 0
M  V30 9571 C 910.794 1.86265 -0.616411 0
M  V30 9572 O 909.919 2.15082 0.238447 0
M  V30 9573 C 910.514 1.49866 -3.03852 0
M  V30 9574 C 909.073 2.01597 -3.17861 0
M  V30 9575 C 908.22 0.864943 -2.63465 0
M  V30 9576 H 911.171 0.0288958 -1.58674 0
M  V30 9577 H 911.192 2.36646 -2.97958 0
M  V30 9578 H 910.704 0.741378 -3.80953 0
M  V30 9579 H 908.805 2.80224 -2.45571 0
M  V30 9580 H 908.918 2.21752 -4.24692 0
M  V30 9581 H 907.282 1.2638 -2.21134 0
M  V30 9582 H 908.065 0.120847 -3.43087 0
M  V30 9583 N 910.51 1.48831 0.518367 0
M  V30 9584 C 911.738 1.6112 1.298 0
M  V30 9585 C 912.153 0.275872 1.86774 0
M  V30 9586 O 911.51 -0.736416 1.66983 0
M  V30 9587 C 911.561 2.66675 2.44063 0
M  V30 9588 O 911.282 3.95027 1.89434 0
M  V30 9589 C 912.783 2.8951 3.35706 0
M  V30 9590 H 910.003 0.542916 0.394314 0
M  V30 9591 H 912.547 1.94743 0.624142 0
M  V30 9592 H 910.702 2.35879 3.07311 0
M  V30 9593 H 911.116 4.53031 2.64316 0
M  V30 9594 H 912.59 3.67142 4.12202 0
M  V30 9595 H 913.067 1.98768 3.91648 0
M  V30 9596 H 913.673 3.21656 2.7824 0
M  V30 9597 N 911.988 -0.768124 1.37614 0
M  V30 9598 C 913.234 -1.52907 1.33219 0
M  V30 9599 C 913.567 -1.94026 -0.0821218 0
M  V30 9600 O 912.842 -1.64345 -1.04023 0
M  V30 9601 C 913.125 -2.79164 2.27463 0
M  V30 9602 C 912.978 -2.44276 3.7769 0
M  V30 9603 C 914.297 -3.81115 2.20089 0
M  V30 9604 H 911.416 -0.554712 0.485246 0
M  V30 9605 H 914.058 -0.880911 1.68345 0
M  V30 9606 H 912.208 -3.34472 1.97639 0
M  V30 9607 H 913.88 -1.94855 4.18126 0
M  V30 9608 H 912.123 -1.76925 3.96081 0
M  V30 9609 H 912.794 -3.34544 4.39072 0
M  V30 9610 H 915.27 -3.35311 2.46386 0
M  V30 9611 H 914.146 -4.67174 2.88166 0
M  V30 9612 H 914.407 -4.25644 1.19498 0
M  V30 9613 N 913.466 -1.22244 -0.994698 0
M  V30 9614 C 914.706 -1.05747 -1.7492 0
M  V30 9615 C 915.07 0.4007 -1.87772 0
M  V30 9616 O 916.271 0.686469 -2.59887 0
M  V30 9617 C 914.542 -1.7471 -3.11787 0
M  V30 9618 S 916.101 -1.73604 -4.02998 0
M  V30 9619 H 912.919 -0.378731 -0.601734 0
M  V30 9620 H 915.521 -1.55155 -1.18942 0
M  V30 9621 H 914.225 -2.79972 -3.00073 0
M  V30 9622 H 913.756 -1.25525 -3.72836 0
M  V30 9623 H 915.771 -0.784445 -4.8996 0
M  V30 9624 N 914.944 1.19125 -1.03184 0
M  V30 9625 C 915.854 2.26112 -0.625329 0
M  V30 9626 C 916.87 1.7056 0.344298 0
M  V30 9627 O 918.046 2.0039 0.20144 0
M  V30 9628 C 915.111 3.46697 0.0145169 0
M  V30 9629 C 914.172 4.17419 -1.00299 0
M  V30 9630 C 913.405 5.32247 -0.393581 0
M  V30 9631 O 913.628 5.64724 0.802659 0
M  V30 9632 O 912.562 5.91428 -1.1179 0
M  V30 9633 H 916.388 2.63131 -1.51643 0
M  V30 9634 H 913.973 1.26036 -0.802197 0
M  V30 9635 H 915.855 4.19762 0.371139 0
M  V30 9636 H 914.53 3.11521 0.879581 0
M  V30 9637 H 913.437 3.4646 -1.41125 0
M  V30 9638 H 914.77 4.56573 -1.83852 0
M  V30 9639 N 916.422 0.810101 1.35185 0
M  V30 9640 C 917.352 0.237453 2.32289 0
M  V30 9641 C 918.333 -0.639032 1.5764 0
M  V30 9642 O 919.518 -0.568575 1.8569 0
M  V30 9643 C 916.648 -0.611964 3.41866 0
M  V30 9644 C 915.602 0.166318 4.27677 0
M  V30 9645 C 914.928 -0.805024 5.28605 0
M  V30 9646 C 916.228 1.36729 5.04086 0
M  V30 9647 H 917.922 1.04874 2.80432 0
M  V30 9648 H 915.468 0.505751 1.34826 0
M  V30 9649 H 917.421 -1.02267 4.08802 0
M  V30 9650 H 916.145 -1.45617 2.92341 0
M  V30 9651 H 914.804 0.558238 3.62325 0
M  V30 9652 H 914.452 -1.64483 4.75347 0
M  V30 9653 H 914.152 -0.288577 5.86891 0
M  V30 9654 H 915.676 -1.21386 5.98413 0
M  V30 9655 H 917.09 1.03128 5.63948 0
M  V30 9656 H 915.487 1.81848 5.71884 0
M  V30 9657 H 916.557 2.15214 4.34524 0
M  V30 9658 N 917.9 -1.47166 0.563914 0
M  V30 9659 C 919.14 -2.04351 0.0448121 0
M  V30 9660 C 919.504 -1.42808 -1.28336 0
M  V30 9661 O 920.705 -1.91079 -1.89056 0
M  V30 9662 C 918.976 -3.57378 -0.0395795 0
M  V30 9663 S 920.535 -4.35898 -0.503833 0
M  V30 9664 H 917.353 -0.710433 0.0283795 0
M  V30 9665 H 919.955 -1.80451 0.752166 0
M  V30 9666 H 918.659 -3.99693 0.931326 0
M  V30 9667 H 918.19 -3.85785 -0.770282 0
M  V30 9668 H 920.205 -4.63852 -1.76225 0
M  V30 9669 N 919.378 -0.300708 -1.54705 0
M  V30 9670 C 920.625 0.308654 -2.00134 0
M  V30 9671 C 920.953 1.53918 -1.1891 0
M  V30 9672 O 920.208 1.94054 -0.253263 0
M  V30 9673 C 920.507 0.710108 -3.50275 0
M  V30 9674 C 920.173 -0.418651 -4.48952 0
M  V30 9675 C 918.835 -0.728524 -4.75653 0
M  V30 9676 C 921.187 -1.17797 -5.07714 0
M  V30 9677 C 918.515 -1.80085 -5.58378 0
M  V30 9678 C 920.867 -2.24022 -5.91606 0
M  V30 9679 C 919.531 -2.55616 -6.16617 0
M  V30 9680 H 918.801 0.112945 -0.732342 0
M  V30 9681 H 921.448 -0.419744 -1.86843 0
M  V30 9682 H 919.753 1.51859 -3.61173 0
M  V30 9683 H 921.45 1.19277 -3.8285 0
M  V30 9684 H 918.04 -0.167034 -4.28274 0
M  V30 9685 H 922.224 -0.951835 -4.87087 0
M  V30 9686 H 917.48 -2.05036 -5.75995 0
M  V30 9687 H 921.654 -2.83317 -6.36164 0
M  V30 9688 H 919.281 -3.38839 -6.80509 0
M  V30 9689 N 920.856 1.57574 -0.0284266 0
M  V30 9690 C 922.102 1.92056 0.651327 0
M  V30 9691 C 922.435 0.905092 1.71819 0
M  V30 9692 O 921.71 -0.0722703 1.94366 0
M  V30 9693 C 921.993 3.37021 1.26841 0
M  V30 9694 C 921.846 4.49304 0.211157 0
M  V30 9695 C 923.165 3.81936 2.18662 0
M  V30 9696 H 920.284 0.698428 0.235304 0
M  V30 9697 H 922.926 1.89807 -0.0855435 0
M  V30 9698 H 921.076 3.39068 1.89644 0
M  V30 9699 H 922.748 4.5939 -0.419379 0
M  V30 9700 H 920.991 4.31317 -0.463445 0
M  V30 9701 H 921.662 5.47764 0.682518 0
M  V30 9702 H 924.138 3.8162 1.65847 0
M  V30 9703 H 923.014 4.84064 2.58792 0
M  V30 9704 H 923.275 3.174 3.07749 0
M  V30 9705 N 922.334 -0.244713 1.55689 0
M  V30 9706 C 923.281 -1.30301 1.905 0
M  V30 9707 C 924.251 -1.4772 0.759478 0
M  V30 9708 O 925.436 -1.61667 1.01333 0
M  V30 9709 C 922.576 -2.653 2.20703 0
M  V30 9710 C 921.689 -2.55872 3.48071 0
M  V30 9711 C 920.824 -3.83238 3.67834 0
M  V30 9712 C 919.863 -3.68436 4.88796 0
M  V30 9713 N 919 -4.877 5.05068 0
M  V30 9714 H 923.84 -0.999143 2.80751 0
M  V30 9715 H 921.377 -0.482099 1.38976 0
M  V30 9716 H 923.335 -3.43884 2.36219 0
M  V30 9717 H 921.965 -2.93831 1.33653 0
M  V30 9718 H 921.017 -1.68846 3.40874 0
M  V30 9719 H 922.329 -2.40845 4.36801 0
M  V30 9720 H 921.483 -4.70266 3.83321 0
M  V30 9721 H 920.222 -4.01165 2.77341 0
M  V30 9722 H 919.227 -2.79793 4.73282 0
M  V30 9723 H 920.452 -3.52003 5.8075 0
M  V30 9724 H 918.398 -5.05983 4.17513 0
M  V30 9725 H 918.315 -4.75312 5.8789 0
M  V30 9726 H 919.583 -5.76219 5.24969 0
M  V30 9727 N 923.813 -1.49104 -0.510467 0
M  V30 9728 C 924.743 -1.67981 -1.62187 0
M  V30 9729 C 925.724 -0.528529 -1.6168 0
M  V30 9730 O 926.909 -0.763305 -1.7857 0
M  V30 9731 C 924.039 -1.73755 -3.0071 0
M  V30 9732 C 922.993 -2.88579 -3.1608 0
M  V30 9733 C 922.319 -2.79457 -4.5586 0
M  V30 9734 C 923.619 -4.29638 -2.97 0
M  V30 9735 H 925.313 -2.61029 -1.46643 0
M  V30 9736 H 922.859 -1.25615 -0.704042 0
M  V30 9737 H 924.812 -1.85548 -3.78352 0
M  V30 9738 H 923.536 -0.772996 -3.17321 0
M  V30 9739 H 922.195 -2.76372 -2.40861 0
M  V30 9740 H 921.843 -1.80929 -4.69333 0
M  V30 9741 H 921.543 -3.56518 -4.67086 0
M  V30 9742 H 923.067 -2.93245 -5.35574 0
M  V30 9743 H 924.481 -4.42575 -3.64418 0
M  V30 9744 H 922.878 -5.07847 -3.19704 0
M  V30 9745 H 923.948 -4.44741 -1.93219 0
M  V30 9746 N 925.291 0.760815 -1.38019 0
M  V30 9747 C 926.238 1.8744 -1.34666 0
M  V30 9748 C 927.208 1.64762 -0.210386 0
M  V30 9749 O 928.393 1.86528 -0.401479 0
M  V30 9750 C 925.533 3.24648 -1.17037 0
M  V30 9751 C 924.646 3.59206 -2.3999 0
M  V30 9752 C 923.781 4.8568 -2.15148 0
M  V30 9753 C 922.82 5.13002 -3.3391 0
M  V30 9754 N 921.957 6.30668 -3.08549 0
M  V30 9755 H 926.797 1.8964 -2.29871 0
M  V30 9756 H 924.334 0.927004 -1.14215 0
M  V30 9757 H 926.292 4.03814 -1.04834 0
M  V30 9758 H 924.922 3.21793 -0.254758 0
M  V30 9759 H 923.974 2.74939 -2.62893 0
M  V30 9760 H 925.286 3.75328 -3.28527 0
M  V30 9761 H 924.44 5.72773 -2.00039 0
M  V30 9762 H 923.179 4.71682 -1.23965 0
M  V30 9763 H 922.184 4.2438 -3.49545 0
M  V30 9764 H 923.409 5.28901 -4.25958 0
M  V30 9765 H 921.355 6.18008 -2.20006 0
M  V30 9766 H 921.272 6.47257 -3.90633 0
M  V30 9767 H 922.54 7.20669 -2.9708 0
M  V30 9768 N 926.769 1.22769 0.988202 0
M  V30 9769 C 927.699 1.02627 2.09738 0
M  V30 9770 C 928.68 -0.0543211 1.70013 0
M  V30 9771 O 929.865 0.108811 1.93895 0
M  V30 9772 C 926.995 0.608302 3.41931 0
M  V30 9773 C 925.949 1.63536 3.95525 0
M  V30 9774 C 925.275 1.07308 5.23822 0
M  V30 9775 C 926.575 3.02649 4.25677 0
M  V30 9776 H 928.269 1.954 2.26847 0
M  V30 9777 H 925.815 0.940888 1.09011 0
M  V30 9778 H 927.768 0.454478 4.18942 0
M  V30 9779 H 926.492 -0.355095 3.24664 0
M  V30 9780 H 925.151 1.77704 3.20651 0
M  V30 9781 H 924.799 0.100894 5.02899 0
M  V30 9782 H 924.499 1.75925 5.60646 0
M  V30 9783 H 926.023 0.930938 6.03462 0
M  V30 9784 H 927.437 2.91828 4.93467 0
M  V30 9785 H 925.834 3.68434 4.73684 0
M  V30 9786 H 926.904 3.52228 3.33262 0
M  V30 9787 N 928.247 -1.18576 1.03814 0
M  V30 9788 C 929.177 -2.24334 0.647795 0
M  V30 9789 C 930.158 -1.66508 -0.34774 0
M  V30 9790 O 931.343 -1.92852 -0.228401 0
M  V30 9791 C 928.473 -3.47299 0.00734922 0
M  V30 9792 C 927.427 -4.17859 0.926152 0
M  V30 9793 C 926.753 -5.34489 0.150317 0
M  V30 9794 C 928.053 -4.71632 2.24411 0
M  V30 9795 H 929.747 -2.57241 1.53191 0
M  V30 9796 H 927.293 -1.23649 0.738028 0
M  V30 9797 H 929.246 -4.20486 -0.277434 0
M  V30 9798 H 927.97 -3.13619 -0.911626 0
M  V30 9799 H 926.629 -3.46567 1.19528 0
M  V30 9800 H 926.277 -4.97056 -0.770985 0
M  V30 9801 H 925.977 -5.82633 0.762407 0
M  V30 9802 H 927.501 -6.10467 -0.127508 0
M  V30 9803 H 928.915 -5.36526 2.02021 0
M  V30 9804 H 927.312 -5.303 2.80894 0
M  V30 9805 H 928.382 -3.89192 2.89236 0
M  V30 9806 N 929.725 -0.817259 -1.34754 0
M  V30 9807 C 930.658 -0.180483 -2.27485 0
M  V30 9808 C 931.636 0.659792 -1.48612 0
M  V30 9809 O 932.82 0.624761 -1.77845 0
M  V30 9810 C 929.947 0.748487 -3.30326 0
M  V30 9811 C 928.993 -0.0135304 -4.26498 0
M  V30 9812 S 929.826 -1.35685 -5.18025 0
M  V30 9813 C 930.982 -0.432605 -6.24403 0
M  V30 9814 H 931.215 -0.966677 -2.81145 0
M  V30 9815 H 928.748 -0.612864 -1.41716 0
M  V30 9816 H 930.706 1.27893 -3.90069 0
M  V30 9817 H 929.367 1.50816 -2.75524 0
M  V30 9818 H 928.56 0.692454 -4.9922 0
M  V30 9819 H 928.162 -0.474344 -3.7098 0
M  V30 9820 H 930.454 0.378035 -6.76444 0
M  V30 9821 H 931.397 -1.12934 -6.99036 0
M  V30 9822 H 931.805 -0.0235533 -5.64495 0
M  V30 9823 N 931.203 1.46865 -0.571711 0
M  V30 9824 C 932.452 2.01636 -0.050881 0
M  V30 9825 C 932.765 1.45001 1.31279 0
M  V30 9826 O 933.971 1.91523 1.92435 0
M  V30 9827 C 932.427 3.59877 -0.0404114 0
M  V30 9828 C 932.035 4.25506 -1.40172 0
M  V30 9829 C 933.779 4.22346 0.42705 0
M  V30 9830 C 931.686 5.75795 -1.34958 0
M  V30 9831 H 930.616 0.753846 -0.0152514 0
M  V30 9832 H 933.267 1.68711 -0.721723 0
M  V30 9833 H 931.649 3.89829 0.696374 0
M  V30 9834 H 932.823 4.07178 -2.15737 0
M  V30 9835 H 931.138 3.75086 -1.8083 0
M  V30 9836 H 933.735 5.32499 0.484688 0
M  V30 9837 H 934.078 3.9052 1.44222 0
M  V30 9838 H 934.611 3.9698 -0.255326 0
M  V30 9839 H 931.35 6.12265 -2.3412 0
M  V30 9840 H 930.87 5.96419 -0.635962 0
M  V30 9841 H 932.549 6.38294 -1.05779 0
M  V30 9842 N 932.681 0.308908 1.54543 0
M  V30 9843 C 933.644 -0.550857 2.22482 0
M  V30 9844 C 934.644 -1.0551 1.21344 0
M  V30 9845 O 935.834 -0.949866 1.46025 0
M  V30 9846 C 932.966 -1.76354 2.9174 0
M  V30 9847 H 934.159 0.0428395 2.99869 0
M  V30 9848 H 931.712 0.059825 1.56185 0
M  V30 9849 H 932.447 -2.39686 2.18451 0
M  V30 9850 H 932.232 -1.40954 3.65889 0
M  V30 9851 H 933.722 -2.37417 3.43545 0
M  V30 9852 N 934.159 -1.57557 0.0367827 0
M  V30 9853 C 935.408 -1.91291 -0.639569 0
M  V30 9854 C 935.721 -0.915601 -1.72847 0
M  V30 9855 O 936.927 -1.14447 -2.46199 0
M  V30 9856 C 935.383 -3.39697 -1.18888 0
M  V30 9857 C 934.991 -4.47803 -0.132851 0
M  V30 9858 C 936.735 -3.82487 -1.8413 0
M  V30 9859 C 934.642 -5.87311 -0.694229 0
M  V30 9860 H 933.572 -0.713886 -0.242658 0
M  V30 9861 H 936.223 -1.83209 0.103332 0
M  V30 9862 H 934.605 -3.42736 -1.98363 0
M  V30 9863 H 935.779 -4.56334 0.640009 0
M  V30 9864 H 934.094 -4.14264 0.421264 0
M  V30 9865 H 936.691 -4.84076 -2.27101 0
M  V30 9866 H 937.034 -3.17959 -2.68716 0
M  V30 9867 H 937.567 -3.81903 -1.11332 0
M  V30 9868 H 934.306 -6.55401 0.113667 0
M  V30 9869 H 933.826 -5.82371 -1.4354 0
M  V30 9870 H 935.505 -6.36119 -1.1816 0
M  V30 9871 N 935.637 0.236453 -1.55816 0
M  V30 9872 C 936.547 1.31418 -1.94336 0
M  V30 9873 C 937.563 1.52095 -0.845164 0
M  V30 9874 O 938.739 1.65515 -1.14746 0
M  V30 9875 C 935.804 2.6468 -2.23932 0
M  V30 9876 C 934.865 2.52435 -3.47239 0
M  V30 9877 C 934.098 3.79342 -3.75414 0
M  V30 9878 O 934.321 4.81694 -3.05495 0
M  V30 9879 O 933.255 3.77347 -4.68927 0
M  V30 9880 H 937.081 1.01739 -2.86152 0
M  V30 9881 H 934.666 0.438084 -1.42833 0
M  V30 9882 H 936.548 3.4341 -2.44228 0
M  V30 9883 H 935.223 2.94071 -1.35292 0
M  V30 9884 H 934.13 1.71955 -3.32238 0
M  V30 9885 H 935.463 2.27987 -4.36214 0
M  V30 9886 N 937.115 1.49373 0.502552 0
M  V30 9887 C 938.345 1.62252 1.27898 0
M  V30 9888 C 938.753 0.292555 1.86924 0
M  V30 9889 O 938.096 -0.731823 1.68493 0
M  V30 9890 C 938.158 2.63153 2.4493 0
M  V30 9891 C 937.822 4.07541 2.06784 0
M  V30 9892 C 938.819 4.94392 1.60849 0
M  V30 9893 C 936.504 4.53263 2.16466 0
M  V30 9894 C 938.498 6.25003 1.25098 0
M  V30 9895 C 936.185 5.83888 1.80327 0
M  V30 9896 C 937.183 6.69582 1.34718 0
M  V30 9897 O 936.871 7.97773 0.990661 0
M  V30 9898 H 936.603 0.54918 0.394179 0
M  V30 9899 H 939.157 1.96132 0.610031 0
M  V30 9900 H 937.387 2.2445 3.14895 0
M  V30 9901 H 939.076 2.65578 3.06957 0
M  V30 9902 H 939.842 4.60296 1.52816 0
M  V30 9903 H 935.721 3.86731 2.50919 0
M  V30 9904 H 939.265 6.91844 0.894269 0
M  V30 9905 H 935.162 6.17513 1.8801 0
M  V30 9906 H 935.93 8.1077 1.12227 0
M  V30 9907 N 938.594 -0.753485 1.38421 0
M  V30 9908 C 939.541 -1.86723 1.35659 0
M  V30 9909 C 940.511 -1.64648 0.219121 0
M  V30 9910 O 941.696 -1.86313 0.411366 0
M  V30 9911 C 938.836 -3.24023 1.18758 0
M  V30 9912 C 937.949 -3.57928 2.41892 0
M  V30 9913 C 937.084 -4.84532 2.17721 0
M  V30 9914 C 936.123 -5.11224 3.36626 0
M  V30 9915 N 935.26 -6.29023 3.11889 0
M  V30 9916 H 940.1 -1.88419 2.30873 0
M  V30 9917 H 937.637 -0.920934 1.14705 0
M  V30 9918 H 939.595 -4.03252 1.06974 0
M  V30 9919 H 938.225 -3.21654 0.27182 0
M  V30 9920 H 937.277 -2.73541 2.64347 0
M  V30 9921 H 938.589 -3.73581 3.30513 0
M  V30 9922 H 937.743 -5.71704 2.03074 0
M  V30 9923 H 936.482 -4.71018 1.26465 0
M  V30 9924 H 935.487 -4.2252 3.51791 0
M  V30 9925 H 936.712 -5.26635 4.28757 0
M  V30 9926 H 934.658 -6.16832 2.2328 0
M  V30 9927 H 934.575 -6.45177 3.9406 0
M  V30 9928 H 935.843 -7.19083 3.00898 0
M  V30 9929 N 940.072 -1.23292 -0.981677 0
M  V30 9930 C 941.297 -1.09176 -1.76339 0
M  V30 9931 C 941.722 0.352726 -1.84763 0
M  V30 9932 O 941.08 1.25509 -1.30832 0
M  V30 9933 C 941.128 -1.72046 -3.16911 0
M  V30 9934 O 940.232 -0.98174 -4.00544 0
M  V30 9935 H 939.573 -0.382755 -0.542581 0
M  V30 9936 H 942.103 -1.63319 -1.23239 0
M  V30 9937 H 942.113 -1.77232 -3.67495 0
M  V30 9938 H 940.788 -2.77154 -3.10095 0
M  V30 9939 H 939.365 -1.00672 -3.59054 0
M  V30 9940 N 941.55 1.18024 -1.04442 0
M  V30 9941 C 942.513 2.19992 -0.643136 0
M  V30 9942 C 943.513 1.57949 0.301444 0
M  V30 9943 O 944.703 1.73986 0.0863341 0
M  V30 9944 C 941.835 3.40853 0.0565208 0
M  V30 9945 H 943.028 2.57008 -1.54554 0
M  V30 9946 H 940.581 1.31974 -0.837408 0
M  V30 9947 H 941.316 3.09373 0.972553 0
M  V30 9948 H 941.101 3.87128 -0.622439 0
M  V30 9949 H 942.591 4.16344 0.323652 0
M  V30 9950 N 943.028 0.824394 1.34319 0
M  V30 9951 C 943.976 0.235628 2.31403 0
M  V30 9952 C 944.97 -0.624443 1.57471 0
M  V30 9953 O 946.176 -0.515618 1.72457 0
M  V30 9954 H 942.551 0.0574537 0.749802 0
M  V30 9955 H 944.522 1.06925 2.78585 0
M  V30 9956 C 943.271 -0.586617 3.42716 0
M  V30 9957 H 942.594 0.0658669 3.99746 0
M  V30 9958 H 944.034 -0.964661 4.1288 0
M  V30 9959 C 942.493 -1.75957 2.87299 0
M  V30 9960 O 943.023 -2.8578 2.82299 0
M  V30 9961 N 941.229 -1.57678 2.44102 0
M  V30 9962 H 940.776 -0.683436 2.48369 0
M  V30 9963 H 940.734 -2.36311 2.07375 0
M  V30 9964 N 944.506 -1.46559 0.579492 0
M  V30 9965 C 945.922 -1.57771 0.240921 0
M  V30 9966 C 946.122 -1.57505 -1.25676 0
M  V30 9967 O 945.178 -1.4903 -2.03829 0
M  V30 9968 C 946.491 -2.87311 0.887285 0
M  V30 9969 C 948.039 -3.00937 0.860576 0
M  V30 9970 C 948.514 -4.33208 1.48642 0
M  V30 9971 N 950.005 -4.39899 1.45062 0
M  V30 9972 C 950.74 -5.40856 1.90428 0
M  V30 9973 N 950.236 -6.48503 2.43752 0
M  V30 9974 N 952.029 -5.32037 1.81364 0
M  V30 9975 H 944.18 -1.44976 1.55228 0
M  V30 9976 H 946.443 -0.691354 0.648639 0
M  V30 9977 H 946.149 -2.93307 1.94071 0
M  V30 9978 H 946.023 -3.75141 0.393577 0
M  V30 9979 H 948.41 -2.94524 -0.184223 0
M  V30 9980 H 948.491 -2.14591 1.39227 0
M  V30 9981 H 948.135 -4.40378 2.5304 0
M  V30 9982 H 948.065 -5.18323 0.92998 0
M  V30 9983 H 950.556 -3.62706 1.0608 0
M  V30 9984 H 950.869 -7.21744 2.76234 0
M  V30 9985 H 949.214 -6.49332 2.47776 0
M  V30 9986 H 952.405 -4.46841 1.39465 0
M  V30 9987 H 952.578 -6.10573 2.17035 0
M  V30 9988 N 945.984 -0.3171 -1.54377 0
M  V30 9989 C 946.894 0.560867 -2.27797 0
M  V30 9990 C 947.91 1.13473 -1.31908 0
M  V30 9991 O 949.086 1.15608 -1.64914 0
M  V30 9992 C 946.151 1.70886 -3.0166 0
M  V30 9993 C 945.212 1.16745 -4.13121 0
M  V30 9994 C 944.445 2.26073 -4.83453 0
M  V30 9995 O 944.668 3.46292 -4.53252 0
M  V30 9996 O 943.602 1.91856 -5.70504 0
M  V30 9997 H 947.428 -0.035193 -3.0368 0
M  V30 9998 H 945.013 -0.0830062 -1.49169 0
M  V30 9999 H 946.895 2.37736 -3.47936 0
M  V30 10000 H 945.57 2.29122 -2.28658 0
M  V30 10001 H 944.477 0.464224 -3.71209 0
M  V30 10002 H 945.81 0.630307 -4.88147 0
M  V30 10003 N 947.462 1.57535 -0.0451378 0
M  V30 10004 C 948.687 1.97172 0.64326 0
M  V30 10005 C 949.112 0.922266 1.63939 0
M  V30 10006 O 948.47 -0.115155 1.80934 0
M  V30 10007 C 948.518 3.35889 1.3119 0
M  V30 10008 O 947.622 3.33387 2.42748 0
M  V30 10009 H 946.963 0.642469 0.167719 0
M  V30 10010 H 949.493 2.04295 -0.111747 0
M  V30 10011 H 949.503 3.72481 1.66499 0
M  V30 10012 H 948.178 4.1181 0.581823 0
M  V30 10013 H 946.755 3.08533 2.09432 0
M  V30 10014 N 948.94 -0.228186 1.55939 0
M  V30 10015 C 950.356 -0.577583 1.48782 0
M  V30 10016 C 950.556 -1.87461 0.738972 0
M  V30 10017 O 949.612 -2.50988 0.275929 0
M  V30 10018 C 950.925 -0.662961 2.93301 0
M  V30 10019 C 952.473 -0.754035 3.03782 0
M  V30 10020 C 952.948 -0.870815 4.49645 0
M  V30 10021 N 954.439 -0.935208 4.53661 0
M  V30 10022 C 955.174 -1.04516 5.63794 0
M  V30 10023 N 954.67 -1.11948 6.83696 0
M  V30 10024 N 956.463 -1.07978 5.51631 0
M  V30 10025 H 948.614 0.623018 2.03057 0
M  V30 10026 H 950.877 0.217692 0.922667 0
M  V30 10027 H 950.583 0.220375 3.51009 0
M  V30 10028 H 950.457 -1.52876 3.44831 0
M  V30 10029 H 952.844 -1.62782 2.46143 0
M  V30 10030 H 952.925 0.137301 2.55431 0
M  V30 10031 H 952.569 -0.0015186 5.079 0
M  V30 10032 H 952.499 -1.77747 4.95695 0
M  V30 10033 H 954.99 -0.88836 3.6731 0
M  V30 10034 H 955.303 -1.20297 7.6338 0
M  V30 10035 H 953.648 -1.08873 6.8642 0
M  V30 10036 H 956.839 -1.01833 4.56889 0
M  V30 10037 H 957.012 -1.16202 6.37496 0
M  V30 10038 N 950.418 -1.49637 -0.494624 0
M  V30 10039 C 951.643 -1.63431 -1.27691 0
M  V30 10040 C 952.068 -0.30813 -1.85559 0
M  V30 10041 O 951.426 0.725083 -1.66169 0
M  V30 10042 C 951.474 -2.71043 -2.3784 0
M  V30 10043 O 950.578 -2.3066 -3.41862 0
M  V30 10044 H 949.919 -0.546804 -0.376698 0
M  V30 10045 H 952.449 -1.95866 -0.591413 0
M  V30 10046 H 952.459 -2.93406 -2.83508 0
M  V30 10047 H 951.134 -3.67306 -1.95088 0
M  V30 10048 H 949.711 -2.18652 -3.02069 0
M  V30 10049 N 951.896 0.746133 -1.38819 0
M  V30 10050 C 953.312 1.0502 -1.20179 0
M  V30 10051 C 953.512 2.01423 -0.0556271 0
M  V30 10052 O 952.568 2.45359 0.59625 0
M  V30 10053 C 953.881 1.62315 -2.53129 0
M  V30 10054 C 955.429 1.74449 -2.59878 0
M  V30 10055 C 955.904 2.35155 -3.93022 0
M  V30 10056 N 957.395 2.42577 -3.94602 0
M  V30 10057 C 958.13 2.9046 -4.94389 0
M  V30 10058 N 957.626 3.38322 -6.04574 0
M  V30 10059 N 959.419 2.89568 -4.81775 0
M  V30 10060 H 951.57 0.106551 -2.12133 0
M  V30 10061 H 953.833 0.109897 -0.941609 0
M  V30 10062 H 953.539 0.98946 -3.37495 0
M  V30 10063 H 953.413 2.61276 -2.72057 0
M  V30 10064 H 955.8 2.36943 -1.75903 0
M  V30 10065 H 955.881 0.741721 -2.4481 0
M  V30 10066 H 955.525 1.73292 -4.77422 0
M  V30 10067 H 955.455 3.36088 -4.05404 0
M  V30 10068 H 957.946 2.08735 -3.15021 0
M  V30 10069 H 958.259 3.73336 -6.76639 0
M  V30 10070 H 956.604 3.3636 -6.08184 0
M  V30 10071 H 959.795 2.51492 -3.94803 0
M  V30 10072 H 959.968 3.26571 -5.59692 0
M  V30 10073 N 953.375 1.23811 0.975125 0
M  V30 10074 C 954.322 1.02394 2.06843 0
M  V30 10075 C 955.292 -0.060337 1.6599 0
M  V30 10076 O 956.477 0.0928187 1.90574 0
M  V30 10077 C 953.617 0.626882 3.39359 0
M  V30 10078 C 952.73 1.78385 3.9345 0
M  V30 10079 C 951.865 1.33307 5.14201 0
M  V30 10080 C 950.904 2.46045 5.60471 0
M  V30 10081 N 950.041 2.01888 6.72448 0
M  V30 10082 H 954.881 1.95973 2.24496 0
M  V30 10083 H 952.418 0.976206 1.10039 0
M  V30 10084 H 954.376 0.377742 4.15486 0
M  V30 10085 H 953.006 -0.271907 3.21653 0
M  V30 10086 H 952.058 2.14685 3.14029 0
M  V30 10087 H 953.37 2.63122 4.23755 0
M  V30 10088 H 952.524 1.04237 5.97678 0
M  V30 10089 H 951.263 0.456143 4.85562 0
M  V30 10090 H 950.268 2.75884 4.75571 0
M  V30 10091 H 951.493 3.34283 5.91127 0
M  V30 10092 H 949.439 1.16583 6.45558 0
M  V30 10093 H 949.356 2.80182 7.02164 0
M  V30 10094 H 950.624 1.75937 7.59386 0
M  V30 10095 N 954.853 -1.17469 1.05066 0
M  V30 10096 C 956.269 -1.39699 0.771769 0
M  V30 10097 C 956.469 -1.91253 -0.634382 0
M  V30 10098 O 955.525 -2.10334 -1.39699 0
M  V30 10099 C 956.838 -2.38886 1.82631 0
M  V30 10100 C 958.386 -2.52595 1.84838 0
M  V30 10101 C 958.861 -3.55054 2.89311 0
M  V30 10102 N 960.352 -3.6257 2.88266 0
M  V30 10103 C 961.087 -4.41603 3.65752 0
M  V30 10104 N 960.583 -5.24162 4.53019 0
M  V30 10105 N 962.376 -4.36464 3.54197 0
M  V30 10106 H 954.527 -0.823355 1.95792 0
M  V30 10107 H 956.79 -0.42432 0.847736 0
M  V30 10108 H 956.496 -2.08075 2.83545 0
M  V30 10109 H 956.37 -3.38371 1.66687 0
M  V30 10110 H 958.757 -2.82717 0.845888 0
M  V30 10111 H 958.838 -1.53188 2.04859 0
M  V30 10112 H 958.482 -3.2567 3.89745 0
M  V30 10113 H 958.412 -4.54162 2.66542 0
M  V30 10114 H 960.903 -3.03625 2.24989 0
M  V30 10115 H 961.216 -5.81646 5.0883 0
M  V30 10116 H 959.561 -5.23547 4.57081 0
M  V30 10117 H 962.752 -3.7102 2.85416 0
M  V30 10118 H 962.925 -4.97814 4.14832 0
M  V30 10119 N 956.331 -0.831506 -1.3388 0
M  V30 10120 C 957.58 -0.420028 -1.97278 0
M  V30 10121 C 957.893 1.02441 -1.66629 0
M  V30 10122 O 959.099 1.54021 -2.23584 0
M  V30 10123 C 957.555 -0.700116 -3.53025 0
M  V30 10124 C 957.163 -2.15874 -3.92559 0
M  V30 10125 C 958.907 -0.355226 -4.23011 0
M  V30 10126 C 956.814 -2.38327 -5.41252 0
M  V30 10127 H 955.744 -0.153326 -0.738246 0
M  V30 10128 H 958.395 -1.01906 -1.52602 0
M  V30 10129 H 956.777 -0.0308044 -3.95988 0
M  V30 10130 H 957.951 -2.86792 -3.60675 0
M  V30 10131 H 956.266 -2.4659 -3.35533 0
M  V30 10132 H 958.863 -0.500701 -5.32351 0
M  V30 10133 H 959.206 0.70111 -4.10354 0
M  V30 10134 H 959.739 -0.979466 -3.85553 0
M  V30 10135 H 956.478 -3.42498 -5.58906 0
M  V30 10136 H 955.998 -1.71962 -5.74621 0
M  V30 10137 H 957.677 -2.21113 -6.08045 0
M  V30 10138 N 957.809 1.4625 -0.587256 0
M  V30 10139 C 958.739 2.33132 0.131076 0
M  V30 10140 C 959.72 1.45619 0.879158 0
M  V30 10141 O 960.905 1.74428 0.853723 0
M  V30 10142 C 958.035 3.27975 1.14236 0
M  V30 10143 C 956.989 4.24965 0.508819 0
M  V30 10144 C 956.315 5.09349 1.62689 0
M  V30 10145 C 957.615 5.19322 -0.55694 0
M  V30 10146 H 959.309 2.93442 -0.594333 0
M  V30 10147 H 956.855 1.41106 -0.287263 0
M  V30 10148 H 958.808 3.87614 1.65328 0
M  V30 10149 H 957.532 2.65781 1.8981 0
M  V30 10150 H 956.191 3.66595 0.0189337 0
M  V30 10151 H 955.839 4.43537 2.37242 0
M  V30 10152 H 955.539 5.75036 1.20861 0
M  V30 10153 H 957.063 5.71852 2.14049 0
M  V30 10154 H 958.477 5.73151 -0.130903 0
M  V30 10155 H 956.874 5.93376 -0.895801 0
M  V30 10156 H 957.944 4.62979 -1.44148 0
M  V30 10157 N 959.287 0.325282 1.54207 0
M  V30 10158 C 960.536 -0.27768 1.99779 0
M  V30 10159 C 960.849 -1.5311 1.21723 0
M  V30 10160 O 962.055 -2.21017 1.57682 0
M  V30 10161 C 960.511 -0.545329 3.55745 0
M  V30 10162 C 960.119 0.691143 4.42637 0
M  V30 10163 C 961.863 -1.10815 4.09781 0
M  V30 10164 C 959.77 0.395302 5.90077 0
M  V30 10165 H 958.7 -0.107536 0.746292 0
M  V30 10166 H 961.351 0.437773 1.78202 0
M  V30 10167 H 959.733 -1.32101 3.73317 0
M  V30 10168 H 960.907 1.46653 4.3684 0
M  V30 10169 H 959.222 1.1743 3.99499 0
M  V30 10170 H 961.819 -1.34414 5.1753 0
M  V30 10171 H 962.162 -2.05806 3.6187 0
M  V30 10172 H 962.695 -0.393608 3.95848 0
M  V30 10173 H 959.434 1.31443 6.42186 0
M  V30 10174 H 958.954 -0.34235 5.98822 0
M  V30 10175 H 960.633 0.00576877 6.47 0
M  V30 10176 N 960.765 -1.57509 0.0534917 0
M  V30 10177 C 961.713 -2.12851 -0.937931 0
M  V30 10178 C 962.707 -1.06088 -1.32067 0
M  V30 10179 O 963.913 -1.24494 -1.30005 0
M  V30 10180 H 960.288 -0.680357 -0.320342 0
M  V30 10181 H 962.259 -2.95047 -0.446077 0
M  V30 10182 C 961.008 -2.69034 -2.20264 0
M  V30 10183 H 960.331 -3.50848 -1.91693 0
M  V30 10184 H 961.771 -3.11375 -2.87788 0
M  V30 10185 C 960.23 -1.62919 -2.94888 0
M  V30 10186 O 960.76 -1.04334 -3.87914 0
M  V30 10187 N 958.966 -1.34385 -2.57661 0
M  V30 10188 H 958.513 -1.82214 -1.82088 0
M  V30 10189 H 958.471 -0.636149 -3.07897 0
M  V30 10190 N 962.243 0.219913 -1.56058 0
M  V30 10191 C 963.654 0.786766 -1.69313 0
M  V30 10192 C 964.005 1.84916 -0.655782 0
M  V30 10193 O 963.13 2.1554 0.192772 0
M  V30 10194 C 963.725 1.43387 -3.06962 0
M  V30 10195 C 962.284 1.94809 -3.22066 0
M  V30 10196 C 961.431 0.808863 -2.65241 0
M  V30 10197 H 964.382 -0.00476777 -1.58699 0
M  V30 10198 H 964.403 2.30272 -3.02911 0
M  V30 10199 H 963.915 0.660405 -3.8244 0
M  V30 10200 H 962.016 2.74952 -2.5146 0
M  V30 10201 H 962.129 2.12694 -4.293 0
M  V30 10202 H 960.493 1.21661 -2.23765 0
M  V30 10203 H 961.276 0.0480458 -3.43266 0
M  V30 10204 N 963.721 1.49897 0.486681 0
M  V30 10205 C 964.969 1.59789 1.23742 0
M  V30 10206 C 965.29 0.293056 1.92785 0
M  V30 10207 O 964.56 -0.688534 1.83401 0
M  V30 10208 H 963.14 0.588775 0.459731 0
M  V30 10209 H 965.802 1.86597 0.562808 0
M  V30 10210 H 964.898 2.40121 1.9937 0
M  V30 10211 N 965.199 -0.738761 1.39212 0
M  V30 10212 C 966.147 -1.8741 1.3777 0
M  V30 10213 C 967.141 -1.67371 0.261375 0
M  V30 10214 O 968.347 -1.74759 0.431209 0
M  V30 10215 H 964.722 -0.616843 0.430126 0
M  V30 10216 H 966.693 -1.85742 2.33543 0
M  V30 10217 C 965.442 -3.25053 1.23433 0
M  V30 10218 H 964.765 -3.41066 2.086 0
M  V30 10219 H 966.205 -4.04696 1.2648 0
M  V30 10220 C 964.664 -3.36851 -0.0575624 0
M  V30 10221 O 965.194 -3.88293 -1.02915 0
M  V30 10222 N 963.4 -2.90355 -0.119364 0
M  V30 10223 H 962.947 -2.48681 0.671976 0
M  V30 10224 H 962.905 -2.98628 -0.983286 0
M  V30 10225 N 966.677 -1.24326 -0.968545 0
M  V30 10226 C 967.627 -1.00191 -2.04807 0
M  V30 10227 C 968.611 0.0563524 -1.60801 0
M  V30 10228 O 969.803 -0.157268 -1.763 0
M  V30 10229 C 966.932 -0.607749 -3.37878 0
M  V30 10230 C 966.018 -1.70204 -3.88447 0
M  V30 10231 N 966.409 -2.93463 -4.11962 0
M  V30 10232 C 964.707 -1.57936 -4.171 0
M  V30 10233 C 965.408 -3.64397 -4.5342 0
M  V30 10234 N 964.384 -2.91956 -4.58544 0
M  V30 10235 H 968.186 -1.93786 -2.20962 0
M  V30 10236 H 965.7 -1.1444 -1.15227 0
M  V30 10237 H 967.697 -0.416079 -4.14819 0
M  V30 10238 H 966.357 0.321026 -3.23109 0
M  V30 10239 H 967.368 -3.2965 -3.99438 0
M  V30 10240 H 964.045 -0.718552 -4.1127 0
M  V30 10241 H 965.435 -4.70125 -4.80034 0
M  V30 10242 N 968.156 1.1691 -1.05688 0
M  V30 10243 C 969.086 2.23275 -0.683402 0
M  V30 10244 C 970.067 1.6704 0.321206 0
M  V30 10245 O 971.252 1.93191 0.197691 0
M  V30 10246 C 968.382 3.47244 -0.0626006 0
M  V30 10247 C 967.336 4.16333 -0.992513 0
M  V30 10248 C 966.662 5.34182 -0.23533 0
M  V30 10249 C 967.962 4.68002 -2.31886 0
M  V30 10250 H 969.656 2.54771 -1.57264 0
M  V30 10251 H 967.202 1.2246 -0.757606 0
M  V30 10252 H 969.155 4.20874 0.210503 0
M  V30 10253 H 967.879 3.1503 0.861616 0
M  V30 10254 H 966.538 3.44622 -1.25026 0
M  V30 10255 H 966.186 4.9822 0.69181 0
M  V30 10256 H 965.886 5.81346 -0.855002 0
M  V30 10257 H 967.41 6.10592 0.0303717 0
M  V30 10258 H 968.824 5.33244 -2.10531 0
M  V30 10259 H 967.221 5.25764 -2.89296 0
M  V30 10260 H 968.291 3.84541 -2.95391 0
M  V30 10261 N 969.634 0.838594 1.33437 0
M  V30 10262 C 970.581 0.269609 2.2922 0
M  V30 10263 C 971.551 -0.614429 1.54318 0
M  V30 10264 O 972.736 -0.552756 1.82618 0
M  V30 10265 C 969.876 -0.549527 3.40697 0
M  V30 10266 C 968.989 0.358502 4.3051 0
M  V30 10267 C 968.124 -0.471709 5.29101 0
M  V30 10268 C 967.163 0.434728 6.10554 0
M  V30 10269 N 966.3 -0.357339 7.0119 0
M  V30 10270 H 971.14 1.09172 2.77282 0
M  V30 10271 H 968.677 0.549832 1.36438 0
M  V30 10272 H 970.635 -1.03992 4.04032 0
M  V30 10273 H 969.265 -1.33661 2.93828 0
M  V30 10274 H 968.317 0.967204 3.67899 0
M  V30 10275 H 969.629 1.05483 4.87519 0
M  V30 10276 H 968.783 -1.02594 5.97963 0
M  V30 10277 H 967.522 -1.20147 4.72669 0
M  V30 10278 H 966.527 1.00097 5.40611 0
M  V30 10279 H 967.752 1.16285 6.6907 0
M  V30 10280 H 965.698 -1.07049 6.47207 0
M  V30 10281 H 965.615 0.280277 7.5548 0
M  V30 10282 H 966.883 -0.893814 7.74359 0
M  V30 10283 N 971.112 -1.45937 0.595003 0
M  V30 10284 C 972.361 -2.01529 0.0829531 0
M  V30 10285 C 972.674 -1.47071 -1.28955 0
M  V30 10286 O 973.88 -1.94561 -1.89363 0
M  V30 10287 C 972.336 -3.59767 0.0976597 0
M  V30 10288 C 971.944 -4.23223 1.46924 0
M  V30 10289 C 973.688 -4.22972 -0.359805 0
M  V30 10290 C 971.595 -5.73576 1.44101 0
M  V30 10291 H 970.525 -0.753508 0.0272425 0
M  V30 10292 H 973.176 -1.67541 0.748473 0
M  V30 10293 H 971.558 -3.90888 -0.634268 0
M  V30 10294 H 972.732 -4.03695 2.22187 0
M  V30 10295 H 971.047 -3.72161 1.86775 0
M  V30 10296 H 973.644 -5.33202 -0.39991 0
M  V30 10297 H 973.987 -3.92765 -1.37991 0
M  V30 10298 H 974.52 -3.96523 0.31845 0
M  V30 10299 H 971.259 -6.08462 2.43831 0
M  V30 10300 H 970.779 -5.95332 0.730767 0
M  V30 10301 H 972.458 -6.36531 1.1592 0
M  V30 10302 N 972.59 -0.333456 -1.54032 0
M  V30 10303 C 973.522 0.562174 -2.22199 0
M  V30 10304 C 974.535 1.07202 -1.22522 0
M  V30 10305 O 975.724 0.983897 -1.48935 0
M  V30 10306 C 972.824 1.78525 -2.88066 0
M  V30 10307 C 971.997 1.41242 -4.13968 0
M  V30 10308 C 971.056 2.49408 -4.63338 0
M  V30 10309 O 970.082 2.13138 -5.27789 0
M  V30 10310 N 971.284 3.805 -4.38406 0
M  V30 10311 H 974.049 -0.0215629 -2.99692 0
M  V30 10312 H 971.61 -0.157111 -1.61136 0
M  V30 10313 H 973.602 2.50298 -3.18014 0
M  V30 10314 H 972.172 2.2766 -2.14219 0
M  V30 10315 H 971.392 0.525887 -3.90676 0
M  V30 10316 H 972.68 1.13916 -4.95884 0
M  V30 10317 H 972.078 4.12761 -3.86839 0
M  V30 10318 H 970.635 4.48474 -4.72984 0
M  V30 10319 N 974.068 1.57479 -0.061844 0
M  V30 10320 C 974.978 2.15645 0.923826 0
M  V30 10321 C 975.994 1.117 1.33413 0
M  V30 10322 O 977.17 1.4392 1.40887 0
M  V30 10323 C 974.235 2.69857 2.17665 0
M  V30 10324 C 973.296 3.88638 1.8237 0
M  V30 10325 C 972.529 4.40256 3.01679 0
M  V30 10326 O 972.752 3.90908 4.15388 0
M  V30 10327 O 971.686 5.31713 2.82073 0
M  V30 10328 H 975.512 3.0021 0.459094 0
M  V30 10329 H 973.097 1.48534 0.160665 0
M  V30 10330 H 974.979 3.04647 2.9115 0
M  V30 10331 H 973.654 1.88357 2.63255 0
M  V30 10332 H 972.561 3.58719 1.06167 0
M  V30 10333 H 973.894 4.71401 1.4157 0
M  V30 10334 N 975.546 -0.211634 1.56173 0
M  V30 10335 C 976.794 -0.932704 1.7929 0
M  V30 10336 C 977.115 -1.84472 0.632076 0
M  V30 10337 O 976.385 -1.92739 -0.350519 0
M  V30 10338 H 974.965 -0.347393 0.661307 0
M  V30 10339 H 977.627 -0.22111 1.93642 0
M  V30 10340 H 976.723 -1.53365 2.71819 0
M  V30 10341 N 977.024 -1.50153 -0.478725 0
M  V30 10342 C 978.252 -1.64505 -1.25482 0
M  V30 10343 C 978.667 -0.325295 -1.85977 0
M  V30 10344 O 978.024 0.691885 -1.68876 0
M  V30 10345 C 978.075 -2.73052 -2.36906 0
M  V30 10346 O 977.796 -3.99911 -1.78894 0
M  V30 10347 C 979.297 -2.98309 -3.27912 0
M  V30 10348 H 976.517 -0.55318 -0.379781 0
M  V30 10349 H 979.061 -1.96329 -0.57229 0
M  V30 10350 H 977.216 -2.43944 -3.00949 0
M  V30 10351 H 977.63 -4.5988 -2.52211 0
M  V30 10352 H 979.104 -3.77942 -4.02323 0
M  V30 10353 H 979.581 -2.09082 -3.8624 0
M  V30 10354 H 980.187 -3.2892 -2.69614 0
M  V30 10355 N 978.502 0.731368 -1.39602 0
M  V30 10356 C 979.432 1.85855 -1.41351 0
M  V30 10357 C 980.413 1.67839 -0.2764 0
M  V30 10358 O 981.598 1.88104 -0.482747 0
M  V30 10359 C 978.728 3.23644 -1.25983 0
M  V30 10360 C 977.682 3.56304 -2.37132 0
M  V30 10361 C 977.008 4.93069 -2.0685 0
M  V30 10362 C 978.308 3.58906 -3.79452 0
M  V30 10363 H 980.002 1.84648 -2.3568 0
M  V30 10364 H 977.548 0.886955 -1.13442 0
M  V30 10365 H 979.501 4.02176 -1.25826 0
M  V30 10366 H 978.225 3.25387 -0.281234 0
M  V30 10367 H 976.884 2.80104 -2.36511 0
M  V30 10368 H 976.532 4.91396 -1.0742 0
M  V30 10369 H 976.232 5.15888 -2.81306 0
M  V30 10370 H 977.756 5.73953 -2.0835 0
M  V30 10371 H 979.17 4.27508 -3.81982 0
M  V30 10372 H 977.567 3.93246 -4.53297 0
M  V30 10373 H 978.637 2.58631 -4.10168 0
M  V30 10374 N 979.98 1.24838 0.961938 0
M  V30 10375 C 981.228 1.08936 1.70227 0
M  V30 10376 C 981.549 -0.371582 1.91427 0
M  V30 10377 O 980.819 -1.26461 1.49614 0
M  V30 10378 H 979.399 0.400128 0.630799 0
M  V30 10379 H 982.061 1.56848 1.15692 0
M  V30 10380 H 981.157 1.59195 2.68446 0
M  V30 10381 N 981.458 -1.16348 1.06306 0
M  V30 10382 C 982.705 -1.86881 0.779852 0
M  V30 10383 C 983.033 -1.8171 -0.693668 0
M  V30 10384 O 982.288 -1.22769 -1.52401 0
M  V30 10385 C 982.587 -3.35936 1.21991 0
M  V30 10386 C 982.253 -3.61307 2.69756 0
M  V30 10387 C 980.915 -3.6794 3.10119 0
M  V30 10388 C 983.267 -3.71871 3.65187 0
M  V30 10389 C 980.595 -3.82639 4.44752 0
M  V30 10390 C 982.947 -3.88091 4.99568 0
M  V30 10391 C 981.611 -3.92967 5.39568 0
M  V30 10392 H 980.881 -0.683847 0.285368 0
M  V30 10393 H 983.528 -1.37569 1.33218 0
M  V30 10394 H 981.833 -3.87381 0.586774 0
M  V30 10395 H 983.53 -3.88895 0.977821 0
M  V30 10396 H 980.12 -3.56777 2.37504 0
M  V30 10397 H 984.304 -3.66057 3.35136 0
M  V30 10398 H 979.56 -3.84666 4.75228 0
M  V30 10399 H 983.734 -3.95207 5.73397 0
M  V30 10400 H 981.361 -4.04109 6.43895 0
M  V30 10401 N 982.937 -0.845659 -1.3299 0
M  V30 10402 C 984.184 -0.444653 -1.97558 0
M  V30 10403 C 984.512 0.997682 -1.66963 0
M  V30 10404 O 983.767 1.71349 -0.94541 0
M  V30 10405 C 984.066 -0.6201 -3.51979 0
M  V30 10406 C 983.732 -2.03155 -4.02541 0
M  V30 10407 C 982.394 -2.4176 -4.16059 0
M  V30 10408 C 984.746 -2.95317 -4.29462 0
M  V30 10409 C 982.074 -3.71818 -4.53837 0
M  V30 10410 C 984.426 -4.24863 -4.68694 0
M  V30 10411 C 983.09 -4.63416 -4.80419 0
M  V30 10412 H 982.36 -0.16271 -0.722915 0
M  V30 10413 H 985.007 -1.07399 -1.58549 0
M  V30 10414 H 983.312 0.092513 -3.91691 0
M  V30 10415 H 985.009 -0.290012 -3.9995 0
M  V30 10416 H 981.599 -1.72174 -3.92497 0
M  V30 10417 H 985.783 -2.66726 -4.18534 0
M  V30 10418 H 981.039 -4.01484 -4.61108 0
M  V30 10419 H 985.213 -4.96347 -4.8848 0
M  V30 10420 H 982.84 -5.6424 -5.09448 0
M  V30 10421 N 984.415 1.45619 -0.602734 0
M  V30 10422 C 985.664 2.01483 -0.0936395 0
M  V30 10423 C 985.977 1.47753 1.28173 0
M  V30 10424 O 987.183 1.95562 1.88329 0
M  V30 10425 C 985.639 3.59711 -0.116738 0
M  V30 10426 C 985.247 4.22437 -1.49166 0
M  V30 10427 C 986.991 4.23157 0.337368 0
M  V30 10428 C 984.898 5.72803 -1.47141 0
M  V30 10429 H 983.828 0.753353 -0.0312382 0
M  V30 10430 H 986.479 1.67142 -0.757347 0
M  V30 10431 H 984.861 3.91218 0.613529 0
M  V30 10432 H 986.035 4.02511 -2.24325 0
M  V30 10433 H 984.35 3.71166 -1.88746 0
M  V30 10434 H 986.947 5.33407 0.371628 0
M  V30 10435 H 987.29 3.93491 1.35906 0
M  V30 10436 H 987.823 3.96349 -0.339474 0
M  V30 10437 H 984.562 6.07161 -2.47055 0
M  V30 10438 H 984.082 5.94936 -0.762329 0
M  V30 10439 H 985.761 6.35907 -1.19294 0
M  V30 10440 N 985.893 0.34162 1.53853 0
M  V30 10441 C 986.856 -0.503541 2.236 0
M  V30 10442 C 987.856 -1.02912 1.23554 0
M  V30 10443 O 989.046 -0.918678 1.48007 0
M  V30 10444 C 986.178 -1.70126 2.95415 0
M  V30 10445 H 987.371 0.106437 2.99711 0
M  V30 10446 H 984.924 0.0929408 1.56023 0
M  V30 10447 H 985.659 -2.34999 2.23486 0
M  V30 10448 H 985.444 -1.33161 3.68796 0
M  V30 10449 H 986.934 -2.30077 3.48503 0
M  V30 10450 N 987.371 -1.57444 0.0701946 0
M  V30 10451 C 988.596 -1.98171 -0.61181 0
M  V30 10452 C 989.021 -0.94823 -1.62451 0
M  V30 10453 O 988.379 0.0863553 -1.81094 0
M  V30 10454 C 988.427 -3.37934 -1.2583 0
M  V30 10455 O 987.531 -3.37207 -2.37414 0
M  V30 10456 H 986.872 -0.645056 -0.157477 0
M  V30 10457 H 989.402 -2.04091 0.144235 0
M  V30 10458 H 989.412 -3.75083 -1.60552 0
M  V30 10459 H 988.087 -4.12684 -0.516234 0
M  V30 10460 H 986.664 -3.11826 -2.04497 0
M  V30 10461 N 988.849 0.203349 -1.56283 0
M  V30 10462 C 990.126 0.950415 -1.70958 0
M  V30 10463 C 990.506 2.01708 -0.622647 0
M  V30 10464 O 989.854 2.25523 0.367635 0
M  V30 10465 C 990.064 1.54434 -3.12971 0
M  V30 10466 C 991.412 2.02964 -3.72949 0
M  V30 10467 O 992.436 1.64293 -3.16048 0
M  V30 10468 O 991.295 2.74097 -4.72793 0
M  V30 10469 H 988.389 0.445154 -0.69697 0
M  V30 10470 H 990.935 0.193695 -1.68591 0
M  V30 10471 H 989.707 0.77505 -3.83547 0
M  V30 10472 H 989.33 2.36611 -3.19532 0
M  V30 10473 N 990.327 1.50405 0.470755 0
M  V30 10474 C 991.29 1.68741 1.5511 0
M  V30 10475 C 992.29 0.558116 1.50804 0
M  V30 10476 O 993.48 0.825149 1.53418 0
M  V30 10477 C 990.612 1.71295 2.94739 0
M  V30 10478 H 991.805 2.65127 1.40169 0
M  V30 10479 H 989.358 1.39891 0.697156 0
M  V30 10480 H 990.093 0.766029 3.15123 0
M  V30 10481 H 989.878 2.53336 2.99271 0
M  V30 10482 H 991.368 1.87434 3.73173 0
M  V30 10483 N 991.805 -0.723954 1.39988 0
M  V30 10484 C 992.752 -1.83803 1.39589 0
M  V30 10485 C 993.722 -1.64146 0.253996 0
M  V30 10486 O 994.907 -1.85398 0.450793 0
M  V30 10487 C 992.047 -3.21431 1.25604 0
M  V30 10488 C 991.16 -3.52717 2.49429 0
M  V30 10489 C 990.295 -4.79805 2.27949 0
M  V30 10490 C 989.334 -5.03968 3.47394 0
M  V30 10491 N 988.471 -6.22266 3.25161 0
M  V30 10492 H 993.311 -1.83479 2.34818 0
M  V30 10493 H 990.848 -0.896396 1.16633 0
M  V30 10494 H 992.806 -4.00892 1.15504 0
M  V30 10495 H 991.436 -3.21005 0.339986 0
M  V30 10496 H 990.488 -2.67872 2.7009 0
M  V30 10497 H 991.8 -3.66486 3.38363 0
M  V30 10498 H 990.954 -5.67268 2.15155 0
M  V30 10499 H 989.693 -4.68229 1.36428 0
M  V30 10500 H 988.698 -4.14963 3.60674 0
M  V30 10501 H 989.923 -5.17422 4.39831 0
M  V30 10502 H 987.869 -6.11957 2.36314 0
M  V30 10503 H 987.786 -6.36673 4.07656 0
M  V30 10504 H 989.054 -7.12539 3.16083 0
M  V30 10505 N 993.283 -1.25346 -0.955304 0
M  V30 10506 C 994.193 -1.07412 -2.08566 0
M  V30 10507 C 995.209 -0.0114424 -1.73996 0
M  V30 10508 O 996.385 -0.212236 -2.00279 0
M  V30 10509 C 993.45 -0.694141 -3.3968 0
M  V30 10510 C 992.511 -1.83468 -3.88121 0
M  V30 10511 C 991.744 -1.47274 -5.12978 0
M  V30 10512 O 991.967 -0.368086 -5.69211 0
M  V30 10513 O 990.901 -2.30269 -5.56111 0
M  V30 10514 H 994.727 -2.02206 -2.26598 0
M  V30 10515 H 992.312 -1.04279 -1.06988 0
M  V30 10516 H 994.194 -0.494325 -4.18491 0
M  V30 10517 H 992.869 0.224545 -3.2292 0
M  V30 10518 H 991.776 -2.08935 -3.10318 0
M  V30 10519 H 993.109 -2.73258 -4.09379 0
M  V30 10520 N 994.761 1.15782 -1.06922 0
M  V30 10521 C 996.007 1.86741 -0.790922 0
M  V30 10522 C 996.34 1.81863 0.681149 0
M  V30 10523 O 995.615 1.23871 1.49954 0
M  V30 10524 C 995.898 3.36038 -1.29422 0
M  V30 10525 C 995.751 3.49573 -2.83052 0
M  V30 10526 C 997.07 4.30647 -0.907239 0
M  V30 10527 H 994.189 0.678064 -0.288787 0
M  V30 10528 H 996.831 1.36054 -1.32624 0
M  V30 10529 H 994.981 3.79336 -0.838843 0
M  V30 10530 H 996.653 3.1517 -3.36847 0
M  V30 10531 H 994.896 2.91275 -3.21467 0
M  V30 10532 H 995.567 4.5445 -3.13335 0
M  V30 10533 H 998.043 3.95286 -1.29956 0
M  V30 10534 H 996.919 5.33604 -1.28679 0
M  V30 10535 H 997.18 4.41703 0.187251 0
M  V30 10536 N 996.239 0.8527 1.3254 0
M  V30 10537 C 997.186 0.293905 2.28921 0
M  V30 10538 C 998.156 -0.598027 1.54961 0
M  V30 10539 O 999.341 -0.533355 1.83194 0
M  V30 10540 C 996.481 -0.513361 3.4126 0
M  V30 10541 C 995.594 0.404144 4.30105 0
M  V30 10542 C 994.729 -0.415564 5.29572 0
M  V30 10543 C 993.768 0.499461 6.10059 0
M  V30 10544 N 992.905 -0.282949 7.0153 0
M  V30 10545 H 997.745 1.12107 2.76109 0
M  V30 10546 H 995.282 0.564272 1.35847 0
M  V30 10547 H 997.24 -0.997008 4.05112 0
M  V30 10548 H 995.87 -1.30537 2.95229 0
M  V30 10549 H 994.922 1.00617 3.66852 0
M  V30 10550 H 996.234 1.10648 4.86373 0
M  V30 10551 H 995.388 -0.962458 5.99017 0
M  V30 10552 H 994.127 -1.15127 4.73917 0
M  V30 10553 H 993.132 1.05825 5.39519 0
M  V30 10554 H 994.357 1.23375 6.67799 0
M  V30 10555 H 992.303 -1.00179 6.48306 0
M  V30 10556 H 992.22 0.36039 7.55141 0
M  V30 10557 H 993.488 -0.811632 7.75263 0
M  V30 10558 N 997.718 -1.45297 0.610449 0
M  V30 10559 C 999.134 -1.57225 0.274332 0
M  V30 10560 C 999.334 -1.60136 -1.22306 0
M  V30 10561 O 998.39 -1.5332 -2.00622 0
M  V30 10562 C 999.703 -2.85365 0.948028 0
M  V30 10563 C 1001.25 -2.99044 0.924216 0
M  V30 10564 C 1001.73 -4.29958 1.57798 0
M  V30 10565 N 1003.22 -4.36723 1.5436 0
M  V30 10566 C 1003.95 -5.36695 2.01857 0
M  V30 10567 N 1003.45 -6.43187 2.57453 0
M  V30 10568 N 1005.24 -5.28071 1.92608 0
M  V30 10569 H 997.392 -1.41651 1.58268 0
M  V30 10570 H 999.655 -0.67744 0.663158 0
M  V30 10571 H 999.361 -2.89125 2.00249 0
M  V30 10572 H 999.235 -3.74222 0.473062 0
M  V30 10573 H 1001.62 -2.94849 -0.121709 0
M  V30 10574 H 1001.7 -2.1159 1.43748 0
M  V30 10575 H 1001.35 -4.34912 2.62325 0
M  V30 10576 H 1001.28 -5.16234 1.03972 0
M  V30 10577 H 1003.77 -3.60374 1.13749 0
M  V30 10578 H 1004.08 -7.15722 2.91482 0
M  V30 10579 H 1002.43 -6.4393 2.61493 0
M  V30 10580 H 1005.62 -4.43783 1.48912 0
M  V30 10581 H 1005.79 -6.05832 2.29938 0
M  V30 10582 N 999.196 -0.349774 -1.5367 0
M  V30 10583 C 1000.16 0.491676 -2.23864 0
M  V30 10584 C 1001.16 1.02256 -1.24098 0
M  V30 10585 O 1002.35 0.910816 -1.48492 0
M  V30 10586 C 999.481 1.68557 -2.96313 0
M  V30 10587 H 1000.67 -0.12233 -2.9965 0
M  V30 10588 H 998.227 -0.101214 -1.55972 0
M  V30 10589 H 998.962 2.3381 -2.2473 0
M  V30 10590 H 998.747 1.31203 -3.69497 0
M  V30 10591 H 1000.24 2.28225 -3.49718 0
M  V30 10592 N 1000.67 1.57404 -0.0785433 0
M  V30 10593 C 1001.92 1.93744 0.589024 0
M  V30 10594 C 1002.25 0.959087 1.69209 0
M  V30 10595 O 1001.5 -0.0241604 1.95685 0
M  V30 10596 C 1001.8 3.36684 1.1991 0
M  V30 10597 C 1001.47 4.50356 0.221493 0
M  V30 10598 C 1000.13 4.81177 -0.0474347 0
M  V30 10599 C 1002.48 5.1928 -0.446941 0
M  V30 10600 C 999.811 5.78257 -0.99177 0
M  V30 10601 C 1002.16 6.17372 -1.37964 0
M  V30 10602 C 1000.83 6.46607 -1.65697 0
M  V30 10603 H 1000.1 0.70896 0.215539 0
M  V30 10604 H 1002.74 1.90905 -0.150856 0
M  V30 10605 H 1001.05 3.36022 2.01486 0
M  V30 10606 H 1002.75 3.62095 1.72303 0
M  V30 10607 H 999.336 4.26322 0.441284 0
M  V30 10608 H 1003.52 4.95658 -0.252298 0
M  V30 10609 H 998.776 5.9923 -1.21381 0
M  V30 10610 H 1002.95 6.6988 -1.9035 0
M  V30 10611 H 1000.58 7.21643 -2.39031 0
M  V30 10612 N 1002.15 -0.195058 1.56388 0
M  V30 10613 C 1003.4 -0.915444 1.80626 0
M  V30 10614 C 1003.73 -1.83255 0.651768 0
M  V30 10615 O 1002.98 -1.92314 -0.362464 0
M  V30 10616 C 1003.28 -1.7637 3.10851 0
M  V30 10617 C 1002.95 -0.997572 4.39726 0
M  V30 10618 C 1001.61 -0.786043 4.74737 0
M  V30 10619 C 1003.96 -0.45851 5.19179 0
M  V30 10620 C 1001.29 -0.023972 5.86695 0
M  V30 10621 C 1003.64 0.29035 6.31933 0
M  V30 10622 C 1002.3 0.512895 6.65527 0
M  V30 10623 H 1001.57 -0.334985 0.660959 0
M  V30 10624 H 1004.22 -0.181815 1.90635 0
M  V30 10625 H 1002.53 -2.566 2.9608 0
M  V30 10626 H 1004.22 -2.3237 3.26811 0
M  V30 10627 H 1000.81 -1.17245 4.12252 0
M  V30 10628 H 1005 -0.609334 4.92545 0
M  V30 10629 H 1000.25 0.158421 6.11195 0
M  V30 10630 H 1004.43 0.715429 6.92715 0
M  V30 10631 H 1002.05 1.10531 7.52122 0
M  V30 10632 N 1003.63 -1.50653 -0.462772 0
M  V30 10633 C 1004.86 -1.65586 -1.23551 0
M  V30 10634 C 1005.27 -0.342012 -1.86083 0
M  V30 10635 O 1004.61 0.686893 -1.70374 0
M  V30 10636 C 1004.67 -2.69555 -2.37867 0
M  V30 10637 C 1004.34 -4.1288 -1.95906 0
M  V30 10638 C 1005.33 -4.98483 -1.47685 0
M  V30 10639 C 1003.02 -4.58843 -2.04373 0
M  V30 10640 C 1005.01 -6.281 -1.08484 0
M  V30 10641 C 1002.7 -5.88464 -1.64783 0
M  V30 10642 C 1003.7 -6.72918 -1.16918 0
M  V30 10643 O 1003.39 -8.00119 -0.778798 0
M  V30 10644 H 1003.12 -0.559438 -0.37948 0
M  V30 10645 H 1005.67 -1.9768 -0.557816 0
M  V30 10646 H 1003.9 -2.3272 -3.08834 0
M  V30 10647 H 1005.59 -2.73624 -2.99808 0
M  V30 10648 H 1006.36 -4.64186 -1.40558 0
M  V30 10649 H 1002.24 -3.93247 -2.40577 0
M  V30 10650 H 1005.78 -6.93972 -0.710524 0
M  V30 10651 H 1001.68 -6.22281 -1.71571 0
M  V30 10652 H 1002.44 -8.1346 -0.906911 0
M  V30 10653 N 1005.11 0.71652 -1.4037 0
M  V30 10654 C 1006.35 1.48883 -1.40047 0
M  V30 10655 C 1006.71 1.92 -0.00158027 0
M  V30 10656 O 1007.91 2.68501 0.126765 0
M  V30 10657 C 1006.18 2.68265 -2.36154 0
M  V30 10658 S 1007.74 3.57684 -2.5418 0
M  V30 10659 H 1004.56 0.509035 -0.496391 0
M  V30 10660 H 1007.16 0.837967 -1.76631 0
M  V30 10661 H 1005.87 2.34759 -3.36625 0
M  V30 10662 H 1005.4 3.38264 -2.0085 0
M  V30 10663 H 1007.41 4.62653 -1.79352 0
M  V30 10664 N 1006.59 1.25851 0.948643 0
M  V30 10665 C 1007.53 1.06759 2.04625 0
M  V30 10666 C 1008.5 -0.0251144 1.66081 0
M  V30 10667 O 1009.69 0.133221 1.90334 0
M  V30 10668 C 1006.83 0.698724 3.37952 0
M  V30 10669 C 1005.94 1.8669 3.89578 0
M  V30 10670 C 1005.08 1.44184 5.11258 0
M  V30 10671 C 1004.12 2.57878 5.55126 0
M  V30 10672 N 1003.25 2.16106 6.68014 0
M  V30 10673 H 1008.09 2.00691 2.20289 0
M  V30 10674 H 1005.63 0.999327 1.07944 0
M  V30 10675 H 1007.59 0.465788 4.14592 0
M  V30 10676 H 1006.22 -0.203618 3.22157 0
M  V30 10677 H 1005.27 2.21298 3.09405 0
M  V30 10678 H 1006.58 2.72051 4.18079 0
M  V30 10679 H 1005.74 1.16891 5.95333 0
M  V30 10680 H 1004.47 0.559035 4.84485 0
M  V30 10681 H 1003.48 2.85909 4.69612 0
M  V30 10682 H 1004.7 3.46747 5.83904 0
M  V30 10683 H 1002.65 1.3025 6.42939 0
M  V30 10684 H 1002.57 2.95012 6.96063 0
M  V30 10685 H 1003.84 1.92005 7.55483 0
M  V30 10686 N 1008.06 -1.15214 1.07534 0
M  V30 10687 C 1009.03 -2.18209 0.701237 0
M  V30 10688 C 1010.03 -1.58693 -0.25946 0
M  V30 10689 O 1011.22 -1.74154 -0.0401744 0
M  V30 10690 C 1008.35 -3.40883 0.0338703 0
M  V30 10691 H 1009.54 -2.5282 1.61314 0
M  V30 10692 H 1007.1 -1.29707 0.872105 0
M  V30 10693 H 1007.83 -3.11843 -0.890187 0
M  V30 10694 H 1007.62 -3.85342 0.72486 0
M  V30 10695 H 1009.11 -4.17056 -0.213152 0
M  V30 10696 N 1009.54 -0.859717 -1.32086 0
M  V30 10697 C 1010.78 -0.471939 -1.98877 0
M  V30 10698 C 1011.15 0.955689 -1.66525 0
M  V30 10699 O 1012.35 1.44829 -2.26447 0
M  V30 10700 C 1010.62 -0.710016 -3.50276 0
M  V30 10701 S 1012.18 -0.420566 -4.3678 0
M  V30 10702 H 1009 -0.176588 -0.688722 0
M  V30 10703 H 1011.6 -1.11352 -1.60689 0
M  V30 10704 H 1010.3 -1.74803 -3.71311 0
M  V30 10705 H 1009.83 -0.0550429 -3.93361 0
M  V30 10706 H 1011.85 0.751362 -4.90478 0
M  V30 10707 N 1011.02 1.44971 -0.618145 0
M  V30 10708 C 1011.97 2.27704 0.116119 0
M  V30 10709 C 1012.95 1.37927 0.828558 0
M  V30 10710 O 1014.15 1.61836 0.716806 0
M  V30 10711 C 1011.28 3.25004 1.10578 0
M  V30 10712 C 1010.36 4.22269 0.39364 0
M  V30 10713 N 1010.75 5.02571 -0.570581 0
M  V30 10714 C 1009.05 4.41387 0.639809 0
M  V30 10715 C 1009.75 5.73211 -0.990144 0
M  V30 10716 N 1008.73 5.42587 -0.331653 0
M  V30 10717 H 1012.53 2.87193 -0.624295 0
M  V30 10718 H 1010.04 1.56252 -0.442631 0
M  V30 10719 H 1012.04 3.83017 1.64631 0
M  V30 10720 H 1010.7 2.67075 1.84664 0
M  V30 10721 H 1011.71 5.09153 -0.947814 0
M  V30 10722 H 1008.39 3.94572 1.36453 0
M  V30 10723 H 1009.78 6.47728 -1.78601 0
M  V30 10724 N 1012.5 0.357919 1.53482 0
M  V30 10725 C 1013.78 -0.290164 1.93436 0
M  V30 10726 C 1014.16 -1.67039 1.29079 0
M  V30 10727 O 1013.5 -2.24085 0.447017 0
M  V30 10728 C 1013.71 -0.348055 3.4726 0
M  V30 10729 C 1015.06 -0.59206 4.20452 0
M  V30 10730 O 1016.09 -0.429581 3.536 0
M  V30 10731 O 1014.94 -0.907855 5.38907 0
M  V30 10732 H 1012.04 -0.172312 0.80885 0
M  V30 10733 H 1014.58 0.410144 1.64669 0
M  V30 10734 H 1013.36 0.619953 3.86358 0
M  V30 10735 H 1012.98 -1.09457 3.82237 0
M  V30 10736 N 1013.98 -1.5736 0.0868897 0
M  V30 10737 C 1015.25 -1.85495 -0.620561 0
M  V30 10738 C 1015.63 -0.982218 -1.86857 0
M  V30 10739 O 1014.98 -0.0524529 -2.2844 0
M  V30 10740 C 1015.19 -3.35996 -0.943798 0
M  V30 10741 C 1016.54 -4.03861 -1.31079 0
M  V30 10742 O 1017.56 -3.4083 -1.03507 0
M  V30 10743 O 1016.42 -5.15062 -1.82683 0
M  V30 10744 H 1013.52 -0.766822 -0.309697 0
M  V30 10745 H 1016.06 -1.69282 0.118966 0
M  V30 10746 H 1014.83 -3.91257 -0.0580628 0
M  V30 10747 H 1014.46 -3.57525 -1.73958 0
M  V30 10748 N 1015.45 0.186762 -1.56489 0
M  V30 10749 C 1016.7 0.907194 -1.81378 0
M  V30 10750 C 1017.03 1.82558 -0.662283 0
M  V30 10751 O 1016.31 1.91564 0.336699 0
M  V30 10752 C 1016.59 1.71624 -3.16571 0
M  V30 10753 C 1016.44 0.822009 -4.42225 0
M  V30 10754 C 1017.76 2.68713 -3.48542 0
M  V30 10755 H 1014.88 0.328366 -0.659806 0
M  V30 10756 H 1017.52 0.174142 -1.892 0
M  V30 10757 H 1015.67 2.34119 -3.10033 0
M  V30 10758 H 1017.35 0.211122 -4.60817 0
M  V30 10759 H 1015.59 0.129178 -4.33608 0
M  V30 10760 H 1016.26 1.42326 -5.33336 0
M  V30 10761 H 1018.74 2.16348 -3.55433 0
M  V30 10762 H 1017.61 3.22397 -4.44242 0
M  V30 10763 H 1017.87 3.48165 -2.72459 0
M  V30 10764 N 1016.93 1.50896 0.454776 0
M  V30 10765 C 1018.16 1.6648 1.22849 0
M  V30 10766 C 1018.58 0.354841 1.85435 0
M  V30 10767 O 1017.93 -0.664931 1.69956 0
M  V30 10768 C 1017.98 2.76787 2.32532 0
M  V30 10769 O 1017.7 4.02706 1.72509 0
M  V30 10770 C 1019.21 3.03488 3.23125 0
M  V30 10771 H 1016.43 0.559152 0.370932 0
M  V30 10772 H 1018.97 1.97215 0.540983 0
M  V30 10773 H 1017.12 2.48701 2.9703 0
M  V30 10774 H 1017.54 4.63834 2.44863 0
M  V30 10775 H 1019.01 3.84294 3.9626 0
M  V30 10776 H 1019.49 2.152 3.82865 0
M  V30 10777 H 1020.1 3.33167 2.64347 0
M  V30 10778 N 1018.41 -0.709066 1.40748 0
M  V30 10779 C 1019.69 -1.4626 1.29874 0
M  V30 10780 C 1020.07 -2.10949 -0.0799322 0
M  V30 10781 O 1019.42 -2.00651 -1.09323 0
M  V30 10782 C 1019.63 -2.49302 2.44232 0
M  V30 10783 C 1020.97 -3.14945 2.84771 0
M  V30 10784 O 1022 -2.59623 2.43873 0
M  V30 10785 O 1020.86 -4.15111 3.5545 0
M  V30 10786 H 1017.95 -0.650716 0.51039 0
M  V30 10787 H 1020.5 -0.740687 1.52682 0
M  V30 10788 H 1019.27 -2.00063 3.36289 0
M  V30 10789 H 1018.89 -3.29021 2.23229 0
M  V30 10790 N 1019.89 -1.26353 -0.941956 0
M  V30 10791 C 1021.3 -1.10774 -1.50287 0
M  V30 10792 C 1021.65 0.312229 -1.937 0
M  V30 10793 O 1020.78 1.20364 -1.79838 0
M  V30 10794 C 1021.37 -2.00473 -2.73123 0
M  V30 10795 C 1019.93 -1.89042 -3.25485 0
M  V30 10796 C 1019.08 -1.93869 -1.98267 0
M  V30 10797 H 1022.03 -1.39454 -0.757523 0
M  V30 10798 H 1022.05 -1.55216 -3.47402 0
M  V30 10799 H 1021.56 -3.03812 -2.41495 0
M  V30 10800 H 1019.66 -0.886341 -3.61904 0
M  V30 10801 H 1019.78 -2.74533 -3.92643 0
M  V30 10802 H 1018.14 -1.37912 -2.14132 0
M  V30 10803 H 1018.92 -2.98837 -1.68972 0
M  V30 10804 N 1021.37 1.14642 -1.08144 0
M  V30 10805 C 1022.31 2.1964 -0.708995 0
M  V30 10806 C 1023.28 1.63303 0.303512 0
M  V30 10807 O 1024.47 1.8987 0.18813 0
M  V30 10808 C 1021.61 3.44886 -0.121585 0
M  V30 10809 C 1020.72 4.15386 -1.18654 0
M  V30 10810 C 1019.86 5.28205 -0.56328 0
M  V30 10811 C 1018.9 5.90534 -1.61046 0
M  V30 10812 N 1018.03 6.94809 -1.00919 0
M  V30 10813 H 1022.87 2.50848 -1.6087 0
M  V30 10814 H 1020.41 1.23185 -0.803975 0
M  V30 10815 H 1022.37 4.16528 0.23668 0
M  V30 10816 H 1021 3.14169 0.741445 0
M  V30 10817 H 1020.05 3.42159 -1.66227 0
M  V30 10818 H 1021.36 4.57809 -1.9802 0
M  V30 10819 H 1020.52 6.06507 -0.153109 0
M  V30 10820 H 1019.26 4.86995 0.262066 0
M  V30 10821 H 1018.26 5.10938 -2.03033 0
M  V30 10822 H 1019.49 6.33819 -2.43824 0
M  V30 10823 H 1017.43 6.5568 -0.204894 0
M  V30 10824 H 1017.35 7.35704 -1.73999 0
M  V30 10825 H 1018.62 7.76992 -0.624792 0
M  V30 10826 N 1022.85 0.866709 1.31628 0
M  V30 10827 C 1024.26 0.558188 1.49521 0
M  V30 10828 C 1024.46 -0.90844 1.7986 0
M  V30 10829 O 1023.52 -1.6908 1.87531 0
M  V30 10830 C 1024.83 1.45559 2.63122 0
M  V30 10831 C 1026.38 1.45728 2.77006 0
M  V30 10832 C 1026.85 2.34017 3.937 0
M  V30 10833 N 1028.34 2.31879 4.00982 0
M  V30 10834 C 1029.08 2.96915 4.90539 0
M  V30 10835 N 1028.58 3.71109 5.85021 0
M  V30 10836 N 1030.37 2.86241 4.83759 0
M  V30 10837 H 1022.52 1.81574 1.10203 0
M  V30 10838 H 1024.78 0.77621 0.544244 0
M  V30 10839 H 1024.49 2.49904 2.47469 0
M  V30 10840 H 1024.36 1.15174 3.59186 0
M  V30 10841 H 1026.75 0.421419 2.92075 0
M  V30 10842 H 1026.83 1.80134 1.81619 0
M  V30 10843 H 1026.47 3.37678 3.79389 0
M  V30 10844 H 1026.4 1.96937 4.88388 0
M  V30 10845 H 1028.9 1.77948 3.33381 0
M  V30 10846 H 1029.21 4.1787 6.5008 0
M  V30 10847 H 1027.55 3.75217 5.8501 0
M  V30 10848 H 1030.74 2.27819 4.08921 0
M  V30 10849 H 1030.92 3.37206 5.5335 0
M  V30 10850 N 1024.32 -1.44642 0.625825 0
M  V30 10851 C 1025.57 -2.01308 0.125682 0
M  V30 10852 C 1025.89 -1.49773 -1.25807 0
M  V30 10853 O 1027.09 -1.98533 -1.85194 0
M  V30 10854 C 1025.55 -3.59479 0.17395 0
M  V30 10855 C 1025.16 -4.20011 1.55868 0
M  V30 10856 C 1026.9 -4.2364 -0.270005 0
M  V30 10857 C 1024.81 -5.7039 1.56235 0
M  V30 10858 H 1023.74 -0.75276 0.0432194 0
M  V30 10859 H 1026.39 -1.65916 0.783842 0
M  V30 10860 H 1024.77 -3.92145 -0.551212 0
M  V30 10861 H 1025.94 -3.98891 2.307 0
M  V30 10862 H 1024.26 -3.68116 1.94627 0
M  V30 10863 H 1026.86 -5.33931 -0.28672 0
M  V30 10864 H 1027.2 -3.95603 -1.29629 0
M  V30 10865 H 1027.73 -3.95759 0.402487 0
M  V30 10866 H 1024.47 -6.03154 2.56683 0
M  V30 10867 H 1023.99 -5.93648 0.856881 0
M  V30 10868 H 1025.67 -6.33929 1.29396 0
M  V30 10869 N 1025.8 -0.366053 -1.5329 0
M  V30 10870 C 1026.75 0.480205 -2.25749 0
M  V30 10871 C 1027.72 1.07713 -1.2644 0
M  V30 10872 O 1028.9 1.10953 -1.55222 0
M  V30 10873 C 1026.04 1.61374 -3.05045 0
M  V30 10874 C 1025.16 1.04194 -4.19246 0
M  V30 10875 C 1024.29 2.14462 -4.85983 0
M  V30 10876 C 1023.33 1.5475 -5.92215 0
M  V30 10877 N 1022.47 2.58852 -6.52641 0
M  V30 10878 H 1027.31 -0.144199 -2.97651 0
M  V30 10879 H 1024.84 -0.0829321 -1.46866 0
M  V30 10880 H 1026.8 2.28144 -3.49294 0
M  V30 10881 H 1025.43 2.2088 -2.35397 0
M  V30 10882 H 1024.48 0.264514 -3.79479 0
M  V30 10883 H 1025.8 0.565379 -4.95585 0
M  V30 10884 H 1024.95 2.89051 -5.33418 0
M  V30 10885 H 1023.69 2.6547 -4.09117 0
M  V30 10886 H 1022.69 0.786759 -5.44142 0
M  V30 10887 H 1023.92 1.04566 -6.71001 0
M  V30 10888 H 1021.87 3.09073 -5.78627 0
M  V30 10889 H 1021.78 2.15884 -7.24521 0
M  V30 10890 H 1023.05 3.33142 -7.04724 0
M  V30 10891 N 1027.28 1.57312 -0.0952337 0
M  V30 10892 C 1028.23 2.14032 0.863657 0
M  V30 10893 C 1029.2 1.0589 1.27971 0
M  V30 10894 O 1030.38 1.33678 1.36143 0
M  V30 10895 C 1027.52 2.72513 2.11733 0
M  V30 10896 C 1026.63 3.94887 1.7518 0
M  V30 10897 C 1025.77 4.41533 2.95334 0
M  V30 10898 C 1024.81 5.56496 2.54908 0
M  V30 10899 N 1023.95 5.97993 3.67897 0
M  V30 10900 H 1028.79 2.95655 0.373115 0
M  V30 10901 H 1026.32 1.46085 0.172497 0
M  V30 10902 H 1028.28 3.04539 2.85153 0
M  V30 10903 H 1026.91 1.93618 2.58287 0
M  V30 10904 H 1025.96 3.69175 0.917279 0
M  V30 10905 H 1027.27 4.78322 1.41455 0
M  V30 10906 H 1026.43 4.75343 3.77007 0
M  V30 10907 H 1025.17 3.56999 3.3227 0
M  V30 10908 H 1024.17 5.22314 1.71662 0
M  V30 10909 H 1025.4 6.42779 2.19117 0
M  V30 10910 H 1023.34 5.16405 4.04551 0
M  V30 10911 H 1023.26 6.76225 3.38018 0
M  V30 10912 H 1024.53 6.36434 4.5008 0
M  V30 10913 N 1028.76 -0.17846 1.56586 0
M  V30 10914 C 1030 -0.90281 1.83381 0
M  V30 10915 C 1030.36 -1.79738 0.675139 0
M  V30 10916 O 1031.56 -2.55879 0.823368 0
M  V30 10917 C 1029.83 -1.68353 3.15265 0
M  V30 10918 S 1031.39 -2.45762 3.6352 0
M  V30 10919 H 1028.21 -0.302508 0.643436 0
M  V30 10920 H 1030.81 -0.164961 1.94803 0
M  V30 10921 H 1029.52 -1.01725 3.97593 0
M  V30 10922 H 1029.05 -2.46289 3.06766 0
M  V30 10923 H 1031.06 -3.70312 3.30278 0
M  V30 10924 N 1030.24 -1.51135 -0.446768 0
M  V30 10925 C 1031.48 -1.63013 -1.19461 0
M  V30 10926 C 1031.8 -0.344067 -1.91941 0
M  V30 10927 O 1031.07 0.639666 -1.85162 0
M  V30 10928 H 1029.65 -0.600757 -0.443959 0
M  V30 10929 H 1032.32 -1.88024 -0.513137 0
M  V30 10930 H 1031.41 -2.45322 -1.92933 0
M  V30 10931 N 1031.71 0.701592 -1.41122 0
M  V30 10932 C 1032.95 1.4739 -1.41618 0
M  V30 10933 C 1033.32 1.91987 -0.0219443 0
M  V30 10934 O 1034.52 2.6862 0.0982793 0
M  V30 10935 C 1032.79 2.65745 -2.38986 0
M  V30 10936 S 1034.35 3.54968 -2.5796 0
M  V30 10937 H 1031.17 0.503742 -0.501762 0
M  V30 10938 H 1033.77 0.819186 -1.77509 0
M  V30 10939 H 1032.47 2.31176 -3.39096 0
M  V30 10940 H 1032 3.36115 -2.04426 0
M  V30 10941 H 1034.02 4.60724 -1.84249 0
M  V30 10942 N 1033.19 1.2685 0.935242 0
M  V30 10943 C 1034.61 1.04091 1.20984 0
M  V30 10944 C 1034.81 -0.230242 2.0018 0
M  V30 10945 O 1033.86 -0.93778 2.3444 0
M  V30 10946 C 1035.18 2.27586 1.96533 0
M  V30 10947 C 1036.72 2.32547 2.09501 0
M  V30 10948 C 1037.2 3.55751 2.88454 0
M  V30 10949 N 1038.69 3.56263 2.96025 0
M  V30 10950 C 1039.43 4.48262 3.57559 0
M  V30 10951 N 1038.92 5.50557 4.20546 0
M  V30 10952 N 1040.71 4.35901 3.5489 0
M  V30 10953 H 1032.87 2.08484 0.405954 0
M  V30 10954 H 1035.13 0.916548 0.242164 0
M  V30 10955 H 1034.83 3.20076 1.45753 0
M  V30 10956 H 1034.71 2.32305 2.97177 0
M  V30 10957 H 1037.1 1.40568 2.5947 0
M  V30 10958 H 1037.18 2.31836 1.08101 0
M  V30 10959 H 1036.82 4.48063 2.3917 0
M  V30 10960 H 1036.75 3.53711 3.90123 0
M  V30 10961 H 1039.24 2.82278 2.51252 0
M  V30 10962 H 1039.55 6.16935 4.65415 0
M  V30 10963 H 1037.9 5.54407 4.19115 0
M  V30 10964 H 1041.09 3.552 3.04879 0
M  V30 10965 H 1041.26 5.07792 4.02557 0
M  V30 10966 N 1034.67 -1.14067 1.0875 0
M  V30 10967 C 1036.09 -1.37173 0.815823 0
M  V30 10968 C 1036.29 -1.93175 -0.573215 0
M  V30 10969 O 1035.34 -2.14672 -1.32937 0
M  V30 10970 C 1036.66 -2.32955 1.90138 0
M  V30 10971 C 1038.2 -2.46586 1.9278 0
M  V30 10972 C 1038.68 -3.4567 3.0046 0
M  V30 10973 N 1040.17 -3.53216 2.99655 0
M  V30 10974 C 1040.9 -4.29743 3.79616 0
M  V30 10975 N 1040.4 -5.09484 4.69466 0
M  V30 10976 N 1042.19 -4.24975 3.67903 0
M  V30 10977 H 1034.34 -0.760648 1.98313 0
M  V30 10978 H 1036.61 -0.397135 0.860807 0
M  V30 10979 H 1036.31 -1.98949 2.90021 0
M  V30 10980 H 1036.19 -3.32897 1.77368 0
M  V30 10981 H 1038.57 -2.79882 0.935404 0
M  V30 10982 H 1038.66 -1.46593 2.09629 0
M  V30 10983 H 1038.3 -3.13106 3.99909 0
M  V30 10984 H 1038.23 -4.45452 2.80856 0
M  V30 10985 H 1040.72 -2.96314 2.34535 0
M  V30 10986 H 1041.03 -5.65163 5.27077 0
M  V30 10987 H 1039.38 -5.08741 4.73506 0
M  V30 10988 H 1042.57 -3.61751 2.97075 0
M  V30 10989 H 1042.74 -4.84364 4.30459 0
M  V30 10990 N 1036.15 -0.873678 -1.31166 0
M  V30 10991 C 1037.08 -0.348011 -2.30892 0
M  V30 10992 C 1038.06 0.563092 -1.60509 0
M  V30 10993 O 1039.24 0.479332 -1.88192 0
M  V30 10994 C 1036.37 0.448158 -3.44396 0
M  V30 10995 C 1035.33 -0.370179 -4.26396 0
M  V30 10996 C 1034.65 0.551903 -5.31844 0
M  V30 10997 C 1035.95 -1.60624 -4.96988 0
M  V30 10998 H 1037.65 -1.18134 -2.75109 0
M  V30 10999 H 1035.19 -0.569502 -1.3226 0
M  V30 11000 H 1037.15 0.826458 -4.13216 0
M  V30 11001 H 1035.87 1.31503 -2.98956 0
M  V30 11002 H 1034.53 -0.730472 -3.59249 0
M  V30 11003 H 1034.18 1.41616 -4.82653 0
M  V30 11004 H 1033.88 0.00823478 -5.87599 0
M  V30 11005 H 1035.4 0.926965 -6.03523 0
M  V30 11006 H 1036.82 -1.29917 -5.58386 0
M  V30 11007 H 1035.21 -2.08926 -5.62557 0
M  V30 11008 H 1036.28 -2.357 -4.23761 0
M  V30 11009 N 1037.63 1.44308 -0.633487 0
M  V30 11010 C 1038.54 2.34492 0.0711787 0
M  V30 11011 C 1039.55 1.52754 0.8332 0
M  V30 11012 O 1040.73 1.85475 0.784929 0
M  V30 11013 C 1037.79 3.30767 1.03895 0
M  V30 11014 C 1036.85 4.28412 0.276043 0
M  V30 11015 C 1036.09 5.20087 1.19772 0
M  V30 11016 O 1036.31 5.15743 2.4365 0
M  V30 11017 O 1035.24 5.98038 0.680764 0
M  V30 11018 H 1039.07 2.96203 -0.67063 0
M  V30 11019 H 1036.66 1.4412 -0.393678 0
M  V30 11020 H 1038.54 3.90021 1.59566 0
M  V30 11021 H 1037.21 2.71586 1.76133 0
M  V30 11022 H 1036.12 3.72696 -0.32377 0
M  V30 11023 H 1037.45 4.9052 -0.406364 0
M  V30 11024 N 1039.1 0.374177 1.53094 0
M  V30 11025 C 1040.38 -0.269632 1.93733 0
M  V30 11026 C 1040.76 -1.6566 1.30843 0
M  V30 11027 O 1040.11 -2.23598 0.470759 0
M  V30 11028 C 1040.32 -0.311204 3.4761 0
M  V30 11029 C 1041.67 -0.547432 4.21056 0
M  V30 11030 O 1042.69 -0.392053 3.54036 0
M  V30 11031 O 1041.55 -0.850645 5.39839 0
M  V30 11032 H 1038.64 -0.163723 0.810632 0
M  V30 11033 H 1041.19 0.427586 1.64225 0
M  V30 11034 H 1039.96 0.660897 3.85678 0
M  V30 11035 H 1039.59 -1.05397 3.83376 0
M  V30 11036 N 1040.58 -1.57259 0.103575 0
M  V30 11037 C 1041.49 -2.18018 -0.866327 0
M  V30 11038 C 1042.51 -1.15198 -1.30404 0
M  V30 11039 O 1043.68 -1.47605 -1.37021 0
M  V30 11040 C 1040.75 -2.75533 -2.10434 0
M  V30 11041 C 1039.81 -3.93337 -1.72002 0
M  V30 11042 C 1039.04 -4.481 -2.89901 0
M  V30 11043 O 1039.27 -4.01784 -4.04877 0
M  V30 11044 O 1038.2 -5.39004 -2.67877 0
M  V30 11045 H 1042.03 -3.01322 -0.379338 0
M  V30 11046 H 1039.61 -1.48907 -0.121228 0
M  V30 11047 H 1041.49 -3.12259 -2.8297 0
M  V30 11048 H 1040.17 -1.9527 -2.58169 0
M  V30 11049 H 1039.08 -3.61408 -0.966193 0
M  V30 11050 H 1040.41 -4.74989 -1.29022 0
M  V30 11051 N 1042.06 0.170153 -1.56679 0
M  V30 11052 C 1042.99 1.23525 -1.93066 0
M  V30 11053 C 1044.01 1.40414 -0.823879 0
M  V30 11054 O 1045.19 1.40396 -1.10232 0
M  V30 11055 C 1042.29 2.60376 -2.16928 0
M  V30 11056 C 1041.47 2.6477 -3.4816 0
M  V30 11057 C 1040.53 3.82993 -3.60837 0
M  V30 11058 O 1039.55 3.68937 -4.33444 0
M  V30 11059 N 1040.75 4.99498 -2.95773 0
M  V30 11060 H 1043.52 0.926172 -2.8503 0
M  V30 11061 H 1041.08 0.359909 -1.57849 0
M  V30 11062 H 1043.07 3.37934 -2.22672 0
M  V30 11063 H 1041.64 2.83669 -1.31342 0
M  V30 11064 H 1040.86 1.73298 -3.54064 0
M  V30 11065 H 1042.15 2.64717 -4.34514 0
M  V30 11066 H 1041.55 5.13819 -2.36657 0
M  V30 11067 H 1040.11 5.74914 -3.07111 0
M  V30 11068 N 1043.54 1.5137 0.438746 0
M  V30 11069 C 1044.95 1.56462 1.01866 0
M  V30 11070 C 1045.3 0.387244 1.9234 0
M  V30 11071 O 1044.43 -0.496131 2.10636 0
M  V30 11072 C 1045.02 2.83557 1.85421 0
M  V30 11073 C 1043.58 2.91224 2.38464 0
M  V30 11074 C 1042.73 2.51109 1.17641 0
M  V30 11075 H 1045.68 1.57167 0.220072 0
M  V30 11076 H 1045.7 2.6724 2.70857 0
M  V30 11077 H 1045.21 3.69229 1.19546 0
M  V30 11078 H 1043.31 2.09979 3.07798 0
M  V30 11079 H 1043.42 3.94844 2.71358 0
M  V30 11080 H 1041.79 2.04276 1.5213 0
M  V30 11081 H 1042.57 3.39125 0.533785 0
M  V30 11082 N 1045.02 -0.694098 1.41492 0
M  V30 11083 C 1046.43 -1.27407 1.36471 0
M  V30 11084 C 1046.78 -1.9614 0.0485209 0
M  V30 11085 O 1045.9 -1.98871 -0.853188 0
M  V30 11086 C 1046.5 -2.31698 2.47188 0
M  V30 11087 C 1045.06 -2.85268 2.45559 0
M  V30 11088 C 1044.2 -1.59325 2.2696 0
M  V30 11089 H 1047.16 -0.488756 1.50986 0
M  V30 11090 H 1047.18 -3.1302 2.1633 0
M  V30 11091 H 1046.69 -1.81644 3.42968 0
M  V30 11092 H 1044.79 -3.39494 1.5354 0
M  V30 11093 H 1044.9 -3.35598 3.41922 0
M  V30 11094 H 1043.27 -1.85188 1.74864 0
M  V30 11095 H 1044.05 -1.11265 3.24769 0
M  V30 11096 N 1046.49 -1.27344 -0.928501 0
M  V30 11097 C 1047.72 -1.16447 -1.7102 0
M  V30 11098 C 1048.14 0.278799 -1.8673 0
M  V30 11099 O 1047.49 1.18989 -1.38376 0
M  V30 11100 C 1047.55 -1.84242 -3.11026 0
M  V30 11101 O 1047.27 -3.2293 -2.96054 0
M  V30 11102 C 1048.77 -1.7946 -4.05351 0
M  V30 11103 H 1045.99 -0.404898 -0.535069 0
M  V30 11104 H 1048.53 -1.68201 -1.16313 0
M  V30 11105 H 1046.69 -1.36395 -3.62595 0
M  V30 11106 H 1047.1 -3.5667 -3.8456 0
M  V30 11107 H 1048.57 -2.31511 -5.01105 0
M  V30 11108 H 1049.05 -0.763771 -4.32508 0
M  V30 11109 H 1049.66 -2.26918 -3.59706 0
M  V30 11110 N 1047.97 1.13488 -1.09353 0
M  V30 11111 C 1048.9 2.20988 -0.75409 0
M  V30 11112 C 1049.88 1.67977 0.267901 0
M  V30 11113 O 1051.07 1.93722 0.136128 0
M  V30 11114 C 1048.2 3.46869 -0.173042 0
M  V30 11115 C 1047.15 4.12965 -1.12446 0
M  V30 11116 C 1046.48 5.33163 -0.405157 0
M  V30 11117 C 1047.78 4.60388 -2.46658 0
M  V30 11118 H 1049.47 2.49639 -1.6529 0
M  V30 11119 H 1047.02 1.19987 -0.796182 0
M  V30 11120 H 1048.97 4.21331 0.0764988 0
M  V30 11121 H 1047.7 3.17611 0.760956 0
M  V30 11122 H 1046.35 3.40469 -1.35927 0
M  V30 11123 H 1046 5.00169 0.532955 0
M  V30 11124 H 1045.7 5.78332 -1.03952 0
M  V30 11125 H 1047.23 6.1038 -0.163899 0
M  V30 11126 H 1048.64 5.26276 -2.27389 0
M  V30 11127 H 1047.04 5.16294 -3.05876 0
M  V30 11128 H 1048.11 3.74949 -3.07476 0
M  V30 11129 N 1049.45 0.880621 1.30701 0
M  V30 11130 C 1050.68 0.510909 2.01009 0
M  V30 11131 C 1051.1 -0.892041 1.65603 0
M  V30 11132 O 1050.46 -1.59045 0.870309 0
M  V30 11133 C 1050.51 0.687759 3.53981 0
M  V30 11134 O 1049.61 -0.268275 4.11526 0
M  V30 11135 H 1048.95 0.201864 0.632572 0
M  V30 11136 H 1051.48 1.18697 1.6665 0
M  V30 11137 H 1051.49 0.585095 4.03783 0
M  V30 11138 H 1050.17 1.71068 3.79089 0
M  V30 11139 H 1048.74 -0.119673 3.72708 0
M  V30 11140 N 1050.93 -1.4397 0.641131 0
M  V30 11141 C 1052.34 -1.85267 0.230838 0
M  V30 11142 C 1052.69 -1.53659 -1.21998 0
M  V30 11143 O 1051.82 -0.979572 -1.92959 0
M  V30 11144 C 1052.41 -3.36284 0.412171 0
M  V30 11145 C 1050.97 -3.76358 0.0563004 0
M  V30 11146 C 1050.12 -2.67768 0.720809 0
M  V30 11147 H 1053.07 -1.34294 0.845624 0
M  V30 11148 H 1053.09 -3.78924 -0.345936 0
M  V30 11149 H 1052.6 -3.59258 1.46818 0
M  V30 11150 H 1050.7 -3.58997 -0.997582 0
M  V30 11151 H 1050.82 -4.76756 0.473335 0
M  V30 11152 H 1049.18 -2.54227 0.155164 0
M  V30 11153 H 1049.96 -2.93573 1.77961 0
M  V30 11154 N 1052.41 -0.382291 -1.52893 0
M  V30 11155 C 1053.35 0.456234 -2.26246 0
M  V30 11156 C 1054.32 1.06366 -1.27575 0
M  V30 11157 O 1055.51 1.09301 -1.5639 0
M  V30 11158 C 1052.65 1.5813 -3.06739 0
M  V30 11159 C 1051.76 0.997416 -4.20328 0
M  V30 11160 C 1050.9 2.09296 -4.8823 0
M  V30 11161 C 1049.94 1.4846 -5.93823 0
M  V30 11162 N 1049.07 2.51916 -6.55349 0
M  V30 11163 H 1053.91 -0.175761 -2.97481 0
M  V30 11164 H 1051.45 -0.0985046 -1.4677 0
M  V30 11165 H 1053.41 2.24426 -3.51694 0
M  V30 11166 H 1052.04 2.18371 -2.37727 0
M  V30 11167 H 1051.09 0.224251 -3.79738 0
M  V30 11168 H 1052.4 0.512784 -4.96157 0
M  V30 11169 H 1051.56 2.83377 -5.36453 0
M  V30 11170 H 1050.3 2.61116 -4.1191 0
M  V30 11171 H 1049.3 0.729001 -5.44946 0
M  V30 11172 H 1050.53 0.97443 -6.72073 0
M  V30 11173 H 1048.47 3.02919 -5.81873 0
M  V30 11174 H 1048.39 2.08188 -7.26769 0
M  V30 11175 H 1049.66 3.25649 -7.08218 0
M  V30 11176 N 1053.89 1.57202 -0.111913 0
M  V30 11177 C 1054.83 2.14936 0.840908 0
M  V30 11178 C 1055.8 1.07242 1.2684 0
M  V30 11179 O 1056.99 1.35114 1.34718 0
M  V30 11180 C 1054.13 2.74743 2.0883 0
M  V30 11181 C 1053.24 3.96723 1.70982 0
M  V30 11182 C 1052.38 4.4464 2.90634 0
M  V30 11183 C 1051.41 5.59169 2.48992 0
M  V30 11184 N 1050.55 6.01862 3.61534 0
M  V30 11185 H 1055.39 2.96034 0.341735 0
M  V30 11186 H 1052.93 1.4626 0.156993 0
M  V30 11187 H 1054.89 3.07546 2.81907 0
M  V30 11188 H 1053.52 1.96346 2.56218 0
M  V30 11189 H 1052.57 3.70127 0.878072 0
M  V30 11190 H 1053.88 4.79795 1.36373 0
M  V30 11191 H 1053.03 4.79315 3.71944 0
M  V30 11192 H 1051.77 3.60503 3.28464 0
M  V30 11193 H 1050.78 5.24106 1.66113 0
M  V30 11194 H 1052 6.45067 2.12287 0
M  V30 11195 H 1049.95 5.20667 3.99051 0
M  V30 11196 H 1049.87 6.79772 3.30827 0
M  V30 11197 H 1051.13 6.41172 4.43305 0
M  V30 11198 N 1055.36 -0.161842 1.56767 0
M  V30 11199 C 1056.31 -1.2002 1.97139 0
M  V30 11200 C 1057.28 -1.43486 0.836713 0
M  V30 11201 O 1058.47 -1.56069 1.0976 0
M  V30 11202 C 1055.61 -2.53228 2.34456 0
M  V30 11203 C 1054.72 -2.37062 3.61145 0
M  V30 11204 C 1053.85 -3.63202 3.87631 0
M  V30 11205 C 1052.89 -3.42008 5.07638 0
M  V30 11206 N 1052.03 -4.60242 5.30209 0
M  V30 11207 H 1056.87 -0.848918 2.85653 0
M  V30 11208 H 1054.41 -0.407753 1.41336 0
M  V30 11209 H 1056.36 -3.30879 2.54116 0
M  V30 11210 H 1054.99 -2.86333 1.4904 0
M  V30 11211 H 1054.05 -1.50539 3.49345 0
M  V30 11212 H 1055.36 -2.17353 4.48953 0
M  V30 11213 H 1054.51 -4.49285 4.0771 0
M  V30 11214 H 1053.25 -3.85899 2.98216 0
M  V30 11215 H 1052.26 -2.54312 4.87448 0
M  V30 11216 H 1053.48 -3.20724 5.98593 0
M  V30 11217 H 1051.43 -4.8314 4.43747 0
M  V30 11218 H 1051.34 -4.43481 6.12259 0
M  V30 11219 H 1052.61 -5.47581 5.54775 0
M  V30 11220 N 1056.84 -1.516 -0.430713 0
M  V30 11221 C 1057.77 -1.69594 -1.54177 0
M  V30 11222 C 1058.79 -0.576518 -1.5225 0
M  V30 11223 O 1059.98 -0.85104 -1.56906 0
M  V30 11224 C 1057.08 -1.70148 -2.93092 0
M  V30 11225 C 1056.25 -2.98782 -3.1945 0
M  V30 11226 C 1055.31 -2.91435 -4.38123 0
M  V30 11227 O 1054.33 -3.65372 -4.36454 0
M  V30 11228 N 1055.54 -2.0774 -5.42056 0
M  V30 11229 H 1058.3 -2.65442 -1.39143 0
M  V30 11230 H 1055.86 -1.49569 -0.61974 0
M  V30 11231 H 1057.85 -1.62793 -3.70514 0
M  V30 11232 H 1056.42 -0.818667 -3.0169 0
M  V30 11233 H 1055.64 -3.19954 -2.30267 0
M  V30 11234 H 1056.93 -3.83919 -3.33892 0
M  V30 11235 H 1056.33 -1.47059 -5.46251 0
M  V30 11236 H 1054.89 -2.06259 -6.18305 0
M  V30 11237 N 1058.32 0.686584 -1.41858 0
M  V30 11238 C 1059.74 0.998283 -1.24525 0
M  V30 11239 C 1059.94 2.01006 -0.141007 0
M  V30 11240 O 1058.99 2.47667 0.491648 0
M  V30 11241 C 1060.3 1.51432 -2.59786 0
M  V30 11242 C 1061.85 1.6327 -2.67043 0
M  V30 11243 C 1062.33 2.18274 -4.02642 0
M  V30 11244 N 1063.82 2.25622 -4.04535 0
M  V30 11245 C 1064.55 2.69229 -5.06264 0
M  V30 11246 N 1064.05 3.12375 -6.1838 0
M  V30 11247 N 1065.84 2.68873 -4.93623 0
M  V30 11248 H 1057.99 0.0164825 -2.12394 0
M  V30 11249 H 1060.26 0.0698613 -0.945422 0
M  V30 11250 H 1059.96 0.845426 -3.41388 0
M  V30 11251 H 1059.84 2.49502 -2.82894 0
M  V30 11252 H 1062.22 2.29269 -1.85794 0
M  V30 11253 H 1062.3 0.637221 -2.47736 0
M  V30 11254 H 1061.95 1.52887 -4.84343 0
M  V30 11255 H 1061.88 3.18591 -4.19294 0
M  V30 11256 H 1064.37 1.95186 -3.23591 0
M  V30 11257 H 1064.68 3.44301 -6.91864 0
M  V30 11258 H 1063.03 3.10262 -6.21902 0
M  V30 11259 H 1066.22 2.34521 -4.05114 0
M  V30 11260 H 1066.39 3.02539 -5.7304 0
M  V30 11261 N 1059.8 1.27835 0.921735 0
M  V30 11262 C 1060.75 1.1092 2.04449 0
M  V30 11263 C 1061.74 0.0306469 1.69372 0
M  V30 11264 O 1062.95 0.188818 1.79007 0
M  V30 11265 H 1059.32 0.341973 0.669745 0
M  V30 11266 H 1061.29 2.06026 2.1586 0
M  V30 11267 C 1060.04 0.779443 3.38851 0
M  V30 11268 H 1059.36 1.60131 3.66331 0
M  V30 11269 H 1060.8 0.700999 4.18165 0
M  V30 11270 C 1059.26 -0.51647 3.32918 0
M  V30 11271 O 1059.79 -1.54914 3.70627 0
M  V30 11272 N 1058 -0.514276 2.86013 0
M  V30 11273 H 1057.55 0.32651 2.55522 0
M  V30 11274 H 1057.5 -1.38141 2.82426 0
M  V30 11275 N 1061.28 -1.12907 1.09954 0
M  V30 11276 C 1062.52 -1.83941 0.837255 0
M  V30 11277 C 1062.84 -1.84234 -0.638984 0
M  V30 11278 O 1062.11 -1.30193 -1.46378 0
M  V30 11279 H 1060.69 -0.681115 0.306743 0
M  V30 11280 H 1063.36 -1.36743 1.38879 0
M  V30 11281 H 1062.45 -2.88289 1.19565 0
M  V30 11282 N 1062.75 -0.88754 -1.30232 0
M  V30 11283 C 1064 -0.506277 -1.95656 0
M  V30 11284 C 1064.32 0.948191 -1.70395 0
M  V30 11285 O 1063.59 1.66701 -1.02895 0
M  V30 11286 H 1062.17 -0.184235 -0.723924 0
M  V30 11287 H 1064.83 -1.13118 -1.58715 0
M  V30 11288 H 1063.93 -0.678673 -3.04632 0
M  V30 11289 N 1064.23 1.43628 -0.648757 0
M  V30 11290 C 1065.17 2.28001 0.0952198 0
M  V30 11291 C 1066.14 1.39569 0.834225 0
M  V30 11292 O 1067.33 1.69011 0.834711 0
M  V30 11293 C 1064.45 3.18886 1.14145 0
M  V30 11294 C 1063.5 4.23547 0.500996 0
M  V30 11295 S 1064.33 5.30609 -0.722118 0
M  V30 11296 C 1065.49 6.25062 0.323687 0
M  V30 11297 H 1065.72 2.90752 -0.620511 0
M  V30 11298 H 1063.26 1.48073 -0.437457 0
M  V30 11299 H 1065.21 3.71795 1.74008 0
M  V30 11300 H 1063.87 2.55322 1.82947 0
M  V30 11301 H 1063.07 4.87224 1.28954 0
M  V30 11302 H 1062.67 3.73993 -0.0234176 0
M  V30 11303 H 1064.96 6.66946 1.19118 0
M  V30 11304 H 1065.9 7.07554 -0.277939 0
M  V30 11305 H 1066.31 5.60658 0.657493 0
M  V30 11306 N 1065.71 0.390394 1.52688 0
M  V30 11307 C 1067.13 0.0404028 1.59549 0
M  V30 11308 C 1067.33 -1.44503 1.40432 0
M  V30 11309 O 1066.38 -2.20968 1.22187 0
M  V30 11310 C 1067.7 0.518561 2.96195 0
M  V30 11311 C 1069.24 0.474913 3.09376 0
M  V30 11312 C 1069.72 0.929278 4.48473 0
M  V30 11313 N 1071.21 0.885335 4.5466 0
M  V30 11314 C 1071.94 1.2083 5.60524 0
M  V30 11315 N 1071.44 1.6018 6.74028 0
M  V30 11316 N 1073.23 1.12949 5.50635 0
M  V30 11317 H 1065.38 1.35743 1.63363 0
M  V30 11318 H 1067.65 0.556453 0.767505 0
M  V30 11319 H 1067.35 1.55606 3.15404 0
M  V30 11320 H 1067.23 -0.081779 3.77111 0
M  V30 11321 H 1069.61 -0.553503 2.89863 0
M  V30 11322 H 1069.7 1.11107 2.3041 0
M  V30 11323 H 1069.34 1.95593 4.68728 0
M  V30 11324 H 1069.27 0.270121 5.25907 0
M  V30 11325 H 1071.76 0.595787 3.73174 0
M  V30 11326 H 1072.07 1.83184 7.50775 0
M  V30 11327 H 1070.42 1.64067 6.75357 0
M  V30 11328 H 1073.61 0.821074 4.60843 0
M  V30 11329 H 1073.78 1.3845 6.33037 0
M  V30 11330 N 1067.19 -1.57141 0.120249 0
M  V30 11331 C 1068.14 -2.16638 -0.846809 0
M  V30 11332 C 1069.13 -1.11594 -1.27449 0
M  V30 11333 O 1070.34 -1.29895 -1.24608 0
M  V30 11334 H 1066.71 -0.693331 -0.291197 0
M  V30 11335 H 1068.68 -2.96673 -0.320536 0
M  V30 11336 C 1067.43 -2.78134 -2.08655 0
M  V30 11337 H 1066.75 -3.58662 -1.76639 0
M  V30 11338 H 1068.19 -3.23301 -2.74322 0
M  V30 11339 C 1066.65 -1.7528 -2.87713 0
M  V30 11340 O 1067.18 -1.20693 -3.8314 0
M  V30 11341 N 1065.39 -1.45192 -2.51729 0
M  V30 11342 H 1064.94 -1.89773 -1.74195 0
M  V30 11343 H 1064.89 -0.766166 -3.04922 0
M  V30 11344 N 1068.67 0.153526 -1.5685 0
M  V30 11345 C 1069.89 0.886343 -1.87507 0
M  V30 11346 C 1070.32 1.74244 -0.708565 0
M  V30 11347 O 1069.67 1.78045 0.341997 0
M  V30 11348 C 1069.72 1.72428 -3.16703 0
M  V30 11349 O 1068.83 2.82784 -3.00178 0
M  V30 11350 H 1068.17 0.247259 -0.616246 0
M  V30 11351 H 1070.7 0.146306 -2.04076 0
M  V30 11352 H 1070.71 2.12062 -3.4856 0
M  V30 11353 H 1069.38 1.09558 -4.01211 0
M  V30 11354 H 1067.96 2.46604 -2.79716 0
M  V30 11355 N 1070.14 1.51827 0.422667 0
M  V30 11356 C 1071.56 1.57533 1.00201 0
M  V30 11357 C 1071.91 0.407623 1.91919 0
M  V30 11358 O 1071.03 -0.473763 2.1115 0
M  V30 11359 C 1071.63 2.85508 1.82403 0
M  V30 11360 C 1070.19 2.93737 2.35362 0
M  V30 11361 C 1069.33 2.52343 1.14971 0
M  V30 11362 H 1072.28 1.57391 0.20339 0
M  V30 11363 H 1072.3 2.70097 2.68007 0
M  V30 11364 H 1071.82 3.70477 1.15623 0
M  V30 11365 H 1069.92 2.13231 3.05554 0
M  V30 11366 H 1070.03 3.977 2.67155 0
M  V30 11367 H 1068.39 2.05878 1.49955 0
M  V30 11368 H 1069.18 3.39672 0.497786 0
M  V30 11369 N 1071.62 -0.679052 1.4222 0
M  V30 11370 C 1072.57 -1.81398 1.45594 0
M  V30 11371 C 1073.56 -1.66112 0.332127 0
M  V30 11372 O 1074.77 -1.72772 0.504942 0
M  V30 11373 H 1071.15 -0.598045 0.455902 0
M  V30 11374 H 1073.12 -1.7567 2.41211 0
M  V30 11375 C 1071.87 -3.19525 1.37109 0
M  V30 11376 H 1071.19 -3.31912 2.22878 0
M  V30 11377 H 1072.63 -3.98967 1.43531 0
M  V30 11378 C 1071.09 -3.36792 0.0853593 0
M  V30 11379 O 1071.62 -3.92309 -0.863532 0
M  V30 11380 N 1069.82 -2.906 0.00389229 0
M  V30 11381 H 1069.37 -2.45607 0.776846 0
M  V30 11382 H 1069.33 -3.0253 -0.855742 0
M  V30 11383 N 1073.1 -1.28322 -0.914942 0
M  V30 11384 C 1074.33 -1.18254 -1.69775 0
M  V30 11385 C 1074.74 0.258978 -1.87015 0
M  V30 11386 O 1074.1 1.17514 -1.3963 0
M  V30 11387 C 1074.15 -1.8753 -3.09054 0
M  V30 11388 O 1073.87 -3.26051 -2.92613 0
M  V30 11389 C 1075.37 -1.83749 -4.03424 0
M  V30 11390 H 1072.59 -0.41055 -0.530744 0
M  V30 11391 H 1075.14 -1.69425 -1.14523 0
M  V30 11392 H 1073.29 -1.40233 -3.61128 0
M  V30 11393 H 1073.71 -3.60729 -3.80756 0
M  V30 11394 H 1075.18 -2.36813 -4.98622 0
M  V30 11395 H 1075.66 -0.809601 -4.31674 0
M  V30 11396 H 1076.26 -2.3072 -3.57279 0
M  V30 11397 N 1074.58 1.12322 -1.10551 0
M  V30 11398 C 1075.8 1.8822 -0.871093 0
M  V30 11399 C 1076.23 1.7916 0.573005 0
M  V30 11400 O 1075.59 1.14738 1.40374 0
M  V30 11401 C 1075.63 3.35349 -1.32565 0
M  V30 11402 O 1074.74 4.09461 -0.49145 0
M  V30 11403 H 1074.08 0.584787 -0.314516 0
M  V30 11404 H 1076.61 1.42039 -1.47262 0
M  V30 11405 H 1076.62 3.86189 -1.31612 0
M  V30 11406 H 1075.29 3.4126 -2.37728 0
M  V30 11407 H 1073.87 3.68575 -0.566294 0
M  V30 11408 N 1076.06 0.894434 1.2976 0
M  V30 11409 C 1077.47 0.566892 1.77885 0
M  V30 11410 C 1077.82 -0.917289 1.73437 0
M  V30 11411 O 1076.94 -1.71707 1.31703 0
M  V30 11412 C 1077.54 1.02227 3.2301 0
M  V30 11413 C 1076.1 0.745978 3.68934 0
M  V30 11414 C 1075.24 1.19993 2.49994 0
M  V30 11415 H 1078.2 1.0777 1.16496 0
M  V30 11416 H 1078.22 0.355281 3.78838 0
M  V30 11417 H 1077.73 2.1025 3.26215 0
M  V30 11418 H 1075.83 -0.321866 3.71207 0
M  V30 11419 H 1075.94 1.34017 4.59974 0
M  V30 11420 H 1074.31 0.619047 2.47063 0
M  V30 11421 H 1075.09 2.28811 2.55931 0
M  V30 11422 N 1077.53 -1.43282 0.656365 0
M  V30 11423 C 1078.48 -2.30776 -0.0333155 0
M  V30 11424 C 1079.45 -1.44928 -0.811493 0
M  V30 11425 O 1080.64 -1.73792 -0.787465 0
M  V30 11426 C 1077.78 -3.30548 -0.991566 0
M  V30 11427 C 1076.89 -4.31493 -0.209159 0
M  V30 11428 C 1076.02 -5.18346 -1.16149 0
M  V30 11429 C 1075.06 -6.10983 -0.369699 0
M  V30 11430 N 1074.2 -6.90449 -1.27378 0
M  V30 11431 H 1079.04 -2.89204 0.718668 0
M  V30 11432 H 1076.58 -1.4247 0.366161 0
M  V30 11433 H 1078.54 -3.86905 -1.56078 0
M  V30 11434 H 1077.17 -2.73762 -1.71039 0
M  V30 11435 H 1076.22 -3.77405 0.476394 0
M  V30 11436 H 1077.53 -4.97142 0.406394 0
M  V30 11437 H 1076.68 -5.79345 -1.80124 0
M  V30 11438 H 1075.42 -4.52831 -1.81095 0
M  V30 11439 H 1074.43 -5.49069 0.283377 0
M  V30 11440 H 1075.65 -6.78541 0.275399 0
M  V30 11441 H 1073.6 -6.27579 -1.90999 0
M  V30 11442 H 1073.52 -7.52631 -0.71287 0
M  V30 11443 H 1074.78 -7.5595 -1.90158 0
M  V30 11444 N 1079.01 -0.398486 -1.52479 0
M  V30 11445 C 1079.94 0.423498 -2.29627 0
M  V30 11446 C 1080.92 1.05547 -1.33394 0
M  V30 11447 O 1082.11 1.0665 -1.62294 0
M  V30 11448 C 1079.24 1.54612 -3.10986 0
M  V30 11449 C 1078.19 1.03971 -4.15179 0
M  V30 11450 C 1077.52 2.25512 -4.84818 0
M  V30 11451 C 1078.82 0.10121 -5.22202 0
M  V30 11452 H 1080.51 -0.220222 -2.98589 0
M  V30 11453 H 1078.06 -0.107355 -1.43599 0
M  V30 11454 H 1080.01 2.12806 -3.63719 0
M  V30 11455 H 1078.74 2.21756 -2.39774 0
M  V30 11456 H 1077.4 0.480251 -3.63441 0
M  V30 11457 H 1077.04 2.91187 -4.10145 0
M  V30 11458 H 1076.74 1.92285 -5.55248 0
M  V30 11459 H 1078.27 2.84331 -5.40359 0
M  V30 11460 H 1079.68 0.591617 -5.70239 0
M  V30 11461 H 1078.08 -0.141737 -5.99933 0
M  V30 11462 H 1079.15 -0.847216 -4.77441 0
M  V30 11463 N 1080.49 1.57075 -0.12858 0
M  V30 11464 C 1081.42 2.11553 0.855593 0
M  V30 11465 C 1082.4 1.03435 1.25459 0
M  V30 11466 O 1083.59 1.3115 1.35395 0
M  V30 11467 C 1080.71 2.62012 2.14633 0
M  V30 11468 C 1079.76 3.82105 1.89467 0
M  V30 11469 S 1080.59 5.24033 1.10228 0
M  V30 11470 C 1081.75 5.77867 2.4046 0
M  V30 11471 H 1081.98 2.94701 0.392248 0
M  V30 11472 H 1079.51 1.54164 0.0853746 0
M  V30 11473 H 1081.47 2.91737 2.8879 0
M  V30 11474 H 1080.13 1.79029 2.58084 0
M  V30 11475 H 1079.33 4.15592 2.8513 0
M  V30 11476 H 1078.93 3.53047 1.23427 0
M  V30 11477 H 1081.22 5.88175 3.36238 0
M  V30 11478 H 1082.16 6.75775 2.11504 0
M  V30 11479 H 1082.57 5.05991 2.50266 0
M  V30 11480 N 1081.97 -0.145205 1.5693 0
M  V30 11481 C 1083.39 -0.497905 1.51635 0
M  V30 11482 C 1083.59 -1.8328 0.837301 0
M  V30 11483 O 1082.64 -2.49172 0.408584 0
M  V30 11484 C 1083.95 -0.506557 2.96403 0
M  V30 11485 C 1085.5 -0.591947 3.07352 0
M  V30 11486 C 1085.98 -0.631244 4.53629 0
M  V30 11487 N 1087.47 -0.693417 4.5798 0
M  V30 11488 C 1088.2 -0.744836 5.68542 0
M  V30 11489 N 1087.7 -0.755492 6.88668 0
M  V30 11490 N 1089.49 -0.785854 5.5658 0
M  V30 11491 H 1081.64 0.729779 1.99469 0
M  V30 11492 H 1083.91 0.266295 0.90983 0
M  V30 11493 H 1083.61 0.406127 3.49347 0
M  V30 11494 H 1083.49 -1.34383 3.5245 0
M  V30 11495 H 1085.87 -1.49505 2.54425 0
M  V30 11496 H 1085.95 0.272507 2.54344 0
M  V30 11497 H 1085.6 0.26771 5.07194 0
M  V30 11498 H 1085.53 -1.51221 5.0442 0
M  V30 11499 H 1088.02 -0.692408 3.71503 0
M  V30 11500 H 1088.33 -0.796624 7.68683 0
M  V30 11501 H 1086.68 -0.723339 6.91226 0
M  V30 11502 H 1089.87 -0.774712 4.61645 0
M  V30 11503 H 1090.04 -0.822461 6.42759 0
M  V30 11504 N 1083.45 -1.52049 -0.414609 0
M  V30 11505 C 1084.4 -1.7138 -1.50376 0
M  V30 11506 C 1085.38 -0.567692 -1.50553 0
M  V30 11507 O 1086.57 -0.824541 -1.56622 0
M  V30 11508 C 1083.7 -1.86291 -2.88358 0
M  V30 11509 C 1082.79 -3.06757 -2.9285 0
M  V30 11510 N 1083.18 -4.29557 -2.67048 0
M  V30 11511 C 1081.48 -3.06478 -3.24018 0
M  V30 11512 C 1082.18 -5.10988 -2.77968 0
M  V30 11513 N 1081.15 -4.46117 -3.10613 0
M  V30 11514 H 1084.96 -2.63972 -1.29213 0
M  V30 11515 H 1082.47 -1.50006 -0.622244 0
M  V30 11516 H 1084.47 -1.98256 -3.66743 0
M  V30 11517 H 1083.13 -0.948959 -3.10524 0
M  V30 11518 H 1084.14 -4.58122 -2.41546 0
M  V30 11519 H 1080.82 -2.24799 -3.51812 0
M  V30 11520 H 1082.21 -6.18806 -2.6178 0
M  V30 11521 N 1084.93 0.6715 -1.42579 0
M  V30 11522 C 1086.2 1.42766 -1.33706 0
M  V30 11523 C 1086.58 2.11086 0.0239748 0
M  V30 11524 O 1085.93 2.03479 1.03964 0
M  V30 11525 C 1086.14 2.42739 -2.50756 0
M  V30 11526 C 1087.49 3.07284 -2.93021 0
M  V30 11527 O 1088.51 2.53066 -2.50671 0
M  V30 11528 O 1087.37 4.05541 -3.66331 0
M  V30 11529 H 1084.47 0.636955 -0.527463 0
M  V30 11530 H 1087.01 0.699946 -1.54593 0
M  V30 11531 H 1085.78 1.91076 -3.41476 0
M  V30 11532 H 1085.41 3.22986 -2.31874 0
M  V30 11533 N 1086.4 1.28806 0.908124 0
M  V30 11534 C 1087.81 1.14719 1.47297 0
M  V30 11535 C 1088.17 -0.260763 1.94459 0
M  V30 11536 O 1087.29 -1.15553 1.82966 0
M  V30 11537 C 1087.89 2.07643 2.67712 0
M  V30 11538 C 1086.44 1.97605 3.20358 0
M  V30 11539 C 1085.59 1.99058 1.93058 0
M  V30 11540 H 1088.54 1.41413 0.720283 0
M  V30 11541 H 1088.56 1.64372 3.43165 0
M  V30 11542 H 1088.08 3.10108 2.33355 0
M  V30 11543 H 1086.18 0.981982 3.59427 0
M  V30 11544 H 1086.29 2.84846 3.85226 0
M  V30 11545 H 1084.65 1.43541 2.104 0
M  V30 11546 H 1085.44 3.03212 1.60989 0
M  V30 11547 N 1087.88 -1.11734 1.11145 0
M  V30 11548 C 1088.81 -2.1976 0.789152 0
M  V30 11549 C 1089.79 -1.68382 -0.241143 0
M  V30 11550 O 1090.98 -1.93914 -0.105292 0
M  V30 11551 C 1088.11 -3.46549 0.228204 0
M  V30 11552 C 1087.06 -4.11123 1.19002 0
M  V30 11553 C 1086.39 -5.32451 0.489928 0
M  V30 11554 C 1087.69 -4.56406 2.53951 0
M  V30 11555 H 1089.38 -2.46978 1.69241 0
M  V30 11556 H 1086.93 -1.18705 0.81517 0
M  V30 11557 H 1088.88 -4.21399 -0.00945908 0
M  V30 11558 H 1087.6 -3.18782 -0.71033 0
M  V30 11559 H 1086.26 -3.38264 1.41326 0
M  V30 11560 H 1085.91 -5.00953 -0.453315 0
M  V30 11561 H 1085.61 -5.76605 1.1314 0
M  V30 11562 H 1087.14 -6.10042 0.260984 0
M  V30 11563 H 1088.55 -5.22592 2.35733 0
M  V30 11564 H 1086.95 -5.11363 3.14051 0
M  V30 11565 H 1088.02 -3.7001 3.13402 0
M  V30 11566 N 1089.36 -0.901303 -1.29284 0
M  V30 11567 C 1090.29 -0.396909 -2.30102 0
M  V30 11568 C 1091.27 0.528919 -1.61668 0
M  V30 11569 O 1092.46 0.439306 -1.89166 0
M  V30 11570 C 1089.59 0.375006 -3.45269 0
M  V30 11571 C 1088.54 -0.46054 -4.25515 0
M  V30 11572 C 1087.87 0.438967 -5.32895 0
M  V30 11573 C 1089.17 -1.7113 -4.93469 0
M  V30 11574 H 1090.86 -1.23943 -2.72541 0
M  V30 11575 H 1088.41 -0.597428 -1.31022 0
M  V30 11576 H 1090.36 0.738622 -4.14876 0
M  V30 11577 H 1089.08 1.25132 -3.01678 0
M  V30 11578 H 1087.74 -0.80651 -3.57618 0
M  V30 11579 H 1087.39 1.31346 -4.85548 0
M  V30 11580 H 1087.09 -0.116406 -5.87485 0
M  V30 11581 H 1088.61 0.79874 -6.05353 0
M  V30 11582 H 1090.03 -1.41732 -5.55504 0
M  V30 11583 H 1088.42 -2.20811 -5.57999 0
M  V30 11584 H 1089.49 -2.44636 -4.18666 0
M  V30 11585 N 1090.84 1.42931 -0.663954 0
M  V30 11586 C 1092.09 2.00904 -0.179011 0
M  V30 11587 C 1092.4 1.53056 1.21791 0
M  V30 11588 O 1093.61 2.03374 1.79865 0
M  V30 11589 C 1092.06 3.58892 -0.269198 0
M  V30 11590 C 1091.67 4.15731 -1.66949 0
M  V30 11591 C 1093.41 4.24207 0.157589 0
M  V30 11592 C 1091.32 5.66047 -1.71303 0
M  V30 11593 H 1090.25 0.75135 -0.0631623 0
M  V30 11594 H 1092.9 1.6378 -0.827556 0
M  V30 11595 H 1091.28 3.93469 0.447048 0
M  V30 11596 H 1092.46 3.92634 -2.41195 0
M  V30 11597 H 1090.77 3.62826 -2.04318 0
M  V30 11598 H 1093.37 5.34503 0.145057 0
M  V30 11599 H 1093.71 3.98901 1.19095 0
M  V30 11600 H 1094.25 3.94552 -0.507274 0
M  V30 11601 H 1090.98 5.96136 -2.72584 0
M  V30 11602 H 1090.5 5.91167 -1.01398 0
M  V30 11603 H 1092.18 6.30275 -1.46158 0
M  V30 11604 N 1092.32 0.406567 1.52266 0
M  V30 11605 C 1093.73 -0.063607 1.86592 0
M  V30 11606 C 1094.08 -1.4466 1.32544 0
M  V30 11607 O 1093.2 -2.05971 0.663692 0
M  V30 11608 C 1093.8 -0.122198 3.3858 0
M  V30 11609 C 1092.36 -0.536701 3.72554 0
M  V30 11610 C 1091.5 0.290422 2.75775 0
M  V30 11611 H 1094.45 0.623738 1.45929 0
M  V30 11612 H 1094.48 -0.937964 3.68758 0
M  V30 11613 H 1093.99 0.884495 3.77887 0
M  V30 11614 H 1092.09 -1.55013 3.38824 0
M  V30 11615 H 1092.2 -0.282867 4.78264 0
M  V30 11616 H 1090.57 -0.246864 2.53501 0
M  V30 11617 H 1091.35 1.29541 3.17921 0
M  V30 11618 N 1093.79 -1.57004 0.136909 0
M  V30 11619 C 1095.04 -1.9541 -0.51569 0
M  V30 11620 C 1095.36 -1.02219 -1.66061 0
M  V30 11621 O 1094.63 -0.0818172 -1.95729 0
M  V30 11622 H 1093.21 -0.721504 -0.193497 0
M  V30 11623 H 1095.88 -1.93765 0.210046 0
M  V30 11624 H 1094.97 -2.98887 -0.898494 0
M  V30 11625 N 1095.27 0.136881 -1.57004 0
M  V30 11626 C 1096.22 1.18782 -1.99984 0
M  V30 11627 C 1097.21 1.43899 -0.893841 0
M  V30 11628 O 1098.42 1.44072 -1.07904 0
M  V30 11629 H 1094.8 0.400065 -0.636751 0
M  V30 11630 H 1096.77 0.798696 -2.87512 0
M  V30 11631 C 1095.52 2.51105 -2.40502 0
M  V30 11632 H 1094.84 2.32611 -3.25165 0
M  V30 11633 H 1096.28 3.23244 -2.74389 0
M  V30 11634 C 1094.74 3.12386 -1.26161 0
M  V30 11635 O 1095.27 3.97666 -0.567836 0
M  V30 11636 N 1093.47 2.71989 -1.02326 0
M  V30 11637 H 1093.02 2.02736 -1.58921 0
M  V30 11638 H 1092.98 3.13322 -0.26013 0
M  V30 11639 N 1096.75 1.52266 0.40654 0
M  V30 11640 C 1098.03 1.57018 1.1664 0
M  V30 11641 C 1098.41 0.352752 2.08132 0
M  V30 11642 O 1097.76 -0.660208 2.18754 0
M  V30 11643 C 1097.97 2.90016 1.94143 0
M  V30 11644 C 1099.31 3.43112 2.50119 0
M  V30 11645 O 1100.34 2.91773 2.0432 0
M  V30 11646 O 1099.2 4.32765 3.33731 0
M  V30 11647 H 1096.29 0.632574 0.532709 0
M  V30 11648 H 1098.84 1.64595 0.413111 0
M  V30 11649 H 1097.61 3.70071 1.27134 0
M  V30 11650 H 1097.23 2.85744 2.76471 0
M  V30 11651 N 1098.23 -0.663929 1.42933 0
M  V30 11652 C 1099.16 -1.78946 1.43217 0
M  V30 11653 C 1100.17 -1.59426 0.329727 0
M  V30 11654 O 1101.36 -1.68344 0.5935 0
M  V30 11655 C 1098.46 -3.16217 1.21902 0
M  V30 11656 C 1097.64 -3.6249 2.44785 0
M  V30 11657 C 1096.69 -4.78529 2.18853 0
M  V30 11658 O 1095.72 -4.88516 2.92131 0
M  V30 11659 N 1096.92 -5.67994 1.19845 0
M  V30 11660 H 1099.69 -1.79184 2.40236 0
M  V30 11661 H 1097.25 -0.847404 1.37952 0
M  V30 11662 H 1099.24 -3.91517 1.02454 0
M  V30 11663 H 1097.81 -3.10814 0.333676 0
M  V30 11664 H 1097.03 -2.77751 2.79729 0
M  V30 11665 H 1098.32 -3.90151 3.26588 0
M  V30 11666 H 1097.72 -5.62588 0.59259 0
M  V30 11667 H 1096.27 -6.4306 1.06382 0
M  V30 11668 N 1099.71 -1.29285 -0.901281 0
M  V30 11669 C 1100.96 -1.16538 -1.64626 0
M  V30 11670 C 1101.27 0.282623 -1.93547 0
M  V30 11671 O 1102.47 0.531396 -2.66249 0
M  V30 11672 C 1100.93 -2.03809 -2.96631 0
M  V30 11673 C 1100.54 -3.53423 -2.75311 0
M  V30 11674 C 1102.28 -1.99782 -3.7455 0
M  V30 11675 C 1100.19 -4.32804 -4.03032 0
M  V30 11676 H 1099.12 -0.432561 -0.617581 0
M  V30 11677 H 1101.77 -1.53912 -0.999159 0
M  V30 11678 H 1100.15 -1.59302 -3.62545 0
M  V30 11679 H 1101.33 -4.05971 -2.18 0
M  V30 11680 H 1099.64 -3.59106 -2.10789 0
M  V30 11681 H 1102.24 -2.5635 -4.69243 0
M  V30 11682 H 1102.58 -0.97743 -4.04663 0
M  V30 11683 H 1103.11 -2.42324 -3.15474 0
M  V30 11684 H 1099.85 -5.35473 -3.78086 0
M  V30 11685 H 1099.37 -3.85025 -4.59909 0
M  V30 11686 H 1101.05 -4.43383 -4.71191 0
M  V30 11687 N 1101.18 1.11143 -1.11736 0
M  V30 11688 C 1102.46 1.79384 -0.779785 0
M  V30 11689 C 1102.84 1.98015 0.731668 0
M  V30 11690 O 1102.19 1.56731 1.66276 0
M  V30 11691 C 1102.4 3.12868 -1.54643 0
M  V30 11692 C 1103.75 3.8786 -1.7277 0
M  V30 11693 O 1104.77 3.22566 -1.51094 0
M  V30 11694 O 1103.63 5.05034 -2.08813 0
M  V30 11695 H 1100.72 0.777128 -0.282845 0
M  V30 11696 H 1103.27 1.17858 -1.22096 0
M  V30 11697 H 1102.04 2.94682 -2.57446 0
M  V30 11698 H 1101.67 3.82109 -1.09901 0
M  V30 11699 N 1102.66 0.908147 1.28804 0
M  V30 11700 C 1103.61 0.382315 2.29437 0
M  V30 11701 C 1104.6 -0.523033 1.61123 0
M  V30 11702 O 1105.81 -0.404898 1.75387 0
M  V30 11703 H 1102.19 0.105022 0.74463 0
M  V30 11704 H 1104.16 1.24425 2.71221 0
M  V30 11705 C 1102.91 -0.367475 3.45753 0
M  V30 11706 H 1102.23 0.319957 3.98518 0
M  V30 11707 H 1103.67 -0.700131 4.1818 0
M  V30 11708 C 1102.13 -1.57329 2.97908 0
M  V30 11709 O 1102.66 -2.67248 2.99902 0
M  V30 11710 N 1100.86 -1.41835 2.53636 0
M  V30 11711 H 1100.41 -0.524099 2.52212 0
M  V30 11712 H 1100.37 -2.22645 2.21984 0
M  V30 11713 N 1104.14 -1.42577 0.671525 0
M  V30 11714 C 1105.07 -2.28124 -0.0589347 0
M  V30 11715 C 1106.05 -1.40878 -0.811915 0
M  V30 11716 O 1107.24 -1.70318 -0.807717 0
M  V30 11717 C 1104.36 -3.20662 -1.09057 0
M  V30 11718 C 1103.41 -4.24291 -0.43355 0
M  V30 11719 S 1104.24 -5.29393 0.806442 0
M  V30 11720 C 1105.4 -6.25498 -0.224204 0
M  V30 11721 H 1105.63 -2.89728 0.666689 0
M  V30 11722 H 1103.16 -1.47359 0.460959 0
M  V30 11723 H 1105.12 -3.74516 -1.68071 0
M  V30 11724 H 1103.78 -2.582 -1.78862 0
M  V30 11725 H 1102.98 -4.89213 -1.21186 0
M  V30 11726 H 1102.58 -3.73908 0.0829136 0
M  V30 11727 H 1104.87 -6.68757 -1.08492 0
M  V30 11728 H 1105.81 -7.07023 0.390469 0
M  V30 11729 H 1106.22 -5.61633 -0.568214 0
M  V30 11730 N 1105.62 -0.414636 -1.52048 0
M  V30 11731 C 1106.9 0.218172 -1.94379 0
M  V30 11732 C 1107.28 1.62133 -1.35189 0
M  V30 11733 O 1106.62 2.22271 -0.529877 0
M  V30 11734 C 1106.83 0.218932 -3.48313 0
M  V30 11735 C 1108.18 0.435604 -4.2236 0
M  V30 11736 O 1109.21 0.298049 -3.54951 0
M  V30 11737 O 1108.06 0.707217 -5.41905 0
M  V30 11738 H 1105.16 0.142173 -0.814688 0
M  V30 11739 H 1107.7 -0.470977 -1.63033 0
M  V30 11740 H 1106.48 -0.76292 -3.83791 0
M  V30 11741 H 1106.1 0.951949 -3.86036 0
M  V30 11742 N 1107.1 1.56929 -0.145233 0
M  V30 11743 C 1108.32 2.00864 0.516564 0
M  V30 11744 C 1108.75 1.02466 1.57741 0
M  V30 11745 O 1108.1 0.000145439 1.813 0
M  V30 11746 C 1108.15 3.43552 1.09563 0
M  V30 11747 O 1107.26 3.4815 2.21055 0
M  V30 11748 H 1106.6 0.651835 0.126521 0
M  V30 11749 H 1109.13 2.0317 -0.241445 0
M  V30 11750 H 1109.14 3.82316 1.42473 0
M  V30 11751 H 1107.81 4.14677 0.318749 0
M  V30 11752 H 1106.39 3.21228 1.89387 0
M  V30 11753 N 1108.58 -0.128553 1.57075 0
M  V30 11754 C 1109.52 -1.17719 2.00611 0
M  V30 11755 C 1110.52 -1.43423 0.90146 0
M  V30 11756 O 1111.72 -1.43498 1.08666 0
M  V30 11757 H 1108.1 -0.396683 0.638864 0
M  V30 11758 H 1110.07 -0.783437 2.87932 0
M  V30 11759 C 1108.82 -2.49826 2.41831 0
M  V30 11760 H 1108.14 -2.30883 3.26394 0
M  V30 11761 H 1109.58 -3.21784 2.761 0
M  V30 11762 C 1108.04 -3.11712 1.27816 0
M  V30 11763 O 1108.57 -3.9736 0.588917 0
M  V30 11764 N 1106.78 -2.71442 1.03767 0
M  V30 11765 H 1106.32 -2.01891 1.59994 0
M  V30 11766 H 1106.28 -3.1318 0.276743 0
M  V30 11767 N 1110.05 -1.5248 -0.398459 0
M  V30 11768 C 1111.3 -1.67309 -1.1461 0
M  V30 11769 C 1111.63 -0.407095 -1.89885 0
M  V30 11770 O 1110.91 0.594834 -1.85181 0
M  V30 11771 C 1111.19 -2.90204 -2.13198 0
M  V30 11772 C 1111.04 -4.26881 -1.4175 0
M  V30 11773 C 1112.36 -3.08634 -3.13741 0
M  V30 11774 H 1109.48 -0.608853 -0.415292 0
M  V30 11775 H 1112.12 -1.85057 -0.430573 0
M  V30 11776 H 1110.27 -2.75204 -2.74218 0
M  V30 11777 H 1111.95 -4.53631 -0.837676 0
M  V30 11778 H 1110.19 -4.27793 -0.719387 0
M  V30 11779 H 1110.86 -5.08939 -2.1374 0
M  V30 11780 H 1113.34 -3.22603 -2.62805 0
M  V30 11781 H 1112.21 -3.96117 -3.79977 0
M  V30 11782 H 1112.47 -2.22425 -3.82073 0
M  V30 11783 N 1111.53 0.65634 -1.43283 0
M  V30 11784 C 1112.48 1.76934 -1.48199 0
M  V30 11785 C 1113.45 1.62748 -0.332023 0
M  V30 11786 O 1114.63 1.83036 -0.538735 0
M  V30 11787 C 1111.77 3.15072 -1.40797 0
M  V30 11788 C 1110.89 3.40414 -2.65974 0
M  V30 11789 C 1110.02 4.68383 -2.50582 0
M  V30 11790 C 1109.06 4.8682 -3.71043 0
M  V30 11791 N 1108.2 6.06043 -3.5448 0
M  V30 11792 H 1113.04 1.72067 -2.43304 0
M  V30 11793 H 1110.57 0.839728 -1.20777 0
M  V30 11794 H 1112.53 3.94925 -1.345 0
M  V30 11795 H 1111.16 3.19017 -0.492754 0
M  V30 11796 H 1110.21 2.54681 -2.82563 0
M  V30 11797 H 1111.53 3.49925 -3.55463 0
M  V30 11798 H 1110.68 5.56357 -2.41975 0
M  V30 11799 H 1109.42 4.61187 -1.58612 0
M  V30 11800 H 1108.42 3.97282 -3.80062 0
M  V30 11801 H 1109.65 4.95847 -4.64017 0
M  V30 11802 H 1107.6 5.99985 -2.65242 0
M  V30 11803 H 1107.51 6.16498 -4.37568 0
M  V30 11804 H 1108.78 6.96647 -3.49719 0
M  V30 11805 N 1113.01 1.29761 0.894412 0
M  V30 11806 C 1113.96 1.15341 1.99912 0
M  V30 11807 C 1114.93 0.0453488 1.66038 0
M  V30 11808 O 1116.11 0.213829 1.89598 0
M  V30 11809 C 1113.25 0.841432 3.34685 0
M  V30 11810 C 1112.36 2.03046 3.81309 0
M  V30 11811 C 1111.5 1.65739 5.04682 0
M  V30 11812 C 1110.54 2.81191 5.43689 0
M  V30 11813 N 1109.68 2.44244 6.58247 0
M  V30 11814 H 1114.52 2.09854 2.11578 0
M  V30 11815 H 1112.05 1.04421 1.03608 0
M  V30 11816 H 1114.01 0.641211 4.12243 0
M  V30 11817 H 1112.64 -0.066797 3.22731 0
M  V30 11818 H 1111.69 2.34222 2.9974 0
M  V30 11819 H 1113 2.89538 4.06164 0
M  V30 11820 H 1112.16 1.42036 5.8984 0
M  V30 11821 H 1110.9 0.764019 4.81678 0
M  V30 11822 H 1109.9 3.0557 4.57064 0
M  V30 11823 H 1111.13 3.712 5.68672 0
M  V30 11824 H 1109.07 1.57402 6.36837 0
M  V30 11825 H 1108.99 3.24269 6.82924 0
M  V30 11826 H 1110.26 2.23875 7.46659 0
M  V30 11827 N 1114.49 -1.10549 1.12324 0
M  V30 11828 C 1115.72 -1.86 0.899312 0
M  V30 11829 C 1116.13 -1.80881 -0.554854 0
M  V30 11830 O 1115.47 -1.19485 -1.39531 0
M  V30 11831 C 1115.53 -3.35384 1.29452 0
M  V30 11832 C 1115.19 -3.64263 2.75974 0
M  V30 11833 C 1116.19 -3.60962 3.74169 0
M  V30 11834 C 1113.88 -3.92976 3.1285 0
M  V30 11835 C 1115.87 -3.85966 5.07256 0
M  V30 11836 C 1113.56 -4.17637 4.4612 0
M  V30 11837 C 1114.56 -4.14122 5.43132 0
M  V30 11838 O 1114.24 -4.38156 6.73999 0
M  V30 11839 H 1113.98 -0.594743 0.321337 0
M  V30 11840 H 1116.53 -1.40674 1.49667 0
M  V30 11841 H 1114.76 -3.81361 0.640358 0
M  V30 11842 H 1116.45 -3.9222 1.04491 0
M  V30 11843 H 1117.21 -3.38819 3.47025 0
M  V30 11844 H 1113.09 -3.94843 2.3795 0
M  V30 11845 H 1116.64 -3.83138 5.82967 0
M  V30 11846 H 1112.53 -4.39258 4.72993 0
M  V30 11847 H 1113.3 -4.55677 6.79927 0
M  V30 11848 N 1115.97 -0.914965 -1.28321 0
M  V30 11849 C 1117.24 -0.46764 -1.89928 0
M  V30 11850 C 1117.62 1.05364 -1.82925 0
M  V30 11851 O 1116.97 1.90223 -1.26599 0
M  V30 11852 C 1117.18 -0.999372 -3.34385 0
M  V30 11853 C 1118.53 -1.0522 -4.11356 0
M  V30 11854 O 1119.55 -0.9481 -3.4335 0
M  V30 11855 O 1118.41 -1.21085 -5.32917 0
M  V30 11856 H 1115.51 -0.148398 -0.813577 0
M  V30 11857 H 1118.05 -1.00583 -1.36679 0
M  V30 11858 H 1116.82 -2.04333 -3.33712 0
M  V30 11859 H 1116.45 -0.442083 -3.95135 0
M  V30 11860 N 1117.44 1.42219 -0.679077 0
M  V30 11861 C 1118.67 2.06333 -0.210097 0
M  V30 11862 C 1119.09 1.50703 1.12562 0
M  V30 11863 O 1118.45 0.627241 1.70104 0
M  V30 11864 C 1118.5 3.60243 -0.160322 0
M  V30 11865 O 1117.6 4.03122 0.869872 0
M  V30 11866 H 1116.94 0.655362 -0.106754 0
M  V30 11867 H 1119.47 1.82278 -0.929294 0
M  V30 11868 H 1119.48 4.07997 0.014384 0
M  V30 11869 H 1118.16 4.00106 -1.13526 0
M  V30 11870 H 1116.74 3.66907 0.66586 0
M  V30 11871 N 1118.92 0.422693 1.51826 0
M  V30 11872 C 1120.15 -0.147744 2.06372 0
M  V30 11873 C 1120.56 -1.37714 1.29152 0
M  V30 11874 O 1119.92 -1.7917 0.347046 0
M  V30 11875 C 1119.97 -0.484642 3.58237 0
M  V30 11876 O 1119.69 0.695944 4.32537 0
M  V30 11877 C 1121.19 -1.10734 4.29247 0
M  V30 11878 H 1118.41 -0.0144047 0.670845 0
M  V30 11879 H 1120.96 0.597558 1.95575 0
M  V30 11880 H 1119.11 -1.17984 3.68997 0
M  V30 11881 H 1119.53 0.411471 5.22884 0
M  V30 11882 H 1121 -1.29318 5.36639 0
M  V30 11883 H 1121.48 -2.08429 3.86593 0
M  V30 11884 H 1122.08 -0.451958 4.22892 0
M  V30 11885 N 1120.4 -1.5685 0.153553 0
M  V30 11886 C 1121.65 -1.95946 -0.494936 0
M  V30 11887 C 1121.97 -1.03975 -1.64967 0
M  V30 11888 O 1121.24 -0.102572 -1.95631 0
M  V30 11889 H 1119.82 -0.723516 -0.185833 0
M  V30 11890 H 1122.48 -1.93531 0.230585 0
M  V30 11891 H 1121.58 -2.99823 -0.866743 0
M  V30 11892 N 1121.88 0.120221 -1.57141 0
M  V30 11893 C 1122.81 1.17787 -1.95452 0
M  V30 11894 C 1123.79 1.40174 -0.824016 0
M  V30 11895 O 1124.97 1.54348 -1.08208 0
M  V30 11896 C 1122.1 2.53193 -2.24969 0
M  V30 11897 C 1121.15 2.47241 -3.47526 0
M  V30 11898 S 1121.98 1.91325 -5.00155 0
M  V30 11899 C 1123.13 3.28406 -5.32823 0
M  V30 11900 H 1123.37 0.851152 -2.84856 0
M  V30 11901 H 1120.9 0.326929 -1.50899 0
M  V30 11902 H 1122.86 3.31104 -2.42652 0
M  V30 11903 H 1121.52 2.83043 -1.36181 0
M  V30 11904 H 1120.71 3.46981 -3.65541 0
M  V30 11905 H 1120.31 1.7745 -3.29223 0
M  V30 11906 H 1122.61 4.24613 -5.2793 0
M  V30 11907 H 1123.55 3.1522 -6.34068 0
M  V30 11908 H 1123.96 3.26779 -4.603 0
M  V30 11909 N 1123.36 1.52689 0.390367 0
M  V30 11910 C 1124.6 1.67666 1.13553 0
M  V30 11911 C 1124.93 0.415903 1.90001 0
M  V30 11912 O 1124.19 -0.601664 1.86222 0
M  V30 11913 C 1124.49 2.86177 2.14096 0
M  V30 11914 C 1124.15 4.23671 1.54316 0
M  V30 11915 C 1122.81 4.61066 1.37739 0
M  V30 11916 C 1125.17 5.09278 1.1084 0
M  V30 11917 C 1122.49 5.81727 0.76231 0
M  V30 11918 C 1124.85 6.30562 0.507433 0
M  V30 11919 C 1123.51 6.66689 0.328945 0
M  V30 11920 H 1122.78 0.613533 0.415521 0
M  V30 11921 H 1125.43 1.8683 0.420339 0
M  V30 11922 H 1123.73 2.61424 2.9183 0
M  V30 11923 H 1125.43 2.9496 2.7166 0
M  V30 11924 H 1122.02 3.94214 1.68207 0
M  V30 11925 H 1126.2 4.80957 1.2245 0
M  V30 11926 H 1121.46 6.08327 0.612208 0
M  V30 11927 H 1125.63 6.96211 0.162248 0
M  V30 11928 H 1123.26 7.60052 -0.149748 0
M  V30 11929 N 1124.83 -0.648732 1.43629 0
M  V30 11930 C 1125.78 -1.75473 1.45579 0
M  V30 11931 C 1126.77 -1.57611 0.323683 0
M  V30 11932 O 1127.96 -1.67646 0.56778 0
M  V30 11933 C 1125.09 -3.14083 1.38589 0
M  V30 11934 C 1124.18 -3.37477 2.56846 0
M  V30 11935 N 1124.57 -3.31322 3.82177 0
M  V30 11936 C 1122.86 -3.68212 2.51666 0
M  V30 11937 C 1123.57 -3.54921 4.60875 0
M  V30 11938 N 1122.54 -3.76951 3.91675 0
M  V30 11939 H 1126.34 -1.69146 2.40347 0
M  V30 11940 H 1123.86 -0.850566 1.38344 0
M  V30 11941 H 1125.85 -3.93374 1.38068 0
M  V30 11942 H 1124.51 -3.21588 0.448442 0
M  V30 11943 H 1125.53 -3.10633 4.144 0
M  V30 11944 H 1122.2 -3.82806 1.66631 0
M  V30 11945 H 1123.59 -3.55904 5.69897 0
M  V30 11946 N 1126.31 -1.30234 -0.887518 0
M  V30 11947 C 1127.56 -1.20096 -1.6416 0
M  V30 11948 C 1127.91 0.24253 -1.90865 0
M  V30 11949 O 1127.21 1.17078 -1.51668 0
M  V30 11950 C 1127.4 -1.96046 -2.98832 0
M  V30 11951 C 1127.23 -3.47633 -2.85274 0
M  V30 11952 C 1126 -4.16989 -2.85392 0
M  V30 11953 C 1128.2 -4.42911 -2.61409 0
M  V30 11954 N 1126.18 -5.54854 -2.62699 0
M  V30 11955 C 1127.55 -5.68321 -2.47813 0
M  V30 11956 C 1129.61 -4.32535 -2.46613 0
M  V30 11957 C 1128.31 -6.84532 -2.20927 0
M  V30 11958 C 1130.33 -5.4851 -2.21112 0
M  V30 11959 C 1129.7 -6.729 -2.08291 0
M  V30 11960 H 1125.8 -0.494513 -0.605789 0
M  V30 11961 H 1128.38 -1.64213 -1.04605 0
M  V30 11962 H 1126.55 -1.54324 -3.56425 0
M  V30 11963 H 1128.28 -1.78072 -3.63418 0
M  V30 11964 H 1125.04 -3.68798 -2.97128 0
M  V30 11965 H 1125.46 -6.27395 -2.54371 0
M  V30 11966 H 1130.1 -3.37047 -2.55262 0
M  V30 11967 H 1127.82 -7.80063 -2.11015 0
M  V30 11968 H 1131.41 -5.42389 -2.1049 0
M  V30 11969 H 1130.29 -7.61125 -1.88833 0
M  V30 11970 N 1127.79 1.09952 -1.12909 0
M  V30 11971 C 1129.03 1.83635 -0.897646 0
M  V30 11972 C 1129.39 1.83462 0.566179 0
M  V30 11973 O 1130.6 2.52748 0.914977 0
M  V30 11974 C 1128.87 3.26095 -1.46277 0
M  V30 11975 S 1130.43 4.16846 -1.37059 0
M  V30 11976 H 1127.24 0.633045 -0.32369 0
M  V30 11977 H 1129.85 1.32275 -1.43957 0
M  V30 11978 H 1128.55 3.23793 -2.52163 0
M  V30 11979 H 1128.08 3.82526 -0.918549 0
M  V30 11980 H 1130.1 4.94996 -0.345399 0
M  V30 11981 N 1129.27 0.921757 1.27833 0
M  V30 11982 C 1130.23 0.420978 2.25301 0
M  V30 11983 C 1131.23 -0.457158 1.54165 0
M  V30 11984 O 1132.42 -0.259079 1.72263 0
M  V30 11985 C 1129.55 -0.395501 3.38598 0
M  V30 11986 H 1130.75 1.28206 2.71115 0
M  V30 11987 H 1128.3 0.701893 1.39654 0
M  V30 11988 H 1129.03 -1.27565 2.98157 0
M  V30 11989 H 1128.82 0.234029 3.91401 0
M  V30 11990 H 1130.31 -0.736444 4.11055 0
M  V30 11991 N 1130.75 -1.41857 0.686609 0
M  V30 11992 C 1132.16 -1.84439 0.289662 0
M  V30 11993 C 1132.51 -1.57462 -1.17047 0
M  V30 11994 O 1131.63 -1.04046 -1.89745 0
M  V30 11995 C 1132.23 -3.34802 0.518948 0
M  V30 11996 C 1130.79 -3.75988 0.176007 0
M  V30 11997 C 1129.93 -2.65339 0.805632 0
M  V30 11998 H 1132.89 -1.31536 0.88792 0
M  V30 11999 H 1132.91 -3.79833 -0.225209 0
M  V30 12000 H 1132.42 -3.54405 1.58173 0
M  V30 12001 H 1130.52 -3.61989 -0.882865 0
M  V30 12002 H 1130.63 -4.75009 0.624772 0
M  V30 12003 H 1129 -2.53605 0.235966 0
M  V30 12004 H 1129.78 -2.87762 1.8721 0
M  V30 12005 N 1132.22 -0.430739 -1.51599 0
M  V30 12006 C 1133.17 0.384024 -2.27583 0
M  V30 12007 C 1134.14 1.02254 -1.30895 0
M  V30 12008 O 1135.33 1.0427 -1.59789 0
M  V30 12009 C 1132.47 1.48291 -3.11615 0
M  V30 12010 C 1131.58 0.863187 -4.23288 0
M  V30 12011 C 1130.71 1.93657 -4.94642 0
M  V30 12012 C 1129.75 1.29493 -5.98246 0
M  V30 12013 N 1128.89 2.30939 -6.63032 0
M  V30 12014 H 1133.73 -0.270314 -2.96771 0
M  V30 12015 H 1131.27 -0.145148 -1.46382 0
M  V30 12016 H 1133.23 2.13124 -3.58656 0
M  V30 12017 H 1131.86 2.10697 -2.44554 0
M  V30 12018 H 1130.91 0.103326 -3.8026 0
M  V30 12019 H 1132.22 0.354676 -4.97537 0
M  V30 12020 H 1131.37 2.66167 -5.45197 0
M  V30 12021 H 1130.11 2.4788 -4.20008 0
M  V30 12022 H 1129.12 0.555262 -5.46989 0
M  V30 12023 H 1130.34 0.760122 -6.74833 0
M  V30 12024 H 1128.29 2.84254 -5.91216 0
M  V30 12025 H 1128.21 1.84961 -7.33025 0
M  V30 12026 H 1129.47 3.02953 -7.1822 0
M  V30 12027 N 1133.7 1.56767 -0.161869 0
M  V30 12028 C 1134.61 2.21083 0.784814 0
M  V30 12029 C 1135.63 1.19959 1.26039 0
M  V30 12030 O 1136.8 1.52588 1.31449 0
M  V30 12031 C 1133.87 2.83153 2.00063 0
M  V30 12032 C 1132.93 3.9945 1.57285 0
M  V30 12033 C 1132.16 4.5855 2.7307 0
M  V30 12034 O 1132.39 4.16534 3.89686 0
M  V30 12035 O 1131.32 5.48575 2.47688 0
M  V30 12036 H 1135.15 3.02522 0.267243 0
M  V30 12037 H 1132.73 1.49255 0.0658783 0
M  V30 12038 H 1134.61 3.22546 2.71186 0
M  V30 12039 H 1133.29 2.04718 2.50744 0
M  V30 12040 H 1132.2 3.64745 0.831393 0
M  V30 12041 H 1133.53 4.7945 1.11304 0
M  V30 12042 N 1135.18 -0.111886 1.57202 0
M  V30 12043 C 1136.43 -0.817022 1.84412 0
M  V30 12044 C 1136.74 -1.80708 0.748608 0
M  V30 12045 O 1137.95 -2.55891 0.907319 0
M  V30 12046 C 1136.4 -1.50376 3.26979 0
M  V30 12047 C 1136.01 -0.554334 4.44557 0
M  V30 12048 C 1137.76 -2.19361 3.63429 0
M  V30 12049 C 1135.66 -1.24471 5.78153 0
M  V30 12050 H 1134.59 -0.308864 0.687836 0
M  V30 12051 H 1137.24 -0.0698109 1.83367 0
M  V30 12052 H 1135.63 -2.29785 3.22514 0
M  V30 12053 H 1136.8 0.207045 4.60335 0
M  V30 12054 H 1135.12 0.0289261 4.1639 0
M  V30 12055 H 1137.71 -2.71716 4.60515 0
M  V30 12056 H 1138.06 -2.97488 2.91215 0
M  V30 12057 H 1138.59 -1.46833 3.69709 0
M  V30 12058 H 1135.33 -0.504584 6.53555 0
M  V30 12059 H 1134.85 -1.97792 5.66249 0
M  V30 12060 H 1136.53 -1.77591 6.2215 0
M  V30 12061 N 1136.66 -1.52894 -0.382264 0
M  V30 12062 C 1137.57 -1.81084 -1.4915 0
M  V30 12063 C 1138.58 -0.698045 -1.59384 0
M  V30 12064 O 1139.76 -0.98635 -1.75594 0
M  V30 12065 C 1136.83 -1.97987 -2.84608 0
M  V30 12066 C 1135.89 -3.219 -2.8404 0
M  V30 12067 C 1135.12 -3.37988 -4.13037 0
M  V30 12068 O 1135.34 -2.58733 -5.08344 0
M  V30 12069 O 1134.28 -4.31273 -4.19866 0
M  V30 12070 H 1138.1 -2.75289 -1.28257 0
M  V30 12071 H 1135.69 -1.38068 -0.57076 0
M  V30 12072 H 1137.57 -2.10773 -3.64901 0
M  V30 12073 H 1136.24 -1.06972 -3.05514 0
M  V30 12074 H 1135.15 -3.14551 -2.02505 0
M  V30 12075 H 1136.48 -4.12783 -2.68087 0
M  V30 12076 N 1138.14 0.641106 -1.43971 0
M  V30 12077 C 1139.08 1.75352 -1.50068 0
M  V30 12078 C 1140.05 1.62386 -0.349266 0
M  V30 12079 O 1141.24 1.82455 -0.558118 0
M  V30 12080 C 1138.38 3.13561 -1.4413 0
M  V30 12081 C 1137.49 3.37574 -2.6957 0
M  V30 12082 C 1136.63 4.65698 -2.55535 0
M  V30 12083 C 1135.67 4.82857 -3.76186 0
M  V30 12084 N 1134.8 6.02249 -3.60888 0
M  V30 12085 H 1139.64 1.69477 -2.45116 0
M  V30 12086 H 1137.18 0.826871 -1.2166 0
M  V30 12087 H 1139.14 3.93476 -1.38681 0
M  V30 12088 H 1137.77 3.18476 -0.526563 0
M  V30 12089 H 1136.82 2.5167 -2.85248 0
M  V30 12090 H 1138.13 3.46135 -3.59154 0
M  V30 12091 H 1137.29 5.53759 -2.47862 0
M  V30 12092 H 1136.03 4.59479 -1.63495 0
M  V30 12093 H 1135.03 3.93229 -3.84254 0
M  V30 12094 H 1136.26 4.90898 -4.6925 0
M  V30 12095 H 1134.2 5.97138 -2.71591 0
M  V30 12096 H 1134.12 6.11822 -4.44083 0
M  V30 12097 H 1135.39 6.92898 -3.57088 0
M  V30 12098 N 1139.62 1.30703 0.880598 0
M  V30 12099 C 1140.86 1.19955 1.63519 0
M  V30 12100 C 1141.19 -0.244214 1.92658 0
M  V30 12101 O 1140.47 -1.17412 1.55063 0
M  V30 12102 C 1140.75 2.03302 2.97221 0
M  V30 12103 C 1140.61 3.55921 2.75028 0
M  V30 12104 C 1141.92 1.87421 3.98198 0
M  V30 12105 H 1139.04 0.43712 0.593376 0
M  V30 12106 H 1141.69 1.60382 1.01871 0
M  V30 12107 H 1139.84 1.68953 3.49839 0
M  V30 12108 H 1141.51 4.00352 2.29164 0
M  V30 12109 H 1139.75 3.79885 2.09452 0
M  V30 12110 H 1140.42 4.09533 3.70117 0
M  V30 12111 H 1142.9 2.17459 3.54755 0
M  V30 12112 H 1141.77 2.48057 4.89652 0
M  V30 12113 H 1142.03 0.834563 4.34151 0
M  V30 12114 N 1141.09 -1.09351 1.1349 0
M  V30 12115 C 1142.34 -1.80915 0.89177 0
M  V30 12116 C 1142.66 -1.86688 -0.5837 0
M  V30 12117 O 1143.86 -2.54568 -0.943788 0
M  V30 12118 C 1142.32 -3.25009 1.54587 0
M  V30 12119 C 1141.93 -3.27501 3.05691 0
M  V30 12120 C 1143.67 -4.01323 1.38346 0
M  V30 12121 C 1141.58 -4.66123 3.63983 0
M  V30 12122 H 1140.51 -0.677961 0.329978 0
M  V30 12123 H 1143.16 -1.22893 1.3627 0
M  V30 12124 H 1141.54 -3.83098 1.0026 0
M  V30 12125 H 1142.71 -2.79174 3.66604 0
M  V30 12126 H 1141.03 -2.64677 3.21457 0
M  V30 12127 H 1143.63 -5.03739 1.79307 0
M  V30 12128 H 1143.97 -4.15003 0.328404 0
M  V30 12129 H 1144.5 -3.49679 1.89656 0
M  V30 12130 H 1141.24 -4.57646 4.69298 0
M  V30 12131 H 1140.76 -5.14772 3.07848 0
M  V30 12132 H 1142.44 -5.35097 3.63703 0
M  V30 12133 N 1142.57 -0.928524 -1.27343 0
M  V30 12134 C 1143.5 -0.445627 -2.29208 0
M  V30 12135 C 1144.48 0.494508 -1.62753 0
M  V30 12136 O 1145.67 0.399082 -1.90055 0
M  V30 12137 C 1142.8 0.301684 -3.45987 0
M  V30 12138 C 1141.75 -0.550695 -4.24442 0
M  V30 12139 C 1141.08 0.325833 -5.33706 0
M  V30 12140 C 1142.38 -1.81559 -4.89728 0
M  V30 12141 H 1144.07 -1.29696 -2.69851 0
M  V30 12142 H 1141.62 -0.625085 -1.29725 0
M  V30 12143 H 1143.57 0.650455 -4.1635 0
M  V30 12144 H 1142.29 1.18705 -3.04264 0
M  V30 12145 H 1140.95 -0.882185 -3.55827 0
M  V30 12146 H 1140.6 1.21018 -4.88225 0
M  V30 12147 H 1140.3 -0.240994 -5.87106 0
M  V30 12148 H 1141.83 0.670156 -6.06911 0
M  V30 12149 H 1143.24 -1.53483 -5.52373 0
M  V30 12150 H 1141.64 -2.32598 -5.53189 0
M  V30 12151 H 1142.71 -2.53461 -4.13383 0
M  V30 12152 N 1144.05 1.41491 -0.694123 0
M  V30 12153 C 1145.28 2.05579 -0.233466 0
M  V30 12154 C 1145.69 1.5223 1.11675 0
M  V30 12155 O 1145.05 0.669937 1.69759 0
M  V30 12156 C 1145.1 3.61047 -0.180967 0
M  V30 12157 O 1144.82 4.12421 -1.47785 0
M  V30 12158 C 1146.32 4.42278 0.300853 0
M  V30 12159 H 1143.54 0.662097 -0.108943 0
M  V30 12160 H 1146.09 1.81288 -0.946299 0
M  V30 12161 H 1144.24 3.84381 0.482678 0
M  V30 12162 H 1144.66 5.06454 -1.364 0
M  V30 12163 H 1146.13 5.51256 0.286464 0
M  V30 12164 H 1146.61 4.18276 1.33948 0
M  V30 12165 H 1147.21 4.24004 -0.331741 0
M  V30 12166 N 1145.53 0.438773 1.51369 0
M  V30 12167 C 1146.94 0.0911416 1.5934 0
M  V30 12168 C 1147.14 -1.39962 1.44958 0
M  V30 12169 O 1146.2 -2.16968 1.29155 0
M  V30 12170 C 1147.51 0.612531 2.94395 0
M  V30 12171 C 1149.06 0.573098 3.07709 0
M  V30 12172 C 1149.54 1.07149 4.4529 0
M  V30 12173 N 1151.03 1.02953 4.51614 0
M  V30 12174 C 1151.76 1.38602 5.56397 0
M  V30 12175 N 1151.26 1.81543 6.68591 0
M  V30 12176 N 1153.05 1.30409 5.46763 0
M  V30 12177 H 1145.2 1.40872 1.58962 0
M  V30 12178 H 1147.46 0.580589 0.749414 0
M  V30 12179 H 1147.17 1.65562 3.10294 0
M  V30 12180 H 1147.04 0.0382375 3.77181 0
M  V30 12181 H 1149.43 -0.461006 2.91477 0
M  V30 12182 H 1149.51 1.18381 2.26759 0
M  V30 12183 H 1149.16 2.10406 4.62268 0
M  V30 12184 H 1149.09 0.437297 5.24781 0
M  V30 12185 H 1151.58 0.714208 3.7109 0
M  V30 12186 H 1151.89 2.06977 7.44567 0
M  V30 12187 H 1150.24 1.8547 6.69795 0
M  V30 12188 H 1153.43 0.967272 4.57997 0
M  V30 12189 H 1153.6 1.5852 6.28312 0
M  V30 12190 N 1147.01 -1.56678 0.170181 0
M  V30 12191 C 1148.23 -2.0166 -0.484543 0
M  V30 12192 C 1148.66 -1.04962 -1.56091 0
M  V30 12193 O 1148.01 -0.0289887 -1.81277 0
M  V30 12194 C 1148.06 -3.45252 -1.04084 0
M  V30 12195 O 1147.17 -3.51623 -2.15488 0
M  V30 12196 H 1146.51 -0.653765 -0.116135 0
M  V30 12197 H 1149.04 -2.02761 0.273737 0
M  V30 12198 H 1149.05 -3.84534 -1.36373 0
M  V30 12199 H 1147.72 -4.15131 -0.252738 0
M  V30 12200 H 1146.3 -3.242 -1.84252 0
M  V30 12201 N 1148.48 0.103547 -1.57259 0
M  V30 12202 C 1149.39 1.14475 -2.04774 0
M  V30 12203 C 1150.41 1.44385 -0.971025 0
M  V30 12204 O 1151.59 1.55195 -1.28361 0
M  V30 12205 C 1148.65 2.4475 -2.45558 0
M  V30 12206 C 1147.71 2.22098 -3.67384 0
M  V30 12207 C 1146.94 3.4616 -4.06213 0
M  V30 12208 O 1147.17 4.5407 -3.45219 0
M  V30 12209 O 1146.1 3.36248 -4.9922 0
M  V30 12210 H 1149.93 0.771211 -2.93745 0
M  V30 12211 H 1147.51 0.315456 -1.46032 0
M  V30 12212 H 1149.39 3.21476 -2.72454 0
M  V30 12213 H 1148.07 2.81547 -1.59728 0
M  V30 12214 H 1146.98 1.43179 -3.45616 0
M  V30 12215 H 1148.31 1.90197 -4.53967 0
M  V30 12216 N 1149.96 1.53094 0.37415 0
M  V30 12217 C 1150.92 1.78264 1.44065 0
M  V30 12218 C 1151.92 0.652892 1.46949 0
M  V30 12219 O 1153.11 0.921046 1.47859 0
M  V30 12220 C 1150.25 1.89693 2.83248 0
M  V30 12221 H 1151.44 2.73505 1.23025 0
M  V30 12222 H 1148.99 1.44041 0.60678 0
M  V30 12223 H 1149.73 0.964884 3.09613 0
M  V30 12224 H 1149.51 2.71855 2.82554 0
M  V30 12225 H 1151 2.10787 3.60498 0
M  V30 12226 N 1151.44 -0.633461 1.44309 0
M  V30 12227 C 1152.4 -1.72743 1.50641 0
M  V30 12228 C 1153.4 -1.56031 0.388718 0
M  V30 12229 O 1154.59 -1.61568 0.651251 0
M  V30 12230 C 1151.72 -3.11804 1.37809 0
M  V30 12231 H 1152.92 -1.68503 2.48086 0
M  V30 12232 H 1150.47 -0.846912 1.31366 0
M  V30 12233 H 1151.21 -3.2164 0.414483 0
M  V30 12234 H 1150.99 -3.2534 2.18852 0
M  V30 12235 H 1152.48 -3.91538 1.45216 0
M  V30 12236 N 1152.92 -1.31168 -0.873655 0
M  V30 12237 C 1153.85 -1.12836 -1.98351 0
M  V30 12238 C 1154.83 -0.0328679 -1.62567 0
M  V30 12239 O 1156.01 -0.18859 -1.87554 0
M  V30 12240 C 1153.14 -0.72332 -3.30886 0
M  V30 12241 C 1152.19 -1.82132 -3.85656 0
M  V30 12242 S 1153.02 -3.42604 -4.11562 0
M  V30 12243 C 1154.18 -3.04028 -5.471 0
M  V30 12244 H 1154.41 -2.06793 -2.13597 0
M  V30 12245 H 1151.94 -1.15611 -1.0234 0
M  V30 12246 H 1153.9 -0.496371 -4.07488 0
M  V30 12247 H 1152.56 0.197077 -3.13481 0
M  V30 12248 H 1151.75 -1.49046 -4.81458 0
M  V30 12249 H 1151.36 -2.00314 -3.15833 0
M  V30 12250 H 1153.65 -2.52692 -6.28612 0
M  V30 12251 H 1154.59 -3.9878 -5.85133 0
M  V30 12252 H 1155 -2.41574 -5.10198 0
M  V30 12253 N 1154.4 1.08748 -1.14068 0
M  V30 12254 C 1155.62 1.84814 -0.930138 0
M  V30 12255 C 1156.04 1.81461 0.521267 0
M  V30 12256 O 1155.4 1.21577 1.36108 0
M  V30 12257 C 1155.45 3.32501 -1.41863 0
M  V30 12258 O 1155.17 3.35846 -2.81317 0
M  V30 12259 C 1156.67 4.25384 -1.24753 0
M  V30 12260 H 1153.89 0.583546 -0.331233 0
M  V30 12261 H 1156.43 1.37366 -1.51495 0
M  V30 12262 H 1154.59 3.7735 -0.876664 0
M  V30 12263 H 1155 4.28013 -3.03159 0
M  V30 12264 H 1156.48 5.27138 -1.63798 0
M  V30 12265 H 1156.95 4.38789 -0.18999 0
M  V30 12266 H 1157.56 3.86357 -1.77787 0
M  V30 12267 N 1155.87 0.935264 1.26849 0
M  V30 12268 C 1157.12 0.580548 1.94313 0
M  V30 12269 C 1157.45 -0.877205 1.73259 0
M  V30 12270 O 1156.73 -1.62679 1.06611 0
M  V30 12271 C 1157.01 0.916445 3.48243 0
M  V30 12272 C 1156.86 2.42851 3.78607 0
M  V30 12273 C 1158.18 0.427665 4.38017 0
M  V30 12274 H 1155.3 0.21239 0.705733 0
M  V30 12275 H 1157.94 1.16841 1.49827 0
M  V30 12276 H 1156.09 0.416169 3.86265 0
M  V30 12277 H 1157.77 3.00106 3.50335 0
M  V30 12278 H 1156.01 2.8745 3.24892 0
M  V30 12279 H 1156.68 2.61405 4.8618 0
M  V30 12280 H 1159.16 0.856525 4.07189 0
M  V30 12281 H 1158.03 0.691571 5.44526 0
M  V30 12282 H 1158.29 -0.672344 4.36958 0
M  V30 12283 N 1157.35 -1.41121 0.701616 0
M  V30 12284 C 1158.28 -2.33436 0.0545974 0
M  V30 12285 C 1159.26 -1.52144 -0.760662 0
M  V30 12286 O 1160.45 -1.80661 -0.712414 0
M  V30 12287 C 1157.58 -3.36015 -0.878117 0
M  V30 12288 C 1156.53 -4.27664 -0.169511 0
M  V30 12289 C 1155.86 -5.20666 -1.21699 0
M  V30 12290 C 1157.16 -5.13254 0.967859 0
M  V30 12291 H 1158.85 -2.87791 0.825637 0
M  V30 12292 H 1156.4 -1.38377 0.398484 0
M  V30 12293 H 1158.35 -3.99526 -1.34004 0
M  V30 12294 H 1157.08 -2.80024 -1.68089 0
M  V30 12295 H 1155.73 -3.65586 0.272441 0
M  V30 12296 H 1155.38 -4.60987 -2.01246 0
M  V30 12297 H 1155.08 -5.82822 -0.747836 0
M  V30 12298 H 1156.61 -5.87053 -1.6793 0
M  V30 12299 H 1158.02 -5.70298 0.585944 0
M  V30 12300 H 1156.42 -5.84381 1.3645 0
M  V30 12301 H 1157.49 -4.5006 1.80483 0
M  V30 12302 N 1158.83 -0.446794 -1.51134 0
M  V30 12303 C 1160.06 0.117242 -2.07068 0
M  V30 12304 C 1160.48 1.34877 -1.3111 0
M  V30 12305 O 1159.84 1.77856 -0.35172 0
M  V30 12306 C 1159.89 0.408616 -3.58277 0
M  V30 12307 O 1158.99 1.49345 -3.84408 0
M  V30 12308 H 1158.33 -0.00228458 -0.663996 0
M  V30 12309 H 1160.86 -0.63085 -1.94632 0
M  V30 12310 H 1160.87 0.656298 -4.02687 0
M  V30 12311 H 1159.55 -0.491444 -4.12986 0
M  V30 12312 H 1158.12 1.23499 -3.51856 0
M  V30 12313 N 1160.31 1.56586 -0.178487 0
M  V30 12314 C 1161.56 1.96709 0.4637 0
M  V30 12315 C 1161.88 1.06586 1.63292 0
M  V30 12316 O 1161.15 0.133683 1.95443 0
M  V30 12317 H 1159.73 0.726381 0.174299 0
M  V30 12318 H 1162.39 1.9314 -0.261345 0
M  V30 12319 H 1161.49 3.01164 0.818934 0
M  V30 12320 N 1161.79 -0.095206 1.57312 0
M  V30 12321 C 1162.74 -1.12188 1.98489 0
M  V30 12322 C 1163.72 -1.35778 0.863317 0
M  V30 12323 O 1164.91 -1.36471 1.12715 0
M  V30 12324 C 1162.04 -2.44214 2.41277 0
M  V30 12325 C 1161.13 -2.23998 3.60119 0
M  V30 12326 N 1161.52 -1.7365 4.75057 0
M  V30 12327 C 1159.82 -2.54565 3.66214 0
M  V30 12328 C 1160.52 -1.67702 5.57002 0
M  V30 12329 N 1159.49 -2.12912 5.00169 0
M  V30 12330 H 1163.3 -0.725545 2.84804 0
M  V30 12331 H 1160.81 -0.302634 1.59555 0
M  V30 12332 H 1162.81 -3.185 2.69004 0
M  V30 12333 H 1161.47 -2.84585 1.56339 0
M  V30 12334 H 1162.48 -1.42849 4.9781 0
M  V30 12335 H 1159.15 -2.98461 2.91937 0
M  V30 12336 H 1160.54 -1.29827 6.59238 0
M  V30 12337 N 1163.26 -1.53291 -0.366026 0
M  V30 12338 C 1164.51 -1.69702 -1.11036 0
M  V30 12339 C 1164.84 -0.44728 -1.88979 0
M  V30 12340 O 1164.12 0.55542 -1.86401 0
M  V30 12341 C 1164.4 -2.94661 -2.06995 0
M  V30 12342 C 1164.25 -4.29791 -1.32663 0
M  V30 12343 C 1165.57 -3.15219 -3.07123 0
M  V30 12344 H 1162.69 -0.617525 -0.402284 0
M  V30 12345 H 1165.33 -1.85929 -0.391223 0
M  V30 12346 H 1163.48 -2.80958 -2.68318 0
M  V30 12347 H 1165.16 -4.55305 -0.741266 0
M  V30 12348 H 1163.4 -4.29223 -0.628484 0
M  V30 12349 H 1164.07 -5.13359 -2.02896 0
M  V30 12350 H 1166.55 -3.28105 -2.55903 0
M  V30 12351 H 1165.42 -4.04088 -3.71489 0
M  V30 12352 H 1165.68 -2.30479 -3.77269 0
M  V30 12353 N 1164.74 0.6258 -1.44643 0
M  V30 12354 C 1165.99 1.3873 -1.47925 0
M  V30 12355 C 1166.32 1.93868 -0.113469 0
M  V30 12356 O 1165.6 1.73976 0.869639 0
M  V30 12357 C 1165.88 2.54867 -2.54391 0
M  V30 12358 C 1165.73 2.05044 -4.00346 0
M  V30 12359 C 1167.05 3.57043 -2.57309 0
M  V30 12360 H 1164.17 0.503087 -0.538584 0
M  V30 12361 H 1166.81 0.707102 -1.76352 0
M  V30 12362 H 1164.96 3.12894 -2.30281 0
M  V30 12363 H 1166.63 1.51807 -4.35606 0
M  V30 12364 H 1164.88 1.36185 -4.11869 0
M  V30 12365 H 1165.55 2.88681 -4.70497 0
M  V30 12366 H 1168.02 3.08826 -2.78865 0
M  V30 12367 H 1166.9 4.35818 -3.33698 0
M  V30 12368 H 1167.16 4.11464 -1.61708 0
M  V30 12369 N 1166.22 1.31629 0.866686 0
M  V30 12370 C 1167.47 1.21683 1.62238 0
M  V30 12371 C 1167.8 -0.223767 1.92907 0
M  V30 12372 O 1167.07 -1.15761 1.563 0
M  V30 12373 C 1167.36 2.06443 2.95048 0
M  V30 12374 C 1167.21 3.58818 2.71237 0
M  V30 12375 C 1168.53 1.91634 3.96187 0
M  V30 12376 H 1165.65 0.443389 0.588707 0
M  V30 12377 H 1168.29 1.61453 1.00164 0
M  V30 12378 H 1166.44 1.72654 3.48027 0
M  V30 12379 H 1168.11 4.0276 2.24905 0
M  V30 12380 H 1166.36 3.82085 2.05411 0
M  V30 12381 H 1167.03 4.13436 3.65752 0
M  V30 12382 H 1169.5 2.21209 3.52428 0
M  V30 12383 H 1168.38 2.53236 4.86993 0
M  V30 12384 H 1168.64 0.880564 4.33242 0
M  V30 12385 N 1167.7 -1.08142 1.14644 0
M  V30 12386 C 1168.94 -1.82183 0.926747 0
M  V30 12387 C 1169.3 -1.8434 -0.53692 0
M  V30 12388 O 1170.5 -2.54172 -0.874651 0
M  V30 12389 C 1168.78 -3.23726 1.51446 0
M  V30 12390 S 1170.33 -4.14612 1.43673 0
M  V30 12391 H 1167.15 -0.627815 0.333721 0
M  V30 12392 H 1169.75 -1.29968 1.46043 0
M  V30 12393 H 1168.46 -3.19741 2.57282 0
M  V30 12394 H 1167.99 -3.81016 0.979289 0
M  V30 12395 H 1170 -4.94384 0.424105 0
M  V30 12396 N 1169.18 -0.941978 -1.26351 0
M  V30 12397 C 1170.43 -0.585711 -1.93009 0
M  V30 12398 C 1170.74 0.879507 -1.74711 0
M  V30 12399 O 1171.95 1.34518 -2.35833 0
M  V30 12400 C 1170.4 -0.996787 -3.45821 0
M  V30 12401 C 1170.01 -2.48367 -3.72851 0
M  V30 12402 C 1171.75 -0.712452 -4.18479 0
M  V30 12403 C 1169.66 -2.83341 -5.19107 0
M  V30 12404 H 1168.59 -0.215342 -0.722595 0
M  V30 12405 H 1171.24 -1.14472 -1.43417 0
M  V30 12406 H 1169.62 -0.366295 -3.94302 0
M  V30 12407 H 1170.8 -3.16328 -3.35072 0
M  V30 12408 H 1169.11 -2.74139 -3.13427 0
M  V30 12409 H 1171.71 -0.95007 -5.26192 0
M  V30 12410 H 1172.05 0.350811 -4.14819 0
M  V30 12411 H 1172.59 -1.3027 -3.75865 0
M  V30 12412 H 1169.32 -3.88633 -5.27868 0
M  V30 12413 H 1168.84 -2.20043 -5.5798 0
M  V30 12414 H 1170.52 -2.71849 -5.87118 0
M  V30 12415 N 1170.66 1.40747 -0.709091 0
M  V30 12416 C 1171.9 2.01003 -0.24581 0
M  V30 12417 C 1172.23 1.56203 1.15891 0
M  V30 12418 O 1171.49 0.770166 1.79908 0
M  V30 12419 C 1171.78 3.56404 -0.266685 0
M  V30 12420 C 1171.45 4.20762 -1.6208 0
M  V30 12421 C 1170.11 4.38056 -1.99148 0
M  V30 12422 C 1172.46 4.56723 -2.51105 0
M  V30 12423 C 1169.79 4.88591 -3.248 0
M  V30 12424 C 1172.14 5.08654 -3.76103 0
M  V30 12425 C 1170.81 5.24158 -4.13297 0
M  V30 12426 H 1170.08 0.73552 -0.0899481 0
M  V30 12427 H 1172.73 1.68451 -0.910844 0
M  V30 12428 H 1171.03 3.88825 0.481915 0
M  V30 12429 H 1172.73 4.0085 0.109509 0
M  V30 12430 H 1169.32 4.07685 -1.32252 0
M  V30 12431 H 1173.5 4.43004 -2.23744 0
M  V30 12432 H 1168.76 4.98779 -3.53595 0
M  V30 12433 H 1172.93 5.35457 -4.45262 0
M  V30 12434 H 1170.56 5.63079 -5.10731 0
M  V30 12435 N 1172.13 0.454803 1.50895 0
M  V30 12436 C 1173.38 -0.105562 2.01824 0
M  V30 12437 C 1173.7 -1.41673 1.33992 0
M  V30 12438 O 1172.97 -1.89929 0.479994 0
M  V30 12439 H 1171.55 -0.0420011 0.745818 0
M  V30 12440 H 1174.21 0.601504 1.85386 0
M  V30 12441 H 1173.31 -0.268872 3.1094 0
M  V30 12442 N 1173.61 -1.56489 0.186789 0
M  V30 12443 C 1174.89 -1.89066 -0.501337 0
M  V30 12444 C 1175.27 -1.09906 -1.80233 0
M  V30 12445 O 1174.62 -0.197626 -2.27644 0
M  V30 12446 C 1174.83 -3.41318 -0.728207 0
M  V30 12447 C 1176.17 -4.11379 -1.0513 0
M  V30 12448 O 1177.2 -3.46722 -0.816216 0
M  V30 12449 O 1176.06 -5.25638 -1.49557 0
M  V30 12450 H 1173.15 -0.784966 -0.260303 0
M  V30 12451 H 1175.7 -1.68183 0.226382 0
M  V30 12452 H 1174.47 -3.90834 0.19088 0
M  V30 12453 H 1174.09 -3.67865 -1.50869 0
M  V30 12454 N 1175.09 0.086862 -1.5736 0
M  V30 12455 C 1176.34 0.790008 -1.8678 0
M  V30 12456 C 1176.67 1.77977 -0.777042 0
M  V30 12457 O 1175.94 1.93317 0.21419 0
M  V30 12458 C 1176.23 1.51143 -3.26845 0
M  V30 12459 C 1176.08 0.539106 -4.46558 0
M  V30 12460 C 1177.4 2.46003 -3.64926 0
M  V30 12461 H 1174.52 0.285741 -0.679354 0
M  V30 12462 H 1177.16 0.0534655 -1.89925 0
M  V30 12463 H 1175.31 2.13928 -3.24295 0
M  V30 12464 H 1176.98 -0.0823679 -4.61226 0
M  V30 12465 H 1175.22 -0.146842 -4.33551 0
M  V30 12466 H 1175.9 1.0812 -5.41308 0
M  V30 12467 H 1178.37 1.93306 -3.68473 0
M  V30 12468 H 1177.25 2.93493 -4.63846 0
M  V30 12469 H 1177.51 3.30133 -2.94049 0
M  V30 12470 N 1176.57 1.53483 0.357892 0
M  V30 12471 C 1177.79 1.74264 1.12458 0
M  V30 12472 C 1178.22 0.473944 1.82031 0
M  V30 12473 O 1177.58 -0.57253 1.72023 0
M  V30 12474 C 1177.62 2.91356 2.12471 0
M  V30 12475 O 1176.73 2.60502 3.19707 0
M  V30 12476 H 1176.07 0.578499 0.325937 0
M  V30 12477 H 1178.6 2.00395 0.412666 0
M  V30 12478 H 1178.61 3.1774 2.5594 0
M  V30 12479 H 1177.28 3.83378 1.61226 0
M  V30 12480 H 1175.86 2.44961 2.81156 0
M  V30 12481 N 1178.05 -0.61812 1.44973 0
M  V30 12482 C 1179.27 -1.40921 1.52171 0
M  V30 12483 C 1179.7 -1.87487 0.151755 0
M  V30 12484 O 1179.05 -1.59518 -0.861606 0
M  V30 12485 C 1179.1 -2.59689 2.50188 0
M  V30 12486 O 1178.21 -3.59967 2.0124 0
M  V30 12487 H 1177.55 -0.421138 0.51336 0
M  V30 12488 H 1180.08 -0.753258 1.90229 0
M  V30 12489 H 1180.09 -3.07069 2.6865 0
M  V30 12490 H 1178.76 -2.25144 3.4969 0
M  V30 12491 H 1177.34 -3.19308 1.92605 0
M  V30 12492 N 1179.52 -1.32087 -0.859693 0
M  V30 12493 C 1180.49 -1.20546 -1.94939 0
M  V30 12494 C 1181.49 -0.12982 -1.60275 0
M  V30 12495 O 1182.68 -0.379853 -1.70008 0
M  V30 12496 C 1179.81 -0.852717 -3.30063 0
M  V30 12497 H 1181 -2.17384 -2.06602 0
M  V30 12498 H 1178.55 -1.15846 -1.04926 0
M  V30 12499 H 1179.29 0.114059 -3.24099 0
M  V30 12500 H 1179.07 -1.63035 -3.56598 0
M  V30 12501 H 1180.56 -0.796145 -4.09941 0
M  V30 12502 N 1181 1.07532 -1.15215 0
M  V30 12503 C 1181.93 2.1668 -0.870171 0
M  V30 12504 C 1182.91 1.69161 0.178483 0
M  V30 12505 O 1184.1 1.94172 0.0332489 0
M  V30 12506 C 1181.23 3.45464 -0.356666 0
M  V30 12507 C 1180.18 4.06424 -1.34179 0
M  V30 12508 C 1179.51 5.30266 -0.687206 0
M  V30 12509 C 1180.81 4.46666 -2.70715 0
M  V30 12510 H 1182.5 2.40526 -1.7829 0
M  V30 12511 H 1180.05 1.15598 -0.858665 0
M  V30 12512 H 1182 4.21144 -0.146947 0
M  V30 12513 H 1180.72 3.21199 0.591527 0
M  V30 12514 H 1179.38 3.32786 -1.53783 0
M  V30 12515 H 1179.03 5.0229 0.267077 0
M  V30 12516 H 1178.73 5.72009 -1.34462 0
M  V30 12517 H 1180.26 6.08653 -0.487218 0
M  V30 12518 H 1181.67 5.13483 -2.54966 0
M  V30 12519 H 1180.07 4.99355 -3.32813 0
M  V30 12520 H 1181.14 3.58123 -3.26919 0
M  V30 12521 N 1182.48 0.948665 1.2585 0
M  V30 12522 C 1183.73 0.595938 1.92695 0
M  V30 12523 C 1184.04 -0.870229 1.75175 0
M  V30 12524 O 1185.25 -1.33266 2.36543 0
M  V30 12525 C 1183.7 1.01511 3.45288 0
M  V30 12526 C 1183.31 2.50341 3.71528 0
M  V30 12527 C 1185.06 0.734635 4.18095 0
M  V30 12528 C 1182.96 2.8609 5.17597 0
M  V30 12529 H 1181.89 0.219171 0.721443 0
M  V30 12530 H 1184.54 1.15231 1.42807 0
M  V30 12531 H 1182.93 0.387201 3.94102 0
M  V30 12532 H 1184.1 3.18101 3.3339 0
M  V30 12533 H 1182.42 2.75797 3.11969 0
M  V30 12534 H 1185.01 0.977962 5.25681 0
M  V30 12535 H 1185.36 -0.328807 4.14999 0
M  V30 12536 H 1185.89 1.32262 3.75169 0
M  V30 12537 H 1182.63 3.91427 5.25799 0
M  V30 12538 H 1182.15 2.22999 5.56805 0
M  V30 12539 H 1183.83 2.74959 5.85668 0
M  V30 12540 N 1183.96 -1.40369 0.716545 0
M  V30 12541 C 1185.21 -2.00473 0.255959 0
M  V30 12542 C 1185.53 -1.57104 -1.15514 0
M  V30 12543 O 1184.8 -0.810925 -1.78328 0
M  V30 12544 H 1183.38 -0.741357 0.0916427 0
M  V30 12545 H 1186.04 -1.71692 0.922389 0
M  V30 12546 H 1185.14 -3.10752 0.289806 0
M  V30 12547 N 1185.44 -0.462799 -1.50652 0
M  V30 12548 C 1186.37 0.325724 -2.31217 0
M  V30 12549 C 1187.35 0.997942 -1.3775 0
M  V30 12550 O 1188.53 0.996707 -1.66671 0
M  V30 12551 C 1185.66 1.41283 -3.17264 0
M  V30 12552 C 1184.62 0.862687 -4.19216 0
M  V30 12553 C 1183.94 2.04746 -4.93946 0
M  V30 12554 C 1185.24 -0.120365 -5.22161 0
M  V30 12555 H 1186.94 -0.346666 -2.97386 0
M  V30 12556 H 1184.48 -0.168163 -1.43015 0
M  V30 12557 H 1186.44 1.97188 -3.72418 0
M  V30 12558 H 1185.16 2.11387 -2.48964 0
M  V30 12559 H 1183.82 0.325671 -3.65151 0
M  V30 12560 H 1183.47 2.73529 -4.22127 0
M  V30 12561 H 1183.17 1.68562 -5.62904 0
M  V30 12562 H 1184.69 2.61157 -5.51932 0
M  V30 12563 H 1186.1 0.349226 -5.72235 0
M  V30 12564 H 1184.5 -0.396061 -5.98792 0
M  V30 12565 H 1185.57 -1.04895 -4.73418 0
M  V30 12566 N 1186.91 1.56388 -0.195085 0
M  V30 12567 C 1188.33 1.58788 0.160758 0
M  V30 12568 C 1188.53 1.21125 1.61031 0
M  V30 12569 O 1187.59 0.933994 2.34591 0
M  V30 12570 C 1188.9 3.00366 -0.141588 0
M  V30 12571 C 1190.45 3.12893 -0.0816947 0
M  V30 12572 C 1190.92 4.56604 -0.35735 0
M  V30 12573 N 1192.41 4.62188 -0.305968 0
M  V30 12574 C 1193.15 5.71276 -0.493108 0
M  V30 12575 N 1192.64 6.8883 -0.740595 0
M  V30 12576 N 1194.44 5.60473 -0.427365 0
M  V30 12577 H 1186.59 1.79151 -1.14099 0
M  V30 12578 H 1188.85 0.831446 -0.455413 0
M  V30 12579 H 1188.56 3.32483 -1.14666 0
M  V30 12580 H 1188.43 3.73082 0.555834 0
M  V30 12581 H 1190.82 2.80589 0.913978 0
M  V30 12582 H 1190.9 2.42564 -0.812193 0
M  V30 12583 H 1190.54 4.8962 -1.35034 0
M  V30 12584 H 1190.47 5.25124 0.394036 0
M  V30 12585 H 1192.96 3.77705 -0.121298 0
M  V30 12586 H 1193.28 7.67862 -0.872201 0
M  V30 12587 H 1191.62 6.90637 -0.777488 0
M  V30 12588 H 1194.81 4.67513 -0.234436 0
M  V30 12589 H 1194.99 6.45429 -0.576627 0
M  V30 12590 N 1188.39 -0.0785156 1.57404 0
M  V30 12591 C 1189.34 -1.11278 2.04255 0
M  V30 12592 C 1190.33 -1.40482 0.946633 0
M  V30 12593 O 1191.54 -1.39968 1.13177 0
M  V30 12594 H 1187.92 -0.376157 0.65116 0
M  V30 12595 H 1189.89 -0.691437 2.90279 0
M  V30 12596 C 1188.64 -2.42006 2.49656 0
M  V30 12597 H 1187.96 -2.20383 3.33574 0
M  V30 12598 H 1189.4 -3.12837 2.86197 0
M  V30 12599 C 1187.86 -3.07488 1.37669 0
M  V30 12600 O 1188.39 -3.95285 0.715036 0
M  V30 12601 N 1186.59 -2.68004 1.1235 0
M  V30 12602 H 1186.14 -1.96698 1.66336 0
M  V30 12603 H 1186.1 -3.12141 0.376238 0
M  V30 12604 N 1189.87 -1.5367 -0.349747 0
M  V30 12605 C 1190.8 -1.84208 -1.43492 0
M  V30 12606 C 1191.78 -0.696725 -1.55177 0
M  V30 12607 O 1192.97 -0.948061 -1.69486 0
M  V30 12608 C 1190.1 -2.04613 -2.80625 0
M  V30 12609 C 1189.05 -3.20419 -2.83753 0
M  V30 12610 C 1188.38 -3.26147 -4.23713 0
M  V30 12611 C 1189.68 -4.58666 -2.49846 0
M  V30 12612 H 1191.37 -2.75087 -1.18185 0
M  V30 12613 H 1188.92 -1.32363 -0.567101 0
M  V30 12614 H 1190.87 -2.2456 -3.56582 0
M  V30 12615 H 1189.59 -1.10459 -3.07354 0
M  V30 12616 H 1188.25 -3.00318 -2.10249 0
M  V30 12617 H 1187.9 -2.29599 -4.47541 0
M  V30 12618 H 1187.6 -4.03963 -4.26717 0
M  V30 12619 H 1189.12 -3.48296 -5.0152 0
M  V30 12620 H 1190.54 -4.78668 -3.15516 0
M  V30 12621 H 1188.94 -5.3884 -2.64144 0
M  V30 12622 H 1190.01 -4.62697 -1.4505 0
M  V30 12623 N 1191.35 0.610423 -1.45298 0
M  V30 12624 C 1192.59 1.37154 -1.49388 0
M  V30 12625 C 1192.93 1.93737 -0.134025 0
M  V30 12626 O 1192.2 1.74888 0.851138 0
M  V30 12627 C 1192.49 2.52155 -2.5708 0
M  V30 12628 C 1192.34 2.00786 -4.02498 0
M  V30 12629 C 1193.66 3.54294 -2.61082 0
M  V30 12630 H 1190.78 0.497346 -0.54389 0
M  V30 12631 H 1193.42 0.688358 -1.77092 0
M  V30 12632 H 1191.57 3.10434 -2.33587 0
M  V30 12633 H 1193.24 1.47178 -4.37191 0
M  V30 12634 H 1191.48 1.31809 -4.1329 0
M  V30 12635 H 1192.15 2.83674 -4.73533 0
M  V30 12636 H 1194.63 3.05851 -2.82125 0
M  V30 12637 H 1193.51 4.32254 -3.38301 0
M  V30 12638 H 1193.77 4.09726 -1.66063 0
M  V30 12639 N 1192.83 1.32541 0.852676 0
M  V30 12640 C 1193.76 1.15977 1.96531 0
M  V30 12641 C 1194.74 0.0587267 1.62494 0
M  V30 12642 O 1195.92 0.218404 1.8723 0
M  V30 12643 C 1193.05 0.77587 3.29694 0
M  V30 12644 C 1192.09 1.88244 3.82709 0
M  V30 12645 S 1192.93 3.49108 4.06059 0
M  V30 12646 C 1194.08 3.12693 5.42193 0
M  V30 12647 H 1194.32 2.10165 2.1028 0
M  V30 12648 H 1191.85 1.17225 1.00487 0
M  V30 12649 H 1193.81 0.561136 4.06647 0
M  V30 12650 H 1192.47 -0.14718 3.13755 0
M  V30 12651 H 1191.66 1.56687 4.79025 0
M  V30 12652 H 1191.26 2.05313 3.12606 0
M  V30 12653 H 1193.56 2.62661 6.24512 0
M  V30 12654 H 1194.5 4.08038 5.78714 0
M  V30 12655 H 1194.91 2.4966 5.06291 0
M  V30 12656 N 1194.3 -1.0692 1.15784 0
M  V30 12657 C 1195.72 -1.61069 0.944123 0
M  V30 12658 C 1196.07 -1.8936 -0.513522 0
M  V30 12659 O 1195.19 -1.66232 -1.38549 0
M  V30 12660 C 1195.79 -2.9263 1.70743 0
M  V30 12661 C 1194.35 -3.43505 1.53887 0
M  V30 12662 C 1193.49 -2.17495 1.72021 0
M  V30 12663 H 1196.44 -0.89951 1.30746 0
M  V30 12664 H 1196.46 -3.61757 1.17951 0
M  V30 12665 H 1195.98 -2.72007 2.76828 0
M  V30 12666 H 1194.08 -3.69201 0.502153 0
M  V30 12667 H 1194.19 -4.19254 2.31868 0
M  V30 12668 H 1192.55 -2.27407 1.1471 0
M  V30 12669 H 1193.34 -1.99362 2.79481 0
M  V30 12670 N 1195.78 -0.955326 -1.25345 0
M  V30 12671 C 1196.71 -0.494145 -2.28211 0
M  V30 12672 C 1197.69 0.459875 -1.63766 0
M  V30 12673 O 1198.88 0.358679 -1.90859 0
M  V30 12674 C 1196.01 0.228228 -3.46549 0
M  V30 12675 C 1194.96 -0.640601 -4.23179 0
M  V30 12676 C 1194.29 0.212553 -5.34277 0
M  V30 12677 C 1195.59 -1.91906 -4.85767 0
M  V30 12678 H 1197.28 -1.35391 -2.67039 0
M  V30 12679 H 1194.83 -0.652462 -1.2837 0
M  V30 12680 H 1196.78 0.561995 -4.17636 0
M  V30 12681 H 1195.51 1.12224 -3.06714 0
M  V30 12682 H 1194.16 -0.957462 -3.53876 0
M  V30 12683 H 1193.81 1.10634 -4.90682 0
M  V30 12684 H 1193.51 -0.365473 -5.86462 0
M  V30 12685 H 1195.04 0.541271 -6.08196 0
M  V30 12686 H 1196.45 -1.65165 -5.48993 0
M  V30 12687 H 1194.85 -2.44279 -5.48131 0
M  V30 12688 H 1195.92 -2.62173 -4.07914 0
M  V30 12689 N 1197.26 1.39987 -0.723979 0
M  V30 12690 C 1198.68 1.54547 -0.398403 0
M  V30 12691 C 1198.88 1.69348 1.09194 0
M  V30 12692 O 1197.93 1.68778 1.87804 0
M  V30 12693 C 1199.25 2.76929 -1.1718 0
M  V30 12694 C 1200.79 2.90754 -1.15893 0
M  V30 12695 C 1201.27 4.16059 -1.91465 0
M  V30 12696 N 1202.76 4.23076 -1.88576 0
M  V30 12697 C 1203.5 5.18957 -2.43867 0
M  V30 12698 N 1202.99 6.20695 -3.0775 0
M  V30 12699 N 1204.78 5.11095 -2.33962 0
M  V30 12700 H 1196.94 1.28626 -1.69024 0
M  V30 12701 H 1199.2 0.6226 -0.714894 0
M  V30 12702 H 1198.9 2.72298 -2.22591 0
M  V30 12703 H 1198.78 3.69279 -0.768941 0
M  V30 12704 H 1201.17 2.94884 -0.112978 0
M  V30 12705 H 1201.25 1.99498 -1.60107 0
M  V30 12706 H 1200.89 4.12691 -2.96055 0
M  V30 12707 H 1200.82 5.06339 -1.44665 0
M  V30 12708 H 1203.31 3.50195 -1.42027 0
M  V30 12709 H 1203.62 6.90296 -3.47435 0
M  V30 12710 H 1201.97 6.21114 -3.11837 0
M  V30 12711 H 1205.16 4.30546 -1.83706 0
M  V30 12712 H 1205.33 5.85644 -2.77353 0
M  V30 12713 N 1198.74 0.470782 1.50404 0
M  V30 12714 C 1199.7 -0.312227 2.27063 0
M  V30 12715 C 1200.7 -0.920709 1.31832 0
M  V30 12716 O 1201.89 -0.789937 1.5526 0
M  V30 12717 C 1199.02 -1.44477 3.0877 0
M  V30 12718 H 1200.22 0.36006 2.97731 0
M  V30 12719 H 1197.77 0.224837 1.54674 0
M  V30 12720 H 1198.51 -2.15212 2.42599 0
M  V30 12721 H 1198.29 -1.01426 3.78755 0
M  V30 12722 H 1199.78 -1.99713 3.66749 0
M  V30 12723 N 1200.22 -1.56282 0.203376 0
M  V30 12724 C 1201.44 -2.02643 -0.441658 0
M  V30 12725 C 1201.87 -1.0825 -1.5383 0
M  V30 12726 O 1201.23 -0.0674337 -1.81175 0
M  V30 12727 C 1201.27 -3.47382 -0.967369 0
M  V30 12728 O 1200.38 -3.56115 -2.07981 0
M  V30 12729 H 1199.72 -0.656081 -0.102242 0
M  V30 12730 H 1202.25 -2.02134 0.316684 0
M  V30 12731 H 1202.26 -3.8734 -1.28186 0
M  V30 12732 H 1200.93 -4.15574 -0.164625 0
M  V30 12733 H 1199.51 -3.28035 -1.77334 0
M  V30 12734 N 1201.7 0.070167 -1.57444 0
M  V30 12735 C 1202.64 1.10193 -2.04842 0
M  V30 12736 C 1203.64 1.39978 -0.954069 0
M  V30 12737 O 1204.84 1.39366 -1.13917 0
M  V30 12738 H 1201.22 0.372699 -0.653146 0
M  V30 12739 H 1203.19 0.676033 -2.90641 0
M  V30 12740 C 1201.94 2.40679 -2.50936 0
M  V30 12741 H 1201.26 2.1861 -3.34738 0
M  V30 12742 H 1202.7 3.11315 -2.87852 0
M  V30 12743 C 1201.16 3.06754 -1.39297 0
M  V30 12744 O 1201.69 3.949 -0.735989 0
M  V30 12745 N 1199.9 2.67404 -1.13769 0
M  V30 12746 H 1199.44 1.95813 -1.67376 0
M  V30 12747 H 1199.4 3.11937 -0.392787 0
M  V30 12748 N 1203.17 1.53854 0.341593 0
M  V30 12749 C 1204.42 1.71194 1.08162 0
M  V30 12750 C 1204.75 0.47614 1.88582 0
M  V30 12751 O 1204 -0.542115 1.88041 0
M  V30 12752 C 1204.3 2.92844 2.04884 0
M  V30 12753 C 1203.97 4.28366 1.40759 0
M  V30 12754 C 1202.63 4.65214 1.23 0
M  V30 12755 C 1204.98 5.12546 0.945819 0
M  V30 12756 C 1202.31 5.83857 0.576852 0
M  V30 12757 C 1204.66 6.31857 0.306568 0
M  V30 12758 C 1203.33 6.67398 0.116677 0
M  V30 12759 H 1202.6 0.626442 0.395792 0
M  V30 12760 H 1205.24 1.88073 0.360688 0
M  V30 12761 H 1203.55 2.70576 2.83365 0
M  V30 12762 H 1205.25 3.03454 2.62139 0
M  V30 12763 H 1201.84 3.99366 1.5558 0
M  V30 12764 H 1206.02 4.84609 1.07087 0
M  V30 12765 H 1201.28 6.09967 0.418363 0
M  V30 12766 H 1205.45 6.96375 -0.0593285 0
M  V30 12767 H 1203.08 7.59191 -0.391477 0
M  V30 12768 N 1204.65 -0.602709 1.4562 0
M  V30 12769 C 1205.6 -1.70753 1.51088 0
M  V30 12770 C 1206.59 -1.56501 0.373662 0
M  V30 12771 O 1207.78 -1.65755 0.620828 0
M  V30 12772 C 1204.91 -3.09515 1.48511 0
M  V30 12773 C 1203.99 -3.29135 2.67453 0
M  V30 12774 N 1204.38 -3.18996 3.92524 0
M  V30 12775 C 1202.68 -3.60019 2.63253 0
M  V30 12776 C 1203.38 -3.40079 4.71933 0
M  V30 12777 N 1202.36 -3.64299 4.03469 0
M  V30 12778 H 1206.16 -1.61414 2.45607 0
M  V30 12779 H 1203.67 -0.806122 1.4098 0
M  V30 12780 H 1205.67 -3.88782 1.50513 0
M  V30 12781 H 1204.33 -3.19999 0.550526 0
M  V30 12782 H 1205.34 -2.97292 4.24073 0
M  V30 12783 H 1202.02 -3.77311 1.78725 0
M  V30 12784 H 1203.41 -3.37593 5.80931 0
M  V30 12785 N 1206.13 -1.32992 -0.845635 0
M  V30 12786 C 1207.36 -1.26903 -1.63031 0
M  V30 12787 C 1207.77 0.163589 -1.88491 0
M  V30 12788 O 1207.11 1.11402 -1.46066 0
M  V30 12789 C 1207.17 -1.96843 -3.00821 0
M  V30 12790 C 1206.84 -3.46164 -2.98362 0
M  V30 12791 C 1207.83 -4.41488 -2.74562 0
M  V30 12792 C 1205.52 -3.88237 -3.18712 0
M  V30 12793 C 1207.51 -5.7686 -2.71129 0
M  V30 12794 C 1205.2 -5.23715 -3.14905 0
M  V30 12795 C 1206.2 -6.17838 -2.91144 0
M  V30 12796 O 1205.89 -7.50836 -2.87228 0
M  V30 12797 H 1205.62 -0.438806 -0.514223 0
M  V30 12798 H 1208.17 -1.75817 -1.06196 0
M  V30 12799 H 1206.4 -1.42511 -3.59482 0
M  V30 12800 H 1208.09 -1.84343 -3.61625 0
M  V30 12801 H 1208.86 -4.10308 -2.58598 0
M  V30 12802 H 1204.74 -3.1539 -3.36229 0
M  V30 12803 H 1208.28 -6.50299 -2.52502 0
M  V30 12804 H 1204.18 -5.54523 -3.30416 0
M  V30 12805 H 1204.94 -7.60304 -3.03118 0
M  V30 12806 N 1207.61 1.06304 -1.1635 0
M  V30 12807 C 1208.56 2.12032 -0.83825 0
M  V30 12808 C 1209.54 1.59864 0.182254 0
M  V30 12809 O 1210.73 1.7699 -0.0185576 0
M  V30 12810 C 1207.86 3.41603 -0.340968 0
M  V30 12811 C 1206.95 4.00596 -1.39225 0
M  V30 12812 N 1207.34 4.33703 -2.6026 0
M  V30 12813 C 1205.64 4.28199 -1.24748 0
M  V30 12814 C 1206.34 4.80595 -3.27725 0
M  V30 12815 N 1205.31 4.80023 -2.55105 0
M  V30 12816 H 1209.12 2.35475 -1.75866 0
M  V30 12817 H 1206.63 1.23845 -1.05053 0
M  V30 12818 H 1208.63 4.16804 -0.0895629 0
M  V30 12819 H 1207.29 3.19598 0.57337 0
M  V30 12820 H 1208.3 4.24055 -2.97318 0
M  V30 12821 H 1204.98 4.15638 -0.393887 0
M  V30 12822 H 1206.37 5.15416 -4.31041 0
M  V30 12823 N 1209.09 0.96196 1.24836 0
M  V30 12824 C 1210 0.494876 2.29321 0
M  V30 12825 C 1211.01 -0.441363 1.68309 0
M  V30 12826 O 1212.19 -0.315814 1.98908 0
M  V30 12827 C 1209.25 -0.212944 3.46045 0
M  V30 12828 C 1208.31 0.762411 4.22476 0
M  V30 12829 C 1207.55 0.0882756 5.33627 0
M  V30 12830 O 1207.77 -1.12459 5.59204 0
M  V30 12831 O 1206.7 0.777529 5.96857 0
M  V30 12832 H 1210.53 1.36333 2.7138 0
M  V30 12833 H 1208.11 0.728738 1.30421 0
M  V30 12834 H 1210 -0.610805 4.1695 0
M  V30 12835 H 1208.67 -1.05645 3.05975 0
M  V30 12836 H 1207.58 1.21062 3.5397 0
M  V30 12837 H 1208.91 1.57416 4.66349 0
M  V30 12838 N 1210.56 -1.39601 0.731392 0
M  V30 12839 C 1211.49 -2.33268 0.1041 0
M  V30 12840 C 1212.47 -1.53724 -0.728219 0
M  V30 12841 O 1213.66 -1.82131 -0.673933 0
M  V30 12842 C 1210.79 -3.37802 -0.806646 0
M  V30 12843 C 1209.74 -4.27928 -0.0787588 0
M  V30 12844 C 1209.07 -5.23131 -1.10628 0
M  V30 12845 C 1210.37 -5.11086 1.07651 0
M  V30 12846 H 1212.06 -2.85975 0.886496 0
M  V30 12847 H 1209.61 -1.375 0.427746 0
M  V30 12848 H 1211.56 -4.02278 -1.25499 0
M  V30 12849 H 1210.29 -2.83527 -1.62112 0
M  V30 12850 H 1208.95 -3.64926 0.349926 0
M  V30 12851 H 1208.59 -4.65152 -1.91422 0
M  V30 12852 H 1208.29 -5.84277 -0.624043 0
M  V30 12853 H 1209.82 -5.90483 -1.5544 0
M  V30 12854 H 1211.23 -5.68927 0.706781 0
M  V30 12855 H 1209.63 -5.81356 1.48814 0
M  V30 12856 H 1210.7 -4.46131 1.89988 0
M  V30 12857 N 1212.04 -0.478751 -1.50152 0
M  V30 12858 C 1212.99 0.311426 -2.28689 0
M  V30 12859 C 1213.96 0.980375 -1.34082 0
M  V30 12860 O 1215.14 0.991337 -1.63025 0
M  V30 12861 C 1212.28 1.38302 -3.16175 0
M  V30 12862 C 1211.4 0.728084 -4.2582 0
M  V30 12863 C 1210.53 1.77822 -5.00552 0
M  V30 12864 C 1209.57 1.10395 -6.02063 0
M  V30 12865 N 1208.71 2.09728 -6.70044 0
M  V30 12866 H 1213.55 -0.364592 -2.95761 0
M  V30 12867 H 1211.09 -0.191645 -1.45846 0
M  V30 12868 H 1213.04 2.01606 -3.65255 0
M  V30 12869 H 1211.67 2.0281 -2.51133 0
M  V30 12870 H 1210.73 -0.0177026 -3.80396 0
M  V30 12871 H 1212.04 0.196209 -4.98414 0
M  V30 12872 H 1211.19 2.48687 -5.53389 0
M  V30 12873 H 1209.93 2.34392 -4.27682 0
M  V30 12874 H 1208.94 0.38096 -5.48479 0
M  V30 12875 H 1210.16 0.545045 -6.76909 0
M  V30 12876 H 1208.11 2.65301 -5.9996 0
M  V30 12877 H 1208.02 1.61546 -7.38538 0
M  V30 12878 H 1209.29 2.7995 -7.27495 0
M  V30 12879 N 1213.52 1.56172 -0.211661 0
M  V30 12880 C 1214.47 2.16477 0.715675 0
M  V30 12881 C 1215.45 1.11023 1.16459 0
M  V30 12882 O 1216.65 1.3704 1.12023 0
M  V30 12883 C 1213.78 2.84055 1.92789 0
M  V30 12884 C 1212.86 3.96721 1.49911 0
M  V30 12885 N 1213.25 4.99714 0.782304 0
M  V30 12886 C 1211.55 4.08628 1.78716 0
M  V30 12887 C 1212.25 5.78949 0.565043 0
M  V30 12888 N 1211.23 5.31963 1.11878 0
M  V30 12889 H 1215.03 2.93467 0.15948 0
M  V30 12890 H 1212.54 1.62395 -0.012521 0
M  V30 12891 H 1214.54 3.25662 2.60289 0
M  V30 12892 H 1213.2 2.08558 2.48865 0
M  V30 12893 H 1214.21 5.16061 0.436021 0
M  V30 12894 H 1210.89 3.44273 2.36183 0
M  V30 12895 H 1212.28 6.719 -0.00477074 0
M  V30 12896 N 1215 -0.0618163 1.57479 0
M  V30 12897 C 1216.25 -0.75794 1.86918 0
M  V30 12898 C 1216.56 -1.78234 0.80572 0
M  V30 12899 O 1217.77 -2.52874 0.98827 0
M  V30 12900 C 1216.22 -1.39898 3.31597 0
M  V30 12901 C 1215.83 -0.412621 4.46096 0
M  V30 12902 C 1217.57 -2.07688 3.70224 0
M  V30 12903 C 1215.48 -1.06014 5.8182 0
M  V30 12904 H 1214.41 -0.286825 0.697314 0
M  V30 12905 H 1217.06 -0.0114386 1.83496 0
M  V30 12906 H 1215.44 -2.19408 3.29661 0
M  V30 12907 H 1216.62 0.353392 4.59443 0
M  V30 12908 H 1214.93 0.161383 4.16087 0
M  V30 12909 H 1217.53 -2.56928 4.68927 0
M  V30 12910 H 1217.87 -2.88073 3.00532 0
M  V30 12911 H 1218.41 -1.34996 3.74194 0
M  V30 12912 H 1215.15 -0.296405 6.5483 0
M  V30 12913 H 1214.67 -1.79677 5.72255 0
M  V30 12914 H 1216.34 -1.57708 6.27485 0
M  V30 12915 N 1216.48 -1.54033 -0.333429 0
M  V30 12916 C 1217.72 -1.72019 -1.07411 0
M  V30 12917 C 1218.06 -0.487265 -1.87988 0
M  V30 12918 O 1217.33 0.515757 -1.87537 0
M  V30 12919 C 1217.61 -2.98986 -2.00698 0
M  V30 12920 C 1217.47 -4.32509 -1.23517 0
M  V30 12921 C 1218.79 -3.21663 -3.00368 0
M  V30 12922 H 1215.9 -0.625919 -0.389094 0
M  V30 12923 H 1218.55 -1.86717 -0.351697 0
M  V30 12924 H 1216.7 -2.86586 -2.62298 0
M  V30 12925 H 1218.37 -4.56775 -0.644522 0
M  V30 12926 H 1216.61 -4.3046 -0.537298 0
M  V30 12927 H 1217.28 -5.17547 -1.91962 0
M  V30 12928 H 1219.76 -3.33459 -2.48886 0
M  V30 12929 H 1218.63 -4.11877 -3.62834 0
M  V30 12930 H 1218.9 -2.3843 -3.72295 0
M  V30 12931 N 1217.95 0.594978 -1.45938 0
M  V30 12932 C 1219.2 1.35361 -1.50611 0
M  V30 12933 C 1219.53 1.93898 -0.152866 0
M  V30 12934 O 1218.78 1.76275 0.850037 0
M  V30 12935 C 1219.08 2.51129 -2.54301 0
M  V30 12936 C 1218.75 2.1066 -3.98664 0
M  V30 12937 C 1217.41 1.99338 -4.3797 0
M  V30 12938 C 1219.76 1.79267 -4.894 0
M  V30 12939 C 1217.09 1.54863 -5.65893 0
M  V30 12940 C 1219.44 1.36274 -6.17748 0
M  V30 12941 C 1218.11 1.2352 -6.55972 0
M  V30 12942 H 1217.38 0.49532 -0.551125 0
M  V30 12943 H 1220.02 0.671236 -1.79351 0
M  V30 12944 H 1218.33 3.24759 -2.19177 0
M  V30 12945 H 1220.03 3.09353 -2.55151 0
M  V30 12946 H 1216.62 2.20403 -3.67587 0
M  V30 12947 H 1220.8 1.86906 -4.59761 0
M  V30 12948 H 1216.06 1.43621 -5.94292 0
M  V30 12949 H 1220.23 1.11032 -6.87492 0
M  V30 12950 H 1217.86 0.88832 -7.54992 0
M  V30 12951 N 1219.43 1.33438 0.838571 0
M  V30 12952 C 1220.68 1.25097 1.5962 0
M  V30 12953 C 1221.01 -0.182798 1.93338 0
M  V30 12954 O 1220.29 -1.1242 1.5872 0
M  V30 12955 C 1220.57 2.12655 2.90603 0
M  V30 12956 C 1220.42 3.64491 2.63565 0
M  V30 12957 C 1221.74 1.99994 3.92033 0
M  V30 12958 H 1218.86 0.455776 0.579169 0
M  V30 12959 H 1221.5 1.63542 0.967169 0
M  V30 12960 H 1219.65 1.79998 3.44286 0
M  V30 12961 H 1221.32 4.0744 2.16312 0
M  V30 12962 H 1219.57 3.86356 1.9726 0
M  V30 12963 H 1220.24 4.21101 3.569 0
M  V30 12964 H 1222.71 2.28635 3.47657 0
M  V30 12965 H 1221.59 2.63509 4.81512 0
M  V30 12966 H 1221.85 0.972263 4.31277 0
M  V30 12967 N 1220.91 -1.05686 1.16912 0
M  V30 12968 C 1222.16 -1.78244 0.95254 0
M  V30 12969 C 1222.48 -1.87924 -0.520525 0
M  V30 12970 O 1221.75 -1.39239 -1.37802 0
M  V30 12971 H 1220.33 -0.660228 0.349439 0
M  V30 12972 H 1222.99 -1.27634 1.47294 0
M  V30 12973 H 1222.09 -2.80102 1.37657 0
M  V30 12974 N 1222.39 -0.968567 -1.24324 0
M  V30 12975 C 1223.61 -0.648166 -1.97012 0
M  V30 12976 C 1224.04 0.775842 -1.71354 0
M  V30 12977 O 1223.4 1.52672 -0.977804 0
M  V30 12978 C 1223.44 -0.929974 -3.48402 0
M  V30 12979 O 1222.55 -0.015854 -4.12397 0
M  V30 12980 H 1221.89 -0.244961 -0.617163 0
M  V30 12981 H 1224.42 -1.29895 -1.58077 0
M  V30 12982 H 1224.43 -0.861863 -3.98793 0
M  V30 12983 H 1223.1 -1.96776 -3.66404 0
M  V30 12984 H 1221.68 -0.137361 -3.72647 0
M  V30 12985 N 1223.87 1.39211 -0.738786 0
M  V30 12986 C 1225.12 1.99673 -0.285254 0
M  V30 12987 C 1225.43 1.59297 1.13507 0
M  V30 12988 O 1226.63 2.12622 1.68832 0
M  V30 12989 C 1225.09 3.5696 -0.45906 0
M  V30 12990 C 1224.7 4.06297 -1.88751 0
M  V30 12991 C 1226.44 4.24446 -0.0674954 0
M  V30 12992 C 1224.35 5.56171 -2.01067 0
M  V30 12993 H 1223.28 0.746945 -0.102901 0
M  V30 12994 H 1225.93 1.59163 -0.913209 0
M  V30 12995 H 1224.31 3.95285 0.23785 0
M  V30 12996 H 1225.49 3.79297 -2.61669 0
M  V30 12997 H 1223.8 3.51486 -2.23264 0
M  V30 12998 H 1226.4 5.34521 -0.138475 0
M  V30 12999 H 1226.74 4.04653 0.977823 0
M  V30 13000 H 1227.27 3.91309 -0.715704 0
M  V30 13001 H 1224.01 5.80849 -3.03801 0
M  V30 13002 H 1223.53 5.84961 -1.32591 0
M  V30 13003 H 1225.21 6.21642 -1.79362 0
M  V30 13004 N 1225.34 0.486708 1.49896 0
M  V30 13005 C 1226.25 -0.304222 2.32619 0
M  V30 13006 C 1227.27 -0.981103 1.43702 0
M  V30 13007 O 1228.45 -0.965639 1.76741 0
M  V30 13008 C 1225.51 -1.36301 3.18783 0
M  V30 13009 C 1224.57 -0.701082 4.23537 0
M  V30 13010 C 1223.81 -1.70943 5.05583 0
M  V30 13011 O 1224.03 -2.93773 4.88931 0
M  V30 13012 O 1222.96 -1.27263 5.88292 0
M  V30 13013 H 1226.79 0.37248 3.01407 0
M  V30 13014 H 1224.37 0.248277 1.47323 0
M  V30 13015 H 1226.26 -1.97594 3.72202 0
M  V30 13016 H 1224.93 -2.0229 2.52706 0
M  V30 13017 H 1223.84 -0.0487926 3.74068 0
M  V30 13018 H 1225.17 -0.0838817 4.92129 0
M  V30 13019 N 1226.82 -1.56058 0.219941 0
M  V30 13020 C 1228.05 -2.02358 -0.416497 0
M  V30 13021 C 1228.46 -1.09903 -1.54007 0
M  V30 13022 O 1227.8 -0.100635 -1.83424 0
M  V30 13023 C 1227.87 -3.45 -1.01072 0
M  V30 13024 C 1227.53 -4.56994 -0.0227891 0
M  V30 13025 C 1228.53 -5.14061 0.776997 0
M  V30 13026 C 1226.21 -5.02209 0.0954981 0
M  V30 13027 C 1228.21 -6.14813 1.68179 0
M  V30 13028 C 1225.89 -6.02799 1.00383 0
M  V30 13029 C 1226.89 -6.58977 1.79552 0
M  V30 13030 O 1226.58 -7.57608 2.68858 0
M  V30 13031 H 1226.31 -0.667581 -0.106355 0
M  V30 13032 H 1228.87 -2.02677 0.333348 0
M  V30 13033 H 1227.1 -3.41745 -1.80962 0
M  V30 13034 H 1228.78 -3.74958 -1.55439 0
M  V30 13035 H 1229.55 -4.79979 0.696053 0
M  V30 13036 H 1225.43 -4.58164 -0.510599 0
M  V30 13037 H 1228.97 -6.58588 2.30017 0
M  V30 13038 H 1224.87 -6.36302 1.08579 0
M  V30 13039 H 1225.64 -7.75124 2.62915 0
M  V30 13040 N 1228.3 0.053464 -1.57509 0
M  V30 13041 C 1229.23 1.06151 -2.07977 0
M  V30 13042 C 1230.21 1.3924 -0.977047 0
M  V30 13043 O 1231.4 1.48549 -1.25087 0
M  V30 13044 C 1228.53 2.36969 -2.53895 0
M  V30 13045 C 1227.48 2.18186 -3.6821 0
M  V30 13046 C 1226.81 3.54551 -4.00247 0
M  V30 13047 C 1228.11 1.588 -4.97574 0
M  V30 13048 H 1229.8 0.641483 -2.92447 0
M  V30 13049 H 1227.35 0.307122 -1.40687 0
M  V30 13050 H 1229.3 3.07797 -2.87817 0
M  V30 13051 H 1228.02 2.80986 -1.66476 0
M  V30 13052 H 1226.68 1.49796 -3.34599 0
M  V30 13053 H 1226.33 3.96171 -3.09932 0
M  V30 13054 H 1226.03 3.42816 -4.77232 0
M  V30 13055 H 1227.56 4.2678 -4.36682 0
M  V30 13056 H 1228.97 2.19515 -5.29609 0
M  V30 13057 H 1227.37 1.57711 -5.79006 0
M  V30 13058 H 1228.44 0.551254 -4.81756 0
M  V30 13059 N 1229.78 1.54207 0.325255 0
M  V30 13060 C 1230.73 1.83474 1.40021 0
M  V30 13061 C 1231.7 0.681719 1.51466 0
M  V30 13062 O 1232.88 0.92798 1.66713 0
M  V30 13063 C 1230.02 2.06624 2.76407 0
M  V30 13064 C 1229.13 3.3431 2.73607 0
M  V30 13065 C 1228.27 3.4743 4.01828 0
M  V30 13066 C 1227.31 4.68997 3.93329 0
M  V30 13067 N 1226.45 4.79052 5.13277 0
M  V30 13068 H 1231.29 2.75182 1.14363 0
M  V30 13069 H 1228.82 1.36284 0.553639 0
M  V30 13070 H 1230.78 2.18037 3.5569 0
M  V30 13071 H 1229.41 1.18209 3.00377 0
M  V30 13072 H 1228.46 3.31643 1.86324 0
M  V30 13073 H 1229.77 4.237 2.6321 0
M  V30 13074 H 1228.93 3.58376 4.89542 0
M  V30 13075 H 1227.67 2.56128 4.1503 0
M  V30 13076 H 1226.67 4.58109 3.04 0
M  V30 13077 H 1227.9 5.61681 3.81695 0
M  V30 13078 H 1225.84 3.90666 5.26988 0
M  V30 13079 H 1225.76 5.62406 5.05208 0
M  V30 13080 H 1227.03 4.94328 6.02711 0
M  V30 13081 N 1231.26 -0.58723 1.46251 0
M  V30 13082 C 1232.67 -0.910129 1.31106 0
M  V30 13083 C 1232.87 -1.99557 0.279141 0
M  V30 13084 O 1231.93 -2.50466 -0.319867 0
M  V30 13085 C 1233.24 -1.33177 2.69601 0
M  V30 13086 C 1234.79 -1.44486 2.77656 0
M  V30 13087 C 1235.27 -1.90018 4.16722 0
M  V30 13088 N 1236.76 -1.97219 4.19117 0
M  V30 13089 C 1237.49 -2.33714 5.23608 0
M  V30 13090 N 1236.99 -2.69034 6.3843 0
M  V30 13091 N 1238.78 -2.3423 5.10972 0
M  V30 13092 H 1230.93 0.12987 2.12003 0
M  V30 13093 H 1233.19 -0.00456718 0.947989 0
M  V30 13094 H 1232.9 -0.608243 3.464 0
M  V30 13095 H 1232.77 -2.29421 2.99409 0
M  V30 13096 H 1235.16 -2.15926 2.01147 0
M  V30 13097 H 1235.24 -0.465047 2.51537 0
M  V30 13098 H 1234.89 -1.19159 4.93724 0
M  V30 13099 H 1234.82 -2.88949 4.40245 0
M  V30 13100 H 1237.31 -1.72431 3.36268 0
M  V30 13101 H 1237.62 -2.95822 7.13939 0
M  V30 13102 H 1235.97 -2.66683 6.41798 0
M  V30 13103 H 1239.16 -2.06056 4.20308 0
M  V30 13104 H 1239.33 -2.62345 5.92519 0
M  V30 13105 N 1232.74 -1.33881 -0.831482 0
M  V30 13106 C 1233.65 -1.26802 -1.97379 0
M  V30 13107 C 1234.66 -0.177233 -1.73095 0
M  V30 13108 O 1235.84 -0.402163 -1.97344 0
M  V30 13109 C 1232.9 -1.01474 -3.31517 0
M  V30 13110 C 1231.96 -2.19626 -3.68867 0
M  V30 13111 C 1231.2 -1.95497 -4.96605 0
M  V30 13112 O 1231.42 -0.908948 -5.63111 0
M  V30 13113 O 1230.35 -2.82226 -5.31632 0
M  V30 13114 H 1234.18 -2.22883 -2.06293 0
M  V30 13115 H 1231.76 -1.14001 -0.965613 0
M  V30 13116 H 1233.65 -0.890954 -4.11874 0
M  V30 13117 H 1232.32 -0.0842656 -3.2359 0
M  V30 13118 H 1231.23 -2.37561 -2.88991 0
M  V30 13119 H 1232.56 -3.11034 -3.81469 0
M  V30 13120 N 1234.21 1.05064 -1.1747 0
M  V30 13121 C 1235.46 1.78491 -0.975314 0
M  V30 13122 C 1235.81 1.86036 0.490734 0
M  V30 13123 O 1235.11 1.35005 1.35956 0
M  V30 13124 C 1235.3 3.21961 -1.55164 0
M  V30 13125 C 1235.13 3.28399 -3.0722 0
M  V30 13126 C 1233.9 3.37611 -3.75962 0
M  V30 13127 C 1236.1 3.17234 -4.04805 0
M  V30 13128 N 1234.08 3.33193 -5.15612 0
M  V30 13129 C 1235.45 3.20202 -5.30915 0
M  V30 13130 C 1237.51 3.01205 -3.96459 0
M  V30 13131 C 1236.21 3.08787 -6.49648 0
M  V30 13132 C 1238.24 2.91133 -5.14777 0
M  V30 13133 C 1237.6 2.94735 -6.39774 0
M  V30 13134 H 1233.7 0.665407 -0.4108 0
M  V30 13135 H 1236.28 1.25236 -1.49077 0
M  V30 13136 H 1234.45 3.73585 -1.0625 0
M  V30 13137 H 1236.18 3.83632 -1.28876 0
M  V30 13138 H 1232.94 3.42926 -3.26648 0
M  V30 13139 H 1233.36 3.3445 -5.88619 0
M  V30 13140 H 1238 2.97258 -3.00662 0
M  V30 13141 H 1235.72 3.11489 -7.45654 0
M  V30 13142 H 1239.31 2.798 -5.10101 0
M  V30 13143 H 1238.19 2.87016 -7.29789 0
M  V30 13144 N 1235.69 0.975146 1.23809 0
M  V30 13145 C 1236.6 0.51917 2.28783 0
M  V30 13146 C 1237.62 -0.423487 1.68768 0
M  V30 13147 O 1238.79 -0.294699 1.99232 0
M  V30 13148 C 1235.86 -0.176229 3.46252 0
M  V30 13149 C 1234.92 0.807177 4.21643 0
M  V30 13150 C 1234.15 0.144869 5.33503 0
M  V30 13151 O 1234.38 -1.06522 5.60365 0
M  V30 13152 O 1233.31 0.84079 5.95999 0
M  V30 13153 H 1237.14 1.39204 2.69919 0
M  V30 13154 H 1234.72 0.74253 1.29641 0
M  V30 13155 H 1236.6 -0.566547 4.17574 0
M  V30 13156 H 1235.28 -1.02394 3.07078 0
M  V30 13157 H 1234.18 1.2481 3.52666 0
M  V30 13158 H 1235.52 1.62354 4.64653 0
M  V30 13159 N 1237.17 -1.38817 0.746158 0
M  V30 13160 C 1238.4 -2.0457 0.309605 0
M  V30 13161 C 1238.81 -1.5627 -1.05948 0
M  V30 13162 O 1238.17 -0.73248 -1.67156 0
M  V30 13163 C 1238.22 -3.60126 0.314843 0
M  V30 13164 O 1237.94 -4.06652 1.6299 0
M  V30 13165 C 1239.44 -4.4309 -0.136497 0
M  V30 13166 H 1236.66 -0.657597 0.133441 0
M  V30 13167 H 1239.21 -1.77651 1.01293 0
M  V30 13168 H 1237.36 -3.85908 -0.339685 0
M  V30 13169 H 1237.78 -5.01042 1.55103 0
M  V30 13170 H 1239.25 -5.5194 -0.0816714 0
M  V30 13171 H 1239.73 -4.22959 -1.18332 0
M  V30 13172 H 1240.33 -4.22481 0.488879 0
M  V30 13173 N 1238.65 -0.49465 -1.49636 0
M  V30 13174 C 1239.58 0.276606 -2.31856 0
M  V30 13175 C 1240.56 0.968499 -1.39836 0
M  V30 13176 O 1241.74 0.96113 -1.68748 0
M  V30 13177 C 1238.87 1.34522 -3.20189 0
M  V30 13178 C 1237.83 0.773571 -4.20951 0
M  V30 13179 C 1237.15 1.94223 -4.98178 0
M  V30 13180 C 1238.45 -0.231096 -5.21788 0
M  V30 13181 H 1240.15 -0.409668 -2.96584 0
M  V30 13182 H 1237.69 -0.198461 -1.42626 0
M  V30 13183 H 1239.65 1.89244 -3.76517 0
M  V30 13184 H 1238.37 2.06059 -2.53392 0
M  V30 13185 H 1237.03 0.248144 -3.65759 0
M  V30 13186 H 1236.68 2.64514 -4.27834 0
M  V30 13187 H 1236.38 1.56584 -5.66353 0
M  V30 13188 H 1237.9 2.49391 -5.57348 0
M  V30 13189 H 1239.32 0.227768 -5.72847 0
M  V30 13190 H 1237.71 -0.522984 -5.97817 0
M  V30 13191 H 1238.78 -1.14914 -4.71087 0
M  V30 13192 N 1240.13 1.55939 -0.228214 0
M  V30 13193 C 1241.08 2.17223 0.692674 0
M  V30 13194 C 1242.06 1.12252 1.15275 0
M  V30 13195 O 1243.25 1.3822 1.10563 0
M  V30 13196 C 1240.38 2.86084 1.89766 0
M  V30 13197 C 1239.47 3.98288 1.45695 0
M  V30 13198 N 1239.86 5.00515 0.729258 0
M  V30 13199 C 1238.16 4.105 1.74372 0
M  V30 13200 C 1238.86 5.79516 0.503606 0
M  V30 13201 N 1237.83 5.33119 1.06229 0
M  V30 13202 H 1241.63 2.9362 0.128345 0
M  V30 13203 H 1239.15 1.62373 -0.0297445 0
M  V30 13204 H 1241.15 3.28404 2.5682 0
M  V30 13205 H 1239.81 2.11185 2.46639 0
M  V30 13206 H 1240.82 5.16495 0.381261 0
M  V30 13207 H 1237.49 3.46759 2.32518 0
M  V30 13208 H 1238.88 6.71857 -0.0760344 0
M  V30 13209 N 1241.6 -0.0451101 1.57535 0
M  V30 13210 C 1242.55 -1.0692 2.06569 0
M  V30 13211 C 1243.55 -1.38443 0.976218 0
M  V30 13212 O 1244.75 -1.37536 1.1612 0
M  V30 13213 H 1241.13 -0.36226 0.658993 0
M  V30 13214 H 1243.1 -0.629709 2.9168 0
M  V30 13215 C 1241.85 -2.36656 2.54733 0
M  V30 13216 H 1241.17 -2.13257 3.38174 0
M  V30 13217 H 1242.61 -3.06696 2.92769 0
M  V30 13218 C 1241.07 -3.04499 1.4416 0
M  V30 13219 O 1241.6 -3.93679 0.798721 0
M  V30 13220 N 1239.81 -2.6556 1.18009 0
M  V30 13221 H 1239.35 -1.93126 1.7047 0
M  V30 13222 H 1239.31 -3.11272 0.442363 0
M  V30 13223 N 1243.08 -1.54377 -0.317073 0
M  V30 13224 C 1244.33 -1.72893 -1.05424 0
M  V30 13225 C 1244.66 -0.506082 -1.87801 0
M  V30 13226 O 1243.91 0.51213 -1.8888 0
M  V30 13227 C 1244.21 -2.96066 -2.00199 0
M  V30 13228 C 1243.88 -4.30551 -1.33927 0
M  V30 13229 C 1242.54 -4.67112 -1.15584 0
M  V30 13230 C 1244.89 -5.13986 -0.864158 0
M  V30 13231 C 1242.22 -5.84701 -0.483892 0
M  V30 13232 C 1244.57 -6.32264 -0.206006 0
M  V30 13233 C 1243.24 -6.67499 -0.0104849 0
M  V30 13234 H 1242.51 -0.63266 -0.385776 0
M  V30 13235 H 1245.15 -1.88623 -0.330722 0
M  V30 13236 H 1243.46 -2.7505 -2.79024 0
M  V30 13237 H 1245.15 -3.07586 -2.57278 0
M  V30 13238 H 1241.74 -4.0179 -1.49207 0
M  V30 13239 H 1245.93 -4.86252 -0.993635 0
M  V30 13240 H 1241.18 -6.10555 -0.32127 0
M  V30 13241 H 1245.36 -6.96192 0.170108 0
M  V30 13242 H 1242.99 -7.58472 0.512209 0
M  V30 13243 N 1244.56 0.579466 -1.4656 0
M  V30 13244 C 1245.97 1.1616 -1.46164 0
M  V30 13245 C 1246.32 1.95134 -0.20423 0
M  V30 13246 O 1245.45 2.05022 0.692457 0
M  V30 13247 C 1246.04 2.11322 -2.64818 0
M  V30 13248 C 1244.6 2.64852 -2.67452 0
M  V30 13249 C 1243.75 1.40786 -2.38903 0
M  V30 13250 H 1246.7 0.367229 -1.54393 0
M  V30 13251 H 1246.72 2.94839 -2.4052 0
M  V30 13252 H 1246.23 1.53815 -3.56318 0
M  V30 13253 H 1244.33 3.26219 -1.80032 0
M  V30 13254 H 1244.45 3.07366 -3.67509 0
M  V30 13255 H 1242.81 1.70707 -1.89027 0
M  V30 13256 H 1243.59 0.851049 -3.32584 0
M  V30 13257 N 1246.04 1.3432 0.824371 0
M  V30 13258 C 1246.99 1.25776 1.93517 0
M  V30 13259 C 1247.96 0.133298 1.65564 0
M  V30 13260 O 1249.14 0.31403 1.88198 0
M  V30 13261 C 1246.28 1.01766 3.29754 0
M  V30 13262 C 1245.39 2.22973 3.7001 0
M  V30 13263 C 1244.53 1.92258 4.95187 0
M  V30 13264 C 1243.57 3.09616 5.2802 0
M  V30 13265 N 1242.7 2.78793 6.44375 0
M  V30 13266 H 1247.54 2.20774 2.00157 0
M  V30 13267 H 1245.08 1.09766 0.979274 0
M  V30 13268 H 1247.04 0.858831 4.08265 0
M  V30 13269 H 1245.67 0.10437 3.22631 0
M  V30 13270 H 1244.72 2.49781 2.86903 0
M  V30 13271 H 1246.03 3.10661 3.90245 0
M  V30 13272 H 1245.19 1.73102 5.81481 0
M  V30 13273 H 1243.93 1.01827 4.76951 0
M  V30 13274 H 1242.93 3.29368 4.40223 0
M  V30 13275 H 1244.16 4.00822 5.48196 0
M  V30 13276 H 1242.1 1.90938 6.27598 0
M  V30 13277 H 1242.02 3.60014 6.64775 0
M  V30 13278 H 1243.29 2.63139 7.33743 0
M  V30 13279 N 1247.52 -1.0444 1.18026 0
M  V30 13280 C 1248.76 -1.77838 0.974756 0
M  V30 13281 C 1249.1 -1.87792 -0.494755 0
M  V30 13282 O 1248.37 -1.38327 -1.36733 0
M  V30 13283 C 1248.65 -3.21315 1.62569 0
M  V30 13284 C 1248.51 -3.19327 3.16781 0
M  V30 13285 C 1249.83 -4.19337 1.33583 0
M  V30 13286 H 1246.94 -0.645575 0.35553 0
M  V30 13287 H 1249.59 -1.22023 1.45638 0
M  V30 13288 H 1247.74 -3.68974 1.21617 0
M  V30 13289 H 1249.41 -2.79687 3.66842 0
M  V30 13290 H 1247.65 -2.57461 3.49137 0
M  V30 13291 H 1248.32 -4.20626 3.5746 0
M  V30 13292 H 1250.8 -3.80208 1.69059 0
M  V30 13293 H 1249.67 -5.17953 1.81702 0
M  V30 13294 H 1249.94 -4.41346 0.258016 0
M  V30 13295 N 1248.99 -0.981699 -1.2329 0
M  V30 13296 C 1250.22 -0.669025 -1.96313 0
M  V30 13297 C 1250.64 0.757624 -1.72168 0
M  V30 13298 O 1250 1.51626 -0.993942 0
M  V30 13299 C 1250.05 -0.966875 -3.47396 0
M  V30 13300 O 1249.15 -0.0595933 -4.12357 0
M  V30 13301 H 1248.5 -0.251493 -0.61453 0
M  V30 13302 H 1251.03 -1.31564 -1.56691 0
M  V30 13303 H 1251.04 -0.904112 -3.97857 0
M  V30 13304 H 1249.71 -2.00651 -3.64296 0
M  V30 13305 H 1248.29 -0.176878 -3.7248 0
M  V30 13306 N 1250.47 1.3842 -0.753509 0
M  V30 13307 C 1251.72 1.99359 -0.306416 0
M  V30 13308 C 1252.03 1.60492 1.11811 0
M  V30 13309 O 1253.24 2.14401 1.66567 0
M  V30 13310 C 1251.7 3.56453 -0.496895 0
M  V30 13311 C 1251.3 4.04272 -1.9305 0
M  V30 13312 C 1253.05 4.24351 -0.11251 0
M  V30 13313 C 1250.96 5.54007 -2.06955 0
M  V30 13314 H 1249.89 0.745812 -0.110818 0
M  V30 13315 H 1252.54 1.58185 -0.930039 0
M  V30 13316 H 1250.92 3.95515 0.195912 0
M  V30 13317 H 1252.09 3.765 -2.65677 0
M  V30 13318 H 1250.41 3.49098 -2.26979 0
M  V30 13319 H 1253 5.34344 -0.195161 0
M  V30 13320 H 1253.35 4.05668 0.934849 0
M  V30 13321 H 1253.88 3.90528 -0.757168 0
M  V30 13322 H 1250.62 5.77594 -3.09944 0
M  V30 13323 H 1250.14 5.83522 -1.38788 0
M  V30 13324 H 1251.82 6.19704 -1.85945 0
M  V30 13325 N 1251.95 0.502579 1.49372 0
M  V30 13326 C 1252.88 -0.264307 2.31999 0
M  V30 13327 C 1253.86 -0.96107 1.40348 0
M  V30 13328 O 1255.05 -0.952167 1.69255 0
M  V30 13329 C 1252.18 -1.32822 3.20898 0
M  V30 13330 C 1251.13 -0.751236 4.21355 0
M  V30 13331 C 1250.46 -1.91578 4.99201 0
M  V30 13332 C 1251.76 0.258764 5.21659 0
M  V30 13333 H 1253.45 0.425391 2.96363 0
M  V30 13334 H 1251 0.206022 1.42519 0
M  V30 13335 H 1252.95 -1.87245 3.77515 0
M  V30 13336 H 1251.67 -2.04712 2.54481 0
M  V30 13337 H 1250.33 -0.228743 3.65886 0
M  V30 13338 H 1249.98 -2.62241 4.2923 0
M  V30 13339 H 1249.68 -1.53578 5.67175 0
M  V30 13340 H 1251.2 -2.46432 5.58663 0
M  V30 13341 H 1252.62 -0.197385 5.7296 0
M  V30 13342 H 1251.02 0.554681 5.97531 0
M  V30 13343 H 1252.09 1.1741 4.70471 0
M  V30 13344 N 1253.43 -1.55816 0.23648 0
M  V30 13345 C 1254.84 -1.84757 -0.268622 0
M  V30 13346 C 1255.19 -1.15815 -1.58371 0
M  V30 13347 O 1254.32 -0.432923 -2.12025 0
M  V30 13348 C 1254.91 -3.35177 -0.494167 0
M  V30 13349 C 1253.47 -3.64382 -0.943551 0
M  V30 13350 C 1252.62 -2.77296 -0.0149191 0
M  V30 13351 H 1255.57 -1.51908 0.459308 0
M  V30 13352 H 1255.59 -3.56192 -1.3382 0
M  V30 13353 H 1255.1 -3.85327 0.463138 0
M  V30 13354 H 1253.2 -3.19701 -1.91369 0
M  V30 13355 H 1253.31 -4.72244 -0.807626 0
M  V30 13356 H 1251.68 -2.49243 -0.524419 0
M  V30 13357 H 1252.46 -3.30249 0.937571 0
M  V30 13358 N 1254.91 0.036755 -1.57557 0
M  V30 13359 C 1256.15 0.727665 -1.88546 0
M  V30 13360 C 1256.48 1.76304 -0.833179 0
M  V30 13361 O 1255.75 1.9544 0.13414 0
M  V30 13362 H 1254.33 0.271744 -0.695819 0
M  V30 13363 H 1256.99 0.00452915 -1.94899 0
M  V30 13364 H 1256.08 1.22205 -2.8718 0
M  V30 13365 N 1256.39 1.54543 0.308881 0
M  V30 13366 C 1257.61 1.77431 1.06422 0
M  V30 13367 C 1258.03 0.529972 1.81209 0
M  V30 13368 O 1257.39 -0.499912 1.7552 0
M  V30 13369 C 1257.44 2.9769 2.05092 0
M  V30 13370 O 1257.16 4.17315 1.33341 0
M  V30 13371 C 1258.66 3.32905 2.92727 0
M  V30 13372 H 1255.88 0.591961 0.315948 0
M  V30 13373 H 1258.42 2.01473 0.350547 0
M  V30 13374 H 1256.58 2.7588 2.71973 0
M  V30 13375 H 1256.99 4.85061 1.99539 0
M  V30 13376 H 1258.47 4.20314 3.57827 0
M  V30 13377 H 1258.94 2.50713 3.6061 0
M  V30 13378 H 1259.55 3.56847 2.31388 0
M  V30 13379 N 1257.86 -0.571685 1.46866 0
M  V30 13380 C 1259.27 -1.15383 1.46778 0
M  V30 13381 C 1259.63 -1.95023 0.214576 0
M  V30 13382 O 1258.75 -2.05386 -0.681574 0
M  V30 13383 C 1259.35 -2.09915 2.65935 0
M  V30 13384 C 1257.9 -2.6343 2.68852 0
M  V30 13385 C 1257.05 -1.39517 2.39646 0
M  V30 13386 H 1260 -0.359036 1.54585 0
M  V30 13387 H 1260.02 -2.9356 2.42081 0
M  V30 13388 H 1259.54 -1.51923 3.57129 0
M  V30 13389 H 1257.64 -3.2526 1.8176 0
M  V30 13390 H 1257.75 -3.05412 3.69134 0
M  V30 13391 H 1256.11 -1.69702 1.8993 0
M  V30 13392 H 1256.9 -0.833399 3.33031 0
M  V30 13393 N 1259.34 -1.34755 -0.817236 0
M  V30 13394 C 1260.27 -1.29452 -1.94331 0
M  V30 13395 C 1261.25 -0.170902 -1.69239 0
M  V30 13396 O 1262.44 -0.364173 -1.90755 0
M  V30 13397 C 1259.57 -1.05497 -3.30889 0
M  V30 13398 C 1258.52 -2.14386 -3.70436 0
M  V30 13399 C 1257.85 -1.75612 -5.05039 0
M  V30 13400 C 1259.15 -3.56265 -3.81933 0
M  V30 13401 H 1260.84 -2.23672 -1.99025 0
M  V30 13402 H 1258.39 -1.07674 -0.956159 0
M  V30 13403 H 1260.34 -1.0043 -4.09257 0
M  V30 13404 H 1259.06 -0.0772059 -3.26509 0
M  V30 13405 H 1257.72 -2.18532 -2.94345 0
M  V30 13406 H 1257.37 -0.764809 -4.97152 0
M  V30 13407 H 1257.07 -2.48495 -5.3247 0
M  V30 13408 H 1258.6 -1.72051 -5.85859 0
M  V30 13409 H 1260.01 -3.545 -4.50558 0
M  V30 13410 H 1258.41 -4.27818 -4.20822 0
M  V30 13411 H 1259.48 -3.93192 -2.83775 0
M  V30 13412 N 1260.82 1.03812 -1.18578 0
M  V30 13413 C 1262.04 1.8124 -1.00831 0
M  V30 13414 C 1262.47 1.82917 0.43853 0
M  V30 13415 O 1261.83 1.24835 1.31476 0
M  V30 13416 C 1261.88 3.24592 -1.57075 0
M  V30 13417 O 1260.98 4.04688 -0.793824 0
M  V30 13418 H 1260.32 0.559846 -0.357028 0
M  V30 13419 H 1262.85 1.30724 -1.57393 0
M  V30 13420 H 1262.86 3.75363 -1.59896 0
M  V30 13421 H 1261.54 3.22686 -2.62387 0
M  V30 13422 H 1260.11 3.63359 -0.838134 0
M  V30 13423 N 1262.3 0.988223 1.22768 0
M  V30 13424 C 1263.71 0.69816 1.4352 0
M  V30 13425 C 1263.91 -0.732872 1.877 0
M  V30 13426 O 1262.97 -1.50436 2.02793 0
M  V30 13427 C 1264.28 1.69975 2.4805 0
M  V30 13428 C 1265.83 1.71467 2.61855 0
M  V30 13429 C 1266.31 2.70477 3.69603 0
M  V30 13430 N 1267.8 2.69043 3.77055 0
M  V30 13431 C 1268.53 3.42319 4.60006 0
M  V30 13432 N 1268.03 4.2518 5.46986 0
M  V30 13433 N 1269.82 3.31047 4.54274 0
M  V30 13434 H 1261.97 1.91251 0.923948 0
M  V30 13435 H 1264.23 0.82455 0.467783 0
M  V30 13436 H 1263.94 2.72354 2.22523 0
M  V30 13437 H 1263.81 1.48885 3.46573 0
M  V30 13438 H 1266.2 0.697889 2.86729 0
M  V30 13439 H 1266.28 1.96625 1.63622 0
M  V30 13440 H 1265.93 3.72302 3.45476 0
M  V30 13441 H 1265.86 2.42591 4.67394 0
M  V30 13442 H 1268.35 2.08914 3.14902 0
M  V30 13443 H 1268.66 4.77929 6.07292 0
M  V30 13444 H 1267.01 4.29268 5.46584 0
M  V30 13445 H 1270.2 2.65758 3.85345 0
M  V30 13446 H 1270.37 3.88413 5.1869 0
M  V30 13447 N 1263.78 -1.38018 0.760839 0
M  V30 13448 C 1264.74 -2.28734 0.146154 0
M  V30 13449 C 1265.74 -1.47525 -0.639768 0
M  V30 13450 O 1266.93 -1.6788 -0.464964 0
M  V30 13451 C 1264.06 -3.31356 -0.801019 0
M  V30 13452 H 1265.25 -2.84599 0.945692 0
M  V30 13453 H 1262.81 -1.471 0.528323 0
M  V30 13454 H 1263.54 -2.80594 -1.62597 0
M  V30 13455 H 1263.33 -3.91366 -0.239775 0
M  V30 13456 H 1264.82 -3.99171 -1.22687 0
M  V30 13457 N 1265.25 -0.510493 -1.49103 0
M  V30 13458 C 1266.53 0.0941122 -1.95373 0
M  V30 13459 C 1266.91 1.53207 -1.45227 0
M  V30 13460 O 1266.26 2.18452 -0.670161 0
M  V30 13461 C 1266.47 -0.00302507 -3.49 0
M  V30 13462 C 1267.82 0.166117 -4.24275 0
M  V30 13463 O 1268.84 0.0717097 -3.56128 0
M  V30 13464 O 1267.7 0.361155 -5.45305 0
M  V30 13465 H 1264.79 0.0900741 -0.82208 0
M  V30 13466 H 1267.34 -0.573707 -1.59708 0
M  V30 13467 H 1266.11 -1.00545 -3.78162 0
M  V30 13468 H 1265.73 0.704518 -3.91308 0
M  V30 13469 N 1266.73 1.55688 -0.24474 0
M  V30 13470 C 1267.66 2.24272 0.64995 0
M  V30 13471 C 1268.64 1.22226 1.183 0
M  V30 13472 O 1269.83 1.50873 1.22274 0
M  V30 13473 C 1266.96 2.94053 1.84798 0
M  V30 13474 C 1265.91 4.02769 1.44779 0
M  V30 13475 C 1265.24 4.59965 2.72647 0
M  V30 13476 C 1266.54 5.18601 0.62047 0
M  V30 13477 H 1268.23 2.99298 0.0780654 0
M  V30 13478 H 1265.78 1.43955 0.0361069 0
M  V30 13479 H 1267.73 3.40732 2.47951 0
M  V30 13480 H 1266.45 2.16511 2.44521 0
M  V30 13481 H 1265.11 3.56856 0.839609 0
M  V30 13482 H 1264.76 3.79126 3.30564 0
M  V30 13483 H 1264.46 5.33352 2.46596 0
M  V30 13484 H 1265.99 5.09376 3.36703 0
M  V30 13485 H 1267.4 5.61519 1.15625 0
M  V30 13486 H 1265.8 5.98364 0.456097 0
M  V30 13487 H 1266.87 4.83503 -0.367798 0
M  V30 13488 N 1268.21 -0.0283989 1.57574 0
M  V30 13489 C 1269.63 -0.384054 1.5491 0
M  V30 13490 C 1269.83 -1.76564 0.970947 0
M  V30 13491 O 1268.88 -2.45455 0.592288 0
M  V30 13492 C 1270.19 -0.285297 2.99344 0
M  V30 13493 C 1271.74 -0.36233 3.10896 0
M  V30 13494 C 1272.22 -0.293014 4.57062 0
M  V30 13495 N 1273.71 -0.351788 4.61862 0
M  V30 13496 C 1274.44 -0.321054 5.725 0
M  V30 13497 N 1273.94 -0.242573 6.92375 0
M  V30 13498 N 1275.73 -0.370832 5.60875 0
M  V30 13499 H 1267.88 0.87573 1.93506 0
M  V30 13500 H 1270.15 0.33305 0.887571 0
M  V30 13501 H 1269.85 0.664146 3.45372 0
M  V30 13502 H 1269.73 -1.07869 3.61447 0
M  V30 13503 H 1272.11 -1.30221 2.64814 0
M  V30 13504 H 1272.19 0.460422 2.51622 0
M  V30 13505 H 1271.84 0.643197 5.03811 0
M  V30 13506 H 1271.77 -1.13388 5.14248 0
M  V30 13507 H 1274.26 -0.414929 3.75615 0
M  V30 13508 H 1274.57 -0.224239 7.72475 0
M  V30 13509 H 1272.92 -0.208612 6.94687 0
M  V30 13510 H 1276.11 -0.430141 4.6612 0
M  V30 13511 H 1276.28 -0.343412 6.47089 0
M  V30 13512 N 1269.69 -1.54705 -0.300681 0
M  V30 13513 C 1270.65 -1.84934 -1.35395 0
M  V30 13514 C 1271.65 -0.72226 -1.43666 0
M  V30 13515 O 1272.84 -0.990543 -1.43296 0
M  V30 13516 C 1269.97 -2.02991 -2.73875 0
M  V30 13517 H 1271.17 -2.79063 -1.09835 0
M  V30 13518 H 1268.72 -1.46772 -0.537365 0
M  V30 13519 H 1269.45 -1.11151 -3.04657 0
M  V30 13520 H 1269.24 -2.85027 -2.69262 0
M  V30 13521 H 1270.73 -2.27747 -3.5003 0
M  V30 13522 N 1271.17 0.563888 -1.47167 0
M  V30 13523 C 1272.41 1.32331 -1.53676 0
M  V30 13524 C 1272.75 1.93213 -0.195593 0
M  V30 13525 O 1272.02 1.77508 0.795068 0
M  V30 13526 C 1272.3 2.43848 -2.64972 0
M  V30 13527 C 1272.16 1.8788 -4.08682 0
M  V30 13528 C 1273.48 3.45809 -2.72221 0
M  V30 13529 H 1270.59 0.479791 -0.559437 0
M  V30 13530 H 1273.24 0.631669 -1.79192 0
M  V30 13531 H 1271.39 3.02846 -2.43345 0
M  V30 13532 H 1273.06 1.33195 -4.41652 0
M  V30 13533 H 1271.3 1.18593 -4.17275 0
M  V30 13534 H 1271.97 2.68465 -4.82318 0
M  V30 13535 H 1274.45 2.9672 -2.91713 0
M  V30 13536 H 1273.32 4.21272 -3.51882 0
M  V30 13537 H 1273.59 4.04236 -1.79014 0
M  V30 13538 N 1272.64 1.35187 0.810078 0
M  V30 13539 C 1273.59 1.27848 1.94313 0
M  V30 13540 C 1274.59 0.174081 1.68503 0
M  V30 13541 O 1275.79 0.339848 1.76763 0
M  V30 13542 H 1272.17 0.397504 0.638353 0
M  V30 13543 H 1274.14 2.23579 1.97623 0
M  V30 13544 C 1272.89 1.06382 3.31026 0
M  V30 13545 H 1272.21 1.90601 3.51441 0
M  V30 13546 H 1273.65 1.05287 4.1072 0
M  V30 13547 C 1272.11 -0.232462 3.36097 0
M  V30 13548 O 1272.64 -1.22946 3.82423 0
M  V30 13549 N 1270.85 -0.270028 2.89343 0
M  V30 13550 H 1270.39 0.541891 2.51836 0
M  V30 13551 H 1270.35 -1.13708 2.93117 0
M  V30 13552 N 1274.12 -1.03182 1.19127 0
M  V30 13553 C 1275.37 -1.75934 0.986415 0
M  V30 13554 C 1275.68 -1.89519 -0.48392 0
M  V30 13555 O 1276.89 -2.59213 -0.80752 0
M  V30 13556 C 1275.35 -3.16358 1.71597 0
M  V30 13557 C 1274.95 -3.10836 3.22622 0
M  V30 13558 C 1276.7 -3.93426 1.59425 0
M  V30 13559 C 1274.61 -4.46174 3.88179 0
M  V30 13560 H 1273.54 -0.659516 0.365451 0
M  V30 13561 H 1276.19 -1.15497 1.42593 0
M  V30 13562 H 1274.57 -3.77245 1.20426 0
M  V30 13563 H 1275.74 -2.59348 3.80887 0
M  V30 13564 H 1274.06 -2.47266 3.35035 0
M  V30 13565 H 1276.65 -4.93526 2.05757 0
M  V30 13566 H 1277 -4.12678 0.547926 0
M  V30 13567 H 1277.53 -3.39134 2.07925 0
M  V30 13568 H 1274.27 -4.32126 4.92897 0
M  V30 13569 H 1273.79 -4.97729 3.34702 0
M  V30 13570 H 1275.47 -5.15066 3.91556 0
M  V30 13571 N 1275.6 -0.99472 -1.22242 0
M  V30 13572 C 1276.55 -0.53946 -2.26258 0
M  V30 13573 C 1277.54 0.410796 -1.64344 0
M  V30 13574 O 1278.75 0.283116 -1.7776 0
M  V30 13575 H 1275.12 -0.156069 -0.735627 0
M  V30 13576 H 1277.09 -1.42814 -2.62005 0
M  V30 13577 C 1275.84 0.12842 -3.47463 0
M  V30 13578 H 1275.17 -0.593727 -3.95367 0
M  V30 13579 H 1276.61 0.410393 -4.22009 0
M  V30 13580 C 1275.07 1.36433 -3.08038 0
M  V30 13581 O 1275.6 2.45953 -3.176 0
M  V30 13582 N 1273.8 1.24026 -2.62804 0
M  V30 13583 H 1273.35 0.349111 -2.55223 0
M  V30 13584 H 1273.31 2.06824 -2.36794 0
M  V30 13585 N 1277.08 1.37613 -0.768148 0
M  V30 13586 C 1278.01 2.3291 -0.165911 0
M  V30 13587 C 1278.99 1.556 0.687205 0
M  V30 13588 O 1280.17 1.83854 0.625407 0
M  V30 13589 C 1277.3 3.39822 0.7168 0
M  V30 13590 C 1276.26 4.27986 -0.0347264 0
M  V30 13591 C 1275.58 5.2588 0.967192 0
M  V30 13592 C 1276.88 5.08052 -1.21164 0
M  V30 13593 H 1278.58 2.83524 -0.962006 0
M  V30 13594 H 1276.12 1.36318 -0.464051 0
M  V30 13595 H 1278.08 4.05464 1.14789 0
M  V30 13596 H 1276.8 2.87725 1.54538 0
M  V30 13597 H 1275.46 3.6387 -0.446557 0
M  V30 13598 H 1275.11 4.70064 1.79022 0
M  V30 13599 H 1274.81 5.85726 0.468913 0
M  V30 13600 H 1276.33 5.94397 1.3973 0
M  V30 13601 H 1277.75 5.66853 -0.857373 0
M  V30 13602 H 1276.14 5.77206 -1.64176 0
M  V30 13603 H 1277.21 4.40936 -2.0175 0
M  V30 13604 N 1278.56 0.518393 1.4883 0
M  V30 13605 C 1279.8 -0.0180482 2.04392 0
M  V30 13606 C 1280.16 -1.32666 1.38794 0
M  V30 13607 O 1281.36 -1.94842 1.85176 0
M  V30 13608 C 1279.63 -0.149457 3.57087 0
M  V30 13609 S 1281.19 -0.637636 4.34142 0
M  V30 13610 H 1278.01 0.00651981 0.71097 0
M  V30 13611 H 1280.61 0.69632 1.82679 0
M  V30 13612 H 1279.32 0.807977 4.02368 0
M  V30 13613 H 1278.85 -0.888549 3.83234 0
M  V30 13614 H 1280.86 -1.90406 4.58214 0
M  V30 13615 N 1280.03 -1.55556 0.252993 0
M  V30 13616 C 1281.31 -1.91022 -0.420696 0
M  V30 13617 C 1281.69 -1.17452 -1.75409 0
M  V30 13618 O 1281.04 -0.294 -2.26601 0
M  V30 13619 C 1281.25 -3.441 -0.582787 0
M  V30 13620 C 1282.6 -4.15468 -0.875873 0
M  V30 13621 O 1283.62 -3.49872 -0.668425 0
M  V30 13622 O 1282.48 -5.31508 -1.27128 0
M  V30 13623 H 1279.57 -0.7953 -0.226776 0
M  V30 13624 H 1282.12 -1.67072 0.297511 0
M  V30 13625 H 1280.89 -3.89673 0.356474 0
M  V30 13626 H 1280.52 -3.73933 -1.3513 0
M  V30 13627 N 1281.51 0.0200419 -1.57587 0
M  V30 13628 C 1282.45 1.05118 -2.02547 0
M  V30 13629 C 1283.42 1.3465 -0.911494 0
M  V30 13630 O 1284.61 1.47154 -1.17805 0
M  V30 13631 C 1281.73 2.38373 -2.40615 0
M  V30 13632 C 1280.78 2.24639 -3.62546 0
M  V30 13633 S 1281.61 1.59129 -5.1131 0
M  V30 13634 C 1282.77 2.93856 -5.5263 0
M  V30 13635 H 1283 0.668271 -2.89692 0
M  V30 13636 H 1280.54 0.230301 -1.52673 0
M  V30 13637 H 1282.49 3.15002 -2.63218 0
M  V30 13638 H 1281.15 2.7381 -1.53906 0
M  V30 13639 H 1280.35 3.23032 -3.86867 0
M  V30 13640 H 1279.95 1.56153 -3.39841 0
M  V30 13641 H 1282.24 3.90179 -5.53865 0
M  V30 13642 H 1283.18 2.74258 -6.52831 0
M  V30 13643 H 1283.59 2.96844 -4.8015 0
M  V30 13644 N 1282.99 1.54862 0.292472 0
M  V30 13645 C 1284.23 1.76289 1.03448 0
M  V30 13646 C 1284.59 0.541914 1.84194 0
M  V30 13647 O 1285.8 0.634075 2.61214 0
M  V30 13648 C 1284.07 3.02112 1.90953 0
M  V30 13649 S 1285.63 3.44577 2.71683 0
M  V30 13650 H 1282.44 0.619596 0.348744 0
M  V30 13651 H 1285.05 1.93075 0.306952 0
M  V30 13652 H 1283.75 3.89091 1.30523 0
M  V30 13653 H 1283.28 2.87937 2.68059 0
M  V30 13654 H 1285.3 3.02318 3.93469 0
M  V30 13655 N 1284.47 -0.556076 1.47464 0
M  V30 13656 C 1285.71 -1.31515 1.54375 0
M  V30 13657 C 1286.05 -1.93106 0.205837 0
M  V30 13658 O 1285.32 -1.77927 -0.785643 0
M  V30 13659 C 1285.61 -2.4244 2.66261 0
M  V30 13660 C 1285.46 -1.8571 4.09673 0
M  V30 13661 C 1286.78 -3.4436 2.74051 0
M  V30 13662 H 1283.9 -0.476817 0.561974 0
M  V30 13663 H 1286.54 -0.622157 1.79525 0
M  V30 13664 H 1284.69 -3.01551 2.44948 0
M  V30 13665 H 1286.36 -1.30851 4.42353 0
M  V30 13666 H 1284.6 -1.16379 4.17898 0
M  V30 13667 H 1285.27 -2.65904 4.83735 0
M  V30 13668 H 1287.75 -2.95169 2.93282 0
M  V30 13669 H 1286.63 -4.194 3.54111 0
M  V30 13670 H 1286.89 -4.03281 1.81155 0
M  V30 13671 N 1285.95 -1.35615 -0.802897 0
M  V30 13672 C 1287.2 -1.28428 -1.55528 0
M  V30 13673 C 1287.51 0.138275 -1.95111 0
M  V30 13674 O 1288.72 0.332435 -2.69457 0
M  V30 13675 C 1287.17 -2.25251 -2.80696 0
M  V30 13676 C 1286.78 -3.72871 -2.48336 0
M  V30 13677 C 1288.52 -2.27014 -3.58699 0
M  V30 13678 C 1286.43 -4.61507 -3.69817 0
M  V30 13679 H 1285.36 -0.47718 -0.583794 0
M  V30 13680 H 1288.01 -1.609 -0.882238 0
M  V30 13681 H 1286.39 -1.85755 -3.4973 0
M  V30 13682 H 1287.57 -4.21024 -1.87285 0
M  V30 13683 H 1285.88 -3.73752 -1.83571 0
M  V30 13684 H 1288.48 -2.90451 -4.48935 0
M  V30 13685 H 1288.82 -1.27491 -3.96298 0
M  V30 13686 H 1289.36 -2.65058 -2.9663 0
M  V30 13687 H 1286.09 -5.62043 -3.37324 0
M  V30 13688 H 1285.61 -4.18079 -4.30081 0
M  V30 13689 H 1287.29 -4.77113 -4.37004 0
M  V30 13690 N 1287.43 1.02549 -1.19673 0
M  V30 13691 C 1288.36 2.12794 -0.961289 0
M  V30 13692 C 1289.34 1.69766 0.106575 0
M  V30 13693 O 1290.52 1.94138 -0.0491358 0
M  V30 13694 C 1287.65 3.4364 -0.502868 0
M  V30 13695 C 1286.61 4.00367 -1.51296 0
M  V30 13696 C 1285.93 5.26874 -0.911491 0
M  V30 13697 C 1287.23 4.34782 -2.89416 0
M  V30 13698 H 1288.93 2.32748 -1.88331 0
M  V30 13699 H 1286.47 1.11852 -0.906922 0
M  V30 13700 H 1288.42 4.20141 -0.325436 0
M  V30 13701 H 1287.15 3.23418 0.454764 0
M  V30 13702 H 1285.81 3.25964 -1.67759 0
M  V30 13703 H 1285.46 5.02971 0.0537982 0
M  V30 13704 H 1285.16 5.65791 -1.58602 0
M  V30 13705 H 1286.68 6.06039 -0.74493 0
M  V30 13706 H 1288.09 5.02207 -2.76516 0
M  V30 13707 H 1286.49 4.8479 -3.53693 0
M  V30 13708 H 1287.56 3.43935 -3.41814 0
M  V30 13709 N 1288.9 1.00119 1.21713 0
M  V30 13710 C 1290.13 0.700172 1.95224 0
M  V30 13711 C 1290.55 -0.730138 1.73351 0
M  V30 13712 O 1289.91 -1.50026 1.01794 0
M  V30 13713 C 1289.96 1.02202 3.45814 0
M  V30 13714 O 1289.06 0.125188 4.1221 0
M  V30 13715 H 1288.4 0.261238 0.610451 0
M  V30 13716 H 1290.93 1.34041 1.54578 0
M  V30 13717 H 1290.94 0.967293 3.96368 0
M  V30 13718 H 1289.62 2.06422 3.61058 0
M  V30 13719 H 1288.2 0.236114 3.72152 0
M  V30 13720 N 1290.38 -1.37203 0.775435 0
M  V30 13721 C 1291.34 -2.28566 0.170406 0
M  V30 13722 C 1292.34 -1.48195 -0.624085 0
M  V30 13723 O 1293.53 -1.68364 -0.447132 0
M  V30 13724 C 1290.67 -3.32186 -0.765829 0
M  V30 13725 H 1291.86 -2.8358 0.975824 0
M  V30 13726 H 1289.41 -1.46531 0.543895 0
M  V30 13727 H 1290.15 -2.82303 -1.59611 0
M  V30 13728 H 1289.93 -3.91598 -0.198251 0
M  V30 13729 H 1291.42 -4.0045 -1.18446 0
M  V30 13730 N 1291.86 -0.526279 -1.48553 0
M  V30 13731 C 1292.81 0.251938 -2.31232 0
M  V30 13732 C 1293.8 0.938991 -1.40994 0
M  V30 13733 O 1295.01 0.863798 -1.57919 0
M  V30 13734 H 1291.38 0.100114 -0.745306 0
M  V30 13735 H 1293.35 -0.465013 -2.94754 0
M  V30 13736 C 1292.1 1.28816 -3.22958 0
M  V30 13737 H 1291.43 0.768899 -3.92337 0
M  V30 13738 H 1292.87 1.80417 -3.837 0
M  V30 13739 C 1291.32 2.31982 -2.44307 0
M  V30 13740 O 1291.85 3.3835 -2.16523 0
M  V30 13741 N 1290.06 2.051 -2.05869 0
M  V30 13742 H 1289.61 1.18618 -2.28665 0
M  V30 13743 H 1289.57 2.74349 -1.53557 0
M  V30 13744 N 1293.34 1.5542 -0.261239 0
M  V30 13745 C 1294.27 2.19334 0.665214 0
M  V30 13746 C 1295.28 1.17388 1.128 0
M  V30 13747 O 1296.47 1.44183 1.0523 0
M  V30 13748 C 1293.57 2.79425 1.91768 0
M  V30 13749 C 1292.74 4.06929 1.60399 0
M  V30 13750 C 1291.8 4.51199 2.70751 0
M  V30 13751 O 1290.83 5.17272 2.37526 0
M  V30 13752 N 1292.03 4.20179 4.00537 0
M  V30 13753 H 1294.8 2.99467 0.118262 0
M  V30 13754 H 1292.36 1.61693 -0.0817727 0
M  V30 13755 H 1294.35 3.05992 2.64861 0
M  V30 13756 H 1292.92 2.03366 2.37405 0
M  V30 13757 H 1292.14 3.87798 0.707559 0
M  V30 13758 H 1293.43 4.9003 1.36924 0
M  V30 13759 H 1292.83 3.67164 4.30357 0
M  V30 13760 H 1291.38 4.51549 4.7005 0
M  V30 13761 N 1294.82 -0.0116844 1.57596 0
M  V30 13762 C 1295.76 -1.02514 2.08791 0
M  V30 13763 C 1296.76 -1.36341 1.00536 0
M  V30 13764 O 1297.96 -1.35042 1.19011 0
M  V30 13765 H 1294.34 -0.348201 0.666528 0
M  V30 13766 H 1296.31 -0.567698 2.9295 0
M  V30 13767 C 1295.06 -2.312 2.59696 0
M  V30 13768 H 1294.38 -2.06036 3.42621 0
M  V30 13769 H 1295.82 -3.00417 2.99208 0
M  V30 13770 C 1294.28 -3.01372 1.50586 0
M  V30 13771 O 1294.81 -3.91896 0.882046 0
M  V30 13772 N 1293.02 -2.62997 1.23616 0
M  V30 13773 H 1292.56 -1.89466 1.74529 0
M  V30 13774 H 1292.52 -3.10264 0.508289 0
M  V30 13775 N 1296.29 -1.55015 -0.284256 0
M  V30 13776 C 1297.24 -1.87898 -1.37102 0
M  V30 13777 C 1298.24 -0.754231 -1.51683 0
M  V30 13778 O 1299.44 -0.93844 -1.53601 0
M  V30 13779 H 1295.82 -0.596208 -0.458301 0
M  V30 13780 H 1297.79 -2.78704 -1.06613 0
M  V30 13781 C 1296.54 -2.15764 -2.72656 0
M  V30 13782 H 1295.86 -3.01792 -2.62224 0
M  V30 13783 H 1297.3 -2.42701 -3.47667 0
M  V30 13784 C 1295.76 -0.961561 -3.22886 0
M  V30 13785 O 1296.29 -0.190489 -4.01248 0
M  V30 13786 N 1294.49 -0.762338 -2.80422 0
M  V30 13787 H 1294.04 -1.39104 -2.16813 0
M  V30 13788 H 1294 0.0363482 -3.14379 0
M  V30 13789 N 1297.77 0.548248 -1.47757 0
M  V30 13790 C 1299.02 1.30139 -1.54099 0
M  V30 13791 C 1299.33 1.9445 -0.2118 0
M  V30 13792 O 1300.54 2.71067 -0.153302 0
M  V30 13793 C 1299 2.36039 -2.71687 0
M  V30 13794 C 1298.6 1.77879 -4.11173 0
M  V30 13795 C 1300.35 3.12478 -2.87329 0
M  V30 13796 C 1298.25 2.81611 -5.20047 0
M  V30 13797 H 1297.18 0.489364 -0.573619 0
M  V30 13798 H 1299.84 0.581237 -1.74051 0
M  V30 13799 H 1298.22 3.11008 -2.45132 0
M  V30 13800 H 1299.39 1.09221 -4.47669 0
M  V30 13801 H 1297.71 1.13994 -4.00493 0
M  V30 13802 H 1300.3 3.89958 -3.65837 0
M  V30 13803 H 1300.65 3.67218 -1.96103 0
M  V30 13804 H 1301.18 2.4462 -3.13697 0
M  V30 13805 H 1297.92 2.31714 -6.13179 0
M  V30 13806 H 1297.44 3.48652 -4.88059 0
M  V30 13807 H 1299.12 3.44938 -5.47382 0
M  V30 13808 N 1299.25 1.36039 0.795694 0
M  V30 13809 C 1300.53 1.20474 1.54096 0
M  V30 13810 C 1300.91 -0.211691 2.10036 0
M  V30 13811 O 1300.25 -1.21656 1.93422 0
M  V30 13812 C 1300.46 2.28164 2.64087 0
M  V30 13813 C 1301.81 2.64519 3.32137 0
M  V30 13814 O 1302.84 2.2716 2.74366 0
M  V30 13815 O 1301.7 3.28796 4.36527 0
M  V30 13816 H 1298.79 0.468699 0.681359 0
M  V30 13817 H 1301.34 1.47752 0.834716 0
M  V30 13818 H 1300.11 3.23121 2.20701 0
M  V30 13819 H 1299.73 2.02217 3.42336 0
M  V30 13820 N 1300.73 -1.01913 1.20215 0
M  V30 13821 C 1302.01 -1.7262 0.919867 0
M  V30 13822 C 1302.39 -2.03203 -0.572001 0
M  V30 13823 O 1301.73 -1.69448 -1.53296 0
M  V30 13824 C 1301.94 -2.9959 1.79016 0
M  V30 13825 C 1303.29 -3.72905 2.03045 0
M  V30 13826 O 1304.32 -3.0954 1.76249 0
M  V30 13827 O 1303.17 -4.86844 2.48285 0
M  V30 13828 H 1300.27 -0.752194 0.343705 0
M  V30 13829 H 1302.81 -1.07783 1.31076 0
M  V30 13830 H 1301.59 -2.73292 2.80048 0
M  V30 13831 H 1301.21 -3.72168 1.39918 0
M  V30 13832 N 1302.21 -1.00763 -1.2118 0
M  V30 13833 C 1303.43 -0.710746 -1.94309 0
M  V30 13834 C 1303.85 0.727103 -1.74237 0
M  V30 13835 O 1303.21 1.49223 -1.05065 0
M  V30 13836 C 1303.26 -1.02562 -3.46646 0
M  V30 13837 O 1302.98 -2.40699 -3.66054 0
M  V30 13838 C 1304.48 -0.748517 -4.36935 0
M  V30 13839 H 1301.7 -0.26171 -0.617858 0
M  V30 13840 H 1304.24 -1.34639 -1.53924 0
M  V30 13841 H 1302.4 -0.435537 -3.84944 0
M  V30 13842 H 1302.81 -2.51764 -4.60125 0
M  V30 13843 H 1304.29 -1.01899 -5.42513 0
M  V30 13844 H 1304.76 0.317423 -4.38051 0
M  V30 13845 H 1305.37 -1.32033 -4.04286 0
M  V30 13846 N 1303.68 1.3679 -0.7827 0
M  V30 13847 C 1304.91 2.04206 -0.362571 0
M  V30 13848 C 1305.33 1.58637 1.01074 0
M  V30 13849 O 1304.69 0.751692 1.64983 0
M  V30 13850 C 1304.74 3.58062 -0.4271 0
M  V30 13851 O 1303.84 4.08463 0.56845 0
M  V30 13852 H 1303.19 0.645638 -0.155073 0
M  V30 13853 H 1305.72 1.74883 -1.06194 0
M  V30 13854 H 1305.73 4.0698 -0.288298 0
M  V30 13855 H 1304.4 3.90582 -1.42893 0
M  V30 13856 H 1302.98 3.70835 0.391863 0
M  V30 13857 N 1305.16 0.53415 1.48272 0
M  V30 13858 C 1306.09 -0.215037 2.32508 0
M  V30 13859 C 1307.07 -0.931083 1.42355 0
M  V30 13860 O 1308.26 -0.916051 1.71237 0
M  V30 13861 C 1305.39 -1.25985 3.23643 0
M  V30 13862 C 1304.34 -0.661692 4.22854 0
M  V30 13863 C 1303.67 -1.80946 5.03153 0
M  V30 13864 C 1304.97 0.369358 5.20992 0
M  V30 13865 H 1306.66 0.488158 2.95394 0
M  V30 13866 H 1304.21 0.236206 1.4205 0
M  V30 13867 H 1306.16 -1.79195 3.81402 0
M  V30 13868 H 1304.89 -1.99268 2.58766 0
M  V30 13869 H 1303.54 -0.151082 3.66289 0
M  V30 13870 H 1303.19 -2.53077 4.34696 0
M  V30 13871 H 1302.89 -1.41513 5.70305 0
M  V30 13872 H 1304.42 -2.34526 5.63764 0
M  V30 13873 H 1305.83 -0.0758076 5.7325 0
M  V30 13874 H 1304.23 0.681301 5.9622 0
M  V30 13875 H 1305.3 1.27363 4.67875 0
M  V30 13876 N 1306.64 -1.55279 0.269478 0
M  V30 13877 C 1307.57 -2.19684 -0.653573 0
M  V30 13878 C 1308.59 -1.17985 -1.12176 0
M  V30 13879 O 1309.77 -1.44739 -1.04464 0
M  V30 13880 C 1306.87 -2.80438 -1.90284 0
M  V30 13881 C 1306.05 -4.07774 -1.58239 0
M  V30 13882 C 1305.11 -4.52629 -2.68354 0
M  V30 13883 O 1304.13 -5.18524 -2.3478 0
M  V30 13884 N 1305.33 -4.22297 -3.98303 0
M  V30 13885 H 1308.1 -2.99525 -0.102379 0
M  V30 13886 H 1305.66 -1.61648 0.0903465 0
M  V30 13887 H 1307.65 -3.07392 -2.63234 0
M  V30 13888 H 1306.22 -2.04622 -2.36323 0
M  V30 13889 H 1305.44 -3.88168 -0.686983 0
M  V30 13890 H 1306.73 -4.90749 -1.34323 0
M  V30 13891 H 1306.13 -3.69441 -4.28404 0
M  V30 13892 H 1304.69 -4.54035 -4.67649 0
M  V30 13893 N 1308.12 0.00332656 -1.576 0
M  V30 13894 C 1309.4 0.725722 -1.81639 0
M  V30 13895 C 1309.78 1.92173 -0.87365 0
M  V30 13896 O 1309.12 2.28365 0.0783931 0
M  V30 13897 C 1309.33 1.13458 -3.30043 0
M  V30 13898 C 1310.68 1.53982 -3.95695 0
M  V30 13899 O 1311.71 1.22846 -3.34346 0
M  V30 13900 O 1310.56 2.11866 -5.03761 0
M  V30 13901 H 1307.66 0.353083 -0.747838 0
M  V30 13902 H 1310.2 -0.0218724 -1.69686 0
M  V30 13903 H 1308.98 0.281925 -3.90283 0
M  V30 13904 H 1308.6 1.94138 -3.46982 0
M  V30 13905 N 1309.6 1.55164 0.276031 0
M  V30 13906 C 1310.54 1.87836 1.34113 0
M  V30 13907 C 1311.51 0.729562 1.4922 0
M  V30 13908 O 1312.7 0.980549 1.63676 0
M  V30 13909 C 1309.84 2.15313 2.69693 0
M  V30 13910 C 1308.95 3.42845 2.62833 0
M  V30 13911 C 1308.09 3.60038 3.90572 0
M  V30 13912 C 1307.13 4.81273 3.7821 0
M  V30 13913 N 1306.26 4.95139 4.97777 0
M  V30 13914 H 1311.1 2.78681 1.0555 0
M  V30 13915 H 1308.64 1.37976 0.510001 0
M  V30 13916 H 1310.6 2.29243 3.48573 0
M  V30 13917 H 1309.23 1.27706 2.96464 0
M  V30 13918 H 1308.28 3.37403 1.75679 0
M  V30 13919 H 1309.59 4.3186 2.49597 0
M  V30 13920 H 1308.75 3.73769 4.77893 0
M  V30 13921 H 1307.48 2.69203 4.06671 0
M  V30 13922 H 1306.49 4.67549 2.89271 0
M  V30 13923 H 1307.71 5.7354 3.63632 0
M  V30 13924 H 1305.66 4.07234 5.14292 0
M  V30 13925 H 1305.58 5.78194 4.8706 0
M  V30 13926 H 1306.85 5.13253 5.86679 0
M  V30 13927 N 1311.07 -0.540404 1.48045 0
M  V30 13928 C 1311.98 -1.67308 1.64455 0
M  V30 13929 C 1313 -1.65823 0.527152 0
M  V30 13930 O 1314.18 -1.84964 0.796881 0
M  V30 13931 C 1311.24 -3.03792 1.67068 0
M  V30 13932 C 1310.3 -3.16213 2.90358 0
M  V30 13933 C 1309.54 -4.46187 2.92837 0
M  V30 13934 O 1309.76 -5.32662 2.04029 0
M  V30 13935 O 1308.69 -4.62754 3.84892 0
M  V30 13936 H 1312.52 -1.56403 2.6033 0
M  V30 13937 H 1310.1 -0.712323 1.31325 0
M  V30 13938 H 1311.99 -3.84982 1.71368 0
M  V30 13939 H 1310.66 -3.15043 0.74363 0
M  V30 13940 H 1309.57 -2.34357 2.91595 0
M  V30 13941 H 1310.9 -3.09874 3.82412 0
M  V30 13942 N 1312.55 -1.36459 -0.788468 0
M  V30 13943 C 1313.79 -1.32124 -1.55957 0
M  V30 13944 C 1314.16 0.0981565 -1.91749 0
M  V30 13945 O 1315.36 0.266067 -2.6748 0
M  V30 13946 C 1313.63 -2.219 -2.8017 0
M  V30 13947 S 1315.19 -2.35257 -3.70405 0
M  V30 13948 H 1312.01 -0.469279 -0.534133 0
M  V30 13949 H 1314.61 -1.72039 -0.928587 0
M  V30 13950 H 1313.31 -3.23976 -2.51928 0
M  V30 13951 H 1312.84 -1.83008 -3.48241 0
M  V30 13952 H 1314.86 -1.55077 -4.71344 0
M  V30 13953 N 1314.03 1.01274 -1.20754 0
M  V30 13954 C 1315.28 1.74342 -1.01428 0
M  V30 13955 C 1315.59 1.90265 0.453708 0
M  V30 13956 O 1316.8 2.60465 0.76618 0
M  V30 13957 C 1315.25 3.13588 -1.76609 0
M  V30 13958 C 1314.86 3.05664 -3.27526 0
M  V30 13959 C 1316.61 3.9084 -1.65664 0
M  V30 13960 C 1314.51 4.39942 -3.95228 0
M  V30 13961 H 1313.44 0.653619 -0.375897 0
M  V30 13962 H 1316.09 1.13214 -1.44412 0
M  V30 13963 H 1314.48 3.75281 -1.26413 0
M  V30 13964 H 1315.65 2.53256 -3.84965 0
M  V30 13965 H 1313.97 2.41904 -3.38927 0
M  V30 13966 H 1316.56 4.9019 -2.13583 0
M  V30 13967 H 1316.91 4.11754 -0.61351 0
M  V30 13968 H 1317.44 3.35783 -2.13294 0
M  V30 13969 H 1314.18 4.24229 -4.9971 0
M  V30 13970 H 1313.7 4.92342 -3.42578 0
M  V30 13971 H 1315.38 5.08771 -3.99701 0
M  V30 13972 N 1315.51 1.01404 1.20644 0
M  V30 13973 C 1316.44 0.602465 2.25594 0
M  V30 13974 C 1317.42 -0.381216 1.65773 0
M  V30 13975 O 1318.61 -0.267209 1.92353 0
M  V30 13976 C 1315.74 -0.0626245 3.47244 0
M  V30 13977 C 1314.69 0.841776 4.1964 0
M  V30 13978 C 1314.02 0.0426002 5.34683 0
M  V30 13979 C 1315.32 2.14864 4.76058 0
M  V30 13980 H 1317.01 1.47977 2.60275 0
M  V30 13981 H 1314.56 0.712966 1.25111 0
M  V30 13982 H 1316.51 -0.362095 4.19841 0
M  V30 13983 H 1315.23 -0.974627 3.11719 0
M  V30 13984 H 1313.89 1.12521 3.48905 0
M  V30 13985 H 1313.54 -0.870973 4.95402 0
M  V30 13986 H 1313.24 0.644866 5.84051 0
M  V30 13987 H 1314.76 -0.250476 6.10086 0
M  V30 13988 H 1316.18 1.9117 5.40488 0
M  V30 13989 H 1314.57 2.70153 5.35852 0
M  V30 13990 H 1315.64 2.81336 3.9494 0
M  V30 13991 N 1316.99 -1.36373 0.789944 0
M  V30 13992 C 1317.95 -2.28372 0.194639 0
M  V30 13993 C 1318.95 -1.48849 -0.608332 0
M  V30 13994 O 1320.14 -1.68829 -0.42925 0
M  V30 13995 C 1317.27 -3.3298 -0.730553 0
M  V30 13996 H 1318.47 -2.82529 1.00585 0
M  V30 13997 H 1316.02 -1.45946 0.559406 0
M  V30 13998 H 1316.75 -2.8398 -1.56608 0
M  V30 13999 H 1316.54 -3.91787 -0.156706 0
M  V30 14000 H 1318.03 -4.01684 -1.14192 0
M  V30 14001 N 1318.47 -0.542005 -1.47987 0
M  V30 14002 C 1319.69 -0.0146835 -2.07395 0
M  V30 14003 C 1320.12 1.26266 -1.39422 0
M  V30 14004 O 1319.47 1.75259 -0.464118 0
M  V30 14005 C 1319.52 0.179937 -3.60151 0
M  V30 14006 O 1318.63 1.24596 -3.93128 0
M  V30 14007 H 1317.97 -0.0445076 -0.662507 0
M  V30 14008 H 1320.5 -0.753352 -1.90226 0
M  V30 14009 H 1320.51 0.398876 -4.06046 0
M  V30 14010 H 1319.18 -0.753093 -4.09025 0
M  V30 14011 H 1317.76 1.00872 -3.58997 0
M  V30 14012 N 1319.94 1.55134 -0.277709 0
M  V30 14013 C 1320.87 2.256 0.602232 0
M  V30 14014 C 1321.85 1.24708 1.15681 0
M  V30 14015 O 1323.04 1.53433 1.19046 0
M  V30 14016 C 1320.17 2.97907 1.78519 0
M  V30 14017 C 1319.12 4.0575 1.36203 0
M  V30 14018 C 1318.45 4.65644 2.62829 0
M  V30 14019 C 1319.75 5.19801 0.510327 0
M  V30 14020 H 1321.44 2.99396 0.0145622 0
M  V30 14021 H 1318.99 1.43999 0.00556389 0
M  V30 14022 H 1320.94 3.45915 2.40668 0
M  V30 14023 H 1319.67 2.21649 2.39873 0
M  V30 14024 H 1318.33 3.58557 0.763726 0
M  V30 14025 H 1317.97 3.86053 3.22447 0
M  V30 14026 H 1317.67 5.38463 2.35227 0
M  V30 14027 H 1319.2 5.16403 3.25823 0
M  V30 14028 H 1320.61 5.63845 1.03689 0
M  V30 14029 H 1319.01 5.99197 0.329073 0
M  V30 14030 H 1320.08 4.82614 -0.470273 0
M  V30 14031 N 1321.42 0.00503138 1.57599 0
M  V30 14032 C 1322.37 -1.00294 2.09866 0
M  V30 14033 C 1323.36 -1.35267 1.01977 0
M  V30 14034 O 1324.57 -1.33772 1.20437 0
M  V30 14035 H 1320.94 -0.341112 0.670184 0
M  V30 14036 H 1322.92 -0.536595 2.93536 0
M  V30 14037 C 1321.66 -2.28432 2.62133 0
M  V30 14038 H 1320.99 -2.02391 3.44787 0
M  V30 14039 H 1322.43 -2.97227 3.02378 0
M  V30 14040 C 1320.89 -2.99758 1.53774 0
M  V30 14041 O 1321.42 -3.90939 0.923563 0
M  V30 14042 N 1319.62 -2.61671 1.26398 0
M  V30 14043 H 1319.17 -1.87605 1.76528 0
M  V30 14044 H 1319.13 -3.09707 0.541168 0
M  V30 14045 N 1322.9 -1.55308 -0.267798 0
M  V30 14046 C 1324.15 -1.75364 -0.996515 0
M  V30 14047 C 1324.46 -0.565028 -1.87261 0
M  V30 14048 O 1325.67 -0.648119 -2.63651 0
M  V30 14049 C 1324.12 -3.10388 -1.82175 0
M  V30 14050 C 1323.73 -4.36832 -0.994062 0
M  V30 14051 C 1325.48 -3.39791 -2.54445 0
M  V30 14052 C 1323.38 -5.62893 -1.81398 0
M  V30 14053 H 1322.31 -0.653679 -0.375793 0
M  V30 14054 H 1324.96 -1.81762 -0.251975 0
M  V30 14055 H 1323.35 -2.98041 -2.60744 0
M  V30 14056 H 1324.52 -4.6011 -0.252167 0
M  V30 14057 H 1322.83 -4.1461 -0.385662 0
M  V30 14058 H 1325.43 -4.31184 -3.16203 0
M  V30 14059 H 1325.77 -2.60159 -3.24997 0
M  V30 14060 H 1326.31 -3.53259 -1.82902 0
M  V30 14061 H 1323.05 -6.45287 -1.15258 0
M  V30 14062 H 1322.57 -5.43751 -2.5317 0
M  V30 14063 H 1324.25 -6.01384 -2.38634 0
M  V30 14064 N 1324.38 0.532545 -1.4833 0
M  V30 14065 C 1325.32 1.63737 -1.62661 0
M  V30 14066 C 1326.29 1.59348 -0.468758 0
M  V30 14067 O 1327.48 1.77812 -0.691921 0
M  V30 14068 C 1324.62 3.02006 -1.66993 0
M  V30 14069 C 1323.73 3.16648 -2.93867 0
M  V30 14070 C 1322.87 4.4546 -2.89376 0
M  V30 14071 C 1321.91 4.53622 -4.10966 0
M  V30 14072 N 1321.04 5.7382 -4.04567 0
M  V30 14073 H 1325.88 1.50828 -2.57012 0
M  V30 14074 H 1323.42 0.734348 -1.27459 0
M  V30 14075 H 1325.38 3.82105 -1.67486 0
M  V30 14076 H 1324.01 3.13693 -0.76135 0
M  V30 14077 H 1323.06 2.29817 -3.0313 0
M  V30 14078 H 1324.37 3.1854 -3.8384 0
M  V30 14079 H 1323.53 5.33848 -2.88256 0
M  V30 14080 H 1322.27 4.46085 -1.97127 0
M  V30 14081 H 1321.27 3.63642 -4.12364 0
M  V30 14082 H 1322.5 4.54738 -5.04371 0
M  V30 14083 H 1320.44 5.75347 -3.15137 0
M  V30 14084 H 1320.36 5.77196 -4.88243 0
M  V30 14085 H 1321.63 6.64502 -4.07502 0
M  V30 14086 N 1325.86 1.36875 0.78122 0
M  V30 14087 C 1327.08 1.349 1.57533 0
M  V30 14088 C 1327.51 -0.0655249 1.87986 0
M  V30 14089 O 1326.86 -1.03986 1.48515 0
M  V30 14090 C 1326.91 2.18562 2.86815 0
M  V30 14091 O 1326.02 1.58374 3.80777 0
M  V30 14092 H 1325.36 0.461355 0.477543 0
M  V30 14093 H 1327.89 1.80271 0.96766 0
M  V30 14094 H 1327.9 2.31436 3.36008 0
M  V30 14095 H 1326.57 3.21385 2.63978 0
M  V30 14096 H 1325.15 1.54487 3.39394 0
M  V30 14097 N 1327.33 -1.00632 1.21289 0
M  V30 14098 C 1328.27 -2.09085 0.914258 0
M  V30 14099 C 1329.24 -1.62016 -0.137697 0
M  V30 14100 O 1330.43 -1.88498 -0.00902131 0
M  V30 14101 C 1327.56 -3.36645 0.37254 0
M  V30 14102 C 1326.6 -4.0262 1.40709 0
M  V30 14103 S 1327.43 -4.45203 2.97582 0
M  V30 14104 C 1328.59 -5.75951 2.45013 0
M  V30 14105 H 1328.82 -2.34094 1.83268 0
M  V30 14106 H 1326.36 -1.13893 1.04248 0
M  V30 14107 H 1328.31 -4.10446 0.0665561 0
M  V30 14108 H 1326.98 -3.09689 -0.524546 0
M  V30 14109 H 1326.17 -4.94427 0.977642 0
M  V30 14110 H 1325.77 -3.35088 1.66108 0
M  V30 14111 H 1328.06 -6.51634 1.85416 0
M  V30 14112 H 1329.01 -6.23706 3.35257 0
M  V30 14113 H 1329.41 -5.32707 1.8677 0
M  V30 14114 N 1328.81 -1.02043 -1.20104 0
M  V30 14115 C 1329.74 -0.552093 -2.22451 0
M  V30 14116 C 1330.76 0.367547 -1.58597 0
M  V30 14117 O 1331.95 0.165285 -1.77733 0
M  V30 14118 C 1329.05 0.215833 -3.38212 0
M  V30 14119 C 1328.22 -0.70666 -4.31654 0
M  V30 14120 C 1327.28 0.0143628 -5.26198 0
M  V30 14121 O 1326.3 -0.609413 -5.65928 0
M  V30 14122 N 1327.51 1.28794 -5.66032 0
M  V30 14123 H 1330.27 -1.43229 -2.6326 0
M  V30 14124 H 1327.83 -0.89842 -1.34685 0
M  V30 14125 H 1329.82 0.707523 -3.98467 0
M  V30 14126 H 1328.39 0.997358 -2.96263 0
M  V30 14127 H 1327.61 -1.37859 -3.69308 0
M  V30 14128 H 1328.9 -1.33392 -4.91003 0
M  V30 14129 H 1328.3 1.8156 -5.35773 0
M  V30 14130 H 1326.86 1.72429 -6.28579 0
M  V30 14131 N 1330.29 1.35952 -0.797165 0
M  V30 14132 C 1331.54 1.99032 -0.373142 0
M  V30 14133 C 1331.87 1.63257 1.05723 0
M  V30 14134 O 1331.12 0.883022 1.74646 0
M  V30 14135 C 1331.42 3.53986 -0.492805 0
M  V30 14136 C 1331.09 4.09603 -1.88511 0
M  V30 14137 C 1329.75 4.24505 -2.26604 0
M  V30 14138 C 1332.1 4.39829 -2.79643 0
M  V30 14139 C 1329.43 4.66946 -3.55215 0
M  V30 14140 C 1331.78 4.83706 -4.0769 0
M  V30 14141 C 1330.44 4.96813 -4.45795 0
M  V30 14142 H 1329.71 0.728311 -0.136542 0
M  V30 14143 H 1332.36 1.62318 -1.01613 0
M  V30 14144 H 1330.67 3.91103 0.233661 0
M  V30 14145 H 1332.36 4.00735 -0.145638 0
M  V30 14146 H 1328.95 3.98449 -1.57912 0
M  V30 14147 H 1333.14 4.27878 -2.51464 0
M  V30 14148 H 1328.39 4.75282 -3.84599 0
M  V30 14149 H 1332.57 5.06057 -4.78414 0
M  V30 14150 H 1330.19 5.29458 -5.45507 0
M  V30 14151 N 1331.77 0.549846 1.47697 0
M  V30 14152 C 1333.05 -0.0422793 1.95554 0
M  V30 14153 C 1333.43 -1.49303 1.49238 0
M  V30 14154 O 1332.77 -2.16598 0.727844 0
M  V30 14155 C 1332.98 0.0955552 3.48869 0
M  V30 14156 C 1334.33 -0.0535698 4.24566 0
M  V30 14157 O 1335.36 0.0227365 3.56193 0
M  V30 14158 O 1334.21 -0.21645 5.46071 0
M  V30 14159 H 1331.31 -0.0682465 0.824179 0
M  V30 14160 H 1333.85 0.615849 1.58131 0
M  V30 14161 H 1332.63 1.10536 3.75363 0
M  V30 14162 H 1332.25 -0.600522 3.93039 0
M  V30 14163 N 1333.25 -1.54984 0.285932 0
M  V30 14164 C 1334.52 -1.91872 -0.380083 0
M  V30 14165 C 1334.9 -1.21146 -1.72878 0
M  V30 14166 O 1334.25 -0.341999 -2.25926 0
M  V30 14167 C 1334.46 -3.45258 -0.509667 0
M  V30 14168 C 1335.81 -4.17232 -0.787549 0
M  V30 14169 O 1336.83 -3.51211 -0.594062 0
M  V30 14170 O 1335.69 -5.34085 -1.15826 0
M  V30 14171 H 1332.79 -0.799931 -0.209856 0
M  V30 14172 H 1335.33 -1.66403 0.332882 0
M  V30 14173 H 1334.1 -3.88829 0.439049 0
M  V30 14174 H 1333.73 -3.76715 -1.27168 0
M  V30 14175 N 1334.72 -0.0133892 -1.57594 0
M  V30 14176 C 1335.95 0.682855 -1.95836 0
M  V30 14177 C 1336.37 1.65763 -0.889049 0
M  V30 14178 O 1335.73 1.80665 0.151585 0
M  V30 14179 C 1335.78 1.37931 -3.33178 0
M  V30 14180 O 1334.88 2.49416 -3.28429 0
M  V30 14181 H 1334.23 0.180629 -0.638959 0
M  V30 14182 H 1336.76 -0.0705644 -2.04478 0
M  V30 14183 H 1336.77 1.73969 -3.69051 0
M  V30 14184 H 1335.44 0.664675 -4.10554 0
M  V30 14185 H 1334.02 2.15606 -3.04251 0
M  V30 14186 N 1336.2 1.55448 0.259558 0
M  V30 14187 C 1337.45 1.7589 0.987201 0
M  V30 14188 C 1337.76 0.574951 1.86959 0
M  V30 14189 O 1338.97 0.662091 2.63303 0
M  V30 14190 C 1337.43 3.11349 1.80526 0
M  V30 14191 C 1337.03 4.37353 0.970882 0
M  V30 14192 C 1338.78 3.41136 2.5264 0
M  V30 14193 C 1336.69 5.63847 1.7841 0
M  V30 14194 H 1335.62 0.655662 0.372321 0
M  V30 14195 H 1338.27 1.81893 0.242332 0
M  V30 14196 H 1336.65 2.9942 2.5916 0
M  V30 14197 H 1337.82 4.60237 0.227763 0
M  V30 14198 H 1336.14 4.14809 0.363669 0
M  V30 14199 H 1338.73 4.32855 3.13912 0
M  V30 14200 H 1339.08 2.61879 3.23612 0
M  V30 14201 H 1339.61 3.54224 1.81026 0
M  V30 14202 H 1336.35 6.4589 1.11834 0
M  V30 14203 H 1335.87 5.45086 2.50283 0
M  V30 14204 H 1337.55 6.02641 2.35441 0
M  V30 14205 N 1337.68 -0.524672 1.4861 0
M  V30 14206 C 1338.93 -1.27768 1.56588 0
M  V30 14207 C 1339.25 -1.93469 0.243899 0
M  V30 14208 O 1338.52 -1.8159 -0.734985 0
M  V30 14209 H 1337.1 -0.474566 0.576885 0
M  V30 14210 H 1339.76 -0.610114 1.85104 0
M  V30 14211 H 1338.86 -2.05416 2.34969 0
M  V30 14212 N 1339.16 -1.37287 -0.77395 0
M  V30 14213 C 1340.4 -1.3257 -1.5347 0
M  V30 14214 C 1340.74 0.090346 -1.9399 0
M  V30 14215 O 1340.01 1.04719 -1.63903 0
M  V30 14216 C 1340.3 -2.26277 -2.80126 0
M  V30 14217 C 1340.15 -3.76651 -2.45874 0
M  V30 14218 C 1341.47 -2.18471 -3.82045 0
M  V30 14219 H 1338.59 -0.48289 -0.556764 0
M  V30 14220 H 1341.23 -1.6797 -0.888039 0
M  V30 14221 H 1339.38 -1.96219 -3.35306 0
M  V30 14222 H 1341.05 -4.17296 -1.96626 0
M  V30 14223 H 1339.29 -3.95327 -1.78602 0
M  V30 14224 H 1339.96 -4.3765 -3.36403 0
M  V30 14225 H 1342.44 -2.44962 -3.36352 0
M  V30 14226 H 1341.32 -2.86183 -4.68392 0
M  V30 14227 H 1341.58 -1.17692 -4.26147 0
M  V30 14228 N 1340.64 0.999871 -1.21821 0
M  V30 14229 C 1341.57 2.10708 -1.00621 0
M  V30 14230 C 1342.55 1.69954 0.0705417 0
M  V30 14231 O 1343.73 1.9399 -0.0903042 0
M  V30 14232 C 1340.86 3.42496 -0.575646 0
M  V30 14233 C 1339.82 3.97068 -1.59754 0
M  V30 14234 C 1339.14 5.24822 -1.02304 0
M  V30 14235 C 1340.44 4.28545 -2.98574 0
M  V30 14236 H 1342.14 2.28701 -1.93226 0
M  V30 14237 H 1339.68 1.09903 -0.930443 0
M  V30 14238 H 1341.64 4.19357 -0.414481 0
M  V30 14239 H 1340.36 3.2431 0.386059 0
M  V30 14240 H 1339.02 3.22332 -1.74636 0
M  V30 14241 H 1338.67 5.02972 -0.0529016 0
M  V30 14242 H 1338.37 5.62299 -1.70567 0
M  V30 14243 H 1339.89 6.04322 -0.873312 0
M  V30 14244 H 1341.3 4.96229 -2.87106 0
M  V30 14245 H 1339.7 4.77178 -3.63897 0
M  V30 14246 H 1340.77 3.36607 -3.49032 0
M  V30 14247 N 1342.11 1.02678 1.19562 0
M  V30 14248 C 1343.05 0.563882 2.22155 0
M  V30 14249 C 1344.06 -0.359132 1.58789 0
M  V30 14250 O 1345.25 -0.155857 1.77818 0
M  V30 14251 C 1342.35 -0.197894 3.38322 0
M  V30 14252 C 1341.52 0.729542 4.31273 0
M  V30 14253 C 1340.58 0.013543 5.26198 0
M  V30 14254 O 1339.61 0.639417 5.65597 0
M  V30 14255 N 1340.81 -1.25791 5.66707 0
M  V30 14256 H 1343.57 1.44623 2.62496 0
M  V30 14257 H 1341.13 0.90555 1.34207 0
M  V30 14258 H 1343.13 -0.686381 3.98837 0
M  V30 14259 H 1341.7 -0.981632 2.96787 0
M  V30 14260 H 1340.92 1.39816 3.68572 0
M  V30 14261 H 1342.2 1.35994 4.90289 0
M  V30 14262 H 1341.6 -1.78716 5.36728 0
M  V30 14263 H 1340.16 -1.69093 6.29485 0
M  V30 14264 N 1343.59 -1.35528 0.804364 0
M  V30 14265 C 1344.56 -2.28153 0.21885 0
M  V30 14266 C 1345.56 -1.49486 -0.592511 0
M  V30 14267 O 1346.75 -1.69274 -0.411319 0
M  V30 14268 C 1343.88 -3.33736 -0.695195 0
M  V30 14269 H 1345.07 -2.81446 1.03576 0
M  V30 14270 H 1342.62 -1.45345 0.574854 0
M  V30 14271 H 1343.36 -2.85625 -1.53587 0
M  V30 14272 H 1343.14 -3.91931 -0.115143 0
M  V30 14273 H 1344.63 -4.02872 -1.09925 0
M  V30 14274 N 1345.07 -0.557671 -1.47404 0
M  V30 14275 C 1346.02 0.202834 -2.31714 0
M  V30 14276 C 1347.01 0.908873 -1.42954 0
M  V30 14277 O 1348.22 0.830106 -1.59716 0
M  V30 14278 H 1344.59 0.0842824 -0.747262 0
M  V30 14279 H 1346.57 -0.527431 -2.93702 0
M  V30 14280 C 1345.31 1.21937 -3.25617 0
M  V30 14281 H 1344.64 0.685506 -3.93879 0
M  V30 14282 H 1346.08 1.72237 -3.87441 0
M  V30 14283 C 1344.54 2.26748 -2.49173 0
M  V30 14284 O 1345.07 3.33681 -2.23651 0
M  V30 14285 N 1343.27 2.00687 -2.10174 0
M  V30 14286 H 1342.82 1.13741 -2.3113 0
M  V30 14287 H 1342.78 2.71031 -1.59342 0
M  V30 14288 N 1346.55 1.54831 -0.294147 0
M  V30 14289 C 1347.77 2.04873 0.32276 0
M  V30 14290 C 1348.2 1.17034 1.47257 0
M  V30 14291 O 1347.56 0.172949 1.80473 0
M  V30 14292 C 1347.61 3.52431 0.76319 0
M  V30 14293 O 1346.71 3.67635 1.86865 0
M  V30 14294 H 1346.05 0.660926 0.0638162 0
M  V30 14295 H 1348.58 1.99944 -0.433995 0
M  V30 14296 H 1348.59 3.94155 1.05385 0
M  V30 14297 H 1347.27 4.15827 -0.0779464 0
M  V30 14298 H 1345.84 3.37816 1.57907 0
M  V30 14299 N 1348.03 0.0217466 1.57585 0
M  V30 14300 C 1348.96 -0.99116 2.06661 0
M  V30 14301 C 1349.97 -1.29346 0.988604 0
M  V30 14302 O 1351.16 -1.25941 1.26496 0
M  V30 14303 C 1348.26 -2.32047 2.46997 0
M  V30 14304 C 1347.43 -2.20441 3.77789 0
M  V30 14305 C 1346.49 -3.36243 4.04755 0
M  V30 14306 O 1345.52 -3.13458 4.75114 0
M  V30 14307 N 1346.72 -4.598 3.54351 0
M  V30 14308 H 1349.49 -0.572486 2.94181 0
M  V30 14309 H 1347.05 -0.165175 1.61055 0
M  V30 14310 H 1349.04 -3.0833 2.62135 0
M  V30 14311 H 1347.61 -2.65581 1.64881 0
M  V30 14312 H 1346.83 -1.28931 3.72519 0
M  V30 14313 H 1348.12 -2.09882 4.63494 0
M  V30 14314 H 1347.52 -4.81207 2.97416 0
M  V30 14315 H 1346.07 -5.33276 3.7478 0
M  V30 14316 N 1349.51 -1.55583 -0.251311 0
M  V30 14317 C 1350.75 -1.76859 -0.978031 0
M  V30 14318 C 1351.07 -0.584924 -1.86021 0
M  V30 14319 O 1350.34 0.399456 -1.91784 0
M  V30 14320 H 1348.92 -0.652252 -0.364111 0
M  V30 14321 H 1351.59 -1.93016 -0.270319 0
M  V30 14322 H 1350.68 -2.67828 -1.60233 0
M  V30 14323 N 1350.98 0.516783 -1.48886 0
M  V30 14324 C 1352.23 1.27187 -1.57574 0
M  V30 14325 C 1352.56 1.92815 -0.255432 0
M  V30 14326 O 1351.81 1.80533 0.755403 0
M  V30 14327 C 1352.11 2.37296 -2.67256 0
M  V30 14328 C 1351.78 1.89232 -4.0927 0
M  V30 14329 C 1350.44 1.75842 -4.47921 0
M  V30 14330 C 1352.79 1.53073 -4.98215 0
M  V30 14331 C 1350.12 1.24648 -5.73306 0
M  V30 14332 C 1352.47 1.03337 -6.24103 0
M  V30 14333 C 1351.14 0.885744 -6.61597 0
M  V30 14334 H 1350.41 0.46541 -0.576606 0
M  V30 14335 H 1353.05 0.575223 -1.82657 0
M  V30 14336 H 1351.36 3.12685 -2.36084 0
M  V30 14337 H 1353.06 2.95393 -2.7119 0
M  V30 14338 H 1349.65 2.00608 -3.78754 0
M  V30 14339 H 1353.83 1.62272 -4.69022 0
M  V30 14340 H 1349.09 1.11917 -6.0107 0
M  V30 14341 H 1353.26 0.744338 -6.92411 0
M  V30 14342 H 1350.89 0.486866 -7.58639 0
M  V30 14343 N 1352.46 1.37696 0.766659 0
M  V30 14344 C 1353.69 1.3639 1.55581 0
M  V30 14345 C 1354.1 -0.0495272 1.88735 0
M  V30 14346 O 1353.46 -1.01268 1.51826 0
M  V30 14347 C 1353.51 2.20717 2.86298 0
M  V30 14348 O 1353.23 3.56552 2.54563 0
M  V30 14349 C 1354.73 2.27446 3.80504 0
M  V30 14350 H 1351.95 0.466993 0.481828 0
M  V30 14351 H 1354.5 1.81103 0.949834 0
M  V30 14352 H 1352.65 1.79499 3.43306 0
M  V30 14353 H 1353.07 4.00811 3.38306 0
M  V30 14354 H 1354.54 2.90762 4.69214 0
M  V30 14355 H 1355.02 1.28434 4.20002 0
M  V30 14356 H 1355.62 2.68998 3.29424 0
M  V30 14357 N 1353.94 -0.993397 1.22349 0
M  V30 14358 C 1355.35 -1.54739 1.04465 0
M  V30 14359 C 1355.7 -1.92243 -0.392057 0
M  V30 14360 O 1354.83 -1.74707 -1.27697 0
M  V30 14361 C 1355.42 -2.81179 1.89007 0
M  V30 14362 C 1353.98 -3.33023 1.75421 0
M  V30 14363 C 1353.13 -2.06114 1.85505 0
M  V30 14364 H 1356.08 -0.814539 1.36202 0
M  V30 14365 H 1356.1 -3.53523 1.40718 0
M  V30 14366 H 1355.61 -2.53851 2.93566 0
M  V30 14367 H 1353.71 -3.6526 0.735935 0
M  V30 14368 H 1353.83 -4.03659 2.58062 0
M  V30 14369 H 1352.19 -2.19651 1.2894 0
M  V30 14370 H 1352.97 -1.81184 2.91594 0
M  V30 14371 N 1355.42 -1.03311 -1.19015 0
M  V30 14372 C 1356.83 -0.761079 -1.70483 0
M  V30 14373 C 1357.18 0.718851 -1.82557 0
M  V30 14374 O 1356.3 1.56006 -1.4997 0
M  V30 14375 C 1356.9 -1.37492 -3.09647 0
M  V30 14376 C 1355.46 -1.15138 -3.58358 0
M  V30 14377 C 1354.61 -1.47034 -2.35109 0
M  V30 14378 H 1357.56 -1.2005 -1.03797 0
M  V30 14379 H 1357.58 -0.774115 -3.72542 0
M  V30 14380 H 1357.09 -2.45203 -3.00828 0
M  V30 14381 H 1355.19 -0.0926822 -3.72485 0
M  V30 14382 H 1355.3 -1.84307 -4.4223 0
M  V30 14383 H 1353.67 -0.889794 -2.38652 0
M  V30 14384 H 1354.45 -2.55837 -2.28916 0
M  V30 14385 N 1356.9 1.35099 -0.81154 0
M  V30 14386 C 1358.14 1.98233 -0.393453 0
M  V30 14387 C 1358.46 1.64688 1.04417 0
M  V30 14388 O 1357.73 0.931845 1.72318 0
M  V30 14389 H 1356.31 0.733283 -0.142496 0
M  V30 14390 H 1358.98 1.6493 -1.03847 0
M  V30 14391 H 1358.07 3.08017 -0.503188 0
M  V30 14392 N 1358.37 0.56548 1.47106 0
M  V30 14393 C 1359.31 -0.225573 2.27082 0
M  V30 14394 C 1360.28 -0.912747 1.34565 0
M  V30 14395 O 1361.47 -0.930085 1.63956 0
M  V30 14396 C 1358.6 -1.32211 3.1183 0
M  V30 14397 C 1357.64 -0.742615 4.19985 0
M  V30 14398 S 1358.47 0.417211 5.33872 0
M  V30 14399 C 1359.63 -0.680945 6.22185 0
M  V30 14400 H 1359.86 0.453066 2.93828 0
M  V30 14401 H 1357.4 0.351982 1.50334 0
M  V30 14402 H 1359.35 -1.95004 3.61225 0
M  V30 14403 H 1358.02 -1.97262 2.44431 0
M  V30 14404 H 1357.21 -1.56632 4.79043 0
M  V30 14405 H 1356.81 -0.190696 3.73514 0
M  V30 14406 H 1359.1 -1.57099 6.59034 0
M  V30 14407 H 1360.05 -0.127524 7.07985 0
M  V30 14408 H 1360.45 -0.977339 5.55975 0
M  V30 14409 N 1359.85 -1.54672 0.302354 0
M  V30 14410 C 1361.13 -1.92264 -0.359711 0
M  V30 14411 C 1361.51 -1.22973 -1.71583 0
M  V30 14412 O 1360.86 -0.365942 -2.25551 0
M  V30 14413 C 1361.07 -3.4578 -0.473019 0
M  V30 14414 C 1362.42 -4.18044 -0.743252 0
M  V30 14415 O 1363.44 -3.51822 -0.556778 0
M  V30 14416 O 1362.3 -5.35283 -1.10155 0
M  V30 14417 H 1359.39 -0.802112 -0.201359 0
M  V30 14418 H 1361.94 -1.66041 0.350513 0
M  V30 14419 H 1360.71 -3.88342 0.480265 0
M  V30 14420 H 1360.33 -3.78042 -1.23166 0
M  V30 14421 N 1361.33 -0.0301034 -1.57571 0
M  V30 14422 C 1362.75 0.326296 -1.56229 0
M  V30 14423 C 1362.95 1.72839 -1.03581 0
M  V30 14424 O 1362 2.43088 -0.682979 0
M  V30 14425 C 1363.32 0.174001 -3.00196 0
M  V30 14426 C 1364.86 0.246694 -3.12026 0
M  V30 14427 C 1365.34 0.123177 -4.57834 0
M  V30 14428 N 1366.83 0.180129 -4.6285 0
M  V30 14429 C 1367.56 0.108353 -5.73298 0
M  V30 14430 N 1367.06 -0.0145648 -6.92798 0
M  V30 14431 N 1368.85 0.162411 -5.61865 0
M  V30 14432 H 1361 -0.946945 -1.90123 0
M  V30 14433 H 1363.27 -0.365762 -0.874598 0
M  V30 14434 H 1362.97 -0.791871 -3.42669 0
M  V30 14435 H 1362.85 0.943794 -3.65202 0
M  V30 14436 H 1365.23 1.20303 -2.69465 0
M  V30 14437 H 1365.32 -0.553493 -2.4974 0
M  V30 14438 H 1364.96 -0.82974 -5.01077 0
M  V30 14439 H 1364.89 0.94224 -5.18102 0
M  V30 14440 H 1367.38 0.275236 -3.76896 0
M  V30 14441 H 1367.69 -0.062614 -7.72775 0
M  V30 14442 H 1366.04 -0.0493606 -6.94982 0
M  V30 14443 H 1369.23 0.256847 -4.67395 0
M  V30 14444 H 1369.4 0.103013 -6.47918 0
M  V30 14445 N 1362.81 1.55714 0.243056 0
M  V30 14446 C 1364.03 1.82126 0.992219 0
M  V30 14447 C 1364.46 0.607665 1.78014 0
M  V30 14448 O 1363.82 -0.443351 1.75796 0
M  V30 14449 C 1363.86 3.06314 1.90274 0
M  V30 14450 O 1362.97 2.83499 2.99503 0
M  V30 14451 H 1362.31 0.601082 0.282128 0
M  V30 14452 H 1364.84 2.02904 0.262881 0
M  V30 14453 H 1364.85 3.35849 2.31666 0
M  V30 14454 H 1363.52 3.94282 1.32344 0
M  V30 14455 H 1362.1 2.65141 2.62211 0
M  V30 14456 N 1364.29 -0.50888 1.49158 0
M  V30 14457 C 1365.51 -1.29245 1.62205 0
M  V30 14458 C 1365.94 -1.85845 0.29041 0
M  V30 14459 O 1365.29 -1.6547 -0.740906 0
M  V30 14460 C 1365.34 -2.40415 2.68762 0
M  V30 14461 O 1364.45 -3.44048 2.27387 0
M  V30 14462 H 1363.79 -0.381898 0.543185 0
M  V30 14463 H 1366.32 -0.610076 1.95293 0
M  V30 14464 H 1366.33 -2.86295 2.90688 0
M  V30 14465 H 1365 -1.98584 3.65427 0
M  V30 14466 H 1363.58 -3.04141 2.1576 0
M  V30 14467 N 1365.76 -1.381 -0.759346 0
M  V30 14468 C 1367.18 -1.30379 -1.33635 0
M  V30 14469 C 1367.53 0.0430279 -1.96153 0
M  V30 14470 O 1366.65 0.945029 -1.94675 0
M  V30 14471 C 1367.25 -2.3611 -2.42976 0
M  V30 14472 C 1365.81 -2.31985 -2.96412 0
M  V30 14473 C 1364.95 -2.19281 -1.69739 0
M  V30 14474 H 1367.9 -1.48542 -0.558656 0
M  V30 14475 H 1367.92 -2.01493 -3.22771 0
M  V30 14476 H 1367.44 -3.34122 -1.97445 0
M  V30 14477 H 1365.54 -1.37536 -3.46287 0
M  V30 14478 H 1365.65 -3.25895 -3.51183 0
M  V30 14479 H 1364.01 -1.66035 -1.93144 0
M  V30 14480 H 1364.8 -3.19225 -1.26293 0
M  V30 14481 N 1367.24 0.986894 -1.22875 0
M  V30 14482 C 1368.52 1.70121 -0.965311 0
M  V30 14483 C 1368.9 2.04648 0.517924 0
M  V30 14484 O 1368.25 1.73453 1.48749 0
M  V30 14485 C 1368.46 2.94738 -1.86897 0
M  V30 14486 C 1369.81 3.6739 -2.12861 0
M  V30 14487 O 1370.83 3.04758 -1.84394 0
M  V30 14488 O 1369.69 4.8009 -2.61106 0
M  V30 14489 H 1366.78 0.742817 -0.363527 0
M  V30 14490 H 1369.33 1.0427 -1.33887 0
M  V30 14491 H 1368.1 2.65771 -2.87196 0
M  V30 14492 H 1367.72 3.68327 -1.49736 0
M  V30 14493 N 1368.72 1.0394 1.18466 0
M  V30 14494 C 1369.67 0.623063 2.241 0
M  V30 14495 C 1370.66 -0.349518 1.65755 0
M  V30 14496 O 1371.87 -0.216947 1.78688 0
M  V30 14497 H 1368.24 0.183263 0.729327 0
M  V30 14498 H 1370.21 1.52439 2.56524 0
M  V30 14499 C 1368.96 0.000626805 3.477 0
M  V30 14500 H 1368.29 0.740056 3.92891 0
M  V30 14501 H 1369.73 -0.253484 4.23242 0
M  V30 14502 C 1368.19 -1.24907 3.1289 0
M  V30 14503 O 1368.72 -2.33996 3.2651 0
M  V30 14504 N 1366.92 -1.14187 2.67226 0
M  V30 14505 H 1366.47 -0.254146 2.56343 0
M  V30 14506 H 1366.43 -1.97893 2.44307 0
M  V30 14507 N 1370.2 -1.34667 0.818693 0
M  V30 14508 C 1371.42 -2.03173 0.416585 0
M  V30 14509 C 1371.85 -1.61261 -0.968321 0
M  V30 14510 O 1371.21 -0.79517 -1.62932 0
M  V30 14511 C 1371.25 -3.56803 0.521884 0
M  V30 14512 O 1370.36 -4.09827 -0.459953 0
M  V30 14513 H 1369.7 -0.6413 0.172136 0
M  V30 14514 H 1372.23 -1.72006 1.10794 0
M  V30 14515 H 1372.24 -4.06073 0.3961 0
M  V30 14516 H 1370.91 -3.86656 1.53198 0
M  V30 14517 H 1369.49 -3.71744 -0.293405 0
M  V30 14518 N 1371.68 -0.573274 -1.46804 0
M  V30 14519 C 1373.09 -0.144162 -1.86143 0
M  V30 14520 C 1373.44 1.29033 -1.47801 0
M  V30 14521 O 1372.56 1.97319 -0.888494 0
M  V30 14522 C 1373.16 -0.254851 -3.3784 0
M  V30 14523 C 1371.72 0.119325 -3.76211 0
M  V30 14524 C 1370.86 -0.595115 -2.70839 0
M  V30 14525 H 1373.82 -0.782057 -1.38093 0
M  V30 14526 H 1373.84 0.522321 -3.76898 0
M  V30 14527 H 1373.35 -1.29899 -3.65715 0
M  V30 14528 H 1371.45 1.16396 -3.53953 0
M  V30 14529 H 1371.56 -0.250421 -4.78445 0
M  V30 14530 H 1369.93 -0.0364028 -2.54674 0
M  V30 14531 H 1370.71 -1.64072 -3.01555 0
M  V30 14532 N 1373.15 1.5451 -0.310553 0
M  V30 14533 C 1374.4 2.00623 0.296343 0
M  V30 14534 C 1374.73 1.19855 1.52802 0
M  V30 14535 O 1374.01 0.277468 1.92511 0
M  V30 14536 C 1374.29 3.54305 0.643448 0
M  V30 14537 C 1374.14 4.45807 -0.598029 0
M  V30 14538 C 1375.46 4.14958 1.46623 0
M  V30 14539 H 1372.58 0.729303 0.106236 0
M  V30 14540 H 1375.22 1.85196 -0.424549 0
M  V30 14541 H 1373.37 3.67581 1.25762 0
M  V30 14542 H 1375.05 4.44421 -1.23643 0
M  V30 14543 H 1373.29 4.16014 -1.22944 0
M  V30 14544 H 1373.96 5.51124 -0.310883 0
M  V30 14545 H 1376.44 4.05176 0.947199 0
M  V30 14546 H 1375.31 5.22627 1.67787 0
M  V30 14547 H 1375.57 3.67445 2.45839 0
M  V30 14548 N 1374.63 0.0384594 1.57553 0
M  V30 14549 C 1375.58 -0.949625 2.07283 0
M  V30 14550 C 1376.57 -1.27973 0.975284 0
M  V30 14551 O 1377.76 -1.26428 1.23875 0
M  V30 14552 C 1374.89 -2.22887 2.61106 0
M  V30 14553 C 1373.97 -1.92672 3.77807 0
M  V30 14554 N 1374.37 -1.32764 4.88065 0
M  V30 14555 C 1372.66 -2.22612 3.86471 0
M  V30 14556 C 1373.36 -1.19892 5.69211 0
M  V30 14557 N 1372.34 -1.69757 5.16414 0
M  V30 14558 H 1376.14 -0.481562 2.89928 0
M  V30 14559 H 1373.66 -0.166321 1.61546 0
M  V30 14560 H 1375.65 -2.94556 2.9503 0
M  V30 14561 H 1374.31 -2.70311 1.79895 0
M  V30 14562 H 1375.32 -1.00146 5.08125 0
M  V30 14563 H 1372 -2.72645 3.16182 0
M  V30 14564 H 1373.39 -0.734892 6.67869 0
M  V30 14565 N 1376.11 -1.55841 -0.234795 0
M  V30 14566 C 1377.36 -1.77886 -0.959217 0
M  V30 14567 C 1377.68 -0.604621 -1.8539 0
M  V30 14568 O 1376.95 0.379092 -1.92197 0
M  V30 14569 H 1375.53 -0.656077 -0.357172 0
M  V30 14570 H 1378.19 -1.93292 -0.249831 0
M  V30 14571 H 1377.29 -2.69512 -1.57383 0
M  V30 14572 N 1377.59 0.500963 -1.49426 0
M  V30 14573 C 1378.52 1.62019 -1.60701 0
M  V30 14574 C 1379.5 1.56072 -0.456092 0
M  V30 14575 O 1380.68 1.76128 -0.671642 0
M  V30 14576 C 1377.81 3.00532 -1.56199 0
M  V30 14577 C 1376.86 3.2474 -2.76489 0
M  V30 14578 S 1377.69 3.07859 -4.38159 0
M  V30 14579 C 1378.85 4.48767 -4.36301 0
M  V30 14580 H 1379.08 1.5221 -2.55381 0
M  V30 14581 H 1376.61 0.686122 -1.38317 0
M  V30 14582 H 1378.57 3.80402 -1.54287 0
M  V30 14583 H 1377.23 3.07757 -0.628067 0
M  V30 14584 H 1376.42 4.25858 -2.69558 0
M  V30 14585 H 1376.03 2.52593 -2.75813 0
M  V30 14586 H 1378.32 5.40854 -4.08023 0
M  V30 14587 H 1379.26 4.60748 -5.37696 0
M  V30 14588 H 1379.67 4.29448 -3.6638 0
M  V30 14589 N 1379.07 1.38501 0.752011 0
M  V30 14590 C 1380 1.38577 1.87933 0
M  V30 14591 C 1380.98 0.251454 1.68231 0
M  V30 14592 O 1382.16 0.45477 1.888 0
M  V30 14593 C 1379.29 1.21164 3.25479 0
M  V30 14594 C 1378.25 2.31816 3.59785 0
M  V30 14595 C 1377.57 1.99508 4.96085 0
M  V30 14596 C 1378.87 3.74082 3.645 0
M  V30 14597 H 1380.57 2.32913 1.88127 0
M  V30 14598 H 1378.11 1.12113 0.903698 0
M  V30 14599 H 1380.07 1.19842 4.04 0
M  V30 14600 H 1378.79 0.232899 3.25769 0
M  V30 14601 H 1377.45 2.32327 2.83584 0
M  V30 14602 H 1377.1 1.00114 4.92936 0
M  V30 14603 H 1376.8 2.73617 5.20007 0
M  V30 14604 H 1378.32 1.99807 5.76983 0
M  V30 14605 H 1379.74 3.75593 4.33131 0
M  V30 14606 H 1378.13 4.47409 3.99931 0
M  V30 14607 H 1379.2 4.06284 2.64692 0
M  V30 14608 N 1380.55 -0.980364 1.23396 0
M  V30 14609 C 1381.96 -1.24658 0.996622 0
M  V30 14610 C 1382.16 -1.9922 -0.302259 0
M  V30 14611 O 1381.22 -2.30906 -1.02169 0
M  V30 14612 C 1382.53 -2.0461 2.20353 0
M  V30 14613 C 1384.08 -2.17749 2.24843 0
M  V30 14614 C 1384.55 -3.01091 3.4512 0
M  V30 14615 N 1386.04 -3.08676 3.4536 0
M  V30 14616 C 1386.78 -3.73487 4.3508 0
M  V30 14617 N 1386.28 -4.40121 5.35038 0
M  V30 14618 N 1388.07 -3.70373 4.22824 0
M  V30 14619 H 1380.22 -0.480851 2.06885 0
M  V30 14620 H 1382.48 -0.275049 0.907222 0
M  V30 14621 H 1382.19 -1.57197 3.14614 0
M  V30 14622 H 1382.06 -3.05359 2.21441 0
M  V30 14623 H 1384.45 -2.64369 1.31122 0
M  V30 14624 H 1384.53 -1.16388 2.27788 0
M  V30 14625 H 1384.17 -2.55168 4.39149 0
M  V30 14626 H 1384.1 -4.02621 3.39417 0
M  V30 14627 H 1386.6 -2.61265 2.73037 0
M  V30 14628 H 1386.91 -4.87354 5.99755 0
M  V30 14629 H 1385.25 -4.38829 5.38938 0
M  V30 14630 H 1388.44 -3.17486 3.43977 0
M  V30 14631 H 1388.62 -4.20601 4.92949 0
M  V30 14632 N 1382.02 -1.04567 -1.17913 0
M  V30 14633 C 1382.96 -0.599154 -2.2123 0
M  V30 14634 C 1383.97 0.333824 -1.59341 0
M  V30 14635 O 1385.16 0.127548 -1.78044 0
M  V30 14636 C 1382.26 0.144045 -3.38594 0
M  V30 14637 C 1381.43 -0.798061 -4.30058 0
M  V30 14638 C 1380.49 -0.0972548 -5.2611 0
M  V30 14639 O 1379.52 -0.729318 -5.64508 0
M  V30 14640 N 1380.72 1.16759 -5.68637 0
M  V30 14641 H 1383.48 -1.48781 -2.60162 0
M  V30 14642 H 1381.04 -0.926787 -1.32749 0
M  V30 14643 H 1383.04 0.622843 -3.99878 0
M  V30 14644 H 1381.61 0.934292 -2.98311 0
M  V30 14645 H 1380.83 -1.45662 -3.66301 0
M  V30 14646 H 1382.11 -1.43777 -4.88063 0
M  V30 14647 H 1381.51 1.70155 -5.39503 0
M  V30 14648 H 1380.07 1.59057 -6.32095 0
M  V30 14649 N 1383.5 1.34231 -0.825823 0
M  V30 14650 C 1384.91 1.8059 -0.473724 0
M  V30 14651 C 1385.26 1.68438 1.00614 0
M  V30 14652 O 1384.39 1.22606 1.78317 0
M  V30 14653 C 1384.98 3.27884 -0.853099 0
M  V30 14654 C 1383.54 3.72311 -0.553327 0
M  V30 14655 C 1382.69 2.55889 -1.06845 0
M  V30 14656 H 1385.64 1.21937 -1.01573 0
M  V30 14657 H 1385.66 3.80172 -0.158014 0
M  V30 14658 H 1385.17 3.36696 -1.93021 0
M  V30 14659 H 1383.27 3.69034 0.514256 0
M  V30 14660 H 1383.39 4.66315 -1.09942 0
M  V30 14661 H 1381.75 2.49945 -0.489874 0
M  V30 14662 H 1382.53 2.67471 -2.15207 0
M  V30 14663 N 1384.98 0.581051 1.46498 0
M  V30 14664 C 1386.2 0.0696654 2.07283 0
M  V30 14665 C 1386.63 -1.22525 1.42721 0
M  V30 14666 O 1385.99 -1.73967 0.510421 0
M  V30 14667 C 1386.04 -0.0843864 3.60501 0
M  V30 14668 O 1385.14 -1.14129 3.96293 0
M  V30 14669 H 1384.48 0.0620572 0.661094 0
M  V30 14670 H 1387.01 0.803522 1.88161 0
M  V30 14671 H 1387.02 -0.29108 4.0696 0
M  V30 14672 H 1385.7 0.861274 4.06884 0
M  V30 14673 H 1384.27 -0.913186 3.61546 0
M  V30 14674 N 1386.46 -1.54343 0.318742 0
M  V30 14675 C 1387.71 -1.9966 -0.286146 0
M  V30 14676 C 1388.02 -1.21073 -1.53625 0
M  V30 14677 O 1389.23 -1.56744 -2.21684 0
M  V30 14678 C 1387.68 -3.5551 -0.560405 0
M  V30 14679 C 1387.29 -4.42926 0.672373 0
M  V30 14680 C 1389.03 -4.09307 -1.12551 0
M  V30 14681 C 1386.94 -5.9024 0.370285 0
M  V30 14682 H 1385.87 -0.74583 -0.110698 0
M  V30 14683 H 1388.52 -1.78386 0.430215 0
M  V30 14684 H 1386.9 -3.72753 -1.33683 0
M  V30 14685 H 1388.08 -4.37458 1.448 0
M  V30 14686 H 1386.39 -3.99993 1.15736 0
M  V30 14687 H 1388.99 -5.16955 -1.36607 0
M  V30 14688 H 1389.33 -3.60994 -2.07338 0
M  V30 14689 H 1389.87 -3.95677 -0.410385 0
M  V30 14690 H 1386.6 -6.42738 1.28719 0
M  V30 14691 H 1386.12 -5.98672 -0.367731 0
M  V30 14692 H 1387.8 -6.46996 -0.0216582 0
M  V30 14693 N 1387.94 -0.0468143 -1.5753 0
M  V30 14694 C 1389.16 0.637648 -1.96829 0
M  V30 14695 C 1389.58 1.64635 -0.924158 0
M  V30 14696 O 1388.94 1.82267 0.0921139 0
M  V30 14697 C 1388.99 1.32842 -3.36207 0
M  V30 14698 O 1388.71 0.360111 -4.36617 0
M  V30 14699 C 1390.21 2.10305 -3.90239 0
M  V30 14700 H 1387.43 0.174634 -0.647876 0
M  V30 14701 H 1389.97 -0.111824 -2.04194 0
M  V30 14702 H 1388.13 2.02915 -3.30006 0
M  V30 14703 H 1388.54 0.852661 -5.17523 0
M  V30 14704 H 1390.02 2.54065 -4.90056 0
M  V30 14705 H 1390.49 2.94942 -3.25432 0
M  V30 14706 H 1391.1 1.45152 -3.99764 0
M  V30 14707 N 1389.41 1.55964 0.226527 0
M  V30 14708 C 1390.64 1.82823 0.968673 0
M  V30 14709 C 1391.06 0.625281 1.78145 0
M  V30 14710 O 1390.41 -0.40617 1.77923 0
M  V30 14711 C 1390.47 3.08143 1.89024 0
M  V30 14712 O 1390.19 4.23797 1.11032 0
M  V30 14713 C 1391.69 3.47954 2.74669 0
M  V30 14714 H 1388.91 0.607876 0.284126 0
M  V30 14715 H 1391.45 2.03048 0.243258 0
M  V30 14716 H 1389.61 2.89908 2.56967 0
M  V30 14717 H 1390.02 4.94957 1.73546 0
M  V30 14718 H 1391.49 4.38691 3.35044 0
M  V30 14719 H 1391.97 2.69476 3.46813 0
M  V30 14720 H 1392.58 3.6861 2.12147 0
M  V30 14721 N 1390.89 -0.493031 1.4969 0
M  V30 14722 C 1392.14 -1.24418 1.59263 0
M  V30 14723 C 1392.46 -1.92908 0.284882 0
M  V30 14724 O 1391.73 -1.83108 -0.696302 0
M  V30 14725 H 1390.31 -0.462223 0.586821 0
M  V30 14726 H 1392.97 -0.570713 1.86357 0
M  V30 14727 H 1392.07 -2.00386 2.39274 0
M  V30 14728 N 1392.37 -1.38898 -0.744656 0
M  V30 14729 C 1393.62 -1.35795 -1.50623 0
M  V30 14730 C 1393.95 0.0491775 -1.94138 0
M  V30 14731 O 1393.22 1.01219 -1.66087 0
M  V30 14732 C 1393.51 -2.32168 -2.75263 0
M  V30 14733 C 1393.36 -3.81781 -2.3783 0
M  V30 14734 C 1394.68 -2.26526 -3.77325 0
M  V30 14735 H 1391.8 -0.494591 -0.546396 0
M  V30 14736 H 1394.44 -1.69816 -0.852211 0
M  V30 14737 H 1392.59 -2.03287 -3.31069 0
M  V30 14738 H 1394.26 -4.21373 -1.8773 0
M  V30 14739 H 1392.51 -3.99027 -1.70176 0
M  V30 14740 H 1393.18 -4.44687 -3.27044 0
M  V30 14741 H 1395.65 -2.52041 -3.31081 0
M  V30 14742 H 1394.53 -2.96053 -4.62216 0
M  V30 14743 H 1394.79 -1.26705 -4.23554 0
M  V30 14744 N 1393.85 0.973806 -1.23914 0
M  V30 14745 C 1394.8 2.08861 -1.02372 0
M  V30 14746 C 1395.79 1.69354 0.039415 0
M  V30 14747 O 1397 1.79635 -0.114637 0
M  V30 14748 H 1393.37 0.683313 -0.313986 0
M  V30 14749 H 1395.34 2.24195 -1.96924 0
M  V30 14750 C 1394.09 3.41784 -0.638661 0
M  V30 14751 H 1393.41 3.72639 -1.44846 0
M  V30 14752 H 1394.85 4.20706 -0.527487 0
M  V30 14753 C 1393.31 3.30497 0.65369 0
M  V30 14754 O 1393.84 3.63905 1.70107 0
M  V30 14755 N 1392.05 2.83642 0.632104 0
M  V30 14756 H 1391.6 2.56654 -0.220571 0
M  V30 14757 H 1391.55 2.76472 1.49701 0
M  V30 14758 N 1395.33 1.05191 1.17357 0
M  V30 14759 C 1396.58 0.757104 1.86951 0
M  V30 14760 C 1396.89 -0.718637 1.8192 0
M  V30 14761 O 1398.09 -1.12739 2.46986 0
M  V30 14762 C 1396.55 1.30409 3.35442 0
M  V30 14763 C 1396.16 2.80928 3.48975 0
M  V30 14764 C 1397.9 1.08633 4.10365 0
M  V30 14765 C 1395.81 3.28927 4.91488 0
M  V30 14766 H 1394.74 0.279525 0.700273 0
M  V30 14767 H 1397.39 1.2692 1.32528 0
M  V30 14768 H 1395.77 0.719812 3.89403 0
M  V30 14769 H 1396.95 3.45211 3.05231 0
M  V30 14770 H 1395.26 3.01245 2.87473 0
M  V30 14771 H 1397.86 1.41996 5.15501 0
M  V30 14772 H 1398.2 0.0240903 4.16293 0
M  V30 14773 H 1398.73 1.63581 3.6261 0
M  V30 14774 H 1395.47 4.34581 4.90734 0
M  V30 14775 H 1394.99 2.69386 5.35902 0
M  V30 14776 H 1396.67 3.23605 5.60258 0
M  V30 14777 N 1396.8 -1.33791 0.83293 0
M  V30 14778 C 1398.22 -1.80336 0.483294 0
M  V30 14779 C 1398.57 -1.68969 -0.997195 0
M  V30 14780 O 1397.69 -1.23549 -1.77664 0
M  V30 14781 C 1398.29 -3.27427 0.870475 0
M  V30 14782 C 1396.85 -3.72012 0.573064 0
M  V30 14783 C 1395.99 -2.55319 1.08201 0
M  V30 14784 H 1398.94 -1.21396 1.02218 0
M  V30 14785 H 1398.96 -3.80083 0.178173 0
M  V30 14786 H 1398.48 -3.35668 1.94804 0
M  V30 14787 H 1396.58 -3.69302 -0.494678 0
M  V30 14788 H 1396.69 -4.65725 1.12414 0
M  V30 14789 H 1395.05 -2.49681 0.503123 0
M  V30 14790 H 1395.84 -2.66326 2.16623 0
M  V30 14791 N 1398.28 -0.588812 -1.46187 0
M  V30 14792 C 1399.53 -0.0744093 -2.01563 0
M  V30 14793 C 1399.84 1.29578 -1.46523 0
M  V30 14794 O 1401.05 1.90186 -1.93756 0
M  V30 14795 C 1399.51 -0.082408 -3.59806 0
M  V30 14796 C 1399.11 -1.45129 -4.23842 0
M  V30 14797 C 1400.86 0.377732 -4.22816 0
M  V30 14798 C 1398.77 -1.41668 -5.74181 0
M  V30 14799 H 1397.7 -0.0240481 -0.753616 0
M  V30 14800 H 1400.35 -0.741364 -1.67857 0
M  V30 14801 H 1398.73 0.650832 -3.90615 0
M  V30 14802 H 1399.9 -2.20474 -4.04633 0
M  V30 14803 H 1398.22 -1.85196 -3.7295 0
M  V30 14804 H 1400.81 0.42251 -5.33028 0
M  V30 14805 H 1401.16 1.39655 -3.92176 0
M  V30 14806 H 1401.69 -0.301638 -3.96655 0
M  V30 14807 H 1398.43 -2.4125 -6.09491 0
M  V30 14808 H 1397.95 -0.705524 -5.95636 0
M  V30 14809 H 1399.63 -1.13221 -6.37016 0
M  V30 14810 N 1399.76 1.54172 -0.326923 0
M  V30 14811 C 1401.01 1.99809 0.275554 0
M  V30 14812 C 1401.32 1.21886 1.52981 0
M  V30 14813 O 1402.53 1.57917 2.20849 0
M  V30 14814 C 1400.98 3.55802 0.541543 0
M  V30 14815 C 1400.59 4.42563 -0.695853 0
M  V30 14816 C 1402.34 4.09898 1.10379 0
M  V30 14817 C 1400.24 5.90035 -0.401581 0
M  V30 14818 H 1399.17 0.746406 0.106742 0
M  V30 14819 H 1401.82 1.78155 -0.439669 0
M  V30 14820 H 1400.21 3.73457 1.31704 0
M  V30 14821 H 1401.38 4.36684 -1.47118 0
M  V30 14822 H 1399.7 3.99373 -1.17855 0
M  V30 14823 H 1402.29 5.17672 1.33863 0
M  V30 14824 H 1402.64 3.62089 2.0542 0
M  V30 14825 H 1403.17 3.9589 0.389395 0
M  V30 14826 H 1399.91 6.42046 -1.32126 0
M  V30 14827 H 1399.43 5.98858 0.335977 0
M  V30 14828 H 1401.11 6.46999 -0.0126539 0
M  V30 14829 N 1401.24 0.0551678 1.57503 0
M  V30 14830 C 1402.47 -0.6272 1.97164 0
M  V30 14831 C 1402.88 -1.64143 0.932876 0
M  V30 14832 O 1402.24 -1.82314 -0.0824465 0
M  V30 14833 C 1402.29 -1.31057 3.36907 0
M  V30 14834 O 1402.01 -0.336951 4.36802 0
M  V30 14835 C 1403.51 -2.08232 3.91349 0
M  V30 14836 H 1400.73 -0.171196 0.648793 0
M  V30 14837 H 1403.28 0.122651 2.04132 0
M  V30 14838 H 1401.43 -2.01162 3.31078 0
M  V30 14839 H 1401.84 -0.825204 5.17968 0
M  V30 14840 H 1403.32 -2.51463 4.91397 0
M  V30 14841 H 1403.8 -2.93212 3.26991 0
M  V30 14842 H 1404.4 -1.43029 4.00528 0
M  V30 14843 N 1402.72 -1.56081 -0.218252 0
M  V30 14844 C 1403.63 -1.95856 -1.29141 0
M  V30 14845 C 1404.64 -0.862857 -1.51099 0
M  V30 14846 O 1405.82 -1.1667 -1.64165 0
M  V30 14847 C 1402.88 -2.27005 -2.62049 0
M  V30 14848 C 1401.94 -3.50162 -2.48365 0
M  V30 14849 C 1401.18 -3.79815 -3.74935 0
M  V30 14850 O 1401.4 -3.11095 -4.78096 0
M  V30 14851 O 1400.33 -4.73299 -3.71849 0
M  V30 14852 H 1404.16 -2.8732 -0.983922 0
M  V30 14853 H 1401.75 -1.43334 -0.421385 0
M  V30 14854 H 1403.63 -2.4822 -3.40536 0
M  V30 14855 H 1402.3 -1.38715 -2.92472 0
M  V30 14856 H 1401.21 -3.34222 -1.68066 0
M  V30 14857 H 1402.54 -4.38845 -2.22881 0
M  V30 14858 N 1404.2 0.485086 -1.49949 0
M  V30 14859 C 1405.13 1.59312 -1.7071 0
M  V30 14860 C 1406.11 1.6076 -0.555896 0
M  V30 14861 O 1407.29 1.77249 -0.793504 0
M  V30 14862 C 1404.42 2.97718 -1.78834 0
M  V30 14863 C 1403.38 3.11136 -2.93902 0
M  V30 14864 C 1402.7 4.51051 -2.87154 0
M  V30 14865 C 1404 2.89665 -4.34617 0
M  V30 14866 H 1405.7 1.42192 -2.6348 0
M  V30 14867 H 1403.24 0.68262 -1.26792 0
M  V30 14868 H 1405.19 3.75148 -1.91943 0
M  V30 14869 H 1403.92 3.15963 -0.826744 0
M  V30 14870 H 1402.58 2.36135 -2.80421 0
M  V30 14871 H 1402.23 4.66195 -1.88869 0
M  V30 14872 H 1401.93 4.60967 -3.64394 0
M  V30 14873 H 1403.45 5.3052 -3.02293 0
M  V30 14874 H 1404.86 3.56853 -4.48697 0
M  V30 14875 H 1403.26 3.11039 -5.13201 0
M  V30 14876 H 1404.33 1.85642 -4.47956 0
M  V30 14877 N 1405.67 1.39291 0.737279 0
M  V30 14878 C 1406.64 1.37607 1.83294 0
M  V30 14879 C 1407.64 0.273594 1.58455 0
M  V30 14880 O 1408.83 0.531375 1.65898 0
M  V30 14881 C 1405.96 1.14642 3.21045 0
M  V30 14882 H 1407.15 2.35102 1.86191 0
M  V30 14883 H 1404.7 1.24822 0.940696 0
M  V30 14884 H 1405.44 0.178202 3.2381 0
M  V30 14885 H 1405.22 1.94479 3.40471 0
M  V30 14886 H 1406.71 1.162 4.01108 0
M  V30 14887 N 1407.15 -0.967221 1.24429 0
M  V30 14888 C 1408.1 -2.06187 1.03709 0
M  V30 14889 C 1409.07 -1.66025 -0.0497665 0
M  V30 14890 O 1410.25 -1.90511 0.104951 0
M  V30 14891 C 1407.39 -3.38952 0.648477 0
M  V30 14892 C 1406.51 -3.92306 1.80886 0
M  V30 14893 C 1405.64 -5.13342 1.36579 0
M  V30 14894 C 1404.68 -5.58893 2.49609 0
M  V30 14895 N 1403.82 -6.71148 2.06165 0
M  V30 14896 H 1408.66 -2.23244 1.97399 0
M  V30 14897 H 1406.19 -1.09415 0.983192 0
M  V30 14898 H 1408.15 -4.15237 0.40419 0
M  V30 14899 H 1406.78 -3.21819 -0.25142 0
M  V30 14900 H 1405.83 -3.12656 2.1668 0
M  V30 14901 H 1407.15 -4.22071 2.65815 0
M  V30 14902 H 1406.3 -5.97003 1.0804 0
M  V30 14903 H 1405.04 -4.85262 0.487051 0
M  V30 14904 H 1404.04 -4.73805 2.78906 0
M  V30 14905 H 1405.27 -5.88987 3.3804 0
M  V30 14906 H 1403.22 -6.44802 1.20691 0
M  V30 14907 H 1403.13 -7.00366 2.84647 0
M  V30 14908 H 1404.4 -7.5825 1.80769 0
M  V30 14909 N 1408.63 -1.05812 -1.16797 0
M  V30 14910 C 1410.04 -0.79707 -1.6883 0
M  V30 14911 C 1410.39 0.679967 -1.8404 0
M  V30 14912 O 1409.52 1.5279 -1.53245 0
M  V30 14913 C 1410.11 -1.44029 -3.06661 0
M  V30 14914 C 1408.67 -1.22714 -3.55835 0
M  V30 14915 C 1407.82 -1.51988 -2.31937 0
M  V30 14916 H 1410.77 -1.22224 -1.01227 0
M  V30 14917 H 1410.79 -0.852962 -3.70816 0
M  V30 14918 H 1410.3 -2.51529 -2.95559 0
M  V30 14919 H 1408.4 -0.171671 -3.72204 0
M  V30 14920 H 1408.52 -1.93646 -4.38221 0
M  V30 14921 H 1406.88 -0.940215 -2.36711 0
M  V30 14922 H 1407.66 -2.60635 -2.23438 0
M  V30 14923 N 1410.11 1.33347 -0.840014 0
M  V30 14924 C 1411.36 1.97354 -0.435412 0
M  V30 14925 C 1411.68 1.66866 1.009 0
M  V30 14926 O 1410.95 0.968186 1.70303 0
M  V30 14927 H 1409.53 0.730096 -0.158017 0
M  V30 14928 H 1412.19 1.6269 -1.07322 0
M  V30 14929 H 1411.28 3.0688 -0.56841 0
M  V30 14930 N 1411.59 0.596556 1.45873 0
M  V30 14931 C 1412.53 -0.128713 2.30441 0
M  V30 14932 C 1413.5 -0.870727 1.41448 0
M  V30 14933 O 1414.69 -0.858654 1.70387 0
M  V30 14934 C 1411.83 -1.1274 3.26165 0
M  V30 14935 C 1410.94 -0.387403 4.30259 0
M  V30 14936 C 1410.08 -1.37484 5.131 0
M  V30 14937 C 1409.11 -0.622025 6.08931 0
M  V30 14938 N 1408.25 -1.5582 6.84591 0
M  V30 14939 H 1413.09 0.598466 2.91929 0
M  V30 14940 H 1410.63 0.306936 1.43862 0
M  V30 14941 H 1412.59 -1.71943 3.8012 0
M  V30 14942 H 1411.22 -1.82213 2.66455 0
M  V30 14943 H 1410.27 0.319929 3.79052 0
M  V30 14944 H 1411.58 0.200477 4.98397 0
M  V30 14945 H 1410.73 -2.03926 5.71401 0
M  V30 14946 H 1409.47 -1.99665 4.44955 0
M  V30 14947 H 1408.48 0.0560936 5.49771 0
M  V30 14948 H 1409.7 -0.00541426 6.791 0
M  V30 14949 H 1407.65 -2.16786 6.19145 0
M  V30 14950 H 1407.57 -1.02347 7.4904 0
M  V30 14951 H 1408.83 -2.21254 7.4744 0
M  V30 14952 N 1413.06 -1.53996 0.335095 0
M  V30 14953 C 1413.99 -2.2768 -0.518087 0
M  V30 14954 C 1414.97 -1.28915 -1.10972 0
M  V30 14955 O 1416.16 -1.57745 -1.1327 0
M  V30 14956 C 1413.29 -3.04327 -1.67339 0
M  V30 14957 C 1412.24 -4.10525 -1.2105 0
M  V30 14958 C 1411.57 -4.75078 -2.45366 0
M  V30 14959 C 1412.87 -5.21337 -0.317055 0
M  V30 14960 H 1414.56 -2.99244 0.0965669 0
M  V30 14961 H 1412.11 -1.4392 0.0478842 0
M  V30 14962 H 1414.06 -3.54608 -2.27664 0
M  V30 14963 H 1412.79 -2.30399 -2.31481 0
M  V30 14964 H 1411.45 -3.61144 -0.630124 0
M  V30 14965 H 1411.09 -3.97754 -3.07897 0
M  V30 14966 H 1410.79 -5.46822 -2.1508 0
M  V30 14967 H 1412.32 -5.2814 -3.06432 0
M  V30 14968 H 1413.73 -5.67305 -0.826905 0
M  V30 14969 H 1412.13 -6.00006 -0.106458 0
M  V30 14970 H 1413.2 -4.80536 0.649068 0
M  V30 14971 N 1414.54 -0.0635198 -1.57472 0
M  V30 14972 C 1415.95 0.470372 -1.80678 0
M  V30 14973 C 1416.3 1.70158 -0.976771 0
M  V30 14974 O 1415.43 2.15502 -0.196893 0
M  V30 14975 C 1416.02 0.860129 -3.277 0
M  V30 14976 C 1414.58 1.33893 -3.51781 0
M  V30 14977 C 1413.73 0.320078 -2.75447 0
M  V30 14978 H 1416.68 -0.289295 -1.56041 0
M  V30 14979 H 1416.7 1.72216 -3.39296 0
M  V30 14980 H 1416.21 -0.0361525 -3.88083 0
M  V30 14981 H 1414.31 2.25399 -2.96692 0
M  V30 14982 H 1414.43 1.32257 -4.60483 0
M  V30 14983 H 1412.79 0.795601 -2.41955 0
M  V30 14984 H 1413.57 -0.568332 -3.38563 0
M  V30 14985 N 1416.02 1.56195 0.209972 0
M  V30 14986 C 1416.95 1.96378 1.26324 0
M  V30 14987 C 1417.93 0.833606 1.48273 0
M  V30 14988 O 1419.12 1.0968 1.60262 0
M  V30 14989 C 1416.25 2.29048 2.61064 0
M  V30 14990 C 1415.2 3.44665 2.53752 0
M  V30 14991 C 1414.53 3.6297 3.92628 0
M  V30 14992 C 1415.83 4.79297 2.07536 0
M  V30 14993 H 1417.52 2.8461 0.929379 0
M  V30 14994 H 1415.07 1.36931 0.445627 0
M  V30 14995 H 1417.02 2.55752 3.34916 0
M  V30 14996 H 1415.74 1.37682 2.96161 0
M  V30 14997 H 1414.4 3.18028 1.82356 0
M  V30 14998 H 1414.05 2.68961 4.25052 0
M  V30 14999 H 1413.75 4.40741 3.88614 0
M  V30 15000 H 1415.27 3.92035 4.68125 0
M  V30 15001 H 1416.69 5.05131 2.71138 0
M  V30 15002 H 1415.08 5.60433 2.14557 0
M  V30 15003 H 1416.15 4.73877 1.02802 0
M  V30 15004 N 1417.5 -0.477127 1.50204 0
M  V30 15005 C 1418.74 -1.23147 1.6113 0
M  V30 15006 C 1419.08 -1.91743 0.307909 0
M  V30 15007 O 1418.35 -1.81841 -0.690223 0
M  V30 15008 C 1418.63 -2.27985 2.78738 0
M  V30 15009 C 1418.49 -1.63733 4.18941 0
M  V30 15010 C 1419.81 -3.29349 2.9192 0
M  V30 15011 H 1416.93 -0.446358 0.586459 0
M  V30 15012 H 1419.57 -0.52612 1.8257 0
M  V30 15013 H 1417.72 -2.88143 2.60588 0
M  V30 15014 H 1419.39 -1.07218 4.48667 0
M  V30 15015 H 1417.63 -0.940634 4.23479 0
M  V30 15016 H 1418.3 -2.39888 4.9715 0
M  V30 15017 H 1420.78 -2.79208 3.08516 0
M  V30 15018 H 1419.66 -4.0004 3.75845 0
M  V30 15019 H 1419.92 -3.93111 2.02278 0
M  V30 15020 N 1418.98 -1.3968 -0.729882 0
M  V30 15021 C 1420.2 -1.40654 -1.52418 0
M  V30 15022 C 1420.63 -0.00428997 -1.881 0
M  V30 15023 O 1419.98 0.984023 -1.52272 0
M  V30 15024 C 1420.03 -2.29057 -2.78506 0
M  V30 15025 O 1419.14 -1.72397 -3.74637 0
M  V30 15026 H 1418.48 -0.478761 -0.460091 0
M  V30 15027 H 1421.01 -1.83738 -0.900087 0
M  V30 15028 H 1421.02 -2.43748 -3.27187 0
M  V30 15029 H 1419.69 -3.30961 -2.51868 0
M  V30 15030 H 1418.27 -1.66977 -3.33426 0
M  V30 15031 N 1420.45 0.960609 -1.2494 0
M  V30 15032 C 1421.7 1.70701 -1.09495 0
M  V30 15033 C 1422.03 1.90754 0.364214 0
M  V30 15034 O 1421.31 1.47417 1.26879 0
M  V30 15035 C 1421.59 3.09353 -1.84317 0
M  V30 15036 C 1421.44 2.96747 -3.38026 0
M  V30 15037 C 1422.76 4.09139 -1.62153 0
M  V30 15038 H 1419.88 0.61955 -0.399158 0
M  V30 15039 H 1422.52 1.11701 -1.53698 0
M  V30 15040 H 1420.67 3.59719 -1.46746 0
M  V30 15041 H 1422.35 2.53752 -3.85237 0
M  V30 15042 H 1420.59 2.32798 -3.66043 0
M  V30 15043 H 1421.26 3.95002 -3.85587 0
M  V30 15044 H 1423.74 3.67659 -1.94849 0
M  V30 15045 H 1422.61 5.04206 -2.16951 0
M  V30 15046 H 1422.87 4.38521 -0.561437 0
M  V30 15047 N 1421.93 1.0643 1.16234 0
M  V30 15048 C 1422.88 0.670457 2.22728 0
M  V30 15049 C 1423.87 -0.31428 1.66459 0
M  V30 15050 O 1425.08 -0.178996 1.79108 0
M  V30 15051 H 1421.46 0.198692 0.725276 0
M  V30 15052 H 1423.43 1.57846 2.53233 0
M  V30 15053 C 1422.18 0.074379 3.4762 0
M  V30 15054 H 1421.5 0.823227 3.91233 0
M  V30 15055 H 1422.94 -0.163652 4.23684 0
M  V30 15056 C 1421.4 -1.18242 3.15469 0
M  V30 15057 O 1421.93 -2.27018 3.314 0
M  V30 15058 N 1420.13 -1.08493 2.69588 0
M  V30 15059 H 1419.68 -0.199714 2.56825 0
M  V30 15060 H 1419.64 -1.92666 2.48449 0
M  V30 15061 N 1423.41 -1.329 0.847073 0
M  V30 15062 C 1424.34 -2.27903 0.243522 0
M  V30 15063 C 1425.36 -1.52101 -0.58043 0
M  V30 15064 O 1426.54 -1.73818 -0.406158 0
M  V30 15065 C 1423.64 -3.32107 -0.675118 0
M  V30 15066 C 1422.82 -4.37258 0.111305 0
M  V30 15067 C 1421.88 -5.21085 -0.731933 0
M  V30 15068 O 1420.9 -5.68951 -0.168176 0
M  V30 15069 N 1422.1 -5.43175 -2.04794 0
M  V30 15070 H 1424.87 -2.80335 1.05983 0
M  V30 15071 H 1422.43 -1.4568 0.706322 0
M  V30 15072 H 1424.42 -3.85093 -1.2444 0
M  V30 15073 H 1422.99 -2.79891 -1.39212 0
M  V30 15074 H 1422.21 -3.8466 0.861991 0
M  V30 15075 H 1423.5 -5.04608 0.651756 0
M  V30 15076 H 1422.9 -5.06002 -2.5294 0
M  V30 15077 H 1421.46 -5.99186 -2.56552 0
M  V30 15078 N 1424.89 -0.604284 -1.45555 0
M  V30 15079 C 1425.8 0.118409 -2.34301 0
M  V30 15080 C 1426.81 0.863807 -1.51044 0
M  V30 15081 O 1427.99 0.822138 -1.83856 0
M  V30 15082 C 1425.06 1.10538 -3.28606 0
M  V30 15083 C 1424.12 0.362301 -4.27768 0
M  V30 15084 C 1423.35 1.30226 -5.17568 0
M  V30 15085 O 1423.57 2.53991 -5.10729 0
M  V30 15086 O 1422.51 0.801116 -5.96545 0
M  V30 15087 H 1426.33 -0.610816 -2.97494 0
M  V30 15088 H 1423.92 -0.364562 -1.44884 0
M  V30 15089 H 1425.8 1.67392 -3.86727 0
M  V30 15090 H 1424.47 1.81569 -2.67982 0
M  V30 15091 H 1423.38 -0.248616 -3.73273 0
M  V30 15092 H 1424.71 -0.307454 -4.91239 0
M  V30 15093 N 1426.37 1.53816 -0.343257 0
M  V30 15094 C 1427.31 2.25011 0.513664 0
M  V30 15095 C 1428.28 1.24827 1.09578 0
M  V30 15096 O 1429.47 1.53558 1.13245 0
M  V30 15097 C 1426.61 3.02616 1.65885 0
M  V30 15098 C 1425.72 4.17653 1.10406 0
M  V30 15099 C 1424.86 4.82746 2.21653 0
M  V30 15100 C 1423.9 5.89853 1.63524 0
M  V30 15101 N 1423.03 6.48726 2.68512 0
M  V30 15102 H 1427.87 2.97832 -0.099997 0
M  V30 15103 H 1425.41 1.46973 -0.0611206 0
M  V30 15104 H 1427.37 3.45868 2.33304 0
M  V30 15105 H 1426 2.32092 2.2435 0
M  V30 15106 H 1425.05 3.79045 0.320819 0
M  V30 15107 H 1426.36 4.94691 0.638887 0
M  V30 15108 H 1425.52 5.29068 2.96938 0
M  V30 15109 H 1424.25 4.05131 2.71515 0
M  V30 15110 H 1423.26 5.42914 0.86745 0
M  V30 15111 H 1424.48 6.69375 1.14515 0
M  V30 15112 H 1422.43 5.73975 3.17629 0
M  V30 15113 H 1422.35 7.21236 2.26616 0
M  V30 15114 H 1423.62 6.99701 3.43567 0
M  V30 15115 N 1427.84 0.0718701 1.57436 0
M  V30 15116 C 1428.79 -0.913026 2.13931 0
M  V30 15117 C 1429.79 -1.3082 1.07622 0
M  V30 15118 O 1430.99 -1.28544 1.26002 0
M  V30 15119 H 1427.37 -0.31238 0.684049 0
M  V30 15120 H 1429.34 -0.411613 2.95547 0
M  V30 15121 C 1428.09 -2.17109 2.71586 0
M  V30 15122 H 1427.41 -1.87585 3.53061 0
M  V30 15123 H 1428.85 -2.84134 3.14712 0
M  V30 15124 C 1427.31 -2.92967 1.6635 0
M  V30 15125 O 1427.84 -3.8667 1.08854 0
M  V30 15126 N 1426.05 -2.56075 1.37383 0
M  V30 15127 H 1425.59 -1.79949 1.84326 0
M  V30 15128 H 1425.55 -3.07134 0.672039 0
M  V30 15129 N 1429.32 -1.56304 -0.201686 0
M  V30 15130 C 1430.55 -1.84692 -0.943583 0
M  V30 15131 C 1430.97 -0.654649 -1.7634 0
M  V30 15132 O 1430.33 0.396586 -1.76909 0
M  V30 15133 C 1430.38 -3.11251 -1.82085 0
M  V30 15134 O 1429.48 -2.9134 -2.91881 0
M  V30 15135 H 1428.82 -0.608351 -0.266092 0
M  V30 15136 H 1431.35 -2.0353 -0.208992 0
M  V30 15137 H 1431.36 -3.41874 -2.2268 0
M  V30 15138 H 1430.04 -3.97652 -1.21844 0
M  V30 15139 H 1428.62 -2.72 -2.55089 0
M  V30 15140 N 1430.8 0.469154 -1.50455 0
M  V30 15141 C 1432.05 1.21868 -1.61222 0
M  V30 15142 C 1432.37 1.9243 -0.315535 0
M  V30 15143 O 1431.64 1.84192 0.667083 0
M  V30 15144 H 1430.22 0.452828 -0.594101 0
M  V30 15145 H 1432.88 0.540993 -1.87241 0
M  V30 15146 H 1431.98 1.96554 -2.42431 0
M  V30 15147 N 1432.28 1.40065 0.722464 0
M  V30 15148 C 1433.51 1.41271 1.51163 0
M  V30 15149 C 1433.92 0.0105425 1.88797 0
M  V30 15150 O 1433.28 -0.963867 1.5497 0
M  V30 15151 C 1433.33 2.29713 2.79131 0
M  V30 15152 O 1433.05 3.6447 2.43091 0
M  V30 15153 C 1434.55 2.39437 3.73075 0
M  V30 15154 H 1431.77 0.482086 0.466727 0
M  V30 15155 H 1434.32 1.84033 0.891736 0
M  V30 15156 H 1432.47 1.9033 3.37421 0
M  V30 15157 H 1432.88 4.11371 3.25383 0
M  V30 15158 H 1434.36 3.05543 4.59726 0
M  V30 15159 H 1434.84 1.41731 4.15703 0
M  V30 15160 H 1435.44 2.79342 3.20699 0
M  V30 15161 N 1433.76 -0.95397 1.25448 0
M  V30 15162 C 1434.71 -2.03623 1.02575 0
M  V30 15163 C 1435.69 -1.60856 -0.0375824 0
M  V30 15164 O 1436.88 -1.76104 0.177833 0
M  V30 15165 C 1434.01 -3.37145 0.64714 0
M  V30 15166 C 1433.1 -3.86434 1.74726 0
M  V30 15167 N 1433.49 -4.08509 2.98251 0
M  V30 15168 C 1431.79 -4.15228 1.62793 0
M  V30 15169 C 1432.49 -4.49137 3.69663 0
M  V30 15170 N 1431.46 -4.55106 2.97287 0
M  V30 15171 H 1435.27 -2.18685 1.96352 0
M  V30 15172 H 1432.78 -1.13884 1.15777 0
M  V30 15173 H 1434.78 -4.14305 0.464462 0
M  V30 15174 H 1433.44 -3.23462 -0.283296 0
M  V30 15175 H 1434.45 -3.95564 3.3429 0
M  V30 15176 H 1431.13 -4.10403 0.766501 0
M  V30 15177 H 1432.52 -4.74515 4.75695 0
M  V30 15178 N 1435.24 -1.07045 -1.15668 0
M  V30 15179 C 1436.48 -0.786751 -1.85723 0
M  V30 15180 C 1436.8 0.689604 -1.83041 0
M  V30 15181 O 1438 1.08796 -2.48748 0
M  V30 15182 C 1436.46 -1.35729 -3.33325 0
M  V30 15183 C 1436.07 -2.86444 -3.44462 0
M  V30 15184 C 1437.81 -1.15148 -4.08584 0
M  V30 15185 C 1435.72 -3.36705 -4.86193 0
M  V30 15186 H 1434.65 -0.29063 -0.695737 0
M  V30 15187 H 1437.3 -1.29012 -1.30492 0
M  V30 15188 H 1435.68 -0.781671 -3.88209 0
M  V30 15189 H 1436.86 -3.50023 -2.997 0
M  V30 15190 H 1435.17 -3.0578 -2.82644 0
M  V30 15191 H 1437.77 -1.50179 -5.13177 0
M  V30 15192 H 1438.11 -0.0903159 -4.16202 0
M  V30 15193 H 1438.64 -1.6933 -3.59962 0
M  V30 15194 H 1435.38 -4.42333 -4.83758 0
M  V30 15195 H 1434.9 -2.77877 -5.31549 0
M  V30 15196 H 1436.58 -3.32478 -5.55038 0
M  V30 15197 N 1436.71 1.32449 -0.85411 0
M  V30 15198 C 1437.64 2.31383 -0.313697 0
M  V30 15199 C 1438.62 1.59656 0.586858 0
M  V30 15200 O 1439.81 1.87459 0.507216 0
M  V30 15201 C 1436.94 3.43693 0.499235 0
M  V30 15202 C 1435.89 4.26899 -0.306839 0
M  V30 15203 C 1435.22 5.30966 0.630795 0
M  V30 15204 C 1436.52 4.99318 -1.53229 0
M  V30 15205 H 1438.21 2.76832 -1.14037 0
M  V30 15206 H 1435.76 1.33091 -0.549805 0
M  V30 15207 H 1437.71 4.11944 0.887709 0
M  V30 15208 H 1436.44 2.96971 1.35926 0
M  V30 15209 H 1435.1 3.60294 -0.677061 0
M  V30 15210 H 1434.74 4.80498 1.48765 0
M  V30 15211 H 1434.44 5.87522 0.0954635 0
M  V30 15212 H 1435.97 6.0208 1.01646 0
M  V30 15213 H 1437.38 5.60253 -1.21614 0
M  V30 15214 H 1435.78 5.65596 -2.00552 0
M  V30 15215 H 1436.85 4.27213 -2.29383 0
M  V30 15216 N 1438.19 0.611994 1.45232 0
M  V30 15217 C 1439.12 -0.153214 2.27685 0
M  V30 15218 C 1440.1 -0.869474 1.37401 0
M  V30 15219 O 1441.29 -0.877453 1.66832 0
M  V30 15220 C 1438.41 -1.22224 3.15878 0
M  V30 15221 C 1437.46 -0.608624 4.22135 0
M  V30 15222 S 1438.29 0.586848 5.32275 0
M  V30 15223 C 1439.45 -0.482657 6.24036 0
M  V30 15224 H 1439.68 0.546316 2.92237 0
M  V30 15225 H 1437.21 0.399631 1.49139 0
M  V30 15226 H 1439.17 -1.83413 3.67246 0
M  V30 15227 H 1437.83 -1.89386 2.50583 0
M  V30 15228 H 1437.03 -1.41312 4.83784 0
M  V30 15229 H 1436.63 -0.0717689 3.73931 0
M  V30 15230 H 1438.92 -1.36053 6.63699 0
M  V30 15231 H 1439.86 0.0977803 7.08032 0
M  V30 15232 H 1440.27 -0.799965 5.58803 0
M  V30 15233 N 1439.67 -1.53632 0.351409 0
M  V30 15234 C 1440.92 -2.00222 -0.243731 0
M  V30 15235 C 1441.23 -1.24305 -1.51022 0
M  V30 15236 O 1442.44 -1.61411 -2.18309 0
M  V30 15237 C 1440.89 -3.56619 -0.48487 0
M  V30 15238 C 1440.5 -4.414 0.766173 0
M  V30 15239 C 1442.25 -4.11603 -1.03844 0
M  V30 15240 C 1440.15 -5.89321 0.4954 0
M  V30 15241 H 1439.08 -0.74801 -0.0948534 0
M  V30 15242 H 1441.73 -1.77433 0.467957 0
M  V30 15243 H 1440.12 -3.75505 -1.25746 0
M  V30 15244 H 1441.29 -4.34288 1.54047 0
M  V30 15245 H 1439.6 -3.97448 1.24194 0
M  V30 15246 H 1442.2 -5.19736 -1.25611 0
M  V30 15247 H 1442.54 -3.65311 -1.99634 0
M  V30 15248 H 1443.08 -3.96459 -0.326363 0
M  V30 15249 H 1439.82 -6.39863 1.42324 0
M  V30 15250 H 1439.34 -5.99317 -0.240662 0
M  V30 15251 H 1441.02 -6.46897 0.115584 0
M  V30 15252 N 1441.15 -0.0802183 -1.57396 0
M  V30 15253 C 1442.38 0.595754 -1.98137 0
M  V30 15254 C 1442.79 1.62638 -0.958871 0
M  V30 15255 O 1442.15 1.82422 0.0534316 0
M  V30 15256 C 1442.2 1.2568 -3.38949 0
M  V30 15257 O 1441.92 0.267417 -4.37283 0
M  V30 15258 C 1443.42 2.0198 -3.94612 0
M  V30 15259 H 1440.64 0.160853 -0.651435 0
M  V30 15260 H 1443.18 -0.155111 -2.03911 0
M  V30 15261 H 1441.34 1.9587 -3.34236 0
M  V30 15262 H 1441.75 0.742695 -5.19215 0
M  V30 15263 H 1443.23 2.43613 -4.95335 0
M  V30 15264 H 1443.7 2.87973 -3.31614 0
M  V30 15265 H 1444.31 1.36639 -4.02753 0
M  V30 15266 N 1442.63 1.56409 0.193394 0
M  V30 15267 C 1443.54 1.97886 1.26009 0
M  V30 15268 C 1444.55 0.886786 1.49707 0
M  V30 15269 O 1445.73 1.19267 1.62288 0
M  V30 15270 C 1442.79 2.31145 2.58404 0
M  V30 15271 C 1441.85 3.54069 2.42763 0
M  V30 15272 C 1441.09 3.85732 3.68845 0
M  V30 15273 O 1441.31 3.18662 4.73086 0
M  V30 15274 O 1440.24 4.79155 3.64272 0
M  V30 15275 H 1444.07 2.88849 0.938087 0
M  V30 15276 H 1441.65 1.43987 0.398528 0
M  V30 15277 H 1443.54 2.53606 3.36544 0
M  V30 15278 H 1442.21 1.4335 2.90228 0
M  V30 15279 H 1441.12 3.36854 1.62728 0
M  V30 15280 H 1442.45 4.42335 2.15871 0
M  V30 15281 N 1444.1 -0.461169 1.50702 0
M  V30 15282 C 1445.03 -1.56576 1.73223 0
M  V30 15283 C 1446.01 -1.59855 0.581401 0
M  V30 15284 O 1447.2 -1.75964 0.821602 0
M  V30 15285 C 1444.33 -2.94835 1.83548 0
M  V30 15286 C 1443.28 -3.06421 2.98815 0
M  V30 15287 C 1442.61 -4.46425 2.94293 0
M  V30 15288 C 1443.91 -2.82714 4.3917 0
M  V30 15289 H 1445.6 -1.37982 2.65709 0
M  V30 15290 H 1443.15 -0.662362 1.27862 0
M  V30 15291 H 1445.1 -3.72047 1.97887 0
M  V30 15292 H 1443.83 -3.14608 0.876906 0
M  V30 15293 H 1442.49 -2.31644 2.84142 0
M  V30 15294 H 1442.13 -4.63131 1.96262 0
M  V30 15295 H 1441.83 -4.55111 3.71682 0
M  V30 15296 H 1443.36 -5.25644 3.10695 0
M  V30 15297 H 1444.77 -3.4967 4.54317 0
M  V30 15298 H 1443.17 -3.02835 5.18084 0
M  V30 15299 H 1444.24 -1.78492 4.50853 0
M  V30 15300 N 1445.58 -1.40446 -0.715026 0
M  V30 15301 C 1446.83 -1.3896 -1.47709 0
M  V30 15302 C 1447.16 0.00798698 -1.94198 0
M  V30 15303 O 1446.44 0.976732 -1.68197 0
M  V30 15304 C 1446.72 -2.37955 -2.70277 0
M  V30 15305 C 1446.57 -3.8674 -2.29678 0
M  V30 15306 C 1447.89 -2.34478 -3.72435 0
M  V30 15307 H 1445.01 -0.50607 -0.535782 0
M  V30 15308 H 1447.65 -1.71585 -0.815999 0
M  V30 15309 H 1445.8 -2.10264 -3.26682 0
M  V30 15310 H 1447.47 -4.2526 -1.7875 0
M  V30 15311 H 1445.72 -4.02547 -1.61674 0
M  V30 15312 H 1446.39 -4.51524 -3.17538 0
M  V30 15313 H 1448.86 -2.59007 -3.2566 0
M  V30 15314 H 1447.74 -3.05791 -4.55832 0
M  V30 15315 H 1448 -1.35661 -4.20771 0
M  V30 15316 N 1447.06 0.947303 -1.25952 0
M  V30 15317 C 1448.01 2.06642 -1.06779 0
M  V30 15318 C 1449 1.694 0.00348362 0
M  V30 15319 O 1450.21 1.79351 -0.152715 0
M  V30 15320 H 1446.58 0.676499 -0.32841 0
M  V30 15321 H 1448.55 2.19968 -2.01635 0
M  V30 15322 C 1447.3 3.40353 -0.711015 0
M  V30 15323 H 1446.63 3.69483 -1.52718 0
M  V30 15324 H 1448.07 4.19493 -0.616606 0
M  V30 15325 C 1446.52 3.3181 0.58344 0
M  V30 15326 O 1447.05 3.67431 1.6235 0
M  V30 15327 N 1445.26 2.84919 0.571797 0
M  V30 15328 H 1444.81 2.56128 -0.274962 0
M  V30 15329 H 1444.77 2.79586 1.43803 0
M  V30 15330 N 1448.54 1.07657 1.15099 0
M  V30 15331 C 1449.82 0.714608 1.82079 0
M  V30 15332 C 1450.2 -0.802578 1.95248 0
M  V30 15333 O 1449.54 -1.71818 1.50634 0
M  V30 15334 C 1449.75 1.43264 3.1824 0
M  V30 15335 C 1451.1 1.58675 3.93837 0
M  V30 15336 O 1452.13 1.39367 3.27804 0
M  V30 15337 O 1450.98 1.9047 5.12234 0
M  V30 15338 H 1448.08 0.254645 0.786819 0
M  V30 15339 H 1450.62 1.17768 1.22183 0
M  V30 15340 H 1449.4 2.46655 3.03772 0
M  V30 15341 H 1449.02 0.960546 3.85823 0
M  V30 15342 N 1450.02 -1.31994 0.861122 0
M  V30 15343 C 1451.24 -2.01211 0.481865 0
M  V30 15344 C 1451.66 -1.64687 -0.923233 0
M  V30 15345 O 1451.02 -0.87151 -1.60346 0
M  V30 15346 C 1451.07 -3.56162 0.618919 0
M  V30 15347 O 1450.79 -3.91376 1.96868 0
M  V30 15348 C 1452.29 -4.42652 0.239514 0
M  V30 15349 H 1449.51 -0.643922 0.188693 0
M  V30 15350 H 1452.05 -1.68427 1.15985 0
M  V30 15351 H 1450.21 -3.87398 -0.0114042 0
M  V30 15352 H 1450.62 -4.86095 1.97008 0
M  V30 15353 H 1452.1 -5.50646 0.386394 0
M  V30 15354 H 1452.57 -4.31466 -0.820598 0
M  V30 15355 H 1453.18 -4.16818 0.845175 0
M  V30 15356 N 1451.49 -0.619688 -1.44906 0
M  V30 15357 C 1452.44 0.104373 -2.32366 0
M  V30 15358 C 1453.44 0.847423 -1.4668 0
M  V30 15359 O 1454.64 0.761618 -1.63093 0
M  V30 15360 H 1451.02 0.0525126 -0.750164 0
M  V30 15361 H 1452.99 -0.651525 -2.912 0
M  V30 15362 C 1451.74 1.08017 -3.30496 0
M  V30 15363 H 1451.06 0.517831 -3.96432 0
M  V30 15364 H 1452.5 1.5565 -3.94397 0
M  V30 15365 C 1450.96 2.15975 -2.58566 0
M  V30 15366 O 1451.49 3.23895 -2.37603 0
M  V30 15367 N 1449.7 1.91593 -2.18496 0
M  V30 15368 H 1449.24 1.03835 -2.35746 0
M  V30 15369 H 1449.2 2.64028 -1.70694 0
M  V30 15370 N 1452.97 1.53444 -0.359552 0
M  V30 15371 C 1454.22 2.01464 0.232366 0
M  V30 15372 C 1454.55 1.24656 1.48911 0
M  V30 15373 O 1453.83 0.338574 1.9153 0
M  V30 15374 C 1454.11 3.56172 0.530403 0
M  V30 15375 C 1453.96 4.43678 -0.739556 0
M  V30 15376 C 1455.28 4.19412 1.33347 0
M  V30 15377 H 1452.4 0.732314 0.0829802 0
M  V30 15378 H 1455.04 1.83752 -0.483253 0
M  V30 15379 H 1453.19 3.71396 1.14004 0
M  V30 15380 H 1454.86 4.40263 -1.37719 0
M  V30 15381 H 1453.11 4.11892 -1.36117 0
M  V30 15382 H 1453.78 5.49856 -0.486062 0
M  V30 15383 H 1456.25 4.07984 0.817816 0
M  V30 15384 H 1455.13 5.277 1.51075 0
M  V30 15385 H 1455.39 3.7508 2.34024 0
M  V30 15386 N 1454.45 0.0885642 1.57351 0
M  V30 15387 C 1455.38 -0.902617 2.10679 0
M  V30 15388 C 1456.4 -1.25037 1.04257 0
M  V30 15389 O 1457.58 -1.20462 1.31723 0
M  V30 15390 C 1454.68 -2.21362 2.56616 0
M  V30 15391 C 1453.86 -2.04219 3.86799 0
M  V30 15392 C 1452.92 -3.18774 4.18652 0
M  V30 15393 O 1451.94 -2.93024 4.87981 0
M  V30 15394 N 1453.14 -4.44357 3.73534 0
M  V30 15395 H 1455.91 -0.447199 2.96345 0
M  V30 15396 H 1453.47 -0.0967178 1.61611 0
M  V30 15397 H 1455.46 -2.96935 2.74976 0
M  V30 15398 H 1454.03 -2.58349 1.75996 0
M  V30 15399 H 1453.25 -1.13015 3.77652 0
M  V30 15400 H 1454.54 -1.90035 4.71979 0
M  V30 15401 H 1453.94 -4.68159 3.17558 0
M  V30 15402 H 1452.5 -5.169 3.97061 0
M  V30 15403 N 1455.93 -1.56509 -0.185096 0
M  V30 15404 C 1457.18 -1.81206 -0.903924 0
M  V30 15405 C 1457.5 -0.663423 -1.82836 0
M  V30 15406 O 1456.76 0.350211 -1.92541 0
M  V30 15407 C 1457.06 -3.11968 -1.74387 0
M  V30 15408 C 1456.72 -4.40353 -0.969552 0
M  V30 15409 C 1455.39 -4.75227 -0.755799 0
M  V30 15410 C 1457.74 -5.19461 -0.425443 0
M  V30 15411 C 1455.07 -5.86698 0.0133856 0
M  V30 15412 C 1457.42 -6.31736 0.330582 0
M  V30 15413 C 1456.08 -6.65187 0.555262 0
M  V30 15414 H 1455.35 -0.663078 -0.330769 0
M  V30 15415 H 1458 -1.90747 -0.169673 0
M  V30 15416 H 1456.3 -2.97708 -2.5471 0
M  V30 15417 H 1458 -3.28284 -2.30284 0
M  V30 15418 H 1454.59 -4.1299 -1.14618 0
M  V30 15419 H 1458.77 -4.92923 -0.577959 0
M  V30 15420 H 1454.03 -6.11081 0.197335 0
M  V30 15421 H 1458.2 -6.92246 0.759523 0
M  V30 15422 H 1455.83 -7.51403 1.15318 0
M  V30 15423 N 1457.41 0.45317 -1.50944 0
M  V30 15424 C 1458.34 1.55655 -1.74051 0
M  V30 15425 C 1459.32 1.59545 -0.58987 0
M  V30 15426 O 1460.5 1.75526 -0.830922 0
M  V30 15427 C 1457.63 2.93857 -1.85109 0
M  V30 15428 C 1456.59 3.04832 -3.00435 0
M  V30 15429 C 1455.91 4.44858 -2.96657 0
M  V30 15430 C 1457.21 2.80381 -4.40663 0
M  V30 15431 H 1458.91 1.36571 -2.66437 0
M  V30 15432 H 1456.45 0.655572 -1.28212 0
M  V30 15433 H 1458.41 3.70992 -1.99857 0
M  V30 15434 H 1457.13 3.14138 -0.893579 0
M  V30 15435 H 1455.79 2.30134 -2.85366 0
M  V30 15436 H 1455.44 4.62083 -1.98716 0
M  V30 15437 H 1455.14 4.53134 -3.7409 0
M  V30 15438 H 1456.66 5.23989 -3.13478 0
M  V30 15439 H 1458.07 3.47255 -4.56165 0
M  V30 15440 H 1456.47 3.00083 -5.19683 0
M  V30 15441 H 1457.54 1.76099 -4.51793 0
M  V30 15442 N 1458.88 1.40823 0.707568 0
M  V30 15443 C 1460.16 1.3003 1.46122 0
M  V30 15444 C 1460.54 -0.0776873 2.10957 0
M  V30 15445 O 1459.89 -1.09109 2.00767 0
M  V30 15446 C 1460.1 2.44498 2.49042 0
M  V30 15447 C 1461.45 2.85106 3.14642 0
M  V30 15448 O 1462.47 2.44149 2.59364 0
M  V30 15449 O 1461.33 3.55892 4.14733 0
M  V30 15450 H 1458.42 0.511082 0.650172 0
M  V30 15451 H 1460.97 1.52761 0.739062 0
M  V30 15452 H 1459.74 3.36502 1.99705 0
M  V30 15453 H 1459.37 2.23579 3.28783 0
M  V30 15454 N 1460.36 -0.94061 1.26453 0
M  V30 15455 C 1461.29 -2.04322 1.03852 0
M  V30 15456 C 1462.31 -1.628 -0.00122618 0
M  V30 15457 O 1463.5 -1.76894 0.238911 0
M  V30 15458 C 1460.6 -3.34394 0.550789 0
M  V30 15459 C 1459.77 -4.0468 1.6599 0
M  V30 15460 C 1458.83 -5.13025 1.17012 0
M  V30 15461 O 1457.85 -5.37699 1.8673 0
M  V30 15462 N 1459.06 -5.80497 0.0188478 0
M  V30 15463 H 1461.82 -2.24276 1.98797 0
M  V30 15464 H 1459.38 -1.11013 1.17846 0
M  V30 15465 H 1461.37 -4.04169 0.207305 0
M  V30 15466 H 1459.94 -3.11108 -0.30509 0
M  V30 15467 H 1459.16 -3.28813 2.17429 0
M  V30 15468 H 1460.45 -4.48392 2.40463 0
M  V30 15469 H 1459.85 -5.62888 -0.563368 0
M  V30 15470 H 1458.41 -6.51259 -0.265556 0
M  V30 15471 N 1461.84 -1.08266 -1.14527 0
M  V30 15472 C 1463.12 -0.724254 -1.81697 0
M  V30 15473 C 1463.5 0.792212 -1.95671 0
M  V30 15474 O 1462.85 1.71017 -1.51543 0
M  V30 15475 C 1463.06 -1.44949 -3.17475 0
M  V30 15476 C 1464.4 -1.60761 -3.9299 0
M  V30 15477 O 1465.43 -1.41103 -3.2706 0
M  V30 15478 O 1464.29 -1.93184 -5.11216 0
M  V30 15479 H 1461.38 -0.258814 -0.785458 0
M  V30 15480 H 1463.93 -1.18414 -1.21557 0
M  V30 15481 H 1462.7 -2.48262 -3.02459 0
M  V30 15482 H 1462.32 -0.980993 -3.85308 0
M  V30 15483 N 1463.32 1.31536 -0.86811 0
M  V30 15484 C 1464.6 1.9149 -0.398866 0
M  V30 15485 C 1464.98 1.79008 1.1189 0
M  V30 15486 O 1464.32 1.19659 1.94664 0
M  V30 15487 C 1464.53 3.37771 -0.878173 0
M  V30 15488 C 1465.88 4.14882 -0.903216 0
M  V30 15489 O 1466.91 3.46545 -0.823703 0
M  V30 15490 O 1465.77 5.36936 -1.01794 0
M  V30 15491 H 1462.86 0.818398 -0.118971 0
M  V30 15492 H 1465.41 1.40216 -0.955899 0
M  V30 15493 H 1464.18 3.40861 -1.9217 0
M  V30 15494 H 1463.8 3.96472 -0.299346 0
M  V30 15495 N 1464.8 0.627364 1.44575 0
M  V30 15496 C 1466.07 0.0614392 1.95503 0
M  V30 15497 C 1466.45 -1.41182 1.56942 0
M  V30 15498 O 1465.8 -2.12435 0.841634 0
M  V30 15499 C 1466.01 0.280349 3.47872 0
M  V30 15500 C 1467.36 0.171559 4.24253 0
M  V30 15501 O 1468.38 0.211515 3.55571 0
M  V30 15502 O 1467.24 0.0733152 5.46451 0
M  V30 15503 H 1464.34 -0.0244626 0.826638 0
M  V30 15504 H 1466.88 0.698805 1.54644 0
M  V30 15505 H 1465.66 1.30278 3.68976 0
M  V30 15506 H 1465.28 -0.391336 3.95669 0
M  V30 15507 N 1466.28 -1.53251 0.367684 0
M  V30 15508 C 1467.55 -1.93617 -0.277842 0
M  V30 15509 C 1467.93 -1.3014 -1.66213 0
M  V30 15510 O 1467.28 -0.461277 -2.23796 0
M  V30 15511 C 1467.49 -3.47475 -0.325937 0
M  V30 15512 C 1468.84 -4.2082 -0.565276 0
M  V30 15513 O 1469.86 -3.53866 -0.407057 0
M  V30 15514 O 1468.72 -5.39474 -0.873522 0
M  V30 15515 H 1465.82 -0.80993 -0.167158 0
M  V30 15516 H 1468.36 -1.64405 0.420621 0
M  V30 15517 H 1467.13 -3.85955 0.644542 0
M  V30 15518 H 1466.76 -3.82926 -1.07021 0
M  V30 15519 N 1467.75 -0.0969077 -1.57302 0
M  V30 15520 C 1469.03 0.608737 -1.85886 0
M  V30 15521 C 1469.41 1.86228 -0.994096 0
M  V30 15522 O 1468.76 2.28402 -0.0669975 0
M  V30 15523 C 1468.97 0.922385 -3.3659 0
M  V30 15524 C 1470.32 1.28505 -4.04687 0
M  V30 15525 O 1471.34 1.01334 -3.41482 0
M  V30 15526 O 1470.2 1.794 -5.16215 0
M  V30 15527 H 1467.29 0.304808 -0.768779 0
M  V30 15528 H 1469.84 -0.129742 -1.69203 0
M  V30 15529 H 1468.61 0.0331488 -3.91286 0
M  V30 15530 H 1468.23 1.71678 -3.58626 0
M  V30 15531 N 1469.23 1.56605 0.176793 0
M  V30 15532 C 1470.64 1.71418 0.739775 0
M  V30 15533 C 1470.99 0.706527 1.83037 0
M  V30 15534 O 1470.12 -0.133259 2.15989 0
M  V30 15535 C 1470.71 3.10799 1.34867 0
M  V30 15536 C 1469.27 3.27315 1.85854 0
M  V30 15537 C 1468.42 2.67371 0.73541 0
M  V30 15538 H 1471.37 1.58626 -0.0485305 0
M  V30 15539 H 1471.39 3.09146 2.21831 0
M  V30 15540 H 1470.9 3.84116 0.554688 0
M  V30 15541 H 1469 2.58947 2.67913 0
M  V30 15542 H 1469.12 4.35002 2.00774 0
M  V30 15543 H 1467.48 2.27035 1.15444 0
M  V30 15544 H 1468.26 3.43268 -0.0466351 0
M  V30 15545 N 1470.71 -0.445159 1.51182 0
M  V30 15546 C 1471.99 -1.20598 1.53998 0
M  V30 15547 C 1472.37 -2.08962 0.29967 0
M  V30 15548 O 1471.71 -2.17003 -0.715666 0
M  V30 15549 C 1471.92 -2.01461 2.84982 0
M  V30 15550 C 1473.27 -2.5877 3.36635 0
M  V30 15551 O 1474.3 -2.11679 2.86479 0
M  V30 15552 O 1473.16 -3.44637 4.24132 0
M  V30 15553 H 1470.25 -0.548635 0.618812 0
M  V30 15554 H 1472.8 -0.454865 1.6349 0
M  V30 15555 H 1471.57 -1.36511 3.66716 0
M  V30 15556 H 1471.19 -2.83654 2.78615 0
M  V30 15557 N 1472.19 -1.41197 -0.700089 0
M  V30 15558 C 1473.42 -1.43658 -1.48896 0
M  V30 15559 C 1473.83 -0.0405771 -1.88756 0
M  V30 15560 O 1473.19 0.93909 -1.56484 0
M  V30 15561 C 1473.24 -2.34125 -2.75441 0
M  V30 15562 O 1472.96 -3.68291 -2.37261 0
M  V30 15563 C 1474.46 -2.45342 -3.69218 0
M  V30 15564 H 1471.68 -0.48945 -0.458999 0
M  V30 15565 H 1474.22 -1.85429 -0.862345 0
M  V30 15566 H 1472.38 -1.95674 -3.34351 0
M  V30 15567 H 1472.79 -4.16495 -3.18798 0
M  V30 15568 H 1474.27 -3.12818 -4.54807 0
M  V30 15569 H 1474.74 -1.48327 -4.13395 0
M  V30 15570 H 1475.35 -2.84409 -3.16214 0
M  V30 15571 N 1473.67 0.933891 -1.2695 0
M  V30 15572 C 1474.58 2.06713 -1.10936 0
M  V30 15573 C 1475.59 1.73952 -0.0409734 0
M  V30 15574 O 1476.77 1.9989 -0.246199 0
M  V30 15575 C 1473.83 3.38453 -0.751696 0
M  V30 15576 C 1472.89 3.84951 -1.90029 0
M  V30 15577 C 1472.13 5.10404 -1.55959 0
M  V30 15578 O 1472.35 5.68504 -0.464646 0
M  V30 15579 O 1471.28 5.52123 -2.39675 0
M  V30 15580 H 1475.11 2.23133 -2.06023 0
M  V30 15581 H 1472.69 1.05202 -1.06079 0
M  V30 15582 H 1474.58 4.17591 -0.565285 0
M  V30 15583 H 1473.25 3.23255 0.169703 0
M  V30 15584 H 1472.16 3.06727 -2.14172 0
M  V30 15585 H 1473.49 4.04681 -2.80167 0
M  V30 15586 N 1475.14 1.08871 1.13951 0
M  V30 15587 C 1476.07 0.744715 2.21306 0
M  V30 15588 C 1477.05 -0.275019 1.67862 0
M  V30 15589 O 1478.24 -0.144339 1.93663 0
M  V30 15590 C 1475.37 0.158336 3.46939 0
M  V30 15591 C 1474.32 1.10695 4.13438 0
M  V30 15592 C 1473.65 0.382552 5.3333 0
M  V30 15593 C 1474.95 2.44704 4.61429 0
M  V30 15594 H 1476.64 1.6423 2.50337 0
M  V30 15595 H 1474.19 0.791088 1.20324 0
M  V30 15596 H 1476.14 -0.0943587 4.21294 0
M  V30 15597 H 1474.87 -0.774413 3.17286 0
M  V30 15598 H 1473.53 1.34482 3.41043 0
M  V30 15599 H 1473.17 -0.554153 4.99938 0
M  V30 15600 H 1472.87 1.01499 5.78767 0
M  V30 15601 H 1474.4 0.138023 6.10444 0
M  V30 15602 H 1475.81 2.25156 5.27236 0
M  V30 15603 H 1474.21 3.03684 5.17586 0
M  V30 15604 H 1475.28 3.05883 3.76249 0
M  V30 15605 N 1476.62 -1.31073 0.875073 0
M  V30 15606 C 1477.85 -2.00397 0.50245 0
M  V30 15607 C 1478.26 -1.65826 -0.910951 0
M  V30 15608 O 1477.6 -0.886276 -1.60906 0
M  V30 15609 C 1477.66 -3.54696 0.585744 0
M  V30 15610 C 1477.33 -4.12756 1.96167 0
M  V30 15611 C 1478.33 -4.29484 2.92984 0
M  V30 15612 C 1476.01 -4.48365 2.26437 0
M  V30 15613 C 1478 -4.81019 4.18209 0
M  V30 15614 C 1475.69 -4.99601 3.51912 0
M  V30 15615 C 1476.69 -5.1588 4.47613 0
M  V30 15616 O 1476.38 -5.66014 5.70862 0
M  V30 15617 H 1476.11 -0.647645 0.193733 0
M  V30 15618 H 1478.66 -1.6816 1.17947 0
M  V30 15619 H 1476.89 -3.86416 -0.148214 0
M  V30 15620 H 1478.58 -4.05271 0.225818 0
M  V30 15621 H 1479.35 -4.02286 2.70907 0
M  V30 15622 H 1475.23 -4.34968 1.52721 0
M  V30 15623 H 1478.77 -4.9364 4.92915 0
M  V30 15624 H 1474.67 -5.26234 3.73829 0
M  V30 15625 H 1475.44 -5.84374 5.73105 0
M  V30 15626 N 1478.1 -0.635022 -1.4424 0
M  V30 15627 C 1479.03 0.0543561 -2.33437 0
M  V30 15628 C 1480.01 0.830807 -1.48431 0
M  V30 15629 O 1481.2 0.795913 -1.77141 0
M  V30 15630 C 1478.33 1.03391 -3.31553 0
M  V30 15631 C 1477.28 0.368824 -4.26408 0
M  V30 15632 C 1476.61 1.45855 -5.14422 0
M  V30 15633 C 1477.91 -0.727381 -5.1721 0
M  V30 15634 H 1479.6 -0.690489 -2.91329 0
M  V30 15635 H 1477.15 -0.3335 -1.40085 0
M  V30 15636 H 1479.1 1.52495 -3.9284 0
M  V30 15637 H 1477.82 1.80969 -2.71878 0
M  V30 15638 H 1476.48 -0.101605 -3.66459 0
M  V30 15639 H 1476.13 2.22531 -4.51098 0
M  V30 15640 H 1475.83 1.0189 -5.78699 0
M  V30 15641 H 1477.35 1.95132 -5.78581 0
M  V30 15642 H 1478.77 -0.319272 -5.7241 0
M  V30 15643 H 1477.17 -1.09041 -5.9011 0
M  V30 15644 H 1478.24 -1.59292 -4.57989 0
M  V30 15645 N 1479.58 1.53054 -0.375806 0
M  V30 15646 C 1480.81 2.0582 0.211135 0
M  V30 15647 C 1481.22 1.24856 1.4162 0
M  V30 15648 O 1480.58 0.291786 1.80152 0
M  V30 15649 C 1480.63 3.56577 0.594573 0
M  V30 15650 O 1480.35 4.34472 -0.562607 0
M  V30 15651 C 1481.85 4.25639 1.23882 0
M  V30 15652 H 1479.07 0.670085 0.0350268 0
M  V30 15653 H 1481.62 1.9732 -0.537135 0
M  V30 15654 H 1479.77 3.65194 1.29275 0
M  V30 15655 H 1480.18 5.23902 -0.250487 0
M  V30 15656 H 1481.66 5.32408 1.45759 0
M  V30 15657 H 1482.14 3.80001 2.20218 0
M  V30 15658 H 1482.74 4.21302 0.581786 0
M  V30 15659 N 1481.06 0.105248 1.57248 0
M  V30 15660 C 1481.99 -0.880221 2.11624 0
M  V30 15661 C 1483 -1.23924 1.05578 0
M  V30 15662 O 1484.19 -1.19059 1.32994 0
M  V30 15663 C 1481.29 -2.18628 2.5895 0
M  V30 15664 C 1480.46 -2.00105 3.88943 0
M  V30 15665 C 1479.52 -3.14315 4.2201 0
M  V30 15666 O 1478.55 -2.87832 4.91061 0
M  V30 15667 N 1479.75 -4.4037 3.78226 0
M  V30 15668 H 1482.52 -0.415742 2.96802 0
M  V30 15669 H 1480.08 -0.0795714 1.61704 0
M  V30 15670 H 1482.07 -2.94002 2.7811 0
M  V30 15671 H 1480.64 -2.56467 1.78727 0
M  V30 15672 H 1479.86 -1.09003 3.7883 0
M  V30 15673 H 1481.15 -1.85018 4.73968 0
M  V30 15674 H 1480.54 -4.64765 3.22506 0
M  V30 15675 H 1479.1 -5.1266 4.02521 0
M  V30 15676 N 1482.53 -1.56697 -0.168486 0
M  V30 15677 C 1483.95 -1.71808 -0.730674 0
M  V30 15678 C 1484.3 -0.716224 -1.8266 0
M  V30 15679 O 1483.42 0.121803 -2.16057 0
M  V30 15680 C 1484.02 -3.1151 -1.33217 0
M  V30 15681 C 1482.58 -3.28297 -1.84115 0
M  V30 15682 C 1481.72 -2.67757 -0.72122 0
M  V30 15683 H 1484.67 -1.58598 0.0569421 0
M  V30 15684 H 1484.69 -3.10318 -2.20189 0
M  V30 15685 H 1484.21 -3.84404 -0.53431 0
M  V30 15686 H 1482.31 -2.60364 -2.66536 0
M  V30 15687 H 1482.42 -4.3606 -1.98464 0
M  V30 15688 H 1480.78 -2.27644 -1.14239 0
M  V30 15689 H 1481.57 -3.43239 0.0648388 0
M  V30 15690 N 1484.01 0.437135 -1.51416 0
M  V30 15691 C 1485.26 1.18655 -1.64095 0
M  V30 15692 C 1485.59 1.9119 -0.35728 0
M  V30 15693 O 1484.84 1.84283 0.658644 0
M  V30 15694 C 1485.14 2.22795 -2.79458 0
M  V30 15695 C 1484.81 1.67271 -4.18726 0
M  V30 15696 C 1483.47 1.51852 -4.56612 0
M  V30 15697 C 1485.82 1.26448 -5.05629 0
M  V30 15698 C 1483.15 0.940834 -5.79107 0
M  V30 15699 C 1485.5 0.701095 -6.28703 0
M  V30 15700 C 1484.17 0.533801 -6.65362 0
M  V30 15701 H 1483.44 0.434191 -0.600466 0
M  V30 15702 H 1486.08 0.477592 -1.85449 0
M  V30 15703 H 1484.39 2.99731 -2.52327 0
M  V30 15704 H 1486.08 2.80602 -2.86467 0
M  V30 15705 H 1482.67 1.80249 -3.88855 0
M  V30 15706 H 1486.86 1.37182 -4.76964 0
M  V30 15707 H 1482.11 0.798982 -6.06157 0
M  V30 15708 H 1486.29 0.37626 -6.95383 0
M  V30 15709 H 1483.92 0.0840431 -7.60154 0
M  V30 15710 N 1485.49 1.41566 0.692592 0
M  V30 15711 C 1486.45 1.43369 1.78824 0
M  V30 15712 C 1487.45 0.323867 1.57505 0
M  V30 15713 O 1488.64 0.583885 1.64123 0
M  V30 15714 C 1485.78 1.24798 3.17235 0
M  V30 15715 H 1486.97 2.40906 1.78617 0
M  V30 15716 H 1484.52 1.27752 0.900508 0
M  V30 15717 H 1485.26 0.281129 3.23079 0
M  V30 15718 H 1485.04 2.05212 3.34111 0
M  V30 15719 H 1486.53 1.28902 3.97208 0
M  V30 15720 N 1486.97 -0.927146 1.27443 0
M  V30 15721 C 1488.21 -1.68946 1.15051 0
M  V30 15722 C 1488.57 -1.89664 -0.298585 0
M  V30 15723 O 1489.77 -2.63218 -0.544943 0
M  V30 15724 C 1488.04 -3.01884 1.91313 0
M  V30 15725 S 1489.6 -3.93021 1.9514 0
M  V30 15726 H 1486.42 -0.580376 0.410713 0
M  V30 15727 H 1489.02 -1.10378 1.61359 0
M  V30 15728 H 1487.73 -2.84496 2.95787 0
M  V30 15729 H 1487.26 -3.65504 1.45501 0
M  V30 15730 H 1489.27 -4.85002 1.04822 0
M  V30 15731 N 1488.45 -1.09474 -1.13372 0
M  V30 15732 C 1489.69 -0.82945 -1.84295 0
M  V30 15733 C 1490.02 0.646788 -1.83961 0
M  V30 15734 O 1489.29 1.46929 -1.29572 0
M  V30 15735 H 1487.87 -0.303853 -0.682409 0
M  V30 15736 H 1490.53 -1.38298 -1.3733 0
M  V30 15737 H 1489.62 -1.18342 -2.88793 0
M  V30 15738 N 1489.92 1.30607 -0.882012 0
M  V30 15739 C 1491.15 2.00418 -0.513815 0
M  V30 15740 C 1491.57 1.66135 0.896916 0
M  V30 15741 O 1490.92 0.89691 1.5894 0
M  V30 15742 C 1490.98 3.55133 -0.675503 0
M  V30 15743 O 1490.7 3.88194 -2.03069 0
M  V30 15744 C 1492.2 4.42215 -0.309906 0
M  V30 15745 H 1489.42 0.640839 -0.198913 0
M  V30 15746 H 1491.96 1.66561 -1.1865 0
M  V30 15747 H 1490.12 3.87367 -0.0502289 0
M  V30 15748 H 1490.53 4.82899 -2.04717 0
M  V30 15749 H 1492 5.49962 -0.473948 0
M  V30 15750 H 1492.48 4.32717 0.751852 0
M  V30 15751 H 1493.09 4.1542 -0.91138 0
M  V30 15752 N 1491.4 0.642663 1.43901 0
M  V30 15753 C 1492.37 -0.0457858 2.29154 0
M  V30 15754 C 1493.37 -0.760988 1.41653 0
M  V30 15755 O 1494.56 -0.603832 1.634 0
M  V30 15756 C 1491.69 -1.07552 3.23489 0
M  V30 15757 H 1492.88 0.704193 2.91515 0
M  V30 15758 H 1490.43 0.403361 1.51006 0
M  V30 15759 H 1491.17 -1.85509 2.66002 0
M  V30 15760 H 1490.95 -0.566468 3.87987 0
M  V30 15761 H 1492.44 -1.55663 3.87503 0
M  V30 15762 N 1492.88 -1.52852 0.383918 0
M  V30 15763 C 1494.13 -2.0151 -0.199989 0
M  V30 15764 C 1494.46 -1.27058 -1.47263 0
M  V30 15765 O 1493.71 -0.357819 -1.92401 0
M  V30 15766 C 1494.01 -3.53602 -0.519674 0
M  V30 15767 C 1493.68 -4.46032 0.660789 0
M  V30 15768 C 1492.34 -4.71018 0.984646 0
M  V30 15769 C 1494.69 -5.00602 1.45077 0
M  V30 15770 C 1492.02 -5.47824 2.10013 0
M  V30 15771 C 1494.37 -5.78627 2.55682 0
M  V30 15772 C 1493.03 -6.01894 2.88582 0
M  V30 15773 H 1492.3 -0.737377 -0.0731812 0
M  V30 15774 H 1494.95 -1.843 0.520157 0
M  V30 15775 H 1493.26 -3.68856 -1.32108 0
M  V30 15776 H 1494.95 -3.88739 -0.984011 0
M  V30 15777 H 1491.54 -4.26745 0.398359 0
M  V30 15778 H 1495.73 -4.81228 1.21381 0
M  V30 15779 H 1490.98 -5.64066 2.3588 0
M  V30 15780 H 1495.16 -6.19914 3.173 0
M  V30 15781 H 1492.78 -6.61192 3.75138 0
M  V30 15782 N 1494.36 -0.113586 -1.5719 0
M  V30 15783 C 1495.32 0.824258 -2.13866 0
M  V30 15784 C 1496.32 1.19831 -1.07224 0
M  V30 15785 O 1497.51 1.12471 -1.33026 0
M  V30 15786 C 1494.64 2.11391 -2.67445 0
M  V30 15787 H 1495.84 0.331803 -2.98059 0
M  V30 15788 H 1493.39 0.135599 -1.55711 0
M  V30 15789 H 1494.13 2.65079 -1.86824 0
M  V30 15790 H 1493.91 1.85523 -3.45433 0
M  V30 15791 H 1495.4 2.78443 -3.11222 0
M  V30 15792 N 1495.84 1.56784 0.160173 0
M  V30 15793 C 1497.08 1.82891 0.876278 0
M  V30 15794 C 1497.42 0.693173 1.81408 0
M  V30 15795 O 1496.69 -0.304136 1.92107 0
M  V30 15796 C 1496.97 3.19439 1.66226 0
M  V30 15797 C 1496.83 4.43557 0.746831 0
M  V30 15798 C 1498.15 3.53053 2.62758 0
M  V30 15799 H 1495.27 0.665285 0.31712 0
M  V30 15800 H 1497.91 1.89469 0.142004 0
M  V30 15801 H 1496.06 3.13962 2.28823 0
M  V30 15802 H 1497.73 4.61109 0.132876 0
M  V30 15803 H 1495.97 4.33764 0.0555625 0
M  V30 15804 H 1496.64 5.35675 1.33253 0
M  V30 15805 H 1499.12 3.59054 2.10284 0
M  V30 15806 H 1498 4.4965 3.14811 0
M  V30 15807 H 1498.26 2.78329 3.4349 0
M  V30 15808 N 1497.32 -0.429099 1.51646 0
M  V30 15809 C 1498.54 -1.20465 1.68828 0
M  V30 15810 C 1498.97 -1.84044 0.388514 0
M  V30 15811 O 1498.32 -1.69165 -0.652152 0
M  V30 15812 C 1498.37 -2.25831 2.81128 0
M  V30 15813 O 1497.48 -3.31511 2.45305 0
M  V30 15814 H 1496.82 -0.352568 0.562665 0
M  V30 15815 H 1499.35 -0.505698 1.98252 0
M  V30 15816 H 1499.36 -2.70484 3.05455 0
M  V30 15817 H 1498.03 -1.78934 3.7544 0
M  V30 15818 H 1496.61 -2.92277 2.31579 0
M  V30 15819 N 1498.79 -1.41931 -0.685074 0
M  V30 15820 C 1500.04 -1.42062 -1.44728 0
M  V30 15821 C 1500.37 -0.0332072 -1.94172 0
M  V30 15822 O 1499.65 0.940835 -1.70231 0
M  V30 15823 C 1499.93 -2.43634 -2.65168 0
M  V30 15824 C 1499.78 -3.91525 -2.21423 0
M  V30 15825 C 1501.1 -2.42325 -3.67378 0
M  V30 15826 H 1498.22 -0.517321 -0.524927 0
M  V30 15827 H 1500.86 -1.73277 -0.779419 0
M  V30 15828 H 1499.01 -2.17146 -3.22149 0
M  V30 15829 H 1500.69 -4.28956 -1.69689 0
M  V30 15830 H 1498.93 -4.05886 -1.53099 0
M  V30 15831 H 1499.6 -4.58158 -3.07889 0
M  V30 15832 H 1502.08 -2.65857 -3.20093 0
M  V30 15833 H 1500.95 -3.15391 -4.49243 0
M  V30 15834 H 1501.21 -1.44555 -4.17799 0
M  V30 15835 N 1500.27 0.920374 -1.27933 0
M  V30 15836 C 1501.2 2.03882 -1.13817 0
M  V30 15837 C 1502.18 1.70058 -0.0376853 0
M  V30 15838 O 1503.37 1.93023 -0.213492 0
M  V30 15839 C 1500.5 3.38142 -0.792296 0
M  V30 15840 C 1499.45 3.86104 -1.84683 0
M  V30 15841 C 1498.78 5.17253 -1.35474 0
M  V30 15842 C 1500.08 4.0869 -3.25223 0
M  V30 15843 H 1501.77 2.15949 -2.07379 0
M  V30 15844 H 1499.32 1.03764 -0.998454 0
M  V30 15845 H 1501.27 4.15872 -0.680337 0
M  V30 15846 H 1499.99 3.26109 0.179029 0
M  V30 15847 H 1498.65 3.10573 -1.94782 0
M  V30 15848 H 1498.3 5.01618 -0.372666 0
M  V30 15849 H 1498 5.50314 -2.05982 0
M  V30 15850 H 1499.53 5.97545 -1.25587 0
M  V30 15851 H 1500.94 4.76965 -3.18083 0
M  V30 15852 H 1499.34 4.5307 -3.93507 0
M  V30 15853 H 1500.41 3.13729 -3.69733 0
M  V30 15854 N 1501.75 1.10074 1.1279 0
M  V30 15855 C 1503.03 0.753069 1.80522 0
M  V30 15856 C 1503.41 -0.760982 1.96907 0
M  V30 15857 O 1502.75 -1.68584 1.54245 0
M  V30 15858 C 1502.96 1.49982 3.15129 0
M  V30 15859 C 1504.31 1.66993 3.90382 0
M  V30 15860 O 1505.34 1.46289 3.24774 0
M  V30 15861 O 1504.2 2.01293 5.08078 0
M  V30 15862 H 1501.29 0.271277 0.781241 0
M  V30 15863 H 1503.84 1.20333 1.19658 0
M  V30 15864 H 1502.61 2.53043 2.98471 0
M  V30 15865 H 1502.23 1.04217 3.83699 0
M  V30 15866 N 1503.23 -1.30138 0.888926 0
M  V30 15867 C 1504.45 -2.00679 0.523697 0
M  V30 15868 C 1504.88 -1.66167 -0.881479 0
M  V30 15869 O 1504.24 -0.880418 -1.58488 0
M  V30 15870 C 1504.28 -3.53535 0.710284 0
M  V30 15871 O 1503.39 -4.11689 -0.242066 0
M  V30 15872 H 1502.73 -0.631273 0.205888 0
M  V30 15873 H 1505.26 -1.65891 1.19756 0
M  V30 15874 H 1505.27 -4.03402 0.610794 0
M  V30 15875 H 1503.94 -3.77992 1.73478 0
M  V30 15876 H 1502.52 -3.72777 -0.0959393 0
M  V30 15877 N 1504.71 -0.650285 -1.43559 0
M  V30 15878 C 1505.64 0.0295939 -2.33481 0
M  V30 15879 C 1506.62 0.815017 -1.49303 0
M  V30 15880 O 1507.8 0.77708 -1.77975 0
M  V30 15881 C 1504.93 0.998683 -3.32631 0
M  V30 15882 C 1503.89 0.323577 -4.26775 0
M  V30 15883 C 1503.21 1.40391 -5.1594 0
M  V30 15884 C 1504.51 -0.782197 -5.1641 0
M  V30 15885 H 1506.21 -0.721349 -2.9058 0
M  V30 15886 H 1503.75 -0.348339 -1.39723 0
M  V30 15887 H 1505.7 1.4832 -3.94435 0
M  V30 15888 H 1504.43 1.78075 -2.73782 0
M  V30 15889 H 1503.09 -0.140467 -3.66331 0
M  V30 15890 H 1502.74 2.17734 -4.53432 0
M  V30 15891 H 1502.44 0.957462 -5.79747 0
M  V30 15892 H 1503.96 1.88985 -5.80618 0
M  V30 15893 H 1505.37 -0.379966 -5.72039 0
M  V30 15894 H 1503.77 -1.15293 -5.88921 0
M  V30 15895 H 1504.84 -1.6414 -4.56274 0
M  V30 15896 N 1506.18 1.52647 -0.392018 0
M  V30 15897 C 1507.12 2.22965 0.486007 0
M  V30 15898 C 1508.09 1.23138 1.06188 0
M  V30 15899 O 1509.28 1.52133 1.113 0
M  V30 15900 C 1506.41 2.94498 1.67298 0
M  V30 15901 C 1505.45 4.08616 1.22211 0
M  V30 15902 S 1506.28 5.35121 0.201397 0
M  V30 15903 C 1507.44 6.10177 1.39409 0
M  V30 15904 H 1507.67 2.97092 -0.111111 0
M  V30 15905 H 1505.21 1.53391 -0.176221 0
M  V30 15906 H 1507.16 3.3632 2.3537 0
M  V30 15907 H 1505.83 2.20045 2.24141 0
M  V30 15908 H 1505.02 4.57778 2.10844 0
M  V30 15909 H 1504.62 3.68821 0.620272 0
M  V30 15910 H 1506.91 6.36514 2.3207 0
M  V30 15911 H 1507.86 7.01788 0.943337 0
M  V30 15912 H 1508.26 5.4099 1.61213 0
M  V30 15913 N 1507.66 0.121921 1.57128 0
M  V30 15914 C 1508.89 -0.546325 2.00075 0
M  V30 15915 C 1509.31 -1.59245 1.00113 0
M  V30 15916 O 1508.67 -1.8128 -0.0267687 0
M  V30 15917 C 1508.72 -1.14651 3.41888 0
M  V30 15918 O 1507.82 -2.26199 3.4483 0
M  V30 15919 H 1507.16 -0.136184 0.649885 0
M  V30 15920 H 1509.69 0.211257 2.03506 0
M  V30 15921 H 1509.7 -1.48133 3.80159 0
M  V30 15922 H 1508.38 -0.380273 4.14158 0
M  V30 15923 H 1506.96 -1.94134 3.18381 0
M  V30 15924 N 1509.14 -1.56867 -0.151857 0
M  V30 15925 C 1510.1 -1.96997 -1.17152 0
M  V30 15926 C 1511.1 -0.855905 -1.36128 0
M  V30 15927 O 1512.29 -1.12261 -1.33203 0
M  V30 15928 C 1509.43 -2.28171 -2.5328 0
M  V30 15929 H 1510.62 -2.88261 -0.827365 0
M  V30 15930 H 1508.17 -1.51226 -0.395024 0
M  V30 15931 H 1508.91 -1.39683 -2.92676 0
M  V30 15932 H 1508.69 -3.09394 -2.40869 0
M  V30 15933 H 1510.18 -2.60073 -3.26729 0
M  V30 15934 N 1510.62 0.421051 -1.51871 0
M  V30 15935 C 1511.85 1.1911 -1.69175 0
M  V30 15936 C 1512.26 1.84599 -0.39606 0
M  V30 15937 O 1511.62 1.71395 0.626907 0
M  V30 15938 C 1511.67 2.26309 -2.81898 0
M  V30 15939 O 1511.39 1.63496 -4.06449 0
M  V30 15940 C 1512.89 3.16285 -3.10611 0
M  V30 15941 H 1510.11 0.358385 -0.567275 0
M  V30 15942 H 1512.66 0.496919 -1.98371 0
M  V30 15943 H 1510.81 2.91416 -2.55255 0
M  V30 15944 H 1511.22 2.3447 -4.69174 0
M  V30 15945 H 1512.7 3.87601 -3.93026 0
M  V30 15946 H 1513.18 3.77976 -2.23676 0
M  V30 15947 H 1513.78 2.5686 -3.38973 0
M  V30 15948 N 1512.1 1.42293 0.677538 0
M  V30 15949 C 1513.33 1.45797 1.46379 0
M  V30 15950 C 1513.73 0.0669696 1.89081 0
M  V30 15951 O 1513.08 -0.928025 1.58535 0
M  V30 15952 C 1513.14 2.31982 2.74635 0
M  V30 15953 C 1512.8 3.79894 2.54026 0
M  V30 15954 C 1513.8 4.71615 2.18805 0
M  V30 15955 C 1511.49 4.24131 2.69106 0
M  V30 15956 C 1513.48 6.05563 1.98927 0
M  V30 15957 C 1511.17 5.5814 2.48844 0
M  V30 15958 C 1512.16 6.48672 2.13807 0
M  V30 15959 O 1511.85 7.80206 1.93737 0
M  V30 15960 H 1511.58 0.498113 0.457012 0
M  V30 15961 H 1514.14 1.87432 0.840151 0
M  V30 15962 H 1512.37 1.85191 3.39472 0
M  V30 15963 H 1514.06 2.26974 3.36508 0
M  V30 15964 H 1514.82 4.38723 2.06753 0
M  V30 15965 H 1510.7 3.53957 2.95357 0
M  V30 15966 H 1514.25 6.7619 1.71502 0
M  V30 15967 H 1510.14 5.90605 2.60491 0
M  V30 15968 H 1510.91 7.91536 2.08357 0
M  V30 15969 N 1513.57 -0.913576 1.28419 0
M  V30 15970 C 1514.82 -1.66273 1.15584 0
M  V30 15971 C 1515.15 -1.92242 -0.295541 0
M  V30 15972 O 1514.4 -1.52104 -1.23137 0
M  V30 15973 C 1514.7 -3.02722 1.89985 0
M  V30 15974 C 1514.37 -2.96413 3.3978 0
M  V30 15975 C 1513.03 -2.94399 3.80635 0
M  V30 15976 C 1515.38 -2.86648 4.35296 0
M  V30 15977 C 1512.71 -2.80422 5.15345 0
M  V30 15978 C 1515.06 -2.74211 5.7008 0
M  V30 15979 C 1513.73 -2.70556 6.1021 0
M  V30 15980 H 1513 -0.608435 0.422951 0
M  V30 15981 H 1515.64 -1.06438 1.59196 0
M  V30 15982 H 1513.95 -3.66344 1.38923 0
M  V30 15983 H 1515.65 -3.59591 1.7747 0
M  V30 15984 H 1512.24 -2.98775 3.07297 0
M  V30 15985 H 1516.42 -2.87291 4.04695 0
M  V30 15986 H 1511.68 -2.75987 5.45565 0
M  V30 15987 H 1515.85 -2.65624 6.43752 0
M  V30 15988 H 1513.48 -2.59483 7.14544 0
M  V30 15989 N 1515.05 -1.1067 -1.12204 0
M  V30 15990 C 1516 -0.752659 -2.20086 0
M  V30 15991 C 1516.99 0.252284 -1.67511 0
M  V30 15992 O 1518.2 0.112398 -1.79649 0
M  V30 15993 H 1514.58 -0.225473 -0.717402 0
M  V30 15994 H 1516.55 -1.67136 -2.472 0
M  V30 15995 C 1515.3 -0.203345 -3.47105 0
M  V30 15996 H 1514.62 -0.967864 -3.87908 0
M  V30 15997 H 1516.06 0.00629123 -4.24 0
M  V30 15998 C 1514.52 1.06452 -3.1964 0
M  V30 15999 O 1515.05 2.14562 -3.39597 0
M  V30 16000 N 1513.25 0.984122 -2.73429 0
M  V30 16001 H 1512.8 0.104258 -2.57389 0
M  V30 16002 H 1512.76 1.83312 -2.55429 0
M  V30 16003 N 1516.53 1.29665 -0.895815 0
M  V30 16004 C 1517.81 1.90601 -0.439394 0
M  V30 16005 C 1518.19 1.81341 1.08068 0
M  V30 16006 O 1517.54 1.23761 1.92082 0
M  V30 16007 C 1517.75 3.35832 -0.949622 0
M  V30 16008 C 1519.09 4.12873 -0.991015 0
M  V30 16009 O 1520.12 3.4472 -0.897025 0
M  V30 16010 O 1518.98 5.34656 -1.1316 0
M  V30 16011 H 1516.07 0.81569 -0.136304 0
M  V30 16012 H 1518.62 1.38157 -0.985426 0
M  V30 16013 H 1517.39 3.36708 -1.99357 0
M  V30 16014 H 1517.01 3.95747 -0.383376 0
M  V30 16015 N 1518.01 0.657889 1.43212 0
M  V30 16016 C 1518.96 -0.0427288 2.32561 0
M  V30 16017 C 1519.95 -0.808236 1.48875 0
M  V30 16018 O 1521.16 -0.718109 1.65055 0
M  V30 16019 H 1517.53 -0.0326049 0.751293 0
M  V30 16020 H 1519.5 0.728503 2.89371 0
M  V30 16021 C 1518.25 -0.99216 3.33244 0
M  V30 16022 H 1517.57 -0.412542 3.97666 0
M  V30 16023 H 1519.01 -1.45138 3.98385 0
M  V30 16024 C 1517.47 -2.09044 2.64201 0
M  V30 16025 O 1518 -3.17481 2.46107 0
M  V30 16026 N 1516.21 -1.85732 2.23499 0
M  V30 16027 H 1515.76 -0.975483 2.38416 0
M  V30 16028 H 1515.71 -2.5941 1.77634 0
M  V30 16029 N 1519.49 -1.52437 0.400108 0
M  V30 16030 C 1520.74 -2.00896 -0.179909 0
M  V30 16031 C 1521.05 -1.29046 -1.46991 0
M  V30 16032 O 1522.25 -1.68274 -2.13063 0
M  V30 16033 C 1520.71 -3.57981 -0.371169 0
M  V30 16034 C 1520.32 -4.38739 0.906213 0
M  V30 16035 C 1522.06 -4.14698 -0.906965 0
M  V30 16036 C 1519.97 -5.87447 0.682637 0
M  V30 16037 H 1518.9 -0.750649 -0.071008 0
M  V30 16038 H 1521.55 -1.75854 0.524169 0
M  V30 16039 H 1519.93 -3.79315 -1.13736 0
M  V30 16040 H 1521.11 -4.29167 1.67785 0
M  V30 16041 H 1519.42 -3.93296 1.36776 0
M  V30 16042 H 1522.02 -5.2347 -1.09012 0
M  V30 16043 H 1522.36 -3.71477 -1.87911 0
M  V30 16044 H 1522.89 -3.97297 -0.200068 0
M  V30 16045 H 1519.63 -6.35011 1.62608 0
M  V30 16046 H 1519.15 -5.99779 -0.0498716 0
M  V30 16047 H 1520.83 -6.46202 0.321331 0
M  V30 16048 N 1520.96 -0.130252 -1.57061 0
M  V30 16049 C 1521.89 0.812189 -2.18919 0
M  V30 16050 C 1522.88 1.2692 -1.13249 0
M  V30 16051 O 1524.06 1.32978 -1.41529 0
M  V30 16052 C 1521.19 2.05803 -2.79754 0
M  V30 16053 C 1520.14 1.73841 -3.91105 0
M  V30 16054 C 1519.47 3.05549 -4.38799 0
M  V30 16055 C 1520.77 0.997991 -5.12677 0
M  V30 16056 H 1522.46 0.296692 -2.97926 0
M  V30 16057 H 1520.01 0.141265 -1.43305 0
M  V30 16058 H 1521.96 2.72201 -3.21691 0
M  V30 16059 H 1520.69 2.59697 -1.98053 0
M  V30 16060 H 1519.35 1.09828 -3.49762 0
M  V30 16061 H 1518.99 3.57399 -3.53942 0
M  V30 16062 H 1518.69 2.84932 -5.13894 0
M  V30 16063 H 1520.22 3.73045 -4.83394 0
M  V30 16064 H 1521.63 1.56372 -5.51562 0
M  V30 16065 H 1520.03 0.892378 -5.93428 0
M  V30 16066 H 1521.1 -0.0132936 -4.84898 0
M  V30 16067 N 1522.44 1.56945 0.143535 0
M  V30 16068 C 1523.67 1.87701 0.870401 0
M  V30 16069 C 1524.09 0.718833 1.7458 0
M  V30 16070 O 1523.44 -0.311286 1.79826 0
M  V30 16071 C 1523.49 3.1773 1.72424 0
M  V30 16072 O 1523.22 4.29086 0.884115 0
M  V30 16073 C 1524.72 3.62024 2.55839 0
M  V30 16074 H 1521.94 0.622083 0.251504 0
M  V30 16075 H 1524.48 2.04052 0.135285 0
M  V30 16076 H 1522.64 3.03122 2.41238 0
M  V30 16077 H 1523.05 5.0346 1.47065 0
M  V30 16078 H 1524.52 4.55834 3.11319 0
M  V30 16079 H 1525 2.87481 3.32041 0
M  V30 16080 H 1525.61 3.79338 1.9231 0
M  V30 16081 N 1523.92 -0.412991 1.52093 0
M  V30 16082 C 1524.85 -1.50986 1.78117 0
M  V30 16083 C 1525.83 -1.57925 0.631963 0
M  V30 16084 O 1527.02 -1.73261 0.877168 0
M  V30 16085 C 1524.15 -2.88846 1.92835 0
M  V30 16086 C 1523.1 -2.96759 3.08412 0
M  V30 16087 C 1522.43 -4.36837 3.08347 0
M  V30 16088 C 1523.73 -2.68599 4.47942 0
M  V30 16089 H 1525.42 -1.29459 2.69964 0
M  V30 16090 H 1522.97 -0.621348 1.29905 0
M  V30 16091 H 1524.92 -3.65563 2.09623 0
M  V30 16092 H 1523.64 -3.11658 0.976553 0
M  V30 16093 H 1522.3 -2.22487 2.91368 0
M  V30 16094 H 1521.95 -4.56652 2.10897 0
M  V30 16095 H 1521.65 -4.43056 3.85973 0
M  V30 16096 H 1523.18 -5.15493 3.2726 0
M  V30 16097 H 1524.59 -3.35039 4.65212 0
M  V30 16098 H 1522.99 -2.86199 5.27456 0
M  V30 16099 H 1524.06 -1.64058 4.56304 0
M  V30 16100 N 1525.4 -1.4265 -0.669982 0
M  V30 16101 C 1526.65 -1.42667 -1.42579 0
M  V30 16102 C 1526.96 -0.0483217 -1.9554 0
M  V30 16103 O 1528.17 0.0740917 -2.71399 0
M  V30 16104 C 1526.62 -2.5098 -2.57948 0
M  V30 16105 C 1526.23 -3.94844 -2.11666 0
M  V30 16106 C 1527.98 -2.6017 -3.35428 0
M  V30 16107 C 1525.88 -4.94655 -3.24146 0
M  V30 16108 H 1524.81 -0.530651 -0.535654 0
M  V30 16109 H 1527.46 -1.68576 -0.724861 0
M  V30 16110 H 1525.85 -2.18244 -3.30432 0
M  V30 16111 H 1527.02 -4.36958 -1.46303 0
M  V30 16112 H 1525.33 -3.89547 -1.47111 0
M  V30 16113 H 1527.93 -3.31918 -4.19207 0
M  V30 16114 H 1528.27 -1.64683 -3.82342 0
M  V30 16115 H 1528.81 -2.92124 -2.70016 0
M  V30 16116 H 1525.55 -5.91636 -2.82218 0
M  V30 16117 H 1525.07 -4.57168 -3.88275 0
M  V30 16118 H 1526.75 -5.16593 -3.89538 0
M  V30 16119 N 1526.88 0.906753 -1.28902 0
M  V30 16120 C 1528.29 1.18635 -1.06761 0
M  V30 16121 C 1528.49 2.00643 0.185594 0
M  V30 16122 O 1527.55 2.3647 0.885324 0
M  V30 16123 C 1528.86 1.91414 -2.31907 0
M  V30 16124 C 1530.41 2.04269 -2.37156 0
M  V30 16125 C 1530.89 2.80458 -3.62088 0
M  V30 16126 N 1532.38 2.88016 -3.62769 0
M  V30 16127 C 1533.11 3.47485 -4.56116 0
M  V30 16128 N 1532.61 4.08178 -5.59788 0
M  V30 16129 N 1534.4 3.45092 -4.43698 0
M  V30 16130 H 1526.55 0.359413 -2.09337 0
M  V30 16131 H 1528.81 0.221688 -0.921715 0
M  V30 16132 H 1528.52 1.38587 -3.23244 0
M  V30 16133 H 1528.39 2.91929 -2.38867 0
M  V30 16134 H 1530.78 2.56275 -1.46312 0
M  V30 16135 H 1530.86 1.0291 -2.34186 0
M  V30 16136 H 1530.51 2.2913 -4.53279 0
M  V30 16137 H 1530.44 3.82147 -3.62314 0
M  V30 16138 H 1532.93 2.44902 -2.87805 0
M  V30 16139 H 1533.24 4.51557 -6.27149 0
M  V30 16140 H 1531.59 4.06661 -5.63606 0
M  V30 16141 H 1534.78 2.96891 -3.61903 0
M  V30 16142 H 1534.95 3.91145 -5.16633 0
M  V30 16143 N 1528.36 1.11264 1.11616 0
M  V30 16144 C 1529.58 0.882802 1.87121 0
M  V30 16145 C 1530 -0.567279 1.80076 0
M  V30 16146 O 1529.36 -1.39158 1.18074 0
M  V30 16147 C 1529.41 1.33355 3.36004 0
M  V30 16148 O 1529.13 2.72678 3.42897 0
M  V30 16149 C 1530.63 1.13886 4.28421 0
M  V30 16150 H 1527.85 0.316275 0.591786 0
M  V30 16151 H 1530.39 1.4795 1.41177 0
M  V30 16152 H 1528.55 0.780347 3.79459 0
M  V30 16153 H 1528.96 2.92168 4.35589 0
M  V30 16154 H 1530.44 1.50329 5.31136 0
M  V30 16155 H 1530.91 0.078259 4.3913 0
M  V30 16156 H 1531.52 1.67896 3.90757 0
M  V30 16157 N 1529.83 -1.29188 0.902679 0
M  V30 16158 C 1530.76 -2.3006 0.399357 0
M  V30 16159 C 1531.74 -1.61724 -0.527199 0
M  V30 16160 O 1532.93 -1.89213 -0.437293 0
M  V30 16161 C 1530.06 -3.45309 -0.371331 0
M  V30 16162 C 1529.01 -4.25466 0.465068 0
M  V30 16163 C 1528.34 -5.32941 -0.433295 0
M  V30 16164 C 1529.64 -4.93287 1.71655 0
M  V30 16165 H 1531.33 -2.72409 1.24233 0
M  V30 16166 H 1528.88 -1.30958 0.598822 0
M  V30 16167 H 1530.83 -4.14955 -0.734207 0
M  V30 16168 H 1529.56 -3.01811 -1.24811 0
M  V30 16169 H 1528.22 -3.57532 0.810315 0
M  V30 16170 H 1527.86 -4.85688 -1.3083 0
M  V30 16171 H 1527.56 -5.87472 0.122657 0
M  V30 16172 H 1529.09 -6.05438 -0.792298 0
M  V30 16173 H 1530.5 -5.55353 1.42323 0
M  V30 16174 H 1528.9 -5.57763 2.21405 0
M  V30 16175 H 1529.97 -4.18406 2.45081 0
M  V30 16176 N 1531.31 -0.665475 -1.42861 0
M  V30 16177 C 1532.56 -0.184156 -2.01962 0
M  V30 16178 C 1532.89 1.20301 -1.52451 0
M  V30 16179 O 1532.17 1.80573 -0.722756 0
M  V30 16180 C 1532.45 -0.208497 -3.59496 0
M  V30 16181 C 1532.3 -1.63045 -4.19209 0
M  V30 16182 C 1533.62 0.448421 -4.3781 0
M  V30 16183 H 1530.74 -0.0683924 -0.73382 0
M  V30 16184 H 1533.38 -0.84849 -1.70002 0
M  V30 16185 H 1531.53 0.357179 -3.86855 0
M  V30 16186 H 1533.2 -2.24766 -4.02837 0
M  V30 16187 H 1531.45 -2.17401 -3.75392 0
M  V30 16188 H 1532.12 -1.59924 -5.28326 0
M  V30 16189 H 1534.59 -0.0330053 -4.16087 0
M  V30 16190 H 1533.47 0.400713 -5.47435 0
M  V30 16191 H 1533.73 1.52454 -4.14982 0
M  V30 16192 N 1532.79 1.52222 -0.408187 0
M  V30 16193 C 1534.02 2.06221 0.16743 0
M  V30 16194 C 1534.43 1.27832 1.3894 0
M  V30 16195 O 1533.79 0.329933 1.79493 0
M  V30 16196 C 1533.84 3.57758 0.518804 0
M  V30 16197 O 1533.56 4.33181 -0.654639 0
M  V30 16198 C 1535.06 4.28171 1.14825 0
M  V30 16199 H 1532.28 0.670677 0.0208054 0
M  V30 16200 H 1534.83 1.96136 -0.578868 0
M  V30 16201 H 1532.98 3.67854 1.215 0
M  V30 16202 H 1533.4 5.23252 -0.361558 0
M  V30 16203 H 1534.87 5.3538 1.34433 0
M  V30 16204 H 1535.35 3.84586 2.12108 0
M  V30 16205 H 1535.95 4.22441 0.492291 0
M  V30 16206 N 1534.27 0.138579 1.5699 0
M  V30 16207 C 1535.52 -0.513611 1.95465 0
M  V30 16208 C 1535.84 -1.65952 1.02396 0
M  V30 16209 O 1535.11 -1.9572 0.0839001 0
M  V30 16210 H 1533.69 -0.192729 0.72171 0
M  V30 16211 H 1536.35 0.212107 1.93742 0
M  V30 16212 H 1535.44 -0.895313 2.98983 0
M  V30 16213 N 1535.75 -1.57019 -0.13521 0
M  V30 16214 C 1536.99 -1.83626 -0.844147 0
M  V30 16215 C 1537.31 -0.721298 -1.81169 0
M  V30 16216 O 1536.58 0.256095 -1.94219 0
M  V30 16217 H 1535.16 -0.677464 -0.314725 0
M  V30 16218 H 1537.83 -1.9449 -0.126399 0
M  V30 16219 H 1536.92 -2.78976 -1.39925 0
M  V30 16220 N 1537.22 0.404919 -1.52309 0
M  V30 16221 C 1538.19 1.47627 -1.75325 0
M  V30 16222 C 1539.19 1.48234 -0.623153 0
M  V30 16223 O 1540.38 1.49685 -0.891069 0
M  V30 16224 C 1537.51 2.87013 -1.83947 0
M  V30 16225 H 1538.7 1.2851 -2.70971 0
M  V30 16226 H 1536.26 0.635677 -1.42789 0
M  V30 16227 H 1536.99 3.11495 -0.902309 0
M  V30 16228 H 1536.78 2.87974 -2.66108 0
M  V30 16229 H 1538.27 3.64671 -2.03481 0
M  V30 16230 N 1538.7 1.43003 0.662408 0
M  V30 16231 C 1539.93 1.47555 1.45035 0
M  V30 16232 C 1540.35 0.0906083 1.88582 0
M  V30 16233 O 1539.7 -0.897271 1.58919 0
M  V30 16234 C 1539.75 2.41345 2.69137 0
M  V30 16235 O 1539.47 3.74453 2.27413 0
M  V30 16236 C 1540.98 2.55045 3.62584 0
M  V30 16237 H 1538.2 0.501448 0.44586 0
M  V30 16238 H 1540.74 1.8765 0.812879 0
M  V30 16239 H 1538.89 2.0447 3.29045 0
M  V30 16240 H 1539.31 4.24801 3.07643 0
M  V30 16241 H 1540.78 3.24766 4.46353 0
M  V30 16242 H 1541.26 1.59235 4.09318 0
M  V30 16243 H 1541.87 2.92693 3.08563 0
M  V30 16244 N 1540.18 -0.899904 1.29381 0
M  V30 16245 C 1541.59 -1.46563 1.15655 0
M  V30 16246 C 1541.94 -1.94622 -0.248375 0
M  V30 16247 O 1541.07 -1.83698 -1.14386 0
M  V30 16248 C 1541.66 -2.66384 2.09344 0
M  V30 16249 C 1540.22 -3.19093 1.99641 0
M  V30 16250 C 1539.37 -1.91786 2.00283 0
M  V30 16251 H 1542.32 -0.711264 1.41869 0
M  V30 16252 H 1542.34 -3.42111 1.66554 0
M  V30 16253 H 1541.85 -2.31376 3.11587 0
M  V30 16254 H 1539.95 -3.58795 1.00485 0
M  V30 16255 H 1540.07 -3.83405 2.87293 0
M  V30 16256 H 1538.43 -2.09482 1.44878 0
M  V30 16257 H 1539.21 -1.59055 3.04231 0
M  V30 16258 N 1541.66 -1.11854 -1.11024 0
M  V30 16259 C 1542.57 -0.79368 -2.20767 0
M  V30 16260 C 1543.58 0.214996 -1.72667 0
M  V30 16261 O 1544.76 0.0500976 -2.01338 0
M  V30 16262 C 1541.83 -0.246375 -3.45823 0
M  V30 16263 C 1540.89 -1.31421 -4.0869 0
M  V30 16264 C 1540.12 -0.792922 -5.27777 0
M  V30 16265 O 1540.34 0.375492 -5.69163 0
M  V30 16266 O 1539.28 -1.55971 -5.8134 0
M  V30 16267 H 1543.1 -1.71011 -2.50976 0
M  V30 16268 H 1540.69 -0.894752 -1.19643 0
M  V30 16269 H 1542.57 0.0542632 -4.21365 0
M  V30 16270 H 1541.24 0.642703 -3.17255 0
M  V30 16271 H 1540.15 -1.66792 -3.3486 0
M  V30 16272 H 1541.48 -2.17683 -4.41446 0
M  V30 16273 N 1543.14 1.28707 -0.909517 0
M  V30 16274 C 1544.07 2.29845 -0.411552 0
M  V30 16275 C 1545.05 1.62001 0.518615 0
M  V30 16276 O 1546.23 1.89442 0.427252 0
M  V30 16277 C 1543.36 3.45501 0.353013 0
M  V30 16278 C 1542.32 4.25213 -0.487625 0
M  V30 16279 C 1541.64 5.33164 0.405026 0
M  V30 16280 C 1542.94 4.9237 -1.74268 0
M  V30 16281 H 1544.64 2.71746 -1.25676 0
M  V30 16282 H 1542.18 1.30639 -0.605759 0
M  V30 16283 H 1544.14 4.15338 0.712191 0
M  V30 16284 H 1542.86 3.02469 1.23209 0
M  V30 16285 H 1541.52 3.57098 -0.829265 0
M  V30 16286 H 1541.17 4.86375 1.28252 0
M  V30 16287 H 1540.87 5.87399 -0.153811 0
M  V30 16288 H 1542.39 6.0585 0.760179 0
M  V30 16289 H 1543.8 5.5459 -1.45266 0
M  V30 16290 H 1542.2 5.56581 -2.2436 0
M  V30 16291 H 1543.27 4.171 -2.47297 0
M  V30 16292 N 1544.61 0.673042 1.42506 0
M  V30 16293 C 1545.52 -0.00648572 2.34599 0
M  V30 16294 C 1546.54 -0.790758 1.54994 0
M  V30 16295 O 1547.72 -0.733482 1.87569 0
M  V30 16296 C 1544.78 -0.94734 3.33506 0
M  V30 16297 C 1543.84 -0.157795 4.2901 0
M  V30 16298 C 1543.08 -1.05384 5.23192 0
M  V30 16299 O 1543.3 -2.29334 5.22266 0
M  V30 16300 O 1542.23 -0.515584 5.99688 0
M  V30 16301 H 1546.06 0.752059 2.94241 0
M  V30 16302 H 1543.64 0.433272 1.42979 0
M  V30 16303 H 1545.53 -1.4875 3.94273 0
M  V30 16304 H 1544.2 -1.68577 2.7634 0
M  V30 16305 H 1543.11 0.426426 3.71662 0
M  V30 16306 H 1544.44 0.54148 4.89212 0
M  V30 16307 N 1546.09 -1.52004 0.416254 0
M  V30 16308 C 1547.06 -2.2579 -0.393882 0
M  V30 16309 C 1548.06 -1.28427 -0.967637 0
M  V30 16310 O 1549.25 -1.52311 -0.845396 0
M  V30 16311 C 1546.38 -3.03361 -1.55515 0
M  V30 16312 H 1547.57 -2.98835 0.252492 0
M  V30 16313 H 1545.12 -1.55384 0.168929 0
M  V30 16314 H 1545.86 -2.34682 -2.23818 0
M  V30 16315 H 1545.64 -3.74852 -1.15015 0
M  V30 16316 H 1547.13 -3.5931 -2.12805 0
M  V30 16317 N 1547.57 -0.146903 -1.56914 0
M  V30 16318 C 1548.5 0.788924 -2.19769 0
M  V30 16319 C 1549.48 1.25712 -1.14589 0
M  V30 16320 O 1550.67 1.3147 -1.42931 0
M  V30 16321 C 1547.8 2.02824 -2.81921 0
M  V30 16322 C 1546.75 1.69683 -3.92927 0
M  V30 16323 C 1546.08 3.00877 -4.42015 0
M  V30 16324 C 1547.38 0.943559 -5.13706 0
M  V30 16325 H 1549.07 0.265076 -2.98224 0
M  V30 16326 H 1546.62 0.126057 -1.43447 0
M  V30 16327 H 1548.57 2.68773 -3.2456 0
M  V30 16328 H 1547.29 2.57581 -2.00797 0
M  V30 16329 H 1545.95 1.06112 -3.50907 0
M  V30 16330 H 1545.6 3.53625 -3.57713 0
M  V30 16331 H 1545.3 2.79466 -5.16888 0
M  V30 16332 H 1546.82 3.67897 -4.87323 0
M  V30 16333 H 1548.24 1.50513 -5.5319 0
M  V30 16334 H 1546.64 0.829387 -5.94341 0
M  V30 16335 H 1547.71 -0.0647228 -4.84857 0
M  V30 16336 N 1549.05 1.57088 0.126881 0
M  V30 16337 C 1550.3 1.83624 0.834582 0
M  V30 16338 C 1550.61 0.731331 1.81414 0
M  V30 16339 O 1551.82 0.88286 2.56745 0
M  V30 16340 C 1550.27 3.25529 1.5349 0
M  V30 16341 C 1549.88 4.44008 0.59673 0
M  V30 16342 C 1551.62 3.6132 2.22819 0
M  V30 16343 C 1549.53 5.76939 1.29982 0
M  V30 16344 H 1548.46 0.684858 0.315414 0
M  V30 16345 H 1551.11 1.83292 0.087305 0
M  V30 16346 H 1549.49 3.20306 2.32852 0
M  V30 16347 H 1550.67 4.60511 -0.163109 0
M  V30 16348 H 1548.98 4.16399 0.0108081 0
M  V30 16349 H 1551.58 4.57902 2.76098 0
M  V30 16350 H 1551.92 2.88363 3.00254 0
M  V30 16351 H 1552.46 3.68291 1.50354 0
M  V30 16352 H 1549.2 6.53044 0.566925 0
M  V30 16353 H 1548.72 5.64336 2.03187 0
M  V30 16354 H 1550.39 6.20427 1.8352 0
M  V30 16355 N 1550.53 -0.396836 1.52522 0
M  V30 16356 C 1551.49 -1.46695 1.76106 0
M  V30 16357 C 1552.49 -1.47902 0.631005 0
M  V30 16358 O 1553.68 -1.4921 0.898995 0
M  V30 16359 C 1550.81 -2.86033 1.85467 0
M  V30 16360 H 1552 -1.27071 2.71649 0
M  V30 16361 H 1549.56 -0.628096 1.43125 0
M  V30 16362 H 1550.29 -3.11012 0.918816 0
M  V30 16363 H 1550.08 -2.86559 2.67631 0
M  V30 16364 H 1551.57 -3.63587 2.05412 0
M  V30 16365 N 1552.01 -1.43353 -0.654814 0
M  V30 16366 C 1552.92 -1.50831 -1.79687 0
M  V30 16367 C 1553.93 -0.395518 -1.69445 0
M  V30 16368 O 1555.11 -0.649408 -1.90643 0
M  V30 16369 C 1552.17 -1.42735 -3.15955 0
M  V30 16370 C 1551.23 -2.64671 -3.38005 0
M  V30 16371 C 1550.47 -2.56952 -4.67773 0
M  V30 16372 O 1550.69 -1.61638 -5.47019 0
M  V30 16373 O 1549.62 -3.47425 -4.91507 0
M  V30 16374 H 1553.45 -2.47266 -1.76333 0
M  V30 16375 H 1551.03 -1.25336 -0.813095 0
M  V30 16376 H 1552.92 -1.40656 -3.97233 0
M  V30 16377 H 1551.59 -0.494334 -3.19903 0
M  V30 16378 H 1550.5 -2.72323 -2.56498 0
M  V30 16379 H 1551.83 -3.5694 -3.38903 0
M  V30 16380 N 1553.48 0.89303 -1.29857 0
M  V30 16381 C 1554.39 2.03079 -1.17457 0
M  V30 16382 C 1555.41 1.73733 -0.0962941 0
M  V30 16383 O 1556.59 1.99005 -0.309667 0
M  V30 16384 C 1553.65 3.3589 -0.858991 0
M  V30 16385 C 1552.71 3.78711 -2.0218 0
M  V30 16386 C 1551.94 5.05184 -1.72118 0
M  V30 16387 O 1552.17 5.66738 -0.645276 0
M  V30 16388 O 1551.1 5.44218 -2.57119 0
M  V30 16389 H 1554.93 2.16465 -2.13017 0
M  V30 16390 H 1552.51 1.01774 -1.09373 0
M  V30 16391 H 1554.39 4.15582 -0.697852 0
M  V30 16392 H 1553.07 3.23631 0.0667756 0
M  V30 16393 H 1551.98 2.99758 -2.23822 0
M  V30 16394 H 1553.31 3.95563 -2.929 0
M  V30 16395 N 1554.96 1.12442 1.10429 0
M  V30 16396 C 1555.91 0.787578 2.18861 0
M  V30 16397 C 1556.9 -0.225602 1.67891 0
M  V30 16398 O 1558.11 -0.0838029 1.79805 0
M  V30 16399 H 1554.48 0.236858 0.713724 0
M  V30 16400 H 1556.46 1.71048 2.4451 0
M  V30 16401 C 1555.2 0.25854 3.46737 0
M  V30 16402 H 1554.53 1.02945 3.86319 0
M  V30 16403 H 1555.97 0.0611642 4.23956 0
M  V30 16404 C 1554.43 -1.01353 3.21293 0
M  V30 16405 O 1554.96 -2.09132 3.42967 0
M  V30 16406 N 1553.16 -0.940498 2.7496 0
M  V30 16407 H 1552.71 -0.0632962 2.57522 0
M  V30 16408 H 1552.67 -1.79226 2.58313 0
M  V30 16409 N 1556.44 -1.28223 0.91633 0
M  V30 16410 C 1557.4 -2.25477 0.411423 0
M  V30 16411 C 1558.4 -1.53969 -0.463689 0
M  V30 16412 O 1559.59 -1.72151 -0.266379 0
M  V30 16413 C 1556.72 -3.38427 -0.409851 0
M  V30 16414 H 1557.92 -2.71656 1.27056 0
M  V30 16415 H 1555.47 -1.3995 0.695966 0
M  V30 16416 H 1556.21 -2.97614 -1.28828 0
M  V30 16417 H 1555.99 -3.91497 0.217435 0
M  V30 16418 H 1557.48 -4.10739 -0.753862 0
M  V30 16419 N 1557.92 -0.68059 -1.42147 0
M  V30 16420 C 1558.85 -0.0199376 -2.33491 0
M  V30 16421 C 1559.83 0.783164 -1.50999 0
M  V30 16422 O 1561.01 0.739154 -1.79583 0
M  V30 16423 C 1558.14 0.927902 -3.34675 0
M  V30 16424 C 1557.1 0.232979 -4.27365 0
M  V30 16425 C 1556.42 1.29415 -5.18802 0
M  V30 16426 C 1557.72 -0.891559 -5.14634 0
M  V30 16427 H 1559.42 -0.782823 -2.88985 0
M  V30 16428 H 1556.96 -0.377898 -1.38953 0
M  V30 16429 H 1558.92 1.3992 -3.97493 0
M  V30 16430 H 1557.64 1.72228 -2.77498 0
M  V30 16431 H 1556.3 -0.21814 -3.6595 0
M  V30 16432 H 1555.95 2.08067 -4.57949 0
M  V30 16433 H 1555.65 0.834274 -5.81647 0
M  V30 16434 H 1557.17 1.76627 -5.84496 0
M  V30 16435 H 1558.59 -0.501219 -5.71105 0
M  V30 16436 H 1556.98 -1.27759 -5.86343 0
M  V30 16437 H 1558.05 -1.73781 -4.5269 0
M  V30 16438 N 1559.4 1.51781 -0.424309 0
M  V30 16439 C 1560.81 1.59419 -0.0759329 0
M  V30 16440 C 1561.01 1.43616 1.41339 0
M  V30 16441 O 1560.07 1.27078 2.18191 0
M  V30 16442 C 1561.38 2.94966 -0.584411 0
M  V30 16443 C 1562.93 3.08241 -0.54371 0
M  V30 16444 C 1563.4 4.46292 -1.02895 0
M  V30 16445 N 1564.89 4.52575 -0.986392 0
M  V30 16446 C 1565.63 5.57694 -1.33286 0
M  V30 16447 N 1565.13 6.70293 -1.75154 0
M  V30 16448 N 1566.92 5.47983 -1.25186 0
M  V30 16449 H 1559.07 1.60299 -1.39349 0
M  V30 16450 H 1561.33 0.75492 -0.573411 0
M  V30 16451 H 1561.04 3.11859 -1.62593 0
M  V30 16452 H 1560.91 3.772 -0.00224435 0
M  V30 16453 H 1563.3 2.91024 0.488798 0
M  V30 16454 H 1563.38 2.27878 -1.16212 0
M  V30 16455 H 1563.02 4.64255 -2.05986 0
M  V30 16456 H 1562.95 5.25175 -0.387202 0
M  V30 16457 H 1565.45 3.71754 -0.678765 0
M  V30 16458 H 1565.76 7.46508 -1.99863 0
M  V30 16459 H 1564.1 6.71535 -1.79071 0
M  V30 16460 H 1567.29 4.58899 -0.923525 0
M  V30 16461 H 1567.47 6.29796 -1.52517 0
M  V30 16462 N 1560.87 0.155222 1.56834 0
M  V30 16463 C 1562.12 -0.49285 1.95998 0
M  V30 16464 C 1562.44 -1.64857 1.0415 0
M  V30 16465 O 1561.71 -1.9562 0.104654 0
M  V30 16466 H 1560.29 -0.185063 0.723713 0
M  V30 16467 H 1562.95 0.232644 1.93507 0
M  V30 16468 H 1562.05 -0.863552 2.99915 0
M  V30 16469 N 1562.35 -1.57153 -0.118549 0
M  V30 16470 C 1563.6 -1.84511 -0.824623 0
M  V30 16471 C 1563.92 -0.740473 -1.80394 0
M  V30 16472 O 1563.19 0.235481 -1.9448 0
M  V30 16473 H 1561.77 -0.680764 -0.307522 0
M  V30 16474 H 1564.43 -1.94613 -0.105764 0
M  V30 16475 H 1563.53 -2.80444 -1.36958 0
M  V30 16476 N 1563.83 0.388742 -1.5273 0
M  V30 16477 C 1565.06 1.15328 -1.71415 0
M  V30 16478 C 1565.47 1.84193 -0.432366 0
M  V30 16479 O 1564.81 1.73522 0.602977 0
M  V30 16480 C 1564.87 2.24436 -2.80836 0
M  V30 16481 C 1564.54 1.75535 -4.21944 0
M  V30 16482 C 1565.53 1.23196 -5.05093 0
M  V30 16483 C 1563.22 1.8175 -4.68265 0
M  V30 16484 C 1565.21 0.777194 -6.32644 0
M  V30 16485 C 1562.9 1.35885 -5.95801 0
M  V30 16486 C 1563.9 0.839573 -6.7782 0
M  V30 16487 O 1563.59 0.387619 -8.02965 0
M  V30 16488 H 1563.32 0.351742 -0.577281 0
M  V30 16489 H 1565.87 0.460735 -2.00166 0
M  V30 16490 H 1564.1 2.97115 -2.47506 0
M  V30 16491 H 1565.79 2.86106 -2.87921 0
M  V30 16492 H 1566.56 1.17751 -4.70489 0
M  V30 16493 H 1562.44 2.21111 -4.04513 0
M  V30 16494 H 1565.98 0.371199 -6.96612 0
M  V30 16495 H 1561.88 1.41016 -6.29909 0
M  V30 16496 H 1562.64 0.509073 -8.16915 0
M  V30 16497 N 1565.31 1.43698 0.647203 0
M  V30 16498 C 1566.53 1.49301 1.43958 0
M  V30 16499 C 1566.96 0.11395 1.87755 0
M  V30 16500 O 1566.32 -0.893571 1.5775 0
M  V30 16501 C 1566.36 2.44905 2.64677 0
M  V30 16502 O 1565.47 1.93947 3.63948 0
M  V30 16503 H 1564.81 0.504771 0.431396 0
M  V30 16504 H 1567.34 1.88673 0.791432 0
M  V30 16505 H 1567.35 2.62409 3.12419 0
M  V30 16506 H 1566.02 3.45083 2.32143 0
M  V30 16507 H 1564.6 1.86133 3.23124 0
M  V30 16508 N 1566.79 -0.886131 1.30328 0
M  V30 16509 C 1568.01 -1.67099 1.22007 0
M  V30 16510 C 1568.43 -1.87546 -0.217255 0
M  V30 16511 O 1567.79 -1.42213 -1.14375 0
M  V30 16512 C 1567.84 -3.048 1.94368 0
M  V30 16513 O 1567.56 -2.85277 3.32489 0
M  V30 16514 C 1569.06 -3.99231 1.9269 0
M  V30 16515 H 1566.28 -0.521467 0.422271 0
M  V30 16516 H 1568.82 -1.1072 1.71934 0
M  V30 16517 H 1566.98 -3.57915 1.48242 0
M  V30 16518 H 1567.39 -3.72626 3.69121 0
M  V30 16519 H 1568.87 -4.93223 2.47861 0
M  V30 16520 H 1569.34 -4.29763 0.905558 0
M  V30 16521 H 1569.95 -3.52051 2.38621 0
M  V30 16522 N 1568.26 -1.13026 -1.09832 0
M  V30 16523 C 1569.68 -0.902826 -1.6342 0
M  V30 16524 C 1570.03 0.561547 -1.87992 0
M  V30 16525 O 1569.15 1.42735 -1.62652 0
M  V30 16526 C 1569.75 -1.6324 -2.96881 0
M  V30 16527 C 1568.31 -1.45095 -3.4731 0
M  V30 16528 C 1567.45 -1.66431 -2.21802 0
M  V30 16529 H 1570.4 -1.28414 -0.932492 0
M  V30 16530 H 1570.42 -1.08706 -3.64641 0
M  V30 16531 H 1569.94 -2.69816 -2.78964 0
M  V30 16532 H 1568.04 -0.408031 -3.70359 0
M  V30 16533 H 1568.15 -2.21123 -4.25019 0
M  V30 16534 H 1566.51 -1.08885 -2.30252 0
M  V30 16535 H 1567.3 -2.74317 -2.0641 0
M  V30 16536 N 1569.74 1.27735 -0.923117 0
M  V30 16537 C 1570.67 2.26095 -0.375982 0
M  V30 16538 C 1571.69 1.55227 0.490763 0
M  V30 16539 O 1572.88 1.7589 0.304127 0
M  V30 16540 C 1569.98 3.35479 0.480342 0
M  V30 16541 C 1569.15 4.35866 -0.36605 0
M  V30 16542 C 1568.21 5.24466 0.42688 0
M  V30 16543 O 1567.23 5.68964 -0.163825 0
M  V30 16544 N 1568.44 5.54192 1.72777 0
M  V30 16545 H 1571.2 2.73679 -1.22147 0
M  V30 16546 H 1568.76 1.41314 -0.790056 0
M  V30 16547 H 1570.75 3.91693 1.01776 0
M  V30 16548 H 1569.32 2.87531 1.22657 0
M  V30 16549 H 1568.54 3.7898 -1.08479 0
M  V30 16550 H 1569.83 4.9995 -0.944849 0
M  V30 16551 H 1569.23 5.19888 2.23008 0
M  V30 16552 H 1567.79 6.13125 2.21181 0
M  V30 16553 N 1571.22 0.688118 1.41784 0
M  V30 16554 C 1572.45 0.22475 2.05676 0
M  V30 16555 C 1572.86 -1.1232 1.51755 0
M  V30 16556 O 1572.22 -1.70041 0.662735 0
M  V30 16557 C 1572.27 0.165661 3.6112 0
M  V30 16558 O 1571.99 1.46035 4.13044 0
M  V30 16559 C 1573.49 -0.319599 4.42146 0
M  V30 16560 H 1570.71 0.106135 0.662553 0
M  V30 16561 H 1573.26 0.938605 1.81688 0
M  V30 16562 H 1571.41 -0.498968 3.84173 0
M  V30 16563 H 1571.83 1.34252 5.07027 0
M  V30 16564 H 1573.3 -0.30983 5.5113 0
M  V30 16565 H 1573.78 -1.3572 4.17704 0
M  V30 16566 H 1574.38 0.313764 4.24141 0
M  V30 16567 N 1572.7 -1.51554 0.432352 0
M  V30 16568 C 1573.63 -2.30514 -0.372243 0
M  V30 16569 C 1574.61 -1.35712 -1.02549 0
M  V30 16570 O 1575.79 -1.6463 -1.03009 0
M  V30 16571 C 1572.92 -3.14353 -1.47646 0
M  V30 16572 C 1571.88 -4.17392 -0.946974 0
M  V30 16573 C 1571.2 -4.89721 -2.14656 0
M  V30 16574 C 1572.5 -5.22298 0.0151377 0
M  V30 16575 H 1574.2 -2.98024 0.28668 0
M  V30 16576 H 1571.74 -1.43325 0.139315 0
M  V30 16577 H 1573.7 -3.68369 -2.04651 0
M  V30 16578 H 1572.42 -2.44654 -2.1636 0
M  V30 16579 H 1571.08 -3.6442 -0.399174 0
M  V30 16580 H 1570.73 -4.1653 -2.81978 0
M  V30 16581 H 1570.43 -5.59393 -1.79869 0
M  V30 16582 H 1571.95 -5.46559 -2.72224 0
M  V30 16583 H 1573.37 -5.71416 -0.464447 0
M  V30 16584 H 1571.76 -5.99468 0.275339 0
M  V30 16585 H 1572.83 -4.75436 0.953357 0
M  V30 16586 N 1574.18 -0.163538 -1.56749 0
M  V30 16587 C 1575.14 0.755801 -2.1638 0
M  V30 16588 C 1576.14 1.16359 -1.10982 0
M  V30 16589 O 1577.33 1.08182 -1.36537 0
M  V30 16590 C 1574.46 2.02775 -2.74035 0
M  V30 16591 H 1575.65 0.23681 -2.98964 0
M  V30 16592 H 1573.21 0.0859925 -1.56063 0
M  V30 16593 H 1573.94 2.59002 -1.95163 0
M  V30 16594 H 1573.73 1.74439 -3.5116 0
M  V30 16595 H 1575.22 2.684 -3.19923 0
M  V30 16596 N 1575.65 1.57214 0.110213 0
M  V30 16597 C 1576.6 2.01971 1.1537 0
M  V30 16598 C 1577.6 0.918137 1.42361 0
M  V30 16599 O 1578.8 1.10334 1.4222 0
M  V30 16600 H 1575.18 0.64345 0.3892 0
M  V30 16601 H 1577.15 2.88827 0.749781 0
M  V30 16602 C 1575.9 2.4473 2.46987 0
M  V30 16603 H 1575.22 3.29066 2.27059 0
M  V30 16604 H 1576.66 2.79836 3.1854 0
M  V30 16605 C 1575.12 1.31445 3.10199 0
M  V30 16606 O 1575.65 0.635251 3.96645 0
M  V30 16607 N 1573.86 1.06927 2.70213 0
M  V30 16608 H 1573.4 1.62339 2.0001 0
M  V30 16609 H 1573.36 0.313273 3.12835 0
M  V30 16610 N 1577.13 -0.380637 1.52934 0
M  V30 16611 C 1578.55 -0.721287 1.42371 0
M  V30 16612 C 1578.75 -1.93826 0.55078 0
M  V30 16613 O 1577.8 -2.52485 0.02743 0
M  V30 16614 C 1579.12 -0.948564 2.85347 0
M  V30 16615 C 1580.67 -1.04952 2.9488 0
M  V30 16616 C 1581.14 -1.30937 4.38885 0
M  V30 16617 N 1582.63 -1.3774 4.42246 0
M  V30 16618 C 1583.37 -1.59527 5.50762 0
M  V30 16619 N 1582.86 -1.7873 6.69349 0
M  V30 16620 N 1584.66 -1.61774 5.38317 0
M  V30 16621 H 1576.81 0.420032 2.08205 0
M  V30 16622 H 1579.07 0.125776 0.939619 0
M  V30 16623 H 1578.78 -0.126348 3.51473 0
M  V30 16624 H 1578.65 -1.8609 3.28101 0
M  V30 16625 H 1581.04 -1.86229 2.28917 0
M  V30 16626 H 1581.12 -0.114899 2.55542 0
M  V30 16627 H 1580.76 -0.50166 5.05416 0
M  V30 16628 H 1580.69 -2.25696 4.75782 0
M  V30 16629 H 1583.18 -1.24575 3.56777 0
M  V30 16630 H 1583.5 -1.94885 7.47823 0
M  V30 16631 H 1581.84 -1.75938 6.72362 0
M  V30 16632 H 1585.03 -1.4633 4.44641 0
M  V30 16633 H 1585.2 -1.78414 6.22955 0
M  V30 16634 N 1578.61 -1.44039 -0.639573 0
M  V30 16635 C 1579.89 -1.36853 -1.39752 0
M  V30 16636 C 1580.27 -0.0230515 -2.11087 0
M  V30 16637 O 1579.62 0.994061 -2.05744 0
M  V30 16638 C 1579.83 -2.56101 -2.37093 0
M  V30 16639 C 1581.17 -2.99793 -3.00681 0
M  V30 16640 O 1582.2 -2.56246 -2.4742 0
M  V30 16641 O 1581.06 -3.75274 -3.97281 0
M  V30 16642 H 1578.15 -0.541521 -0.625047 0
M  V30 16643 H 1580.7 -1.56113 -0.665336 0
M  V30 16644 H 1579.47 -3.45647 -1.83422 0
M  V30 16645 H 1579.09 -2.39011 -3.17741 0
M  V30 16646 N 1580.09 0.879207 -1.30796 0
M  V30 16647 C 1581.5 1.16344 -1.09253 0
M  V30 16648 C 1581.7 2.00992 0.142993 0
M  V30 16649 O 1580.76 2.38295 0.834966 0
M  V30 16650 C 1582.07 1.86452 -2.35915 0
M  V30 16651 C 1583.62 1.99193 -2.41436 0
M  V30 16652 C 1584.1 2.72714 -3.67955 0
M  V30 16653 N 1585.59 2.80256 -3.68796 0
M  V30 16654 C 1586.32 3.37732 -4.63384 0
M  V30 16655 N 1585.82 3.96212 -5.6832 0
M  V30 16656 N 1587.61 3.35602 -4.50918 0
M  V30 16657 H 1579.76 0.314928 -2.10052 0
M  V30 16658 H 1582.03 0.202087 -0.92621 0
M  V30 16659 H 1581.73 1.31699 -3.26111 0
M  V30 16660 H 1581.61 2.86796 -2.45006 0
M  V30 16661 H 1583.99 2.53113 -1.51716 0
M  V30 16662 H 1584.07 0.97919 -2.36317 0
M  V30 16663 H 1583.72 2.19464 -4.58037 0
M  V30 16664 H 1583.65 3.74376 -3.70338 0
M  V30 16665 H 1586.14 2.38742 -2.92935 0
M  V30 16666 H 1586.45 4.38153 -6.36586 0
M  V30 16667 H 1584.8 3.94615 -5.72105 0
M  V30 16668 H 1587.99 2.89147 -3.68119 0
M  V30 16669 H 1588.16 3.80099 -5.24813 0
M  V30 16670 N 1581.57 1.13606 1.09231 0
M  V30 16671 C 1582.81 0.909321 1.83059 0
M  V30 16672 C 1583.17 -0.554485 1.83819 0
M  V30 16673 O 1584.37 -0.898864 2.53326 0
M  V30 16674 C 1582.64 1.4835 3.25157 0
M  V30 16675 S 1584.2 1.3971 4.15964 0
M  V30 16676 H 1581.02 0.327715 0.630971 0
M  V30 16677 H 1583.62 1.44796 1.31355 0
M  V30 16678 H 1582.33 2.54219 3.22181 0
M  V30 16679 H 1581.86 0.942887 3.81934 0
M  V30 16680 H 1583.87 0.37691 4.94766 0
M  V30 16681 N 1583.05 -1.27244 0.929878 0
M  V30 16682 C 1584.46 -1.4662 0.630451 0
M  V30 16683 C 1584.66 -1.84077 -0.819633 0
M  V30 16684 O 1583.72 -1.95555 -1.59733 0
M  V30 16685 C 1585.03 -2.55709 1.58219 0
M  V30 16686 C 1586.58 -2.69569 1.59065 0
M  V30 16687 C 1587.05 -3.81818 2.52941 0
M  V30 16688 N 1588.54 -3.89195 2.51161 0
M  V30 16689 C 1589.28 -4.75474 3.20488 0
M  V30 16690 N 1588.78 -5.66225 3.99201 0
M  V30 16691 N 1590.57 -4.69222 3.09495 0
M  V30 16692 H 1582.72 -1.01216 1.86733 0
M  V30 16693 H 1584.98 -0.505737 0.801832 0
M  V30 16694 H 1584.69 -2.34985 2.61677 0
M  V30 16695 H 1584.56 -3.53141 1.32556 0
M  V30 16696 H 1586.95 -2.89672 0.563375 0
M  V30 16697 H 1587.03 -1.72616 1.88778 0
M  V30 16698 H 1586.67 -3.62467 3.55781 0
M  V30 16699 H 1586.6 -4.78202 2.20524 0
M  V30 16700 H 1589.1 -3.24305 1.93997 0
M  V30 16701 H 1589.41 -6.28925 4.4908 0
M  V30 16702 H 1587.75 -5.66013 4.03304 0
M  V30 16703 H 1590.94 -3.97322 2.47493 0
M  V30 16704 H 1591.12 -5.36244 3.63794 0
M  V30 16705 N 1584.52 -0.695628 -1.41417 0
M  V30 16706 C 1585.77 -0.226954 -2.01526 0
M  V30 16707 C 1586.1 1.1704 -1.54968 0
M  V30 16708 O 1585.38 1.78999 -0.760895 0
M  V30 16709 C 1585.66 -0.284704 -3.58973 0
M  V30 16710 C 1585.51 -1.71901 -4.15656 0
M  V30 16711 C 1586.83 0.355454 -4.38662 0
M  V30 16712 H 1583.95 -0.0839425 -0.732204 0
M  V30 16713 H 1586.59 -0.884359 -1.68164 0
M  V30 16714 H 1584.74 0.275041 -3.87525 0
M  V30 16715 H 1586.42 -2.3326 -3.97979 0
M  V30 16716 H 1584.66 -2.25314 -3.70696 0
M  V30 16717 H 1585.33 -1.71095 -5.24815 0
M  V30 16718 H 1587.81 -0.121256 -4.15923 0
M  V30 16719 H 1586.68 0.284503 -5.48162 0
M  V30 16720 H 1586.94 1.43617 -4.18123 0
M  V30 16721 N 1586 1.51322 -0.440383 0
M  V30 16722 C 1586.96 2.26388 0.357911 0
M  V30 16723 C 1587.96 1.2995 0.947083 0
M  V30 16724 O 1589.15 1.53637 0.821057 0
M  V30 16725 C 1586.29 3.05797 1.50669 0
M  V30 16726 H 1587.48 2.98396 -0.300002 0
M  V30 16727 H 1585.03 1.55096 -0.193628 0
M  V30 16728 H 1585.77 2.38213 2.20057 0
M  V30 16729 H 1585.55 3.76634 1.09037 0
M  V30 16730 H 1587.04 3.6265 2.07062 0
M  V30 16731 N 1587.48 0.171848 1.5666 0
M  V30 16732 C 1588.41 -0.789671 2.15167 0
M  V30 16733 C 1589.42 -1.19335 1.10739 0
M  V30 16734 O 1590.61 -1.13311 1.37924 0
M  V30 16735 C 1587.71 -2.07448 2.6799 0
M  V30 16736 C 1586.89 -1.83429 3.9708 0
M  V30 16737 C 1585.95 -2.96134 4.34961 0
M  V30 16738 O 1584.97 -2.66746 5.02827 0
M  V30 16739 N 1586.17 -4.23932 3.96563 0
M  V30 16740 H 1588.94 -0.289484 2.98299 0
M  V30 16741 H 1586.5 -0.0109154 1.61896 0
M  V30 16742 H 1588.49 -2.81941 2.90329 0
M  V30 16743 H 1587.06 -2.48656 1.89444 0
M  V30 16744 H 1586.28 -0.928376 3.83112 0
M  V30 16745 H 1587.57 -1.64749 4.81389 0
M  V30 16746 H 1586.97 -4.50668 3.41928 0
M  V30 16747 H 1585.52 -4.95126 4.23903 0
M  V30 16748 N 1588.96 -1.5727 -0.101874 0
M  V30 16749 C 1589.89 -2.04614 -1.12496 0
M  V30 16750 C 1590.87 -0.933768 -1.42179 0
M  V30 16751 O 1592.05 -1.2046 -1.52325 0
M  V30 16752 C 1589.18 -2.46488 -2.44665 0
M  V30 16753 C 1588.14 -3.61327 -2.29406 0
M  V30 16754 C 1587.46 -3.89155 -3.66691 0
M  V30 16755 C 1588.76 -4.92455 -1.74026 0
M  V30 16756 H 1590.46 -2.90336 -0.731109 0
M  V30 16757 H 1588 -1.39676 -0.350239 0
M  V30 16758 H 1589.96 -2.78216 -3.16502 0
M  V30 16759 H 1588.68 -1.57757 -2.85972 0
M  V30 16760 H 1587.34 -3.29835 -1.60015 0
M  V30 16761 H 1586.99 -2.97603 -4.05514 0
M  V30 16762 H 1586.69 -4.66465 -3.57329 0
M  V30 16763 H 1588.21 -4.23352 -4.40006 0
M  V30 16764 H 1589.63 -5.22609 -2.35697 0
M  V30 16765 H 1588.02 -5.73882 -1.75441 0
M  V30 16766 H 1589.09 -4.79833 -0.699136 0
M  V30 16767 N 1590.44 0.372521 -1.53134 0
M  V30 16768 C 1591.4 1.43875 -1.78417 0
M  V30 16769 C 1592.4 1.46879 -0.654455 0
M  V30 16770 O 1593.59 1.47761 -0.922619 0
M  V30 16771 C 1590.72 2.83046 -1.89994 0
M  V30 16772 H 1591.91 1.22733 -2.73636 0
M  V30 16773 H 1589.47 0.605247 -1.44106 0
M  V30 16774 H 1590.2 3.09511 -0.968179 0
M  V30 16775 H 1589.99 2.82265 -2.72156 0
M  V30 16776 H 1591.48 3.60273 -2.11171 0
M  V30 16777 N 1591.91 1.44376 0.631925 0
M  V30 16778 C 1592.84 1.54005 1.75512 0
M  V30 16779 C 1593.82 0.393126 1.65495 0
M  V30 16780 O 1595.01 0.613143 1.84267 0
M  V30 16781 C 1592.14 1.48313 3.14039 0
M  V30 16782 C 1591.09 2.61474 3.38844 0
M  V30 16783 C 1590.42 2.40834 4.77392 0
M  V30 16784 C 1591.72 4.03627 3.31485 0
M  V30 16785 H 1593.41 2.48019 1.6771 0
M  V30 16786 H 1590.96 1.19368 0.80543 0
M  V30 16787 H 1592.91 1.5365 3.9239 0
M  V30 16788 H 1591.64 0.508152 3.22623 0
M  V30 16789 H 1590.3 2.55525 2.62874 0
M  V30 16790 H 1589.94 1.4153 4.82678 0
M  V30 16791 H 1589.64 3.16703 4.94947 0
M  V30 16792 H 1591.17 2.47988 5.57974 0
M  V30 16793 H 1592.58 4.1095 3.99741 0
M  V30 16794 H 1590.98 4.79694 3.60574 0
M  V30 16795 H 1592.05 4.27255 2.29307 0
M  V30 16796 N 1593.39 -0.872258 1.31261 0
M  V30 16797 C 1594.32 -1.99517 1.21306 0
M  V30 16798 C 1595.3 -1.69801 0.100775 0
M  V30 16799 O 1596.49 -1.92098 0.284984 0
M  V30 16800 C 1593.62 -3.34968 0.917249 0
M  V30 16801 C 1592.57 -3.78984 1.98885 0
M  V30 16802 C 1591.9 -5.11869 1.54578 0
M  V30 16803 C 1593.2 -3.96338 3.40167 0
M  V30 16804 H 1594.89 -2.08104 2.15251 0
M  V30 16805 H 1592.44 -0.999865 1.03628 0
M  V30 16806 H 1594.39 -4.1306 0.834217 0
M  V30 16807 H 1593.11 -3.26549 -0.0578721 0
M  V30 16808 H 1591.77 -3.0313 2.06174 0
M  V30 16809 H 1591.42 -4.99889 0.558581 0
M  V30 16810 H 1591.12 -5.4229 2.26265 0
M  V30 16811 H 1592.65 -5.92472 1.47678 0
M  V30 16812 H 1594.06 -4.64831 3.35566 0
M  V30 16813 H 1592.46 -4.38153 4.10051 0
M  V30 16814 H 1593.53 -2.9979 3.81122 0
M  V30 16815 N 1594.87 -1.14184 -1.08627 0
M  V30 16816 C 1596.15 -0.81955 -1.77603 0
M  V30 16817 C 1596.53 0.687377 -1.99595 0
M  V30 16818 O 1595.87 1.62744 -1.60396 0
M  V30 16819 C 1596.08 -1.61574 -3.09346 0
M  V30 16820 C 1597.43 -1.81367 -3.83916 0
M  V30 16821 O 1598.46 -1.58241 -3.19121 0
M  V30 16822 O 1597.32 -2.20011 -5.00257 0
M  V30 16823 H 1594.41 -0.300086 -0.770635 0
M  V30 16824 H 1596.96 -1.24691 -1.15109 0
M  V30 16825 H 1595.73 -2.63946 -2.88874 0
M  V30 16826 H 1595.35 -1.18386 -3.79566 0
M  V30 16827 N 1596.35 1.26749 -0.936613 0
M  V30 16828 C 1597.6 1.9358 -0.580605 0
M  V30 16829 C 1597.92 1.7389 0.882446 0
M  V30 16830 O 1597.19 1.09185 1.62652 0
M  V30 16831 H 1595.77 0.716363 -0.211739 0
M  V30 16832 H 1598.43 1.54281 -1.19095 0
M  V30 16833 H 1597.53 3.01819 -0.79448 0
M  V30 16834 N 1597.83 0.703118 1.41046 0
M  V30 16835 C 1599.24 0.311167 1.84089 0
M  V30 16836 C 1599.59 -1.15202 1.58818 0
M  V30 16837 O 1598.71 -1.88518 1.06254 0
M  V30 16838 C 1599.31 0.557986 3.34174 0
M  V30 16839 C 1597.87 0.219875 3.75757 0
M  V30 16840 C 1597.01 0.836543 2.64381 0
M  V30 16841 H 1599.97 0.903211 1.30491 0
M  V30 16842 H 1599.99 -0.180865 3.8007 0
M  V30 16843 H 1599.5 1.62298 3.52535 0
M  V30 16844 H 1597.6 -0.840559 3.62995 0
M  V30 16845 H 1597.71 0.680165 4.74247 0
M  V30 16846 H 1596.08 0.265547 2.53312 0
M  V30 16847 H 1596.86 1.90556 2.85558 0
M  V30 16848 N 1599.3 -1.51086 0.448402 0
M  V30 16849 C 1600.55 -2.02177 -0.114342 0
M  V30 16850 C 1600.88 -1.3319 -1.41742 0
M  V30 16851 O 1600.13 -0.439101 -1.9071 0
M  V30 16852 C 1600.43 -3.55488 -0.369232 0
M  V30 16853 C 1600.1 -4.42828 0.849372 0
M  V30 16854 C 1598.76 -4.66418 1.18354 0
M  V30 16855 C 1601.11 -4.93998 1.66179 0
M  V30 16856 C 1598.44 -5.38424 2.33059 0
M  V30 16857 C 1600.79 -5.67262 2.79994 0
M  V30 16858 C 1599.46 -5.89113 3.13851 0
M  V30 16859 H 1598.73 -0.739818 -0.0418407 0
M  V30 16860 H 1601.37 -1.81928 0.597857 0
M  V30 16861 H 1599.68 -3.74127 -1.16344 0
M  V30 16862 H 1601.38 -3.92563 -0.818248 0
M  V30 16863 H 1597.97 -4.24671 0.578998 0
M  V30 16864 H 1602.15 -4.75647 1.41683 0
M  V30 16865 H 1597.41 -5.53554 2.59592 0
M  V30 16866 H 1601.58 -6.05899 3.43307 0
M  V30 16867 H 1599.21 -6.44686 4.02844 0
M  V30 16868 N 1600.78 -0.180154 -1.56567 0
M  V30 16869 C 1601.75 0.732809 -2.17169 0
M  V30 16870 C 1602.75 1.15176 -1.1221 0
M  V30 16871 O 1603.94 1.06728 -1.37677 0
M  V30 16872 C 1601.07 1.99857 -2.7617 0
M  V30 16873 H 1602.26 0.205088 -2.99198 0
M  V30 16874 H 1599.81 0.0694351 -1.56146 0
M  V30 16875 H 1600.55 2.56917 -1.97899 0
M  V30 16876 H 1600.33 1.70705 -3.5299 0
M  V30 16877 H 1601.82 2.64992 -3.22752 0
M  V30 16878 N 1602.26 1.57322 0.0935319 0
M  V30 16879 C 1603.54 1.77187 0.828503 0
M  V30 16880 C 1603.92 0.762216 1.96859 0
M  V30 16881 O 1603.27 -0.208982 2.27542 0
M  V30 16882 C 1603.48 3.23007 1.32163 0
M  V30 16883 C 1604.82 3.86233 1.76379 0
M  V30 16884 O 1605.85 3.26766 1.41783 0
M  V30 16885 O 1604.71 4.90808 2.40354 0
M  V30 16886 H 1601.8 0.726401 0.395311 0
M  V30 16887 H 1604.35 1.69533 0.0752924 0
M  V30 16888 H 1603.12 3.88029 0.504863 0
M  V30 16889 H 1602.74 3.353 2.13681 0
M  V30 16890 N 1603.74 -0.364395 1.53329 0
M  V30 16891 C 1604.67 -1.45243 1.8283 0
M  V30 16892 C 1605.65 -1.55834 0.681886 0
M  V30 16893 O 1606.83 -1.70383 0.931845 0
M  V30 16894 C 1603.96 -2.82565 2.01926 0
M  V30 16895 C 1602.92 -2.86797 3.17697 0
M  V30 16896 C 1602.24 -4.26806 3.22089 0
M  V30 16897 C 1603.54 -2.54212 4.56261 0
M  V30 16898 H 1605.24 -1.20804 2.73946 0
M  V30 16899 H 1602.78 -0.579705 1.31816 0
M  V30 16900 H 1604.74 -3.58709 2.21147 0
M  V30 16901 H 1603.46 -3.08394 1.07521 0
M  V30 16902 H 1602.12 -2.13105 2.98298 0
M  V30 16903 H 1601.77 -4.49712 2.25318 0
M  V30 16904 H 1601.47 -4.30553 3.99873 0
M  V30 16905 H 1602.99 -5.04821 3.43495 0
M  V30 16906 H 1604.41 -3.20069 4.75635 0
M  V30 16907 H 1602.8 -2.69273 5.36295 0
M  V30 16908 H 1603.87 -1.49458 4.61292 0
M  V30 16909 N 1605.22 -1.44709 -0.62426 0
M  V30 16910 C 1606.46 -1.47561 -1.38094 0
M  V30 16911 C 1606.79 -0.112115 -1.94677 0
M  V30 16912 O 1606.06 0.856458 -1.76186 0
M  V30 16913 H 1604.64 -0.543368 -0.512601 0
M  V30 16914 H 1607.3 -1.8054 -0.734258 0
M  V30 16915 H 1606.39 -2.20496 -2.2088 0
M  V30 16916 N 1606.69 0.865285 -1.31722 0
M  V30 16917 C 1607.97 1.60146 -1.12306 0
M  V30 16918 C 1608.35 2.08653 0.320508 0
M  V30 16919 O 1607.7 1.86841 1.31539 0
M  V30 16920 C 1607.91 2.75583 -2.14138 0
M  V30 16921 C 1609.26 3.45429 -2.46909 0
M  V30 16922 O 1610.28 2.85795 -2.12602 0
M  V30 16923 O 1609.14 4.53017 -3.05676 0
M  V30 16924 H 1606.23 0.704786 -0.432673 0
M  V30 16925 H 1608.78 0.910339 -1.43216 0
M  V30 16926 H 1607.55 2.37187 -3.1122 0
M  V30 16927 H 1607.18 3.52378 -1.84161 0
M  V30 16928 N 1608.17 1.14759 1.0802 0
M  V30 16929 C 1609.42 0.916435 1.80127 0
M  V30 16930 C 1609.74 -0.558281 1.86837 0
M  V30 16931 O 1609.01 -1.40579 1.36434 0
M  V30 16932 H 1607.59 0.336066 0.667135 0
M  V30 16933 H 1610.25 1.44693 1.30576 0
M  V30 16934 H 1609.35 1.31986 2.82818 0
M  V30 16935 N 1609.65 -1.26251 0.943322 0
M  V30 16936 C 1610.9 -1.9327 0.590863 0
M  V30 16937 C 1611.22 -1.74356 -0.873212 0
M  V30 16938 O 1610.49 -1.10046 -1.6207 0
M  V30 16939 H 1609.07 -0.71523 0.215535 0
M  V30 16940 H 1611.73 -1.53647 1.19911 0
M  V30 16941 H 1610.83 -3.01393 0.810475 0
M  V30 16942 N 1611.13 -0.710588 -1.40671 0
M  V30 16943 C 1612.37 -0.252303 -2.02837 0
M  V30 16944 C 1612.73 1.13154 -1.55113 0
M  V30 16945 O 1613.93 1.68653 -2.09307 0
M  V30 16946 C 1612.21 -0.323902 -3.55929 0
M  V30 16947 S 1613.76 0.0581316 -4.38761 0
M  V30 16948 H 1610.58 -0.100448 -0.703869 0
M  V30 16949 H 1613.18 -0.931699 -1.71871 0
M  V30 16950 H 1611.89 -1.33279 -3.88156 0
M  V30 16951 H 1611.42 0.37414 -3.91617 0
M  V30 16952 H 1613.43 1.28162 -4.79363 0
M  V30 16953 N 1612.61 1.50847 -0.456408 0
M  V30 16954 C 1613.84 2.0635 0.10159 0
M  V30 16955 C 1614.25 1.32198 1.35353 0
M  V30 16956 O 1613.59 0.380433 1.79718 0
M  V30 16957 C 1613.65 3.56411 0.470283 0
M  V30 16958 C 1613.31 4.51949 -0.677546 0
M  V30 16959 C 1614.31 4.96091 -1.55531 0
M  V30 16960 C 1612 4.94819 -0.863701 0
M  V30 16961 C 1613.99 5.81793 -2.60377 0
M  V30 16962 C 1611.68 5.80306 -1.9154 0
M  V30 16963 C 1612.68 6.23693 -2.78381 0
M  V30 16964 O 1612.36 7.0748 -3.81742 0
M  V30 16965 H 1612.1 0.675994 0.00283373 0
M  V30 16966 H 1614.65 1.95178 -0.639893 0
M  V30 16967 H 1612.88 3.65433 1.26475 0
M  V30 16968 H 1614.57 3.94344 0.961649 0
M  V30 16969 H 1615.33 4.63651 -1.42311 0
M  V30 16970 H 1611.21 4.60578 -0.197285 0
M  V30 16971 H 1614.76 6.15578 -3.2819 0
M  V30 16972 H 1610.65 6.12159 -2.04773 0
M  V30 16973 H 1611.42 7.257 -3.78553 0
M  V30 16974 N 1614.09 0.188454 1.56469 0
M  V30 16975 C 1615.33 -0.451165 1.97 0
M  V30 16976 C 1615.65 -1.6261 1.07624 0
M  V30 16977 O 1614.92 -1.95354 0.146125 0
M  V30 16978 H 1613.5 -0.16967 0.727476 0
M  V30 16979 H 1616.17 0.273638 1.9297 0
M  V30 16980 H 1615.26 -0.799741 3.0168 0
M  V30 16981 N 1615.56 -1.5737 -0.0851874 0
M  V30 16982 C 1616.84 -1.77624 -0.819094 0
M  V30 16983 C 1617.22 -0.772645 -1.96452 0
M  V30 16984 O 1616.57 0.196912 -2.2765 0
M  V30 16985 C 1616.78 -3.23704 -1.30449 0
M  V30 16986 C 1618.13 -3.87163 -1.74328 0
M  V30 16987 O 1619.15 -3.27513 -1.40048 0
M  V30 16988 O 1618.01 -4.92075 -2.37748 0
M  V30 16989 H 1615.1 -0.728487 -0.391453 0
M  V30 16990 H 1617.65 -1.6957 -0.0663006 0
M  V30 16991 H 1616.42 -3.88292 -0.484277 0
M  V30 16992 H 1616.04 -3.36429 -2.119 0
M  V30 16993 N 1617.04 0.356258 -1.53521 0
M  V30 16994 C 1617.97 1.44271 -1.83598 0
M  V30 16995 C 1618.95 1.5547 -0.690141 0
M  V30 16996 O 1620.14 1.69886 -0.940868 0
M  V30 16997 C 1617.27 2.8149 -2.03422 0
M  V30 16998 C 1616.22 2.85108 -3.19213 0
M  V30 16999 C 1615.55 4.25091 -3.24348 0
M  V30 17000 C 1616.85 2.51788 -4.57602 0
M  V30 17001 H 1618.54 1.1935 -2.74583 0
M  V30 17002 H 1616.09 0.572707 -1.32121 0
M  V30 17003 H 1618.04 3.57531 -2.23046 0
M  V30 17004 H 1616.76 3.07819 -1.09155 0
M  V30 17005 H 1615.42 2.1152 -2.99424 0
M  V30 17006 H 1615.07 4.4851 -2.277 0
M  V30 17007 H 1614.77 4.28426 -4.0215 0
M  V30 17008 H 1616.3 5.02992 -3.46167 0
M  V30 17009 H 1617.71 3.17542 -4.77326 0
M  V30 17010 H 1616.11 2.66426 -5.37715 0
M  V30 17011 H 1617.18 1.4701 -4.62078 0
M  V30 17012 N 1618.52 1.45038 0.616577 0
M  V30 17013 C 1619.77 1.48585 1.37582 0
M  V30 17014 C 1620.09 0.124065 1.94104 0
M  V30 17015 O 1619.35 -0.876112 1.74994 0
M  V30 17016 C 1619.65 2.50545 2.54876 0
M  V30 17017 C 1619.31 3.95493 2.16555 0
M  V30 17018 C 1617.98 4.34963 2.05818 0
M  V30 17019 C 1620.33 4.86685 1.86512 0
M  V30 17020 C 1617.66 5.63531 1.63246 0
M  V30 17021 C 1620.01 6.15657 1.4543 0
M  V30 17022 C 1618.67 6.54066 1.33244 0
M  V30 17023 H 1617.94 0.543711 0.503447 0
M  V30 17024 H 1620.59 1.78334 0.697787 0
M  V30 17025 H 1618.89 2.14332 3.27977 0
M  V30 17026 H 1620.59 2.50531 3.13106 0
M  V30 17027 H 1617.18 3.64275 2.25836 0
M  V30 17028 H 1621.37 4.56936 1.9371 0
M  V30 17029 H 1616.62 5.92094 1.52427 0
M  V30 17030 H 1620.8 6.85768 1.21226 0
M  V30 17031 H 1618.42 7.5359 1.0003 0
M  V30 17032 N 1620 -0.858287 1.32179 0
M  V30 17033 C 1621.24 -1.6261 1.23844 0
M  V30 17034 C 1621.6 -1.9098 -0.197628 0
M  V30 17035 O 1622.8 -2.65737 -0.40465 0
M  V30 17036 C 1621.07 -2.91319 2.07047 0
M  V30 17037 S 1622.63 -3.82125 2.15699 0
M  V30 17038 H 1619.45 -0.557789 0.4409 0
M  V30 17039 H 1622.05 -1.0167 1.66983 0
M  V30 17040 H 1620.76 -2.68417 3.10452 0
M  V30 17041 H 1620.29 -3.57277 1.64671 0
M  V30 17042 H 1622.3 -4.78764 1.30384 0
M  V30 17043 N 1621.48 -1.1533 -1.07409 0
M  V30 17044 C 1622.42 -0.849527 -2.14597 0
M  V30 17045 C 1623.39 0.197288 -1.64924 0
M  V30 17046 O 1624.58 0.0649694 -1.90689 0
M  V30 17047 C 1621.72 -0.344327 -3.43378 0
M  V30 17048 C 1620.83 -1.45264 -4.06844 0
M  V30 17049 C 1619.97 -0.90363 -5.23458 0
M  V30 17050 C 1619 -1.98892 -5.78885 0
M  V30 17051 N 1618.14 -1.45633 -6.8683 0
M  V30 17052 H 1622.98 -1.76753 -2.39922 0
M  V30 17053 H 1620.52 -0.881942 -1.17729 0
M  V30 17054 H 1622.48 -0.0331352 -4.17187 0
M  V30 17055 H 1621.11 0.536757 -3.18306 0
M  V30 17056 H 1620.16 -1.88003 -3.30695 0
M  V30 17057 H 1621.47 -2.27207 -4.44048 0
M  V30 17058 H 1620.62 -0.544945 -6.04248 0
M  V30 17059 H 1619.36 -0.0533648 -4.87671 0
M  V30 17060 H 1618.37 -2.35644 -4.96741 0
M  V30 17061 H 1619.59 -2.84295 -6.16728 0
M  V30 17062 H 1617.54 -0.628417 -6.52983 0
M  V30 17063 H 1617.46 -2.21204 -7.22914 0
M  V30 17064 H 1618.72 -1.12587 -7.71326 0
M  V30 17065 N 1622.95 1.25748 -0.950004 0
M  V30 17066 C 1623.92 2.24307 -0.47106 0
M  V30 17067 C 1624.92 1.55145 0.422704 0
M  V30 17068 O 1626.11 1.72797 0.220642 0
M  V30 17069 C 1623.24 3.39395 0.319979 0
M  V30 17070 H 1624.43 2.68192 -1.34214 0
M  V30 17071 H 1621.98 1.38056 -0.732827 0
M  V30 17072 H 1622.72 3.00925 1.20892 0
M  V30 17073 H 1622.5 3.90783 -0.321157 0
M  V30 17074 H 1623.99 4.12594 0.644697 0
M  V30 17075 N 1624.43 0.718038 1.40292 0
M  V30 17076 C 1625.36 0.0818367 2.33357 0
M  V30 17077 C 1626.34 -0.742854 1.53022 0
M  V30 17078 O 1627.53 -0.691281 1.8148 0
M  V30 17079 C 1624.66 -0.838843 3.37017 0
M  V30 17080 C 1623.61 -0.119589 4.27833 0
M  V30 17081 C 1622.94 -1.15615 5.22051 0
M  V30 17082 C 1624.24 1.02769 5.1209 0
M  V30 17083 H 1625.93 0.859167 2.86808 0
M  V30 17084 H 1623.48 0.414606 1.37902 0
M  V30 17085 H 1625.43 -1.29332 4.01063 0
M  V30 17086 H 1624.15 -1.6481 2.81967 0
M  V30 17087 H 1622.81 0.315088 3.65243 0
M  V30 17088 H 1622.46 -1.95852 4.63304 0
M  V30 17089 H 1622.16 -0.679767 5.83655 0
M  V30 17090 H 1623.69 -1.61068 5.88973 0
M  V30 17091 H 1625.1 0.652461 5.69575 0
M  V30 17092 H 1623.5 1.4326 5.82749 0
M  V30 17093 H 1624.57 1.85723 4.47923 0
M  V30 17094 N 1625.91 -1.50602 0.464402 0
M  V30 17095 C 1626.86 -2.28382 -0.333234 0
M  V30 17096 C 1627.83 -1.3314 -0.993125 0
M  V30 17097 O 1629.01 -1.62072 -1.00685 0
M  V30 17098 C 1626.15 -3.14841 -1.41313 0
M  V30 17099 C 1625.27 -4.25106 -0.768684 0
M  V30 17100 C 1624.4 -4.98833 -1.82591 0
M  V30 17101 C 1623.44 -6.00982 -1.16135 0
M  V30 17102 N 1622.58 -6.68012 -2.16112 0
M  V30 17103 H 1627.42 -2.96096 0.336354 0
M  V30 17104 H 1624.95 -1.46022 0.17772 0
M  V30 17105 H 1626.91 -3.63314 -2.05082 0
M  V30 17106 H 1625.54 -2.49186 -2.05197 0
M  V30 17107 H 1624.59 -3.80395 -0.0185964 0
M  V30 17108 H 1625.91 -4.98204 -0.243759 0
M  V30 17109 H 1625.06 -5.50991 -2.53957 0
M  V30 17110 H 1623.8 -4.25426 -2.38462 0
M  V30 17111 H 1622.8 -5.4809 -0.43328 0
M  V30 17112 H 1624.03 -6.76358 -0.609612 0
M  V30 17113 H 1621.97 -5.97401 -2.71013 0
M  V30 17114 H 1621.89 -7.36963 -1.68586 0
M  V30 17115 H 1623.16 -7.2479 -2.86879 0
M  V30 17116 N 1627.39 -0.19675 -1.56367 0
M  V30 17117 C 1628.62 0.447139 -2.02011 0
M  V30 17118 C 1629.03 1.55077 -1.07687 0
M  V30 17119 O 1628.39 1.82316 -0.0820316 0
M  V30 17120 C 1628.44 1.00192 -3.47338 0
M  V30 17121 O 1628.16 -0.0576859 -4.38062 0
M  V30 17122 C 1629.66 1.72152 -4.08508 0
M  V30 17123 H 1626.88 0.112088 -0.661572 0
M  V30 17124 H 1629.43 -0.30594 -2.02199 0
M  V30 17125 H 1627.58 1.70537 -3.47844 0
M  V30 17126 H 1627.99 0.355508 -5.23294 0
M  V30 17127 H 1629.47 2.06199 -5.12041 0
M  V30 17128 H 1629.95 2.62581 -3.52062 0
M  V30 17129 H 1630.55 1.06388 -4.11779 0
M  V30 17130 N 1628.87 1.57413 0.0768405 0
M  V30 17131 C 1630.1 1.90946 0.788862 0
M  V30 17132 C 1630.5 0.790474 1.71896 0
M  V30 17133 O 1629.85 -0.245385 1.82054 0
M  V30 17134 C 1629.91 3.19902 1.64022 0
M  V30 17135 C 1629.57 4.48447 0.880025 0
M  V30 17136 C 1630.57 5.19509 0.201546 0
M  V30 17137 C 1628.26 4.95078 0.848694 0
M  V30 17138 C 1630.25 6.35451 -0.498091 0
M  V30 17139 C 1627.94 6.10927 0.145281 0
M  V30 17140 C 1628.93 6.80964 -0.526916 0
M  V30 17141 O 1628.62 7.94604 -1.21901 0
M  V30 17142 H 1628.35 0.63576 0.22975 0
M  V30 17143 H 1630.91 2.05332 0.052938 0
M  V30 17144 H 1629.14 3.01712 2.41882 0
M  V30 17145 H 1630.83 3.39125 2.23046 0
M  V30 17146 H 1631.59 4.84514 0.217091 0
M  V30 17147 H 1627.47 4.40441 1.36136 0
M  V30 17148 H 1631.02 6.90053 -1.02333 0
M  V30 17149 H 1626.91 6.45374 0.127646 0
M  V30 17150 H 1627.68 8.10693 -1.12776 0
M  V30 17151 N 1630.34 -0.348112 1.53707 0
M  V30 17152 C 1631.29 -1.44755 1.82068 0
M  V30 17153 C 1632.29 -1.54672 0.690865 0
M  V30 17154 O 1633.49 -1.5735 0.874123 0
M  V30 17155 H 1629.87 -0.482562 0.576747 0
M  V30 17156 H 1631.84 -1.18047 2.74058 0
M  V30 17157 C 1630.59 -2.81345 2.04305 0
M  V30 17158 H 1629.91 -2.74479 2.90691 0
M  V30 17159 H 1631.35 -3.57405 2.28117 0
M  V30 17160 C 1629.81 -3.26586 0.827224 0
M  V30 17161 O 1630.34 -4.01693 0.0244098 0
M  V30 17162 N 1628.55 -2.83335 0.645731 0
M  V30 17163 H 1628.09 -2.22379 1.3002 0
M  V30 17164 H 1628.05 -3.1396 -0.166313 0
M  V30 17165 N 1631.82 -1.45363 -0.608876 0
M  V30 17166 C 1632.76 -1.48425 -1.73336 0
M  V30 17167 C 1633.73 -0.340757 -1.58989 0
M  V30 17168 O 1634.92 -0.541066 -1.80568 0
M  V30 17169 C 1632.04 -1.33807 -3.11149 0
M  V30 17170 C 1631.09 -2.52005 -3.44087 0
M  V30 17171 S 1631.92 -4.14477 -3.39071 0
M  V30 17172 C 1633.08 -4.02321 -4.79467 0
M  V30 17173 H 1633.31 -2.43568 -1.70475 0
M  V30 17174 H 1630.85 -1.32931 -0.785418 0
M  V30 17175 H 1632.8 -1.2606 -3.90665 0
M  V30 17176 H 1631.46 -0.401365 -3.11525 0
M  V30 17177 H 1630.66 -2.37699 -4.44427 0
M  V30 17178 H 1630.26 -2.56606 -2.72083 0
M  V30 17179 H 1632.55 -3.67386 -5.6924 0
M  V30 17180 H 1633.49 -5.02569 -4.98829 0
M  V30 17181 H 1633.9 -3.34 -4.55087 0
M  V30 17182 N 1633.3 0.851265 -1.32632 0
M  V30 17183 C 1634.23 1.97562 -1.24465 0
M  V30 17184 C 1635.21 1.69619 -0.127777 0
M  V30 17185 O 1636.4 1.9162 -0.315509 0
M  V30 17186 C 1633.53 3.33467 -0.970423 0
M  V30 17187 C 1632.48 3.75772 -2.0489 0
M  V30 17188 C 1631.81 5.09345 -1.62702 0
M  V30 17189 C 1633.11 3.90876 -3.4643 0
M  V30 17190 H 1634.8 2.04653 -2.18535 0
M  V30 17191 H 1632.35 0.983252 -1.05205 0
M  V30 17192 H 1634.3 4.11681 -0.899825 0
M  V30 17193 H 1633.02 3.26599 0.00591373 0
M  V30 17194 H 1631.68 2.99812 -2.1097 0
M  V30 17195 H 1631.33 4.98937 -0.638039 0
M  V30 17196 H 1631.03 5.38621 -2.34864 0
M  V30 17197 H 1632.55 5.90048 -1.57085 0
M  V30 17198 H 1633.97 4.59434 -3.42919 0
M  V30 17199 H 1632.37 4.31574 -4.1697 0
M  V30 17200 H 1633.44 2.93689 -3.85843 0
M  V30 17201 N 1634.78 1.15898 1.06796 0
M  V30 17202 C 1636.02 0.947946 1.81089 0
M  V30 17203 C 1636.38 -0.51537 1.84954 0
M  V30 17204 O 1637.58 -0.844928 2.55175 0
M  V30 17205 C 1635.85 1.55214 3.21937 0
M  V30 17206 S 1637.41 1.48502 4.12907 0
M  V30 17207 H 1634.23 0.341025 0.623877 0
M  V30 17208 H 1636.83 1.4755 1.28254 0
M  V30 17209 H 1635.54 2.60996 3.16716 0
M  V30 17210 H 1635.07 1.02369 3.79848 0
M  V30 17211 H 1637.08 0.481773 4.93856 0
M  V30 17212 N 1636.26 -1.25243 0.956659 0
M  V30 17213 C 1637.5 -1.93014 0.612538 0
M  V30 17214 C 1637.83 -1.74908 -0.85073 0
M  V30 17215 O 1637.09 -1.08896 -1.62604 0
M  V30 17216 C 1637.39 -3.4536 0.919849 0
M  V30 17217 C 1637.05 -3.83623 2.36948 0
M  V30 17218 C 1635.71 -3.93779 2.76571 0
M  V30 17219 C 1638.07 -4.02536 3.3108 0
M  V30 17220 C 1635.39 -4.20257 4.09391 0
M  V30 17221 C 1637.75 -4.30507 4.63515 0
M  V30 17222 C 1636.41 -4.3888 5.02932 0
M  V30 17223 H 1635.68 -0.706286 0.224144 0
M  V30 17224 H 1638.33 -1.48748 1.20608 0
M  V30 17225 H 1636.63 -3.9104 0.243941 0
M  V30 17226 H 1638.33 -3.95986 0.632143 0
M  V30 17227 H 1634.92 -3.76275 2.05219 0
M  V30 17228 H 1639.1 -3.94102 3.01657 0
M  V30 17229 H 1634.36 -4.24956 4.39571 0
M  V30 17230 H 1638.53 -4.44087 5.36433 0
M  V30 17231 H 1636.16 -4.59151 6.05875 0
M  V30 17232 N 1637.73 -0.725468 -1.3991 0
M  V30 17233 C 1638.98 -0.268719 -2.00306 0
M  V30 17234 C 1639.3 1.14511 -1.57836 0
M  V30 17235 O 1638.57 1.77808 -0.822263 0
M  V30 17236 H 1637.15 -0.0963614 -0.740759 0
M  V30 17237 H 1639.82 -0.933303 -1.71101 0
M  V30 17238 H 1638.91 -0.309587 -3.10561 0
M  V30 17239 N 1639.21 1.50354 -0.472382 0
M  V30 17240 C 1640.46 2.01526 0.0838536 0
M  V30 17241 C 1640.77 1.35913 1.40667 0
M  V30 17242 O 1641.98 1.78248 2.04792 0
M  V30 17243 C 1640.44 3.59344 0.199949 0
M  V30 17244 C 1640.04 4.33916 -1.11451 0
M  V30 17245 C 1641.79 4.18553 0.708075 0
M  V30 17246 C 1639.7 5.83521 -0.962138 0
M  V30 17247 H 1638.63 0.753182 0.0351127 0
M  V30 17248 H 1641.28 1.73153 -0.607474 0
M  V30 17249 H 1639.66 3.8431 0.955088 0
M  V30 17250 H 1640.83 4.20673 -1.8807 0
M  V30 17251 H 1639.15 3.86322 -1.55385 0
M  V30 17252 H 1641.74 5.28075 0.839126 0
M  V30 17253 H 1642.09 3.80019 1.69973 0
M  V30 17254 H 1642.62 3.97799 0.0102847 0
M  V30 17255 H 1639.36 6.26529 -1.9272 0
M  V30 17256 H 1638.88 5.99334 -0.236348 0
M  V30 17257 H 1640.56 6.43933 -0.629276 0
M  V30 17258 N 1640.69 0.205039 1.56261 0
M  V30 17259 C 1641.92 -0.435787 2.01952 0
M  V30 17260 C 1642.33 -1.55048 1.08428 0
M  V30 17261 O 1641.67 -1.83512 0.0831276 0
M  V30 17262 C 1641.73 -1.04359 3.4402 0
M  V30 17263 C 1641.4 -0.0663955 4.56952 0
M  V30 17264 C 1642.4 0.727909 5.14779 0
M  V30 17265 C 1640.08 0.0475718 5.02277 0
M  V30 17266 C 1642.07 1.62305 6.16389 0
M  V30 17267 C 1639.76 0.94626 6.03729 0
M  V30 17268 C 1640.76 1.73256 6.6066 0
M  V30 17269 O 1640.45 2.61617 7.60139 0
M  V30 17270 H 1640.18 -0.112721 0.666536 0
M  V30 17271 H 1642.73 0.313993 2.02986 0
M  V30 17272 H 1640.96 -1.84215 3.40003 0
M  V30 17273 H 1642.65 -1.5901 3.73458 0
M  V30 17274 H 1643.42 0.65022 4.80622 0
M  V30 17275 H 1639.3 -0.554295 4.57656 0
M  V30 17276 H 1642.84 2.23722 6.60753 0
M  V30 17277 H 1638.74 1.02503 6.3731 0
M  V30 17278 H 1639.51 2.55507 7.77598 0
M  V30 17279 N 1642.17 -1.57451 -0.0684915 0
M  V30 17280 C 1643.59 -1.53883 -0.423354 0
M  V30 17281 C 1643.79 -0.925698 -1.78978 0
M  V30 17282 O 1642.84 -0.529629 -2.46883 0
M  V30 17283 C 1644.15 -2.98521 -0.361386 0
M  V30 17284 C 1645.7 -3.09873 -0.441334 0
M  V30 17285 C 1646.18 -4.56168 -0.409239 0
M  V30 17286 N 1647.67 -4.60817 -0.469216 0
M  V30 17287 C 1648.4 -5.71498 -0.466648 0
M  V30 17288 N 1647.9 -6.91534 -0.4187 0
M  V30 17289 N 1649.69 -5.5975 -0.513452 0
M  V30 17290 H 1641.84 -1.95672 0.8262 0
M  V30 17291 H 1644.11 -0.895759 0.310354 0
M  V30 17292 H 1643.81 -3.46951 0.576035 0
M  V30 17293 H 1643.69 -3.58585 -1.17032 0
M  V30 17294 H 1646.07 -2.61414 -1.36918 0
M  V30 17295 H 1646.15 -2.52712 0.396237 0
M  V30 17296 H 1645.8 -5.05285 0.514772 0
M  V30 17297 H 1645.73 -5.11195 -1.26439 0
M  V30 17298 H 1648.22 -3.74438 -0.510387 0
M  V30 17299 H 1648.53 -7.71654 -0.420757 0
M  V30 17300 H 1646.88 -6.93931 -0.385338 0
M  V30 17301 H 1650.07 -4.64874 -0.548626 0
M  V30 17302 H 1650.24 -6.46006 -0.507982 0
M  V30 17303 N 1643.65 0.339955 -1.5389 0
M  V30 17304 C 1644.58 1.42316 -1.85117 0
M  V30 17305 C 1645.56 1.5473 -0.706591 0
M  V30 17306 O 1646.74 1.68879 -0.958834 0
M  V30 17307 C 1643.87 2.79317 -2.06396 0
M  V30 17308 C 1642.83 2.81707 -3.22219 0
M  V30 17309 C 1642.15 4.21627 -3.28838 0
M  V30 17310 C 1643.45 2.46921 -4.60247 0
M  V30 17311 H 1645.15 1.16431 -2.75834 0
M  V30 17312 H 1642.69 0.558661 -1.32721 0
M  V30 17313 H 1644.65 3.55145 -2.26826 0
M  V30 17314 H 1643.37 3.06644 -1.12414 0
M  V30 17315 H 1642.03 2.08332 -3.01651 0
M  V30 17316 H 1641.68 4.4607 -2.32444 0
M  V30 17317 H 1641.38 4.24137 -4.06672 0
M  V30 17318 H 1642.9 4.99292 -3.51482 0
M  V30 17319 H 1644.32 3.12462 -4.80667 0
M  V30 17320 H 1642.71 2.60707 -5.40511 0
M  V30 17321 H 1643.78 1.421 -4.63611 0
M  V30 17322 N 1645.13 1.45684 0.601159 0
M  V30 17323 C 1646.54 1.30232 0.922598 0
M  V30 17324 C 1646.74 0.260086 1.99814 0
M  V30 17325 O 1645.8 -0.343753 2.50149 0
M  V30 17326 C 1647.11 2.68318 1.35743 0
M  V30 17327 C 1648.66 2.76264 1.47129 0
M  V30 17328 C 1649.13 4.1489 1.93986 0
M  V30 17329 N 1650.62 4.17216 2.01209 0
M  V30 17330 C 1651.36 5.21354 2.387 0
M  V30 17331 N 1650.86 6.35833 2.75114 0
M  V30 17332 N 1652.65 5.08714 2.39095 0
M  V30 17333 H 1644.8 2.12117 -0.109634 0
M  V30 17334 H 1647.06 0.947902 0.0136129 0
M  V30 17335 H 1646.77 3.45804 0.64127 0
M  V30 17336 H 1646.64 2.97206 2.32268 0
M  V30 17337 H 1649.03 1.99077 2.17835 0
M  V30 17338 H 1649.11 2.51082 0.489028 0
M  V30 17339 H 1648.75 4.92565 1.23864 0
M  V30 17340 H 1648.68 4.37468 2.93137 0
M  V30 17341 H 1651.18 3.34607 1.75632 0
M  V30 17342 H 1651.49 7.11084 3.02622 0
M  V30 17343 H 1649.83 6.39224 2.72795 0
M  V30 17344 H 1653.02 4.18322 2.10057 0
M  V30 17345 H 1653.2 5.89989 2.67987 0
M  V30 17346 N 1646.6 -0.84422 1.33082 0
M  V30 17347 C 1647.88 -1.58339 1.1484 0
M  V30 17348 C 1648.26 -2.09136 -0.287273 0
M  V30 17349 O 1647.61 -1.8891 -1.2855 0
M  V30 17350 C 1647.82 -2.72141 2.18496 0
M  V30 17351 C 1649.17 -3.41457 2.52373 0
M  V30 17352 O 1650.19 -2.82377 2.17122 0
M  V30 17353 O 1649.05 -4.48096 3.12845 0
M  V30 17354 H 1646.14 -0.697813 0.443831 0
M  V30 17355 H 1648.69 -0.88744 1.44646 0
M  V30 17356 H 1647.46 -2.32206 3.14954 0
M  V30 17357 H 1647.08 -3.49404 1.89744 0
M  V30 17358 N 1648.08 -1.16463 -1.0618 0
M  V30 17359 C 1649.04 -0.874674 -2.11854 0
M  V30 17360 C 1650.04 0.130829 -1.60267 0
M  V30 17361 O 1651.23 -0.100195 -1.73912 0
M  V30 17362 C 1648.37 -0.30826 -3.39503 0
M  V30 17363 H 1649.56 -1.81149 -2.39009 0
M  V30 17364 H 1647.11 -0.973721 -1.22264 0
M  V30 17365 H 1647.85 0.636181 -3.17999 0
M  V30 17366 H 1647.63 -1.03281 -3.78253 0
M  V30 17367 H 1649.12 -0.123378 -4.17418 0
M  V30 17368 N 1649.56 1.24734 -0.963288 0
M  V30 17369 C 1650.51 2.2329 -0.461019 0
M  V30 17370 C 1651.49 1.54346 0.454536 0
M  V30 17371 O 1652.69 1.74671 0.286177 0
M  V30 17372 C 1649.81 3.42376 0.251738 0
M  V30 17373 C 1648.9 4.18574 -0.682388 0
M  V30 17374 N 1649.29 4.72008 -1.81775 0
M  V30 17375 C 1647.59 4.43275 -0.492294 0
M  V30 17376 C 1648.29 5.29806 -2.40168 0
M  V30 17377 N 1647.27 5.16751 -1.68729 0
M  V30 17378 H 1651.07 2.62217 -1.32738 0
M  V30 17379 H 1648.58 1.4007 -0.821834 0
M  V30 17380 H 1650.58 4.12131 0.628756 0
M  V30 17381 H 1649.24 3.0497 1.11459 0
M  V30 17382 H 1650.25 4.68878 -2.1994 0
M  V30 17383 H 1646.93 4.16218 0.326963 0
M  V30 17384 H 1648.32 5.8188 -3.35954 0
M  V30 17385 N 1651.04 0.732878 1.39523 0
M  V30 17386 C 1651.97 0.106583 2.33257 0
M  V30 17387 C 1652.95 -0.726582 1.53801 0
M  V30 17388 O 1654.13 -0.671994 1.82203 0
M  V30 17389 C 1651.26 -0.803051 3.37888 0
M  V30 17390 C 1650.22 -0.0742048 4.27936 0
M  V30 17391 C 1649.54 -1.10071 5.23248 0
M  V30 17392 C 1650.84 1.08195 5.10971 0
M  V30 17393 H 1652.54 0.889539 2.8588 0
M  V30 17394 H 1650.08 0.429209 1.37455 0
M  V30 17395 H 1652.04 -1.25071 4.02412 0
M  V30 17396 H 1650.76 -1.6181 2.83699 0
M  V30 17397 H 1649.42 0.35381 3.64889 0
M  V30 17398 H 1649.07 -1.90927 4.65356 0
M  V30 17399 H 1648.77 -0.617825 5.84343 0
M  V30 17400 H 1650.29 -1.54812 5.90649 0
M  V30 17401 H 1651.71 0.712835 5.68851 0
M  V30 17402 H 1650.1 1.49433 5.81197 0
M  V30 17403 H 1651.17 1.90463 4.45928 0
M  V30 17404 N 1652.52 -1.50101 0.480349 0
M  V30 17405 C 1653.74 -2.07278 -0.0710872 0
M  V30 17406 C 1654.17 -1.34082 -1.31923 0
M  V30 17407 O 1653.52 -0.391251 -1.77028 0
M  V30 17408 C 1653.57 -3.59099 -0.328706 0
M  V30 17409 O 1652.68 -3.8764 -1.40745 0
M  V30 17410 H 1652.02 -0.66378 0.0170748 0
M  V30 17411 H 1654.55 -1.93178 0.674049 0
M  V30 17412 H 1654.56 -4.04049 -0.566435 0
M  V30 17413 H 1653.23 -4.11789 0.583316 0
M  V30 17414 H 1651.81 -3.54519 -1.15631 0
M  V30 17415 N 1653.99 -0.213323 -1.5615 0
M  V30 17416 C 1655.22 0.425688 -2.02473 0
M  V30 17417 C 1655.64 1.53926 -1.09326 0
M  V30 17418 O 1654.99 1.82218 -0.101364 0
M  V30 17419 C 1655.04 0.965021 -3.48381 0
M  V30 17420 O 1654.77 -0.104145 -4.37976 0
M  V30 17421 C 1656.27 1.6781 -4.10311 0
M  V30 17422 H 1653.49 0.105064 -0.662724 0
M  V30 17423 H 1656.03 -0.327369 -2.01863 0
M  V30 17424 H 1654.19 1.66838 -3.49634 0
M  V30 17425 H 1654.6 0.299985 -5.23641 0
M  V30 17426 H 1656.07 2.00757 -5.14199 0
M  V30 17427 H 1656.55 2.58833 -3.54827 0
M  V30 17428 H 1657.16 1.02014 -4.12884 0
M  V30 17429 N 1655.47 1.57485 0.0601405 0
M  V30 17430 C 1656.88 1.76433 0.610583 0
M  V30 17431 C 1657.23 0.840353 1.77292 0
M  V30 17432 O 1656.36 0.0273238 2.16383 0
M  V30 17433 C 1656.95 3.19947 1.11441 0
M  V30 17434 C 1655.51 3.402 1.61062 0
M  V30 17435 C 1654.66 2.72089 0.535055 0
M  V30 17436 H 1657.61 1.57829 -0.166062 0
M  V30 17437 H 1657.63 3.24749 1.98288 0
M  V30 17438 H 1657.14 3.87172 0.268233 0
M  V30 17439 H 1655.25 2.78106 2.47967 0
M  V30 17440 H 1655.36 4.48696 1.67954 0
M  V30 17441 H 1653.72 2.34972 0.982855 0
M  V30 17442 H 1654.51 3.41977 -0.301135 0
M  V30 17443 N 1656.95 -0.331789 1.54068 0
M  V30 17444 C 1658.18 -1.09484 1.76148 0
M  V30 17445 C 1658.6 -1.81201 0.504772 0
M  V30 17446 O 1657.96 -1.7297 -0.54325 0
M  V30 17447 C 1658.01 -2.07495 2.94921 0
M  V30 17448 O 1657.11 -3.15239 2.65891 0
M  V30 17449 H 1656.45 -0.316071 0.583948 0
M  V30 17450 H 1658.98 -0.378593 2.01067 0
M  V30 17451 H 1658.99 -2.5051 3.22038 0
M  V30 17452 H 1657.67 -1.54696 3.8606 0
M  V30 17453 H 1656.24 -2.76958 2.49697 0
M  V30 17454 N 1658.43 -1.46001 -0.593424 0
M  V30 17455 C 1659.36 -1.51774 -1.71748 0
M  V30 17456 C 1660.37 -0.407093 -1.57628 0
M  V30 17457 O 1661.56 -0.674903 -1.65249 0
M  V30 17458 C 1658.66 -1.3718 -3.09895 0
M  V30 17459 C 1657.84 -2.62173 -3.5012 0
M  V30 17460 C 1656.89 -2.41933 -4.67285 0
M  V30 17461 O 1655.92 -3.15611 -4.73686 0
M  V30 17462 N 1657.12 -1.47405 -5.61473 0
M  V30 17463 H 1659.89 -2.48689 -1.67253 0
M  V30 17464 H 1657.45 -1.41921 -0.779111 0
M  V30 17465 H 1659.44 -1.21428 -3.86054 0
M  V30 17466 H 1658.01 -0.484876 -3.08817 0
M  V30 17467 H 1657.23 -2.92943 -2.63777 0
M  V30 17468 H 1658.52 -3.45229 -3.73758 0
M  V30 17469 H 1657.92 -0.866282 -5.59028 0
M  V30 17470 H 1656.47 -1.3762 -6.37106 0
M  V30 17471 N 1659.91 0.83715 -1.33527 0
M  V30 17472 C 1661.15 1.60619 -1.26416 0
M  V30 17473 C 1661.51 1.9127 0.16722 0
M  V30 17474 O 1662.71 2.66347 0.362323 0
M  V30 17475 C 1660.98 2.87988 -2.11655 0
M  V30 17476 S 1662.54 3.78645 -2.21751 0
M  V30 17477 H 1659.36 0.550704 -0.449718 0
M  V30 17478 H 1661.96 0.990005 -1.6858 0
M  V30 17479 H 1660.67 2.63444 -3.14683 0
M  V30 17480 H 1660.2 3.54612 -1.70334 0
M  V30 17481 H 1662.21 4.76629 -1.37984 0
M  V30 17482 N 1661.38 1.17024 1.05561 0
M  V30 17483 C 1662.61 0.98075 1.82178 0
M  V30 17484 C 1663.03 -0.471027 1.8283 0
M  V30 17485 O 1662.38 -1.32703 1.25284 0
M  V30 17486 C 1662.44 1.50979 3.28463 0
M  V30 17487 O 1662.16 2.90471 3.27961 0
M  V30 17488 C 1663.66 1.36436 4.21782 0
M  V30 17489 H 1660.88 0.3472 0.574189 0
M  V30 17490 H 1663.42 1.55226 1.33136 0
M  V30 17491 H 1661.58 0.980393 3.74789 0
M  V30 17492 H 1661.99 3.14847 4.19489 0
M  V30 17493 H 1663.46 1.78272 5.2242 0
M  V30 17494 H 1663.94 0.310922 4.38098 0
M  V30 17495 H 1664.55 1.88374 3.81308 0
M  V30 17496 N 1662.86 -1.24221 0.969889 0
M  V30 17497 C 1663.81 -2.25292 0.501215 0
M  V30 17498 C 1664.78 -1.59764 -0.454382 0
M  V30 17499 O 1665.96 -1.87291 -0.364261 0
M  V30 17500 C 1663.1 -3.44518 -0.200361 0
M  V30 17501 C 1662.22 -4.24636 0.79426 0
M  V30 17502 C 1661.35 -5.31156 0.068568 0
M  V30 17503 C 1660.39 -6.02973 1.05311 0
M  V30 17504 N 1659.53 -7.0119 0.357274 0
M  V30 17505 H 1664.37 -2.64749 1.36792 0
M  V30 17506 H 1661.91 -1.30142 0.685673 0
M  V30 17507 H 1663.86 -4.1251 -0.623833 0
M  V30 17508 H 1662.49 -3.05892 -1.03101 0
M  V30 17509 H 1661.55 -3.56161 1.33616 0
M  V30 17510 H 1662.86 -4.74271 1.54493 0
M  V30 17511 H 1662.01 -6.05294 -0.412792 0
M  V30 17512 H 1660.75 -4.82434 -0.714781 0
M  V30 17513 H 1659.76 -5.27636 1.54532 0
M  V30 17514 H 1660.98 -6.53784 1.83694 0
M  V30 17515 H 1658.93 -6.54736 -0.407059 0
M  V30 17516 H 1658.84 -7.48718 1.04677 0
M  V30 17517 H 1660.11 -7.79433 -0.102045 0
M  V30 17518 N 1664.34 -0.740267 -1.39132 0
M  V30 17519 C 1665.76 -0.416412 -1.54072 0
M  V30 17520 C 1665.96 1.07211 -1.70611 0
M  V30 17521 O 1665.01 1.85822 -1.70958 0
M  V30 17522 C 1666.33 -1.20403 -2.75542 0
M  V30 17523 C 1667.87 -1.19278 -2.89382 0
M  V30 17524 C 1668.35 -1.96308 -4.13796 0
M  V30 17525 N 1669.84 -1.93501 -4.20846 0
M  V30 17526 C 1670.57 -2.49907 -5.16075 0
M  V30 17527 N 1670.07 -3.14973 -6.17061 0
M  V30 17528 N 1671.86 -2.39911 -5.0833 0
M  V30 17529 H 1664.01 -1.70513 -1.26645 0
M  V30 17530 H 1666.28 -0.722111 -0.614214 0
M  V30 17531 H 1665.98 -2.25754 -2.69681 0
M  V30 17532 H 1665.86 -0.811986 -3.68357 0
M  V30 17533 H 1668.24 -0.147385 -2.94732 0
M  V30 17534 H 1668.33 -1.62424 -1.97616 0
M  V30 17535 H 1667.97 -3.00851 -4.09208 0
M  V30 17536 H 1667.9 -1.50565 -5.04617 0
M  V30 17537 H 1670.39 -1.46104 -3.48514 0
M  V30 17538 H 1670.7 -3.55467 -6.86195 0
M  V30 17539 H 1669.05 -3.19064 -6.17433 0
M  V30 17540 H 1672.24 -1.88718 -4.28373 0
M  V30 17541 H 1672.41 -2.84169 -5.82368 0
M  V30 17542 N 1665.82 1.49844 -0.488302 0
M  V30 17543 C 1667.05 2.06519 0.0577968 0
M  V30 17544 C 1667.46 1.35039 1.32519 0
M  V30 17545 O 1666.8 0.418468 1.7887 0
M  V30 17546 C 1666.86 3.57328 0.394577 0
M  V30 17547 C 1666.53 4.50411 -0.773259 0
M  V30 17548 C 1667.52 4.9268 -1.66019 0
M  V30 17549 C 1665.21 4.92875 -0.968465 0
M  V30 17550 C 1667.2 5.76139 -2.72659 0
M  V30 17551 C 1664.89 5.76113 -2.03806 0
M  V30 17552 C 1665.89 6.17648 -2.91548 0
M  V30 17553 O 1665.57 6.99224 -3.96663 0
M  V30 17554 H 1665.31 0.675902 -0.0115057 0
M  V30 17555 H 1667.86 1.93777 -0.681149 0
M  V30 17556 H 1666.09 3.68033 1.18695 0
M  V30 17557 H 1667.78 3.96295 0.877786 0
M  V30 17558 H 1668.55 4.60528 -1.52114 0
M  V30 17559 H 1664.42 4.60056 -0.294936 0
M  V30 17560 H 1667.97 6.08478 -3.41174 0
M  V30 17561 H 1663.87 6.07678 -2.17711 0
M  V30 17562 H 1664.63 7.17507 -3.93861 0
M  V30 17563 N 1667.3 0.221601 1.56034 0
M  V30 17564 C 1668.54 -0.410695 1.98598 0
M  V30 17565 C 1668.88 -1.59412 1.10912 0
M  V30 17566 O 1668.15 -1.93783 0.166819 0
M  V30 17567 C 1668.43 -0.845199 3.50041 0
M  V30 17568 C 1668.29 0.341866 4.48499 0
M  V30 17569 C 1669.61 -1.70135 4.05884 0
M  V30 17570 H 1666.72 -0.147808 0.722026 0
M  V30 17571 H 1669.37 0.317846 1.87323 0
M  V30 17572 H 1667.52 -1.46597 3.5978 0
M  V30 17573 H 1669.19 0.980014 4.5077 0
M  V30 17574 H 1667.43 0.989294 4.22369 0
M  V30 17575 H 1668.1 -0.00509234 5.52 0
M  V30 17576 H 1670.58 -1.17757 3.9909 0
M  V30 17577 H 1669.45 -1.97427 5.12166 0
M  V30 17578 H 1669.72 -2.66469 3.5277 0
M  V30 17579 N 1668.77 -1.57515 -0.0517878 0
M  V30 17580 C 1670.02 -1.87396 -0.746022 0
M  V30 17581 C 1670.34 -0.817053 -1.77718 0
M  V30 17582 O 1671.54 -1.00435 -2.5224 0
M  V30 17583 C 1670 -3.32481 -1.37783 0
M  V30 17584 C 1669.61 -4.46349 -0.384208 0
M  V30 17585 C 1671.35 -3.71539 -2.05327 0
M  V30 17586 C 1669.26 -5.82484 -1.02307 0
M  V30 17587 H 1668.19 -0.699127 -0.282379 0
M  V30 17588 H 1670.84 -1.835 0.000245524 0
M  V30 17589 H 1669.22 -3.31051 -2.17304 0
M  V30 17590 H 1670.39 -4.59209 0.382639 0
M  V30 17591 H 1668.71 -4.15976 0.187873 0
M  V30 17592 H 1671.31 -4.70553 -2.53936 0
M  V30 17593 H 1671.65 -3.02361 -2.86153 0
M  V30 17594 H 1672.18 -3.75046 -1.32611 0
M  V30 17595 H 1668.92 -6.55005 -0.254704 0
M  V30 17596 H 1668.44 -5.73388 -1.7603 0
M  V30 17597 H 1670.12 -6.28476 -1.5371 0
M  V30 17598 N 1670.25 0.323614 -1.54242 0
M  V30 17599 C 1671.48 1.0811 -1.76408 0
M  V30 17600 C 1671.9 1.81707 -0.512656 0
M  V30 17601 O 1671.25 1.75035 0.516638 0
M  V30 17602 C 1671.3 2.07923 -2.9572 0
M  V30 17603 O 1671.03 1.37317 -4.16024 0
M  V30 17604 C 1672.53 2.95891 -3.30096 0
M  V30 17605 H 1669.75 0.321583 -0.588919 0
M  V30 17606 H 1672.29 0.369756 -2.01129 0
M  V30 17607 H 1670.45 2.74593 -2.73272 0
M  V30 17608 H 1670.86 2.04158 -4.83135 0
M  V30 17609 H 1672.33 3.61822 -4.1688 0
M  V30 17610 H 1672.81 3.62986 -2.47261 0
M  V30 17611 H 1673.42 2.34783 -3.54622 0
M  V30 17612 N 1671.73 1.46313 0.585673 0
M  V30 17613 C 1672.68 1.57018 1.71604 0
M  V30 17614 C 1673.67 0.438838 1.63617 0
M  V30 17615 O 1674.88 0.615597 1.69146 0
M  V30 17616 H 1671.25 0.493616 0.567316 0
M  V30 17617 H 1673.23 2.52065 1.59706 0
M  V30 17618 C 1671.97 1.57482 3.09992 0
M  V30 17619 H 1671.3 2.43872 3.16806 0
M  V30 17620 H 1672.74 1.69027 3.88852 0
M  V30 17621 C 1671.2 0.302944 3.35535 0
M  V30 17622 O 1671.73 -0.608066 3.97071 0
M  V30 17623 N 1669.93 0.191781 2.89966 0
M  V30 17624 H 1669.48 0.934025 2.4007 0
M  V30 17625 H 1669.44 -0.658341 3.0743 0
M  V30 17626 N 1673.21 -0.830057 1.33969 0
M  V30 17627 C 1674.62 -1.40227 1.23261 0
M  V30 17628 C 1674.97 -1.95664 -0.144862 0
M  V30 17629 O 1674.1 -1.89503 -1.04488 0
M  V30 17630 C 1674.69 -2.54913 2.2317 0
M  V30 17631 C 1673.25 -3.08062 2.16274 0
M  V30 17632 C 1672.4 -1.809 2.10168 0
M  V30 17633 H 1675.35 -0.635062 1.4544 0
M  V30 17634 H 1675.37 -3.32801 1.84455 0
M  V30 17635 H 1674.88 -2.14534 3.23414 0
M  V30 17636 H 1672.98 -3.52964 1.19362 0
M  V30 17637 H 1673.1 -3.67637 3.07213 0
M  V30 17638 H 1671.46 -2.01508 1.55778 0
M  V30 17639 H 1672.24 -1.42705 3.12234 0
M  V30 17640 N 1674.69 -1.17582 -1.04939 0
M  V30 17641 C 1676.1 -0.971326 -1.59443 0
M  V30 17642 C 1676.45 0.481308 -1.90205 0
M  V30 17643 O 1675.57 1.35708 -1.6856 0
M  V30 17644 C 1676.17 -1.75685 -2.8969 0
M  V30 17645 C 1674.73 -1.59695 -3.40844 0
M  V30 17646 C 1673.88 -1.75688 -2.14544 0
M  V30 17647 H 1676.83 -1.32254 -0.877188 0
M  V30 17648 H 1676.85 -1.24074 -3.59703 0
M  V30 17649 H 1676.36 -2.81405 -2.67269 0
M  V30 17650 H 1674.46 -0.564746 -3.68295 0
M  V30 17651 H 1674.57 -2.38951 -4.15258 0
M  V30 17652 H 1672.94 -1.18553 -2.25427 0
M  V30 17653 H 1673.72 -2.82825 -1.94589 0
M  V30 17654 N 1676.17 1.23705 -0.976463 0
M  V30 17655 C 1677.4 1.95771 -0.660107 0
M  V30 17656 C 1677.8 1.72541 0.776297 0
M  V30 17657 O 1677.15 1.01134 1.53355 0
M  V30 17658 C 1677.21 3.4892 -0.865752 0
M  V30 17659 C 1676.87 3.95862 -2.28347 0
M  V30 17660 C 1677.87 4.04844 -3.26186 0
M  V30 17661 C 1675.55 4.28953 -2.61351 0
M  V30 17662 C 1677.55 4.46265 -4.55111 0
M  V30 17663 C 1675.24 4.70057 -3.905 0
M  V30 17664 C 1676.23 4.78679 -4.87192 0
M  V30 17665 O 1675.92 5.1886 -6.14035 0
M  V30 17666 H 1675.65 0.630202 -0.244585 0
M  V30 17667 H 1678.21 1.58255 -1.30937 0
M  V30 17668 H 1676.44 3.86372 -0.159321 0
M  V30 17669 H 1678.13 4.02195 -0.547154 0
M  V30 17670 H 1678.89 3.79486 -3.02018 0
M  V30 17671 H 1674.77 4.21456 -1.86803 0
M  V30 17672 H 1678.32 4.5291 -5.30583 0
M  V30 17673 H 1674.21 4.94863 -4.14464 0
M  V30 17674 H 1674.98 5.36984 -6.1773 0
M  V30 17675 N 1677.64 0.747635 1.38738 0
M  V30 17676 C 1678.55 0.117879 2.34304 0
M  V30 17677 C 1679.57 -0.707488 1.58967 0
M  V30 17678 O 1680.75 -0.633025 1.91193 0
M  V30 17679 C 1677.81 -0.769223 3.38059 0
M  V30 17680 C 1676.87 0.0698358 4.29243 0
M  V30 17681 C 1676.1 -0.775021 5.28043 0
M  V30 17682 O 1676.33 -2.01328 5.33688 0
M  V30 17683 O 1675.26 -0.196978 6.01578 0
M  V30 17684 H 1679.09 0.906972 2.89841 0
M  V30 17685 H 1676.67 0.508453 1.40482 0
M  V30 17686 H 1678.55 -1.27641 4.01604 0
M  V30 17687 H 1677.23 -1.53691 2.84887 0
M  V30 17688 H 1676.14 0.622836 3.68879 0
M  V30 17689 H 1677.47 0.80004 4.85654 0
M  V30 17690 N 1679.12 -1.49583 0.496242 0
M  V30 17691 C 1680.37 -2.02438 -0.049963 0
M  V30 17692 C 1680.7 -1.37632 -1.37433 0
M  V30 17693 O 1679.95 -0.499552 -1.89217 0
M  V30 17694 C 1680.25 -3.56482 -0.255949 0
M  V30 17695 C 1679.92 -4.39901 0.989824 0
M  V30 17696 C 1678.58 -4.62417 1.33132 0
M  V30 17697 C 1680.93 -4.88461 1.81811 0
M  V30 17698 C 1678.26 -5.30737 2.50071 0
M  V30 17699 C 1680.61 -5.58067 2.97899 0
M  V30 17700 C 1679.27 -5.7883 3.32434 0
M  V30 17701 H 1678.54 -0.740774 -0.0182828 0
M  V30 17702 H 1681.19 -1.79934 0.655434 0
M  V30 17703 H 1679.5 -3.77639 -1.04383 0
M  V30 17704 H 1681.19 -3.94967 -0.692943 0
M  V30 17705 H 1677.78 -4.22614 0.713811 0
M  V30 17706 H 1681.97 -4.70898 1.56743 0
M  V30 17707 H 1677.22 -5.45015 2.77072 0
M  V30 17708 H 1681.4 -5.9467 3.6241 0
M  V30 17709 H 1679.02 -6.31544 4.23151 0
M  V30 17710 N 1680.6 -0.229873 -1.55915 0
M  V30 17711 C 1681.51 0.687953 -2.24286 0
M  V30 17712 C 1682.53 1.20705 -1.25325 0
M  V30 17713 O 1683.7 1.2469 -1.58159 0
M  V30 17714 C 1680.77 1.87563 -2.91584 0
M  V30 17715 C 1679.83 1.39769 -4.0591 0
M  V30 17716 C 1679.06 2.52876 -4.69989 0
M  V30 17717 O 1679.28 3.71208 -4.33083 0
M  V30 17718 O 1678.22 2.23603 -5.58825 0
M  V30 17719 H 1682.04 0.135464 -3.03398 0
M  V30 17720 H 1679.63 0.000925172 -1.494 0
M  V30 17721 H 1681.51 2.56907 -3.34031 0
M  V30 17722 H 1680.19 2.41606 -2.15426 0
M  V30 17723 H 1679.09 0.672029 -3.68014 0
M  V30 17724 H 1680.43 0.903543 -4.83836 0
M  V30 17725 N 1682.08 1.5754 0.0434337 0
M  V30 17726 C 1683.01 2.08648 1.04824 0
M  V30 17727 C 1683.99 0.985894 1.38615 0
M  V30 17728 O 1685.17 1.2603 1.4775 0
M  V30 17729 C 1682.3 2.55399 2.35348 0
M  V30 17730 C 1681.26 3.69592 2.15837 0
M  V30 17731 C 1680.58 4.02497 3.51995 0
M  V30 17732 C 1681.88 4.98575 1.55629 0
M  V30 17733 H 1683.58 2.9285 0.622849 0
M  V30 17734 H 1681.12 1.40879 0.298158 0
M  V30 17735 H 1683.08 2.89771 3.05958 0
M  V30 17736 H 1681.8 1.68262 2.7992 0
M  V30 17737 H 1680.46 3.35546 1.47663 0
M  V30 17738 H 1680.11 3.12448 3.94189 0
M  V30 17739 H 1679.81 4.79406 3.39771 0
M  V30 17740 H 1681.33 4.39391 4.23991 0
M  V30 17741 H 1682.75 5.30996 2.16138 0
M  V30 17742 H 1681.14 5.79998 1.54021 0
M  V30 17743 H 1682.21 4.82098 0.520567 0
M  V30 17744 N 1683.56 -0.31543 1.54411 0
M  V30 17745 C 1684.8 -1.05396 1.73261 0
M  V30 17746 C 1685.13 -1.87406 0.509171 0
M  V30 17747 O 1684.41 -1.88126 -0.493836 0
M  V30 17748 C 1684.69 -1.97195 3.01308 0
M  V30 17749 C 1684.55 -1.18461 4.33921 0
M  V30 17750 C 1685.86 -2.96594 3.25146 0
M  V30 17751 H 1682.98 -0.381763 0.630417 0
M  V30 17752 H 1685.63 -0.329882 1.87114 0
M  V30 17753 H 1683.78 -2.58936 2.89628 0
M  V30 17754 H 1685.45 -0.591171 4.57496 0
M  V30 17755 H 1683.69 -0.487025 4.31057 0
M  V30 17756 H 1684.36 -1.85909 5.19752 0
M  V30 17757 H 1686.84 -2.44977 3.36341 0
M  V30 17758 H 1685.71 -3.58002 4.16084 0
M  V30 17759 H 1685.97 -3.69487 2.42758 0
M  V30 17760 N 1685.03 -1.46622 -0.577906 0
M  V30 17761 C 1686.45 -1.46287 -1.16004 0
M  V30 17762 C 1686.8 -0.206307 -1.95112 0
M  V30 17763 O 1685.92 0.690275 -2.05096 0
M  V30 17764 C 1686.52 -2.65042 -2.1104 0
M  V30 17765 C 1685.08 -2.67733 -2.64567 0
M  V30 17766 C 1684.22 -2.39053 -1.40531 0
M  V30 17767 H 1687.17 -1.54432 -0.365585 0
M  V30 17768 H 1687.19 -2.40834 -2.94583 0
M  V30 17769 H 1686.71 -3.56481 -1.53436 0
M  V30 17770 H 1684.81 -1.80379 -3.26028 0
M  V30 17771 H 1684.92 -3.67836 -3.06974 0
M  V30 17772 H 1683.28 -1.89209 -1.70506 0
M  V30 17773 H 1684.07 -3.32674 -0.847509 0
M  V30 17774 N 1686.51 0.822941 -1.34408 0
M  V30 17775 C 1687.74 1.61087 -1.2984 0
M  V30 17776 C 1688.16 1.88369 0.127527 0
M  V30 17777 O 1687.51 1.47508 1.0746 0
M  V30 17778 C 1687.56 2.9518 -2.08689 0
M  V30 17779 O 1687.28 2.69089 -3.45721 0
M  V30 17780 C 1688.79 3.89583 -2.11518 0
M  V30 17781 H 1686.01 0.500726 -0.44667 0
M  V30 17782 H 1688.55 1.02391 -1.77021 0
M  V30 17783 H 1686.7 3.50434 -1.6515 0
M  V30 17784 H 1687.12 3.5459 -3.86479 0
M  V30 17785 H 1688.59 4.80835 -2.71111 0
M  V30 17786 H 1689.07 4.24953 -1.10957 0
M  V30 17787 H 1689.68 3.40265 -2.55146 0
M  V30 17788 N 1687.99 1.18137 1.04314 0
M  V30 17789 C 1689.27 0.884901 1.74439 0
M  V30 17790 C 1689.65 -0.612825 2.02009 0
M  V30 17791 O 1689 -1.56679 1.66325 0
M  V30 17792 C 1689.21 1.72944 3.03136 0
M  V30 17793 C 1690.55 1.95491 3.7692 0
M  V30 17794 O 1691.58 1.69976 3.13028 0
M  V30 17795 O 1690.44 2.38426 4.91747 0
M  V30 17796 H 1687.53 0.328481 0.758966 0
M  V30 17797 H 1690.08 1.28878 1.10402 0
M  V30 17798 H 1688.85 2.74485 2.78879 0
M  V30 17799 H 1688.47 1.32392 3.74911 0
M  V30 17800 N 1689.47 -1.23186 0.98301 0
M  V30 17801 C 1690.4 -2.27054 0.544858 0
M  V30 17802 C 1691.38 -1.64749 -0.423281 0
M  V30 17803 O 1692.56 -1.91611 -0.316075 0
M  V30 17804 C 1689.69 -3.46972 -0.150976 0
M  V30 17805 C 1688.65 -4.21647 0.734707 0
M  V30 17806 C 1687.97 -5.34618 -0.0934874 0
M  V30 17807 C 1689.27 -4.81372 2.02679 0
M  V30 17808 H 1690.97 -2.63957 1.41305 0
M  V30 17809 H 1688.51 -1.26885 0.680895 0
M  V30 17810 H 1690.47 -4.18784 -0.468825 0
M  V30 17811 H 1689.19 -3.09137 -1.05364 0
M  V30 17812 H 1687.85 -3.51655 1.03605 0
M  V30 17813 H 1687.5 -4.93025 -0.996768 0
M  V30 17814 H 1687.2 -5.85503 0.496019 0
M  V30 17815 H 1688.72 -6.09251 -0.405658 0
M  V30 17816 H 1690.14 -5.45178 1.77353 0
M  V30 17817 H 1688.53 -5.42554 2.56429 0
M  V30 17818 H 1689.6 -4.01972 2.71194 0
M  V30 17819 N 1690.95 -0.754982 -1.38339 0
M  V30 17820 C 1692.2 -0.308537 -1.99326 0
M  V30 17821 C 1692.51 1.1164 -1.60611 0
M  V30 17822 O 1693.71 1.66339 -2.14578 0
M  V30 17823 C 1692.17 -0.500688 -3.564 0
M  V30 17824 C 1691.78 -1.9348 -4.04066 0
M  V30 17825 C 1693.52 -0.117026 -4.24339 0
M  V30 17826 C 1691.43 -2.07544 -5.53786 0
M  V30 17827 H 1690.36 -0.111611 -0.745694 0
M  V30 17828 H 1693.01 -0.931722 -1.58086 0
M  V30 17829 H 1691.39 0.191702 -3.95536 0
M  V30 17830 H 1692.57 -2.66077 -3.76217 0
M  V30 17831 H 1690.88 -2.27351 -3.48856 0
M  V30 17832 H 1693.48 -0.200847 -5.34323 0
M  V30 17833 H 1693.82 0.930531 -4.05767 0
M  V30 17834 H 1694.35 -0.761323 -3.90447 0
M  V30 17835 H 1691.09 -3.10559 -5.77264 0
M  V30 17836 H 1690.61 -1.39409 -5.83374 0
M  V30 17837 H 1692.29 -1.86605 -6.19506 0
M  V30 17838 N 1692.42 1.49318 -0.504168 0
M  V30 17839 C 1693.67 2.02462 0.0392265 0
M  V30 17840 C 1694 1.38359 1.36701 0
M  V30 17841 O 1693.25 0.509579 1.88949 0
M  V30 17842 C 1693.55 3.56613 0.237041 0
M  V30 17843 C 1693.22 4.3937 -1.01314 0
M  V30 17844 C 1691.88 4.61704 -1.35583 0
M  V30 17845 C 1694.23 4.8749 -1.84399 0
M  V30 17846 C 1691.56 5.29403 -2.52882 0
M  V30 17847 C 1693.91 5.56479 -3.00854 0
M  V30 17848 C 1692.58 5.77058 -3.35499 0
M  V30 17849 H 1691.85 0.740861 0.014354 0
M  V30 17850 H 1694.49 1.79584 -0.664967 0
M  V30 17851 H 1692.8 3.78188 1.02379 0
M  V30 17852 H 1694.5 3.95329 0.671987 0
M  V30 17853 H 1691.09 4.2223 -0.736213 0
M  V30 17854 H 1695.27 4.7006 -1.59238 0
M  V30 17855 H 1690.53 5.43538 -2.79958 0
M  V30 17856 H 1694.7 5.9274 -3.65558 0
M  V30 17857 H 1692.33 6.29291 -4.26494 0
M  V30 17858 N 1693.9 0.238138 1.5579 0
M  V30 17859 C 1695.14 -0.390675 2.00632 0
M  V30 17860 C 1695.51 -1.55763 1.12258 0
M  V30 17861 O 1696.71 -2.25358 1.46517 0
M  V30 17862 C 1694.98 -0.798483 3.48366 0
M  V30 17863 S 1696.54 -1.41906 4.15221 0
M  V30 17864 H 1693.36 -0.123312 0.700225 0
M  V30 17865 H 1695.96 0.351318 1.92317 0
M  V30 17866 H 1694.66 0.060261 4.10356 0
M  V30 17867 H 1694.19 -1.57288 3.60589 0
M  V30 17868 H 1696.21 -2.70814 4.15781 0
M  V30 17869 N 1695.38 -1.57561 -0.0350783 0
M  V30 17870 C 1696.31 -2.09201 -1.03716 0
M  V30 17871 C 1697.29 -0.993231 -1.3809 0
M  V30 17872 O 1698.48 -1.26812 -1.47079 0
M  V30 17873 C 1695.61 -2.56643 -2.3399 0
M  V30 17874 C 1694.56 -3.70731 -2.13874 0
M  V30 17875 C 1693.89 -4.04358 -3.49855 0
M  V30 17876 C 1695.19 -4.99393 -1.52982 0
M  V30 17877 H 1696.88 -2.93176 -0.60731 0
M  V30 17878 H 1694.43 -1.41036 -0.290683 0
M  V30 17879 H 1696.38 -2.9139 -3.04417 0
M  V30 17880 H 1695.1 -1.69744 -2.79024 0
M  V30 17881 H 1693.76 -3.36325 -1.45881 0
M  V30 17882 H 1693.41 -3.14534 -3.92527 0
M  V30 17883 H 1693.11 -4.81201 -3.37223 0
M  V30 17884 H 1694.63 -4.41633 -4.21654 0
M  V30 17885 H 1696.05 -5.32135 -2.13319 0
M  V30 17886 H 1694.45 -5.80807 -1.50943 0
M  V30 17887 H 1695.52 -4.82367 -0.494993 0
M  V30 17888 N 1696.86 0.307236 -1.54576 0
M  V30 17889 C 1697.79 1.4031 -1.79968 0
M  V30 17890 C 1698.77 1.4902 -0.650513 0
M  V30 17891 O 1699.95 1.66178 -0.889778 0
M  V30 17892 C 1697.08 2.78274 -1.93083 0
M  V30 17893 C 1696.13 2.87017 -3.15473 0
M  V30 17894 S 1696.96 2.49751 -4.73693 0
M  V30 17895 C 1698.12 3.89755 -4.89736 0
M  V30 17896 H 1698.35 1.18562 -2.72636 0
M  V30 17897 H 1695.88 0.504999 -1.45908 0
M  V30 17898 H 1697.84 3.57741 -2.01325 0
M  V30 17899 H 1696.5 2.97295 -1.01364 0
M  V30 17900 H 1695.69 3.88196 -3.21434 0
M  V30 17901 H 1695.3 2.15539 -3.05645 0
M  V30 17902 H 1697.59 4.84687 -4.73376 0
M  V30 17903 H 1698.53 3.88768 -5.91832 0
M  V30 17904 H 1698.94 3.79468 -4.17928 0
M  V30 17905 N 1698.34 1.46926 0.570122 0
M  V30 17906 C 1699.27 1.54487 1.69311 0
M  V30 17907 C 1700.28 0.432119 1.5696 0
M  V30 17908 O 1701.47 0.701107 1.64155 0
M  V30 17909 C 1698.57 1.42093 3.07673 0
M  V30 17910 C 1697.74 2.6771 3.45905 0
M  V30 17911 C 1696.8 2.49336 4.63377 0
M  V30 17912 O 1695.83 3.23107 4.68605 0
M  V30 17913 N 1697.03 1.56319 5.59057 0
M  V30 17914 H 1699.8 2.51319 1.63276 0
M  V30 17915 H 1697.36 1.43142 0.756434 0
M  V30 17916 H 1699.35 1.27554 3.84073 0
M  V30 17917 H 1697.92 0.533945 3.08006 0
M  V30 17918 H 1697.14 2.97102 2.59083 0
M  V30 17919 H 1698.43 3.51131 3.68218 0
M  V30 17920 H 1697.82 0.955109 5.57579 0
M  V30 17921 H 1696.38 1.47738 6.34836 0
M  V30 17922 N 1699.82 -0.815801 1.34842 0
M  V30 17923 C 1701.06 -1.57241 1.27599 0
M  V30 17924 C 1701.39 -1.93904 -0.152127 0
M  V30 17925 O 1700.65 -1.60819 -1.11515 0
M  V30 17926 C 1700.94 -2.87795 2.11917 0
M  V30 17927 C 1700.61 -2.70392 3.60831 0
M  V30 17928 C 1699.27 -2.65353 4.01424 0
M  V30 17929 C 1701.62 -2.53569 4.55359 0
M  V30 17930 C 1698.95 -2.41422 5.34726 0
M  V30 17931 C 1701.3 -2.31169 5.8885 0
M  V30 17932 C 1699.97 -2.24546 6.28598 0
M  V30 17933 H 1699.24 -0.575386 0.466918 0
M  V30 17934 H 1701.89 -0.943355 1.66653 0
M  V30 17935 H 1700.19 -3.5503 1.65714 0
M  V30 17936 H 1701.89 -3.45436 2.03654 0
M  V30 17937 H 1698.48 -2.75157 3.28613 0
M  V30 17938 H 1702.66 -2.5648 4.2489 0
M  V30 17939 H 1697.92 -2.34758 5.64534 0
M  V30 17940 H 1702.09 -2.1714 6.61682 0
M  V30 17941 H 1699.72 -2.05765 7.31823 0
M  V30 17942 N 1701.29 -1.18689 -1.03686 0
M  V30 17943 C 1702.57 -0.89414 -1.73967 0
M  V30 17944 C 1702.95 0.602104 -2.02331 0
M  V30 17945 O 1702.3 1.55794 -1.67154 0
M  V30 17946 C 1702.51 -1.74549 -3.02214 0
M  V30 17947 C 1703.86 -1.97487 -3.75878 0
M  V30 17948 O 1704.88 -1.71634 -3.12122 0
M  V30 17949 O 1703.74 -2.41031 -4.90476 0
M  V30 17950 H 1700.83 -0.332501 -0.757213 0
M  V30 17951 H 1703.38 -1.29461 -1.09717 0
M  V30 17952 H 1702.15 -2.75961 -2.77419 0
M  V30 17953 H 1701.77 -1.34378 -3.74204 0
M  V30 17954 N 1702.77 1.22662 -0.989529 0
M  V30 17955 C 1703.72 2.22262 -0.508279 0
M  V30 17956 C 1704.71 1.55276 0.421694 0
M  V30 17957 O 1705.9 1.75239 0.249062 0
M  V30 17958 C 1703.03 3.42833 0.179058 0
M  V30 17959 C 1702.11 4.17032 -0.771021 0
M  V30 17960 N 1702.5 4.68046 -1.91746 0
M  V30 17961 C 1700.8 4.42131 -0.586208 0
M  V30 17962 C 1701.5 5.24592 -2.51352 0
M  V30 17963 N 1700.48 5.13056 -1.79652 0
M  V30 17964 H 1704.28 2.59343 -1.3827 0
M  V30 17965 H 1701.79 1.38295 -0.85136 0
M  V30 17966 H 1703.79 4.13372 0.541196 0
M  V30 17967 H 1702.45 3.07266 1.04965 0
M  V30 17968 H 1703.46 4.64107 -2.29836 0
M  V30 17969 H 1700.14 4.16818 0.238604 0
M  V30 17970 H 1701.53 5.74623 -3.48221 0
M  V30 17971 N 1704.25 0.762308 1.37937 0
M  V30 17972 C 1705.2 0.129897 2.32237 0
M  V30 17973 C 1706.19 -0.695577 1.54461 0
M  V30 17974 O 1707.4 -0.593697 1.69927 0
M  V30 17975 H 1703.77 0.023214 0.751642 0
M  V30 17976 H 1705.74 0.941144 2.8317 0
M  V30 17977 C 1704.49 -0.742235 3.39685 0
M  V30 17978 H 1703.82 -0.116427 3.9963 0
M  V30 17979 H 1705.26 -1.15187 4.08054 0
M  V30 17980 C 1703.71 -1.8887 2.7898 0
M  V30 17981 O 1704.24 -2.98351 2.68979 0
M  V30 17982 N 1702.45 -1.68642 2.36661 0
M  V30 17983 H 1702 -0.795945 2.44995 0
M  V30 17984 H 1701.96 -2.45519 1.96387 0
M  V30 17985 N 1705.73 -1.49049 0.51208 0
M  V30 17986 C 1706.69 -2.27838 -0.249491 0
M  V30 17987 C 1707.69 -1.34321 -0.884004 0
M  V30 17988 O 1708.88 -1.57379 -0.74682 0
M  V30 17989 C 1706.01 -3.12637 -1.35908 0
M  V30 17990 H 1707.21 -2.96625 0.442029 0
M  V30 17991 H 1704.76 -1.53996 0.267406 0
M  V30 17992 H 1705.49 -2.48441 -2.0844 0
M  V30 17993 H 1705.28 -3.81408 -0.909427 0
M  V30 17994 H 1706.77 -3.72117 -1.89523 0
M  V30 17995 N 1707.21 -0.246397 -1.55662 0
M  V30 17996 C 1708.45 0.377739 -1.98539 0
M  V30 17997 C 1708.77 1.58504 -1.13585 0
M  V30 17998 O 1708.04 1.94677 -0.218528 0
M  V30 17999 H 1706.62 0.142554 -0.733272 0
M  V30 18000 H 1709.29 -0.345069 -1.91821 0
M  V30 18001 H 1708.38 0.687224 -3.0444 0
M  V30 18002 N 1708.68 1.57577 0.026722 0
M  V30 18003 C 1709.62 2.03515 1.05424 0
M  V30 18004 C 1710.63 0.948362 1.32325 0
M  V30 18005 O 1711.82 1.22563 1.29771 0
M  V30 18006 C 1708.92 2.39744 2.39533 0
M  V30 18007 C 1708.09 3.70832 2.31954 0
M  V30 18008 C 1707.15 3.94224 3.48531 0
M  V30 18009 O 1706.18 4.6525 3.27919 0
M  V30 18010 N 1707.38 3.40044 4.70479 0
M  V30 18011 H 1710.14 2.92282 0.662678 0
M  V30 18012 H 1707.7 1.60471 0.214623 0
M  V30 18013 H 1709.7 2.52529 3.16245 0
M  V30 18014 H 1708.27 1.56636 2.70525 0
M  V30 18015 H 1707.49 3.68378 1.40325 0
M  V30 18016 H 1708.77 4.56821 2.24035 0
M  V30 18017 H 1708.17 2.82478 4.90125 0
M  V30 18018 H 1706.73 3.58205 5.44548 0
M  V30 18019 N 1710.16 -0.299034 1.54737 0
M  V30 18020 C 1711.39 -1.05723 1.7843 0
M  V30 18021 C 1711.81 -1.80089 0.543094 0
M  V30 18022 O 1711.17 -1.74083 -0.506438 0
M  V30 18023 C 1711.22 -2.01193 2.99255 0
M  V30 18024 O 1710.32 -3.09528 2.72518 0
M  V30 18025 H 1709.66 -0.303614 0.590521 0
M  V30 18026 H 1712.19 -0.335859 2.01825 0
M  V30 18027 H 1712.2 -2.43623 3.27279 0
M  V30 18028 H 1710.88 -1.46472 3.89254 0
M  V30 18029 H 1709.45 -2.71599 2.55516 0
M  V30 18030 N 1711.64 -1.47227 -0.562322 0
M  V30 18031 C 1713.06 -1.32632 -0.887745 0
M  V30 18032 C 1713.26 -0.312972 -1.99055 0
M  V30 18033 O 1712.31 0.277309 -2.50973 0
M  V30 18034 C 1713.62 -2.71822 -1.28581 0
M  V30 18035 C 1715.17 -2.80068 -1.39753 0
M  V30 18036 C 1715.65 -4.19887 -1.82917 0
M  V30 18037 N 1717.14 -4.22404 -1.90077 0
M  V30 18038 C 1717.87 -5.27499 -2.24793 0
M  V30 18039 N 1717.37 -6.42904 -2.58159 0
M  V30 18040 N 1719.16 -5.14874 -2.25523 0
M  V30 18041 H 1711.31 -2.11752 0.165835 0
M  V30 18042 H 1713.58 -0.94793 0.0115238 0
M  V30 18043 H 1713.28 -3.47383 -0.549361 0
M  V30 18044 H 1713.16 -3.0326 -2.24306 0
M  V30 18045 H 1715.54 -2.04783 -2.1248 0
M  V30 18046 H 1715.62 -2.5229 -0.422286 0
M  V30 18047 H 1715.27 -4.95676 -1.10761 0
M  V30 18048 H 1715.2 -4.45086 -2.81436 0
M  V30 18049 H 1717.69 -3.39146 -1.66698 0
M  V30 18050 H 1718 -7.18857 -2.83662 0
M  V30 18051 H 1716.35 -6.46232 -2.55751 0
M  V30 18052 H 1719.54 -4.23745 -1.98892 0
M  V30 18053 H 1719.71 -5.96887 -2.5225 0
M  V30 18054 N 1713.12 0.808639 -1.35273 0
M  V30 18055 C 1714.08 1.90195 -1.279 0
M  V30 18056 C 1715.08 1.59663 -0.190915 0
M  V30 18057 O 1716.27 1.68434 -0.444482 0
M  V30 18058 C 1713.4 3.26567 -0.978106 0
M  V30 18059 H 1714.6 1.98152 -2.25113 0
M  V30 18060 H 1712.15 1.00426 -1.19767 0
M  V30 18061 H 1712.88 3.24299 -0.00975789 0
M  V30 18062 H 1712.67 3.50114 -1.7653 0
M  V30 18063 H 1714.16 4.06602 -0.95207 0
M  V30 18064 N 1714.6 1.19237 1.03055 0
M  V30 18065 C 1715.82 1.01983 1.80594 0
M  V30 18066 C 1716.25 -0.426875 1.83192 0
M  V30 18067 O 1715.6 -1.30678 1.2567 0
M  V30 18068 C 1715.65 1.59139 3.23585 0
M  V30 18069 O 1714.76 0.819576 4.04174 0
M  V30 18070 H 1714.1 0.360585 0.557561 0
M  V30 18071 H 1716.63 1.58222 1.29719 0
M  V30 18072 H 1716.64 1.62283 3.74337 0
M  V30 18073 H 1715.31 2.64436 3.21009 0
M  V30 18074 H 1713.89 0.861253 3.62818 0
M  V30 18075 N 1716.07 -1.22136 0.99602 0
M  V30 18076 C 1717 -2.26463 0.568909 0
M  V30 18077 C 1717.99 -1.65189 -0.405783 0
M  V30 18078 O 1719.17 -1.91935 -0.295735 0
M  V30 18079 C 1716.3 -3.47112 -0.114166 0
M  V30 18080 C 1715.25 -4.20844 0.779387 0
M  V30 18081 C 1714.58 -5.34687 -0.0367787 0
M  V30 18082 C 1715.88 -4.79195 2.07773 0
M  V30 18083 H 1717.57 -2.62443 1.44097 0
M  V30 18084 H 1715.12 -1.26156 0.694314 0
M  V30 18085 H 1717.07 -4.19258 -0.424381 0
M  V30 18086 H 1715.8 -3.10238 -1.02079 0
M  V30 18087 H 1714.46 -3.50537 1.07329 0
M  V30 18088 H 1714.1 -4.94054 -0.94442 0
M  V30 18089 H 1713.8 -5.84944 0.558092 0
M  V30 18090 H 1715.33 -6.09647 -0.341016 0
M  V30 18091 H 1716.74 -5.43266 1.83126 0
M  V30 18092 H 1715.14 -5.39803 2.62169 0
M  V30 18093 H 1716.21 -3.99073 2.75442 0
M  V30 18094 N 1717.55 -0.769612 -1.37531 0
M  V30 18095 C 1718.78 -0.343069 -2.04543 0
M  V30 18096 C 1719.2 1.02583 -1.57665 0
M  V30 18097 O 1718.56 1.65692 -0.735915 0
M  V30 18098 C 1718.61 -0.392914 -3.58453 0
M  V30 18099 O 1717.71 0.607401 -4.07902 0
M  V30 18100 H 1717.05 -0.148905 -0.647088 0
M  V30 18101 H 1719.58 -1.04521 -1.75888 0
M  V30 18102 H 1719.59 -0.24945 -4.07237 0
M  V30 18103 H 1718.27 -1.39159 -3.91928 0
M  V30 18104 H 1716.85 0.427231 -3.70445 0
M  V30 18105 N 1719.03 1.48775 -0.519977 0
M  V30 18106 C 1719.98 2.26421 0.267886 0
M  V30 18107 C 1720.96 1.32087 0.918795 0
M  V30 18108 O 1722.16 1.56689 0.823256 0
M  V30 18109 C 1719.29 3.16896 1.3203 0
M  V30 18110 C 1718.37 4.18699 0.674688 0
M  V30 18111 N 1718.76 5.05259 -0.233769 0
M  V30 18112 C 1717.06 4.3613 0.933071 0
M  V30 18113 C 1717.76 5.78543 -0.605233 0
M  V30 18114 N 1716.74 5.43591 0.0313426 0
M  V30 18115 H 1720.54 2.9072 -0.43116 0
M  V30 18116 H 1718.05 1.58858 -0.337322 0
M  V30 18117 H 1720.05 3.71171 1.89836 0
M  V30 18118 H 1718.71 2.5415 2.02083 0
M  V30 18119 H 1719.72 5.14345 -0.605766 0
M  V30 18120 H 1716.4 3.84581 1.62492 0
M  V30 18121 H 1717.79 6.58207 -1.34957 0
M  V30 18122 N 1720.51 0.254649 1.55529 0
M  V30 18123 C 1721.73 -0.374795 2.03985 0
M  V30 18124 C 1722.16 -1.50188 1.13249 0
M  V30 18125 O 1721.52 -1.80855 0.126963 0
M  V30 18126 C 1721.56 -0.852635 3.50375 0
M  V30 18127 O 1720.67 -1.9616 3.6276 0
M  V30 18128 H 1720.01 -0.0806157 0.659088 0
M  V30 18129 H 1722.54 0.38297 2.00984 0
M  V30 18130 H 1722.55 -1.15381 3.91345 0
M  V30 18131 H 1721.22 -0.0279044 4.15891 0
M  V30 18132 H 1719.8 -1.66453 3.33688 0
M  V30 18133 N 1721.99 -1.57589 -0.0183649 0
M  V30 18134 C 1723.21 -1.94421 -0.722172 0
M  V30 18135 C 1723.64 -0.855471 -1.67521 0
M  V30 18136 O 1722.99 0.187954 -1.80323 0
M  V30 18137 C 1723.04 -3.30331 -1.44615 0
M  V30 18138 O 1722.15 -3.23337 -2.55982 0
M  V30 18139 H 1721.49 -0.63519 -0.193466 0
M  V30 18140 H 1724.02 -2.04579 0.0293527 0
M  V30 18141 H 1724.03 -3.65471 -1.8137 0
M  V30 18142 H 1722.7 -4.09132 -0.747256 0
M  V30 18143 H 1721.28 -2.99845 -2.21692 0
M  V30 18144 N 1723.46 0.290824 -1.54893 0
M  V30 18145 C 1724.41 1.36087 -1.82933 0
M  V30 18146 C 1725.4 1.45492 -0.687082 0
M  V30 18147 O 1726.59 1.49473 -0.947984 0
M  V30 18148 C 1723.72 2.72421 -2.08906 0
M  V30 18149 C 1722.81 2.67197 -3.29342 0
M  V30 18150 N 1723.2 2.3159 -4.49666 0
M  V30 18151 C 1721.49 2.98286 -3.31574 0
M  V30 18152 C 1722.2 2.35917 -5.31712 0
M  V30 18153 N 1721.17 2.7368 -4.69681 0
M  V30 18154 H 1724.97 1.07537 -2.7352 0
M  V30 18155 H 1722.49 0.49943 -1.5453 0
M  V30 18156 H 1724.48 3.49587 -2.27144 0
M  V30 18157 H 1723.14 3.01874 -1.19593 0
M  V30 18158 H 1724.16 2.0387 -4.76085 0
M  V30 18159 H 1720.83 3.32567 -2.52399 0
M  V30 18160 H 1722.22 2.111 -6.37876 0
M  V30 18161 N 1724.94 1.47523 0.554506 0
M  V30 18162 C 1726.17 1.58154 1.34172 0
M  V30 18163 C 1726.59 0.233124 1.8665 0
M  V30 18164 O 1725.95 -0.791439 1.63113 0
M  V30 18165 C 1726 2.61242 2.48566 0
M  V30 18166 O 1725.1 2.167 3.50877 0
M  V30 18167 H 1724.44 0.531184 0.398421 0
M  V30 18168 H 1726.97 1.93324 0.669841 0
M  V30 18169 H 1726.98 2.81746 2.95098 0
M  V30 18170 H 1725.66 3.59148 2.09727 0
M  V30 18171 H 1724.24 2.06305 3.10632 0
M  V30 18172 N 1726.42 -0.801453 1.357 0
M  V30 18173 C 1727.65 -1.59518 1.32547 0
M  V30 18174 C 1728.07 -1.87868 -0.0934243 0
M  V30 18175 O 1727.43 -1.46955 -1.06179 0
M  V30 18176 C 1727.48 -2.90028 2.14281 0
M  V30 18177 O 1726.58 -3.83086 1.52704 0
M  V30 18178 H 1725.92 -0.48434 0.454215 0
M  V30 18179 H 1728.45 -0.994315 1.78814 0
M  V30 18180 H 1728.46 -3.39406 2.26423 0
M  V30 18181 H 1727.14 -2.6872 3.17431 0
M  V30 18182 H 1725.71 -3.4165 1.49432 0
M  V30 18183 N 1727.9 -1.19782 -1.02421 0
M  V30 18184 C 1728.83 -0.897544 -2.10895 0
M  V30 18185 C 1729.84 0.111644 -1.62417 0
M  V30 18186 O 1731.03 -0.118381 -1.78107 0
M  V30 18187 C 1728.13 -0.322714 -3.3736 0
M  V30 18188 C 1727.31 -1.38159 -4.15007 0
M  V30 18189 C 1726.36 -0.819462 -5.1978 0
M  V30 18190 O 1725.39 -1.4983 -5.49126 0
M  V30 18191 N 1726.59 0.374925 -5.79288 0
M  V30 18192 H 1729.36 -1.83127 -2.37243 0
M  V30 18193 H 1726.92 -1.10045 -1.1875 0
M  V30 18194 H 1728.91 0.0673046 -4.04644 0
M  V30 18195 H 1727.48 0.5154 -3.08322 0
M  V30 18196 H 1726.7 -1.94627 -3.42803 0
M  V30 18197 H 1727.99 -2.09496 -4.63669 0
M  V30 18198 H 1727.39 0.943856 -5.5777 0
M  V30 18199 H 1725.94 0.706668 -6.47958 0
M  V30 18200 N 1729.38 1.21606 -1.00248 0
M  V30 18201 C 1730.6 1.95149 -0.702249 0
M  V30 18202 C 1731.03 1.73429 0.728293 0
M  V30 18203 O 1730.39 1.01953 1.49917 0
M  V30 18204 C 1730.43 3.45705 -1.0257 0
M  V30 18205 O 1729.54 4.12196 -0.129575 0
M  V30 18206 H 1728.88 0.610173 -0.261888 0
M  V30 18207 H 1731.41 1.54435 -1.34205 0
M  V30 18208 H 1731.42 3.96265 -0.97151 0
M  V30 18209 H 1730.09 3.60838 -2.06806 0
M  V30 18210 H 1728.67 3.72126 -0.240074 0
M  V30 18211 N 1730.86 0.776895 1.37121 0
M  V30 18212 C 1732.08 0.353911 2.04358 0
M  V30 18213 C 1732.51 -1.01745 1.58207 0
M  V30 18214 O 1731.86 -1.653 0.744691 0
M  V30 18215 C 1731.91 0.411918 3.5824 0
M  V30 18216 O 1731.02 -0.58576 4.08219 0
M  V30 18217 H 1730.36 0.152335 0.64629 0
M  V30 18218 H 1732.89 1.05452 1.75331 0
M  V30 18219 H 1732.9 0.271043 4.07099 0
M  V30 18220 H 1731.57 1.41236 3.91185 0
M  V30 18221 H 1730.15 -0.40758 3.70666 0
M  V30 18222 N 1732.33 -1.48497 0.527859 0
M  V30 18223 C 1733.56 -2.07399 -0.00510725 0
M  V30 18224 C 1733.98 -1.38211 -1.2759 0
M  V30 18225 O 1733.34 -0.447373 -1.75694 0
M  V30 18226 C 1733.39 -3.59963 -0.214295 0
M  V30 18227 O 1732.49 -3.91921 -1.28342 0
M  V30 18228 H 1731.83 -0.662901 0.0381838 0
M  V30 18229 H 1734.36 -1.90936 0.735166 0
M  V30 18230 H 1734.37 -4.05646 -0.437604 0
M  V30 18231 H 1733.05 -4.09725 0.714028 0
M  V30 18232 H 1731.63 -3.58019 -1.04293 0
M  V30 18233 N 1733.81 -0.262893 -1.55392 0
M  V30 18234 C 1734.76 0.629853 -2.22039 0
M  V30 18235 C 1735.73 1.15915 -1.18966 0
M  V30 18236 O 1736.91 1.21069 -1.47468 0
M  V30 18237 C 1734.05 1.8138 -2.9359 0
M  V30 18238 C 1733.17 1.31952 -4.11355 0
M  V30 18239 C 1732.3 2.4643 -4.7058 0
M  V30 18240 C 1731.34 1.93944 -5.80562 0
M  V30 18241 N 1730.48 3.01848 -6.33902 0
M  V30 18242 H 1735.32 0.0548473 -2.9795 0
M  V30 18243 H 1732.85 0.0153072 -1.47092 0
M  V30 18244 H 1734.81 2.50955 -3.33283 0
M  V30 18245 H 1733.44 2.36103 -2.20125 0
M  V30 18246 H 1732.49 0.517281 -3.76866 0
M  V30 18247 H 1733.81 0.894993 -4.90705 0
M  V30 18248 H 1732.96 3.2402 -5.12929 0
M  V30 18249 H 1731.7 2.92193 -3.9048 0
M  V30 18250 H 1730.7 1.1483 -5.37675 0
M  V30 18251 H 1731.93 1.49132 -6.62523 0
M  V30 18252 H 1729.88 3.47015 -5.56701 0
M  V30 18253 H 1729.79 2.63775 -7.08491 0
M  V30 18254 H 1731.06 3.79449 -6.8091 0
M  V30 18255 N 1735.29 1.57597 0.0100073 0
M  V30 18256 C 1736.24 2.07788 1.00463 0
M  V30 18257 C 1737.21 0.971101 1.34755 0
M  V30 18258 O 1738.39 1.2429 1.44764 0
M  V30 18259 C 1735.53 2.57769 2.29454 0
M  V30 18260 C 1734.64 3.8231 2.01153 0
M  V30 18261 C 1733.78 4.2083 3.24154 0
M  V30 18262 C 1732.82 5.38236 2.91494 0
M  V30 18263 N 1731.96 5.72096 4.07001 0
M  V30 18264 H 1736.8 2.92504 0.569675 0
M  V30 18265 H 1734.33 1.44607 0.269645 0
M  V30 18266 H 1736.29 2.84821 3.04849 0
M  V30 18267 H 1734.92 1.75942 2.70637 0
M  V30 18268 H 1733.97 3.62227 1.16171 0
M  V30 18269 H 1735.28 4.67811 1.73074 0
M  V30 18270 H 1734.44 4.49111 4.07902 0
M  V30 18271 H 1733.18 3.34019 3.55363 0
M  V30 18272 H 1732.18 5.09688 2.06151 0
M  V30 18273 H 1733.41 6.26716 2.61543 0
M  V30 18274 H 1731.35 4.88243 4.38126 0
M  V30 18275 H 1731.27 6.52148 3.82411 0
M  V30 18276 H 1732.54 6.04964 4.91567 0
M  V30 18277 N 1736.77 -0.282606 1.55045 0
M  V30 18278 C 1737.99 -1.03825 1.79542 0
M  V30 18279 C 1738.42 -1.79503 0.562165 0
M  V30 18280 O 1737.78 -1.7461 -0.487946 0
M  V30 18281 C 1737.82 -1.98007 3.01373 0
M  V30 18282 O 1736.93 -3.06621 2.75785 0
M  V30 18283 H 1736.27 -0.297333 0.593708 0
M  V30 18284 H 1738.8 -0.314434 2.02169 0
M  V30 18285 H 1738.81 -2.40138 3.29845 0
M  V30 18286 H 1737.48 -1.42335 3.90786 0
M  V30 18287 H 1736.06 -2.68874 2.58382 0
M  V30 18288 N 1738.25 -1.47815 -0.546675 0
M  V30 18289 C 1739.47 -1.58864 -1.33331 0
M  V30 18290 C 1739.9 -0.24302 -1.86524 0
M  V30 18291 O 1739.25 0.782777 -1.63531 0
M  V30 18292 C 1739.3 -2.62556 -2.47177 0
M  V30 18293 O 1738.41 -2.18558 -3.49723 0
M  V30 18294 H 1737.75 -0.53329 -0.395598 0
M  V30 18295 H 1740.28 -1.93677 -0.659579 0
M  V30 18296 H 1740.29 -2.83307 -2.936 0
M  V30 18297 H 1738.96 -3.60255 -2.0782 0
M  V30 18298 H 1737.54 -2.0795 -3.09534 0
M  V30 18299 N 1739.72 0.794246 -1.36123 0
M  V30 18300 C 1740.95 1.58813 -1.33391 0
M  V30 18301 C 1741.37 1.87915 0.0834599 0
M  V30 18302 O 1740.73 1.47516 1.05398 0
M  V30 18303 C 1740.78 2.88887 -2.15816 0
M  V30 18304 O 1739.88 3.82271 -1.54734 0
M  V30 18305 H 1739.22 0.481924 -0.456777 0
M  V30 18306 H 1741.75 0.984818 -1.79339 0
M  V30 18307 H 1741.76 3.38201 -2.2822 0
M  V30 18308 H 1740.44 2.67032 -3.18852 0
M  V30 18309 H 1739.02 3.40852 -1.51242 0
M  V30 18310 N 1741.2 1.20323 1.01785 0
M  V30 18311 C 1742.45 1.01413 1.75623 0
M  V30 18312 C 1742.78 -0.452801 1.88847 0
M  V30 18313 O 1742.06 -1.33618 1.41338 0
M  V30 18314 C 1742.34 1.69686 3.17614 0
M  V30 18315 C 1742.19 3.23815 3.12192 0
M  V30 18316 C 1743.51 1.42891 4.16257 0
M  V30 18317 H 1740.63 0.369822 0.637495 0
M  V30 18318 H 1743.27 1.4832 1.18749 0
M  V30 18319 H 1741.42 1.29806 3.66173 0
M  V30 18320 H 1743.09 3.72981 2.71446 0
M  V30 18321 H 1741.34 3.54785 2.4962 0
M  V30 18322 H 1742.01 3.66741 4.12559 0
M  V30 18323 H 1744.48 1.77486 3.76348 0
M  V30 18324 H 1743.36 1.93195 5.13777 0
M  V30 18325 H 1743.62 0.356263 4.40662 0
M  V30 18326 N 1742.68 -1.21073 1.00892 0
M  V30 18327 C 1743.63 -2.21426 0.543574 0
M  V30 18328 C 1744.61 -1.55927 -0.396938 0
M  V30 18329 O 1745.81 -1.75613 -0.221152 0
M  V30 18330 C 1742.93 -3.43074 -0.124494 0
M  V30 18331 C 1742.02 -4.15753 0.837269 0
M  V30 18332 N 1742.41 -4.64936 1.99168 0
M  V30 18333 C 1740.71 -4.41142 0.656473 0
M  V30 18334 C 1741.41 -5.20527 2.59666 0
M  V30 18335 N 1740.39 -5.10133 1.87792 0
M  V30 18336 H 1744.19 -2.5711 1.42378 0
M  V30 18337 H 1741.7 -1.36923 0.873254 0
M  V30 18338 H 1743.7 -4.14181 -0.475363 0
M  V30 18339 H 1742.36 -3.08897 -1.00064 0
M  V30 18340 H 1743.37 -4.60392 2.37191 0
M  V30 18341 H 1740.05 -4.17144 -0.172261 0
M  V30 18342 H 1741.44 -5.69011 3.57318 0
M  V30 18343 N 1744.16 -0.784156 -1.36707 0
M  V30 18344 C 1745.38 -0.364744 -2.04168 0
M  V30 18345 C 1745.81 1.00905 -1.58745 0
M  V30 18346 O 1745.17 1.64903 -0.753447 0
M  V30 18347 C 1745.21 -0.43091 -3.58016 0
M  V30 18348 O 1744.32 0.564103 -4.08524 0
M  V30 18349 H 1743.66 -0.15576 -0.645473 0
M  V30 18350 H 1746.19 -1.0638 -1.74769 0
M  V30 18351 H 1746.2 -0.292629 -4.06949 0
M  V30 18352 H 1744.87 -1.43308 -3.9043 0
M  V30 18353 H 1743.45 0.387917 -3.70877 0
M  V30 18354 N 1745.64 1.48215 -0.535727 0
M  V30 18355 C 1746.89 2.017 -0.0016958 0
M  V30 18356 C 1747.2 1.41756 1.34776 0
M  V30 18357 O 1748.4 1.86774 1.97048 0
M  V30 18358 C 1746.86 3.59869 0.0473588 0
M  V30 18359 C 1746.47 4.28798 -1.29754 0
M  V30 18360 C 1748.21 4.21179 0.529915 0
M  V30 18361 C 1746.12 5.78915 -1.20876 0
M  V30 18362 H 1745.05 0.753993 0.00313606 0
M  V30 18363 H 1747.7 1.70421 -0.680368 0
M  V30 18364 H 1746.08 3.88015 0.791229 0
M  V30 18365 H 1747.26 4.12318 -2.05743 0
M  V30 18366 H 1745.57 3.79384 -1.7163 0
M  V30 18367 H 1748.17 5.31158 0.614396 0
M  V30 18368 H 1748.51 3.86887 1.53702 0
M  V30 18369 H 1749.04 3.97484 -0.158445 0
M  V30 18370 H 1745.78 6.17792 -2.1912 0
M  V30 18371 H 1745.3 5.97792 -0.490333 0
M  V30 18372 H 1746.98 6.40684 -0.901824 0
M  V30 18373 N 1747.11 0.27113 1.5525 0
M  V30 18374 C 1748.53 -0.2274 1.8531 0
M  V30 18375 C 1748.88 -1.55752 1.19314 0
M  V30 18376 O 1748 -2.11008 0.480046 0
M  V30 18377 C 1748.6 -0.419382 3.36194 0
M  V30 18378 C 1747.16 -0.862149 3.66393 0
M  V30 18379 C 1746.3 0.0468534 2.7726 0
M  V30 18380 H 1749.25 0.493032 1.50847 0
M  V30 18381 H 1749.27 -1.25852 3.59084 0
M  V30 18382 H 1748.79 0.548856 3.84199 0
M  V30 18383 H 1746.89 -1.842 3.23884 0
M  V30 18384 H 1747 -0.702231 4.73926 0
M  V30 18385 H 1745.36 -0.468769 2.50349 0
M  V30 18386 H 1746.15 1.0109 3.28079 0
M  V30 18387 N 1748.59 -1.576 -0.00164943 0
M  V30 18388 C 1749.82 -1.95176 -0.701511 0
M  V30 18389 C 1750.24 -0.873191 -1.66604 0
M  V30 18390 O 1749.6 0.168818 -1.80512 0
M  V30 18391 C 1749.65 -3.31847 -1.41104 0
M  V30 18392 O 1748.75 -3.26034 -2.52539 0
M  V30 18393 H 1748.09 -0.637207 -0.186718 0
M  V30 18394 H 1750.62 -2.04536 0.0510494 0
M  V30 18395 H 1750.63 -3.67374 -1.77483 0
M  V30 18396 H 1749.31 -4.09901 -0.70382 0
M  V30 18397 H 1747.89 -3.0218 -2.18499 0
M  V30 18398 N 1750.07 0.274379 -1.55193 0
M  V30 18399 C 1751.3 1.02443 -1.79758 0
M  V30 18400 C 1751.71 1.79984 -0.570205 0
M  V30 18401 O 1751.07 1.7659 0.46069 0
M  V30 18402 C 1751.12 1.9841 -3.02185 0
M  V30 18403 O 1750.84 1.24012 -4.20182 0
M  V30 18404 C 1752.34 2.85239 -3.39343 0
M  V30 18405 H 1749.56 0.302684 -0.598852 0
M  V30 18406 H 1752.11 0.305581 -2.02204 0
M  V30 18407 H 1750.26 2.6576 -2.81869 0
M  V30 18408 H 1750.68 1.88684 -4.89386 0
M  V30 18409 H 1752.15 3.48376 -4.2818 0
M  V30 18410 H 1752.63 3.54936 -2.58684 0
M  V30 18411 H 1753.23 2.23382 -3.61912 0
M  V30 18412 N 1751.55 1.48103 0.538828 0
M  V30 18413 C 1752.51 1.61495 1.62641 0
M  V30 18414 C 1753.51 0.488792 1.53191 0
M  V30 18415 O 1754.7 0.754355 1.57019 0
M  V30 18416 C 1751.83 1.57681 3.02241 0
M  V30 18417 H 1753.03 2.58462 1.5211 0
M  V30 18418 H 1750.58 1.36567 0.760201 0
M  V30 18419 H 1751.31 0.621583 3.18287 0
M  V30 18420 H 1751.1 2.3943 3.10509 0
M  V30 18421 H 1752.59 1.70228 3.81329 0
M  V30 18422 N 1753.03 -0.787016 1.36542 0
M  V30 18423 C 1753.97 -1.92115 1.31128 0
M  V30 18424 C 1754.97 -1.68183 0.202656 0
M  V30 18425 O 1756.17 -1.7616 0.369802 0
M  V30 18426 H 1752.55 -0.631514 0.408281 0
M  V30 18427 H 1754.52 -1.938 2.26901 0
M  V30 18428 C 1753.27 -3.29173 1.11985 0
M  V30 18429 H 1752.59 -3.48156 1.96539 0
M  V30 18430 H 1754.03 -4.08873 1.12243 0
M  V30 18431 C 1752.49 -3.36443 -0.175383 0
M  V30 18432 O 1753.02 -3.84455 -1.16437 0
M  V30 18433 N 1751.23 -2.89759 -0.220879 0
M  V30 18434 H 1750.77 -2.5088 0.584558 0
M  V30 18435 H 1750.73 -2.95005 -1.08717 0
M  V30 18436 N 1754.5 -1.20861 -1.01145 0
M  V30 18437 C 1755.92 -0.964575 -1.27154 0
M  V30 18438 C 1756.12 0.352861 -1.98386 0
M  V30 18439 O 1755.18 1.08012 -2.28232 0
M  V30 18440 C 1756.49 -2.15074 -2.10151 0
M  V30 18441 C 1758.04 -2.19229 -2.234 0
M  V30 18442 C 1758.51 -3.37346 -3.09777 0
M  V30 18443 N 1760 -3.37392 -3.17365 0
M  V30 18444 C 1760.74 -4.25434 -3.84439 0
M  V30 18445 N 1760.23 -5.23664 -4.53595 0
M  V30 18446 N 1762.03 -4.13261 -3.81014 0
M  V30 18447 H 1754.18 -2.05595 -0.533346 0
M  V30 18448 H 1756.44 -0.899928 -0.298048 0
M  V30 18449 H 1756.15 -3.10511 -1.65153 0
M  V30 18450 H 1756.02 -2.13598 -3.10895 0
M  V30 18451 H 1758.41 -1.24352 -2.6762 0
M  V30 18452 H 1758.49 -2.24752 -1.22148 0
M  V30 18453 H 1758.13 -4.32513 -2.66261 0
M  V30 18454 H 1758.06 -3.29061 -4.11128 0
M  V30 18455 H 1760.55 -2.66299 -2.68129 0
M  V30 18456 H 1760.87 -5.87158 -5.02459 0
M  V30 18457 H 1759.21 -5.27595 -4.52403 0
M  V30 18458 H 1762.4 -3.35786 -3.26137 0
M  V30 18459 H 1762.58 -4.82085 -4.3301 0
M  V30 18460 N 1755.98 1.20536 -1.01532 0
M  V30 18461 C 1757.39 1.71594 -0.735687 0
M  V30 18462 C 1757.74 1.81469 0.745873 0
M  V30 18463 O 1756.87 1.47638 1.58215 0
M  V30 18464 C 1757.46 3.11654 -1.3288 0
M  V30 18465 C 1756.02 3.60027 -1.09806 0
M  V30 18466 C 1755.17 2.37266 -1.43528 0
M  V30 18467 H 1758.12 1.05568 -1.18495 0
M  V30 18468 H 1758.14 3.7365 -0.718725 0
M  V30 18469 H 1757.65 3.04434 -2.4071 0
M  V30 18470 H 1755.76 3.72581 -0.0373763 0
M  V30 18471 H 1755.87 4.44918 -1.77722 0
M  V30 18472 H 1754.23 2.39947 -0.854268 0
M  V30 18473 H 1755.02 2.32688 -2.5241 0
M  V30 18474 N 1757.46 0.791395 1.36289 0
M  V30 18475 C 1758.41 0.179128 2.31909 0
M  V30 18476 C 1759.4 -0.662657 1.55901 0
M  V30 18477 O 1760.61 -0.55752 1.71148 0
M  V30 18478 H 1756.98 0.0391522 0.75098 0
M  V30 18479 H 1758.95 1.001 2.8111 0
M  V30 18480 C 1757.7 -0.670016 3.41183 0
M  V30 18481 H 1757.03 -0.0316331 3.99787 0
M  V30 18482 H 1758.47 -1.06506 4.10405 0
M  V30 18483 C 1756.93 -1.8291 2.82923 0
M  V30 18484 O 1757.46 -2.92579 2.75247 0
M  V30 18485 N 1755.66 -1.63584 2.40185 0
M  V30 18486 H 1755.21 -0.743799 2.46628 0
M  V30 18487 H 1755.17 -2.41298 2.01551 0
M  V30 18488 N 1758.94 -1.47929 0.54358 0
M  V30 18489 C 1760.36 -1.58312 0.202376 0
M  V30 18490 C 1760.56 -1.54394 -1.29479 0
M  V30 18491 O 1759.61 -1.44015 -2.07403 0
M  V30 18492 C 1760.92 -2.89389 0.816958 0
M  V30 18493 C 1762.47 -3.02946 0.786935 0
M  V30 18494 C 1762.95 -4.36704 1.38034 0
M  V30 18495 N 1764.44 -4.43306 1.34291 0
M  V30 18496 C 1765.17 -5.45339 1.77182 0
M  V30 18497 N 1764.67 -6.54255 2.27866 0
M  V30 18498 N 1766.46 -5.36302 1.68336 0
M  V30 18499 H 1758.61 -1.48719 1.51646 0
M  V30 18500 H 1760.88 -0.706966 0.631587 0
M  V30 18501 H 1760.58 -2.97953 1.86861 0
M  V30 18502 H 1760.46 -3.75989 0.30198 0
M  V30 18503 H 1762.84 -2.93988 -0.25599 0
M  V30 18504 H 1762.92 -2.17923 1.33953 0
M  V30 18505 H 1762.57 -4.46418 2.42226 0
M  V30 18506 H 1762.5 -5.20437 0.803308 0
M  V30 18507 H 1764.99 -3.65185 0.972033 0
M  V30 18508 H 1765.3 -7.28265 2.58552 0
M  V30 18509 H 1763.65 -6.55181 2.31868 0
M  V30 18510 H 1766.84 -4.50109 1.28527 0
M  V30 18511 H 1767.01 -6.15684 2.02082 0
M  V30 18512 N 1760.42 -0.27936 -1.55104 0
M  V30 18513 C 1761.83 0.217569 -1.85428 0
M  V30 18514 C 1762.18 1.55117 -1.20138 0
M  V30 18515 O 1761.3 2.10751 -0.491229 0
M  V30 18516 C 1761.9 0.401547 -3.36412 0
M  V30 18517 C 1760.46 0.842706 -3.66845 0
M  V30 18518 C 1759.61 -0.0615565 -2.77232 0
M  V30 18519 H 1762.56 -0.501025 -1.50584 0
M  V30 18520 H 1762.58 1.23946 -3.59747 0
M  V30 18521 H 1762.09 -0.569224 -3.83903 0
M  V30 18522 H 1760.19 1.8248 -3.24857 0
M  V30 18523 H 1760.3 0.677088 -4.74291 0
M  V30 18524 H 1758.67 0.455486 -2.50594 0
M  V30 18525 H 1759.45 -1.02829 -3.27538 0
M  V30 18526 N 1761.9 1.57599 -0.0067085 0
M  V30 18527 C 1762.84 2.08842 0.982532 0
M  V30 18528 C 1763.81 0.985339 1.33717 0
M  V30 18529 O 1765 1.25818 1.43438 0
M  V30 18530 C 1762.14 2.60188 2.26708 0
M  V30 18531 C 1761.25 3.84422 1.97087 0
M  V30 18532 C 1760.39 4.24244 3.19672 0
M  V30 18533 C 1759.42 5.41297 2.85769 0
M  V30 18534 N 1758.56 5.76381 4.00911 0
M  V30 18535 H 1763.4 2.93092 0.538618 0
M  V30 18536 H 1760.94 1.44885 0.254293 0
M  V30 18537 H 1762.9 2.88038 3.01811 0
M  V30 18538 H 1761.53 1.78802 2.68756 0
M  V30 18539 H 1760.58 3.63439 1.12323 0
M  V30 18540 H 1761.89 4.6962 1.68102 0
M  V30 18541 H 1761.04 4.53413 4.03115 0
M  V30 18542 H 1759.78 3.37769 3.518 0
M  V30 18543 H 1758.79 5.11846 2.00734 0
M  V30 18544 H 1760.01 6.29454 2.54881 0
M  V30 18545 H 1757.96 4.92863 4.32923 0
M  V30 18546 H 1757.88 6.56168 3.75473 0
M  V30 18547 H 1759.14 6.10144 4.85123 0
M  V30 18548 N 1763.37 -0.266145 1.55336 0
M  V30 18549 C 1764.6 -1.01915 1.80633 0
M  V30 18550 C 1765.02 -1.78897 0.581172 0
M  V30 18551 O 1764.38 -1.75118 -0.469399 0
M  V30 18552 C 1764.43 -1.948 3.03456 0
M  V30 18553 O 1763.53 -3.03678 2.79022 0
M  V30 18554 H 1762.87 -0.29102 0.596828 0
M  V30 18555 H 1765.4 -0.292973 2.02492 0
M  V30 18556 H 1765.41 -2.36626 3.32373 0
M  V30 18557 H 1764.09 -1.38182 3.92273 0
M  V30 18558 H 1762.67 -2.66118 2.61219 0
M  V30 18559 N 1764.85 -1.48386 -0.530967 0
M  V30 18560 C 1766.27 -1.34485 -0.859412 0
M  V30 18561 C 1766.47 -0.355124 -1.98346 0
M  V30 18562 O 1765.52 0.224012 -2.51504 0
M  V30 18563 C 1766.84 -2.74488 -1.22787 0
M  V30 18564 C 1768.38 -2.82969 -1.33781 0
M  V30 18565 C 1768.86 -4.23673 -1.7397 0
M  V30 18566 N 1770.35 -4.26341 -1.81074 0
M  V30 18567 C 1771.09 -5.32149 -2.13554 0
M  V30 18568 N 1770.58 -6.48235 -2.44464 0
M  V30 18569 N 1772.37 -5.19542 -2.14551 0
M  V30 18570 H 1764.53 -2.11352 0.210713 0
M  V30 18571 H 1766.79 -0.947472 0.0316283 0
M  V30 18572 H 1766.49 -3.4847 -0.475552 0
M  V30 18573 H 1766.37 -3.0795 -2.17823 0
M  V30 18574 H 1768.76 -2.09244 -2.08089 0
M  V30 18575 H 1768.84 -2.53129 -0.368677 0
M  V30 18576 H 1768.48 -4.97914 -1.00222 0
M  V30 18577 H 1768.41 -4.50956 -2.71931 0
M  V30 18578 H 1770.9 -3.42606 -1.59467 0
M  V30 18579 H 1771.21 -7.24712 -2.6835 0
M  V30 18580 H 1769.56 -6.51512 -2.41986 0
M  V30 18581 H 1772.75 -4.27868 -1.89859 0
M  V30 18582 H 1772.92 -6.02103 -2.39532 0
M  V30 18583 N 1766.33 0.779763 -1.36958 0
M  V30 18584 C 1767.24 1.92394 -1.34245 0
M  V30 18585 C 1768.26 1.72292 -0.243187 0
M  V30 18586 O 1769.43 1.95665 -0.477211 0
M  V30 18587 C 1766.5 3.27402 -1.14057 0
M  V30 18588 C 1765.56 3.60213 -2.33548 0
M  V30 18589 C 1764.79 4.88779 -2.14314 0
M  V30 18590 O 1765.01 5.59231 -1.12327 0
M  V30 18591 O 1763.95 5.20469 -3.02316 0
M  V30 18592 H 1767.77 1.97633 -2.30596 0
M  V30 18593 H 1765.36 0.921386 -1.17605 0
M  V30 18594 H 1767.24 4.08172 -1.04755 0
M  V30 18595 H 1765.92 3.23033 -0.207744 0
M  V30 18596 H 1764.82 2.7971 -2.48421 0
M  V30 18597 H 1766.16 3.69317 -3.25371 0
M  V30 18598 N 1767.81 1.21396 1.00503 0
M  V30 18599 C 1769.03 1.05791 1.7839 0
M  V30 18600 C 1769.46 -0.387921 1.84056 0
M  V30 18601 O 1768.82 -1.27983 1.28413 0
M  V30 18602 C 1768.86 1.65967 3.20137 0
M  V30 18603 O 1767.97 0.905123 4.02345 0
M  V30 18604 H 1767.31 0.372331 0.549787 0
M  V30 18605 H 1769.84 1.60938 1.26334 0
M  V30 18606 H 1769.85 1.70186 3.70811 0
M  V30 18607 H 1768.52 2.71185 3.15327 0
M  V30 18608 H 1767.1 0.938019 3.60909 0
M  V30 18609 N 1769.29 -1.19996 1.0217 0
M  V30 18610 C 1770.7 -1.4154 0.737473 0
M  V30 18611 C 1770.9 -1.89649 -0.680832 0
M  V30 18612 O 1769.96 -2.06865 -1.44787 0
M  V30 18613 C 1771.27 -2.43269 1.76751 0
M  V30 18614 C 1772.82 -2.57027 1.78623 0
M  V30 18615 C 1773.29 -3.62003 2.80567 0
M  V30 18616 N 1774.78 -3.69492 2.79339 0
M  V30 18617 C 1775.52 -4.50391 3.54874 0
M  V30 18618 N 1775.02 -5.35053 4.40103 0
M  V30 18619 N 1776.81 -4.44972 3.43448 0
M  V30 18620 H 1768.96 -0.870855 1.93726 0
M  V30 18621 H 1771.22 -0.444866 0.837137 0
M  V30 18622 H 1770.93 -2.14927 2.78387 0
M  V30 18623 H 1770.8 -3.42336 1.58386 0
M  V30 18624 H 1773.19 -2.84695 0.776695 0
M  V30 18625 H 1773.27 -1.58138 2.01062 0
M  V30 18626 H 1772.91 -3.35078 3.81687 0
M  V30 18627 H 1772.84 -4.60526 2.55388 0
M  V30 18628 H 1775.34 -3.09021 2.17518 0
M  V30 18629 H 1775.65 -5.93881 4.94495 0
M  V30 18630 H 1773.99 -5.34538 4.44178 0
M  V30 18631 H 1777.18 -3.77869 2.76283 0
M  V30 18632 H 1777.36 -5.07782 4.02569 0
M  V30 18633 N 1770.76 -0.798611 -1.35867 0
M  V30 18634 C 1772.04 -0.298858 -1.93303 0
M  V30 18635 C 1772.42 1.21038 -1.72954 0
M  V30 18636 O 1771.77 2.00617 -1.09386 0
M  V30 18637 C 1771.98 -0.701532 -3.41876 0
M  V30 18638 C 1773.33 -0.686486 -4.19014 0
M  V30 18639 O 1774.35 -0.642577 -3.50356 0
M  V30 18640 O 1773.21 -0.737653 -5.41499 0
M  V30 18641 H 1770.3 -0.0762987 -0.823473 0
M  V30 18642 H 1772.85 -0.881773 -1.44993 0
M  V30 18643 H 1771.62 -1.74204 -3.50383 0
M  V30 18644 H 1771.24 -0.092994 -3.97491 0
M  V30 18645 N 1772.24 1.47639 -0.551417 0
M  V30 18646 C 1773.19 2.29936 0.199514 0
M  V30 18647 C 1774.16 1.38704 0.913811 0
M  V30 18648 O 1775.34 1.67666 0.910643 0
M  V30 18649 C 1772.48 3.22544 1.22717 0
M  V30 18650 C 1771.6 4.28865 0.519527 0
M  V30 18651 C 1770.73 5.0863 1.53197 0
M  V30 18652 C 1769.77 6.06731 0.808981 0
M  V30 18653 N 1768.91 6.79476 1.76798 0
M  V30 18654 H 1773.75 2.93631 -0.508414 0
M  V30 18655 H 1771.28 1.44738 -0.262553 0
M  V30 18656 H 1773.24 3.74653 1.83551 0
M  V30 18657 H 1771.87 2.60726 1.9032 0
M  V30 18658 H 1770.92 3.79857 -0.203217 0
M  V30 18659 H 1772.24 4.98778 -0.0471224 0
M  V30 18660 H 1771.39 5.6486 2.214 0
M  V30 18661 H 1770.13 4.38605 2.13253 0
M  V30 18662 H 1769.13 5.49684 0.112991 0
M  V30 18663 H 1770.36 6.78762 0.214239 0
M  V30 18664 H 1768.31 6.12185 2.35722 0
M  V30 18665 H 1768.22 7.45539 1.25333 0
M  V30 18666 H 1769.49 7.40283 2.44133 0
M  V30 18667 N 1773.72 0.287581 1.54954 0
M  V30 18668 C 1774.65 -0.62789 2.20432 0
M  V30 18669 C 1775.67 -1.10792 1.19286 0
M  V30 18670 O 1776.85 -1.02768 1.45949 0
M  V30 18671 C 1773.95 -1.86998 2.82639 0
M  V30 18672 C 1773.13 -1.53469 4.09592 0
M  V30 18673 C 1772.19 -2.63053 4.5573 0
M  V30 18674 O 1771.21 -2.28712 5.21229 0
M  V30 18675 N 1772.41 -3.93348 4.26917 0
M  V30 18676 H 1775.18 -0.067416 2.99624 0
M  V30 18677 H 1772.74 0.109205 1.61531 0
M  V30 18678 H 1774.73 -2.59629 3.10443 0
M  V30 18679 H 1773.3 -2.33919 2.07366 0
M  V30 18680 H 1772.52 -0.641635 3.88943 0
M  V30 18681 H 1773.81 -1.28587 4.92283 0
M  V30 18682 H 1773.21 -4.24063 3.74415 0
M  V30 18683 H 1771.77 -4.62318 4.59462 0
M  V30 18684 N 1775.2 -1.57593 0.0150662 0
M  V30 18685 C 1776.15 -2.10501 -0.989557 0
M  V30 18686 C 1777.14 -1.02836 -1.34615 0
M  V30 18687 O 1778.35 -1.21286 -1.33002 0
M  V30 18688 H 1774.72 -0.672343 -0.336838 0
M  V30 18689 H 1776.69 -2.93871 -0.517893 0
M  V30 18690 C 1775.44 -2.63583 -2.26759 0
M  V30 18691 H 1774.76 -3.46069 -2.00191 0
M  V30 18692 H 1776.2 -3.04264 -2.95295 0
M  V30 18693 C 1774.66 -1.5568 -2.98773 0
M  V30 18694 O 1775.19 -0.948437 -3.90343 0
M  V30 18695 N 1773.4 -1.28062 -2.60861 0
M  V30 18696 H 1772.95 -1.77719 -1.86477 0
M  V30 18697 H 1772.9 -0.560878 -3.09357 0
M  V30 18698 N 1776.68 0.257904 -1.55475 0
M  V30 18699 C 1778.09 0.605871 -1.47653 0
M  V30 18700 C 1778.29 1.88837 -0.703063 0
M  V30 18701 O 1777.35 2.51469 -0.227981 0
M  V30 18702 C 1778.66 0.718813 -2.91982 0
M  V30 18703 C 1780.21 0.81187 -3.02287 0
M  V30 18704 C 1780.68 0.956465 -4.47901 0
M  V30 18705 N 1782.18 1.02161 -4.51793 0
M  V30 18706 C 1782.91 1.15256 -5.61697 0
M  V30 18707 N 1782.41 1.24975 -6.81435 0
M  V30 18708 N 1784.2 1.18485 -5.4947 0
M  V30 18709 H 1776.35 -0.584154 -2.04209 0
M  V30 18710 H 1778.61 -0.200045 -0.926653 0
M  V30 18711 H 1778.32 -0.15335 -3.51366 0
M  V30 18712 H 1778.19 1.59429 -3.41851 0
M  V30 18713 H 1780.58 1.67449 -2.42991 0
M  V30 18714 H 1780.66 -0.0885307 -2.55647 0
M  V30 18715 H 1780.31 0.0984438 -5.07805 0
M  V30 18716 H 1780.24 1.87174 -4.92213 0
M  V30 18717 H 1782.73 0.958295 -3.65548 0
M  V30 18718 H 1783.04 1.34843 -7.60945 0
M  V30 18719 H 1781.38 1.21952 -6.84217 0
M  V30 18720 H 1784.58 1.10534 -4.54863 0
M  V30 18721 H 1784.75 1.28346 -6.35162 0
M  V30 18722 N 1778.15 1.48666 0.52309 0
M  V30 18723 C 1779.1 1.63701 1.62698 0
M  V30 18724 C 1780.07 0.478895 1.59047 0
M  V30 18725 O 1781.26 0.703229 1.77368 0
M  V30 18726 C 1778.4 1.68912 3.00936 0
M  V30 18727 C 1777.51 2.95878 3.1477 0
M  V30 18728 C 1776.64 2.92206 4.43609 0
M  V30 18729 C 1775.68 4.13846 4.50996 0
M  V30 18730 N 1774.82 4.08213 5.71233 0
M  V30 18731 H 1779.66 2.57967 1.49188 0
M  V30 18732 H 1777.2 1.27924 0.726217 0
M  V30 18733 H 1779.16 1.69915 3.81031 0
M  V30 18734 H 1777.79 0.781309 3.13202 0
M  V30 18735 H 1776.84 3.04588 2.27883 0
M  V30 18736 H 1778.15 3.85861 3.1609 0
M  V30 18737 H 1777.3 2.91649 5.32002 0
M  V30 18738 H 1776.04 1.99964 4.44821 0
M  V30 18739 H 1775.05 4.14671 3.61009 0
M  V30 18740 H 1776.27 5.07256 4.51517 0
M  V30 18741 H 1774.22 3.18794 5.73329 0
M  V30 18742 H 1774.14 4.91908 5.74075 0
M  V30 18743 H 1775.4 4.11725 6.61893 0
M  V30 18744 N 1779.63 -0.772489 1.37369 0
M  V30 18745 C 1780.54 -1.91679 1.35263 0
M  V30 18746 C 1781.56 -1.72161 0.252321 0
M  V30 18747 O 1782.73 -1.95409 0.487581 0
M  V30 18748 C 1779.8 -3.26792 1.15792 0
M  V30 18749 C 1778.86 -3.5897 2.35455 0
M  V30 18750 C 1778.09 -4.87636 2.16903 0
M  V30 18751 O 1778.32 -5.58627 1.15291 0
M  V30 18752 O 1777.25 -5.18859 3.05072 0
M  V30 18753 H 1781.08 -1.96408 2.31641 0
M  V30 18754 H 1778.66 -0.915136 1.18092 0
M  V30 18755 H 1780.54 -4.07611 1.06918 0
M  V30 18756 H 1779.22 -3.22918 0.224872 0
M  V30 18757 H 1778.13 -2.78389 2.49901 0
M  V30 18758 H 1779.46 -3.67586 3.27325 0
M  V30 18759 N 1781.11 -1.21927 -0.998575 0
M  V30 18760 C 1782.04 -0.927553 -2.08499 0
M  V30 18761 C 1783.02 0.127378 -1.621 0
M  V30 18762 O 1784.21 -0.00298127 -1.885 0
M  V30 18763 C 1781.33 -0.393968 -3.36401 0
M  V30 18764 C 1780.38 -1.4327 -4.01716 0
M  V30 18765 S 1781.21 -3.0041 -4.43299 0
M  V30 18766 C 1782.37 -2.48675 -5.74379 0
M  V30 18767 H 1782.6 -1.84755 -2.32923 0
M  V30 18768 H 1780.13 -1.04972 -1.13227 0
M  V30 18769 H 1782.09 -0.0926895 -4.10395 0
M  V30 18770 H 1780.75 0.504816 -3.10017 0
M  V30 18771 H 1779.95 -1.0091 -4.93795 0
M  V30 18772 H 1779.55 -1.68239 -3.34024 0
M  V30 18773 H 1781.84 -1.89562 -6.5044 0
M  V30 18774 H 1782.78 -3.39221 -6.21558 0
M  V30 18775 H 1783.19 -1.90158 -5.31507 0
M  V30 18776 N 1782.59 1.19452 -1.02805 0
M  V30 18777 C 1783.83 1.89394 -0.725101 0
M  V30 18778 C 1784.17 1.79368 0.744361 0
M  V30 18779 O 1783.44 1.18548 1.54196 0
M  V30 18780 C 1783.73 3.40361 -1.17586 0
M  V30 18781 C 1783.58 3.59263 -2.70648 0
M  V30 18782 C 1784.9 4.33558 -0.756011 0
M  V30 18783 H 1782.02 0.687753 -0.264887 0
M  V30 18784 H 1784.66 1.40611 -1.27783 0
M  V30 18785 H 1782.81 3.82038 -0.70561 0
M  V30 18786 H 1784.48 3.26762 -3.25614 0
M  V30 18787 H 1782.72 3.02344 -3.1108 0
M  V30 18788 H 1783.39 4.65135 -2.97244 0
M  V30 18789 H 1785.87 3.9959 -1.16046 0
M  V30 18790 H 1784.75 5.37779 -1.09931 0
M  V30 18791 H 1785.01 4.40778 0.341677 0
M  V30 18792 N 1784.07 0.805805 1.35442 0
M  V30 18793 C 1785.3 0.397675 2.02737 0
M  V30 18794 C 1785.7 -0.99586 1.6087 0
M  V30 18795 O 1785.05 -1.65293 0.801496 0
M  V30 18796 C 1785.11 0.400706 3.5726 0
M  V30 18797 C 1784.77 1.74462 4.22388 0
M  V30 18798 C 1785.77 2.70278 4.44123 0
M  V30 18799 C 1783.46 2.02841 4.59522 0
M  V30 18800 C 1785.45 3.92658 5.02094 0
M  V30 18801 C 1783.14 3.25485 5.17207 0
M  V30 18802 C 1784.13 4.20211 5.38435 0
M  V30 18803 O 1783.82 5.4069 5.94903 0
M  V30 18804 H 1783.55 0.159829 0.656834 0
M  V30 18805 H 1786.11 1.09052 1.7406 0
M  V30 18806 H 1784.34 -0.348738 3.85124 0
M  V30 18807 H 1786.03 0.0149949 4.05897 0
M  V30 18808 H 1786.79 2.49645 4.15815 0
M  V30 18809 H 1782.67 1.29921 4.42314 0
M  V30 18810 H 1786.22 4.66607 5.18578 0
M  V30 18811 H 1782.11 3.45989 5.44942 0
M  V30 18812 H 1782.88 5.41976 6.13355 0
M  V30 18813 N 1785.54 -1.47344 0.559239 0
M  V30 18814 C 1786.96 -1.58088 0.219155 0
M  V30 18815 C 1787.16 -1.55758 -1.27834 0
M  V30 18816 O 1786.22 -1.46207 -2.05864 0
M  V30 18817 C 1787.53 -2.88507 0.847606 0
M  V30 18818 C 1789.08 -3.02094 0.819022 0
M  V30 18819 C 1789.55 -4.35216 1.42658 0
M  V30 18820 N 1791.04 -4.41857 1.38986 0
M  V30 18821 C 1791.78 -5.43429 1.82956 0
M  V30 18822 N 1791.27 -6.51801 2.34792 0
M  V30 18823 N 1793.07 -5.34486 1.74015 0
M  V30 18824 H 1785.22 -1.47102 1.53215 0
M  V30 18825 H 1787.48 -0.700228 0.63905 0
M  V30 18826 H 1787.19 -2.95954 1.90011 0
M  V30 18827 H 1787.06 -3.75648 0.341841 0
M  V30 18828 H 1789.45 -2.94243 -0.224794 0
M  V30 18829 H 1789.53 -2.1649 1.36257 0
M  V30 18830 H 1789.17 -4.43824 2.46947 0
M  V30 18831 H 1789.1 -5.19556 0.858462 0
M  V30 18832 H 1791.59 -3.64133 1.01071 0
M  V30 18833 H 1791.91 -7.25482 2.66262 0
M  V30 18834 H 1790.25 -6.52685 2.38804 0
M  V30 18835 H 1793.44 -4.48721 1.33294 0
M  V30 18836 H 1793.62 -6.13506 2.086 0
M  V30 18837 O 1787.06 -0.437844 -1.55452 0
M  V30 18838 H 1787.75 0.0957516 -1.93463 0
M  V30 END ATOM
M  V30 BEGIN BOND
M  V30 END BOND
M  V30 END CTAB
M  END
$$$$
