drugbank_target|Q14524 Sodium channel protein type 5 subunit alpha (DB00192; DB00252; DB00280; DB00281; DB00379; DB00473; DB00527; DB00532; DB00680; DB00740; DB00750; DB00754; DB00868; DB00908; DB00909; DB01035; DB01056; DB01182; DB01195; DB01228; DB01320; DB01346; DB01426; DB01429; DB04855; DB06217; DB11633)
 OpenBabel12092119263D

  0  0  0     0  0            999 V3000
M  V30 BEGIN CTAB
M  V30 COUNTS 31851 32227 0 0 0
M  V30 BEGIN ATOM
M  V30 1 H -0.908 1.98254 -0.117106 0
M  V30 2 N 0 1.576 0 0
M  V30 3 C 0.933 2.03868 1.02534 0
M  V30 4 C 1.911 0.928543 1.3348 0
M  V30 5 O 3.095 1.19667 1.45644 0
M  V30 6 C 0.222 2.43627 2.35294 0
M  V30 7 C -0.732 3.65373 2.2001 0
M  V30 8 S 0.101 5.13292 1.52614 0
M  V30 9 C 1.257 5.56322 2.86805 0
M  V30 10 H 1.49 2.90518 0.631377 0
M  V30 11 H -0.977 1.52953 0.210867 0
M  V30 12 H 0.981 2.67203 3.11629 0
M  V30 13 H -0.358 1.57376 2.7183 0
M  V30 14 H -1.165 3.90944 3.18086 0
M  V30 15 H -1.563 3.418 1.51819 0
M  V30 16 H 0.729 5.58782 3.83104 0
M  V30 17 H 1.672 6.56266 2.65933 0
M  V30 18 H 2.08 4.83886 2.90714 0
M  V30 19 N 1.4781 -0.272755 1.55222 0
M  V30 20 C 2.4411 -1.32041 1.87344 0
M  V30 21 C 3.4411 -1.42342 0.74803 0
M  V30 22 O 4.6311 -1.41488 1.0162 0
M  V30 23 C 1.7631 -2.70173 2.07893 0
M  V30 24 H 2.9561 -1.04789 2.80997 0
M  V30 25 H 0.5091 -0.51083 1.47717 0
M  V30 26 H 1.2441 -3.02605 1.16622 0
M  V30 27 H 1.0291 -2.64082 2.89833 0
M  V30 28 H 2.5191 -3.45869 2.34017 0
M  V30 29 N 2.9562 -1.48159 -0.537278 0
M  V30 30 C 3.9042 -1.62573 -1.66352 0
M  V30 31 C 4.8982 -0.492366 -1.62087 0
M  V30 32 O 6.1042 -0.670847 -1.67032 0
M  V30 33 H 2.4792 -0.511992 -0.550789 0
M  V30 34 H 4.4502 -2.57176 -1.51337 0
M  V30 35 C 3.1992 -1.67583 -3.04649 0
M  V30 36 H 2.5222 -2.54151 -3.08622 0
M  V30 37 H 3.9622 -1.81713 -3.83088 0
M  V30 38 C 2.4212 -0.413039 -3.34358 0
M  V30 39 O 2.9512 0.477259 -3.98855 0
M  V30 40 N 1.1572 -0.286961 -2.8918 0
M  V30 41 H 0.7042 -1.01241 -2.36871 0
M  V30 42 H 0.6622 0.556963 -3.09427 0
M  V30 43 N 4.4343 0.785586 -1.36625 0
M  V30 44 C 5.6813 1.54362 -1.31067 0
M  V30 45 C 6.0093 1.94195 0.10893 0
M  V30 46 O 5.2643 1.63262 1.07908 0
M  V30 47 C 5.5633 2.83007 -2.1827 0
M  V30 48 C 5.2293 2.62294 -3.6676 0
M  V30 49 C 3.8913 2.56353 -4.0723 0
M  V30 50 C 6.2433 2.43371 -4.6089 0
M  V30 51 C 3.5713 2.29461 -5.39967 0
M  V30 52 C 5.9233 2.18005 -5.93849 0
M  V30 53 C 4.5873 2.105 -6.3344 0
M  V30 54 H 3.8573 0.564851 -0.479609 0
M  V30 55 H 6.5043 0.906028 -1.68711 0
M  V30 56 H 4.8093 3.51253 -1.73576 0
M  V30 57 H 6.5063 3.40817 -2.11292 0
M  V30 58 H 3.0963 2.67774 -3.34656 0
M  V30 59 H 7.2803 2.46959 -4.30494 0
M  V30 60 H 2.5363 2.22135 -5.69619 0
M  V30 61 H 6.7103 2.02359 -6.66351 0
M  V30 62 H 4.3373 1.89425 -7.36222 0
M  V30 63 N 5.9124 1.20967 1.01018 0
M  V30 64 C 6.8424 0.988272 2.11555 0
M  V30 65 C 7.8234 -0.0849778 1.69888 0
M  V30 66 O 9.0084 0.0738202 1.9406 0
M  V30 67 C 6.1384 0.546528 3.42973 0
M  V30 68 C 5.0924 1.56375 3.9841 0
M  V30 69 C 4.4184 0.97842 5.25672 0
M  V30 70 C 5.7184 2.94922 4.31066 0
M  V30 71 H 7.4124 1.91276 2.30334 0
M  V30 72 H 4.9584 0.921073 1.1069 0
M  V30 73 H 6.9114 0.378839 4.19694 0
M  V30 74 H 5.6354 -0.413598 3.23971 0
M  V30 75 H 4.2944 1.71891 3.23804 0
M  V30 76 H 3.9424 0.0101688 5.02999 0
M  V30 77 H 3.6424 1.65784 5.63728 0
M  V30 78 H 5.1664 0.821939 6.05043 0
M  V30 79 H 6.5804 2.8288 4.9865 0
M  V30 80 H 4.9774 3.5983 4.80253 0
M  V30 81 H 6.0474 3.4616 3.39561 0
M  V30 82 N 7.3905 -1.2043 1.01659 0
M  V30 83 C 8.3205 -2.25466 0.607226 0
M  V30 84 C 9.3015 -1.65853 -0.377716 0
M  V30 85 O 10.4865 -1.92409 -0.263149 0
M  V30 86 C 7.6165 -3.47256 -0.0552949 0
M  V30 87 C 6.5705 -4.19462 0.850632 0
M  V30 88 C 5.8965 -5.34673 0.0538859 0
M  V30 89 C 7.1965 -4.75603 2.15868 0
M  V30 90 H 8.8905 -2.59962 1.48526 0
M  V30 91 H 6.4365 -1.2496 0.715605 0
M  V30 92 H 8.3895 -4.19917 -0.353233 0
M  V30 93 H 7.1135 -3.11924 -0.968045 0
M  V30 94 H 5.7725 -3.48667 1.13257 0
M  V30 95 H 5.4205 -4.95585 -0.860514 0
M  V30 96 H 5.1205 -5.83913 0.657192 0
M  V30 97 H 6.6445 -6.10138 -0.237598 0
M  V30 98 H 8.0585 -5.40083 1.92311 0
M  V30 99 H 6.4555 -5.3528 2.71284 0
M  V30 100 H 7.5255 -3.94346 2.82169 0
M  V30 101 N 8.8686 -0.792821 -1.36206 0
M  V30 102 C 10.2796 -0.429513 -1.81692 0
M  V30 103 C 10.6306 1.04695 -1.65932 0
M  V30 104 O 9.7556 1.81256 -1.18218 0
M  V30 105 C 10.3506 -0.772831 -3.29868 0
M  V30 106 C 8.9096 -0.462307 -3.7355 0
M  V30 107 C 8.0566 -1.00569 -2.5842 0
M  V30 108 H 11.0076 -0.985672 -1.24379 0
M  V30 109 H 11.0286 -0.0651928 -3.80444 0
M  V30 110 H 10.5406 -1.84747 -3.41307 0
M  V30 111 H 8.6416 0.604158 -3.67669 0
M  V30 112 H 8.7546 -0.985299 -4.68859 0
M  V30 113 H 7.1186 -0.428734 -2.51066 0
M  V30 114 H 7.9016 -2.08616 -2.72643 0
M  V30 115 N 10.3467 1.47872 -0.545128 0
M  V30 116 C 11.7627 1.5829 -0.204032 0
M  V30 117 C 11.9627 1.54529 1.29317 0
M  V30 118 O 11.0187 1.44232 2.07252 0
M  V30 119 C 12.3317 2.89304 -0.819987 0
M  V30 120 C 13.8797 3.02864 -0.790105 0
M  V30 121 C 14.3547 4.3656 -1.38491 0
M  V30 122 N 15.8457 4.43165 -1.34755 0
M  V30 123 C 16.5807 5.45153 -1.77753 0
M  V30 124 N 16.0767 6.54016 -2.2855 0
M  V30 125 N 17.8697 5.36125 -1.68897 0
M  V30 126 H 10.0207 1.4856 -1.51802 0
M  V30 127 H 12.2837 0.706305 -0.632327 0
M  V30 128 H 11.9897 2.97757 -1.87173 0
M  V30 129 H 11.8637 3.75957 -0.305915 0
M  V30 130 H 14.2507 2.94014 0.252913 0
M  V30 131 H 14.3317 2.17782 -1.34181 0
M  V30 132 H 13.9757 4.46164 -2.42693 0
M  V30 133 H 13.9057 5.20353 -0.808754 0
M  V30 134 H 16.3967 3.65083 -0.975855 0
M  V30 135 H 16.7097 7.27994 -2.59314 0
M  V30 136 H 15.0547 6.54938 -2.32553 0
M  V30 137 H 18.2457 4.49975 -1.28998 0
M  V30 138 H 18.4187 6.15472 -2.02726 0
M  V30 139 N 11.8248 0.280983 1.55075 0
M  V30 140 C 13.0728 -0.333455 1.9933 0
M  V30 141 C 13.3938 -1.55937 1.17085 0
M  V30 142 O 12.6638 -1.94143 0.261805 0
M  V30 143 H 11.2438 -0.126197 0.736263 0
M  V30 144 H 13.9058 0.387678 1.91005 0
M  V30 145 H 13.0018 -0.619292 3.05894 0
M  V30 146 N 13.3029 -1.57598 0.00835791 0
M  V30 147 C 14.5309 -1.95214 -0.68549 0
M  V30 148 C 14.9459 -0.883706 -1.66841 0
M  V30 149 O 14.3029 0.136565 -1.81988 0
M  V30 150 C 14.3539 -3.32865 -1.41007 0
M  V30 151 O 14.0749 -4.35609 -0.466552 0
M  V30 152 C 15.5759 -3.84991 -2.19765 0
M  V30 153 H 12.7959 -0.643422 -0.190392 0
M  V30 154 H 15.3399 -2.04406 0.0619607 0
M  V30 155 H 13.4949 -3.24956 -2.10908 0
M  V30 156 H 13.9089 -5.15288 -0.978699 0
M  V30 157 H 15.3829 -4.8371 -2.65948 0
M  V30 158 H 15.8599 -3.18137 -3.02796 0
M  V30 159 H 16.4659 -3.96103 -1.54864 0
M  V30 160 N 14.781 0.264519 -1.55364 0
M  V30 161 C 16.006 1.01726 -1.80739 0
M  V30 162 C 16.431 1.78836 -0.583044 0
M  V30 163 O 15.789 1.75167 0.467566 0
M  V30 164 C 15.837 1.94482 -3.03659 0
M  V30 165 O 14.941 3.03386 -2.7934 0
M  V30 166 H 14.282 0.290395 -0.597132 0
M  V30 167 H 16.812 0.290854 -2.02522 0
M  V30 168 H 16.822 2.36278 -3.32621 0
M  V30 169 H 15.497 1.37772 -3.92418 0
M  V30 170 H 14.074 2.65844 -2.61498 0
M  V30 171 N 16.2591 1.48442 0.529413 0
M  V30 172 C 17.4841 1.60406 1.31471 0
M  V30 173 C 17.9091 0.264738 1.86228 0
M  V30 174 O 17.2671 -0.763668 1.64432 0
M  V30 175 C 17.3151 2.65419 2.44101 0
M  V30 176 O 16.4191 2.22618 3.47153 0
M  V30 177 H 15.7601 0.537863 0.389357 0
M  V30 178 H 18.2901 1.94432 0.636965 0
M  V30 179 H 18.3001 2.86709 2.90279 0
M  V30 180 H 16.9751 3.62652 2.03608 0
M  V30 181 H 15.5521 2.11543 3.0709 0
M  V30 182 N 17.7372 -0.778329 1.37039 0
M  V30 183 C 18.9842 -1.53665 1.31884 0
M  V30 184 C 19.3122 -1.9425 -0.0986303 0
M  V30 185 O 18.5672 -1.63832 -1.07041 0
M  V30 186 C 18.8662 -2.81845 2.19768 0
M  V30 187 C 18.5322 -2.60345 3.68146 0
M  V30 188 C 17.1942 -2.5419 4.08584 0
M  V30 189 C 19.5462 -2.40923 4.62175 0
M  V30 190 C 16.8742 -2.26594 5.41177 0
M  V30 191 C 19.2262 -2.14852 5.94997 0
M  V30 192 C 17.8902 -2.07137 6.34547 0
M  V30 193 H 17.1602 -0.562299 0.482598 0
M  V30 194 H 19.8072 -0.897069 1.69189 0
M  V30 195 H 18.1122 -3.50328 1.75436 0
M  V30 196 H 19.8092 -3.39692 2.13097 0
M  V30 197 H 16.3992 -2.65996 3.36072 0
M  V30 198 H 20.5832 -2.44673 4.31797 0
M  V30 199 H 15.8392 -2.19111 5.70789 0
M  V30 200 H 20.0132 -1.98822 6.67415 0
M  V30 201 H 17.6402 -1.85518 7.37216 0
M  V30 202 N 19.2153 -1.21501 -1.00376 0
M  V30 203 C 20.6313 -0.972629 -1.26539 0
M  V30 204 C 20.8313 0.340257 -1.98606 0
M  V30 205 O 19.8873 1.06561 -2.28913 0
M  V30 206 C 21.2003 -2.16404 -2.08781 0
M  V30 207 C 22.7483 -2.20643 -2.22004 0
M  V30 208 C 23.2233 -3.39306 -3.07629 0
M  V30 209 N 24.7143 -3.39401 -3.15217 0
M  V30 210 C 25.4493 -4.27867 -3.81729 0
M  V30 211 N 24.9453 -5.26533 -4.5026 0
M  V30 212 N 26.7383 -4.15672 -3.78382 0
M  V30 213 H 18.8893 -2.05929 -0.520281 0
M  V30 214 H 21.1523 -0.901803 -0.292328 0
M  V30 215 H 20.8583 -3.11554 -1.63178 0
M  V30 216 H 20.7323 -2.15567 -3.09533 0
M  V30 217 H 23.1193 -1.26048 -2.66825 0
M  V30 218 H 23.2003 -2.25523 -1.20718 0
M  V30 219 H 22.8443 -4.34195 -2.63509 0
M  V30 220 H 22.7743 -3.31665 -4.09031 0
M  V30 221 H 25.2653 -2.67997 -2.66432 0
M  V30 222 H 25.5783 -5.90337 -4.98721 0
M  V30 223 H 23.9233 -5.30457 -4.49044 0
M  V30 224 H 27.1143 -3.3785 -3.23998 0
M  V30 225 H 27.2873 -4.84825 -4.2994 0
M  V30 226 N 20.6934 1.19889 -1.02296 0
M  V30 227 C 22.1094 1.41462 -0.738954 0
M  V30 228 C 22.3094 1.89721 0.678846 0
M  V30 229 O 21.3654 2.07016 1.4457 0
M  V30 230 C 22.6784 2.43083 -1.77005 0
M  V30 231 C 24.2264 2.5684 -1.78892 0
M  V30 232 C 24.7014 3.61709 -2.80945 0
M  V30 233 N 26.1924 3.69199 -2.79725 0
M  V30 234 C 26.9274 4.50019 -3.55345 0
M  V30 235 N 26.4234 5.34592 -4.40662 0
M  V30 236 N 28.2164 4.44612 -3.43914 0
M  V30 237 H 20.3674 0.868827 -1.93817 0
M  V30 238 H 22.6304 0.44399 -0.837602 0
M  V30 239 H 22.3364 2.14636 -2.78612 0
M  V30 240 H 22.2104 3.4217 -1.58744 0
M  V30 241 H 24.5974 2.84614 -0.779674 0
M  V30 242 H 24.6784 1.57927 -2.01228 0
M  V30 243 H 24.3224 3.34678 -3.82038 0
M  V30 244 H 24.2524 4.60259 -2.5587 0
M  V30 245 H 26.7434 3.08794 -2.17842 0
M  V30 246 H 27.0564 5.93363 -4.95116 0
M  V30 247 H 25.4014 5.34073 -4.44737 0
M  V30 248 H 28.5924 3.7758 -2.76679 0
M  V30 249 H 28.7654 5.0736 -4.031 0
M  V30 250 N 22.1715 0.800033 1.35784 0
M  V30 251 C 23.4185 0.377342 1.98953 0
M  V30 252 C 23.7465 -1.05378 1.6348 0
M  V30 253 O 23.0015 -1.74459 0.886707 0
M  V30 254 C 23.3005 0.500276 3.53881 0
M  V30 255 C 22.9665 1.89375 4.09204 0
M  V30 256 C 21.6285 2.27499 4.24025 0
M  V30 257 C 23.9805 2.8057 4.39238 0
M  V30 258 C 21.3085 3.562 4.66195 0
M  V30 259 C 23.6605 4.0871 4.82844 0
M  V30 260 C 22.3245 4.46843 4.95871 0
M  V30 261 H 21.5945 0.138079 0.728021 0
M  V30 262 H 24.2415 1.01955 1.62103 0
M  V30 263 H 22.5465 -0.225405 3.91151 0
M  V30 264 H 24.2435 0.154097 4.00704 0
M  V30 265 H 20.8335 1.58753 3.98115 0
M  V30 266 H 25.0175 2.52367 4.27346 0
M  V30 267 H 20.2735 3.85602 4.74469 0
M  V30 268 H 24.4475 4.79481 5.05046 0
M  V30 269 H 22.0745 5.46623 5.28306 0
M  V30 270 N 23.6496 -1.47581 0.552962 0
M  V30 271 C 24.8776 -2.06875 0.0320556 0
M  V30 272 C 25.2926 -1.40625 -1.25976 0
M  V30 273 O 24.6496 -0.501349 -1.75479 0
M  V30 274 C 24.7006 -3.61092 -0.17167 0
M  V30 275 O 24.4216 -4.24858 1.06899 0
M  V30 276 C 25.9226 -4.37242 -0.730344 0
M  V30 277 H 23.1426 -0.669561 0.043915 0
M  V30 278 H 25.6866 -1.89646 0.765163 0
M  V30 279 H 23.8416 -3.7785 -0.854894 0
M  V30 280 H 24.2556 -5.17334 0.864059 0
M  V30 281 H 25.7296 -5.45842 -0.822203 0
M  V30 282 H 26.2066 -4.03235 -1.74064 0
M  V30 283 H 26.8126 -4.25219 -0.0829543 0
M  V30 284 N 25.1277 -0.289203 -1.54924 0
M  V30 285 C 26.5437 0.0645403 -1.59469 0
M  V30 286 C 26.7437 1.53419 -1.30632 0
M  V30 287 O 25.7997 2.2852 -1.074 0
M  V30 288 C 27.1127 -0.32278 -2.98963 0
M  V30 289 C 28.6607 -0.270564 -3.11828 0
M  V30 290 C 29.1357 -0.632532 -4.53611 0
M  V30 291 N 30.6267 -0.584617 -4.59496 0
M  V30 292 C 31.3617 -0.837314 -5.67254 0
M  V30 293 N 30.8577 -1.15536 -6.83098 0
M  V30 294 N 32.6507 -0.765166 -5.56868 0
M  V30 295 H 24.8017 -1.24714 -1.71931 0
M  V30 296 H 27.0647 -0.504809 -0.802416 0
M  V30 297 H 26.7707 -1.34541 -3.24948 0
M  V30 298 H 26.6447 0.32944 -3.75759 0
M  V30 299 H 29.0317 0.742805 -2.85598 0
M  V30 300 H 29.1127 -0.957242 -2.37214 0
M  V30 301 H 28.7567 -1.64365 -4.80569 0
M  V30 302 H 28.6867 0.07609 -5.26545 0
M  V30 303 H 31.1777 -0.349248 -3.76283 0
M  V30 304 H 31.4907 -1.33447 -7.61191 0
M  V30 305 H 29.8357 -1.19328 -6.84679 0
M  V30 306 H 33.0267 -0.516432 -4.65243 0
M  V30 307 H 33.1997 -0.965477 -6.40767 0
M  V30 308 N 26.6058 1.57591 -0.0167156 0
M  V30 309 C 27.5158 2.1291 0.98521 0
M  V30 310 C 28.5318 1.07834 1.36557 0
M  V30 311 O 29.7078 1.39826 1.44951 0
M  V30 312 C 26.7728 2.63512 2.25305 0
M  V30 313 C 25.8338 3.83256 1.93426 0
M  V30 314 C 25.0668 4.31435 3.14165 0
M  V30 315 O 25.2898 3.78851 4.26413 0
M  V30 316 O 24.2238 5.23416 2.97186 0
M  V30 317 H 28.0498 2.98772 0.544888 0
M  V30 318 H 25.6348 1.48012 0.203141 0
M  V30 319 H 27.5168 2.96183 2.99756 0
M  V30 320 H 26.1918 1.8074 2.68542 0
M  V30 321 H 25.0988 3.55531 1.16398 0
M  V30 322 H 26.4318 4.67153 1.55013 0
M  V30 323 N 28.0839 -0.256276 1.55502 0
M  V30 324 C 29.3089 -1.00766 1.81276 0
M  V30 325 C 29.7339 -1.78524 0.59252 0
M  V30 326 O 29.0919 -1.75413 -0.45827 0
M  V30 327 C 29.1399 -1.92869 3.04687 0
M  V30 328 O 28.2439 -3.019 2.80945 0
M  V30 329 H 27.5849 -0.287224 0.598664 0
M  V30 330 H 30.1149 -0.280109 2.02674 0
M  V30 331 H 30.1249 -2.34511 3.33869 0
M  V30 332 H 28.7999 -1.35689 3.93143 0
M  V30 333 H 27.3769 -2.64454 2.62904 0
M  V30 334 N 29.562 -1.4872 -0.521534 0
M  V30 335 C 30.492 -1.66771 -1.63431 0
M  V30 336 C 31.473 -0.516499 -1.62069 0
M  V30 337 O 32.658 -0.750013 -1.79132 0
M  V30 338 C 29.788 -1.71515 -3.01993 0
M  V30 339 C 28.742 -2.86222 -3.18216 0
M  V30 340 C 28.068 -2.76061 -4.57924 0
M  V30 341 C 29.368 -4.27419 -3.00184 0
M  V30 342 H 31.062 -2.59932 -1.48579 0
M  V30 343 H 28.608 -1.25089 -0.713358 0
M  V30 344 H 30.561 -1.82731 -3.7972 0
M  V30 345 H 29.285 -0.749393 -3.17886 0
M  V30 346 H 27.944 -2.74575 -2.42908 0
M  V30 347 H 27.592 -1.77437 -4.70665 0
M  V30 348 H 27.292 -3.53037 -4.69722 0
M  V30 349 H 28.816 -2.89256 -5.37739 0
M  V30 350 H 30.23 -4.39855 -3.67697 0
M  V30 351 H 28.627 -5.05458 -3.2347 0
M  V30 352 H 29.697 -4.43293 -1.96518 0
M  V30 353 N 31.0401 0.771051 -1.3745 0
M  V30 354 C 32.0031 1.86598 -1.33093 0
M  V30 355 C 33.0031 1.59076 -0.234845 0
M  V30 356 O 34.1931 1.67145 -0.490732 0
M  V30 357 C 31.3251 3.23747 -1.06773 0
M  V30 358 H 32.5181 1.91873 -2.30488 0
M  V30 359 H 30.0711 0.970876 -1.2249 0
M  V30 360 H 30.8061 3.24148 -0.099129 0
M  V30 361 H 30.5911 3.45115 -1.86112 0
M  V30 362 H 32.0811 4.03824 -1.06377 0
M  V30 363 N 32.5182 1.22032 0.997298 0
M  V30 364 C 33.4812 0.987909 2.06816 0
M  V30 365 C 34.4812 -0.0440084 1.6074 0
M  V30 366 O 35.6712 0.194053 1.73116 0
M  V30 367 C 32.8032 0.49132 3.37341 0
M  V30 368 H 33.9962 1.93803 2.28868 0
M  V30 369 H 31.5492 1.03838 1.16822 0
M  V30 370 H 32.2842 -0.463364 3.20973 0
M  V30 371 H 32.0692 1.23575 3.72118 0
M  V30 372 H 33.5592 0.348824 4.16141 0
M  V30 373 N 33.9963 -1.19345 1.0293 0
M  V30 374 C 35.2453 -1.88363 0.721256 0
M  V30 375 C 35.5583 -1.80514 -0.753254 0
M  V30 376 O 36.7643 -2.44788 -1.17436 0
M  V30 377 C 35.2203 -3.37872 1.23978 0
M  V30 378 C 34.8283 -3.54278 2.74211 0
M  V30 379 C 36.5723 -4.12365 1.00775 0
M  V30 380 C 34.4793 -4.97682 3.19479 0
M  V30 381 H 33.4093 -0.705484 0.266098 0
M  V30 382 H 36.0603 -1.34928 1.24365 0
M  V30 383 H 34.4423 -3.90707 0.6453 0
M  V30 384 H 35.6163 -3.11769 3.39318 0
M  V30 385 H 33.9313 -2.93174 2.95699 0
M  V30 386 H 36.5283 -5.18119 1.32123 0
M  V30 387 H 36.8713 -4.16263 -0.0554308 0
M  V30 388 H 37.4043 -3.65668 1.56625 0
M  V30 389 H 34.1433 -4.98945 4.25128 0
M  V30 390 H 33.6633 -5.4095 2.591 0
M  V30 391 H 35.3423 -5.66337 3.12845 0
M  V30 392 N 35.4744 -0.807222 -1.35358 0
M  V30 393 C 36.3844 -0.219594 -2.3357 0
M  V30 394 C 37.4004 0.637734 -1.61892 0
M  V30 395 O 38.5764 0.549336 -1.93763 0
M  V30 396 C 35.6414 0.62158 -3.41083 0
M  V30 397 C 34.7024 -0.256315 -4.28534 0
M  V30 398 C 33.9354 0.544807 -5.30912 0
M  V30 399 O 34.1584 1.77944 -5.41934 0
M  V30 400 O 33.0924 -0.0646478 -6.01865 0
M  V30 401 H 36.9184 -1.03208 -2.85625 0
M  V30 402 H 34.5034 -0.569025 -1.38139 0
M  V30 403 H 36.3854 1.10067 -4.06772 0
M  V30 404 H 35.0604 1.41165 -2.91297 0
M  V30 405 H 33.9674 -0.782559 -3.65823 0
M  V30 406 H 35.3004 -1.01034 -4.81719 0
M  V30 407 N 36.9525 1.47285 -0.560781 0
M  V30 408 C 37.8995 2.30058 0.18491 0
M  V30 409 C 38.8695 1.39281 0.904986 0
M  V30 410 O 40.0545 1.68241 0.899979 0
M  V30 411 C 37.1945 3.23317 1.20666 0
M  V30 412 C 36.3075 4.29186 0.492285 0
M  V30 413 C 35.4425 5.09592 1.49964 0
M  V30 414 C 34.4815 6.07232 0.770439 0
M  V30 415 N 33.6185 6.80584 1.72479 0
M  V30 416 H 38.4585 2.93302 -0.527048 0
M  V30 417 H 35.9955 1.44568 -0.271738 0
M  V30 418 H 37.9535 3.75811 1.81168 0
M  V30 419 H 36.5835 2.61929 1.88661 0
M  V30 420 H 35.6355 3.7972 -0.227333 0
M  V30 421 H 36.9475 4.98738 -0.0787929 0
M  V30 422 H 36.1015 5.66254 2.17809 0
M  V30 423 H 34.8405 4.3995 2.10464 0
M  V30 424 H 33.8455 5.49745 0.0780846 0
M  V30 425 H 35.0705 6.78884 0.171134 0
M  V30 426 H 33.0165 6.1367 2.3183 0
M  V30 427 H 32.9335 7.46319 1.20596 0
M  V30 428 H 34.2015 7.41818 2.39428 0
M  V30 429 N 38.4306 0.297415 1.54768 0
M  V30 430 C 39.8466 -0.0560823 1.59501 0
M  V30 431 C 40.0466 -1.52725 1.31444 0
M  V30 432 O 39.1026 -2.27947 1.08611 0
M  V30 433 C 40.4156 0.338631 2.98787 0
M  V30 434 C 41.9636 0.287097 3.11681 0
M  V30 435 C 42.4386 0.656579 4.53269 0
M  V30 436 N 43.9296 0.608977 4.59179 0
M  V30 437 C 44.6646 0.867385 5.66802 0
M  V30 438 N 44.1606 1.19157 6.82476 0
M  V30 439 N 45.9536 0.794687 5.56454 0
M  V30 440 H 38.1046 1.25624 1.71267 0
M  V30 441 H 40.3676 0.509057 0.799728 0
M  V30 442 H 40.0736 1.36263 3.2423 0
M  V30 443 H 39.9476 -0.309508 3.75928 0
M  V30 444 H 42.3346 -0.727649 2.85988 0
M  V30 445 H 42.4156 0.969809 2.36703 0
M  V30 446 H 42.0596 1.66912 4.7969 0
M  V30 447 H 41.9896 -0.0481649 5.26578 0
M  V30 448 H 44.4806 0.369198 3.76092 0
M  V30 449 H 44.7936 1.37482 7.60473 0
M  V30 450 H 43.1386 1.22958 6.84037 0
M  V30 451 H 46.3296 0.541098 4.64962 0
M  V30 452 H 46.5026 0.999445 6.40246 0
M  V30 453 N 39.9087 -1.5758 0.0250728 0
M  V30 454 C 40.8417 -2.05473 -0.992777 0
M  V30 455 C 41.8197 -0.949661 -1.31986 0
M  V30 456 O 43.0037 -1.21969 -1.43722 0
M  V30 457 C 40.1307 -2.4734 -2.31389 0
M  V30 458 C 39.1767 -3.68827 -2.1417 0
M  V30 459 S 40.0097 -5.15655 -1.44429 0
M  V30 460 C 41.1657 -5.60814 -2.77918 0
M  V30 461 H 41.3987 -2.91486 -0.585078 0
M  V30 462 H 38.9317 -1.53269 -0.186507 0
M  V30 463 H 40.8897 -2.72127 -3.07339 0
M  V30 464 H 39.5507 -1.6168 -2.69292 0
M  V30 465 H 38.7437 -3.95955 -3.11826 0
M  V30 466 H 38.3457 -3.44172 -1.46362 0
M  V30 467 H 40.6377 -5.64806 -3.74166 0
M  V30 468 H 41.5807 -6.60414 -2.55459 0
M  V30 469 H 41.9887 -4.8845 -2.82979 0
M  V30 470 N 41.3868 0.248026 -1.55636 0
M  V30 471 C 42.3498 1.29044 -1.89421 0
M  V30 472 C 43.3498 1.41134 -0.770581 0
M  V30 473 O 44.5398 1.39854 -1.03858 0
M  V30 474 C 41.6718 2.66831 -2.12165 0
M  V30 475 H 42.8648 1.00305 -2.82629 0
M  V30 476 H 40.4178 0.487265 -1.48511 0
M  V30 477 H 41.1528 3.00711 -1.21422 0
M  V30 478 H 40.9378 2.59438 -2.93997 0
M  V30 479 H 42.4278 3.42103 -2.3949 0
M  V30 480 N 42.8649 1.48995 0.513639 0
M  V30 481 C 43.7749 1.67443 1.64317 0
M  V30 482 C 44.7909 0.556947 1.64846 0
M  V30 483 O 45.9669 0.830082 1.83498 0
M  V30 484 C 43.0319 1.72515 3.00732 0
M  V30 485 C 42.0929 2.96009 3.1093 0
M  V30 486 C 41.3259 3.00829 4.40837 0
M  V30 487 O 41.5489 2.13594 5.28898 0
M  V30 488 O 40.4829 3.93168 4.55744 0
M  V30 489 H 44.3089 2.63106 1.51687 0
M  V30 490 H 41.8939 1.32588 0.688543 0
M  V30 491 H 43.7759 1.78277 3.81831 0
M  V30 492 H 42.4509 0.800278 3.13651 0
M  V30 493 H 41.3579 2.9577 2.29065 0
M  V30 494 H 42.6909 3.87934 3.02933 0
M  V30 495 N 44.343 -0.763751 1.37857 0
M  V30 496 C 45.29 -1.87726 1.34267 0
M  V30 497 C 46.26 -1.64807 0.206879 0
M  V30 498 O 47.445 -1.86613 0.397508 0
M  V30 499 C 44.585 -3.24896 1.16346 0
M  V30 500 C 43.698 -3.59716 2.39225 0
M  V30 501 C 42.833 -4.86137 2.14114 0
M  V30 502 C 41.872 -5.13711 3.32817 0
M  V30 503 N 41.009 -6.31323 3.07206 0
M  V30 504 H 45.849 -1.90129 2.29466 0
M  V30 505 H 43.386 -0.929433 1.14017 0
M  V30 506 H 45.344 -4.04036 1.03975 0
M  V30 507 H 43.974 -3.21847 0.247909 0
M  V30 508 H 43.026 -2.75498 2.62307 0
M  V30 509 H 44.338 -3.76027 3.27728 0
M  V30 510 H 43.492 -5.73198 1.9882 0
M  V30 511 H 42.231 -4.71945 1.22961 0
M  V30 512 H 41.236 -4.25123 3.48641 0
M  V30 513 H 42.461 -5.29807 4.24832 0
M  V30 514 H 40.407 -6.18474 2.1869 0
M  V30 515 H 40.324 -6.48087 3.89254 0
M  V30 516 H 41.592 -7.213 2.95546 0
M  V30 517 N 45.8211 -1.22559 -0.990812 0
M  V30 518 C 46.7531 -0.955325 -2.08342 0
M  V30 519 C 47.7661 0.0668408 -1.62663 0
M  V30 520 O 48.9551 -0.167421 -1.77713 0
M  V30 521 C 46.0551 -0.415566 -3.36342 0
M  V30 522 C 45.2281 -1.49544 -4.11042 0
M  V30 523 C 44.2871 -0.962399 -5.17324 0
M  V30 524 O 43.3131 -1.64907 -5.44788 0
M  V30 525 N 44.5151 0.215134 -5.80101 0
M  V30 526 H 47.2801 -1.89596 -2.32106 0
M  V30 527 H 44.8411 -1.13276 -1.15673 0
M  V30 528 H 46.8331 -0.0442386 -4.04676 0
M  V30 529 H 45.4031 0.430232 -3.09625 0
M  V30 530 H 44.6231 -2.04 -3.37309 0
M  V30 531 H 45.9111 -2.22195 -4.57719 0
M  V30 532 H 45.3091 0.789779 -5.6016 0
M  V30 533 H 43.8661 0.527826 -6.49659 0
M  V30 534 N 47.2992 1.18797 -1.03562 0
M  V30 535 C 48.2622 2.20464 -0.626769 0
M  V30 536 C 49.2622 1.57721 0.313173 0
M  V30 537 O 50.4522 1.73917 0.0992615 0
M  V30 538 C 47.5842 3.40802 0.0818498 0
M  V30 539 H 48.7772 2.58149 -1.5264 0
M  V30 540 H 46.3302 1.32593 -0.827578 0
M  V30 541 H 47.0652 3.08642 0.995518 0
M  V30 542 H 46.8502 3.8758 -0.593652 0
M  V30 543 H 48.3402 4.16092 0.354584 0
M  V30 544 N 48.7773 0.814389 1.34928 0
M  V30 545 C 50.1933 0.499084 1.51596 0
M  V30 546 C 50.3933 -0.978319 1.76157 0
M  V30 547 O 49.4493 -1.76309 1.80752 0
M  V30 548 C 50.7623 1.35121 2.68631 0
M  V30 549 C 52.3103 1.34746 2.82511 0
M  V30 550 C 52.7853 2.18388 4.0258 0
M  V30 551 N 54.2763 2.15966 4.09772 0
M  V30 552 C 55.0113 2.77437 5.01813 0
M  V30 553 N 54.5073 3.47866 5.99134 0
M  V30 554 N 56.3003 2.67037 4.94619 0
M  V30 555 H 48.4513 1.7711 1.17243 0
M  V30 556 H 50.7143 0.754256 0.574284 0
M  V30 557 H 50.4203 2.40001 2.57085 0
M  V30 558 H 50.2943 1.00991 3.63429 0
M  V30 559 H 52.6813 0.30648 2.93504 0
M  V30 560 H 52.7623 1.72869 1.88547 0
M  V30 561 H 52.4063 3.2253 3.92347 0
M  V30 562 H 52.3363 1.77621 4.9574 0
M  V30 563 H 54.8273 1.64729 3.40107 0
M  V30 564 H 55.1403 3.92038 6.65977 0
M  V30 565 H 53.4853 3.51972 5.99284 0
M  V30 566 H 56.6763 2.11597 4.17546 0
M  V30 567 H 56.8493 3.15232 5.66156 0
M  V30 568 N 50.2554 -1.46986 0.568584 0
M  V30 569 C 51.5034 -2.02041 0.0487022 0
M  V30 570 C 51.8244 -1.44408 -1.31039 0
M  V30 571 O 51.0944 -0.623477 -1.85714 0
M  V30 572 H 49.6744 -0.746849 0.015014 0
M  V30 573 H 52.3364 -1.80257 0.741168 0
M  V30 574 H 51.4324 -3.12085 -0.0308961 0
M  V30 575 N 51.7335 -0.305618 -1.54608 0
M  V30 576 C 52.9585 0.307562 -2.05107 0
M  V30 577 C 53.3835 1.46385 -1.18123 0
M  V30 578 O 52.7415 1.8034 -0.186324 0
M  V30 579 C 52.7895 0.73704 -3.52987 0
M  V30 580 O 51.8935 1.84134 -3.6901 0
M  V30 581 H 51.2345 0.0589143 -0.661381 0
M  V30 582 H 53.7645 -0.448807 -1.99617 0
M  V30 583 H 53.7745 1.02459 -3.94925 0
M  V30 584 H 52.4495 -0.108773 -4.15758 0
M  V30 585 H 51.0265 1.55398 -3.38978 0
M  V30 586 N 53.2116 1.57565 -0.0334293 0
M  V30 587 C 54.4396 1.9628 0.654347 0
M  V30 588 C 54.8546 0.910138 1.65414 0
M  V30 589 O 54.2116 -0.107595 1.82183 0
M  V30 590 C 54.2626 3.35067 1.35693 0
M  V30 591 O 53.9836 4.36296 0.397191 0
M  V30 592 C 55.4846 3.88439 2.13613 0
M  V30 593 H 52.7046 0.646369 0.180132 0
M  V30 594 H 55.2486 2.04282 -0.0944721 0
M  V30 595 H 53.4036 3.2827 2.05712 0
M  V30 596 H 53.8176 5.1678 0.896597 0
M  V30 597 H 55.2916 4.8788 2.58219 0
M  V30 598 H 55.7686 3.22914 2.97696 0
M  V30 599 H 56.3746 3.98516 1.48543 0
M  V30 600 N 54.6897 -0.239769 1.55765 0
M  V30 601 C 55.9177 -0.98417 1.81994 0
M  V30 602 C 56.3327 -1.7867 0.610124 0
M  V30 603 O 55.6897 -1.77571 -0.421271 0
M  V30 604 C 55.7407 -1.91635 3.06526 0
M  V30 605 O 55.4617 -1.14629 4.22838 0
M  V30 606 C 56.9627 -2.77616 3.45607 0
M  V30 607 H 54.1827 -0.28928 0.605441 0
M  V30 608 H 56.7267 -0.260499 2.02834 0
M  V30 609 H 54.8817 -2.5942 2.87715 0
M  V30 610 H 55.2957 -1.77745 4.93464 0
M  V30 611 H 56.7697 -3.38759 4.35828 0
M  V30 612 H 57.2467 -3.4909 2.6652 0
M  V30 613 H 57.8527 -2.15271 3.66795 0
M  V30 614 N 56.1678 -1.49265 -0.50573 0
M  V30 615 C 57.0978 -1.68495 -1.61653 0
M  V30 616 C 58.0788 -0.53366 -1.61512 0
M  V30 617 O 59.2638 -0.76897 -1.78327 0
M  V30 618 C 56.3938 -1.74709 -3.00157 0
M  V30 619 C 55.3478 -2.89581 -3.15162 0
M  V30 620 C 54.6738 -2.80903 -4.5497 0
M  V30 621 C 55.9738 -4.30578 -2.95634 0
M  V30 622 H 57.6678 -2.61493 -1.45814 0
M  V30 623 H 55.2138 -1.25838 -0.70005 0
M  V30 624 H 57.1668 -1.86748 -3.77761 0
M  V30 625 H 55.8908 -0.783067 -3.17074 0
M  V30 626 H 54.5498 -2.77136 -2.39982 0
M  V30 627 H 54.1978 -1.82419 -4.68756 0
M  V30 628 H 53.8978 -3.57999 -4.65951 0
M  V30 629 H 55.4218 -2.94944 -5.34641 0
M  V30 630 H 56.8358 -4.4373 -3.63011 0
M  V30 631 H 55.2328 -5.0886 -3.18091 0
M  V30 632 H 56.3028 -4.45352 -1.91806 0
M  V30 633 N 57.6459 0.756429 -1.3826 0
M  V30 634 C 58.5779 1.87971 -1.31147 0
M  V30 635 C 59.5909 1.61248 -0.224239 0
M  V30 636 O 60.7799 1.71881 -0.481581 0
M  V30 637 C 57.8799 3.23545 -1.00857 0
M  V30 638 C 57.0529 3.77794 -2.20432 0
M  V30 639 C 56.1119 4.91877 -1.86931 0
M  V30 640 O 55.1379 5.06659 -2.59395 0
M  V30 641 N 56.3399 5.74643 -0.822568 0
M  V30 642 H 59.1049 1.94585 -2.2794 0
M  V30 643 H 56.6659 0.936234 -1.32084 0
M  V30 644 H 58.6579 3.97403 -0.765021 0
M  V30 645 H 57.2279 3.12335 -0.128687 0
M  V30 646 H 56.4479 2.95534 -2.6087 0
M  V30 647 H 57.7359 4.10771 -3.00241 0
M  V30 648 H 57.1339 5.65266 -0.221575 0
M  V30 649 H 55.6909 6.48661 -0.638899 0
M  V30 650 N 59.124 1.23083 0.984299 0
M  V30 651 C 60.034 1.02515 2.11016 0
M  V30 652 C 61.05 -0.0291702 1.73976 0
M  V30 653 O 62.226 0.165434 2.00719 0
M  V30 654 C 59.291 0.614673 3.41208 0
M  V30 655 C 58.352 1.74359 3.92297 0
M  V30 656 C 57.585 1.35261 5.16275 0
M  V30 657 O 57.808 0.235136 5.69915 0
M  V30 658 O 56.742 2.17227 5.61334 0
M  V30 659 H 60.568 1.96862 2.31255 0
M  V30 660 H 58.153 1.01753 1.09392 0
M  V30 661 H 60.035 0.396518 4.1953 0
M  V30 662 H 58.71 -0.299851 3.22308 0
M  V30 663 H 57.617 2.01635 3.1511 0
M  V30 664 H 58.95 2.63629 4.15645 0
M  V30 665 N 60.6021 -1.18246 1.0419 0
M  V30 666 C 61.8271 -1.92736 0.765996 0
M  V30 667 C 62.2521 -1.75728 -0.67091 0
M  V30 668 O 61.6101 -1.06825 -1.46486 0
M  V30 669 C 61.6581 -3.42148 1.13875 0
M  V30 670 O 60.7621 -4.11548 0.264954 0
M  V30 671 H 60.1031 -0.601238 0.281797 0
M  V30 672 H 62.6331 -1.49942 1.39207 0
M  V30 673 H 62.6431 -3.92858 1.1012 0
M  V30 674 H 61.3181 -3.53848 2.18551 0
M  V30 675 H 59.8951 -3.71137 0.362226 0
M  V30 676 N 62.0802 -0.821533 -1.34494 0
M  V30 677 C 63.4962 -0.507117 -1.51329 0
M  V30 678 C 63.6962 0.968964 -1.76673 0
M  V30 679 O 62.7522 1.75348 -1.81685 0
M  V30 680 C 64.0652 -1.36544 -2.67911 0
M  V30 681 C 65.6132 -1.36242 -2.81793 0
M  V30 682 C 66.0882 -2.2052 -4.01416 0
M  V30 683 N 67.5792 -2.18136 -4.08621 0
M  V30 684 C 68.3142 -2.80095 -5.00334 0
M  V30 685 N 67.8102 -3.51039 -5.9728 0
M  V30 686 N 69.6032 -2.69656 -4.93196 0
M  V30 687 H 61.7542 -1.77729 -1.16302 0
M  V30 688 H 64.0172 -0.757291 -0.570276 0
M  V30 689 H 63.7232 -2.41361 -2.55808 0
M  V30 690 H 63.5972 -1.02917 -3.62888 0
M  V30 691 H 65.9842 -0.322041 -2.93338 0
M  V30 692 H 66.0652 -1.73866 -1.87628 0
M  V30 693 H 65.7092 -3.24607 -3.90631 0
M  V30 694 H 65.6392 -1.80247 -4.94791 0
M  V30 695 H 68.1302 -1.6653 -3.39229 0
M  V30 696 H 68.4432 -3.95565 -6.63889 0
M  V30 697 H 66.7882 -3.55145 -5.97409 0
M  V30 698 H 69.9792 -2.13808 -4.16418 0
M  V30 699 H 70.1522 -3.1823 -5.64476 0
M  V30 700 N 63.5583 1.46682 -0.576371 0
M  V30 701 C 64.4683 2.34032 0.163141 0
M  V30 702 C 65.4843 1.49367 0.892501 0
M  V30 703 O 66.6603 1.82252 0.857106 0
M  V30 704 C 63.7253 3.26435 1.16795 0
M  V30 705 C 62.7863 4.26998 0.443944 0
M  V30 706 C 62.0193 5.14986 1.40088 0
M  V30 707 O 62.2423 5.05785 2.637 0
M  V30 708 O 61.1763 5.94906 0.914917 0
M  V30 709 H 65.0023 2.98607 -0.55388 0
M  V30 710 H 62.5873 1.45554 -0.336821 0
M  V30 711 H 64.4693 3.83459 1.74748 0
M  V30 712 H 63.1443 2.64465 1.86655 0
M  V30 713 H 62.0513 3.7368 -0.177271 0
M  V30 714 H 63.3843 4.91736 -0.213566 0
M  V30 715 N 65.0364 0.313813 1.54444 0
M  V30 716 C 66.2844 -0.291099 1.99993 0
M  V30 717 C 66.6054 -1.53418 1.20366 0
M  V30 718 O 65.8754 -1.93544 0.302927 0
M  V30 719 H 64.4554 -0.110552 0.738774 0
M  V30 720 H 67.1174 0.428106 1.9014 0
M  V30 721 H 66.2134 -0.554268 3.07139 0
M  V30 722 N 66.5145 -1.57545 0.0417849 0
M  V30 723 C 67.4445 -2.14009 -0.933929 0
M  V30 724 C 68.4255 -1.05938 -1.33083 0
M  V30 725 O 69.6105 -1.33833 -1.40721 0
M  V30 726 C 66.7405 -2.67747 -2.21199 0
M  V30 727 C 65.6945 -3.80718 -1.95544 0
M  V30 728 C 65.0205 -4.20935 -3.29724 0
M  V30 729 C 66.3205 -5.06258 -1.28452 0
M  V30 730 H 68.0145 -2.95788 -0.463645 0
M  V30 731 H 65.5605 -1.42285 -0.221573 0
M  V30 732 H 67.5135 -3.05886 -2.89848 0
M  V30 733 H 66.2375 -1.83147 -2.70416 0
M  V30 734 H 64.8965 -3.43037 -1.2931 0
M  V30 735 H 64.5445 -3.33298 -3.76724 0
M  V30 736 H 64.2445 -4.9707 -3.13361 0
M  V30 737 H 65.7685 -4.61666 -3.9962 0
M  V30 738 H 67.1825 -5.41903 -1.8712 0
M  V30 739 H 65.5795 -5.87475 -1.22445 0
M  V30 740 H 66.6495 -4.84207 -0.259219 0
M  V30 741 N 67.9926 0.231505 -1.5589 0
M  V30 742 C 69.4036 0.799327 -1.68724 0
M  V30 743 C 69.7546 1.85398 -0.642022 0
M  V30 744 O 68.8796 2.1539 0.208784 0
M  V30 745 C 69.4746 1.45664 -3.05888 0
M  V30 746 C 68.0336 1.97197 -3.20609 0
M  V30 747 C 67.1806 0.828552 -2.64632 0
M  V30 748 H 70.1316 0.00702616 -1.58698 0
M  V30 749 H 70.1526 2.32517 -3.01191 0
M  V30 750 H 69.6646 0.688808 -3.81939 0
M  V30 751 H 67.7656 2.76813 -2.4941 0
M  V30 752 H 67.8786 2.15878 -4.27707 0
M  V30 753 H 66.2426 1.23321 -2.22854 0
M  V30 754 H 67.0256 0.0735544 -3.43221 0
M  V30 755 N 69.4707 1.49531 0.497807 0
M  V30 756 C 70.3807 1.69176 1.62532 0
M  V30 757 C 71.3967 0.5744 1.64246 0
M  V30 758 O 72.5727 0.849497 1.82608 0
M  V30 759 C 69.6377 1.75695 2.98885 0
M  V30 760 C 68.6987 2.9929 3.07773 0
M  V30 761 C 67.9317 3.05488 4.37622 0
M  V30 762 O 68.1547 2.19192 5.26603 0
M  V30 763 O 67.0887 3.9798 4.51548 0
M  V30 764 H 70.9147 2.647 1.48887 0
M  V30 765 H 68.4997 1.3331 0.674441 0
M  V30 766 H 70.3817 1.82317 3.79919 0
M  V30 767 H 69.0567 0.8335 3.12785 0
M  V30 768 H 67.9637 2.98183 2.25915 0
M  V30 769 H 69.2967 3.91125 2.98801 0
M  V30 770 N 70.9488 -0.749086 1.3866 0
M  V30 771 C 71.8588 -1.89358 1.38494 0
M  V30 772 C 72.8748 -1.71708 0.281476 0
M  V30 773 O 74.0508 -1.94554 0.520643 0
M  V30 774 C 71.1158 -3.24782 1.21316 0
M  V30 775 C 70.1768 -3.54926 2.41508 0
M  V30 776 C 69.4098 -4.83888 2.2514 0
M  V30 777 O 69.6328 -5.56592 1.24746 0
M  V30 778 O 68.5668 -5.13612 3.13826 0
M  V30 779 H 72.3928 -1.92452 2.34938 0
M  V30 780 H 69.9778 -0.894981 1.19626 0
M  V30 781 H 71.8598 -4.05739 1.13814 0
M  V30 782 H 70.5348 -3.2249 0.279592 0
M  V30 783 H 69.4418 -2.74112 2.54585 0
M  V30 784 H 70.7748 -3.61983 3.3351 0
M  V30 785 N 72.4269 -1.23603 -0.977757 0
M  V30 786 C 73.3369 -1.03632 -2.1047 0
M  V30 787 C 74.3529 0.0199435 -1.73989 0
M  V30 788 O 75.5289 -0.176076 -2.00629 0
M  V30 789 C 72.5939 -0.63276 -3.40877 0
M  V30 790 C 71.6549 -1.76437 -3.91367 0
M  V30 791 C 70.8879 -1.37997 -5.15551 0
M  V30 792 O 71.1109 -0.265357 -5.69782 0
M  V30 793 O 70.0449 -2.20201 -5.60174 0
M  V30 794 H 73.8709 -1.98086 -2.30208 0
M  V30 795 H 71.4559 -1.02332 -1.08851 0
M  V30 796 H 73.3379 -0.418761 -4.19314 0
M  V30 797 H 72.0129 0.282754 -3.22463 0
M  V30 798 H 70.9199 -2.03304 -3.14036 0
M  V30 799 H 72.2529 -2.6583 -4.14241 0
M  V30 800 N 73.905 1.17692 -1.04816 0
M  V30 801 C 74.868 2.19787 -0.650117 0
M  V30 802 C 75.868 1.58044 0.296427 0
M  V30 803 O 77.058 1.74012 0.0808097 0
M  V30 804 C 74.19 3.40869 0.0456987 0
M  V30 805 H 75.383 2.56516 -1.5537 0
M  V30 806 H 72.936 1.31708 -0.841594 0
M  V30 807 H 73.671 3.09681 0.962726 0
M  V30 808 H 73.456 3.86928 -0.634727 0
M  V30 809 H 74.946 4.16445 0.310432 0
M  V30 810 N 75.3831 0.828654 1.34056 0
M  V30 811 C 76.7941 0.477534 1.8049 0
M  V30 812 C 77.1451 -1.00258 1.6865 0
M  V30 813 O 76.2701 -1.78057 1.22982 0
M  V30 814 C 76.8651 0.860018 3.27703 0
M  V30 815 C 75.4241 0.561185 3.72193 0
M  V30 816 C 74.5711 1.07385 2.55663 0
M  V30 817 H 77.5221 1.0183 1.21722 0
M  V30 818 H 77.5431 0.166038 3.80138 0
M  V30 819 H 77.0551 1.93731 3.36288 0
M  V30 820 H 75.1561 -0.506465 3.69142 0
M  V30 821 H 75.2691 1.10926 4.66082 0
M  V30 822 H 73.6331 0.495149 2.49841 0
M  V30 823 H 74.4161 2.15771 2.67016 0
M  V30 824 N 76.8612 -1.46375 0.584142 0
M  V30 825 C 78.2772 -1.57694 0.245929 0
M  V30 826 C 78.4772 -1.57903 -1.25175 0
M  V30 827 O 77.5332 -1.49676 -2.03355 0
M  V30 828 C 78.8462 -2.87028 0.896402 0
M  V30 829 C 80.3942 -3.00662 0.870127 0
M  V30 830 C 80.8692 -4.32734 1.50017 0
M  V30 831 N 82.3602 -4.39436 1.46458 0
M  V30 832 C 83.0952 -5.40248 1.92144 0
M  V30 833 N 82.5912 -6.47726 2.4581 0
M  V30 834 N 84.3842 -5.31459 1.83052 0
M  V30 835 H 76.5352 -1.44483 1.55687 0
M  V30 836 H 78.7982 -0.689291 0.650831 0
M  V30 837 H 78.5042 -2.9269 1.95002 0
M  V30 838 H 78.3782 -3.75014 0.405486 0
M  V30 839 H 80.7652 -2.94581 -0.174871 0
M  V30 840 H 80.8462 -2.14148 1.39908 0
M  V30 841 H 80.4902 -4.39573 2.54437 0
M  V30 842 H 80.4202 -5.18025 0.946432 0
M  V30 843 H 82.9112 -3.62367 1.07231 0
M  V30 844 H 83.2242 -7.20863 2.78525 0
M  V30 845 H 81.5692 -6.48542 2.49836 0
M  V30 846 H 84.7602 -4.46396 1.40883 0
M  V30 847 H 84.9332 -6.09881 2.18973 0
M  V30 848 N 78.3393 -0.321999 -1.54275 0
M  V30 849 C 79.7503 0.166384 -1.85957 0
M  V30 850 C 80.1013 1.51747 -1.24367 0
M  V30 851 O 79.2263 2.09317 -0.549124 0
M  V30 852 C 79.8213 0.308681 -3.37391 0
M  V30 853 C 78.3803 0.741286 -3.69028 0
M  V30 854 C 77.5273 -0.137937 -2.76957 0
M  V30 855 H 80.4783 -0.542335 -1.49146 0
M  V30 856 H 80.4993 1.13984 -3.63026 0
M  V30 857 H 80.0113 -0.674809 -3.82188 0
M  V30 858 H 78.1123 1.73458 -3.29762 0
M  V30 859 H 78.2253 0.546118 -4.75977 0
M  V30 860 H 76.5893 0.386251 -2.51754 0
M  V30 861 H 77.3723 -1.11816 -3.2458 0
M  V30 862 N 79.8174 1.5752 -0.0501392 0
M  V30 863 C 80.7494 2.08413 0.95376 0
M  V30 864 C 81.7624 1.01175 1.27544 0
M  V30 865 O 82.9514 1.28744 1.23641 0
M  V30 866 C 80.0514 2.51138 2.27559 0
M  V30 867 C 79.2244 3.817 2.13598 0
M  V30 868 C 78.2834 4.10749 3.28895 0
M  V30 869 O 77.3094 4.80685 3.04845 0
M  V30 870 N 78.5114 3.62579 4.5334 0
M  V30 871 H 81.2764 2.95165 0.519383 0
M  V30 872 H 78.8374 1.61327 0.136127 0
M  V30 873 H 80.8294 2.67648 3.03557 0
M  V30 874 H 79.3994 1.6964 2.62567 0
M  V30 875 H 78.6194 3.74782 1.22197 0
M  V30 876 H 79.9074 4.67201 2.01496 0
M  V30 877 H 79.3054 3.06039 4.75769 0
M  V30 878 H 77.8624 3.84329 5.26436 0
M  V30 879 N 81.2955 -0.223234 1.56011 0
M  V30 880 C 82.2255 -1.27988 1.95298 0
M  V30 881 C 83.2065 -1.48976 0.820979 0
M  V30 882 O 84.3915 -1.61188 1.08315 0
M  V30 883 C 81.5215 -2.63 2.26822 0
M  V30 884 C 80.4755 -2.56671 3.42497 0
M  V30 885 C 79.8015 -3.95697 3.59622 0
M  V30 886 C 81.1015 -2.11601 4.77517 0
M  V30 887 H 82.7955 -0.953525 2.8381 0
M  V30 888 H 80.3415 -0.457244 1.36548 0
M  V30 889 H 82.2945 -3.37077 2.52898 0
M  V30 890 H 81.0185 -2.9732 1.35161 0
M  V30 891 H 79.6775 -1.85051 3.16467 0
M  V30 892 H 79.3255 -4.27322 2.6534 0
M  V30 893 H 79.0255 -3.92345 4.37424 0
M  V30 894 H 80.5495 -4.71438 3.88044 0
M  V30 895 H 81.9635 -2.7542 5.02809 0
M  V30 896 H 80.3605 -2.19311 5.5859 0
M  V30 897 H 81.4305 -1.06824 4.72987 0
M  V30 898 N 82.7736 -1.49793 -0.48987 0
M  V30 899 C 84.0506 -1.50348 -1.25119 0
M  V30 900 C 84.4306 -0.237466 -2.0976 0
M  V30 901 O 83.7786 0.77981 -2.14782 0
M  V30 902 C 83.9886 -2.78872 -2.09837 0
M  V30 903 C 85.3366 -3.288 -2.68655 0
M  V30 904 O 86.3606 -2.80065 -2.20096 0
M  V30 905 O 85.2196 -4.13707 -3.57083 0
M  V30 906 H 82.3136 -0.602242 -0.566775 0
M  V30 907 H 84.8596 -1.62067 -0.503229 0
M  V30 908 H 83.6316 -3.62499 -1.47343 0
M  V30 909 H 83.2546 -2.70066 -2.91805 0
M  V30 910 N 84.2517 0.741722 -1.39055 0
M  V30 911 C 85.1817 1.869 -1.39966 0
M  V30 912 C 86.1627 1.6804 -0.26392 0
M  V30 913 O 87.3477 1.88458 -0.468755 0
M  V30 914 C 84.4777 3.24572 -1.23574 0
M  V30 915 C 83.4317 3.58056 -2.34477 0
M  V30 916 C 82.7577 4.94593 -2.0318 0
M  V30 917 C 84.0577 3.61716 -3.76774 0
M  V30 918 H 85.7517 1.86395 -2.34302 0
M  V30 919 H 83.2977 0.895361 -1.1278 0
M  V30 920 H 85.2507 4.031 -1.22834 0
M  V30 921 H 83.9747 3.25587 -0.257045 0
M  V30 922 H 82.6337 2.81854 -2.34423 0
M  V30 923 H 82.2817 4.92181 -1.03765 0
M  V30 924 H 81.9817 5.17964 -2.77465 0
M  V30 925 H 83.5057 5.75486 -2.04079 0
M  V30 926 H 84.9197 4.30335 -3.78794 0
M  V30 927 H 83.3167 3.96603 -4.50362 0
M  V30 928 H 84.3867 2.61672 -4.08235 0
M  V30 929 N 85.7298 1.2412 0.971189 0
M  V30 930 C 86.6618 0.988349 2.06795 0
M  V30 931 C 87.6748 -0.0409541 1.62748 0
M  V30 932 O 88.8638 0.195673 1.77424 0
M  V30 933 C 85.9638 0.469023 3.35639 0
M  V30 934 C 85.1368 1.56065 4.08611 0
M  V30 935 C 84.1958 1.04458 5.15728 0
M  V30 936 O 83.2218 1.73553 5.42096 0
M  V30 937 N 84.4238 -0.122817 5.8037 0
M  V30 938 H 87.1888 1.93265 2.29061 0
M  V30 939 H 84.7498 1.15102 1.13856 0
M  V30 940 H 86.7418 0.108613 4.04554 0
M  V30 941 H 85.3118 -0.380919 3.1027 0
M  V30 942 H 84.5318 2.09341 3.34021 0
M  V30 943 H 85.8198 2.29449 4.54126 0
M  V30 944 H 85.2178 -0.700563 5.61345 0
M  V30 945 H 83.7748 -0.424404 6.50417 0
M  V30 946 N 87.2079 -1.17134 1.05439 0
M  V30 947 C 88.1709 -2.19439 0.661764 0
M  V30 948 C 89.1709 -1.58199 -0.288042 0
M  V30 949 O 90.3609 -1.74053 -0.0715803 0
M  V30 950 C 87.4929 -3.40889 -0.0276209 0
M  V30 951 H 88.6859 -2.55688 1.56728 0
M  V30 952 H 86.2389 -1.31259 0.848567 0
M  V30 953 H 86.9739 -3.10187 -0.94629 0
M  V30 954 H 86.7589 -3.86586 0.655238 0
M  V30 955 H 88.2489 -4.16603 -0.288342 0
M  V30 956 N 88.686 -0.835752 -1.33615 0
M  V30 957 C 89.911 -0.442389 -2.02627 0
M  V30 958 C 90.336 0.947735 -1.62479 0
M  V30 959 O 89.694 1.61907 -0.815826 0
M  V30 960 C 89.742 -0.567216 -3.56111 0
M  V30 961 O 88.846 0.407799 -4.10379 0
M  V30 962 H 88.187 -0.180278 -0.639059 0
M  V30 963 H 90.717 -1.12972 -1.70583 0
M  V30 964 H 90.727 -0.447708 -4.05536 0
M  V30 965 H 89.402 -1.58103 -3.84677 0
M  V30 966 H 87.979 0.246107 -3.72087 0
M  V30 967 N 90.1641 1.46063 -0.591896 0
M  V30 968 C 91.1111 2.30399 0.136069 0
M  V30 969 C 92.0811 1.41169 0.875238 0
M  V30 970 O 93.2661 1.70112 0.86409 0
M  V30 971 C 90.4061 3.25804 1.13781 0
M  V30 972 C 89.5191 4.30134 0.401137 0
M  V30 973 C 88.6541 5.12659 1.39121 0
M  V30 974 C 87.6931 6.0873 0.641462 0
M  V30 975 N 86.8301 6.8409 1.58004 0
M  V30 976 H 91.6701 2.92118 -0.589144 0
M  V30 977 H 89.2071 1.43959 -0.302342 0
M  V30 978 H 91.1651 3.79569 1.73156 0
M  V30 979 H 89.7951 2.65872 1.83062 0
M  V30 980 H 88.8471 3.79152 -0.307826 0
M  V30 981 H 90.1591 4.98458 -0.184565 0
M  V30 982 H 89.3131 5.70747 2.05749 0
M  V30 983 H 88.0521 4.44316 2.01084 0
M  V30 984 H 87.0571 5.49786 -0.0385419 0
M  V30 985 H 88.2821 6.79095 0.0270945 0
M  V30 986 H 86.2281 6.18449 2.18761 0
M  V30 987 H 86.1451 7.48709 1.04738 0
M  V30 988 H 87.4131 7.4673 2.23639 0
M  V30 989 N 91.6422 0.330177 1.54103 0
M  V30 990 C 92.5892 -0.532762 2.24567 0
M  V30 991 C 93.5592 -1.10635 1.23892 0
M  V30 992 O 94.7442 -1.14546 1.5259 0
M  V30 993 C 91.8842 -1.6845 3.01195 0
M  V30 994 C 90.9972 -1.13951 4.167 0
M  V30 995 C 90.1322 -2.25746 4.80845 0
M  V30 996 C 89.1712 -1.6853 5.88442 0
M  V30 997 N 88.3082 -2.74014 6.46421 0
M  V30 998 H 93.1482 0.0746905 2.97906 0
M  V30 999 H 90.6852 0.048632 1.4702 0
M  V30 1000 H 92.6432 -2.36234 3.43874 0
M  V30 1001 H 91.2732 -2.26314 2.30178 0
M  V30 1002 H 90.3252 -0.35301 3.78758 0
M  V30 1003 H 91.6372 -0.680892 4.94131 0
M  V30 1004 H 90.7912 -3.01422 5.26526 0
M  V30 1005 H 89.5302 -2.74947 4.0281 0
M  V30 1006 H 88.5352 -0.913543 5.42157 0
M  V30 1007 H 89.7602 -1.20198 6.68378 0
M  V30 1008 H 87.7062 -3.22494 5.71256 0
M  V30 1009 H 87.6232 -2.32735 7.19285 0
M  V30 1010 H 88.8912 -3.49499 6.96757 0
M  V30 1011 N 93.1203 -1.57491 0.0584922 0
M  V30 1012 C 94.0503 -2.14988 -0.911178 0
M  V30 1013 C 95.0313 -1.07343 -1.31952 0
M  V30 1014 O 96.2163 -1.35318 -1.39294 0
M  V30 1015 C 93.3463 -2.70078 -2.18347 0
M  V30 1016 C 92.3003 -3.82771 -1.91495 0
M  V30 1017 C 91.6263 -4.24408 -3.25241 0
M  V30 1018 C 92.9263 -5.07592 -1.23075 0
M  V30 1019 H 94.6203 -2.96263 -0.432246 0
M  V30 1020 H 92.1663 -1.42512 -0.206469 0
M  V30 1021 H 94.1193 -3.08943 -2.86587 0
M  V30 1022 H 92.8433 -1.86005 -2.68458 0
M  V30 1023 H 91.5023 -3.44389 -1.25664 0
M  V30 1024 H 91.1503 -3.37275 -3.73168 0
M  V30 1025 H 90.8503 -5.00366 -3.08071 0
M  V30 1026 H 92.3743 -4.65879 -3.94701 0
M  V30 1027 H 93.7883 -5.43857 -1.81362 0
M  V30 1028 H 92.1853 -5.88741 -1.16207 0
M  V30 1029 H 93.2553 -4.84454 -0.207847 0
M  V30 1030 N 94.5984 0.214957 -1.56127 0
M  V30 1031 C 96.0094 0.781386 -1.69562 0
M  V30 1032 C 96.3604 1.84707 -0.66165 0
M  V30 1033 O 95.4854 2.156 0.185927 0
M  V30 1034 C 96.0804 1.42411 -3.07416 0
M  V30 1035 C 94.6394 1.93786 -3.22683 0
M  V30 1036 C 93.7864 0.800438 -2.65496 0
M  V30 1037 H 96.7374 -0.00980633 -1.58697 0
M  V30 1038 H 96.7584 2.29309 -3.0364 0
M  V30 1039 H 96.2704 0.64826 -3.82648 0
M  V30 1040 H 94.3714 2.74152 -2.52332 0
M  V30 1041 H 94.4844 2.1133 -4.29973 0
M  V30 1042 H 92.8484 1.2095 -2.2415 0
M  V30 1043 H 93.6314 0.0371471 -3.4328 0
M  V30 1044 N 96.0765 1.50051 0.48192 0
M  V30 1045 C 97.3535 1.51009 1.2432 0
M  V30 1046 C 97.7335 0.248587 2.09631 0
M  V30 1047 O 97.0815 -0.768409 2.15192 0
M  V30 1048 C 97.2915 2.79981 2.08355 0
M  V30 1049 C 98.6395 3.3022 2.66908 0
M  V30 1050 O 99.6635 2.81228 2.18607 0
M  V30 1051 O 98.5225 4.15595 3.54884 0
M  V30 1052 H 95.6165 0.605239 0.563573 0
M  V30 1053 H 98.1625 1.62332 0.494627 0
M  V30 1054 H 96.9345 3.63275 1.45419 0
M  V30 1055 H 96.5575 2.7161 2.90368 0
M  V30 1056 N 97.5546 -0.734337 1.39446 0
M  V30 1057 C 98.4846 -1.86155 1.40955 0
M  V30 1058 C 99.4656 -1.67898 0.272827 0
M  V30 1059 O 100.651 -1.88207 0.478743 0
M  V30 1060 C 97.7806 -3.23912 1.25294 0
M  V30 1061 C 96.7346 -3.56808 2.36373 0
M  V30 1062 C 96.0606 -4.93508 2.058 0
M  V30 1063 C 97.3606 -3.59713 3.78687 0
M  V30 1064 H 99.0546 -1.8515 2.35287 0
M  V30 1065 H 96.6006 -0.889367 1.13253 0
M  V30 1066 H 98.5536 -4.02443 1.2497 0
M  V30 1067 H 97.2776 -3.25446 0.274308 0
M  V30 1068 H 95.9366 -2.80606 2.35914 0
M  V30 1069 H 95.5846 -4.91623 1.06374 0
M  V30 1070 H 95.2846 -5.16486 2.80208 0
M  V30 1071 H 96.8086 -5.74396 2.07128 0
M  V30 1072 H 98.2226 -4.2832 3.81071 0
M  V30 1073 H 96.6196 -3.94209 4.52459 0
M  V30 1074 H 97.6896 -2.59504 4.09617 0
M  V30 1075 N 99.0327 -1.24633 -0.964593 0
M  V30 1076 C 100.263 -1.11339 -1.74032 0
M  V30 1077 C 100.671 0.336593 -1.86182 0
M  V30 1078 O 100.014 1.24389 -1.35178 0
M  V30 1079 C 100.076 -1.68284 -3.1768 0
M  V30 1080 C 99.7397 -3.17196 -3.28992 0
M  V30 1081 C 100.737 -4.14308 -3.14078 0
M  V30 1082 C 98.4217 -3.57215 -3.53133 0
M  V30 1083 C 100.416 -5.4942 -3.23135 0
M  V30 1084 C 98.1027 -4.92468 -3.61827 0
M  V30 1085 C 99.1007 -5.8838 -3.46841 0
M  V30 1086 O 98.7887 -7.21173 -3.55197 0
M  V30 1087 H 98.5207 -0.389551 -0.552472 0
M  V30 1088 H 101.075 -1.65282 -1.21946 0
M  V30 1089 H 99.3047 -1.08777 -3.71085 0
M  V30 1090 H 100.994 -1.50234 -3.77074 0
M  V30 1091 H 101.76 -3.84731 -2.95308 0
M  V30 1092 H 97.6387 -2.83063 -3.63863 0
M  V30 1093 H 101.183 -6.24263 -3.11355 0
M  V30 1094 H 97.0797 -5.21714 -3.80111 0
M  V30 1095 H 97.8477 -7.29135 -3.71892 0
M  V30 1096 N 100.511 1.16574 -1.06058 0
M  V30 1097 C 101.759 1.86677 -0.77434 0
M  V30 1098 C 102.08 1.81959 0.701147 0
M  V30 1099 O 101.35 1.2515 1.50713 0
M  V30 1100 H 99.9298 0.691134 -0.283449 0
M  V30 1101 H 102.592 1.41378 -1.34158 0
M  V30 1102 H 101.688 2.92181 -1.09711 0
M  V30 1103 N 101.989 0.842826 1.3317 0
M  V30 1104 C 102.937 0.267495 2.31057 0
M  V30 1105 C 103.931 -0.602682 1.58316 0
M  V30 1106 O 105.137 -0.491803 1.73151 0
M  V30 1107 H 101.512 0.0677813 0.748939 0
M  V30 1108 H 103.483 1.10754 2.77085 0
M  V30 1109 C 102.232 -0.539331 3.43492 0
M  V30 1110 H 101.555 0.12095 3.99617 0
M  V30 1111 H 102.995 -0.90767 4.14171 0
M  V30 1112 C 101.454 -1.71981 2.89697 0
M  V30 1113 O 101.984 -2.81862 2.86211 0
M  V30 1114 N 100.19 -1.54299 2.46252 0
M  V30 1115 H 99.7369 -0.649143 2.49287 0
M  V30 1116 H 99.6949 -2.33431 2.10612 0
M  V30 1117 N 103.467 -1.45747 0.599634 0
M  V30 1118 C 104.878 -1.85853 0.177681 0
M  V30 1119 C 105.229 -1.50102 -1.26348 0
M  V30 1120 O 104.354 -0.923905 -1.95686 0
M  V30 1121 C 104.949 -3.37326 0.315688 0
M  V30 1122 C 103.508 -3.76365 -0.0515144 0
M  V30 1123 C 102.655 -2.69722 0.643822 0
M  V30 1124 H 105.606 -1.36661 0.806814 0
M  V30 1125 H 105.627 -3.77778 -0.454321 0
M  V30 1126 H 105.139 -3.63315 1.36468 0
M  V30 1127 H 103.24 -3.55993 -1.09999 0
M  V30 1128 H 103.353 -4.77916 0.336594 0
M  V30 1129 H 101.717 -2.54567 0.0822881 0
M  V30 1130 H 102.5 -2.98549 1.6948 0
M  V30 1131 N 104.945 -0.338344 -1.53925 0
M  V30 1132 C 106.356 0.146651 -1.86123 0
M  V30 1133 C 106.707 1.5042 -1.2597 0
M  V30 1134 O 105.832 2.08723 -0.571294 0
M  V30 1135 C 106.427 0.272879 -3.37699 0
M  V30 1136 C 104.986 0.702103 -3.69794 0
M  V30 1137 C 104.133 -0.167304 -2.76795 0
M  V30 1138 H 107.084 -0.558123 -1.48562 0
M  V30 1139 H 107.105 1.10128 -3.64214 0
M  V30 1140 H 106.617 -0.715307 -3.81451 0
M  V30 1141 H 104.718 1.6995 -3.31584 0
M  V30 1142 H 104.831 0.495604 -4.7653 0
M  V30 1143 H 103.195 0.359527 -2.5215 0
M  V30 1144 H 103.978 -1.15253 -3.23375 0
M  V30 1145 N 106.423 1.57458 -0.0668435 0
M  V30 1146 C 107.355 2.09413 0.931601 0
M  V30 1147 C 108.368 1.02522 1.26464 0
M  V30 1148 O 109.557 1.30049 1.22269 0
M  V30 1149 C 106.657 2.53537 2.24882 0
M  V30 1150 C 105.83 3.83944 2.09537 0
M  V30 1151 C 104.889 4.14214 3.2452 0
M  V30 1152 O 103.915 4.83891 2.9973 0
M  V30 1153 N 105.117 3.67367 4.49469 0
M  V30 1154 H 107.882 2.95699 0.488048 0
M  V30 1155 H 105.443 1.61462 0.119009 0
M  V30 1156 H 107.435 2.70853 3.00701 0
M  V30 1157 H 106.005 1.72415 2.60753 0
M  V30 1158 H 105.225 3.76057 1.18215 0
M  V30 1159 H 106.513 4.69312 1.96529 0
M  V30 1160 H 105.911 3.11068 4.72497 0
M  V30 1161 H 104.468 3.89891 5.2233 0
M  V30 1162 N 107.901 -0.206675 1.56239 0
M  V30 1163 C 108.811 -1.27686 1.96808 0
M  V30 1164 C 109.827 -1.50455 0.874035 0
M  V30 1165 O 111.003 -1.63295 1.17884 0
M  V30 1166 C 108.068 -2.60358 2.28942 0
M  V30 1167 C 107.129 -2.45762 3.51994 0
M  V30 1168 C 106.362 -3.72108 3.82585 0
M  V30 1169 O 106.585 -4.75776 3.14631 0
M  V30 1170 O 105.519 -3.6833 4.76043 0
M  V30 1171 H 109.345 -0.962593 2.88041 0
M  V30 1172 H 106.93 -0.410746 1.43643 0
M  V30 1173 H 108.812 -3.38687 2.50737 0
M  V30 1174 H 107.487 -2.91435 1.4088 0
M  V30 1175 H 106.394 -1.65584 3.35459 0
M  V30 1176 H 107.727 -2.19621 4.40486 0
M  V30 1177 N 109.379 -1.50304 -0.473955 0
M  V30 1178 C 110.309 -1.71886 -1.58042 0
M  V30 1179 C 111.29 -0.567799 -1.60344 0
M  V30 1180 O 112.475 -0.806623 -1.76656 0
M  V30 1181 C 109.605 -1.81036 -2.96384 0
M  V30 1182 C 108.559 -2.962 -3.08949 0
M  V30 1183 C 107.885 -2.9049 -4.48909 0
M  V30 1184 C 109.185 -4.36752 -2.86434 0
M  V30 1185 H 110.879 -2.64527 -1.40234 0
M  V30 1186 H 108.425 -1.27295 -0.673201 0
M  V30 1187 H 110.378 -1.94719 -3.73714 0
M  V30 1188 H 109.102 -0.850147 -3.15341 0
M  V30 1189 H 107.761 -2.82164 -2.3405 0
M  V30 1190 H 107.409 -1.92321 -4.64781 0
M  V30 1191 H 107.109 -3.67802 -4.58253 0
M  V30 1192 H 108.633 -3.06218 -5.28264 0
M  V30 1193 H 110.047 -4.5133 -3.53517 0
M  V30 1194 H 108.444 -5.15493 -3.07225 0
M  V30 1195 H 109.514 -4.49321 -1.82316 0
M  V30 1196 N 110.857 0.726932 -1.39834 0
M  V30 1197 C 112.106 1.48214 -1.36805 0
M  V30 1198 C 112.419 1.95576 0.0305291 0
M  V30 1199 O 113.625 2.7088 0.183417 0
M  V30 1200 C 112.081 2.67854 -2.40379 0
M  V30 1201 C 111.689 2.27408 -3.85992 0
M  V30 1202 C 113.433 3.45641 -2.46439 0
M  V30 1203 C 111.34 3.43819 -4.81189 0
M  V30 1204 H 110.27 0.556606 -0.508631 0
M  V30 1205 H 112.921 0.792216 -1.65518 0
M  V30 1206 H 111.303 3.3896 -2.04749 0
M  V30 1207 H 112.477 1.63795 -4.30706 0
M  V30 1208 H 110.792 1.62692 -3.83302 0
M  V30 1209 H 113.389 4.32244 -3.14753 0
M  V30 1210 H 113.732 3.88669 -1.49139 0
M  V30 1211 H 114.265 2.8157 -2.81004 0
M  V30 1212 H 111.004 3.05834 -5.79781 0
M  V30 1213 H 110.524 4.06385 -4.41148 0
M  V30 1214 H 112.203 4.10043 -5.00474 0
M  V30 1215 N 112.336 1.25143 0.95797 0
M  V30 1216 C 113.584 1.09476 1.69881 0
M  V30 1217 C 113.905 -0.365502 1.91544 0
M  V30 1218 O 113.175 -1.25985 1.50015 0
M  V30 1219 H 111.755 0.402128 0.629525 0
M  V30 1220 H 114.417 1.57214 1.15194 0
M  V30 1221 H 113.513 1.60046 2.6794 0
M  V30 1222 N 113.814 -1.1601 1.06675 0
M  V30 1223 C 114.724 -2.24156 0.692179 0
M  V30 1224 C 115.74 -1.71507 -0.293513 0
M  V30 1225 O 116.916 -2.009 -0.141861 0
M  V30 1226 C 113.981 -3.46587 0.0884131 0
M  V30 1227 C 113.042 -4.14257 1.12646 0
M  V30 1228 C 112.275 -5.30844 0.551416 0
M  V30 1229 O 112.498 -5.66858 -0.634656 0
M  V30 1230 O 111.432 -5.87848 1.29298 0
M  V30 1231 H 115.258 -2.58513 1.59388 0
M  V30 1232 H 112.843 -1.23599 0.83926 0
M  V30 1233 H 114.725 -4.20679 -0.246361 0
M  V30 1234 H 113.4 -3.13994 -0.786712 0
M  V30 1235 H 112.307 -3.42118 1.51348 0
M  V30 1236 H 113.64 -4.50914 1.97325 0
M  V30 1237 N 115.292 -0.849877 -1.32721 0
M  V30 1238 C 116.703 -0.506188 -1.79707 0
M  V30 1239 C 117.054 0.975627 -1.70223 0
M  V30 1240 O 116.179 1.76078 -1.25799 0
M  V30 1241 C 116.774 -0.912044 -3.26293 0
M  V30 1242 C 115.333 -0.620326 -3.71253 0
M  V30 1243 C 114.48 -1.11439 -2.53922 0
M  V30 1244 H 117.431 -1.03754 -1.20087 0
M  V30 1245 H 117.452 -0.226493 -3.79825 0
M  V30 1246 H 116.964 -1.99057 -3.33164 0
M  V30 1247 H 115.065 0.447674 -3.69901 0
M  V30 1248 H 115.178 -1.18327 -4.64258 0
M  V30 1249 H 113.542 -0.534834 -2.49021 0
M  V30 1250 H 114.325 -2.19992 -2.6355 0
M  V30 1251 N 116.77 1.45427 -0.607355 0
M  V30 1252 C 117.7 2.3329 0.0989352 0
M  V30 1253 C 118.681 1.46816 0.859007 0
M  V30 1254 O 119.866 1.75588 0.829604 0
M  V30 1255 C 116.996 3.29518 1.09705 0
M  V30 1256 C 115.95 4.25626 0.450206 0
M  V30 1257 C 115.276 5.11542 1.55655 0
M  V30 1258 C 116.576 5.18505 -0.628455 0
M  V30 1259 H 118.27 2.92595 -0.634716 0
M  V30 1260 H 115.816 1.40696 -0.306681 0
M  V30 1261 H 117.769 3.89855 1.59971 0
M  V30 1262 H 116.493 2.68372 1.86129 0
M  V30 1263 H 115.152 3.66586 -0.0315886 0
M  V30 1264 H 114.8 4.46765 2.31107 0
M  V30 1265 H 114.5 5.76647 1.12925 0
M  V30 1266 H 116.024 5.74748 2.06148 0
M  V30 1267 H 117.438 5.72916 -0.209877 0
M  V30 1268 H 115.835 5.92085 -0.977489 0
M  V30 1269 H 116.905 4.60948 -1.50514 0
M  V30 1270 N 118.248 0.346503 1.53744 0
M  V30 1271 C 119.158 -0.517293 2.28826 0
M  V30 1272 C 120.174 -1.10935 1.3405 0
M  V30 1273 O 121.35 -1.1244 1.6709 0
M  V30 1274 C 118.415 -1.65098 3.04866 0
M  V30 1275 C 117.476 -1.0884 4.15274 0
M  V30 1276 C 116.709 -2.16806 4.87679 0
M  V30 1277 O 116.932 -3.3758 4.59778 0
M  V30 1278 O 115.866 -1.80934 5.74061 0
M  V30 1279 H 119.692 0.0931396 3.03557 0
M  V30 1280 H 117.277 0.111458 1.48984 0
M  V30 1281 H 119.159 -2.31053 3.5241 0
M  V30 1282 H 117.834 -2.24717 2.32989 0
M  V30 1283 H 116.741 -0.3933 3.72027 0
M  V30 1284 H 118.074 -0.537036 4.89261 0
M  V30 1285 N 119.726 -1.57421 0.075193 0
M  V30 1286 C 121.003 -1.85029 -0.634329 0
M  V30 1287 C 121.383 -0.968305 -1.87582 0
M  V30 1288 O 120.731 -0.0354749 -2.28472 0
M  V30 1289 C 120.941 -3.35286 -0.968742 0
M  V30 1290 C 122.289 -4.02875 -1.34077 0
M  V30 1291 O 123.313 -3.40051 -1.06037 0
M  V30 1292 O 122.172 -5.13691 -1.86506 0
M  V30 1293 H 119.266 -0.7645 -0.315387 0
M  V30 1294 H 121.812 -1.69366 0.106382 0
M  V30 1295 H 120.584 -3.91203 -0.0871376 0
M  V30 1296 H 120.207 -3.56223 -1.7661 0
M  V30 1297 N 121.204 0.198386 -1.56346 0
M  V30 1298 C 122.134 1.24865 -1.9731 0
M  V30 1299 C 123.115 1.47651 -0.844576 0
M  V30 1300 O 124.3 1.59444 -1.10866 0
M  V30 1301 C 121.43 2.59358 -2.30977 0
M  V30 1302 C 120.384 2.5119 -3.46537 0
M  V30 1303 C 119.71 3.89926 -3.65871 0
M  V30 1304 C 121.01 2.03977 -4.80823 0
M  V30 1305 H 122.704 0.908252 -2.85291 0
M  V30 1306 H 120.25 0.435462 -1.37258 0
M  V30 1307 H 122.203 3.33011 -2.58228 0
M  V30 1308 H 120.927 2.95132 -1.39874 0
M  V30 1309 H 119.586 1.79993 -3.19371 0
M  V30 1310 H 119.234 4.23046 -2.72105 0
M  V30 1311 H 118.934 3.85336 -4.4361 0
M  V30 1312 H 120.458 4.65205 -3.95495 0
M  V30 1313 H 121.872 2.67386 -5.07127 0
M  V30 1314 H 120.269 2.10397 -5.62008 0
M  V30 1315 H 121.339 0.992861 -4.74626 0
M  V30 1316 N 122.682 1.50554 0.465978 0
M  V30 1317 C 123.959 1.5232 1.22712 0
M  V30 1318 C 124.339 0.270807 2.09356 0
M  V30 1319 O 123.687 -0.745541 2.15995 0
M  V30 1320 C 123.897 2.82175 2.05374 0
M  V30 1321 C 125.245 3.33033 2.6339 0
M  V30 1322 O 126.269 2.83531 2.15612 0
M  V30 1323 O 125.128 4.19336 3.50456 0
M  V30 1324 H 122.222 0.611183 0.557122 0
M  V30 1325 H 124.768 1.62847 0.477381 0
M  V30 1326 H 123.54 3.64797 1.41558 0
M  V30 1327 H 123.163 2.74675 2.87471 0
M  V30 1328 N 124.16 -0.719506 1.40217 0
M  V30 1329 C 125.571 -1.29848 1.34151 0
M  V30 1330 C 125.922 -1.96196 0.0131349 0
M  V30 1331 O 125.047 -1.973 -0.88892 0
M  V30 1332 C 125.642 -2.36118 2.42968 0
M  V30 1333 C 124.201 -2.8965 2.40374 0
M  V30 1334 C 123.348 -1.63393 2.24049 0
M  V30 1335 H 126.299 -0.51591 1.5008 0
M  V30 1336 H 126.32 -3.16871 2.10649 0
M  V30 1337 H 125.832 -1.878 3.39636 0
M  V30 1338 H 123.933 -3.42208 1.47392 0
M  V30 1339 H 124.046 -3.4171 3.35814 0
M  V30 1340 H 122.41 -1.88312 1.71495 0
M  V30 1341 H 123.193 -1.17104 3.2271 0
M  V30 1342 N 125.638 -1.25649 -0.95132 0
M  V30 1343 C 126.885 -1.10594 -1.69633 0
M  V30 1344 C 127.213 0.352515 -1.91279 0
M  V30 1345 O 126.468 1.27601 -1.4838 0
M  V30 1346 C 126.767 -1.80909 -3.08231 0
M  V30 1347 C 126.433 -3.30825 -3.06375 0
M  V30 1348 C 125.095 -3.71722 -3.05576 0
M  V30 1349 C 127.447 -4.26589 -2.99452 0
M  V30 1350 C 124.775 -5.06788 -2.95606 0
M  V30 1351 C 127.127 -5.61683 -2.91024 0
M  V30 1352 C 125.791 -6.01904 -2.88562 0
M  V30 1353 H 125.061 -0.404691 -0.620731 0
M  V30 1354 H 127.708 -1.55964 -1.11119 0
M  V30 1355 H 126.013 -1.27979 -3.70309 0
M  V30 1356 H 127.71 -1.6671 -3.64704 0
M  V30 1357 H 124.3 -2.98287 -3.07771 0
M  V30 1358 H 128.484 -3.95982 -2.99185 0
M  V30 1359 H 123.74 -5.37126 -2.92071 0
M  V30 1360 H 127.914 -6.35578 -2.84629 0
M  V30 1361 H 125.541 -7.06521 -2.80593 0
M  V30 1362 N 127.117 1.15442 -1.07289 0
M  V30 1363 C 128.347 1.89821 -0.815576 0
M  V30 1364 C 128.755 1.7823 0.634867 0
M  V30 1365 O 128.098 1.13152 1.44715 0
M  V30 1366 C 128.16 3.40817 -1.14385 0
M  V30 1367 C 127.824 3.76193 -2.59476 0
M  V30 1368 C 128.821 3.77269 -3.57721 0
M  V30 1369 C 126.506 4.0652 -2.95037 0
M  V30 1370 C 128.5 4.08176 -4.89562 0
M  V30 1371 C 126.187 4.37092 -4.27076 0
M  V30 1372 C 127.185 4.37902 -5.24148 0
M  V30 1373 O 126.873 4.67741 -6.53815 0
M  V30 1374 H 126.605 0.608465 -0.294528 0
M  V30 1375 H 129.159 1.472 -1.43252 0
M  V30 1376 H 127.389 3.83835 -0.469865 0
M  V30 1377 H 129.078 3.96485 -0.869179 0
M  V30 1378 H 129.844 3.5394 -3.3159 0
M  V30 1379 H 125.723 4.05049 -2.20128 0
M  V30 1380 H 129.267 4.08723 -5.65324 0
M  V30 1381 H 125.164 4.59889 -4.5296 0
M  V30 1382 H 125.932 4.85509 -6.58957 0
M  V30 1383 N 128.595 0.856903 1.32268 0
M  V30 1384 C 129.82 0.474569 2.01897 0
M  V30 1385 C 130.245 -0.921766 1.63967 0
M  V30 1386 O 129.603 -1.60589 0.84148 0
M  V30 1387 C 129.651 0.623799 3.55164 0
M  V30 1388 O 128.755 -0.342459 4.10976 0
M  V30 1389 H 128.096 0.190422 0.63611 0
M  V30 1390 H 130.626 1.15672 1.68764 0
M  V30 1391 H 130.636 0.512169 4.04773 0
M  V30 1392 H 129.311 1.64202 3.82113 0
M  V30 1393 H 127.888 -0.18688 3.72431 0
M  V30 1394 N 130.073 -1.45103 0.615059 0
M  V30 1395 C 131.301 -2.06553 0.11977 0
M  V30 1396 C 131.716 -1.45842 -1.19898 0
M  V30 1397 O 131.073 -0.575325 -1.73194 0
M  V30 1398 C 131.124 -3.61495 -0.018364 0
M  V30 1399 O 130.845 -4.19942 1.24822 0
M  V30 1400 C 132.346 -4.39947 -0.544237 0
M  V30 1401 H 129.566 -0.667096 0.0722739 0
M  V30 1402 H 132.11 -1.8623 0.84491 0
M  V30 1403 H 130.265 -3.81135 -0.693865 0
M  V30 1404 H 130.679 -5.13204 1.0827 0
M  V30 1405 H 132.153 -5.48838 -0.589953 0
M  V30 1406 H 132.63 -4.10255 -1.56805 0
M  V30 1407 H 133.236 -4.25188 0.0974703 0
M  V30 1408 N 131.551 -0.354651 -1.53558 0
M  V30 1409 C 132.483 0.5315 -2.22952 0
M  V30 1410 C 133.496 1.05503 -1.23988 0
M  V30 1411 O 134.685 0.963279 -1.50277 0
M  V30 1412 C 131.785 1.74538 -2.90499 0
M  V30 1413 C 130.958 1.35524 -4.15875 0
M  V30 1414 C 130.017 2.42999 -4.66731 0
M  V30 1415 O 129.043 2.05844 -5.30676 0
M  V30 1416 N 130.245 3.74423 -4.43608 0
M  V30 1417 H 133.01 -0.0628615 -2.99634 0
M  V30 1418 H 130.571 -0.179302 -1.60904 0
M  V30 1419 H 132.563 2.45892 -3.21433 0
M  V30 1420 H 131.133 2.24686 -2.17336 0
M  V30 1421 H 130.353 0.471998 -3.91364 0
M  V30 1422 H 131.641 1.07071 -4.97406 0
M  V30 1423 H 131.039 4.07391 -3.92491 0
M  V30 1424 H 129.596 4.41913 -4.7912 0
M  V30 1425 N 133.029 1.57378 -0.0835403 0
M  V30 1426 C 133.976 2.13384 0.879539 0
M  V30 1427 C 134.946 1.04936 1.28754 0
M  V30 1428 O 136.131 1.32662 1.37133 0
M  V30 1429 C 133.271 2.70932 2.13752 0
M  V30 1430 C 132.384 3.93575 1.7811 0
M  V30 1431 C 131.519 4.39326 2.98607 0
M  V30 1432 C 130.558 5.54587 2.59037 0
M  V30 1433 N 129.695 5.95243 3.72331 0
M  V30 1434 H 134.535 2.9537 0.395076 0
M  V30 1435 H 132.072 1.45953 0.183349 0
M  V30 1436 H 134.03 3.02411 2.87408 0
M  V30 1437 H 132.66 1.91693 2.59718 0
M  V30 1438 H 131.712 3.68483 0.94469 0
M  V30 1439 H 133.024 4.77258 1.45005 0
M  V30 1440 H 132.178 4.72528 3.80529 0
M  V30 1441 H 130.917 3.5452 3.34913 0
M  V30 1442 H 129.922 5.21024 1.75539 0
M  V30 1443 H 131.147 6.41133 2.23887 0
M  V30 1444 H 129.093 5.13385 4.08378 0
M  V30 1445 H 129.01 6.73694 3.43034 0
M  V30 1446 H 130.278 6.33072 4.54797 0
M  V30 1447 N 134.507 -0.190092 1.56449 0
M  V30 1448 C 135.735 -0.925772 1.85033 0
M  V30 1449 C 136.15 -1.76638 0.666658 0
M  V30 1450 O 135.507 -1.78822 -0.364565 0
M  V30 1451 C 135.558 -1.81786 3.12468 0
M  V30 1452 O 135.279 -1.01118 4.26271 0
M  V30 1453 C 136.78 -2.6648 3.54265 0
M  V30 1454 H 134 -0.269872 0.614337 0
M  V30 1455 H 136.544 -0.195837 2.0356 0
M  V30 1456 H 134.699 -2.50136 2.95822 0
M  V30 1457 H 135.113 -1.61956 4.98869 0
M  V30 1458 H 136.587 -3.24722 4.46385 0
M  V30 1459 H 137.064 -3.40434 2.77491 0
M  V30 1460 H 137.67 -2.03493 3.73458 0
M  V30 1461 N 135.985 -1.50799 -0.457987 0
M  V30 1462 C 137.232 -1.62442 -1.20908 0
M  V30 1463 C 137.56 -0.330865 -1.91665 0
M  V30 1464 O 136.815 0.68401 -1.83357 0
M  V30 1465 C 137.114 -2.76358 -2.2663 0
M  V30 1466 C 136.78 -4.16378 -1.73033 0
M  V30 1467 C 135.442 -4.54473 -1.58138 0
M  V30 1468 C 137.794 -5.03836 -1.33413 0
M  V30 1469 C 135.122 -5.77754 -1.02065 0
M  V30 1470 C 137.474 -6.27676 -0.78778 0
M  V30 1471 C 136.138 -6.64562 -0.625561 0
M  V30 1472 H 135.408 -0.594417 -0.442435 0
M  V30 1473 H 138.055 -1.84772 -0.503136 0
M  V30 1474 H 136.36 -2.48167 -3.03184 0
M  V30 1475 H 138.057 -2.82568 -2.84528 0
M  V30 1476 H 134.647 -3.86331 -1.85598 0
M  V30 1477 H 138.831 -4.75026 -1.4375 0
M  V30 1478 H 134.087 -6.04997 -0.882547 0
M  V30 1479 H 138.261 -6.94797 -0.472177 0
M  V30 1480 H 135.888 -7.59965 -0.188926 0
M  V30 1481 N 137.463 0.71206 -1.40597 0
M  V30 1482 C 138.712 1.46754 -1.38369 0
M  V30 1483 C 139.025 1.95598 0.0097839 0
M  V30 1484 O 140.231 2.71059 0.154677 0
M  V30 1485 C 138.687 2.65289 -2.43207 0
M  V30 1486 C 138.295 2.23301 -3.88382 0
M  V30 1487 C 140.039 3.43008 -2.50091 0
M  V30 1488 C 137.946 3.38696 -4.84808 0
M  V30 1489 H 136.876 0.55118 -0.514506 0
M  V30 1490 H 139.527 0.774616 -1.66349 0
M  V30 1491 H 137.909 3.36769 -2.08332 0
M  V30 1492 H 139.083 1.59218 -4.32419 0
M  V30 1493 H 137.398 1.58618 -3.85006 0
M  V30 1494 H 139.995 4.28881 -3.1932 0
M  V30 1495 H 140.338 3.87065 -1.53253 0
M  V30 1496 H 140.871 2.78574 -2.83974 0
M  V30 1497 H 137.61 2.99668 -5.82992 0
M  V30 1498 H 137.13 4.01683 -4.45433 0
M  V30 1499 H 138.809 4.04712 -5.04794 0
M  V30 1500 N 138.941 1.26152 0.944643 0
M  V30 1501 C 140.187 1.11657 1.69294 0
M  V30 1502 C 140.52 -0.339926 1.91202 0
M  V30 1503 O 139.795 -1.24994 1.49019 0
M  V30 1504 C 140.078 1.88236 3.06984 0
M  V30 1505 C 139.931 3.41772 2.92424 0
M  V30 1506 C 141.25 1.67343 4.07043 0
M  V30 1507 H 138.369 0.407004 0.614424 0
M  V30 1508 H 141.011 1.55106 1.09737 0
M  V30 1509 H 139.161 1.51308 3.57824 0
M  V30 1510 H 140.833 3.88433 2.48832 0
M  V30 1511 H 139.076 3.68974 2.28124 0
M  V30 1512 H 139.747 3.90579 3.90067 0
M  V30 1513 H 142.223 1.99509 3.65151 0
M  V30 1514 H 141.099 2.23346 5.01406 0
M  V30 1515 H 141.36 0.617158 4.37771 0
M  V30 1516 N 140.419 -1.14872 1.07899 0
M  V30 1517 C 141.349 -2.2193 0.725887 0
M  V30 1518 C 142.33 -1.67622 -0.28927 0
M  V30 1519 O 143.515 -1.93533 -0.160787 0
M  V30 1520 C 140.645 -3.47061 0.128856 0
M  V30 1521 C 139.599 -4.14363 1.07178 0
M  V30 1522 C 138.925 -5.33636 0.337229 0
M  V30 1523 C 140.225 -4.63492 2.40775 0
M  V30 1524 H 141.919 -2.51724 1.62097 0
M  V30 1525 H 139.465 -1.20991 0.780838 0
M  V30 1526 H 141.418 -4.21199 -0.130147 0
M  V30 1527 H 140.142 -3.16617 -0.80134 0
M  V30 1528 H 138.801 -3.42173 1.3158 0
M  V30 1529 H 138.449 -4.99449 -0.596606 0
M  V30 1530 H 138.149 -5.79609 0.965788 0
M  V30 1531 H 139.673 -6.10539 0.0861567 0
M  V30 1532 H 141.087 -5.2913 2.20669 0
M  V30 1533 H 139.484 -5.20148 2.99276 0
M  V30 1534 H 140.554 -3.78834 3.02676 0
M  V30 1535 N 141.898 -0.863906 -1.31812 0
M  V30 1536 C 142.846 -0.30422 -2.30602 0
M  V30 1537 C 143.84 0.577419 -1.59255 0
M  V30 1538 O 145.046 0.464194 -1.73912 0
M  V30 1539 H 141.421 -0.0796877 -0.747766 0
M  V30 1540 H 143.392 -1.15148 -2.75288 0
M  V30 1541 C 142.141 0.484617 -3.44306 0
M  V30 1542 H 141.464 -0.18451 -3.99374 0
M  V30 1543 H 142.904 0.841664 -4.15562 0
M  V30 1544 C 141.363 1.6735 -2.92396 0
M  V30 1545 O 141.893 2.77273 -2.90659 0
M  V30 1546 N 140.099 1.50362 -2.48676 0
M  V30 1547 H 139.646 0.609402 -2.50288 0
M  V30 1548 H 139.604 2.30051 -2.14299 0
M  V30 1549 N 143.376 1.44774 -0.622745 0
M  V30 1550 C 144.323 2.30635 0.0871679 0
M  V30 1551 C 145.293 1.42994 0.845097 0
M  V30 1552 O 146.478 1.71907 0.827812 0
M  V30 1553 C 143.618 3.28144 1.06844 0
M  V30 1554 C 142.731 4.30888 0.309809 0
M  V30 1555 C 141.866 5.15494 1.28215 0
M  V30 1556 C 140.905 6.09953 0.512198 0
M  V30 1557 N 140.042 6.87287 1.43458 0
M  V30 1558 H 144.882 2.90803 -0.650974 0
M  V30 1559 H 142.419 1.43286 -0.33281 0
M  V30 1560 H 144.377 3.83157 1.65066 0
M  V30 1561 H 143.007 2.69695 1.77382 0
M  V30 1562 H 142.059 3.78414 -0.388181 0
M  V30 1563 H 143.371 4.97955 -0.290254 0
M  V30 1564 H 142.525 5.74983 1.93596 0
M  V30 1565 H 141.264 4.48481 1.91614 0
M  V30 1566 H 140.269 5.49581 -0.155151 0
M  V30 1567 H 141.494 6.78999 -0.116958 0
M  V30 1568 H 139.44 6.2295 2.05594 0
M  V30 1569 H 139.357 7.50763 0.888335 0
M  V30 1570 H 140.625 7.51306 2.07749 0
M  V30 1571 N 144.854 0.36279 1.53368 0
M  V30 1572 C 146.102 -0.227326 2.00817 0
M  V30 1573 C 146.423 -1.49511 1.25186 0
M  V30 1574 O 145.693 -1.92482 0.364348 0
M  V30 1575 H 144.273 -0.0869923 0.741917 0
M  V30 1576 H 146.935 0.488381 1.88682 0
M  V30 1577 H 146.031 -0.456273 3.08747 0
M  V30 1578 N 146.332 -1.57332 0.0918853 0
M  V30 1579 C 147.279 -2.13847 -0.868211 0
M  V30 1580 C 148.249 -1.05618 -1.28196 0
M  V30 1581 O 149.434 -1.33387 -1.36427 0
M  V30 1582 C 146.574 -2.72062 -2.12312 0
M  V30 1583 C 145.687 -3.94514 -1.7602 0
M  V30 1584 C 144.822 -4.40903 -2.96273 0
M  V30 1585 C 143.861 -5.55953 -2.56092 0
M  V30 1586 N 142.998 -5.97209 -3.69169 0
M  V30 1587 H 147.838 -2.95575 -0.379406 0
M  V30 1588 H 145.375 -1.46048 -0.175606 0
M  V30 1589 H 147.333 -3.03931 -2.858 0
M  V30 1590 H 145.963 -1.93068 -2.58698 0
M  V30 1591 H 145.015 -3.68979 -0.925135 0
M  V30 1592 H 146.327 -4.7802 -1.42472 0
M  V30 1593 H 145.481 -4.74539 -3.78018 0
M  V30 1594 H 144.22 -3.56291 -3.33029 0
M  V30 1595 H 143.225 -5.21948 -1.72773 0
M  V30 1596 H 144.45 -6.42311 -2.20484 0
M  V30 1597 H 142.396 -5.15543 -4.05649 0
M  V30 1598 H 142.313 -6.75504 -3.39456 0
M  V30 1599 H 143.581 -6.35475 -4.51434 0
M  V30 1600 N 147.81 0.181792 -1.56548 0
M  V30 1601 C 149.038 0.915947 -1.85521 0
M  V30 1602 C 149.453 1.76282 -0.676016 0
M  V30 1603 O 148.81 1.79012 0.355077 0
M  V30 1604 C 148.861 1.80126 -3.13427 0
M  V30 1605 O 148.582 0.988562 -4.26801 0
M  V30 1606 C 150.083 2.64597 -3.55673 0
M  V30 1607 H 147.303 0.26661 -0.61576 0
M  V30 1608 H 149.847 0.185039 -2.03661 0
M  V30 1609 H 148.002 2.48563 -2.97145 0
M  V30 1610 H 148.416 1.59308 -4.99721 0
M  V30 1611 H 149.89 3.2235 -4.48101 0
M  V30 1612 H 150.367 3.38958 -2.79292 0
M  V30 1613 H 150.973 2.0151 -3.74532 0
M  V30 1614 N 149.288 1.51039 0.449983 0
M  V30 1615 C 150.537 1.62317 1.19733 0
M  V30 1616 C 150.85 0.339101 1.92638 0
M  V30 1617 O 152.056 0.331069 2.69474 0
M  V30 1618 C 150.512 2.86608 2.17678 0
M  V30 1619 C 150.12 4.21972 1.50479 0
M  V30 1620 C 151.864 3.07239 2.92924 0
M  V30 1621 C 149.771 5.37426 2.46834 0
M  V30 1622 H 148.701 0.604532 0.450619 0
M  V30 1623 H 151.352 1.77494 0.465625 0
M  V30 1624 H 149.734 2.65037 2.94231 0
M  V30 1625 H 150.908 4.53878 0.795716 0
M  V30 1626 H 149.223 4.07117 0.874344 0
M  V30 1627 H 151.82 3.90668 3.65079 0
M  V30 1628 H 152.163 2.19807 3.5354 0
M  V30 1629 H 152.696 3.29091 2.23481 0
M  V30 1630 H 149.435 6.27079 1.90926 0
M  V30 1631 H 148.955 5.09912 3.15832 0
M  V30 1632 H 150.634 5.68862 3.08228 0
M  V30 1633 N 150.766 -0.704594 1.40972 0
M  V30 1634 C 152.013 -1.46458 1.39844 0
M  V30 1635 C 152.341 -1.94499 0.00447594 0
M  V30 1636 O 151.596 -1.69275 -0.982057 0
M  V30 1637 C 151.895 -2.698 2.34399 0
M  V30 1638 C 151.561 -2.40464 3.81429 0
M  V30 1639 C 150.223 -2.32174 4.21484 0
M  V30 1640 C 152.575 -2.16086 4.74296 0
M  V30 1641 C 149.903 -1.97589 5.52427 0
M  V30 1642 C 152.255 -1.83011 6.05549 0
M  V30 1643 C 150.919 -1.7321 6.44635 0
M  V30 1644 H 150.189 -0.535927 0.511725 0
M  V30 1645 H 152.836 -0.806124 1.73706 0
M  V30 1646 H 151.141 -3.40536 1.93759 0
M  V30 1647 H 152.838 -3.27919 2.30804 0
M  V30 1648 H 149.428 -2.47808 3.49699 0
M  V30 1649 H 153.612 -2.2144 4.4416 0
M  V30 1650 H 148.868 -1.88547 5.81601 0
M  V30 1651 H 153.042 -1.63164 6.77016 0
M  V30 1652 H 150.669 -1.46179 7.46013 0
M  V30 1653 N 152.244 -1.26651 -0.937939 0
M  V30 1654 C 153.66 -1.03834 -1.21205 0
M  V30 1655 C 153.86 0.234502 -2.00131 0
M  V30 1656 O 152.916 0.942767 -2.3424 0
M  V30 1657 C 154.229 -2.27167 -1.97017 0
M  V30 1658 C 155.777 -2.32101 -2.09996 0
M  V30 1659 C 156.252 -3.55136 -2.8921 0
M  V30 1660 N 157.743 -3.55632 -2.96783 0
M  V30 1661 C 158.478 -4.475 -3.58512 0
M  V30 1662 N 157.974 -5.4966 -4.21717 0
M  V30 1663 N 159.767 -4.35145 -3.55816 0
M  V30 1664 H 151.918 -2.08398 -0.410391 0
M  V30 1665 H 154.181 -0.916031 -0.244114 0
M  V30 1666 H 153.887 -3.19765 -1.46434 0
M  V30 1667 H 153.761 -2.31672 -2.97671 0
M  V30 1668 H 156.148 -1.40015 -2.59769 0
M  V30 1669 H 156.229 -2.31605 -1.08594 0
M  V30 1670 H 155.873 -4.47553 -2.40123 0
M  V30 1671 H 155.803 -3.5288 -3.90875 0
M  V30 1672 H 158.294 -2.81743 -2.51852 0
M  V30 1673 H 158.607 -6.15943 -4.66727 0
M  V30 1674 H 156.952 -5.53514 -4.20294 0
M  V30 1675 H 160.143 -3.5455 -3.05634 0
M  V30 1676 H 160.316 -5.06934 -4.03636 0
M  V30 1677 N 153.722 1.14298 -1.08507 0
M  V30 1678 C 154.969 1.85359 -0.815373 0
M  V30 1679 C 155.297 1.83001 0.658865 0
M  V30 1680 O 154.552 1.25655 1.50031 0
M  V30 1681 C 154.851 3.33547 -1.28379 0
M  V30 1682 C 154.517 3.56093 -2.76602 0
M  V30 1683 C 153.179 3.61955 -3.17084 0
M  V30 1684 C 155.531 3.64834 -3.72217 0
M  V30 1685 C 152.859 3.74082 -4.51973 0
M  V30 1686 C 155.211 3.78487 -5.06883 0
M  V30 1687 C 153.875 3.82598 -5.46969 0
M  V30 1688 H 153.145 0.678276 -0.298366 0
M  V30 1689 H 155.792 1.35002 -1.35819 0
M  V30 1690 H 154.097 3.86191 -0.660593 0
M  V30 1691 H 155.794 3.86959 -1.05186 0
M  V30 1692 H 152.384 3.52179 -2.4427 0
M  V30 1693 H 156.568 3.59595 -3.42061 0
M  V30 1694 H 151.824 3.75527 -4.82483 0
M  V30 1695 H 155.998 3.84193 -5.80834 0
M  V30 1696 H 153.625 3.91747 -6.51489 0
M  V30 1697 N 155.201 0.870884 1.31352 0
M  V30 1698 C 156.426 0.495957 2.01383 0
M  V30 1699 C 156.851 -0.904324 1.64935 0
M  V30 1700 O 156.209 -1.59687 0.858466 0
M  V30 1701 C 156.257 0.661433 3.54482 0
M  V30 1702 O 155.361 -0.298851 4.11316 0
M  V30 1703 H 154.702 0.197158 0.634054 0
M  V30 1704 H 157.232 1.17455 1.67527 0
M  V30 1705 H 157.242 0.555072 4.04207 0
M  V30 1706 H 155.917 1.68246 3.8035 0
M  V30 1707 H 154.494 -0.147368 3.72609 0
M  V30 1708 N 156.679 -1.44442 0.630414 0
M  V30 1709 C 157.642 -2.29107 -0.0652523 0
M  V30 1710 C 158.642 -1.41002 -0.772995 0
M  V30 1711 O 159.832 -1.62881 -0.617692 0
M  V30 1712 C 156.964 -3.22564 -1.10296 0
M  V30 1713 H 158.157 -2.92103 0.679401 0
M  V30 1714 H 155.71 -1.51343 0.390517 0
M  V30 1715 H 156.445 -2.64416 -1.87762 0
M  V30 1716 H 156.23 -3.87491 -0.59941 0
M  V30 1717 H 157.72 -3.86167 -1.5895 0
M  V30 1718 N 158.157 -0.370918 -1.53173 0
M  V30 1719 C 159.385 0.217704 -2.05751 0
M  V30 1720 C 159.8 1.42018 -1.24404 0
M  V30 1721 O 159.157 1.80245 -0.286033 0
M  V30 1722 C 159.208 0.605954 -3.56385 0
M  V30 1723 O 158.929 -0.548734 -4.3465 0
M  V30 1724 C 160.43 1.2524 -4.25241 0
M  V30 1725 H 157.65 0.0371659 -0.66997 0
M  V30 1726 H 160.194 -0.530832 -1.9749 0
M  V30 1727 H 158.349 1.3044 -3.6478 0
M  V30 1728 H 158.763 -0.23376 -5.23979 0
M  V30 1729 H 160.237 1.47458 -5.3194 0
M  V30 1730 H 160.714 2.2143 -3.79296 0
M  V30 1731 H 161.32 0.595233 -4.21114 0
M  V30 1732 N 159.635 1.57281 -0.100228 0
M  V30 1733 C 160.583 2.15542 0.874328 0
M  V30 1734 C 161.577 1.09962 1.28859 0
M  V30 1735 O 162.783 1.28298 1.26252 0
M  V30 1736 H 159.158 0.689567 0.300003 0
M  V30 1737 H 161.129 2.96241 0.35829 0
M  V30 1738 C 159.878 2.75454 2.1218 0
M  V30 1739 H 159.201 3.56384 1.81193 0
M  V30 1740 H 160.641 3.19781 2.78417 0
M  V30 1741 C 159.1 1.71602 2.89921 0
M  V30 1742 O 159.63 1.15804 3.84646 0
M  V30 1743 N 157.836 1.41975 2.53558 0
M  V30 1744 H 157.383 1.87539 1.76598 0
M  V30 1745 H 157.341 0.727274 3.05873 0
M  V30 1746 N 161.113 -0.173488 1.56642 0
M  V30 1747 C 162.076 -1.19859 1.95362 0
M  V30 1748 C 163.076 -1.37296 0.83704 0
M  V30 1749 O 164.266 -1.34739 1.10413 0
M  V30 1750 C 161.398 -2.56405 2.24654 0
M  V30 1751 H 162.591 -0.867062 2.87092 0
M  V30 1752 H 160.144 -0.415853 1.50666 0
M  V30 1753 H 160.879 -2.94576 1.35631 0
M  V30 1754 H 160.664 -2.45115 3.06041 0
M  V30 1755 H 162.154 -3.30287 2.5554 0
M  V30 1756 N 162.591 -1.51276 -0.441967 0
M  V30 1757 C 163.521 -1.752 -1.54361 0
M  V30 1758 C 164.502 -0.601682 -1.59103 0
M  V30 1759 O 165.687 -0.843913 -1.74905 0
M  V30 1760 C 162.817 -1.87282 -2.92477 0
M  V30 1761 C 161.771 -3.02687 -3.02596 0
M  V30 1762 C 161.097 -2.99947 -4.42647 0
M  V30 1763 C 162.397 -4.4273 -2.77106 0
M  V30 1764 H 164.091 -2.67442 -1.34592 0
M  V30 1765 H 161.637 -1.28694 -0.646048 0
M  V30 1766 H 163.59 -2.02602 -3.695 0
M  V30 1767 H 162.314 -0.916844 -3.13467 0
M  V30 1768 H 160.973 -2.87065 -2.28012 0
M  V30 1769 H 160.621 -2.02136 -4.60597 0
M  V30 1770 H 160.321 -3.77439 -4.50348 0
M  V30 1771 H 161.845 -3.17354 -5.2165 0
M  V30 1772 H 163.259 -4.58727 -3.43864 0
M  V30 1773 H 161.656 -5.21893 -2.96222 0
M  V30 1774 H 162.726 -4.53087 -1.72744 0
M  V30 1775 N 164.069 0.697108 -1.41344 0
M  V30 1776 C 165.299 1.48377 -1.43763 0
M  V30 1777 C 165.707 1.89156 -0.0408726 0
M  V30 1778 O 165.05 1.57239 0.949812 0
M  V30 1779 C 165.112 2.7781 -2.2817 0
M  V30 1780 C 164.776 2.59244 -3.76353 0
M  V30 1781 C 165.773 2.25292 -4.68551 0
M  V30 1782 C 163.458 2.74933 -4.20378 0
M  V30 1783 C 165.452 2.07264 -6.02761 0
M  V30 1784 C 163.139 2.56521 -5.54653 0
M  V30 1785 C 164.137 2.22737 -6.4566 0
M  V30 1786 O 163.825 2.04485 -7.77458 0
M  V30 1787 H 163.557 0.463842 -0.491759 0
M  V30 1788 H 166.111 0.865934 -1.86255 0
M  V30 1789 H 164.341 3.41995 -1.8049 0
M  V30 1790 H 166.03 3.39608 -2.22309 0
M  V30 1791 H 166.796 2.12787 -4.35829 0
M  V30 1792 H 162.675 3.00213 -3.49848 0
M  V30 1793 H 166.219 1.80817 -6.73759 0
M  V30 1794 H 162.116 2.68616 -5.86955 0
M  V30 1795 H 162.884 2.1926 -7.88586 0
M  V30 1796 N 165.547 1.27147 0.931209 0
M  V30 1797 C 166.793 1.13446 1.68101 0
M  V30 1798 C 167.126 -0.319628 1.91552 0
M  V30 1799 O 166.401 -1.23407 1.50336 0
M  V30 1800 C 166.684 1.91482 3.0497 0
M  V30 1801 C 166.537 3.44855 2.88782 0
M  V30 1802 C 167.856 1.71651 4.05246 0
M  V30 1803 H 164.975 0.413498 0.610072 0
M  V30 1804 H 167.617 1.56261 1.08086 0
M  V30 1805 H 165.767 1.55095 3.56199 0
M  V30 1806 H 167.439 3.9105 2.44698 0
M  V30 1807 H 165.682 3.71373 2.24198 0
M  V30 1808 H 166.353 3.94694 3.85902 0
M  V30 1809 H 168.829 2.0337 3.63015 0
M  V30 1810 H 167.705 2.28651 4.99009 0
M  V30 1811 H 167.966 0.663555 4.37092 0
M  V30 1812 N 167.025 -1.13721 1.09112 0
M  V30 1813 C 167.955 -2.21148 0.749385 0
M  V30 1814 C 168.936 -1.6792 -0.271475 0
M  V30 1815 O 170.121 -1.93693 -0.140251 0
M  V30 1816 C 167.251 -3.46905 0.165659 0
M  V30 1817 C 166.205 -4.13203 1.11567 0
M  V30 1818 C 165.531 -5.33248 0.393809 0
M  V30 1819 C 166.831 -4.60912 2.45678 0
M  V30 1820 H 168.525 -2.4999 1.64758 0
M  V30 1821 H 166.071 -1.20156 0.793626 0
M  V30 1822 H 168.024 -4.21313 -0.085466 0
M  V30 1823 H 166.748 -3.17449 -0.767714 0
M  V30 1824 H 165.407 -3.40758 1.35202 0
M  V30 1825 H 165.055 -5.00054 -0.543599 0
M  V30 1826 H 164.755 -5.78552 1.02721 0
M  V30 1827 H 166.279 -6.10413 0.150908 0
M  V30 1828 H 167.693 -5.26759 2.26269 0
M  V30 1829 H 166.09 -5.16944 3.04776 0
M  V30 1830 H 167.16 -3.75603 3.06677 0
M  V30 1831 N 168.503 -0.877838 -1.30888 0
M  V30 1832 C 169.728 -0.506629 -2.01117 0
M  V30 1833 C 170.153 0.895564 -1.65412 0
M  V30 1834 O 169.511 1.5923 -0.866922 0
M  V30 1835 C 169.559 -0.680223 -3.54126 0
M  V30 1836 O 168.663 0.277033 -4.11468 0
M  V30 1837 H 168.004 -0.200518 -0.633 0
M  V30 1838 H 170.534 -1.18342 -1.66902 0
M  V30 1839 H 170.544 -0.5765 -4.03907 0
M  V30 1840 H 169.219 -1.70261 -3.79452 0
M  V30 1841 H 167.796 0.127606 -3.72682 0
M  V30 1842 N 169.982 1.44106 -0.638065 0
M  V30 1843 C 171.393 1.85316 -0.226894 0
M  V30 1844 C 171.744 1.53399 1.22324 0
M  V30 1845 O 170.869 0.975463 1.93167 0
M  V30 1846 C 171.464 3.3637 -0.405013 0
M  V30 1847 C 170.023 3.76369 -0.0482902 0
M  V30 1848 C 169.17 2.67921 -0.715108 0
M  V30 1849 H 172.121 1.34474 -0.842764 0
M  V30 1850 H 172.142 3.7885 0.354 0
M  V30 1851 H 171.654 3.59569 -1.46053 0
M  V30 1852 H 169.755 3.58784 1.00522 0
M  V30 1853 H 169.868 4.76856 -0.463187 0
M  V30 1854 H 168.232 2.54259 -0.149753 0
M  V30 1855 H 169.015 2.93951 -1.77335 0
M  V30 1856 N 171.46 0.379036 1.52974 0
M  V30 1857 C 172.707 -0.206421 2.01445 0
M  V30 1858 C 173.035 -1.47668 1.26587 0
M  V30 1859 O 172.29 -1.92514 0.351675 0
M  V30 1860 C 172.589 -0.53096 3.53434 0
M  V30 1861 C 172.255 0.646546 4.46241 0
M  V30 1862 C 170.917 0.969604 4.7133 0
M  V30 1863 C 173.269 1.43479 5.01062 0
M  V30 1864 C 170.597 2.08263 5.48492 0
M  V30 1865 C 172.949 2.53834 5.7944 0
M  V30 1866 C 171.613 2.86659 6.02812 0
M  V30 1867 H 170.883 -0.0755349 0.73714 0
M  V30 1868 H 173.53 0.514271 1.84465 0
M  V30 1869 H 171.835 -1.33285 3.68432 0
M  V30 1870 H 173.532 -0.996417 3.88423 0
M  V30 1871 H 170.122 0.384734 4.2687 0
M  V30 1872 H 174.306 1.19844 4.81613 0
M  V30 1873 H 169.562 2.34078 5.64816 0
M  V30 1874 H 173.736 3.15319 6.20924 0
M  V30 1875 H 171.363 3.73026 6.62387 0
M  V30 1876 N 172.938 -1.57226 0.108567 0
M  V30 1877 C 173.888 -2.11305 -0.856396 0
M  V30 1878 C 174.872 -1.03129 -1.23504 0
M  V30 1879 O 176.064 -1.29381 -1.20787 0
M  V30 1880 C 173.193 -2.70771 -2.11041 0
M  V30 1881 C 172.279 -3.86011 -1.7566 0
M  V30 1882 N 172.67 -4.93492 -1.10902 0
M  V30 1883 C 170.968 -3.95999 -2.05185 0
M  V30 1884 C 171.669 -5.73984 -0.944308 0
M  V30 1885 N 170.645 -5.2346 -1.46596 0
M  V30 1886 H 174.447 -2.91784 -0.352002 0
M  V30 1887 H 171.961 -1.62126 -0.0942324 0
M  V30 1888 H 173.958 -3.07851 -2.81128 0
M  V30 1889 H 172.618 -1.91751 -2.62034 0
M  V30 1890 H 173.629 -5.1208 -0.774235 0
M  V30 1891 H 170.306 -3.28007 -2.58298 0
M  V30 1892 H 171.696 -6.70479 -0.436813 0
M  V30 1893 N 174.416 0.165178 -1.56732 0
M  V30 1894 C 175.827 0.727046 -1.71962 0
M  V30 1895 C 176.178 1.82508 -0.720078 0
M  V30 1896 O 175.303 2.16082 0.117242 0
M  V30 1897 C 175.898 1.32559 -3.11791 0
M  V30 1898 C 174.457 1.83422 -3.28684 0
M  V30 1899 C 173.604 0.715567 -2.67908 0
M  V30 1900 H 176.555 -0.0602896 -1.58585 0
M  V30 1901 H 176.576 2.19533 -3.10782 0
M  V30 1902 H 176.088 0.526195 -3.84516 0
M  V30 1903 H 174.189 2.65986 -2.60926 0
M  V30 1904 H 174.302 1.97543 -4.36478 0
M  V30 1905 H 172.666 1.13758 -2.27884 0
M  V30 1906 H 173.449 -0.0720836 -3.43224 0
M  V30 1907 N 175.894 1.51508 0.433938 0
M  V30 1908 C 177.143 1.63578 1.18005 0
M  V30 1909 C 177.456 0.359514 1.92268 0
M  V30 1910 O 178.662 0.359632 2.69108 0
M  V30 1911 C 177.118 2.88901 2.14626 0
M  V30 1912 C 176.726 4.23544 1.45995 0
M  V30 1913 C 178.47 3.10328 2.89649 0
M  V30 1914 C 176.377 5.40014 2.4112 0
M  V30 1915 H 175.307 0.609277 0.444182 0
M  V30 1916 H 177.958 1.77978 0.446773 0
M  V30 1917 H 176.34 2.68142 2.91403 0
M  V30 1918 H 177.514 4.54696 0.747532 0
M  V30 1919 H 175.829 4.08021 0.831115 0
M  V30 1920 H 178.426 3.94518 3.60915 0
M  V30 1921 H 178.769 2.23544 3.51189 0
M  V30 1922 H 179.302 3.31443 2.19978 0
M  V30 1923 H 176.041 6.29068 1.84264 0
M  V30 1924 H 175.561 5.13233 3.10406 0
M  V30 1925 H 177.24 5.72099 3.02177 0
M  V30 1926 N 177.372 -0.689602 1.41712 0
M  V30 1927 C 178.788 -1.00093 1.24312 0
M  V30 1928 C 178.988 -2.01036 0.136729 0
M  V30 1929 O 178.044 -2.47562 -0.496918 0
M  V30 1930 C 179.357 -1.51985 2.59463 0
M  V30 1931 C 180.905 -1.63838 2.66695 0
M  V30 1932 C 181.38 -2.1913 4.02177 0
M  V30 1933 N 182.871 -2.26483 4.04054 0
M  V30 1934 C 183.606 -2.70306 5.0569 0
M  V30 1935 N 183.102 -3.13691 6.17713 0
M  V30 1936 N 184.895 -2.69923 4.9305 0
M  V30 1937 H 177.046 -0.0210029 2.1239 0
M  V30 1938 H 179.309 -0.0718733 0.945272 0
M  V30 1939 H 179.015 -0.85269 3.41207 0
M  V30 1940 H 178.889 -2.50103 2.82362 0
M  V30 1941 H 181.276 -2.29664 1.85306 0
M  V30 1942 H 181.357 -0.642492 2.476 0
M  V30 1943 H 181.001 -1.53918 4.84016 0
M  V30 1944 H 180.931 -3.19482 4.18615 0
M  V30 1945 H 183.422 -1.95874 3.23174 0
M  V30 1946 H 183.735 -3.45773 6.9113 0
M  V30 1947 H 182.08 -3.11585 6.21241 0
M  V30 1948 H 185.271 -2.35382 4.04614 0
M  V30 1949 H 185.444 -3.03758 5.72394 0
M  V30 1950 N 178.85 -1.27639 -0.924453 0
M  V30 1951 C 180.266 -1.05113 -1.20097 0
M  V30 1952 C 180.466 0.213262 -2.00368 0
M  V30 1953 O 179.522 0.91787 -2.35226 0
M  V30 1954 C 180.835 -2.29244 -1.94596 0
M  V30 1955 C 182.383 -2.34315 -2.07522 0
M  V30 1956 C 182.858 -3.58183 -2.85427 0
M  V30 1957 N 184.349 -3.5876 -2.92994 0
M  V30 1958 C 185.084 -4.51277 -3.53746 0
M  V30 1959 N 184.58 -5.54102 -4.15863 0
M  V30 1960 N 186.373 -4.38894 -3.51181 0
M  V30 1961 H 178.524 -2.08821 -0.388264 0
M  V30 1962 H 180.787 -0.918568 -0.234385 0
M  V30 1963 H 180.493 -3.21301 -1.43034 0
M  V30 1964 H 180.367 -2.34816 -2.95197 0
M  V30 1965 H 182.754 -1.42762 -2.58269 0
M  V30 1966 H 182.835 -2.32744 -1.06131 0
M  V30 1967 H 182.479 -4.50074 -2.35363 0
M  V30 1968 H 182.409 -3.57006 -3.8711 0
M  V30 1969 H 184.9 -2.84398 -2.4885 0
M  V30 1970 H 185.213 -6.20859 -4.60168 0
M  V30 1971 H 183.558 -5.57941 -4.144 0
M  V30 1972 H 186.749 -3.57772 -3.01856 0
M  V30 1973 H 186.922 -5.11186 -3.98237 0
M  V30 1974 N 180.328 1.1314 -1.09713 0
M  V30 1975 C 181.291 2.16831 -0.742751 0
M  V30 1976 C 182.291 1.59159 0.229129 0
M  V30 1977 O 183.481 1.74199 0.00693237 0
M  V30 1978 C 180.613 3.40756 -0.0989168 0
M  V30 1979 H 181.806 2.49695 -1.66109 0
M  V30 1980 H 179.359 1.2802 -0.896699 0
M  V30 1981 H 180.094 3.13485 0.830514 0
M  V30 1982 H 179.879 3.83888 -0.798265 0
M  V30 1983 H 181.369 4.17386 0.133524 0
M  V30 1984 N 181.806 0.884767 1.30421 0
M  V30 1985 C 182.769 0.356277 2.26414 0
M  V30 1986 C 183.769 -0.501124 1.52792 0
M  V30 1987 O 184.959 -0.30831 1.7145 0
M  V30 1988 C 182.091 -0.492316 3.37326 0
M  V30 1989 H 183.284 1.20389 2.74675 0
M  V30 1990 H 180.837 0.661607 1.41607 0
M  V30 1991 H 181.572 -1.36052 2.94381 0
M  V30 1992 H 181.357 0.121832 3.91911 0
M  V30 1993 H 182.847 -0.853871 4.08777 0
M  V30 1994 N 183.284 -1.43765 0.645699 0
M  V30 1995 C 184.53 -2.02197 0.156271 0
M  V30 1996 C 184.863 -1.50776 -1.22393 0
M  V30 1997 O 184.138 -0.697771 -1.81553 0
M  V30 1998 C 184.421 -3.59749 0.158872 0
M  V30 1999 C 184.274 -4.21419 1.57245 0
M  V30 2000 C 185.593 -4.37149 -0.50879 0
M  V30 2001 H 182.712 -0.734694 0.0582602 0
M  V30 2002 H 185.354 -1.71157 0.824951 0
M  V30 2003 H 183.504 -3.86325 -0.410525 0
M  V30 2004 H 185.176 -4.059 2.19186 0
M  V30 2005 H 183.419 -3.78356 2.122 0
M  V30 2006 H 184.09 -5.30482 1.52619 0
M  V30 2007 H 186.566 -4.16093 -0.024412 0
M  V30 2008 H 185.442 -5.4683 -0.476213 0
M  V30 2009 H 185.703 -4.12839 -1.58165 0
M  V30 2010 N 184.763 -0.387143 -1.52771 0
M  V30 2011 C 185.71 0.449048 -2.26389 0
M  V30 2012 C 186.68 1.05961 -1.27912 0
M  V30 2013 O 187.865 1.08804 -1.56737 0
M  V30 2014 C 185.005 1.57155 -3.0724 0
M  V30 2015 C 184.118 0.984066 -4.20643 0
M  V30 2016 C 183.253 2.07745 -4.88892 0
M  V30 2017 C 182.292 1.46574 -5.94292 0
M  V30 2018 N 181.429 2.49834 -6.56146 0
M  V30 2019 H 186.269 -0.185205 -2.97424 0
M  V30 2020 H 183.806 -0.103164 -1.46738 0
M  V30 2021 H 185.764 2.23309 -3.52405 0
M  V30 2022 H 184.394 2.17615 -2.38419 0
M  V30 2023 H 183.446 0.212193 -3.79808 0
M  V30 2024 H 184.758 0.497029 -4.96318 0
M  V30 2025 H 183.912 2.81673 -5.3735 0
M  V30 2026 H 182.651 2.59807 -4.12737 0
M  V30 2027 H 181.656 0.711696 -5.45174 0
M  V30 2028 H 182.881 0.953088 -6.72379 0
M  V30 2029 H 180.827 3.0107 -5.82832 0
M  V30 2030 H 180.744 2.05879 -7.27427 0
M  V30 2031 H 182.012 3.23399 -7.09249 0
M  V30 2032 N 186.241 1.57166 -0.116904 0
M  V30 2033 C 187.49 1.94298 0.541407 0
M  V30 2034 C 187.803 1.00236 1.67964 0
M  V30 2035 O 189.009 1.26826 2.40057 0
M  V30 2036 C 187.465 3.45306 1.01449 0
M  V30 2037 C 187.073 4.47899 -0.0951738 0
M  V30 2038 C 188.817 3.91361 1.6443 0
M  V30 2039 C 186.724 5.90083 0.394491 0
M  V30 2040 H 185.654 0.725308 0.206019 0
M  V30 2041 H 188.305 1.82446 -0.196419 0
M  V30 2042 H 186.687 3.52385 1.80667 0
M  V30 2043 H 187.861 4.52486 -0.871374 0
M  V30 2044 H 186.176 4.11583 -0.631505 0
M  V30 2045 H 188.773 4.95004 2.02176 0
M  V30 2046 H 189.116 3.3122 2.52189 0
M  V30 2047 H 189.649 3.87073 0.917559 0
M  V30 2048 H 186.388 6.53974 -0.447004 0
M  V30 2049 H 185.908 5.88921 1.13722 0
M  V30 2050 H 187.587 6.41307 0.856399 0
M  V30 2051 N 187.719 -0.156864 1.56817 0
M  V30 2052 C 188.649 -1.19589 2.00551 0
M  V30 2053 C 189.63 -1.4536 0.883426 0
M  V30 2054 O 190.815 -1.56449 1.15054 0
M  V30 2055 C 187.945 -2.53143 2.37773 0
M  V30 2056 C 186.899 -2.41913 3.53075 0
M  V30 2057 C 186.225 -3.80088 3.76081 0
M  V30 2058 C 187.525 -1.91157 4.86062 0
M  V30 2059 H 189.219 -0.832293 2.87599 0
M  V30 2060 H 186.765 -0.398918 1.38364 0
M  V30 2061 H 188.718 -3.26047 2.66967 0
M  V30 2062 H 187.442 -2.91319 1.4765 0
M  V30 2063 H 186.101 -1.71462 3.24031 0
M  V30 2064 H 185.749 -4.15683 2.83225 0
M  V30 2065 H 185.449 -3.73439 4.53671 0
M  V30 2066 H 186.973 -4.54556 4.0769 0
M  V30 2067 H 188.387 -2.53846 5.14038 0
M  V30 2068 H 186.784 -1.95422 5.67389 0
M  V30 2069 H 187.854 -0.866673 4.77092 0
M  V30 2070 N 189.197 -1.51736 -0.425897 0
M  V30 2071 C 190.443 -1.65214 -1.1761 0
M  V30 2072 C 190.776 -0.372778 -1.90589 0
M  V30 2073 O 190.051 0.628139 -1.84078 0
M  V30 2074 C 190.334 -2.86312 -2.18398 0
M  V30 2075 C 190.187 -4.24254 -1.49426 0
M  V30 2076 C 191.506 -3.02925 -3.19256 0
M  V30 2077 H 188.625 -0.601263 -0.426206 0
M  V30 2078 H 191.267 -1.8425 -0.463882 0
M  V30 2079 H 189.417 -2.70213 -2.79137 0
M  V30 2080 H 191.089 -4.52046 -0.919362 0
M  V30 2081 H 189.332 -4.26426 -0.796432 0
M  V30 2082 H 190.003 -5.05001 -2.22885 0
M  V30 2083 H 192.479 -3.1781 -2.68581 0
M  V30 2084 H 191.355 -3.89199 -3.8706 0
M  V30 2085 H 191.616 -2.15497 -3.86023 0
M  V30 2086 N 190.675 0.682077 -1.42076 0
M  V30 2087 C 191.625 1.78823 -1.41444 0
M  V30 2088 C 192.609 1.58323 -0.28681 0
M  V30 2089 O 193.801 1.68926 -0.528498 0
M  V30 2090 C 190.93 3.17232 -1.3122 0
M  V30 2091 C 190.016 3.4338 -2.489 0
M  V30 2092 N 190.407 3.40152 -3.7434 0
M  V30 2093 C 188.705 3.73986 -2.43003 0
M  V30 2094 C 189.406 3.65581 -4.52466 0
M  V30 2095 N 188.382 3.85989 -3.8277 0
M  V30 2096 H 192.184 1.7471 -2.36334 0
M  V30 2097 H 189.698 0.882622 -1.36321 0
M  V30 2098 H 191.695 3.96489 -1.2885 0
M  V30 2099 H 190.355 3.22547 -0.373263 0
M  V30 2100 H 191.366 3.20221 -4.07037 0
M  V30 2101 H 188.043 3.86591 -1.57651 0
M  V30 2102 H 189.433 3.69108 -5.61435 0
M  V30 2103 N 192.153 1.28127 0.917671 0
M  V30 2104 C 193.378 1.18007 1.70555 0
M  V30 2105 C 193.803 -0.258257 1.86319 0
M  V30 2106 O 193.161 -1.1869 1.37049 0
M  V30 2107 C 193.209 1.87948 3.07746 0
M  V30 2108 O 192.313 1.18427 3.9503 0
M  V30 2109 H 191.654 0.409867 0.522403 0
M  V30 2110 H 194.184 1.69379 1.1477 0
M  V30 2111 H 194.194 1.95701 3.58001 0
M  V30 2112 H 192.869 2.92573 2.95591 0
M  V30 2113 H 191.446 1.18811 3.53466 0
M  V30 2114 N 193.631 -1.12557 1.10312 0
M  V30 2115 C 194.561 -2.20341 0.772798 0
M  V30 2116 C 195.542 -1.68198 -0.25365 0
M  V30 2117 O 196.727 -1.93831 -0.119699 0
M  V30 2118 C 193.857 -3.46709 0.202443 0
M  V30 2119 C 192.811 -4.11996 1.15943 0
M  V30 2120 C 192.137 -5.328 0.450345 0
M  V30 2121 C 193.437 -4.5828 2.50552 0
M  V30 2122 H 195.131 -2.48229 1.674 0
M  V30 2123 H 192.677 -1.19308 0.806326 0
M  V30 2124 H 194.63 -4.2138 -0.0407752 0
M  V30 2125 H 193.354 -3.18245 -0.734001 0
M  V30 2126 H 192.013 -3.39305 1.38808 0
M  V30 2127 H 191.661 -5.00602 -0.490531 0
M  V30 2128 H 191.361 -5.7743 1.08851 0
M  V30 2129 H 192.885 -6.10219 0.215642 0
M  V30 2130 H 194.299 -5.2433 2.31843 0
M  V30 2131 H 192.696 -5.13683 3.10242 0
M  V30 2132 H 193.766 -3.72329 3.10643 0
M  V30 2133 N 195.109 -0.891671 -1.2995 0
M  V30 2134 C 196.356 -0.513501 -1.95881 0
M  V30 2135 C 196.684 0.938655 -1.70351 0
M  V30 2136 O 195.939 1.67936 -1.00478 0
M  V30 2137 C 196.238 -0.742868 -3.49594 0
M  V30 2138 C 195.904 -2.17114 -3.95186 0
M  V30 2139 C 194.566 -2.56169 -4.07346 0
M  V30 2140 C 196.918 -3.10162 -4.18866 0
M  V30 2141 C 194.246 -3.87469 -4.4055 0
M  V30 2142 C 196.598 -4.41001 -4.53542 0
M  V30 2143 C 195.262 -4.79941 -4.63911 0
M  V30 2144 H 194.532 -0.187903 -0.71678 0
M  V30 2145 H 197.179 -1.1288 -1.54694 0
M  V30 2146 H 195.484 -0.044586 -3.91775 0
M  V30 2147 H 197.181 -0.429767 -3.9869 0
M  V30 2148 H 193.771 -1.85801 -3.86233 0
M  V30 2149 H 197.955 -2.81206 -4.08946 0
M  V30 2150 H 193.211 -4.17371 -4.46779 0
M  V30 2151 H 197.385 -5.13133 -4.70815 0
M  V30 2152 H 195.012 -5.81719 -4.89395 0
M  V30 2153 N 196.587 1.43421 -0.653314 0
M  V30 2154 C 197.535 2.32546 0.0501531 0
M  V30 2155 C 198.529 1.48617 0.812985 0
M  V30 2156 O 199.735 1.64825 0.723375 0
M  V30 2157 H 196.11 0.751185 0.0350032 0
M  V30 2158 H 198.081 2.89602 -0.719261 0
M  V30 2159 C 196.83 3.32925 1.00279 0
M  V30 2160 H 196.153 3.97532 0.425236 0
M  V30 2161 H 197.593 3.9792 1.46409 0
M  V30 2162 C 196.052 2.63532 2.09886 0
M  V30 2163 O 196.582 2.45092 3.18265 0
M  V30 2164 N 194.788 2.22905 1.86445 0
M  V30 2165 H 194.335 2.38103 0.98309 0
M  V30 2166 H 194.293 1.76805 2.59976 0
M  V30 2167 N 198.065 0.39524 1.52563 0
M  V30 2168 C 198.998 -0.4813 2.23067 0
M  V30 2169 C 199.976 -1.05927 1.23362 0
M  V30 2170 O 201.16 -1.10979 1.52368 0
M  V30 2171 C 198.287 -1.66676 2.9485 0
M  V30 2172 C 197.333 -1.21348 4.08873 0
M  V30 2173 S 198.166 -0.190102 5.35162 0
M  V30 2174 C 199.322 -1.38121 6.1047 0
M  V30 2175 H 199.555 0.117381 2.97068 0
M  V30 2176 H 197.088 0.179458 1.53354 0
M  V30 2177 H 199.046 -2.3466 3.36816 0
M  V30 2178 H 197.707 -2.23676 2.20518 0
M  V30 2179 H 196.9 -2.09877 4.58222 0
M  V30 2180 H 196.502 -0.612486 3.68951 0
M  V30 2181 H 198.794 -2.30726 6.37002 0
M  V30 2182 H 199.737 -0.928521 7.01986 0
M  V30 2183 H 200.145 -1.60071 5.41329 0
M  V30 2184 N 199.544 -1.57102 0.125237 0
M  V30 2185 C 200.474 -2.18659 -0.819174 0
M  V30 2186 C 201.455 -1.12843 -1.27281 0
M  V30 2187 O 202.64 -1.41104 -1.33429 0
M  V30 2188 C 199.77 -2.79096 -2.06695 0
M  V30 2189 C 198.724 -3.90548 -1.75088 0
M  V30 2190 C 198.05 -4.37821 -3.06948 0
M  V30 2191 C 199.35 -5.12356 -1.01435 0
M  V30 2192 H 201.044 -2.9783 -0.306202 0
M  V30 2193 H 198.59 -1.4326 -0.145839 0
M  V30 2194 H 200.543 -3.2082 -2.73226 0
M  V30 2195 H 199.267 -1.97223 -2.60328 0
M  V30 2196 H 197.926 -3.49409 -1.10944 0
M  V30 2197 H 197.574 -3.52799 -3.58527 0
M  V30 2198 H 197.274 -5.12982 -2.86571 0
M  V30 2199 H 198.798 -4.822 -3.74587 0
M  V30 2200 H 200.212 -5.5106 -1.58132 0
M  V30 2201 H 198.609 -5.9314 -0.911319 0
M  V30 2202 H 199.679 -4.849 -0.00218681 0
M  V30 2203 N 201.022 0.148545 -1.56898 0
M  V30 2204 C 202.271 0.85984 -1.82454 0
M  V30 2205 C 202.584 1.82406 -0.706229 0
M  V30 2206 O 203.79 2.57938 -0.847349 0
M  V30 2207 C 202.246 1.57967 -3.2338 0
M  V30 2208 C 201.854 0.65794 -4.43142 0
M  V30 2209 C 203.598 2.27784 -3.58211 0
M  V30 2210 C 201.505 1.3793 -5.75091 0
M  V30 2211 H 200.435 0.324834 -0.68044 0
M  V30 2212 H 203.086 0.112588 -1.83154 0
M  V30 2213 H 201.468 2.37249 -3.17063 0
M  V30 2214 H 202.642 -0.0995497 -4.60692 0
M  V30 2215 H 200.957 0.0682643 -4.16344 0
M  V30 2216 H 203.554 2.8239 -4.54048 0
M  V30 2217 H 203.897 3.04204 -2.84193 0
M  V30 2218 H 204.43 1.55421 -3.66182 0
M  V30 2219 H 201.169 0.656982 -6.52199 0
M  V30 2220 H 200.689 2.10954 -5.61479 0
M  V30 2221 H 202.368 1.92063 -6.17835 0
M  V30 2222 N 202.5 1.5196 0.417844 0
M  V30 2223 C 203.433 1.69387 1.52916 0
M  V30 2224 C 204.411 0.541419 1.53321 0
M  V30 2225 O 205.595 0.767695 1.72159 0
M  V30 2226 C 202.722 1.72525 2.91467 0
M  V30 2227 C 201.768 2.93967 3.09008 0
M  V30 2228 S 202.601 4.54461 2.83242 0
M  V30 2229 C 203.757 4.60372 4.24038 0
M  V30 2230 H 203.99 2.63382 1.37903 0
M  V30 2231 H 201.523 1.41889 0.608845 0
M  V30 2232 H 203.481 1.75018 3.7132 0
M  V30 2233 H 202.142 0.796733 3.03827 0
M  V30 2234 H 201.335 2.92619 4.10353 0
M  V30 2235 H 200.937 2.89316 2.37007 0
M  V30 2236 H 203.229 4.37213 5.17544 0
M  V30 2237 H 204.172 5.62273 4.30412 0
M  V30 2238 H 204.58 3.89492 4.08602 0
M  V30 2239 N 203.978 -0.674533 1.42435 0
M  V30 2240 C 205.218 -1.4466 1.44405 0
M  V30 2241 C 205.582 -1.91911 0.0585784 0
M  V30 2242 O 206.783 -2.68759 -0.0469991 0
M  V30 2243 C 205.054 -2.61136 2.44013 0
M  V30 2244 S 206.613 -3.49981 2.64687 0
M  V30 2245 H 203.431 -0.494074 0.511284 0
M  V30 2246 H 206.033 -0.785162 1.7904 0
M  V30 2247 H 204.737 -2.24662 3.43446 0
M  V30 2248 H 204.268 -3.32153 2.10803 0
M  V30 2249 H 206.283 -4.57124 1.93007 0
M  V30 2250 N 205.456 -1.28612 -0.910864 0
M  V30 2251 C 206.684 -1.18792 -1.69399 0
M  V30 2252 C 207.099 0.253039 -1.87097 0
M  V30 2253 O 206.456 1.17071 -1.40003 0
M  V30 2254 C 206.507 -1.88511 -3.08457 0
M  V30 2255 O 206.228 -3.26979 -2.91576 0
M  V30 2256 C 207.729 -1.85029 -4.02839 0
M  V30 2257 H 204.949 -0.412233 -0.529438 0
M  V30 2258 H 207.493 -1.69788 -1.13984 0
M  V30 2259 H 205.648 -1.41379 -3.60681 0
M  V30 2260 H 206.062 -3.61936 -3.79608 0
M  V30 2261 H 207.536 -2.38395 -4.97867 0
M  V30 2262 H 208.013 -0.823303 -4.31414 0
M  V30 2263 H 208.619 -2.31853 -3.56545 0
M  V30 2264 N 206.934 1.1197 -1.10907 0
M  V30 2265 C 208.183 1.82947 -0.849302 0
M  V30 2266 C 208.496 1.85275 0.627112 0
M  V30 2267 O 209.702 2.52296 1.00295 0
M  V30 2268 C 208.158 3.28529 -1.46959 0
M  V30 2269 C 207.766 3.34546 -2.97965 0
M  V30 2270 C 209.51 4.04443 -1.28942 0
M  V30 2271 C 207.417 4.74491 -3.53004 0
M  V30 2272 H 206.347 0.685477 -0.314065 0
M  V30 2273 H 208.998 1.2604 -1.33365 0
M  V30 2274 H 207.38 3.85333 -0.912917 0
M  V30 2275 H 208.554 2.87654 -3.59989 0
M  V30 2276 H 206.869 2.72108 -3.15192 0
M  V30 2277 H 209.466 5.07787 -1.67502 0
M  V30 2278 H 209.809 4.15656 -0.231456 0
M  V30 2279 H 210.342 3.5401 -1.81443 0
M  V30 2280 H 207.081 4.68474 -4.58489 0
M  V30 2281 H 206.601 5.21816 -2.9575 0
M  V30 2282 H 208.28 5.4344 -3.51115 0
M  V30 2283 N 208.412 0.89855 1.29475 0
M  V30 2284 C 209.342 0.39201 2.30186 0
M  V30 2285 C 210.323 -0.532359 1.61555 0
M  V30 2286 O 211.508 -0.443331 1.89072 0
M  V30 2287 C 208.638 -0.382353 3.45189 0
M  V30 2288 C 207.592 0.451483 4.25612 0
M  V30 2289 C 206.918 -0.450307 5.328 0
M  V30 2290 C 208.218 1.70079 4.93832 0
M  V30 2291 H 209.912 1.23362 2.72804 0
M  V30 2292 H 207.458 0.594638 1.31149 0
M  V30 2293 H 209.411 -0.747451 4.14718 0
M  V30 2294 H 208.135 -1.25774 3.01411 0
M  V30 2295 H 206.794 0.798897 3.57789 0
M  V30 2296 H 206.442 -1.32379 4.85268 0
M  V30 2297 H 206.142 0.103902 5.87508 0
M  V30 2298 H 207.666 -0.811623 6.05182 0
M  V30 2299 H 209.08 1.40549 5.55805 0
M  V30 2300 H 207.477 2.19623 5.58467 0
M  V30 2301 H 208.547 2.43744 4.19186 0
M  V30 2302 N 209.89 -1.43072 0.660911 0
M  V30 2303 C 211.118 -2.06067 0.185422 0
M  V30 2304 C 211.533 -1.49582 -1.15198 0
M  V30 2305 O 210.89 -0.630134 -1.71276 0
M  V30 2306 C 210.941 -3.61371 0.0966523 0
M  V30 2307 O 210.662 -4.15758 1.38119 0
M  V30 2308 C 212.163 -4.41455 -0.403996 0
M  V30 2309 H 209.383 -0.664459 0.0934604 0
M  V30 2310 H 211.927 -1.83447 0.90373 0
M  V30 2311 H 210.082 -3.8315 -0.572259 0
M  V30 2312 H 210.496 -5.09499 1.24542 0
M  V30 2313 H 211.97 -5.50437 -0.415045 0
M  V30 2314 H 212.447 -4.15036 -1.43674 0
M  V30 2315 H 213.053 -4.24663 0.232691 0
M  V30 2316 N 211.368 -0.403325 -1.52352 0
M  V30 2317 C 212.316 0.439752 -2.28405 0
M  V30 2318 C 213.31 1.05089 -1.32863 0
M  V30 2319 O 214.516 0.989759 -1.50345 0
M  V30 2320 H 210.891 0.160587 -0.734653 0
M  V30 2321 H 212.862 -0.222983 -2.97566 0
M  V30 2322 C 211.611 1.54736 -3.11371 0
M  V30 2323 H 210.934 1.08643 -3.84755 0
M  V30 2324 H 212.374 2.1112 -3.67701 0
M  V30 2325 C 210.833 2.51141 -2.24566 0
M  V30 2326 O 211.363 3.54887 -1.88196 0
M  V30 2327 N 209.569 2.21213 -1.8845 0
M  V30 2328 H 209.116 1.36878 -2.18225 0
M  V30 2329 H 209.074 2.85963 -1.30662 0
M  V30 2330 N 212.846 1.57033 -0.133567 0
M  V30 2331 C 214.086 1.97575 0.523789 0
M  V30 2332 C 214.45 1.01605 1.62912 0
M  V30 2333 O 215.651 1.3114 2.3464 0
M  V30 2334 C 213.922 3.42256 1.02935 0
M  V30 2335 S 215.481 4.04817 1.69319 0
M  V30 2336 H 212.299 0.690427 0.169799 0
M  V30 2337 H 214.901 1.94234 -0.222101 0
M  V30 2338 H 213.605 4.09842 0.213917 0
M  V30 2339 H 213.136 3.4928 1.81017 0
M  V30 2340 H 215.151 3.96767 2.97977 0
M  V30 2341 N 214.325 -0.140222 1.56975 0
M  V30 2342 C 215.571 -0.852949 1.83991 0
M  V30 2343 C 215.904 -1.80512 0.716187 0
M  V30 2344 O 215.179 -1.92479 -0.279681 0
M  V30 2345 C 215.462 -1.6215 3.21527 0
M  V30 2346 C 215.315 -0.690363 4.4447 0
M  V30 2347 C 216.634 -2.58247 3.56366 0
M  V30 2348 H 213.753 -0.308634 0.669264 0
M  V30 2349 H 216.395 -0.117898 1.89634 0
M  V30 2350 H 214.545 -2.24812 3.16847 0
M  V30 2351 H 216.217 -0.0742264 4.6124 0
M  V30 2352 H 214.46 -0.000396433 4.338 0
M  V30 2353 H 215.131 -1.2643 5.37326 0
M  V30 2354 H 217.607 -2.05701 3.61699 0
M  V30 2355 H 216.483 -3.09067 4.53617 0
M  V30 2356 H 216.744 -3.39923 2.82674 0
M  V30 2357 N 215.803 -1.52179 -0.40978 0
M  V30 2358 C 217.05 -1.66206 -1.15679 0
M  V30 2359 C 217.378 -0.391674 -1.90516 0
M  V30 2360 O 216.633 0.62533 -1.8544 0
M  V30 2361 C 216.932 -2.83428 -2.17723 0
M  V30 2362 C 216.598 -4.21672 -1.59699 0
M  V30 2363 C 215.26 -4.59274 -1.43599 0
M  V30 2364 C 217.612 -5.07825 -1.17317 0
M  V30 2365 C 214.94 -5.80709 -0.836328 0
M  V30 2366 C 217.292 -6.29864 -0.587691 0
M  V30 2367 C 215.956 -6.66216 -0.413818 0
M  V30 2368 H 215.226 -0.608192 -0.423301 0
M  V30 2369 H 217.873 -1.86279 -0.444097 0
M  V30 2370 H 216.178 -2.57687 -2.95135 0
M  V30 2371 H 217.875 -2.91477 -2.75394 0
M  V30 2372 H 214.465 -3.9204 -1.73213 0
M  V30 2373 H 218.649 -4.79359 -1.28565 0
M  V30 2374 H 213.905 -6.07498 -0.689626 0
M  V30 2375 H 218.079 -6.95948 -0.250894 0
M  V30 2376 H 215.706 -7.60182 0.0529471 0
M  V30 2377 N 217.281 0.66697 -1.42791 0
M  V30 2378 C 218.214 1.79177 -1.41318 0
M  V30 2379 C 219.192 1.60234 -0.276401 0
M  V30 2380 O 220.376 1.82602 -0.46785 0
M  V30 2381 C 217.503 3.16289 -1.21157 0
M  V30 2382 C 216.549 3.53964 -2.37932 0
M  V30 2383 S 217.382 3.55501 -4.00474 0
M  V30 2384 C 218.538 4.95292 -3.8267 0
M  V30 2385 H 218.771 1.80153 -2.365 0
M  V30 2386 H 216.304 0.838357 -1.29657 0
M  V30 2387 H 218.262 3.95428 -1.10212 0
M  V30 2388 H 216.923 3.1289 -0.275481 0
M  V30 2389 H 216.116 4.53646 -2.19594 0
M  V30 2390 H 215.718 2.82204 -2.45432 0
M  V30 2391 H 218.01 5.83584 -3.44145 0
M  V30 2392 H 218.953 5.18679 -4.82055 0
M  V30 2393 H 219.361 4.68179 -3.15386 0
M  V30 2394 N 218.759 1.29093 0.90403 0
M  V30 2395 C 219.722 1.1386 1.98919 0
M  V30 2396 C 220.722 0.0753457 1.60623 0
M  V30 2397 O 221.912 0.321931 1.71199 0
M  V30 2398 C 219.044 0.740198 3.32767 0
M  V30 2399 H 220.237 2.10246 2.13861 0
M  V30 2400 H 217.79 1.12218 1.08797 0
M  V30 2401 H 218.525 -0.223997 3.23525 0
M  V30 2402 H 218.31 1.50838 3.61926 0
M  V30 2403 H 219.8 0.656546 4.12407 0
M  V30 2404 N 220.237 -1.11381 1.11499 0
M  V30 2405 C 221.169 -2.17207 0.731704 0
M  V30 2406 C 222.182 -1.61066 -0.236957 0
M  V30 2407 O 223.371 -1.78489 -0.0197591 0
M  V30 2408 C 220.471 -3.38846 0.0607624 0
M  V30 2409 C 219.644 -4.24451 1.0564 0
M  V30 2410 C 218.703 -5.24562 0.4149 0
M  V30 2411 O 217.729 -5.59071 1.069 0
M  V30 2412 N 218.931 -5.74651 -0.821943 0
M  V30 2413 H 221.696 -2.50699 1.64225 0
M  V30 2414 H 219.257 -1.26908 1.00529 0
M  V30 2415 H 221.249 -4.02911 -0.380139 0
M  V30 2416 H 219.819 -3.03411 -0.752376 0
M  V30 2417 H 219.039 -3.56833 1.67524 0
M  V30 2418 H 220.327 -4.78486 1.72998 0
M  V30 2419 H 219.725 -5.48797 -1.37252 0
M  V30 2420 H 218.282 -6.40549 -1.20582 0
M  V30 2421 N 221.715 -0.905404 -1.28997 0
M  V30 2422 C 222.665 -0.358713 -2.25161 0
M  V30 2423 C 223.649 0.524449 -1.52113 0
M  V30 2424 O 224.841 0.365534 -1.73184 0
M  V30 2425 C 221.97 0.407609 -3.40872 0
M  V30 2426 C 221.056 -0.490797 -4.21251 0
M  V30 2427 N 221.447 -1.60061 -4.79806 0
M  V30 2428 C 219.745 -0.289636 -4.45059 0
M  V30 2429 C 220.446 -2.15757 -5.40207 0
M  V30 2430 N 219.422 -1.44988 -5.23908 0
M  V30 2431 H 223.224 -1.20642 -2.67998 0
M  V30 2432 H 220.738 -0.757103 -1.43672 0
M  V30 2433 H 222.735 0.816046 -4.08835 0
M  V30 2434 H 221.395 1.25251 -2.9957 0
M  V30 2435 H 222.406 -1.98329 -4.7842 0
M  V30 2436 H 219.083 0.51643 -4.14294 0
M  V30 2437 H 220.473 -3.09069 -5.96595 0
M  V30 2438 N 223.193 1.4272 -0.668489 0
M  V30 2439 C 224.47 1.95248 -0.117373 0
M  V30 2440 C 224.85 1.60919 1.36632 0
M  V30 2441 O 224.198 0.902095 2.09939 0
M  V30 2442 C 224.408 3.46927 -0.379806 0
M  V30 2443 C 225.756 4.23588 -0.292923 0
M  V30 2444 O 226.78 3.5482 -0.313204 0
M  V30 2445 O 225.639 5.46017 -0.229697 0
M  V30 2446 H 222.733 0.827 0.00079152 0
M  V30 2447 H 225.279 1.52581 -0.742783 0
M  V30 2448 H 224.051 3.65096 -1.40786 0
M  V30 2449 H 223.674 3.96627 0.277923 0
M  V30 2450 N 224.671 0.411399 1.52136 0
M  V30 2451 C 226.082 -0.0576826 1.86611 0
M  V30 2452 C 226.433 -1.44238 1.33003 0
M  V30 2453 O 225.558 -2.05759 0.670228 0
M  V30 2454 C 226.153 -0.111448 3.38617 0
M  V30 2455 C 224.712 -0.52487 3.72723 0
M  V30 2456 C 223.859 0.299176 2.75681 0
M  V30 2457 H 226.81 0.628368 1.4573 0
M  V30 2458 H 226.831 -0.926252 3.69054 0
M  V30 2459 H 226.343 0.896488 3.77604 0
M  V30 2460 H 224.444 -1.53936 3.39315 0
M  V30 2461 H 224.557 -0.267681 4.78352 0
M  V30 2462 H 222.921 -0.238814 2.53578 0
M  V30 2463 H 223.704 1.3055 3.17508 0
M  V30 2464 N 226.149 -1.5696 0.141893 0
M  V30 2465 C 227.56 -1.82797 -0.379776 0
M  V30 2466 C 227.911 -1.06033 -1.6508 0
M  V30 2467 O 227.036 -0.304011 -2.14254 0
M  V30 2468 C 227.631 -3.31578 -0.695802 0
M  V30 2469 C 226.19 -3.58014 -1.16201 0
M  V30 2470 C 225.337 -2.76699 -0.182455 0
M  V30 2471 H 228.288 -1.54406 0.366675 0
M  V30 2472 H 228.309 -3.47454 -1.55099 0
M  V30 2473 H 227.821 -3.87421 0.229449 0
M  V30 2474 H 225.922 -3.07553 -2.10338 0
M  V30 2475 H 226.035 -4.66501 -1.09151 0
M  V30 2476 H 224.399 -2.45618 -0.674072 0
M  V30 2477 H 225.182 -3.35311 0.736297 0
M  V30 2478 N 227.627 0.131896 -1.57047 0
M  V30 2479 C 229.038 0.690407 -1.73465 0
M  V30 2480 C 229.389 1.8094 -0.758629 0
M  V30 2481 O 228.514 2.16282 0.0713813 0
M  V30 2482 C 229.109 1.25916 -3.14532 0
M  V30 2483 C 227.668 1.76409 -3.32501 0
M  V30 2484 C 226.815 0.658579 -2.69366 0
M  V30 2485 H 229.766 -0.0939144 -1.58422 0
M  V30 2486 H 229.787 2.12892 -3.15369 0
M  V30 2487 H 229.299 0.444515 -3.85546 0
M  V30 2488 H 227.4 2.60391 -2.66509 0
M  V30 2489 H 227.513 1.88241 -4.4057 0
M  V30 2490 H 225.877 1.08899 -2.30246 0
M  V30 2491 H 226.66 -0.14487 -3.42994 0
M  V30 2492 N 229.106 1.52395 0.401703 0
M  V30 2493 C 230.352 1.68019 1.14635 0
M  V30 2494 C 230.707 0.408722 1.88009 0
M  V30 2495 O 230 -0.597133 1.82057 0
M  V30 2496 C 230.194 2.84578 2.16217 0
M  V30 2497 C 230.023 4.22938 1.5282 0
M  V30 2498 C 228.793 4.88352 1.29772 0
M  V30 2499 C 230.991 5.04778 0.985094 0
M  V30 2500 N 228.973 6.10726 0.623455 0
M  V30 2501 C 230.344 6.1845 0.438172 0
M  V30 2502 C 232.399 4.90057 0.880275 0
M  V30 2503 C 231.102 7.19013 -0.203306 0
M  V30 2504 C 233.128 5.9086 0.252639 0
M  V30 2505 C 232.49 7.03829 -0.283573 0
M  V30 2506 H 228.589 0.668413 0.405892 0
M  V30 2507 H 231.173 1.89717 0.437674 0
M  V30 2508 H 229.344 2.64483 2.84435 0
M  V30 2509 H 231.076 2.89202 2.83098 0
M  V30 2510 H 227.831 4.46846 1.56926 0
M  V30 2511 H 228.255 6.76323 0.302733 0
M  V30 2512 H 232.897 4.02938 1.28065 0
M  V30 2513 H 230.615 8.05751 -0.615726 0
M  V30 2514 H 234.201 5.81543 0.172954 0
M  V30 2515 H 233.081 7.80493 -0.761575 0
M  V30 2516 N 230.584 -0.659388 1.43143 0
M  V30 2517 C 231.812 -1.44723 1.47861 0
M  V30 2518 C 232.227 -1.88563 0.0945886 0
M  V30 2519 O 231.584 -1.59108 -0.893915 0
M  V30 2520 C 231.635 -2.68627 2.41913 0
M  V30 2521 O 231.356 -2.26623 3.74932 0
M  V30 2522 C 232.857 -3.62045 2.55809 0
M  V30 2523 H 230.077 -0.444801 0.502387 0
M  V30 2524 H 232.621 -0.808916 1.87821 0
M  V30 2525 H 230.776 -3.28613 2.05164 0
M  V30 2526 H 231.19 -3.06745 4.2545 0
M  V30 2527 H 232.664 -4.45666 3.25708 0
M  V30 2528 H 233.141 -4.08981 1.60099 0
M  V30 2529 H 233.747 -3.07944 2.93344 0
M  V30 2530 N 232.062 -1.29571 -0.897171 0
M  V30 2531 C 233.009 -1.14916 -2.00158 0
M  V30 2532 C 233.979 -0.0418149 -1.66047 0
M  V30 2533 O 235.164 -0.209793 -1.89643 0
M  V30 2534 C 232.304 -0.834307 -3.34863 0
M  V30 2535 C 231.417 -2.02234 -3.8174 0
M  V30 2536 C 230.552 -1.64664 -5.05034 0
M  V30 2537 C 229.591 -2.80033 -5.44286 0
M  V30 2538 N 228.728 -2.42843 -6.58765 0
M  V30 2539 H 233.568 -2.09403 -2.12025 0
M  V30 2540 H 231.105 -1.042 -1.0383 0
M  V30 2541 H 233.063 -0.632436 -4.12379 0
M  V30 2542 H 231.693 0.0736656 -3.22716 0
M  V30 2543 H 230.745 -2.33583 -3.00238 0
M  V30 2544 H 232.057 -2.88673 -4.06779 0
M  V30 2545 H 231.211 -1.4078 -5.9014 0
M  V30 2546 H 229.95 -0.753766 -4.8184 0
M  V30 2547 H 228.955 -3.04596 -4.57713 0
M  V30 2548 H 230.18 -3.69989 -5.6946 0
M  V30 2549 H 228.126 -1.56046 -6.3717 0
M  V30 2550 H 228.043 -3.22815 -6.83613 0
M  V30 2551 H 229.311 -2.22285 -7.47134 0
M  V30 2552 N 233.54 1.10788 -1.12088 0
M  V30 2553 C 234.77 1.86191 -0.895351 0
M  V30 2554 C 235.178 1.80763 0.558702 0
M  V30 2555 O 234.521 1.19188 1.39785 0
M  V30 2556 C 234.583 3.35659 -1.28737 0
M  V30 2557 C 234.247 3.64849 -2.75198 0
M  V30 2558 C 235.244 3.61757 -3.734 0
M  V30 2559 C 232.929 3.93641 -3.12013 0
M  V30 2560 C 234.923 3.87045 -5.06434 0
M  V30 2561 C 232.61 4.18585 -4.4523 0
M  V30 2562 C 233.608 4.15277 -5.42249 0
M  V30 2563 O 233.296 4.3959 -6.73065 0
M  V30 2564 H 233.028 0.595425 -0.32007 0
M  V30 2565 H 235.582 1.40992 -1.49367 0
M  V30 2566 H 233.812 3.81497 -0.63224 0
M  V30 2567 H 235.501 3.92441 -1.03656 0
M  V30 2568 H 236.267 3.39557 -3.46303 0
M  V30 2569 H 232.146 3.95348 -2.37109 0
M  V30 2570 H 235.69 3.84378 -5.82151 0
M  V30 2571 H 231.587 4.40264 -4.72057 0
M  V30 2572 H 232.355 4.57123 -6.78956 0
M  V30 2573 N 235.018 0.912232 1.28515 0
M  V30 2574 C 236.264 0.545405 1.95328 0
M  V30 2575 C 236.597 -0.908313 1.71649 0
M  V30 2576 O 235.872 -1.64575 1.03659 0
M  V30 2577 C 236.155 0.853483 3.4984 0
M  V30 2578 C 236.008 2.35982 3.82926 0
M  V30 2579 C 237.327 0.348589 4.38717 0
M  V30 2580 H 234.446 0.199626 0.709449 0
M  V30 2581 H 237.088 1.1412 1.5191 0
M  V30 2582 H 235.238 0.34643 3.86952 0
M  V30 2583 H 236.91 2.93738 3.55691 0
M  V30 2584 H 235.153 2.81543 3.30024 0
M  V30 2585 H 235.824 2.52593 4.90816 0
M  V30 2586 H 238.3 0.78294 4.08668 0
M  V30 2587 H 237.176 0.593242 5.45685 0
M  V30 2588 H 237.437 -0.751049 4.35674 0
M  V30 2589 N 236.496 -1.42363 0.676048 0
M  V30 2590 C 237.406 -2.346 -0.00153389 0
M  V30 2591 C 238.422 -1.5516 -0.787485 0
M  V30 2592 O 239.598 -1.87723 -0.729521 0
M  V30 2593 C 236.663 -3.33705 -0.940298 0
M  V30 2594 C 235.724 -4.29042 -0.148739 0
M  V30 2595 C 234.957 -5.23413 -1.04279 0
M  V30 2596 O 235.18 -5.22749 -2.28232 0
M  V30 2597 O 234.114 -5.99795 -0.502925 0
M  V30 2598 H 237.94 -2.94082 0.758268 0
M  V30 2599 H 235.525 -1.42888 0.436289 0
M  V30 2600 H 237.407 -3.94586 -1.47917 0
M  V30 2601 H 236.082 -2.76695 -1.67993 0
M  V30 2602 H 234.989 -3.71571 0.43427 0
M  V30 2603 H 236.322 -4.89097 0.551805 0
M  V30 2604 N 237.974 -0.419461 -1.51915 0
M  V30 2605 C 239.204 0.151915 -2.06041 0
M  V30 2606 C 239.612 1.38539 -1.28855 0
M  V30 2607 O 238.955 1.80592 -0.336463 0
M  V30 2608 C 239.017 0.557119 -3.55157 0
M  V30 2609 C 238.681 -0.567054 -4.53468 0
M  V30 2610 C 239.678 -1.43379 -4.99738 0
M  V30 2611 C 237.363 -0.742693 -4.96779 0
M  V30 2612 C 239.357 -2.46102 -5.87973 0
M  V30 2613 C 237.044 -1.77322 -5.84808 0
M  V30 2614 C 238.042 -2.63078 -6.30301 0
M  V30 2615 O 237.73 -3.64364 -7.16585 0
M  V30 2616 H 237.462 0.0193293 -0.675724 0
M  V30 2617 H 240.016 -0.592073 -1.96682 0
M  V30 2618 H 238.246 1.35355 -3.62238 0
M  V30 2619 H 239.935 1.05759 -3.9188 0
M  V30 2620 H 240.701 -1.30954 -4.66986 0
M  V30 2621 H 236.58 -0.0848307 -4.60922 0
M  V30 2622 H 240.124 -3.13071 -6.23404 0
M  V30 2623 H 236.021 -1.89773 -6.16974 0
M  V30 2624 H 236.789 -3.60731 -7.34721 0
M  V30 2625 N 239.452 1.56882 -0.150215 0
M  V30 2626 C 240.68 2.00593 0.506948 0
M  V30 2627 C 241.095 1.03033 1.58208 0
M  V30 2628 O 240.452 0.0278396 1.82479 0
M  V30 2629 C 240.503 3.44209 1.10465 0
M  V30 2630 O 240.224 4.3804 0.0724636 0
M  V30 2631 C 241.725 4.03214 1.84211 0
M  V30 2632 H 238.945 0.65795 0.13169 0
M  V30 2633 H 241.489 2.03018 -0.245743 0
M  V30 2634 H 239.644 3.42625 1.80795 0
M  V30 2635 H 240.058 5.22007 0.510793 0
M  V30 2636 H 241.532 5.0569 2.21318 0
M  V30 2637 H 242.009 3.44107 2.72923 0
M  V30 2638 H 242.615 4.08437 1.18572 0
M  V30 2639 N 240.93 -0.123565 1.57115 0
M  V30 2640 C 242.177 -0.832153 1.84612 0
M  V30 2641 C 242.505 -1.80093 0.734627 0
M  V30 2642 O 241.76 -1.93766 -0.27442 0
M  V30 2643 C 242.059 -1.62016 3.18568 0
M  V30 2644 C 241.725 -0.796084 4.43817 0
M  V30 2645 C 240.387 -0.568816 4.77826 0
M  V30 2646 C 242.739 -0.221364 5.2073 0
M  V30 2647 C 240.067 0.243499 5.86194 0
M  V30 2648 C 242.419 0.578117 6.29953 0
M  V30 2649 C 241.083 0.815744 6.62497 0
M  V30 2650 H 240.353 -0.304507 0.675542 0
M  V30 2651 H 243 -0.0947248 1.91266 0
M  V30 2652 H 241.305 -2.42837 3.0747 0
M  V30 2653 H 243.002 -2.17231 3.37064 0
M  V30 2654 H 239.592 -0.983307 4.17168 0
M  V30 2655 H 243.776 -0.384173 4.94811 0
M  V30 2656 H 239.032 0.436871 6.09837 0
M  V30 2657 H 243.206 1.03046 6.88734 0
M  V30 2658 H 240.833 1.44701 7.46301 0
M  V30 2659 N 242.408 -1.52605 -0.393616 0
M  V30 2660 C 243.636 -1.71294 -1.16043 0
M  V30 2661 C 244.051 -0.429259 -1.83855 0
M  V30 2662 O 243.408 0.595921 -1.72496 0
M  V30 2663 C 243.459 -2.8593 -2.21193 0
M  V30 2664 O 243.18 -4.09329 -1.56146 0
M  V30 2665 C 244.681 -3.16259 -3.10636 0
M  V30 2666 H 241.901 -0.573641 -0.348104 0
M  V30 2667 H 244.445 -1.99234 -0.461092 0
M  V30 2668 H 242.6 -2.60465 -2.86769 0
M  V30 2669 H 243.014 -4.73323 -2.25978 0
M  V30 2670 H 244.488 -3.99946 -3.80456 0
M  V30 2671 H 244.965 -2.3045 -3.73884 0
M  V30 2672 H 245.571 -3.43547 -2.50711 0
M  V30 2673 N 243.887 0.651787 -1.4349 0
M  V30 2674 C 244.85 1.74647 -1.48429 0
M  V30 2675 C 245.85 1.56513 -0.368817 0
M  V30 2676 O 247.04 1.62385 -0.630623 0
M  V30 2677 C 244.172 3.13533 -1.33827 0
M  V30 2678 H 245.365 1.71649 -2.4592 0
M  V30 2679 H 242.918 0.863573 -1.30277 0
M  V30 2680 H 243.653 3.22142 -0.37349 0
M  V30 2681 H 243.438 3.28101 -2.14691 0
M  V30 2682 H 244.928 3.93356 -1.40218 0
M  V30 2683 N 245.365 1.30045 0.890287 0
M  V30 2684 C 246.614 1.17929 1.63633 0
M  V30 2685 C 246.927 -0.266204 1.9378 0
M  V30 2686 O 248.133 -0.508804 2.6669 0
M  V30 2687 C 246.589 2.06317 2.94892 0
M  V30 2688 C 246.197 3.55745 2.72305 0
M  V30 2689 C 247.941 2.0295 3.72843 0
M  V30 2690 C 245.848 4.36205 3.99348 0
M  V30 2691 H 244.778 0.437782 0.613892 0
M  V30 2692 H 247.429 1.54754 0.986075 0
M  V30 2693 H 245.811 1.6237 3.61182 0
M  V30 2694 H 246.985 4.07805 2.1455 0
M  V30 2695 H 245.3 3.6088 2.07737 0
M  V30 2696 H 247.897 2.60319 4.67053 0
M  V30 2697 H 248.24 1.0117 4.0382 0
M  V30 2698 H 248.773 2.4499 3.13408 0
M  V30 2699 H 245.512 5.38659 3.73533 0
M  V30 2700 H 245.032 3.8891 4.56628 0
M  V30 2701 H 246.711 4.47362 4.67415 0
M  V30 2702 N 246.843 -1.10192 1.12674 0
M  V30 2703 C 248.073 -1.85713 0.905213 0
M  V30 2704 C 248.481 -1.81056 -0.549108 0
M  V30 2705 O 247.824 -1.19927 -1.39151 0
M  V30 2706 C 247.886 -3.34972 1.30516 0
M  V30 2707 C 247.55 -3.63385 2.77129 0
M  V30 2708 C 248.547 -3.59772 3.75313 0
M  V30 2709 C 246.232 -3.91981 3.14096 0
M  V30 2710 C 248.226 -3.84354 5.08479 0
M  V30 2711 C 245.913 -4.16218 4.47443 0
M  V30 2712 C 246.911 -4.12395 5.44444 0
M  V30 2713 O 246.599 -4.36014 6.75387 0
M  V30 2714 H 246.331 -0.593719 0.323223 0
M  V30 2715 H 248.885 -1.40198 1.50112 0
M  V30 2716 H 247.115 -3.81156 0.652463 0
M  V30 2717 H 248.804 -3.91886 1.05736 0
M  V30 2718 H 249.57 -3.37716 3.48099 0
M  V30 2719 H 245.449 -3.94085 2.39202 0
M  V30 2720 H 248.993 -3.81285 5.84181 0
M  V30 2721 H 244.89 -4.37754 4.74386 0
M  V30 2722 H 245.658 -4.53516 6.8137 0
M  V30 2723 N 248.321 -0.919034 -1.28029 0
M  V30 2724 C 249.549 -0.570971 -1.98866 0
M  V30 2725 C 249.964 0.848996 -1.68634 0
M  V30 2726 O 249.321 1.56307 -0.942036 0
M  V30 2727 C 249.372 -0.776876 -3.53054 0
M  V30 2728 O 249.093 -2.14097 -3.82222 0
M  V30 2729 C 250.594 -0.436356 -4.41147 0
M  V30 2730 H 247.814 -0.217175 -0.634883 0
M  V30 2731 H 250.358 -1.23368 -1.63097 0
M  V30 2732 H 248.513 -0.161085 -3.87065 0
M  V30 2733 H 248.927 -2.18455 -4.76841 0
M  V30 2734 H 250.401 -0.63117 -5.4838 0
M  V30 2735 H 250.878 0.627686 -4.34692 0
M  V30 2736 H 251.484 -1.02991 -4.12641 0
M  V30 2737 N 249.799 1.42003 -0.683588 0
M  V30 2738 C 251.046 2.01413 -0.209514 0
M  V30 2739 C 251.374 1.54088 1.1869 0
M  V30 2740 O 250.629 0.737591 1.81268 0
M  V30 2741 C 250.928 3.56827 -0.202357 0
M  V30 2742 C 250.594 4.23617 -1.54464 0
M  V30 2743 C 249.256 4.41577 -1.91215 0
M  V30 2744 C 251.608 4.61178 -2.42826 0
M  V30 2745 C 248.936 4.9437 -3.15935 0
M  V30 2746 C 251.288 5.15355 -3.66867 0
M  V30 2747 C 249.952 5.31528 -4.03776 0
M  V30 2748 H 249.222 0.737023 -0.0766668 0
M  V30 2749 H 251.869 1.70067 -0.880312 0
M  V30 2750 H 250.174 3.87892 0.551969 0
M  V30 2751 H 251.871 4.00588 0.181793 0
M  V30 2752 H 248.461 4.10004 -1.24877 0
M  V30 2753 H 252.645 4.46968 -2.15717 0
M  V30 2754 H 247.901 5.05076 -3.44541 0
M  V30 2755 H 252.075 5.43402 -4.35531 0
M  V30 2756 H 249.702 5.72199 -5.00492 0
M  V30 2757 N 251.277 0.427512 1.51691 0
M  V30 2758 C 252.187 -0.39527 2.31246 0
M  V30 2759 C 253.203 -1.03674 1.39742 0
M  V30 2760 O 254.379 -1.03425 1.72816 0
M  V30 2761 C 251.444 -1.48706 3.13189 0
M  V30 2762 C 250.505 -0.866743 4.20459 0
M  V30 2763 C 249.738 -1.90651 4.98486 0
M  V30 2764 O 249.961 -3.12733 4.77026 0
M  V30 2765 O 248.895 -1.5025 5.82845 0
M  V30 2766 H 252.721 0.253918 3.02637 0
M  V30 2767 H 250.306 0.190274 1.48183 0
M  V30 2768 H 252.188 -2.12047 3.64162 0
M  V30 2769 H 250.863 -2.12051 2.44573 0
M  V30 2770 H 249.77 -0.195544 3.73589 0
M  V30 2771 H 251.103 -0.276934 4.9142 0
M  V30 2772 N 252.755 -1.56801 0.158532 0
M  V30 2773 C 253.98 -2.01295 -0.499516 0
M  V30 2774 C 254.405 -1.03799 -1.56867 0
M  V30 2775 O 253.763 -0.0155162 -1.81293 0
M  V30 2776 C 253.811 -3.44469 -1.06647 0
M  V30 2777 O 252.915 -3.50012 -2.18095 0
M  V30 2778 H 252.256 -0.652884 -0.12099 0
M  V30 2779 H 254.786 -2.02958 0.258661 0
M  V30 2780 H 254.796 -3.8351 -1.39227 0
M  V30 2781 H 253.471 -4.14932 -0.283581 0
M  V30 2782 H 252.048 -3.22822 -1.86656 0
M  V30 2783 N 254.233 0.115231 -1.57178 0
M  V30 2784 C 255.163 1.1423 -2.03651 0
M  V30 2785 C 256.144 1.42967 -0.921655 0
M  V30 2786 O 257.329 1.53343 -1.19162 0
M  V30 2787 C 254.459 2.4675 -2.44401 0
M  V30 2788 C 253.413 2.32467 -3.59365 0
M  V30 2789 C 252.739 3.69984 -3.86026 0
M  V30 2790 C 254.039 1.78203 -4.90959 0
M  V30 2791 H 255.733 0.755749 -2.89705 0
M  V30 2792 H 253.279 0.362093 -1.39373 0
M  V30 2793 H 255.232 3.18854 -2.75517 0
M  V30 2794 H 253.956 2.87302 -1.55322 0
M  V30 2795 H 252.615 1.62811 -3.28463 0
M  V30 2796 H 252.263 4.08028 -2.94147 0
M  V30 2797 H 251.963 3.61279 -4.63412 0
M  V30 2798 H 253.487 4.43587 -4.19599 0
M  V30 2799 H 254.901 2.40128 -5.20587 0
M  V30 2800 H 253.298 1.8031 -5.72371 0
M  V30 2801 H 254.368 0.739876 -4.79222 0
M  V30 2802 N 255.711 1.52812 0.385517 0
M  V30 2803 C 256.957 1.68275 1.13188 0
M  V30 2804 C 257.29 0.423179 1.89533 0
M  V30 2805 O 256.565 -0.579113 1.85679 0
M  V30 2806 C 256.848 2.92001 2.1073 0
M  V30 2807 C 256.701 4.28067 1.38125 0
M  V30 2808 C 258.02 3.11283 3.11113 0
M  V30 2809 H 255.139 0.612352 0.410115 0
M  V30 2810 H 257.781 1.85415 0.414869 0
M  V30 2811 H 255.931 2.77519 2.71874 0
M  V30 2812 H 257.603 4.54324 0.799187 0
M  V30 2813 H 255.846 4.28388 0.683092 0
M  V30 2814 H 256.517 5.10733 2.09417 0
M  V30 2815 H 258.993 3.2482 2.6006 0
M  V30 2816 H 257.869 3.99325 3.76605 0
M  V30 2817 H 258.13 2.25656 3.80173 0
M  V30 2818 N 257.189 -0.644168 1.43834 0
M  V30 2819 C 258.136 -1.75671 1.49694 0
M  V30 2820 C 259.106 -1.6246 0.345809 0
M  V30 2821 O 260.291 -1.82573 0.554234 0
M  V30 2822 C 257.431 -3.13867 1.43463 0
M  V30 2823 C 256.544 -3.38147 2.6885 0
M  V30 2824 C 255.679 -4.66241 2.54544 0
M  V30 2825 C 254.718 -4.83657 3.75157 0
M  V30 2826 N 253.855 -6.03016 3.59605 0
M  V30 2827 H 258.695 -1.69998 2.44754 0
M  V30 2828 H 256.232 -0.829458 1.21484 0
M  V30 2829 H 258.19 -3.9377 1.37843 0
M  V30 2830 H 256.82 -3.18588 0.519783 0
M  V30 2831 H 255.872 -2.52276 2.84712 0
M  V30 2832 H 257.184 -3.46899 3.58417 0
M  V30 2833 H 256.338 -5.54285 2.46683 0
M  V30 2834 H 255.077 -4.59826 1.62516 0
M  V30 2835 H 254.082 -3.94046 3.83416 0
M  V30 2836 H 255.307 -4.91896 4.68204 0
M  V30 2837 H 253.253 -5.97715 2.7032 0
M  V30 2838 H 253.17 -6.12766 4.42779 0
M  V30 2839 H 254.438 -6.93657 3.55613 0
M  V30 2840 N 258.668 -1.30515 -0.883378 0
M  V30 2841 C 259.917 -1.18795 -1.63005 0
M  V30 2842 C 260.23 0.255923 -1.93919 0
M  V30 2843 O 261.436 0.494654 -2.66956 0
M  V30 2844 C 259.892 -2.07878 -2.93794 0
M  V30 2845 C 259.5 -3.57184 -2.70414 0
M  V30 2846 C 261.244 -2.04924 -3.71761 0
M  V30 2847 C 259.151 -4.38317 -3.97029 0
M  V30 2848 H 258.081 -0.441031 -0.611562 0
M  V30 2849 H 260.732 -1.55275 -0.977854 0
M  V30 2850 H 259.114 -1.64283 -3.60315 0
M  V30 2851 H 260.288 -4.08937 -2.12384 0
M  V30 2852 H 258.603 -3.61976 -2.0582 0
M  V30 2853 H 261.2 -2.62792 -4.65665 0
M  V30 2854 H 261.543 -1.0331 -4.03277 0
M  V30 2855 H 262.076 -2.46649 -3.12104 0
M  V30 2856 H 258.815 -5.40632 -3.70671 0
M  V30 2857 H 258.335 -3.91326 -4.54559 0
M  V30 2858 H 260.014 -4.49834 -4.65036 0
M  V30 2859 N 260.146 1.09593 -1.13257 0
M  V30 2860 C 261.076 2.18214 -0.830946 0
M  V30 2861 C 262.057 1.68812 0.208966 0
M  V30 2862 O 263.242 1.9408 0.0682666 0
M  V30 2863 C 260.372 3.46051 -0.294296 0
M  V30 2864 C 259.326 4.08778 -1.26826 0
M  V30 2865 C 258.652 5.31419 -0.591449 0
M  V30 2866 C 259.952 4.51476 -2.62615 0
M  V30 2867 H 261.646 2.43703 -1.73923 0
M  V30 2868 H 259.192 1.17128 -0.837675 0
M  V30 2869 H 261.145 4.2134 -0.0709606 0
M  V30 2870 H 259.869 3.20079 0.649366 0
M  V30 2871 H 258.528 3.35505 -1.47756 0
M  V30 2872 H 258.176 5.01727 0.357633 0
M  V30 2873 H 257.876 5.74341 -1.24123 0
M  V30 2874 H 259.4 6.09433 -0.377355 0
M  V30 2875 H 260.814 5.17999 -2.45663 0
M  V30 2876 H 259.211 5.05277 -3.23752 0
M  V30 2877 H 260.281 3.63962 -3.20406 0
M  V30 2878 N 261.624 0.925811 1.2754 0
M  V30 2879 C 262.587 0.428129 2.25166 0
M  V30 2880 C 263.587 -0.452261 1.54309 0
M  V30 2881 O 264.777 -0.253608 1.72344 0
M  V30 2882 C 261.909 -0.384749 3.38722 0
M  V30 2883 H 263.102 1.29066 2.70706 0
M  V30 2884 H 260.655 0.706323 1.3943 0
M  V30 2885 H 261.39 -1.26618 2.98561 0
M  V30 2886 H 261.175 0.246454 3.91325 0
M  V30 2887 H 262.665 -0.723389 4.11287 0
M  V30 2888 N 263.102 -1.41638 0.69111 0
M  V30 2889 C 264.518 -1.55435 0.362224 0
M  V30 2890 C 264.718 -1.66754 -1.13117 0
M  V30 2891 O 263.774 -1.64348 -1.91692 0
M  V30 2892 C 265.087 -2.79588 1.10684 0
M  V30 2893 C 266.635 -2.9338 1.09075 0
M  V30 2894 C 267.11 -4.20414 1.81703 0
M  V30 2895 N 268.601 -4.27362 1.7865 0
M  V30 2896 C 269.336 -5.24507 2.31689 0
M  V30 2897 N 268.832 -6.27708 2.93179 0
M  V30 2898 N 270.625 -5.16416 2.2197 0
M  V30 2899 H 262.776 -1.32536 1.65976 0
M  V30 2900 H 265.039 -0.639115 0.700168 0
M  V30 2901 H 264.745 -2.77419 2.16175 0
M  V30 2902 H 264.619 -3.70973 0.682545 0
M  V30 2903 H 267.006 -2.95067 0.0441238 0
M  V30 2904 H 267.087 -2.0318 1.55407 0
M  V30 2905 H 266.731 -4.19488 2.86343 0
M  V30 2906 H 266.661 -5.09578 1.32808 0
M  V30 2907 H 269.152 -3.53415 1.33815 0
M  V30 2908 H 269.465 -6.98217 3.31229 0
M  V30 2909 H 267.81 -6.28223 2.97255 0
M  V30 2910 H 271.001 -4.34716 1.73607 0
M  V30 2911 H 271.174 -5.91958 2.63609 0
M  V30 2912 N 264.58 -0.43555 -1.51462 0
M  V30 2913 C 265.828 0.131254 -2.01673 0
M  V30 2914 C 266.149 1.43368 -1.32177 0
M  V30 2915 O 265.419 1.90524 -0.455769 0
M  V30 2916 H 263.999 0.0514954 -0.745223 0
M  V30 2917 H 266.661 -0.577847 -1.86137 0
M  V30 2918 H 265.757 0.308446 -3.10572 0
M  V30 2919 N 266.058 1.56714 -0.166846 0
M  V30 2920 C 267.305 1.96747 0.479252 0
M  V30 2921 C 267.633 1.05263 1.63554 0
M  V30 2922 O 266.888 0.0858098 1.95512 0
M  V30 2923 C 267.187 3.42889 1.00806 0
M  V30 2924 C 266.853 4.50889 -0.0318574 0
M  V30 2925 C 265.515 4.8015 -0.317675 0
M  V30 2926 C 267.867 5.15949 -0.737956 0
M  V30 2927 C 265.195 5.71772 -1.31506 0
M  V30 2928 C 267.547 6.08647 -1.72429 0
M  V30 2929 C 266.211 6.36277 -2.0176 0
M  V30 2930 H 265.481 0.719949 0.175371 0
M  V30 2931 H 268.128 1.89756 -0.257864 0
M  V30 2932 H 266.433 3.4681 1.82291 0
M  V30 2933 H 268.13 3.71203 1.51689 0
M  V30 2934 H 264.72 4.28128 0.201088 0
M  V30 2935 H 268.904 4.93458 -0.530351 0
M  V30 2936 H 264.16 5.91465 -1.54853 0
M  V30 2937 H 268.334 6.58129 -2.27682 0
M  V30 2938 H 265.961 7.07075 -2.79194 0
M  V30 2939 N 267.536 -0.106894 1.57237 0
M  V30 2940 C 268.776 -0.818277 1.87306 0
M  V30 2941 C 269.14 -1.76474 0.756371 0
M  V30 2942 O 270.341 -2.5186 0.939155 0
M  V30 2943 C 268.612 -1.53806 3.22612 0
M  V30 2944 S 270.171 -2.28935 3.74345 0
M  V30 2945 H 266.989 -0.272862 0.656557 0
M  V30 2946 H 269.591 -0.075988 1.95352 0
M  V30 2947 H 268.295 -0.834951 4.01817 0
M  V30 2948 H 267.826 -2.32049 3.17674 0
M  V30 2949 H 269.841 -3.54871 3.46815 0
M  V30 2950 N 269.014 -1.53014 -0.377408 0
M  V30 2951 C 269.944 -1.81589 -1.46791 0
M  V30 2952 C 270.925 -0.668622 -1.56408 0
M  V30 2953 O 272.11 -0.917337 -1.71168 0
M  V30 2954 C 269.24 -1.99519 -2.8427 0
M  V30 2955 C 268.194 -3.15249 -2.89486 0
M  V30 2956 C 267.52 -3.18451 -4.29527 0
M  V30 2957 C 268.82 -4.54084 -2.58079 0
M  V30 2958 H 270.514 -2.7291 -1.23127 0
M  V30 2959 H 268.06 -1.31319 -0.590883 0
M  V30 2960 H 270.013 -2.18092 -3.60575 0
M  V30 2961 H 268.737 -1.04897 -3.09296 0
M  V30 2962 H 267.396 -2.96477 -2.15631 0
M  V30 2963 H 267.044 -2.2149 -4.5161 0
M  V30 2964 H 266.744 -3.962 -4.33934 0
M  V30 2965 H 268.268 -3.39193 -5.07721 0
M  V30 2966 H 269.682 -4.72899 -3.24098 0
M  V30 2967 H 268.079 -5.33987 -2.7382 0
M  V30 2968 H 269.149 -4.60006 -1.53372 0
M  V30 2969 N 270.492 0.636531 -1.44174 0
M  V30 2970 C 271.442 1.74233 -1.47061 0
M  V30 2971 C 272.426 1.57331 -0.337034 0
M  V30 2972 O 273.618 1.67159 -0.581973 0
M  V30 2973 C 270.747 3.12897 -1.41246 0
M  V30 2974 C 269.833 3.35288 -2.59698 0
M  V30 2975 N 270.224 3.2807 -3.84972 0
M  V30 2976 C 268.522 3.66065 -2.54778 0
M  V30 2977 C 269.223 3.51001 -4.63867 0
M  V30 2978 N 268.199 3.73616 -3.94857 0
M  V30 2979 H 272.001 1.67103 -2.41773 0
M  V30 2980 H 269.515 0.838806 -1.3906 0
M  V30 2981 H 271.512 3.92189 -1.41398 0
M  V30 2982 H 270.172 3.21197 -0.47569 0
M  V30 2983 H 271.183 3.07109 -4.17019 0
M  V30 2984 H 267.86 3.81379 -1.6987 0
M  V30 2985 H 269.25 3.51059 -5.72894 0
M  V30 2986 N 271.97 1.30982 0.876444 0
M  V30 2987 C 272.933 1.18054 1.96459 0
M  V30 2988 C 273.933 0.109399 1.60427 0
M  V30 2989 O 275.123 0.358173 1.70478 0
M  V30 2990 C 272.255 0.810616 3.31122 0
M  V30 2991 H 273.448 2.14735 2.09354 0
M  V30 2992 H 271.001 1.145 1.06392 0
M  V30 2993 H 271.736 -0.155322 3.23928 0
M  V30 2994 H 271.521 1.58481 3.58645 0
M  V30 2995 H 273.011 0.743876 4.10921 0
M  V30 2996 N 273.449 -1.08991 1.13837 0
M  V30 2997 C 274.696 -1.81258 0.902882 0
M  V30 2998 C 275.024 -1.85936 -0.570803 0
M  V30 2999 O 274.279 -1.3267 -1.43865 0
M  V30 3000 C 274.578 -3.27042 1.44147 0
M  V30 3001 C 274.244 -3.4249 2.93276 0
M  V30 3002 C 272.906 -3.46414 3.33992 0
M  V30 3003 C 275.258 -3.4666 3.892 0
M  V30 3004 C 272.586 -3.52091 4.69307 0
M  V30 3005 C 274.938 -3.53872 5.24364 0
M  V30 3006 C 273.602 -3.56066 5.646 0
M  V30 3007 H 272.872 -0.663268 0.330388 0
M  V30 3008 H 275.519 -1.28368 1.42105 0
M  V30 3009 H 273.824 -3.82599 0.844097 0
M  V30 3010 H 275.521 -3.81499 1.23528 0
M  V30 3011 H 272.111 -3.40124 2.60794 0
M  V30 3012 H 276.295 -3.42865 3.58828 0
M  V30 3013 H 271.551 -3.52079 4.9985 0
M  V30 3014 H 275.725 -3.56043 5.98503 0
M  V30 3015 H 273.352 -3.60218 6.69438 0
M  V30 3016 N 274.927 -0.932562 -1.27047 0
M  V30 3017 C 276.155 -0.592031 -1.98249 0
M  V30 3018 C 276.57 0.831062 -1.69525 0
M  V30 3019 O 275.927 1.55299 -0.958561 0
M  V30 3020 C 275.978 -0.814279 -3.5221 0
M  V30 3021 O 275.699 -2.18139 -3.7993 0
M  V30 3022 C 277.2 -0.483121 -4.4066 0
M  V30 3023 H 274.42 -0.223896 -0.632544 0
M  V30 3024 H 276.964 -1.25091 -1.61779 0
M  V30 3025 H 275.119 -0.20213 -3.86872 0
M  V30 3026 H 275.533 -2.235 -4.74498 0
M  V30 3027 H 277.007 -0.689298 -5.47679 0
M  V30 3028 H 277.484 0.581546 -4.35333 0
M  V30 3029 H 278.09 -1.07362 -4.11526 0
M  V30 3030 N 276.405 1.4127 -0.698611 0
M  V30 3031 C 277.652 2.0118 -0.230865 0
M  V30 3032 C 277.98 1.55338 1.17049 0
M  V30 3033 O 277.235 0.756775 1.80475 0
M  V30 3034 C 277.534 3.56592 -0.240192 0
M  V30 3035 C 277.2 4.21955 -1.58948 0
M  V30 3036 C 275.862 4.39524 -1.95887 0
M  V30 3037 C 278.214 4.58576 -2.47704 0
M  V30 3038 C 275.542 4.90992 -3.2116 0
M  V30 3039 C 277.894 5.11435 -3.72313 0
M  V30 3040 C 276.558 5.27215 -4.0939 0
M  V30 3041 H 275.828 0.736169 -0.0844796 0
M  V30 3042 H 278.475 1.69124 -0.8983 0
M  V30 3043 H 276.78 3.88456 0.510797 0
M  V30 3044 H 278.477 4.00758 0.139296 0
M  V30 3045 H 275.067 4.08657 -1.29219 0
M  V30 3046 H 279.251 4.44654 -2.20445 0
M  V30 3047 H 274.507 5.01393 -3.49878 0
M  V30 3048 H 278.681 5.38752 -4.4127 0
M  V30 3049 H 276.308 5.66859 -5.06533 0
M  V30 3050 N 277.883 0.443576 1.51229 0
M  V30 3051 C 278.813 -0.355142 2.30783 0
M  V30 3052 C 279.794 -1.0154 1.36468 0
M  V30 3053 O 280.979 -1.01785 1.65389 0
M  V30 3054 C 278.109 -1.45312 3.15439 0
M  V30 3055 C 277.063 -0.916002 4.18083 0
M  V30 3056 C 276.389 -2.1102 4.91299 0
M  V30 3057 C 277.689 0.0538602 5.22272 0
M  V30 3058 H 279.383 0.308767 2.97804 0
M  V30 3059 H 276.929 0.149937 1.43217 0
M  V30 3060 H 278.882 -2.01914 3.69876 0
M  V30 3061 H 277.606 -2.14541 2.46252 0
M  V30 3062 H 276.265 -0.372145 3.64706 0
M  V30 3063 H 275.913 -2.78882 4.18609 0
M  V30 3064 H 275.613 -1.75717 5.60712 0
M  V30 3065 H 277.137 -2.68164 5.48562 0
M  V30 3066 H 278.551 -0.422069 5.71744 0
M  V30 3067 H 276.948 0.319776 5.99247 0
M  V30 3068 H 278.018 0.98858 4.74716 0
M  V30 3069 N 279.361 -1.56624 0.175154 0
M  V30 3070 C 280.777 -1.58571 -0.180966 0
M  V30 3071 C 280.977 -1.19065 -1.6256 0
M  V30 3072 O 280.033 -0.904044 -2.35761 0
M  V30 3073 C 281.346 -3.00522 0.103326 0
M  V30 3074 C 282.894 -3.12972 0.0418426 0
M  V30 3075 C 283.369 -4.57022 0.299175 0
M  V30 3076 N 284.86 -4.62541 0.247086 0
M  V30 3077 C 285.595 -5.71857 0.420318 0
M  V30 3078 N 285.091 -6.89717 0.652816 0
M  V30 3079 N 286.884 -5.60972 0.355957 0
M  V30 3080 H 279.035 -1.80589 1.11809 0
M  V30 3081 H 281.298 -0.837178 0.444788 0
M  V30 3082 H 281.004 -3.33916 1.10422 0
M  V30 3083 H 280.878 -3.72344 -0.603299 0
M  V30 3084 H 283.265 -2.79403 -0.949636 0
M  V30 3085 H 283.346 -2.43578 0.781238 0
M  V30 3086 H 282.99 -4.913 1.28788 0
M  V30 3087 H 282.92 -5.24579 -0.460876 0
M  V30 3088 H 285.411 -3.77829 0.0731895 0
M  V30 3089 H 285.724 -7.68911 0.774347 0
M  V30 3090 H 284.069 -6.91572 0.689476 0
M  V30 3091 H 287.26 -4.67773 0.174882 0
M  V30 3092 H 287.433 -6.46111 0.494388 0
M  V30 3093 N 280.839 0.0985539 -1.57292 0
M  V30 3094 C 282.116 0.834155 -1.76921 0
M  V30 3095 C 282.496 1.97101 -0.755928 0
M  V30 3096 O 281.844 2.27474 0.216245 0
M  V30 3097 C 282.054 1.33194 -3.22584 0
M  V30 3098 C 283.402 1.77611 -3.85668 0
M  V30 3099 O 284.426 1.42825 -3.26312 0
M  V30 3100 O 283.285 2.4192 -4.90038 0
M  V30 3101 H 280.379 0.397628 -0.725135 0
M  V30 3102 H 282.925 0.0807044 -1.69508 0
M  V30 3103 H 281.697 0.517248 -3.87866 0
M  V30 3104 H 281.32 2.1475 -3.34616 0
M  V30 3105 N 282.317 1.53212 0.369288 0
M  V30 3106 C 283.728 1.60943 0.946276 0
M  V30 3107 C 284.079 0.47452 1.90375 0
M  V30 3108 O 283.204 -0.399597 2.12679 0
M  V30 3109 C 283.799 2.91715 1.72302 0
M  V30 3110 C 282.358 3.01792 2.24941 0
M  V30 3111 C 281.505 2.56211 1.06072 0
M  V30 3112 H 284.456 1.58007 0.148198 0
M  V30 3113 H 284.477 2.79309 2.58393 0
M  V30 3114 H 283.989 3.74295 1.0259 0
M  V30 3115 H 282.09 2.23791 2.97906 0
M  V30 3116 H 282.203 4.06803 2.53077 0
M  V30 3117 H 280.567 2.10998 1.4266 0
M  V30 3118 H 281.35 3.41206 0.378639 0
M  V30 3119 N 283.795 -0.628877 1.44509 0
M  V30 3120 C 285.041 -1.38863 1.48623 0
M  V30 3121 C 285.396 -1.92038 0.117933 0
M  V30 3122 O 284.689 -1.70853 -0.86716 0
M  V30 3123 C 284.883 -2.56995 2.48371 0
M  V30 3124 C 284.712 -2.15385 3.94765 0
M  V30 3125 C 283.482 -2.02558 4.62924 0
M  V30 3126 C 285.68 -1.74158 4.83915 0
M  V30 3127 N 283.662 -1.54534 5.94132 0
M  V30 3128 C 285.033 -1.37396 6.04584 0
M  V30 3129 C 287.088 -1.61559 4.7096 0
M  V30 3130 C 285.791 -0.892948 7.13736 0
M  V30 3131 C 287.817 -1.14862 5.80139 0
M  V30 3132 C 287.179 -0.790516 6.9995 0
M  V30 3133 H 283.278 -0.502858 0.59888 0
M  V30 3134 H 285.862 -0.72121 1.8085 0
M  V30 3135 H 284.033 -3.21362 2.1813 0
M  V30 3136 H 285.765 -3.23801 2.42766 0
M  V30 3137 H 282.52 -2.23082 4.1777 0
M  V30 3138 H 282.944 -1.32815 6.63844 0
M  V30 3139 H 287.586 -1.87876 3.78764 0
M  V30 3140 H 285.304 -0.617291 8.05739 0
M  V30 3141 H 288.89 -1.05569 5.72142 0
M  V30 3142 H 287.77 -0.434713 7.82994 0
M  V30 3143 N 285.273 -1.31445 -0.869486 0
M  V30 3144 C 286.221 -1.19067 -1.99814 0
M  V30 3145 C 287.215 -0.0988569 -1.69111 0
M  V30 3146 O 288.421 -0.260781 -1.78101 0
M  V30 3147 H 284.796 -0.368677 -0.655425 0
M  V30 3148 H 286.767 -2.14555 -2.07385 0
M  V30 3149 C 285.516 -0.915323 -3.35436 0
M  V30 3150 H 284.839 -1.74759 -3.59582 0
M  V30 3151 H 286.279 -0.868895 -4.15001 0
M  V30 3152 C 284.738 0.381928 -3.34728 0
M  V30 3153 O 285.268 1.39857 -3.76567 0
M  V30 3154 N 283.474 0.398633 -2.87853 0
M  V30 3155 H 283.021 -0.429186 -2.54 0
M  V30 3156 H 282.979 1.26651 -2.87762 0
M  V30 3157 N 286.751 1.08385 -1.14413 0
M  V30 3158 C 287.997 1.81212 -0.923793 0
M  V30 3159 C 288.352 1.84555 0.543814 0
M  V30 3160 O 287.645 1.31056 1.39767 0
M  V30 3161 C 287.839 3.26273 -1.45879 0
M  V30 3162 C 287.668 3.37063 -2.97689 0
M  V30 3163 C 286.438 3.4824 -3.66138 0
M  V30 3164 C 288.636 3.28698 -3.95553 0
M  V30 3165 N 286.618 3.47824 -5.05858 0
M  V30 3166 C 287.989 3.35276 -5.21527 0
M  V30 3167 C 290.044 3.12437 -3.8767 0
M  V30 3168 C 288.747 3.27267 -6.40538 0
M  V30 3169 C 290.773 3.05757 -5.06228 0
M  V30 3170 C 290.135 3.12938 -6.3107 0
M  V30 3171 H 286.234 0.6769 -0.391574 0
M  V30 3172 H 288.818 1.29455 -1.45429 0
M  V30 3173 H 286.989 3.76474 -0.95507 0
M  V30 3174 H 288.721 3.87165 -1.17835 0
M  V30 3175 H 285.476 3.52141 -3.16692 0
M  V30 3176 H 285.9 3.51171 -5.78798 0
M  V30 3177 H 290.542 3.05747 -2.92025 0
M  V30 3178 H 288.26 3.32718 -7.36427 0
M  V30 3179 H 291.846 2.94295 -5.01878 0
M  V30 3180 H 290.726 3.078 -7.21269 0
M  V30 3181 N 288.23 0.939286 1.26551 0
M  V30 3182 C 289.16 0.465044 2.28822 0
M  V30 3183 C 290.141 -0.480692 1.63167 0
M  V30 3184 O 291.326 -0.382955 1.90387 0
M  V30 3185 C 288.456 -0.27234 3.46231 0
M  V30 3186 C 287.41 0.58666 4.2396 0
M  V30 3187 C 286.736 -0.280573 5.33963 0
M  V30 3188 C 288.036 1.85704 4.88171 0
M  V30 3189 H 289.73 1.31979 2.68741 0
M  V30 3190 H 287.276 0.636061 1.29191 0
M  V30 3191 H 289.229 -0.615133 4.16886 0
M  V30 3192 H 287.953 -1.16121 3.0526 0
M  V30 3193 H 286.612 0.91232 3.55067 0
M  V30 3194 H 286.26 -1.16874 4.89234 0
M  V30 3195 H 285.96 0.29076 5.8688 0
M  V30 3196 H 287.484 -0.618678 6.07458 0
M  V30 3197 H 288.898 1.58161 5.51052 0
M  V30 3198 H 287.295 2.37279 5.51197 0
M  V30 3199 H 288.365 2.56957 4.11219 0
M  V30 3200 N 289.708 -1.40897 0.706093 0
M  V30 3201 C 290.985 -1.94868 0.169099 0
M  V30 3202 C 291.365 -1.64485 -1.32318 0
M  V30 3203 O 290.713 -0.95744 -2.07474 0
M  V30 3204 C 290.923 -3.45798 0.471654 0
M  V30 3205 C 292.271 -4.22663 0.405127 0
M  V30 3206 O 293.295 -3.53865 0.407168 0
M  V30 3207 O 292.154 -5.45216 0.374383 0
M  V30 3208 H 289.248 -0.82673 0.0211352 0
M  V30 3209 H 291.794 -1.50558 0.782976 0
M  V30 3210 H 290.566 -3.61235 1.50416 0
M  V30 3211 H 290.189 -3.97225 -0.172666 0
M  V30 3212 N 291.186 -0.45159 -1.50991 0
M  V30 3213 C 292.433 0.110074 -2.02201 0
M  V30 3214 C 292.761 1.4146 -1.33489 0
M  V30 3215 O 292.016 1.90617 -0.443125 0
M  V30 3216 C 292.315 0.361728 -3.55565 0
M  V30 3217 C 291.981 -0.858717 -4.42648 0
M  V30 3218 C 290.643 -1.19338 -4.66167 0
M  V30 3219 C 292.995 -1.67221 -4.93646 0
M  V30 3220 C 290.323 -2.34195 -5.37931 0
M  V30 3221 C 292.675 -2.8119 -5.6667 0
M  V30 3222 C 291.339 -3.15094 -5.88449 0
M  V30 3223 H 290.609 0.040279 -0.739904 0
M  V30 3224 H 293.256 -0.601696 -1.81802 0
M  V30 3225 H 291.561 1.15554 -3.74372 0
M  V30 3226 H 293.258 0.80996 -3.92735 0
M  V30 3227 H 289.848 -0.58796 -4.24548 0
M  V30 3228 H 294.032 -1.42686 -4.75347 0
M  V30 3229 H 289.288 -2.6076 -5.53005 0
M  V30 3230 H 293.462 -3.44585 -6.05173 0
M  V30 3231 H 291.089 -4.04204 -6.43835 0
M  V30 3232 N 292.664 1.56529 -0.183458 0
M  V30 3233 C 293.889 2.02064 0.467428 0
M  V30 3234 C 294.314 1.06282 1.55196 0
M  V30 3235 O 293.672 0.0443565 1.81246 0
M  V30 3236 C 293.72 3.46122 1.01153 0
M  V30 3237 O 292.824 3.53437 2.12499 0
M  V30 3238 H 292.165 0.654726 0.110588 0
M  V30 3239 H 294.695 2.02521 -0.290917 0
M  V30 3240 H 294.705 3.85676 1.33108 0
M  V30 3241 H 293.38 4.15331 0.217533 0
M  V30 3242 H 291.957 3.2575 1.81497 0
M  V30 3243 N 294.142 -0.090211 1.57342 0
M  V30 3244 C 295.388 -0.793982 1.86611 0
M  V30 3245 C 295.721 -1.78142 0.773252 0
M  V30 3246 O 294.996 -1.93271 -0.218304 0
M  V30 3247 C 295.279 -1.51839 3.26523 0
M  V30 3248 C 295.132 -0.548609 4.46442 0
M  V30 3249 C 296.451 -2.46779 3.64401 0
M  V30 3250 H 293.57 -0.287186 0.678744 0
M  V30 3251 H 296.212 -0.0575076 1.89913 0
M  V30 3252 H 294.362 -2.14617 3.23839 0
M  V30 3253 H 296.034 0.0725513 4.61243 0
M  V30 3254 H 294.277 0.137614 4.33582 0
M  V30 3255 H 294.948 -1.09271 5.41076 0
M  V30 3256 H 297.424 -1.94089 3.68061 0
M  V30 3257 H 296.3 -2.94479 4.63221 0
M  V30 3258 H 296.561 -3.30758 2.93346 0
M  V30 3259 N 295.62 -1.53406 -0.361157 0
M  V30 3260 C 296.869 -1.69022 -1.10066 0
M  V30 3261 C 297.182 -0.450838 -1.90333 0
M  V30 3262 O 298.388 -0.487617 -2.67085 0
M  V30 3263 C 296.844 -2.98812 -2.00598 0
M  V30 3264 C 296.452 -4.30027 -1.25621 0
M  V30 3265 C 298.196 -3.23795 -2.74513 0
M  V30 3266 C 296.103 -5.50903 -2.1508 0
M  V30 3267 H 295.033 -0.629776 -0.414606 0
M  V30 3268 H 297.684 -1.79907 -0.361348 0
M  V30 3269 H 296.066 -2.8174 -2.78278 0
M  V30 3270 H 297.24 -4.57745 -0.529739 0
M  V30 3271 H 295.555 -4.11522 -0.635496 0
M  V30 3272 H 298.152 -4.11289 -3.41681 0
M  V30 3273 H 298.495 -2.40045 -3.40123 0
M  V30 3274 H 299.028 -3.41561 -2.03914 0
M  V30 3275 H 295.767 -6.37143 -1.54041 0
M  V30 3276 H 295.287 -5.27459 -2.85565 0
M  V30 3277 H 296.966 -5.85865 -2.74538 0
M  V30 3278 N 297.098 0.621204 -1.44841 0
M  V30 3279 C 298.347 1.37658 -1.47422 0
M  V30 3280 C 298.66 1.95264 -0.114629 0
M  V30 3281 O 299.866 2.71494 -0.0180199 0
M  V30 3282 C 298.322 2.49285 -2.59586 0
M  V30 3283 C 297.93 1.98149 -4.01797 0
M  V30 3284 C 299.674 3.26409 -2.71399 0
M  V30 3285 C 297.581 3.07178 -5.05367 0
M  V30 3286 H 296.511 0.517344 -0.548517 0
M  V30 3287 H 299.162 0.667257 -1.70938 0
M  V30 3288 H 297.544 3.22839 -2.29328 0
M  V30 3289 H 298.718 1.31395 -4.41669 0
M  V30 3290 H 297.033 1.33812 -3.94314 0
M  V30 3291 H 299.63 4.07706 -3.45948 0
M  V30 3292 H 299.973 3.76535 -1.77559 0
M  V30 3293 H 300.506 2.5995 -3.01116 0
M  V30 3294 H 297.245 2.61985 -6.00869 0
M  V30 3295 H 296.765 3.72542 -4.70077 0
M  V30 3296 H 298.444 3.71789 -5.29511 0
M  V30 3297 N 298.576 1.31904 0.862503 0
M  V30 3298 C 299.509 1.14514 1.97388 0
M  V30 3299 C 300.487 0.0466493 1.62533 0
M  V30 3300 O 301.671 0.204484 1.87388 0
M  V30 3301 C 298.798 0.751347 3.30261 0
M  V30 3302 C 297.844 1.85395 3.84098 0
M  V30 3303 S 298.677 3.46081 4.08642 0
M  V30 3304 C 299.833 3.08655 5.44502 0
M  V30 3305 H 300.066 2.08597 2.11836 0
M  V30 3306 H 297.599 1.16475 1.01356 0
M  V30 3307 H 299.557 0.530901 4.07052 0
M  V30 3308 H 298.218 -0.170493 3.13637 0
M  V30 3309 H 297.411 1.53122 4.80177 0
M  V30 3310 H 297.013 2.02984 3.14123 0
M  V30 3311 H 299.305 2.58012 6.26447 0
M  V30 3312 H 300.248 4.03726 5.81731 0
M  V30 3313 H 300.656 2.45891 5.08132 0
M  V30 3314 N 300.054 -1.07777 1.14986 0
M  V30 3315 C 301.017 -2.13041 0.845358 0
M  V30 3316 C 302.017 -1.60071 -0.152931 0
M  V30 3317 O 303.207 -1.74033 0.0761879 0
M  V30 3318 C 300.339 -3.39896 0.261383 0
M  V30 3319 H 301.532 -2.41485 1.77834 0
M  V30 3320 H 299.085 -1.23595 0.956757 0
M  V30 3321 H 299.82 -3.17091 -0.68 0
M  V30 3322 H 299.605 -3.79642 0.980514 0
M  V30 3323 H 301.095 -4.17548 0.0657687 0
M  V30 3324 N 301.532 -0.945985 -1.26051 0
M  V30 3325 C 302.762 -0.612136 -1.97323 0
M  V30 3326 C 303.17 0.818171 -1.70595 0
M  V30 3327 O 302.513 1.55777 -0.973613 0
M  V30 3328 C 302.575 -0.780347 -3.50929 0
M  V30 3329 C 302.239 -2.18619 -4.01317 0
M  V30 3330 C 303.236 -3.16209 -4.12683 0
M  V30 3331 C 300.921 -2.50805 -4.35203 0
M  V30 3332 C 302.915 -4.44085 -4.57238 0
M  V30 3333 C 300.602 -3.78912 -4.79446 0
M  V30 3334 C 301.6 -4.75365 -4.90425 0
M  V30 3335 O 301.288 -6.01191 -5.3369 0
M  V30 3336 H 301.02 -0.229134 -0.635982 0
M  V30 3337 H 303.574 -1.27036 -1.61404 0
M  V30 3338 H 301.804 -0.0649864 -3.86645 0
M  V30 3339 H 303.493 -0.448842 -4.03411 0
M  V30 3340 H 304.259 -2.92668 -3.86744 0
M  V30 3341 H 300.138 -1.76463 -4.2589 0
M  V30 3342 H 303.682 -5.19373 -4.65723 0
M  V30 3343 H 299.579 -4.02265 -5.0483 0
M  V30 3344 H 300.347 -6.04442 -5.51899 0
M  V30 3345 N 303.011 1.40521 -0.713556 0
M  V30 3346 C 304.239 2.05237 -0.261775 0
M  V30 3347 C 304.654 1.53755 1.09567 0
M  V30 3348 O 304.011 0.693268 1.6882 0
M  V30 3349 C 304.062 3.60763 -0.230706 0
M  V30 3350 O 303.783 4.10345 -1.53455 0
M  V30 3351 C 305.284 4.42651 0.239874 0
M  V30 3352 H 302.504 0.660533 -0.118057 0
M  V30 3353 H 305.048 1.79967 -0.971192 0
M  V30 3354 H 303.203 3.8501 0.429661 0
M  V30 3355 H 303.617 5.04526 -1.43366 0
M  V30 3356 H 305.091 5.51599 0.210468 0
M  V30 3357 H 305.568 4.20082 1.28171 0
M  V30 3358 H 306.174 4.23507 -0.390142 0
M  V30 3359 N 304.489 0.459591 1.5075 0
M  V30 3360 C 305.717 -0.0973749 2.06671 0
M  V30 3361 C 306.132 -1.34524 1.32472 0
M  V30 3362 O 305.489 -1.7827 0.390634 0
M  V30 3363 C 305.54 -0.39714 3.59312 0
M  V30 3364 O 305.261 0.801214 4.30711 0
M  V30 3365 C 306.762 -1.00234 4.31819 0
M  V30 3366 H 303.982 0.00195854 0.670997 0
M  V30 3367 H 306.526 0.645072 1.94059 0
M  V30 3368 H 304.681 -1.08951 3.71764 0
M  V30 3369 H 305.095 0.538857 5.21725 0
M  V30 3370 H 306.569 -1.16193 5.39632 0
M  V30 3371 H 307.046 -1.98939 3.91561 0
M  V30 3372 H 307.652 -0.348699 4.23868 0
M  V30 3373 N 305.967 -1.56429 0.191757 0
M  V30 3374 C 306.877 -2.22541 -0.742481 0
M  V30 3375 C 307.893 -1.22342 -1.23727 0
M  V30 3376 O 309.069 -1.55069 -1.28513 0
M  V30 3377 C 306.134 -2.8692 -1.94623 0
M  V30 3378 C 305.195 -4.02378 -1.49633 0
M  V30 3379 C 304.428 -4.63678 -2.6427 0
M  V30 3380 O 304.651 -4.23895 -3.81666 0
M  V30 3381 O 303.585 -5.53202 -2.37174 0
M  V30 3382 H 307.411 -3.02977 -0.209462 0
M  V30 3383 H 304.996 -1.49353 -0.0373832 0
M  V30 3384 H 306.878 -3.27663 -2.64982 0
M  V30 3385 H 305.553 -2.09466 -2.46791 0
M  V30 3386 H 304.46 -3.66265 -0.761636 0
M  V30 3387 H 305.793 -4.81487 -1.02134 0
M  V30 3388 N 307.445 0.0818655 -1.57387 0
M  V30 3389 C 308.692 0.782914 -1.86753 0
M  V30 3390 C 309.02 1.78082 -0.782118 0
M  V30 3391 O 308.275 1.94426 0.22295 0
M  V30 3392 C 308.574 1.53513 -3.22752 0
M  V30 3393 C 308.24 0.678134 -4.45771 0
M  V30 3394 C 306.902 0.441929 -4.79166 0
M  V30 3395 C 309.254 0.0832243 -5.21134 0
M  V30 3396 C 306.582 -0.398833 -5.85343 0
M  V30 3397 C 308.934 -0.744935 -6.28199 0
M  V30 3398 C 307.598 -0.991107 -6.60101 0
M  V30 3399 H 306.868 0.286489 -0.683378 0
M  V30 3400 H 309.515 0.0439808 -1.91449 0
M  V30 3401 H 307.82 2.34599 -3.138 0
M  V30 3402 H 309.517 2.08218 -3.42705 0
M  V30 3403 H 306.107 0.872357 -4.19628 0
M  V30 3404 H 310.291 0.252847 -4.95655 0
M  V30 3405 H 305.547 -0.598405 -6.08465 0
M  V30 3406 H 309.721 -1.21271 -6.8576 0
M  V30 3407 H 307.348 -1.64437 -7.42202 0
M  V30 3408 N 308.923 1.53595 0.353017 0
M  V30 3409 C 310.169 1.70638 1.09593 0
M  V30 3410 C 310.502 0.463286 1.88593 0
M  V30 3411 O 309.777 -0.539597 1.86865 0
M  V30 3412 C 310.06 2.96406 2.04489 0
M  V30 3413 C 309.913 4.30901 1.29014 0
M  V30 3414 C 311.232 3.17812 3.0444 0
M  V30 3415 H 308.351 0.620913 0.397034 0
M  V30 3416 H 310.993 1.86254 0.375446 0
M  V30 3417 H 309.143 2.83223 2.65927 0
M  V30 3418 H 310.815 4.55917 0.702638 0
M  V30 3419 H 309.058 4.29741 0.592071 0
M  V30 3420 H 309.729 5.1506 1.98537 0
M  V30 3421 H 312.205 3.30263 2.53112 0
M  V30 3422 H 311.081 4.07223 3.6805 0
M  V30 3423 H 311.342 2.33669 3.75301 0
M  V30 3424 N 310.401 -0.613514 1.45168 0
M  V30 3425 C 311.678 -1.37263 1.39349 0
M  V30 3426 C 312.058 -2.11012 0.0610848 0
M  V30 3427 O 311.406 -2.07502 -0.956825 0
M  V30 3428 C 311.616 -2.3244 2.60332 0
M  V30 3429 C 312.964 -2.9523 3.05163 0
M  V30 3430 O 313.988 -2.42762 2.60663 0
M  V30 3431 O 312.847 -3.90454 3.82372 0
M  V30 3432 H 309.941 -0.615188 0.552696 0
M  V30 3433 H 312.487 -0.637097 1.57287 0
M  V30 3434 H 311.259 -1.77164 3.48896 0
M  V30 3435 H 310.882 -3.13383 2.44698 0
M  V30 3436 N 311.879 -1.3236 -0.855495 0
M  V30 3437 C 312.809 -1.23833 -1.97958 0
M  V30 3438 C 313.79 -0.122361 -1.69659 0
M  V30 3439 O 314.975 -0.30939 -1.9172 0
M  V30 3440 C 312.105 -0.959772 -3.33775 0
M  V30 3441 C 311.059 -2.03689 -3.76424 0
M  V30 3442 C 310.385 -1.61075 -5.09862 0
M  V30 3443 C 311.685 -3.4518 -3.9198 0
M  V30 3444 H 313.379 -2.1788 -2.0535 0
M  V30 3445 H 310.925 -1.04891 -0.986605 0
M  V30 3446 H 312.878 -0.886678 -4.11966 0
M  V30 3447 H 311.602 0.0163404 -3.26596 0
M  V30 3448 H 310.261 -2.10012 -3.00484 0
M  V30 3449 H 309.909 -0.622107 -4.99138 0
M  V30 3450 H 309.609 -2.33143 -5.39368 0
M  V30 3451 H 311.133 -1.55201 -5.90546 0
M  V30 3452 H 312.547 -3.4145 -4.60526 0
M  V30 3453 H 310.944 -4.1559 -4.32903 0
M  V30 3454 H 312.014 -3.84903 -2.94919 0
M  V30 3455 N 313.357 1.07166 -1.15556 0
M  V30 3456 C 314.605 1.79443 -0.929764 0
M  V30 3457 C 314.926 1.87246 0.544414 0
M  V30 3458 O 314.196 1.37473 1.39564 0
M  V30 3459 H 312.776 0.664625 -0.341003 0
M  V30 3460 H 315.438 1.29499 -1.45657 0
M  V30 3461 H 314.534 2.81832 -1.34079 0
M  V30 3462 N 314.835 0.952656 1.25548 0
M  V30 3463 C 315.783 0.462354 2.27958 0
M  V30 3464 C 316.777 -0.46634 1.62855 0
M  V30 3465 O 317.983 -0.343287 1.76696 0
M  V30 3466 H 314.358 0.13101 0.7405 0
M  V30 3467 H 316.329 1.33839 2.66702 0
M  V30 3468 C 315.078 -0.24628 3.46827 0
M  V30 3469 H 314.401 0.459192 3.97154 0
M  V30 3470 H 315.841 -0.553393 4.20373 0
M  V30 3471 C 314.3 -1.4681 3.0323 0
M  V30 3472 O 314.83 -2.56591 3.09069 0
M  V30 3473 N 313.036 -1.32874 2.58443 0
M  V30 3474 H 312.583 -0.435536 2.53891 0
M  V30 3475 H 312.541 -2.14742 2.29637 0
M  V30 3476 N 316.313 -1.40141 0.720998 0
M  V30 3477 C 317.559 -2.01084 0.263231 0
M  V30 3478 C 317.892 -1.57052 -1.14229 0
M  V30 3479 O 317.167 -0.793027 -1.77599 0
M  V30 3480 C 317.45 -3.58401 0.349344 0
M  V30 3481 C 317.303 -4.12491 1.79363 0
M  V30 3482 C 318.622 -4.39231 -0.276351 0
M  V30 3483 H 315.741 -0.730572 0.0971228 0
M  V30 3484 H 318.383 -1.66543 0.914518 0
M  V30 3485 H 316.533 -3.87958 -0.205165 0
M  V30 3486 H 318.205 -3.93711 2.40394 0
M  V30 3487 H 316.448 -3.66576 2.31958 0
M  V30 3488 H 317.119 -5.21646 1.80524 0
M  V30 3489 H 319.595 -4.15637 0.196184 0
M  V30 3490 H 318.471 -5.48586 -0.185681 0
M  V30 3491 H 318.732 -4.20643 -1.36059 0
M  V30 3492 N 317.792 -0.46758 -1.50504 0
M  V30 3493 C 319.017 0.0886943 -2.0721 0
M  V30 3494 C 319.442 1.33057 -1.32956 0
M  V30 3495 O 318.8 1.77354 -0.376197 0
M  V30 3496 C 318.848 0.359202 -3.58806 0
M  V30 3497 O 317.952 1.44034 -3.8643 0
M  V30 3498 H 317.293 -0.0114349 -0.663902 0
M  V30 3499 H 319.823 -0.657613 -1.93744 0
M  V30 3500 H 319.833 0.600742 -4.03553 0
M  V30 3501 H 318.508 -0.548311 -4.1227 0
M  V30 3502 H 317.085 1.18638 -3.53524 0
M  V30 3503 N 319.27 1.56325 -0.20005 0
M  V30 3504 C 320.233 2.18084 0.705132 0
M  V30 3505 C 321.233 1.13666 1.1374 0
M  V30 3506 O 322.423 1.39023 1.04968 0
M  V30 3507 C 319.555 2.78689 1.96329 0
M  V30 3508 H 320.748 2.99435 0.167023 0
M  V30 3509 H 318.301 1.56221 0.0495725 0
M  V30 3510 H 319.036 2.0115 2.5438 0
M  V30 3511 H 318.821 3.55133 1.66202 0
M  V30 3512 H 320.311 3.26096 2.60866 0
M  V30 3513 N 320.748 -0.0735177 1.57428 0
M  V30 3514 C 321.678 -1.0879 2.06608 0
M  V30 3515 C 322.659 -1.40473 0.959237 0
M  V30 3516 O 323.844 -1.5013 1.23185 0
M  V30 3517 C 320.974 -2.40183 2.50857 0
M  V30 3518 C 319.928 -2.22858 3.65402 0
M  V30 3519 C 319.254 -3.59619 3.957 0
M  V30 3520 C 320.554 -1.65123 4.95511 0
M  V30 3521 H 322.248 -0.678673 2.91607 0
M  V30 3522 H 319.794 -0.325013 1.40284 0
M  V30 3523 H 321.747 -3.11437 2.83874 0
M  V30 3524 H 320.471 -2.83083 1.62885 0
M  V30 3525 H 319.13 -1.54045 3.32664 0
M  V30 3526 H 318.778 -4.00086 3.04861 0
M  V30 3527 H 318.478 -3.48866 4.72828 0
M  V30 3528 H 320.002 -4.32306 4.31212 0
M  V30 3529 H 321.416 -2.26241 5.26771 0
M  V30 3530 H 319.813 -1.65071 5.7695 0
M  V30 3531 H 320.883 -0.612559 4.81015 0
M  V30 3532 N 322.226 -1.5378 -0.344866 0
M  V30 3533 C 323.642 -1.44015 -0.687888 0
M  V30 3534 C 323.842 -0.595834 -1.92489 0
M  V30 3535 O 322.898 -0.0863064 -2.52352 0
M  V30 3536 C 324.211 -2.87481 -0.881758 0
M  V30 3537 C 325.759 -2.97247 -0.980459 0
M  V30 3538 C 326.234 -4.41819 -1.20665 0
M  V30 3539 N 327.725 -4.45339 -1.27389 0
M  V30 3540 C 328.46 -5.54333 -1.46639 0
M  V30 3541 N 327.956 -6.73335 -1.63071 0
M  V30 3542 N 329.749 -5.41944 -1.49176 0
M  V30 3543 H 321.9 -2.07169 0.468475 0
M  V30 3544 H 324.163 -0.93643 0.147655 0
M  V30 3545 H 323.869 -3.51672 -0.0443444 0
M  V30 3546 H 323.743 -3.32352 -1.78388 0
M  V30 3547 H 326.13 -2.33197 -1.8084 0
M  V30 3548 H 326.211 -2.5574 -0.0552713 0
M  V30 3549 H 325.855 -5.06449 -0.383652 0
M  V30 3550 H 325.785 -4.80917 -2.14539 0
M  V30 3551 H 328.276 -3.59585 -1.1622 0
M  V30 3552 H 328.589 -7.52165 -1.77391 0
M  V30 3553 H 326.934 -6.76282 -1.60209 0
M  V30 3554 H 330.125 -4.47932 -1.3592 0
M  V30 3555 H 330.298 -6.26946 -1.63837 0
M  V30 3556 N 323.704 0.605807 -1.45491 0
M  V30 3557 C 324.932 1.39136 -1.5313 0
M  V30 3558 C 325.347 1.88082 -0.164507 0
M  V30 3559 O 324.704 1.62316 0.834247 0
M  V30 3560 C 324.755 2.59463 -2.51716 0
M  V30 3561 O 324.476 2.12551 -3.83084 0
M  V30 3562 C 325.977 3.52301 -2.6907 0
M  V30 3563 H 323.197 0.425849 -0.51855 0
M  V30 3564 H 325.741 0.73865 -1.90694 0
M  V30 3565 H 323.896 3.20772 -2.17219 0
M  V30 3566 H 324.31 2.90744 -4.36541 0
M  V30 3567 H 325.784 4.33271 -3.42024 0
M  V30 3568 H 326.261 4.02757 -1.75167 0
M  V30 3569 H 326.867 2.96845 -3.04571 0
M  V30 3570 N 325.182 1.32811 0.848464 0
M  V30 3571 C 326.429 1.23724 1.60308 0
M  V30 3572 C 326.757 -0.1994 1.93475 0
M  V30 3573 O 326.012 -1.15406 1.5805 0
M  V30 3574 C 326.311 2.04831 2.92881 0
M  V30 3575 C 325.977 3.54125 2.79117 0
M  V30 3576 C 324.639 3.94829 2.7507 0
M  V30 3577 C 326.991 4.49036 2.64606 0
M  V30 3578 C 324.319 5.28675 2.544 0
M  V30 3579 C 326.671 5.83033 2.4547 0
M  V30 3580 C 325.335 6.22931 2.39819 0
M  V30 3581 H 324.605 0.452737 0.586609 0
M  V30 3582 H 327.252 1.64301 0.983743 0
M  V30 3583 H 325.557 1.57001 3.58968 0
M  V30 3584 H 327.254 1.95164 3.50303 0
M  V30 3585 H 323.844 3.21801 2.83094 0
M  V30 3586 H 328.028 4.18505 2.66772 0
M  V30 3587 H 323.284 5.58637 2.48465 0
M  V30 3588 H 327.458 6.56186 2.33222 0
M  V30 3589 H 325.085 7.26584 2.23562 0
M  V30 3590 N 326.66 -1.06551 1.16123 0
M  V30 3591 C 328.076 -1.3142 0.905585 0
M  V30 3592 C 328.276 -1.96571 -0.442964 0
M  V30 3593 O 327.332 -2.23068 -1.18308 0
M  V30 3594 C 328.645 -2.19741 2.05267 0
M  V30 3595 C 330.193 -2.33165 2.08813 0
M  V30 3596 C 330.668 -3.24838 3.22868 0
M  V30 3597 N 332.159 -3.32421 3.22568 0
M  V30 3598 C 332.894 -4.0344 4.0746 0
M  V30 3599 N 332.39 -4.77003 5.02434 0
M  V30 3600 N 334.183 -3.99464 3.95456 0
M  V30 3601 H 326.334 -0.626548 2.02949 0
M  V30 3602 H 328.597 -0.338777 0.8854 0
M  V30 3603 H 328.303 -1.79142 3.02657 0
M  V30 3604 H 328.177 -3.20313 1.99198 0
M  V30 3605 H 330.564 -2.73013 1.12018 0
M  V30 3606 H 330.645 -1.3227 2.18948 0
M  V30 3607 H 330.289 -2.85708 4.19921 0
M  V30 3608 H 330.219 -4.25707 3.0997 0
M  V30 3609 H 332.71 -2.79994 2.53795 0
M  V30 3610 H 333.023 -5.28712 5.63634 0
M  V30 3611 H 331.368 -4.75992 5.06415 0
M  V30 3612 H 334.559 -3.4111 3.20564 0
M  V30 3613 H 334.732 -4.54544 4.61837 0
M  V30 3614 N 328.138 -0.959301 -1.25041 0
M  V30 3615 C 329.384 -0.617525 -1.9317 0
M  V30 3616 C 329.717 0.843981 -1.74902 0
M  V30 3617 O 328.992 1.60615 -1.09696 0
M  V30 3618 C 329.275 -0.982736 -3.46431 0
M  V30 3619 C 329.128 -2.50032 -3.73904 0
M  V30 3620 C 330.447 -0.511176 -4.37121 0
M  V30 3621 H 327.566 -0.22582 -0.701552 0
M  V30 3622 H 330.208 -1.19679 -1.4757 0
M  V30 3623 H 328.358 -0.489806 -3.854 0
M  V30 3624 H 330.03 -3.06737 -3.44544 0
M  V30 3625 H 328.273 -2.93598 -3.19348 0
M  V30 3626 H 328.944 -2.70635 -4.81103 0
M  V30 3627 H 331.42 -0.934075 -4.0548 0
M  V30 3628 H 330.296 -0.795361 -5.43107 0
M  V30 3629 H 330.557 0.588834 -4.38161 0
M  V30 3630 N 329.616 1.39756 -0.72842 0
M  V30 3631 C 330.546 2.33289 -0.0991354 0
M  V30 3632 C 331.527 1.53568 0.731489 0
M  V30 3633 O 332.712 1.81987 0.677807 0
M  V30 3634 C 329.842 3.3763 0.813834 0
M  V30 3635 C 328.796 4.2791 0.0878663 0
M  V30 3636 C 328.122 5.22894 1.11741 0
M  V30 3637 C 329.422 5.11314 -1.06563 0
M  V30 3638 H 331.116 2.86163 -0.880408 0
M  V30 3639 H 328.662 1.37591 -0.424819 0
M  V30 3640 H 330.615 4.0201 1.26355 0
M  V30 3641 H 329.339 2.83181 1.62715 0
M  V30 3642 H 327.998 3.65 -0.342159 0
M  V30 3643 H 327.646 4.64744 1.92412 0
M  V30 3644 H 327.346 5.84143 0.636477 0
M  V30 3645 H 328.87 5.90151 1.56697 0
M  V30 3646 H 330.284 5.69076 -0.694671 0
M  V30 3647 H 328.681 5.81671 -1.47577 0
M  V30 3648 H 329.751 4.46534 -1.89038 0
M  V30 3649 N 331.094 0.475555 1.50254 0
M  V30 3650 C 332.51 0.12997 1.5907 0
M  V30 3651 C 332.71 -1.36385 1.48328 0
M  V30 3652 O 331.766 -2.13754 1.34407 0
M  V30 3653 C 333.079 0.684139 2.92814 0
M  V30 3654 C 334.627 0.647965 3.0622 0
M  V30 3655 C 335.102 1.17975 4.42545 0
M  V30 3656 N 336.593 1.13936 4.48969 0
M  V30 3657 C 337.328 1.52129 5.52851 0
M  V30 3658 N 336.824 1.97793 6.63965 0
M  V30 3659 N 338.617 1.43704 5.4342 0
M  V30 3660 H 330.768 1.44706 1.55479 0
M  V30 3661 H 333.031 0.598691 0.735033 0
M  V30 3662 H 332.737 1.73079 3.06164 0
M  V30 3663 H 332.611 0.130204 3.76975 0
M  V30 3664 H 334.998 -0.38979 2.92514 0
M  V30 3665 H 335.079 1.23876 2.23805 0
M  V30 3666 H 334.723 2.21616 4.57 0
M  V30 3667 H 334.653 0.565138 5.23559 0
M  V30 3668 H 337.144 0.804488 3.69238 0
M  V30 3669 H 337.457 2.25072 7.39299 0
M  V30 3670 H 335.802 2.01749 6.65073 0
M  V30 3671 H 338.993 1.07867 4.55502 0
M  V30 3672 H 339.166 1.73794 6.24259 0
M  V30 3673 N 332.573 -1.56217 0.208337 0
M  V30 3674 C 333.536 -2.18455 -0.693557 0
M  V30 3675 C 334.536 -1.14268 -1.13135 0
M  V30 3676 O 335.726 -1.39577 -1.0423 0
M  V30 3677 C 332.858 -2.79727 -1.94848 0
M  V30 3678 H 334.051 -2.99519 -0.15114 0
M  V30 3679 H 331.604 -1.56245 -0.041287 0
M  V30 3680 H 332.339 -2.02497 -2.53309 0
M  V30 3681 H 332.124 -3.56009 -1.64316 0
M  V30 3682 H 333.614 -3.27475 -2.59133 0
M  V30 3683 N 334.051 0.0651679 -1.57465 0
M  V30 3684 C 334.981 1.07693 -2.07182 0
M  V30 3685 C 335.962 1.39962 -0.966673 0
M  V30 3686 O 337.147 1.49475 -1.2398 0
M  V30 3687 C 334.277 2.3885 -2.52127 0
M  V30 3688 C 333.231 2.20917 -3.66579 0
M  V30 3689 C 332.557 3.57515 -3.97601 0
M  V30 3690 C 333.857 1.62493 -4.9638 0
M  V30 3691 H 335.551 0.663199 -2.91962 0
M  V30 3692 H 333.097 0.317569 -1.40455 0
M  V30 3693 H 335.05 3.09928 -2.85522 0
M  V30 3694 H 333.774 2.82215 -1.64384 0
M  V30 3695 H 332.433 1.52279 -3.33477 0
M  V30 3696 H 332.081 3.98463 -3.06979 0
M  V30 3697 H 331.781 3.46353 -4.74672 0
M  V30 3698 H 333.305 4.30013 -4.33499 0
M  V30 3699 H 334.719 2.23445 -5.27963 0
M  V30 3700 H 333.116 1.62009 -5.77818 0
M  V30 3701 H 334.186 0.587041 -4.81333 0
M  V30 3702 N 335.529 1.53961 0.336706 0
M  V30 3703 C 336.476 1.82428 1.41381 0
M  V30 3704 C 337.446 0.670444 1.51968 0
M  V30 3705 O 338.631 0.915565 1.67398 0
M  V30 3706 C 335.771 2.04564 2.77934 0
M  V30 3707 C 334.884 3.32267 2.76084 0
M  V30 3708 C 334.019 3.44434 4.04399 0
M  V30 3709 C 333.058 4.66061 3.96804 0
M  V30 3710 N 332.195 4.75224 5.16823 0
M  V30 3711 H 337.035 2.74324 1.16405 0
M  V30 3712 H 334.572 1.35869 0.563752 0
M  V30 3713 H 336.53 2.15388 3.57301 0
M  V30 3714 H 335.16 1.15974 3.01247 0
M  V30 3715 H 334.212 3.3025 1.88784 0
M  V30 3716 H 335.524 4.21733 2.66351 0
M  V30 3717 H 334.678 3.54728 4.92192 0
M  V30 3718 H 333.417 2.53037 4.16921 0
M  V30 3719 H 332.422 4.55838 3.07396 0
M  V30 3720 H 333.647 5.58829 3.85858 0
M  V30 3721 H 331.593 3.86739 5.29876 0
M  V30 3722 H 331.51 5.58636 5.09374 0
M  V30 3723 H 332.778 4.89835 6.06367 0
M  V30 3724 N 337.007 -0.598083 1.45811 0
M  V30 3725 C 338.235 -1.38322 1.53866 0
M  V30 3726 C 338.65 -1.87992 0.174479 0
M  V30 3727 O 338.007 -1.62756 -0.825627 0
M  V30 3728 C 338.058 -2.58125 2.53089 0
M  V30 3729 O 337.779 -2.10516 3.84206 0
M  V30 3730 C 339.28 -3.50869 2.70935 0
M  V30 3731 H 336.5 -0.423093 0.520801 0
M  V30 3732 H 339.044 -0.728527 1.91083 0
M  V30 3733 H 337.199 -3.19615 2.18917 0
M  V30 3734 H 337.613 -2.88425 4.38077 0
M  V30 3735 H 339.087 -4.31451 3.44317 0
M  V30 3736 H 339.564 -4.01822 1.77301 0
M  V30 3737 H 340.17 -2.95225 3.06141 0
M  V30 3738 N 338.485 -1.33259 -0.841409 0
M  V30 3739 C 339.734 -1.23921 -1.59143 0
M  V30 3740 C 340.047 0.1941 -1.94635 0
M  V30 3741 O 341.253 0.409474 -2.68394 0
M  V30 3742 C 339.709 -2.17119 -2.87032 0
M  V30 3743 C 339.317 -3.65606 -2.58914 0
M  V30 3744 C 341.061 -2.16648 -3.65053 0
M  V30 3745 C 338.968 -4.50726 -3.82884 0
M  V30 3746 H 337.898 -0.460264 -0.597221 0
M  V30 3747 H 340.549 -1.58307 -0.927959 0
M  V30 3748 H 338.931 -1.75663 -3.54906 0
M  V30 3749 H 340.105 -4.15487 -1.99267 0
M  V30 3750 H 338.42 -3.68341 -1.942 0
M  V30 3751 H 341.017 -2.77474 -4.57069 0
M  V30 3752 H 341.36 -1.16088 -3.99787 0
M  V30 3753 H 341.893 -2.56453 -3.041 0
M  V30 3754 H 338.632 -5.52151 -3.53283 0
M  V30 3755 H 338.152 -4.0559 -4.41879 0
M  V30 3756 H 339.831 -4.64401 -4.50489 0
M  V30 3757 N 339.963 1.05934 -1.16686 0
M  V30 3758 C 341.188 1.83029 -0.975455 0
M  V30 3759 C 341.613 1.82096 0.471452 0
M  V30 3760 O 340.971 1.22443 1.33706 0
M  V30 3761 C 341.019 3.27372 -1.51195 0
M  V30 3762 O 340.123 4.06054 -0.720701 0
M  V30 3763 H 339.464 0.566194 -0.346872 0
M  V30 3764 H 341.994 1.33541 -1.55009 0
M  V30 3765 H 342.004 3.78186 -1.53099 0
M  V30 3766 H 340.679 3.27366 -2.56523 0
M  V30 3767 H 339.256 3.64812 -0.772458 0
M  V30 3768 N 341.441 0.965919 1.2453 0
M  V30 3769 C 342.687 0.62776 1.92839 0
M  V30 3770 C 343.02 -0.834694 1.75347 0
M  V30 3771 O 342.295 -1.60031 1.10546 0
M  V30 3772 C 342.578 1.00109 3.45905 0
M  V30 3773 C 342.431 2.52011 3.72573 0
M  V30 3774 C 343.75 0.53435 4.36844 0
M  V30 3775 H 340.869 0.229537 0.700344 0
M  V30 3776 H 343.511 1.2046 1.46933 0
M  V30 3777 H 341.661 0.510238 3.85135 0
M  V30 3778 H 343.333 3.08559 3.42912 0
M  V30 3779 H 341.576 2.95287 3.17786 0
M  V30 3780 H 342.247 2.73183 4.79661 0
M  V30 3781 H 344.723 0.955565 4.04979 0
M  V30 3782 H 343.599 0.824152 5.42678 0
M  V30 3783 H 343.86 -0.565589 4.38467 0
M  V30 3784 N 342.919 -1.39368 0.735821 0
M  V30 3785 C 344.168 -1.99733 0.281004 0
M  V30 3786 C 344.481 -1.59055 -1.13846 0
M  V30 3787 O 345.687 -2.12262 -1.69284 0
M  V30 3788 C 344.143 -3.57057 0.451462 0
M  V30 3789 C 343.751 -4.06697 1.87886 0
M  V30 3790 C 345.495 -4.2446 0.0584616 0
M  V30 3791 C 343.402 -5.56598 1.99883 0
M  V30 3792 H 342.332 -0.747163 0.101311 0
M  V30 3793 H 344.983 -1.59357 0.909819 0
M  V30 3794 H 343.365 -3.95234 -0.246263 0
M  V30 3795 H 344.539 -3.79853 2.60861 0
M  V30 3796 H 342.854 -3.5196 2.22515 0
M  V30 3797 H 345.451 -5.34549 0.127099 0
M  V30 3798 H 345.794 -4.04444 -0.986433 0
M  V30 3799 H 346.327 -3.9146 0.707374 0
M  V30 3800 H 343.066 -5.81494 3.02564 0
M  V30 3801 H 342.586 -5.85242 1.31346 0
M  V30 3802 H 344.265 -6.22022 1.78039 0
M  V30 3803 N 344.397 -0.483516 -1.5 0
M  V30 3804 C 345.622 0.0667119 -2.07293 0
M  V30 3805 C 346.047 1.3164 -1.3436 0
M  V30 3806 O 345.405 1.76945 -0.394987 0
M  V30 3807 C 345.453 0.321126 -3.59167 0
M  V30 3808 O 344.557 1.39927 -3.87936 0
M  V30 3809 H 343.898 -0.0184758 -0.663743 0
M  V30 3810 H 346.428 -0.678125 -1.93035 0
M  V30 3811 H 346.438 0.557906 -4.04168 0
M  V30 3812 H 345.113 -0.592007 -4.11665 0
M  V30 3813 H 343.69 1.14882 -3.54763 0
M  V30 3814 N 345.875 1.56104 -0.216619 0
M  V30 3815 C 347.123 1.97781 0.415593 0
M  V30 3816 C 347.444 1.10536 1.60645 0
M  V30 3817 O 346.714 0.181303 1.95059 0
M  V30 3818 H 345.294 0.730415 0.156534 0
M  V30 3819 H 347.956 1.92445 -0.308366 0
M  V30 3820 H 347.052 3.03072 0.74525 0
M  V30 3821 N 347.353 -0.0568162 1.57498 0
M  V30 3822 C 348.283 -1.06593 2.0775 0
M  V30 3823 C 349.264 -1.39448 0.974082 0
M  V30 3824 O 350.449 -1.48815 1.24771 0
M  V30 3825 C 347.579 -2.37509 2.5339 0
M  V30 3826 C 346.533 -2.1897 3.67745 0
M  V30 3827 C 345.859 -3.55402 3.99492 0
M  V30 3828 C 347.159 -1.59859 4.97235 0
M  V30 3829 H 348.853 -0.647706 2.9231 0
M  V30 3830 H 346.399 -0.310116 1.40621 0
M  V30 3831 H 348.352 -3.08409 2.87162 0
M  V30 3832 H 347.076 -2.8134 1.65878 0
M  V30 3833 H 345.735 -1.50508 3.3428 0
M  V30 3834 H 345.383 -3.9683 3.09088 0
M  V30 3835 H 345.083 -3.43831 4.76502 0
M  V30 3836 H 346.607 -4.27708 4.35773 0
M  V30 3837 H 348.021 -2.20642 5.29141 0
M  V30 3838 H 346.418 -1.58942 5.78669 0
M  V30 3839 H 347.488 -0.561506 4.81638 0
M  V30 3840 N 348.832 -1.54138 -0.328536 0
M  V30 3841 C 349.779 -1.83176 -1.40411 0
M  V30 3842 C 350.749 -0.678494 -1.5161 0
M  V30 3843 O 351.934 -0.92443 -1.6691 0
M  V30 3844 C 349.074 -2.06035 -2.76846 0
M  V30 3845 C 348.187 -3.33727 -2.74318 0
M  V30 3846 C 347.322 -3.46574 -4.02567 0
M  V30 3847 C 346.361 -4.68159 -3.94327 0
M  V30 3848 N 345.498 -4.77959 -5.14296 0
M  V30 3849 H 350.338 -2.74938 -1.14948 0
M  V30 3850 H 347.875 -1.36166 -0.556538 0
M  V30 3851 H 349.833 -2.1728 -3.56153 0
M  V30 3852 H 348.463 -1.1757 -3.00628 0
M  V30 3853 H 347.515 -3.31246 -1.8703 0
M  V30 3854 H 348.827 -4.23139 -2.64111 0
M  V30 3855 H 347.981 -3.57333 -4.90304 0
M  V30 3856 H 346.72 -2.55245 -4.15574 0
M  V30 3857 H 345.725 -4.57461 -3.04974 0
M  V30 3858 H 346.95 -5.60868 -3.82889 0
M  V30 3859 H 344.896 -3.89544 -5.27818 0
M  V30 3860 H 344.813 -5.6133 -5.06404 0
M  V30 3861 H 346.081 -4.93044 -6.03761 0
M  V30 3862 N 350.31 0.590341 -1.46126 0
M  V30 3863 C 351.538 1.37504 -1.54597 0
M  V30 3864 C 351.953 1.87897 -0.184447 0
M  V30 3865 O 351.31 1.63192 0.816984 0
M  V30 3866 C 351.361 2.56779 -2.54454 0
M  V30 3867 O 351.082 2.08476 -3.85317 0
M  V30 3868 C 352.583 3.49427 -2.72792 0
M  V30 3869 H 349.803 0.420325 -0.523037 0
M  V30 3870 H 352.347 0.718383 -1.91467 0
M  V30 3871 H 350.502 3.1845 -2.20609 0
M  V30 3872 H 350.916 2.86097 -4.396 0
M  V30 3873 H 352.39 4.29619 -3.466 0
M  V30 3874 H 352.867 4.00876 -1.79429 0
M  V30 3875 H 353.473 2.93598 -3.07702 0
M  V30 3876 N 351.788 1.33704 0.83433 0
M  V30 3877 C 353.037 1.24763 1.58484 0
M  V30 3878 C 353.35 -0.183775 1.94735 0
M  V30 3879 O 354.556 -0.395234 2.68608 0
M  V30 3880 C 353.012 2.18638 2.85876 0
M  V30 3881 C 352.62 3.66974 2.56971 0
M  V30 3882 C 354.364 2.18581 3.63899 0
M  V30 3883 C 352.271 4.5275 3.80488 0
M  V30 3884 H 351.201 0.463425 0.594772 0
M  V30 3885 H 353.852 1.58797 0.919551 0
M  V30 3886 H 352.234 1.77542 3.5397 0
M  V30 3887 H 353.408 4.16538 1.9706 0
M  V30 3888 H 351.723 3.69366 1.92244 0
M  V30 3889 H 354.32 2.79894 4.55591 0
M  V30 3890 H 354.663 1.18207 3.99165 0
M  V30 3891 H 355.196 2.58062 3.02735 0
M  V30 3892 H 351.935 5.54017 3.5035 0
M  V30 3893 H 351.455 4.07927 4.39722 0
M  V30 3894 H 353.134 4.66784 4.4802 0
M  V30 3895 N 353.266 -1.05314 1.17247 0
M  V30 3896 C 354.512 -1.78557 0.961513 0
M  V30 3897 C 354.845 -1.87419 -0.508697 0
M  V30 3898 O 354.12 -1.37307 -1.37757 0
M  V30 3899 C 354.403 -3.22514 1.60176 0
M  V30 3900 C 354.256 -3.21673 3.14399 0
M  V30 3901 C 355.575 -4.20318 1.30463 0
M  V30 3902 H 352.694 -0.6482 0.350723 0
M  V30 3903 H 355.336 -1.23102 1.44727 0
M  V30 3904 H 353.486 -3.69867 1.18871 0
M  V30 3905 H 355.158 -2.82405 3.64753 0
M  V30 3906 H 353.401 -2.60048 3.47214 0
M  V30 3907 H 354.072 -4.23271 3.54324 0
M  V30 3908 H 356.548 -3.81454 1.66229 0
M  V30 3909 H 355.424 -5.19289 1.77848 0
M  V30 3910 H 355.685 -4.41526 0.22521 0
M  V30 3911 N 354.744 -0.972509 -1.24016 0
M  V30 3912 C 355.992 -0.635776 -1.91839 0
M  V30 3913 C 356.313 0.832312 -1.76345 0
M  V30 3914 O 355.583 1.5946 -1.13795 0
M  V30 3915 H 354.163 -0.232157 -0.710009 0
M  V30 3916 H 356.825 -1.23462 -1.50809 0
M  V30 3917 H 355.921 -0.880545 -2.99421 0
M  V30 3918 N 356.222 1.38976 -0.743202 0
M  V30 3919 C 357.185 2.28901 -0.117014 0
M  V30 3920 C 358.185 1.46698 0.658503 0
M  V30 3921 O 359.375 1.67274 0.486305 0
M  V30 3922 C 356.507 3.30309 0.84315 0
M  V30 3923 H 357.7 2.8578 -0.909373 0
M  V30 3924 H 355.253 1.47761 -0.509547 0
M  V30 3925 H 355.988 2.785 1.66157 0
M  V30 3926 H 355.773 3.91029 0.289594 0
M  V30 3927 H 357.263 3.97577 1.2776 0
M  V30 3928 N 357.7 0.491464 1.49741 0
M  V30 3929 C 358.63 -0.28154 2.31796 0
M  V30 3930 C 359.611 -0.971473 1.3963 0
M  V30 3931 O 360.796 -0.964719 1.68543 0
M  V30 3932 C 357.926 -1.35203 3.19902 0
M  V30 3933 C 356.88 -0.782529 4.20786 0
M  V30 3934 C 356.206 -1.95283 4.97764 0
M  V30 3935 C 357.506 0.21999 5.21837 0
M  V30 3936 H 359.2 0.403355 2.96671 0
M  V30 3937 H 356.746 0.195425 1.42668 0
M  V30 3938 H 358.699 -1.90045 3.76113 0
M  V30 3939 H 357.423 -2.06598 2.52953 0
M  V30 3940 H 356.082 -0.255928 3.65706 0
M  V30 3941 H 355.73 -2.65423 4.2727 0
M  V30 3942 H 355.43 -1.57789 5.66018 0
M  V30 3943 H 356.954 -2.50577 5.56816 0
M  V30 3944 H 358.368 -0.23996 5.72798 0
M  V30 3945 H 356.765 0.51026 5.97927 0
M  V30 3946 H 357.835 1.13911 4.7133 0
M  V30 3947 N 359.178 -1.55987 0.224894 0
M  V30 3948 C 360.427 -1.97566 -0.406273 0
M  V30 3949 C 360.74 -1.11569 -1.6066 0
M  V30 3950 O 361.946 -1.43062 -2.3075 0
M  V30 3951 C 360.402 -3.51474 -0.774207 0
M  V30 3952 C 360.01 -4.46179 0.403496 0
M  V30 3953 C 361.754 -4.01758 -1.37079 0
M  V30 3954 C 359.661 -5.91399 0.0129412 0
M  V30 3955 H 358.591 -0.737777 -0.155565 0
M  V30 3956 H 361.242 -1.80659 0.321635 0
M  V30 3957 H 359.624 -3.63994 -1.55963 0
M  V30 3958 H 360.798 -4.45409 1.18101 0
M  V30 3959 H 359.113 -4.06255 0.913536 0
M  V30 3960 H 361.71 -5.07756 -1.67596 0
M  V30 3961 H 362.053 -3.47805 -2.28773 0
M  V30 3962 H 362.586 -3.92475 -0.648733 0
M  V30 3963 H 359.325 -6.49341 0.896451 0
M  V30 3964 H 358.845 -5.95356 -0.728821 0
M  V30 3965 H 360.524 -6.45683 -0.412582 0
M  V30 3966 N 360.656 0.0484629 -1.57525 0
M  V30 3967 C 361.588 1.08222 -2.02041 0
M  V30 3968 C 362.601 1.33621 -0.930012 0
M  V30 3969 O 363.79 1.3145 -1.20761 0
M  V30 3970 C 360.89 2.42818 -2.36416 0
M  V30 3971 C 360.063 2.37049 -3.67596 0
M  V30 3972 C 359.122 3.53937 -3.89378 0
M  V30 3973 O 358.148 3.34308 -4.60681 0
M  V30 3974 N 359.35 4.75126 -3.3352 0
M  V30 3975 H 362.115 0.702946 -2.9134 0
M  V30 3976 H 359.676 0.236745 -1.6016 0
M  V30 3977 H 361.668 3.197 -2.48141 0
M  V30 3978 H 360.238 2.72661 -1.52888 0
M  V30 3979 H 359.458 1.45395 -3.66407 0
M  V30 3980 H 360.746 2.30318 -4.53686 0
M  V30 3981 H 360.144 4.93976 -2.75688 0
M  V30 3982 H 358.701 5.49439 -3.50656 0
M  V30 3983 N 362.134 1.5431 0.320358 0
M  V30 3984 C 363.359 1.76954 1.08175 0
M  V30 3985 C 363.784 0.518193 1.80821 0
M  V30 3986 O 363.142 -0.530411 1.73368 0
M  V30 3987 C 363.19 2.96451 2.05303 0
M  V30 3988 O 362.294 2.68221 3.13259 0
M  V30 3989 H 361.635 0.586275 0.311733 0
M  V30 3990 H 364.165 2.01342 0.363676 0
M  V30 3991 H 364.175 3.23887 2.48116 0
M  V30 3992 H 362.85 3.87196 1.51829 0
M  V30 3993 H 361.427 2.51744 2.75099 0
M  V30 3994 N 363.613 -0.582584 1.46437 0
M  V30 3995 C 364.859 -1.34278 1.51978 0
M  V30 3996 C 365.192 -1.93446 0.170973 0
M  V30 3997 O 364.467 -1.76481 -0.817608 0
M  V30 3998 C 364.75 -2.47203 2.61845 0
M  V30 3999 C 364.603 -1.93069 4.06257 0
M  V30 4000 C 365.922 -3.49247 2.67795 0
M  V30 4001 H 363.041 -0.486876 0.553282 0
M  V30 4002 H 365.683 -0.654437 1.78374 0
M  V30 4003 H 363.833 -3.0592 2.39469 0
M  V30 4004 H 365.505 -1.38808 4.3992 0
M  V30 4005 H 363.748 -1.23898 4.1573 0
M  V30 4006 H 364.419 -2.74586 4.7886 0
M  V30 4007 H 366.895 -3.00411 2.8791 0
M  V30 4008 H 365.771 -4.25719 3.46489 0
M  V30 4009 H 366.032 -4.06482 1.73852 0
M  V30 4010 N 365.091 -1.34144 -0.827227 0
M  V30 4011 C 366.038 -1.25364 -1.93785 0
M  V30 4012 C 367.008 -0.129774 -1.65592 0
M  V30 4013 O 368.193 -0.310024 -1.88264 0
M  V30 4014 C 365.333 -1.01064 -3.2997 0
M  V30 4015 C 364.446 -2.22185 -3.70484 0
M  V30 4016 C 363.581 -1.91203 -4.95595 0
M  V30 4017 C 362.62 -3.08491 -5.28677 0
M  V30 4018 N 361.757 -2.77421 -6.44967 0
M  V30 4019 H 366.597 -2.20347 -2.00627 0
M  V30 4020 H 364.134 -1.09558 -0.981608 0
M  V30 4021 H 366.092 -0.850139 -4.08446 0
M  V30 4022 H 364.722 -0.0975026 -3.22653 0
M  V30 4023 H 363.774 -2.4917 -2.87434 0
M  V30 4024 H 365.086 -3.0983 -3.90905 0
M  V30 4025 H 364.24 -1.71864 -5.81848 0
M  V30 4026 H 362.979 -1.00812 -4.77167 0
M  V30 4027 H 361.984 -3.28431 -4.40923 0
M  V30 4028 H 363.209 -3.99655 -5.49047 0
M  V30 4029 H 361.155 -1.89601 -6.28003 0
M  V30 4030 H 361.072 -3.58598 -6.6554 0
M  V30 4031 H 362.34 -2.61577 -7.34301 0
M  V30 4032 N 366.569 1.04691 -1.17803 0
M  V30 4033 C 367.516 2.12557 -0.899343 0
M  V30 4034 C 368.486 1.65339 0.158771 0
M  V30 4035 O 369.671 1.90789 0.0204797 0
M  V30 4036 C 366.811 3.42481 -0.424315 0
M  V30 4037 C 365.924 4.03346 -1.54713 0
M  V30 4038 C 365.059 5.21208 -1.02546 0
M  V30 4039 C 364.098 5.74089 -2.12339 0
M  V30 4040 N 363.235 6.83247 -1.61612 0
M  V30 4041 H 368.075 2.35734 -1.823 0
M  V30 4042 H 365.612 1.1564 -0.909159 0
M  V30 4043 H 367.57 4.16996 -0.130421 0
M  V30 4044 H 366.2 3.19471 0.462377 0
M  V30 4045 H 365.252 3.2622 -1.95664 0
M  V30 4046 H 366.564 4.38628 -2.37501 0
M  V30 4047 H 365.718 6.02812 -0.685718 0
M  V30 4048 H 364.457 4.87414 -0.167084 0
M  V30 4049 H 363.462 4.91111 -2.47165 0
M  V30 4050 H 364.687 6.0993 -2.98601 0
M  V30 4051 H 362.633 6.5134 -0.780533 0
M  V30 4052 H 362.55 7.17559 -2.38003 0
M  V30 4053 H 363.818 7.68491 -1.30545 0
M  V30 4054 N 368.047 0.979072 1.23499 0
M  V30 4055 C 368.977 0.537606 2.27227 0
M  V30 4056 C 369.958 -0.428539 1.64613 0
M  V30 4057 O 371.143 -0.322191 1.91509 0
M  V30 4058 C 368.273 -0.162052 3.46922 0
M  V30 4059 C 367.227 0.721242 4.21879 0
M  V30 4060 C 366.553 -0.110555 5.34586 0
M  V30 4061 C 367.853 2.01141 4.82016 0
M  V30 4062 H 369.547 1.40462 2.64406 0
M  V30 4063 H 367.093 0.67684 1.27102 0
M  V30 4064 H 369.046 -0.482192 4.18632 0
M  V30 4065 H 367.77 -1.06351 3.08799 0
M  V30 4066 H 366.429 1.02482 3.51984 0
M  V30 4067 H 366.077 -1.0125 4.92704 0
M  V30 4068 H 365.777 0.477325 5.85658 0
M  V30 4069 H 367.301 -0.425107 6.09118 0
M  V30 4070 H 368.715 1.75612 5.45741 0
M  V30 4071 H 367.112 2.54695 5.43369 0
M  V30 4072 H 368.182 2.69909 4.02836 0
M  V30 4073 N 369.525 -1.3858 0.750561 0
M  V30 4074 C 370.488 -2.28836 0.129152 0
M  V30 4075 C 371.488 -1.47045 -0.650714 0
M  V30 4076 O 372.678 -1.6753 -0.477428 0
M  V30 4077 C 369.81 -3.30751 -0.825622 0
M  V30 4078 H 371.003 -2.85294 0.924516 0
M  V30 4079 H 368.556 -1.47489 0.517376 0
M  V30 4080 H 369.291 -2.79378 -1.64677 0
M  V30 4081 H 369.076 -3.91177 -0.268852 0
M  V30 4082 H 370.566 -3.98249 -1.2565 0
M  V30 4083 N 371.003 -0.499398 -1.49478 0
M  V30 4084 C 372.28 0.108629 -1.95298 0
M  V30 4085 C 372.66 1.54282 -1.44084 0
M  V30 4086 O 372.008 2.18944 -0.653908 0
M  V30 4087 C 372.218 0.0229111 -3.48992 0
M  V30 4088 C 373.566 0.197643 -4.2414 0
M  V30 4089 O 374.59 0.0981735 -3.56065 0
M  V30 4090 O 373.449 0.401669 -5.45022 0
M  V30 4091 H 370.543 0.096181 -0.821388 0
M  V30 4092 H 373.089 -0.561822 -1.6013 0
M  V30 4093 H 371.861 -0.977321 -3.78899 0
M  V30 4094 H 371.484 0.733579 -3.90774 0
M  V30 4095 N 372.481 1.55866 -0.233164 0
M  V30 4096 C 373.727 1.98897 0.395959 0
M  V30 4097 C 374.06 1.12091 1.58585 0
M  V30 4098 O 373.335 0.181182 1.93654 0
M  V30 4099 C 373.618 3.50658 0.819224 0
M  V30 4100 C 373.471 4.48233 -0.375109 0
M  V30 4101 C 374.79 4.07135 1.67121 0
M  V30 4102 H 371.909 0.723102 0.142451 0
M  V30 4103 H 374.551 1.87082 -0.331725 0
M  V30 4104 H 372.701 3.60857 1.43925 0
M  V30 4105 H 374.373 4.50031 -1.01341 0
M  V30 4106 H 372.616 4.21624 -1.02058 0
M  V30 4107 H 373.287 5.51988 -0.0358328 0
M  V30 4108 H 375.763 3.99952 1.14795 0
M  V30 4109 H 374.639 5.13615 1.93625 0
M  V30 4110 H 374.9 3.54736 2.63846 0
M  V30 4111 N 373.959 -0.0401083 1.57549 0
M  V30 4112 C 374.892 -1.07689 2.01192 0
M  V30 4113 C 375.87 -1.358 0.894273 0
M  V30 4114 O 377.054 -1.48642 1.15921 0
M  V30 4115 C 374.181 -2.41418 2.3756 0
M  V30 4116 C 373.227 -2.29237 3.59656 0
M  V30 4117 S 374.06 -1.65628 5.09242 0
M  V30 4118 C 375.216 -3.0087 5.48843 0
M  V30 4119 H 375.449 -0.705108 2.88817 0
M  V30 4120 H 372.982 -0.249724 1.52367 0
M  V30 4121 H 374.94 -3.18329 2.59186 0
M  V30 4122 H 373.601 -2.75747 1.50407 0
M  V30 4123 H 372.794 -3.27932 3.82722 0
M  V30 4124 H 372.396 -1.60469 3.37825 0
M  V30 4125 H 374.688 -3.97201 5.48851 0
M  V30 4126 H 375.631 -2.82549 6.49286 0
M  V30 4127 H 376.039 -3.02934 4.76331 0
M  V30 4128 N 375.437 -1.54477 -0.31217 0
M  V30 4129 C 376.683 -1.73483 -1.0503 0
M  V30 4130 C 377.016 -0.513125 -1.87298 0
M  V30 4131 O 376.291 0.489864 -1.8823 0
M  V30 4132 C 376.574 -3.01723 -1.96558 0
M  V30 4133 C 376.427 -4.3417 -1.17545 0
M  V30 4134 C 377.746 -3.25772 -2.95907 0
M  V30 4135 H 374.865 -0.631222 -0.380432 0
M  V30 4136 H 377.507 -1.87184 -0.325932 0
M  V30 4137 H 375.657 -2.90174 -2.58324 0
M  V30 4138 H 377.329 -4.5762 -0.581513 0
M  V30 4139 H 375.572 -4.31159 -0.477925 0
M  V30 4140 H 376.243 -5.20143 -1.84811 0
M  V30 4141 H 378.719 -3.36857 -2.44267 0
M  V30 4142 H 377.595 -4.16838 -3.57123 0
M  V30 4143 H 377.856 -2.43537 -3.68974 0
M  V30 4144 N 376.915 0.57481 -1.46744 0
M  V30 4145 C 377.845 1.69337 -1.60771 0
M  V30 4146 C 378.826 1.63825 -0.457736 0
M  V30 4147 O 380.011 1.8172 -0.684947 0
M  V30 4148 C 377.141 3.0798 -1.60517 0
M  V30 4149 C 376.095 3.28327 -2.74564 0
M  V30 4150 C 375.421 4.67578 -2.59373 0
M  V30 4151 C 376.721 3.15398 -4.16319 0
M  V30 4152 H 378.415 1.57853 -2.54407 0
M  V30 4153 H 375.961 0.75799 -1.22436 0
M  V30 4154 H 377.914 3.86061 -1.68923 0
M  V30 4155 H 376.638 3.20381 -0.634305 0
M  V30 4156 H 375.297 2.52649 -2.65639 0
M  V30 4157 H 374.945 4.76755 -1.60353 0
M  V30 4158 H 374.645 4.82144 -3.35873 0
M  V30 4159 H 376.169 5.47817 -2.69682 0
M  V30 4160 H 377.583 3.83315 -4.26313 0
M  V30 4161 H 375.98 3.41482 -4.93468 0
M  V30 4162 H 377.05 2.12372 -4.3592 0
M  V30 4163 N 378.394 1.34581 0.820102 0
M  V30 4164 C 379.622 1.3018 1.60813 0
M  V30 4165 C 380.037 -0.123551 1.88395 0
M  V30 4166 O 379.394 -1.07148 1.47735 0
M  V30 4167 C 379.445 2.09312 2.94739 0
M  V30 4168 O 379.166 3.46288 2.68358 0
M  V30 4169 C 380.667 2.1234 3.89136 0
M  V30 4170 H 377.887 0.447726 0.499782 0
M  V30 4171 H 380.431 1.77237 1.02017 0
M  V30 4172 H 378.586 1.65889 3.50085 0
M  V30 4173 H 379 3.87227 3.53774 0
M  V30 4174 H 380.474 2.72126 4.80262 0
M  V30 4175 H 380.951 1.11854 4.24718 0
M  V30 4176 H 381.557 2.55864 3.39726 0
M  V30 4177 N 379.872 -1.04064 1.18357 0
M  V30 4178 C 381.118 -1.77528 0.980397 0
M  V30 4179 C 381.451 -1.87948 -0.48879 0
M  V30 4180 O 380.726 -1.3876 -1.36293 0
M  V30 4181 C 381.009 -3.20797 1.63588 0
M  V30 4182 C 380.862 -3.1832 3.17793 0
M  V30 4183 C 382.181 -4.18911 1.34914 0
M  V30 4184 H 379.3 -0.644443 0.357578 0
M  V30 4185 H 381.942 -1.2156 1.46024 0
M  V30 4186 H 380.092 -3.68586 1.22788 0
M  V30 4187 H 381.764 -2.78521 3.67728 0
M  V30 4188 H 380.007 -2.56351 3.49952 0
M  V30 4189 H 380.678 -4.19489 3.58794 0
M  V30 4190 H 383.154 -3.7967 1.70265 0
M  V30 4191 H 382.03 -5.17374 1.83346 0
M  V30 4192 H 382.291 -4.41262 0.272027 0
M  V30 4193 N 381.35 -0.985608 -1.22978 0
M  V30 4194 C 382.597 -0.657386 -1.91532 0
M  V30 4195 C 382.925 0.809707 -1.76845 0
M  V30 4196 O 382.18 1.60021 -1.12658 0
M  V30 4197 C 382.479 -1.00014 -3.43121 0
M  V30 4198 C 382.145 -2.4583 -3.77993 0
M  V30 4199 C 380.807 -2.85679 -3.87222 0
M  V30 4200 C 383.159 -3.40378 -3.94705 0
M  V30 4201 C 380.487 -4.19081 -4.10595 0
M  V30 4202 C 382.839 -4.73429 -4.1958 0
M  V30 4203 C 381.503 -5.1303 -4.27032 0
M  V30 4204 H 380.773 -0.240555 -0.700867 0
M  V30 4205 H 383.42 -1.24044 -1.45895 0
M  V30 4206 H 381.725 -0.335072 -3.90365 0
M  V30 4207 H 383.422 -0.724322 -3.94404 0
M  V30 4208 H 380.012 -2.13939 -3.71387 0
M  V30 4209 H 384.196 -3.10766 -3.8696 0
M  V30 4210 H 379.452 -4.49362 -4.14589 0
M  V30 4211 H 383.626 -5.46644 -4.31455 0
M  V30 4212 H 381.253 -6.16418 -4.44896 0
M  V30 4213 N 382.828 1.3818 -0.7579 0
M  V30 4214 C 384.068 2.01864 -0.320968 0
M  V30 4215 C 384.432 1.58863 1.07827 0
M  V30 4216 O 385.633 2.14908 1.61456 0
M  V30 4217 C 383.904 3.54626 -0.44446 0
M  V30 4218 S 385.463 4.38706 -0.0907467 0
M  V30 4219 H 382.281 0.700056 -0.124268 0
M  V30 4220 H 384.883 1.68611 -0.989468 0
M  V30 4221 H 383.587 3.83411 -1.4637 0
M  V30 4222 H 383.118 3.92661 0.241073 0
M  V30 4223 H 385.133 4.83435 1.11826 0
M  V30 4224 N 384.306 0.507319 1.49211 0
M  V30 4225 C 385.236 -0.256939 2.32082 0
M  V30 4226 C 386.217 -0.956609 1.40652 0
M  V30 4227 O 387.402 -0.946788 1.69557 0
M  V30 4228 C 384.532 -1.31802 3.21318 0
M  V30 4229 C 383.486 -0.737855 4.21592 0
M  V30 4230 C 382.812 -1.89992 4.99807 0
M  V30 4231 C 384.112 0.275325 5.21574 0
M  V30 4232 H 385.806 0.434798 2.96226 0
M  V30 4233 H 383.352 0.210546 1.42452 0
M  V30 4234 H 385.305 -1.86045 3.78107 0
M  V30 4235 H 384.029 -2.03903 2.5513 0
M  V30 4236 H 382.688 -0.217126 3.65956 0
M  V30 4237 H 382.336 -2.60877 4.30061 0
M  V30 4238 H 382.036 -1.51777 5.6766 0
M  V30 4239 H 383.56 -2.44657 5.59442 0
M  V30 4240 H 384.974 -0.179193 5.7302 0
M  V30 4241 H 383.371 0.573649 5.97352 0
M  V30 4242 H 384.441 1.18903 4.70096 0
M  V30 4243 N 385.784 -1.5574 0.241426 0
M  V30 4244 C 387.009 -2.0366 -0.392111 0
M  V30 4245 C 387.434 -1.11969 -1.51144 0
M  V30 4246 O 386.792 -0.111594 -1.80956 0
M  V30 4247 C 386.84 -3.49638 -0.882371 0
M  V30 4248 O 385.944 -3.6108 -1.99235 0
M  V30 4249 H 385.285 -0.658379 -0.0862122 0
M  V30 4250 H 387.815 -2.01302 0.365881 0
M  V30 4251 H 387.825 -3.90351 -1.18702 0
M  V30 4252 H 386.5 -4.15852 -0.0632361 0
M  V30 4253 H 385.077 -3.32262 -1.69282 0
M  V30 4254 N 387.262 0.0317525 -1.57568 0
M  V30 4255 C 388.508 0.724175 -1.8943 0
M  V30 4256 C 388.841 1.75149 -0.838836 0
M  V30 4257 O 388.116 1.93948 0.146422 0
M  V30 4258 C 388.399 1.39615 -3.31933 0
M  V30 4259 C 388.252 0.382537 -4.4817 0
M  V30 4260 C 389.571 2.33084 -3.73309 0
M  V30 4261 H 386.69 0.261797 -0.688935 0
M  V30 4262 H 389.332 -0.013017 -1.89996 0
M  V30 4263 H 387.482 2.02451 -3.31581 0
M  V30 4264 H 389.154 -0.243689 -4.60656 0
M  V30 4265 H 387.397 -0.29844 -4.32772 0
M  V30 4266 H 388.068 0.891145 -5.44759 0
M  V30 4267 H 390.544 1.80295 -3.7501 0
M  V30 4268 H 389.42 2.77084 -4.73831 0
M  V30 4269 H 389.681 3.19643 -3.05419 0
M  V30 4270 N 388.74 1.54641 0.303973 0
M  V30 4271 C 389.987 1.7378 1.03955 0
M  V30 4272 C 390.315 0.521986 1.87365 0
M  V30 4273 O 389.57 -0.496099 1.89308 0
M  V30 4274 C 389.869 2.97753 1.97681 0
M  V30 4275 C 389.535 4.31671 1.30271 0
M  V30 4276 C 388.197 4.68075 1.11619 0
M  V30 4277 C 390.549 5.147 0.82055 0
M  V30 4278 C 387.877 5.8509 0.434304 0
M  V30 4279 C 390.229 6.32416 0.152395 0
M  V30 4280 C 388.893 6.67484 -0.0461067 0
M  V30 4281 H 388.163 0.635908 0.380398 0
M  V30 4282 H 390.81 1.88896 0.314718 0
M  V30 4283 H 389.115 2.77406 2.76682 0
M  V30 4284 H 390.812 3.09756 2.54661 0
M  V30 4285 H 387.402 4.03041 1.45795 0
M  V30 4286 H 391.586 4.87077 0.952374 0
M  V30 4287 H 386.842 6.10806 0.269495 0
M  V30 4288 H 391.016 6.96023 -0.229126 0
M  V30 4289 H 388.643 7.58011 -0.576494 0
M  V30 4290 N 390.218 -0.567019 1.47046 0
M  V30 4291 C 391.181 -1.65696 1.58359 0
M  V30 4292 C 392.181 -1.54097 0.459441 0
M  V30 4293 O 393.371 -1.58432 0.724225 0
M  V30 4294 C 390.503 -3.05197 1.51879 0
M  V30 4295 H 391.696 -1.57019 2.5551 0
M  V30 4296 H 389.249 -0.786148 1.3509 0
M  V30 4297 H 389.984 -3.19417 0.560673 0
M  V30 4298 H 389.769 -3.15025 2.33455 0
M  V30 4299 H 391.259 -3.84511 1.62913 0
M  V30 4300 N 391.696 -1.35014 -0.812953 0
M  V30 4301 C 392.626 -1.30069 -1.93919 0
M  V30 4302 C 393.607 -0.176275 -1.69184 0
M  V30 4303 O 394.792 -0.370227 -1.90638 0
M  V30 4304 C 391.922 -1.06547 -3.30552 0
M  V30 4305 C 390.876 -2.15561 -3.69753 0
M  V30 4306 C 390.202 -1.77214 -5.04479 0
M  V30 4307 C 391.502 -3.57476 -3.808 0
M  V30 4308 H 393.196 -2.24303 -1.98314 0
M  V30 4309 H 390.742 -1.07977 -0.952736 0
M  V30 4310 H 392.695 -1.01729 -4.08937 0
M  V30 4311 H 391.419 -0.0875719 -3.26483 0
M  V30 4312 H 390.078 -2.19466 -2.9365 0
M  V30 4313 H 389.726 -0.780589 -4.96906 0
M  V30 4314 H 389.426 -2.50184 -5.31678 0
M  V30 4315 H 390.95 -1.7391 -5.8531 0
M  V30 4316 H 392.364 -3.55929 -4.4943 0
M  V30 4317 H 390.761 -4.29152 -4.19462 0
M  V30 4318 H 391.831 -3.94091 -2.82525 0
M  V30 4319 N 393.175 1.03435 -1.18907 0
M  V30 4320 C 394.424 1.76143 -0.982669 0
M  V30 4321 C 394.737 1.89416 0.487953 0
M  V30 4322 O 395.943 2.59041 0.813036 0
M  V30 4323 C 394.399 3.16722 -1.70924 0
M  V30 4324 C 394.007 3.11522 -3.21959 0
M  V30 4325 C 395.751 3.93764 -1.58588 0
M  V30 4326 C 393.658 4.46999 -3.87228 0
M  V30 4327 H 392.588 0.660292 -0.364047 0
M  V30 4328 H 395.239 1.158 -1.42347 0
M  V30 4329 H 393.621 3.775 -1.19623 0
M  V30 4330 H 394.795 2.60158 -3.80335 0
M  V30 4331 H 393.11 2.47978 -3.34508 0
M  V30 4332 H 395.707 4.93963 -2.04707 0
M  V30 4333 H 396.05 4.12794 -0.539142 0
M  V30 4334 H 396.583 3.39576 -2.07203 0
M  V30 4335 H 393.322 4.33174 -4.91976 0
M  V30 4336 H 392.842 4.98441 -3.33642 0
M  V30 4337 H 394.521 5.15898 -3.90459 0
M  V30 4338 N 394.653 0.992116 1.22453 0
M  V30 4339 C 395.901 0.666215 1.90804 0
M  V30 4340 C 396.222 -0.804152 1.77647 0
M  V30 4341 O 395.492 -1.57629 1.16318 0
M  V30 4342 H 394.072 0.243423 0.706225 0
M  V30 4343 H 396.734 1.25845 1.48825 0
M  V30 4344 H 395.83 0.928069 2.97982 0
M  V30 4345 N 396.131 -1.37776 0.765217 0
M  V30 4346 C 397.061 -2.32945 0.160953 0
M  V30 4347 C 398.042 -1.55454 -0.690516 0
M  V30 4348 O 399.227 -1.83721 -0.629318 0
M  V30 4349 C 396.357 -3.39669 -0.724031 0
M  V30 4350 C 395.311 -4.27992 0.0256173 0
M  V30 4351 C 394.637 -5.25673 -0.978383 0
M  V30 4352 C 395.937 -5.08309 1.20082 0
M  V30 4353 H 397.631 -2.83728 0.955969 0
M  V30 4354 H 395.177 -1.36416 0.461149 0
M  V30 4355 H 397.13 -4.05219 -1.15652 0
M  V30 4356 H 395.854 -2.87396 -1.5515 0
M  V30 4357 H 394.513 -3.63964 0.438812 0
M  V30 4358 H 394.161 -4.69682 -1.80022 0
M  V30 4359 H 393.861 -5.85625 -0.481378 0
M  V30 4360 H 395.385 -5.94098 -1.40995 0
M  V30 4361 H 396.799 -5.67034 0.845307 0
M  V30 4362 H 395.196 -5.77554 1.62947 0
M  V30 4363 H 396.266 -4.41365 2.00811 0
M  V30 4364 N 397.609 -0.515225 -1.4894 0
M  V30 4365 C 398.541 0.292481 -2.27326 0
M  V30 4366 C 399.554 0.917838 -1.3446 0
M  V30 4367 O 400.743 0.798772 -1.5963 0
M  V30 4368 C 397.843 1.42803 -3.07344 0
M  V30 4369 C 397.016 0.907347 -4.27885 0
M  V30 4370 C 396.075 1.92222 -4.89834 0
M  V30 4371 O 395.101 1.48506 -5.49486 0
M  V30 4372 N 396.303 3.25355 -4.80754 0
M  V30 4373 H 399.068 -0.379721 -2.97285 0
M  V30 4374 H 396.629 -0.348638 -1.58102 0
M  V30 4375 H 398.621 2.10481 -3.45658 0
M  V30 4376 H 397.191 2.00414 -2.39902 0
M  V30 4377 H 396.411 0.0550218 -3.94162 0
M  V30 4378 H 397.699 0.538108 -5.05946 0
M  V30 4379 H 397.097 3.6355 -4.33414 0
M  V30 4380 H 395.654 3.88707 -5.23211 0
M  V30 4381 N 399.087 1.5561 -0.249682 0
M  V30 4382 C 400.017 2.24477 0.642826 0
M  V30 4383 C 400.998 1.22601 1.17911 0
M  V30 4384 O 402.183 1.5126 1.21795 0
M  V30 4385 C 399.313 2.94638 1.83863 0
M  V30 4386 C 398.267 4.03227 1.435 0
M  V30 4387 C 397.593 4.60828 2.71186 0
M  V30 4388 C 398.893 5.18796 0.604002 0
M  V30 4389 H 400.587 2.99321 0.0685625 0
M  V30 4390 H 398.133 1.43965 0.0315363 0
M  V30 4391 H 400.086 3.41517 2.46868 0
M  V30 4392 H 398.81 2.17287 2.43832 0
M  V30 4393 H 397.469 3.57121 0.828275 0
M  V30 4394 H 397.117 3.80174 3.29358 0
M  V30 4395 H 396.817 5.34132 2.44901 0
M  V30 4396 H 398.341 5.10442 3.35084 0
M  V30 4397 H 399.755 5.61883 1.13842 0
M  V30 4398 H 398.152 5.98506 0.437097 0
M  V30 4399 H 399.222 4.83384 -0.383147 0
M  V30 4400 N 400.565 -0.0233959 1.57583 0
M  V30 4401 C 401.812 -0.713063 1.8953 0
M  V30 4402 C 402.14 -1.75056 0.847673 0
M  V30 4403 O 401.395 -1.95119 -0.150636 0
M  V30 4404 C 401.694 -1.41428 3.28227 0
M  V30 4405 C 401.36 -0.512222 4.47981 0
M  V30 4406 C 400.022 -0.263785 4.80476 0
M  V30 4407 C 402.374 0.110248 5.21083 0
M  V30 4408 C 399.702 0.615804 5.83459 0
M  V30 4409 C 402.054 0.977573 6.25001 0
M  V30 4410 C 400.718 1.23542 6.55968 0
M  V30 4411 H 399.988 -0.260928 0.69354 0
M  V30 4412 H 402.635 0.0271047 1.91481 0
M  V30 4413 H 400.94 -2.22791 3.22291 0
M  V30 4414 H 402.637 -1.95355 3.50196 0
M  V30 4415 H 399.227 -0.716013 4.22577 0
M  V30 4416 H 403.411 -0.0687137 4.96252 0
M  V30 4417 H 398.667 0.82382 6.05824 0
M  V30 4418 H 402.841 1.46638 6.80786 0
M  V30 4419 H 400.468 1.91871 7.35588 0
M  V30 4420 N 402.043 -1.548 -0.295768 0
M  V30 4421 C 402.976 -1.81003 -1.38972 0
M  V30 4422 C 403.954 -0.661544 -1.48534 0
M  V30 4423 O 405.138 -0.902074 -1.65514 0
M  V30 4424 C 402.265 -1.95141 -2.76835 0
M  V30 4425 C 401.311 -3.17592 -2.84671 0
M  V30 4426 S 402.144 -4.75531 -2.46232 0
M  V30 4427 C 403.3 -4.92613 -3.86114 0
M  V30 4428 H 403.533 -2.73507 -1.16537 0
M  V30 4429 H 401.066 -1.46278 -0.494168 0
M  V30 4430 H 403.024 -2.03972 -3.56238 0
M  V30 4431 H 401.685 -1.03565 -2.96535 0
M  V30 4432 H 400.878 -3.24303 -3.85803 0
M  V30 4433 H 400.48 -3.07235 -2.13267 0
M  V30 4434 H 402.772 -4.76957 -4.81164 0
M  V30 4435 H 403.715 -5.94698 -3.8437 0
M  V30 4436 H 404.123 -4.2073 -3.76359 0
M  V30 4437 N 403.521 0.559213 -1.47345 0
M  V30 4438 C 404.769 1.31388 -1.53563 0
M  V30 4439 C 405.09 1.93985 -0.198678 0
M  V30 4440 O 404.36 1.79825 0.777167 0
M  V30 4441 H 402.94 0.487901 -0.565652 0
M  V30 4442 H 405.602 0.65315 -1.8363 0
M  V30 4443 H 404.698 2.10844 -2.30111 0
M  V30 4444 N 404.999 1.35443 0.805782 0
M  V30 4445 C 405.947 1.28465 1.93906 0
M  V30 4446 C 406.941 0.17943 1.68447 0
M  V30 4447 O 408.147 0.345459 1.76654 0
M  V30 4448 H 404.522 0.399528 0.637088 0
M  V30 4449 H 406.493 2.24206 1.96912 0
M  V30 4450 C 405.242 1.07432 3.30687 0
M  V30 4451 H 404.565 1.91716 3.50835 0
M  V30 4452 H 406.005 1.06591 4.10383 0
M  V30 4453 C 404.464 -0.22179 3.36169 0
M  V30 4454 O 404.994 -1.21731 3.82811 0
M  V30 4455 N 403.2 -0.260841 2.89427 0
M  V30 4456 H 402.747 0.549884 2.51663 0
M  V30 4457 H 402.705 -1.12777 2.93477 0
M  V30 4458 N 406.477 -1.02803 1.19454 0
M  V30 4459 C 407.407 -2.12999 0.956758 0
M  V30 4460 C 408.388 -1.69743 -0.110188 0
M  V30 4461 O 409.573 -1.94148 0.0450038 0
M  V30 4462 C 406.703 -3.43746 0.495553 0
M  V30 4463 C 405.657 -4.00688 1.50443 0
M  V30 4464 C 404.983 -5.27067 0.900275 0
M  V30 4465 C 406.283 -4.35397 2.8849 0
M  V30 4466 H 407.977 -2.33148 1.87836 0
M  V30 4467 H 405.523 -1.12045 0.904539 0
M  V30 4468 H 407.476 -4.2021 0.316493 0
M  V30 4469 H 406.2 -3.23321 -0.461646 0
M  V30 4470 H 404.859 -3.2632 1.67065 0
M  V30 4471 H 404.507 -5.02959 -0.064503 0
M  V30 4472 H 404.207 -5.66127 1.57397 0
M  V30 4473 H 405.731 -6.06196 0.73203 0
M  V30 4474 H 407.145 -5.02795 2.75446 0
M  V30 4475 H 405.542 -4.85541 3.52661 0
M  V30 4476 H 406.612 -3.44662 3.41081 0
M  V30 4477 N 407.956 -0.998596 -1.21925 0
M  V30 4478 C 409.372 -0.710303 -1.42923 0
M  V30 4479 C 409.572 0.716933 -1.88314 0
M  V30 4480 O 408.628 1.48712 -2.04062 0
M  V30 4481 C 409.941 -1.72072 -2.466 0
M  V30 4482 C 411.489 -1.73681 -2.60392 0
M  V30 4483 C 411.964 -2.73601 -3.67296 0
M  V30 4484 N 413.455 -2.7223 -3.7476 0
M  V30 4485 C 414.19 -3.46206 -4.57087 0
M  V30 4486 N 413.686 -4.29802 -5.43362 0
M  V30 4487 N 415.479 -3.34886 -4.51451 0
M  V30 4488 H 407.63 -1.92028 -0.9077 0
M  V30 4489 H 409.893 -0.828487 -0.460775 0
M  V30 4490 H 409.599 -2.74231 -2.20206 0
M  V30 4491 H 409.473 -1.51818 -3.45299 0
M  V30 4492 H 411.86 -0.722173 -2.86127 0
M  V30 4493 H 411.941 -1.98005 -1.61949 0
M  V30 4494 H 411.585 -3.75217 -3.42307 0
M  V30 4495 H 411.515 -2.46545 -4.65321 0
M  V30 4496 H 414.006 -2.11576 -3.1312 0
M  V30 4497 H 414.319 -4.83061 -6.03218 0
M  V30 4498 H 412.664 -4.33887 -5.42925 0
M  V30 4499 H 415.855 -2.69015 -3.83078 0
M  V30 4500 H 416.028 -3.92796 -5.15379 0
M  V30 4501 N 409.434 1.37368 -0.772513 0
M  V30 4502 C 410.384 2.27613 -0.132823 0
M  V30 4503 C 411.368 1.46138 0.673247 0
M  V30 4504 O 412.56 1.68686 0.536095 0
M  V30 4505 C 409.689 3.35122 0.744864 0
M  V30 4506 C 408.775 4.24044 -0.0690771 0
M  V30 4507 N 409.166 4.93355 -1.1151 0
M  V30 4508 C 407.464 4.45731 0.154782 0
M  V30 4509 C 408.165 5.59 -1.60917 0
M  V30 4510 N 407.141 5.35737 -0.921222 0
M  V30 4511 H 410.943 2.78675 -0.933681 0
M  V30 4512 H 408.457 1.50494 -0.610342 0
M  V30 4513 H 410.454 3.98683 1.21892 0
M  V30 4514 H 409.114 2.85616 1.54446 0
M  V30 4515 H 410.125 4.95785 -1.49726 0
M  V30 4516 H 406.802 4.07096 0.926224 0
M  V30 4517 H 408.192 6.24395 -2.48153 0
M  V30 4518 N 410.912 0.523116 1.48665 0
M  V30 4519 C 411.859 -0.243398 2.29513 0
M  V30 4520 C 412.829 -0.940139 1.36933 0
M  V30 4521 O 414.014 -0.942503 1.65896 0
M  V30 4522 C 411.154 -1.28855 3.20141 0
M  V30 4523 C 410.267 -0.60135 4.27794 0
M  V30 4524 C 409.402 -1.62884 5.05611 0
M  V30 4525 C 408.441 -0.924726 6.05075 0
M  V30 4526 N 407.578 -1.89744 6.75975 0
M  V30 4527 H 412.418 0.452234 2.94549 0
M  V30 4528 H 409.955 0.234858 1.45213 0
M  V30 4529 H 411.913 -1.90674 3.71079 0
M  V30 4530 H 410.543 -1.95266 2.57043 0
M  V30 4531 H 409.595 0.130623 3.80176 0
M  V30 4532 H 410.907 -0.0481585 4.98777 0
M  V30 4533 H 410.061 -2.32149 5.60528 0
M  V30 4534 H 408.8 -2.21592 4.34452 0
M  V30 4535 H 407.805 -0.217966 5.49368 0
M  V30 4536 H 409.03 -0.343851 6.78229 0
M  V30 4537 H 406.976 -2.47373 6.07571 0
M  V30 4538 H 406.893 -1.3955 7.43009 0
M  V30 4539 H 408.161 -2.58229 7.35485 0
M  V30 4540 N 412.39 -1.55475 0.257931 0
M  V30 4541 C 413.63 -2.01112 -0.365129 0
M  V30 4542 C 413.994 -1.1423 -1.54323 0
M  V30 4543 O 415.195 -1.49371 -2.23477 0
M  V30 4544 C 413.466 -3.49353 -0.754117 0
M  V30 4545 S 415.025 -4.16992 -1.36614 0
M  V30 4546 H 411.843 -0.701737 -0.114397 0
M  V30 4547 H 414.445 -1.91855 0.375747 0
M  V30 4548 H 413.149 -4.10246 0.112441 0
M  V30 4549 H 412.68 -3.6256 -1.52689 0
M  V30 4550 H 414.695 -4.19191 -2.65505 0
M  V30 4551 N 413.868 0.0150385 -1.57593 0
M  V30 4552 C 415.114 0.704043 -1.90187 0
M  V30 4553 C 415.447 1.74249 -0.857366 0
M  V30 4554 O 414.722 1.94092 0.125843 0
M  V30 4555 C 415.005 1.36087 -3.33395 0
M  V30 4556 C 414.858 0.334981 -4.48551 0
M  V30 4557 C 416.177 2.29112 -3.7576 0
M  V30 4558 H 413.296 0.254475 -0.691673 0
M  V30 4559 H 415.938 -0.0331678 -1.89971 0
M  V30 4560 H 414.088 1.98922 -3.3371 0
M  V30 4561 H 415.76 -0.292534 -4.60372 0
M  V30 4562 H 414.003 -0.344325 -4.32431 0
M  V30 4563 H 414.674 0.833316 -5.45674 0
M  V30 4564 H 417.15 1.76308 -3.76902 0
M  V30 4565 H 416.026 2.72043 -4.76743 0
M  V30 4566 H 416.287 3.16385 -3.08793 0
M  V30 4567 N 415.346 1.54954 0.287554 0
M  V30 4568 C 416.762 1.46469 0.633964 0
M  V30 4569 C 416.962 0.666865 1.90145 0
M  V30 4570 O 416.018 0.179906 2.51858 0
M  V30 4571 C 417.331 2.90556 0.774454 0
M  V30 4572 C 418.879 3.00681 0.869462 0
M  V30 4573 C 419.354 4.45993 1.04184 0
M  V30 4574 N 420.845 4.4976 1.10772 0
M  V30 4575 C 421.58 5.59393 1.25964 0
M  V30 4576 N 421.076 6.78923 1.37968 0
M  V30 4577 N 422.869 5.47107 1.28959 0
M  V30 4578 H 415.02 2.05288 -0.545041 0
M  V30 4579 H 417.283 0.930305 -0.182308 0
M  V30 4580 H 416.989 3.51594 -0.086207 0
M  V30 4581 H 416.863 3.38743 1.6593 0
M  V30 4582 H 419.25 2.39749 1.7206 0
M  V30 4583 H 419.331 2.55769 -0.0396831 0
M  V30 4584 H 418.975 5.07524 0.195422 0
M  V30 4585 H 418.905 4.88548 1.96542 0
M  V30 4586 H 421.396 3.63651 1.02794 0
M  V30 4587 H 421.709 7.58231 1.49353 0
M  V30 4588 H 420.054 6.81763 1.34999 0
M  V30 4589 H 423.245 4.52668 1.19202 0
M  V30 4590 H 423.418 6.32595 1.40455 0
M  V30 4591 N 416.824 -0.551391 1.4764 0
M  V30 4592 C 417.772 -1.67896 1.60978 0
M  V30 4593 C 418.766 -1.62549 0.476877 0
M  V30 4594 O 419.972 -1.67664 0.654878 0
M  V30 4595 H 416.347 -0.555649 0.506713 0
M  V30 4596 H 418.318 -1.53784 2.55721 0
M  V30 4597 C 417.067 -3.06234 1.64669 0
M  V30 4598 H 416.39 -3.11033 2.51194 0
M  V30 4599 H 417.83 -3.84804 1.7805 0
M  V30 4600 C 416.289 -3.34737 0.381115 0
M  V30 4601 O 416.819 -3.98381 -0.515297 0
M  V30 4602 N 415.025 -2.8944 0.259354 0
M  V30 4603 H 414.572 -2.37827 0.98976 0
M  V30 4604 H 414.53 -3.08882 -0.586464 0
M  V30 4605 N 418.302 -1.35869 -0.798587 0
M  V30 4606 C 419.549 -1.29588 -1.55606 0
M  V30 4607 C 419.877 0.127456 -1.94082 0
M  V30 4608 O 419.132 1.09461 -1.62225 0
M  V30 4609 C 419.431 -2.1556 -2.85077 0
M  V30 4610 C 419.097 -3.6424 -2.65781 0
M  V30 4611 C 417.759 -4.04766 -2.60227 0
M  V30 4612 C 420.111 -4.58547 -2.47758 0
M  V30 4613 C 417.439 -5.37753 -2.34603 0
M  V30 4614 C 419.791 -5.91742 -2.23662 0
M  V30 4615 C 418.455 -6.31402 -2.16534 0
M  V30 4616 H 417.725 -0.474197 -0.569402 0
M  V30 4617 H 420.372 -1.67839 -0.922086 0
M  V30 4618 H 418.677 -1.70216 -3.52893 0
M  V30 4619 H 420.374 -2.08031 -3.42818 0
M  V30 4620 H 416.964 -3.32086 -2.70956 0
M  V30 4621 H 421.148 -4.28117 -2.51056 0
M  V30 4622 H 416.404 -5.67474 -2.2756 0
M  V30 4623 H 420.578 -6.6439 -2.08708 0
M  V30 4624 H 418.205 -7.34381 -1.96441 0
M  V30 4625 N 419.78 1.02168 -1.19998 0
M  V30 4626 C 421.008 1.79296 -1.03249 0
M  V30 4627 C 421.423 1.84103 0.418502 0
M  V30 4628 O 420.78 1.29031 1.29063 0
M  V30 4629 C 420.831 3.24007 -1.60319 0
M  V30 4630 O 420.552 3.19512 -2.99739 0
M  V30 4631 C 422.053 4.17704 -1.48453 0
M  V30 4632 H 419.273 0.564016 -0.363493 0
M  V30 4633 H 421.817 1.28639 -1.58973 0
M  V30 4634 H 419.972 3.7183 -1.08727 0
M  V30 4635 H 420.386 4.10306 -3.26725 0
M  V30 4636 H 421.86 5.17104 -1.93153 0
M  V30 4637 H 422.337 4.37029 -0.436193 0
M  V30 4638 H 422.943 3.7576 -1.99211 0
M  V30 4639 N 421.258 1.00505 1.21394 0
M  V30 4640 C 422.221 0.570459 2.21987 0
M  V30 4641 C 423.221 -0.353211 1.56873 0
M  V30 4642 O 424.411 -0.14349 1.73608 0
M  V30 4643 C 421.543 -0.168555 3.40483 0
M  V30 4644 H 422.736 1.46021 2.6195 0
M  V30 4645 H 420.289 0.793565 1.34656 0
M  V30 4646 H 421.024 -1.07374 3.06009 0
M  V30 4647 H 420.809 0.494823 3.88965 0
M  V30 4648 H 422.299 -0.460362 4.15055 0
M  V30 4649 N 422.737 -1.36956 0.779787 0
M  V30 4650 C 423.667 -2.32761 0.185651 0
M  V30 4651 C 424.648 -1.56177 -0.673989 0
M  V30 4652 O 425.833 -1.84378 -0.609797 0
M  V30 4653 C 422.963 -3.40418 -0.687964 0
M  V30 4654 C 421.917 -4.27941 0.0710102 0
M  V30 4655 C 421.243 -5.26681 -0.922573 0
M  V30 4656 C 422.543 -5.07006 1.25467 0
M  V30 4657 H 424.237 -2.82698 0.986008 0
M  V30 4658 H 421.783 -1.3592 0.475592 0
M  V30 4659 H 423.736 -4.06423 -1.11348 0
M  V30 4660 H 422.46 -2.89025 -1.52093 0
M  V30 4661 H 421.119 -3.63478 0.47739 0
M  V30 4662 H 420.767 -4.71565 -1.7503 0
M  V30 4663 H 420.467 -5.86103 -0.419237 0
M  V30 4664 H 421.991 -5.9556 -1.34686 0
M  V30 4665 H 423.405 -5.66105 0.905401 0
M  V30 4666 H 421.802 -5.75793 1.69063 0
M  V30 4667 H 422.872 -4.3921 2.05481 0
M  V30 4668 N 424.215 -0.530993 -1.48385 0
M  V30 4669 C 425.163 0.244595 -2.3131 0
M  V30 4670 C 426.157 0.93451 -1.41291 0
M  V30 4671 O 427.363 0.85878 -1.58193 0
M  V30 4672 H 423.738 0.0977472 -0.74562 0
M  V30 4673 H 425.709 -0.474369 -2.94605 0
M  V30 4674 C 424.458 1.2779 -3.23365 0
M  V30 4675 H 423.781 0.756439 -3.92579 0
M  V30 4676 H 425.221 1.79198 -3.84271 0
M  V30 4677 C 423.68 2.31205 -2.45042 0
M  V30 4678 O 424.21 3.37661 -2.17596 0
M  V30 4679 N 422.416 2.04446 -2.0652 0
M  V30 4680 H 421.963 1.17891 -2.2904 0
M  V30 4681 H 421.921 2.73861 -1.54427 0
M  V30 4682 N 425.693 1.55336 -0.266172 0
M  V30 4683 C 426.941 1.99003 0.35246 0
M  V30 4684 C 427.262 1.15591 1.57047 0
M  V30 4685 O 426.532 0.243268 1.94384 0
M  V30 4686 H 425.112 0.735025 0.133217 0
M  V30 4687 H 427.774 1.91367 -0.369434 0
M  V30 4688 H 426.87 3.05289 0.648453 0
M  V30 4689 N 427.171 -0.0066808 1.57599 0
M  V30 4690 C 428.399 -0.704087 1.94551 0
M  V30 4691 C 428.814 -1.67677 0.867746 0
M  V30 4692 O 428.171 -1.8185 -0.153925 0
M  V30 4693 C 428.222 -1.44177 3.31505 0
M  V30 4694 O 427.943 -0.508097 4.35144 0
M  V30 4695 C 429.444 -2.23429 3.82876 0
M  V30 4696 H 426.664 -0.196523 0.641576 0
M  V30 4697 H 429.208 0.042453 2.04456 0
M  V30 4698 H 427.363 -2.13999 3.22929 0
M  V30 4699 H 427.777 -1.02782 5.14331 0
M  V30 4700 H 429.251 -2.70552 4.8115 0
M  V30 4701 H 429.728 -3.05818 3.15233 0
M  V30 4702 H 430.334 -1.58636 3.94607 0
M  V30 4703 N 428.649 -1.55105 -0.279332 0
M  V30 4704 C 429.597 -1.88333 -1.36505 0
M  V30 4705 C 430.591 -0.759043 -1.51443 0
M  V30 4706 O 431.797 -0.943312 -1.53302 0
M  V30 4707 H 428.172 -0.59766 -0.456406 0
M  V30 4708 H 430.143 -2.79041 -1.05728 0
M  V30 4709 C 428.892 -2.16628 -2.7197 0
M  V30 4710 H 428.215 -3.02624 -2.61264 0
M  V30 4711 H 429.655 -2.43803 -3.46895 0
M  V30 4712 C 428.114 -0.971807 -3.22579 0
M  V30 4713 O 428.644 -0.203228 -4.01186 0
M  V30 4714 N 426.85 -0.771238 -2.80179 0
M  V30 4715 H 426.397 -1.39792 -2.1637 0
M  V30 4716 H 426.355 0.0263667 -3.14389 0
M  V30 4717 N 430.127 0.543554 -1.4793 0
M  V30 4718 C 431.375 1.29752 -1.54948 0
M  V30 4719 C 431.696 1.93764 -0.219242 0
M  V30 4720 O 430.966 1.80639 0.75805 0
M  V30 4721 H 429.546 0.481874 -0.570795 0
M  V30 4722 H 432.208 0.633636 -1.84312 0
M  V30 4723 H 431.304 2.08392 -2.32334 0
M  V30 4724 N 431.605 1.3629 0.791371 0
M  V30 4725 C 432.83 1.33726 1.58531 0
M  V30 4726 C 433.255 -0.0794933 1.87932 0
M  V30 4727 O 432.613 -1.05087 1.47738 0
M  V30 4728 C 432.661 2.16425 2.88431 0
M  V30 4729 O 431.765 1.5554 3.81944 0
M  V30 4730 H 431.106 0.457793 0.480959 0
M  V30 4731 H 433.636 1.79547 0.981031 0
M  V30 4732 H 433.646 2.28933 3.37718 0
M  V30 4733 H 432.321 3.19415 2.66359 0
M  V30 4734 H 430.898 1.51961 3.40532 0
M  V30 4735 N 433.083 -1.0153 1.20538 0
M  V30 4736 C 434.329 -1.75408 1.01783 0
M  V30 4737 C 434.662 -1.88943 -0.448814 0
M  V30 4738 O 433.937 -1.4162 -1.33319 0
M  V30 4739 C 434.22 -3.17255 1.70356 0
M  V30 4740 C 434.073 -3.11508 3.24473 0
M  V30 4741 C 435.392 -4.15955 1.43769 0
M  V30 4742 H 432.511 -0.636713 0.371167 0
M  V30 4743 H 435.153 -1.18436 1.4857 0
M  V30 4744 H 433.303 -3.65898 1.30578 0
M  V30 4745 H 434.975 -2.70658 3.73553 0
M  V30 4746 H 433.218 -2.4887 3.55311 0
M  V30 4747 H 433.889 -4.11784 3.67611 0
M  V30 4748 H 436.365 -3.75973 1.7828 0
M  V30 4749 H 435.241 -5.13368 1.94279 0
M  V30 4750 H 435.502 -4.40586 0.365564 0
M  V30 4751 N 434.561 -1.01147 -1.20859 0
M  V30 4752 C 435.471 -0.58686 -2.27141 0
M  V30 4753 C 436.487 0.373198 -1.69951 0
M  V30 4754 O 437.663 0.235423 -2.00019 0
M  V30 4755 C 434.728 0.0733602 -3.46622 0
M  V30 4756 C 433.789 -0.931995 -4.19061 0
M  V30 4757 C 433.022 -0.303186 -5.32838 0
M  V30 4758 O 433.245 0.898395 -5.63281 0
M  V30 4759 O 432.179 -1.01735 -5.9324 0
M  V30 4760 H 436.005 -1.47155 -2.65667 0
M  V30 4761 H 433.59 -0.780689 -1.2738 0
M  V30 4762 H 435.472 0.442333 -4.19072 0
M  V30 4763 H 434.147 0.932329 -3.09983 0
M  V30 4764 H 433.054 -1.35224 -3.48805 0
M  V30 4765 H 434.387 -1.76076 -4.59628 0
M  V30 4766 N 436.039 1.36541 -0.78704 0
M  V30 4767 C 437.002 2.28413 -0.189778 0
M  V30 4768 C 438.002 1.48719 0.611499 0
M  V30 4769 O 439.192 1.68737 0.432842 0
M  V30 4770 C 436.324 3.32824 0.737638 0
M  V30 4771 H 437.517 2.82743 -0.999831 0
M  V30 4772 H 435.07 1.46065 -0.556298 0
M  V30 4773 H 435.805 2.83646 1.57212 0
M  V30 4774 H 435.59 3.91752 0.165044 0
M  V30 4775 H 437.08 4.0144 1.15047 0
M  V30 4776 N 437.518 0.538854 1.48102 0
M  V30 4777 C 438.795 -0.0568108 1.95517 0
M  V30 4778 C 439.175 -1.50408 1.48124 0
M  V30 4779 O 438.523 -2.17133 0.711727 0
M  V30 4780 C 438.733 0.0696262 3.48931 0
M  V30 4781 C 440.081 -0.0851202 4.24515 0
M  V30 4782 O 441.105 -0.0037347 3.562 0
M  V30 4783 O 439.964 -0.257025 5.45895 0
M  V30 4784 H 437.058 -0.0743695 0.823649 0
M  V30 4785 H 439.604 0.604081 1.58584 0
M  V30 4786 H 438.376 1.07744 3.76174 0
M  V30 4787 H 437.999 -0.629714 3.92582 0
M  V30 4788 N 438.996 -1.55193 0.274407 0
M  V30 4789 C 440.244 -1.99187 -0.341902 0
M  V30 4790 C 440.565 -1.16422 -1.56431 0
M  V30 4791 O 439.835 -0.253573 -1.94252 0
M  V30 4792 H 438.415 -0.735721 -0.129317 0
M  V30 4793 H 441.077 -1.91168 0.379578 0
M  V30 4794 H 440.173 -3.05629 -0.632253 0
M  V30 4795 N 440.474 -0.00167713 -1.576 0
M  V30 4796 C 441.404 0.988091 -2.11563 0
M  V30 4797 C 442.385 1.35736 -1.02517 0
M  V30 4798 O 443.57 1.44082 -1.30208 0
M  V30 4799 C 440.7 2.27941 -2.62031 0
M  V30 4800 C 439.654 2.0517 -3.75619 0
M  V30 4801 C 438.98 3.4033 -4.12407 0
M  V30 4802 C 440.28 1.41294 -5.02825 0
M  V30 4803 H 441.974 0.538771 -2.94513 0
M  V30 4804 H 439.52 0.257712 -1.41675 0
M  V30 4805 H 441.473 2.97539 -2.9841 0
M  V30 4806 H 440.197 2.74989 -1.76205 0
M  V30 4807 H 438.856 1.37998 -3.39635 0
M  V30 4808 H 438.504 3.85085 -3.23603 0
M  V30 4809 H 438.204 3.25909 -4.88935 0
M  V30 4810 H 439.728 4.1124 -4.51347 0
M  V30 4811 H 441.142 2.00851 -5.36965 0
M  V30 4812 H 439.539 1.37356 -5.84169 0
M  V30 4813 H 440.609 0.382362 -4.8339 0
M  V30 4814 N 441.952 1.55251 0.271103 0
M  V30 4815 C 443.198 1.76207 1.00394 0
M  V30 4816 C 443.531 0.562604 1.85872 0
M  V30 4817 O 442.806 -0.439785 1.89463 0
M  V30 4818 C 443.089 3.06828 1.8849 0
M  V30 4819 C 442.942 4.37134 1.05992 0
M  V30 4820 C 444.261 3.33503 2.87165 0
M  V30 4821 H 441.38 0.641086 0.363562 0
M  V30 4822 H 444.022 1.87982 0.276189 0
M  V30 4823 H 442.172 2.96921 2.5054 0
M  V30 4824 H 443.844 4.59001 0.459978 0
M  V30 4825 H 442.087 4.32275 0.363443 0
M  V30 4826 H 442.758 5.2486 1.70955 0
M  V30 4827 H 445.234 3.43215 2.3525 0
M  V30 4828 H 444.11 4.2616 3.45946 0
M  V30 4829 H 444.371 2.53235 3.62387 0
M  V30 4830 N 443.43 -0.535701 1.48216 0
M  V30 4831 C 444.676 -1.2913 1.57153 0
M  V30 4832 C 445.031 -1.90899 0.239823 0
M  V30 4833 O 444.324 -1.76022 -0.756748 0
M  V30 4834 C 444.518 -2.4068 2.64212 0
M  V30 4835 C 444.347 -1.89844 4.07663 0
M  V30 4836 C 443.117 -1.72708 4.74869 0
M  V30 4837 C 445.315 -1.43031 4.94011 0
M  V30 4838 N 443.297 -1.16437 6.02757 0
M  V30 4839 C 444.668 -0.986691 6.12098 0
M  V30 4840 C 446.723 -1.3128 4.80281 0
M  V30 4841 C 445.426 -0.437231 7.1797 0
M  V30 4842 C 447.452 -0.777346 5.86269 0
M  V30 4843 C 446.814 -0.343774 7.03561 0
M  V30 4844 H 442.913 -0.463753 0.629648 0
M  V30 4845 H 445.497 -0.604736 1.8507 0
M  V30 4846 H 443.668 -3.06839 2.38126 0
M  V30 4847 H 445.4 -3.07706 2.62867 0
M  V30 4848 H 442.155 -1.96061 4.31111 0
M  V30 4849 H 442.579 -0.903281 6.70947 0
M  V30 4850 H 447.221 -1.63408 3.89946 0
M  V30 4851 H 444.939 -0.103621 8.08034 0
M  V30 4852 H 448.525 -0.689688 5.77698 0
M  V30 4853 H 447.405 0.0641219 7.84174 0
M  V30 4854 N 444.908 -1.36708 -0.784132 0
M  V30 4855 C 445.818 -1.3363 -1.92822 0
M  V30 4856 C 446.834 -0.237686 -1.72369 0
M  V30 4857 O 448.01 -0.470962 -1.95816 0
M  V30 4858 C 445.075 -1.13011 -3.27764 0
M  V30 4859 C 444.136 -2.32397 -3.60957 0
M  V30 4860 C 443.369 -2.12752 -4.89461 0
M  V30 4861 O 443.592 -1.10541 -5.59586 0
M  V30 4862 O 442.526 -3.00653 -5.21432 0
M  V30 4863 H 446.352 -2.29964 -1.98369 0
M  V30 4864 H 443.937 -1.1731 -0.925136 0
M  V30 4865 H 445.819 -1.03451 -4.08504 0
M  V30 4866 H 444.494 -0.19743 -3.23097 0
M  V30 4867 H 443.401 -2.47527 -2.80502 0
M  V30 4868 H 444.734 -3.2419 -3.70354 0
M  V30 4869 N 446.386 1.0089 -1.21074 0
M  V30 4870 C 447.611 1.78727 -1.05221 0
M  V30 4871 C 448.036 1.83932 0.393795 0
M  V30 4872 O 447.394 1.28004 1.28393 0
M  V30 4873 C 447.442 3.20665 -1.64944 0
M  V30 4874 O 446.546 4.02632 -0.892273 0
M  V30 4875 H 445.887 0.550973 -0.370574 0
M  V30 4876 H 448.417 1.26847 -1.60534 0
M  V30 4877 H 448.427 3.71352 -1.69002 0
M  V30 4878 H 447.102 3.16191 -2.70177 0
M  V30 4879 H 445.679 3.61207 -0.926492 0
M  V30 4880 N 447.864 1.01787 1.20321 0
M  V30 4881 C 448.794 0.609625 2.25401 0
M  V30 4882 C 449.775 -0.375951 1.65893 0
M  V30 4883 O 450.96 -0.261101 1.92437 0
M  V30 4884 C 448.09 -0.0515995 3.47262 0
M  V30 4885 C 447.044 0.855095 4.19371 0
M  V30 4886 C 446.37 0.0595757 5.34667 0
M  V30 4887 C 447.67 2.16374 4.75373 0
M  V30 4888 H 449.364 1.48803 2.59804 0
M  V30 4889 H 446.91 0.716934 1.24884 0
M  V30 4890 H 448.863 -0.348764 4.19954 0
M  V30 4891 H 447.587 -0.964726 3.12027 0
M  V30 4892 H 446.246 1.13628 3.48546 0
M  V30 4893 H 445.894 -0.85524 4.95676 0
M  V30 4894 H 445.594 0.663406 5.83843 0
M  V30 4895 H 447.118 -0.231105 6.10162 0
M  V30 4896 H 448.532 1.92885 5.39878 0
M  V30 4897 H 446.929 2.71853 5.34991 0
M  V30 4898 H 447.999 2.82589 3.94045 0
M  V30 4899 N 449.342 -1.36122 0.79427 0
M  V30 4900 C 450.619 -1.93398 0.292685 0
M  V30 4901 C 450.999 -1.72567 -1.21589 0
M  V30 4902 O 450.347 -1.08745 -2.00965 0
M  V30 4903 C 450.557 -3.42099 0.690614 0
M  V30 4904 C 451.905 -4.19231 0.673105 0
M  V30 4905 O 452.929 -3.50559 0.631389 0
M  V30 4906 O 451.788 -5.41732 0.720362 0
M  V30 4907 H 448.882 -0.823712 0.0736693 0
M  V30 4908 H 451.428 -1.45273 0.87714 0
M  V30 4909 H 450.2 -3.50938 1.73085 0
M  V30 4910 H 449.823 -3.97519 0.0803036 0
M  V30 4911 N 450.82 -0.546701 -1.47814 0
M  V30 4912 C 451.75 0.195317 -2.32682 0
M  V30 4913 C 452.731 0.918981 -1.43139 0
M  V30 4914 O 453.916 0.901501 -1.72008 0
M  V30 4915 C 451.046 1.23237 -3.247 0
M  V30 4916 C 450 0.625818 -4.234 0
M  V30 4917 C 449.326 1.76674 -5.04669 0
M  V30 4918 C 450.626 -0.413515 -5.2066 0
M  V30 4919 H 452.32 -0.513184 -2.94969 0
M  V30 4920 H 449.866 -0.248241 -1.41844 0
M  V30 4921 H 451.819 1.75955 -3.82907 0
M  V30 4922 H 450.543 1.97067 -2.60446 0
M  V30 4923 H 449.202 0.120023 -3.66403 0
M  V30 4924 H 448.85 2.49383 -4.36826 0
M  V30 4925 H 448.55 1.36673 -5.71484 0
M  V30 4926 H 450.074 2.29738 -5.65732 0
M  V30 4927 H 451.488 0.0272042 -5.73294 0
M  V30 4928 H 449.885 -0.731825 -5.95621 0
M  V30 4929 H 450.955 -1.31325 -4.66778 0
M  V30 4930 N 452.299 1.55045 -0.282633 0
M  V30 4931 C 453.529 2.03872 0.334635 0
M  V30 4932 C 453.937 1.16018 1.49454 0
M  V30 4933 O 453.28 0.174449 1.8287 0
M  V30 4934 C 453.342 3.48791 0.870905 0
M  V30 4935 C 453.006 4.56715 -0.161338 0
M  V30 4936 C 454.003 5.10513 -0.983466 0
M  V30 4937 C 451.688 5.01417 -0.297745 0
M  V30 4938 C 453.682 6.07538 -1.92811 0
M  V30 4939 C 451.369 5.98265 -1.24586 0
M  V30 4940 C 452.367 6.51208 -2.05954 0
M  V30 4941 O 452.055 7.46162 -2.99162 0
M  V30 4942 H 451.787 0.671324 0.0793742 0
M  V30 4943 H 454.341 2.01169 -0.41473 0
M  V30 4944 H 452.571 3.48758 1.67047 0
M  V30 4945 H 454.26 3.80916 1.40207 0
M  V30 4946 H 455.026 4.76785 -0.888856 0
M  V30 4947 H 450.905 4.59849 0.325604 0
M  V30 4948 H 454.449 6.48787 -2.56363 0
M  V30 4949 H 450.346 6.31412 -1.34126 0
M  V30 4950 H 451.114 7.63903 -2.93929 0
M  V30 4951 N 453.777 0.010035 1.57597 0
M  V30 4952 C 454.707 -0.976857 2.12084 0
M  V30 4953 C 455.688 -1.35191 1.03235 0
M  V30 4954 O 456.873 -1.43389 1.3097 0
M  V30 4955 C 454.003 -2.26548 2.63236 0
M  V30 4956 C 452.957 -2.03175 3.76701 0
M  V30 4957 C 452.283 -3.38138 4.14206 0
M  V30 4958 C 453.583 -1.38625 5.03568 0
M  V30 4959 H 455.277 -0.523145 2.94794 0
M  V30 4960 H 452.823 -0.250195 1.4181 0
M  V30 4961 H 454.776 -2.95952 2.99984 0
M  V30 4962 H 453.5 -2.74051 1.77661 0
M  V30 4963 H 452.159 -1.36195 3.40362 0
M  V30 4964 H 451.807 -3.83363 3.25641 0
M  V30 4965 H 451.507 -3.23312 4.90656 0
M  V30 4966 H 453.031 -4.08841 4.53521 0
M  V30 4967 H 454.445 -1.98 5.38023 0
M  V30 4968 H 452.842 -1.34256 5.84889 0
M  V30 4969 H 453.912 -0.356722 4.83586 0
M  V30 4970 N 455.255 -1.55392 -0.262866 0
M  V30 4971 C 456.48 -1.80847 -1.01533 0
M  V30 4972 C 456.905 -0.584946 -1.78774 0
M  V30 4973 O 456.263 0.465701 -1.75217 0
M  V30 4974 C 456.311 -3.03866 -1.94159 0
M  V30 4975 O 455.415 -2.79662 -3.03089 0
M  V30 4976 H 454.756 -0.597441 -0.289759 0
M  V30 4977 H 457.286 -2.02553 -0.288698 0
M  V30 4978 H 457.296 -3.32872 -2.35924 0
M  V30 4979 H 455.971 -3.92564 -1.37354 0
M  V30 4980 H 454.548 -2.61781 -2.65566 0
M  V30 4981 N 456.733 0.527833 -1.48498 0
M  V30 4982 C 458.01 1.28905 -1.47115 0
M  V30 4983 C 458.39 2.10297 -0.184007 0
M  V30 4984 O 457.738 2.12728 0.834218 0
M  V30 4985 C 457.948 2.16866 -2.73441 0
M  V30 4986 C 459.296 2.76936 -3.21857 0
M  V30 4987 O 460.32 2.27152 -2.74373 0
M  V30 4988 O 459.179 3.67496 -4.04486 0
M  V30 4989 H 456.273 0.581918 -0.587623 0
M  V30 4990 H 458.819 0.544311 -1.60734 0
M  V30 4991 H 457.591 1.56521 -3.58632 0
M  V30 4992 H 457.214 2.98583 -2.62553 0
M  V30 4993 N 458.211 1.37122 0.776871 0
M  V30 4994 C 459.622 1.28667 1.35284 0
M  V30 4995 C 459.973 -0.0680035 1.96082 0
M  V30 4996 O 459.098 -0.969743 1.93455 0
M  V30 4997 C 459.693 2.32997 2.45963 0
M  V30 4998 C 458.252 2.28191 2.99342 0
M  V30 4999 C 457.399 2.17101 1.72517 0
M  V30 5000 H 460.35 1.47819 0.577527 0
M  V30 5001 H 460.371 1.97366 3.2531 0
M  V30 5002 H 459.883 3.3158 2.01684 0
M  V30 5003 H 457.984 1.33115 3.4801 0
M  V30 5004 H 458.097 3.21397 3.55304 0
M  V30 5005 H 456.461 1.63562 1.95242 0
M  V30 5006 H 457.244 3.17591 1.30348 0
M  V30 5007 N 459.689 -1.00246 1.21608 0
M  V30 5008 C 460.599 -2.12515 0.993709 0
M  V30 5009 C 461.615 -1.73913 -0.0549939 0
M  V30 5010 O 462.791 -2.00943 0.135619 0
M  V30 5011 C 459.856 -3.42083 0.563953 0
M  V30 5012 C 458.917 -3.94843 1.68516 0
M  V30 5013 C 458.15 -5.18226 1.27582 0
M  V30 5014 O 458.373 -5.70201 0.150506 0
M  V30 5015 O 457.307 -5.64497 2.0887 0
M  V30 5016 H 461.133 -2.34152 1.93407 0
M  V30 5017 H 458.718 -1.10891 1.00118 0
M  V30 5018 H 460.6 -4.20073 0.334194 0
M  V30 5019 H 459.275 -3.21828 -0.347665 0
M  V30 5020 H 458.182 -3.18068 1.96935 0
M  V30 5021 H 459.515 -4.19512 2.5743 0
M  V30 5022 N 461.167 -1.02423 -1.1978 0
M  V30 5023 C 462.115 -0.594474 -2.24875 0
M  V30 5024 C 463.109 0.370598 -1.65296 0
M  V30 5025 O 464.315 0.239684 -1.78397 0
M  V30 5026 H 460.69 -0.173961 -0.731602 0
M  V30 5027 H 462.661 -1.4916 -2.58445 0
M  V30 5028 C 461.41 0.0436512 -3.47673 0
M  V30 5029 H 460.733 -0.689963 -3.93801 0
M  V30 5030 H 462.173 0.307362 -4.22884 0
M  V30 5031 C 460.632 1.28881 -3.11274 0
M  V30 5032 O 461.162 2.38135 -3.23503 0
M  V30 5033 N 459.368 1.1758 -2.6575 0
M  V30 5034 H 458.915 0.286769 -2.55999 0
M  V30 5035 H 458.873 2.00988 -2.41767 0
M  V30 5036 N 462.645 1.35699 -0.801477 0
M  V30 5037 C 463.875 2.02862 -0.3912 0
M  V30 5038 C 464.283 1.60552 1.00099 0
M  V30 5039 O 463.626 0.796215 1.65548 0
M  V30 5040 C 463.688 3.57386 -0.389299 0
M  V30 5041 C 463.352 4.22943 -1.73113 0
M  V30 5042 C 464.349 4.44984 -2.68859 0
M  V30 5043 C 462.034 4.60167 -2.01373 0
M  V30 5044 C 464.028 5.03345 -3.91053 0
M  V30 5045 C 461.715 5.18243 -3.23832 0
M  V30 5046 C 462.713 5.39773 -4.1849 0
M  V30 5047 O 462.401 5.96626 -5.38788 0
M  V30 5048 H 462.133 0.657341 -0.157732 0
M  V30 5049 H 464.687 1.74407 -1.08496 0
M  V30 5050 H 462.917 3.85011 0.361031 0
M  V30 5051 H 464.606 4.059 -0.0020365 0
M  V30 5052 H 465.372 4.1661 -2.48316 0
M  V30 5053 H 461.251 4.42726 -1.28508 0
M  V30 5054 H 464.795 5.20065 -4.64949 0
M  V30 5055 H 460.692 5.46044 -3.44248 0
M  V30 5056 H 461.46 6.15082 -5.40015 0
M  V30 5057 N 464.123 0.554532 1.47522 0
M  V30 5058 C 465.053 -0.182974 2.32782 0
M  V30 5059 C 466.034 -0.911377 1.43624 0
M  V30 5060 O 467.219 -0.892366 1.72483 0
M  V30 5061 C 464.349 -1.21513 3.25349 0
M  V30 5062 C 463.303 -0.603355 4.23726 0
M  V30 5063 C 462.629 -1.73995 5.05598 0
M  V30 5064 C 463.929 0.441121 5.20434 0
M  V30 5065 H 465.623 0.52882 2.94693 0
M  V30 5066 H 463.169 0.255759 1.41711 0
M  V30 5067 H 465.122 -1.73922 3.83835 0
M  V30 5068 H 463.846 -1.95683 2.61487 0
M  V30 5069 H 462.505 -0.10059 3.66462 0
M  V30 5070 H 462.153 -2.47063 4.38143 0
M  V30 5071 H 461.853 -1.3364 5.72201 0
M  V30 5072 H 463.377 -2.26735 5.66942 0
M  V30 5073 H 464.791 0.00319931 5.733 0
M  V30 5074 H 463.188 0.763402 5.95224 0
M  V30 5075 H 464.258 1.33799 4.66075 0
M  V30 5076 N 465.601 -1.54893 0.290851 0
M  V30 5077 C 466.531 -2.26103 -0.583084 0
M  V30 5078 C 467.512 -1.25684 -1.14619 0
M  V30 5079 O 468.697 -1.54436 -1.17741 0
M  V30 5080 C 465.827 -2.99409 -1.75987 0
M  V30 5081 C 464.781 -4.0689 -1.32758 0
M  V30 5082 C 464.107 -4.67856 -2.58872 0
M  V30 5083 C 465.407 -5.20215 -0.46624 0
M  V30 5084 H 467.101 -2.99398 0.0108214 0
M  V30 5085 H 464.647 -1.43998 0.00664468 0
M  V30 5086 H 466.6 -3.47943 -2.37727 0
M  V30 5087 H 465.324 -2.23675 -2.37985 0
M  V30 5088 H 463.983 -3.59191 -0.733299 0
M  V30 5089 H 463.631 -3.88772 -3.19163 0
M  V30 5090 H 463.331 -5.40438 -2.30653 0
M  V30 5091 H 464.855 -5.19147 -3.21433 0
M  V30 5092 H 466.269 -5.64704 -0.989047 0
M  V30 5093 H 464.666 -5.99455 -0.27826 0
M  V30 5094 H 465.736 -4.82198 0.511173 0
M  V30 5095 N 467.08 -0.0183926 -1.57589 0
M  V30 5096 C 468.027 0.967022 -2.09565 0
M  V30 5097 C 468.997 1.32983 -0.995225 0
M  V30 5098 O 470.182 1.42501 -1.26878 0
M  V30 5099 C 467.322 2.24772 -2.61861 0
M  V30 5100 C 466.435 1.94232 -3.85873 0
M  V30 5101 C 465.57 3.16518 -4.26603 0
M  V30 5102 C 464.609 2.81748 -5.43401 0
M  V30 5103 N 463.746 3.96626 -5.79338 0
M  V30 5104 H 468.586 0.516874 -2.93483 0
M  V30 5105 H 466.123 0.243544 -1.4507 0
M  V30 5106 H 468.081 2.99667 -2.90268 0
M  V30 5107 H 466.711 2.67423 -1.8079 0
M  V30 5108 H 465.763 1.09625 -3.64262 0
M  V30 5109 H 467.075 1.64616 -4.70853 0
M  V30 5110 H 466.229 3.99743 -4.56389 0
M  V30 5111 H 464.968 3.49286 -3.40368 0
M  V30 5112 H 463.973 1.96933 -5.1332 0
M  V30 5113 H 465.198 2.50207 -6.31327 0
M  V30 5114 H 463.144 4.29257 -4.96059 0
M  V30 5115 H 463.061 3.70598 -6.58933 0
M  V30 5116 H 464.329 4.80586 -6.13724 0
M  V30 5117 N 468.558 1.5553 0.254621 0
M  V30 5118 C 469.506 1.9048 1.33492 0
M  V30 5119 C 470.5 0.78304 1.50216 0
M  V30 5120 O 471.706 0.967582 1.51782 0
M  V30 5121 H 468.081 0.604846 0.44684 0
M  V30 5122 H 470.052 2.80688 1.01275 0
M  V30 5123 C 468.801 2.20928 2.68489 0
M  V30 5124 H 468.124 3.06742 2.56417 0
M  V30 5125 H 469.564 2.49291 3.42972 0
M  V30 5126 C 468.023 1.023 3.20993 0
M  V30 5127 O 468.553 0.267027 4.00811 0
M  V30 5128 N 466.759 0.815714 2.78917 0
M  V30 5129 H 466.306 1.43217 2.14119 0
M  V30 5130 H 466.264 0.0236532 3.14391 0
M  V30 5131 N 470.036 -0.519951 1.48776 0
M  V30 5132 C 471.284 -1.2727 1.56993 0
M  V30 5133 C 471.605 -1.9339 0.25004 0
M  V30 5134 O 470.875 -1.81822 -0.729216 0
M  V30 5135 H 469.455 -0.472732 0.578389 0
M  V30 5136 H 472.117 -0.604234 1.85297 0
M  V30 5137 H 471.213 -2.04669 2.3562 0
M  V30 5138 N 471.514 -1.37532 -0.769588 0
M  V30 5139 C 472.742 -1.36059 -1.55871 0
M  V30 5140 C 473.157 0.053544 -1.88724 0
M  V30 5141 O 472.514 1.01591 -1.5161 0
M  V30 5142 C 472.565 -2.20107 -2.86767 0
M  V30 5143 O 472.286 -3.56009 -2.55321 0
M  V30 5144 C 473.787 -2.26636 -3.80987 0
M  V30 5145 H 471.007 -0.465967 -0.482821 0
M  V30 5146 H 473.551 -1.80901 -0.953686 0
M  V30 5147 H 471.706 -1.78768 -3.43687 0
M  V30 5148 H 472.12 -4.0009 -3.39158 0
M  V30 5149 H 473.594 -2.89763 -4.69831 0
M  V30 5150 H 474.071 -1.2754 -4.20274 0
M  V30 5151 H 474.677 -2.68296 -3.29996 0
M  V30 5152 N 472.992 0.995999 -1.22138 0
M  V30 5153 C 474.217 1.77601 -1.0711 0
M  V30 5154 C 474.642 1.84339 0.374264 0
M  V30 5155 O 474 1.29359 1.27028 0
M  V30 5156 C 474.048 3.18897 -1.68336 0
M  V30 5157 O 473.152 4.01663 -0.934928 0
M  V30 5158 H 472.493 0.547011 -0.376397 0
M  V30 5159 H 475.023 1.25137 -1.6187 0
M  V30 5160 H 475.033 3.69539 -1.72931 0
M  V30 5161 H 473.708 3.13308 -2.73516 0
M  V30 5162 H 472.285 3.60204 -0.964751 0
M  V30 5163 N 474.47 1.03057 1.19235 0
M  V30 5164 C 475.747 0.642608 1.84743 0
M  V30 5165 C 476.127 -0.878577 1.91948 0
M  V30 5166 O 475.475 -1.77597 1.43776 0
M  V30 5167 C 475.685 1.30665 3.23616 0
M  V30 5168 C 477.033 1.43098 3.9976 0
M  V30 5169 O 478.057 1.26396 3.3302 0
M  V30 5170 O 476.916 1.70223 5.19313 0
M  V30 5171 H 474.01 0.223573 0.796206 0
M  V30 5172 H 476.556 1.12883 1.26711 0
M  V30 5173 H 475.328 2.34544 3.13217 0
M  V30 5174 H 474.951 0.808405 3.89295 0
M  V30 5175 N 475.948 -1.35272 0.808662 0
M  V30 5176 C 477.194 -1.99003 0.390581 0
M  V30 5177 C 477.527 -1.63999 -1.0401 0
M  V30 5178 O 476.802 -0.904368 -1.72196 0
M  V30 5179 C 477.085 -3.55454 0.576566 0
M  V30 5180 C 476.938 -4.00249 2.05233 0
M  V30 5181 C 478.257 -4.401 0.00354277 0
M  V30 5182 H 475.376 -0.722917 0.143388 0
M  V30 5183 H 478.018 -1.6039 1.01858 0
M  V30 5184 H 476.168 -3.88477 0.0419766 0
M  V30 5185 H 477.84 -3.77626 2.64946 0
M  V30 5186 H 476.083 -3.51082 2.54801 0
M  V30 5187 H 476.754 -5.0911 2.13333 0
M  V30 5188 H 479.23 -4.13548 0.460117 0
M  V30 5189 H 478.106 -5.48656 0.163575 0
M  V30 5190 H 478.367 -4.28444 -1.09032 0
M  V30 5191 N 477.426 -0.562348 -1.47226 0
M  V30 5192 C 478.356 0.170627 -2.32876 0
M  V30 5193 C 479.337 0.903748 -1.44106 0
M  V30 5194 O 480.522 0.883206 -1.72954 0
M  V30 5195 C 477.652 1.19786 -3.25989 0
M  V30 5196 C 476.606 0.580875 -4.2404 0
M  V30 5197 C 475.932 1.71311 -5.06514 0
M  V30 5198 C 477.232 -0.468714 -5.20193 0
M  V30 5199 H 478.926 -0.544441 -2.94408 0
M  V30 5200 H 476.472 -0.263271 -1.41573 0
M  V30 5201 H 478.425 1.71884 -3.84752 0
M  V30 5202 H 477.149 1.94294 -2.62521 0
M  V30 5203 H 475.808 0.0811538 -3.6651 0
M  V30 5204 H 475.456 2.44736 -4.39447 0
M  V30 5205 H 475.156 1.30604 -5.72902 0
M  V30 5206 H 476.68 2.23725 -5.68137 0
M  V30 5207 H 478.094 -0.0336028 -5.7329 0
M  V30 5208 H 476.491 -0.794957 -5.94811 0
M  V30 5209 H 477.561 -1.36269 -4.65359 0
M  V30 5210 N 478.904 1.54736 -0.299062 0
M  V30 5211 C 479.834 2.26409 0.571085 0
M  V30 5212 C 480.815 1.2629 1.13951 0
M  V30 5213 O 482 1.55059 1.16921 0
M  V30 5214 C 479.13 3.00338 1.74396 0
M  V30 5215 C 478.084 4.07588 1.30599 0
M  V30 5216 C 477.41 4.69222 2.56387 0
M  V30 5217 C 478.71 5.20455 0.438645 0
M  V30 5218 H 480.404 2.99388 -0.0266991 0
M  V30 5219 H 477.95 1.43993 -0.0142812 0
M  V30 5220 H 479.903 3.49198 2.35878 0
M  V30 5221 H 478.627 2.24934 2.36796 0
M  V30 5222 H 477.286 3.59575 0.71424 0
M  V30 5223 H 476.934 3.9046 3.17097 0
M  V30 5224 H 476.634 5.41653 2.27784 0
M  V30 5225 H 478.158 5.20844 3.18675 0
M  V30 5226 H 479.572 5.65221 0.959085 0
M  V30 5227 H 477.969 5.99594 0.246466 0
M  V30 5228 H 479.039 4.8192 -0.536738 0
M  V30 5229 N 480.382 0.0267497 1.57577 0
M  V30 5230 C 481.622 -0.65659 1.93567 0
M  V30 5231 C 481.986 -1.69429 0.903213 0
M  V30 5232 O 483.187 -2.42994 1.14923 0
M  V30 5233 C 481.458 -1.25912 3.34486 0
M  V30 5234 S 483.017 -1.96386 3.924 0
M  V30 5235 H 479.835 -0.216237 0.67732 0
M  V30 5236 H 482.437 0.0898475 1.95293 0
M  V30 5237 H 481.141 -0.491405 4.07447 0
M  V30 5238 H 480.672 -2.04291 3.36198 0
M  V30 5239 H 482.687 -3.24202 3.75643 0
M  V30 5240 N 481.861 -1.55662 -0.24637 0
M  V30 5241 C 483.109 -1.77168 -0.972411 0
M  V30 5242 C 483.43 -0.590827 -1.85834 0
M  V30 5243 O 482.7 0.393365 -1.9191 0
M  V30 5244 H 481.28 -0.653405 -0.362038 0
M  V30 5245 H 483.942 -1.93101 -0.264189 0
M  V30 5246 H 483.038 -2.68335 -1.59382 0
M  V30 5247 N 483.339 0.512053 -1.4905 0
M  V30 5248 C 484.287 1.63568 -1.65373 0
M  V30 5249 C 485.281 1.61228 -0.519806 0
M  V30 5250 O 486.487 1.65869 -0.699101 0
M  V30 5251 H 482.862 0.542019 -0.521267 0
M  V30 5252 H 484.833 1.4695 -2.59708 0
M  V30 5253 C 483.582 3.01761 -1.7273 0
M  V30 5254 H 482.905 3.04263 -2.59353 0
M  V30 5255 H 484.345 3.79948 -1.8819 0
M  V30 5256 C 482.804 3.33609 -0.46973 0
M  V30 5257 O 483.334 3.99607 0.409492 0
M  V30 5258 N 481.54 2.88651 -0.336003 0
M  V30 5259 H 481.087 2.35119 -1.05247 0
M  V30 5260 H 481.045 3.10328 0.504363 0
M  V30 5261 N 484.817 1.37938 0.762283 0
M  V30 5262 C 486.042 1.37059 1.55659 0
M  V30 5263 C 486.467 -0.0396123 1.88058 0
M  V30 5264 O 485.825 -1.01929 1.49934 0
M  V30 5265 C 485.873 2.22494 2.83776 0
M  V30 5266 O 484.977 1.63607 3.78559 0
M  V30 5267 H 484.318 0.467892 0.47114 0
M  V30 5268 H 486.848 1.81587 0.942725 0
M  V30 5269 H 486.858 2.36045 3.32786 0
M  V30 5270 H 485.533 3.24993 2.59524 0
M  V30 5271 H 484.11 1.5915 3.37233 0
M  V30 5272 N 486.295 -0.989507 1.22664 0
M  V30 5273 C 487.52 -1.77031 1.08051 0
M  V30 5274 C 487.945 -1.84535 -0.364483 0
M  V30 5275 O 487.303 -1.3003 -1.2634 0
M  V30 5276 C 487.351 -3.18 1.70024 0
M  V30 5277 O 486.455 -4.01161 0.956216 0
M  V30 5278 H 485.796 -0.545008 0.379292 0
M  V30 5279 H 488.326 -1.24277 1.62531 0
M  V30 5280 H 488.336 -3.68616 1.74888 0
M  V30 5281 H 487.011 -3.11853 2.75174 0
M  V30 5282 H 485.588 -3.59687 0.98384 0
M  V30 5283 N 487.773 -1.03688 -1.18687 0
M  V30 5284 C 489.05 -0.652397 -1.84399 0
M  V30 5285 C 489.43 0.868386 -1.92412 0
M  V30 5286 O 488.778 1.76832 -1.44716 0
M  V30 5287 C 488.988 -1.3238 -3.22919 0
M  V30 5288 C 490.336 -1.45216 -3.98996 0
M  V30 5289 O 491.36 -1.2816 -3.32345 0
M  V30 5290 O 490.219 -1.72975 -5.18403 0
M  V30 5291 H 487.313 -0.227793 -0.795009 0
M  V30 5292 H 489.859 -1.13553 -1.2611 0
M  V30 5293 H 488.631 -2.36202 -3.11968 0
M  V30 5294 H 488.254 -0.829039 -3.88861 0
M  V30 5295 N 489.251 1.34841 -0.815825 0
M  V30 5296 C 490.214 2.27959 -0.238185 0
M  V30 5297 C 491.214 1.49983 0.579816 0
M  V30 5298 O 492.404 1.69617 0.396953 0
M  V30 5299 C 489.536 3.34314 0.666876 0
M  V30 5300 H 490.729 2.80558 -1.05958 0
M  V30 5301 H 488.282 1.44852 -0.587156 0
M  V30 5302 H 489.017 2.86916 1.5116 0
M  V30 5303 H 488.802 3.92014 0.0819106 0
M  V30 5304 H 490.292 4.0379 1.06506 0
M  V30 5305 N 490.729 0.570148 1.46925 0
M  V30 5306 C 491.977 0.0508523 2.02036 0
M  V30 5307 C 492.298 -1.30885 1.44548 0
M  V30 5308 O 491.568 -1.85647 0.625453 0
M  V30 5309 H 490.148 0.0158088 0.746833 0
M  V30 5310 H 492.81 0.743086 1.80178 0
M  V30 5311 H 491.906 -0.027575 3.12088 0
M  V30 5312 N 492.207 -1.54576 0.307264 0
M  V30 5313 C 493.435 -2.04675 -0.302597 0
M  V30 5314 C 493.85 -1.18425 -1.47041 0
M  V30 5315 O 493.207 -0.211257 -1.81273 0
M  V30 5316 C 493.258 -3.53575 -0.752801 0
M  V30 5317 O 492.979 -4.36547 0.368536 0
M  V30 5318 C 494.48 -4.19699 -1.42717 0
M  V30 5319 H 491.7 -0.66786 -0.0648374 0
M  V30 5320 H 494.244 -1.99516 0.448716 0
M  V30 5321 H 492.399 -3.59074 -1.45412 0
M  V30 5322 H 492.813 -5.24497 0.0168937 0
M  V30 5323 H 494.287 -5.25388 -1.69327 0
M  V30 5324 H 494.764 -3.69815 -2.36925 0
M  V30 5325 H 495.37 -4.18293 -0.768856 0
M  V30 5326 N 493.685 -0.035106 -1.57561 0
M  V30 5327 C 494.925 0.646316 -1.93913 0
M  V30 5328 C 495.289 1.68947 -0.912185 0
M  V30 5329 O 496.49 2.42381 -1.1621 0
M  V30 5330 C 494.761 1.24136 -3.35149 0
M  V30 5331 S 496.32 1.94302 -3.93436 0
M  V30 5332 H 493.138 0.212642 -0.678457 0
M  V30 5333 H 495.74 -0.100203 -1.95243 0
M  V30 5334 H 494.444 0.46979 -4.07702 0
M  V30 5335 H 493.975 2.02505 -3.37276 0
M  V30 5336 H 495.99 3.22205 -3.77357 0
M  V30 5337 N 495.163 1.55791 0.238111 0
M  V30 5338 C 496.574 1.68383 0.806472 0
M  V30 5339 C 496.925 0.634157 1.85669 0
M  V30 5340 O 496.05 -0.217913 2.153 0
M  V30 5341 C 496.645 3.05268 1.46959 0
M  V30 5342 C 495.204 3.1977 1.98555 0
M  V30 5343 C 494.351 2.64279 0.839763 0
M  V30 5344 H 497.302 1.58694 0.0137535 0
M  V30 5345 H 497.323 3.00203 2.33792 0
M  V30 5346 H 496.835 3.81643 0.704993 0
M  V30 5347 H 494.936 2.48234 2.77868 0
M  V30 5348 H 495.049 4.26788 2.17689 0
M  V30 5349 H 493.413 2.22329 1.24265 0
M  V30 5350 H 494.196 3.43187 0.0881032 0
M  V30 5351 N 496.642 -0.504142 1.49319 0
M  V30 5352 C 497.552 -1.63248 1.68486 0
M  V30 5353 C 498.568 -1.64488 0.567432 0
M  V30 5354 O 499.744 -1.82966 0.841749 0
M  V30 5355 C 496.809 -2.99627 1.74426 0
M  V30 5356 C 495.87 -3.09039 2.97982 0
M  V30 5357 C 495.103 -4.38913 3.0363 0
M  V30 5358 O 495.326 -5.27528 2.16958 0
M  V30 5359 O 494.26 -4.53231 3.96062 0
M  V30 5360 H 498.086 -1.50008 2.64067 0
M  V30 5361 H 495.671 -0.680086 1.33023 0
M  V30 5362 H 497.553 -3.80689 1.80705 0
M  V30 5363 H 496.228 -3.13136 0.820233 0
M  V30 5364 H 495.135 -2.27177 2.97223 0
M  V30 5365 H 496.468 -3.00456 3.89855 0
M  V30 5366 N 498.12 -1.38341 -0.754957 0
M  V30 5367 C 499.368 -1.34208 -1.51105 0
M  V30 5368 C 499.689 0.0677634 -1.94882 0
M  V30 5369 O 498.959 1.01517 -1.67544 0
M  V30 5370 H 497.539 -0.493819 -0.560493 0
M  V30 5371 H 500.201 -1.73005 -0.897507 0
M  V30 5372 H 499.297 -1.99203 -2.4026 0
M  V30 5373 N 499.598 0.982988 -1.23187 0
M  V30 5374 C 500.828 1.75666 -1.08743 0
M  V30 5375 C 501.236 1.85662 0.364195 0
M  V30 5376 O 500.579 1.33317 1.26382 0
M  V30 5377 C 500.641 3.20144 -1.63549 0
M  V30 5378 C 500.305 3.33665 -3.12277 0
M  V30 5379 C 501.302 3.20194 -4.096 0
M  V30 5380 C 498.987 3.58397 -3.51933 0
M  V30 5381 C 500.981 3.31256 -5.44563 0
M  V30 5382 C 498.668 3.69098 -4.87042 0
M  V30 5383 C 499.666 3.55537 -5.83166 0
M  V30 5384 O 499.354 3.65864 -7.1582 0
M  V30 5385 H 499.086 0.558194 -0.381307 0
M  V30 5386 H 501.64 1.24387 -1.63454 0
M  V30 5387 H 499.87 3.72659 -1.03256 0
M  V30 5388 H 501.559 3.79262 -1.4462 0
M  V30 5389 H 502.325 3.00987 -3.80305 0
M  V30 5390 H 498.204 3.68025 -2.77631 0
M  V30 5391 H 501.748 3.20588 -6.19572 0
M  V30 5392 H 497.645 3.87814 -5.16014 0
M  V30 5393 H 498.413 3.82675 -7.23534 0
M  V30 5394 N 501.076 1.04316 1.18135 0
M  V30 5395 C 502.492 0.762858 1.40188 0
M  V30 5396 C 502.692 -0.646547 1.90846 0
M  V30 5397 O 501.748 -1.41036 2.0944 0
M  V30 5398 C 503.061 1.81106 2.40044 0
M  V30 5399 C 504.609 1.83226 2.53766 0
M  V30 5400 C 505.084 2.87044 3.56889 0
M  V30 5401 N 506.575 2.85951 3.64398 0
M  V30 5402 C 507.31 3.62932 4.43923 0
M  V30 5403 N 506.806 4.49672 5.27036 0
M  V30 5404 N 508.599 3.51411 4.38711 0
M  V30 5405 H 500.75 1.95264 0.835805 0
M  V30 5406 H 503.013 0.845017 0.429709 0
M  V30 5407 H 502.719 2.82214 2.09876 0
M  V30 5408 H 502.593 1.64529 3.39426 0
M  V30 5409 H 504.98 0.827869 2.8325 0
M  V30 5410 H 505.061 2.03879 1.54489 0
M  V30 5411 H 504.705 3.87663 3.28145 0
M  V30 5412 H 504.635 2.63645 4.5585 0
M  V30 5413 H 507.126 2.23051 3.05052 0
M  V30 5414 H 507.439 5.05116 5.84874 0
M  V30 5415 H 505.784 4.53738 5.26447 0
M  V30 5416 H 508.975 2.83047 3.72829 0
M  V30 5417 H 509.148 4.11654 5.00445 0
M  V30 5418 N 502.554 -1.34406 0.822964 0
M  V30 5419 C 503.794 -2.00103 0.416915 0
M  V30 5420 C 504.158 -1.63826 -1.00125 0
M  V30 5421 O 505.359 -2.22367 -1.51018 0
M  V30 5422 C 503.63 -3.52101 0.613151 0
M  V30 5423 S 505.189 -4.37774 0.299956 0
M  V30 5424 H 502.007 -0.69333 0.157527 0
M  V30 5425 H 504.609 -1.63698 1.06879 0
M  V30 5426 H 503.313 -3.75991 1.64496 0
M  V30 5427 H 502.844 -3.93364 -0.0534554 0
M  V30 5428 H 504.859 -4.8822 -0.886336 0
M  V30 5429 N 504.032 -0.577932 -1.46621 0
M  V30 5430 C 504.962 0.145917 -2.33044 0
M  V30 5431 C 505.943 0.888412 -1.45056 0
M  V30 5432 O 507.128 0.864812 -1.73881 0
M  V30 5433 C 504.258 1.16322 -3.27241 0
M  V30 5434 C 503.212 0.535868 -4.24632 0
M  V30 5435 C 502.538 1.65929 -5.08303 0
M  V30 5436 C 503.838 -0.523861 -5.19666 0
M  V30 5437 H 505.532 -0.575636 -2.93814 0
M  V30 5438 H 503.078 -0.278272 -1.41286 0
M  V30 5439 H 505.031 1.67793 -3.86553 0
M  V30 5440 H 503.755 1.91498 -2.64567 0
M  V30 5441 H 502.414 0.0422759 -3.66576 0
M  V30 5442 H 502.062 2.40061 -4.42018 0
M  V30 5443 H 501.762 1.2452 -5.74255 0
M  V30 5444 H 503.286 2.17686 -5.70478 0
M  V30 5445 H 504.7 -0.0944059 -5.73222 0
M  V30 5446 H 503.097 -0.858 -5.93935 0
M  V30 5447 H 504.167 -1.41197 -4.63887 0
M  V30 5448 N 505.51 1.54411 -0.315457 0
M  V30 5449 C 506.457 2.24048 0.554166 0
M  V30 5450 C 507.427 1.2283 1.11812 0
M  V30 5451 O 508.612 1.51491 1.15997 0
M  V30 5452 C 505.752 2.99574 1.71316 0
M  V30 5453 C 504.865 4.15594 1.17922 0
M  V30 5454 C 504 4.78669 2.30324 0
M  V30 5455 C 503.039 5.86807 1.74137 0
M  V30 5456 N 502.176 6.43777 2.8017 0
M  V30 5457 H 507.016 2.97964 -0.0462602 0
M  V30 5458 H 504.553 1.47059 -0.0346009 0
M  V30 5459 H 506.511 3.41604 2.39505 0
M  V30 5460 H 505.141 2.28008 2.285 0
M  V30 5461 H 504.193 3.78404 0.389136 0
M  V30 5462 H 505.505 4.93459 0.728012 0
M  V30 5463 H 504.659 5.23626 3.06433 0
M  V30 5464 H 503.398 4.00168 2.78778 0
M  V30 5465 H 502.403 5.41261 0.965236 0
M  V30 5466 H 503.628 6.67201 1.2657 0
M  V30 5467 H 501.574 5.68153 3.2793 0
M  V30 5468 H 501.491 7.17031 2.39588 0
M  V30 5469 H 502.759 6.9339 3.56132 0
M  V30 5470 N 506.988 0.0434614 1.5754 0
M  V30 5471 C 507.951 -0.918696 2.09982 0
M  V30 5472 C 508.951 -1.24488 1.01781 0
M  V30 5473 O 510.141 -1.18284 1.27885 0
M  V30 5474 C 507.273 -2.23093 2.57764 0
M  V30 5475 H 508.466 -0.464229 2.96285 0
M  V30 5476 H 506.019 -0.204818 1.54952 0
M  V30 5477 H 506.754 -2.73137 1.74832 0
M  V30 5478 H 506.539 -2.00724 3.36827 0
M  V30 5479 H 508.029 -2.92028 2.98512 0
M  V30 5480 N 508.466 -1.55915 -0.229846 0
M  V30 5481 C 509.714 -1.7819 -0.953565 0
M  V30 5482 C 510.035 -0.610504 -1.85197 0
M  V30 5483 O 509.305 0.372988 -1.92316 0
M  V30 5484 H 507.885 -0.657208 -0.355087 0
M  V30 5485 H 510.547 -1.9337 -0.243693 0
M  V30 5486 H 509.643 -2.70011 -1.56527 0
M  V30 5487 N 509.944 0.496216 -1.49584 0
M  V30 5488 C 510.854 1.62352 -1.69349 0
M  V30 5489 C 511.87 1.64184 -0.576147 0
M  V30 5490 O 513.046 1.82517 -0.85144 0
M  V30 5491 C 510.111 2.98698 -1.76013 0
M  V30 5492 C 509.172 3.07454 -2.99617 0
M  V30 5493 C 508.405 4.37296 -3.05953 0
M  V30 5494 O 508.628 5.2637 -2.19752 0
M  V30 5495 O 507.562 4.51124 -3.9846 0
M  V30 5496 H 511.388 1.48606 -2.64859 0
M  V30 5497 H 508.973 0.673022 -1.33382 0
M  V30 5498 H 510.855 3.79725 -1.82721 0
M  V30 5499 H 509.53 3.12696 -0.836828 0
M  V30 5500 H 508.437 2.25597 -2.98424 0
M  V30 5501 H 509.77 2.98385 -3.91443 0
M  V30 5502 N 511.423 1.38739 0.74761 0
M  V30 5503 C 512.371 1.36573 1.88283 0
M  V30 5504 C 513.365 0.250712 1.67534 0
M  V30 5505 O 514.571 0.420073 1.7503 0
M  V30 5506 H 510.946 0.42619 0.619569 0
M  V30 5507 H 512.917 2.32356 1.87226 0
M  V30 5508 C 511.666 1.21361 3.25832 0
M  V30 5509 H 510.989 2.06424 3.42388 0
M  V30 5510 H 512.429 1.23901 4.05493 0
M  V30 5511 C 510.888 -0.0790099 3.36807 0
M  V30 5512 O 511.418 -1.05385 3.8763 0
M  V30 5513 N 509.624 -0.13785 2.90273 0
M  V30 5514 H 509.171 0.656128 2.49104 0
M  V30 5515 H 509.129 -1.00228 2.97996 0
M  V30 5516 N 512.901 -0.976442 1.23707 0
M  V30 5517 C 514.312 -1.53284 1.06587 0
M  V30 5518 C 514.663 -1.92765 -0.365526 0
M  V30 5519 O 513.788 -1.7645 -1.25277 0
M  V30 5520 C 514.383 -2.78548 1.92864 0
M  V30 5521 C 512.942 -3.30574 1.79994 0
M  V30 5522 C 512.089 -2.03538 1.88328 0
M  V30 5523 H 515.04 -0.795692 1.37311 0
M  V30 5524 H 515.061 -3.5155 1.45577 0
M  V30 5525 H 514.573 -2.49782 2.97037 0
M  V30 5526 H 512.674 -3.64211 0.786202 0
M  V30 5527 H 512.787 -4.00065 2.636 0
M  V30 5528 H 511.151 -2.17853 1.31954 0
M  V30 5529 H 511.934 -1.77149 2.94063 0
M  V30 5530 N 514.379 -1.04941 -1.1758 0
M  V30 5531 C 515.656 -0.671918 -1.83697 0
M  V30 5532 C 516.036 0.847929 -1.93322 0
M  V30 5533 O 515.384 1.75287 -1.46583 0
M  V30 5534 C 515.594 -1.35797 -3.21497 0
M  V30 5535 C 516.942 -1.4944 -3.97433 0
M  V30 5536 O 517.966 -1.31678 -3.30967 0
M  V30 5537 O 516.825 -1.78463 -5.1654 0
M  V30 5538 H 513.919 -0.236212 -0.792548 0
M  V30 5539 H 516.465 -1.14884 -1.24899 0
M  V30 5540 H 515.237 -2.39498 -3.09446 0
M  V30 5541 H 514.86 -0.870236 -3.8796 0
M  V30 5542 N 515.857 1.33968 -0.830081 0
M  V30 5543 C 516.807 2.26845 -0.229242 0
M  V30 5544 C 517.791 1.48862 0.610659 0
M  V30 5545 O 518.983 1.70808 0.464067 0
M  V30 5546 C 516.112 3.3798 0.602057 0
M  V30 5547 C 515.198 4.23369 -0.248866 0
M  V30 5548 N 515.589 4.88182 -1.32334 0
M  V30 5549 C 513.887 4.45987 -0.0344077 0
M  V30 5550 C 514.588 5.51671 -1.84482 0
M  V30 5551 N 513.564 5.31348 -1.14762 0
M  V30 5552 H 517.366 2.74464 -1.05104 0
M  V30 5553 H 514.88 1.4777 -0.673623 0
M  V30 5554 H 516.877 4.03494 1.04873 0
M  V30 5555 H 515.537 2.9191 1.42193 0
M  V30 5556 H 516.548 4.88988 -1.70619 0
M  V30 5557 H 513.225 4.10658 0.752727 0
M  V30 5558 H 514.615 6.13308 -2.74413 0
M  V30 5559 N 517.335 0.585699 1.46312 0
M  V30 5560 C 518.583 0.072278 2.01971 0
M  V30 5561 C 518.904 -1.29345 1.45928 0
M  V30 5562 O 518.174 -1.84973 0.645109 0
M  V30 5563 H 516.754 0.023729 0.746623 0
M  V30 5564 H 519.416 0.762155 1.7938 0
M  V30 5565 H 518.512 0.00552767 3.121 0
M  V30 5566 N 518.813 -1.54241 0.323641 0
M  V30 5567 C 520.043 -2.04687 -0.280464 0
M  V30 5568 C 520.451 -1.19939 -1.46326 0
M  V30 5569 O 519.794 -0.222872 -1.82343 0
M  V30 5570 C 519.856 -3.50978 -0.778123 0
M  V30 5571 C 519.52 -4.56127 0.282371 0
M  V30 5572 C 520.517 -5.07726 1.11847 0
M  V30 5573 C 518.202 -5.00451 0.430582 0
M  V30 5574 C 520.196 -6.02212 2.08851 0
M  V30 5575 C 517.883 -5.94752 1.40404 0
M  V30 5576 C 518.881 -6.45519 2.23147 0
M  V30 5577 O 518.569 -7.37968 3.1884 0
M  V30 5578 H 518.301 -0.673192 -0.0615473 0
M  V30 5579 H 520.855 -1.99999 0.467921 0
M  V30 5580 H 519.085 -3.53064 -1.57742 0
M  V30 5581 H 520.774 -3.84499 -1.30058 0
M  V30 5582 H 521.54 -4.74261 1.01496 0
M  V30 5583 H 517.419 -4.6055 -0.203569 0
M  V30 5584 H 520.963 -6.41761 2.73474 0
M  V30 5585 H 516.86 -6.27633 1.5082 0
M  V30 5586 H 517.628 -7.55841 3.14079 0
M  V30 5587 N 520.291 -0.0518155 -1.57515 0
M  V30 5588 C 521.519 0.631395 -1.9703 0
M  V30 5589 C 521.934 1.64341 -0.92938 0
M  V30 5590 O 521.291 1.82296 0.0863266 0
M  V30 5591 C 521.342 1.31774 -3.36627 0
M  V30 5592 O 521.063 0.346247 -4.3673 0
M  V30 5593 C 522.564 2.09065 -3.90905 0
M  V30 5594 H 519.784 0.172576 -0.648428 0
M  V30 5595 H 522.328 -0.118306 -2.04158 0
M  V30 5596 H 520.483 2.01867 -3.30649 0
M  V30 5597 H 520.897 0.836226 -5.17791 0
M  V30 5598 H 522.371 2.52508 -4.9086 0
M  V30 5599 H 522.848 2.93908 -3.26366 0
M  V30 5600 H 523.454 1.43882 -4.00223 0
M  V30 5601 N 521.769 1.56035 0.221574 0
M  V30 5602 C 522.994 1.83476 0.967026 0
M  V30 5603 C 523.419 0.632139 1.7716 0
M  V30 5604 O 522.777 -0.419082 1.7639 0
M  V30 5605 C 522.825 3.08907 1.86034 0
M  V30 5606 O 521.929 2.876 2.95567 0
M  V30 5607 H 521.27 0.604913 0.273817 0
M  V30 5608 H 523.8 2.03247 0.234893 0
M  V30 5609 H 523.81 3.3901 2.27016 0
M  V30 5610 H 522.485 3.96068 1.26898 0
M  V30 5611 H 521.062 2.6873 2.58532 0
M  V30 5612 N 523.247 -0.488276 1.49845 0
M  V30 5613 C 524.494 -1.24157 1.59973 0
M  V30 5614 C 524.822 -1.92293 0.292182 0
M  V30 5615 O 524.077 -1.81942 -0.720813 0
M  V30 5616 C 524.376 -2.32152 2.71735 0
M  V30 5617 C 524.042 -1.81387 4.12807 0
M  V30 5618 C 522.704 -1.67262 4.51195 0
M  V30 5619 C 525.056 -1.43537 5.01045 0
M  V30 5620 C 522.384 -1.13685 5.7558 0
M  V30 5621 C 524.736 -0.914081 6.25961 0
M  V30 5622 C 523.4 -0.759327 6.63167 0
M  V30 5623 H 522.67 -0.454322 0.585383 0
M  V30 5624 H 525.317 -0.540261 1.83721 0
M  V30 5625 H 523.622 -3.08122 2.42008 0
M  V30 5626 H 525.319 -2.90164 2.76778 0
M  V30 5627 H 521.909 -1.93344 3.82513 0
M  V30 5628 H 526.093 -1.53292 4.72033 0
M  V30 5629 H 521.349 -1.00426 6.03096 0
M  V30 5630 H 525.523 -0.612066 6.93705 0
M  V30 5631 H 523.15 -0.342002 7.5943 0
M  V30 5632 N 524.725 -1.39134 -0.740242 0
M  V30 5633 C 526.002 -1.26584 -1.49117 0
M  V30 5634 C 526.382 0.126902 -2.10718 0
M  V30 5635 O 525.73 1.13765 -1.98166 0
M  V30 5636 C 525.94 -2.38619 -2.54681 0
M  V30 5637 C 527.288 -2.77685 -3.21211 0
M  V30 5638 O 528.312 -2.38029 -2.64991 0
M  V30 5639 O 527.171 -3.46115 -4.22926 0
M  V30 5640 H 524.265 -0.495769 -0.661923 0
M  V30 5641 H 526.811 -1.50995 -0.774514 0
M  V30 5642 H 525.583 -3.3175 -2.07504 0
M  V30 5643 H 525.206 -2.15845 -3.33911 0
M  V30 5644 N 526.204 0.969867 -1.24223 0
M  V30 5645 C 527.429 1.75289 -1.10853 0
M  V30 5646 C 527.854 1.85091 0.335079 0
M  V30 5647 O 527.212 1.32024 1.24255 0
M  V30 5648 C 527.26 3.15255 -1.75062 0
M  V30 5649 O 526.364 3.99589 -1.01992 0
M  V30 5650 H 525.705 0.538904 -0.387915 0
M  V30 5651 H 528.235 1.21675 -1.64488 0
M  V30 5652 H 528.245 3.65787 -1.80731 0
M  V30 5653 H 526.92 3.07436 -2.801 0
M  V30 5654 H 525.497 3.58077 -1.04094 0
M  V30 5655 N 527.682 1.05563 1.17022 0
M  V30 5656 C 528.929 0.767937 1.87374 0
M  V30 5657 C 529.257 -0.705224 1.81265 0
M  V30 5658 O 528.512 -1.5318 1.21796 0
M  V30 5659 C 528.811 1.19849 3.36706 0
M  V30 5660 C 528.477 2.6745 3.63017 0
M  V30 5661 C 527.139 3.0777 3.69907 0
M  V30 5662 C 529.491 3.62811 3.74189 0
M  V30 5663 C 526.819 4.42307 3.85463 0
M  V30 5664 C 529.171 4.97087 3.91264 0
M  V30 5665 C 527.835 5.37055 3.96394 0
M  V30 5666 H 527.105 0.281008 0.68565 0
M  V30 5667 H 529.752 1.32339 1.38415 0
M  V30 5668 H 528.057 0.562096 3.87747 0
M  V30 5669 H 529.754 0.953038 3.8951 0
M  V30 5670 H 526.344 2.35228 3.58282 0
M  V30 5671 H 530.528 3.32798 3.68183 0
M  V30 5672 H 525.784 4.72769 3.87684 0
M  V30 5673 H 529.958 5.70869 3.9885 0
M  V30 5674 H 527.585 6.41308 4.082 0
M  V30 5675 N 529.16 -1.33526 0.837174 0
M  V30 5676 C 530.123 -2.27551 0.274421 0
M  V30 5677 C 531.123 -1.50886 -0.555881 0
M  V30 5678 O 532.313 -1.70227 -0.369918 0
M  V30 5679 C 529.445 -3.35332 -0.613605 0
M  V30 5680 H 530.638 -2.78837 1.10408 0
M  V30 5681 H 528.191 -1.439 0.610126 0
M  V30 5682 H 528.926 -2.89285 -1.46577 0
M  V30 5683 H 528.711 -3.92095 -0.0195341 0
M  V30 5684 H 530.201 -4.05433 -1.00068 0
M  V30 5685 N 530.638 -0.59345 -1.46 0
M  V30 5686 C 531.884 -0.0916503 -2.03193 0
M  V30 5687 C 532.239 1.25839 -1.45541 0
M  V30 5688 O 531.532 1.81455 -0.615191 0
M  V30 5689 C 531.726 0.021178 -3.57394 0
M  V30 5690 C 531.555 -1.31638 -4.30002 0
M  V30 5691 C 530.325 -1.89336 -4.68487 0
M  V30 5692 C 532.523 -2.242 -4.62859 0
M  V30 5693 N 530.505 -3.1672 -5.25891 0
M  V30 5694 C 531.876 -3.36175 -5.20948 0
M  V30 5695 C 533.931 -2.23748 -4.44794 0
M  V30 5696 C 532.634 -4.47844 -5.62875 0
M  V30 5697 C 534.66 -3.34454 -4.87744 0
M  V30 5698 C 534.022 -4.4515 -5.45913 0
M  V30 5699 H 530.121 -0.0765713 -0.778242 0
M  V30 5700 H 532.705 -0.788705 -1.7801 0
M  V30 5701 H 530.876 0.687423 -3.82268 0
M  V30 5702 H 532.608 0.528343 -4.01236 0
M  V30 5703 H 529.363 -1.42704 -4.51589 0
M  V30 5704 H 529.787 -3.81746 -5.59106 0
M  V30 5705 H 534.429 -1.39433 -3.99147 0
M  V30 5706 H 532.147 -5.32894 -6.07495 0
M  V30 5707 H 535.733 -3.35234 -4.75509 0
M  V30 5708 H 534.613 -5.29398 -5.78539 0
M  V30 5709 N 532.116 1.54067 -0.331816 0
M  V30 5710 C 533.079 2.23275 0.517768 0
M  V30 5711 C 534.079 1.22897 1.03697 0
M  V30 5712 O 535.269 1.47419 0.928084 0
M  V30 5713 C 532.401 2.94326 1.72004 0
M  V30 5714 H 533.594 2.99773 -0.0873507 0
M  V30 5715 H 531.147 1.56079 -0.0830042 0
M  V30 5716 H 531.882 2.21986 2.36417 0
M  V30 5717 H 531.667 3.67941 1.35507 0
M  V30 5718 H 533.157 3.47031 2.32291 0
M  V30 5719 N 533.594 0.0601682 1.57485 0
M  V30 5720 C 534.841 -0.611594 1.93043 0
M  V30 5721 C 535.169 -1.70317 0.939274 0
M  V30 5722 O 534.424 -1.95644 -0.046996 0
M  V30 5723 C 534.723 -1.23831 3.35262 0
M  V30 5724 C 534.389 -0.274037 4.50066 0
M  V30 5725 C 533.051 -0.00872394 4.81199 0
M  V30 5726 C 535.403 0.386308 5.19766 0
M  V30 5727 C 532.731 0.924218 5.79375 0
M  V30 5728 C 535.083 1.3075 6.1894 0
M  V30 5729 C 533.747 1.58139 6.48497 0
M  V30 5730 H 533.017 -0.223798 0.706396 0
M  V30 5731 H 535.664 0.128566 1.91068 0
M  V30 5732 H 533.969 -2.05394 3.33647 0
M  V30 5733 H 535.666 -1.76517 3.60059 0
M  V30 5734 H 532.256 -0.491008 4.25778 0
M  V30 5735 H 536.44 0.194436 4.95919 0
M  V30 5736 H 531.696 1.1438 6.00606 0
M  V30 5737 H 535.87 1.82519 6.72056 0
M  V30 5738 H 533.497 2.30593 7.24383 0
M  V30 5739 N 535.072 -1.5615 -0.213296 0
M  V30 5740 C 536.002 -1.96109 -1.26742 0
M  V30 5741 C 536.983 -0.830448 -1.48451 0
M  V30 5742 O 538.168 -1.09339 -1.60495 0
M  V30 5743 C 535.298 -2.28492 -2.61551 0
M  V30 5744 C 534.252 -3.44124 -2.54485 0
M  V30 5745 C 533.578 -3.62134 -3.93399 0
M  V30 5746 C 534.878 -4.78855 -2.08556 0
M  V30 5747 H 536.572 -2.84412 -0.935434 0
M  V30 5748 H 534.118 -1.36836 -0.44854 0
M  V30 5749 H 536.071 -2.55039 -3.3546 0
M  V30 5750 H 534.795 -1.37052 -2.96453 0
M  V30 5751 H 533.454 -3.17639 -1.83033 0
M  V30 5752 H 533.102 -2.68055 -4.25623 0
M  V30 5753 H 532.802 -4.39913 -3.89551 0
M  V30 5754 H 534.326 -3.91038 -4.68958 0
M  V30 5755 H 535.74 -5.04552 -2.72213 0
M  V30 5756 H 534.137 -5.59975 -2.1575 0
M  V30 5757 H 535.207 -4.73657 -1.03811 0
M  V30 5758 N 536.55 0.480323 -1.50102 0
M  V30 5759 C 537.513 1.56181 -1.6775 0
M  V30 5760 C 538.513 1.51156 -0.548503 0
M  V30 5761 O 539.703 1.5394 -0.815363 0
M  V30 5762 C 536.835 2.95823 -1.69415 0
M  V30 5763 H 538.028 1.41855 -2.6423 0
M  V30 5764 H 535.581 0.70605 -1.39444 0
M  V30 5765 H 536.316 3.15604 -0.745948 0
M  V30 5766 H 536.101 3.00878 -2.51425 0
M  V30 5767 H 537.591 3.74359 -1.85054 0
M  V30 5768 N 538.028 1.39524 0.732853 0
M  V30 5769 C 538.958 1.41153 1.86005 0
M  V30 5770 C 539.939 0.274614 1.67869 0
M  V30 5771 O 541.124 0.480745 1.88155 0
M  V30 5772 C 538.254 1.25638 3.23778 0
M  V30 5773 C 537.208 2.36752 3.56556 0
M  V30 5774 C 536.534 2.06326 4.93289 0
M  V30 5775 C 537.834 3.79069 3.5931 0
M  V30 5776 H 539.528 2.35484 1.84899 0
M  V30 5777 H 537.074 1.13348 0.888162 0
M  V30 5778 H 539.027 1.25398 4.0231 0
M  V30 5779 H 537.751 0.277772 3.25417 0
M  V30 5780 H 536.41 2.36213 2.80355 0
M  V30 5781 H 536.058 1.06897 4.9151 0
M  V30 5782 H 535.758 2.80757 5.16187 0
M  V30 5783 H 537.282 2.07739 5.74175 0
M  V30 5784 H 538.696 3.81526 4.27914 0
M  V30 5785 H 537.093 4.52878 3.93728 0
M  V30 5786 H 538.163 4.09893 2.59068 0
M  V30 5787 N 539.506 -0.963266 1.24736 0
M  V30 5788 C 540.753 -1.7068 1.0897 0
M  V30 5789 C 541.081 -1.90934 -0.370751 0
M  V30 5790 O 540.336 -1.47155 -1.29011 0
M  V30 5791 C 540.635 -3.09944 1.7796 0
M  V30 5792 C 540.301 -3.09518 3.27887 0
M  V30 5793 C 538.963 -3.09109 3.68789 0
M  V30 5794 C 541.315 -3.03509 4.23712 0
M  V30 5795 C 538.643 -3.00429 5.03944 0
M  V30 5796 C 540.995 -2.96371 5.5888 0
M  V30 5797 C 539.659 -2.94293 5.99123 0
M  V30 5798 H 538.929 -0.624564 0.398749 0
M  V30 5799 H 541.576 -1.12603 1.54896 0
M  V30 5800 H 539.881 -3.71513 1.2444 0
M  V30 5801 H 541.578 -3.66278 1.63222 0
M  V30 5802 H 538.168 -3.10603 2.95337 0
M  V30 5803 H 542.352 -3.0295 3.93109 0
M  V30 5804 H 537.608 -2.97183 5.34314 0
M  V30 5805 H 541.782 -2.90681 6.32833 0
M  V30 5806 H 539.409 -2.87322 7.03811 0
M  V30 5807 N 540.985 -1.06182 -1.16461 0
M  V30 5808 C 542.401 -0.785065 -1.38956 0
M  V30 5809 C 542.601 0.616103 -1.9185 0
M  V30 5810 O 541.657 1.37686 -2.11657 0
M  V30 5811 C 542.97 -1.84902 -2.37132 0
M  V30 5812 C 544.518 -1.8724 -2.50819 0
M  V30 5813 C 544.993 -2.92686 -3.52277 0
M  V30 5814 N 546.484 -2.91712 -3.59803 0
M  V30 5815 C 547.219 -3.69949 -4.38093 0
M  V30 5816 N 546.715 -4.58 -5.19815 0
M  V30 5817 N 548.508 -3.58346 -4.33064 0
M  V30 5818 H 540.659 -1.96569 -0.804634 0
M  V30 5819 H 542.922 -0.851747 -0.416211 0
M  V30 5820 H 542.628 -2.85518 -2.0536 0
M  V30 5821 H 542.502 -1.69908 -3.36766 0
M  V30 5822 H 544.889 -0.872827 -2.81897 0
M  V30 5823 H 544.97 -2.06311 -1.51226 0
M  V30 5824 H 544.614 -3.92835 -3.21937 0
M  V30 5825 H 544.544 -2.70864 -4.51598 0
M  V30 5826 H 547.035 -2.27876 -3.01464 0
M  V30 5827 H 547.348 -5.14357 -5.76764 0
M  V30 5828 H 545.693 -4.62056 -5.19162 0
M  V30 5829 H 548.884 -2.88943 -3.68279 0
M  V30 5830 H 549.057 -4.19563 -4.93833 0
M  V30 5831 N 542.463 1.3308 -0.844243 0
M  V30 5832 C 543.393 2.3161 -0.296493 0
M  V30 5833 C 544.374 1.59215 0.598707 0
M  V30 5834 O 545.559 1.87077 0.521134 0
M  V30 5835 C 542.689 3.43313 0.524762 0
M  V30 5836 C 541.643 4.27115 -0.275106 0
M  V30 5837 C 540.969 5.30483 0.670236 0
M  V30 5838 C 542.269 5.00443 -1.49514 0
M  V30 5839 H 543.963 2.77672 -1.11976 0
M  V30 5840 H 541.509 1.33496 -0.539899 0
M  V30 5841 H 543.462 4.11273 0.918298 0
M  V30 5842 H 542.186 2.95952 1.3813 0
M  V30 5843 H 540.845 3.60787 -0.650267 0
M  V30 5844 H 540.493 4.79379 1.52332 0
M  V30 5845 H 540.193 5.87435 0.139123 0
M  V30 5846 H 541.717 6.01308 1.06117 0
M  V30 5847 H 543.131 5.61141 -1.17447 0
M  V30 5848 H 541.528 5.67071 -1.96343 0
M  V30 5849 H 542.598 4.28906 -2.26202 0
M  V30 5850 N 543.941 0.601185 1.45683 0
M  V30 5851 C 544.874 -0.17013 2.27565 0
M  V30 5852 C 545.852 -0.879661 1.36751 0
M  V30 5853 O 547.036 -0.889827 1.66176 0
M  V30 5854 C 544.163 -1.24568 3.14961 0
M  V30 5855 C 543.209 -0.639978 4.21671 0
M  V30 5856 S 544.042 0.547275 5.32696 0
M  V30 5857 C 545.198 -0.529019 6.2366 0
M  V30 5858 H 545.431 0.524583 2.92635 0
M  V30 5859 H 542.964 0.388537 1.49431 0
M  V30 5860 H 544.922 -1.86138 3.65873 0
M  V30 5861 H 543.583 -1.91243 2.49169 0
M  V30 5862 H 542.776 -1.44903 4.8272 0
M  V30 5863 H 542.378 -0.0995558 3.73867 0
M  V30 5864 H 544.67 -1.40981 6.62669 0
M  V30 5865 H 545.613 0.0451599 7.08086 0
M  V30 5866 H 546.021 -0.84147 5.58193 0
M  V30 5867 N 545.419 -1.53889 0.339982 0
M  V30 5868 C 546.647 -2.05271 -0.259114 0
M  V30 5869 C 547.062 -1.21517 -1.44496 0
M  V30 5870 O 546.419 -0.24966 -1.80784 0
M  V30 5871 C 546.47 -3.55092 -0.677634 0
M  V30 5872 O 546.191 -4.35667 0.461051 0
M  V30 5873 C 547.692 -4.22631 -1.33782 0
M  V30 5874 H 544.912 -0.669085 -0.0506566 0
M  V30 5875 H 547.456 -1.9852 0.490935 0
M  V30 5876 H 545.611 -3.62077 -1.37763 0
M  V30 5877 H 546.025 -5.24343 0.128144 0
M  V30 5878 H 547.499 -5.28861 -1.58145 0
M  V30 5879 H 547.976 -3.74758 -2.29027 0
M  V30 5880 H 548.582 -4.19829 -0.679957 0
M  V30 5881 N 546.897 -0.0685191 -1.57451 0
M  V30 5882 C 547.829 0.929372 -2.09512 0
M  V30 5883 C 548.842 1.26354 -1.02657 0
M  V30 5884 O 550.031 1.2213 -1.30179 0
M  V30 5885 C 547.131 2.24612 -2.53777 0
M  V30 5886 C 546.304 2.09128 -3.84167 0
M  V30 5887 C 545.363 3.24079 -4.14559 0
M  V30 5888 O 544.389 2.99215 -4.8421 0
M  V30 5889 N 545.591 4.49077 -3.67845 0
M  V30 5890 H 548.356 0.484901 -2.95751 0
M  V30 5891 H 545.917 0.11729 -1.61475 0
M  V30 5892 H 547.909 3.00412 -2.71172 0
M  V30 5893 H 546.479 2.60569 -1.72692 0
M  V30 5894 H 545.699 1.17815 -3.76182 0
M  V30 5895 H 546.987 1.9603 -4.69521 0
M  V30 5896 H 546.385 4.72165 -3.11571 0
M  V30 5897 H 544.942 5.21915 -3.90446 0
M  V30 5898 N 548.375 1.56261 0.205012 0
M  V30 5899 C 549.652 1.70856 0.952233 0
M  V30 5900 C 550.032 0.620501 2.01775 0
M  V30 5901 O 549.38 -0.370035 2.25484 0
M  V30 5902 C 549.59 3.12807 1.54767 0
M  V30 5903 C 550.938 3.72733 2.0336 0
M  V30 5904 O 551.962 3.15873 1.64629 0
M  V30 5905 O 550.821 4.72501 2.746 0
M  V30 5906 H 547.915 0.696496 0.445895 0
M  V30 5907 H 550.461 1.6857 0.195489 0
M  V30 5908 H 549.233 3.83465 0.779132 0
M  V30 5909 H 548.856 3.1928 2.36951 0
M  V30 5910 N 549.853 -0.472356 1.50355 0
M  V30 5911 C 551.093 -1.23439 1.62918 0
M  V30 5912 C 551.457 -1.89284 0.321801 0
M  V30 5913 O 552.658 -2.66854 0.322852 0
M  V30 5914 C 550.929 -2.25119 2.7759 0
M  V30 5915 S 552.488 -3.10278 3.10279 0
M  V30 5916 H 549.306 -0.41911 0.574341 0
M  V30 5917 H 551.908 -0.531621 1.88133 0
M  V30 5918 H 550.612 -1.75324 3.71066 0
M  V30 5919 H 550.143 -3.00026 2.54457 0
M  V30 5920 H 552.158 -4.26257 2.54007 0
M  V30 5921 N 551.331 -1.39911 -0.725443 0
M  V30 5922 C 552.577 -1.38862 -1.48624 0
M  V30 5923 C 552.932 0.0125913 -1.92396 0
M  V30 5924 O 552.225 0.981046 -1.64578 0
M  V30 5925 C 552.419 -2.30368 -2.7325 0
M  V30 5926 C 552.248 -3.79247 -2.41665 0
M  V30 5927 C 551.018 -4.48119 -2.3349 0
M  V30 5928 C 553.216 -4.70988 -2.06579 0
M  V30 5929 N 551.198 -5.82282 -1.94476 0
M  V30 5930 C 552.569 -5.93873 -1.78087 0
M  V30 5931 C 554.624 -4.58917 -1.9313 0
M  V30 5932 C 553.327 -7.06036 -1.37499 0
M  V30 5933 C 555.353 -5.71012 -1.53946 0
M  V30 5934 C 554.715 -6.92976 -1.26345 0
M  V30 5935 H 550.814 -0.563394 -0.54232 0
M  V30 5936 H 553.398 -1.75542 -0.842213 0
M  V30 5937 H 551.569 -1.95831 -3.35417 0
M  V30 5938 H 553.301 -2.20245 -3.39521 0
M  V30 5939 H 550.056 -4.01677 -2.50904 0
M  V30 5940 H 550.48 -6.53307 -1.77535 0
M  V30 5941 H 555.122 -3.65149 -2.13134 0
M  V30 5942 H 552.84 -7.99697 -1.16237 0
M  V30 5943 H 556.426 -5.63664 -1.44132 0
M  V30 5944 H 555.306 -7.78243 -0.964787 0
M  V30 5945 N 552.809 0.956637 -1.25245 0
M  V30 5946 C 553.719 2.0868 -1.0719 0
M  V30 5947 C 554.735 1.73997 -0.00959074 0
M  V30 5948 O 555.911 2.00301 -0.210104 0
M  V30 5949 C 552.976 3.39754 -0.690526 0
M  V30 5950 C 552.037 3.88316 -1.83055 0
M  V30 5951 C 551.27 5.13134 -1.46728 0
M  V30 5952 O 551.493 5.6925 -0.362029 0
M  V30 5953 O 550.427 5.56356 -2.29677 0
M  V30 5954 H 554.253 2.26813 -2.01965 0
M  V30 5955 H 551.838 1.07098 -1.04165 0
M  V30 5956 H 553.72 4.18543 -0.489871 0
M  V30 5957 H 552.395 3.22896 0.227981 0
M  V30 5958 H 551.302 3.1054 -2.08604 0
M  V30 5959 H 552.635 4.09669 -2.72822 0
M  V30 5960 N 554.287 1.06798 1.15896 0
M  V30 5961 C 555.703 0.792423 1.38538 0
M  V30 5962 C 555.903 -0.60592 1.92174 0
M  V30 5963 O 554.959 -1.36561 2.12385 0
M  V30 5964 C 556.272 1.86157 2.36149 0
M  V30 5965 C 557.82 1.88567 2.49823 0
M  V30 5966 C 558.295 2.9455 3.5072 0
M  V30 5967 N 559.786 2.93616 3.58251 0
M  V30 5968 C 560.521 3.72267 4.36125 0
M  V30 5969 N 560.017 4.60751 5.17379 0
M  V30 5970 N 561.81 3.60637 4.31158 0
M  V30 5971 H 553.961 1.96993 0.794198 0
M  V30 5972 H 556.224 0.853942 0.411688 0
M  V30 5973 H 555.93 2.86603 2.03843 0
M  V30 5974 H 555.804 1.71692 3.3586 0
M  V30 5975 H 558.191 0.887765 2.8143 0
M  V30 5976 H 558.272 2.0711 1.5013 0
M  V30 5977 H 557.916 3.94537 3.19849 0
M  V30 5978 H 557.846 2.73255 4.50155 0
M  V30 5979 H 560.337 2.29472 3.00252 0
M  V30 5980 H 560.65 5.17408 5.74028 0
M  V30 5981 H 558.995 4.64803 5.16704 0
M  V30 5982 H 562.186 2.90892 3.66742 0
M  V30 5983 H 562.359 4.22176 4.91601 0
M  V30 5984 N 555.766 -1.3263 0.851289 0
M  V30 5985 C 556.696 -2.31449 0.308771 0
M  V30 5986 C 557.677 -1.59531 -0.590255 0
M  V30 5987 O 558.862 -1.87351 -0.511205 0
M  V30 5988 C 555.992 -3.43586 -0.506548 0
M  V30 5989 C 554.946 -4.26963 0.297753 0
M  V30 5990 C 554.272 -5.30831 -0.642094 0
M  V30 5991 C 555.572 -4.99643 1.52166 0
M  V30 5992 H 557.266 -2.77074 1.13447 0
M  V30 5993 H 554.812 -1.33207 0.546971 0
M  V30 5994 H 556.765 -4.11754 -0.896474 0
M  V30 5995 H 555.489 -2.96681 -1.36558 0
M  V30 5996 H 554.148 -3.60437 0.669391 0
M  V30 5997 H 553.796 -4.8018 -1.49788 0
M  V30 5998 H 553.496 -5.87501 -0.107968 0
M  V30 5999 H 555.02 -6.01862 -1.02927 0
M  V30 6000 H 556.434 -5.6051 1.20421 0
M  V30 6001 H 554.831 -5.66022 1.99347 0
M  V30 6002 H 555.901 -4.27701 2.28474 0
M  V30 6003 N 557.244 -0.608902 -1.45362 0
M  V30 6004 C 558.474 -0.110852 -2.06302 0
M  V30 6005 C 558.882 1.21062 -1.45398 0
M  V30 6006 O 558.225 1.74861 -0.562976 0
M  V30 6007 C 558.287 0.101793 -3.59356 0
M  V30 6008 C 557.951 -1.13808 -4.42602 0
M  V30 6009 C 558.948 -2.05653 -4.77496 0
M  V30 6010 C 556.633 -1.36727 -4.83333 0
M  V30 6011 C 558.627 -3.18745 -5.51978 0
M  V30 6012 C 556.314 -2.5012 -5.57569 0
M  V30 6013 C 557.312 -3.40957 -5.91809 0
M  V30 6014 O 557 -4.52376 -6.64538 0
M  V30 6015 H 556.732 -0.0666001 -0.672711 0
M  V30 6016 H 559.286 -0.836942 -1.87575 0
M  V30 6017 H 557.516 0.88279 -3.76489 0
M  V30 6018 H 559.205 0.551607 -4.02134 0
M  V30 6019 H 559.971 -1.89172 -4.46586 0
M  V30 6020 H 555.85 -0.669216 -4.56117 0
M  V30 6021 H 559.394 -3.8967 -5.78622 0
M  V30 6022 H 555.291 -2.66553 -5.87894 0
M  V30 6023 H 556.059 -4.51075 -6.82989 0
M  V30 6024 N 558.722 1.53707 -0.348139 0
M  V30 6025 C 559.654 2.22725 0.540946 0
M  V30 6026 C 560.667 1.2354 1.06027 0
M  V30 6027 O 561.856 1.49867 0.96964 0
M  V30 6028 C 558.956 2.89756 1.75768 0
M  V30 6029 C 558.129 4.15297 1.37285 0
M  V30 6030 C 557.188 4.65697 2.44976 0
M  V30 6031 O 556.214 5.29798 2.08092 0
M  V30 6032 N 557.416 4.42017 3.763 0
M  V30 6033 H 560.181 2.99658 -0.0501592 0
M  V30 6034 H 557.742 1.60979 -0.17248 0
M  V30 6035 H 559.734 3.20388 2.47252 0
M  V30 6036 H 558.304 2.16382 2.25605 0
M  V30 6037 H 557.524 3.9116 0.488584 0
M  V30 6038 H 558.812 4.96948 1.09179 0
M  V30 6039 H 558.21 3.9076 4.09051 0
M  V30 6040 H 556.767 4.77242 4.4394 0
M  V30 6041 N 560.2 0.0768682 1.57412 0
M  V30 6042 C 561.132 -0.918248 2.10002 0
M  V30 6043 C 562.145 -1.25808 1.03325 0
M  V30 6044 O 563.334 -1.21438 1.30824 0
M  V30 6045 C 560.434 -2.23263 2.54964 0
M  V30 6046 C 559.607 -2.07088 3.8527 0
M  V30 6047 C 558.666 -3.21876 4.16272 0
M  V30 6048 O 557.692 -2.96643 4.8579 0
M  V30 6049 N 558.894 -4.4712 3.70221 0
M  V30 6050 H 561.659 -0.469209 2.96004 0
M  V30 6051 H 559.22 -0.108725 1.61535 0
M  V30 6052 H 561.212 -2.9897 2.72762 0
M  V30 6053 H 559.782 -2.59649 1.74072 0
M  V30 6054 H 559.002 -1.15818 3.76802 0
M  V30 6055 H 560.29 -1.93537 4.70554 0
M  V30 6056 H 559.688 -4.70506 3.1407 0
M  V30 6057 H 558.245 -5.19837 3.93209 0
M  V30 6058 N 561.678 -1.56367 -0.196722 0
M  V30 6059 C 562.906 -1.84639 -0.933608 0
M  V30 6060 C 563.321 -0.659164 -1.76919 0
M  V30 6061 O 562.678 0.372142 -1.78665 0
M  V30 6062 C 562.729 -3.11694 -1.83109 0
M  V30 6063 O 562.45 -4.25838 -1.02924 0
M  V30 6064 C 563.951 -3.53132 -2.67979 0
M  V30 6065 H 561.171 -0.613188 -0.272473 0
M  V30 6066 H 563.715 -2.03475 -0.204465 0
M  V30 6067 H 561.87 -2.94759 -2.51387 0
M  V30 6068 H 562.284 -4.98178 -1.64069 0
M  V30 6069 H 563.758 -4.45005 -3.26611 0
M  V30 6070 H 564.235 -2.76045 -3.41608 0
M  V30 6071 H 564.841 -3.72592 -2.05074 0
M  V30 6072 N 563.156 0.464375 -1.50603 0
M  V30 6073 C 564.086 1.56944 -1.72889 0
M  V30 6074 C 565.067 1.59979 -0.577997 0
M  V30 6075 O 566.252 1.76138 -0.817855 0
M  V30 6076 C 563.382 2.95225 -1.8292 0
M  V30 6077 C 562.336 3.07056 -2.98162 0
M  V30 6078 C 561.662 4.47051 -2.93343 0
M  V30 6079 C 562.962 2.83648 -4.38567 0
M  V30 6080 H 564.656 1.38547 -2.65415 0
M  V30 6081 H 562.202 0.665082 -1.27721 0
M  V30 6082 H 564.155 3.72467 -1.97095 0
M  V30 6083 H 562.879 3.14793 -0.870209 0
M  V30 6084 H 561.538 2.32248 -2.83648 0
M  V30 6085 H 561.186 4.63547 -1.95276 0
M  V30 6086 H 560.886 4.55902 -3.70712 0
M  V30 6087 H 562.41 5.26304 -3.09575 0
M  V30 6088 H 563.824 3.50636 -4.53572 0
M  V30 6089 H 562.221 3.03937 -5.17438 0
M  V30 6090 H 563.291 1.79451 -4.50472 0
M  V30 6091 N 564.634 1.40294 0.718013 0
M  V30 6092 C 566.05 1.2227 1.02577 0
M  V30 6093 C 566.25 0.0961976 2.0127 0
M  V30 6094 O 565.306 -0.546695 2.46511 0
M  V30 6095 C 566.619 2.56348 1.57182 0
M  V30 6096 C 568.167 2.6334 1.69178 0
M  V30 6097 C 568.642 3.9768 2.27188 0
M  V30 6098 N 570.133 3.99409 2.34578 0
M  V30 6099 C 570.868 5.00141 2.8044 0
M  V30 6100 N 570.364 6.11268 3.26073 0
M  V30 6101 N 572.157 4.87511 2.79802 0
M  V30 6102 H 564.308 2.12304 0.0637899 0
M  V30 6103 H 566.571 0.943632 0.0909036 0
M  V30 6104 H 566.277 3.3942 0.921262 0
M  V30 6105 H 566.151 2.77266 2.55741 0
M  V30 6106 H 568.538 1.80641 2.33351 0
M  V30 6107 H 568.619 2.46255 0.692247 0
M  V30 6108 H 568.263 4.80817 1.63638 0
M  V30 6109 H 568.193 4.12093 3.27852 0
M  V30 6110 H 570.684 3.19162 2.02346 0
M  V30 6111 H 570.997 6.84023 3.59628 0
M  V30 6112 H 569.342 6.14837 3.24038 0
M  V30 6113 H 572.533 3.9979 2.43487 0
M  V30 6114 H 572.706 5.66158 3.15228 0
M  V30 6115 N 566.112 -0.949982 1.2575 0
M  V30 6116 C 567.337 -1.73503 1.13628 0
M  V30 6117 C 567.762 -1.85601 -0.30559 0
M  V30 6118 O 567.12 -1.33984 -1.22139 0
M  V30 6119 C 567.168 -3.1243 1.80055 0
M  V30 6120 O 566.272 -3.97916 1.08336 0
M  V30 6121 H 565.613 -0.532665 0.396439 0
M  V30 6122 H 568.143 -1.19043 1.66403 0
M  V30 6123 H 568.153 -3.62866 1.86527 0
M  V30 6124 H 566.828 -3.02941 2.84956 0
M  V30 6125 H 565.405 -3.56375 1.09777 0
M  V30 6126 N 567.59 -1.07411 -1.15328 0
M  V30 6127 C 568.553 -0.698914 -2.18284 0
M  V30 6128 C 569.553 0.261149 -1.58665 0
M  V30 6129 O 570.743 0.0420277 -1.74149 0
M  V30 6130 C 567.875 -0.0302427 -3.40887 0
M  V30 6131 H 569.068 -1.61045 -2.52991 0
M  V30 6132 H 566.621 -0.870724 -1.298 0
M  V30 6133 H 567.356 0.893505 -3.11748 0
M  V30 6134 H 567.141 -0.720759 -3.85419 0
M  V30 6135 H 568.631 0.21759 -4.17033 0
M  V30 6136 N 569.068 1.32177 -0.85831 0
M  V30 6137 C 570.316 1.96735 -0.462568 0
M  V30 6138 C 570.637 1.6824 0.985911 0
M  V30 6139 O 569.907 0.991564 1.68952 0
M  V30 6140 H 568.487 0.727849 -0.168064 0
M  V30 6141 H 571.149 1.61195 -1.09554 0
M  V30 6142 H 570.245 3.06068 -0.610647 0
M  V30 6143 N 570.547 0.616602 1.45037 0
M  V30 6144 C 571.494 -0.0969439 2.30596 0
M  V30 6145 C 572.464 -0.851151 1.42635 0
M  V30 6146 O 573.649 -0.835092 1.71554 0
M  V30 6147 C 570.789 -1.08234 3.27688 0
M  V30 6148 C 569.902 -0.328072 4.30752 0
M  V30 6149 C 569.037 -1.30399 5.14946 0
M  V30 6150 C 568.076 -0.538049 6.09731 0
M  V30 6151 N 567.213 -1.46371 6.86673 0
M  V30 6152 H 572.053 0.63864 2.91076 0
M  V30 6153 H 569.59 0.326733 1.43425 0
M  V30 6154 H 571.548 -1.66688 3.82454 0
M  V30 6155 H 570.178 -1.78523 2.68941 0
M  V30 6156 H 569.23 0.372136 3.78575 0
M  V30 6157 H 570.542 0.269142 4.98073 0
M  V30 6158 H 569.696 -1.96032 5.74157 0
M  V30 6159 H 568.435 -1.93514 4.47665 0
M  V30 6160 H 567.44 0.131852 5.49642 0
M  V30 6161 H 568.665 0.0881732 6.79043 0
M  V30 6162 H 566.611 -2.08233 6.22073 0
M  V30 6163 H 566.528 -0.920152 7.50379 0
M  V30 6164 H 567.796 -2.10932 7.50418 0
M  V30 6165 N 572.025 -1.5352 0.356285 0
M  V30 6166 C 573.274 -2.00298 -0.237373 0
M  V30 6167 C 573.587 -1.24784 -1.50627 0
M  V30 6168 O 574.793 -1.62103 -2.17795 0
M  V30 6169 C 573.249 -3.56771 -0.473545 0
M  V30 6170 C 572.857 -4.41154 0.780183 0
M  V30 6171 C 574.601 -4.1193 -1.02537 0
M  V30 6172 C 572.508 -5.89161 0.514108 0
M  V30 6173 H 571.438 -0.748307 -0.092478 0
M  V30 6174 H 574.089 -1.77283 0.473588 0
M  V30 6175 H 572.471 -3.75902 -1.24553 0
M  V30 6176 H 573.645 -4.33797 1.55425 0
M  V30 6177 H 571.96 -3.97052 1.25455 0
M  V30 6178 H 574.557 -5.20133 -1.2396 0
M  V30 6179 H 574.9 -3.65943 -1.98473 0
M  V30 6180 H 575.433 -3.96561 -0.313775 0
M  V30 6181 H 572.172 -6.39408 1.44355 0
M  V30 6182 H 571.692 -5.9939 -0.221632 0
M  V30 6183 H 573.371 -6.46857 0.136122 0
M  V30 6184 N 573.503 -0.0852151 -1.57369 0
M  V30 6185 C 574.733 0.588605 -1.98038 0
M  V30 6186 C 575.141 1.62869 -0.962817 0
M  V30 6187 O 574.484 1.83611 0.057134 0
M  V30 6188 C 574.546 1.30303 -3.35054 0
M  V30 6189 C 574.21 0.414855 -4.55113 0
M  V30 6190 C 575.207 -0.333011 -5.18832 0
M  V30 6191 C 572.892 0.335804 -5.01176 0
M  V30 6192 C 574.886 -1.14801 -6.26976 0
M  V30 6193 C 572.573 -0.482857 -6.09189 0
M  V30 6194 C 573.571 -1.22342 -6.71953 0
M  V30 6195 O 573.259 -2.02855 -7.77885 0
M  V30 6196 H 572.991 0.163249 -0.655992 0
M  V30 6197 H 575.545 -0.1582 -2.0479 0
M  V30 6198 H 573.775 2.0962 -3.24956 0
M  V30 6199 H 575.464 1.87041 -3.60237 0
M  V30 6200 H 576.23 -0.281611 -4.84182 0
M  V30 6201 H 572.109 0.901869 -4.52092 0
M  V30 6202 H 575.653 -1.72654 -6.75897 0
M  V30 6203 H 571.55 -0.535773 -6.43273 0
M  V30 6204 H 572.318 -1.95432 -7.94826 0
M  V30 6205 N 574.981 1.5647 0.188427 0
M  V30 6206 C 575.914 1.90146 1.26173 0
M  V30 6207 C 576.892 0.762294 1.43624 0
M  V30 6208 O 578.076 1.01395 1.58907 0
M  V30 6209 C 575.203 2.13748 2.62735 0
M  V30 6210 C 574.249 3.36448 2.62116 0
M  V30 6211 S 575.082 4.91364 2.12889 0
M  V30 6212 C 576.238 5.18041 3.51261 0
M  V30 6213 H 576.471 2.80886 0.974192 0
M  V30 6214 H 574.004 1.49335 0.392226 0
M  V30 6215 H 575.962 2.28028 3.41341 0
M  V30 6216 H 574.623 1.23747 2.88696 0
M  V30 6217 H 573.816 3.50109 3.62546 0
M  V30 6218 H 573.418 3.21196 1.91596 0
M  V30 6219 H 575.71 5.0897 4.47164 0
M  V30 6220 H 576.653 6.19764 3.42489 0
M  V30 6221 H 577.061 4.45657 3.46482 0
M  V30 6222 N 576.459 -0.456382 1.50847 0
M  V30 6223 C 577.708 -1.2042 1.61808 0
M  V30 6224 C 578.021 -1.9278 0.330932 0
M  V30 6225 O 579.227 -2.69612 0.319643 0
M  V30 6226 C 577.683 -2.18891 2.85683 0
M  V30 6227 C 577.291 -1.52267 4.2133 0
M  V30 6228 C 579.035 -2.94224 3.05994 0
M  V30 6229 C 576.942 -2.4911 5.36375 0
M  V30 6230 H 575.872 -0.453177 0.602616 0
M  V30 6231 H 578.523 -0.473144 1.77295 0
M  V30 6232 H 576.905 -2.95351 2.63787 0
M  V30 6233 H 578.079 -0.814949 4.53536 0
M  V30 6234 H 576.394 -0.891594 4.06743 0
M  V30 6235 H 578.991 -3.66732 3.89117 0
M  V30 6236 H 579.334 -3.54469 2.18306 0
M  V30 6237 H 579.867 -2.24874 3.28141 0
M  V30 6238 H 576.606 -1.93582 6.26264 0
M  V30 6239 H 576.126 -3.17991 5.08569 0
M  V30 6240 H 577.805 -3.10637 5.67551 0
M  V30 6241 N 577.937 -1.40673 -0.710563 0
M  V30 6242 C 579.184 -1.39222 -1.47049 0
M  V30 6243 C 579.512 0.0037691 -1.945 0
M  V30 6244 O 578.767 0.989224 -1.68857 0
M  V30 6245 C 579.066 -2.33253 -2.70791 0
M  V30 6246 C 578.732 -3.80406 -2.42079 0
M  V30 6247 C 577.394 -4.20496 -2.33959 0
M  V30 6248 C 579.746 -4.73375 -2.18094 0
M  V30 6249 C 577.074 -5.51584 -1.99929 0
M  V30 6250 C 579.426 -6.04768 -1.85576 0
M  V30 6251 C 578.09 -6.43895 -1.75941 0
M  V30 6252 H 577.36 -0.509449 -0.538092 0
M  V30 6253 H 580.007 -1.73363 -0.81348 0
M  V30 6254 H 578.312 -1.92314 -3.41354 0
M  V30 6255 H 580.009 -2.29412 -3.28894 0
M  V30 6256 H 576.599 -3.48645 -2.49288 0
M  V30 6257 H 580.783 -4.43217 -2.23321 0
M  V30 6258 H 576.039 -5.80797 -1.91011 0
M  V30 6259 H 580.213 -6.76318 -1.66033 0
M  V30 6260 H 577.84 -7.45387 -1.4934 0
M  V30 6261 N 579.415 0.9433 -1.26252 0
M  V30 6262 C 580.662 1.68925 -1.11672 0
M  V30 6263 C 580.99 1.91499 0.340329 0
M  V30 6264 O 580.245 1.49189 1.26653 0
M  V30 6265 C 580.544 3.07073 -1.82868 0
M  V30 6266 C 580.21 3.04262 -3.32769 0
M  V30 6267 C 578.872 3.03203 -3.7366 0
M  V30 6268 C 581.224 2.96729 -4.28487 0
M  V30 6269 C 578.552 2.92373 -5.0866 0
M  V30 6270 C 580.904 2.87442 -5.63525 0
M  V30 6271 C 579.568 2.84724 -6.03729 0
M  V30 6272 H 578.838 0.618141 -0.408635 0
M  V30 6273 H 581.485 1.10124 -1.56668 0
M  V30 6274 H 579.79 3.69486 -1.30335 0
M  V30 6275 H 581.487 3.63635 -1.69029 0
M  V30 6276 H 578.077 3.05865 -3.00241 0
M  V30 6277 H 582.261 2.96658 -3.97879 0
M  V30 6278 H 577.517 2.88645 -5.38975 0
M  V30 6279 H 581.691 2.80576 -6.37377 0
M  V30 6280 H 579.318 2.76089 -7.08293 0
M  V30 6281 N 580.893 1.08022 1.14757 0
M  V30 6282 C 581.826 0.650738 2.18725 0
M  V30 6283 C 582.804 -0.335496 1.59101 0
M  V30 6284 O 583.988 -0.240295 1.86962 0
M  V30 6285 C 581.115 -0.0434377 3.38672 0
M  V30 6286 C 580.161 0.90232 4.16846 0
M  V30 6287 S 580.994 2.40693 4.78359 0
M  V30 6288 C 582.15 1.72475 6.01667 0
M  V30 6289 H 582.383 1.53152 2.54817 0
M  V30 6290 H 579.916 0.894823 1.25826 0
M  V30 6291 H 581.874 -0.437684 4.0816 0
M  V30 6292 H 580.535 -0.900659 3.0091 0
M  V30 6293 H 579.728 0.363445 5.02688 0
M  V30 6294 H 579.33 1.23728 3.52941 0
M  V30 6295 H 581.622 1.0404 6.69464 0
M  V30 6296 H 582.565 2.56175 6.60136 0
M  V30 6297 H 582.973 1.19979 5.51602 0
M  V30 6298 N 582.371 -1.3172 0.865308 0
M  V30 6299 C 583.301 -2.31109 0.333302 0
M  V30 6300 C 584.282 -1.60148 -0.573301 0
M  V30 6301 O 585.467 -1.87882 -0.491305 0
M  V30 6302 C 582.597 -3.44104 -0.470078 0
M  V30 6303 C 581.551 -4.26623 0.343021 0
M  V30 6304 C 580.877 -5.31482 -0.585756 0
M  V30 6305 C 582.177 -4.98001 1.57456 0
M  V30 6306 H 583.871 -2.75855 1.1638 0
M  V30 6307 H 581.417 -1.3262 0.561069 0
M  V30 6308 H 583.37 -4.12682 -0.852752 0
M  V30 6309 H 582.094 -2.98112 -1.33404 0
M  V30 6310 H 580.753 -3.59707 0.707583 0
M  V30 6311 H 580.401 -4.81741 -1.44686 0
M  V30 6312 H 580.101 -5.87582 -0.0456494 0
M  V30 6313 H 581.625 -6.0292 -0.965375 0
M  V30 6314 H 583.039 -5.59201 1.26359 0
M  V30 6315 H 581.436 -5.63876 2.05339 0
M  V30 6316 H 582.506 -4.25253 2.32997 0
M  V30 6317 N 583.85 -0.624285 -1.44708 0
M  V30 6318 C 585.096 -0.126237 -2.02407 0
M  V30 6319 C 585.428 1.24618 -1.48943 0
M  V30 6320 O 584.704 1.82569 -0.670742 0
M  V30 6321 C 584.986 -0.105449 -3.59946 0
M  V30 6322 C 584.84 -1.50972 -4.23707 0
M  V30 6323 C 586.159 0.573629 -4.36346 0
M  V30 6324 H 583.278 -0.0473472 -0.735478 0
M  V30 6325 H 585.92 -0.799452 -1.72362 0
M  V30 6326 H 584.07 0.46783 -3.85673 0
M  V30 6327 H 585.742 -2.13136 -4.0911 0
M  V30 6328 H 583.985 -2.0656 -3.81465 0
M  V30 6329 H 584.656 -1.44727 -5.32689 0
M  V30 6330 H 587.132 0.0861787 -4.16011 0
M  V30 6331 H 586.008 0.557338 -5.46063 0
M  V30 6332 H 586.269 1.64276 -4.10446 0
M  V30 6333 N 585.328 1.53329 -0.364422 0
M  V30 6334 C 586.577 2.00421 0.226747 0
M  V30 6335 C 586.89 1.25581 1.49963 0
M  V30 6336 O 588.096 1.63256 2.16933 0
M  V30 6337 C 586.552 3.57017 0.454618 0
M  V30 6338 C 586.16 4.40734 -0.803568 0
M  V30 6339 C 587.904 4.12468 1.00351 0
M  V30 6340 C 585.811 5.8888 -0.545345 0
M  V30 6341 H 584.741 0.748787 0.0885082 0
M  V30 6342 H 587.392 1.7703 -0.482983 0
M  V30 6343 H 585.774 3.76558 1.22558 0
M  V30 6344 H 586.948 4.32967 -1.57723 0
M  V30 6345 H 585.263 3.96381 -1.27559 0
M  V30 6346 H 587.86 5.20783 1.212 0
M  V30 6347 H 588.203 3.6699 1.9653 0
M  V30 6348 H 588.736 3.96721 0.29274 0
M  V30 6349 H 585.475 6.38633 -1.47743 0
M  V30 6350 H 584.995 5.99499 0.189842 0
M  V30 6351 H 586.674 6.46776 -0.170425 0
M  V30 6352 N 586.806 0.0935595 1.57322 0
M  V30 6353 C 588.053 -0.570509 1.94297 0
M  V30 6354 C 588.381 -1.68286 0.97519 0
M  V30 6355 O 587.636 -1.95699 -0.00548655 0
M  V30 6356 C 587.935 -1.16692 3.37813 0
M  V30 6357 C 587.601 -0.178509 4.50547 0
M  V30 6358 C 586.263 0.0933475 4.81109 0
M  V30 6359 C 588.615 0.496472 5.1883 0
M  V30 6360 C 585.943 1.0469 5.77284 0
M  V30 6361 C 588.295 1.43849 6.16028 0
M  V30 6362 C 586.959 1.71859 6.44997 0
M  V30 6363 H 586.229 -0.208764 0.710984 0
M  V30 6364 H 588.876 0.169066 1.90752 0
M  V30 6365 H 587.181 -1.98271 3.37929 0
M  V30 6366 H 588.878 -1.6884 3.63722 0
M  V30 6367 H 585.468 -0.400584 4.26724 0
M  V30 6368 H 589.652 0.299584 4.95395 0
M  V30 6369 H 584.908 1.27094 5.98044 0
M  V30 6370 H 589.082 1.96734 6.68034 0
M  V30 6371 H 586.709 2.45906 7.19329 0
M  V30 6372 N 588.284 -1.56567 -0.180126 0
M  V30 6373 C 589.214 -1.98753 -1.22553 0
M  V30 6374 C 590.195 -0.86175 -1.46656 0
M  V30 6375 O 591.38 -1.12719 -1.58139 0
M  V30 6376 C 588.51 -2.33988 -2.56645 0
M  V30 6377 C 587.464 -3.49445 -2.47128 0
M  V30 6378 C 586.79 -3.70397 -3.8563 0
M  V30 6379 C 588.09 -4.83171 -1.98352 0
M  V30 6380 H 589.784 -2.86332 -0.874896 0
M  V30 6381 H 587.33 -1.37757 -0.419414 0
M  V30 6382 H 589.283 -2.62097 -3.29974 0
M  V30 6383 H 588.007 -1.43309 -2.93479 0
M  V30 6384 H 586.666 -3.2145 -1.76254 0
M  V30 6385 H 586.314 -2.77023 -4.19842 0
M  V30 6386 H 586.014 -4.48077 -3.80132 0
M  V30 6387 H 587.538 -4.00897 -4.60558 0
M  V30 6388 H 588.952 -5.10213 -2.61449 0
M  V30 6389 H 587.349 -5.64425 -2.03823 0
M  V30 6390 H 588.419 -4.75753 -0.937402 0
M  V30 6391 N 589.762 0.448376 -1.51087 0
M  V30 6392 C 591.01 1.19635 -1.62886 0
M  V30 6393 C 591.331 1.91977 -0.342024 0
M  V30 6394 O 590.601 1.85094 0.641636 0
M  V30 6395 H 589.181 0.444598 -0.600285 0
M  V30 6396 H 591.843 0.515138 -1.87969 0
M  V30 6397 H 590.939 1.93194 -2.45117 0
M  V30 6398 N 591.24 1.41047 0.703093 0
M  V30 6399 C 592.465 1.43537 1.49706 0
M  V30 6400 C 592.89 0.0401853 1.88057 0
M  V30 6401 O 592.248 -0.954785 1.54122 0
M  V30 6402 C 592.296 2.3433 2.74084 0
M  V30 6403 O 591.4 1.79515 3.71279 0
M  V30 6404 H 590.741 0.487454 0.450871 0
M  V30 6405 H 593.271 1.85422 0.86486 0
M  V30 6406 H 593.281 2.49947 3.22476 0
M  V30 6407 H 591.956 3.35708 2.45506 0
M  V30 6408 H 590.533 1.7331 3.30179 0
M  V30 6409 N 592.718 -0.936591 1.26751 0
M  V30 6410 C 593.965 -1.68331 1.12566 0
M  V30 6411 C 594.293 -1.91677 -0.330168 0
M  V30 6412 O 593.548 -1.49859 -1.2586 0
M  V30 6413 C 593.847 -3.06099 1.84494 0
M  V30 6414 C 593.513 -3.02493 3.34378 0
M  V30 6415 C 592.175 -3.01217 3.75262 0
M  V30 6416 C 594.527 -2.94453 4.30055 0
M  V30 6417 C 591.855 -2.89672 5.10203 0
M  V30 6418 C 594.207 -2.84449 5.65041 0
M  V30 6419 C 592.871 -2.81518 6.0523 0
M  V30 6420 H 592.141 -0.615965 0.411907 0
M  V30 6421 H 594.788 -1.09292 1.5725 0
M  V30 6422 H 593.093 -3.6879 1.32292 0
M  V30 6423 H 594.79 -3.62733 1.70955 0
M  V30 6424 H 591.38 -3.04269 3.01858 0
M  V30 6425 H 595.564 -2.94544 3.99447 0
M  V30 6426 H 590.82 -2.85783 5.40498 0
M  V30 6427 H 594.994 -2.77192 6.38856 0
M  V30 6428 H 592.621 -2.72329 7.09747 0
M  V30 6429 N 594.196 -1.08629 -1.14182 0
M  V30 6430 C 595.426 -0.837673 -1.88856 0
M  V30 6431 C 595.834 0.614024 -1.78959 0
M  V30 6432 O 595.177 1.43384 -1.14833 0
M  V30 6433 C 595.239 -1.18355 -3.39459 0
M  V30 6434 C 594.903 -2.63848 -3.73139 0
M  V30 6435 C 595.9 -3.62099 -3.73069 0
M  V30 6436 C 593.585 -2.99761 -4.03049 0
M  V30 6437 C 595.579 -4.94292 -4.02435 0
M  V30 6438 C 593.266 -4.32147 -4.32078 0
M  V30 6439 C 594.264 -5.29223 -4.31755 0
M  V30 6440 O 593.952 -6.59229 -4.60079 0
M  V30 6441 H 593.684 -0.301609 -0.604986 0
M  V30 6442 H 596.238 -1.44961 -1.45518 0
M  V30 6443 H 594.468 -0.514628 -3.8326 0
M  V30 6444 H 596.157 -0.915391 -3.95443 0
M  V30 6445 H 596.923 -3.35698 -3.50046 0
M  V30 6446 H 592.802 -2.2484 -4.02453 0
M  V30 6447 H 596.346 -5.70055 -4.02098 0
M  V30 6448 H 592.243 -4.58296 -4.54571 0
M  V30 6449 H 593.011 -6.64578 -4.77785 0
M  V30 6450 N 595.674 1.31259 -0.872281 0
M  V30 6451 C 596.604 2.30929 -0.345554 0
M  V30 6452 C 597.585 1.60449 0.5648 0
M  V30 6453 O 598.77 1.8814 0.481335 0
M  V30 6454 C 595.9 3.44348 0.451823 0
M  V30 6455 C 594.854 4.26435 -0.365641 0
M  V30 6456 C 594.18 5.31785 0.557562 0
M  V30 6457 C 595.48 4.97159 -1.60095 0
M  V30 6458 H 597.174 2.75234 -1.17841 0
M  V30 6459 H 594.72 1.3232 -0.568094 0
M  V30 6460 H 596.673 4.13128 0.830854 0
M  V30 6461 H 595.397 2.98816 1.31821 0
M  V30 6462 H 594.056 3.59326 -0.726649 0
M  V30 6463 H 593.704 4.82502 1.4213 0
M  V30 6464 H 593.404 5.87598 0.0144878 0
M  V30 6465 H 594.928 6.03424 0.933387 0
M  V30 6466 H 596.342 5.58523 -1.29323 0
M  V30 6467 H 594.739 5.62779 -2.08327 0
M  V30 6468 H 595.809 4.24012 -2.35249 0
M  V30 6469 N 597.152 0.631951 1.44375 0
M  V30 6470 C 598.398 0.13697 2.02337 0
M  V30 6471 C 598.731 -1.23826 1.49602 0
M  V30 6472 O 598.006 -1.8221 0.680415 0
M  V30 6473 C 598.289 0.124536 3.59885 0
M  V30 6474 C 598.142 1.53217 4.229 0
M  V30 6475 C 599.461 -0.550481 4.36644 0
M  V30 6476 H 596.58 0.051247 0.735216 0
M  V30 6477 H 599.222 0.808581 1.71936 0
M  V30 6478 H 597.372 -0.44737 3.85916 0
M  V30 6479 H 599.044 2.15303 4.07973 0
M  V30 6480 H 597.287 2.0858 3.80364 0
M  V30 6481 H 597.958 1.4755 5.31914 0
M  V30 6482 H 600.434 -0.0641154 4.16051 0
M  V30 6483 H 599.31 -0.528371 5.46351 0
M  V30 6484 H 599.571 -1.62097 4.11311 0
M  V30 6485 N 598.631 -1.53133 0.372548 0
M  V30 6486 C 599.579 -2.27473 -0.485681 0
M  V30 6487 C 600.573 -1.30719 -1.07745 0
M  V30 6488 O 601.779 -1.48321 -1.01985 0
M  V30 6489 H 598.154 -0.731269 -0.175356 0
M  V30 6490 H 600.125 -2.97955 0.162986 0
M  V30 6491 C 598.874 -3.08191 -1.60978 0
M  V30 6492 H 598.197 -3.82488 -1.16373 0
M  V30 6493 H 599.637 -3.63373 -2.18485 0
M  V30 6494 C 598.096 -2.19461 -2.55614 0
M  V30 6495 O 598.626 -1.81008 -3.58607 0
M  V30 6496 N 596.832 -1.83955 -2.24965 0
M  V30 6497 H 596.379 -2.15423 -1.41247 0
M  V30 6498 H 596.337 -1.24874 -2.88538 0
M  V30 6499 N 600.109 -0.101901 -1.5727 0
M  V30 6500 C 601.039 0.851544 -2.17419 0
M  V30 6501 C 602.02 1.28942 -1.10941 0
M  V30 6502 O 603.205 1.35509 -1.39107 0
M  V30 6503 C 600.335 2.10816 -2.75996 0
M  V30 6504 C 599.289 1.80867 -3.87906 0
M  V30 6505 C 598.615 3.13413 -4.33216 0
M  V30 6506 C 599.915 1.0903 -5.10793 0
M  V30 6507 H 601.609 0.350381 -2.97343 0
M  V30 6508 H 599.155 0.16709 -1.43027 0
M  V30 6509 H 601.108 2.77959 -3.16729 0
M  V30 6510 H 599.832 2.63227 -1.93337 0
M  V30 6511 H 598.491 1.16119 -3.47724 0
M  V30 6512 H 598.139 3.63725 -3.47438 0
M  V30 6513 H 597.839 2.94155 -5.08671 0
M  V30 6514 H 599.363 3.81704 -4.76586 0
M  V30 6515 H 600.777 1.66295 -5.48652 0
M  V30 6516 H 599.174 0.99927 -5.91722 0
M  V30 6517 H 600.244 0.0741704 -4.84843 0
M  V30 6518 N 601.587 1.56661 0.17182 0
M  V30 6519 C 602.836 1.81158 0.886831 0
M  V30 6520 C 603.149 0.679072 1.83434 0
M  V30 6521 O 604.355 0.808964 2.59168 0
M  V30 6522 C 602.811 3.20999 1.6275 0
M  V30 6523 C 602.419 4.42117 0.723652 0
M  V30 6524 C 604.163 3.5479 2.33076 0
M  V30 6525 C 602.07 5.7298 1.46452 0
M  V30 6526 H 601 0.675543 0.334899 0
M  V30 6527 H 603.651 1.82967 0.139765 0
M  V30 6528 H 602.033 3.13506 2.4193 0
M  V30 6529 H 603.207 4.60789 -0.0311485 0
M  V30 6530 H 601.522 4.16197 0.130063 0
M  V30 6531 H 604.119 4.49806 2.89099 0
M  V30 6532 H 604.462 2.79646 3.08389 0
M  V30 6533 H 604.995 3.63834 1.6084 0
M  V30 6534 H 601.734 6.51152 0.753729 0
M  V30 6535 H 601.254 5.58285 2.19266 0
M  V30 6536 H 602.933 6.14916 2.01214 0
M  V30 6537 N 603.065 -0.440357 1.51323 0
M  V30 6538 C 603.995 -1.54174 1.75364 0
M  V30 6539 C 604.976 -1.59039 0.603375 0
M  V30 6540 O 606.161 -1.74815 0.845774 0
M  V30 6541 C 603.291 -2.92277 1.87593 0
M  V30 6542 C 602.245 -3.02274 3.03009 0
M  V30 6543 C 601.571 -4.42327 3.00418 0
M  V30 6544 C 602.871 -2.76634 4.43024 0
M  V30 6545 H 604.565 -1.34307 2.67585 0
M  V30 6546 H 602.111 -0.644678 1.28763 0
M  V30 6547 H 604.064 -3.69284 2.02995 0
M  V30 6548 H 602.788 -3.13369 0.920179 0
M  V30 6549 H 601.447 -2.27706 2.87307 0
M  V30 6550 H 601.095 -4.60382 2.02626 0
M  V30 6551 H 600.795 -4.49946 3.77918 0
M  V30 6552 H 602.319 -5.21312 3.17909 0
M  V30 6553 H 603.733 -3.43376 4.59093 0
M  V30 6554 H 602.13 -2.95666 5.22208 0
M  V30 6555 H 603.2 -1.72262 4.5327 0
M  V30 6556 N 604.543 -1.41418 -0.695603 0
M  V30 6557 C 605.506 -1.42988 -1.79129 0
M  V30 6558 C 606.506 -0.320514 -1.57573 0
M  V30 6559 O 607.696 -0.58039 -1.64247 0
M  V30 6560 C 604.828 -1.24122 -3.175 0
M  V30 6561 H 606.021 -2.40526 -1.7913 0
M  V30 6562 H 603.574 -1.2756 -0.903225 0
M  V30 6563 H 604.309 -0.274253 -3.23138 0
M  V30 6564 H 604.094 -2.045 -3.34547 0
M  V30 6565 H 605.584 -1.28056 -3.97481 0
M  V30 6566 N 606.021 0.929856 -1.27246 0
M  V30 6567 C 607.267 1.6798 -1.13625 0
M  V30 6568 C 607.6 1.91586 0.317589 0
M  V30 6569 O 606.875 1.50467 1.23247 0
M  V30 6570 C 607.158 3.04766 -1.91806 0
M  V30 6571 C 607.011 2.88415 -3.45162 0
M  V30 6572 C 608.33 4.05063 -1.72082 0
M  V30 6573 H 605.449 0.609632 -0.414147 0
M  V30 6574 H 608.091 1.0792 -1.56376 0
M  V30 6575 H 606.241 3.56034 -1.55474 0
M  V30 6576 H 607.913 2.44282 -3.91311 0
M  V30 6577 H 606.156 2.23802 -3.71611 0
M  V30 6578 H 606.827 3.85482 -3.95105 0
M  V30 6579 H 609.303 3.62798 -2.03757 0
M  V30 6580 H 608.179 4.98765 -2.29182 0
M  V30 6581 H 608.44 4.37021 -0.668206 0
M  V30 6582 N 607.499 1.09233 1.13605 0
M  V30 6583 C 608.745 0.828385 1.8511 0
M  V30 6584 C 609.078 -0.64437 1.83198 0
M  V30 6585 O 608.353 -1.47428 1.26867 0
M  V30 6586 C 608.636 1.36167 3.33363 0
M  V30 6587 C 608.489 2.90038 3.438 0
M  V30 6588 C 609.808 0.993819 4.28732 0
M  V30 6589 H 606.927 0.30239 0.672108 0
M  V30 6590 H 609.569 1.35339 1.33355 0
M  V30 6591 H 607.719 0.9151 3.77569 0
M  V30 6592 H 609.391 3.43128 3.08319 0
M  V30 6593 H 607.634 3.27271 2.84739 0
M  V30 6594 H 608.305 3.22428 4.48045 0
M  V30 6595 H 610.781 1.37893 3.92587 0
M  V30 6596 H 609.657 1.39403 5.30903 0
M  V30 6597 H 609.918 -0.0982206 4.41991 0
M  V30 6598 N 608.977 -1.30795 0.87923 0
M  V30 6599 C 609.94 -2.26563 0.346676 0
M  V30 6600 C 610.94 -1.52578 -0.507597 0
M  V30 6601 O 612.13 -1.71318 -0.315575 0
M  V30 6602 C 609.262 -3.37115 -0.506611 0
M  V30 6603 H 610.455 -2.75183 1.19223 0
M  V30 6604 H 608.008 -1.41886 0.655598 0
M  V30 6605 H 608.743 -2.93802 -1.37299 0
M  V30 6606 H 608.528 -3.91959 0.105218 0
M  V30 6607 H 610.018 -4.08412 -0.871192 0
M  V30 6608 N 610.455 -0.639598 -1.44038 0
M  V30 6609 C 611.388 0.109736 -2.27936 0
M  V30 6610 C 612.366 0.843095 -1.39035 0
M  V30 6611 O 613.55 0.845456 -1.68476 0
M  V30 6612 C 610.677 1.16173 -3.18153 0
M  V30 6613 C 609.723 0.527954 -4.2322 0
M  V30 6614 S 610.556 -0.688318 -5.31058 0
M  V30 6615 C 611.712 0.363481 -6.24844 0
M  V30 6616 H 611.945 -0.601986 -2.91142 0
M  V30 6617 H 609.478 -0.42802 -1.48349 0
M  V30 6618 H 611.436 1.76372 -3.7068 0
M  V30 6619 H 610.097 1.84569 -2.54151 0
M  V30 6620 H 609.29 1.32054 -4.86393 0
M  V30 6621 H 608.892 0.000396444 -3.74 0
M  V30 6622 H 611.184 1.23362 -6.66174 0
M  V30 6623 H 612.127 -0.23288 -7.07717 0
M  V30 6624 H 612.535 0.693179 -5.60228 0
M  V30 6625 N 611.933 1.52934 -0.380664 0
M  V30 6626 C 612.896 2.24809 0.446473 0
M  V30 6627 C 613.896 1.26133 0.997347 0
M  V30 6628 O 615.086 1.50297 0.880714 0
M  V30 6629 C 612.218 2.99649 1.62553 0
M  V30 6630 H 613.411 2.99343 -0.182677 0
M  V30 6631 H 610.964 1.55736 -0.132618 0
M  V30 6632 H 611.699 2.29395 2.29235 0
M  V30 6633 H 611.484 3.72066 1.23732 0
M  V30 6634 H 612.974 3.54246 2.21133 0
M  V30 6635 N 613.412 0.11024 1.57214 0
M  V30 6636 C 614.642 -0.557025 1.98949 0
M  V30 6637 C 615.05 -1.61317 0.988606 0
M  V30 6638 O 614.393 -1.83679 -0.0279159 0
M  V30 6639 C 614.455 -1.24956 3.37085 0
M  V30 6640 C 614.119 -0.342398 4.55716 0
M  V30 6641 C 615.116 0.415511 5.18237 0
M  V30 6642 C 612.801 -0.256029 5.01647 0
M  V30 6643 C 614.795 1.24761 6.25071 0
M  V30 6644 C 612.482 0.579713 6.08344 0
M  V30 6645 C 613.48 1.33017 6.69922 0
M  V30 6646 O 613.168 2.15205 7.74559 0
M  V30 6647 H 612.9 -0.152792 0.658506 0
M  V30 6648 H 615.454 0.19076 2.04512 0
M  V30 6649 H 613.684 -2.04424 3.2825 0
M  V30 6650 H 615.373 -1.81286 3.63167 0
M  V30 6651 H 616.139 0.358605 4.83672 0
M  V30 6652 H 612.018 -0.829831 4.5347 0
M  V30 6653 H 615.562 1.83386 6.73064 0
M  V30 6654 H 611.459 0.638044 6.42339 0
M  V30 6655 H 612.227 2.08052 7.91617 0
M  V30 6656 N 614.89 -1.56749 -0.16351 0
M  V30 6657 C 615.8 -2.00255 -1.2221 0
M  V30 6658 C 616.816 -0.915194 -1.47987 0
M  V30 6659 O 617.992 -1.22342 -1.59982 0
M  V30 6660 C 615.057 -2.36035 -2.53946 0
M  V30 6661 C 614.118 -3.58637 -2.35962 0
M  V30 6662 C 613.351 -3.92701 -3.61416 0
M  V30 6663 O 613.574 -3.27632 -4.66919 0
M  V30 6664 O 612.508 -4.86019 -3.55062 0
M  V30 6665 H 616.334 -2.90586 -0.882794 0
M  V30 6666 H 613.919 -1.44721 -0.370978 0
M  V30 6667 H 615.801 -2.59982 -3.31643 0
M  V30 6668 H 614.476 -1.48863 -2.8744 0
M  V30 6669 H 613.383 -3.39898 -1.5627 0
M  V30 6670 H 614.716 -4.46374 -2.0739 0
M  V30 6671 N 616.368 0.432326 -1.51554 0
M  V30 6672 C 617.278 1.55023 -1.76082 0
M  V30 6673 C 618.294 1.61593 -0.645265 0
M  V30 6674 O 619.47 1.78742 -0.928086 0
M  V30 6675 C 616.535 2.90964 -1.88523 0
M  V30 6676 C 615.596 2.9447 -3.12388 0
M  V30 6677 C 614.829 4.23926 -3.24225 0
M  V30 6678 O 615.052 5.16576 -2.4188 0
M  V30 6679 O 613.986 4.33818 -4.17235 0
M  V30 6680 H 617.812 1.37238 -2.70923 0
M  V30 6681 H 615.397 0.615845 -1.36117 0
M  V30 6682 H 617.279 3.71633 -1.98662 0
M  V30 6683 H 615.954 3.08865 -0.9687 0
M  V30 6684 H 614.861 2.12737 -3.07723 0
M  V30 6685 H 616.194 2.81514 -4.03746 0
M  V30 6686 N 617.846 1.41785 0.688094 0
M  V30 6687 C 618.778 1.40159 1.81351 0
M  V30 6688 C 619.791 0.30262 1.59963 0
M  V30 6689 O 620.98 0.564841 1.69327 0
M  V30 6690 C 618.08 1.16517 3.1824 0
M  V30 6691 C 617.253 2.38597 3.66593 0
M  V30 6692 C 616.312 2.10699 4.82174 0
M  V30 6693 O 615.338 2.83798 4.93404 0
M  V30 6694 N 616.54 1.10187 5.69947 0
M  V30 6695 H 619.305 2.3716 1.83236 0
M  V30 6696 H 616.866 1.36494 0.870697 0
M  V30 6697 H 618.858 0.957941 3.93199 0
M  V30 6698 H 617.428 0.280873 3.11336 0
M  V30 6699 H 616.648 2.74974 2.82459 0
M  V30 6700 H 617.936 3.19919 3.95638 0
M  V30 6701 H 617.334 0.497016 5.63512 0
M  V30 6702 H 615.891 0.954518 6.44773 0
M  V30 6703 N 619.324 -0.923095 1.27737 0
M  V30 6704 C 620.272 -2.04567 1.10703 0
M  V30 6705 C 621.266 -1.69375 0.0288445 0
M  V30 6706 O 622.472 -1.79027 0.186913 0
M  V30 6707 H 618.847 -0.670109 0.34126 0
M  V30 6708 H 620.818 -2.1608 2.05796 0
M  V30 6709 C 619.567 -3.38934 0.775837 0
M  V30 6710 H 618.89 -3.66501 1.59741 0
M  V30 6711 H 620.33 -4.18239 0.696548 0
M  V30 6712 C 618.789 -3.32863 -0.520012 0
M  V30 6713 O 619.319 -3.70462 -1.55308 0
M  V30 6714 N 617.525 -2.85958 -0.51732 0
M  V30 6715 H 617.072 -2.55557 0.32379 0
M  V30 6716 H 617.03 -2.82279 -1.38441 0
M  V30 6717 N 620.802 -1.09834 -1.13024 0
M  V30 6718 C 621.734 -0.699379 -2.18269 0
M  V30 6719 C 622.747 0.260841 -1.60697 0
M  V30 6720 O 623.936 0.0462538 -1.7844 0
M  V30 6721 C 621.036 -0.0104537 -3.38898 0
M  V30 6722 C 620.209 -0.993275 -4.25973 0
M  V30 6723 C 619.268 -0.336982 -5.2512 0
M  V30 6724 O 618.294 -0.985892 -5.60597 0
M  V30 6725 N 619.496 0.90716 -5.73368 0
M  V30 6726 H 622.261 -1.60486 -2.5311 0
M  V30 6727 H 619.822 -0.986337 -1.28386 0
M  V30 6728 H 621.814 0.43991 -4.02302 0
M  V30 6729 H 620.384 0.797335 -3.0226 0
M  V30 6730 H 619.604 -1.62208 -3.5928 0
M  V30 6731 H 620.892 -1.65876 -4.81002 0
M  V30 6732 H 620.29 1.45384 -5.46699 0
M  V30 6733 H 618.847 1.30077 -6.38689 0
M  V30 6734 N 622.28 1.30327 -0.886154 0
M  V30 6735 C 623.243 2.26376 -0.358687 0
M  V30 6736 C 624.243 1.52845 0.499498 0
M  V30 6737 O 625.433 1.71483 0.306485 0
M  V30 6738 C 622.565 3.37379 0.488726 0
M  V30 6739 H 623.758 2.74547 -1.20681 0
M  V30 6740 H 621.311 1.41536 -0.663113 0
M  V30 6741 H 622.046 2.94526 1.35739 0
M  V30 6742 H 621.831 3.91897 -0.126003 0
M  V30 6743 H 623.321 4.08868 0.84952 0
M  V30 6744 N 623.758 0.647228 1.43697 0
M  V30 6745 C 624.986 0.16575 2.06235 0
M  V30 6746 C 625.401 -1.1662 1.48476 0
M  V30 6747 O 624.758 -1.7187 0.613762 0
M  V30 6748 C 624.809 0.0621651 3.61447 0
M  V30 6749 O 624.53 1.34146 4.17057 0
M  V30 6750 C 626.031 -0.446102 4.4105 0
M  V30 6751 H 623.251 0.0871158 0.665321 0
M  V30 6752 H 625.795 0.886183 1.84301 0
M  V30 6753 H 623.95 -0.608794 3.82587 0
M  V30 6754 H 624.364 1.19675 5.10664 0
M  V30 6755 H 625.838 -0.46755 5.50016 0
M  V30 6756 H 626.315 -1.47627 4.13646 0
M  V30 6757 H 626.921 0.192159 4.24866 0
M  V30 6758 N 625.236 -1.5273 0.388769 0
M  V30 6759 C 626.485 -2.00757 -0.194833 0
M  V30 6760 C 626.798 -1.27951 -1.47946 0
M  V30 6761 O 628.004 -1.66686 -2.14308 0
M  V30 6762 C 626.46 -3.57695 -0.397762 0
M  V30 6763 C 626.068 -4.394 0.873583 0
M  V30 6764 C 627.812 -4.14012 -0.937759 0
M  V30 6765 C 625.719 -5.87938 0.638962 0
M  V30 6766 H 624.649 -0.750101 -0.0765845 0
M  V30 6767 H 627.3 -1.76239 0.511086 0
M  V30 6768 H 625.682 -3.7846 -1.16552 0
M  V30 6769 H 626.856 -4.30403 1.64591 0
M  V30 6770 H 625.171 -3.94301 1.33849 0
M  V30 6771 H 627.768 -5.22645 -1.12899 0
M  V30 6772 H 628.111 -3.7007 -1.90666 0
M  V30 6773 H 628.644 -3.97137 -0.229588 0
M  V30 6774 H 625.383 -6.36202 1.57885 0
M  V30 6775 H 624.903 -5.99726 -0.094443 0
M  V30 6776 H 626.582 -6.46423 0.273299 0
M  V30 6777 N 626.714 -0.118576 -1.57153 0
M  V30 6778 C 627.677 0.817464 -2.14127 0
M  V30 6779 C 628.677 1.1949 -1.07604 0
M  V30 6780 O 629.867 1.12048 -1.33382 0
M  V30 6781 C 626.999 2.10541 -2.68115 0
M  V30 6782 H 628.192 0.322339 -2.98163 0
M  V30 6783 H 625.745 0.130655 -1.55753 0
M  V30 6784 H 626.48 2.64485 -1.87665 0
M  V30 6785 H 626.265 1.84425 -3.4602 0
M  V30 6786 H 627.755 2.77453 -3.12105 0
M  V30 6787 N 628.193 1.56834 0.155195 0
M  V30 6788 C 629.103 2.009 1.21146 0
M  V30 6789 C 630.119 0.923029 1.475 0
M  V30 6790 O 631.295 1.23189 1.59331 0
M  V30 6791 C 628.36 2.37378 2.52691 0
M  V30 6792 C 627.421 3.59883 2.34057 0
M  V30 6793 C 626.654 3.94612 3.59329 0
M  V30 6794 O 626.877 3.30104 4.65175 0
M  V30 6795 O 625.811 4.87895 3.52479 0
M  V30 6796 H 629.637 2.9105 0.867371 0
M  V30 6797 H 627.222 1.44916 0.363298 0
M  V30 6798 H 629.104 2.61737 3.3026 0
M  V30 6799 H 627.779 1.50385 2.86646 0
M  V30 6800 H 626.686 3.40722 1.54465 0
M  V30 6801 H 628.019 4.47468 2.0502 0
M  V30 6802 N 629.671 -0.424282 1.51781 0
M  V30 6803 C 630.899 -1.1947 1.68921 0
M  V30 6804 C 631.314 -1.84683 0.39213 0
M  V30 6805 O 630.671 -1.71261 -0.630554 0
M  V30 6806 C 630.722 -2.26909 2.81416 0
M  V30 6807 O 630.443 -1.64361 4.061 0
M  V30 6808 C 631.944 -3.16945 3.09937 0
M  V30 6809 H 629.164 -0.359591 0.566511 0
M  V30 6810 H 631.708 -0.501139 1.98265 0
M  V30 6811 H 629.863 -2.91959 2.54635 0
M  V30 6812 H 630.277 -2.35468 4.68674 0
M  V30 6813 H 631.751 -3.88437 3.922 0
M  V30 6814 H 632.228 -3.78451 2.22871 0
M  V30 6815 H 632.834 -2.57581 3.38426 0
M  V30 6816 N 631.149 -1.42148 -0.680565 0
M  V30 6817 C 632.059 -1.47565 -1.82378 0
M  V30 6818 C 633.075 -0.36489 -1.70131 0
M  V30 6819 O 634.251 -0.614916 -1.91783 0
M  V30 6820 C 631.316 -1.37013 -3.18478 0
M  V30 6821 C 630.377 -2.58532 -3.42724 0
M  V30 6822 C 629.61 -2.48473 -4.72331 0
M  V30 6823 O 629.833 -1.51745 -5.49845 0
M  V30 6824 O 628.767 -3.38503 -4.97694 0
M  V30 6825 H 632.593 -2.44045 -1.80764 0
M  V30 6826 H 630.178 -1.23849 -0.835569 0
M  V30 6827 H 632.06 -1.33468 -3.99705 0
M  V30 6828 H 630.735 -0.436552 -3.20743 0
M  V30 6829 H 629.642 -2.67652 -2.61368 0
M  V30 6830 H 630.975 -3.50769 -3.45286 0
M  V30 6831 N 632.627 0.916307 -1.28225 0
M  V30 6832 C 633.537 2.05165 -1.13775 0
M  V30 6833 C 634.553 1.73879 -0.0649418 0
M  V30 6834 O 635.729 1.99531 -0.273722 0
M  V30 6835 C 632.794 3.37385 -0.798267 0
M  V30 6836 C 631.855 3.82296 -1.95316 0
M  V30 6837 C 631.088 5.08206 -1.62978 0
M  V30 6838 O 631.311 5.6781 -0.542948 0
M  V30 6839 O 630.245 5.48768 -2.47261 0
M  V30 6840 H 634.071 2.20273 -2.09078 0
M  V30 6841 H 631.656 1.0373 -1.07519 0
M  V30 6842 H 633.538 4.16773 -0.62278 0
M  V30 6843 H 632.213 3.23458 0.125139 0
M  V30 6844 H 631.12 3.03746 -2.18378 0
M  V30 6845 H 632.453 4.00782 -2.85718 0
M  V30 6846 N 634.105 1.10431 1.1244 0
M  V30 6847 C 635.052 0.753103 2.18167 0
M  V30 6848 C 636.022 -0.270549 1.63882 0
M  V30 6849 O 637.207 -0.149837 1.90211 0
M  V30 6850 C 634.347 0.191046 3.44571 0
M  V30 6851 C 633.46 1.26999 4.12911 0
M  V30 6852 C 632.595 0.669586 5.26963 0
M  V30 6853 C 631.634 1.72912 5.87169 0
M  V30 6854 N 630.771 1.14898 6.92635 0
M  V30 6855 H 635.611 1.65892 2.47556 0
M  V30 6856 H 633.148 0.828631 1.21541 0
M  V30 6857 H 635.106 -0.152712 4.1692 0
M  V30 6858 H 633.736 -0.677997 3.15599 0
M  V30 6859 H 632.788 1.73087 3.3874 0
M  V30 6860 H 634.1 2.07204 4.53727 0
M  V30 6861 H 633.254 0.275274 6.06075 0
M  V30 6862 H 631.993 -0.163895 4.87425 0
M  V30 6863 H 630.998 2.13286 5.06744 0
M  V30 6864 H 632.223 2.56544 6.28778 0
M  V30 6865 H 630.169 0.336956 6.55134 0
M  V30 6866 H 630.086 1.88786 7.32049 0
M  V30 6867 H 631.354 0.78121 7.75576 0
M  V30 6868 N 635.583 -1.29855 0.893053 0
M  V30 6869 C 636.493 -2.31661 0.370157 0
M  V30 6870 C 637.509 -1.65677 -0.531723 0
M  V30 6871 O 638.685 -1.9691 -0.422902 0
M  V30 6872 C 635.75 -3.44388 -0.399741 0
M  V30 6873 C 634.811 -4.2598 0.532861 0
M  V30 6874 C 634.044 -5.33324 -0.200388 0
M  V30 6875 O 634.267 -5.52305 -1.42531 0
M  V30 6876 O 633.201 -6.00188 0.453668 0
M  V30 6877 H 637.027 -2.78354 1.2146 0
M  V30 6878 H 634.612 -1.34171 0.657153 0
M  V30 6879 H 636.494 -4.13037 -0.835358 0
M  V30 6880 H 635.169 -2.99815 -1.22035 0
M  V30 6881 H 634.076 -3.59998 1.01746 0
M  V30 6882 H 635.409 -4.74178 1.3197 0
M  V30 6883 N 637.061 -0.65484 -1.43351 0
M  V30 6884 C 638.008 0.0357713 -2.30772 0
M  V30 6885 C 638.978 0.813035 -1.44841 0
M  V30 6886 O 640.163 0.789314 -1.73708 0
M  V30 6887 C 637.303 0.995084 -3.30442 0
M  V30 6888 C 636.416 0.21375 -4.31471 0
M  V30 6889 C 635.551 1.16701 -5.18222 0
M  V30 6890 C 634.59 0.376201 -6.10943 0
M  V30 6891 N 633.727 1.28113 -6.90313 0
M  V30 6892 H 638.567 -0.71559 -2.89281 0
M  V30 6893 H 636.104 -0.364645 -1.42509 0
M  V30 6894 H 638.062 1.5649 -3.86739 0
M  V30 6895 H 636.692 1.7133 -2.7358 0
M  V30 6896 H 635.744 -0.472377 -3.77456 0
M  V30 6897 H 637.056 -0.401103 -4.97185 0
M  V30 6898 H 636.21 1.8074 -5.79153 0
M  V30 6899 H 634.949 1.81577 -4.52638 0
M  V30 6900 H 633.954 -0.277534 -5.49099 0
M  V30 6901 H 635.179 -0.268178 -6.7857 0
M  V30 6902 H 633.125 1.91666 -6.27376 0
M  V30 6903 H 633.042 0.720879 -7.52555 0
M  V30 6904 H 634.31 1.90962 -7.55747 0
M  V30 6905 N 638.539 1.52521 -0.396863 0
M  V30 6906 C 639.955 1.5953 -0.0471659 0
M  V30 6907 C 640.155 1.41044 1.43906 0
M  V30 6908 O 639.211 1.23122 2.20448 0
M  V30 6909 C 640.524 2.95972 -0.531113 0
M  V30 6910 C 642.072 3.09172 -0.488024 0
M  V30 6911 C 642.547 4.48075 -0.948281 0
M  V30 6912 N 644.038 4.54281 -0.9046 0
M  V30 6913 C 644.773 5.60007 -1.23205 0
M  V30 6914 N 644.269 6.73343 -1.63036 0
M  V30 6915 N 646.062 5.50151 -1.15282 0
M  V30 6916 H 638.213 1.62786 -1.36435 0
M  V30 6917 H 640.476 0.76514 -0.559701 0
M  V30 6918 H 640.182 3.14741 -1.56942 0
M  V30 6919 H 640.056 3.77143 0.0657922 0
M  V30 6920 H 642.443 2.90095 0.541211 0
M  V30 6921 H 642.524 2.29937 -1.12083 0
M  V30 6922 H 642.168 4.67894 -1.97578 0
M  V30 6923 H 642.098 5.25788 -0.292412 0
M  V30 6924 H 644.589 3.72918 -0.6116 0
M  V30 6925 H 644.902 7.49992 -1.86365 0
M  V30 6926 H 643.247 6.74655 -1.66929 0
M  V30 6927 H 646.438 4.6049 -0.840602 0
M  V30 6928 H 646.611 6.32444 -1.41133 0
M  V30 6929 N 640.017 0.126909 1.57088 0
M  V30 6930 C 641.264 -0.529168 1.95464 0
M  V30 6931 C 641.592 -1.6618 1.01067 0
M  V30 6932 O 640.847 -1.95667 0.0360254 0
M  V30 6933 C 641.146 -1.095 3.40212 0
M  V30 6934 C 640.812 -0.0829015 4.50824 0
M  V30 6935 C 639.474 0.195377 4.80803 0
M  V30 6936 C 641.826 0.606411 5.1766 0
M  V30 6937 C 639.154 1.16912 5.74933 0
M  V30 6938 C 641.506 1.56884 6.12838 0
M  V30 6939 C 640.17 1.85502 6.41206 0
M  V30 6940 H 639.44 -0.193636 0.715252 0
M  V30 6941 H 642.087 0.209489 1.90351 0
M  V30 6942 H 640.392 -1.91058 3.42059 0
M  V30 6943 H 642.089 -1.61087 3.67222 0
M  V30 6944 H 638.679 -0.309979 4.27478 0
M  V30 6945 H 642.863 0.404597 4.94648 0
M  V30 6946 H 638.119 1.3975 5.95214 0
M  V30 6947 H 642.293 2.10859 6.6371 0
M  V30 6948 H 639.92 2.61109 7.13951 0
M  V30 6949 N 641.495 -1.56914 -0.146875 0
M  V30 6950 C 642.427 -1.94878 -1.20645 0
M  V30 6951 C 643.44 -0.844633 -1.39175 0
M  V30 6952 O 644.629 -1.12304 -1.38744 0
M  V30 6953 C 641.729 -2.20769 -2.57127 0
M  V30 6954 C 640.902 -3.52053 -2.59572 0
M  V30 6955 C 639.961 -3.66482 -3.77594 0
M  V30 6956 O 638.987 -4.38873 -3.62462 0
M  V30 6957 N 640.189 -3.03156 -4.95052 0
M  V30 6958 H 642.954 -2.86374 -0.883757 0
M  V30 6959 H 640.515 -1.58366 -0.336436 0
M  V30 6960 H 642.507 -2.27664 -3.34591 0
M  V30 6961 H 641.077 -1.35538 -2.81688 0
M  V30 6962 H 640.297 -3.56598 -1.68023 0
M  V30 6963 H 641.585 -4.38396 -2.58238 0
M  V30 6964 H 640.983 -2.44258 -5.10249 0
M  V30 6965 H 639.54 -3.15611 -5.70292 0
M  V30 6966 N 642.974 0.416227 -1.52004 0
M  V30 6967 C 643.884 1.53147 -1.77717 0
M  V30 6968 C 644.9 1.609 -0.662368 0
M  V30 6969 O 646.076 1.77747 -0.946991 0
M  V30 6970 C 643.141 2.88948 -1.91598 0
M  V30 6971 C 642.202 2.9114 -3.15493 0
M  V30 6972 C 641.435 4.20464 -3.28703 0
M  V30 6973 O 641.658 5.13981 -2.47345 0
M  V30 6974 O 640.592 4.29368 -4.21813 0
M  V30 6975 H 644.418 1.34357 -2.72363 0
M  V30 6976 H 642.003 0.601373 -1.36762 0
M  V30 6977 H 643.885 3.69505 -2.02593 0
M  V30 6978 H 642.56 3.07821 -1.00141 0
M  V30 6979 H 641.467 2.09461 -3.09962 0
M  V30 6980 H 642.8 2.77216 -4.06709 0
M  V30 6981 N 644.452 1.42507 0.673017 0
M  V30 6982 C 645.415 1.4582 1.76831 0
M  V30 6983 C 646.415 0.345542 1.57043 0
M  V30 6984 O 647.605 0.606447 1.63303 0
M  V30 6985 C 644.737 1.29158 3.15485 0
M  V30 6986 H 645.93 2.43345 1.7528 0
M  V30 6987 H 643.483 1.28981 0.882817 0
M  V30 6988 H 644.218 0.325626 3.22661 0
M  V30 6989 H 644.003 2.09797 3.31252 0
M  V30 6990 H 645.493 1.34363 3.95394 0
M  V30 6991 N 645.93 -0.909495 1.28709 0
M  V30 6992 C 646.863 -2.01388 1.07323 0
M  V30 6993 C 647.841 -1.62596 -0.0119757 0
M  V30 6994 O 649.025 -1.88003 0.136796 0
M  V30 6995 C 646.152 -3.32755 0.631797 0
M  V30 6996 C 645.198 -3.90532 1.71428 0
M  V30 6997 S 646.031 -4.20853 3.31124 0
M  V30 6998 C 647.187 -5.55276 2.88825 0
M  V30 6999 H 647.42 -2.19219 2.00824 0
M  V30 7000 H 644.953 -1.05489 1.12745 0
M  V30 7001 H 646.911 -4.08702 0.38381 0
M  V30 7002 H 645.572 -3.12818 -0.283451 0
M  V30 7003 H 644.765 -4.85385 1.35712 0
M  V30 7004 H 644.367 -3.21237 1.91528 0
M  V30 7005 H 646.659 -6.35341 2.3526 0
M  V30 7006 H 647.602 -5.95907 3.82492 0
M  V30 7007 H 648.01 -5.16666 2.27412 0
M  V30 7008 N 647.408 -1.11026 -1.11852 0
M  V30 7009 C 648.318 -0.777252 -2.2135 0
M  V30 7010 C 649.334 0.227821 -1.72502 0
M  V30 7011 O 650.51 0.0650587 -2.01295 0
M  V30 7012 C 647.575 -0.220668 -3.45997 0
M  V30 7013 C 646.636 -1.2838 -4.09655 0
M  V30 7014 C 645.869 -0.753678 -5.28352 0
M  V30 7015 O 646.092 0.417779 -5.68868 0
M  V30 7016 O 645.026 -1.51647 -5.82483 0
M  V30 7017 H 648.852 -1.69141 -2.5224 0
M  V30 7018 H 646.437 -0.885836 -1.20305 0
M  V30 7019 H 648.319 0.0855756 -4.21313 0
M  V30 7020 H 646.994 0.666262 -3.16769 0
M  V30 7021 H 645.901 -1.64299 -3.3609 0
M  V30 7022 H 647.234 -2.14396 -4.43052 0
M  V30 7023 N 648.886 1.2938 -0.899927 0
M  V30 7024 C 649.819 2.25911 -0.322386 0
M  V30 7025 C 650.797 1.52447 0.565567 0
M  V30 7026 O 651.981 1.81404 0.512324 0
M  V30 7027 C 649.108 3.3436 0.540455 0
M  V30 7028 C 648.154 4.25579 -0.280211 0
M  V30 7029 S 648.987 5.08526 -1.67814 0
M  V30 7030 C 650.143 6.20476 -0.822224 0
M  V30 7031 H 650.376 2.7455 -1.1406 0
M  V30 7032 H 647.909 1.37606 -0.700285 0
M  V30 7033 H 649.867 3.97303 1.0325 0
M  V30 7034 H 648.528 2.84416 1.33291 0
M  V30 7035 H 647.721 5.02574 0.378915 0
M  V30 7036 H 647.323 3.67287 -0.705405 0
M  V30 7037 H 649.615 6.77485 -0.0457138 0
M  V30 7038 H 650.558 6.90606 -1.56426 0
M  V30 7039 H 650.966 5.63243 -0.37651 0
M  V30 7040 N 650.364 0.662433 1.43002 0
M  V30 7041 C 651.294 -0.00979809 2.33498 0
M  V30 7042 C 652.275 -0.802329 1.49989 0
M  V30 7043 O 653.46 -0.761964 1.78627 0
M  V30 7044 C 650.59 -0.970446 3.33466 0
M  V30 7045 C 649.544 -0.287383 4.27034 0
M  V30 7046 C 648.87 -1.36012 5.17112 0
M  V30 7047 C 650.17 0.82595 5.15728 0
M  V30 7048 H 651.864 0.745959 2.89958 0
M  V30 7049 H 649.41 0.360172 1.39423 0
M  V30 7050 H 651.363 -1.44971 3.95679 0
M  V30 7051 H 650.087 -1.75748 2.75282 0
M  V30 7052 H 648.746 0.17152 3.66199 0
M  V30 7053 H 648.394 -2.13882 4.55262 0
M  V30 7054 H 648.094 -0.908276 5.80538 0
M  V30 7055 H 649.618 -1.84056 5.82199 0
M  V30 7056 H 651.032 0.42845 5.71697 0
M  V30 7057 H 649.429 1.20282 5.87922 0
M  V30 7058 H 650.499 1.68003 4.54866 0
M  V30 7059 N 651.842 -1.52309 0.404946 0
M  V30 7060 C 652.789 -2.26898 -0.422597 0
M  V30 7061 C 653.759 -1.2914 -1.04461 0
M  V30 7062 O 654.944 -1.57996 -1.06967 0
M  V30 7063 C 652.084 -3.09053 -1.53559 0
M  V30 7064 C 651.197 -4.21762 -0.934908 0
M  V30 7065 C 650.332 -4.91283 -2.02025 0
M  V30 7066 C 649.371 -5.95962 -1.39628 0
M  V30 7067 N 648.508 -6.59017 -2.42159 0
M  V30 7068 H 653.348 -2.97188 0.219903 0
M  V30 7069 H 650.885 -1.46607 0.120282 0
M  V30 7070 H 652.843 -3.54987 -2.19181 0
M  V30 7071 H 651.473 -2.40942 -2.14818 0
M  V30 7072 H 650.525 -3.80029 -0.167854 0
M  V30 7073 H 651.837 -4.96864 -0.439073 0
M  V30 7074 H 650.991 -5.40601 -2.75383 0
M  V30 7075 H 649.73 -4.15741 -2.54973 0
M  V30 7076 H 648.735 -5.45968 -0.648023 0
M  V30 7077 H 649.96 -6.73445 -0.874553 0
M  V30 7078 H 647.906 -5.86306 -2.94247 0
M  V30 7079 H 647.823 -7.2978 -1.97376 0
M  V30 7080 H 649.091 -7.12974 -3.15099 0
M  V30 7081 N 653.32 -0.135238 -1.57019 0
M  V30 7082 C 654.267 0.808908 -2.1616 0
M  V30 7083 C 655.237 1.25234 -1.09113 0
M  V30 7084 O 656.422 1.32697 -1.37099 0
M  V30 7085 C 653.562 2.04729 -2.77813 0
M  V30 7086 C 652.675 1.65074 -3.99218 0
M  V30 7087 C 651.81 2.84002 -4.48906 0
M  V30 7088 C 650.849 2.40663 -5.62803 0
M  V30 7089 N 649.986 3.5256 -6.07162 0
M  V30 7090 H 654.826 0.297751 -2.96509 0
M  V30 7091 H 652.363 0.135264 -1.46477 0
M  V30 7092 H 654.321 2.7731 -3.11697 0
M  V30 7093 H 652.951 2.53275 -2.00128 0
M  V30 7094 H 652.003 0.823029 -3.7139 0
M  V30 7095 H 653.315 1.29236 -4.81767 0
M  V30 7096 H 652.469 3.64788 -4.84783 0
M  V30 7097 H 651.208 3.23076 -3.65339 0
M  V30 7098 H 650.213 1.58314 -5.26514 0
M  V30 7099 H 651.438 2.02687 -6.48147 0
M  V30 7100 H 649.384 3.91278 -5.26534 0
M  V30 7101 H 649.301 3.20699 -6.84608 0
M  V30 7102 H 650.569 4.33738 -6.47682 0
M  V30 7103 N 654.798 1.5699 0.138552 0
M  V30 7104 C 655.708 2.02174 1.19008 0
M  V30 7105 C 656.724 0.938622 1.46512 0
M  V30 7106 O 657.9 1.24872 1.58016 0
M  V30 7107 C 654.965 2.40045 2.50159 0
M  V30 7108 C 654.026 3.62346 2.30226 0
M  V30 7109 C 653.259 3.98401 3.55123 0
M  V30 7110 O 653.482 3.35019 4.61647 0
M  V30 7111 O 652.416 4.91606 3.47285 0
M  V30 7112 H 656.242 2.91954 0.836452 0
M  V30 7113 H 653.827 1.45293 0.347907 0
M  V30 7114 H 655.709 2.65225 3.27465 0
M  V30 7115 H 654.384 1.53417 2.85035 0
M  V30 7116 H 653.291 3.42341 1.50843 0
M  V30 7117 H 654.624 4.49617 2.00262 0
M  V30 7118 N 656.276 -0.40816 1.52223 0
M  V30 7119 C 657.226 -1.49648 1.72016 0
M  V30 7120 C 658.21 -1.50311 0.574069 0
M  V30 7121 O 659.402 -1.56271 0.831173 0
M  V30 7122 C 656.531 -2.87566 1.87512 0
M  V30 7123 C 655.617 -2.91547 3.07995 0
M  V30 7124 N 656.008 -2.65225 4.30685 0
M  V30 7125 C 654.306 -3.22715 3.07849 0
M  V30 7126 C 655.007 -2.75799 5.12162 0
M  V30 7127 N 653.983 -3.08719 4.4743 0
M  V30 7128 H 657.785 -1.28093 2.64517 0
M  V30 7129 H 655.299 -0.61588 1.50269 0
M  V30 7130 H 657.296 -3.65899 1.99809 0
M  V30 7131 H 655.956 -3.10118 0.962114 0
M  V30 7132 H 656.967 -2.39601 4.59142 0
M  V30 7133 H 653.644 -3.50856 2.26289 0
M  V30 7134 H 655.034 -2.59155 6.1991 0
M  V30 7135 N 657.755 -1.42862 -0.66545 0
M  V30 7136 C 658.665 -1.49491 -1.80803 0
M  V30 7137 C 659.681 -0.382914 -1.69734 0
M  V30 7138 O 660.857 -0.635223 -1.9112 0
M  V30 7139 C 657.922 -1.40383 -3.17007 0
M  V30 7140 C 656.983 -2.62152 -3.39963 0
M  V30 7141 C 656.216 -2.53469 -4.69669 0
M  V30 7142 O 656.439 -1.57568 -5.48205 0
M  V30 7143 O 655.373 -3.43763 -4.94075 0
M  V30 7144 H 659.199 -2.45949 -1.78165 0
M  V30 7145 H 656.784 -1.24728 -0.822387 0
M  V30 7146 H 658.666 -1.377 -3.98267 0
M  V30 7147 H 657.341 -0.470546 -3.20262 0
M  V30 7148 H 656.248 -2.70409 -2.58515 0
M  V30 7149 H 657.581 -3.54411 -3.41546 0
M  V30 7150 N 659.233 0.902656 -1.29189 0
M  V30 7151 C 660.196 1.98797 -1.14071 0
M  V30 7152 C 661.196 1.60615 -0.0770549 0
M  V30 7153 O 662.386 1.71165 -0.323753 0
M  V30 7154 C 659.518 3.32688 -0.743739 0
M  V30 7155 H 660.711 2.13637 -2.10473 0
M  V30 7156 H 658.264 1.08678 -1.12334 0
M  V30 7157 H 658.999 3.23549 0.220554 0
M  V30 7158 H 658.784 3.61765 -1.51223 0
M  V30 7159 H 660.274 4.12337 -0.660935 0
M  V30 7160 N 660.711 1.11618 1.11262 0
M  V30 7161 C 661.641 0.79846 2.19424 0
M  V30 7162 C 662.622 -0.234003 1.68483 0
M  V30 7163 O 663.807 -0.0970704 1.93957 0
M  V30 7164 C 660.937 0.242892 3.4645 0
M  V30 7165 C 659.891 1.20744 4.10615 0
M  V30 7166 C 659.217 0.512494 5.32238 0
M  V30 7167 C 660.517 2.55884 4.55325 0
M  V30 7168 H 662.211 1.70286 2.46258 0
M  V30 7169 H 659.757 0.820195 1.18359 0
M  V30 7170 H 661.71 0.00840447 4.21399 0
M  V30 7171 H 660.434 -0.696811 3.1908 0
M  V30 7172 H 659.093 1.42759 3.37662 0
M  V30 7173 H 658.741 -0.432075 5.01141 0
M  V30 7174 H 658.441 1.15583 5.7612 0
M  V30 7175 H 659.965 0.286842 6.09926 0
M  V30 7176 H 661.379 2.37946 5.21588 0
M  V30 7177 H 659.776 3.16216 5.10027 0
M  V30 7178 H 660.846 3.14968 3.68678 0
M  V30 7179 N 662.189 -1.289 0.906776 0
M  V30 7180 C 663.417 -1.99401 0.551969 0
M  V30 7181 C 663.832 -1.67816 -0.865048 0
M  V30 7182 O 663.189 -0.927078 -1.57199 0
M  V30 7183 C 663.24 -3.53779 0.743152 0
M  V30 7184 O 662.961 -3.84248 2.1044 0
M  V30 7185 C 664.462 -4.41543 0.39424 0
M  V30 7186 H 661.682 -0.636926 0.211106 0
M  V30 7187 H 664.226 -1.64266 1.21807 0
M  V30 7188 H 662.381 -3.87201 0.124143 0
M  V30 7189 H 662.795 -4.78904 2.13895 0
M  V30 7190 H 664.269 -5.48957 0.578814 0
M  V30 7191 H 664.746 -4.34073 -0.669137 0
M  V30 7192 H 665.352 -4.13605 0.990491 0
M  V30 7193 N 663.667 -0.670007 -1.42649 0
M  V30 7194 C 664.916 -0.187526 -2.00826 0
M  V30 7195 C 665.229 1.21142 -1.53571 0
M  V30 7196 O 666.435 1.79001 -2.04134 0
M  V30 7197 C 664.891 -0.284409 -3.58774 0
M  V30 7198 C 664.499 -1.6871 -4.15019 0
M  V30 7199 C 666.243 0.139605 -4.2427 0
M  V30 7200 C 664.15 -1.73701 -5.65316 0
M  V30 7201 H 663.08 -0.0663468 -0.751075 0
M  V30 7202 H 665.731 -0.834492 -1.63427 0
M  V30 7203 H 664.113 0.430364 -3.93655 0
M  V30 7204 H 665.287 -2.42857 -3.91608 0
M  V30 7205 H 663.602 -2.05855 -3.61957 0
M  V30 7206 H 666.199 0.122398 -5.3456 0
M  V30 7207 H 666.542 1.17403 -3.99402 0
M  V30 7208 H 667.075 -0.523995 -3.94334 0
M  V30 7209 H 663.814 -2.75109 -5.94975 0
M  V30 7210 H 663.334 -1.03903 -5.90732 0
M  V30 7211 H 665.013 -1.48829 -6.2965 0
M  V30 7212 N 665.145 1.52092 -0.413018 0
M  V30 7213 C 666.561 1.59471 -0.0640836 0
M  V30 7214 C 666.761 1.42562 1.42402 0
M  V30 7215 O 665.817 1.25453 2.19129 0
M  V30 7216 C 667.13 2.95392 -0.562474 0
M  V30 7217 C 668.678 3.08637 -0.520788 0
M  V30 7218 C 669.153 4.47044 -0.995752 0
M  V30 7219 N 670.644 4.53296 -0.952732 0
M  V30 7220 C 671.379 5.58669 -1.29138 0
M  V30 7221 N 670.875 6.71576 -1.70168 0
M  V30 7222 N 672.668 5.48898 -1.2111 0
M  V30 7223 H 664.819 1.6133 -1.38153 0
M  V30 7224 H 667.082 0.75916 -0.567785 0
M  V30 7225 H 666.788 3.13059 -1.60271 0
M  V30 7226 H 666.662 3.77191 0.0257875 0
M  V30 7227 H 669.049 2.90652 0.510412 0
M  V30 7228 H 669.13 2.28735 -1.14515 0
M  V30 7229 H 668.774 4.65773 -2.0253 0
M  V30 7230 H 668.704 5.25448 -0.348162 0
M  V30 7231 H 671.195 3.72248 -0.651119 0
M  V30 7232 H 671.508 7.47973 -1.9431 0
M  V30 7233 H 669.853 6.72847 -1.74075 0
M  V30 7234 H 673.044 4.59573 -0.889396 0
M  V30 7235 H 673.217 6.30912 -1.47833 0
M  V30 7236 N 666.623 0.143563 1.56945 0
M  V30 7237 C 667.871 -0.507402 1.95627 0
M  V30 7238 C 668.192 -1.65626 1.02922 0
M  V30 7239 O 667.462 -1.95693 0.0901136 0
M  V30 7240 H 666.042 -0.190436 0.722318 0
M  V30 7241 H 668.704 0.218257 1.93674 0
M  V30 7242 H 667.8 -0.885816 2.99265 0
M  V30 7243 N 668.101 -1.57061 -0.130224 0
M  V30 7244 C 669.347 -1.8453 -0.841216 0
M  V30 7245 C 669.68 -0.727666 -1.80052 0
M  V30 7246 O 668.955 0.267419 -1.92653 0
M  V30 7247 C 669.238 -3.22553 -1.60099 0
M  V30 7248 C 669.091 -4.44901 -0.662048 0
M  V30 7249 C 670.41 -3.58003 -2.55973 0
M  V30 7250 H 667.529 -0.671215 -0.304366 0
M  V30 7251 H 670.171 -1.89705 -0.105821 0
M  V30 7252 H 668.321 -3.18272 -2.22789 0
M  V30 7253 H 669.993 -4.61278 -0.0448559 0
M  V30 7254 H 668.236 -4.33791 0.0272253 0
M  V30 7255 H 668.907 -5.3812 -1.23006 0
M  V30 7256 H 671.383 -3.63002 -2.03393 0
M  V30 7257 H 670.259 -4.55576 -3.06172 0
M  V30 7258 H 670.52 -2.84833 -3.38116 0
M  V30 7259 N 669.579 0.400081 -1.52437 0
M  V30 7260 C 670.856 1.15973 -1.57511 0
M  V30 7261 C 671.236 2.0798 -0.361572 0
M  V30 7262 O 670.584 2.19032 0.650929 0
M  V30 7263 C 670.794 1.92912 -2.90837 0
M  V30 7264 C 672.142 2.48662 -3.44169 0
M  V30 7265 O 673.166 2.03081 -2.92637 0
M  V30 7266 O 672.025 3.31894 -4.34176 0
M  V30 7267 H 669.119 0.530023 -0.634827 0
M  V30 7268 H 671.665 0.40613 -1.64769 0
M  V30 7269 H 670.437 1.25564 -3.70607 0
M  V30 7270 H 670.06 2.75257 -2.86913 0
M  V30 7271 N 671.057 1.43213 0.657864 0
M  V30 7272 C 672.285 1.48015 1.44566 0
M  V30 7273 C 672.7 0.0965951 1.88553 0
M  V30 7274 O 672.057 -0.892221 1.59203 0
M  V30 7275 C 672.108 2.42199 2.68369 0
M  V30 7276 O 671.829 3.75173 2.26223 0
M  V30 7277 C 673.33 2.56195 3.61772 0
M  V30 7278 H 670.55 0.502861 0.444266 0
M  V30 7279 H 673.094 1.87907 0.806917 0
M  V30 7280 H 671.249 2.05514 3.28394 0
M  V30 7281 H 671.663 4.25776 3.06293 0
M  V30 7282 H 673.137 3.26182 4.4532 0
M  V30 7283 H 673.614 1.60534 4.0881 0
M  V30 7284 H 674.22 2.93671 3.07632 0
M  V30 7285 N 672.536 -0.895792 1.29666 0
M  V30 7286 C 673.782 -1.64908 1.18039 0
M  V30 7287 C 674.115 -1.9236 -0.266682 0
M  V30 7288 O 673.39 -1.53682 -1.19214 0
M  V30 7289 C 673.673 -2.99574 1.99819 0
M  V30 7290 C 673.526 -2.79163 3.52687 0
M  V30 7291 C 674.845 -4.00358 1.82761 0
M  V30 7292 H 671.964 -0.598437 0.430165 0
M  V30 7293 H 674.606 -1.03736 1.59182 0
M  V30 7294 H 672.756 -3.51786 1.64859 0
M  V30 7295 H 674.428 -2.33821 3.9765 0
M  V30 7296 H 672.671 -2.13871 3.77414 0
M  V30 7297 H 673.342 -3.74871 4.05186 0
M  V30 7298 H 675.818 -3.57268 2.13304 0
M  V30 7299 H 674.694 -4.92514 2.42325 0
M  V30 7300 H 674.955 -4.35096 0.783839 0
M  V30 7301 N 674.014 -1.12206 -1.10668 0
M  V30 7302 C 675.239 -0.898938 -1.86906 0
M  V30 7303 C 675.664 0.546346 -1.79991 0
M  V30 7304 O 675.022 1.38655 -1.1681 0
M  V30 7305 C 675.07 -1.37529 -3.33344 0
M  V30 7306 O 674.174 -0.55218 -4.08687 0
M  V30 7307 H 673.515 -0.323163 -0.580053 0
M  V30 7308 H 676.045 -1.49355 -1.39837 0
M  V30 7309 H 676.055 -1.3733 -3.84193 0
M  V30 7310 H 674.73 -2.42767 -3.37693 0
M  V30 7311 H 673.307 -0.620947 -3.67694 0
M  V30 7312 N 675.492 1.28418 -0.913599 0
M  V30 7313 C 676.908 1.47411 -0.611728 0
M  V30 7314 C 677.108 1.83018 0.843008 0
M  V30 7315 O 676.164 1.93505 1.6221 0
M  V30 7316 C 677.477 2.57703 -1.5495 0
M  V30 7317 C 679.025 2.71572 -1.5562 0
M  V30 7318 C 679.5 3.85008 -2.48058 0
M  V30 7319 N 680.991 3.92361 -2.46184 0
M  V30 7320 C 681.726 4.79516 -3.14407 0
M  V30 7321 N 681.222 5.71262 -3.91958 0
M  V30 7322 N 683.015 4.73125 -3.03495 0
M  V30 7323 H 675.166 1.03585 -1.85429 0
M  V30 7324 H 677.429 0.515907 -0.795326 0
M  V30 7325 H 677.135 2.38298 -2.58663 0
M  V30 7326 H 677.009 3.54801 -1.28048 0
M  V30 7327 H 679.396 2.90366 -0.526441 0
M  V30 7328 H 679.477 1.75006 -1.86565 0
M  V30 7329 H 679.121 3.66969 -3.51136 0
M  V30 7330 H 679.051 4.80971 -2.14416 0
M  V30 7331 H 681.542 3.26749 -1.89851 0
M  V30 7332 H 681.855 6.34593 -4.41034 0
M  V30 7333 H 680.2 5.71103 -3.96063 0
M  V30 7334 H 683.391 4.00442 -2.42413 0
M  V30 7335 H 683.564 5.40834 -3.56935 0
M  V30 7336 N 676.97 0.677563 1.42291 0
M  V30 7337 C 678.195 0.207901 2.06355 0
M  V30 7338 C 678.62 -1.12723 1.50583 0
M  V30 7339 O 677.978 -1.70171 0.62543 0
M  V30 7340 C 678.026 0.156489 3.6026 0
M  V30 7341 O 677.13 -0.874162 4.03029 0
M  V30 7342 H 676.471 0.106056 0.655475 0
M  V30 7343 H 679.001 0.927354 1.82377 0
M  V30 7344 H 679.011 -0.0187258 4.07996 0
M  V30 7345 H 677.686 1.13101 4.00226 0
M  V30 7346 H 676.263 -0.669764 3.66836 0
M  V30 7347 N 678.448 -1.51871 0.421078 0
M  V30 7348 C 679.673 -2.0684 -0.152371 0
M  V30 7349 C 680.098 -1.28802 -1.37083 0
M  V30 7350 O 679.456 -0.321482 -1.78427 0
M  V30 7351 C 679.504 -3.57532 -0.469368 0
M  V30 7352 O 678.608 -3.81818 -1.55848 0
M  V30 7353 H 677.949 -0.663939 -0.00898586 0
M  V30 7354 H 680.479 -1.95674 0.597724 0
M  V30 7355 H 680.489 -4.01515 -0.724553 0
M  V30 7356 H 679.164 -4.13761 0.421276 0
M  V30 7357 H 677.741 -3.49709 -1.29453 0
M  V30 7358 N 679.926 -0.151884 -1.56866 0
M  V30 7359 C 680.856 0.781943 -2.20018 0
M  V30 7360 C 681.837 1.25347 -1.14987 0
M  V30 7361 O 683.022 1.31015 -1.43348 0
M  V30 7362 C 680.152 2.01928 -2.82564 0
M  V30 7363 C 679.106 1.68434 -3.93464 0
M  V30 7364 C 678.432 2.99472 -4.42968 0
M  V30 7365 C 679.732 0.927244 -5.14003 0
M  V30 7366 H 681.426 0.255607 -2.98307 0
M  V30 7367 H 678.972 0.121502 -1.43486 0
M  V30 7368 H 680.925 2.67741 -3.25411 0
M  V30 7369 H 679.649 2.56943 -2.01614 0
M  V30 7370 H 678.308 1.04998 -3.51242 0
M  V30 7371 H 677.956 3.52488 -3.58834 0
M  V30 7372 H 677.656 2.77823 -5.17772 0
M  V30 7373 H 679.18 3.66348 -4.88489 0
M  V30 7374 H 680.594 1.48756 -5.53665 0
M  V30 7375 H 678.991 0.810513 -5.94601 0
M  V30 7376 H 680.061 -0.0801163 -4.84834 0
M  V30 7377 N 681.404 1.57128 0.121893 0
M  V30 7378 C 682.314 2.03425 1.16857 0
M  V30 7379 C 683.33 0.954108 1.45509 0
M  V30 7380 O 684.506 1.26541 1.56682 0
M  V30 7381 C 681.571 2.42685 2.47599 0
M  V30 7382 C 680.632 3.64767 2.2637 0
M  V30 7383 C 679.865 4.02145 3.50878 0
M  V30 7384 O 680.088 3.39897 4.58068 0
M  V30 7385 O 679.022 4.95262 3.42051 0
M  V30 7386 H 682.848 2.92825 0.80544 0
M  V30 7387 H 680.433 1.45654 0.332477 0
M  V30 7388 H 682.315 2.68684 3.24634 0
M  V30 7389 H 680.99 1.56432 2.83392 0
M  V30 7390 H 679.897 3.43922 1.47203 0
M  V30 7391 H 681.23 4.51716 1.95482 0
M  V30 7392 N 682.882 -0.391992 1.52647 0
M  V30 7393 C 683.815 -1.50019 1.71958 0
M  V30 7394 C 684.793 -1.5238 0.567365 0
M  V30 7395 O 685.977 -1.70831 0.796806 0
M  V30 7396 C 683.104 -2.88496 1.77447 0
M  V30 7397 C 682.15 -3.03974 2.99169 0
M  V30 7398 S 682.983 -2.75487 4.59203 0
M  V30 7399 C 684.139 -4.16163 4.67503 0
M  V30 7400 H 684.372 -1.33413 2.65685 0
M  V30 7401 H 681.905 -0.584674 1.42902 0
M  V30 7402 H 683.863 -3.68296 1.81296 0
M  V30 7403 H 682.524 -3.02431 0.848188 0
M  V30 7404 H 681.717 -4.05328 2.99542 0
M  V30 7405 H 681.319 -2.32062 2.93297 0
M  V30 7406 H 683.611 -5.10048 4.45934 0
M  V30 7407 H 684.554 -4.20806 5.69498 0
M  V30 7408 H 684.962 -4.01933 3.96371 0
M  V30 7409 N 684.36 -1.4356 -0.65026 0
M  V30 7410 C 685.585 -1.48995 -1.44275 0
M  V30 7411 C 686.01 -0.109954 -1.87778 0
M  V30 7412 O 685.368 0.896926 -1.57559 0
M  V30 7413 C 685.416 -2.44341 -2.65198 0
M  V30 7414 O 684.52 -1.93172 -3.6436 0
M  V30 7415 H 683.861 -0.503852 -0.432469 0
M  V30 7416 H 686.391 -1.88504 -0.795446 0
M  V30 7417 H 686.401 -2.61743 -3.12977 0
M  V30 7418 H 685.076 -3.44588 -2.32877 0
M  V30 7419 H 683.653 -1.85445 -3.23519 0
M  V30 7420 N 685.838 0.888903 -1.30139 0
M  V30 7421 C 687.249 1.45578 -1.16893 0
M  V30 7422 C 687.6 1.94825 0.231866 0
M  V30 7423 O 686.725 1.84661 1.12824 0
M  V30 7424 C 687.32 2.646 -2.11595 0
M  V30 7425 C 685.879 3.17389 -2.02339 0
M  V30 7426 C 685.026 1.90081 -2.01902 0
M  V30 7427 H 687.977 0.69921 -1.42467 0
M  V30 7428 H 687.998 3.40687 -1.69449 0
M  V30 7429 H 687.51 2.28726 -3.13538 0
M  V30 7430 H 685.611 3.5793 -1.03523 0
M  V30 7431 H 685.724 3.80955 -2.90534 0
M  V30 7432 H 684.088 2.08246 -1.46648 0
M  V30 7433 H 684.871 1.5647 -3.05568 0
M  V30 7434 N 687.317 1.12792 1.10072 0
M  V30 7435 C 688.247 0.821688 2.18565 0
M  V30 7436 C 689.228 -0.21612 1.68721 0
M  V30 7437 O 690.413 -0.0764932 1.94049 0
M  V30 7438 C 687.543 0.279624 3.46172 0
M  V30 7439 C 686.497 1.25092 4.09312 0
M  V30 7440 C 685.823 0.568916 5.31665 0
M  V30 7441 C 687.123 2.60699 4.52585 0
M  V30 7442 H 688.817 1.72888 2.44438 0
M  V30 7443 H 686.363 0.832702 1.17482 0
M  V30 7444 H 688.316 0.053099 4.21367 0
M  V30 7445 H 687.04 -0.662929 3.19801 0
M  V30 7446 H 685.699 1.46332 3.36129 0
M  V30 7447 H 685.347 -0.378898 5.01571 0
M  V30 7448 H 685.047 1.21687 5.74862 0
M  V30 7449 H 686.571 0.351517 6.09587 0
M  V30 7450 H 687.985 2.43465 5.19035 0
M  V30 7451 H 686.382 3.21608 5.06644 0
M  V30 7452 H 687.452 3.1886 3.65317 0
M  V30 7453 N 688.795 -1.27931 0.920396 0
M  V30 7454 C 689.758 -2.25345 0.41858 0
M  V30 7455 C 690.758 -1.54116 -0.458798 0
M  V30 7456 O 691.948 -1.72235 -0.260912 0
M  V30 7457 C 689.08 -3.38556 -0.399104 0
M  V30 7458 H 690.273 -2.71251 1.27918 0
M  V30 7459 H 687.826 -1.39728 0.700406 0
M  V30 7460 H 688.561 -2.98021 -1.27882 0
M  V30 7461 H 688.346 -3.91426 0.229863 0
M  V30 7462 H 689.836 -4.10976 -0.740817 0
M  V30 7463 N 690.273 -0.685099 -1.4193 0
M  V30 7464 C 691.684 -0.287699 -1.8447 0
M  V30 7465 C 692.035 1.17215 -1.57338 0
M  V30 7466 O 691.16 1.89856 -1.03845 0
M  V30 7467 C 691.755 -0.515385 -3.34857 0
M  V30 7468 C 690.314 -0.172006 -3.76007 0
M  V30 7469 C 689.461 -0.802808 -2.65425 0
M  V30 7470 H 692.412 -0.88652 -1.3163 0
M  V30 7471 H 692.433 0.229251 -3.79809 0
M  V30 7472 H 691.945 -1.57796 -3.54573 0
M  V30 7473 H 690.046 0.886716 -3.61895 0
M  V30 7474 H 690.159 -0.619717 -4.75075 0
M  V30 7475 H 688.523 -0.233267 -2.5363 0
M  V30 7476 H 689.306 -1.86904 -2.87961 0
M  V30 7477 N 691.751 1.51645 -0.429126 0
M  V30 7478 C 692.997 2.02314 0.140286 0
M  V30 7479 C 693.33 1.31314 1.43074 0
M  V30 7480 O 692.605 0.425531 1.89788 0
M  V30 7481 C 692.888 3.5822 0.36749 0
M  V30 7482 C 692.741 4.39846 -0.941039 0
M  V30 7483 C 694.06 4.25055 1.14089 0
M  V30 7484 H 691.179 0.735335 0.0495112 0
M  V30 7485 H 693.821 1.81358 -0.566514 0
M  V30 7486 H 691.971 3.76207 0.969556 0
M  V30 7487 H 693.643 4.33527 -1.57646 0
M  V30 7488 H 691.886 4.05259 -1.54751 0
M  V30 7489 H 692.557 5.47069 -0.73621 0
M  V30 7490 H 695.033 4.11288 0.630986 0
M  V30 7491 H 693.909 5.34038 1.26863 0
M  V30 7492 H 694.17 3.85358 2.16683 0
M  V30 7493 N 693.229 0.160201 1.56784 0
M  V30 7494 C 694.177 -0.791402 2.18723 0
M  V30 7495 C 695.171 -1.24567 1.14801 0
M  V30 7496 O 696.377 -1.21262 1.33025 0
M  V30 7497 H 692.752 -0.273458 0.700517 0
M  V30 7498 H 694.723 -0.244931 2.97393 0
M  V30 7499 C 693.472 -2.01509 2.83354 0
M  V30 7500 H 692.795 -1.67454 3.63041 0
M  V30 7501 H 694.235 -2.66006 3.30177 0
M  V30 7502 C 692.694 -2.83159 1.82545 0
M  V30 7503 O 693.224 -3.79944 1.30405 0
M  V30 7504 N 691.43 -2.47953 1.51552 0
M  V30 7505 H 690.977 -1.69309 1.94144 0
M  V30 7506 H 690.935 -3.02873 0.843519 0
M  V30 7507 N 694.707 -1.5719 -0.113559 0
M  V30 7508 C 695.932 -1.89702 -0.838336 0
M  V30 7509 C 696.357 -0.752679 -1.72384 0
M  V30 7510 O 695.715 0.296575 -1.78858 0
M  V30 7511 C 695.763 -3.20989 -1.64312 0
M  V30 7512 O 694.867 -3.07278 -2.75053 0
M  V30 7513 H 694.208 -0.622339 -0.231496 0
M  V30 7514 H 696.738 -2.04382 -0.0943228 0
M  V30 7515 H 696.748 -3.53843 -2.03123 0
M  V30 7516 H 695.423 -4.03869 -0.993119 0
M  V30 7517 H 694 -2.85901 -2.39406 0
M  V30 7518 N 696.185 0.383891 -1.52853 0
M  V30 7519 C 697.135 1.46892 -1.74375 0
M  V30 7520 C 698.119 1.49378 -0.597909 0
M  V30 7521 O 699.311 1.54929 -0.855929 0
M  V30 7522 C 696.44 2.84547 -1.92063 0
M  V30 7523 C 695.526 2.8661 -3.12594 0
M  V30 7524 N 695.917 2.58339 -4.3485 0
M  V30 7525 C 694.215 3.17777 -3.12944 0
M  V30 7526 C 694.916 2.67616 -5.16485 0
M  V30 7527 N 693.892 3.01561 -4.52285 0
M  V30 7528 H 697.694 1.23869 -2.66522 0
M  V30 7529 H 695.208 0.591895 -1.51229 0
M  V30 7530 H 697.205 3.62674 -2.05604 0
M  V30 7531 H 695.865 3.08549 -1.01133 0
M  V30 7532 H 696.876 2.32266 -4.62896 0
M  V30 7533 H 693.553 3.47211 -2.31842 0
M  V30 7534 H 694.943 2.4926 -6.23955 0
M  V30 7535 N 697.663 1.43903 0.642637 0
M  V30 7536 C 698.573 1.52349 1.78401 0
M  V30 7537 C 699.589 0.409869 1.69104 0
M  V30 7538 O 700.765 0.665548 1.90085 0
M  V30 7539 C 697.83 1.45408 3.14734 0
M  V30 7540 C 696.891 2.67528 3.35749 0
M  V30 7541 C 696.124 2.60909 4.65577 0
M  V30 7542 O 696.347 1.6627 5.45628 0
M  V30 7543 O 695.281 3.5158 4.88544 0
M  V30 7544 H 699.107 2.48752 1.7423 0
M  V30 7545 H 696.692 1.26021 0.802439 0
M  V30 7546 H 698.574 1.44019 3.96026 0
M  V30 7547 H 697.249 0.521437 3.19473 0
M  V30 7548 H 696.156 2.74487 2.5418 0
M  V30 7549 H 697.489 3.598 3.35864 0
M  V30 7550 N 699.141 -0.881989 1.30609 0
M  V30 7551 C 700.557 -1.16576 1.09005 0
M  V30 7552 C 700.757 -2.00961 -0.14727 0
M  V30 7553 O 699.813 -2.38117 -0.840036 0
M  V30 7554 C 701.126 -1.86954 2.35518 0
M  V30 7555 C 702.674 -1.99706 2.41011 0
M  V30 7556 C 703.149 -2.73497 3.67374 0
M  V30 7557 N 704.64 -2.8104 3.68199 0
M  V30 7558 C 705.375 -3.38718 4.62664 0
M  V30 7559 N 704.871 -3.97421 5.67475 0
M  V30 7560 N 706.664 -3.36561 4.50203 0
M  V30 7561 H 698.815 -0.319398 2.09985 0
M  V30 7562 H 701.078 -0.204058 0.925778 0
M  V30 7563 H 700.784 -1.32393 3.2583 0
M  V30 7564 H 700.658 -2.87317 2.44395 0
M  V30 7565 H 703.045 -2.53436 1.51176 0
M  V30 7566 H 703.126 -0.984218 2.36108 0
M  V30 7567 H 702.77 -2.20438 4.57569 0
M  V30 7568 H 702.7 -3.75163 3.6954 0
M  V30 7569 H 705.191 -2.39365 2.92426 0
M  V30 7570 H 705.504 -4.39507 6.35652 0
M  V30 7571 H 703.849 -3.95832 5.71264 0
M  V30 7572 H 707.04 -2.8993 3.67503 0
M  V30 7573 H 707.213 -3.81215 5.24003 0
M  V30 7574 N 700.619 -1.13374 -1.09472 0
M  V30 7575 C 702.035 -0.871846 -1.33682 0
M  V30 7576 C 702.235 0.492847 -1.9538 0
M  V30 7577 O 701.291 1.23946 -2.19985 0
M  V30 7578 C 702.604 -1.99608 -2.24893 0
M  V30 7579 C 704.152 -2.02812 -2.38404 0
M  V30 7580 C 704.627 -3.14497 -3.3295 0
M  V30 7581 N 706.118 -3.14004 -3.40523 0
M  V30 7582 C 706.853 -3.97061 -4.13679 0
M  V30 7583 N 706.349 -4.90131 -4.89636 0
M  V30 7584 N 708.142 -3.85162 -4.09398 0
M  V30 7585 H 700.293 -2.01288 -0.677995 0
M  V30 7586 H 702.556 -0.876492 -0.361201 0
M  V30 7587 H 702.262 -2.98 -1.86786 0
M  V30 7588 H 702.136 -1.90981 -3.25278 0
M  V30 7589 H 704.523 -1.05034 -2.75775 0
M  V30 7590 H 704.604 -2.15511 -1.37799 0
M  V30 7591 H 704.248 -4.12514 -2.96302 0
M  V30 7592 H 704.178 -2.99035 -4.33458 0
M  V30 7593 H 706.669 -2.46587 -2.86362 0
M  V30 7594 H 706.982 -5.49996 -5.42885 0
M  V30 7595 H 705.327 -4.94138 -4.88726 0
M  V30 7596 H 708.518 -3.11779 -3.49158 0
M  V30 7597 H 708.691 -4.5012 -4.6615 0
M  V30 7598 N 702.098 1.27442 -0.927168 0
M  V30 7599 C 703.323 1.99036 -0.583042 0
M  V30 7600 C 703.748 1.68711 0.83176 0
M  V30 7601 O 703.106 0.927081 1.55804 0
M  V30 7602 C 703.154 3.51271 -0.814925 0
M  V30 7603 O 702.258 4.12226 0.119742 0
M  V30 7604 H 701.599 0.624883 -0.224538 0
M  V30 7605 H 704.129 1.62263 -1.24628 0
M  V30 7606 H 704.139 4.01411 -0.730282 0
M  V30 7607 H 702.814 3.72676 -1.84623 0
M  V30 7608 H 701.391 3.72897 -0.0147688 0
M  V30 7609 N 703.576 0.692616 1.41565 0
M  V30 7610 C 704.523 0.0254264 2.30786 0
M  V30 7611 C 705.493 -0.774347 1.46946 0
M  V30 7612 O 706.678 -0.742981 1.7574 0
M  V30 7613 C 703.818 -0.907123 3.32964 0
M  V30 7614 C 702.931 -0.0992784 4.31886 0
M  V30 7615 C 702.066 -1.0292 5.21134 0
M  V30 7616 C 701.105 -0.214088 6.11725 0
M  V30 7617 N 700.242 -1.09766 6.93467 0
M  V30 7618 H 705.082 0.792036 2.87282 0
M  V30 7619 H 702.619 0.4023 1.41492 0
M  V30 7620 H 704.577 -1.46181 3.90752 0
M  V30 7621 H 703.207 -1.64016 2.78026 0
M  V30 7622 H 702.259 0.572287 3.76071 0
M  V30 7623 H 703.571 0.532782 4.95946 0
M  V30 7624 H 702.725 -1.65321 5.83741 0
M  V30 7625 H 701.464 -1.69512 4.57293 0
M  V30 7626 H 700.469 0.42302 5.4817 0
M  V30 7627 H 701.694 0.447995 6.77621 0
M  V30 7628 H 699.64 -1.74965 6.32237 0
M  V30 7629 H 699.557 -0.521099 7.54202 0
M  V30 7630 H 700.825 -1.70858 7.60544 0
M  V30 7631 N 705.054 -1.51416 0.437162 0
M  V30 7632 C 706.47 -1.59349 0.0894459 0
M  V30 7633 C 706.67 -1.44809 -1.40116 0
M  V30 7634 O 705.726 -1.28924 -2.17106 0
M  V30 7635 C 707.039 -2.9446 0.609398 0
M  V30 7636 C 708.587 -3.07769 0.569824 0
M  V30 7637 C 709.062 -4.45404 1.06675 0
M  V30 7638 N 710.553 -4.51723 1.02473 0
M  V30 7639 C 711.288 -5.56544 1.3801 0
M  V30 7640 N 710.784 -6.68784 1.80831 0
M  V30 7641 N 712.577 -5.46901 1.29828 0
M  V30 7642 H 704.728 -1.59112 1.40703 0
M  V30 7643 H 706.991 -0.750031 0.579791 0
M  V30 7644 H 706.697 -3.1047 1.65231 0
M  V30 7645 H 706.571 -3.77184 0.0342236 0
M  V30 7646 H 708.958 -2.91428 -0.464107 0
M  V30 7647 H 709.039 -2.26885 1.1814 0
M  V30 7648 H 708.683 -4.62492 2.09914 0
M  V30 7649 H 708.613 -5.24827 0.431712 0
M  V30 7650 H 711.104 -3.71165 0.710258 0
M  V30 7651 H 711.417 -7.44787 2.06185 0
M  V30 7652 H 709.762 -6.69992 1.84757 0
M  V30 7653 H 712.953 -4.581 0.962397 0
M  V30 7654 H 713.126 -6.2848 1.57851 0
M  V30 7655 N 706.532 -0.168513 -1.56696 0
M  V30 7656 C 707.948 0.187686 -1.58493 0
M  V30 7657 C 708.148 1.63063 -1.18375 0
M  V30 7658 O 707.204 2.36142 -0.894042 0
M  V30 7659 C 708.517 -0.0905858 -3.00564 0
M  V30 7660 C 710.065 -0.028575 -3.12987 0
M  V30 7661 C 710.54 -0.279799 -4.57145 0
M  V30 7662 N 712.031 -0.227476 -4.62641 0
M  V30 7663 C 712.766 -0.396073 -5.7203 0
M  V30 7664 N 712.262 -0.623572 -6.89988 0
M  V30 7665 N 714.055 -0.332173 -5.61118 0
M  V30 7666 H 706.206 -1.11042 -1.81062 0
M  V30 7667 H 708.469 -0.441235 -0.839056 0
M  V30 7668 H 708.175 -1.09006 -3.34381 0
M  V30 7669 H 708.049 0.619078 -3.72085 0
M  V30 7670 H 710.436 0.961471 -2.78998 0
M  V30 7671 H 710.517 -0.770905 -2.43907 0
M  V30 7672 H 710.161 -1.26704 -4.91842 0
M  V30 7673 H 710.091 0.48311 -5.24379 0
M  V30 7674 H 712.582 -0.0571723 -3.77857 0
M  V30 7675 H 712.895 -0.741745 -7.69232 0
M  V30 7676 H 711.24 -0.660153 -6.91858 0
M  V30 7677 H 714.431 -0.155051 -4.67843 0
M  V30 7678 H 714.604 -0.466994 -6.46315 0
M  V30 7679 N 708.01 1.57248 0.105221 0
M  V30 7680 C 708.957 2.01338 1.12835 0
M  V30 7681 C 709.927 0.887897 1.40377 0
M  V30 7682 O 711.112 1.15315 1.5201 0
M  V30 7683 C 708.252 2.43432 2.44611 0
M  V30 7684 C 707.365 3.69457 2.23888 0
M  V30 7685 C 706.5 4.00473 3.48991 0
M  V30 7686 C 705.539 5.19638 3.23485 0
M  V30 7687 N 704.676 5.46457 4.40828 0
M  V30 7688 H 709.516 2.88527 0.745386 0
M  V30 7689 H 707.053 1.42714 0.356535 0
M  V30 7690 H 709.011 2.65879 3.21503 0
M  V30 7691 H 707.641 1.59266 2.80774 0
M  V30 7692 H 706.693 3.54545 1.37847 0
M  V30 7693 H 708.005 4.56497 2.01026 0
M  V30 7694 H 707.159 4.23642 4.34295 0
M  V30 7695 H 705.898 3.11935 3.74897 0
M  V30 7696 H 704.903 4.96299 2.36574 0
M  V30 7697 H 706.128 6.09766 2.98935 0
M  V30 7698 H 704.074 4.60876 4.66829 0
M  V30 7699 H 703.991 6.27849 4.2112 0
M  V30 7700 H 705.259 5.74155 5.27225 0
M  V30 7701 N 709.488 -0.375779 1.53054 0
M  V30 7702 C 710.904 -0.716764 1.426 0
M  V30 7703 C 711.104 -1.93651 0.556931 0
M  V30 7704 O 710.16 -2.52475 0.0354461 0
M  V30 7705 C 711.473 -0.939499 2.85646 0
M  V30 7706 C 713.021 -1.04015 2.95212 0
M  V30 7707 C 713.496 -1.29543 4.39298 0
M  V30 7708 N 714.987 -1.36335 4.42682 0
M  V30 7709 C 715.722 -1.57778 5.51266 0
M  V30 7710 N 715.218 -1.76604 6.69913 0
M  V30 7711 N 717.011 -1.60065 5.38828 0
M  V30 7712 H 709.162 0.42664 2.08071 0
M  V30 7713 H 711.425 0.128758 0.939215 0
M  V30 7714 H 711.131 -0.115189 3.51511 0
M  V30 7715 H 711.005 -1.85048 3.2869 0
M  V30 7716 H 713.392 -1.85501 2.29507 0
M  V30 7717 H 713.473 -0.106785 2.55577 0
M  V30 7718 H 713.117 -0.485611 5.05573 0
M  V30 7719 H 713.047 -2.24184 4.76497 0
M  V30 7720 H 715.538 -1.23441 3.5717 0
M  V30 7721 H 715.851 -1.9251 7.48438 0
M  V30 7722 H 714.196 -1.73802 6.72917 0
M  V30 7723 H 717.387 -1.44917 4.45103 0
M  V30 7724 H 717.56 -1.76435 6.23518 0
M  V30 7725 N 710.966 -1.44241 -0.634997 0
M  V30 7726 C 711.899 -1.45274 -1.75985 0
M  V30 7727 C 712.877 -0.312025 -1.59578 0
M  V30 7728 O 714.061 -0.508409 -1.81514 0
M  V30 7729 C 711.188 -1.28173 -3.13511 0
M  V30 7730 C 710.234 -2.45757 -3.48576 0
M  V30 7731 S 711.067 -4.08293 -3.46492 0
M  V30 7732 C 712.223 -3.93608 -4.86645 0
M  V30 7733 H 712.456 -2.40454 -1.74841 0
M  V30 7734 H 709.989 -1.31492 -0.809268 0
M  V30 7735 H 711.947 -1.18993 -3.92875 0
M  V30 7736 H 710.608 -0.34511 -3.12198 0
M  V30 7737 H 709.801 -2.29644 -4.48642 0
M  V30 7738 H 709.403 -2.51657 -2.76667 0
M  V30 7739 H 711.695 -3.57059 -5.75774 0
M  V30 7740 H 712.638 -4.9349 -5.07813 0
M  V30 7741 H 713.046 -3.25737 -4.61038 0
M  V30 7742 N 712.444 0.87505 -1.31075 0
M  V30 7743 C 713.669 1.66583 -1.23551 0
M  V30 7744 C 714.094 1.87067 0.19686 0
M  V30 7745 O 713.452 1.40877 1.1412 0
M  V30 7746 C 713.5 3.01401 -1.97965 0
M  V30 7747 O 712.604 3.90923 -1.31351 0
M  V30 7748 H 711.945 0.508645 -0.426821 0
M  V30 7749 H 714.475 1.09139 -1.7306 0
M  V30 7750 H 714.485 3.51374 -2.07366 0
M  V30 7751 H 713.16 2.85812 -3.02133 0
M  V30 7752 H 711.737 3.49369 -1.30368 0
M  V30 7753 N 713.922 1.13953 1.08869 0
M  V30 7754 C 715.147 0.928559 1.85452 0
M  V30 7755 C 715.572 -0.517642 1.80837 0
M  V30 7756 O 714.93 -1.36779 1.19001 0
M  V30 7757 C 714.978 1.42814 3.31114 0
M  V30 7758 O 714.082 0.617129 4.07756 0
M  V30 7759 H 713.423 0.33235 0.574839 0
M  V30 7760 H 715.953 1.5156 1.37443 0
M  V30 7761 H 715.963 1.43425 3.8196 0
M  V30 7762 H 714.638 2.48109 3.33788 0
M  V30 7763 H 713.215 0.679365 3.66659 0
M  V30 7764 N 715.4 -1.26948 0.933913 0
M  V30 7765 C 716.648 -1.93704 0.576484 0
M  V30 7766 C 716.969 -1.73702 -0.886145 0
M  V30 7767 O 716.239 -1.08838 -1.62884 0
M  V30 7768 H 714.819 -0.716812 0.210214 0
M  V30 7769 H 717.481 -1.54534 1.18766 0
M  V30 7770 H 716.577 -3.01987 0.788055 0
M  V30 7771 N 716.879 -0.700114 -1.41195 0
M  V30 7772 C 718.107 -0.242179 -2.05478 0
M  V30 7773 C 718.522 1.11029 -1.52702 0
M  V30 7774 O 717.879 1.69473 -0.677127 0
M  V30 7775 C 717.93 -0.196271 -3.60967 0
M  V30 7776 O 717.651 -1.49532 -4.11791 0
M  V30 7777 C 719.152 0.282102 -4.42401 0
M  V30 7778 H 716.372 -0.111749 -0.661629 0
M  V30 7779 H 718.916 -0.953975 -1.80885 0
M  V30 7780 H 717.071 0.46638 -3.84582 0
M  V30 7781 H 717.485 -1.38545 -5.05871 0
M  V30 7782 H 718.959 0.263093 -5.51373 0
M  V30 7783 H 719.436 1.32174 -4.1884 0
M  V30 7784 H 720.042 -0.349712 -4.2386 0
M  V30 7785 N 718.357 1.51182 -0.445186 0
M  V30 7786 C 719.267 2.31692 0.368255 0
M  V30 7787 C 720.283 1.40942 1.02036 0
M  V30 7788 O 721.459 1.74011 1.01401 0
M  V30 7789 C 718.524 3.14903 1.45041 0
M  V30 7790 C 717.585 4.21442 0.817615 0
M  V30 7791 C 716.818 5.00677 1.8482 0
M  V30 7792 O 717.041 4.80644 3.07145 0
M  V30 7793 O 715.975 5.84559 1.43438 0
M  V30 7794 H 719.801 3.0232 -0.289219 0
M  V30 7795 H 717.386 1.47951 -0.207555 0
M  V30 7796 H 719.268 3.66612 2.07783 0
M  V30 7797 H 717.943 2.47031 2.09182 0
M  V30 7798 H 716.85 3.73791 0.151931 0
M  V30 7799 H 718.183 4.9171 0.219564 0
M  V30 7800 N 719.835 0.176821 1.56605 0
M  V30 7801 C 720.745 -0.763682 2.21822 0
M  V30 7802 C 721.761 -1.24889 1.21156 0
M  V30 7803 O 722.937 -1.29987 1.53836 0
M  V30 7804 C 720.002 -1.97352 2.8505 0
M  V30 7805 C 719.063 -1.53466 4.00932 0
M  V30 7806 C 718.296 -2.68682 4.61135 0
M  V30 7807 O 718.519 -3.85694 4.20234 0
M  V30 7808 O 717.453 -2.42442 5.50913 0
M  V30 7809 H 721.279 -0.238363 3.02763 0
M  V30 7810 H 718.864 -0.0516331 1.49311 0
M  V30 7811 H 720.746 -2.68096 3.25119 0
M  V30 7812 H 719.421 -2.48779 2.07101 0
M  V30 7813 H 718.328 -0.796551 3.65521 0
M  V30 7814 H 719.661 -1.06724 4.8049 0
M  V30 7815 N 721.313 -1.57302 -0.09688 0
M  V30 7816 C 722.553 -1.87823 -0.806334 0
M  V30 7817 C 722.917 -0.767593 -1.75989 0
M  V30 7818 O 724.118 -0.955173 -2.51257 0
M  V30 7819 C 722.389 -3.23585 -1.51749 0
M  V30 7820 S 723.948 -3.75795 -2.26547 0
M  V30 7821 H 720.766 -0.658281 -0.268676 0
M  V30 7822 H 723.368 -1.95397 -0.0635476 0
M  V30 7823 H 722.072 -4.0234 -0.809348 0
M  V30 7824 H 721.603 -3.19145 -2.30021 0
M  V30 7825 H 723.618 -3.49068 -3.52656 0
M  V30 7826 N 722.791 0.367657 -1.53252 0
M  V30 7827 C 724.039 1.10832 -1.68999 0
M  V30 7828 C 724.36 1.89894 -0.443306 0
M  V30 7829 O 723.63 1.88235 0.54262 0
M  V30 7830 H 722.21 0.412153 -0.623008 0
M  V30 7831 H 724.872 0.414775 -1.90435 0
M  V30 7832 H 723.968 1.7993 -2.55013 0
M  V30 7833 N 724.269 1.44576 0.627338 0
M  V30 7834 C 725.179 1.54232 1.76776 0
M  V30 7835 C 726.195 0.427782 1.6866 0
M  V30 7836 O 727.371 0.685671 1.89369 0
M  V30 7837 C 724.436 1.48738 3.13174 0
M  V30 7838 C 723.497 2.71074 3.32893 0
M  V30 7839 C 722.73 2.65832 4.62784 0
M  V30 7840 O 722.953 1.72048 5.43834 0
M  V30 7841 O 721.887 3.56742 4.84787 0
M  V30 7842 H 725.713 2.50586 1.71582 0
M  V30 7843 H 723.298 1.26865 0.789028 0
M  V30 7844 H 725.18 1.48211 3.94476 0
M  V30 7845 H 723.855 0.555292 3.18902 0
M  V30 7846 H 722.762 2.77168 2.51254 0
M  V30 7847 H 724.095 3.63342 3.32029 0
M  V30 7848 N 725.747 -0.868086 1.31537 0
M  V30 7849 C 727.024 -1.60384 1.11965 0
M  V30 7850 C 727.404 -2.08584 -0.324949 0
M  V30 7851 O 726.752 -1.86561 -1.31937 0
M  V30 7852 C 726.962 -2.76038 2.13551 0
M  V30 7853 C 728.31 -3.45954 2.46173 0
M  V30 7854 O 729.334 -2.86247 2.11993 0
M  V30 7855 O 728.193 -4.53666 3.04711 0
M  V30 7856 H 725.287 -0.705705 0.431172 0
M  V30 7857 H 727.833 -0.913385 1.43022 0
M  V30 7858 H 726.605 -2.37849 3.10714 0
M  V30 7859 H 726.228 -3.52769 1.83411 0
M  V30 7860 N 727.225 -1.14528 -1.08264 0
M  V30 7861 C 728.641 -0.885976 -1.3275 0
M  V30 7862 C 728.841 0.472096 -1.95892 0
M  V30 7863 O 727.897 1.21606 -2.21288 0
M  V30 7864 C 729.21 -2.01982 -2.22764 0
M  V30 7865 C 730.758 -2.05329 -2.36239 0
M  V30 7866 C 731.233 -3.1801 -3.29596 0
M  V30 7867 N 732.724 -3.17598 -3.37173 0
M  V30 7868 C 733.459 -4.01426 -4.09444 0
M  V30 7869 N 732.955 -4.95297 -4.8441 0
M  V30 7870 N 734.748 -3.89482 -4.0529 0
M  V30 7871 H 726.899 -2.01996 -0.656607 0
M  V30 7872 H 729.162 -0.880274 -0.351884 0
M  V30 7873 H 728.868 -2.99964 -1.83615 0
M  V30 7874 H 728.742 -1.94421 -3.23234 0
M  V30 7875 H 731.129 -1.07953 -2.74646 0
M  V30 7876 H 731.21 -2.1696 -1.35506 0
M  V30 7877 H 730.854 -4.15633 -2.9191 0
M  V30 7878 H 730.784 -3.03616 -4.30261 0
M  V30 7879 H 733.275 -2.4961 -2.83731 0
M  V30 7880 H 733.588 -5.55723 -5.37021 0
M  V30 7881 H 731.933 -4.99293 -4.83457 0
M  V30 7882 H 735.124 -3.15465 -3.45832 0
M  V30 7883 H 735.297 -4.55039 -4.6135 0
M  V30 7884 N 728.703 1.26451 -0.940633 0
M  V30 7885 C 729.633 2.28773 -0.467479 0
M  V30 7886 C 730.614 1.63218 0.478955 0
M  V30 7887 O 731.799 1.90427 0.380929 0
M  V30 7888 C 728.929 3.46259 0.268656 0
M  V30 7889 C 727.883 4.23898 -0.591171 0
M  V30 7890 C 727.209 5.33993 0.274891 0
M  V30 7891 C 728.509 4.87974 -1.86223 0
M  V30 7892 H 730.203 2.68601 -1.32265 0
M  V30 7893 H 727.749 1.29123 -0.637436 0
M  V30 7894 H 729.702 4.16951 0.610696 0
M  V30 7895 H 728.426 3.05383 1.15796 0
M  V30 7896 H 727.085 3.54969 -0.916098 0
M  V30 7897 H 726.733 4.89358 1.16353 0
M  V30 7898 H 726.433 5.86849 -0.297006 0
M  V30 7899 H 727.957 6.07523 0.612213 0
M  V30 7900 H 729.371 5.50883 -1.58747 0
M  V30 7901 H 727.768 5.50945 -2.37866 0
M  V30 7902 H 728.838 4.10945 -2.57394 0
M  V30 7903 N 730.181 0.707592 1.40822 0
M  V30 7904 C 731.592 0.317011 1.83989 0
M  V30 7905 C 731.943 -1.14697 1.59182 0
M  V30 7906 O 731.068 -1.8818 1.06852 0
M  V30 7907 C 731.663 0.568593 3.33995 0
M  V30 7908 C 730.222 0.231804 3.75686 0
M  V30 7909 C 729.369 0.844933 2.64114 0
M  V30 7910 H 732.32 0.907349 1.30203 0
M  V30 7911 H 732.341 -0.168798 3.80125 0
M  V30 7912 H 731.853 1.63417 3.52018 0
M  V30 7913 H 729.954 -0.82903 3.6326 0
M  V30 7914 H 730.067 0.695219 4.74029 0
M  V30 7915 H 728.431 0.273588 2.53226 0
M  V30 7916 H 729.214 1.91462 2.84951 0
M  V30 7917 N 731.66 -1.50943 0.453197 0
M  V30 7918 C 732.607 -2.28128 -0.350197 0
M  V30 7919 C 733.577 -1.32398 -1.00299 0
M  V30 7920 O 734.762 -1.61319 -1.01887 0
M  V30 7921 C 731.902 -3.13782 -1.43649 0
M  V30 7922 C 731.015 -4.24523 -0.800255 0
M  V30 7923 C 730.15 -4.97462 -1.86293 0
M  V30 7924 C 729.189 -6.00102 -1.20598 0
M  V30 7925 N 728.326 -6.66387 -2.21071 0
M  V30 7926 H 733.166 -2.96337 0.31434 0
M  V30 7927 H 730.703 -1.46151 0.166863 0
M  V30 7928 H 732.661 -3.6178 -2.07776 0
M  V30 7929 H 731.291 -2.47655 -2.07044 0
M  V30 7930 H 730.343 -3.80371 -0.0468651 0
M  V30 7931 H 731.655 -4.98009 -0.280777 0
M  V30 7932 H 730.809 -5.49088 -2.58044 0
M  V30 7933 H 729.548 -4.23642 -2.41617 0
M  V30 7934 H 728.553 -5.47753 -0.474 0
M  V30 7935 H 729.778 -6.75887 -0.659859 0
M  V30 7936 H 727.724 -5.9537 -2.75446 0
M  V30 7937 H 727.641 -7.3569 -1.74058 0
M  V30 7938 H 728.909 -7.22638 -2.92257 0
M  V30 7939 N 733.138 -0.185124 -1.56509 0
M  V30 7940 C 734.363 0.465278 -2.02114 0
M  V30 7941 C 734.788 1.55083 -1.06447 0
M  V30 7942 O 734.146 1.81241 -0.0462852 0
M  V30 7943 C 734.194 1.00784 -3.46229 0
M  V30 7944 O 733.298 2.12123 -3.53663 0
M  V30 7945 H 732.639 0.109891 -0.654843 0
M  V30 7946 H 735.169 -0.293072 -2.0249 0
M  V30 7947 H 735.179 1.32697 -3.85818 0
M  V30 7948 H 733.854 0.213113 -4.15354 0
M  V30 7949 H 732.431 1.8115 -3.25943 0
M  V30 7950 N 734.616 1.57351 0.0885366 0
M  V30 7951 C 735.893 1.77449 0.822873 0
M  V30 7952 C 736.273 0.768463 1.96616 0
M  V30 7953 O 735.621 -0.201757 2.27608 0
M  V30 7954 C 735.831 3.23425 1.31137 0
M  V30 7955 C 737.179 3.86791 1.75152 0
M  V30 7956 O 738.203 3.27215 1.40745 0
M  V30 7957 O 737.062 4.91568 2.38794 0
M  V30 7958 H 734.156 0.727653 0.393002 0
M  V30 7959 H 736.702 1.69556 0.0699095 0
M  V30 7960 H 735.474 3.88188 0.49254 0
M  V30 7961 H 735.097 3.35977 2.12615 0
M  V30 7962 N 736.094 -0.359525 1.53444 0
M  V30 7963 C 737.319 -1.12644 1.74144 0
M  V30 7964 C 737.744 -1.82082 0.472007 0
M  V30 7965 O 737.102 -1.71962 -0.57436 0
M  V30 7966 C 737.15 -2.12781 2.9113 0
M  V30 7967 O 736.254 -3.19984 2.60162 0
M  V30 7968 H 735.595 -0.326553 0.578152 0
M  V30 7969 H 738.125 -0.414798 2.00351 0
M  V30 7970 H 738.135 -2.56278 3.17467 0
M  V30 7971 H 736.81 -1.61634 3.83207 0
M  V30 7972 H 735.387 -2.81417 2.44661 0
M  V30 7973 N 737.572 -1.44907 -0.619662 0
M  V30 7974 C 738.482 -1.55168 -1.75955 0
M  V30 7975 C 739.498 -0.43672 -1.6843 0
M  V30 7976 O 740.674 -0.695704 -1.89002 0
M  V30 7977 C 737.739 -1.50397 -3.12381 0
M  V30 7978 C 736.8 -2.72835 -3.31451 0
M  V30 7979 C 736.033 -2.68283 -4.61368 0
M  V30 7980 O 736.256 -1.74929 -5.42914 0
M  V30 7981 O 735.19 -3.59308 -4.82889 0
M  V30 7982 H 739.016 -2.51493 -1.7025 0
M  V30 7983 H 736.601 -1.27282 -0.782289 0
M  V30 7984 H 738.483 -1.50301 -3.93685 0
M  V30 7985 H 737.158 -0.572197 -3.18603 0
M  V30 7986 H 736.065 -2.78496 -2.49781 0
M  V30 7987 H 737.398 -3.65098 -3.30098 0
M  V30 7988 N 739.05 0.861098 -1.31996 0
M  V30 7989 C 740.327 1.59788 -1.12814 0
M  V30 7990 C 740.707 2.08753 0.313882 0
M  V30 7991 O 740.055 1.87258 1.30946 0
M  V30 7992 C 740.265 2.74901 -2.15012 0
M  V30 7993 C 741.613 3.44643 -2.48004 0
M  V30 7994 O 742.637 2.85119 -2.13508 0
M  V30 7995 O 741.496 4.52044 -3.07113 0
M  V30 7996 H 738.59 0.703408 -0.434909 0
M  V30 7997 H 741.136 0.905788 -1.43505 0
M  V30 7998 H 739.908 2.36198 -3.11971 0
M  V30 7999 H 739.531 3.51792 -1.85279 0
M  V30 8000 N 740.528 1.15101 1.07655 0
M  V30 8001 C 741.776 0.922149 1.79836 0
M  V30 8002 C 742.097 -0.552346 1.87014 0
M  V30 8003 O 741.367 -1.40145 1.3688 0
M  V30 8004 H 739.947 0.338182 0.666064 0
M  V30 8005 H 742.609 1.45107 1.30115 0
M  V30 8006 H 741.705 1.32883 2.82398 0
M  V30 8007 N 742.006 -1.2595 0.947325 0
M  V30 8008 C 743.417 -1.75389 0.639963 0
M  V30 8009 C 743.768 -1.77081 -0.844788 0
M  V30 8010 O 742.893 -1.3869 -1.66114 0
M  V30 8011 C 743.488 -3.18506 1.15496 0
M  V30 8012 C 742.047 -3.65534 0.897894 0
M  V30 8013 C 741.194 -2.44818 1.30228 0
M  V30 8014 H 744.145 -1.1194 1.12495 0
M  V30 8015 H 744.166 -3.77045 0.511627 0
M  V30 8016 H 743.678 -3.17243 2.23559 0
M  V30 8017 H 741.779 -3.72221 -0.168096 0
M  V30 8018 H 741.892 -4.54039 1.52922 0
M  V30 8019 H 740.256 -2.44291 0.720678 0
M  V30 8020 H 741.039 -2.46251 2.39198 0
M  V30 8021 N 743.484 -0.715051 -1.40445 0
M  V30 8022 C 744.9 -0.388555 -1.54798 0
M  V30 8023 C 745.1 1.10271 -1.68649 0
M  V30 8024 O 744.156 1.88875 -1.67578 0
M  V30 8025 C 745.469 -1.15414 -2.77669 0
M  V30 8026 C 747.017 -1.14039 -2.91486 0
M  V30 8027 C 747.492 -1.88812 -4.1727 0
M  V30 8028 N 748.983 -1.85878 -4.24268 0
M  V30 8029 C 749.718 -2.40558 -5.20499 0
M  V30 8030 N 749.214 -3.03791 -6.22642 0
M  V30 8031 N 751.007 -2.30703 -5.12574 0
M  V30 8032 H 743.158 -1.68201 -1.297 0
M  V30 8033 H 745.421 -0.710915 -0.627139 0
M  V30 8034 H 745.127 -2.20853 -2.7371 0
M  V30 8035 H 745.001 -0.745412 -3.69761 0
M  V30 8036 H 747.388 -0.0941996 -2.9495 0
M  V30 8037 H 747.469 -1.58834 -2.00513 0
M  V30 8038 H 747.113 -2.93422 -4.14568 0
M  V30 8039 H 747.043 -1.41438 -5.0725 0
M  V30 8040 H 749.534 -1.39794 -3.51093 0
M  V30 8041 H 749.847 -3.43032 -6.92495 0
M  V30 8042 H 748.192 -3.07875 -6.23087 0
M  V30 8043 H 751.383 -1.80961 -4.31707 0
M  V30 8044 H 751.556 -2.73618 -5.87398 0
M  V30 8045 N 744.962 1.50701 -0.461195 0
M  V30 8046 C 745.925 2.2686 0.326679 0
M  V30 8047 C 746.925 1.31243 0.929085 0
M  V30 8048 O 748.115 1.54754 0.799807 0
M  V30 8049 C 745.247 3.07844 1.46441 0
M  V30 8050 H 746.44 2.97954 -0.341095 0
M  V30 8051 H 743.993 1.54814 -0.214984 0
M  V30 8052 H 744.728 2.41223 2.16753 0
M  V30 8053 H 744.513 3.78101 1.03836 0
M  V30 8054 H 746.003 3.65469 2.02044 0
M  V30 8055 N 746.441 0.193421 1.56409 0
M  V30 8056 C 747.374 -0.767384 2.1491 0
M  V30 8057 C 748.352 -1.21075 1.08534 0
M  V30 8058 O 749.536 -1.29856 1.36637 0
M  V30 8059 C 746.663 -2.03615 2.70663 0
M  V30 8060 C 745.709 -1.73505 3.89613 0
M  V30 8061 S 746.542 -0.884645 5.28142 0
M  V30 8062 C 747.698 -2.1636 5.87315 0
M  V30 8063 H 747.931 -0.270053 2.96071 0
M  V30 8064 H 745.464 -0.0215546 1.54385 0
M  V30 8065 H 747.422 -2.7648 3.03429 0
M  V30 8066 H 746.083 -2.50461 1.89547 0
M  V30 8067 H 745.276 -2.67701 4.27027 0
M  V30 8068 H 744.878 -1.08723 3.57848 0
M  V30 8069 H 747.17 -3.11629 6.01576 0
M  V30 8070 H 748.113 -1.8338 6.83943 0
M  V30 8071 H 748.521 -2.29129 5.15907 0
M  V30 8072 N 747.919 -1.57396 -0.0801906 0
M  V30 8073 C 748.867 -2.04136 -1.11495 0
M  V30 8074 C 749.861 -0.945137 -1.40583 0
M  V30 8075 O 751.067 -1.13028 -1.40088 0
M  V30 8076 H 747.442 -0.65076 -0.37685 0
M  V30 8077 H 749.413 -2.90205 -0.694526 0
M  V30 8078 C 748.162 -2.49399 -2.42272 0
M  V30 8079 H 747.485 -3.33339 -2.20737 0
M  V30 8080 H 748.925 -2.85864 -3.13142 0
M  V30 8081 C 747.384 -1.37341 -3.07635 0
M  V30 8082 O 747.914 -0.710829 -3.95361 0
M  V30 8083 N 746.12 -1.12064 -2.68123 0
M  V30 8084 H 745.667 -1.66126 -1.96875 0
M  V30 8085 H 745.625 -0.372916 -3.12181 0
M  V30 8086 N 749.397 0.351382 -1.53633 0
M  V30 8087 C 750.347 1.4316 -1.77452 0
M  V30 8088 C 751.331 1.48076 -0.62946 0
M  V30 8089 O 752.523 1.53078 -0.888599 0
M  V30 8090 C 749.652 2.80409 -1.98055 0
M  V30 8091 C 748.738 2.79915 -3.18604 0
M  V30 8092 N 749.129 2.49057 -4.40232 0
M  V30 8093 C 747.427 3.11067 -3.19614 0
M  V30 8094 C 748.128 2.566 -5.22045 0
M  V30 8095 N 747.104 2.919 -4.5858 0
M  V30 8096 H 750.906 1.18188 -2.69089 0
M  V30 8097 H 748.42 0.559684 -1.52451 0
M  V30 8098 H 750.417 3.58231 -2.13251 0
M  V30 8099 H 749.077 3.06334 -1.07655 0
M  V30 8100 H 750.088 2.22395 -4.67719 0
M  V30 8101 H 746.765 3.42215 -2.39154 0
M  V30 8102 H 748.155 2.35968 -6.29101 0
M  V30 8103 N 750.875 1.45233 0.611969 0
M  V30 8104 C 751.805 1.5641 1.73373 0
M  V30 8105 C 752.786 0.415896 1.64937 0
M  V30 8106 O 753.971 0.638478 1.83404 0
M  V30 8107 C 751.101 1.52627 3.11965 0
M  V30 8108 C 750.055 2.66119 3.35208 0
M  V30 8109 C 749.381 2.4739 4.74028 0
M  V30 8110 C 750.681 4.08157 3.25891 0
M  V30 8111 H 752.375 2.50307 1.64277 0
M  V30 8112 H 749.921 1.20467 0.788904 0
M  V30 8113 H 751.874 1.59043 3.90235 0
M  V30 8114 H 750.598 0.552564 3.21892 0
M  V30 8115 H 749.257 2.59123 2.59327 0
M  V30 8116 H 748.905 1.48168 4.80682 0
M  V30 8117 H 748.605 3.23494 4.90536 0
M  V30 8118 H 750.129 2.55653 5.54503 0
M  V30 8119 H 751.543 4.1642 3.9404 0
M  V30 8120 H 749.94 4.84617 3.5393 0
M  V30 8121 H 751.01 4.30374 2.23397 0
M  V30 8122 N 752.353 -0.854086 1.3245 0
M  V30 8123 C 753.578 -1.64597 1.26185 0
M  V30 8124 C 754.003 -1.87357 -0.167074 0
M  V30 8125 O 753.361 -1.42675 -1.11864 0
M  V30 8126 C 753.409 -2.98213 2.02734 0
M  V30 8127 O 752.513 -3.88784 1.37554 0
M  V30 8128 H 751.854 -0.50179 0.434859 0
M  V30 8129 H 754.384 -1.06372 1.74775 0
M  V30 8130 H 754.394 -3.4803 2.1293 0
M  V30 8131 H 753.069 -2.80969 3.06642 0
M  V30 8132 H 751.646 -3.4725 1.3591 0
M  V30 8133 N 753.831 -1.1567 -1.07043 0
M  V30 8134 C 754.761 -0.879348 -2.16309 0
M  V30 8135 C 755.742 0.171311 -1.69235 0
M  V30 8136 O 756.927 0.0250175 -1.94184 0
M  V30 8137 C 754.057 -0.371307 -3.45309 0
M  V30 8138 C 753.011 -1.359 -4.05851 0
M  V30 8139 C 752.337 -0.709678 -5.29969 0
M  V30 8140 C 753.637 -2.72606 -4.45514 0
M  V30 8141 H 755.331 -1.79308 -2.39768 0
M  V30 8142 H 752.877 -0.863558 -1.15233 0
M  V30 8143 H 754.83 -0.164798 -4.21078 0
M  V30 8144 H 753.554 0.577906 -3.21446 0
M  V30 8145 H 752.213 -1.55193 -3.32131 0
M  V30 8146 H 751.861 0.245782 -5.02399 0
M  V30 8147 H 751.561 -1.36886 -5.71433 0
M  V30 8148 H 753.085 -0.513015 -6.08441 0
M  V30 8149 H 754.499 -2.57141 -5.12398 0
M  V30 8150 H 752.896 -3.34927 -4.97939 0
M  V30 8151 H 753.966 -3.28434 -3.56734 0
M  V30 8152 N 755.309 1.25446 -0.953992 0
M  V30 8153 C 756.537 1.97215 -0.625595 0
M  V30 8154 C 756.952 1.70911 0.802168 0
M  V30 8155 O 756.309 0.984782 1.5365 0
M  V30 8156 C 756.36 3.50777 -0.873943 0
M  V30 8157 O 756.081 3.76173 -2.24556 0
M  V30 8158 C 757.582 4.39776 -0.557845 0
M  V30 8159 H 754.802 0.628652 -0.2346 0
M  V30 8160 H 757.346 1.59632 -1.27819 0
M  V30 8161 H 755.501 3.86474 -0.267765 0
M  V30 8162 H 755.915 4.70636 -2.31522 0
M  V30 8163 H 757.389 5.46431 -0.782157 0
M  V30 8164 H 757.866 4.36257 0.507573 0
M  V30 8165 H 758.472 4.09644 -1.14332 0
M  V30 8166 N 756.787 0.722489 1.40064 0
M  V30 8167 C 758.203 0.396758 1.5459 0
M  V30 8168 C 758.403 -1.09375 1.69232 0
M  V30 8169 O 757.459 -1.87984 1.68578 0
M  V30 8170 C 758.772 1.16885 2.77053 0
M  V30 8171 C 760.32 1.15583 2.90877 0
M  V30 8172 C 760.795 1.91023 4.16262 0
M  V30 8173 N 762.286 1.88126 4.23276 0
M  V30 8174 C 763.021 2.43315 5.19216 0
M  V30 8175 N 762.517 3.07089 6.21022 0
M  V30 8176 N 764.31 2.33418 5.11344 0
M  V30 8177 H 756.461 1.68887 1.28806 0
M  V30 8178 H 758.724 0.714231 0.62336 0
M  V30 8179 H 758.43 2.22301 2.72534 0
M  V30 8180 H 758.304 0.765011 3.69361 0
M  V30 8181 H 760.691 0.10984 2.94896 0
M  V30 8182 H 760.772 1.59895 1.99668 0
M  V30 8183 H 760.416 2.95616 4.13006 0
M  V30 8184 H 760.346 1.44126 5.06493 0
M  V30 8185 H 762.837 1.41654 3.50346 0
M  V30 8186 H 763.15 3.467 6.90666 0
M  V30 8187 H 761.495 3.11175 6.21446 0
M  V30 8188 H 764.686 1.83248 4.30741 0
M  V30 8189 H 764.859 2.7673 5.85939 0
M  V30 8190 N 758.265 -1.50454 0.469181 0
M  V30 8191 C 759.513 -2.01916 -0.0862982 0
M  V30 8192 C 759.834 -1.35337 -1.40388 0
M  V30 8193 O 759.104 -0.498096 -1.89462 0
M  V30 8194 H 757.684 -0.746185 -0.0348825 0
M  V30 8195 H 760.346 -1.84804 0.619167 0
M  V30 8196 H 759.442 -3.11182 -0.239189 0
M  V30 8197 N 759.743 -0.201713 -1.56304 0
M  V30 8198 C 760.673 0.71155 -2.22394 0
M  V30 8199 C 761.654 1.21625 -1.18917 0
M  V30 8200 O 762.839 1.26388 -1.47444 0
M  V30 8201 C 759.969 1.92837 -2.88845 0
M  V30 8202 C 758.923 1.55831 -3.98623 0
M  V30 8203 C 758.249 2.85228 -4.52271 0
M  V30 8204 C 759.549 0.763249 -5.16693 0
M  V30 8205 H 761.243 0.160573 -2.98969 0
M  V30 8206 H 758.789 0.0757916 -1.438 0
M  V30 8207 H 760.742 2.57253 -3.33764 0
M  V30 8208 H 759.466 2.50398 -2.09686 0
M  V30 8209 H 758.125 0.9377 -3.54405 0
M  V30 8210 H 757.773 3.40893 -3.69866 0
M  V30 8211 H 757.473 2.6121 -5.26349 0
M  V30 8212 H 758.997 3.50622 -4.99897 0
M  V30 8213 H 760.411 1.31066 -5.58117 0
M  V30 8214 H 758.808 0.620935 -5.96879 0
M  V30 8215 H 759.878 -0.234322 -4.84334 0
M  V30 8216 N 761.222 1.57436 0.0718424 0
M  V30 8217 C 762.447 1.91858 0.787745 0
M  V30 8218 C 762.872 0.798119 1.70328 0
M  V30 8219 O 762.23 -0.24905 1.79581 0
M  V30 8220 C 762.278 3.25232 1.55744 0
M  V30 8221 O 761.382 3.14462 2.6681 0
M  V30 8222 H 760.723 0.628258 0.214914 0
M  V30 8223 H 763.253 2.04561 0.0401012 0
M  V30 8224 H 763.263 3.59105 1.9367 0
M  V30 8225 H 761.938 4.0636 0.885691 0
M  V30 8226 H 760.515 2.92148 2.31741 0
M  V30 8227 N 762.7 -0.34323 1.53817 0
M  V30 8228 C 764.116 -0.686355 1.44088 0
M  V30 8229 C 764.316 -1.92426 0.597882 0
M  V30 8230 O 763.372 -2.52343 0.0889918 0
M  V30 8231 C 764.685 -0.878698 2.87575 0
M  V30 8232 C 766.233 -0.977296 2.97352 0
M  V30 8233 C 766.708 -1.20195 4.41947 0
M  V30 8234 N 768.199 -1.26915 4.45474 0
M  V30 8235 C 768.934 -1.46049 5.54488 0
M  V30 8236 N 768.43 -1.62354 6.73508 0
M  V30 8237 N 770.223 -1.48599 5.42102 0
M  V30 8238 H 762.374 0.470679 2.07119 0
M  V30 8239 H 764.637 0.148652 0.936273 0
M  V30 8240 H 764.343 -0.040602 3.51677 0
M  V30 8241 H 764.217 -1.78034 3.32541 0
M  V30 8242 H 766.604 -1.80591 2.3339 0
M  V30 8243 H 766.685 -0.0525498 2.55746 0
M  V30 8244 H 766.329 -0.378262 5.06489 0
M  V30 8245 H 766.259 -2.14027 4.81145 0
M  V30 8246 H 768.75 -1.15837 3.59708 0
M  V30 8247 H 769.063 -1.76591 7.52353 0
M  V30 8248 H 767.408 -1.5949 6.76453 0
M  V30 8249 H 770.599 -1.35443 4.48077 0
M  V30 8250 H 770.772 -1.6317 6.2712 0
M  V30 8251 N 764.178 -1.45556 -0.604258 0
M  V30 8252 C 765.406 -1.53278 -1.38973 0
M  V30 8253 C 765.821 -0.166509 -1.88064 0
M  V30 8254 O 765.178 0.832519 -1.62405 0
M  V30 8255 C 765.229 -2.51992 -2.59195 0
M  V30 8256 O 764.95 -3.8331 -2.12143 0
M  V30 8257 C 766.451 -2.69445 -3.52015 0
M  V30 8258 H 763.671 -0.519003 -0.425297 0
M  V30 8259 H 766.215 -1.90773 -0.736621 0
M  V30 8260 H 764.37 -2.17561 -3.2054 0
M  V30 8261 H 764.784 -4.3685 -2.90279 0
M  V30 8262 H 766.258 -3.42485 -4.32907 0
M  V30 8263 H 766.735 -1.75596 -4.0257 0
M  V30 8264 H 767.341 -3.04886 -2.9652 0
M  V30 8265 N 765.656 0.84705 -1.32902 0
M  V30 8266 C 766.881 1.63925 -1.27056 0
M  V30 8267 C 767.306 1.87443 0.157136 0
M  V30 8268 O 766.664 1.43266 1.11106 0
M  V30 8269 C 766.712 2.97134 -2.04313 0
M  V30 8270 O 765.816 3.88049 -1.39614 0
M  V30 8271 H 765.157 0.499477 -0.437514 0
M  V30 8272 H 767.687 1.05443 -1.75336 0
M  V30 8273 H 767.697 3.46896 -2.14772 0
M  V30 8274 H 766.372 2.79339 -3.08128 0
M  V30 8275 H 764.949 3.46525 -1.3775 0
M  V30 8276 N 767.134 1.16236 1.06428 0
M  V30 8277 C 768.067 0.81119 2.13295 0
M  V30 8278 C 769.045 -0.216555 1.61151 0
M  V30 8279 O 770.229 -0.100949 1.88229 0
M  V30 8280 C 767.356 0.207901 3.38061 0
M  V30 8281 C 766.402 1.20904 4.09004 0
M  V30 8282 S 767.235 2.75513 4.59187 0
M  V30 8283 C 768.391 2.1663 5.87216 0
M  V30 8284 H 768.624 1.71632 2.42755 0
M  V30 8285 H 766.157 0.985693 1.18842 0
M  V30 8286 H 768.115 -0.133715 4.10282 0
M  V30 8287 H 766.776 -0.67497 3.06762 0
M  V30 8288 H 765.969 0.735326 4.98607 0
M  V30 8289 H 765.571 1.49567 3.42791 0
M  V30 8290 H 767.863 1.53413 6.59902 0
M  V30 8291 H 768.806 3.04437 6.39315 0
M  V30 8292 H 769.214 1.60565 5.41183 0
M  V30 8293 N 768.612 -1.24939 0.960631 0
M  V30 8294 C 769.559 -2.25658 0.484459 0
M  V30 8295 C 770.529 -1.59422 -0.466242 0
M  V30 8296 O 771.714 -1.87015 -0.378169 0
M  V30 8297 C 768.854 -3.44359 -0.225958 0
M  V30 8298 C 767.967 -4.25214 0.762682 0
M  V30 8299 C 767.102 -5.31192 0.0290931 0
M  V30 8300 C 766.141 -6.03739 1.00827 0
M  V30 8301 N 765.278 -7.01437 0.305155 0
M  V30 8302 H 770.118 -2.65758 1.34821 0
M  V30 8303 H 767.655 -1.30648 0.675983 0
M  V30 8304 H 769.613 -4.12035 -0.654472 0
M  V30 8305 H 768.243 -3.05118 -1.05371 0
M  V30 8306 H 767.295 -3.57144 1.30966 0
M  V30 8307 H 768.607 -4.75406 1.50964 0
M  V30 8308 H 767.761 -6.04971 -0.457763 0
M  V30 8309 H 766.5 -4.81889 -0.750614 0
M  V30 8310 H 765.505 -5.2877 1.50607 0
M  V30 8311 H 766.73 -6.55131 1.7883 0
M  V30 8312 H 764.676 -6.54415 -0.455704 0
M  V30 8313 H 764.593 -7.49475 0.991104 0
M  V30 8314 H 765.861 -7.79336 -0.159966 0
M  V30 8315 N 770.09 -0.729906 -1.39679 0
M  V30 8316 C 771.501 -0.346241 -1.83461 0
M  V30 8317 C 771.852 1.1215 -1.60987 0
M  V30 8318 O 770.977 1.86456 -1.09832 0
M  V30 8319 C 771.572 -0.621656 -3.33048 0
M  V30 8320 C 770.131 -0.291543 -3.75269 0
M  V30 8321 C 769.278 -0.886844 -2.62736 0
M  V30 8322 H 772.229 -0.927949 -1.28743 0
M  V30 8323 H 772.25 0.108301 -3.80346 0
M  V30 8324 H 771.762 -1.68996 -3.49373 0
M  V30 8325 H 769.863 0.771133 -3.64533 0
M  V30 8326 H 769.976 -0.770544 -4.72863 0
M  V30 8327 H 768.34 -0.313839 -2.52759 0
M  V30 8328 H 769.123 -1.95971 -2.81869 0
M  V30 8329 N 771.568 1.50203 -0.477153 0
M  V30 8330 C 772.984 1.59056 -0.131663 0
M  V30 8331 C 773.184 1.48473 1.36227 0
M  V30 8332 O 772.24 1.34635 2.13611 0
M  V30 8333 C 773.553 2.92741 -0.687254 0
M  V30 8334 C 775.101 3.0615 -0.651223 0
M  V30 8335 C 775.576 4.42419 -1.18446 0
M  V30 8336 N 777.067 4.48847 -1.14413 0
M  V30 8337 C 777.802 5.52689 -1.52717 0
M  V30 8338 N 777.298 6.63754 -1.98499 0
M  V30 8339 N 779.091 5.43267 -1.44282 0
M  V30 8340 H 771.242 1.55325 -1.44872 0
M  V30 8341 H 773.505 0.734395 -0.599473 0
M  V30 8342 H 773.211 3.0598 -1.73405 0
M  V30 8343 H 773.085 3.76961 -0.134215 0
M  V30 8344 H 775.472 2.92556 0.386677 0
M  V30 8345 H 775.553 2.23673 -1.24114 0
M  V30 8346 H 775.197 4.56763 -2.22103 0
M  V30 8347 H 775.127 5.23498 -0.570709 0
M  V30 8348 H 777.618 3.69152 -0.808416 0
M  V30 8349 H 777.931 7.39059 -2.25859 0
M  V30 8350 H 776.276 6.64858 -2.02456 0
M  V30 8351 H 779.467 4.55387 -1.08352 0
M  V30 8352 H 779.64 6.24074 -1.74459 0
M  V30 8353 N 773.046 0.209999 1.56195 0
M  V30 8354 C 774.271 -0.433064 2.02828 0
M  V30 8355 C 774.696 -1.5337 1.08901 0
M  V30 8356 O 774.054 -1.81144 0.0751132 0
M  V30 8357 C 774.102 -0.952635 3.47789 0
M  V30 8358 O 773.206 -2.0647 3.56993 0
M  V30 8359 H 772.547 -0.0994594 0.656509 0
M  V30 8360 H 775.077 0.32525 2.01998 0
M  V30 8361 H 775.087 -1.26542 3.8788 0
M  V30 8362 H 773.762 -0.147007 4.1564 0
M  V30 8363 H 772.339 -1.75942 3.28784 0
M  V30 8364 N 774.524 -1.57472 -0.0634922 0
M  V30 8365 C 775.749 -1.92273 -0.77756 0
M  V30 8366 C 776.174 -0.807141 -1.69902 0
M  V30 8367 O 775.532 0.239523 -1.79711 0
M  V30 8368 C 775.58 -3.26054 -1.54017 0
M  V30 8369 O 774.684 -3.15873 -2.65138 0
M  V30 8370 H 774.025 -0.629389 -0.211579 0
M  V30 8371 H 776.555 -2.04579 -0.0292523 0
M  V30 8372 H 776.565 -3.60127 -1.91763 0
M  V30 8373 H 775.24 -4.06824 -0.864128 0
M  V30 8374 H 773.817 -2.93373 -2.30189 0
M  V30 8375 N 776.003 0.335068 -1.53997 0
M  V30 8376 C 777.419 0.678704 -1.4445 0
M  V30 8377 C 777.619 1.92106 -0.608078 0
M  V30 8378 O 776.675 2.52292 -0.102373 0
M  V30 8379 C 777.988 0.863435 -2.88037 0
M  V30 8380 C 779.536 0.961513 -2.97866 0
M  V30 8381 C 780.011 1.1785 -4.42578 0
M  V30 8382 N 781.502 1.2455 -4.46141 0
M  V30 8383 C 782.237 1.43106 -5.55255 0
M  V30 8384 N 781.733 1.5878 -6.74359 0
M  V30 8385 N 783.526 1.45722 -5.42883 0
M  V30 8386 H 775.677 -0.481656 -2.06867 0
M  V30 8387 H 777.94 -0.153615 -0.935471 0
M  V30 8388 H 777.646 0.0219511 -3.51693 0
M  V30 8389 H 777.52 1.76268 -3.33481 0
M  V30 8390 H 779.907 1.79351 -2.34344 0
M  V30 8391 H 779.988 0.0389862 -2.5577 0
M  V30 8392 H 779.632 0.351397 -5.06683 0
M  V30 8393 H 779.562 2.11472 -4.82273 0
M  V30 8394 H 782.053 1.13928 -3.60318 0
M  V30 8395 H 782.366 1.72599 -7.53279 0
M  V30 8396 H 780.711 1.559 -6.77289 0
M  V30 8397 H 783.902 1.33065 -4.48789 0
M  V30 8398 H 784.075 1.59841 -6.27977 0
M  V30 8399 N 777.481 1.45874 0.596531 0
M  V30 8400 C 778.729 1.5017 1.35253 0
M  V30 8401 C 779.05 0.149246 1.94428 0
M  V30 8402 O 778.32 -0.82268 1.77789 0
M  V30 8403 H 776.9 0.553052 0.502138 0
M  V30 8404 H 779.562 1.81908 0.699671 0
M  V30 8405 H 778.658 2.24671 2.16632 0
M  V30 8406 N 778.959 -0.83999 1.33349 0
M  V30 8407 C 780.184 -1.63249 1.27924 0
M  V30 8408 C 780.609 -1.87523 -0.147193 0
M  V30 8409 O 779.967 -1.43853 -1.10345 0
M  V30 8410 C 780.015 -2.96046 2.05886 0
M  V30 8411 O 779.119 -3.87303 1.4167 0
M  V30 8412 H 778.46 -0.49715 0.440157 0
M  V30 8413 H 780.99 -1.04512 1.75893 0
M  V30 8414 H 781 -3.45752 2.16609 0
M  V30 8415 H 779.675 -2.77701 3.09605 0
M  V30 8416 H 778.252 -3.45789 1.39585 0
M  V30 8417 N 780.437 -1.16799 -1.0581 0
M  V30 8418 C 781.686 -0.94698 -1.78088 0
M  V30 8419 C 781.999 0.526016 -1.88394 0
M  V30 8420 O 783.205 0.865061 -2.5735 0
M  V30 8421 C 781.661 -1.64508 -3.20102 0
M  V30 8422 C 781.269 -3.15618 -3.17946 0
M  V30 8423 C 783.013 -1.50622 -3.96879 0
M  V30 8424 C 780.92 -3.78144 -4.5471 0
M  V30 8425 H 779.85 -0.35067 -0.667493 0
M  V30 8426 H 782.501 -1.39985 -1.18645 0
M  V30 8427 H 780.883 -1.11993 -3.79834 0
M  V30 8428 H 782.057 -3.75016 -2.67768 0
M  V30 8429 H 780.372 -3.29444 -2.54667 0
M  V30 8430 H 782.969 -1.94713 -4.97987 0
M  V30 8431 H 783.312 -0.455864 -4.13797 0
M  V30 8432 H 783.845 -2.00319 -3.43682 0
M  V30 8433 H 780.584 -4.83149 -4.42998 0
M  V30 8434 H 780.104 -3.23532 -5.05062 0
M  V30 8435 H 781.783 -3.79986 -5.2366 0
M  V30 8436 N 781.915 1.24427 -0.967243 0
M  V30 8437 C 783.162 1.92487 -0.62888 0
M  V30 8438 C 783.49 1.75623 0.835871 0
M  V30 8439 O 782.745 1.1027 1.61675 0
M  V30 8440 C 783.044 3.44568 -0.949096 0
M  V30 8441 C 782.71 3.816 -2.40192 0
M  V30 8442 C 781.372 3.9142 -2.799 0
M  V30 8443 C 783.724 3.99715 -3.34481 0
M  V30 8444 C 781.052 4.16771 -4.12939 0
M  V30 8445 C 783.404 4.26562 -4.67148 0
M  V30 8446 C 782.068 4.34601 -5.06634 0
M  V30 8447 H 781.338 0.704361 -0.230124 0
M  V30 8448 H 783.985 1.4772 -1.21864 0
M  V30 8449 H 782.29 3.90819 -0.277085 0
M  V30 8450 H 783.987 3.95436 -0.665692 0
M  V30 8451 H 780.577 3.74522 -2.08402 0
M  V30 8452 H 784.761 3.91531 -3.04987 0
M  V30 8453 H 780.017 4.21214 -4.43158 0
M  V30 8454 H 784.191 4.39523 -5.40178 0
M  V30 8455 H 781.818 4.53998 -6.09746 0
M  V30 8456 N 783.393 0.737304 1.3929 0
M  V30 8457 C 784.621 0.296573 2.04763 0
M  V30 8458 C 785.036 -1.06941 1.55592 0
M  V30 8459 O 784.393 -1.67619 0.721822 0
M  V30 8460 C 784.444 0.291906 3.6032 0
M  V30 8461 O 784.165 1.60397 4.07682 0
M  V30 8462 C 785.666 -0.164708 4.42994 0
M  V30 8463 H 782.886 0.129251 0.658434 0
M  V30 8464 H 785.43 1.0016 1.78293 0
M  V30 8465 H 783.585 -0.364251 3.85684 0
M  V30 8466 H 783.999 1.51909 5.0202 0
M  V30 8467 H 785.473 -0.116814 5.51876 0
M  V30 8468 H 785.95 -1.21022 4.22197 0
M  V30 8469 H 786.556 0.461968 4.22784 0
M  V30 8470 N 784.871 -1.49948 0.485112 0
M  V30 8471 C 786.118 -2.02396 -0.0650059 0
M  V30 8472 C 786.446 -1.36606 -1.38452 0
M  V30 8473 O 785.701 -0.485476 -1.89583 0
M  V30 8474 C 786 -3.56282 -0.282434 0
M  V30 8475 C 785.666 -4.40625 0.957106 0
M  V30 8476 C 784.328 -4.63393 1.29692 0
M  V30 8477 C 786.68 -4.89799 1.78176 0
M  V30 8478 C 784.008 -5.3258 2.4612 0
M  V30 8479 C 786.36 -5.60266 2.93743 0
M  V30 8480 C 785.024 -5.81284 3.28124 0
M  V30 8481 H 784.294 -0.740618 -0.0237873 0
M  V30 8482 H 786.941 -1.80416 0.642044 0
M  V30 8483 H 785.246 -3.76853 -1.07186 0
M  V30 8484 H 786.943 -3.94442 -0.722276 0
M  V30 8485 H 783.533 -4.23133 0.682384 0
M  V30 8486 H 787.717 -4.7205 1.53239 0
M  V30 8487 H 782.973 -5.47059 2.73014 0
M  V30 8488 H 787.147 -5.97347 3.5798 0
M  V30 8489 H 784.774 -6.34671 4.18446 0
M  V30 8490 N 786.349 -0.21828 -1.56081 0
M  V30 8491 C 787.765 0.137168 -1.59009 0
M  V30 8492 C 787.965 1.59215 -1.23503 0
M  V30 8493 O 787.021 2.33178 -0.968716 0
M  V30 8494 C 788.334 -0.186162 -3.00123 0
M  V30 8495 C 789.882 -0.128135 -3.12738 0
M  V30 8496 C 790.357 -0.425094 -4.56023 0
M  V30 8497 N 791.848 -0.374547 -4.61683 0
M  V30 8498 C 792.583 -0.57786 -5.70481 0
M  V30 8499 N 792.079 -0.842771 -6.87655 0
M  V30 8500 N 793.872 -0.510521 -5.59777 0
M  V30 8501 H 786.023 -1.16746 -1.77437 0
M  V30 8502 H 788.286 -0.467706 -0.824594 0
M  V30 8503 H 787.992 -1.19589 -3.30744 0
M  V30 8504 H 787.866 0.500388 -3.73866 0
M  V30 8505 H 790.253 0.872224 -2.81915 0
M  V30 8506 H 790.334 -0.848112 -2.41331 0
M  V30 8507 H 789.978 -1.42288 -4.87562 0
M  V30 8508 H 789.908 0.316038 -5.25651 0
M  V30 8509 H 792.399 -0.177356 -3.77484 0
M  V30 8510 H 792.712 -0.986095 -7.66483 0
M  V30 8511 H 791.057 -0.879929 -6.89407 0
M  V30 8512 H 794.248 -0.303813 -4.67113 0
M  V30 8513 H 794.421 -0.672378 -6.44502 0
M  V30 8514 N 787.827 1.57504 0.0551401 0
M  V30 8515 C 789.243 1.54236 0.410292 0
M  V30 8516 C 789.443 0.940839 1.78187 0
M  V30 8517 O 788.499 0.550541 2.46425 0
M  V30 8518 C 789.812 2.98816 0.336064 0
M  V30 8519 C 791.36 3.10236 0.415047 0
M  V30 8520 C 791.835 4.56499 0.37055 0
M  V30 8521 N 793.326 4.61199 0.43013 0
M  V30 8522 C 794.061 5.71873 0.418179 0
M  V30 8523 N 793.557 6.91864 0.360056 0
M  V30 8524 N 795.35 5.60165 0.465977 0
M  V30 8525 H 787.501 1.94965 -0.842759 0
M  V30 8526 H 789.764 0.893096 -0.317937 0
M  V30 8527 H 789.47 3.4645 -0.605429 0
M  V30 8528 H 789.344 3.59564 1.13988 0
M  V30 8529 H 791.731 2.62566 1.34697 0
M  V30 8530 H 791.812 2.52367 -0.417648 0
M  V30 8531 H 791.456 5.0483 -0.557592 0
M  V30 8532 H 791.386 5.12249 1.221 0
M  V30 8533 H 793.877 3.74857 0.478623 0
M  V30 8534 H 794.19 7.71983 0.35532 0
M  V30 8535 H 792.535 6.94233 0.326492 0
M  V30 8536 H 795.726 4.65322 0.509194 0
M  V30 8537 H 795.899 6.46413 0.453194 0
M  V30 8538 N 789.305 -0.326896 1.54172 0
M  V30 8539 C 790.721 -0.671034 1.44808 0
M  V30 8540 C 790.921 -1.91781 0.618258 0
M  V30 8541 O 789.977 -2.52235 0.115751 0
M  V30 8542 C 791.29 -0.848147 2.88491 0
M  V30 8543 C 792.838 -0.945702 2.98371 0
M  V30 8544 C 793.313 -1.15501 4.43197 0
M  V30 8545 N 794.804 -1.22183 4.46795 0
M  V30 8546 C 795.539 -1.4016 5.56006 0
M  V30 8547 N 795.035 -1.55202 6.75192 0
M  V30 8548 N 796.828 -1.42841 5.43648 0
M  V30 8549 H 788.979 0.49262 2.06608 0
M  V30 8550 H 791.242 0.158574 0.934643 0
M  V30 8551 H 790.948 -0.00329969 3.517 0
M  V30 8552 H 790.822 -1.74497 3.34411 0
M  V30 8553 H 793.209 -1.78106 2.35292 0
M  V30 8554 H 793.29 -0.0254215 2.55787 0
M  V30 8555 H 792.934 -0.324521 5.06862 0
M  V30 8556 H 792.864 -2.08911 4.83388 0
M  V30 8557 H 795.355 -1.12016 3.60917 0
M  V30 8558 H 795.668 -1.68601 7.54184 0
M  V30 8559 H 794.013 -1.52306 6.78106 0
M  V30 8560 H 797.204 -1.30683 4.49488 0
M  V30 8561 H 797.377 -1.56509 6.28816 0
M  V30 8562 N 790.784 -1.46188 -0.588786 0
M  V30 8563 C 792.061 -1.41659 -1.34878 0
M  V30 8564 C 792.441 -0.0968913 -2.10878 0
M  V30 8565 O 791.789 0.921468 -2.09096 0
M  V30 8566 C 791.999 -2.6424 -2.27988 0
M  V30 8567 C 793.347 -3.1013 -2.90008 0
M  V30 8568 O 794.371 -2.64745 -2.38303 0
M  V30 8569 O 793.23 -3.88944 -3.83908 0
M  V30 8570 H 790.324 -0.563058 -0.605718 0
M  V30 8571 H 792.87 -1.58346 -0.610309 0
M  V30 8572 H 791.642 -3.51853 -1.71217 0
M  V30 8573 H 791.265 -2.49982 -3.09184 0
M  V30 8574 N 792.262 0.832906 -1.33792 0
M  V30 8575 C 793.192 1.95828 -1.27176 0
M  V30 8576 C 794.173 1.69427 -0.15114 0
M  V30 8577 O 795.358 1.91167 -0.341886 0
M  V30 8578 C 792.488 3.32098 -1.01629 0
M  V30 8579 C 791.442 3.72912 -2.10049 0
M  V30 8580 C 790.768 5.07054 -1.69706 0
M  V30 8581 C 792.068 3.86064 -3.51783 0
M  V30 8582 H 793.762 2.01622 -2.21334 0
M  V30 8583 H 791.308 0.96866 -1.0655 0
M  V30 8584 H 793.261 4.10402 -0.956474 0
M  V30 8585 H 791.985 3.26577 -0.0390956 0
M  V30 8586 H 790.644 2.96876 -2.15082 0
M  V30 8587 H 790.292 4.9801 -0.706737 0
M  V30 8588 H 789.992 5.35333 -2.42264 0
M  V30 8589 H 791.516 5.87827 -1.65202 0
M  V30 8590 H 792.93 4.54665 -3.49218 0
M  V30 8591 H 791.327 4.25787 -4.22878 0
M  V30 8592 H 792.397 2.88344 -3.89854 0
M  V30 8593 N 793.74 1.17359 1.05189 0
M  V30 8594 C 794.988 0.960087 1.77839 0
M  V30 8595 C 795.309 -0.512554 1.88143 0
M  V30 8596 O 794.579 -1.3721 1.39822 0
M  V30 8597 H 793.159 0.352234 0.658741 0
M  V30 8598 H 795.821 1.47834 1.27008 0
M  V30 8599 H 794.917 1.38843 2.79516 0
M  V30 8600 N 795.218 -1.23913 0.973828 0
M  V30 8601 C 796.443 -1.96735 0.656511 0
M  V30 8602 C 796.868 -1.71682 -0.768571 0
M  V30 8603 O 796.226 -0.984267 -1.52256 0
M  V30 8604 C 796.274 -3.48004 0.944735 0
M  V30 8605 O 795.378 -4.12387 0.0333357 0
M  V30 8606 H 794.719 -0.616119 0.247575 0
M  V30 8607 H 797.249 -1.57525 1.30564 0
M  V30 8608 H 797.259 -3.98424 0.87876 0
M  V30 8609 H 795.934 -3.65567 1.98328 0
M  V30 8610 H 794.511 -3.72585 0.153157 0
M  V30 8611 N 796.696 -0.74468 -1.38897 0
M  V30 8612 C 797.606 -0.112892 -2.34328 0
M  V30 8613 C 798.622 0.71087 -1.58816 0
M  V30 8614 O 799.798 0.637092 -1.91058 0
M  V30 8615 C 796.863 0.776417 -3.37894 0
M  V30 8616 C 795.924 -0.0606999 -4.29257 0
M  V30 8617 C 795.157 0.786258 -5.27877 0
M  V30 8618 O 795.38 2.02463 -5.33259 0
M  V30 8619 O 794.314 0.209781 -6.01534 0
M  V30 8620 H 798.14 -0.900801 -2.90033 0
M  V30 8621 H 795.725 -0.505462 -1.4059 0
M  V30 8622 H 797.607 1.28496 -4.01331 0
M  V30 8623 H 796.282 1.54297 -2.84559 0
M  V30 8624 H 795.189 -0.614984 -3.69011 0
M  V30 8625 H 796.522 -0.789702 -4.85824 0
M  V30 8626 N 798.174 1.49689 -0.493057 0
M  V30 8627 C 799.137 2.27502 0.278485 0
M  V30 8628 C 800.137 1.33184 0.901037 0
M  V30 8629 O 801.327 1.56415 0.766801 0
M  V30 8630 C 798.459 3.10881 1.39878 0
M  V30 8631 H 799.652 2.97163 -0.404219 0
M  V30 8632 H 797.205 1.54324 -0.247774 0
M  V30 8633 H 797.94 2.45767 2.11587 0
M  V30 8634 H 797.725 3.80219 0.957924 0
M  V30 8635 H 799.215 3.69673 1.94247 0
M  V30 8636 N 799.652 0.226554 1.55963 0
M  V30 8637 C 800.929 -0.453058 1.90281 0
M  V30 8638 C 801.309 -1.77377 1.14458 0
M  V30 8639 O 800.657 -2.27067 0.255496 0
M  V30 8640 C 800.867 -0.641108 3.43061 0
M  V30 8641 C 802.215 -0.946265 4.13921 0
M  V30 8642 O 803.239 -0.727713 3.48687 0
M  V30 8643 O 802.098 -1.36131 5.29274 0
M  V30 8644 H 799.192 -0.240242 0.791336 0
M  V30 8645 H 801.738 0.26911 1.67553 0
M  V30 8646 H 800.51 0.290283 3.90222 0
M  V30 8647 H 800.133 -1.41458 3.71585 0
M  V30 8648 N 801.13 -1.57531 -0.0467866 0
M  V30 8649 C 802.377 -1.88451 -0.74112 0
M  V30 8650 C 802.705 -0.821592 -1.76296 0
M  V30 8651 O 801.96 0.179585 -1.94874 0
M  V30 8652 C 802.259 -3.26091 -1.46285 0
M  V30 8653 C 801.925 -4.47171 -0.578669 0
M  V30 8654 C 800.587 -4.80032 -0.335083 0
M  V30 8655 C 802.939 -5.2119 0.0328809 0
M  V30 8656 C 800.267 -5.84309 0.529121 0
M  V30 8657 C 802.619 -6.26383 0.884684 0
M  V30 8658 C 801.283 -6.57729 1.1379 0
M  V30 8659 H 800.553 -0.68959 -0.271195 0
M  V30 8660 H 803.2 -1.915 -0.00132378 0
M  V30 8661 H 801.505 -3.18948 -2.27551 0
M  V30 8662 H 803.202 -3.47258 -2.00532 0
M  V30 8663 H 799.792 -4.21467 -0.778666 0
M  V30 8664 H 803.976 -4.96096 -0.142375 0
M  V30 8665 H 799.232 -6.06981 0.733794 0
M  V30 8666 H 803.406 -6.82888 1.36516 0
M  V30 8667 H 801.033 -7.38355 1.80929 0
M  V30 8668 N 802.608 0.318715 -1.54344 0
M  V30 8669 C 803.571 1.37545 -1.83342 0
M  V30 8670 C 804.571 1.445 -0.705444 0
M  V30 8671 O 805.761 1.44443 -0.973752 0
M  V30 8672 C 802.893 2.76225 -1.99781 0
M  V30 8673 H 804.086 1.13084 -2.77762 0
M  V30 8674 H 801.639 0.554457 -1.46135 0
M  V30 8675 H 802.374 3.05934 -1.07588 0
M  V30 8676 H 802.159 2.7257 -2.81865 0
M  V30 8677 H 803.649 3.52664 -2.23647 0
M  V30 8678 N 804.086 1.46499 0.581025 0
M  V30 8679 C 805.363 1.42372 1.34125 0
M  V30 8680 C 805.743 0.108073 2.10823 0
M  V30 8681 O 805.091 -0.910366 2.09582 0
M  V30 8682 C 805.301 2.65445 2.26583 0
M  V30 8683 C 806.649 3.11664 2.88359 0
M  V30 8684 O 807.673 2.66006 2.36896 0
M  V30 8685 O 806.532 3.90974 3.81839 0
M  V30 8686 H 803.626 0.566262 0.602724 0
M  V30 8687 H 806.172 1.58667 0.601903 0
M  V30 8688 H 804.944 3.52756 1.69348 0
M  V30 8689 H 804.567 2.51618 3.07854 0
M  V30 8690 N 805.565 -0.825799 1.34232 0
M  V30 8691 C 806.842 -1.56741 1.17011 0
M  V30 8692 C 807.222 -2.09512 -0.258425 0
M  V30 8693 O 806.57 -1.90664 -1.25935 0
M  V30 8694 C 806.78 -2.69104 2.22225 0
M  V30 8695 C 808.128 -3.37947 2.57055 0
M  V30 8696 O 809.152 -2.79358 2.20992 0
M  V30 8697 O 808.011 -4.43743 3.1899 0
M  V30 8698 H 805.105 -0.69163 0.453405 0
M  V30 8699 H 807.651 -0.867422 1.45856 0
M  V30 8700 H 806.423 -2.27844 3.18124 0
M  V30 8701 H 806.046 -3.46756 1.94541 0
M  V30 8702 N 807.043 -1.17915 -1.04565 0
M  V30 8703 C 807.953 -0.916449 -2.15959 0
M  V30 8704 C 808.969 0.117655 -1.73602 0
M  V30 8705 O 810.145 -0.063089 -2.01301 0
M  V30 8706 C 807.21 -0.440262 -3.43893 0
M  V30 8707 C 806.271 -1.54172 -4.00661 0
M  V30 8708 C 805.504 -1.08816 -5.22489 0
M  V30 8709 O 805.727 0.0551547 -5.70373 0
M  V30 8710 O 804.661 -1.88383 -5.7166 0
M  V30 8711 H 808.487 -1.8484 -2.40972 0
M  V30 8712 H 806.072 -0.960552 -1.14428 0
M  V30 8713 H 807.954 -0.182537 -4.21004 0
M  V30 8714 H 806.629 0.46346 -3.20365 0
M  V30 8715 H 805.536 -1.85341 -3.24961 0
M  V30 8716 H 806.869 -2.42139 -4.2852 0
M  V30 8717 N 808.521 1.23394 -0.980386 0
M  V30 8718 C 809.469 2.26872 -0.513018 0
M  V30 8719 C 810.463 1.63853 0.429948 0
M  V30 8720 O 811.669 1.77417 0.303842 0
M  V30 8721 H 808.044 0.737398 -0.147473 0
M  V30 8722 H 810.015 2.63654 -1.39746 0
M  V30 8723 C 808.764 3.47289 0.168962 0
M  V30 8724 H 808.087 3.96033 -0.547546 0
M  V30 8725 H 809.527 4.21502 0.459616 0
M  V30 8726 C 807.986 3.06425 1.40019 0
M  V30 8727 O 808.516 3.14708 2.49643 0
M  V30 8728 N 806.722 2.61339 1.27084 0
M  V30 8729 H 806.269 2.54799 0.378872 0
M  V30 8730 H 806.227 2.34364 2.09573 0
M  V30 8731 N 809.999 0.752036 1.385 0
M  V30 8732 C 811.224 0.316993 2.04963 0
M  V30 8733 C 811.649 -1.04582 1.56346 0
M  V30 8734 O 811.007 -1.66616 0.714755 0
M  V30 8735 C 811.055 0.347235 3.58924 0
M  V30 8736 O 810.159 -0.659296 4.07096 0
M  V30 8737 H 809.5 0.140652 0.648932 0
M  V30 8738 H 812.03 1.02272 1.77205 0
M  V30 8739 H 812.04 0.19757 4.07521 0
M  V30 8740 H 810.715 1.34157 3.93668 0
M  V30 8741 H 809.292 -0.474371 3.6987 0
M  V30 8742 N 811.477 -1.49425 0.500989 0
M  V30 8743 C 812.705 -2.06861 -0.0403443 0
M  V30 8744 C 813.12 -1.36132 -1.30819 0
M  V30 8745 O 812.477 -0.439647 -1.77125 0
M  V30 8746 C 812.528 -3.6027 -0.297902 0
M  V30 8747 O 812.249 -4.28338 0.919686 0
M  V30 8748 C 813.75 -4.34419 -0.882876 0
M  V30 8749 H 810.97 -0.670688 0.0204619 0
M  V30 8750 H 813.514 -1.92207 0.698342 0
M  V30 8751 H 811.669 -3.74627 -0.98657 0
M  V30 8752 H 812.083 -5.2004 0.682528 0
M  V30 8753 H 813.557 -5.42631 -1.01268 0
M  V30 8754 H 814.034 -3.96898 -1.88066 0
M  V30 8755 H 814.64 -4.24669 -0.231677 0
M  V30 8756 N 812.955 -0.234822 -1.55841 0
M  V30 8757 C 813.918 0.656378 -2.196 0
M  V30 8758 C 814.918 1.11179 -1.16171 0
M  V30 8759 O 816.108 1.01845 -1.41326 0
M  V30 8760 C 813.24 1.90072 -2.82993 0
M  V30 8761 H 814.433 0.100281 -2.99732 0
M  V30 8762 H 811.986 0.0147613 -1.56293 0
M  V30 8763 H 812.721 2.49836 -2.06767 0
M  V30 8764 H 812.506 1.5825 -3.58747 0
M  V30 8765 H 813.996 2.53538 -3.31826 0
M  V30 8766 N 814.433 1.57553 0.0384317 0
M  V30 8767 C 815.681 1.88468 0.729672 0
M  V30 8768 C 816.002 0.831302 1.76393 0
M  V30 8769 O 815.272 -0.13622 1.95426 0
M  V30 8770 H 813.852 0.695529 0.272485 0
M  V30 8771 H 816.514 1.94899 0.0066032 0
M  V30 8772 H 815.61 2.8705 1.22511 0
M  V30 8773 N 815.911 -0.310526 1.54511 0
M  V30 8774 C 816.821 -1.4054 1.87844 0
M  V30 8775 C 817.837 -1.55954 0.771635 0
M  V30 8776 O 819.013 -1.70801 1.06719 0
M  V30 8777 C 816.078 -2.75063 2.11048 0
M  V30 8778 C 815.139 -2.68715 3.348 0
M  V30 8779 C 814.372 -3.96821 3.56887 0
M  V30 8780 O 814.595 -4.95721 2.82165 0
M  V30 8781 O 813.529 -3.99291 4.50389 0
M  V30 8782 H 817.355 -1.15275 2.80972 0
M  V30 8783 H 814.94 -0.505732 1.4058 0
M  V30 8784 H 816.822 -3.54671 2.27566 0
M  V30 8785 H 815.497 -3.00191 1.21108 0
M  V30 8786 H 814.404 -1.87611 3.23655 0
M  V30 8787 H 815.737 -2.4854 4.2484 0
M  V30 8788 N 817.389 -1.46805 -0.573248 0
M  V30 8789 C 818.614 -1.56433 -1.36175 0
M  V30 8790 C 819.039 -0.209336 -1.86932 0
M  V30 8791 O 818.397 0.812146 -1.62092 0
M  V30 8792 C 818.445 -2.58055 -2.51873 0
M  V30 8793 O 817.549 -2.12214 -3.53609 0
M  V30 8794 H 816.89 -0.526068 -0.405153 0
M  V30 8795 H 819.42 -1.92456 -0.694405 0
M  V30 8796 H 819.43 -2.77966 -2.98662 0
M  V30 8797 H 818.105 -3.56448 -2.14284 0
M  V30 8798 H 816.682 -2.02333 -3.13234 0
M  V30 8799 N 818.867 0.818669 -1.34668 0
M  V30 8800 C 819.777 1.9616 -1.2868 0
M  V30 8801 C 820.793 1.72918 -0.193742 0
M  V30 8802 O 821.969 1.96951 -0.420975 0
M  V30 8803 C 819.034 3.30534 -1.04633 0
M  V30 8804 C 818.095 3.66755 -2.23136 0
M  V30 8805 C 817.328 4.94717 -2.00227 0
M  V30 8806 O 817.551 5.62218 -0.96264 0
M  V30 8807 O 816.485 5.28915 -2.87286 0
M  V30 8808 H 820.311 2.04157 -2.24842 0
M  V30 8809 H 817.896 0.954691 -1.14917 0
M  V30 8810 H 819.778 4.11005 -0.930216 0
M  V30 8811 H 818.453 3.23495 -0.115139 0
M  V30 8812 H 817.36 2.8671 -2.40308 0
M  V30 8813 H 818.693 3.78484 -3.1466 0
M  V30 8814 N 820.346 1.18468 1.03938 0
M  V30 8815 C 821.571 1.00638 1.81347 0
M  V30 8816 C 821.996 -0.440477 1.8287 0
M  V30 8817 O 821.354 -1.31609 1.24695 0
M  V30 8818 C 821.402 1.5673 3.24759 0
M  V30 8819 O 820.506 0.789517 4.04772 0
M  V30 8820 H 819.847 0.356432 0.560225 0
M  V30 8821 H 822.377 1.57253 1.30891 0
M  V30 8822 H 822.387 1.59496 3.75533 0
M  V30 8823 H 821.062 2.62043 3.22965 0
M  V30 8824 H 819.639 0.834267 3.63448 0
M  V30 8825 N 821.824 -1.22873 0.986916 0
M  V30 8826 C 822.774 -2.2237 0.503547 0
M  V30 8827 C 823.758 -1.55186 -0.424998 0
M  V30 8828 O 824.95 -1.75186 -0.252791 0
M  V30 8829 C 822.079 -3.42794 -0.186355 0
M  V30 8830 C 821.165 -4.17196 0.762143 0
M  V30 8831 N 821.556 -4.68453 1.9075 0
M  V30 8832 C 819.854 -4.42255 0.576797 0
M  V30 8833 C 820.555 -5.25126 2.50235 0
M  V30 8834 N 819.531 -5.13437 1.7856 0
M  V30 8835 H 823.333 -2.59636 1.37718 0
M  V30 8836 H 820.847 -1.38476 0.848415 0
M  V30 8837 H 822.844 -4.13256 -0.549993 0
M  V30 8838 H 821.504 -3.07042 -1.05619 0
M  V30 8839 H 822.515 -4.64595 2.28848 0
M  V30 8840 H 819.192 -4.16766 -0.247474 0
M  V30 8841 H 820.582 -5.75363 3.46997 0
M  V30 8842 N 823.302 -0.75937 -1.38099 0
M  V30 8843 C 824.252 -0.111098 -2.27729 0
M  V30 8844 C 825.236 0.687161 -1.45489 0
M  V30 8845 O 826.428 0.552167 -1.68167 0
M  V30 8846 C 823.557 0.776809 -3.34396 0
M  V30 8847 C 822.643 -0.0286108 -4.2409 0
M  V30 8848 N 823.034 -1.06797 -4.94397 0
M  V30 8849 C 821.332 0.197307 -4.45563 0
M  V30 8850 C 822.033 -1.55576 -5.6051 0
M  V30 8851 N 821.009 -0.870059 -5.36592 0
M  V30 8852 H 824.811 -0.907047 -2.79553 0
M  V30 8853 H 822.325 -0.595954 -1.5107 0
M  V30 8854 H 824.322 1.25691 -3.97502 0
M  V30 8855 H 822.982 1.57164 -2.84129 0
M  V30 8856 H 823.993 -1.44988 -4.97191 0
M  V30 8857 H 820.67 0.965028 -4.06194 0
M  V30 8858 H 822.06 -2.42184 -6.26735 0
M  V30 8859 N 824.78 1.49157 -0.508906 0
M  V30 8860 C 826.008 2.06879 0.0293734 0
M  V30 8861 C 826.423 1.36823 1.30095 0
M  V30 8862 O 825.78 0.449034 1.7689 0
M  V30 8863 C 825.831 3.60423 0.278791 0
M  V30 8864 O 825.552 4.27844 -0.942389 0
M  V30 8865 C 827.053 4.34881 0.859825 0
M  V30 8866 H 824.273 0.67057 -0.0240184 0
M  V30 8867 H 826.817 1.91834 -0.708526 0
M  V30 8868 H 824.972 3.75145 0.966689 0
M  V30 8869 H 825.386 5.19671 -0.710097 0
M  V30 8870 H 826.86 5.43161 0.983884 0
M  V30 8871 H 827.337 3.9789 1.85958 0
M  V30 8872 H 827.943 4.24785 0.209152 0
M  V30 8873 N 826.258 0.243083 1.55714 0
M  V30 8874 C 827.483 -0.389944 2.03701 0
M  V30 8875 C 827.908 -1.51025 1.12129 0
M  V30 8876 O 827.266 -1.80944 0.11352 0
M  V30 8877 C 827.314 -0.878649 3.49731 0
M  V30 8878 O 826.418 -1.98851 3.61292 0
M  V30 8879 H 825.759 -0.0855115 0.658471 0
M  V30 8880 H 828.289 0.368023 2.01263 0
M  V30 8881 H 828.299 -1.18287 3.90477 0
M  V30 8882 H 826.974 -0.0588107 4.15858 0
M  V30 8883 H 825.551 -1.68928 3.32442 0
M  V30 8884 N 827.736 -1.57571 -0.0300757 0
M  V30 8885 C 828.666 -2.0953 -1.03051 0
M  V30 8886 C 829.647 -0.99761 -1.37774 0
M  V30 8887 O 830.832 -1.27279 -1.46676 0
M  V30 8888 C 827.962 -2.57385 -2.33174 0
M  V30 8889 C 826.916 -3.71409 -2.12696 0
M  V30 8890 C 826.242 -4.05467 -3.4857 0
M  V30 8891 C 827.542 -4.99877 -1.51396 0
M  V30 8892 H 829.236 -2.93367 -0.597999 0
M  V30 8893 H 826.782 -1.41127 -0.286203 0
M  V30 8894 H 828.735 -2.92355 -3.03491 0
M  V30 8895 H 827.459 -1.70629 -2.78484 0
M  V30 8896 H 826.118 -3.36786 -1.44813 0
M  V30 8897 H 825.766 -3.15779 -3.91526 0
M  V30 8898 H 825.466 -4.82269 -3.35694 0
M  V30 8899 H 826.99 -4.4297 -4.2025 0
M  V30 8900 H 828.404 -5.3281 -2.11629 0
M  V30 8901 H 826.801 -5.81283 -1.49098 0
M  V30 8902 H 827.871 -4.82522 -0.479676 0
M  V30 8903 N 829.214 0.302327 -1.54673 0
M  V30 8904 C 830.144 1.37759 -1.88533 0
M  V30 8905 C 831.125 1.52961 -0.744113 0
M  V30 8906 O 832.31 1.6649 -0.999731 0
M  V30 8907 C 829.44 2.74201 -2.13146 0
M  V30 8908 C 828.394 2.73765 -3.28993 0
M  V30 8909 C 827.72 4.13483 -3.39022 0
M  V30 8910 C 829.02 2.35624 -4.66132 0
M  V30 8911 H 830.714 1.0967 -2.78591 0
M  V30 8912 H 828.26 0.52613 -1.34044 0
M  V30 8913 H 830.213 3.49508 -2.35419 0
M  V30 8914 H 828.937 3.03812 -1.19858 0
M  V30 8915 H 827.596 2.00914 -3.06642 0
M  V30 8916 H 827.244 4.40269 -2.43253 0
M  V30 8917 H 826.944 4.14093 -4.16894 0
M  V30 8918 H 828.468 4.90572 -3.63553 0
M  V30 8919 H 829.882 3.00647 -4.88143 0
M  V30 8920 H 828.279 2.47449 -5.46707 0
M  V30 8921 H 829.349 1.30753 -4.66939 0
M  V30 8922 N 830.692 1.47107 0.565454 0
M  V30 8923 C 831.938 1.53535 1.32495 0
M  V30 8924 C 832.271 0.193537 1.93233 0
M  V30 8925 O 831.546 -0.796956 1.77423 0
M  V30 8926 C 831.829 2.64712 2.4413 0
M  V30 8927 C 831.682 4.08482 1.88314 0
M  V30 8928 C 833.001 2.71853 3.46098 0
M  V30 8929 H 830.12 0.558926 0.480386 0
M  V30 8930 H 832.762 1.79125 0.633575 0
M  V30 8931 H 830.912 2.43023 3.03104 0
M  V30 8932 H 832.584 4.4151 1.33665 0
M  V30 8933 H 830.827 4.17148 1.19037 0
M  V30 8934 H 831.498 4.82032 2.68978 0
M  V30 8935 H 833.974 2.91397 2.97031 0
M  V30 8936 H 832.85 3.51433 4.21646 0
M  V30 8937 H 833.111 1.78584 4.04426 0
M  V30 8938 N 832.17 -0.811516 1.35101 0
M  V30 8939 C 833.581 -1.38515 1.25182 0
M  V30 8940 C 833.932 -1.95846 -0.117883 0
M  V30 8941 O 833.057 -1.90925 -1.01866 0
M  V30 8942 C 833.652 -2.51813 2.26662 0
M  V30 8943 C 832.211 -3.05052 2.20499 0
M  V30 8944 C 831.358 -1.77987 2.12641 0
M  V30 8945 H 834.309 -0.614959 1.46301 0
M  V30 8946 H 834.33 -3.30228 1.89023 0
M  V30 8947 H 833.842 -2.10057 3.2634 0
M  V30 8948 H 831.943 -3.51285 1.24215 0
M  V30 8949 H 832.056 -3.63368 3.1225 0
M  V30 8950 H 830.42 -1.99342 1.5854 0
M  V30 8951 H 831.203 -1.38389 3.14171 0
M  V30 8952 N 833.648 -1.19017 -1.03309 0
M  V30 8953 C 834.894 -1.0017 -1.77024 0
M  V30 8954 C 835.249 0.463062 -1.86744 0
M  V30 8955 O 834.542 1.33937 -1.37009 0
M  V30 8956 C 834.736 -1.59927 -3.19622 0
M  V30 8957 C 834.565 -3.12062 -3.23802 0
M  V30 8958 C 833.335 -3.80932 -3.31992 0
M  V30 8959 C 835.533 -4.0947 -3.1119 0
M  V30 8960 N 833.515 -5.20502 -3.25502 0
M  V30 8961 C 834.886 -5.3561 -3.12285 0
M  V30 8962 C 836.941 -4.00887 -2.95287 0
M  V30 8963 C 835.644 -6.54161 -2.99109 0
M  V30 8964 C 837.67 -5.19042 -2.83459 0
M  V30 8965 C 837.032 -6.44079 -2.85205 0
M  V30 8966 H 833.131 -0.420633 -0.659236 0
M  V30 8967 H 835.715 -1.5092 -1.23009 0
M  V30 8968 H 833.886 -1.11785 -3.71966 0
M  V30 8969 H 835.618 -1.34557 -3.81676 0
M  V30 8970 H 832.373 -3.31702 -3.38039 0
M  V30 8971 H 832.797 -5.93519 -3.25675 0
M  V30 8972 H 837.439 -3.05042 -2.92762 0
M  V30 8973 H 835.157 -7.50196 -3.00386 0
M  V30 8974 H 838.743 -5.14199 -2.72197 0
M  V30 8975 H 837.623 -7.33969 -2.7615 0
M  V30 8976 N 835.127 1.22348 -0.993418 0
M  V30 8977 C 836.538 1.72893 -0.704616 0
M  V30 8978 C 836.889 1.80095 0.778483 0
M  V30 8979 O 836.014 1.4476 1.60853 0
M  V30 8980 C 836.609 3.14 -1.27237 0
M  V30 8981 C 835.168 3.61949 -1.03294 0
M  V30 8982 C 834.315 2.39816 -1.39225 0
M  V30 8983 H 837.266 1.07688 -1.16572 0
M  V30 8984 H 837.287 3.74886 -0.651212 0
M  V30 8985 H 836.799 3.08727 -2.3518 0
M  V30 8986 H 834.9 3.72588 0.0298329 0
M  V30 8987 H 835.013 4.48051 -1.69668 0
M  V30 8988 H 833.377 2.41448 -0.810849 0
M  V30 8989 H 834.16 2.37203 -2.48172 0
M  V30 8990 N 836.605 0.766683 1.37694 0
M  V30 8991 C 837.535 0.163432 2.32927 0
M  V30 8992 C 838.516 -0.688861 1.55527 0
M  V30 8993 O 839.701 -0.627363 1.83787 0
M  V30 8994 C 836.831 -0.720416 3.39746 0
M  V30 8995 C 835.785 0.0301718 4.27989 0
M  V30 8996 C 835.111 -0.972788 5.25776 0
M  V30 8997 C 836.411 1.20623 5.0818 0
M  V30 8998 H 838.105 0.958988 2.83626 0
M  V30 8999 H 835.651 0.462601 1.36367 0
M  V30 9000 H 837.604 -1.15221 4.05342 0
M  V30 9001 H 836.328 -1.54844 2.8756 0
M  V30 9002 H 834.987 0.442685 3.63917 0
M  V30 9003 H 834.635 -1.79522 4.69873 0
M  V30 9004 H 834.335 -0.475145 5.85676 0
M  V30 9005 H 835.859 -1.40362 5.94248 0
M  V30 9006 H 837.273 0.851341 5.66944 0
M  V30 9007 H 835.67 1.63561 5.7738 0
M  V30 9008 H 836.74 2.01281 4.41151 0
M  V30 9009 N 838.083 -1.48885 0.516809 0
M  V30 9010 C 839.499 -1.58651 0.173788 0
M  V30 9011 C 839.699 -1.52033 -1.32243 0
M  V30 9012 O 838.755 -1.40251 -2.09967 0
M  V30 9013 C 840.068 -2.90816 0.764628 0
M  V30 9014 C 841.616 -3.04316 0.732164 0
M  V30 9015 C 842.091 -4.39123 1.30135 0
M  V30 9016 N 843.582 -4.45656 1.26273 0
M  V30 9017 C 844.317 -5.48446 1.67317 0
M  V30 9018 N 843.813 -6.58258 2.16028 0
M  V30 9019 N 845.606 -5.39251 1.58635 0
M  V30 9020 H 837.757 -1.5143 1.48939 0
M  V30 9021 H 840.02 -0.718243 0.618733 0
M  V30 9022 H 839.726 -3.01275 1.81456 0
M  V30 9023 H 839.6 -3.76473 0.234113 0
M  V30 9024 H 841.987 -2.93478 -0.308975 0
M  V30 9025 H 842.068 -2.20303 1.3 0
M  V30 9026 H 841.712 -4.50714 2.34135 0
M  V30 9027 H 841.642 -5.21801 0.709305 0
M  V30 9028 H 844.133 -3.66879 0.906006 0
M  V30 9029 H 844.446 -7.32811 2.45374 0
M  V30 9030 H 842.791 -6.59257 2.20013 0
M  V30 9031 H 845.982 -4.52354 1.20387 0
M  V30 9032 H 846.155 -6.19229 1.90944 0
M  V30 9033 N 839.561 -0.251338 -1.55583 0
M  V30 9034 C 840.977 0.103409 -1.59265 0
M  V30 9035 C 841.177 1.56559 -1.26852 0
M  V30 9036 O 840.233 2.31071 -1.01796 0
M  V30 9037 C 841.546 -0.249781 -2.99661 0
M  V30 9038 C 843.094 -0.194442 -3.12395 0
M  V30 9039 C 843.569 -0.521728 -4.55019 0
M  V30 9040 N 845.06 -0.472393 -4.60785 0
M  V30 9041 C 845.795 -0.698737 -5.69127 0
M  V30 9042 N 845.291 -0.988443 -6.85713 0
M  V30 9043 N 847.084 -0.629143 -5.58568 0
M  V30 9044 H 839.235 -1.20484 -1.74921 0
M  V30 9045 H 841.498 -0.485092 -0.814488 0
M  V30 9046 H 841.204 -1.26577 -3.28133 0
M  V30 9047 H 841.078 0.420973 -3.74844 0
M  V30 9048 H 843.465 0.812229 -2.83702 0
M  V30 9049 H 843.546 -0.899111 -2.39478 0
M  V30 9050 H 843.19 -1.52597 -4.84434 0
M  V30 9051 H 843.12 0.204468 -5.26203 0
M  V30 9052 H 845.611 -0.257386 -3.77022 0
M  V30 9053 H 845.924 -1.14846 -7.64219 0
M  V30 9054 H 844.269 -1.02596 -6.87386 0
M  V30 9055 H 847.46 -0.402826 -4.66364 0
M  V30 9056 H 847.633 -0.808935 -6.42931 0
M  V30 9057 N 841.039 1.57585 0.0217189 0
M  V30 9058 C 842.267 1.93871 0.722619 0
M  V30 9059 C 842.682 0.851706 1.68498 0
M  V30 9060 O 842.039 -0.17127 1.81695 0
M  V30 9061 C 842.09 3.30114 1.47333 0
M  V30 9062 O 841.811 4.34639 0.549597 0
M  V30 9063 C 843.312 3.80727 2.27072 0
M  V30 9064 H 840.532 0.639671 0.202637 0
M  V30 9065 H 843.076 2.04487 -0.0229414 0
M  V30 9066 H 841.231 3.20872 2.17071 0
M  V30 9067 H 841.645 5.13326 1.07686 0
M  V30 9068 H 843.119 4.78547 2.75131 0
M  V30 9069 H 843.596 3.12301 3.08812 0
M  V30 9070 H 844.202 3.93075 1.62395 0
M  V30 9071 N 842.517 -0.29412 1.54831 0
M  V30 9072 C 843.742 -1.05156 1.78765 0
M  V30 9073 C 844.167 -1.79916 0.548809 0
M  V30 9074 O 843.525 -1.74243 -0.500909 0
M  V30 9075 C 843.573 -2.00242 2.99893 0
M  V30 9076 O 842.677 -3.08662 2.73499 0
M  V30 9077 H 842.018 -0.301737 0.591482 0
M  V30 9078 H 844.548 -0.329449 2.0193 0
M  V30 9079 H 844.558 -2.42583 3.28051 0
M  V30 9080 H 843.233 -1.45235 3.89717 0
M  V30 9081 H 841.81 -2.70786 2.56377 0
M  V30 9082 N 843.995 -1.47404 -0.557645 0
M  V30 9083 C 844.958 -1.59411 -1.64684 0
M  V30 9084 C 845.958 -0.469244 -1.53801 0
M  V30 9085 O 847.148 -0.734298 -1.57967 0
M  V30 9086 C 844.28 -1.5382 -3.04224 0
M  V30 9087 H 845.473 -2.56504 -1.55389 0
M  V30 9088 H 843.026 -1.35588 -0.777531 0
M  V30 9089 H 843.761 -0.581 -3.19053 0
M  V30 9090 H 843.546 -2.35456 -3.13533 0
M  V30 9091 H 845.036 -1.65358 -3.83466 0
M  V30 9092 N 845.473 0.80434 -1.35529 0
M  V30 9093 C 846.405 1.92445 -1.2449 0
M  V30 9094 C 847.418 1.61934 -0.167685 0
M  V30 9095 O 848.607 1.73461 -0.42115 0
M  V30 9096 C 845.707 3.26875 -0.894751 0
M  V30 9097 C 844.88 3.85275 -2.07079 0
M  V30 9098 C 843.939 4.98116 -1.69607 0
M  V30 9099 O 842.965 5.15424 -2.41509 0
M  V30 9100 N 844.167 5.77169 -0.621012 0
M  V30 9101 H 846.932 2.02441 -2.20993 0
M  V30 9102 H 844.493 0.981874 -1.28728 0
M  V30 9103 H 846.485 3.99837 -0.625511 0
M  V30 9104 H 845.055 3.12594 -0.0193306 0
M  V30 9105 H 844.275 3.0448 -2.5037 0
M  V30 9106 H 845.563 4.21024 -2.85685 0
M  V30 9107 H 844.961 5.65695 -0.0236679 0
M  V30 9108 H 843.518 6.50499 -0.411558 0
M  V30 9109 N 846.951 1.19563 1.02676 0
M  V30 9110 C 848.199 0.997593 1.75763 0
M  V30 9111 C 848.52 -0.47253 1.89188 0
M  V30 9112 O 847.79 -1.34214 1.42701 0
M  V30 9113 H 846.37 0.366128 0.651122 0
M  V30 9114 H 849.032 1.50495 1.23844 0
M  V30 9115 H 848.128 1.44741 2.76508 0
M  V30 9116 N 848.429 -1.21819 0.999893 0
M  V30 9117 C 849.361 -2.23356 0.514256 0
M  V30 9118 C 850.374 -1.5795 -0.394413 0
M  V30 9119 O 851.563 -1.77427 -0.195428 0
M  V30 9120 C 848.663 -3.37797 -0.273207 0
M  V30 9121 C 847.836 -4.32791 0.633293 0
M  V30 9122 C 846.895 -5.26098 -0.103673 0
M  V30 9123 O 845.921 -5.66881 0.513269 0
M  V30 9124 N 847.123 -5.63764 -1.38383 0
M  V30 9125 H 849.888 -2.65653 1.3874 0
M  V30 9126 H 847.449 -1.3619 0.875431 0
M  V30 9127 H 849.441 -3.97209 -0.775053 0
M  V30 9128 H 848.011 -2.94527 -1.0475 0
M  V30 9129 H 847.231 -3.71595 1.31571 0
M  V30 9130 H 848.519 -4.93196 1.25039 0
M  V30 9131 H 847.917 -5.32614 -1.90627 0
M  V30 9132 H 846.474 -6.25562 -1.83073 0
M  V30 9133 N 849.908 -0.773975 -1.37286 0
M  V30 9134 C 851.319 -0.404433 -1.82267 0
M  V30 9135 C 851.67 1.06971 -1.64474 0
M  V30 9136 O 850.795 1.82867 -1.15708 0
M  V30 9137 C 851.39 -0.727298 -3.30902 0
M  V30 9138 C 849.949 -0.410784 -3.74152 0
M  V30 9139 C 849.096 -0.969983 -2.59782 0
M  V30 9140 H 852.047 -0.968437 -1.25726 0
M  V30 9141 H 852.068 -0.0127575 -3.80498 0
M  V30 9142 H 851.58 -1.80026 -3.4382 0
M  V30 9143 H 849.681 0.65477 -3.66802 0
M  V30 9144 H 849.794 -0.920592 -4.70172 0
M  V30 9145 H 848.158 -0.394094 -2.51633 0
M  V30 9146 H 848.941 -2.04839 -2.75492 0
M  V30 9147 N 851.386 1.48609 -0.524698 0
M  V30 9148 C 852.611 2.07398 0.00952139 0
M  V30 9149 C 853.036 1.37939 1.27884 0
M  V30 9150 O 852.394 0.443633 1.75788 0
M  V30 9151 C 852.442 3.59916 0.221956 0
M  V30 9152 O 851.546 3.91647 1.29175 0
M  V30 9153 H 850.887 0.662981 -0.0367729 0
M  V30 9154 H 853.417 1.91092 -0.7311 0
M  V30 9155 H 853.427 4.05552 0.446236 0
M  V30 9156 H 852.102 4.09876 -0.705306 0
M  V30 9157 H 850.679 3.57796 1.05055 0
M  V30 9158 N 852.864 0.259585 1.55447 0
M  V30 9159 C 854.275 -0.241165 1.85136 0
M  V30 9160 C 854.626 -1.56634 1.18153 0
M  V30 9161 O 853.751 -2.11359 0.464351 0
M  V30 9162 C 854.346 -0.444355 3.35873 0
M  V30 9163 C 852.905 -0.889354 3.65742 0
M  V30 9164 C 852.052 0.0262474 2.77288 0
M  V30 9165 H 855.003 0.481808 1.51209 0
M  V30 9166 H 855.024 -1.28517 3.58139 0
M  V30 9167 H 854.536 0.520289 3.84597 0
M  V30 9168 H 852.637 -1.86602 3.22507 0
M  V30 9169 H 852.75 -0.737432 4.73391 0
M  V30 9170 H 851.114 -0.487361 2.49994 0
M  V30 9171 H 851.897 0.986494 3.28821 0
M  V30 9172 N 854.342 -1.57594 -0.0133615 0
M  V30 9173 C 855.59 -1.89605 -0.699596 0
M  V30 9174 C 855.911 -0.85926 -1.75048 0
M  V30 9175 O 855.181 0.105112 -1.95618 0
M  V30 9176 H 853.761 -0.699776 -0.261385 0
M  V30 9177 H 856.423 -1.94885 0.0244044 0
M  V30 9178 H 855.519 -2.88962 -1.17928 0
M  V30 9179 N 855.82 0.285905 -1.54985 0
M  V30 9180 C 857.048 1.03776 -1.78992 0
M  V30 9181 C 857.463 1.80402 -0.556814 0
M  V30 9182 O 856.82 1.76242 0.473801 0
M  V30 9183 C 856.871 2.0065 -3.00702 0
M  V30 9184 O 856.592 1.27131 -4.19249 0
M  V30 9185 C 858.093 2.87753 -3.37214 0
M  V30 9186 H 855.313 0.307126 -0.596586 0
M  V30 9187 H 857.857 0.3206 -2.01971 0
M  V30 9188 H 856.012 2.67847 -2.79887 0
M  V30 9189 H 856.426 1.92316 -4.8797 0
M  V30 9190 H 857.9 3.51548 -4.2558 0
M  V30 9191 H 858.377 3.56848 -2.56039 0
M  V30 9192 H 858.983 2.26065 -3.60242 0
M  V30 9193 N 857.298 1.47698 0.54982 0
M  V30 9194 C 858.523 1.58579 1.33669 0
M  V30 9195 C 858.948 0.239049 1.86575 0
M  V30 9196 O 858.306 -0.786256 1.63364 0
M  V30 9197 C 858.354 2.62029 2.47736 0
M  V30 9198 O 857.458 2.17813 3.50188 0
M  V30 9199 H 856.799 0.532447 0.396732 0
M  V30 9200 H 859.329 1.93536 0.6637 0
M  V30 9201 H 859.339 2.82682 2.94202 0
M  V30 9202 H 858.014 3.59812 2.08586 0
M  V30 9203 H 856.591 2.07291 3.09976 0
M  V30 9204 N 858.776 -0.797141 1.35954 0
M  V30 9205 C 859.739 -1.89104 1.29508 0
M  V30 9206 C 860.739 -1.59495 0.204444 0
M  V30 9207 O 861.929 -1.68051 0.458746 0
M  V30 9208 C 859.061 -3.25726 1.00576 0
M  V30 9209 H 860.254 -1.96237 2.26785 0
M  V30 9210 H 857.807 -0.994075 1.20614 0
M  V30 9211 H 858.542 -3.24279 0.0372519 0
M  V30 9212 H 858.327 -3.48604 1.79492 0
M  V30 9213 H 859.817 -4.0578 0.986508 0
M  V30 9214 N 860.254 -1.20106 -1.0204 0
M  V30 9215 C 861.665 -1.00992 -1.57027 0
M  V30 9216 C 862.016 0.434782 -1.91322 0
M  V30 9217 O 861.141 1.31557 -1.71819 0
M  V30 9218 C 861.736 -1.82697 -2.85319 0
M  V30 9219 C 860.295 -1.67959 -3.36848 0
M  V30 9220 C 859.442 -1.80868 -2.10195 0
M  V30 9221 H 862.393 -1.34354 -0.844676 0
M  V30 9222 H 862.414 -1.32809 -3.5657 0
M  V30 9223 H 861.926 -2.87839 -2.60328 0
M  V30 9224 H 860.027 -0.654389 -3.66809 0
M  V30 9225 H 860.14 -2.49006 -4.09308 0
M  V30 9226 H 858.504 -1.24015 -2.22469 0
M  V30 9227 H 859.287 -2.87486 -1.87635 0
M  V30 9228 N 861.732 1.21287 -1.00634 0
M  V30 9229 C 862.98 1.90013 -0.688438 0
M  V30 9230 C 863.301 1.78573 0.783365 0
M  V30 9231 O 862.571 1.1815 1.56261 0
M  V30 9232 H 861.151 0.703336 -0.251648 0
M  V30 9233 H 863.813 1.47346 -1.27574 0
M  V30 9234 H 862.909 2.96879 -0.962781 0
M  V30 9235 N 863.21 0.781244 1.36873 0
M  V30 9236 C 864.16 0.147313 2.27524 0
M  V30 9237 C 865.144 -0.663928 1.46563 0
M  V30 9238 O 866.336 -0.525343 1.69024 0
M  V30 9239 C 863.465 -0.723511 3.35589 0
M  V30 9240 C 862.551 0.0960763 4.23991 0
M  V30 9241 N 862.942 1.14649 4.92635 0
M  V30 9242 C 861.24 -0.126397 4.45821 0
M  V30 9243 C 861.941 1.64474 5.57964 0
M  V30 9244 N 860.917 0.955316 5.3514 0
M  V30 9245 H 864.719 0.951406 2.78075 0
M  V30 9246 H 862.233 0.619913 1.50103 0
M  V30 9247 H 864.23 -1.19351 3.99451 0
M  V30 9248 H 862.89 -1.52624 2.86594 0
M  V30 9249 H 863.901 1.5288 4.94821 0
M  V30 9250 H 860.578 -0.900284 4.07678 0
M  V30 9251 H 861.968 2.52124 6.22803 0
M  V30 9252 N 864.689 -1.48329 0.532571 0
M  V30 9253 C 865.652 -2.2816 -0.218069 0
M  V30 9254 C 866.652 -1.35526 -0.865409 0
M  V30 9255 O 867.842 -1.58394 -0.725061 0
M  V30 9256 C 864.974 -3.1448 -1.31586 0
M  V30 9257 H 866.167 -2.95987 0.482865 0
M  V30 9258 H 863.72 -1.53612 0.288603 0
M  V30 9259 H 864.455 -2.5129 -2.04997 0
M  V30 9260 H 864.24 -3.82625 -0.856779 0
M  V30 9261 H 865.73 -3.74693 -1.84377 0
M  V30 9262 N 866.167 -0.267825 -1.55308 0
M  V30 9263 C 867.097 0.616585 -2.25212 0
M  V30 9264 C 868.078 1.16472 -1.23969 0
M  V30 9265 O 869.263 1.20021 -1.52672 0
M  V30 9266 C 866.393 1.80412 -2.96764 0
M  V30 9267 C 865.347 1.38784 -4.04874 0
M  V30 9268 C 864.673 2.65789 -4.63961 0
M  V30 9269 C 865.973 0.543415 -5.19465 0
M  V30 9270 H 867.667 0.0336257 -2.99381 0
M  V30 9271 H 865.213 0.0147328 -1.43992 0
M  V30 9272 H 867.166 2.42866 -3.44375 0
M  V30 9273 H 865.89 2.4128 -2.20118 0
M  V30 9274 H 864.549 0.786541 -3.58063 0
M  V30 9275 H 864.197 3.24899 -3.83992 0
M  V30 9276 H 863.897 2.38651 -5.36954 0
M  V30 9277 H 865.421 3.29104 -5.14318 0
M  V30 9278 H 866.835 1.07277 -5.63174 0
M  V30 9279 H 865.232 0.367219 -5.98975 0
M  V30 9280 H 866.302 -0.439534 -4.82904 0
M  V30 9281 N 867.645 1.57599 0.00500368 0
M  V30 9282 C 868.595 2.04585 1.00643 0
M  V30 9283 C 869.579 0.939622 1.30614 0
M  V30 9284 O 870.771 1.20342 1.29796 0
M  V30 9285 C 867.9 2.5486 2.30002 0
M  V30 9286 C 866.986 3.7235 2.03017 0
M  V30 9287 N 867.377 4.84218 1.46173 0
M  V30 9288 C 865.675 3.80185 2.33185 0
M  V30 9289 C 866.376 5.65688 1.35544 0
M  V30 9290 N 865.352 5.11536 1.83933 0
M  V30 9291 H 869.154 2.8849 0.561332 0
M  V30 9292 H 866.668 1.61026 0.210808 0
M  V30 9293 H 868.665 2.86794 3.0258 0
M  V30 9294 H 867.325 1.72372 2.75169 0
M  V30 9295 H 868.336 5.0517 1.1412 0
M  V30 9296 H 865.013 3.08543 2.81261 0
M  V30 9297 H 866.403 6.65588 0.918791 0
M  V30 9298 N 869.123 -0.277682 1.55134 0
M  V30 9299 C 870.371 -1.00791 1.75173 0
M  V30 9300 C 870.692 -1.86987 0.553266 0
M  V30 9301 O 869.962 -1.91079 -0.43195 0
M  V30 9302 H 868.542 -0.375129 0.645978 0
M  V30 9303 H 871.204 -0.303041 1.9253 0
M  V30 9304 H 870.3 -1.64756 2.6507 0
M  V30 9305 N 870.601 -1.47988 -0.541979 0
M  V30 9306 C 871.548 -1.61615 -1.6477 0
M  V30 9307 C 872.518 -0.458602 -1.59644 0
M  V30 9308 O 873.703 -0.680585 -1.78249 0
M  V30 9309 C 870.843 -1.65066 -3.03063 0
M  V30 9310 C 869.956 -2.91845 -3.18513 0
M  V30 9311 C 869.091 -2.86534 -4.47294 0
M  V30 9312 C 868.13 -4.0807 -4.5623 0
M  V30 9313 N 867.267 -4.00905 -5.76385 0
M  V30 9314 H 872.107 -2.56046 -1.52461 0
M  V30 9315 H 869.644 -1.26989 -0.742449 0
M  V30 9316 H 871.602 -1.65049 -3.83164 0
M  V30 9317 H 870.232 -0.74136 -3.14171 0
M  V30 9318 H 869.284 -3.01661 -2.31743 0
M  V30 9319 H 870.596 -3.81804 -3.20978 0
M  V30 9320 H 869.75 -2.84851 -5.35672 0
M  V30 9321 H 868.489 -1.94283 -4.47332 0
M  V30 9322 H 867.494 -4.10041 -3.66261 0
M  V30 9323 H 868.719 -5.01465 -4.5794 0
M  V30 9324 H 866.665 -3.11467 -5.77342 0
M  V30 9325 H 866.582 -4.84557 -5.80293 0
M  V30 9326 H 867.85 -4.03263 -6.67083 0
M  V30 9327 N 872.079 0.78992 -1.36375 0
M  V30 9328 C 873.026 1.90254 -1.3066 0
M  V30 9329 C 873.996 1.65171 -0.17539 0
M  V30 9330 O 875.181 1.87338 -0.361824 0
M  V30 9331 C 872.321 3.27057 -1.10125 0
M  V30 9332 C 871.434 3.64215 -2.32317 0
M  V30 9333 C 870.569 4.90134 -2.04798 0
M  V30 9334 C 869.608 5.19969 -3.22953 0
M  V30 9335 N 868.745 6.37071 -2.95102 0
M  V30 9336 H 873.585 1.94474 -2.25796 0
M  V30 9337 H 871.122 0.951022 -1.12223 0
M  V30 9338 H 873.08 4.05947 -0.962453 0
M  V30 9339 H 871.71 3.22261 -0.186444 0
M  V30 9340 H 870.762 2.80454 -2.57002 0
M  V30 9341 H 872.074 3.82212 -3.20492 0
M  V30 9342 H 871.228 5.76888 -1.87845 0
M  V30 9343 H 869.967 4.74205 -1.13932 0
M  V30 9344 H 868.972 4.31699 -3.40465 0
M  V30 9345 H 870.197 5.37817 -4.14644 0
M  V30 9346 H 868.143 6.22535 -2.06848 0
M  V30 9347 H 868.06 6.55398 -3.76815 0
M  V30 9348 H 869.328 7.26808 -2.81727 0
M  V30 9349 N 873.557 1.20646 1.01402 0
M  V30 9350 C 874.505 0.954493 2.12114 0
M  V30 9351 C 875.499 -0.0950737 1.69133 0
M  V30 9352 O 876.705 0.0555153 1.79914 0
M  V30 9353 H 873.08 0.29135 0.693267 0
M  V30 9354 H 875.051 1.89447 2.30548 0
M  V30 9355 C 873.8 0.525944 3.43699 0
M  V30 9356 H 873.123 1.32516 3.772 0
M  V30 9357 H 874.563 0.388883 4.22213 0
M  V30 9358 C 873.022 -0.761997 3.28169 0
M  V30 9359 O 873.552 -1.81979 3.58115 0
M  V30 9360 N 871.758 -0.725017 2.8141 0
M  V30 9361 H 871.305 0.13607 2.5724 0
M  V30 9362 H 871.263 -1.5871 2.71401 0
M  V30 9363 N 875.035 -1.20752 1.01276 0
M  V30 9364 C 876.26 -1.94547 0.718769 0
M  V30 9365 C 876.685 -1.7404 -0.713563 0
M  V30 9366 O 876.043 -1.03221 -1.49047 0
M  V30 9367 C 876.091 -3.44823 1.05497 0
M  V30 9368 O 875.195 -4.12072 0.164516 0
M  V30 9369 H 874.536 -0.607931 0.267051 0
M  V30 9370 H 877.066 -1.53292 1.35509 0
M  V30 9371 H 877.076 -3.95427 1.00507 0
M  V30 9372 H 875.751 -3.59072 2.09858 0
M  V30 9373 H 874.328 -3.71909 0.271615 0
M  V30 9374 N 876.513 -0.788492 -1.36457 0
M  V30 9375 C 877.741 -0.372365 -2.03522 0
M  V30 9376 C 878.156 1.01093 -1.59454 0
M  V30 9377 O 877.513 1.64824 -0.783535 0
M  V30 9378 C 877.564 -0.425435 -3.58988 0
M  V30 9379 O 877.285 -1.75418 -4.01448 0
M  V30 9380 C 878.786 0.000180167 -4.433 0
M  V30 9381 H 876.006 -0.1536 -0.653183 0
M  V30 9382 H 878.55 -1.06708 -1.74452 0
M  V30 9383 H 876.705 0.220856 -3.8677 0
M  V30 9384 H 877.119 -1.70437 -4.96036 0
M  V30 9385 H 878.593 -0.0880919 -5.5193 0
M  V30 9386 H 879.07 1.05269 -4.26398 0
M  V30 9387 H 879.676 -0.618563 -4.20778 0
M  V30 9388 N 877.991 1.48044 -0.54043 0
M  V30 9389 C 879.237 2.02797 -0.0101718 0
M  V30 9390 C 879.57 1.41565 1.32939 0
M  V30 9391 O 878.845 0.565139 1.86109 0
M  V30 9392 C 879.128 3.59959 0.100758 0
M  V30 9393 C 878.981 4.31654 -1.26471 0
M  V30 9394 C 880.3 4.32347 0.822455 0
M  V30 9395 H 877.419 0.736982 -0.00517052 0
M  V30 9396 H 880.061 1.76656 -0.69948 0
M  V30 9397 H 878.211 3.82363 0.687824 0
M  V30 9398 H 879.883 4.20639 -1.89369 0
M  V30 9399 H 878.126 3.92663 -1.84386 0
M  V30 9400 H 878.797 5.401 -1.13998 0
M  V30 9401 H 881.273 4.14835 0.324164 0
M  V30 9402 H 880.149 5.41978 0.868993 0
M  V30 9403 H 880.41 4.00369 1.87501 0
M  V30 9404 N 879.47 0.276058 1.55163 0
M  V30 9405 C 880.747 -0.392292 1.91626 0
M  V30 9406 C 881.127 -1.73646 1.20043 0
M  V30 9407 O 880.475 -2.26139 0.327606 0
M  V30 9408 C 880.685 -0.531641 3.44927 0
M  V30 9409 C 882.033 -0.8141 4.16722 0
M  V30 9410 O 883.057 -0.616413 3.50826 0
M  V30 9411 O 881.916 -1.19224 5.33337 0
M  V30 9412 H 879.01 -0.214945 0.798579 0
M  V30 9413 H 881.556 0.32228 1.66612 0
M  V30 9414 H 880.328 0.414282 3.89101 0
M  V30 9415 H 879.951 -1.29564 3.75897 0
M  V30 9416 N 880.948 -1.576 0.00335426 0
M  V30 9417 C 882.188 -1.92571 -0.685253 0
M  V30 9418 C 882.552 -0.877961 -1.70751 0
M  V30 9419 O 883.753 -1.11303 -2.44673 0
M  V30 9420 C 882.024 -3.3258 -1.30863 0
M  V30 9421 S 883.583 -3.89442 -2.02189 0
M  V30 9422 H 880.401 -0.674035 -0.226268 0
M  V30 9423 H 883.003 -1.95405 0.0608461 0
M  V30 9424 H 881.707 -4.06673 -0.551837 0
M  V30 9425 H 881.238 -3.33128 -2.09259 0
M  V30 9426 H 883.253 -3.70789 -3.29742 0
M  V30 9427 N 882.426 0.269451 -1.5528 0
M  V30 9428 C 883.374 1.35303 -1.89198 0
M  V30 9429 C 884.368 1.50956 -0.768671 0
M  V30 9430 O 885.574 1.52699 -0.953054 0
M  V30 9431 H 881.949 0.452591 -0.600554 0
M  V30 9432 H 883.92 1.03949 -2.79709 0
M  V30 9433 C 882.669 2.70585 -2.18356 0
M  V30 9434 H 881.992 2.59332 -3.04281 0
M  V30 9435 H 883.432 3.45335 -2.46007 0
M  V30 9436 C 881.891 3.21954 -0.992327 0
M  V30 9437 O 882.421 4.01048 -0.228769 0
M  V30 9438 N 880.627 2.79682 -0.789062 0
M  V30 9439 H 880.174 2.15475 -1.41167 0
M  V30 9440 H 880.132 3.14399 0.00634776 0
M  V30 9441 N 883.904 1.48273 0.534124 0
M  V30 9442 C 885.152 1.55771 1.28762 0
M  V30 9443 C 885.473 0.231575 1.9362 0
M  V30 9444 O 884.743 -0.746533 1.81118 0
M  V30 9445 H 883.323 0.573851 0.47823 0
M  V30 9446 H 885.985 1.84712 0.621888 0
M  V30 9447 H 885.081 2.33657 2.06908 0
M  V30 9448 N 885.382 -0.782676 1.36792 0
M  V30 9449 C 886.628 -1.54311 1.3159 0
M  V30 9450 C 886.961 -1.93928 -0.102696 0
M  V30 9451 O 886.236 -1.63233 -1.05761 0
M  V30 9452 C 886.519 -2.81561 2.24489 0
M  V30 9453 C 886.372 -2.48268 3.75078 0
M  V30 9454 C 887.691 -3.83428 2.16034 0
M  V30 9455 H 884.81 -0.559828 0.479335 0
M  V30 9456 H 887.452 -0.898717 1.67401 0
M  V30 9457 H 885.602 -3.36549 1.9408 0
M  V30 9458 H 887.274 -1.99279 4.16036 0
M  V30 9459 H 885.517 -1.81116 3.94182 0
M  V30 9460 H 886.188 -3.39183 4.35499 0
M  V30 9461 H 888.664 -3.37905 2.42815 0
M  V30 9462 H 887.54 -4.70204 2.83194 0
M  V30 9463 H 887.801 -4.26887 1.14976 0
M  V30 9464 N 886.86 -1.21182 -1.00761 0
M  V30 9465 C 888.106 -1.02898 -1.74756 0
M  V30 9466 C 888.439 0.436774 -1.89225 0
M  V30 9467 O 887.714 1.32415 -1.42466 0
M  V30 9468 C 887.997 -1.72372 -3.16164 0
M  V30 9469 C 887.85 -3.2645 -3.09435 0
M  V30 9470 C 889.169 -1.46415 -4.15031 0
M  V30 9471 H 886.288 -0.375214 -0.634337 0
M  V30 9472 H 888.93 -1.49321 -1.17487 0
M  V30 9473 H 887.08 -1.32906 -3.65059 0
M  V30 9474 H 888.752 -3.75269 -2.68274 0
M  V30 9475 H 886.995 -3.56889 -2.46603 0
M  V30 9476 H 887.666 -3.70226 -4.09435 0
M  V30 9477 H 890.142 -1.80671 -3.7483 0
M  V30 9478 H 889.018 -1.97544 -5.12121 0
M  V30 9479 H 889.279 -0.39361 -4.40344 0
M  V30 9480 N 888.338 1.20213 -1.01915 0
M  V30 9481 C 889.563 1.94163 -0.729076 0
M  V30 9482 C 889.988 1.74416 0.704323 0
M  V30 9483 O 889.346 1.0401 1.48498 0
M  V30 9484 C 889.394 3.44258 -1.07324 0
M  V30 9485 O 888.498 4.11979 -0.186367 0
M  V30 9486 H 887.839 0.606506 -0.270272 0
M  V30 9487 H 890.369 1.52571 -1.3632 0
M  V30 9488 H 890.379 3.94888 -1.02603 0
M  V30 9489 H 889.054 3.57954 -2.11759 0
M  V30 9490 H 887.631 3.7176 -0.291334 0
M  V30 9491 N 889.816 0.795718 1.36037 0
M  V30 9492 C 890.746 0.212803 2.32528 0
M  V30 9493 C 891.727 -0.655716 1.56953 0
M  V30 9494 O 892.912 -0.588238 1.85077 0
M  V30 9495 C 890.042 -0.648189 3.41198 0
M  V30 9496 C 888.996 0.120948 4.27829 0
M  V30 9497 C 888.322 -0.861044 5.27722 0
M  V30 9498 C 889.622 1.31375 5.05508 0
M  V30 9499 H 891.316 1.01893 2.81528 0
M  V30 9500 H 888.862 0.491422 1.35355 0
M  V30 9501 H 890.815 -1.06597 4.07695 0
M  V30 9502 H 889.539 -1.48709 2.9078 0
M  V30 9503 H 888.198 0.519777 3.62897 0
M  V30 9504 H 887.846 -1.69515 4.73575 0
M  V30 9505 H 887.546 -0.350808 5.86552 0
M  V30 9506 H 889.07 -1.27726 5.97092 0
M  V30 9507 H 890.484 0.971406 5.6501 0
M  V30 9508 H 888.881 1.75772 5.73781 0
M  V30 9509 H 889.951 2.10593 4.36782 0
M  V30 9510 N 891.294 -1.47756 0.548274 0
M  V30 9511 C 892.224 -2.32702 -0.19284 0
M  V30 9512 C 893.205 -1.43237 -0.917457 0
M  V30 9513 O 894.39 -1.72103 -0.89967 0
M  V30 9514 C 891.52 -3.24831 -1.22891 0
M  V30 9515 C 890.474 -4.23466 -0.621312 0
M  V30 9516 C 889.8 -5.04856 -1.76137 0
M  V30 9517 C 891.1 -5.20616 0.419055 0
M  V30 9518 H 892.794 -2.94914 0.516323 0
M  V30 9519 H 890.34 -1.41818 0.24975 0
M  V30 9520 H 892.293 -3.83094 -1.75547 0
M  V30 9521 H 891.017 -2.60656 -1.9679 0
M  V30 9522 H 889.676 -3.66416 -0.116123 0
M  V30 9523 H 889.324 -4.37091 -2.48918 0
M  V30 9524 H 889.024 -5.71629 -1.36065 0
M  V30 9525 H 890.548 -5.65976 -2.29136 0
M  V30 9526 H 891.962 -5.73296 -0.0211034 0
M  V30 9527 H 890.359 -5.95543 0.738163 0
M  V30 9528 H 891.429 -4.66638 1.31822 0
M  V30 9529 N 892.772 -0.284283 -1.55015 0
M  V30 9530 C 894.02 0.329212 -1.99401 0
M  V30 9531 C 894.341 1.55687 -1.17416 0
M  V30 9532 O 893.611 1.94087 -0.265937 0
M  V30 9533 H 892.191 0.12463 -0.73653 0
M  V30 9534 H 894.853 -0.391743 -1.90922 0
M  V30 9535 H 893.949 0.61278 -3.06025 0
M  V30 9536 N 894.251 1.57596 -0.0117121 0
M  V30 9537 C 895.214 2.08089 0.960816 0
M  V30 9538 C 896.214 0.992519 1.26514 0
M  V30 9539 O 897.404 1.25475 1.20837 0
M  V30 9540 C 894.536 2.53217 2.28241 0
M  V30 9541 H 895.729 2.9529 0.523829 0
M  V30 9542 H 893.282 1.54508 0.235995 0
M  V30 9543 H 894.017 1.69294 2.76604 0
M  V30 9544 H 893.802 3.32714 2.0747 0
M  V30 9545 H 895.292 2.92568 2.97983 0
M  V30 9546 N 895.729 -0.261212 1.5542 0
M  V30 9547 C 896.977 -0.989272 1.76232 0
M  V30 9548 C 897.298 -1.86389 0.573067 0
M  V30 9549 O 896.568 -1.91526 -0.41166 0
M  V30 9550 H 895.148 -0.368256 0.64992 0
M  V30 9551 H 897.81 -0.282603 1.9284 0
M  V30 9552 H 896.906 -1.61935 2.66802 0
M  V30 9553 N 897.207 -1.48554 -0.526253 0
M  V30 9554 C 898.484 -1.47252 -1.28748 0
M  V30 9555 C 898.864 -0.186245 -2.10277 0
M  V30 9556 O 898.212 0.831954 -2.12816 0
M  V30 9557 C 898.422 -2.73672 -2.16575 0
M  V30 9558 C 899.77 -3.22151 -2.76593 0
M  V30 9559 O 900.794 -2.74614 -2.2686 0
M  V30 9560 O 899.653 -4.04877 -3.67066 0
M  V30 9561 H 896.747 -0.588242 -0.581292 0
M  V30 9562 H 899.293 -1.60792 -0.5426 0
M  V30 9563 H 898.065 -3.58798 -1.56139 0
M  V30 9564 H 897.688 -2.6287 -2.98304 0
M  V30 9565 N 898.685 0.775411 -1.37205 0
M  V30 9566 C 900.096 1.35147 -1.28811 0
M  V30 9567 C 900.447 1.96089 0.0659168 0
M  V30 9568 O 899.572 1.93558 0.967684 0
M  V30 9569 C 900.167 2.45715 -2.33258 0
M  V30 9570 C 898.726 2.99099 -2.2851 0
M  V30 9571 C 897.873 1.72286 -2.17285 0
M  V30 9572 H 900.824 0.575954 -1.4788 0
M  V30 9573 H 900.845 3.251 -1.97712 0
M  V30 9574 H 900.357 2.01331 -3.31795 0
M  V30 9575 H 898.458 3.47868 -1.33485 0
M  V30 9576 H 898.571 3.54962 -3.21774 0
M  V30 9577 H 896.935 1.95068 -1.6377 0
M  V30 9578 H 897.718 1.3001 -3.1773 0
M  V30 9579 N 900.163 1.21714 1.00117 0
M  V30 9580 C 901.073 0.99597 2.12409 0
M  V30 9581 C 902.089 -0.0531431 1.73919 0
M  V30 9582 O 903.265 0.137757 2.00928 0
M  V30 9583 C 900.33 0.567593 3.42022 0
M  V30 9584 C 899.391 1.68936 3.94663 0
M  V30 9585 C 898.624 1.28133 5.1809 0
M  V30 9586 O 898.847 0.156574 5.70185 0
M  V30 9587 O 897.781 2.0947 5.64275 0
M  V30 9588 H 901.607 1.93657 2.33946 0
M  V30 9589 H 899.192 1.00236 1.10784 0
M  V30 9590 H 901.074 0.338664 4.20037 0
M  V30 9591 H 899.749 -0.34424 3.21864 0
M  V30 9592 H 898.656 1.97274 3.17858 0
M  V30 9593 H 899.989 2.57876 4.19238 0
M  V30 9594 N 901.641 -1.19671 1.02551 0
M  V30 9595 C 902.604 -2.20987 0.608055 0
M  V30 9596 C 903.604 -1.5745 -0.326534 0
M  V30 9597 O 904.794 -1.73827 -0.114003 0
M  V30 9598 C 901.926 -3.4072 -0.11074 0
M  V30 9599 H 903.119 -2.59434 1.50446 0
M  V30 9600 H 900.672 -1.3329 0.816307 0
M  V30 9601 H 901.407 -3.07787 -1.02165 0
M  V30 9602 H 901.192 -3.88069 0.560772 0
M  V30 9603 H 902.682 -4.15776 -0.389848 0
M  V30 9604 N 903.119 -0.802921 -1.35613 0
M  V30 9605 C 904.347 -0.39393 -2.03115 0
M  V30 9606 C 904.762 0.993961 -1.60517 0
M  V30 9607 O 904.119 1.63984 -0.800973 0
M  V30 9608 C 904.17 -0.463486 -3.58516 0
M  V30 9609 O 903.891 -1.79666 -3.99565 0
M  V30 9610 C 905.392 -0.0468377 -4.43275 0
M  V30 9611 H 902.612 -0.160519 -0.651517 0
M  V30 9612 H 905.156 -1.08552 -1.73311 0
M  V30 9613 H 903.311 0.179821 -3.86982 0
M  V30 9614 H 903.725 -1.75688 -4.942 0
M  V30 9615 H 905.199 -0.146626 -5.51805 0
M  V30 9616 H 905.676 1.00741 -4.2749 0
M  V30 9617 H 906.282 -0.663158 -4.20098 0
M  V30 9618 N 904.597 1.47463 -0.556102 0
M  V30 9619 C 905.822 2.07371 -0.0344729 0
M  V30 9620 C 906.247 1.40621 1.2493 0
M  V30 9621 O 905.605 0.48082 1.74808 0
M  V30 9622 C 905.653 3.60306 0.145563 0
M  V30 9623 O 904.757 3.94299 1.20839 0
M  V30 9624 H 904.098 0.662052 -0.0508274 0
M  V30 9625 H 906.628 1.89498 -0.771469 0
M  V30 9626 H 906.638 4.06408 0.360112 0
M  V30 9627 H 905.313 4.08288 -0.792089 0
M  V30 9628 H 903.89 3.59944 0.97442 0
M  V30 9629 N 906.075 0.2925 1.54862 0
M  V30 9630 C 907.486 -0.201841 1.85606 0
M  V30 9631 C 907.837 -1.54093 1.21449 0
M  V30 9632 O 906.962 -2.10327 0.509079 0
M  V30 9633 C 907.557 -0.373011 3.3674 0
M  V30 9634 C 906.116 -0.811574 3.67547 0
M  V30 9635 C 905.263 0.0850583 2.7717 0
M  V30 9636 H 908.214 0.513774 1.50153 0
M  V30 9637 H 908.235 -1.20892 3.60785 0
M  V30 9638 H 907.747 0.601751 3.83407 0
M  V30 9639 H 905.848 -1.79719 3.26392 0
M  V30 9640 H 905.961 -0.636853 4.74848 0
M  V30 9641 H 904.325 -0.434224 2.50971 0
M  V30 9642 H 905.108 1.05602 3.26654 0
M  V30 9643 N 907.553 -1.57587 0.0200696 0
M  V30 9644 C 908.801 -1.91046 -0.65922 0
M  V30 9645 C 909.122 -0.896197 -1.73186 0
M  V30 9646 O 908.392 0.0635952 -1.95797 0
M  V30 9647 H 906.972 -0.705163 -0.246483 0
M  V30 9648 H 909.634 -1.94789 0.0657368 0
M  V30 9649 H 908.73 -2.91399 -1.11773 0
M  V30 9650 N 909.032 0.252966 -1.55557 0
M  V30 9651 C 910.257 1.0038 -1.8149 0
M  V30 9652 C 910.682 1.78397 -0.596318 0
M  V30 9653 O 910.04 1.7551 0.454535 0
M  V30 9654 C 910.088 1.9222 -3.05096 0
M  V30 9655 O 909.192 3.01302 -2.81587 0
M  V30 9656 H 908.533 0.285949 -0.599274 0
M  V30 9657 H 911.063 0.275795 -2.02733 0
M  V30 9658 H 911.073 2.338 -3.34368 0
M  V30 9659 H 909.748 1.34852 -3.93431 0
M  V30 9660 H 908.325 2.63894 -2.63466 0
M  V30 9661 N 910.51 1.48831 0.518367 0
M  V30 9662 C 911.46 1.60614 1.61824 0
M  V30 9663 C 912.444 0.462631 1.54106 0
M  V30 9664 O 913.636 0.714689 1.6193 0
M  V30 9665 C 910.765 1.65984 3.00507 0
M  V30 9666 C 909.851 2.85854 3.13286 0
M  V30 9667 N 910.242 4.1014 2.96005 0
M  V30 9668 C 908.54 2.83429 3.4436 0
M  V30 9669 C 909.241 4.90626 3.12508 0
M  V30 9670 N 908.217 4.2366 3.40607 0
M  V30 9671 H 912.019 2.54443 1.47091 0
M  V30 9672 H 909.533 1.45363 0.724102 0
M  V30 9673 H 911.53 1.72521 3.79529 0
M  V30 9674 H 910.19 0.732792 3.16323 0
M  V30 9675 H 911.201 4.40395 2.72531 0
M  V30 9676 H 907.878 2.0003 3.66462 0
M  V30 9677 H 909.268 5.99302 3.03786 0
M  V30 9678 N 911.988 -0.768124 1.37614 0
M  V30 9679 C 912.918 -1.89537 1.36374 0
M  V30 9680 C 913.899 -1.68513 0.231803 0
M  V30 9681 O 915.084 -1.89318 0.432705 0
M  V30 9682 C 912.214 -3.26871 1.17358 0
M  V30 9683 C 911.168 -3.62466 2.27602 0
M  V30 9684 C 910.494 -4.9838 1.93705 0
M  V30 9685 C 911.794 -3.68841 3.69802 0
M  V30 9686 H 913.488 -1.90832 2.30702 0
M  V30 9687 H 911.034 -0.91672 1.11051 0
M  V30 9688 H 912.987 -4.05371 1.15119 0
M  V30 9689 H 911.711 -3.26018 0.194865 0
M  V30 9690 H 910.37 -2.86276 2.29002 0
M  V30 9691 H 910.018 -4.94071 0.943539 0
M  V30 9692 H 909.718 -5.23165 2.6753 0
M  V30 9693 H 911.242 -5.79276 1.93059 0
M  V30 9694 H 912.656 -4.37485 3.70513 0
M  V30 9695 H 911.053 -4.05126 4.42711 0
M  V30 9696 H 912.123 -2.69415 4.03167 0
M  V30 9697 N 913.466 -1.22244 -0.994698 0
M  V30 9698 C 914.396 -1.01513 -2.10279 0
M  V30 9699 C 915.377 0.0633365 -1.69982 0
M  V30 9700 O 916.562 -0.0985268 -1.9395 0
M  V30 9701 C 913.692 -0.59016 -3.42249 0
M  V30 9702 C 912.646 -1.61436 -3.96387 0
M  V30 9703 C 911.972 -1.04528 -5.24383 0
M  V30 9704 C 913.272 -3.00388 -4.27276 0
M  V30 9705 H 914.966 -1.94194 -2.2788 0
M  V30 9706 H 912.512 -0.935094 -1.09508 0
M  V30 9707 H 914.465 -0.432254 -4.19177 0
M  V30 9708 H 913.189 0.372308 -3.24471 0
M  V30 9709 H 911.848 -1.76001 -3.21589 0
M  V30 9710 H 911.496 -0.0742225 -5.02945 0
M  V30 9711 H 911.196 -1.72949 -5.61571 0
M  V30 9712 H 912.72 -0.898922 -6.03947 0
M  V30 9713 H 914.134 -2.89207 -4.95007 0
M  V30 9714 H 912.531 -3.65916 -4.75631 0
M  V30 9715 H 913.601 -3.50456 -3.35125 0
M  V30 9716 N 914.944 1.19125 -1.03184 0
M  V30 9717 C 916.36 1.40909 -0.749447 0
M  V30 9718 C 916.56 1.9022 0.664729 0
M  V30 9719 O 915.616 2.08085 1.43028 0
M  V30 9720 C 916.929 2.41761 -1.78807 0
M  V30 9721 C 918.477 2.55503 -1.80796 0
M  V30 9722 C 918.952 3.59612 -2.83626 0
M  V30 9723 N 920.443 3.6711 -2.82461 0
M  V30 9724 C 921.178 4.47366 -3.5868 0
M  V30 9725 N 920.674 5.31302 -4.44623 0
M  V30 9726 N 922.467 4.42044 -3.47208 0
M  V30 9727 H 914.618 0.854399 -1.94458 0
M  V30 9728 H 916.881 0.437753 -0.840878 0
M  V30 9729 H 916.587 2.12559 -2.80199 0
M  V30 9730 H 916.461 3.40981 -1.61283 0
M  V30 9731 H 918.848 2.84027 -0.800803 0
M  V30 9732 H 918.929 1.56427 -2.02396 0
M  V30 9733 H 918.573 3.3183 -3.84515 0
M  V30 9734 H 918.503 4.58345 -2.59283 0
M  V30 9735 H 920.994 3.07166 -2.2013 0
M  V30 9736 H 921.307 5.89667 -4.99512 0
M  V30 9737 H 919.652 5.30753 -4.48694 0
M  V30 9738 H 922.843 3.75513 -2.79477 0
M  V30 9739 H 923.016 5.0435 -4.06859 0
M  V30 9740 N 916.422 0.810101 1.35185 0
M  V30 9741 C 917.833 0.452616 1.81131 0
M  V30 9742 C 918.184 -1.02573 1.67252 0
M  V30 9743 O 917.309 -1.79735 1.20516 0
M  V30 9744 C 917.904 0.814775 3.28857 0
M  V30 9745 C 916.463 0.509839 3.72931 0
M  V30 9746 C 915.61 1.03852 2.57119 0
M  V30 9747 H 918.561 1.00143 1.23114 0
M  V30 9748 H 918.582 0.113635 3.8033 0
M  V30 9749 H 918.094 1.89078 3.38926 0
M  V30 9750 H 916.195 -0.557289 3.68409 0
M  V30 9751 H 916.308 1.04493 4.67566 0
M  V30 9752 H 914.672 0.460671 2.50499 0
M  V30 9753 H 915.455 2.12071 2.69964 0
M  V30 9754 N 917.9 -1.47166 0.563914 0
M  V30 9755 C 919.146 -2.02756 0.0424338 0
M  V30 9756 C 919.479 -1.43662 -1.3067 0
M  V30 9757 O 918.754 -0.594676 -1.85186 0
M  V30 9758 C 919.037 -3.60074 -0.0434793 0
M  V30 9759 C 918.89 -4.29587 1.33323 0
M  V30 9760 C 920.209 -4.336 -0.753568 0
M  V30 9761 H 917.328 -0.736806 0.0168946 0
M  V30 9762 H 919.97 -1.75521 0.727496 0
M  V30 9763 H 918.12 -3.83409 -0.626906 0
M  V30 9764 H 919.792 -4.17573 1.96037 0
M  V30 9765 H 918.035 -3.8968 1.9061 0
M  V30 9766 H 918.706 -5.38218 1.22576 0
M  V30 9767 H 921.182 -4.15299 -0.258126 0
M  V30 9768 H 920.058 -5.43291 -0.782659 0
M  V30 9769 H 920.319 -4.03302 -1.81108 0
M  V30 9770 N 919.378 -0.300708 -1.54705 0
M  V30 9771 C 920.311 0.617513 -2.19686 0
M  V30 9772 C 921.289 1.1331 -1.16617 0
M  V30 9773 O 922.473 1.20135 -1.45258 0
M  V30 9774 C 919.6 1.84486 -2.84047 0
M  V30 9775 C 918.646 1.46253 -4.0064 0
M  V30 9776 S 919.479 0.518718 -5.32982 0
M  V30 9777 C 920.635 1.75387 -6.00825 0
M  V30 9778 H 920.868 0.0654548 -2.97228 0
M  V30 9779 H 918.401 -0.0848492 -1.54167 0
M  V30 9780 H 920.359 2.54921 -3.21754 0
M  V30 9781 H 919.02 2.36808 -2.06351 0
M  V30 9782 H 918.213 2.37648 -4.44454 0
M  V30 9783 H 917.815 0.838129 -3.64488 0
M  V30 9784 H 920.107 2.69448 -6.21614 0
M  V30 9785 H 921.05 1.35829 -6.9495 0
M  V30 9786 H 921.458 1.93045 -5.30466 0
M  V30 9787 N 920.856 1.57574 -0.0284266 0
M  V30 9788 C 921.786 2.1321 0.952039 0
M  V30 9789 C 922.767 1.04806 1.33977 0
M  V30 9790 O 923.952 1.32635 1.41851 0
M  V30 9791 C 921.082 2.65862 2.23461 0
M  V30 9792 C 920.036 3.79047 1.98765 0
M  V30 9793 C 919.362 4.18124 3.33281 0
M  V30 9794 C 920.662 5.05151 1.32739 0
M  V30 9795 H 922.356 2.95385 0.488705 0
M  V30 9796 H 919.902 1.42092 0.233628 0
M  V30 9797 H 921.855 3.03417 2.92431 0
M  V30 9798 H 920.579 1.80848 2.71959 0
M  V30 9799 H 919.238 3.41929 1.32213 0
M  V30 9800 H 918.886 3.30092 3.79537 0
M  V30 9801 H 918.586 4.94396 3.17563 0
M  V30 9802 H 920.11 4.58262 4.0352 0
M  V30 9803 H 921.524 5.40297 1.91708 0
M  V30 9804 H 919.921 5.86416 1.27421 0
M  V30 9805 H 920.991 4.83969 0.300261 0
M  V30 9806 N 922.334 -0.244713 1.55689 0
M  V30 9807 C 923.244 -1.32447 1.93636 0
M  V30 9808 C 924.26 -1.52541 0.837086 0
M  V30 9809 O 925.436 -1.66121 1.13867 0
M  V30 9810 C 922.501 -2.65864 2.22525 0
M  V30 9811 C 921.562 -2.54273 3.45896 0
M  V30 9812 C 920.795 -3.81327 3.73397 0
M  V30 9813 O 921.018 -4.83307 3.02936 0
M  V30 9814 O 919.952 -3.79829 4.66919 0
M  V30 9815 H 923.778 -1.03255 2.85608 0
M  V30 9816 H 921.363 -0.445652 1.42598 0
M  V30 9817 H 923.245 -3.447 2.42404 0
M  V30 9818 H 921.92 -2.94784 1.33731 0
M  V30 9819 H 920.827 -1.73715 3.31321 0
M  V30 9820 H 922.16 -2.30297 4.34999 0
M  V30 9821 N 923.813 -1.49104 -0.510467 0
M  V30 9822 C 924.763 -1.6147 -1.6097 0
M  V30 9823 C 925.747 -0.470797 -1.53858 0
M  V30 9824 O 926.939 -0.723266 -1.61548 0
M  V30 9825 C 924.068 -1.67575 -2.99622 0
M  V30 9826 C 923.154 -2.87511 -3.11766 0
M  V30 9827 N 923.545 -4.11704 -2.93826 0
M  V30 9828 C 921.843 -2.85251 -3.42852 0
M  V30 9829 C 922.544 -4.92276 -3.09902 0
M  V30 9830 N 921.52 -4.2546 -3.38355 0
M  V30 9831 H 925.322 -2.5522 -1.45739 0
M  V30 9832 H 922.836 -1.45745 -0.716383 0
M  V30 9833 H 924.833 -1.74531 -3.78609 0
M  V30 9834 H 923.493 -0.749557 -3.1593 0
M  V30 9835 H 924.504 -4.41834 -2.70191 0
M  V30 9836 H 921.181 -2.0197 -3.65396 0
M  V30 9837 H 922.571 -6.00905 -3.00604 0
M  V30 9838 N 925.291 0.760815 -1.38019 0
M  V30 9839 C 926.702 1.33773 -1.30237 0
M  V30 9840 C 927.053 1.96148 0.0451153 0
M  V30 9841 O 926.178 1.94574 0.9471 0
M  V30 9842 C 926.773 2.43227 -2.35851 0
M  V30 9843 C 925.332 2.96659 -2.31669 0
M  V30 9844 C 924.479 1.69972 -2.191 0
M  V30 9845 H 927.43 0.560237 -1.48482 0
M  V30 9846 H 927.451 3.22985 -2.01149 0
M  V30 9847 H 926.963 1.978 -3.33911 0
M  V30 9848 H 925.064 3.46433 -1.37167 0
M  V30 9849 H 925.177 3.51529 -3.25521 0
M  V30 9850 H 923.541 1.9332 -1.65829 0
M  V30 9851 H 924.324 1.26633 -3.19091 0
M  V30 9852 N 926.769 1.22769 0.988202 0
M  V30 9853 C 928.18 1.0512 1.54294 0
M  V30 9854 C 928.531 -0.383904 1.92407 0
M  V30 9855 O 927.656 -1.26955 1.75246 0
M  V30 9856 C 928.251 1.90198 2.80375 0
M  V30 9857 C 926.81 1.76831 3.32276 0
M  V30 9858 C 925.957 1.86377 2.05326 0
M  V30 9859 H 928.908 1.36546 0.808758 0
M  V30 9860 H 928.929 1.42216 3.52923 0
M  V30 9861 H 928.441 2.9464 2.52605 0
M  V30 9862 H 926.542 0.751412 3.64945 0
M  V30 9863 H 926.655 2.59771 4.02562 0
M  V30 9864 H 925.019 1.2987 2.19103 0
M  V30 9865 H 925.802 2.9236 1.79946 0
M  V30 9866 N 928.247 -1.18576 1.03814 0
M  V30 9867 C 929.524 -1.8433 0.654358 0
M  V30 9868 C 929.904 -1.92504 -0.866338 0
M  V30 9869 O 929.252 -1.44904 -1.76678 0
M  V30 9870 C 929.462 -3.22778 1.32723 0
M  V30 9871 C 930.81 -3.98841 1.45641 0
M  V30 9872 O 931.834 -3.32209 1.28514 0
M  V30 9873 O 930.693 -5.18219 1.73526 0
M  V30 9874 H 927.787 -0.794766 0.228638 0
M  V30 9875 H 930.333 -1.25989 1.13687 0
M  V30 9876 H 929.105 -3.11717 2.36534 0
M  V30 9877 H 928.728 -3.88772 0.833176 0
M  V30 9878 N 929.725 -0.817259 -1.34754 0
M  V30 9879 C 930.953 -0.415451 -2.02686 0
M  V30 9880 C 931.368 0.97688 -1.61563 0
M  V30 9881 O 930.725 1.63125 -0.818321 0
M  V30 9882 C 930.776 -0.501486 -3.58005 0
M  V30 9883 O 930.497 -1.83893 -3.97637 0
M  V30 9884 C 931.998 -0.0938504 -4.43201 0
M  V30 9885 H 929.218 -0.16742 -0.649778 0
M  V30 9886 H 931.762 -1.10384 -1.7215 0
M  V30 9887 H 929.917 0.138766 -3.87151 0
M  V30 9888 H 930.331 -1.8092 -4.92309 0
M  V30 9889 H 931.805 -0.205145 -5.51619 0
M  V30 9890 H 932.282 0.962011 -4.28535 0
M  V30 9891 H 932.888 -0.707677 -4.19371 0
M  V30 9892 N 931.203 1.46865 -0.571711 0
M  V30 9893 C 932.431 2.06818 -0.0583975 0
M  V30 9894 C 932.846 1.42218 1.24175 0
M  V30 9895 O 932.203 0.523655 1.74826 0
M  V30 9896 C 932.254 3.61281 0.125673 0
M  V30 9897 O 931.975 4.23462 -1.123 0
M  V30 9898 C 933.476 4.38137 0.674604 0
M  V30 9899 H 930.696 0.668948 -0.052438 0
M  V30 9900 H 933.24 1.88656 -0.789251 0
M  V30 9901 H 931.395 3.78908 0.806707 0
M  V30 9902 H 931.809 5.16192 -0.929869 0
M  V30 9903 H 933.283 5.46845 0.752626 0
M  V30 9904 H 933.76 4.05419 1.68915 0
M  V30 9905 H 934.366 4.2529 0.0287979 0
M  V30 9906 N 932.681 0.308908 1.54543 0
M  V30 9907 C 933.909 -0.300418 2.04707 0
M  V30 9908 C 934.324 -1.46915 1.18581 0
M  V30 9909 O 933.681 -1.81251 0.213186 0
M  V30 9910 C 933.732 -0.749038 3.53655 0
M  V30 9911 O 933.453 0.373181 4.36508 0
M  V30 9912 C 934.954 -1.4227 4.1985 0
M  V30 9913 H 932.174 -0.0641267 0.667929 0
M  V30 9914 H 934.718 0.450839 1.99469 0
M  V30 9915 H 932.873 -1.4503 3.59228 0
M  V30 9916 H 933.287 0.0224752 5.24495 0
M  V30 9917 H 934.761 -1.68768 5.25568 0
M  V30 9918 H 935.238 -2.36531 3.70067 0
M  V30 9919 H 935.844 -0.764404 4.18374 0
M  V30 9920 N 934.159 -1.57557 0.0367827 0
M  V30 9921 C 935.57 -1.79853 -0.500971 0
M  V30 9922 C 935.921 -0.947749 -1.71791 0
M  V30 9923 O 935.046 -0.160287 -2.15806 0
M  V30 9924 C 935.641 -3.26193 -0.915626 0
M  V30 9925 C 934.2 -3.49457 -1.39845 0
M  V30 9926 C 933.347 -2.74864 -0.366784 0
M  V30 9927 H 936.298 -1.56509 0.262768 0
M  V30 9928 H 936.319 -3.36324 -1.7795 0
M  V30 9929 H 935.831 -3.88089 -0.0297227 0
M  V30 9930 H 933.932 -2.92823 -2.30402 0
M  V30 9931 H 934.045 -4.58172 -1.40054 0
M  V30 9932 H 932.409 -2.4057 -0.836554 0
M  V30 9933 H 933.192 -3.39479 0.510785 0
M  V30 9934 N 935.637 0.236453 -1.55816 0
M  V30 9935 C 936.862 0.98449 -1.82545 0
M  V30 9936 C 937.287 1.77755 -0.615206 0
M  V30 9937 O 936.645 1.75982 0.435895 0
M  V30 9938 C 936.693 1.88973 -3.07118 0
M  V30 9939 O 935.797 2.98298 -2.84766 0
M  V30 9940 H 935.138 0.279577 -0.602273 0
M  V30 9941 H 937.668 0.254277 -2.03014 0
M  V30 9942 H 937.678 2.3024 -3.36829 0
M  V30 9943 H 936.353 1.30671 -3.94839 0
M  V30 9944 H 934.93 2.61085 -2.6625 0
M  V30 9945 N 937.115 1.49373 0.502552 0
M  V30 9946 C 938.025 1.68659 1.63068 0
M  V30 9947 C 939.041 0.569182 1.64427 0
M  V30 9948 O 940.217 0.843695 1.82876 0
M  V30 9949 C 937.282 1.74745 2.99441 0
M  V30 9950 C 936.343 2.98311 3.08721 0
M  V30 9951 C 935.576 3.04097 4.38589 0
M  V30 9952 O 935.799 2.17519 5.27297 0
M  V30 9953 O 934.733 3.96544 4.52809 0
M  V30 9954 H 938.559 2.64226 1.49727 0
M  V30 9955 H 936.144 1.33096 0.67867 0
M  V30 9956 H 938.026 1.8111 3.80496 0
M  V30 9957 H 936.701 0.823565 3.13048 0
M  V30 9958 H 935.608 2.97465 2.2686 0
M  V30 9959 H 936.941 3.90174 3.00041 0
M  V30 9960 N 938.594 -0.753485 1.38421 0
M  V30 9961 C 939.504 -1.89797 1.37892 0
M  V30 9962 C 940.52 -1.71797 0.276023 0
M  V30 9963 O 941.696 -1.94718 0.514464 0
M  V30 9964 C 938.761 -3.25166 1.20284 0
M  V30 9965 C 937.822 -3.55691 2.4038 0
M  V30 9966 C 937.055 -4.84601 2.23602 0
M  V30 9967 O 937.278 -5.56985 1.22979 0
M  V30 9968 O 936.212 -5.14605 3.12194 0
M  V30 9969 H 940.038 -1.93197 2.34326 0
M  V30 9970 H 937.623 -0.898775 1.19342 0
M  V30 9971 H 939.505 -4.06099 1.12525 0
M  V30 9972 H 938.18 -3.22577 0.269352 0
M  V30 9973 H 937.087 -2.74919 2.53714 0
M  V30 9974 H 938.42 -3.6304 3.32359 0
M  V30 9975 N 940.072 -1.23292 -0.981677 0
M  V30 9976 C 941.483 -1.05936 -1.53735 0
M  V30 9977 C 941.834 0.373695 -1.92608 0
M  V30 9978 O 940.959 1.26024 -1.75917 0
M  V30 9979 C 941.554 -1.91682 -2.79363 0
M  V30 9980 C 940.113 -1.78591 -3.31334 0
M  V30 9981 C 939.26 -1.87463 -2.04335 0
M  V30 9982 H 942.211 -1.36973 -0.801505 0
M  V30 9983 H 942.232 -1.44085 -3.52164 0
M  V30 9984 H 941.744 -2.95975 -2.51039 0
M  V30 9985 H 939.845 -0.770755 -3.64541 0
M  V30 9986 H 939.958 -2.61902 -4.01179 0
M  V30 9987 H 938.322 -1.3103 -2.18411 0
M  V30 9988 H 939.105 -2.9331 -1.78394 0
M  V30 9989 N 941.55 1.18024 -1.04442 0
M  V30 9990 C 942.798 1.87727 -0.74854 0
M  V30 9991 C 943.119 1.80975 0.726156 0
M  V30 9992 O 942.389 1.23061 1.52423 0
M  V30 9993 H 940.969 0.694974 -0.273897 0
M  V30 9994 H 943.631 1.43213 -1.32197 0
M  V30 9995 H 942.727 2.93665 -1.05674 0
M  V30 9996 N 943.028 0.824394 1.34319 0
M  V30 9997 C 944.276 0.41235 1.97849 0
M  V30 9998 C 944.597 -1.02841 1.65677 0
M  V30 9999 O 943.867 -1.71421 0.948245 0
M  V30 10000 H 942.447 0.149486 0.73189 0
M  V30 10001 H 945.109 1.05416 1.63931 0
M  V30 10002 H 944.205 0.532557 3.07523 0
M  V30 10003 N 944.506 -1.46559 0.579492 0
M  V30 10004 C 945.917 -1.8608 0.152052 0
M  V30 10005 C 946.268 -1.48346 -1.28405 0
M  V30 10006 O 945.393 -0.89685 -1.9694 0
M  V30 10007 C 945.988 -3.37729 0.269171 0
M  V30 10008 C 944.547 -3.76258 -0.103376 0
M  V30 10009 C 943.694 -2.70584 0.60659 0
M  V30 10010 H 946.645 -1.3776 0.787904 0
M  V30 10011 H 946.666 -3.77116 -0.506339 0
M  V30 10012 H 946.178 -3.65162 1.31448 0
M  V30 10013 H 944.279 -3.54443 -1.14895 0
M  V30 10014 H 944.392 -4.78335 0.270701 0
M  V30 10015 H 942.756 -2.54656 0.0471984 0
M  V30 10016 H 943.539 -3.00856 1.65349 0
M  V30 10017 N 945.984 -0.3171 -1.54377 0
M  V30 10018 C 946.916 0.58571 -2.2159 0
M  V30 10019 C 947.929 1.08495 -1.21378 0
M  V30 10020 O 949.118 0.999638 -1.47883 0
M  V30 10021 C 946.218 1.8157 -2.86156 0
M  V30 10022 C 945.391 1.45625 -4.12447 0
M  V30 10023 C 944.45 2.54308 -4.60667 0
M  V30 10024 O 943.476 2.18724 -5.25498 0
M  V30 10025 N 944.678 3.85129 -4.34345 0
M  V30 10026 H 947.443 0.0102247 -2.99698 0
M  V30 10027 H 945.004 -0.140011 -1.61293 0
M  V30 10028 H 946.996 2.53657 -3.15341 0
M  V30 10029 H 945.566 2.29919 -2.11793 0
M  V30 10030 H 944.786 0.567294 -3.90097 0
M  V30 10031 H 946.074 1.19169 -4.94648 0
M  V30 10032 H 945.472 4.16841 -3.8244 0
M  V30 10033 H 944.029 4.53466 -4.68201 0
M  V30 10034 N 947.462 1.57535 -0.0451378 0
M  V30 10035 C 948.395 2.06721 0.96653 0
M  V30 10036 C 949.373 0.966392 1.30766 0
M  V30 10037 O 950.557 1.23789 1.42157 0
M  V30 10038 C 947.684 2.50266 2.2822 0
M  V30 10039 C 946.73 3.71525 2.09455 0
M  V30 10040 S 947.563 5.17453 1.37851 0
M  V30 10041 C 948.719 5.64308 2.70753 0
M  V30 10042 H 948.952 2.92207 0.547911 0
M  V30 10043 H 946.485 1.53494 0.166973 0
M  V30 10044 H 948.443 2.76019 3.03849 0
M  V30 10045 H 947.104 1.65097 2.67211 0
M  V30 10046 H 946.297 3.99894 3.06759 0
M  V30 10047 H 945.899 3.46008 1.41967 0
M  V30 10048 H 948.191 5.69525 3.66943 0
M  V30 10049 H 949.134 6.63613 2.47028 0
M  V30 10050 H 949.542 4.92014 2.76736 0
M  V30 10051 N 948.94 -0.228186 1.55939 0
M  V30 10052 C 949.87 -1.28607 1.94891 0
M  V30 10053 C 950.851 -1.49236 0.816245 0
M  V30 10054 O 952.036 -1.61531 1.07803 0
M  V30 10055 C 949.166 -2.63719 2.25986 0
M  V30 10056 C 948.12 -2.57757 3.4168 0
M  V30 10057 C 947.446 -3.96837 3.58364 0
M  V30 10058 C 948.746 -2.13116 4.76843 0
M  V30 10059 H 950.44 -0.962531 2.83506 0
M  V30 10060 H 947.986 -0.461577 1.36402 0
M  V30 10061 H 949.939 -3.37878 2.51826 0
M  V30 10062 H 948.663 -2.97747 1.34217 0
M  V30 10063 H 947.322 -1.86055 3.15878 0
M  V30 10064 H 946.97 -4.28162 2.63982 0
M  V30 10065 H 946.67 -3.93731 4.36176 0
M  V30 10066 H 948.194 -4.72668 3.86545 0
M  V30 10067 H 949.608 -2.77015 5.01932 0
M  V30 10068 H 948.005 -2.21083 5.57891 0
M  V30 10069 H 949.075 -1.08326 4.72645 0
M  V30 10070 N 950.418 -1.49637 -0.494624 0
M  V30 10071 C 951.646 -1.63164 -1.2722 0
M  V30 10072 C 952.061 -0.305552 -1.86311 0
M  V30 10073 O 951.418 0.709758 -1.68133 0
M  V30 10074 C 951.469 -2.70524 -2.39789 0
M  V30 10075 O 951.19 -3.97991 -1.83126 0
M  V30 10076 C 952.691 -2.94814 -3.31058 0
M  V30 10077 H 949.911 -0.54912 -0.385627 0
M  V30 10078 H 952.455 -1.95711 -0.593081 0
M  V30 10079 H 950.61 -2.40738 -3.03519 0
M  V30 10080 H 951.024 -4.57179 -2.57075 0
M  V30 10081 H 952.498 -3.73653 -4.06309 0
M  V30 10082 H 952.975 -2.04974 -3.88436 0
M  V30 10083 H 953.581 -3.26042 -2.73088 0
M  V30 10084 N 951.896 0.746133 -1.38819 0
M  V30 10085 C 953.121 1.54049 -1.38866 0
M  V30 10086 C 953.546 1.88092 0.0176624 0
M  V30 10087 O 952.904 1.51113 1.00173 0
M  V30 10088 C 952.952 2.8116 -2.25791 0
M  V30 10089 O 952.056 3.76623 -1.68014 0
M  V30 10090 H 951.397 0.465648 -0.473359 0
M  V30 10091 H 953.927 0.921469 -1.82675 0
M  V30 10092 H 953.937 3.30009 -2.39913 0
M  V30 10093 H 952.612 2.55713 -3.27999 0
M  V30 10094 H 951.189 3.35352 -1.63074 0
M  V30 10095 N 953.375 1.23811 0.975125 0
M  V30 10096 C 954.307 0.981779 2.07108 0
M  V30 10097 C 955.32 -0.0461211 1.62735 0
M  V30 10098 O 956.509 0.190039 1.77486 0
M  V30 10099 C 953.609 0.458364 3.35786 0
M  V30 10100 C 952.782 1.54767 4.09104 0
M  V30 10101 C 951.841 1.0282 5.16057 0
M  V30 10102 O 950.867 1.71831 5.42644 0
M  V30 10103 N 952.069 -0.141243 5.80328 0
M  V30 10104 H 954.834 1.92537 2.29673 0
M  V30 10105 H 952.395 1.1474 1.14221 0
M  V30 10106 H 954.387 0.0957686 4.04587 0
M  V30 10107 H 952.957 -0.390768 3.10148 0
M  V30 10108 H 952.177 2.08279 3.34684 0
M  V30 10109 H 953.465 2.28006 4.54853 0
M  V30 10110 H 952.863 -0.718382 5.6112 0
M  V30 10111 H 951.42 -0.445052 6.50279 0
M  V30 10112 N 954.853 -1.17469 1.05066 0
M  V30 10113 C 955.816 -2.19648 0.654793 0
M  V30 10114 C 956.816 -1.58107 -0.293063 0
M  V30 10115 O 958.006 -1.74029 -0.077106 0
M  V30 10116 C 955.138 -3.40878 -0.0384437 0
M  V30 10117 H 956.331 -2.56184 1.55915 0
M  V30 10118 H 953.884 -1.31528 0.844396 0
M  V30 10119 H 954.619 -3.09885 -0.956133 0
M  V30 10120 H 954.404 -3.86792 0.642961 0
M  V30 10121 H 955.894 -4.1651 -0.301568 0
M  V30 10122 N 956.331 -0.831506 -1.3388 0
M  V30 10123 C 957.742 -0.481375 -1.80388 0
M  V30 10124 C 958.093 0.998993 -1.68863 0
M  V30 10125 O 957.218 1.77795 -1.2336 0
M  V30 10126 C 957.813 -0.86699 -3.27519 0
M  V30 10127 C 956.372 -0.569105 -3.72073 0
M  V30 10128 C 955.519 -1.07929 -2.55434 0
M  V30 10129 H 958.47 -1.02089 -1.21505 0
M  V30 10130 H 958.491 -0.174128 -3.80101 0
M  V30 10131 H 958.003 -1.94447 -3.35875 0
M  V30 10132 H 956.104 0.498607 -3.69249 0
M  V30 10133 H 956.217 -1.11918 -4.65845 0
M  V30 10134 H 954.581 -0.500465 -2.49735 0
M  V30 10135 H 955.364 -2.16339 -2.66556 0
M  V30 10136 N 957.809 1.4625 -0.587256 0
M  V30 10137 C 959.049 2.04254 -0.0773169 0
M  V30 10138 C 959.413 1.44831 1.26047 0
M  V30 10139 O 960.614 1.94063 1.85992 0
M  V30 10140 C 958.885 3.57396 -0.0172813 0
M  V30 10141 S 960.444 4.36644 0.434422 0
M  V30 10142 H 957.262 0.709892 -0.0396783 0
M  V30 10143 H 959.864 1.79232 -0.780779 0
M  V30 10144 H 958.568 3.98161 -0.994795 0
M  V30 10145 H 958.099 3.86962 0.70881 0
M  V30 10146 H 960.114 4.66597 1.68824 0
M  V30 10147 N 959.287 0.325282 1.54207 0
M  V30 10148 C 960.533 -0.277185 2.00897 0
M  V30 10149 C 960.866 -1.51651 1.21308 0
M  V30 10150 O 960.141 -1.92237 0.295825 0
M  V30 10151 C 960.424 -0.60961 3.54902 0
M  V30 10152 C 960.277 0.640542 4.45216 0
M  V30 10153 C 961.596 -1.42656 4.16338 0
M  V30 10154 H 958.715 -0.0992722 0.730284 0
M  V30 10155 H 961.357 0.442201 1.84783 0
M  V30 10156 H 959.507 -1.22249 3.68765 0
M  V30 10157 H 961.179 1.27878 4.43221 0
M  V30 10158 H 959.422 1.26908 4.14821 0
M  V30 10159 H 960.093 0.363459 5.50802 0
M  V30 10160 H 962.569 -0.908494 4.06061 0
M  V30 10161 H 961.445 -1.62792 5.24204 0
M  V30 10162 H 961.706 -2.42321 3.69774 0
M  V30 10163 N 960.765 -1.57509 0.0534917 0
M  V30 10164 C 962.042 -1.84137 -0.659767 0
M  V30 10165 C 962.422 -0.942362 -1.88899 0
M  V30 10166 O 961.77 -0.00398566 -2.285 0
M  V30 10167 C 961.98 -3.33919 -1.01486 0
M  V30 10168 C 963.328 -4.00989 -1.39616 0
M  V30 10169 O 964.352 -3.38557 -1.10713 0
M  V30 10170 O 963.211 -5.11071 -1.93567 0
M  V30 10171 H 960.305 -0.760081 -0.325893 0
M  V30 10172 H 962.851 -1.69497 0.0830315 0
M  V30 10173 H 961.623 -3.91046 -0.141041 0
M  V30 10174 H 961.246 -3.53755 -1.81503 0
M  V30 10175 N 962.243 0.219913 -1.56058 0
M  V30 10176 C 963.491 0.942199 -1.78793 0
M  V30 10177 C 963.812 1.84804 -0.622284 0
M  V30 10178 O 963.082 1.9255 0.360735 0
M  V30 10179 H 961.662 0.350895 -0.659455 0
M  V30 10180 H 964.324 0.231376 -1.93522 0
M  V30 10181 H 963.42 1.54804 -2.71002 0
M  V30 10182 N 963.721 1.49897 0.486681 0
M  V30 10183 C 964.968 1.60105 1.23986 0
M  V30 10184 C 965.296 0.294228 1.92262 0
M  V30 10185 O 964.551 -0.718876 1.82018 0
M  V30 10186 C 964.85 2.71982 2.31863 0
M  V30 10187 C 964.516 4.13 1.80948 0
M  V30 10188 C 963.178 4.51373 1.66782 0
M  V30 10189 C 965.53 5.01198 1.43004 0
M  V30 10190 C 962.858 5.75701 1.13072 0
M  V30 10191 C 965.21 6.26058 0.90742 0
M  V30 10192 C 963.874 6.63247 0.752269 0
M  V30 10193 H 963.144 0.585866 0.453698 0
M  V30 10194 H 965.791 1.83778 0.538305 0
M  V30 10195 H 964.096 2.42336 3.07865 0
M  V30 10196 H 965.793 2.77087 2.89869 0
M  V30 10197 H 962.383 3.82718 1.92937 0
M  V30 10198 H 966.567 4.72196 1.52789 0
M  V30 10199 H 961.823 6.03202 0.997842 0
M  V30 10200 H 965.997 6.9377 0.604684 0
M  V30 10201 H 963.624 7.59466 0.33392 0
M  V30 10202 N 965.199 -0.738761 1.39212 0
M  V30 10203 C 966.109 -1.88324 1.39897 0
M  V30 10204 C 967.125 -1.71494 0.294229 0
M  V30 10205 O 968.301 -1.94162 0.535087 0
M  V30 10206 C 965.366 -3.23871 1.23726 0
M  V30 10207 C 964.427 -3.53121 2.44139 0
M  V30 10208 C 963.66 -4.82202 2.2873 0
M  V30 10209 O 963.883 -5.55649 1.28879 0
M  V30 10210 O 962.817 -5.11265 3.17634 0
M  V30 10211 H 966.643 -1.90701 2.36362 0
M  V30 10212 H 964.228 -0.886067 1.20288 0
M  V30 10213 H 966.11 -4.04882 1.16826 0
M  V30 10214 H 964.785 -3.22274 0.303551 0
M  V30 10215 H 963.692 -2.72212 2.56615 0
M  V30 10216 H 965.025 -3.59495 3.36191 0
M  V30 10217 N 966.677 -1.24326 -0.968545 0
M  V30 10218 C 967.587 -1.05194 -2.09694 0
M  V30 10219 C 968.603 0.00701291 -1.73999 0
M  V30 10220 O 969.779 -0.190981 -2.00492 0
M  V30 10221 C 966.844 -0.658075 -3.40397 0
M  V30 10222 C 965.905 -1.79341 -3.90045 0
M  V30 10223 C 965.138 -1.41824 -5.14511 0
M  V30 10224 O 965.361 -0.307693 -5.69569 0
M  V30 10225 O 964.295 -2.24358 -5.58522 0
M  V30 10226 H 968.121 -1.99791 -2.2873 0
M  V30 10227 H 965.706 -1.03138 -1.08088 0
M  V30 10228 H 967.588 -0.449911 -4.18991 0
M  V30 10229 H 966.263 0.258782 -3.22664 0
M  V30 10230 H 965.17 -2.05632 -3.12516 0
M  V30 10231 H 966.503 -2.68901 -4.12254 0
M  V30 10232 N 968.156 1.1691 -1.05688 0
M  V30 10233 C 969.567 1.68915 -0.795273 0
M  V30 10234 C 969.918 1.83968 0.681925 0
M  V30 10235 O 969.043 1.53083 1.52953 0
M  V30 10236 C 969.638 3.06814 -1.43703 0
M  V30 10237 C 968.197 3.55965 -1.22335 0
M  V30 10238 C 967.344 2.32099 -1.51741 0
M  V30 10239 H 970.295 1.01357 -1.22116 0
M  V30 10240 H 970.316 3.70907 -0.849016 0
M  V30 10241 H 969.828 2.95826 -2.51214 0
M  V30 10242 H 967.929 3.72222 -0.16771 0
M  V30 10243 H 968.042 4.38427 -1.9318 0
M  V30 10244 H 966.406 2.36811 -0.937696 0
M  V30 10245 H 967.189 2.23715 -2.60397 0
M  V30 10246 N 969.634 0.838594 1.33437 0
M  V30 10247 C 970.882 0.433312 1.974 0
M  V30 10248 C 971.203 -1.01078 1.66758 0
M  V30 10249 O 970.473 -1.70406 0.966373 0
M  V30 10250 H 969.053 0.15724 0.730263 0
M  V30 10251 H 971.715 1.07149 1.62804 0
M  V30 10252 H 970.811 0.565144 3.06941 0
M  V30 10253 N 971.112 -1.45937 0.595003 0
M  V30 10254 C 972.075 -2.2888 -0.121102 0
M  V30 10255 C 973.075 -1.39075 -0.807149 0
M  V30 10256 O 974.265 -1.61326 -0.657228 0
M  V30 10257 C 971.397 -3.19778 -1.1813 0
M  V30 10258 H 972.59 -2.93673 0.607968 0
M  V30 10259 H 970.143 -1.5225 0.353495 0
M  V30 10260 H 970.878 -2.59759 -1.94154 0
M  V30 10261 H 970.663 -3.85914 -0.693724 0
M  V30 10262 H 972.153 -3.82176 -1.68319 0
M  V30 10263 N 972.59 -0.333456 -1.54032 0
M  V30 10264 C 974.006 0.0188405 -1.59589 0
M  V30 10265 C 974.206 1.49615 -1.34972 0
M  V30 10266 O 973.262 2.2535 -1.13901 0
M  V30 10267 C 974.575 -0.408273 -2.97915 0
M  V30 10268 C 976.123 -0.359763 -3.10926 0
M  V30 10269 C 976.598 -0.76219 -4.51613 0
M  V30 10270 N 978.089 -0.715981 -4.57633 0
M  V30 10271 C 978.824 -0.999436 -5.64623 0
M  V30 10272 N 978.32 -1.35053 -6.79509 0
M  V30 10273 N 980.113 -0.924343 -5.54448 0
M  V30 10274 H 972.264 -1.29587 -1.68289 0
M  V30 10275 H 974.527 -0.527584 -0.787629 0
M  V30 10276 H 974.233 -1.43793 -3.20962 0
M  V30 10277 H 974.107 0.221685 -3.76548 0
M  V30 10278 H 976.494 0.660703 -2.87609 0
M  V30 10279 H 976.575 -1.02479 -2.34375 0
M  V30 10280 H 976.219 -1.78062 -4.75664 0
M  V30 10281 H 976.149 -0.0747478 -5.26547 0
M  V30 10282 H 978.64 -0.456875 -3.75128 0
M  V30 10283 H 978.953 -1.55194 -7.57057 0
M  V30 10284 H 977.298 -1.38889 -6.80981 0
M  V30 10285 H 980.489 -0.649469 -4.63573 0
M  V30 10286 H 980.662 -1.1486 -6.37739 0
M  V30 10287 N 974.068 1.57479 -0.061844 0
M  V30 10288 C 975 2.09116 0.938245 0
M  V30 10289 C 976.013 1.0212 1.26788 0
M  V30 10290 O 977.202 1.2966 1.22681 0
M  V30 10291 C 974.302 2.52822 2.25686 0
M  V30 10292 C 973.475 3.83277 2.10755 0
M  V30 10293 C 972.534 4.13182 3.25833 0
M  V30 10294 O 971.56 4.82937 3.01265 0
M  V30 10295 N 972.762 3.65938 4.50633 0
M  V30 10296 H 975.527 2.95543 0.497433 0
M  V30 10297 H 973.088 1.61423 0.124134 0
M  V30 10298 H 975.08 2.69896 3.01559 0
M  V30 10299 H 973.65 1.71586 2.61299 0
M  V30 10300 H 972.87 3.7568 1.19409 0
M  V30 10301 H 974.158 4.68686 1.98018 0
M  V30 10302 H 973.556 3.09566 4.73482 0
M  V30 10303 H 972.113 3.8823 5.23565 0
M  V30 10304 N 975.546 -0.211634 1.56173 0
M  V30 10305 C 976.962 -0.56177 1.49386 0
M  V30 10306 C 977.162 -1.86666 0.758813 0
M  V30 10307 O 976.218 -2.50681 0.302534 0
M  V30 10308 C 977.531 -0.631815 2.93987 0
M  V30 10309 C 979.079 -0.721773 3.04564 0
M  V30 10310 C 979.554 -0.823075 4.50544 0
M  V30 10311 N 981.045 -0.887038 4.54627 0
M  V30 10312 C 981.78 -0.985304 5.64871 0
M  V30 10313 N 981.276 -1.0469 6.84844 0
M  V30 10314 N 983.069 -1.02121 5.52746 0
M  V30 10315 H 975.22 0.64452 2.02385 0
M  V30 10316 H 977.483 0.227466 0.920306 0
M  V30 10317 H 977.189 0.257592 3.50755 0
M  V30 10318 H 977.063 -1.4921 3.46433 0
M  V30 10319 H 979.45 -1.60162 2.47855 0
M  V30 10320 H 979.531 0.164385 2.55271 0
M  V30 10321 H 979.175 0.0523511 5.07873 0
M  V30 10322 H 979.105 -1.72479 4.97552 0
M  V30 10323 H 981.596 -0.849352 3.68231 0
M  V30 10324 H 981.909 -1.12193 7.64613 0
M  V30 10325 H 980.254 -1.01586 6.87536 0
M  V30 10326 H 983.445 -0.969814 4.57943 0
M  V30 10327 H 983.618 -1.09434 6.38693 0
M  V30 10328 N 977.024 -1.50153 -0.478725 0
M  V30 10329 C 977.987 -1.67916 -1.56003 0
M  V30 10330 C 978.987 -0.550111 -1.51097 0
M  V30 10331 O 980.177 -0.817001 -1.53853 0
M  V30 10332 C 977.309 -1.6973 -2.95643 0
M  V30 10333 H 978.502 -2.6438 -1.41573 0
M  V30 10334 H 976.055 -1.39519 -0.704565 0
M  V30 10335 H 976.79 -0.749306 -3.15525 0
M  V30 10336 H 976.575 -2.51745 -3.00611 0
M  V30 10337 H 978.065 -1.85453 -3.74162 0
M  V30 10338 N 978.502 0.731368 -1.39602 0
M  V30 10339 C 979.432 1.85855 -1.41351 0
M  V30 10340 C 980.413 1.67839 -0.2764 0
M  V30 10341 O 981.598 1.88104 -0.482747 0
M  V30 10342 C 978.728 3.23644 -1.25983 0
M  V30 10343 C 977.682 3.56304 -2.37132 0
M  V30 10344 C 977.008 4.93069 -2.0685 0
M  V30 10345 C 978.308 3.58906 -3.79452 0
M  V30 10346 H 980.002 1.84648 -2.3568 0
M  V30 10347 H 977.548 0.886955 -1.13442 0
M  V30 10348 H 979.501 4.02176 -1.25826 0
M  V30 10349 H 978.225 3.25387 -0.281234 0
M  V30 10350 H 976.884 2.80104 -2.36511 0
M  V30 10351 H 976.532 4.91396 -1.0742 0
M  V30 10352 H 976.232 5.15888 -2.81306 0
M  V30 10353 H 977.756 5.73953 -2.0835 0
M  V30 10354 H 979.17 4.27508 -3.81982 0
M  V30 10355 H 977.567 3.93246 -4.53297 0
M  V30 10356 H 978.637 2.58631 -4.10168 0
M  V30 10357 N 979.98 1.24838 0.961938 0
M  V30 10358 C 981.205 1.11967 1.7458 0
M  V30 10359 C 981.63 -0.323287 1.85301 0
M  V30 10360 O 980.988 -1.23412 1.32812 0
M  V30 10361 C 981.036 1.77066 3.14134 0
M  V30 10362 O 980.14 1.04534 3.98932 0
M  V30 10363 H 979.481 0.391338 0.536424 0
M  V30 10364 H 982.011 1.65259 1.20626 0
M  V30 10365 H 982.021 1.83056 3.64629 0
M  V30 10366 H 980.696 2.82052 3.05646 0
M  V30 10367 H 979.273 1.06372 3.57407 0
M  V30 10368 N 981.458 -1.16348 1.06306 0
M  V30 10369 C 982.421 -2.18941 0.678053 0
M  V30 10370 C 983.421 -1.58409 -0.276277 0
M  V30 10371 O 984.611 -1.74101 -0.0586435 0
M  V30 10372 C 981.743 -3.409 -0.00228684 0
M  V30 10373 H 982.936 -2.54516 1.58624 0
M  V30 10374 H 980.489 -1.30625 0.858298 0
M  V30 10375 H 981.224 -3.10881 -0.923212 0
M  V30 10376 H 981.009 -3.86089 0.683949 0
M  V30 10377 H 982.499 -4.16806 -0.257374 0
M  V30 10378 N 982.937 -0.845659 -1.3299 0
M  V30 10379 C 984.183 -0.445311 -1.9785 0
M  V30 10380 C 984.516 0.994476 -1.66805 0
M  V30 10381 O 983.791 1.69636 -0.95151 0
M  V30 10382 C 984.074 -0.674371 -3.53729 0
M  V30 10383 C 983.927 -2.16192 -3.94437 0
M  V30 10384 C 985.246 -0.124908 -4.39923 0
M  V30 10385 H 982.365 -0.163269 -0.718688 0
M  V30 10386 H 985.007 -1.06242 -1.5752 0
M  V30 10387 H 983.157 -0.149091 -3.88214 0
M  V30 10388 H 984.829 -2.75259 -3.70176 0
M  V30 10389 H 983.072 -2.64386 -3.43922 0
M  V30 10390 H 983.743 -2.27292 -5.03033 0
M  V30 10391 H 986.219 -0.573986 -4.12122 0
M  V30 10392 H 985.095 -0.314816 -5.47996 0
M  V30 10393 H 985.356 0.971758 -4.31288 0
M  V30 10394 N 984.415 1.45619 -0.602734 0
M  V30 10395 C 985.64 2.07157 -0.100429 0
M  V30 10396 C 986.065 1.44524 1.20393 0
M  V30 10397 O 985.423 0.536191 1.7319 0
M  V30 10398 C 985.471 3.60587 0.0308604 0
M  V30 10399 O 984.575 3.97944 1.08234 0
M  V30 10400 H 983.916 0.6601 -0.0718643 0
M  V30 10401 H 986.446 1.86948 -0.831366 0
M  V30 10402 H 986.456 4.07348 0.230634 0
M  V30 10403 H 985.131 4.05561 -0.921581 0
M  V30 10404 H 983.708 3.62862 0.859414 0
M  V30 10405 N 985.893 0.34162 1.53853 0
M  V30 10406 C 987.139 -0.255862 2.01179 0
M  V30 10407 C 987.472 -1.50356 1.22909 0
M  V30 10408 O 986.747 -1.91913 0.316198 0
M  V30 10409 C 987.03 -0.571934 3.55529 0
M  V30 10410 C 986.883 0.687727 4.44511 0
M  V30 10411 C 988.202 -1.38233 4.17827 0
M  V30 10412 H 985.321 -0.091521 0.731295 0
M  V30 10413 H 987.963 0.461775 1.84303 0
M  V30 10414 H 986.113 -1.18331 3.70041 0
M  V30 10415 H 987.785 1.32572 4.4184 0
M  V30 10416 H 986.028 1.313 4.13452 0
M  V30 10417 H 986.699 0.421858 5.50386 0
M  V30 10418 H 989.175 -0.865374 4.07002 0
M  V30 10419 H 988.051 -1.57223 5.25901 0
M  V30 10420 H 988.312 -2.38386 3.72323 0
M  V30 10421 N 987.371 -1.57444 0.0701946 0
M  V30 10422 C 988.301 -2.15659 -0.895176 0
M  V30 10423 C 989.282 -1.08321 -1.31151 0
M  V30 10424 O 990.467 -1.36349 -1.38284 0
M  V30 10425 C 987.597 -2.71693 -2.16334 0
M  V30 10426 C 986.551 -3.84183 -1.88645 0
M  V30 10427 C 985.877 -4.26814 -3.22078 0
M  V30 10428 C 987.177 -5.08493 -1.19299 0
M  V30 10429 H 988.871 -2.96576 -0.410217 0
M  V30 10430 H 986.417 -1.42662 -0.195872 0
M  V30 10431 H 988.37 -3.11064 -2.84284 0
M  V30 10432 H 987.094 -1.87994 -2.67069 0
M  V30 10433 H 985.753 -3.45314 -1.23101 0
M  V30 10434 H 985.401 -3.40039 -3.70651 0
M  V30 10435 H 985.101 -5.02642 -3.04344 0
M  V30 10436 H 986.625 -4.68799 -3.91228 0
M  V30 10437 H 988.039 -5.4519 -1.77316 0
M  V30 10438 H 986.436 -5.89588 -1.11828 0
M  V30 10439 H 987.506 -4.84595 -0.171839 0
M  V30 10440 N 988.849 0.203349 -1.56283 0
M  V30 10441 C 990.077 0.941426 -1.84241 0
M  V30 10442 C 990.492 1.77197 -0.651658 0
M  V30 10443 O 989.849 1.78506 0.379713 0
M  V30 10444 C 989.9 1.84429 -3.10915 0
M  V30 10445 O 989.621 1.04729 -4.25398 0
M  V30 10446 C 991.122 2.69474 -3.51993 0
M  V30 10447 H 988.342 0.27507 -0.612027 0
M  V30 10448 H 990.886 0.213088 -2.03387 0
M  V30 10449 H 989.041 2.52635 -2.93691 0
M  V30 10450 H 989.455 1.66179 -4.97478 0
M  V30 10451 H 990.929 3.28495 -4.43616 0
M  V30 10452 H 991.406 3.42775 -2.74594 0
M  V30 10453 H 992.012 2.06652 -3.71719 0
M  V30 10454 N 990.327 1.50405 0.470755 0
M  V30 10455 C 991.552 1.65442 1.25075 0
M  V30 10456 C 991.977 0.337612 1.85045 0
M  V30 10457 O 991.335 -0.698555 1.67302 0
M  V30 10458 C 991.383 2.74793 2.33498 0
M  V30 10459 O 990.487 2.36069 3.3815 0
M  V30 10460 H 989.828 0.552728 0.367951 0
M  V30 10461 H 992.358 1.96782 0.560177 0
M  V30 10462 H 992.368 2.97879 2.78804 0
M  V30 10463 H 991.043 3.70363 1.8922 0
M  V30 10464 H 989.62 2.2343 2.98552 0
M  V30 10465 N 991.805 -0.723954 1.39988 0
M  V30 10466 C 992.768 -1.81973 1.3935 0
M  V30 10467 C 993.768 -1.58187 0.288702 0
M  V30 10468 O 994.958 -1.65383 0.547181 0
M  V30 10469 C 992.09 -3.19937 1.177 0
M  V30 10470 H 993.283 -1.83939 2.36868 0
M  V30 10471 H 990.836 -0.928742 1.25714 0
M  V30 10472 H 991.571 -3.23625 0.209093 0
M  V30 10473 H 991.356 -3.386 1.97719 0
M  V30 10474 H 992.846 -3.99981 1.20022 0
M  V30 10475 N 993.283 -1.25346 -0.955304 0
M  V30 10476 C 994.213 -1.08152 -2.06943 0
M  V30 10477 C 995.194 0.00922598 -1.70097 0
M  V30 10478 O 996.379 -0.160181 -1.93538 0
M  V30 10479 C 993.509 -0.698745 -3.40198 0
M  V30 10480 C 992.463 -1.73965 -3.9105 0
M  V30 10481 C 991.789 -1.21158 -5.20792 0
M  V30 10482 C 993.089 -3.13829 -4.17503 0
M  V30 10483 H 994.783 -2.01345 -2.21586 0
M  V30 10484 H 992.329 -0.969459 -1.06478 0
M  V30 10485 H 994.282 -0.565394 -4.1759 0
M  V30 10486 H 993.006 0.268892 -3.25491 0
M  V30 10487 H 991.665 -1.86143 -3.15827 0
M  V30 10488 H 991.313 -0.234193 -5.02455 0
M  V30 10489 H 991.013 -1.90728 -5.55785 0
M  V30 10490 H 992.537 -1.09061 -6.00781 0
M  V30 10491 H 993.951 -3.04809 -4.85556 0
M  V30 10492 H 992.348 -3.80863 -4.63749 0
M  V30 10493 H 993.418 -3.6094 -3.23806 0
M  V30 10494 N 994.761 1.15782 -1.06922 0
M  V30 10495 C 995.671 2.24008 -0.696948 0
M  V30 10496 C 996.687 1.71569 0.289862 0
M  V30 10497 O 997.863 2.00929 0.137585 0
M  V30 10498 C 994.928 3.46568 -0.0957895 0
M  V30 10499 C 993.989 4.14017 -1.13528 0
M  V30 10500 C 993.222 5.30725 -0.562713 0
M  V30 10501 O 993.445 5.66992 0.62259 0
M  V30 10502 O 992.379 5.87572 -1.30549 0
M  V30 10503 H 996.205 2.58174 -1.59938 0
M  V30 10504 H 993.79 1.2342 -0.841889 0
M  V30 10505 H 995.672 4.20731 0.237407 0
M  V30 10506 H 994.347 3.14161 0.780027 0
M  V30 10507 H 993.254 3.41795 -1.52076 0
M  V30 10508 H 994.587 4.50493 -1.98285 0
M  V30 10509 N 996.239 0.8527 1.3254 0
M  V30 10510 C 997.149 0.298744 2.3269 0
M  V30 10511 C 998.165 -0.582418 1.63963 0
M  V30 10512 O 999.341 -0.483253 1.95516 0
M  V30 10513 C 996.406 -0.505453 3.42996 0
M  V30 10514 C 995.467 0.401618 4.27417 0
M  V30 10515 C 994.7 -0.364294 5.32455 0
M  V30 10516 O 994.923 -1.59448 5.47661 0
M  V30 10517 O 993.857 0.268892 6.01299 0
M  V30 10518 H 997.683 1.12843 2.81958 0
M  V30 10519 H 995.268 0.615584 1.36128 0
M  V30 10520 H 997.15 -0.961974 4.10273 0
M  V30 10521 H 995.825 -1.31197 2.95921 0
M  V30 10522 H 994.732 0.906274 3.62957 0
M  V30 10523 H 996.065 1.17327 4.78012 0
M  V30 10524 N 997.718 -1.45297 0.610449 0
M  V30 10525 C 998.648 -2.33311 -0.0939698 0
M  V30 10526 C 999.629 -1.46999 -0.85588 0
M  V30 10527 O 1000.81 -1.75764 -0.825865 0
M  V30 10528 C 997.944 -3.29751 -1.09003 0
M  V30 10529 C 996.898 -4.2572 -0.441146 0
M  V30 10530 C 996.224 -5.11873 -1.54566 0
M  V30 10531 C 997.524 -5.1837 0.639489 0
M  V30 10532 H 999.218 -2.92459 0.640941 0
M  V30 10533 H 996.764 -1.40631 0.309675 0
M  V30 10534 H 998.717 -3.90195 -1.59141 0
M  V30 10535 H 997.441 -2.68768 -1.85557 0
M  V30 10536 H 996.1 -3.66579 0.0393908 0
M  V30 10537 H 995.748 -4.47256 -2.30155 0
M  V30 10538 H 995.448 -5.76886 -1.11698 0
M  V30 10539 H 996.972 -5.75185 -2.04925 0
M  V30 10540 H 998.386 -5.7287 0.22207 0
M  V30 10541 H 996.783 -5.91876 0.990089 0
M  V30 10542 H 997.853 -4.60627 1.51495 0
M  V30 10543 N 999.196 -0.349774 -1.5367 0
M  V30 10544 C 1000.11 0.512421 -2.28935 0
M  V30 10545 C 1001.12 1.1065 -1.34286 0
M  V30 10546 O 1002.3 1.12084 -1.67329 0
M  V30 10547 C 999.363 1.64449 -3.05217 0
M  V30 10548 C 998.424 1.07956 -4.15505 0
M  V30 10549 C 997.657 2.15768 -4.88139 0
M  V30 10550 O 997.88 3.366 -4.60496 0
M  V30 10551 O 996.814 1.79712 -5.74445 0
M  V30 10552 H 1000.64 -0.0996001 -3.03537 0
M  V30 10553 H 998.225 -0.114629 -1.4896 0
M  V30 10554 H 1000.11 2.30302 -3.52901 0
M  V30 10555 H 998.782 2.24221 -2.33467 0
M  V30 10556 H 997.689 0.385381 -3.7211 0
M  V30 10557 H 999.022 0.526621 -4.89375 0
M  V30 10558 N 1000.67 1.57404 -0.0785433 0
M  V30 10559 C 1001.58 2.16612 0.900902 0
M  V30 10560 C 1002.6 1.13109 1.32221 0
M  V30 10561 O 1003.78 1.45406 1.39352 0
M  V30 10562 C 1000.84 2.7215 2.14791 0
M  V30 10563 C 999.902 3.90551 1.78237 0
M  V30 10564 C 999.135 4.43431 2.96993 0
M  V30 10565 O 999.358 3.95292 4.11218 0
M  V30 10566 O 998.292 5.34674 2.76418 0
M  V30 10567 H 1002.12 3.0068 0.427227 0
M  V30 10568 H 999.703 1.48696 0.144902 0
M  V30 10569 H 1001.58 3.07718 2.87902 0
M  V30 10570 H 1000.26 1.91139 2.61243 0
M  V30 10571 H 999.167 3.59825 1.02357 0
M  V30 10572 H 1000.5 4.72876 1.36562 0
M  V30 10573 N 1002.15 -0.195058 1.56388 0
M  V30 10574 C 1003.38 -0.935745 1.85091 0
M  V30 10575 C 1003.8 -1.76061 0.662118 0
M  V30 10576 O 1003.16 -1.77076 -0.389083 0
M  V30 10577 C 1003.21 -1.80764 3.1202 0
M  V30 10578 O 1002.31 -2.90643 2.92575 0
M  V30 10579 H 1001.65 -0.26351 0.609474 0
M  V30 10580 H 1004.18 -0.200362 2.03617 0
M  V30 10581 H 1004.19 -2.21229 3.42815 0
M  V30 10582 H 1002.87 -1.20157 3.98165 0
M  V30 10583 H 1001.44 -2.53934 2.73079 0
M  V30 10584 N 1003.63 -1.50653 -0.462772 0
M  V30 10585 C 1005.05 -1.38263 -0.797213 0
M  V30 10586 C 1005.25 -0.445172 -1.96521 0
M  V30 10587 O 1004.3 0.10913 -2.52264 0
M  V30 10588 C 1005.61 -2.798 -1.10146 0
M  V30 10589 C 1007.16 -2.88774 -1.20742 0
M  V30 10590 C 1007.64 -4.31163 -1.54476 0
M  V30 10591 N 1009.13 -4.34152 -1.61451 0
M  V30 10592 C 1009.86 -5.4133 -1.89074 0
M  V30 10593 N 1009.36 -6.58705 -2.1466 0
M  V30 10594 N 1011.15 -5.28783 -1.90645 0
M  V30 10595 H 1003.3 -2.10172 0.30684 0
M  V30 10596 H 1005.57 -0.945046 0.0747862 0
M  V30 10597 H 1005.27 -3.50276 -0.316207 0
M  V30 10598 H 1005.15 -3.17559 -2.03559 0
M  V30 10599 H 1007.53 -2.18512 -1.98334 0
M  V30 10600 H 1007.61 -2.54547 -0.252904 0
M  V30 10601 H 1007.26 -5.01965 -0.774207 0
M  V30 10602 H 1007.19 -4.62883 -2.51092 0
M  V30 10603 H 1009.68 -3.49519 -1.43684 0
M  V30 10604 H 1009.99 -7.36192 -2.35035 0
M  V30 10605 H 1008.34 -6.61866 -2.12035 0
M  V30 10606 H 1011.53 -4.36078 -1.70158 0
M  V30 10607 H 1011.7 -6.12396 -2.11836 0
M  V30 10608 N 1005.11 0.71652 -1.4037 0
M  V30 10609 C 1006.06 1.82219 -1.37041 0
M  V30 10610 C 1007.04 1.58975 -0.248116 0
M  V30 10611 O 1008.23 1.70164 -0.487147 0
M  V30 10612 C 1005.36 3.20337 -1.23446 0
M  V30 10613 C 1004.45 3.49347 -2.40452 0
M  V30 10614 N 1004.84 3.49179 -3.65934 0
M  V30 10615 C 1003.14 3.798 -2.33811 0
M  V30 10616 C 1003.84 3.76506 -4.43416 0
M  V30 10617 N 1002.82 3.95209 -3.73244 0
M  V30 10618 H 1006.62 1.80421 -2.32003 0
M  V30 10619 H 1004.13 0.915603 -1.34129 0
M  V30 10620 H 1006.13 3.99513 -1.19143 0
M  V30 10621 H 1004.79 3.23362 -0.294497 0
M  V30 10622 H 1005.8 3.30051 -3.99107 0
M  V30 10623 H 1002.48 3.9032 -1.48177 0
M  V30 10624 H 1003.87 3.82689 -5.52267 0
M  V30 10625 N 1006.59 1.25851 0.948643 0
M  V30 10626 C 1007.53 1.06759 2.04625 0
M  V30 10627 C 1008.5 -0.0251144 1.66081 0
M  V30 10628 O 1009.69 0.133221 1.90334 0
M  V30 10629 C 1006.83 0.698724 3.37952 0
M  V30 10630 C 1005.94 1.8669 3.89578 0
M  V30 10631 C 1005.08 1.44184 5.11258 0
M  V30 10632 C 1004.12 2.57878 5.55126 0
M  V30 10633 N 1003.25 2.16106 6.68014 0
M  V30 10634 H 1008.09 2.00691 2.20289 0
M  V30 10635 H 1005.63 0.999327 1.07944 0
M  V30 10636 H 1007.59 0.465788 4.14592 0
M  V30 10637 H 1006.22 -0.203618 3.22157 0
M  V30 10638 H 1005.27 2.21298 3.09405 0
M  V30 10639 H 1006.58 2.72051 4.18079 0
M  V30 10640 H 1005.74 1.16891 5.95333 0
M  V30 10641 H 1004.47 0.559035 4.84485 0
M  V30 10642 H 1003.48 2.85909 4.69612 0
M  V30 10643 H 1004.7 3.46747 5.83904 0
M  V30 10644 H 1002.65 1.3025 6.42939 0
M  V30 10645 H 1002.57 2.95012 6.96063 0
M  V30 10646 H 1003.84 1.92005 7.55483 0
M  V30 10647 N 1008.06 -1.15214 1.07534 0
M  V30 10648 C 1009.3 -1.87708 0.809009 0
M  V30 10649 C 1009.67 -1.80552 -0.653066 0
M  V30 10650 O 1010.87 -2.48095 -1.03452 0
M  V30 10651 C 1009.14 -3.32703 1.30552 0
M  V30 10652 S 1010.7 -4.2291 1.17015 0
M  V30 10653 H 1007.52 -0.647767 0.293118 0
M  V30 10654 H 1010.12 -1.38992 1.37482 0
M  V30 10655 H 1008.82 -3.35456 2.36427 0
M  V30 10656 H 1008.35 -3.86473 0.734995 0
M  V30 10657 H 1010.37 -4.96081 0.108836 0
M  V30 10658 N 1009.54 -0.859717 -1.32086 0
M  V30 10659 C 1010.95 -0.519529 -1.79326 0
M  V30 10660 C 1011.3 0.96295 -1.70944 0
M  V30 10661 O 1010.43 1.75139 -1.27104 0
M  V30 10662 C 1011.02 -0.936267 -3.25606 0
M  V30 10663 C 1009.58 -0.647899 -3.70782 0
M  V30 10664 C 1008.73 -1.13323 -2.53087 0
M  V30 10665 H 1011.68 -1.04643 -1.19312 0
M  V30 10666 H 1011.7 -0.254714 -3.79646 0
M  V30 10667 H 1011.21 -2.01527 -3.31675 0
M  V30 10668 H 1009.32 0.420172 -3.70223 0
M  V30 10669 H 1009.43 -1.21774 -4.63366 0
M  V30 10670 H 1007.79 -0.553325 -2.48617 0
M  V30 10671 H 1008.58 -2.21945 -2.61907 0
M  V30 10672 N 1011.02 1.44971 -0.618145 0
M  V30 10673 C 1012.43 1.85611 -0.201334 0
M  V30 10674 C 1012.78 1.51698 1.24427 0
M  V30 10675 O 1011.91 0.94875 1.94493 0
M  V30 10676 C 1012.5 3.36897 -0.358619 0
M  V30 10677 C 1011.06 3.764 0.00358196 0
M  V30 10678 C 1010.21 2.68881 -0.678118 0
M  V30 10679 H 1013.16 1.35622 -0.824152 0
M  V30 10680 H 1013.18 3.78326 0.406176 0
M  V30 10681 H 1012.69 3.61548 -1.41084 0
M  V30 10682 H 1010.79 3.57365 1.05457 0
M  V30 10683 H 1010.91 4.77449 -0.397427 0
M  V30 10684 H 1009.27 2.54442 -0.114699 0
M  V30 10685 H 1010.05 2.96367 -1.73268 0
M  V30 10686 N 1012.5 0.357919 1.53482 0
M  V30 10687 C 1013.74 -0.23433 2.03052 0
M  V30 10688 C 1014.1 -1.46614 1.23969 0
M  V30 10689 O 1015.3 -2.13351 1.63508 0
M  V30 10690 C 1013.57 -0.526653 3.53498 0
M  V30 10691 S 1015.13 -1.09366 4.24952 0
M  V30 10692 H 1011.95 -0.0687848 0.707665 0
M  V30 10693 H 1014.55 0.499011 1.89024 0
M  V30 10694 H 1013.26 0.377463 4.0866 0
M  V30 10695 H 1012.79 -1.28927 3.71674 0
M  V30 10696 H 1014.8 -2.37845 4.35481 0
M  V30 10697 N 1013.98 -1.5736 0.0868897 0
M  V30 10698 C 1015.22 -1.95147 -0.573512 0
M  V30 10699 C 1015.58 -0.967591 -1.66299 0
M  V30 10700 O 1014.87 0.00774571 -1.91598 0
M  V30 10701 C 1015.06 -3.37316 -1.18123 0
M  V30 10702 C 1014.89 -4.49443 -0.152145 0
M  V30 10703 C 1013.66 -5.04586 0.268496 0
M  V30 10704 C 1015.86 -5.10592 0.616502 0
M  V30 10705 N 1013.84 -6.00264 1.28671 0
M  V30 10706 C 1015.21 -6.0191 1.48677 0
M  V30 10707 C 1017.27 -4.93359 0.67092 0
M  V30 10708 C 1015.97 -6.77844 2.40664 0
M  V30 10709 C 1018 -5.69949 1.57837 0
M  V30 10710 C 1017.36 -6.60927 2.43628 0
M  V30 10711 H 1013.46 -0.760898 -0.180439 0
M  V30 10712 H 1016.04 -1.93978 0.167548 0
M  V30 10713 H 1014.21 -3.39194 -1.89214 0
M  V30 10714 H 1015.95 -3.62301 -1.80332 0
M  V30 10715 H 1012.7 -4.73454 -0.117625 0
M  V30 10716 H 1013.13 -6.52804 1.79377 0
M  V30 10717 H 1017.77 -4.22794 0.0218207 0
M  V30 10718 H 1015.49 -7.47677 3.06603 0
M  V30 10719 H 1019.07 -5.58631 1.6255 0
M  V30 10720 H 1017.95 -7.19156 3.12705 0
M  V30 10721 N 1015.45 0.186762 -1.56489 0
M  V30 10722 C 1016.4 1.25084 -1.96104 0
M  V30 10723 C 1017.4 1.4667 -0.847609 0
M  V30 10724 O 1018.6 1.47432 -1.03266 0
M  V30 10725 H 1014.98 0.420121 -0.623701 0
M  V30 10726 H 1016.95 0.889761 -2.84826 0
M  V30 10727 C 1015.7 2.5863 -2.32392 0
M  V30 10728 H 1015.02 2.42838 -3.176 0
M  V30 10729 H 1016.46 3.3181 -2.63967 0
M  V30 10730 C 1014.92 3.16241 -1.16159 0
M  V30 10731 O 1015.45 3.99272 -0.441034 0
M  V30 10732 N 1013.66 2.75106 -0.936206 0
M  V30 10733 H 1013.2 2.0769 -1.5239 0
M  V30 10734 H 1013.16 3.13991 -0.160317 0
M  V30 10735 N 1016.93 1.50896 0.454776 0
M  V30 10736 C 1018.35 1.38684 0.78987 0
M  V30 10737 C 1018.55 0.455587 1.96282 0
M  V30 10738 O 1017.6 -0.0957503 2.52318 0
M  V30 10739 C 1018.92 2.80381 1.08661 0
M  V30 10740 C 1020.47 2.8941 1.19209 0
M  V30 10741 C 1020.94 4.31976 1.52187 0
M  V30 10742 N 1022.43 4.35002 1.59146 0
M  V30 10743 C 1023.17 5.42326 1.862 0
M  V30 10744 N 1022.66 6.59835 2.11164 0
M  V30 10745 N 1024.46 5.29786 1.87838 0
M  V30 10746 H 1016.61 2.10006 -0.317981 0
M  V30 10747 H 1018.87 0.944636 -0.0797969 0
M  V30 10748 H 1018.58 3.50438 0.297626 0
M  V30 10749 H 1018.45 3.18634 2.01872 0
M  V30 10750 H 1020.84 2.19561 1.97173 0
M  V30 10751 H 1020.92 2.54677 0.239401 0
M  V30 10752 H 1020.56 5.02368 0.747576 0
M  V30 10753 H 1020.49 4.64208 2.48633 0
M  V30 10754 H 1022.98 3.50276 1.41828 0
M  V30 10755 H 1023.3 7.37428 2.31128 0
M  V30 10756 H 1021.64 6.62981 2.08522 0
M  V30 10757 H 1024.83 4.36974 1.67843 0
M  V30 10758 H 1025 6.13511 2.08585 0
M  V30 10759 N 1018.41 -0.709066 1.40748 0
M  V30 10760 C 1019.34 -1.83583 1.4429 0
M  V30 10761 C 1020.32 -1.67378 0.303067 0
M  V30 10762 O 1021.51 -1.87312 0.512612 0
M  V30 10763 C 1018.64 -3.21599 1.31116 0
M  V30 10764 C 1017.59 -3.52486 2.4277 0
M  V30 10765 C 1016.92 -4.89716 2.14668 0
M  V30 10766 C 1018.22 -3.52824 3.85113 0
M  V30 10767 H 1019.91 -1.80876 2.38588 0
M  V30 10768 H 1017.46 -0.868795 1.14839 0
M  V30 10769 H 1019.41 -4.00123 1.32209 0
M  V30 10770 H 1018.13 -3.24898 0.332965 0
M  V30 10771 H 1016.79 -2.76305 2.40937 0
M  V30 10772 H 1016.44 -4.89625 1.15224 0
M  V30 10773 H 1016.14 -5.11347 2.89478 0
M  V30 10774 H 1017.66 -5.70566 2.17455 0
M  V30 10775 H 1019.08 -4.21377 3.88734 0
M  V30 10776 H 1017.48 -3.85984 4.59496 0
M  V30 10777 H 1018.55 -2.52073 4.14231 0
M  V30 10778 N 1019.89 -1.26353 -0.941956 0
M  V30 10779 C 1020.85 -1.07904 -2.02211 0
M  V30 10780 C 1021.85 -0.0276283 -1.60776 0
M  V30 10781 O 1023.04 -0.270965 -1.7208 0
M  V30 10782 C 1020.17 -0.641084 -3.34818 0
M  V30 10783 H 1021.37 -2.03804 -2.20009 0
M  V30 10784 H 1018.92 -1.08939 -1.12081 0
M  V30 10785 H 1019.66 0.319943 -3.22718 0
M  V30 10786 H 1019.44 -1.40027 -3.66244 0
M  V30 10787 H 1020.93 -0.533826 -4.14174 0
M  V30 10788 N 1021.37 1.14642 -1.08144 0
M  V30 10789 C 1022.3 2.19283 -0.6669 0
M  V30 10790 C 1023.31 1.60292 0.284668 0
M  V30 10791 O 1024.5 1.78352 0.0727383 0
M  V30 10792 C 1021.6 3.38877 0.0398572 0
M  V30 10793 C 1020.77 4.274 -0.929929 0
M  V30 10794 C 1019.83 5.25562 -0.258991 0
M  V30 10795 O 1018.86 5.61999 -0.902563 0
M  V30 10796 N 1020.06 5.71958 0.992177 0
M  V30 10797 H 1022.83 2.55464 -1.5671 0
M  V30 10798 H 1020.39 1.29836 -0.96717 0
M  V30 10799 H 1022.38 4.01605 0.499583 0
M  V30 10800 H 1020.95 3.01043 0.842118 0
M  V30 10801 H 1020.17 3.61649 -1.56857 0
M  V30 10802 H 1021.46 4.83411 -1.58717 0
M  V30 10803 H 1020.86 5.44481 1.53484 0
M  V30 10804 H 1019.41 6.36687 1.39544 0
M  V30 10805 N 1022.85 0.866709 1.31628 0
M  V30 10806 C 1024.26 0.558188 1.49521 0
M  V30 10807 C 1024.46 -0.90844 1.7986 0
M  V30 10808 O 1023.52 -1.6908 1.87531 0
M  V30 10809 C 1024.83 1.45559 2.63122 0
M  V30 10810 C 1026.38 1.45728 2.77006 0
M  V30 10811 C 1026.85 2.34017 3.937 0
M  V30 10812 N 1028.34 2.31879 4.00982 0
M  V30 10813 C 1029.08 2.96915 4.90539 0
M  V30 10814 N 1028.58 3.71109 5.85021 0
M  V30 10815 N 1030.37 2.86241 4.83759 0
M  V30 10816 H 1022.52 1.81574 1.10203 0
M  V30 10817 H 1024.78 0.77621 0.544244 0
M  V30 10818 H 1024.49 2.49904 2.47469 0
M  V30 10819 H 1024.36 1.15174 3.59186 0
M  V30 10820 H 1026.75 0.421419 2.92075 0
M  V30 10821 H 1026.83 1.80134 1.81619 0
M  V30 10822 H 1026.47 3.37678 3.79389 0
M  V30 10823 H 1026.4 1.96937 4.88388 0
M  V30 10824 H 1028.9 1.77948 3.33381 0
M  V30 10825 H 1029.21 4.1787 6.5008 0
M  V30 10826 H 1027.55 3.75217 5.8501 0
M  V30 10827 H 1030.74 2.27819 4.08921 0
M  V30 10828 H 1030.92 3.37206 5.5335 0
M  V30 10829 N 1024.32 -1.44642 0.625825 0
M  V30 10830 C 1025.55 -2.06159 0.13492 0
M  V30 10831 C 1025.96 -1.46801 -1.19357 0
M  V30 10832 O 1025.3 -0.583345 -1.74192 0
M  V30 10833 C 1025.37 -3.5945 -0.0598481 0
M  V30 10834 C 1025.03 -4.41244 1.18965 0
M  V30 10835 C 1026.03 -4.75064 2.11212 0
M  V30 10836 C 1023.71 -4.81705 1.42359 0
M  V30 10837 C 1025.71 -5.48221 3.25165 0
M  V30 10838 C 1023.39 -5.54612 2.5661 0
M  V30 10839 C 1024.39 -5.87789 3.4784 0
M  V30 10840 O 1024.08 -6.59213 4.60101 0
M  V30 10841 H 1023.81 -0.671888 0.0744464 0
M  V30 10842 H 1026.37 -1.86586 0.858775 0
M  V30 10843 H 1024.6 -3.77493 -0.838792 0
M  V30 10844 H 1026.28 -4.02751 -0.504639 0
M  V30 10845 H 1027.05 -4.44348 1.94371 0
M  V30 10846 H 1022.93 -4.55305 0.722401 0
M  V30 10847 H 1026.47 -5.74035 3.96396 0
M  V30 10848 H 1022.37 -5.84743 2.73396 0
M  V30 10849 H 1023.14 -6.77678 4.59015 0
M  V30 10850 N 1025.8 -0.366053 -1.5329 0
M  V30 10851 C 1026.73 0.47211 -2.28677 0
M  V30 10852 C 1027.71 1.08353 -1.31125 0
M  V30 10853 O 1028.9 1.10069 -1.59995 0
M  V30 10854 C 1026.03 1.61174 -3.07637 0
M  V30 10855 C 1024.98 1.12755 -4.12881 0
M  V30 10856 C 1024.31 2.35745 -4.79925 0
M  V30 10857 C 1025.61 0.211954 -5.2187 0
M  V30 10858 H 1027.3 -0.156838 -2.98989 0
M  V30 10859 H 1024.85 -0.0768709 -1.43795 0
M  V30 10860 H 1026.8 2.20473 -3.59123 0
M  V30 10861 H 1025.52 2.26793 -2.35016 0
M  V30 10862 H 1024.18 0.557234 -3.6234 0
M  V30 10863 H 1023.83 2.99821 -4.03877 0
M  V30 10864 H 1023.53 2.04019 -5.51044 0
M  V30 10865 H 1025.06 2.95729 -5.34207 0
M  V30 10866 H 1026.47 0.71244 -5.68856 0
M  V30 10867 H 1024.87 -0.0144501 -6.00098 0
M  V30 10868 H 1025.94 -0.745753 -4.79131 0
M  V30 10869 N 1027.28 1.57312 -0.0952337 0
M  V30 10870 C 1028.53 1.93533 0.568131 0
M  V30 10871 C 1028.84 0.979121 1.6933 0
M  V30 10872 O 1030.05 1.23506 2.41782 0
M  V30 10873 C 1028.5 3.43875 1.06198 0
M  V30 10874 C 1028.11 4.47988 -0.0334397 0
M  V30 10875 C 1029.86 3.89057 1.69807 0
M  V30 10876 C 1027.76 5.89483 0.475774 0
M  V30 10877 H 1026.69 0.7224 0.215995 0
M  V30 10878 H 1029.34 1.82699 -0.171257 0
M  V30 10879 H 1027.73 3.49862 1.85506 0
M  V30 10880 H 1028.9 4.53644 -0.808934 0
M  V30 10881 H 1027.21 4.12415 -0.574725 0
M  V30 10882 H 1029.81 4.92171 2.08978 0
M  V30 10883 H 1030.15 3.27713 2.5673 0
M  V30 10884 H 1030.69 3.85772 0.970815 0
M  V30 10885 H 1027.43 6.54528 -0.356837 0
M  V30 10886 H 1026.95 5.87297 1.21827 0
M  V30 10887 H 1028.63 6.40066 0.944697 0
M  V30 10888 N 1028.76 -0.17846 1.56586 0
M  V30 10889 C 1030 -0.892915 1.82753 0
M  V30 10890 C 1030.36 -1.8018 0.674744 0
M  V30 10891 O 1029.65 -1.8875 -0.329219 0
M  V30 10892 C 1029.85 -1.73063 3.12704 0
M  V30 10893 C 1029.67 -0.904341 4.40513 0
M  V30 10894 C 1028.44 -0.582221 5.01935 0
M  V30 10895 C 1030.64 -0.249232 5.13696 0
M  V30 10896 N 1028.62 0.260955 6.13345 0
M  V30 10897 C 1030 0.455417 6.18325 0
M  V30 10898 C 1032.05 -0.166663 4.97621 0
M  V30 10899 C 1030.75 1.23479 7.08622 0
M  V30 10900 C 1032.78 0.599362 5.88355 0
M  V30 10901 C 1032.14 1.2924 6.92442 0
M  V30 10902 H 1028.24 -0.30559 0.719818 0
M  V30 10903 H 1030.82 -0.160405 1.94038 0
M  V30 10904 H 1029 -2.43461 3.02624 0
M  V30 10905 H 1030.73 -2.38584 3.26894 0
M  V30 10906 H 1027.48 -0.910612 4.64763 0
M  V30 10907 H 1027.91 0.672643 6.7365 0
M  V30 10908 H 1032.55 -0.688116 4.17163 0
M  V30 10909 H 1030.27 1.76762 7.88531 0
M  V30 10910 H 1033.85 0.664826 5.77989 0
M  V30 10911 H 1032.73 1.87564 7.61439 0
M  V30 10912 N 1030.24 -1.51135 -0.446768 0
M  V30 10913 C 1031.15 -1.74595 -1.56696 0
M  V30 10914 C 1032.16 -0.629816 -1.62201 0
M  V30 10915 O 1033.34 -0.910987 -1.79619 0
M  V30 10916 C 1030.4 -1.85738 -2.9275 0
M  V30 10917 C 1029.46 -3.09564 -2.97437 0
M  V30 10918 C 1028.7 -3.20165 -4.27001 0
M  V30 10919 O 1028.92 -2.36939 -5.1886 0
M  V30 10920 O 1027.85 -4.13077 -4.3778 0
M  V30 10921 H 1031.68 -2.69601 -1.39817 0
M  V30 10922 H 1029.26 -1.35523 -0.628805 0
M  V30 10923 H 1031.15 -1.95107 -3.73512 0
M  V30 10924 H 1029.82 -0.939184 -3.09776 0
M  V30 10925 H 1028.73 -3.05679 -2.15664 0
M  V30 10926 H 1030.06 -4.01041 -2.85353 0
M  V30 10927 N 1031.71 0.701592 -1.41122 0
M  V30 10928 C 1032.95 1.4739 -1.41618 0
M  V30 10929 C 1033.32 1.91987 -0.0219443 0
M  V30 10930 O 1034.52 2.6862 0.0982793 0
M  V30 10931 C 1032.79 2.65745 -2.38986 0
M  V30 10932 S 1034.35 3.54968 -2.5796 0
M  V30 10933 H 1031.17 0.503742 -0.501762 0
M  V30 10934 H 1033.77 0.819186 -1.77509 0
M  V30 10935 H 1032.47 2.31176 -3.39096 0
M  V30 10936 H 1032 3.36115 -2.04426 0
M  V30 10937 H 1034.02 4.60724 -1.84249 0
M  V30 10938 N 1033.19 1.2685 0.935242 0
M  V30 10939 C 1034.43 1.13972 1.69675 0
M  V30 10940 C 1034.8 -0.310655 1.8947 0
M  V30 10941 O 1036 -0.561692 2.62866 0
M  V30 10942 C 1034.27 1.89387 3.03096 0
M  V30 10943 S 1035.83 1.92633 3.94256 0
M  V30 10944 H 1032.64 0.407009 0.582979 0
M  V30 10945 H 1035.25 1.60653 1.11404 0
M  V30 10946 H 1033.95 2.9397 2.86374 0
M  V30 10947 H 1033.48 1.43171 3.66423 0
M  V30 10948 H 1035.5 1.01732 4.85659 0
M  V30 10949 N 1034.67 -1.14067 1.0875 0
M  V30 10950 C 1036.08 -1.66747 0.839778 0
M  V30 10951 C 1036.43 -1.85711 -0.632909 0
M  V30 10952 O 1035.56 -1.57084 -1.48841 0
M  V30 10953 C 1036.15 -3.02896 1.51787 0
M  V30 10954 C 1034.71 -3.52596 1.3173 0
M  V30 10955 C 1033.86 -2.27994 1.57841 0
M  V30 10956 H 1036.81 -0.980838 1.24761 0
M  V30 10957 H 1036.83 -3.68526 0.947057 0
M  V30 10958 H 1036.34 -2.89062 2.58969 0
M  V30 10959 H 1034.44 -3.71647 0.266339 0
M  V30 10960 H 1034.56 -4.33151 2.04736 0
M  V30 10961 H 1032.92 -2.34241 1.00015 0
M  V30 10962 H 1033.7 -2.16732 2.66237 0
M  V30 10963 N 1036.15 -0.873678 -1.31166 0
M  V30 10964 C 1037.08 -0.348011 -2.30892 0
M  V30 10965 C 1038.06 0.563092 -1.60509 0
M  V30 10966 O 1039.24 0.479332 -1.88192 0
M  V30 10967 C 1036.37 0.448158 -3.44396 0
M  V30 10968 C 1035.33 -0.370179 -4.26396 0
M  V30 10969 C 1034.65 0.551903 -5.31844 0
M  V30 10970 C 1035.95 -1.60624 -4.96988 0
M  V30 10971 H 1037.65 -1.18134 -2.75109 0
M  V30 10972 H 1035.19 -0.569502 -1.3226 0
M  V30 10973 H 1037.15 0.826458 -4.13216 0
M  V30 10974 H 1035.87 1.31503 -2.98956 0
M  V30 10975 H 1034.53 -0.730472 -3.59249 0
M  V30 10976 H 1034.18 1.41616 -4.82653 0
M  V30 10977 H 1033.88 0.00823478 -5.87599 0
M  V30 10978 H 1035.4 0.926965 -6.03523 0
M  V30 10979 H 1036.82 -1.29917 -5.58386 0
M  V30 10980 H 1035.21 -2.08926 -5.62557 0
M  V30 10981 H 1036.28 -2.357 -4.23761 0
M  V30 10982 N 1037.63 1.44308 -0.633487 0
M  V30 10983 C 1038.87 2.02863 -0.14765 0
M  V30 10984 C 1039.23 1.48956 1.21778 0
M  V30 10985 O 1038.52 0.664997 1.7969 0
M  V30 10986 C 1038.71 3.57316 -0.0773886 0
M  V30 10987 C 1038.54 4.26208 -1.43446 0
M  V30 10988 C 1037.31 4.63087 -2.02184 0
M  V30 10989 C 1039.51 4.56501 -2.36879 0
M  V30 10990 N 1037.49 5.16957 -3.31102 0
M  V30 10991 C 1038.86 5.11479 -3.50413 0
M  V30 10992 C 1040.92 4.38454 -2.35929 0
M  V30 10993 C 1039.62 5.50311 -4.63196 0
M  V30 10994 C 1041.65 4.78336 -3.47777 0
M  V30 10995 C 1041.01 5.3343 -4.60035 0
M  V30 10996 H 1037.11 0.775835 -0.0980038 0
M  V30 10997 H 1039.69 1.75767 -0.837495 0
M  V30 10998 H 1037.86 3.84019 0.581743 0
M  V30 10999 H 1039.6 4.02541 0.417494 0
M  V30 11000 H 1036.35 4.47482 -1.55103 0
M  V30 11001 H 1036.78 5.48366 -3.97019 0
M  V30 11002 H 1041.42 3.9515 -1.50387 0
M  V30 11003 H 1039.14 5.92568 -5.49444 0
M  V30 11004 H 1042.72 4.66084 -3.4822 0
M  V30 11005 H 1041.6 5.63719 -5.45151 0
M  V30 11006 N 1039.1 0.374177 1.53094 0
M  V30 11007 C 1040.04 -0.511995 2.22382 0
M  V30 11008 C 1041.02 -1.07617 1.2189 0
M  V30 11009 O 1042.2 -1.13068 1.50824 0
M  V30 11010 C 1039.33 -1.70724 2.92525 0
M  V30 11011 C 1038.37 -1.26972 4.07161 0
M  V30 11012 S 1039.21 -0.263835 5.3485 0
M  V30 11013 C 1040.36 -1.46521 6.08508 0
M  V30 11014 H 1040.59 0.0764311 2.97202 0
M  V30 11015 H 1038.13 0.158307 1.53586 0
M  V30 11016 H 1040.09 -2.39279 3.3355 0
M  V30 11017 H 1038.75 -2.26693 2.17414 0
M  V30 11018 H 1037.94 -2.16172 4.55286 0
M  V30 11019 H 1037.54 -0.663273 3.68072 0
M  V30 11020 H 1039.83 -2.39483 6.33762 0
M  V30 11021 H 1040.78 -1.02517 7.0064 0
M  V30 11022 H 1041.18 -1.67516 5.39072 0
M  V30 11023 N 1040.58 -1.57259 0.103575 0
M  V30 11024 C 1041.81 -1.99424 -0.569638 0
M  V30 11025 C 1042.23 -0.982475 -1.60403 0
M  V30 11026 O 1041.59 0.0479231 -1.81237 0
M  V30 11027 C 1041.64 -3.40527 -1.18633 0
M  V30 11028 O 1040.74 -3.42167 -2.30208 0
M  V30 11029 H 1040.08 -0.648251 -0.143759 0
M  V30 11030 H 1042.61 -2.03739 0.187493 0
M  V30 11031 H 1042.62 -3.78404 -1.5256 0
M  V30 11032 H 1041.3 -4.13686 -0.428582 0
M  V30 11033 H 1039.88 -3.16093 -1.97837 0
M  V30 11034 N 1042.06 0.170153 -1.56679 0
M  V30 11035 C 1043.31 0.884902 -1.81252 0
M  V30 11036 C 1043.62 1.83361 -0.681024 0
M  V30 11037 O 1044.83 2.59082 -0.811722 0
M  V30 11038 C 1043.28 1.62408 -3.21172 0
M  V30 11039 C 1042.89 0.718947 -4.42194 0
M  V30 11040 C 1044.64 2.32699 -3.55037 0
M  V30 11041 C 1042.54 1.45843 -5.73135 0
M  V30 11042 H 1041.47 0.33418 -0.675899 0
M  V30 11043 H 1044.12 0.137818 -1.82982 0
M  V30 11044 H 1042.51 2.41596 -3.13763 0
M  V30 11045 H 1043.68 -0.0360521 -4.60786 0
M  V30 11046 H 1042 0.125634 -4.1621 0
M  V30 11047 H 1044.59 2.88621 -4.50114 0
M  V30 11048 H 1044.94 3.08092 -2.79974 0
M  V30 11049 H 1045.47 1.60453 -3.64005 0
M  V30 11050 H 1042.21 0.746799 -6.51232 0
M  V30 11051 H 1041.73 2.18672 -5.58518 0
M  V30 11052 H 1043.41 2.0056 -6.1513 0
M  V30 11053 N 1043.54 1.5137 0.438746 0
M  V30 11054 C 1044.49 1.72582 1.53245 0
M  V30 11055 C 1045.46 0.567488 1.56105 0
M  V30 11056 O 1046.64 0.80176 1.73137 0
M  V30 11057 C 1043.78 1.85551 2.90972 0
M  V30 11058 C 1042.89 3.13094 2.97652 0
M  V30 11059 C 1042.03 3.16666 4.26493 0
M  V30 11060 C 1041.07 4.38529 4.27035 0
M  V30 11061 N 1040.2 4.39659 5.47398 0
M  V30 11062 H 1045.04 2.65941 1.3446 0
M  V30 11063 H 1042.58 1.31801 0.653206 0
M  V30 11064 H 1044.54 1.91053 3.70884 0
M  V30 11065 H 1043.17 0.956025 3.08318 0
M  V30 11066 H 1042.22 3.16909 2.10412 0
M  V30 11067 H 1043.53 4.03009 2.93914 0
M  V30 11068 H 1042.69 3.21075 5.14777 0
M  V30 11069 H 1041.43 2.24637 4.32885 0
M  V30 11070 H 1040.43 4.34297 3.37144 0
M  V30 11071 H 1041.66 5.31821 4.22307 0
M  V30 11072 H 1039.6 3.50499 5.54514 0
M  V30 11073 H 1039.52 5.23382 5.45534 0
M  V30 11074 H 1040.79 4.48259 6.37718 0
M  V30 11075 N 1045.02 -0.694098 1.41492 0
M  V30 11076 C 1045.95 -1.81943 1.39389 0
M  V30 11077 C 1046.96 -1.6009 0.295836 0
M  V30 11078 O 1048.15 -1.69565 0.557658 0
M  V30 11079 C 1045.25 -3.18731 1.15167 0
M  V30 11080 C 1044.42 -3.67601 2.37041 0
M  V30 11081 C 1043.48 -4.83063 2.08654 0
M  V30 11082 O 1042.51 -4.94603 2.81704 0
M  V30 11083 N 1043.71 -5.70409 1.0777 0
M  V30 11084 H 1046.48 -1.84239 2.36381 0
M  V30 11085 H 1044.04 -0.876475 1.36123 0
M  V30 11086 H 1046.03 -3.93602 0.941264 0
M  V30 11087 H 1044.6 -3.11452 0.267673 0
M  V30 11088 H 1043.82 -2.83622 2.73774 0
M  V30 11089 H 1045.11 -3.96991 3.18239 0
M  V30 11090 H 1044.5 -5.63718 0.473123 0
M  V30 11091 H 1043.06 -6.45172 0.927177 0
M  V30 11092 N 1046.49 -1.27344 -0.928501 0
M  V30 11093 C 1047.74 -1.13411 -1.67279 0
M  V30 11094 C 1048.06 0.320698 -1.92345 0
M  V30 11095 O 1047.33 1.2245 -1.52915 0
M  V30 11096 H 1045.91 -0.416712 -0.619968 0
M  V30 11097 H 1048.58 -1.5986 -1.11493 0
M  V30 11098 H 1047.67 -1.66256 -2.64131 0
M  V30 11099 N 1047.97 1.13488 -1.09353 0
M  V30 11100 C 1049.22 1.85022 -0.830354 0
M  V30 11101 C 1049.55 1.83266 0.64242 0
M  V30 11102 O 1048.83 1.27024 1.47293 0
M  V30 11103 C 1049.11 3.33218 -1.36521 0
M  V30 11104 C 1048.96 3.43491 -2.90404 0
M  V30 11105 C 1050.28 4.28626 -0.998381 0
M  V30 11106 H 1047.4 0.671786 -0.303105 0
M  V30 11107 H 1050.04 1.33211 -1.3548 0
M  V30 11108 H 1048.19 3.77471 -0.919117 0
M  V30 11109 H 1049.86 3.07954 -3.43456 0
M  V30 11110 H 1048.11 2.84391 -3.27573 0
M  V30 11111 H 1048.78 4.47702 -3.22905 0
M  V30 11112 H 1051.25 3.9244 -1.38311 0
M  V30 11113 H 1050.13 5.30754 -1.39968 0
M  V30 11114 H 1050.39 4.42001 0.093517 0
M  V30 11115 N 1049.45 0.880621 1.30701 0
M  V30 11116 C 1050.4 0.342397 2.28246 0
M  V30 11117 C 1051.37 -0.565023 1.56194 0
M  V30 11118 O 1052.55 -0.494377 1.84284 0
M  V30 11119 C 1049.69 -0.440859 3.42272 0
M  V30 11120 C 1048.81 0.495284 4.29151 0
M  V30 11121 C 1047.94 -0.303141 5.30334 0
M  V30 11122 C 1046.98 0.628751 6.08862 0
M  V30 11123 N 1046.12 -0.13408 7.01972 0
M  V30 11124 H 1050.96 1.17938 2.73669 0
M  V30 11125 H 1048.49 0.59296 1.34619 0
M  V30 11126 H 1050.45 -0.910854 4.07135 0
M  V30 11127 H 1049.08 -1.24245 2.97931 0
M  V30 11128 H 1048.13 1.08376 3.64635 0
M  V30 11129 H 1049.45 1.2094 4.83916 0
M  V30 11130 H 1048.6 -0.835181 6.00924 0
M  V30 11131 H 1047.34 -1.05049 4.76252 0
M  V30 11132 H 1046.34 1.17246 5.37153 0
M  V30 11133 H 1047.57 1.37512 6.65032 0
M  V30 11134 H 1045.52 -0.864046 6.50285 0
M  V30 11135 H 1045.43 0.520486 7.54206 0
M  V30 11136 H 1046.7 -0.647005 7.7681 0
M  V30 11137 N 1050.93 -1.4397 0.641131 0
M  V30 11138 C 1051.86 -2.33458 -0.04446 0
M  V30 11139 C 1052.84 -1.48781 -0.824507 0
M  V30 11140 O 1054.03 -1.77477 -0.788397 0
M  V30 11141 C 1051.16 -3.31989 -1.01984 0
M  V30 11142 C 1050.11 -4.2656 -0.350745 0
M  V30 11143 C 1049.44 -5.15036 -1.43673 0
M  V30 11144 C 1050.74 -5.16897 0.749299 0
M  V30 11145 H 1052.43 -2.91034 0.702832 0
M  V30 11146 H 1049.98 -1.39942 0.339435 0
M  V30 11147 H 1051.93 -3.93483 -1.50828 0
M  V30 11148 H 1050.65 -2.72643 -1.79815 0
M  V30 11149 H 1049.31 -3.66413 0.117139 0
M  V30 11150 H 1048.96 -4.52037 -2.20617 0
M  V30 11151 H 1048.66 -5.79125 -0.994358 0
M  V30 11152 H 1050.18 -5.79403 -1.92678 0
M  V30 11153 H 1051.6 -5.7227 0.343534 0
M  V30 11154 H 1049.99 -5.89643 1.11541 0
M  V30 11155 H 1051.06 -4.5731 1.61232 0
M  V30 11156 N 1052.41 -0.382291 -1.52893 0
M  V30 11157 C 1053.65 0.202433 -2.01787 0
M  V30 11158 C 1053.99 1.47044 -1.26853 0
M  V30 11159 O 1053.26 1.91007 -0.366969 0
M  V30 11160 C 1053.54 0.477471 -3.5692 0
M  V30 11161 C 1053.4 -0.805339 -4.42532 0
M  V30 11162 C 1054.72 1.27106 -4.21346 0
M  V30 11163 H 1051.84 0.0720998 -0.733465 0
M  V30 11164 H 1054.48 -0.510478 -1.83014 0
M  V30 11165 H 1052.63 1.08478 -3.73048 0
M  V30 11166 H 1054.3 -1.4424 -4.3817 0
M  V30 11167 H 1052.54 -1.42216 -4.09826 0
M  V30 11168 H 1053.21 -0.567635 -5.49074 0
M  V30 11169 H 1055.69 0.757161 -4.09153 0
M  V30 11170 H 1054.57 1.43225 -5.29885 0
M  V30 11171 H 1054.83 2.28431 -3.78513 0
M  V30 11172 N 1053.89 1.57202 -0.111913 0
M  V30 11173 C 1055.13 1.95239 0.548607 0
M  V30 11174 C 1055.46 0.994897 1.6678 0
M  V30 11175 O 1054.74 0.0308603 1.94476 0
M  V30 11176 C 1055.02 3.43271 1.08798 0
M  V30 11177 C 1054.88 4.49792 -0.0273064 0
M  V30 11178 C 1056.19 3.92989 1.98109 0
M  V30 11179 H 1053.31 0.709919 0.197951 0
M  V30 11180 H 1055.96 1.89087 -0.186036 0
M  V30 11181 H 1054.11 3.48644 1.71404 0
M  V30 11182 H 1055.78 4.56521 -0.662302 0
M  V30 11183 H 1054.02 4.28254 -0.691426 0
M  V30 11184 H 1054.69 5.50612 0.391201 0
M  V30 11185 H 1057.17 3.89875 1.45385 0
M  V30 11186 H 1056.04 4.97101 2.32769 0
M  V30 11187 H 1056.3 3.33267 2.90492 0
M  V30 11188 N 1055.36 -0.161842 1.56767 0
M  V30 11189 C 1056.3 -1.22927 1.9226 0
M  V30 11190 C 1057.27 -1.42309 0.786562 0
M  V30 11191 O 1058.46 -1.57163 1.04078 0
M  V30 11192 C 1055.59 -2.59069 2.18177 0
M  V30 11193 C 1054.63 -2.56368 3.40849 0
M  V30 11194 S 1055.46 -2.04518 4.94907 0
M  V30 11195 C 1056.62 -3.42418 5.23928 0
M  V30 11196 H 1056.85 -0.926377 2.82499 0
M  V30 11197 H 1054.39 -0.366822 1.49979 0
M  V30 11198 H 1056.34 -3.37421 2.33789 0
M  V30 11199 H 1055.01 -2.86554 1.28629 0
M  V30 11200 H 1054.2 -3.56551 3.56213 0
M  V30 11201 H 1053.8 -1.86116 3.24402 0
M  V30 11202 H 1056.09 -4.38461 5.16486 0
M  V30 11203 H 1057.04 -3.3192 6.25487 0
M  V30 11204 H 1057.44 -3.38868 4.51474 0
M  V30 11205 N 1056.84 -1.516 -0.430713 0
M  V30 11206 C 1058.12 -1.55142 -1.19123 0
M  V30 11207 C 1058.5 -0.319596 -2.08667 0
M  V30 11208 O 1057.85 0.694927 -2.17676 0
M  V30 11209 C 1058.06 -2.86891 -1.98732 0
M  V30 11210 C 1059.4 -3.39089 -2.55546 0
M  V30 11211 O 1060.43 -2.88486 -2.08936 0
M  V30 11212 O 1059.29 -4.27401 -3.40574 0
M  V30 11213 H 1056.38 -0.624019 -0.542705 0
M  V30 11214 H 1058.93 -1.63917 -0.439244 0
M  V30 11215 H 1057.7 -3.68002 -1.33005 0
M  V30 11216 H 1057.32 -2.81309 -2.80982 0
M  V30 11217 N 1058.32 0.686584 -1.41858 0
M  V30 11218 C 1059.73 1.26682 -1.37145 0
M  V30 11219 C 1060.08 1.96112 -0.058922 0
M  V30 11220 O 1059.21 1.99321 0.842629 0
M  V30 11221 C 1059.8 2.30383 -2.48413 0
M  V30 11222 C 1058.36 2.83961 -2.47069 0
M  V30 11223 C 1057.51 1.58119 -2.27802 0
M  V30 11224 H 1060.46 0.480742 -1.51243 0
M  V30 11225 H 1060.48 3.11868 -2.17987 0
M  V30 11226 H 1059.99 1.79822 -3.43927 0
M  V30 11227 H 1058.09 3.38675 -1.55338 0
M  V30 11228 H 1058.21 3.3378 -3.43697 0
M  V30 11229 H 1056.57 1.84258 -1.75844 0
M  V30 11230 H 1057.35 1.09541 -3.25355 0
M  V30 11231 N 1059.8 1.27835 0.921735 0
M  V30 11232 C 1061.04 1.14523 1.67005 0
M  V30 11233 C 1061.37 -0.307776 1.92049 0
M  V30 11234 O 1060.63 -1.24103 1.51317 0
M  V30 11235 C 1060.93 1.88054 3.03925 0
M  V30 11236 C 1060.59 3.37886 2.9857 0
M  V30 11237 C 1059.25 3.78752 2.96817 0
M  V30 11238 C 1061.61 4.33462 2.89414 0
M  V30 11239 C 1058.93 5.13549 2.83698 0
M  V30 11240 C 1061.29 5.68322 2.77836 0
M  V30 11241 C 1059.95 6.08475 2.74436 0
M  V30 11242 H 1059.22 0.419068 0.611116 0
M  V30 11243 H 1061.87 1.58515 1.07449 0
M  V30 11244 H 1060.17 1.36587 3.67221 0
M  V30 11245 H 1061.87 1.75176 3.60714 0
M  V30 11246 H 1058.46 3.05389 3.00725 0
M  V30 11247 H 1062.64 4.02857 2.89862 0
M  V30 11248 H 1057.9 5.43796 2.79456 0
M  V30 11249 H 1062.07 6.42048 2.69717 0
M  V30 11250 H 1059.7 7.12877 2.64027 0
M  V30 11251 N 1061.28 -1.12907 1.09954 0
M  V30 11252 C 1062.5 -1.88138 0.860905 0
M  V30 11253 C 1062.92 -1.79402 -0.588256 0
M  V30 11254 O 1062.28 -1.16442 -1.40526 0
M  V30 11255 C 1062.33 -3.37537 1.29425 0
M  V30 11256 O 1062.05 -3.46056 2.68658 0
M  V30 11257 C 1063.55 -4.29721 1.08879 0
M  V30 11258 H 1060.77 -0.595437 0.309347 0
M  V30 11259 H 1063.31 -1.42894 1.46292 0
M  V30 11260 H 1061.47 -3.80344 0.736009 0
M  V30 11261 H 1061.88 -4.38969 2.87065 0
M  V30 11262 H 1063.36 -5.32854 1.4412 0
M  V30 11263 H 1063.83 -4.39192 0.0270053 0
M  V30 11264 H 1064.44 -3.9269 1.63325 0
M  V30 11265 N 1062.75 -0.88754 -1.30232 0
M  V30 11266 C 1064.03 -0.427249 -1.90877 0
M  V30 11267 C 1064.41 1.0922 -1.80649 0
M  V30 11268 O 1063.76 1.92866 -1.22536 0
M  V30 11269 C 1063.97 -0.928219 -3.3643 0
M  V30 11270 C 1065.32 -0.964706 -4.13496 0
M  V30 11271 O 1066.34 -0.875057 -3.45284 0
M  V30 11272 O 1065.2 -1.09754 -5.35366 0
M  V30 11273 H 1062.29 -0.131107 -0.816541 0
M  V30 11274 H 1064.84 -0.976609 -1.38782 0
M  V30 11275 H 1063.61 -1.97209 -3.37971 0
M  V30 11276 H 1063.23 -0.358169 -3.95983 0
M  V30 11277 N 1064.23 1.43628 -0.648757 0
M  V30 11278 C 1065.16 2.33478 0.0320785 0
M  V30 11279 C 1066.14 1.49217 0.816605 0
M  V30 11280 O 1067.33 1.77892 0.778974 0
M  V30 11281 C 1064.46 3.32525 1.00222 0
M  V30 11282 C 1063.41 4.2674 0.328119 0
M  V30 11283 C 1062.74 5.15791 1.4094 0
M  V30 11284 C 1064.04 5.16493 -0.776701 0
M  V30 11285 H 1065.73 2.90657 -0.718257 0
M  V30 11286 H 1063.28 1.3976 -0.346852 0
M  V30 11287 H 1065.23 3.94277 1.4874 0
M  V30 11288 H 1063.96 2.73593 1.78366 0
M  V30 11289 H 1062.61 3.66346 -0.136569 0
M  V30 11290 H 1062.26 4.53201 2.18216 0
M  V30 11291 H 1061.96 5.79645 0.963631 0
M  V30 11292 H 1063.49 5.80416 1.89603 0
M  V30 11293 H 1064.9 5.7208 -0.373878 0
M  V30 11294 H 1063.3 5.89043 -1.14667 0
M  V30 11295 H 1064.37 4.56448 -1.63654 0
M  V30 11296 N 1065.71 0.390394 1.52688 0
M  V30 11297 C 1066.94 -0.191485 2.06012 0
M  V30 11298 C 1067.35 -1.40422 1.26202 0
M  V30 11299 O 1066.71 -1.79866 0.308963 0
M  V30 11300 C 1066.76 -0.560521 3.57128 0
M  V30 11301 O 1066.48 0.60404 4.33916 0
M  V30 11302 C 1067.98 -1.19814 4.26801 0
M  V30 11303 H 1065.2 -0.0286311 0.670389 0
M  V30 11304 H 1067.75 0.555939 1.96798 0
M  V30 11305 H 1065.9 -1.25784 3.66411 0
M  V30 11306 H 1066.32 0.300467 5.23639 0
M  V30 11307 H 1067.79 -1.40672 5.33775 0
M  V30 11308 H 1068.27 -2.16582 3.82085 0
M  V30 11309 H 1068.87 -0.541558 4.21838 0
M  V30 11310 N 1067.19 -1.57141 0.120249 0
M  V30 11311 C 1068.44 -1.94413 -0.53727 0
M  V30 11312 C 1068.75 -1.00594 -1.67751 0
M  V30 11313 O 1069.96 -1.27336 -2.39787 0
M  V30 11314 C 1068.41 -3.45521 -1.00714 0
M  V30 11315 C 1068.02 -4.47878 0.104706 0
M  V30 11316 C 1069.76 -3.9171 -1.63596 0
M  V30 11317 C 1067.67 -5.90165 -0.381932 0
M  V30 11318 H 1066.6 -0.725745 -0.204475 0
M  V30 11319 H 1069.25 -1.82404 0.200302 0
M  V30 11320 H 1067.63 -3.52769 -1.79917 0
M  V30 11321 H 1068.81 -4.523 0.881002 0
M  V30 11322 H 1067.12 -4.11448 0.640264 0
M  V30 11323 H 1069.72 -4.95433 -2.01122 0
M  V30 11324 H 1070.06 -3.31756 -2.51483 0
M  V30 11325 H 1070.6 -3.87268 -0.909319 0
M  V30 11326 H 1067.34 -6.53877 0.460921 0
M  V30 11327 H 1066.86 -5.89161 -1.12468 0
M  V30 11328 H 1068.53 -6.41488 -0.842748 0
M  V30 11329 N 1068.67 0.153526 -1.5685 0
M  V30 11330 C 1069.89 0.882335 -1.87143 0
M  V30 11331 C 1070.31 1.75034 -0.707702 0
M  V30 11332 O 1069.67 1.79624 0.32273 0
M  V30 11333 C 1069.72 1.74444 -3.16625 0
M  V30 11334 O 1069.44 0.911419 -4.28515 0
M  V30 11335 C 1070.94 2.58139 -3.60388 0
M  V30 11336 H 1068.16 0.25546 -0.620469 0
M  V30 11337 H 1070.7 0.148275 -2.03962 0
M  V30 11338 H 1068.86 2.43163 -3.0158 0
M  V30 11339 H 1069.27 1.50268 -5.02513 0
M  V30 11340 H 1070.75 3.14215 -4.53842 0
M  V30 11341 H 1071.22 3.33865 -2.85361 0
M  V30 11342 H 1071.83 1.94721 -3.78105 0
M  V30 11343 N 1070.14 1.51827 0.422667 0
M  V30 11344 C 1071.08 1.68901 1.53453 0
M  V30 11345 C 1072.06 0.536549 1.53492 0
M  V30 11346 O 1073.24 0.762226 1.72402 0
M  V30 11347 C 1070.37 1.71599 2.92013 0
M  V30 11348 C 1069.41 2.92984 3.0994 0
M  V30 11349 S 1070.25 4.53559 2.84683 0
M  V30 11350 C 1071.4 4.59024 4.25498 0
M  V30 11351 H 1071.63 2.62943 1.38739 0
M  V30 11352 H 1069.17 1.41695 0.613347 0
M  V30 11353 H 1071.13 1.73838 3.71874 0
M  V30 11354 H 1069.79 0.787083 3.04079 0
M  V30 11355 H 1068.98 2.91315 4.1128 0
M  V30 11356 H 1068.58 2.88562 2.37924 0
M  V30 11357 H 1070.87 4.35567 5.18929 0
M  V30 11358 H 1071.82 5.60904 4.32195 0
M  V30 11359 H 1072.22 3.88193 4.09837 0
M  V30 11360 N 1071.62 -0.679052 1.4222 0
M  V30 11361 C 1072.86 -1.45118 1.43945 0
M  V30 11362 C 1073.23 -1.91928 0.0524851 0
M  V30 11363 O 1074.43 -2.68743 -0.0555318 0
M  V30 11364 C 1072.7 -2.6191 2.43183 0
M  V30 11365 S 1074.26 -3.50819 2.63574 0
M  V30 11366 H 1071.08 -0.495695 0.509713 0
M  V30 11367 H 1073.68 -0.790842 1.7879 0
M  V30 11368 H 1072.38 -2.25752 3.42731 0
M  V30 11369 H 1071.91 -3.3282 2.09748 0
M  V30 11370 H 1073.93 -4.57735 1.91555 0
M  V30 11371 N 1073.1 -1.28322 -0.914942 0
M  V30 11372 C 1074.35 -1.14785 -1.65853 0
M  V30 11373 C 1074.66 0.303135 -1.93237 0
M  V30 11374 O 1075.87 0.559606 -2.6567 0
M  V30 11375 C 1074.32 -2.00652 -2.98776 0
M  V30 11376 C 1073.93 -3.50483 -2.79044 0
M  V30 11377 C 1075.68 -1.95798 -3.76648 0
M  V30 11378 C 1073.58 -4.28505 -4.076 0
M  V30 11379 H 1072.51 -0.425987 -0.622135 0
M  V30 11380 H 1075.16 -1.52844 -1.01543 0
M  V30 11381 H 1073.55 -1.55447 -3.64214 0
M  V30 11382 H 1074.72 -4.03636 -2.22293 0
M  V30 11383 H 1073.04 -3.5685 -2.14586 0
M  V30 11384 H 1075.63 -2.51359 -4.71935 0
M  V30 11385 H 1075.98 -0.934455 -4.05677 0
M  V30 11386 H 1076.51 -2.38965 -3.18026 0
M  V30 11387 H 1073.25 -5.31433 -3.83744 0
M  V30 11388 H 1072.77 -3.80125 -4.63966 0
M  V30 11389 H 1074.45 -4.3836 -4.75867 0
M  V30 11390 N 1074.58 1.12322 -1.10551 0
M  V30 11391 C 1075.82 1.8413 -0.849932 0
M  V30 11392 C 1076.16 1.83938 0.622946 0
M  V30 11393 O 1075.43 1.28579 1.45937 0
M  V30 11394 C 1075.72 3.31751 -1.40048 0
M  V30 11395 C 1075.57 3.40391 -2.9403 0
M  V30 11396 C 1076.89 4.27543 -1.04379 0
M  V30 11397 H 1074.01 0.668533 -0.310213 0
M  V30 11398 H 1076.65 1.31766 -1.36886 0
M  V30 11399 H 1074.8 3.76475 -0.959102 0
M  V30 11400 H 1076.47 3.04294 -3.46703 0
M  V30 11401 H 1074.71 2.809 -3.30571 0
M  V30 11402 H 1075.38 4.44252 -3.27635 0
M  V30 11403 H 1077.86 3.90951 -1.42466 0
M  V30 11404 H 1076.74 5.2924 -1.4559 0
M  V30 11405 H 1077 4.42075 0.0466316 0
M  V30 11406 N 1076.06 0.894434 1.2976 0
M  V30 11407 C 1076.99 0.3847 2.30309 0
M  V30 11408 C 1077.97 -0.537486 1.61385 0
M  V30 11409 O 1079.15 -0.449332 1.8893 0
M  V30 11410 C 1076.28 -0.393311 3.45066 0
M  V30 11411 C 1075.24 0.437968 4.25753 0
M  V30 11412 C 1074.56 -0.467221 5.32655 0
M  V30 11413 C 1075.86 1.6851 4.9437 0
M  V30 11414 H 1077.56 1.22496 2.73194 0
M  V30 11415 H 1075.1 0.590471 1.31337 0
M  V30 11416 H 1077.06 -0.760614 4.14479 0
M  V30 11417 H 1075.78 -1.2673 3.0101 0
M  V30 11418 H 1074.44 0.787533 3.58041 0
M  V30 11419 H 1074.09 -1.33919 4.84845 0
M  V30 11420 H 1073.79 0.0852482 5.87538 0
M  V30 11421 H 1075.31 -0.830833 6.04921 0
M  V30 11422 H 1076.72 1.38784 5.56248 0
M  V30 11423 H 1075.12 2.17849 5.59162 0
M  V30 11424 H 1076.19 2.42412 4.19958 0
M  V30 11425 N 1077.53 -1.43282 0.656365 0
M  V30 11426 C 1078.48 -2.32556 -0.0452037 0
M  V30 11427 C 1079.48 -1.48789 -0.80982 0
M  V30 11428 O 1080.68 -1.64979 -0.719865 0
M  V30 11429 H 1077.06 -0.751258 -0.0334043 0
M  V30 11430 H 1079.03 -2.89448 0.725423 0
M  V30 11431 C 1077.78 -3.33138 -0.995706 0
M  V30 11432 H 1077.1 -3.97622 -0.416774 0
M  V30 11433 H 1078.54 -3.98231 -1.45562 0
M  V30 11434 C 1077 -2.63978 -2.09325 0
M  V30 11435 O 1077.53 -2.45769 -3.17743 0
M  V30 11436 N 1075.74 -2.23301 -1.8597 0
M  V30 11437 H 1075.28 -2.38312 -0.97802 0
M  V30 11438 H 1075.24 -1.77358 -2.59599 0
M  V30 11439 N 1079.01 -0.398486 -1.52479 0
M  V30 11440 C 1080.24 0.180557 -2.06111 0
M  V30 11441 C 1080.66 1.39751 -1.26945 0
M  V30 11442 O 1080.01 1.79699 -0.318497 0
M  V30 11443 C 1080.06 0.541573 -3.5742 0
M  V30 11444 O 1079.79 -0.627043 -4.33589 0
M  V30 11445 C 1081.29 1.17549 -4.27431 0
M  V30 11446 H 1078.51 0.0250754 -0.670531 0
M  V30 11447 H 1081.05 -0.566368 -1.96501 0
M  V30 11448 H 1079.21 1.23839 -3.67073 0
M  V30 11449 H 1079.62 -0.328233 -5.23472 0
M  V30 11450 H 1081.09 1.37839 -5.34513 0
M  V30 11451 H 1081.57 2.14553 -3.83228 0
M  V30 11452 H 1082.18 0.51918 -4.22119 0
M  V30 11453 N 1080.49 1.57075 -0.12858 0
M  V30 11454 C 1081.42 2.18833 0.814519 0
M  V30 11455 C 1082.4 1.13114 1.2704 0
M  V30 11456 O 1083.59 1.41387 1.33129 0
M  V30 11457 C 1080.72 2.79535 2.06101 0
M  V30 11458 C 1079.67 3.9092 1.74257 0
M  V30 11459 C 1079 4.38473 3.06015 0
M  V30 11460 C 1080.3 5.1257 1.00345 0
M  V30 11461 H 1081.99 2.97895 0.299862 0
M  V30 11462 H 1079.54 1.4329 0.14279 0
M  V30 11463 H 1081.49 3.21401 2.72543 0
M  V30 11464 H 1080.21 1.97777 2.59907 0
M  V30 11465 H 1078.87 3.49645 1.102 0
M  V30 11466 H 1078.52 3.53561 3.57776 0
M  V30 11467 H 1078.22 5.13591 2.85479 0
M  V30 11468 H 1079.75 4.82997 3.7356 0
M  V30 11469 H 1081.16 5.51395 1.56959 0
M  V30 11470 H 1079.56 5.93333 0.898693 0
M  V30 11471 H 1080.63 4.84899 -0.0081335 0
M  V30 11472 N 1081.97 -0.145205 1.5693 0
M  V30 11473 C 1083.22 -0.857516 1.83447 0
M  V30 11474 C 1083.54 -1.81088 0.709739 0
M  V30 11475 O 1082.8 -1.9337 -0.301097 0
M  V30 11476 C 1083.1 -1.66391 3.16305 0
M  V30 11477 C 1082.76 -0.857171 4.42678 0
M  V30 11478 C 1081.43 -0.634611 4.76997 0
M  V30 11479 C 1083.78 -0.293105 5.20375 0
M  V30 11480 C 1081.11 0.162693 5.86474 0
M  V30 11481 C 1083.46 0.491248 6.3069 0
M  V30 11482 C 1082.12 0.724368 6.63558 0
M  V30 11483 H 1081.39 -0.313787 0.671281 0
M  V30 11484 H 1084.04 -0.121074 1.91117 0
M  V30 11485 H 1082.34 -2.47051 3.04094 0
M  V30 11486 H 1084.04 -2.21855 3.34038 0
M  V30 11487 H 1080.63 -1.0407 4.15773 0
M  V30 11488 H 1084.82 -0.452326 4.94234 0
M  V30 11489 H 1080.07 0.352788 6.10381 0
M  V30 11490 H 1084.25 0.935449 6.90089 0
M  V30 11491 H 1081.87 1.34403 7.48224 0
M  V30 11492 N 1083.45 -1.52049 -0.414609 0
M  V30 11493 C 1084.38 -1.69712 -1.52555 0
M  V30 11494 C 1085.36 -0.544681 -1.53206 0
M  V30 11495 O 1086.54 -0.771358 -1.71995 0
M  V30 11496 C 1083.67 -1.73145 -2.91099 0
M  V30 11497 C 1082.72 -2.94624 -3.08382 0
M  V30 11498 S 1083.55 -4.55062 -2.82274 0
M  V30 11499 C 1084.7 -4.61274 -4.23057 0
M  V30 11500 H 1084.94 -2.63675 -1.37342 0
M  V30 11501 H 1082.47 -1.42018 -0.605824 0
M  V30 11502 H 1084.43 -1.75808 -3.70947 0
M  V30 11503 H 1083.09 -0.803198 -3.03657 0
M  V30 11504 H 1082.28 -2.93492 -4.0973 0
M  V30 11505 H 1081.88 -2.8982 -2.36391 0
M  V30 11506 H 1084.18 -4.38313 -5.16612 0
M  V30 11507 H 1085.12 -5.63188 -4.29214 0
M  V30 11508 H 1085.53 -3.90361 -4.07773 0
M  V30 11509 N 1084.93 0.6715 -1.42579 0
M  V30 11510 C 1085.89 1.76676 -1.46008 0
M  V30 11511 C 1086.89 1.57007 -0.347213 0
M  V30 11512 O 1088.08 1.63238 -0.608185 0
M  V30 11513 C 1085.21 3.15348 -1.29494 0
M  V30 11514 H 1086.4 1.75021 -2.43531 0
M  V30 11515 H 1083.96 0.881444 -1.29075 0
M  V30 11516 H 1084.69 3.22626 -0.32906 0
M  V30 11517 H 1084.48 3.31028 -2.10149 0
M  V30 11518 H 1085.97 3.95251 -1.34784 0
M  V30 11519 N 1086.4 1.28806 0.908124 0
M  V30 11520 C 1087.33 1.15758 2.02787 0
M  V30 11521 C 1088.31 0.053911 1.70015 0
M  V30 11522 O 1089.5 0.231901 1.9281 0
M  V30 11523 C 1086.63 0.824526 3.37371 0
M  V30 11524 C 1085.58 1.88359 3.84324 0
M  V30 11525 C 1084.91 1.40404 5.15937 0
M  V30 11526 C 1086.21 3.29108 4.05568 0
M  V30 11527 H 1087.9 2.09431 2.13961 0
M  V30 11528 H 1085.45 1.00831 1.02806 0
M  V30 11529 H 1087.4 0.71999 4.15204 0
M  V30 11530 H 1086.13 -0.147902 3.26265 0
M  V30 11531 H 1084.79 1.97736 3.087 0
M  V30 11532 H 1084.43 0.420515 5.01239 0
M  V30 11533 H 1084.13 2.11224 5.48323 0
M  V30 11534 H 1085.66 1.31283 5.9632 0
M  V30 11535 H 1087.07 3.2262 4.73909 0
M  V30 11536 H 1085.47 3.97812 4.49294 0
M  V30 11537 H 1086.54 3.72709 3.10187 0
M  V30 11538 N 1087.88 -1.11734 1.11145 0
M  V30 11539 C 1088.79 -2.21267 0.779607 0
M  V30 11540 C 1089.81 -1.72526 -0.225986 0
M  V30 11541 O 1090.98 -2.01302 -0.0629166 0
M  V30 11542 C 1088.05 -3.45973 0.22435 0
M  V30 11543 C 1087.11 -4.09518 1.28816 0
M  V30 11544 C 1086.34 -5.28271 0.7593 0
M  V30 11545 O 1086.57 -5.68912 -0.411725 0
M  V30 11546 O 1085.5 -5.82322 1.52266 0
M  V30 11547 H 1089.33 -2.5206 1.6941 0
M  V30 11548 H 1086.91 -1.20211 0.887115 0
M  V30 11549 H 1088.79 -4.21322 -0.0810921 0
M  V30 11550 H 1087.47 -3.1684 -0.662891 0
M  V30 11551 H 1086.37 -3.35915 1.64657 0
M  V30 11552 H 1087.71 -4.42824 2.14868 0
M  V30 11553 N 1089.36 -0.901303 -1.29284 0
M  V30 11554 C 1090.31 -0.351562 -2.25273 0
M  V30 11555 C 1091.29 0.529276 -1.51946 0
M  V30 11556 O 1092.49 0.371031 -1.73068 0
M  V30 11557 C 1089.61 0.41843 -3.4074 0
M  V30 11558 C 1088.7 -0.47742 -4.21404 0
M  V30 11559 N 1089.09 -1.58537 -4.80312 0
M  V30 11560 C 1087.39 -0.275504 -4.45148 0
M  V30 11561 C 1088.09 -2.14041 -5.40889 0
M  V30 11562 N 1087.07 -1.43324 -5.24365 0
M  V30 11563 H 1090.87 -1.1979 -2.68379 0
M  V30 11564 H 1088.38 -0.752538 -1.43912 0
M  V30 11565 H 1090.38 0.829022 -4.08574 0
M  V30 11566 H 1089.04 1.26201 -2.99171 0
M  V30 11567 H 1090.05 -1.96809 -4.79047 0
M  V30 11568 H 1086.73 0.529581 -4.14128 0
M  V30 11569 H 1088.12 -3.07173 -5.97574 0
M  V30 11570 N 1090.84 1.42931 -0.663954 0
M  V30 11571 C 1092.07 2.05729 -0.189532 0
M  V30 11572 C 1092.48 1.49914 1.15423 0
M  V30 11573 O 1091.82 0.629324 1.72584 0
M  V30 11574 C 1091.88 3.59482 -0.0354748 0
M  V30 11575 C 1091.54 4.37935 -1.30622 0
M  V30 11576 C 1092.54 4.69297 -2.23733 0
M  V30 11577 C 1090.23 4.77761 -1.5508 0
M  V30 11578 C 1092.22 5.39407 -3.39586 0
M  V30 11579 C 1089.91 5.47613 -2.71224 0
M  V30 11580 C 1090.91 5.7836 -3.63302 0
M  V30 11581 O 1090.59 6.46783 -4.77417 0
M  V30 11582 H 1090.33 0.669678 -0.0922342 0
M  V30 11583 H 1092.88 1.84243 -0.907943 0
M  V30 11584 H 1091.11 3.79584 0.738412 0
M  V30 11585 H 1092.8 4.03947 0.397679 0
M  V30 11586 H 1093.56 4.39038 -2.06084 0
M  V30 11587 H 1089.44 4.53229 -0.842863 0
M  V30 11588 H 1092.99 5.63323 -4.11476 0
M  V30 11589 H 1088.88 5.77289 -2.88804 0
M  V30 11590 H 1089.65 6.6527 -4.76821 0
M  V30 11591 N 1092.32 0.406567 1.52266 0
M  V30 11592 C 1093.26 -0.43489 2.28498 0
M  V30 11593 C 1094.26 -1.04806 1.33086 0
M  V30 11594 O 1095.46 -0.986557 1.50556 0
M  V30 11595 H 1091.84 -0.159023 0.734994 0
M  V30 11596 H 1093.81 0.229316 2.97518 0
M  V30 11597 C 1092.56 -1.54073 3.117 0
M  V30 11598 H 1091.88 -1.07824 3.84986 0
M  V30 11599 H 1093.32 -2.10337 3.6815 0
M  V30 11600 C 1091.78 -2.50662 2.251 0
M  V30 11601 O 1092.31 -3.54486 1.88951 0
M  V30 11602 N 1090.52 -2.20811 1.8892 0
M  V30 11603 H 1090.06 -1.36413 2.18516 0
M  V30 11604 H 1090.02 -2.85684 1.3127 0
M  V30 11605 N 1093.79 -1.57004 0.136909 0
M  V30 11606 C 1094.73 -2.12004 -0.844362 0
M  V30 11607 C 1095.71 -1.04099 -1.24909 0
M  V30 11608 O 1096.89 -1.31866 -1.34698 0
M  V30 11609 C 1094.02 -2.63147 -2.13241 0
M  V30 11610 C 1093.06 -3.83105 -1.87438 0
M  V30 11611 S 1093.9 -5.2461 -1.07447 0
M  V30 11612 C 1095.05 -5.79134 -2.37392 0
M  V30 11613 H 1095.28 -2.94905 -0.376614 0
M  V30 11614 H 1092.82 -1.54207 -0.0771977 0
M  V30 11615 H 1094.78 -2.93264 -2.87239 0
M  V30 11616 H 1093.44 -1.80395 -2.57131 0
M  V30 11617 H 1092.63 -4.17099 -2.82922 0
M  V30 11618 H 1092.23 -3.53696 -1.21553 0
M  V30 11619 H 1094.52 -5.8995 -3.33114 0
M  V30 11620 H 1095.47 -6.76887 -2.07918 0
M  V30 11621 H 1095.87 -5.07311 -2.47579 0
M  V30 11622 N 1095.27 0.136881 -1.57004 0
M  V30 11623 C 1096.5 0.862436 -1.88068 0
M  V30 11624 C 1096.92 1.74274 -0.726227 0
M  V30 11625 O 1096.27 1.79956 0.30366 0
M  V30 11626 C 1096.32 1.71076 -3.18458 0
M  V30 11627 O 1096.04 0.865918 -4.29457 0
M  V30 11628 C 1097.55 2.54302 -3.63105 0
M  V30 11629 H 1094.77 0.248865 -0.623143 0
M  V30 11630 H 1097.31 0.126633 -2.04108 0
M  V30 11631 H 1095.46 2.39951 -3.04142 0
M  V30 11632 H 1095.88 1.4493 -5.04079 0
M  V30 11633 H 1097.35 3.09384 -4.57149 0
M  V30 11634 H 1097.83 3.3082 -2.88886 0
M  V30 11635 H 1098.44 1.907 -3.80149 0
M  V30 11636 N 1096.75 1.52266 0.40654 0
M  V30 11637 C 1097.98 1.70598 1.17945 0
M  V30 11638 C 1098.4 0.415793 1.83447 0
M  V30 11639 O 1097.76 -0.626968 1.70114 0
M  V30 11640 C 1097.81 2.84449 2.21633 0
M  V30 11641 O 1096.91 2.50199 3.27833 0
M  V30 11642 H 1096.25 0.567837 0.344177 0
M  V30 11643 H 1098.78 1.98981 0.476211 0
M  V30 11644 H 1098.79 3.09436 2.65919 0
M  V30 11645 H 1097.47 3.78055 1.73341 0
M  V30 11646 H 1096.04 2.35892 2.88807 0
M  V30 11647 N 1098.23 -0.663929 1.42933 0
M  V30 11648 C 1099.14 -1.80643 1.49683 0
M  V30 11649 C 1100.15 -1.69694 0.38472 0
M  V30 11650 O 1101.33 -1.91052 0.637256 0
M  V30 11651 C 1098.4 -3.16858 1.4072 0
M  V30 11652 C 1097.46 -3.39684 2.62514 0
M  V30 11653 C 1096.69 -4.69399 2.53969 0
M  V30 11654 O 1096.91 -5.48037 1.58152 0
M  V30 11655 O 1095.85 -4.93709 3.44289 0
M  V30 11656 H 1099.67 -1.77903 2.46138 0
M  V30 11657 H 1097.26 -0.821059 1.24816 0
M  V30 11658 H 1099.14 -3.9812 1.38124 0
M  V30 11659 H 1097.81 -3.20211 0.473954 0
M  V30 11660 H 1096.72 -2.58227 2.70684 0
M  V30 11661 H 1098.05 -3.41169 3.54774 0
M  V30 11662 N 1099.71 -1.29285 -0.901281 0
M  V30 11663 C 1100.95 -1.17165 -1.65162 0
M  V30 11664 C 1101.28 0.277184 -1.92515 0
M  V30 11665 O 1100.54 1.2168 -1.53273 0
M  V30 11666 C 1100.84 -1.92865 -3.00895 0
M  V30 11667 C 1100.5 -3.42593 -2.93157 0
M  V30 11668 C 1099.16 -3.83426 -2.90754 0
M  V30 11669 C 1101.52 -4.38011 -2.82481 0
M  V30 11670 C 1098.84 -5.17997 -2.75492 0
M  V30 11671 C 1101.2 -5.7267 -2.68759 0
M  V30 11672 C 1099.86 -6.12764 -2.64721 0
M  V30 11673 H 1099.13 -0.428737 -0.604372 0
M  V30 11674 H 1101.78 -1.60204 -1.04914 0
M  V30 11675 H 1100.08 -1.42412 -3.65001 0
M  V30 11676 H 1101.78 -1.80893 -3.57881 0
M  V30 11677 H 1098.37 -3.10134 -2.95829 0
M  V30 11678 H 1102.55 -4.07417 -2.83416 0
M  V30 11679 H 1097.81 -5.48173 -2.70769 0
M  V30 11680 H 1101.98 -6.46258 -2.59469 0
M  V30 11681 H 1099.61 -7.16987 -2.52652 0
M  V30 11682 N 1101.18 1.11143 -1.11736 0
M  V30 11683 C 1102.09 2.20851 -0.791331 0
M  V30 11684 C 1103.11 1.72644 0.216833 0
M  V30 11685 O 1104.29 2.01332 0.0522401 0
M  V30 11686 C 1101.35 3.4585 -0.242694 0
M  V30 11687 C 1100.41 4.08829 -1.30986 0
M  V30 11688 C 1099.65 5.27861 -0.787305 0
M  V30 11689 O 1099.87 5.69122 0.381549 0
M  V30 11690 O 1098.8 5.81506 -1.55352 0
M  V30 11691 H 1102.63 2.51158 -1.70744 0
M  V30 11692 H 1100.21 1.19739 -0.893478 0
M  V30 11693 H 1102.1 4.21359 0.0587472 0
M  V30 11694 H 1100.77 3.17187 0.646079 0
M  V30 11695 H 1099.68 3.35037 -1.66436 0
M  V30 11696 H 1101.01 4.41678 -2.17213 0
M  V30 11697 N 1102.66 0.908147 1.28804 0
M  V30 11698 C 1103.57 0.397167 2.31214 0
M  V30 11699 C 1104.59 -0.512352 1.66286 0
M  V30 11700 O 1105.76 -0.399893 1.9739 0
M  V30 11701 C 1102.83 -0.359522 3.44831 0
M  V30 11702 C 1101.89 0.582539 4.25329 0
M  V30 11703 C 1101.12 -0.138133 5.33521 0
M  V30 11704 O 1101.35 -1.36076 5.53931 0
M  V30 11705 O 1100.28 0.523682 5.99618 0
M  V30 11706 H 1104.11 1.247 2.76918 0
M  V30 11707 H 1101.69 0.672766 1.33395 0
M  V30 11708 H 1103.57 -0.787098 4.13984 0
M  V30 11709 H 1102.25 -1.18528 3.01219 0
M  V30 11710 H 1101.16 1.0594 3.58786 0
M  V30 11711 H 1102.49 1.37495 4.72605 0
M  V30 11712 N 1104.14 -1.42577 0.671525 0
M  V30 11713 C 1105.07 -2.28124 -0.0589347 0
M  V30 11714 C 1106.05 -1.40878 -0.811915 0
M  V30 11715 O 1107.24 -1.70318 -0.807717 0
M  V30 11716 C 1104.36 -3.20662 -1.09057 0
M  V30 11717 C 1103.41 -4.24291 -0.43355 0
M  V30 11718 S 1104.24 -5.29393 0.806442 0
M  V30 11719 C 1105.4 -6.25498 -0.224204 0
M  V30 11720 H 1105.63 -2.89728 0.666689 0
M  V30 11721 H 1103.16 -1.47359 0.460959 0
M  V30 11722 H 1105.12 -3.74516 -1.68071 0
M  V30 11723 H 1103.78 -2.582 -1.78862 0
M  V30 11724 H 1102.98 -4.89213 -1.21186 0
M  V30 11725 H 1102.58 -3.73908 0.0829136 0
M  V30 11726 H 1104.87 -6.68757 -1.08492 0
M  V30 11727 H 1105.81 -7.07023 0.390469 0
M  V30 11728 H 1106.22 -5.61633 -0.568214 0
M  V30 11729 N 1105.62 -0.414636 -1.52048 0
M  V30 11730 C 1106.55 0.399119 -2.30064 0
M  V30 11731 C 1107.53 1.04126 -1.34506 0
M  V30 11732 O 1108.71 1.04923 -1.63416 0
M  V30 11733 C 1105.84 1.51305 -3.12608 0
M  V30 11734 C 1104.8 0.995621 -4.16259 0
M  V30 11735 C 1104.12 2.20357 -4.87183 0
M  V30 11736 C 1105.42 0.0458178 -5.2228 0
M  V30 11737 H 1107.12 -0.251879 -2.98339 0
M  V30 11738 H 1104.66 -0.122579 -1.43477 0
M  V30 11739 H 1106.62 2.08936 -3.65956 0
M  V30 11740 H 1105.34 2.19201 -2.42113 0
M  V30 11741 H 1104 0.441676 -3.6393 0
M  V30 11742 H 1103.65 2.8682 -4.13211 0
M  V30 11743 H 1103.35 1.86385 -5.57256 0
M  V30 11744 H 1104.87 2.78584 -5.43345 0
M  V30 11745 H 1106.29 0.531102 -5.70835 0
M  V30 11746 H 1104.68 -0.20536 -5.99749 0
M  V30 11747 H 1105.75 -0.897807 -4.76516 0
M  V30 11748 N 1107.1 1.56929 -0.145233 0
M  V30 11749 C 1108.03 2.13796 0.826078 0
M  V30 11750 C 1109.04 1.08697 1.21197 0
M  V30 11751 O 1110.23 1.3598 1.15635 0
M  V30 11752 C 1107.33 2.6443 2.11967 0
M  V30 11753 C 1106.5 3.9391 1.90142 0
M  V30 11754 C 1105.56 4.29872 3.03474 0
M  V30 11755 O 1104.59 4.98227 2.75242 0
M  V30 11756 N 1105.79 3.8931 4.30602 0
M  V30 11757 H 1108.56 2.97764 0.340073 0
M  V30 11758 H 1106.12 1.61854 0.0383928 0
M  V30 11759 H 1108.11 2.85502 2.86829 0
M  V30 11760 H 1106.68 1.85196 2.51836 0
M  V30 11761 H 1105.9 3.81481 0.993268 0
M  V30 11762 H 1107.19 4.78523 1.72896 0
M  V30 11763 H 1106.58 3.34229 4.56407 0
M  V30 11764 H 1105.14 4.15438 5.0225 0
M  V30 11765 N 1108.58 -0.128553 1.57075 0
M  V30 11766 C 1109.82 -0.839252 1.8462 0
M  V30 11767 C 1110.15 -1.79974 0.729582 0
M  V30 11768 O 1109.43 -1.92681 -0.265369 0
M  V30 11769 C 1109.71 -1.59756 3.22723 0
M  V30 11770 C 1109.57 -0.657313 4.44971 0
M  V30 11771 C 1110.88 -2.55592 3.58275 0
M  V30 11772 H 1108 -0.303652 0.671539 0
M  V30 11773 H 1110.65 -0.103802 1.89716 0
M  V30 11774 H 1108.8 -2.22451 3.18509 0
M  V30 11775 H 1110.47 -0.0399471 4.61283 0
M  V30 11776 H 1108.71 0.0318416 4.33788 0
M  V30 11777 H 1109.38 -1.22433 5.38251 0
M  V30 11778 H 1111.86 -2.03007 3.63218 0
M  V30 11779 H 1110.73 -3.05687 4.55902 0
M  V30 11780 H 1110.99 -3.37813 2.85193 0
M  V30 11781 N 1110.05 -1.5248 -0.398459 0
M  V30 11782 C 1111.3 -1.66731 -1.14215 0
M  V30 11783 C 1111.62 -0.404957 -1.90749 0
M  V30 11784 O 1110.89 0.580434 -1.87104 0
M  V30 11785 H 1109.47 -0.614577 -0.424622 0
M  V30 11786 H 1112.13 -1.89561 -0.453059 0
M  V30 11787 H 1111.23 -2.51336 -1.85031 0
M  V30 11788 N 1111.53 0.65634 -1.43283 0
M  V30 11789 C 1112.48 1.79058 -1.48462 0
M  V30 11790 C 1113.47 1.65563 -0.358512 0
M  V30 11791 O 1114.68 1.71947 -0.532365 0
M  V30 11792 H 1111.05 0.590716 -0.465358 0
M  V30 11793 H 1113.03 1.7181 -2.43975 0
M  V30 11794 C 1111.77 3.17304 -1.42175 0
M  V30 11795 H 1111.1 3.28324 -2.2813 0
M  V30 11796 H 1112.54 3.96633 -1.4986 0
M  V30 11797 C 1111 3.36613 -0.138929 0
M  V30 11798 O 1111.53 3.93633 0.80101 0
M  V30 11799 N 1109.73 2.90557 -0.0501237 0
M  V30 11800 H 1109.28 2.4434 -0.815821 0
M  V30 11801 H 1109.24 3.03853 0.807504 0
M  V30 11802 N 1113.01 1.29761 0.894412 0
M  V30 11803 C 1113.94 1.17902 2.01547 0
M  V30 11804 C 1114.92 0.0719402 1.69948 0
M  V30 11805 O 1116.11 0.252338 1.92554 0
M  V30 11806 C 1113.24 0.860262 3.36477 0
M  V30 11807 C 1112.19 1.92424 3.82305 0
M  V30 11808 C 1111.52 1.45868 5.14419 0
M  V30 11809 C 1112.82 3.33391 4.02054 0
M  V30 11810 H 1114.51 2.11688 2.11727 0
M  V30 11811 H 1112.06 1.01916 1.01731 0
M  V30 11812 H 1114.01 0.763987 4.14417 0
M  V30 11813 H 1112.73 -0.113289 3.26403 0
M  V30 11814 H 1111.39 2.00999 3.06586 0
M  V30 11815 H 1111.04 0.473654 5.00765 0
M  V30 11816 H 1110.74 2.17028 5.46052 0
M  V30 11817 H 1112.26 1.37601 5.94894 0
M  V30 11818 H 1113.68 3.27628 4.7046 0
M  V30 11819 H 1112.07 4.02555 4.4505 0
M  V30 11820 H 1113.14 3.75978 3.06216 0
M  V30 11821 N 1114.49 -1.10549 1.12324 0
M  V30 11822 C 1115.73 -1.82755 0.879117 0
M  V30 11823 C 1116.07 -1.84905 -0.593604 0
M  V30 11824 O 1115.34 -1.30884 -1.43873 0
M  V30 11825 C 1115.62 -3.29481 1.45308 0
M  V30 11826 C 1115.48 -3.3567 2.99408 0
M  V30 11827 C 1116.8 -4.25828 1.11167 0
M  V30 11828 H 1113.92 -0.663513 0.32081 0
M  V30 11829 H 1116.56 -1.29572 1.38965 0
M  V30 11830 H 1114.71 -3.74902 1.01887 0
M  V30 11831 H 1116.38 -2.98739 3.515 0
M  V30 11832 H 1114.62 -2.75606 3.34998 0
M  V30 11833 H 1115.29 -4.38983 3.34661 0
M  V30 11834 H 1117.77 -3.88635 1.48667 0
M  V30 11835 H 1116.65 -5.26857 1.53991 0
M  V30 11836 H 1116.91 -4.42094 0.0237046 0
M  V30 11837 N 1115.97 -0.914965 -1.28321 0
M  V30 11838 C 1117.21 -0.548749 -1.94923 0
M  V30 11839 C 1117.54 0.907776 -1.72016 0
M  V30 11840 O 1116.8 1.66097 -1.03491 0
M  V30 11841 C 1117.09 -0.805805 -3.48198 0
M  V30 11842 C 1116.76 -2.24207 -3.91206 0
M  V30 11843 C 1115.42 -2.63475 -4.02659 0
M  V30 11844 C 1117.77 -3.17667 -4.13204 0
M  V30 11845 C 1115.1 -3.95353 -4.3349 0
M  V30 11846 C 1117.45 -4.4911 -4.45514 0
M  V30 11847 C 1116.12 -4.8823 -4.55179 0
M  V30 11848 H 1115.39 -0.200801 -0.713274 0
M  V30 11849 H 1118.04 -1.15652 -1.52633 0
M  V30 11850 H 1116.34 -0.115244 -3.9163 0
M  V30 11851 H 1118.04 -0.501609 -3.9785 0
M  V30 11852 H 1114.63 -1.92737 -3.82819 0
M  V30 11853 H 1118.81 -2.88537 -4.03807 0
M  V30 11854 H 1114.07 -4.25362 -4.39178 0
M  V30 11855 H 1118.24 -5.21542 -4.61483 0
M  V30 11856 H 1115.87 -5.90451 -4.78823 0
M  V30 11857 N 1117.44 1.42219 -0.679077 0
M  V30 11858 C 1118.67 2.05815 -0.211649 0
M  V30 11859 C 1119.09 1.51037 1.13284 0
M  V30 11860 O 1118.44 0.651894 1.7046 0
M  V30 11861 C 1118.49 3.61218 -0.142663 0
M  V30 11862 O 1118.22 4.13965 -1.43402 0
M  V30 11863 C 1119.72 4.41934 0.347746 0
M  V30 11864 H 1116.94 0.663215 -0.101914 0
M  V30 11865 H 1119.48 1.82282 -0.927017 0
M  V30 11866 H 1117.64 3.83848 0.52342 0
M  V30 11867 H 1118.05 5.07872 -1.31021 0
M  V30 11868 H 1119.52 5.50921 0.344916 0
M  V30 11869 H 1120 4.16832 1.38377 0
M  V30 11870 H 1120.61 4.24332 -0.286751 0
M  V30 11871 N 1118.92 0.422693 1.51826 0
M  V30 11872 C 1120.17 -0.148348 2.01555 0
M  V30 11873 C 1120.49 -1.44483 1.30956 0
M  V30 11874 O 1119.76 -1.90904 0.439599 0
M  V30 11875 H 1118.34 -0.0578116 0.74476 0
M  V30 11876 H 1121 0.562046 1.8662 0
M  V30 11877 H 1120.1 -0.334766 3.10299 0
M  V30 11878 N 1120.4 -1.5685 0.153553 0
M  V30 11879 C 1121.65 -1.95509 -0.495911 0
M  V30 11880 C 1121.96 -1.04129 -1.65579 0
M  V30 11881 O 1123.17 -1.32394 -2.37032 0
M  V30 11882 C 1121.62 -3.47579 -0.933622 0
M  V30 11883 C 1121.23 -4.47555 0.199684 0
M  V30 11884 C 1122.98 -3.95092 -1.55251 0
M  V30 11885 C 1120.88 -5.90843 -0.256663 0
M  V30 11886 H 1119.81 -0.729919 -0.189035 0
M  V30 11887 H 1122.46 -1.81938 0.238947 0
M  V30 11888 H 1120.85 -3.56506 -1.72394 0
M  V30 11889 H 1122.02 -4.50329 0.976744 0
M  V30 11890 H 1120.33 -4.09997 0.727394 0
M  V30 11891 H 1122.93 -4.99588 -1.90567 0
M  V30 11892 H 1123.27 -3.37015 -2.4439 0
M  V30 11893 H 1123.81 -3.89109 -0.826969 0
M  V30 11894 H 1120.55 -6.52753 0.599515 0
M  V30 11895 H 1120.07 -5.91414 -0.999458 0
M  V30 11896 H 1121.75 -6.43131 -0.70649 0
M  V30 11897 N 1121.88 0.120221 -1.57141 0
M  V30 11898 C 1123.12 0.828222 -1.84788 0
M  V30 11899 C 1123.45 1.79936 -0.738459 0
M  V30 11900 O 1122.71 1.93824 0.270295 0
M  V30 11901 C 1123.01 1.61338 -3.18912 0
M  V30 11902 C 1122.67 0.786637 -4.43985 0
M  V30 11903 C 1121.33 0.558645 -4.77946 0
M  V30 11904 C 1123.69 0.210281 -5.20776 0
M  V30 11905 C 1121.01 -0.255975 -5.86141 0
M  V30 11906 C 1123.37 -0.591523 -6.29828 0
M  V30 11907 C 1122.03 -0.829843 -6.62322 0
M  V30 11908 H 1121.3 0.303068 -0.676188 0
M  V30 11909 H 1123.95 0.0906538 -1.91285 0
M  V30 11910 H 1122.25 2.42182 -3.07986 0
M  V30 11911 H 1123.95 2.16513 -3.37525 0
M  V30 11912 H 1120.54 0.974426 -4.17376 0
M  V30 11913 H 1124.72 0.373641 -4.94892 0
M  V30 11914 H 1119.98 -0.449849 -6.09743 0
M  V30 11915 H 1124.15 -1.04512 -6.88513 0
M  V30 11916 H 1121.78 -1.4629 -7.45992 0
M  V30 11917 N 1123.36 1.52689 0.390367 0
M  V30 11918 C 1124.58 1.71541 1.15678 0
M  V30 11919 C 1125 0.433171 1.83764 0
M  V30 11920 O 1124.36 -0.592248 1.72623 0
M  V30 11921 C 1124.41 2.864 2.20584 0
M  V30 11922 O 1124.13 4.0966 1.55274 0
M  V30 11923 C 1125.63 3.1692 3.09962 0
M  V30 11924 H 1122.85 0.574381 0.346883 0
M  V30 11925 H 1125.39 1.99332 0.456851 0
M  V30 11926 H 1123.55 2.61075 2.86214 0
M  V30 11927 H 1123.96 4.73802 2.2497 0
M  V30 11928 H 1125.44 4.00755 3.79604 0
M  V30 11929 H 1125.91 2.31245 3.73393 0
M  V30 11930 H 1126.52 3.4408 2.49979 0
M  V30 11931 N 1124.83 -0.648732 1.43629 0
M  V30 11932 C 1125.8 -1.74331 1.488 0
M  V30 11933 C 1126.8 -1.56434 0.372147 0
M  V30 11934 O 1127.99 -1.6225 0.634078 0
M  V30 11935 C 1125.12 -3.13248 1.34494 0
M  V30 11936 H 1126.31 -1.71125 2.46285 0
M  V30 11937 H 1123.87 -0.860798 1.30461 0
M  V30 11938 H 1124.6 -3.22062 0.380345 0
M  V30 11939 H 1124.39 -3.27643 2.15389 0
M  V30 11940 H 1125.88 -3.93056 1.41055 0
M  V30 11941 N 1126.31 -1.30234 -0.887518 0
M  V30 11942 C 1127.22 -1.18316 -2.02579 0
M  V30 11943 C 1128.24 -0.103658 -1.73691 0
M  V30 11944 O 1129.41 -0.3181 -1.98872 0
M  V30 11945 C 1126.48 -0.873222 -3.35523 0
M  V30 11946 C 1125.54 -2.03783 -3.7785 0
M  V30 11947 C 1124.77 -1.74258 -5.0445 0
M  V30 11948 O 1125 -0.669295 -5.6646 0
M  V30 11949 O 1123.93 -2.59423 -5.43124 0
M  V30 11950 H 1127.76 -2.13933 -2.15561 0
M  V30 11951 H 1125.34 -1.09803 -1.0131 0
M  V30 11952 H 1127.22 -0.715463 -4.15282 0
M  V30 11953 H 1125.9 0.053056 -3.23657 0
M  V30 11954 H 1124.81 -2.2509 -2.98806 0
M  V30 11955 H 1126.14 -2.94574 -3.94318 0
M  V30 11956 N 1127.79 1.09952 -1.12909 0
M  V30 11957 C 1128.72 2.15689 -0.745217 0
M  V30 11958 C 1129.7 1.60409 0.266007 0
M  V30 11959 O 1130.89 1.8783 0.158783 0
M  V30 11960 C 1128.01 3.38541 -0.103846 0
M  V30 11961 C 1127.06 4.12529 -1.0827 0
M  V30 11962 S 1127.89 4.67442 -2.61262 0
M  V30 11963 C 1129.05 5.936 -1.9847 0
M  V30 11964 H 1129.28 2.47918 -1.64086 0
M  V30 11965 H 1126.81 1.21817 -0.948682 0
M  V30 11966 H 1128.77 4.09677 0.259816 0
M  V30 11967 H 1127.43 3.04541 0.768982 0
M  V30 11968 H 1126.63 5.00632 -0.581653 0
M  V30 11969 H 1126.23 3.47228 -1.38955 0
M  V30 11970 H 1128.52 6.64308 -1.33048 0
M  V30 11971 H 1129.46 6.48374 -2.84634 0
M  V30 11972 H 1129.87 5.45864 -1.43848 0
M  V30 11973 N 1129.27 0.921757 1.27833 0
M  V30 11974 C 1130.5 0.575202 1.98744 0
M  V30 11975 C 1130.91 -0.845405 1.68815 0
M  V30 11976 O 1130.27 -1.56106 0.94536 0
M  V30 11977 C 1130.32 0.784389 3.52888 0
M  V30 11978 O 1130.04 2.1491 3.81766 0
M  V30 11979 C 1131.54 0.445744 4.41053 0
M  V30 11980 H 1128.76 0.218525 0.634419 0
M  V30 11981 H 1131.31 1.23715 1.62834 0
M  V30 11982 H 1129.46 0.169323 3.8703 0
M  V30 11983 H 1129.87 2.19469 4.76375 0
M  V30 11984 H 1131.35 0.64284 5.48244 0
M  V30 11985 H 1131.83 -0.618433 4.34824 0
M  V30 11986 H 1132.43 1.03869 4.12421 0
M  V30 11987 N 1130.75 -1.41857 0.686609 0
M  V30 11988 C 1131.99 -2.01368 0.213801 0
M  V30 11989 C 1132.32 -1.5434 -1.18361 0
M  V30 11990 O 1131.58 -0.741447 -1.81111 0
M  V30 11991 C 1131.88 -3.56783 0.209951 0
M  V30 11992 C 1131.54 -4.23288 1.55365 0
M  V30 11993 C 1130.2 -4.41169 1.92154 0
M  V30 11994 C 1132.56 -4.6066 2.43807 0
M  V30 11995 C 1129.88 -4.93697 3.16986 0
M  V30 11996 C 1132.24 -5.14573 3.67963 0
M  V30 11997 C 1130.9 -5.30667 4.04906 0
M  V30 11998 H 1130.17 -0.736858 0.0782352 0
M  V30 11999 H 1132.82 -1.69879 0.88393 0
M  V30 12000 H 1131.12 -3.88009 -0.543712 0
M  V30 12001 H 1132.82 -4.00625 -0.173267 0
M  V30 12002 H 1129.41 -4.09738 1.2575 0
M  V30 12003 H 1133.59 -4.46507 2.16668 0
M  V30 12004 H 1128.85 -5.04342 3.45615 0
M  V30 12005 H 1133.02 -5.42473 4.36687 0
M  V30 12006 H 1130.65 -5.71133 5.01709 0
M  V30 12007 N 1132.22 -0.430739 -1.51599 0
M  V30 12008 C 1133.17 0.384024 -2.27583 0
M  V30 12009 C 1134.14 1.02254 -1.30895 0
M  V30 12010 O 1135.33 1.0427 -1.59789 0
M  V30 12011 C 1132.47 1.48291 -3.11615 0
M  V30 12012 C 1131.58 0.863187 -4.23288 0
M  V30 12013 C 1130.71 1.93657 -4.94642 0
M  V30 12014 C 1129.75 1.29493 -5.98246 0
M  V30 12015 N 1128.89 2.30939 -6.63032 0
M  V30 12016 H 1133.73 -0.270314 -2.96771 0
M  V30 12017 H 1131.27 -0.145148 -1.46382 0
M  V30 12018 H 1133.23 2.13124 -3.58656 0
M  V30 12019 H 1131.86 2.10697 -2.44554 0
M  V30 12020 H 1130.91 0.103326 -3.8026 0
M  V30 12021 H 1132.22 0.354676 -4.97537 0
M  V30 12022 H 1131.37 2.66167 -5.45197 0
M  V30 12023 H 1130.11 2.4788 -4.20008 0
M  V30 12024 H 1129.12 0.555262 -5.46989 0
M  V30 12025 H 1130.34 0.760122 -6.74833 0
M  V30 12026 H 1128.29 2.84254 -5.91216 0
M  V30 12027 H 1128.21 1.84961 -7.33025 0
M  V30 12028 H 1129.47 3.02953 -7.1822 0
M  V30 12029 N 1133.7 1.56767 -0.161869 0
M  V30 12030 C 1134.95 1.95769 0.485536 0
M  V30 12031 C 1135.26 1.05006 1.65025 0
M  V30 12032 O 1136.47 1.33649 2.36326 0
M  V30 12033 C 1134.93 3.4807 0.915176 0
M  V30 12034 C 1134.53 4.47443 -0.223416 0
M  V30 12035 C 1136.28 3.95909 1.53153 0
M  V30 12036 C 1134.19 5.90971 0.225325 0
M  V30 12037 H 1133.12 0.730911 0.185161 0
M  V30 12038 H 1135.77 1.81808 -0.248592 0
M  V30 12039 H 1134.15 3.57415 1.705 0
M  V30 12040 H 1135.32 4.49805 -1.00061 0
M  V30 12041 H 1133.64 4.09606 -0.749127 0
M  V30 12042 H 1136.23 5.00592 1.87915 0
M  V30 12043 H 1136.58 3.38307 2.42599 0
M  V30 12044 H 1137.11 3.89542 0.806322 0
M  V30 12045 H 1133.85 6.52426 -0.634124 0
M  V30 12046 H 1133.37 5.91936 0.96808 0
M  V30 12047 H 1135.05 6.43497 0.672373 0
M  V30 12048 N 1135.18 -0.111886 1.57202 0
M  V30 12049 C 1136.43 -0.817022 1.84412 0
M  V30 12050 C 1136.74 -1.80708 0.748608 0
M  V30 12051 O 1137.95 -2.55891 0.907319 0
M  V30 12052 C 1136.4 -1.50376 3.26979 0
M  V30 12053 C 1136.01 -0.554334 4.44557 0
M  V30 12054 C 1137.76 -2.19361 3.63429 0
M  V30 12055 C 1135.66 -1.24471 5.78153 0
M  V30 12056 H 1134.59 -0.308864 0.687836 0
M  V30 12057 H 1137.24 -0.0698109 1.83367 0
M  V30 12058 H 1135.63 -2.29785 3.22514 0
M  V30 12059 H 1136.8 0.207045 4.60335 0
M  V30 12060 H 1135.12 0.0289261 4.1639 0
M  V30 12061 H 1137.71 -2.71716 4.60515 0
M  V30 12062 H 1138.06 -2.97488 2.91215 0
M  V30 12063 H 1138.59 -1.46833 3.69709 0
M  V30 12064 H 1135.33 -0.504584 6.53555 0
M  V30 12065 H 1134.85 -1.97792 5.66249 0
M  V30 12066 H 1136.53 -1.77591 6.2215 0
M  V30 12067 N 1136.66 -1.52894 -0.382264 0
M  V30 12068 C 1137.62 -1.77497 -1.45008 0
M  V30 12069 C 1138.62 -0.64509 -1.47293 0
M  V30 12070 O 1139.81 -0.913192 -1.48346 0
M  V30 12071 C 1136.94 -1.88188 -2.8425 0
M  V30 12072 H 1138.14 -2.72849 -1.24473 0
M  V30 12073 H 1135.69 -1.43717 -0.61441 0
M  V30 12074 H 1136.42 -0.948451 -3.10121 0
M  V30 12075 H 1136.21 -2.70353 -2.83992 0
M  V30 12076 H 1137.7 -2.08873 -3.6161 0
M  V30 12077 N 1138.14 0.641106 -1.43971 0
M  V30 12078 C 1139.07 1.76489 -1.52885 0
M  V30 12079 C 1140.05 1.65742 -0.38258 0
M  V30 12080 O 1141.23 1.84653 -0.601397 0
M  V30 12081 C 1138.36 3.14977 -1.4631 0
M  V30 12082 C 1137.32 3.40502 -2.59311 0
M  V30 12083 C 1136.64 4.78916 -2.37789 0
M  V30 12084 C 1137.94 3.34048 -4.01509 0
M  V30 12085 H 1139.64 1.69286 -2.46946 0
M  V30 12086 H 1137.18 0.813015 -1.18853 0
M  V30 12087 H 1139.14 3.9336 -1.51149 0
M  V30 12088 H 1137.86 3.2294 -0.487599 0
M  V30 12089 H 1136.52 2.64495 -2.53846 0
M  V30 12090 H 1136.17 4.8357 -1.38454 0
M  V30 12091 H 1135.87 4.96954 -3.13545 0
M  V30 12092 H 1137.39 5.59541 -2.4443 0
M  V30 12093 H 1138.81 4.0235 -4.08396 0
M  V30 12094 H 1137.2 3.63622 -4.77388 0
M  V30 12095 H 1138.27 2.32022 -4.25786 0
M  V30 12096 N 1139.62 1.30703 0.880598 0
M  V30 12097 C 1140.89 1.1043 1.61445 0
M  V30 12098 C 1141.27 -0.344837 2.08264 0
M  V30 12099 O 1140.62 -1.33711 1.85293 0
M  V30 12100 C 1140.83 2.10908 2.78063 0
M  V30 12101 C 1142.18 2.42861 3.48287 0
M  V30 12102 O 1143.2 2.09252 2.88257 0
M  V30 12103 O 1142.06 3.00369 4.56553 0
M  V30 12104 H 1139.16 0.424419 0.709787 0
M  V30 12105 H 1141.7 1.42144 0.926991 0
M  V30 12106 H 1140.47 3.08431 2.40803 0
M  V30 12107 H 1140.1 1.80036 3.54503 0
M  V30 12108 N 1141.09 -1.09351 1.1349 0
M  V30 12109 C 1142.5 -1.63035 0.909746 0
M  V30 12110 C 1142.86 -1.88229 -0.553573 0
M  V30 12111 O 1141.98 -1.63256 -1.42044 0
M  V30 12112 C 1142.58 -2.96186 1.64497 0
M  V30 12113 C 1141.13 -3.46692 1.46566 0
M  V30 12114 C 1140.28 -2.21095 1.67369 0
M  V30 12115 H 1143.23 -0.92704 1.28809 0
M  V30 12116 H 1143.25 -3.64177 1.10251 0
M  V30 12117 H 1142.77 -2.77818 2.70996 0
M  V30 12118 H 1140.87 -3.70183 0.423728 0
M  V30 12119 H 1140.98 -4.24078 2.22923 0
M  V30 12120 H 1139.34 -2.29789 1.0986 0
M  V30 12121 H 1140.13 -2.05245 2.7519 0
M  V30 12122 N 1142.57 -0.928524 -1.27343 0
M  V30 12123 C 1143.8 -0.584884 -1.98148 0
M  V30 12124 C 1144.21 0.841603 -1.69451 0
M  V30 12125 O 1143.55 1.57104 -0.952053 0
M  V30 12126 C 1143.61 -0.731911 -3.51971 0
M  V30 12127 C 1143.28 -2.13067 -4.04291 0
M  V30 12128 C 1144.28 -3.10492 -4.17002 0
M  V30 12129 C 1141.96 -2.44784 -4.38619 0
M  V30 12130 C 1143.95 -4.37742 -4.63315 0
M  V30 12131 C 1141.64 -3.72269 -4.84622 0
M  V30 12132 C 1142.64 -4.68562 -4.9693 0
M  V30 12133 O 1142.33 -5.93779 -5.41924 0
M  V30 12134 H 1142.06 -0.220347 -0.63908 0
M  V30 12135 H 1144.61 -1.24799 -1.63139 0
M  V30 12136 H 1142.84 -0.0116966 -3.86698 0
M  V30 12137 H 1144.53 -0.393206 -4.03991 0
M  V30 12138 H 1145.3 -2.8731 -3.9074 0
M  V30 12139 H 1141.18 -1.70577 -4.28281 0
M  V30 12140 H 1144.72 -5.12905 -4.72836 0
M  V30 12141 H 1140.62 -3.95269 -5.10326 0
M  V30 12142 H 1141.39 -5.96779 -5.60176 0
M  V30 12143 N 1144.05 1.41491 -0.694123 0
M  V30 12144 C 1145.28 2.0528 -0.233128 0
M  V30 12145 C 1145.69 1.52329 1.12217 0
M  V30 12146 O 1145.03 0.66579 1.7121 0
M  V30 12147 C 1145.09 3.59326 -0.111718 0
M  V30 12148 C 1144.76 4.35065 -1.39882 0
M  V30 12149 C 1145.75 4.64446 -2.33637 0
M  V30 12150 C 1143.44 4.74364 -1.65179 0
M  V30 12151 C 1145.43 5.32083 -3.50951 0
M  V30 12152 C 1143.12 5.41737 -2.82779 0
M  V30 12153 C 1144.12 5.70524 -3.75488 0
M  V30 12154 O 1143.81 6.36511 -4.91029 0
M  V30 12155 H 1143.54 0.667571 -0.106418 0
M  V30 12156 H 1146.09 1.82276 -0.94682 0
M  V30 12157 H 1144.32 3.81065 0.65773 0
M  V30 12158 H 1146.01 4.047 0.311906 0
M  V30 12159 H 1146.78 4.34568 -2.1535 0
M  V30 12160 H 1142.66 4.5134 -0.93881 0
M  V30 12161 H 1146.2 5.54468 -4.23333 0
M  V30 12162 H 1142.1 5.71033 -3.00984 0
M  V30 12163 H 1142.86 6.55006 -4.90825 0
M  V30 12164 N 1145.53 0.438773 1.51369 0
M  V30 12165 C 1146.76 -0.125665 2.06217 0
M  V30 12166 C 1147.17 -1.36887 1.30609 0
M  V30 12167 O 1146.51 -1.80149 0.359433 0
M  V30 12168 C 1146.57 -0.511846 3.55838 0
M  V30 12169 C 1146.23 0.624755 4.52709 0
M  V30 12170 C 1147.23 1.49731 4.97872 0
M  V30 12171 C 1144.92 0.805895 4.95793 0
M  V30 12172 C 1146.91 2.53569 5.84792 0
M  V30 12173 C 1144.6 1.84755 5.82502 0
M  V30 12174 C 1145.6 2.71083 6.269 0
M  V30 12175 O 1145.28 3.7346 7.11887 0
M  V30 12176 H 1145.02 -0.0107227 0.675915 0
M  V30 12177 H 1147.57 0.617071 1.95912 0
M  V30 12178 H 1145.8 -1.30731 3.63932 0
M  V30 12179 H 1147.49 -1.0076 3.93195 0
M  V30 12180 H 1148.25 1.36891 4.65281 0
M  V30 12181 H 1144.13 0.14352 4.60777 0
M  V30 12182 H 1147.68 3.20984 6.19367 0
M  V30 12183 H 1143.57 1.97614 6.14507 0
M  V30 12184 H 1144.34 3.70058 7.30068 0
M  V30 12185 N 1147.01 -1.56678 0.170181 0
M  V30 12186 C 1148.25 -1.96849 -0.475064 0
M  V30 12187 C 1148.58 -1.05611 -1.6333 0
M  V30 12188 O 1147.84 -0.0899708 -1.95493 0
M  V30 12189 C 1148.13 -3.43103 -1.00076 0
M  V30 12190 C 1147.8 -4.50881 0.0414538 0
M  V30 12191 C 1146.46 -4.80082 0.327894 0
M  V30 12192 C 1148.81 -5.15791 0.748936 0
M  V30 12193 C 1146.14 -5.71491 1.32722 0
M  V30 12194 C 1148.49 -6.08278 1.73724 0
M  V30 12195 C 1147.16 -6.35847 2.03114 0
M  V30 12196 H 1146.43 -0.72032 -0.173838 0
M  V30 12197 H 1149.08 -1.89701 0.261903 0
M  V30 12198 H 1147.38 -3.47197 -1.81553 0
M  V30 12199 H 1149.08 -3.71525 -1.50899 0
M  V30 12200 H 1145.67 -4.2817 -0.191976 0
M  V30 12201 H 1149.85 -4.93344 0.540852 0
M  V30 12202 H 1145.11 -5.91134 1.56112 0
M  V30 12203 H 1149.28 -6.57643 2.29082 0
M  V30 12204 H 1146.91 -7.06479 2.80698 0
M  V30 12205 N 1148.48 0.103547 -1.57259 0
M  V30 12206 C 1149.42 1.15225 -1.98131 0
M  V30 12207 C 1150.43 1.36793 -0.882692 0
M  V30 12208 O 1151.62 1.35595 -1.16088 0
M  V30 12209 C 1148.72 2.50941 -2.27776 0
M  V30 12210 C 1147.89 2.49765 -3.59077 0
M  V30 12211 C 1146.95 3.67344 -3.76756 0
M  V30 12212 O 1145.98 3.50221 -4.48702 0
M  V30 12213 N 1147.18 4.86504 -3.16692 0
M  V30 12214 H 1149.94 0.804448 -2.88702 0
M  V30 12215 H 1147.5 0.292636 -1.59233 0
M  V30 12216 H 1149.5 3.28186 -2.36804 0
M  V30 12217 H 1148.07 2.77843 -1.43255 0
M  V30 12218 H 1147.29 1.58125 -3.61096 0
M  V30 12219 H 1148.57 2.4605 -4.4535 0
M  V30 12220 H 1147.97 5.03319 -2.58236 0
M  V30 12221 H 1146.53 5.61371 -3.31218 0
M  V30 12222 N 1149.96 1.53094 0.37415 0
M  V30 12223 C 1150.89 1.75199 1.47776 0
M  V30 12224 C 1151.91 0.632627 1.50006 0
M  V30 12225 O 1153.1 0.908688 1.5364 0
M  V30 12226 C 1150.2 1.80909 2.86575 0
M  V30 12227 C 1149.37 3.10432 3.08141 0
M  V30 12228 C 1148.43 3.07495 4.27005 0
M  V30 12229 O 1147.45 3.81319 4.22592 0
M  V30 12230 N 1148.66 2.27715 5.33972 0
M  V30 12231 H 1151.42 2.70423 1.29196 0
M  V30 12232 H 1148.98 1.51766 0.563802 0
M  V30 12233 H 1150.97 1.76432 3.64217 0
M  V30 12234 H 1149.54 0.930074 2.98443 0
M  V30 12235 H 1148.76 3.2828 2.18233 0
M  V30 12236 H 1150.05 3.96047 3.19413 0
M  V30 12237 H 1149.45 1.67231 5.40417 0
M  V30 12238 H 1148.01 2.29065 6.10223 0
M  V30 12239 N 1151.44 -0.633461 1.44309 0
M  V30 12240 C 1152.69 -1.39031 1.46679 0
M  V30 12241 C 1153.01 -1.94745 0.0997165 0
M  V30 12242 O 1152.28 -1.75637 -0.867659 0
M  V30 12243 H 1150.86 -0.516051 0.540093 0
M  V30 12244 H 1153.52 -0.745739 1.80069 0
M  V30 12245 H 1152.62 -2.2228 2.19085 0
M  V30 12246 N 1152.92 -1.31168 -0.873655 0
M  V30 12247 C 1154.16 -1.21831 -1.62877 0
M  V30 12248 C 1154.52 0.222272 -1.91112 0
M  V30 12249 O 1153.81 1.15463 -1.52902 0
M  V30 12250 C 1154.01 -1.99204 -2.96736 0
M  V30 12251 C 1153.84 -3.50639 -2.81571 0
M  V30 12252 C 1152.61 -4.19992 -2.80953 0
M  V30 12253 C 1154.8 -4.45658 -2.56697 0
M  V30 12254 N 1152.79 -5.57609 -2.56799 0
M  V30 12255 C 1154.16 -5.70917 -2.41771 0
M  V30 12256 C 1156.21 -4.35126 -2.42012 0
M  V30 12257 C 1154.91 -6.86837 -2.13654 0
M  V30 12258 C 1156.94 -5.50825 -2.15282 0
M  V30 12259 C 1156.3 -6.75071 -2.01142 0
M  V30 12260 H 1152.4 -0.500911 -0.60051 0
M  V30 12261 H 1154.99 -1.65313 -1.02857 0
M  V30 12262 H 1153.16 -1.58096 -3.54768 0
M  V30 12263 H 1154.89 -1.81916 -3.61509 0
M  V30 12264 H 1151.64 -3.71928 -2.932 0
M  V30 12265 H 1152.07 -6.30058 -2.47703 0
M  V30 12266 H 1156.71 -3.39736 -2.51673 0
M  V30 12267 H 1154.43 -7.82257 -2.0273 0
M  V30 12268 H 1158.01 -5.44591 -2.04725 0
M  V30 12269 H 1156.89 -7.63085 -1.8075 0
M  V30 12270 N 1154.4 1.08748 -1.14068 0
M  V30 12271 C 1155.34 2.17667 -0.819981 0
M  V30 12272 C 1156.34 1.68207 0.200654 0
M  V30 12273 O 1157.54 1.79909 0.0571014 0
M  V30 12274 H 1153.92 0.710129 -0.247427 0
M  V30 12275 H 1155.89 2.41944 -1.74659 0
M  V30 12276 C 1154.64 3.46315 -0.309985 0
M  V30 12277 H 1153.96 3.84748 -1.08669 0
M  V30 12278 H 1155.4 4.23818 -0.124094 0
M  V30 12279 C 1153.86 3.22762 0.965724 0
M  V30 12280 O 1154.39 3.46034 2.04018 0
M  V30 12281 N 1152.6 2.76326 0.899576 0
M  V30 12282 H 1152.14 2.57588 0.0250598 0
M  V30 12283 H 1152.1 2.60945 1.75371 0
M  V30 12284 N 1155.87 0.935264 1.26849 0
M  V30 12285 C 1157.12 0.575467 1.93317 0
M  V30 12286 C 1157.44 -0.88876 1.74242 0
M  V30 12287 O 1158.64 -1.35767 2.35116 0
M  V30 12288 C 1157.1 0.978433 3.46345 0
M  V30 12289 C 1156.71 2.46386 3.74163 0
M  V30 12290 C 1158.45 0.690249 4.18851 0
M  V30 12291 C 1156.36 2.80584 5.20602 0
M  V30 12292 H 1155.29 0.211506 0.723727 0
M  V30 12293 H 1157.94 1.1371 1.44022 0
M  V30 12294 H 1156.32 0.345379 3.94491 0
M  V30 12295 H 1157.49 3.14547 3.36745 0
M  V30 12296 H 1155.81 2.72473 3.14877 0
M  V30 12297 H 1158.41 0.922151 5.26688 0
M  V30 12298 H 1158.75 -0.372805 4.14627 0
M  V30 12299 H 1159.28 1.28275 3.76551 0
M  V30 12300 H 1156.02 3.85828 5.29921 0
M  V30 12301 H 1155.54 2.1708 5.59139 0
M  V30 12302 H 1157.22 2.68732 5.88551 0
M  V30 12303 N 1157.35 -1.41121 0.701616 0
M  V30 12304 C 1158.6 -2.0113 0.235147 0
M  V30 12305 C 1158.93 -1.55587 -1.16718 0
M  V30 12306 O 1158.18 -0.760615 -1.80314 0
M  V30 12307 C 1158.48 -3.5654 0.247781 0
M  V30 12308 C 1158.15 -4.21616 1.59846 0
M  V30 12309 C 1156.81 -4.39106 1.96822 0
M  V30 12310 C 1159.16 -4.58048 2.48679 0
M  V30 12311 C 1156.49 -4.90307 3.22205 0
M  V30 12312 C 1158.84 -5.10642 3.734 0
M  V30 12313 C 1157.51 -5.26343 4.10512 0
M  V30 12314 H 1156.78 -0.735987 0.0860462 0
M  V30 12315 H 1159.42 -1.68932 0.901898 0
M  V30 12316 H 1157.73 -3.88564 -0.502528 0
M  V30 12317 H 1159.42 -4.00787 -0.130766 0
M  V30 12318 H 1156.01 -4.08381 1.30088 0
M  V30 12319 H 1160.2 -4.44184 2.21391 0
M  V30 12320 H 1155.45 -5.00647 3.50945 0
M  V30 12321 H 1159.63 -5.37811 4.42416 0
M  V30 12322 H 1157.26 -5.65779 5.07738 0
M  V30 12323 N 1158.83 -0.446794 -1.51134 0
M  V30 12324 C 1160.11 0.176892 -1.94798 0
M  V30 12325 C 1160.49 1.59229 -1.38598 0
M  V30 12326 O 1159.84 2.21097 -0.576905 0
M  V30 12327 C 1160.05 0.145 -3.48699 0
M  V30 12328 C 1161.39 0.345917 -4.23189 0
M  V30 12329 O 1162.42 0.222691 -3.55503 0
M  V30 12330 O 1161.28 0.592112 -5.43283 0
M  V30 12331 H 1158.37 0.12486 -0.81752 0
M  V30 12332 H 1160.92 -0.505453 -1.61998 0
M  V30 12333 H 1159.69 -0.844156 -3.82086 0
M  V30 12334 H 1159.31 0.869851 -3.87968 0
M  V30 12335 N 1160.31 1.56586 -0.178487 0
M  V30 12336 C 1161.53 2.01915 0.473841 0
M  V30 12337 C 1161.96 1.05789 1.55533 0
M  V30 12338 O 1161.32 0.0386018 1.81259 0
M  V30 12339 C 1161.36 3.45799 1.02251 0
M  V30 12340 O 1160.47 3.52761 2.1362 0
M  V30 12341 H 1159.81 0.654372 0.112666 0
M  V30 12342 H 1162.34 2.02613 -0.284486 0
M  V30 12343 H 1162.35 3.85252 1.34332 0
M  V30 12344 H 1161.02 4.1526 0.230719 0
M  V30 12345 H 1159.6 3.25172 1.8253 0
M  V30 12346 N 1161.79 -0.095206 1.57312 0
M  V30 12347 C 1163.04 -0.797417 1.85268 0
M  V30 12348 C 1163.35 -1.79903 0.767733 0
M  V30 12349 O 1164.55 -2.54914 0.934409 0
M  V30 12350 C 1163.01 -1.469 3.28555 0
M  V30 12351 C 1162.62 -0.507152 4.4512 0
M  V30 12352 C 1164.36 -2.15494 3.65735 0
M  V30 12353 C 1162.27 -1.18331 5.79441 0
M  V30 12354 H 1161.2 -0.301552 0.691074 0
M  V30 12355 H 1163.85 -0.0503584 1.83431 0
M  V30 12356 H 1162.23 -2.26351 3.24933 0
M  V30 12357 H 1163.41 0.255858 4.60089 0
M  V30 12358 H 1161.72 0.0730882 4.16336 0
M  V30 12359 H 1164.32 -2.66816 4.63371 0
M  V30 12360 H 1164.66 -2.94383 2.94354 0
M  V30 12361 H 1165.19 -1.42903 3.71246 0
M  V30 12362 H 1161.93 -0.435238 6.54053 0
M  V30 12363 H 1161.45 -1.91775 5.68315 0
M  V30 12364 H 1163.13 -1.70983 6.23998 0
M  V30 12365 N 1163.26 -1.53291 -0.366026 0
M  V30 12366 C 1164.51 -1.68671 -1.10602 0
M  V30 12367 C 1164.83 -0.444793 -1.90476 0
M  V30 12368 O 1166.03 -0.479135 -2.67239 0
M  V30 12369 C 1164.49 -2.98174 -2.01545 0
M  V30 12370 C 1164.1 -4.29626 -1.26986 0
M  V30 12371 C 1165.84 -3.22921 -2.7554 0
M  V30 12372 C 1163.75 -5.50218 -2.16828 0
M  V30 12373 H 1162.68 -0.628456 -0.416604 0
M  V30 12374 H 1165.33 -1.79791 -0.367058 0
M  V30 12375 H 1163.71 -2.80855 -2.79171 0
M  V30 12376 H 1164.88 -4.57574 -0.544269 0
M  V30 12377 H 1163.2 -4.11318 -0.648558 0
M  V30 12378 H 1165.8 -4.10202 -3.42985 0
M  V30 12379 H 1166.14 -2.38964 -3.40884 0
M  V30 12380 H 1166.67 -3.40912 -2.04997 0
M  V30 12381 H 1163.41 -6.36651 -1.56063 0
M  V30 12382 H 1162.93 -5.26549 -2.87238 0
M  V30 12383 H 1164.61 -5.84991 -2.76396 0
M  V30 12384 N 1164.74 0.6258 -1.44643 0
M  V30 12385 C 1165.99 1.3873 -1.47925 0
M  V30 12386 C 1166.32 1.93868 -0.113469 0
M  V30 12387 O 1165.6 1.73976 0.869639 0
M  V30 12388 C 1165.88 2.54867 -2.54391 0
M  V30 12389 C 1165.73 2.05044 -4.00346 0
M  V30 12390 C 1167.05 3.57043 -2.57309 0
M  V30 12391 H 1164.17 0.503087 -0.538584 0
M  V30 12392 H 1166.81 0.707102 -1.76352 0
M  V30 12393 H 1164.96 3.12894 -2.30281 0
M  V30 12394 H 1166.63 1.51807 -4.35606 0
M  V30 12395 H 1164.88 1.36185 -4.11869 0
M  V30 12396 H 1165.55 2.88681 -4.70497 0
M  V30 12397 H 1168.02 3.08826 -2.78865 0
M  V30 12398 H 1166.9 4.35818 -3.33698 0
M  V30 12399 H 1167.16 4.11464 -1.61708 0
M  V30 12400 N 1166.22 1.31629 0.866686 0
M  V30 12401 C 1167.47 1.20861 1.61479 0
M  V30 12402 C 1167.78 -0.231208 1.94229 0
M  V30 12403 O 1168.99 -0.460618 2.67564 0
M  V30 12404 C 1167.44 2.11602 2.91123 0
M  V30 12405 C 1167.05 3.60598 2.65844 0
M  V30 12406 C 1168.8 2.09642 3.69121 0
M  V30 12407 C 1166.7 4.43337 3.91415 0
M  V30 12408 H 1165.63 0.448783 0.605896 0
M  V30 12409 H 1168.28 1.56507 0.958001 0
M  V30 12410 H 1166.67 1.68858 3.58194 0
M  V30 12411 H 1167.84 4.11609 2.07159 0
M  V30 12412 H 1166.16 3.64568 2.01194 0
M  V30 12413 H 1168.75 2.68701 4.62281 0
M  V30 12414 H 1169.1 1.08438 4.01929 0
M  V30 12415 H 1169.63 2.50603 3.08938 0
M  V30 12416 H 1166.37 5.45309 3.63756 0
M  V30 12417 H 1165.89 3.97083 4.49539 0
M  V30 12418 H 1167.57 4.5572 4.5927 0
M  V30 12419 N 1167.7 -1.08142 1.14644 0
M  V30 12420 C 1168.63 -2.17139 0.858667 0
M  V30 12421 C 1169.61 -1.69064 -0.187452 0
M  V30 12422 O 1170.8 -1.94151 -0.0435458 0
M  V30 12423 C 1167.93 -3.45648 0.33834 0
M  V30 12424 C 1166.88 -4.07129 1.32021 0
M  V30 12425 C 1166.21 -5.30623 0.659075 0
M  V30 12426 C 1167.51 -4.48095 2.68343 0
M  V30 12427 H 1169.2 -2.41468 1.77012 0
M  V30 12428 H 1166.75 -1.16052 0.852523 0
M  V30 12429 H 1168.7 -4.21216 0.124611 0
M  V30 12430 H 1167.42 -3.2088 -0.608553 0
M  V30 12431 H 1166.08 -3.33596 1.52016 0
M  V30 12432 H 1165.73 -5.02142 -0.293711 0
M  V30 12433 H 1165.43 -5.72714 1.31427 0
M  V30 12434 H 1166.95 -6.08903 0.454933 0
M  V30 12435 H 1168.37 -5.14828 2.5224 0
M  V30 12436 H 1166.76 -5.01113 3.30161 0
M  V30 12437 H 1167.83 -3.59852 3.25015 0
M  V30 12438 N 1169.18 -0.941978 -1.26351 0
M  V30 12439 C 1170.4 -0.606231 -1.98342 0
M  V30 12440 C 1170.83 0.812014 -1.6967 0
M  V30 12441 O 1170.19 1.54712 -0.9452 0
M  V30 12442 C 1170.23 -0.855864 -3.50296 0
M  V30 12443 O 1169.34 0.0716251 -4.12338 0
M  V30 12444 H 1168.68 -0.231815 -0.62222 0
M  V30 12445 H 1171.21 -1.26513 -1.60797 0
M  V30 12446 H 1171.22 -0.777079 -4.00531 0
M  V30 12447 H 1169.89 -1.8896 -3.70496 0
M  V30 12448 H 1168.47 -0.0582866 -3.72854 0
M  V30 12449 N 1170.66 1.40747 -0.709091 0
M  V30 12450 C 1171.59 2.33404 -0.0669763 0
M  V30 12451 C 1172.57 1.52546 0.752582 0
M  V30 12452 O 1173.75 1.81036 0.702823 0
M  V30 12453 C 1170.88 3.36476 0.860285 0
M  V30 12454 C 1169.84 4.27748 0.146828 0
M  V30 12455 C 1169.16 5.21304 1.18937 0
M  V30 12456 C 1170.46 5.12734 -0.995064 0
M  V30 12457 H 1172.16 2.87349 -0.840888 0
M  V30 12458 H 1169.7 1.38163 -0.405817 0
M  V30 12459 H 1171.65 4.00231 1.31883 0
M  V30 12460 H 1170.38 2.80912 1.66602 0
M  V30 12461 H 1169.04 3.65437 -0.291826 0
M  V30 12462 H 1168.69 4.62048 1.98798 0
M  V30 12463 H 1168.39 5.8321 0.716917 0
M  V30 12464 H 1169.91 5.87936 1.64815 0
M  V30 12465 H 1171.32 5.69979 -0.61618 0
M  V30 12466 H 1169.72 5.83649 -1.39547 0
M  V30 12467 H 1170.79 4.49097 -1.82867 0
M  V30 12468 N 1172.13 0.454803 1.50895 0
M  V30 12469 C 1173.07 -0.393395 2.24784 0
M  V30 12470 C 1174.04 -1.01005 1.27424 0
M  V30 12471 O 1175.23 -1.04914 1.56605 0
M  V30 12472 C 1172.36 -1.54978 3.01164 0
M  V30 12473 C 1171.4 -1.0521 4.1332 0
M  V30 12474 S 1172.23 0.0200486 5.35496 0
M  V30 12475 C 1173.39 -1.14059 6.1542 0
M  V30 12476 H 1173.62 0.233864 2.96379 0
M  V30 12477 H 1171.16 0.239498 1.52531 0
M  V30 12478 H 1173.11 -2.21262 3.45765 0
M  V30 12479 H 1171.78 -2.1485 2.29125 0
M  V30 12480 H 1170.97 -1.91734 4.66105 0
M  V30 12481 H 1170.57 -0.467234 3.7107 0
M  V30 12482 H 1172.86 -2.05552 6.45565 0
M  V30 12483 H 1173.81 -0.652339 7.05089 0
M  V30 12484 H 1174.21 -1.38705 5.47194 0
M  V30 12485 N 1173.61 -1.56489 0.186789 0
M  V30 12486 C 1174.52 -2.22304 -0.749543 0
M  V30 12487 C 1175.54 -1.21949 -1.24115 0
M  V30 12488 O 1176.71 -1.5466 -1.29005 0
M  V30 12489 C 1173.78 -2.863 -1.95533 0
M  V30 12490 C 1172.84 -4.01901 -1.5091 0
M  V30 12491 C 1172.07 -4.62837 -2.6574 0
M  V30 12492 O 1172.3 -4.22681 -3.8301 0
M  V30 12493 O 1171.23 -5.52446 -2.38929 0
M  V30 12494 H 1175.06 -3.02909 -0.21908 0
M  V30 12495 H 1172.64 -1.49341 -0.0421249 0
M  V30 12496 H 1174.52 -3.2682 -2.6602 0
M  V30 12497 H 1173.2 -2.08681 -2.47455 0
M  V30 12498 H 1172.1 -3.66021 -0.773261 0
M  V30 12499 H 1173.44 -4.8116 -1.03663 0
M  V30 12500 N 1175.09 0.086862 -1.5736 0
M  V30 12501 C 1176.02 1.10538 -2.05678 0
M  V30 12502 C 1177 1.41281 -0.947293 0
M  V30 12503 O 1178.19 1.51169 -1.21908 0
M  V30 12504 C 1175.32 2.42302 -2.48812 0
M  V30 12505 C 1174.27 2.25948 -3.63499 0
M  V30 12506 C 1173.6 3.62961 -3.92637 0
M  V30 12507 C 1174.9 1.69319 -4.94094 0
M  V30 12508 H 1176.59 0.703371 -2.91021 0
M  V30 12509 H 1174.14 0.336895 -1.40004 0
M  V30 12510 H 1176.09 3.13833 -2.81224 0
M  V30 12511 H 1174.81 2.84454 -1.60479 0
M  V30 12512 H 1173.47 1.5686 -3.31347 0
M  V30 12513 H 1173.12 4.02656 -3.01459 0
M  V30 12514 H 1172.82 3.52862 -4.69853 0
M  V30 12515 H 1174.34 4.35946 -4.27531 0
M  V30 12516 H 1175.76 2.30699 -5.24834 0
M  V30 12517 H 1174.15 1.69957 -5.7553 0
M  V30 12518 H 1175.22 0.653318 -4.80479 0
M  V30 12519 N 1176.57 1.53483 0.357892 0
M  V30 12520 C 1177.82 1.69701 1.09754 0
M  V30 12521 C 1178.14 0.455389 1.89608 0
M  V30 12522 O 1177.41 -0.530623 1.88577 0
M  V30 12523 H 1175.99 0.62562 0.408178 0
M  V30 12524 H 1178.65 1.90696 0.402641 0
M  V30 12525 H 1177.74 2.56154 1.78302 0
M  V30 12526 N 1178.05 -0.61812 1.44973 0
M  V30 12527 C 1178.98 -1.74035 1.55673 0
M  V30 12528 C 1179.96 -1.65112 0.4089 0
M  V30 12529 O 1181.14 -1.83673 0.630698 0
M  V30 12530 C 1178.27 -3.1261 1.51303 0
M  V30 12531 C 1177.23 -3.36334 2.64696 0
M  V30 12532 C 1176.55 -4.75072 2.45378 0
M  V30 12533 C 1177.85 -3.27618 4.06772 0
M  V30 12534 H 1179.55 -1.65336 2.49608 0
M  V30 12535 H 1177.09 -0.794003 1.20132 0
M  V30 12536 H 1179.04 -3.90906 1.57388 0
M  V30 12537 H 1177.77 -3.22123 0.538914 0
M  V30 12538 H 1176.43 -2.60423 2.58022 0
M  V30 12539 H 1176.08 -4.81306 1.46129 0
M  V30 12540 H 1175.78 -4.91903 3.21412 0
M  V30 12541 H 1177.3 -5.55582 2.53301 0
M  V30 12542 H 1178.71 -3.95802 4.14746 0
M  V30 12543 H 1177.11 -3.55981 4.83113 0
M  V30 12544 H 1178.18 -2.25219 4.29423 0
M  V30 12545 N 1179.52 -1.32087 -0.859693 0
M  V30 12546 C 1180.75 -1.25486 -1.6513 0
M  V30 12547 C 1181.17 0.175015 -1.87284 0
M  V30 12548 O 1180.53 1.12468 -1.42199 0
M  V30 12549 C 1180.58 -2.01469 -2.9907 0
M  V30 12550 O 1179.68 -1.35904 -3.89363 0
M  V30 12551 H 1179.02 -0.432728 -0.503629 0
M  V30 12552 H 1181.55 -1.74322 -1.07112 0
M  V30 12553 H 1181.56 -2.11452 -3.4893 0
M  V30 12554 H 1180.24 -3.05448 -2.82266 0
M  V30 12555 H 1178.82 -1.34437 -3.47823 0
M  V30 12556 N 1181 1.07532 -1.15215 0
M  V30 12557 C 1182.42 1.32183 -0.894411 0
M  V30 12558 C 1182.62 1.96188 0.459614 0
M  V30 12559 O 1181.67 2.22057 1.20195 0
M  V30 12560 C 1182.99 2.21473 -2.03397 0
M  V30 12561 C 1184.53 2.34927 -2.06829 0
M  V30 12562 C 1185.01 3.27564 -3.20103 0
M  V30 12563 N 1186.5 3.35144 -3.19738 0
M  V30 12564 C 1187.24 4.0688 -4.04025 0
M  V30 12565 N 1186.73 4.81246 -4.98371 0
M  V30 12566 N 1188.52 4.02802 -3.92055 0
M  V30 12567 H 1180.68 0.643732 -2.0241 0
M  V30 12568 H 1182.94 0.346272 -0.882496 0
M  V30 12569 H 1182.64 1.81701 -3.01127 0
M  V30 12570 H 1182.52 3.2199 -1.96475 0
M  V30 12571 H 1184.91 2.73953 -1.09699 0
M  V30 12572 H 1184.99 1.34121 -2.17819 0
M  V30 12573 H 1184.63 2.89258 -4.17483 0
M  V30 12574 H 1184.56 4.2832 -3.06349 0
M  V30 12575 H 1187.05 2.82135 -2.51412 0
M  V30 12576 H 1187.36 5.33472 -5.59131 0
M  V30 12577 H 1185.71 4.80268 -5.02362 0
M  V30 12578 H 1188.9 3.43816 -3.17661 0
M  V30 12579 H 1189.07 4.58443 -4.57967 0
M  V30 12580 N 1182.48 0.948665 1.2585 0
M  V30 12581 C 1183.41 0.408398 2.24516 0
M  V30 12582 C 1184.39 -0.506954 1.54495 0
M  V30 12583 O 1185.58 -0.442695 1.83228 0
M  V30 12584 C 1182.7 -0.41241 3.3618 0
M  V30 12585 C 1181.75 0.442483 4.24198 0
M  V30 12586 S 1182.58 1.87106 5.01749 0
M  V30 12587 C 1183.74 1.05851 6.16884 0
M  V30 12588 H 1183.97 1.24458 2.69995 0
M  V30 12589 H 1181.5 0.752309 1.34832 0
M  V30 12590 H 1183.46 -0.880064 4.00955 0
M  V30 12591 H 1182.12 -1.22335 2.89297 0
M  V30 12592 H 1181.32 -0.186767 5.03654 0
M  V30 12593 H 1180.92 0.845113 3.64327 0
M  V30 12594 H 1183.21 0.304329 6.76816 0
M  V30 12595 H 1184.15 1.82678 6.8413 0
M  V30 12596 H 1184.56 0.591269 5.61395 0
M  V30 12597 N 1183.96 -1.40369 0.716545 0
M  V30 12598 C 1185.18 -2.05704 0.264729 0
M  V30 12599 C 1185.61 -1.53634 -1.08527 0
M  V30 12600 O 1184.97 -0.67212 -1.68381 0
M  V30 12601 C 1185.01 -3.59692 0.255778 0
M  V30 12602 O 1184.12 -4.05286 -0.762686 0
M  V30 12603 H 1183.46 -0.652301 0.124092 0
M  V30 12604 H 1185.99 -1.7975 0.977295 0
M  V30 12605 H 1186 -4.07892 0.0937944 0
M  V30 12606 H 1184.67 -3.96955 1.24095 0
M  V30 12607 H 1183.25 -3.68543 -0.568347 0
M  V30 12608 N 1185.44 -0.462799 -1.50652 0
M  V30 12609 C 1186.38 0.349784 -2.29955 0
M  V30 12610 C 1187.38 0.997947 -1.36885 0
M  V30 12611 O 1188.58 0.93 -1.54114 0
M  V30 12612 H 1184.96 0.131635 -0.740389 0
M  V30 12613 H 1186.93 -0.33958 -2.96461 0
M  V30 12614 C 1185.68 1.42398 -3.17204 0
M  V30 12615 H 1185 0.934611 -3.88722 0
M  V30 12616 H 1186.44 1.96528 -3.75703 0
M  V30 12617 C 1184.9 2.42135 -2.34248 0
M  V30 12618 O 1185.43 3.47229 -2.01978 0
M  V30 12619 N 1183.64 2.13647 -1.96985 0
M  V30 12620 H 1183.18 1.28209 -2.23428 0
M  V30 12621 H 1183.14 2.80615 -1.41783 0
M  V30 12622 N 1186.91 1.56388 -0.195085 0
M  V30 12623 C 1187.84 2.22091 0.720971 0
M  V30 12624 C 1188.83 1.184 1.22128 0
M  V30 12625 O 1190.01 1.46907 1.27012 0
M  V30 12626 C 1187.14 2.88025 1.94059 0
M  V30 12627 C 1186.09 3.97959 1.5752 0
M  V30 12628 C 1185.42 4.51058 2.87143 0
M  V30 12629 C 1186.72 5.16365 0.785145 0
M  V30 12630 H 1188.41 2.98898 0.173245 0
M  V30 12631 H 1185.96 1.43767 0.0818868 0
M  V30 12632 H 1187.91 3.32671 2.58666 0
M  V30 12633 H 1186.64 2.08623 2.51285 0
M  V30 12634 H 1185.3 3.54004 0.952715 0
M  V30 12635 H 1184.94 3.68418 3.42458 0
M  V30 12636 H 1184.64 5.25237 2.63439 0
M  V30 12637 H 1186.17 4.98406 3.52738 0
M  V30 12638 H 1187.58 5.57556 1.33431 0
M  V30 12639 H 1185.98 5.9661 0.646231 0
M  V30 12640 H 1187.05 4.84428 -0.213789 0
M  V30 12641 N 1188.39 -0.0785156 1.57404 0
M  V30 12642 C 1189.62 -0.795871 1.91522 0
M  V30 12643 C 1190.04 -1.70665 0.790892 0
M  V30 12644 O 1189.4 -1.79474 -0.25666 0
M  V30 12645 C 1189.45 -1.57121 3.24569 0
M  V30 12646 O 1188.55 -2.6814 3.13328 0
M  V30 12647 H 1187.89 -0.217575 0.627341 0
M  V30 12648 H 1190.42 -0.0487724 2.04542 0
M  V30 12649 H 1190.43 -1.9519 3.5828 0
M  V30 12650 H 1189.11 -0.902909 4.05981 0
M  V30 12651 H 1187.69 -2.32978 2.91163 0
M  V30 12652 N 1189.87 -1.5367 -0.349747 0
M  V30 12653 C 1191.12 -1.7087 -1.0923 0
M  V30 12654 C 1191.45 -0.467299 -1.88494 0
M  V30 12655 O 1190.72 0.535619 -1.8698 0
M  V30 12656 C 1191.01 -2.9684 -2.03858 0
M  V30 12657 C 1190.86 -4.31174 -1.28097 0
M  V30 12658 C 1192.18 -3.18459 -3.03763 0
M  V30 12659 H 1189.3 -0.621757 -0.395711 0
M  V30 12660 H 1191.94 -1.86333 -0.371481 0
M  V30 12661 H 1190.09 -2.83788 -2.65323 0
M  V30 12662 H 1191.76 -4.56066 -0.692933 0
M  V30 12663 H 1190.01 -4.29866 -0.582924 0
M  V30 12664 H 1190.68 -5.15482 -1.9744 0
M  V30 12665 H 1193.15 -3.30801 -2.52409 0
M  V30 12666 H 1192.03 -4.08006 -3.67182 0
M  V30 12667 H 1192.29 -2.34467 -3.74803 0
M  V30 12668 N 1191.35 0.610423 -1.45298 0
M  V30 12669 C 1192.28 1.73207 -1.56594 0
M  V30 12670 C 1193.26 1.64893 -0.417651 0
M  V30 12671 O 1194.44 1.83336 -0.64043 0
M  V30 12672 C 1191.57 3.11803 -1.52959 0
M  V30 12673 C 1190.53 3.34925 -2.66475 0
M  V30 12674 C 1189.85 4.73764 -2.47894 0
M  V30 12675 C 1191.15 3.25456 -4.08504 0
M  V30 12676 H 1192.85 1.6401 -2.50482 0
M  V30 12677 H 1190.39 0.787621 -1.20551 0
M  V30 12678 H 1192.35 3.90065 -1.59458 0
M  V30 12679 H 1191.07 3.21833 -0.55599 0
M  V30 12680 H 1189.73 2.59051 -2.59399 0
M  V30 12681 H 1189.38 4.80524 -1.4868 0
M  V30 12682 H 1189.08 4.90191 -3.24016 0
M  V30 12683 H 1190.6 5.54231 -2.56243 0
M  V30 12684 H 1192.02 3.93597 -4.16839 0
M  V30 12685 H 1190.41 3.53414 -4.84994 0
M  V30 12686 H 1191.48 2.22939 -4.30612 0
M  V30 12687 N 1192.83 1.32541 0.852676 0
M  V30 12688 C 1194.24 1.11575 1.14119 0
M  V30 12689 C 1194.44 -0.102469 2.01239 0
M  V30 12690 O 1193.5 -0.786786 2.39929 0
M  V30 12691 C 1194.81 2.39624 1.81661 0
M  V30 12692 C 1196.36 2.454 1.94288 0
M  V30 12693 C 1196.83 3.73375 2.65245 0
M  V30 12694 N 1198.33 3.74368 2.72769 0
M  V30 12695 C 1199.06 4.70094 3.28328 0
M  V30 12696 N 1198.56 5.76187 3.84682 0
M  V30 12697 N 1200.35 4.57588 3.26449 0
M  V30 12698 H 1192.5 2.10644 0.272544 0
M  V30 12699 H 1194.76 0.930094 0.183385 0
M  V30 12700 H 1194.47 3.28698 1.25102 0
M  V30 12701 H 1194.34 2.50734 2.81802 0
M  V30 12702 H 1196.73 1.56784 2.50005 0
M  V30 12703 H 1196.81 2.38241 0.931379 0
M  V30 12704 H 1196.46 4.62366 2.10191 0
M  V30 12705 H 1196.39 3.77806 3.66838 0
M  V30 12706 H 1198.88 2.97685 2.32791 0
M  V30 12707 H 1199.19 6.45285 4.25238 0
M  V30 12708 H 1197.53 5.79939 3.83008 0
M  V30 12709 H 1200.73 3.7387 2.81672 0
M  V30 12710 H 1200.9 5.32365 3.69448 0
M  V30 12711 N 1194.3 -1.0692 1.15784 0
M  V30 12712 C 1195.53 -1.83849 0.959903 0
M  V30 12713 C 1195.95 -1.8169 -0.486873 0
M  V30 12714 O 1195.31 -1.21305 -1.34739 0
M  V30 12715 C 1195.36 -3.28642 1.48414 0
M  V30 12716 O 1194.46 -4.0665 0.686249 0
M  V30 12717 H 1193.81 -0.569115 0.342059 0
M  V30 12718 H 1196.34 -1.34851 1.53871 0
M  V30 12719 H 1196.35 -3.7947 1.49888 0
M  V30 12720 H 1195.02 -3.29529 2.53739 0
M  V30 12721 H 1193.6 -3.65453 0.741501 0
M  V30 12722 N 1195.78 -0.955326 -1.25345 0
M  V30 12723 C 1197.03 -0.610484 -1.93079 0
M  V30 12724 C 1197.36 0.852591 -1.74817 0
M  V30 12725 O 1196.61 1.6272 -1.08723 0
M  V30 12726 C 1196.91 -0.916173 -3.45458 0
M  V30 12727 C 1196.58 -2.36539 -3.83875 0
M  V30 12728 C 1195.24 -2.76152 -3.94073 0
M  V30 12729 C 1197.59 -3.30652 -4.02888 0
M  V30 12730 C 1194.92 -4.08944 -4.20692 0
M  V30 12731 C 1197.27 -4.63057 -4.31 0
M  V30 12732 C 1195.94 -5.02464 -4.39415 0
M  V30 12733 H 1195.21 -0.223392 -0.706525 0
M  V30 12734 H 1197.85 -1.20449 -1.48877 0
M  V30 12735 H 1196.16 -0.23978 -3.91066 0
M  V30 12736 H 1197.85 -0.627929 -3.96053 0
M  V30 12737 H 1194.44 -2.04819 -3.76493 0
M  V30 12738 H 1198.63 -3.01237 -3.94423 0
M  V30 12739 H 1193.88 -4.39118 -4.25423 0
M  V30 12740 H 1198.06 -5.3596 -4.44657 0
M  V30 12741 H 1195.69 -6.05386 -4.59795 0
M  V30 12742 N 1197.26 1.39987 -0.723979 0
M  V30 12743 C 1198.68 1.54547 -0.398403 0
M  V30 12744 C 1198.88 1.69348 1.09194 0
M  V30 12745 O 1197.93 1.68778 1.87804 0
M  V30 12746 C 1199.25 2.76929 -1.1718 0
M  V30 12747 C 1200.79 2.90754 -1.15893 0
M  V30 12748 C 1201.27 4.16059 -1.91465 0
M  V30 12749 N 1202.76 4.23076 -1.88576 0
M  V30 12750 C 1203.5 5.18957 -2.43867 0
M  V30 12751 N 1202.99 6.20695 -3.0775 0
M  V30 12752 N 1204.78 5.11095 -2.33962 0
M  V30 12753 H 1196.94 1.28626 -1.69024 0
M  V30 12754 H 1199.2 0.6226 -0.714894 0
M  V30 12755 H 1198.9 2.72298 -2.22591 0
M  V30 12756 H 1198.78 3.69279 -0.768941 0
M  V30 12757 H 1201.17 2.94884 -0.112978 0
M  V30 12758 H 1201.25 1.99498 -1.60107 0
M  V30 12759 H 1200.89 4.12691 -2.96055 0
M  V30 12760 H 1200.82 5.06339 -1.44665 0
M  V30 12761 H 1203.31 3.50195 -1.42027 0
M  V30 12762 H 1203.62 6.90296 -3.47435 0
M  V30 12763 H 1201.97 6.21114 -3.11837 0
M  V30 12764 H 1205.16 4.30546 -1.83706 0
M  V30 12765 H 1205.33 5.85644 -2.77353 0
M  V30 12766 N 1198.74 0.470782 1.50404 0
M  V30 12767 C 1199.67 -0.313458 2.31386 0
M  V30 12768 C 1200.65 -0.990623 1.38278 0
M  V30 12769 O 1201.84 -0.987854 1.67198 0
M  V30 12770 C 1198.97 -1.39599 3.18009 0
M  V30 12771 C 1197.92 -0.840443 4.19667 0
M  V30 12772 C 1197.25 -2.02124 4.95025 0
M  V30 12773 C 1198.55 0.148055 5.2209 0
M  V30 12774 H 1200.24 0.362432 2.97198 0
M  V30 12775 H 1197.79 0.175745 1.42924 0
M  V30 12776 H 1199.74 -1.9521 3.73458 0
M  V30 12777 H 1198.46 -2.10064 2.50081 0
M  V30 12778 H 1197.12 -0.306302 3.65318 0
M  V30 12779 H 1196.77 -2.71286 4.23571 0
M  V30 12780 H 1196.47 -1.65574 5.6379 0
M  V30 12781 H 1197.99 -2.58226 5.5331 0
M  V30 12782 H 1199.41 -0.318874 5.72413 0
M  V30 12783 H 1197.8 0.427811 5.98573 0
M  V30 12784 H 1198.87 1.07404 4.72855 0
M  V30 12785 N 1200.22 -1.56282 0.203376 0
M  V30 12786 C 1201.15 -2.2247 -0.709183 0
M  V30 12787 C 1202.13 -1.19046 -1.21499 0
M  V30 12788 O 1203.31 -1.47578 -1.26231 0
M  V30 12789 C 1200.44 -2.8905 -1.92529 0
M  V30 12790 C 1199.4 -3.98789 -1.55407 0
M  V30 12791 C 1198.72 -4.52574 -2.84747 0
M  V30 12792 C 1200.02 -5.16774 -0.75775 0
M  V30 12793 H 1201.72 -2.98986 -0.157392 0
M  V30 12794 H 1199.26 -1.43808 -0.0742613 0
M  V30 12795 H 1201.22 -3.34038 -2.56898 0
M  V30 12796 H 1199.94 -2.09952 -2.50175 0
M  V30 12797 H 1198.6 -3.54504 -0.933928 0
M  V30 12798 H 1198.25 -3.70229 -3.40499 0
M  V30 12799 H 1197.95 -5.26627 -2.6065 0
M  V30 12800 H 1199.47 -5.00269 -3.5009 0
M  V30 12801 H 1200.89 -5.58256 -1.30472 0
M  V30 12802 H 1199.28 -5.96945 -0.614583 0
M  V30 12803 H 1200.35 -4.84308 0.239476 0
M  V30 12804 N 1201.7 0.070167 -1.57444 0
M  V30 12805 C 1203.11 0.424991 -1.53838 0
M  V30 12806 C 1203.31 1.79076 -0.923793 0
M  V30 12807 O 1202.37 2.46939 -0.527002 0
M  V30 12808 C 1203.68 0.364562 -2.98482 0
M  V30 12809 C 1205.23 0.444631 -3.09826 0
M  V30 12810 C 1205.7 0.414093 -4.56124 0
M  V30 12811 N 1207.19 0.474119 -4.60767 0
M  V30 12812 C 1207.93 0.472729 -5.71448 0
M  V30 12813 N 1207.43 0.426059 -6.91489 0
M  V30 12814 N 1209.22 0.519408 -5.59695 0
M  V30 12815 H 1201.37 -0.824117 -1.9576 0
M  V30 12816 H 1203.63 -0.309401 -0.896089 0
M  V30 12817 H 1203.34 -0.572343 -3.47012 0
M  V30 12818 H 1203.21 1.17414 -3.5846 0
M  V30 12819 H 1205.6 1.37196 -2.61269 0
M  V30 12820 H 1205.68 -0.393547 -2.52755 0
M  V30 12821 H 1205.32 -0.509394 -5.05339 0
M  V30 12822 H 1205.25 1.26983 -5.11061 0
M  V30 12823 H 1207.75 0.514371 -3.74383 0
M  V30 12824 H 1208.06 0.428969 -7.71609 0
M  V30 12825 H 1206.4 0.392722 -6.9389 0
M  V30 12826 H 1209.59 0.553573 -4.64815 0
M  V30 12827 H 1209.77 0.514856 -6.45951 0
M  V30 12828 N 1203.17 1.53854 0.341593 0
M  V30 12829 C 1204.42 1.71447 1.08322 0
M  V30 12830 C 1204.75 0.477289 1.88243 0
M  V30 12831 O 1204.03 -0.525695 1.87261 0
M  V30 12832 C 1204.31 2.97917 2.02281 0
M  V30 12833 C 1204.16 4.31847 1.25809 0
M  V30 12834 C 1205.48 3.20065 3.0207 0
M  V30 12835 H 1202.6 0.623847 0.392408 0
M  V30 12836 H 1205.24 1.86527 0.361594 0
M  V30 12837 H 1203.39 2.85191 2.63815 0
M  V30 12838 H 1205.07 4.56427 0.668737 0
M  V30 12839 H 1203.31 4.30169 0.560119 0
M  V30 12840 H 1203.98 5.16522 1.94704 0
M  V30 12841 H 1206.46 3.32135 2.50651 0
M  V30 12842 H 1205.33 4.09947 3.65013 0
M  V30 12843 H 1205.59 2.36452 3.73554 0
M  V30 12844 N 1204.65 -0.602709 1.4562 0
M  V30 12845 C 1205.9 -1.36158 1.49891 0
M  V30 12846 C 1206.23 -1.93977 0.142581 0
M  V30 12847 O 1205.48 -1.75822 -0.859374 0
M  V30 12848 C 1205.78 -2.52474 2.52966 0
M  V30 12849 C 1205.45 -2.12772 3.97541 0
M  V30 12850 C 1204.11 -2.01658 4.36907 0
M  V30 12851 C 1206.46 -1.8186 4.88443 0
M  V30 12852 C 1203.79 -1.57862 5.65063 0
M  V30 12853 C 1206.14 -1.39548 6.17016 0
M  V30 12854 C 1204.8 -1.26997 6.55308 0
M  V30 12855 H 1204.07 -0.498236 0.54849 0
M  V30 12856 H 1206.72 -0.680738 1.78992 0
M  V30 12857 H 1205.03 -3.25917 2.17452 0
M  V30 12858 H 1206.72 -3.10701 2.53507 0
M  V30 12859 H 1203.31 -2.22349 3.66413 0
M  V30 12860 H 1207.5 -1.89341 4.58763 0
M  V30 12861 H 1202.75 -1.46771 5.93522 0
M  V30 12862 H 1206.93 -1.14677 6.86893 0
M  V30 12863 H 1204.55 -0.928346 7.5451 0
M  V30 12864 N 1206.13 -1.32992 -0.845635 0
M  V30 12865 C 1207.08 -1.22682 -1.95494 0
M  V30 12866 C 1208.05 -0.106942 -1.65755 0
M  V30 12867 O 1209.23 -0.28405 -1.88674 0
M  V30 12868 C 1206.37 -0.965068 -3.31331 0
M  V30 12869 C 1205.48 -2.17058 -3.7351 0
M  V30 12870 C 1204.62 -1.84355 -4.98183 0
M  V30 12871 C 1203.66 -3.01176 -5.32878 0
M  V30 12872 N 1202.8 -2.68506 -6.48729 0
M  V30 12873 H 1207.64 -2.17562 -2.03644 0
M  V30 12874 H 1205.17 -1.08194 -0.996613 0
M  V30 12875 H 1207.13 -0.793771 -4.09579 0
M  V30 12876 H 1205.76 -0.0530285 -3.22756 0
M  V30 12877 H 1204.81 -2.45185 -2.90841 0
M  V30 12878 H 1206.12 -3.04413 -3.95138 0
M  V30 12879 H 1205.28 -1.6383 -5.84162 0
M  V30 12880 H 1204.02 -0.942264 -4.78511 0
M  V30 12881 H 1203.02 -3.22323 -4.45408 0
M  V30 12882 H 1204.25 -3.9205 -5.54503 0
M  V30 12883 H 1202.19 -1.80929 -6.30556 0
M  V30 12884 H 1202.11 -3.49392 -6.70419 0
M  V30 12885 H 1203.38 -2.51432 -7.37836 0
M  V30 12886 N 1207.61 1.06304 -1.1635 0
M  V30 12887 C 1208.54 2.15745 -0.893103 0
M  V30 12888 C 1209.52 1.69341 0.160531 0
M  V30 12889 O 1210.7 1.94196 0.0126526 0
M  V30 12890 C 1207.83 3.45066 -0.393287 0
M  V30 12891 C 1206.79 4.04978 -1.38482 0
M  V30 12892 C 1206.11 5.29507 -0.743409 0
M  V30 12893 C 1207.41 4.4377 -2.75438 0
M  V30 12894 H 1209.11 2.38622 -1.80831 0
M  V30 12895 H 1206.65 1.14681 -0.870878 0
M  V30 12896 H 1208.61 4.20964 -0.191607 0
M  V30 12897 H 1207.33 3.21808 0.557426 0
M  V30 12898 H 1205.99 3.31136 -1.57304 0
M  V30 12899 H 1205.64 5.02545 0.213787 0
M  V30 12900 H 1205.34 5.7055 -1.40521 0
M  V30 12901 H 1206.86 6.08102 -0.551746 0
M  V30 12902 H 1208.28 5.1075 -2.60398 0
M  V30 12903 H 1206.67 4.95797 -3.38091 0
M  V30 12904 H 1207.74 3.54636 -3.30699 0
M  V30 12905 N 1209.09 0.96196 1.24836 0
M  V30 12906 C 1210.05 0.492443 2.23847 0
M  V30 12907 C 1211.05 -0.40788 1.55541 0
M  V30 12908 O 1212.24 -0.204143 1.73 0
M  V30 12909 C 1209.37 -0.287578 3.39685 0
M  V30 12910 H 1210.56 1.36767 2.66899 0
M  V30 12911 H 1208.12 0.745967 1.3735 0
M  V30 12912 H 1208.85 -1.18015 3.02064 0
M  V30 12913 H 1208.64 0.358431 3.90458 0
M  V30 12914 H 1210.13 -0.605297 4.1319 0
M  V30 12915 N 1210.56 -1.39601 0.731392 0
M  V30 12916 C 1211.51 -2.30628 0.0890606 0
M  V30 12917 C 1212.48 -1.49025 -0.73353 0
M  V30 12918 O 1213.67 -1.77722 -0.694234 0
M  V30 12919 C 1210.81 -3.35339 -0.814956 0
M  V30 12920 C 1209.92 -4.31995 0.0198606 0
M  V30 12921 C 1209.05 -5.23774 -0.885095 0
M  V30 12922 C 1208.09 -6.12083 -0.045311 0
M  V30 12923 N 1207.23 -6.9623 -0.906002 0
M  V30 12924 H 1212.07 -2.84988 0.870958 0
M  V30 12925 H 1209.61 -1.40329 0.441166 0
M  V30 12926 H 1211.56 -3.94634 -1.3535 0
M  V30 12927 H 1210.19 -2.82443 -1.56287 0
M  V30 12928 H 1209.25 -3.74349 0.675778 0
M  V30 12929 H 1210.56 -4.94289 0.669346 0
M  V30 12930 H 1209.71 -5.88078 -1.49161 0
M  V30 12931 H 1208.45 -4.61794 -1.56837 0
M  V30 12932 H 1207.46 -5.46795 0.574028 0
M  V30 12933 H 1208.68 -6.76128 0.634692 0
M  V30 12934 H 1206.63 -6.36821 -1.57463 0
M  V30 12935 H 1206.54 -7.55352 -0.312914 0
M  V30 12936 H 1207.81 -7.64967 -1.49819 0
M  V30 12937 N 1212.04 -0.478751 -1.50152 0
M  V30 12938 C 1213.27 0.0732929 -2.0727 0
M  V30 12939 C 1213.69 1.32066 -1.33941 0
M  V30 12940 O 1213.05 1.7707 -0.389367 0
M  V30 12941 C 1213.1 0.332528 -3.59064 0
M  V30 12942 O 1212.2 1.41158 -3.8749 0
M  V30 12943 H 1211.54 -0.0163684 -0.663798 0
M  V30 12944 H 1214.07 -0.671993 -1.9325 0
M  V30 12945 H 1214.08 0.570735 -4.03988 0
M  V30 12946 H 1212.76 -0.578934 -4.11851 0
M  V30 12947 H 1211.34 1.16008 -3.54396 0
M  V30 12948 N 1213.52 1.56172 -0.211661 0
M  V30 12949 C 1214.77 1.99087 0.416624 0
M  V30 12950 C 1215.12 1.09668 1.58084 0
M  V30 12951 O 1214.41 0.144533 1.91054 0
M  V30 12952 C 1214.61 3.45636 0.909442 0
M  V30 12953 C 1214.44 4.4923 -0.205486 0
M  V30 12954 C 1213.21 5.00857 -0.668617 0
M  V30 12955 C 1215.41 5.04078 -1.02029 0
M  V30 12956 N 1213.39 5.88141 -1.75964 0
M  V30 12957 C 1214.76 5.88192 -1.96037 0
M  V30 12958 C 1216.81 4.86467 -1.06085 0
M  V30 12959 C 1215.52 6.56576 -2.93768 0
M  V30 12960 C 1217.54 5.55604 -2.02629 0
M  V30 12961 C 1216.9 6.39477 -2.95378 0
M  V30 12962 H 1213 0.77283 0.119404 0
M  V30 12963 H 1215.59 1.92033 -0.321163 0
M  V30 12964 H 1213.76 3.53157 1.61662 0
M  V30 12965 H 1215.49 3.75486 1.50972 0
M  V30 12966 H 1212.25 4.72891 -0.258977 0
M  V30 12967 H 1212.67 6.36485 -2.30685 0
M  V30 12968 H 1217.31 4.21284 -0.357726 0
M  V30 12969 H 1215.03 7.20948 -3.65048 0
M  V30 12970 H 1218.62 5.43947 -2.06428 0
M  V30 12971 H 1217.5 6.92032 -3.68864 0
M  V30 12972 N 1215 -0.0618163 1.57479 0
M  V30 12973 C 1216.41 -0.612461 1.76368 0
M  V30 12974 C 1216.76 -1.77381 0.838466 0
M  V30 12975 O 1215.89 -2.16386 0.0250211 0
M  V30 12976 C 1216.48 -1.11782 3.19829 0
M  V30 12977 C 1215.04 -1.61424 3.40028 0
M  V30 12978 C 1214.19 -0.53795 2.72032 0
M  V30 12979 H 1217.14 0.164382 1.57846 0
M  V30 12980 H 1217.16 -1.98634 3.24538 0
M  V30 12981 H 1216.67 -0.272353 3.87143 0
M  V30 12982 H 1214.77 -2.48263 2.77842 0
M  V30 12983 H 1214.88 -1.68431 4.48517 0
M  V30 12984 H 1213.25 -0.985355 2.34868 0
M  V30 12985 H 1214.03 0.297495 3.42009 0
M  V30 12986 N 1216.48 -1.54033 -0.333429 0
M  V30 12987 C 1217.7 -1.75716 -1.09232 0
M  V30 12988 C 1218.12 -0.501076 -1.82029 0
M  V30 12989 O 1217.48 0.527772 -1.74702 0
M  V30 12990 C 1217.53 -2.9439 -2.09802 0
M  V30 12991 O 1217.25 -4.15141 -1.39963 0
M  V30 12992 C 1218.75 -3.28206 -2.97987 0
M  V30 12993 H 1215.97 -0.586859 -0.325326 0
M  V30 12994 H 1218.51 -2.0089 -0.382555 0
M  V30 12995 H 1216.67 -2.71518 -2.76327 0
M  V30 12996 H 1217.08 -4.81826 -2.0723 0
M  V30 12997 H 1218.56 -4.14568 -3.64469 0
M  V30 12998 H 1219.03 -2.44944 -3.64553 0
M  V30 12999 H 1219.64 -3.5312 -2.37036 0
M  V30 13000 N 1217.95 0.594978 -1.45938 0
M  V30 13001 C 1218.88 1.71536 -1.58422 0
M  V30 13002 C 1219.87 1.64441 -0.435116 0
M  V30 13003 O 1221.05 1.82647 -0.659839 0
M  V30 13004 C 1218.18 3.10163 -1.56257 0
M  V30 13005 C 1217.13 3.3208 -2.70013 0
M  V30 13006 C 1216.46 4.71108 -2.52905 0
M  V30 13007 C 1217.76 3.21105 -4.11933 0
M  V30 13008 H 1219.45 1.61344 -2.52207 0
M  V30 13009 H 1217 0.774791 -1.2138 0
M  V30 13010 H 1218.95 3.88352 -1.63587 0
M  V30 13011 H 1217.68 3.21225 -0.590093 0
M  V30 13012 H 1216.34 2.56286 -2.62132 0
M  V30 13013 H 1215.98 4.7892 -1.53768 0
M  V30 13014 H 1215.68 4.86727 -3.29197 0
M  V30 13015 H 1217.21 5.51482 -2.62107 0
M  V30 13016 H 1218.62 3.89153 -4.2099 0
M  V30 13017 H 1217.02 3.4825 -4.88715 0
M  V30 13018 H 1218.09 2.18359 -4.32952 0
M  V30 13019 N 1219.43 1.33438 0.838571 0
M  V30 13020 C 1220.38 1.23698 1.96981 0
M  V30 13021 C 1221.37 0.138299 1.68835 0
M  V30 13022 O 1222.58 0.302278 1.77444 0
M  V30 13023 H 1218.96 0.383874 0.646641 0
M  V30 13024 H 1220.93 2.19337 2.02321 0
M  V30 13025 C 1219.68 0.993362 3.33208 0
M  V30 13026 H 1219 1.83104 3.55405 0
M  V30 13027 H 1220.44 0.965517 4.1286 0
M  V30 13028 C 1218.9 -0.303701 3.35528 0
M  V30 13029 O 1219.43 -1.3103 3.79729 0
M  V30 13030 N 1217.63 -0.331342 2.88705 0
M  V30 13031 H 1217.18 0.488351 2.52929 0
M  V30 13032 H 1217.14 -1.199 2.9064 0
M  V30 13033 N 1220.91 -1.05686 1.16912 0
M  V30 13034 C 1222.14 -1.82282 0.978811 0
M  V30 13035 C 1222.55 -1.8278 -0.472972 0
M  V30 13036 O 1221.91 -1.25143 -1.32836 0
M  V30 13037 C 1221.96 -3.28623 1.50629 0
M  V30 13038 O 1221.68 -3.28269 2.90122 0
M  V30 13039 C 1223.18 -4.21927 1.35987 0
M  V30 13040 H 1220.4 -0.574558 0.346588 0
M  V30 13041 H 1222.95 -1.33301 1.55084 0
M  V30 13042 H 1221.1 -3.74893 0.976404 0
M  V30 13043 H 1221.52 -4.19824 3.14401 0
M  V30 13044 H 1222.99 -5.2261 1.77716 0
M  V30 13045 H 1223.47 -4.38131 0.30626 0
M  V30 13046 H 1224.07 -3.81508 1.87968 0
M  V30 13047 N 1222.39 -0.968567 -1.24324 0
M  V30 13048 C 1223.32 -0.518323 -2.27674 0
M  V30 13049 C 1224.3 0.442479 -1.64244 0
M  V30 13050 O 1225.48 0.338416 -1.91229 0
M  V30 13051 C 1222.61 0.191459 -3.46772 0
M  V30 13052 C 1221.57 -0.685449 -4.22476 0
M  V30 13053 C 1220.89 0.155873 -5.34473 0
M  V30 13054 C 1222.19 -1.97047 -4.83704 0
M  V30 13055 H 1223.89 -1.38215 -2.65588 0
M  V30 13056 H 1221.43 -0.66604 -1.27671 0
M  V30 13057 H 1223.39 0.517667 -4.18208 0
M  V30 13058 H 1222.11 1.08965 -3.07887 0
M  V30 13059 H 1220.77 -0.994942 -3.52841 0
M  V30 13060 H 1220.42 1.05424 -4.91828 0
M  V30 13061 H 1220.12 -0.427655 -5.86042 0
M  V30 13062 H 1221.64 0.476733 -6.08736 0
M  V30 13063 H 1223.06 -1.70979 -5.4721 0
M  V30 13064 H 1221.45 -2.50079 -5.45509 0
M  V30 13065 H 1222.52 -2.66484 -4.0511 0
M  V30 13066 N 1223.87 1.39211 -0.738786 0
M  V30 13067 C 1225.12 1.99673 -0.285254 0
M  V30 13068 C 1225.43 1.59297 1.13507 0
M  V30 13069 O 1226.63 2.12622 1.68832 0
M  V30 13070 C 1225.09 3.5696 -0.45906 0
M  V30 13071 C 1224.7 4.06297 -1.88751 0
M  V30 13072 C 1226.44 4.24446 -0.0674954 0
M  V30 13073 C 1224.35 5.56171 -2.01067 0
M  V30 13074 H 1223.28 0.746945 -0.102901 0
M  V30 13075 H 1225.93 1.59163 -0.913209 0
M  V30 13076 H 1224.31 3.95285 0.23785 0
M  V30 13077 H 1225.49 3.79297 -2.61669 0
M  V30 13078 H 1223.8 3.51486 -2.23264 0
M  V30 13079 H 1226.4 5.34521 -0.138475 0
M  V30 13080 H 1226.74 4.04653 0.977823 0
M  V30 13081 H 1227.27 3.91309 -0.715704 0
M  V30 13082 H 1224.01 5.80849 -3.03801 0
M  V30 13083 H 1223.53 5.84961 -1.32591 0
M  V30 13084 H 1225.21 6.21642 -1.79362 0
M  V30 13085 N 1225.34 0.486708 1.49896 0
M  V30 13086 C 1226.29 -0.299294 2.28851 0
M  V30 13087 C 1227.26 -0.973251 1.346 0
M  V30 13088 O 1228.45 -0.982678 1.63548 0
M  V30 13089 C 1225.59 -1.36624 3.16904 0
M  V30 13090 C 1224.7 -0.705492 4.262 0
M  V30 13091 C 1223.83 -1.75165 5.01488 0
M  V30 13092 C 1222.87 -1.072 6.0264 0
M  V30 13093 N 1222.01 -2.06172 6.71147 0
M  V30 13094 H 1226.85 0.380272 2.95564 0
M  V30 13095 H 1224.39 0.199377 1.45743 0
M  V30 13096 H 1226.35 -1.99666 3.66319 0
M  V30 13097 H 1224.98 -2.01476 2.52205 0
M  V30 13098 H 1224.03 0.0378757 3.80381 0
M  V30 13099 H 1225.34 -0.169774 4.98511 0
M  V30 13100 H 1224.49 -2.45749 5.547 0
M  V30 13101 H 1223.23 -2.3212 4.28919 0
M  V30 13102 H 1222.24 -0.351868 5.48673 0
M  V30 13103 H 1223.46 -0.509139 6.77189 0
M  V30 13104 H 1221.41 -2.62115 6.01358 0
M  V30 13105 H 1221.33 -1.57627 7.39385 0
M  V30 13106 H 1222.59 -2.76088 7.28969 0
M  V30 13107 N 1226.82 -1.56058 0.219941 0
M  V30 13108 C 1228.07 -1.97436 -0.412543 0
M  V30 13109 C 1228.39 -1.11058 -1.61014 0
M  V30 13110 O 1229.59 -1.42328 -2.31203 0
M  V30 13111 C 1228.05 -3.51227 -0.785362 0
M  V30 13112 C 1227.66 -4.46305 0.389328 0
M  V30 13113 C 1229.4 -4.01321 -1.38354 0
M  V30 13114 C 1227.31 -5.914 -0.00583531 0
M  V30 13115 H 1226.24 -0.73728 -0.157906 0
M  V30 13116 H 1228.89 -1.8076 0.315898 0
M  V30 13117 H 1227.27 -3.63497 -1.57118 0
M  V30 13118 H 1228.44 -4.45781 1.16686 0
M  V30 13119 H 1226.76 -4.06543 0.900633 0
M  V30 13120 H 1229.36 -5.07221 -1.69207 0
M  V30 13121 H 1229.7 -3.47077 -2.29876 0
M  V30 13122 H 1230.23 -3.92267 -0.66119 0
M  V30 13123 H 1226.97 -6.49623 0.87583 0
M  V30 13124 H 1226.49 -5.95121 -0.74772 0
M  V30 13125 H 1228.17 -6.45549 -0.43308 0
M  V30 13126 N 1228.3 0.053464 -1.57509 0
M  V30 13127 C 1229.55 0.748016 -1.87317 0
M  V30 13128 C 1229.86 1.77805 -0.815161 0
M  V30 13129 O 1231.07 2.52347 -1.00167 0
M  V30 13130 C 1229.53 1.38137 -3.32334 0
M  V30 13131 C 1229.13 0.388958 -4.46308 0
M  V30 13132 C 1230.88 2.05722 -3.7132 0
M  V30 13133 C 1228.78 1.02927 -5.82374 0
M  V30 13134 H 1227.71 0.283123 -0.698826 0
M  V30 13135 H 1230.37 0.00170723 -1.835 0
M  V30 13136 H 1228.75 2.17656 -3.3082 0
M  V30 13137 H 1229.92 -0.377752 -4.59249 0
M  V30 13138 H 1228.24 -0.183447 -4.15996 0
M  V30 13139 H 1230.83 2.54437 -4.70283 0
M  V30 13140 H 1231.18 2.86475 -3.02056 0
M  V30 13141 H 1231.71 1.3301 -3.74904 0
M  V30 13142 H 1228.45 0.261674 -6.54977 0
M  V30 13143 H 1227.97 1.7664 -5.732 0
M  V30 13144 H 1229.65 1.54378 -6.28312 0
M  V30 13145 N 1229.78 1.54207 0.325255 0
M  V30 13146 C 1231.03 1.71991 1.0613 0
M  V30 13147 C 1231.35 0.495505 1.88599 0
M  V30 13148 O 1230.62 -0.490504 1.8966 0
M  V30 13149 H 1229.2 0.634137 0.394816 0
M  V30 13150 H 1231.86 1.91507 0.362101 0
M  V30 13151 H 1230.96 2.59878 1.72829 0
M  V30 13152 N 1231.26 -0.58723 1.46251 0
M  V30 13153 C 1232.21 -1.71771 1.56836 0
M  V30 13154 C 1233.2 -1.63664 0.437096 0
M  V30 13155 O 1234.41 -1.69212 0.613797 0
M  V30 13156 H 1230.78 -0.567841 0.493012 0
M  V30 13157 H 1232.75 -1.59974 2.51895 0
M  V30 13158 C 1231.5 -3.10159 1.57152 0
M  V30 13159 H 1230.82 -3.17066 2.43535 0
M  V30 13160 H 1232.26 -3.89032 1.68613 0
M  V30 13161 C 1230.72 -3.35567 0.299374 0
M  V30 13162 O 1231.25 -3.97006 -0.612291 0
M  V30 13163 N 1229.46 -2.89987 0.188695 0
M  V30 13164 H 1229.01 -2.4017 0.93147 0
M  V30 13165 H 1228.96 -3.0736 -0.661612 0
M  V30 13166 N 1232.74 -1.33881 -0.831482 0
M  V30 13167 C 1233.96 -1.28961 -1.62431 0
M  V30 13168 C 1234.39 0.135249 -1.87613 0
M  V30 13169 O 1233.74 1.09426 -1.44553 0
M  V30 13170 C 1233.79 -2.07767 -2.94729 0
M  V30 13171 O 1232.9 -1.44133 -3.86393 0
M  V30 13172 H 1232.24 -0.443313 -0.494337 0
M  V30 13173 H 1234.77 -1.76555 -1.0339 0
M  V30 13174 H 1234.78 -2.18806 -3.44366 0
M  V30 13175 H 1233.45 -3.11367 -2.75724 0
M  V30 13176 H 1232.03 -1.41784 -3.44894 0
M  V30 13177 N 1234.21 1.05064 -1.1747 0
M  V30 13178 C 1235.46 1.78352 -0.965311 0
M  V30 13179 C 1235.79 1.87527 0.504707 0
M  V30 13180 O 1235.07 1.376 1.37465 0
M  V30 13181 C 1235.35 3.22173 -1.60862 0
M  V30 13182 C 1235.2 3.21003 -3.15083 0
M  V30 13183 C 1236.52 4.2004 -1.31358 0
M  V30 13184 H 1233.64 0.647452 -0.352101 0
M  V30 13185 H 1236.28 1.22794 -1.44988 0
M  V30 13186 H 1234.43 3.69613 -1.19658 0
M  V30 13187 H 1236.11 2.81629 -3.65353 0
M  V30 13188 H 1234.35 2.59309 -3.47766 0
M  V30 13189 H 1235.02 4.22516 -3.55224 0
M  V30 13190 H 1237.5 3.81099 -1.6704 0
M  V30 13191 H 1236.37 5.1891 -1.78953 0
M  V30 13192 H 1236.63 4.41477 -0.234606 0
M  V30 13193 N 1235.69 0.975146 1.23809 0
M  V30 13194 C 1236.94 0.639858 1.91704 0
M  V30 13195 C 1237.26 -0.828557 1.76522 0
M  V30 13196 O 1236.53 -1.59217 1.14135 0
M  V30 13197 H 1235.11 0.233667 0.709513 0
M  V30 13198 H 1237.77 1.23782 1.50545 0
M  V30 13199 H 1236.87 0.886915 2.99233 0
M  V30 13200 N 1237.17 -1.38817 0.746158 0
M  V30 13201 C 1238.13 -2.28876 0.121886 0
M  V30 13202 C 1239.13 -1.46838 -0.655379 0
M  V30 13203 O 1240.32 -1.67377 -0.482744 0
M  V30 13204 C 1237.45 -3.30487 -0.836118 0
M  V30 13205 H 1238.65 -2.85586 0.915453 0
M  V30 13206 H 1236.2 -1.47652 0.512691 0
M  V30 13207 H 1236.94 -2.78853 -1.65563 0
M  V30 13208 H 1236.72 -3.9109 -0.281271 0
M  V30 13209 H 1238.21 -3.97848 -1.26914 0
M  V30 13210 N 1238.65 -0.49465 -1.49636 0
M  V30 13211 C 1239.58 0.276606 -2.31856 0
M  V30 13212 C 1240.56 0.968499 -1.39836 0
M  V30 13213 O 1241.74 0.96113 -1.68748 0
M  V30 13214 C 1238.87 1.34522 -3.20189 0
M  V30 13215 C 1237.83 0.773571 -4.20951 0
M  V30 13216 C 1237.15 1.94223 -4.98178 0
M  V30 13217 C 1238.45 -0.231096 -5.21788 0
M  V30 13218 H 1240.15 -0.409668 -2.96584 0
M  V30 13219 H 1237.69 -0.198461 -1.42626 0
M  V30 13220 H 1239.65 1.89244 -3.76517 0
M  V30 13221 H 1238.37 2.06059 -2.53392 0
M  V30 13222 H 1237.03 0.248144 -3.65759 0
M  V30 13223 H 1236.68 2.64514 -4.27834 0
M  V30 13224 H 1236.38 1.56584 -5.66353 0
M  V30 13225 H 1237.9 2.49391 -5.57348 0
M  V30 13226 H 1239.32 0.227768 -5.72847 0
M  V30 13227 H 1237.71 -0.522984 -5.97817 0
M  V30 13228 H 1238.78 -1.14914 -4.71087 0
M  V30 13229 N 1240.13 1.55939 -0.228214 0
M  V30 13230 C 1241.37 1.98084 0.400884 0
M  V30 13231 C 1241.69 1.11727 1.59819 0
M  V30 13232 O 1240.96 0.195794 1.94919 0
M  V30 13233 H 1239.54 0.731558 0.151102 0
M  V30 13234 H 1242.21 1.92211 -0.322659 0
M  V30 13235 H 1241.3 3.03617 0.722706 0
M  V30 13236 N 1241.6 -0.0451101 1.57535 0
M  V30 13237 C 1242.55 -1.0692 2.06569 0
M  V30 13238 C 1243.55 -1.38443 0.976218 0
M  V30 13239 O 1244.75 -1.37536 1.1612 0
M  V30 13240 H 1241.13 -0.36226 0.658993 0
M  V30 13241 H 1243.1 -0.629709 2.9168 0
M  V30 13242 C 1241.85 -2.36656 2.54733 0
M  V30 13243 H 1241.17 -2.13257 3.38174 0
M  V30 13244 H 1242.61 -3.06696 2.92769 0
M  V30 13245 C 1241.07 -3.04499 1.4416 0
M  V30 13246 O 1241.6 -3.93679 0.798721 0
M  V30 13247 N 1239.81 -2.6556 1.18009 0
M  V30 13248 H 1239.35 -1.93126 1.7047 0
M  V30 13249 H 1239.31 -3.11272 0.442363 0
M  V30 13250 N 1243.08 -1.54377 -0.317073 0
M  V30 13251 C 1244.01 -1.8721 -1.39552 0
M  V30 13252 C 1244.99 -0.729483 -1.53664 0
M  V30 13253 O 1246.18 -0.983799 -1.67437 0
M  V30 13254 C 1243.31 -2.1052 -2.76222 0
M  V30 13255 C 1242.26 -3.26366 -2.76892 0
M  V30 13256 C 1241.59 -3.35061 -4.16699 0
M  V30 13257 C 1242.89 -4.63862 -2.40061 0
M  V30 13258 H 1244.58 -2.77532 -1.12323 0
M  V30 13259 H 1242.13 -1.33536 -0.538897 0
M  V30 13260 H 1244.08 -2.32073 -3.51739 0
M  V30 13261 H 1242.81 -1.16953 -3.04942 0
M  V30 13262 H 1241.46 -3.0471 -2.03831 0
M  V30 13263 H 1241.11 -2.39041 -4.4257 0
M  V30 13264 H 1240.81 -4.12923 -4.18053 0
M  V30 13265 H 1242.34 -3.58856 -4.94019 0
M  V30 13266 H 1243.75 -4.85252 -3.05292 0
M  V30 13267 H 1242.15 -5.44321 -2.52655 0
M  V30 13268 H 1243.22 -4.6567 -1.35202 0
M  V30 13269 N 1244.56 0.579466 -1.4656 0
M  V30 13270 C 1245.79 1.36351 -1.55615 0
M  V30 13271 C 1246.2 1.87755 -0.198405 0
M  V30 13272 O 1245.56 1.63795 0.804834 0
M  V30 13273 C 1245.61 2.54881 -2.56355 0
M  V30 13274 O 1245.33 2.05607 -3.86856 0
M  V30 13275 C 1246.83 3.47391 -2.75381 0
M  V30 13276 H 1244.05 0.416426 -0.526147 0
M  V30 13277 H 1246.6 0.704134 -1.91995 0
M  V30 13278 H 1244.75 3.16802 -2.2297 0
M  V30 13279 H 1245.17 2.82823 -4.41714 0
M  V30 13280 H 1246.64 4.27031 -3.49783 0
M  V30 13281 H 1247.12 3.99532 -1.82403 0
M  V30 13282 H 1247.72 2.91303 -3.09875 0
M  V30 13283 N 1246.04 1.3432 0.824371 0
M  V30 13284 C 1246.97 1.2842 1.95014 0
M  V30 13285 C 1247.95 0.161925 1.69328 0
M  V30 13286 O 1249.13 0.354052 1.90945 0
M  V30 13287 C 1246.26 1.03741 3.31444 0
M  V30 13288 C 1245.22 2.12419 3.71567 0
M  V30 13289 C 1244.54 1.72931 5.05963 0
M  V30 13290 C 1245.84 3.54235 3.83817 0
M  V30 13291 H 1247.54 2.22614 2.00209 0
M  V30 13292 H 1245.08 1.07165 0.961856 0
M  V30 13293 H 1247.04 0.982586 4.09784 0
M  V30 13294 H 1245.76 0.0598892 3.26545 0
M  V30 13295 H 1244.42 2.16968 2.955 0
M  V30 13296 H 1244.07 0.738433 4.9755 0
M  V30 13297 H 1243.77 2.45668 5.3378 0
M  V30 13298 H 1245.29 1.68941 5.86763 0
M  V30 13299 H 1246.71 3.52106 4.52432 0
M  V30 13300 H 1245.1 4.25581 4.23085 0
M  V30 13301 H 1246.17 3.91682 2.85856 0
M  V30 13302 N 1247.52 -1.0444 1.18026 0
M  V30 13303 C 1248.76 -1.77838 0.974756 0
M  V30 13304 C 1249.1 -1.87792 -0.494755 0
M  V30 13305 O 1248.37 -1.38327 -1.36733 0
M  V30 13306 C 1248.65 -3.21315 1.62569 0
M  V30 13307 C 1248.51 -3.19327 3.16781 0
M  V30 13308 C 1249.83 -4.19337 1.33583 0
M  V30 13309 H 1246.94 -0.645575 0.35553 0
M  V30 13310 H 1249.59 -1.22023 1.45638 0
M  V30 13311 H 1247.74 -3.68974 1.21617 0
M  V30 13312 H 1249.41 -2.79687 3.66842 0
M  V30 13313 H 1247.65 -2.57461 3.49137 0
M  V30 13314 H 1248.32 -4.20626 3.5746 0
M  V30 13315 H 1250.8 -3.80208 1.69059 0
M  V30 13316 H 1249.67 -5.17953 1.81702 0
M  V30 13317 H 1249.94 -4.41346 0.258016 0
M  V30 13318 N 1248.99 -0.981699 -1.2329 0
M  V30 13319 C 1249.92 -0.542441 -2.27112 0
M  V30 13320 C 1250.91 0.425034 -1.64704 0
M  V30 13321 O 1252.09 0.318114 -1.91577 0
M  V30 13322 C 1249.22 0.154668 -3.46955 0
M  V30 13323 C 1248.17 -0.73022 -4.21725 0
M  V30 13324 C 1247.5 0.0991766 -5.34608 0
M  V30 13325 C 1248.8 -2.02166 -4.81587 0
M  V30 13326 H 1250.49 -1.41024 -2.64107 0
M  V30 13327 H 1248.04 -0.679544 -1.26957 0
M  V30 13328 H 1249.99 0.473281 -4.18734 0
M  V30 13329 H 1248.72 1.05693 -3.09025 0
M  V30 13330 H 1247.38 -1.03231 -3.51765 0
M  V30 13331 H 1247.02 1.00201 -4.92919 0
M  V30 13332 H 1246.72 -0.489788 -5.85555 0
M  V30 13333 H 1248.25 0.412141 -6.09207 0
M  V30 13334 H 1249.66 -1.76773 -5.45366 0
M  V30 13335 H 1248.06 -2.55851 -5.42826 0
M  V30 13336 H 1249.13 -2.70766 -4.02261 0
M  V30 13337 N 1250.47 1.3842 -0.753509 0
M  V30 13338 C 1251.44 2.28808 -0.134022 0
M  V30 13339 C 1252.44 1.47184 0.647583 0
M  V30 13340 O 1253.63 1.67631 0.473861 0
M  V30 13341 C 1250.76 3.30926 0.81858 0
M  V30 13342 H 1251.95 2.85097 -0.930586 0
M  V30 13343 H 1249.5 1.47378 -0.520514 0
M  V30 13344 H 1250.24 2.79728 1.64082 0
M  V30 13345 H 1250.02 3.91234 0.260526 0
M  V30 13346 H 1251.51 3.98515 1.24802 0
M  V30 13347 N 1251.95 0.502579 1.49372 0
M  V30 13348 C 1253.2 -0.0432341 2.01654 0
M  V30 13349 C 1253.51 -1.379 1.38719 0
M  V30 13350 O 1254.72 -2.01159 1.82338 0
M  V30 13351 C 1253.17 -0.127509 3.59674 0
M  V30 13352 C 1252.78 1.20171 4.31582 0
M  V30 13353 C 1254.53 -0.623603 4.19895 0
M  V30 13354 C 1252.43 1.07951 5.81464 0
M  V30 13355 H 1251.36 -0.0199308 0.753737 0
M  V30 13356 H 1254.01 0.642237 1.71894 0
M  V30 13357 H 1252.4 -0.877465 3.86156 0
M  V30 13358 H 1253.57 1.96508 4.16799 0
M  V30 13359 H 1251.89 1.63136 3.83113 0
M  V30 13360 H 1254.48 -0.732562 5.29658 0
M  V30 13361 H 1254.83 -1.62282 3.83367 0
M  V30 13362 H 1255.36 0.0698641 3.97739 0
M  V30 13363 H 1252.1 2.05304 6.22519 0
M  V30 13364 H 1251.62 0.357051 5.98736 0
M  V30 13365 H 1253.3 0.758885 6.42534 0
M  V30 13366 N 1253.43 -1.55816 0.23648 0
M  V30 13367 C 1254.68 -1.97862 -0.391579 0
M  V30 13368 C 1254.99 -1.1276 -1.59827 0
M  V30 13369 O 1256.2 -1.44772 -2.29681 0
M  V30 13370 C 1254.65 -3.5204 -0.748065 0
M  V30 13371 C 1254.26 -4.45867 0.436643 0
M  V30 13372 C 1256 -4.02766 -1.3409 0
M  V30 13373 C 1253.91 -5.91373 0.0568909 0
M  V30 13374 H 1252.84 -0.738913 -0.150078 0
M  V30 13375 H 1255.49 -1.80415 0.335052 0
M  V30 13376 H 1253.87 -3.65143 -1.53254 0
M  V30 13377 H 1255.05 -4.44519 1.21408 0
M  V30 13378 H 1253.36 -4.05565 0.943702 0
M  V30 13379 H 1255.96 -5.08987 -1.63817 0
M  V30 13380 H 1256.3 -3.49496 -2.26182 0
M  V30 13381 H 1256.84 -3.92946 -0.619548 0
M  V30 13382 H 1253.58 -6.48657 0.944682 0
M  V30 13383 H 1253.1 -5.95881 -0.684557 0
M  V30 13384 H 1254.77 -6.45972 -0.364586 0
M  V30 13385 N 1254.91 0.036755 -1.57557 0
M  V30 13386 C 1256.15 0.730186 -1.89199 0
M  V30 13387 C 1256.49 1.75414 -0.833271 0
M  V30 13388 O 1255.76 1.93901 0.152579 0
M  V30 13389 C 1256.04 1.40669 -3.31488 0
M  V30 13390 C 1255.9 0.396764 -4.48047 0
M  V30 13391 C 1257.22 2.34268 -3.72567 0
M  V30 13392 H 1254.33 0.263983 -0.6881 0
M  V30 13393 H 1256.98 -0.0069847 -1.89999 0
M  V30 13394 H 1255.13 2.03502 -3.30937 0
M  V30 13395 H 1256.8 -0.229062 -4.60731 0
M  V30 13396 H 1255.04 -0.284698 -4.32865 0
M  V30 13397 H 1255.71 0.908436 -5.44474 0
M  V30 13398 H 1258.19 1.81485 -3.74436 0
M  V30 13399 H 1257.06 2.78587 -4.72949 0
M  V30 13400 H 1257.33 3.20611 -3.04403 0
M  V30 13401 N 1256.39 1.54543 0.308881 0
M  V30 13402 C 1257.63 1.73449 1.04506 0
M  V30 13403 C 1257.96 0.516034 1.8753 0
M  V30 13404 O 1257.22 -0.502106 1.89149 0
M  V30 13405 C 1257.51 2.97124 1.98626 0
M  V30 13406 C 1257.18 4.31256 1.31641 0
M  V30 13407 C 1255.84 4.67719 1.13105 0
M  V30 13408 C 1258.19 5.14437 0.836888 0
M  V30 13409 C 1255.52 5.84949 0.452878 0
M  V30 13410 C 1257.87 6.32365 0.172473 0
M  V30 13411 C 1256.54 6.67495 -0.0249143 0
M  V30 13412 H 1255.81 0.634697 0.382415 0
M  V30 13413 H 1258.46 1.88795 0.320714 0
M  V30 13414 H 1256.76 2.76526 2.77562 0
M  V30 13415 H 1258.46 3.08946 2.55643 0
M  V30 13416 H 1255.05 4.02576 1.47074 0
M  V30 13417 H 1259.23 4.86772 0.967834 0
M  V30 13418 H 1254.49 6.10717 0.288886 0
M  V30 13419 H 1258.66 6.96092 -0.207027 0
M  V30 13420 H 1256.29 7.5819 -0.552425 0
M  V30 13421 N 1257.86 -0.571685 1.46866 0
M  V30 13422 C 1259.11 -1.32574 1.5201 0
M  V30 13423 C 1259.43 -1.94762 0.180838 0
M  V30 13424 O 1260.63 -2.71276 0.110158 0
M  V30 13425 C 1259.09 -2.40331 2.67897 0
M  V30 13426 C 1258.7 -1.84398 4.08291 0
M  V30 13427 C 1260.44 -3.17009 2.82321 0
M  V30 13428 C 1258.35 -2.89849 5.15501 0
M  V30 13429 H 1257.28 -0.498428 0.565761 0
M  V30 13430 H 1259.93 -0.608853 1.73105 0
M  V30 13431 H 1258.31 -3.14869 2.40153 0
M  V30 13432 H 1259.48 -1.16329 4.45875 0
M  V30 13433 H 1257.8 -1.20351 3.98628 0
M  V30 13434 H 1260.4 -3.95729 3.59587 0
M  V30 13435 H 1260.74 -3.70292 1.90236 0
M  V30 13436 H 1261.27 -2.4958 3.09765 0
M  V30 13437 H 1258.01 -2.4144 6.09415 0
M  V30 13438 H 1257.53 -3.56372 4.82451 0
M  V30 13439 H 1259.21 -3.53603 5.41825 0
M  V30 13440 N 1259.34 -1.34755 -0.817236 0
M  V30 13441 C 1260.59 -1.27432 -1.57377 0
M  V30 13442 C 1260.92 0.15419 -1.93888 0
M  V30 13443 O 1260.17 1.11686 -1.60701 0
M  V30 13444 C 1260.47 -2.11611 -2.8802 0
M  V30 13445 C 1260.14 -3.60543 -2.70776 0
M  V30 13446 C 1258.8 -4.01141 -2.6578 0
M  V30 13447 C 1261.15 -4.55089 -2.54053 0
M  V30 13448 C 1258.48 -5.34469 -2.41991 0
M  V30 13449 C 1260.83 -5.88603 -2.31795 0
M  V30 13450 C 1259.49 -6.28358 -2.25215 0
M  V30 13451 H 1258.76 -0.466305 -0.575882 0
M  V30 13452 H 1261.41 -1.66552 -0.945128 0
M  V30 13453 H 1259.72 -1.65336 -3.55206 0
M  V30 13454 H 1261.41 -2.03287 -3.45652 0
M  V30 13455 H 1258 -3.2832 -2.75506 0
M  V30 13456 H 1262.19 -4.24617 -2.56932 0
M  V30 13457 H 1257.44 -5.64284 -2.35359 0
M  V30 13458 H 1261.62 -6.61451 -2.17844 0
M  V30 13459 H 1259.24 -7.31604 -2.06543 0
M  V30 13460 N 1260.82 1.03812 -1.18578 0
M  V30 13461 C 1261.78 2.10049 -0.91718 0
M  V30 13462 C 1262.78 1.60498 0.0985122 0
M  V30 13463 O 1263.97 1.73674 -0.135213 0
M  V30 13464 C 1261.1 3.38813 -0.376599 0
M  V30 13465 H 1262.3 2.3531 -1.85927 0
M  V30 13466 H 1259.85 1.20277 -0.998156 0
M  V30 13467 H 1260.59 3.19216 0.571983 0
M  V30 13468 H 1260.37 3.76096 -1.10881 0
M  V30 13469 H 1261.86 4.17084 -0.207453 0
M  V30 13470 N 1262.3 0.988223 1.22768 0
M  V30 13471 C 1263.54 0.662441 1.91676 0
M  V30 13472 C 1263.88 -0.802931 1.76824 0
M  V30 13473 O 1263.15 -1.58011 1.13415 0
M  V30 13474 C 1263.43 1.06332 3.44043 0
M  V30 13475 C 1263.29 2.5869 3.67967 0
M  V30 13476 C 1264.61 0.613058 4.35809 0
M  V30 13477 H 1261.73 0.242132 0.69609 0
M  V30 13478 H 1264.37 1.23091 1.44736 0
M  V30 13479 H 1262.52 0.579623 3.84152 0
M  V30 13480 H 1264.19 3.14694 3.37291 0
M  V30 13481 H 1262.43 3.00971 3.12408 0
M  V30 13482 H 1263.1 2.8179 4.74656 0
M  V30 13483 H 1265.58 1.02846 4.0319 0
M  V30 13484 H 1264.46 0.921901 5.41103 0
M  V30 13485 H 1264.72 -0.48641 4.39416 0
M  V30 13486 N 1263.78 -1.38018 0.760839 0
M  V30 13487 C 1265.02 -2.00248 0.320716 0
M  V30 13488 C 1265.35 -1.60259 -1.09684 0
M  V30 13489 O 1264.63 -0.843567 -1.75255 0
M  V30 13490 C 1264.91 -3.57254 0.451849 0
M  V30 13491 C 1264.77 -4.07185 1.91103 0
M  V30 13492 C 1266.08 -4.39843 -0.150439 0
M  V30 13493 H 1263.2 -0.727491 0.118007 0
M  V30 13494 H 1265.85 -1.63855 0.961842 0
M  V30 13495 H 1264 -3.88386 -0.0939672 0
M  V30 13496 H 1265.67 -3.86665 2.51571 0
M  V30 13497 H 1263.91 -3.59782 2.42362 0
M  V30 13498 H 1264.58 -5.16262 1.9539 0
M  V30 13499 H 1267.06 -4.14905 0.315145 0
M  V30 13500 H 1265.93 -5.48893 -0.0284853 0
M  V30 13501 H 1266.19 -4.24367 -1.23956 0
M  V30 13502 N 1265.25 -0.510493 -1.49103 0
M  V30 13503 C 1266.5 0.0305831 -2.02077 0
M  V30 13504 C 1266.82 1.36602 -1.39157 0
M  V30 13505 O 1266.09 1.88016 -0.550154 0
M  V30 13506 H 1264.67 0.0142916 -0.746863 0
M  V30 13507 H 1267.33 -0.669895 -1.83026 0
M  V30 13508 H 1266.43 0.153283 -3.11723 0
M  V30 13509 N 1266.73 1.55688 -0.24474 0
M  V30 13510 C 1267.66 2.17317 0.696311 0
M  V30 13511 C 1268.64 1.12456 1.17441 0
M  V30 13512 O 1269.83 1.40832 1.25294 0
M  V30 13513 C 1266.95 2.77211 1.94606 0
M  V30 13514 C 1266 3.95107 1.60602 0
M  V30 13515 S 1266.83 5.30765 0.710525 0
M  V30 13516 C 1267.99 5.94111 1.96933 0
M  V30 13517 H 1268.22 2.96799 0.172566 0
M  V30 13518 H 1265.75 1.54372 -0.0292155 0
M  V30 13519 H 1267.71 3.12355 2.66354 0
M  V30 13520 H 1266.37 1.9768 2.44093 0
M  V30 13521 H 1265.57 4.35598 2.53517 0
M  V30 13522 H 1265.17 3.61229 0.968986 0
M  V30 13523 H 1267.46 6.11496 2.91682 0
M  V30 13524 H 1268.4 6.89602 1.60794 0
M  V30 13525 H 1268.81 5.23161 2.12043 0
M  V30 13526 N 1268.21 -0.0283989 1.57574 0
M  V30 13527 C 1269.14 -1.05641 2.03403 0
M  V30 13528 C 1270.15 -1.32426 0.946953 0
M  V30 13529 O 1271.34 -1.29902 1.22425 0
M  V30 13530 C 1268.44 -2.39788 2.39489 0
M  V30 13531 C 1267.62 -2.32348 3.70585 0
M  V30 13532 C 1266.68 -3.4895 3.93853 0
M  V30 13533 O 1265.7 -3.28414 4.64901 0
M  V30 13534 N 1266.9 -4.7084 3.39543 0
M  V30 13535 H 1269.67 -0.665788 2.92211 0
M  V30 13536 H 1267.23 -0.21633 1.60448 0
M  V30 13537 H 1269.22 -3.16514 2.52193 0
M  V30 13538 H 1267.79 -2.70692 1.56348 0
M  V30 13539 H 1267.01 -1.40717 3.68229 0
M  V30 13540 H 1268.3 -2.24521 4.56582 0
M  V30 13541 H 1267.7 -4.90425 2.81956 0
M  V30 13542 H 1266.25 -5.44929 3.57625 0
M  V30 13543 N 1269.69 -1.54705 -0.300681 0
M  V30 13544 C 1270.62 -1.88679 -1.37559 0
M  V30 13545 C 1271.6 -0.74574 -1.52881 0
M  V30 13546 O 1272.78 -1.0015 -1.66384 0
M  V30 13547 C 1269.91 -2.13438 -2.73974 0
M  V30 13548 C 1268.87 -3.29284 -2.73415 0
M  V30 13549 C 1268.19 -3.39462 -4.13122 0
M  V30 13550 C 1269.49 -4.66382 -2.35128 0
M  V30 13551 H 1271.19 -2.78707 -1.09373 0
M  V30 13552 H 1268.73 -1.341 -0.524704 0
M  V30 13553 H 1270.69 -2.35791 -3.49257 0
M  V30 13554 H 1269.41 -1.20181 -3.03684 0
M  V30 13555 H 1268.07 -3.06855 -2.00588 0
M  V30 13556 H 1267.72 -2.43721 -4.4001 0
M  V30 13557 H 1267.42 -4.17334 -4.1365 0
M  V30 13558 H 1268.94 -3.64075 -4.90185 0
M  V30 13559 H 1270.36 -4.88463 -3.00128 0
M  V30 13560 H 1268.75 -5.4697 -2.46867 0
M  V30 13561 H 1269.82 -4.67078 -1.30256 0
M  V30 13562 N 1271.17 0.563888 -1.47167 0
M  V30 13563 C 1272.41 1.32136 -1.53448 0
M  V30 13564 C 1272.74 1.9353 -0.19396 0
M  V30 13565 O 1272 1.78038 0.812456 0
M  V30 13566 C 1272.3 2.45678 -2.59571 0
M  V30 13567 C 1271.96 2.02157 -4.03043 0
M  V30 13568 C 1270.62 1.90003 -4.421 0
M  V30 13569 C 1272.98 1.68846 -4.93093 0
M  V30 13570 C 1270.3 1.42825 -5.6905 0
M  V30 13571 C 1272.66 1.2314 -6.20499 0
M  V30 13572 C 1271.32 1.09578 -6.58444 0
M  V30 13573 H 1270.59 0.483519 -0.561507 0
M  V30 13574 H 1273.24 0.633042 -1.80734 0
M  V30 13575 H 1271.54 3.20037 -2.26017 0
M  V30 13576 H 1273.24 3.03871 -2.61655 0
M  V30 13577 H 1269.83 2.12557 -3.7218 0
M  V30 13578 H 1274.01 1.77111 -4.63622 0
M  V30 13579 H 1269.27 1.30983 -5.97205 0
M  V30 13580 H 1273.44 0.964247 -6.89692 0
M  V30 13581 H 1271.07 0.727975 -7.56706 0
M  V30 13582 N 1272.64 1.35187 0.810078 0
M  V30 13583 C 1273.89 1.28011 1.56389 0
M  V30 13584 C 1274.21 -0.14622 1.94451 0
M  V30 13585 O 1273.48 -1.08185 1.63318 0
M  V30 13586 H 1272.06 0.470837 0.579932 0
M  V30 13587 H 1274.73 1.69249 0.966476 0
M  V30 13588 H 1273.82 1.89362 2.4809 0
M  V30 13589 N 1274.12 -1.03182 1.19127 0
M  V30 13590 C 1275.07 -2.11394 0.926339 0
M  V30 13591 C 1276.04 -1.65528 -0.137703 0
M  V30 13592 O 1277.22 -1.908 0.00381804 0
M  V30 13593 C 1274.36 -3.41913 0.467894 0
M  V30 13594 C 1273.48 -4.01343 1.59837 0
M  V30 13595 C 1272.61 -5.1986 1.09175 0
M  V30 13596 C 1271.65 -5.71339 2.19632 0
M  V30 13597 N 1270.79 -6.81133 1.703 0
M  V30 13598 H 1275.63 -2.33393 1.85288 0
M  V30 13599 H 1273.17 -1.14473 0.923811 0
M  V30 13600 H 1275.12 -4.16796 0.183513 0
M  V30 13601 H 1273.75 -3.20034 -0.421656 0
M  V30 13602 H 1272.81 -3.23702 1.99803 0
M  V30 13603 H 1274.12 -4.35568 2.43068 0
M  V30 13604 H 1273.27 -6.0189 0.762427 0
M  V30 13605 H 1272.01 -4.87161 0.22914 0
M  V30 13606 H 1271.02 -4.87923 2.53399 0
M  V30 13607 H 1272.24 -6.06078 3.06344 0
M  V30 13608 H 1270.19 -6.50293 0.863415 0
M  V30 13609 H 1270.1 -7.1447 2.47122 0
M  V30 13610 H 1271.37 -7.66766 1.40321 0
M  V30 13611 N 1275.6 -0.99472 -1.22242 0
M  V30 13612 C 1276.55 -0.53946 -2.26258 0
M  V30 13613 C 1277.54 0.410796 -1.64344 0
M  V30 13614 O 1278.75 0.283116 -1.7776 0
M  V30 13615 H 1275.12 -0.156069 -0.735627 0
M  V30 13616 H 1277.09 -1.42814 -2.62005 0
M  V30 13617 C 1275.84 0.12842 -3.47463 0
M  V30 13618 H 1275.17 -0.593727 -3.95367 0
M  V30 13619 H 1276.61 0.410393 -4.22009 0
M  V30 13620 C 1275.07 1.36433 -3.08038 0
M  V30 13621 O 1275.6 2.45953 -3.176 0
M  V30 13622 N 1273.8 1.24026 -2.62804 0
M  V30 13623 H 1273.35 0.349111 -2.55223 0
M  V30 13624 H 1273.31 2.06824 -2.36794 0
M  V30 13625 N 1277.08 1.37613 -0.768148 0
M  V30 13626 C 1278.31 2.03756 -0.341615 0
M  V30 13627 C 1278.72 1.58063 1.03984 0
M  V30 13628 O 1278.06 0.755609 1.6744 0
M  V30 13629 C 1278.12 3.58229 -0.302032 0
M  V30 13630 C 1277.79 4.27039 -1.62747 0
M  V30 13631 C 1278.78 4.51408 -2.57928 0
M  V30 13632 C 1276.47 4.64941 -1.90092 0
M  V30 13633 C 1278.46 5.12731 -3.78663 0
M  V30 13634 C 1276.15 5.25986 -3.11098 0
M  V30 13635 C 1277.15 5.49818 -4.05203 0
M  V30 13636 O 1276.83 6.09588 -5.24078 0
M  V30 13637 H 1276.57 0.660992 -0.141655 0
M  V30 13638 H 1279.12 1.77001 -1.04211 0
M  V30 13639 H 1277.35 3.84016 0.454811 0
M  V30 13640 H 1279.04 4.05784 0.0969452 0
M  V30 13641 H 1279.81 4.22542 -2.38083 0
M  V30 13642 H 1275.68 4.45729 -1.17674 0
M  V30 13643 H 1279.23 5.31249 -4.52129 0
M  V30 13644 H 1275.13 5.54276 -3.3083 0
M  V30 13645 H 1275.89 6.28068 -5.24855 0
M  V30 13646 N 1278.56 0.518393 1.4883 0
M  V30 13647 C 1279.78 -0.0183131 2.07392 0
M  V30 13648 C 1280.21 -1.28468 1.37396 0
M  V30 13649 O 1279.56 -1.75975 0.436177 0
M  V30 13650 C 1279.61 -0.237211 3.59819 0
M  V30 13651 O 1278.72 -1.30835 3.91096 0
M  V30 13652 H 1278.06 0.0339621 0.663131 0
M  V30 13653 H 1280.59 0.722993 1.914 0
M  V30 13654 H 1280.6 -0.463424 4.0536 0
M  V30 13655 H 1279.27 0.687925 4.10171 0
M  V30 13656 H 1277.85 -1.06571 3.57347 0
M  V30 13657 N 1280.03 -1.55556 0.252993 0
M  V30 13658 C 1280.94 -2.25283 -0.654581 0
M  V30 13659 C 1281.96 -1.27103 -1.18831 0
M  V30 13660 O 1283.14 -1.59993 -1.22329 0
M  V30 13661 C 1280.2 -2.94336 -1.83214 0
M  V30 13662 C 1279.26 -4.0794 -1.33728 0
M  V30 13663 C 1278.5 -4.73691 -2.45871 0
M  V30 13664 O 1278.72 -4.38545 -3.64738 0
M  V30 13665 O 1277.65 -5.62083 -2.15283 0
M  V30 13666 H 1281.48 -3.03565 -0.0904091 0
M  V30 13667 H 1279.06 -1.49385 0.0212535 0
M  V30 13668 H 1280.95 -3.37808 -2.5192 0
M  V30 13669 H 1279.62 -2.18989 -2.38381 0
M  V30 13670 H 1278.53 -3.68971 -0.617323 0
M  V30 13671 H 1279.86 -4.85124 -0.831617 0
M  V30 13672 N 1281.51 0.0200419 -1.57587 0
M  V30 13673 C 1282.44 1.01715 -2.10181 0
M  V30 13674 C 1283.42 1.37136 -1.00636 0
M  V30 13675 O 1284.61 1.45862 -1.2821 0
M  V30 13676 C 1281.74 2.31531 -2.58865 0
M  V30 13677 C 1280.69 2.10327 -3.72755 0
M  V30 13678 C 1280.02 3.45981 -4.07678 0
M  V30 13679 C 1281.32 1.4821 -5.0083 0
M  V30 13680 H 1283.01 0.579307 -2.93742 0
M  V30 13681 H 1280.56 0.277211 -1.41307 0
M  V30 13682 H 1282.51 3.01623 -2.94281 0
M  V30 13683 H 1281.24 2.77392 -1.72399 0
M  V30 13684 H 1279.89 1.42665 -3.37701 0
M  V30 13685 H 1279.54 3.89508 -3.18265 0
M  V30 13686 H 1279.24 3.32616 -4.84397 0
M  V30 13687 H 1280.77 4.17421 -4.45637 0
M  V30 13688 H 1282.18 2.08232 -5.34146 0
M  V30 13689 H 1280.58 1.45393 -5.82221 0
M  V30 13690 H 1281.65 0.448942 -4.82817 0
M  V30 13691 N 1282.99 1.54862 0.292472 0
M  V30 13692 C 1284.41 1.46267 0.638611 0
M  V30 13693 C 1284.61 0.660824 1.90356 0
M  V30 13694 O 1283.66 0.171909 2.51914 0
M  V30 13695 C 1284.98 2.90309 0.783675 0
M  V30 13696 C 1286.52 3.00404 0.879004 0
M  V30 13697 C 1287 4.4566 1.056 0
M  V30 13698 N 1288.49 4.49406 1.122 0
M  V30 13699 C 1289.22 5.5899 1.2774 0
M  V30 13700 N 1288.72 6.78482 1.40123 0
M  V30 13701 N 1290.51 5.46695 1.30696 0
M  V30 13702 H 1282.66 2.0546 -0.538521 0
M  V30 13703 H 1284.93 0.930879 -0.179354 0
M  V30 13704 H 1284.63 3.5162 -0.0750437 0
M  V30 13705 H 1284.51 3.38215 1.67004 0
M  V30 13706 H 1286.89 2.39201 1.7282 0
M  V30 13707 H 1286.98 2.55781 -0.0315624 0
M  V30 13708 H 1286.62 5.07459 0.211535 0
M  V30 13709 H 1286.55 4.87921 1.98092 0
M  V30 13710 H 1289.04 3.63322 1.03948 0
M  V30 13711 H 1289.35 7.57752 1.5176 0
M  V30 13712 H 1287.7 6.81331 1.37163 0
M  V30 13713 H 1290.89 4.52288 1.20638 0
M  V30 13714 H 1291.06 6.32146 1.42463 0
M  V30 13715 N 1284.47 -0.556076 1.47464 0
M  V30 13716 C 1285.75 -1.31689 1.44628 0
M  V30 13717 C 1286.13 -2.10609 0.143841 0
M  V30 13718 O 1285.47 -2.11097 -0.874662 0
M  V30 13719 C 1285.68 -2.22045 2.69253 0
M  V30 13720 C 1287.03 -2.83028 3.16513 0
M  V30 13721 O 1288.06 -2.32346 2.69988 0
M  V30 13722 O 1286.91 -3.75148 3.97399 0
M  V30 13723 H 1284.01 -0.593026 0.576411 0
M  V30 13724 H 1286.55 -0.574885 1.59666 0
M  V30 13725 H 1285.33 -1.63337 3.5558 0
M  V30 13726 H 1284.95 -3.03539 2.56807 0
M  V30 13727 N 1285.95 -1.35615 -0.802897 0
M  V30 13728 C 1287.17 -1.32377 -1.59659 0
M  V30 13729 C 1287.6 0.0954235 -1.87858 0
M  V30 13730 O 1286.96 1.06336 -1.46842 0
M  V30 13731 C 1287 -2.13972 -2.90256 0
M  V30 13732 O 1286.11 -1.52296 -3.83249 0
M  V30 13733 H 1285.45 -0.453699 -0.484823 0
M  V30 13734 H 1287.98 -1.78708 -0.996217 0
M  V30 13735 H 1287.99 -2.26061 -3.39647 0
M  V30 13736 H 1286.66 -3.17145 -2.69057 0
M  V30 13737 H 1285.24 -1.49068 -3.41809 0
M  V30 13738 N 1287.43 1.02549 -1.19673 0
M  V30 13739 C 1288.7 1.73106 -0.9107 0
M  V30 13740 C 1289.08 2.02897 0.582769 0
M  V30 13741 O 1288.43 1.68633 1.54192 0
M  V30 13742 C 1288.64 3.00535 -1.77425 0
M  V30 13743 C 1289.99 3.73976 -2.01065 0
M  V30 13744 O 1291.01 3.1047 -1.74605 0
M  V30 13745 O 1289.87 4.88153 -2.457 0
M  V30 13746 H 1286.97 0.754006 -0.339711 0
M  V30 13747 H 1289.51 1.08477 -1.30502 0
M  V30 13748 H 1288.28 2.74773 -2.78595 0
M  V30 13749 H 1287.91 3.72904 -1.37943 0
M  V30 13750 N 1288.9 1.00119 1.21713 0
M  V30 13751 C 1290.13 0.700172 1.95224 0
M  V30 13752 C 1290.55 -0.730138 1.73351 0
M  V30 13753 O 1289.91 -1.50026 1.01794 0
M  V30 13754 C 1289.96 1.02202 3.45814 0
M  V30 13755 O 1289.06 0.125188 4.1221 0
M  V30 13756 H 1288.4 0.261238 0.610451 0
M  V30 13757 H 1290.93 1.34041 1.54578 0
M  V30 13758 H 1290.94 0.967293 3.96368 0
M  V30 13759 H 1289.62 2.06422 3.61058 0
M  V30 13760 H 1288.2 0.236114 3.72152 0
M  V30 13761 N 1290.38 -1.37203 0.775435 0
M  V30 13762 C 1291.63 -1.99207 0.340756 0
M  V30 13763 C 1291.95 -1.61861 -1.08747 0
M  V30 13764 O 1291.22 -0.88583 -1.74728 0
M  V30 13765 H 1289.8 -0.736803 0.123004 0
M  V30 13766 H 1292.46 -1.67625 0.994379 0
M  V30 13767 H 1291.56 -3.09243 0.421346 0
M  V30 13768 N 1291.86 -0.526279 -1.48553 0
M  V30 13769 C 1292.79 0.227364 -2.3239 0
M  V30 13770 C 1293.77 0.93862 -1.41859 0
M  V30 13771 O 1294.96 0.925119 -1.70749 0
M  V30 13772 C 1292.09 1.277 -3.22971 0
M  V30 13773 C 1291.04 0.684107 -4.22497 0
M  V30 13774 C 1290.37 1.83612 -5.02186 0
M  V30 13775 C 1291.67 -0.341723 -5.21181 0
M  V30 13776 H 1293.36 -0.472486 -2.95648 0
M  V30 13777 H 1290.91 -0.228669 -1.42173 0
M  V30 13778 H 1292.86 1.81215 -3.80446 0
M  V30 13779 H 1291.58 2.00638 -2.57705 0
M  V30 13780 H 1290.24 0.170505 -3.66203 0
M  V30 13781 H 1289.89 2.55379 -4.33348 0
M  V30 13782 H 1289.59 1.44536 -5.69547 0
M  V30 13783 H 1291.11 2.37513 -5.62512 0
M  V30 13784 H 1292.53 0.106207 -5.73202 0
M  V30 13785 H 1290.92 -0.649673 -5.96573 0
M  V30 13786 H 1291.99 -1.2488 -4.68543 0
M  V30 13787 N 1293.34 1.5542 -0.261239 0
M  V30 13788 C 1294.27 2.24949 0.626126 0
M  V30 13789 C 1295.25 1.23474 1.16997 0
M  V30 13790 O 1296.43 1.52161 1.20667 0
M  V30 13791 C 1293.56 2.95996 1.81669 0
M  V30 13792 C 1292.52 4.04282 1.40499 0
M  V30 13793 C 1291.84 4.62831 2.67753 0
M  V30 13794 C 1293.14 5.1923 0.56543 0
M  V30 13795 H 1294.84 2.99364 0.0463164 0
M  V30 13796 H 1292.38 1.43985 0.0208366 0
M  V30 13797 H 1294.34 3.43343 2.44323 0
M  V30 13798 H 1293.06 2.19093 2.42211 0
M  V30 13799 H 1291.72 3.57726 0.801712 0
M  V30 13800 H 1291.37 3.82611 3.26524 0
M  V30 13801 H 1291.07 5.35938 2.40925 0
M  V30 13802 H 1292.59 5.12918 3.31281 0
M  V30 13803 H 1294.01 5.62714 1.09663 0
M  V30 13804 H 1292.4 5.98814 0.392607 0
M  V30 13805 H 1293.47 4.83086 -0.419059 0
M  V30 13806 N 1294.82 -0.0116844 1.57596 0
M  V30 13807 C 1296.23 -0.55604 1.78228 0
M  V30 13808 C 1296.58 -1.74624 0.894474 0
M  V30 13809 O 1295.7 -2.16196 0.0938498 0
M  V30 13810 C 1296.3 -1.0155 3.23223 0
M  V30 13811 C 1294.86 -1.50525 3.44992 0
M  V30 13812 C 1294 -0.451133 2.73606 0
M  V30 13813 H 1296.95 0.214516 1.57243 0
M  V30 13814 H 1296.98 -1.88208 3.30693 0
M  V30 13815 H 1296.49 -0.149048 3.87814 0
M  V30 13816 H 1294.59 -2.39298 2.856 0
M  V30 13817 H 1294.7 -1.54076 4.53649 0
M  V30 13818 H 1293.07 -0.910135 2.37884 0
M  V30 13819 H 1293.85 0.406152 3.40889 0
M  V30 13820 N 1296.29 -1.55015 -0.284256 0
M  V30 13821 C 1297.71 -1.46603 -0.630845 0
M  V30 13822 C 1297.91 -0.67091 -1.90003 0
M  V30 13823 O 1296.97 -0.185266 -2.51819 0
M  V30 13824 C 1298.28 -2.9072 -0.768268 0
M  V30 13825 C 1299.83 -3.00866 -0.863061 0
M  V30 13826 C 1300.3 -4.46214 -1.03235 0
M  V30 13827 N 1301.79 -4.49994 -1.09815 0
M  V30 13828 C 1302.53 -5.5966 -1.24773 0
M  V30 13829 N 1302.02 -6.79215 -1.36523 0
M  V30 13830 N 1303.82 -5.4738 -1.27795 0
M  V30 13831 H 1295.97 -2.05171 0.549409 0
M  V30 13832 H 1298.23 -0.929915 0.184288 0
M  V30 13833 H 1297.94 -3.51575 0.0936899 0
M  V30 13834 H 1297.81 -3.39096 -1.65209 0
M  V30 13835 H 1300.2 -2.40114 -1.71549 0
M  V30 13836 H 1300.28 -2.5576 0.0451267 0
M  V30 13837 H 1299.92 -5.07564 -0.18462 0
M  V30 13838 H 1299.85 -4.88965 -1.95502 0
M  V30 13839 H 1302.34 -3.63869 -1.0202 0
M  V30 13840 H 1302.66 -7.58547 -1.47739 0
M  V30 13841 H 1301 -6.82048 -1.33548 0
M  V30 13842 H 1304.19 -4.52921 -1.18238 0
M  V30 13843 H 1304.37 -6.32892 -1.39109 0
M  V30 13844 N 1297.77 0.548248 -1.47757 0
M  V30 13845 C 1299.02 1.30458 -1.56052 0
M  V30 13846 C 1299.37 1.91096 -0.22363 0
M  V30 13847 O 1298.67 1.75375 0.771644 0
M  V30 13848 C 1298.86 2.42911 -2.62162 0
M  V30 13849 C 1298.69 1.93293 -4.06039 0
M  V30 13850 C 1297.46 1.76727 -4.73387 0
M  V30 13851 C 1299.66 1.47214 -4.9278 0
M  V30 13852 N 1297.64 1.21543 -6.01748 0
M  V30 13853 C 1299.01 1.03855 -6.1124 0
M  V30 13854 C 1301.06 1.35348 -4.79151 0
M  V30 13855 C 1299.77 0.498086 -7.17573 0
M  V30 13856 C 1301.79 0.827023 -5.85589 0
M  V30 13857 C 1301.16 0.40341 -7.03244 0
M  V30 13858 H 1297.25 0.469075 -0.625694 0
M  V30 13859 H 1299.84 0.620405 -1.84551 0
M  V30 13860 H 1298.01 3.08847 -2.35516 0
M  V30 13861 H 1299.74 3.09924 -2.60249 0
M  V30 13862 H 1296.5 1.99709 -4.29433 0
M  V30 13863 H 1296.92 0.960132 -6.70157 0
M  V30 13864 H 1301.56 1.66708 -3.88546 0
M  V30 13865 H 1299.28 0.172123 -8.07917 0
M  V30 13866 H 1302.87 0.738641 -5.77092 0
M  V30 13867 H 1301.75 0.00236338 -7.842 0
M  V30 13868 N 1299.25 1.36039 0.795694 0
M  V30 13869 C 1300.2 1.26386 1.89765 0
M  V30 13870 C 1301.18 0.156711 1.60135 0
M  V30 13871 O 1302.38 0.388946 1.72674 0
M  V30 13872 C 1299.5 1.04907 3.26878 0
M  V30 13873 C 1298.59 2.20061 3.62538 0
M  V30 13874 N 1298.98 3.45347 3.69553 0
M  V30 13875 C 1297.28 2.11688 3.92561 0
M  V30 13876 C 1297.98 4.21138 4.0127 0
M  V30 13877 N 1296.96 3.5001 4.15925 0
M  V30 13878 H 1300.76 2.21295 1.93405 0
M  V30 13879 H 1298.27 1.28668 0.990877 0
M  V30 13880 H 1300.27 0.960791 4.05678 0
M  V30 13881 H 1298.93 0.108921 3.24517 0
M  V30 13882 H 1299.94 3.79561 3.52355 0
M  V30 13883 H 1296.62 1.25592 3.98162 0
M  V30 13884 H 1298.01 5.29456 4.13673 0
M  V30 13885 N 1300.73 -1.01913 1.20215 0
M  V30 13886 C 1301.66 -2.10043 0.89203 0
M  V30 13887 C 1302.64 -1.61861 -0.154873 0
M  V30 13888 O 1303.82 -1.88478 -0.0290135 0
M  V30 13889 C 1300.95 -3.37021 0.336813 0
M  V30 13890 C 1300 -4.0409 1.36431 0
M  V30 13891 S 1300.83 -4.48334 2.92843 0
M  V30 13892 C 1301.99 -5.78517 2.3889 0
M  V30 13893 H 1302.22 -2.36025 1.80775 0
M  V30 13894 H 1299.75 -1.14992 1.03035 0
M  V30 13895 H 1301.71 -4.10494 0.0230191 0
M  V30 13896 H 1300.37 -3.09115 -0.557363 0
M  V30 13897 H 1299.56 -4.95436 0.925147 0
M  V30 13898 H 1299.17 -3.36831 1.62545 0
M  V30 13899 H 1301.46 -6.53564 1.78494 0
M  V30 13900 H 1302.4 -6.27226 3.28623 0
M  V30 13901 H 1302.81 -5.34658 1.8111 0
M  V30 13902 N 1302.21 -1.00763 -1.2118 0
M  V30 13903 C 1303.14 -0.515053 -2.22312 0
M  V30 13904 C 1304.12 0.432665 -1.56738 0
M  V30 13905 O 1305.3 0.35477 -1.85131 0
M  V30 13906 C 1302.43 0.251544 -3.37765 0
M  V30 13907 C 1301.47 -0.64437 -4.21604 0
M  V30 13908 S 1302.31 -2.10832 -4.9225 0
M  V30 13909 C 1303.46 -1.35163 -6.11132 0
M  V30 13910 H 1303.7 -1.37198 -2.6375 0
M  V30 13911 H 1301.23 -0.815783 -1.31089 0
M  V30 13912 H 1303.19 0.687761 -4.04698 0
M  V30 13913 H 1301.85 1.08393 -2.94805 0
M  V30 13914 H 1301.04 -0.0537452 -5.03971 0
M  V30 13915 H 1300.64 -1.01798 -3.5988 0
M  V30 13916 H 1302.94 -0.6269 -6.74593 0
M  V30 13917 H 1303.88 -2.15111 -6.74635 0
M  V30 13918 H 1304.29 -0.858444 -5.57935 0
M  V30 13919 N 1303.68 1.3679 -0.7827 0
M  V30 13920 C 1304.96 1.93639 -0.276278 0
M  V30 13921 C 1305.34 1.7153 1.23048 0
M  V30 13922 O 1304.69 1.07037 2.01879 0
M  V30 13923 C 1304.9 3.42672 -0.661586 0
M  V30 13924 C 1306.25 4.19786 -0.637538 0
M  V30 13925 O 1307.27 3.51082 -0.601645 0
M  V30 13926 O 1306.13 5.42323 -0.674408 0
M  V30 13927 H 1303.22 0.824307 -0.0666832 0
M  V30 13928 H 1305.77 1.46012 -0.864792 0
M  V30 13929 H 1304.54 3.52393 -1.70103 0
M  V30 13930 H 1304.17 3.97573 -0.0465987 0
M  V30 13931 N 1305.16 0.53415 1.48272 0
M  V30 13932 C 1306.41 0.00157259 2.025 0
M  V30 13933 C 1306.74 -1.33886 1.41085 0
M  V30 13934 O 1305.99 -1.87884 0.547544 0
M  V30 13935 C 1306.29 -0.165144 3.57018 0
M  V30 13936 C 1305.96 1.10146 4.3724 0
M  V30 13937 C 1304.62 1.44857 4.58879 0
M  V30 13938 C 1306.97 1.94183 4.83676 0
M  V30 13939 C 1304.3 2.63497 5.24201 0
M  V30 13940 C 1306.65 3.12005 5.50305 0
M  V30 13941 C 1305.32 3.47058 5.70182 0
M  V30 13942 H 1304.59 0.00057545 0.741 0
M  V30 13943 H 1307.23 0.701014 1.78208 0
M  V30 13944 H 1305.54 -0.947384 3.80173 0
M  V30 13945 H 1307.23 -0.592202 3.96603 0
M  V30 13946 H 1303.82 0.821132 4.20661 0
M  V30 13947 H 1308.01 1.68677 4.66757 0
M  V30 13948 H 1303.26 2.90852 5.37787 0
M  V30 13949 H 1307.44 3.77426 5.85254 0
M  V30 13950 H 1305.07 4.39086 6.2057 0
M  V30 13951 N 1306.64 -1.55279 0.269478 0
M  V30 13952 C 1307.89 -1.99471 -0.348913 0
M  V30 13953 C 1308.22 -1.15784 -1.56283 0
M  V30 13954 O 1307.47 -0.214115 -1.94525 0
M  V30 13955 C 1307.77 -3.48773 -0.780535 0
M  V30 13956 C 1307.44 -4.49705 0.328113 0
M  V30 13957 C 1306.1 -4.77024 0.632544 0
M  V30 13958 C 1308.45 -5.09984 1.07544 0
M  V30 13959 C 1305.78 -5.61893 1.68798 0
M  V30 13960 C 1308.13 -5.95999 2.12057 0
M  V30 13961 C 1306.79 -6.21642 2.4314 0
M  V30 13962 H 1306.06 -0.729918 -0.127676 0
M  V30 13963 H 1308.71 -1.87651 0.382015 0
M  V30 13964 H 1307.02 -3.5804 -1.59105 0
M  V30 13965 H 1308.71 -3.80369 -1.26966 0
M  V30 13966 H 1305.3 -4.28524 0.0807131 0
M  V30 13967 H 1309.49 -4.88906 0.853506 0
M  V30 13968 H 1304.74 -5.80009 1.93389 0
M  V30 13969 H 1308.92 -6.41743 2.70442 0
M  V30 13970 H 1306.54 -6.87198 3.25059 0
M  V30 13971 N 1308.12 0.00332656 -1.576 0
M  V30 13972 C 1309.07 1.00425 -2.04692 0
M  V30 13973 C 1310.05 1.30514 -0.941011 0
M  V30 13974 O 1311.24 1.29667 -1.2048 0
M  V30 13975 C 1308.37 2.29731 -2.55105 0
M  V30 13976 C 1307.46 2.02621 -3.72566 0
M  V30 13977 N 1307.85 1.45657 -4.84373 0
M  V30 13978 C 1306.15 2.3278 -3.80433 0
M  V30 13979 C 1306.85 1.34942 -5.65832 0
M  V30 13980 N 1305.83 1.83389 -5.11732 0
M  V30 13981 H 1309.63 0.558262 -2.88549 0
M  V30 13982 H 1307.14 0.209094 -1.61048 0
M  V30 13983 H 1309.14 3.02274 -2.87116 0
M  V30 13984 H 1307.8 2.74985 -1.72665 0
M  V30 13985 H 1308.81 1.13582 -5.05291 0
M  V30 13986 H 1305.49 2.80932 -3.08842 0
M  V30 13987 H 1306.88 0.911707 -6.65686 0
M  V30 13988 N 1309.6 1.55164 0.276031 0
M  V30 13989 C 1310.56 1.87065 1.32436 0
M  V30 13990 C 1311.56 0.745024 1.42499 0
M  V30 13991 O 1312.75 1.01321 1.41702 0
M  V30 13992 C 1309.88 2.07322 2.70611 0
M  V30 13993 H 1311.07 2.80775 1.05382 0
M  V30 13994 H 1308.63 1.47609 0.513947 0
M  V30 13995 H 1309.36 1.15983 3.0285 0
M  V30 13996 H 1309.15 2.89275 2.64693 0
M  V30 13997 H 1310.64 2.33287 3.46362 0
M  V30 13998 N 1311.07 -0.540404 1.48045 0
M  V30 13999 C 1312.32 -1.29678 1.55531 0
M  V30 14000 C 1312.65 -1.93197 0.224725 0
M  V30 14001 O 1311.9 -1.79308 -0.784028 0
M  V30 14002 C 1312.2 -2.41517 2.63447 0
M  V30 14003 C 1311.87 -1.95719 4.06208 0
M  V30 14004 C 1310.53 -1.82946 4.45067 0
M  V30 14005 C 1312.88 -1.6098 4.95717 0
M  V30 14006 C 1310.21 -1.33753 5.7125 0
M  V30 14007 C 1312.56 -1.13253 6.2238 0
M  V30 14008 C 1311.23 -0.990886 6.60104 0
M  V30 14009 H 1310.5 -0.474525 0.569129 0
M  V30 14010 H 1313.14 -0.604209 1.81718 0
M  V30 14011 H 1311.45 -3.16401 2.3108 0
M  V30 14012 H 1313.15 -2.9967 2.66457 0
M  V30 14013 H 1309.74 -2.06609 3.75514 0
M  V30 14014 H 1313.92 -1.69713 4.66381 0
M  V30 14015 H 1309.18 -1.21465 5.99213 0
M  V30 14016 H 1313.35 -0.854401 6.91139 0
M  V30 14017 H 1310.98 -0.607497 7.57769 0
M  V30 14018 N 1312.55 -1.36459 -0.788468 0
M  V30 14019 C 1313.48 -1.33545 -1.91541 0
M  V30 14020 C 1314.46 -0.206762 -1.68839 0
M  V30 14021 O 1315.65 -0.404553 -1.89939 0
M  V30 14022 C 1312.78 -1.12492 -3.28577 0
M  V30 14023 C 1311.73 -2.22196 -3.65805 0
M  V30 14024 C 1311.06 -1.86285 -5.01201 0
M  V30 14025 C 1312.36 -3.64286 -3.7429 0
M  V30 14026 H 1314.05 -2.27844 -1.94236 0
M  V30 14027 H 1311.6 -1.09677 -0.933105 0
M  V30 14028 H 1313.55 -1.09089 -4.07035 0
M  V30 14029 H 1312.28 -0.146446 -3.26272 0
M  V30 14030 H 1310.93 -2.24727 -2.89644 0
M  V30 14031 H 1310.58 -0.87009 -4.95417 0
M  V30 14032 H 1310.28 -2.59734 -5.27079 0
M  V30 14033 H 1311.81 -1.84439 -5.82078 0
M  V30 14034 H 1313.22 -3.63977 -4.42937 0
M  V30 14035 H 1311.62 -4.36648 -4.11653 0
M  V30 14036 H 1312.69 -3.99123 -2.75371 0
M  V30 14037 N 1314.03 1.01274 -1.20754 0
M  V30 14038 C 1315.28 1.74342 -1.01428 0
M  V30 14039 C 1315.59 1.90265 0.453708 0
M  V30 14040 O 1316.8 2.60465 0.76618 0
M  V30 14041 C 1315.25 3.13588 -1.76609 0
M  V30 14042 C 1314.86 3.05664 -3.27526 0
M  V30 14043 C 1316.61 3.9084 -1.65664 0
M  V30 14044 C 1314.51 4.39942 -3.95228 0
M  V30 14045 H 1313.44 0.653619 -0.375897 0
M  V30 14046 H 1316.09 1.13214 -1.44412 0
M  V30 14047 H 1314.48 3.75281 -1.26413 0
M  V30 14048 H 1315.65 2.53256 -3.84965 0
M  V30 14049 H 1313.97 2.41904 -3.38927 0
M  V30 14050 H 1316.56 4.9019 -2.13583 0
M  V30 14051 H 1316.91 4.11754 -0.61351 0
M  V30 14052 H 1317.44 3.35783 -2.13294 0
M  V30 14053 H 1314.18 4.24229 -4.9971 0
M  V30 14054 H 1313.7 4.92342 -3.42578 0
M  V30 14055 H 1315.38 5.08771 -3.99701 0
M  V30 14056 N 1315.51 1.01404 1.20644 0
M  V30 14057 C 1316.76 0.697244 1.89265 0
M  V30 14058 C 1317.07 -0.776149 1.79542 0
M  V30 14059 O 1318.28 -1.2054 2.43274 0
M  V30 14060 C 1316.73 1.19672 3.39421 0
M  V30 14061 C 1316.34 2.69683 3.57736 0
M  V30 14062 C 1318.09 0.955225 4.13613 0
M  V30 14063 C 1315.99 3.13124 5.01704 0
M  V30 14064 H 1314.92 0.257105 0.708811 0
M  V30 14065 H 1317.57 1.22639 1.36499 0
M  V30 14066 H 1315.96 0.595562 3.91496 0
M  V30 14067 H 1317.13 3.35326 3.16059 0
M  V30 14068 H 1315.44 2.91946 2.96911 0
M  V30 14069 H 1318.04 1.25524 5.19757 0
M  V30 14070 H 1318.38 -0.108362 4.16159 0
M  V30 14071 H 1318.92 1.51962 3.67631 0
M  V30 14072 H 1315.66 4.18748 5.04311 0
M  V30 14073 H 1315.18 2.522 5.44201 0
M  V30 14074 H 1316.86 3.05617 5.70269 0
M  V30 14075 N 1316.99 -1.36373 0.789944 0
M  V30 14076 C 1318.23 -1.99227 0.362582 0
M  V30 14077 C 1318.56 -1.62694 -1.06587 0
M  V30 14078 O 1317.82 -0.873748 -1.75112 0
M  V30 14079 C 1318.12 -3.54243 0.474025 0
M  V30 14080 C 1317.78 -4.10597 1.86336 0
M  V30 14081 C 1316.44 -4.257 2.24349 0
M  V30 14082 C 1318.8 -4.41306 2.77306 0
M  V30 14083 C 1316.12 -4.68824 3.52734 0
M  V30 14084 C 1318.48 -4.85861 4.05119 0
M  V30 14085 C 1317.14 -4.9917 4.43154 0
M  V30 14086 H 1316.41 -0.729025 0.132678 0
M  V30 14087 H 1319.06 -1.62854 1.00751 0
M  V30 14088 H 1317.36 -3.90973 -0.254399 0
M  V30 14089 H 1319.06 -4.00807 0.124384 0
M  V30 14090 H 1315.65 -3.99281 1.55797 0
M  V30 14091 H 1319.83 -4.29205 2.49191 0
M  V30 14092 H 1315.09 -4.77315 3.82073 0
M  V30 14093 H 1319.26 -5.08587 4.75723 0
M  V30 14094 H 1316.89 -5.32344 5.42692 0
M  V30 14095 N 1318.47 -0.542005 -1.47987 0
M  V30 14096 C 1319.88 -0.200691 -1.58333 0
M  V30 14097 C 1320.08 1.29643 -1.54256 0
M  V30 14098 O 1319.14 2.07556 -1.43794 0
M  V30 14099 C 1320.45 -0.813878 -2.89476 0
M  V30 14100 C 1322 -0.783711 -3.0303 0
M  V30 14101 C 1322.47 -1.37569 -4.36851 0
M  V30 14102 N 1323.96 -1.33819 -4.43449 0
M  V30 14103 C 1324.7 -1.76602 -5.45527 0
M  V30 14104 N 1324.2 -2.27169 -6.54497 0
M  V30 14105 N 1325.99 -1.67765 -5.3648 0
M  V30 14106 H 1318.14 -1.51488 -1.4888 0
M  V30 14107 H 1320.4 -0.630835 -0.707638 0
M  V30 14108 H 1320.11 -1.86544 -2.98151 0
M  V30 14109 H 1319.98 -0.297978 -3.76021 0
M  V30 14110 H 1322.37 0.259118 -2.9396 0
M  V30 14111 H 1322.45 -1.33721 -2.18065 0
M  V30 14112 H 1322.09 -2.41751 -4.46675 0
M  V30 14113 H 1322.02 -0.797769 -5.20522 0
M  V30 14114 H 1324.52 -0.968147 -3.65288 0
M  V30 14115 H 1324.83 -2.57777 -7.2854 0
M  V30 14116 H 1323.17 -2.31171 -6.55427 0
M  V30 14117 H 1326.36 -1.28048 -4.50246 0
M  V30 14118 H 1326.54 -2.01426 -6.15899 0
M  V30 14119 N 1319.94 1.55134 -0.277709 0
M  V30 14120 C 1321.19 1.98831 0.338982 0
M  V30 14121 C 1321.51 1.16958 1.56781 0
M  V30 14122 O 1322.71 1.50811 2.25762 0
M  V30 14123 C 1321.17 3.53899 0.654465 0
M  V30 14124 C 1320.78 4.44553 -0.554703 0
M  V30 14125 C 1322.52 4.06179 1.23364 0
M  V30 14126 C 1320.43 5.91014 -0.213663 0
M  V30 14127 H 1319.36 0.742632 0.130434 0
M  V30 14128 H 1322.01 1.79463 -0.382768 0
M  V30 14129 H 1320.39 3.69078 1.43519 0
M  V30 14130 H 1321.56 4.41143 -1.33151 0
M  V30 14131 H 1319.88 4.02921 -1.0509 0
M  V30 14132 H 1322.48 5.13152 1.50265 0
M  V30 14133 H 1322.82 3.5537 2.16836 0
M  V30 14134 H 1323.35 3.9445 0.515147 0
M  V30 14135 H 1320.09 6.45924 -1.11633 0
M  V30 14136 H 1319.61 5.97486 0.526329 0
M  V30 14137 H 1321.29 6.46712 0.19319 0
M  V30 14138 N 1321.42 0.00503138 1.57599 0
M  V30 14139 C 1322.35 -0.983586 2.11773 0
M  V30 14140 C 1323.33 -1.35518 1.02805 0
M  V30 14141 O 1324.52 -1.43804 1.30514 0
M  V30 14142 C 1321.65 -2.27383 2.62515 0
M  V30 14143 C 1320.6 -2.0437 3.76054 0
M  V30 14144 C 1319.93 -3.39451 4.1313 0
M  V30 14145 C 1321.23 -1.40223 5.03125 0
M  V30 14146 H 1322.92 -0.532501 2.94627 0
M  V30 14147 H 1320.47 -0.254696 1.4173 0
M  V30 14148 H 1322.42 -2.96903 2.99043 0
M  V30 14149 H 1321.14 -2.74614 1.7679 0
M  V30 14150 H 1319.8 -1.37275 3.39928 0
M  V30 14151 H 1319.45 -3.84395 3.24422 0
M  V30 14152 H 1319.15 -3.24868 4.89627 0
M  V30 14153 H 1320.68 -4.10279 4.52221 0
M  V30 14154 H 1322.09 -1.99708 5.37392 0
M  V30 14155 H 1320.49 -1.36112 5.8446 0
M  V30 14156 H 1321.56 -0.372073 4.8347 0
M  V30 14157 N 1322.9 -1.55308 -0.267798 0
M  V30 14158 C 1324.14 -1.77913 -1.0063 0
M  V30 14159 C 1324.5 -0.571149 -1.83308 0
M  V30 14160 O 1325.7 -0.675552 -2.60173 0
M  V30 14161 C 1323.98 -3.05112 -1.86123 0
M  V30 14162 S 1325.53 -3.48856 -2.66167 0
M  V30 14163 H 1322.35 -0.625065 -0.338843 0
M  V30 14164 H 1324.95 -1.93539 -0.276196 0
M  V30 14165 H 1323.66 -3.91118 -1.24317 0
M  V30 14166 H 1323.19 -2.92165 -2.63444 0
M  V30 14167 H 1325.2 -3.0854 -3.8861 0
M  V30 14168 N 1324.38 0.532545 -1.4833 0
M  V30 14169 C 1325.63 1.28597 -1.55908 0
M  V30 14170 C 1325.95 1.93595 -0.233635 0
M  V30 14171 O 1325.22 1.81197 0.744605 0
M  V30 14172 H 1323.8 0.477619 -0.57436 0
M  V30 14173 H 1326.46 0.619922 -1.84778 0
M  V30 14174 H 1325.55 2.0666 -2.33877 0
M  V30 14175 N 1325.86 1.36875 0.78122 0
M  V30 14176 C 1326.77 1.3404 1.92537 0
M  V30 14177 C 1327.78 0.241354 1.72318 0
M  V30 14178 O 1328.96 0.475128 1.95715 0
M  V30 14179 C 1326.02 1.13708 3.27523 0
M  V30 14180 C 1325.08 2.33165 3.60462 0
M  V30 14181 C 1324.32 2.13793 4.89007 0
M  V30 14182 O 1324.54 1.11732 5.5935 0
M  V30 14183 O 1323.47 3.01762 5.20791 0
M  V30 14184 H 1327.3 2.30386 1.97879 0
M  V30 14185 H 1324.88 1.17506 0.922637 0
M  V30 14186 H 1326.77 1.0432 4.08283 0
M  V30 14187 H 1325.44 0.204306 3.23055 0
M  V30 14188 H 1324.35 2.48123 2.79974 0
M  V30 14189 H 1325.68 3.24977 3.69663 0
M  V30 14190 N 1327.33 -1.00632 1.21289 0
M  V30 14191 C 1328.58 -1.74749 1.04089 0
M  V30 14192 C 1328.93 -1.8773 -0.421349 0
M  V30 14193 O 1328.23 -1.39958 -1.30852 0
M  V30 14194 C 1328.42 -3.1598 1.67007 0
M  V30 14195 C 1328.25 -3.1677 3.19197 0
M  V30 14196 C 1327.02 -3.23425 3.88233 0
M  V30 14197 C 1329.22 -3.01991 4.163 0
M  V30 14198 N 1327.2 -3.13827 5.27623 0
M  V30 14199 C 1328.57 -3.00276 5.42433 0
M  V30 14200 C 1330.63 -2.86284 4.07365 0
M  V30 14201 C 1329.33 -2.84463 6.60661 0
M  V30 14202 C 1331.36 -2.71827 5.25228 0
M  V30 14203 C 1330.72 -2.70787 6.50272 0
M  V30 14204 H 1326.82 -0.649702 0.435213 0
M  V30 14205 H 1329.4 -1.19617 1.53622 0
M  V30 14206 H 1327.57 -3.69384 1.20042 0
M  V30 14207 H 1329.3 -3.78584 1.43025 0
M  V30 14208 H 1326.06 -3.30566 3.3915 0
M  V30 14209 H 1326.48 -3.12374 6.00626 0
M  V30 14210 H 1331.12 -2.85894 3.11487 0
M  V30 14211 H 1328.84 -2.836 7.56701 0
M  V30 14212 H 1332.43 -2.60675 5.20134 0
M  V30 14213 H 1331.31 -2.59732 7.39938 0
M  V30 14214 N 1328.81 -1.02043 -1.20104 0
M  V30 14215 C 1330.06 -0.707271 -1.88893 0
M  V30 14216 C 1330.37 0.766617 -1.79951 0
M  V30 14217 O 1331.58 1.19248 -2.4391 0
M  V30 14218 C 1330.04 -1.2147 -3.38782 0
M  V30 14219 C 1329.64 -2.71576 -3.56301 0
M  V30 14220 C 1331.39 -0.977146 -4.13101 0
M  V30 14221 C 1329.29 -3.15781 -5.00037 0
M  V30 14222 H 1328.22 -0.26086 -0.707438 0
M  V30 14223 H 1330.88 -1.23361 -1.35846 0
M  V30 14224 H 1329.26 -0.616315 -3.91175 0
M  V30 14225 H 1330.43 -3.36997 -3.14276 0
M  V30 14226 H 1328.75 -2.93517 -2.95359 0
M  V30 14227 H 1331.34 -1.28278 -5.19085 0
M  V30 14228 H 1331.69 0.0862909 -4.16211 0
M  V30 14229 H 1332.22 -1.5391 -3.6682 0
M  V30 14230 H 1328.96 -4.21417 -5.02084 0
M  V30 14231 H 1328.48 -2.55083 -5.42856 0
M  V30 14232 H 1330.16 -3.08637 -5.6864 0
M  V30 14233 N 1330.29 1.35952 -0.797165 0
M  V30 14234 C 1331.2 2.33726 -0.202271 0
M  V30 14235 C 1332.22 1.61415 0.649719 0
M  V30 14236 O 1333.39 1.93351 0.563686 0
M  V30 14237 C 1330.46 3.40612 0.64685 0
M  V30 14238 C 1329.52 4.28712 -0.224536 0
M  V30 14239 C 1328.75 5.30493 0.584153 0
M  V30 14240 O 1328.97 5.40599 1.81957 0
M  V30 14241 O 1327.91 6.01897 -0.0200239 0
M  V30 14242 H 1331.73 2.86383 -1.01087 0
M  V30 14243 H 1329.32 1.38557 -0.558768 0
M  V30 14244 H 1331.2 4.05944 1.1308 0
M  V30 14245 H 1329.88 2.90243 1.43321 0
M  V30 14246 H 1328.78 3.66394 -0.755415 0
M  V30 14247 H 1330.12 4.82454 -0.974603 0
M  V30 14248 N 1331.77 0.549846 1.47697 0
M  V30 14249 C 1333 0.0276889 2.06881 0
M  V30 14250 C 1333.41 -1.26273 1.40359 0
M  V30 14251 O 1332.77 -1.75584 0.497644 0
M  V30 14252 C 1332.82 -0.179291 3.61055 0
M  V30 14253 O 1332.54 1.06002 4.25083 0
M  V30 14254 C 1334.04 -0.739571 4.37087 0
M  V30 14255 H 1331.26 0.0425016 0.669653 0
M  V30 14256 H 1333.81 0.761158 1.89807 0
M  V30 14257 H 1331.96 -0.862867 3.77668 0
M  V30 14258 H 1332.37 0.853137 5.17515 0
M  V30 14259 H 1333.85 -0.833722 5.45668 0
M  V30 14260 H 1334.33 -1.74915 4.02867 0
M  V30 14261 H 1334.93 -0.0919294 4.25201 0
M  V30 14262 N 1333.25 -1.54984 0.285932 0
M  V30 14263 C 1334.18 -2.19087 -0.638448 0
M  V30 14264 C 1335.16 -1.1553 -1.14418 0
M  V30 14265 O 1336.34 -1.44105 -1.21516 0
M  V30 14266 C 1333.47 -2.82273 -1.87188 0
M  V30 14267 C 1332.51 -3.99226 -1.5007 0
M  V30 14268 S 1333.35 -5.32463 -0.569552 0
M  V30 14269 C 1334.5 -5.99124 -1.81112 0
M  V30 14270 H 1334.74 -2.97152 -0.0938139 0
M  V30 14271 H 1332.27 -1.54241 0.0701344 0
M  V30 14272 H 1334.23 -3.19307 -2.57979 0
M  V30 14273 H 1332.89 -2.04082 -2.38767 0
M  V30 14274 H 1332.08 -4.42166 -2.41878 0
M  V30 14275 H 1331.68 -3.63671 -0.872871 0
M  V30 14276 H 1333.98 -6.19015 -2.75367 0
M  V30 14277 H 1334.92 -6.93623 -1.42454 0
M  V30 14278 H 1335.33 -5.28599 -1.98098 0
M  V30 14279 N 1334.72 -0.0133892 -1.57594 0
M  V30 14280 C 1335.97 0.66392 -1.92259 0
M  V30 14281 C 1336.33 1.70632 -0.888962 0
M  V30 14282 O 1335.62 1.91354 0.0971147 0
M  V30 14283 C 1335.81 1.33729 -3.31438 0
M  V30 14284 C 1335.64 0.361637 -4.48244 0
M  V30 14285 C 1334.41 -0.0328229 -5.05289 0
M  V30 14286 C 1336.61 -0.377649 -5.12912 0
M  V30 14287 N 1334.59 -1.00529 -6.05613 0
M  V30 14288 C 1335.96 -1.20437 -6.0819 0
M  V30 14289 C 1338.02 -0.440046 -4.95952 0
M  V30 14290 C 1336.72 -2.08782 -6.88333 0
M  V30 14291 C 1338.75 -1.31078 -5.76691 0
M  V30 14292 C 1338.11 -2.12531 -6.71573 0
M  V30 14293 H 1334.21 0.215737 -0.751652 0
M  V30 14294 H 1336.79 -0.0768783 -1.94548 0
M  V30 14295 H 1334.96 2.04831 -3.29998 0
M  V30 14296 H 1336.69 1.97037 -3.53495 0
M  V30 14297 H 1333.45 0.338356 -4.7239 0
M  V30 14298 H 1333.87 -1.4873 -6.60461 0
M  V30 14299 H 1338.52 0.175429 -4.22436 0
M  V30 14300 H 1336.23 -2.71391 -7.61165 0
M  V30 14301 H 1339.82 -1.36314 -5.65606 0
M  V30 14302 H 1338.7 -2.78817 -7.3296 0
M  V30 14303 N 1336.2 1.55448 0.259558 0
M  V30 14304 C 1337.48 1.6742 1.01143 0
M  V30 14305 C 1337.86 0.549525 2.03822 0
M  V30 14306 O 1337.21 -0.448699 2.24051 0
M  V30 14307 C 1337.42 3.07201 1.65616 0
M  V30 14308 C 1338.77 3.6539 2.16277 0
M  V30 14309 O 1339.79 3.0992 1.7558 0
M  V30 14310 O 1338.65 4.62604 2.90963 0
M  V30 14311 H 1335.74 0.680469 0.469991 0
M  V30 14312 H 1338.29 1.67783 0.254348 0
M  V30 14313 H 1337.06 3.80504 0.912819 0
M  V30 14314 H 1336.68 3.10794 2.47977 0
M  V30 14315 N 1337.68 -0.524672 1.4861 0
M  V30 14316 C 1338.92 -1.29064 1.58499 0
M  V30 14317 C 1339.28 -1.90294 0.255378 0
M  V30 14318 O 1340.49 -2.6782 0.229289 0
M  V30 14319 C 1338.76 -2.34693 2.69544 0
M  V30 14320 S 1340.32 -3.20944 2.99233 0
M  V30 14321 H 1337.13 -0.438948 0.559326 0
M  V30 14322 H 1339.74 -0.597119 1.86158 0
M  V30 14323 H 1338.44 -1.88199 3.64704 0
M  V30 14324 H 1337.97 -3.08745 2.43804 0
M  V30 14325 H 1339.99 -4.34883 2.38937 0
M  V30 14326 N 1339.16 -1.37287 -0.77395 0
M  V30 14327 C 1340.09 -1.27239 -1.89435 0
M  V30 14328 C 1341.07 -0.153365 -1.61875 0
M  V30 14329 O 1342.25 -0.327193 -1.85639 0
M  V30 14330 C 1339.38 -0.966771 -3.24609 0
M  V30 14331 C 1338.43 -2.10237 -3.71083 0
M  V30 14332 S 1339.26 -3.72188 -3.85014 0
M  V30 14333 C 1340.42 -3.43773 -5.2304 0
M  V30 14334 H 1340.65 -2.22068 -1.97669 0
M  V30 14335 H 1338.18 -1.22884 -0.93482 0
M  V30 14336 H 1340.14 -0.797268 -4.02683 0
M  V30 14337 H 1338.8 -0.0359985 -3.14079 0
M  V30 14338 H 1337.99 -1.84349 -4.69075 0
M  V30 14339 H 1337.6 -2.23189 -3.00104 0
M  V30 14340 H 1339.89 -2.98625 -6.08136 0
M  V30 14341 H 1340.83 -4.41085 -5.5394 0
M  V30 14342 H 1341.24 -2.78753 -4.90873 0
M  V30 14343 N 1340.64 0.999871 -1.21821 0
M  V30 14344 C 1341.55 2.12303 -0.99823 0
M  V30 14345 C 1342.56 1.73924 0.0512923 0
M  V30 14346 O 1343.74 2.00914 -0.139895 0
M  V30 14347 C 1340.8 3.41962 -0.571232 0
M  V30 14348 C 1339.86 3.94483 -1.69356 0
M  V30 14349 C 1339.1 5.17954 -1.28685 0
M  V30 14350 O 1339.32 5.70168 -0.162641 0
M  V30 14351 O 1338.25 5.64051 -2.10071 0
M  V30 14352 H 1342.08 2.3374 -1.93905 0
M  V30 14353 H 1339.67 1.10677 -1.00354 0
M  V30 14354 H 1341.55 4.20001 -0.343134 0
M  V30 14355 H 1340.22 3.21901 0.340814 0
M  V30 14356 H 1339.13 3.17648 -1.97612 0
M  V30 14357 H 1340.46 4.18964 -2.58322 0
M  V30 14358 N 1342.11 1.02678 1.19562 0
M  V30 14359 C 1343.36 0.723086 1.89471 0
M  V30 14360 C 1343.69 -0.746269 1.79289 0
M  V30 14361 O 1342.97 -1.54322 1.18384 0
M  V30 14362 C 1343.25 1.17224 3.40486 0
M  V30 14363 C 1343.1 2.70266 3.5955 0
M  V30 14364 C 1344.42 0.751397 4.33638 0
M  V30 14365 H 1341.54 0.264155 0.688034 0
M  V30 14366 H 1344.18 1.27633 1.40747 0
M  V30 14367 H 1342.33 0.701544 3.82113 0
M  V30 14368 H 1344.01 3.25266 3.27108 0
M  V30 14369 H 1342.25 3.10758 3.02675 0
M  V30 14370 H 1342.92 2.96748 4.65451 0
M  V30 14371 H 1345.4 1.15621 3.99714 0
M  V30 14372 H 1344.27 1.09358 5.37896 0
M  V30 14373 H 1344.53 -0.346367 4.40741 0
M  V30 14374 N 1343.59 -1.35528 0.804364 0
M  V30 14375 C 1344.82 -2.03604 0.395013 0
M  V30 14376 C 1345.24 -1.60225 -0.985371 0
M  V30 14377 O 1344.6 -0.777844 -1.63766 0
M  V30 14378 C 1344.65 -3.57337 0.484011 0
M  V30 14379 O 1343.75 -4.09316 -0.503395 0
M  V30 14380 H 1343.09 -0.643089 0.165325 0
M  V30 14381 H 1345.62 -1.73171 1.08963 0
M  V30 14382 H 1345.63 -4.0647 0.353009 0
M  V30 14383 H 1344.31 -3.8826 1.49088 0
M  V30 14384 H 1342.89 -3.71412 -0.332817 0
M  V30 14385 N 1345.07 -0.557671 -1.47404 0
M  V30 14386 C 1346.32 -0.0337216 -2.02072 0
M  V30 14387 C 1346.64 1.32106 -1.43433 0
M  V30 14388 O 1345.91 1.86171 -0.609692 0
M  V30 14389 H 1344.49 -0.00947648 -0.74694 0
M  V30 14390 H 1347.15 -0.727784 -1.80802 0
M  V30 14391 H 1346.25 0.0540331 -3.12053 0
M  V30 14392 N 1346.55 1.54831 -0.294147 0
M  V30 14393 C 1347.48 2.20696 0.61854 0
M  V30 14394 C 1348.49 1.19754 1.10285 0
M  V30 14395 O 1349.68 1.46383 1.02148 0
M  V30 14396 C 1346.78 2.83429 1.85798 0
M  V30 14397 C 1345.96 4.10239 1.51731 0
M  V30 14398 C 1345.02 4.56841 2.61119 0
M  V30 14399 O 1344.04 5.22194 2.26501 0
M  V30 14400 N 1345.24 4.2858 3.91534 0
M  V30 14401 H 1348.01 2.9965 0.054714 0
M  V30 14402 H 1345.57 1.61484 -0.116052 0
M  V30 14403 H 1347.56 3.11541 2.5831 0
M  V30 14404 H 1346.13 2.08356 2.33038 0
M  V30 14405 H 1345.35 3.89212 0.625142 0
M  V30 14406 H 1346.64 4.92824 1.26499 0
M  V30 14407 H 1346.04 3.7621 4.22472 0
M  V30 14408 H 1344.59 4.61418 4.60366 0
M  V30 14409 N 1348.03 0.0217466 1.57585 0
M  V30 14410 C 1349.25 -0.67246 1.96196 0
M  V30 14411 C 1349.68 -1.6529 0.897827 0
M  V30 14412 O 1349.04 -1.80743 -0.142002 0
M  V30 14413 C 1349.08 -1.36162 3.33905 0
M  V30 14414 O 1348.19 -2.47671 3.29747 0
M  V30 14415 H 1347.53 -0.177238 0.639908 0
M  V30 14416 H 1350.06 0.0814073 2.04438 0
M  V30 14417 H 1350.07 -1.7201 3.69968 0
M  V30 14418 H 1348.74 -0.642893 4.10901 0
M  V30 14419 H 1347.32 -2.13989 3.0539 0
M  V30 14420 N 1349.51 -1.55583 -0.251311 0
M  V30 14421 C 1350.44 -1.9296 -1.31486 0
M  V30 14422 C 1351.42 -0.794001 -1.50431 0
M  V30 14423 O 1352.6 -1.05393 -1.63113 0
M  V30 14424 C 1349.73 -2.22046 -2.67045 0
M  V30 14425 C 1348.69 -3.37816 -2.62801 0
M  V30 14426 C 1348.01 -3.52433 -4.02113 0
M  V30 14427 C 1349.31 -4.73626 -2.20171 0
M  V30 14428 H 1351.01 -2.82046 -1.00451 0
M  V30 14429 H 1348.55 -1.35702 -0.481775 0
M  V30 14430 H 1350.5 -2.46783 -3.41579 0
M  V30 14431 H 1349.23 -1.29782 -2.99707 0
M  V30 14432 H 1347.89 -3.13081 -1.90724 0
M  V30 14433 H 1347.54 -2.57597 -4.32034 0
M  V30 14434 H 1347.24 -4.30283 -4.00163 0
M  V30 14435 H 1348.76 -3.79486 -4.78354 0
M  V30 14436 H 1350.17 -4.97764 -2.84436 0
M  V30 14437 H 1348.57 -5.54547 -2.29341 0
M  V30 14438 H 1349.64 -4.70985 -1.1533 0
M  V30 14439 N 1350.98 0.516783 -1.48886 0
M  V30 14440 C 1352.22 1.28221 -1.59181 0
M  V30 14441 C 1352.59 1.90156 -0.265466 0
M  V30 14442 O 1353.79 2.67695 -0.243489 0
M  V30 14443 C 1352.06 2.3326 -2.70785 0
M  V30 14444 S 1353.62 3.19353 -3.00931 0
M  V30 14445 H 1350.44 0.435976 -0.561646 0
M  V30 14446 H 1353.04 0.587238 -1.86472 0
M  V30 14447 H 1351.74 1.86263 -3.65697 0
M  V30 14448 H 1351.27 3.07447 -2.45438 0
M  V30 14449 H 1353.29 4.3361 -2.4124 0
M  V30 14450 N 1352.46 1.37696 0.766659 0
M  V30 14451 C 1353.39 1.36576 1.89392 0
M  V30 14452 C 1354.37 0.233597 1.68488 0
M  V30 14453 O 1355.56 0.434719 1.89272 0
M  V30 14454 C 1352.69 1.17705 3.26746 0
M  V30 14455 C 1351.64 2.27987 3.62224 0
M  V30 14456 C 1350.97 1.94235 4.98174 0
M  V30 14457 C 1352.27 3.70195 3.68447 0
M  V30 14458 H 1353.96 2.30905 1.90587 0
M  V30 14459 H 1351.51 1.11148 0.915538 0
M  V30 14460 H 1353.46 1.15551 4.05248 0
M  V30 14461 H 1352.18 0.198334 3.25997 0
M  V30 14462 H 1350.84 2.29306 2.86032 0
M  V30 14463 H 1350.49 0.948796 4.93971 0
M  V30 14464 H 1350.19 2.68086 5.2288 0
M  V30 14465 H 1351.72 1.93676 5.7907 0
M  V30 14466 H 1353.13 3.70978 4.37091 0
M  V30 14467 H 1351.53 4.43142 4.04654 0
M  V30 14468 H 1352.6 4.03453 2.68986 0
M  V30 14469 N 1353.94 -0.993397 1.22349 0
M  V30 14470 C 1354.87 -2.10171 1.01737 0
M  V30 14471 C 1355.85 -1.69989 -0.0615276 0
M  V30 14472 O 1357.04 -1.93939 0.100591 0
M  V30 14473 C 1354.17 -3.42186 0.593801 0
M  V30 14474 C 1353.12 -3.96215 1.61858 0
M  V30 14475 C 1352.45 -5.24272 1.05086 0
M  V30 14476 C 1353.75 -4.26956 3.00842 0
M  V30 14477 H 1355.44 -2.27673 1.94436 0
M  V30 14478 H 1352.99 -1.09408 0.936258 0
M  V30 14479 H 1354.94 -4.19131 0.436715 0
M  V30 14480 H 1353.66 -3.2451 -0.368855 0
M  V30 14481 H 1352.32 -3.21401 1.76343 0
M  V30 14482 H 1351.97 -5.02937 0.0795747 0
M  V30 14483 H 1351.67 -5.61387 1.73547 0
M  V30 14484 H 1353.19 -6.03851 0.905349 0
M  V30 14485 H 1354.61 -4.94699 2.89734 0
M  V30 14486 H 1353 -4.75242 3.66422 0
M  V30 14487 H 1354.07 -3.34752 3.50812 0
M  V30 14488 N 1355.42 -1.03311 -1.19015 0
M  V30 14489 C 1356.66 -0.733124 -1.89085 0
M  V30 14490 C 1357 0.73675 -1.79682 0
M  V30 14491 O 1356.27 1.53692 -1.19201 0
M  V30 14492 C 1356.55 -1.19028 -3.39859 0
M  V30 14493 C 1356.41 -2.72169 -3.58112 0
M  V30 14494 C 1357.73 -0.774383 -4.33234 0
M  V30 14495 H 1354.85 -0.2678 -0.686624 0
M  V30 14496 H 1357.49 -1.28378 -1.40068 0
M  V30 14497 H 1355.64 -0.721799 -3.81736 0
M  V30 14498 H 1357.31 -3.26996 -3.25379 0
M  V30 14499 H 1355.55 -3.12358 -3.01023 0
M  V30 14500 H 1356.22 -2.99213 -4.6387 0
M  V30 14501 H 1358.7 -1.17739 -3.99095 0
M  V30 14502 H 1357.58 -1.12209 -5.37308 0
M  V30 14503 H 1357.84 0.322989 -4.40919 0
M  V30 14504 N 1356.9 1.35099 -0.81154 0
M  V30 14505 C 1358.14 1.98625 -0.394231 0
M  V30 14506 C 1358.47 1.6437 1.03985 0
M  V30 14507 O 1357.73 0.901496 1.737 0
M  V30 14508 C 1358.02 3.53444 -0.530322 0
M  V30 14509 C 1357.69 4.0758 -1.92844 0
M  V30 14510 C 1356.35 4.22077 -2.31094 0
M  V30 14511 C 1358.7 4.36838 -2.84292 0
M  V30 14512 C 1356.03 4.63153 -3.60148 0
M  V30 14513 C 1358.38 4.79355 -4.12798 0
M  V30 14514 C 1357.05 4.92057 -4.51039 0
M  V30 14515 H 1356.32 0.726822 -0.144259 0
M  V30 14516 H 1358.97 1.61231 -1.03329 0
M  V30 14517 H 1357.27 3.91328 0.192166 0
M  V30 14518 H 1358.97 4.00558 -0.188134 0
M  V30 14519 H 1355.56 3.96752 -1.62129 0
M  V30 14520 H 1359.74 4.25187 -2.55988 0
M  V30 14521 H 1355 4.71176 -3.89619 0
M  V30 14522 H 1359.17 5.00954 -4.83754 0
M  V30 14523 H 1356.8 5.23643 -5.51092 0
M  V30 14524 N 1358.37 0.56548 1.47106 0
M  V30 14525 C 1359.3 -0.16567 2.32912 0
M  V30 14526 C 1360.28 -0.900678 1.44298 0
M  V30 14527 O 1361.47 -0.879523 1.73142 0
M  V30 14528 C 1358.6 -1.19092 3.26243 0
M  V30 14529 C 1357.55 -0.571849 4.24163 0
M  V30 14530 C 1356.88 -1.70233 5.06878 0
M  V30 14531 C 1358.18 0.479785 5.20092 0
M  V30 14532 H 1359.87 0.550705 2.94292 0
M  V30 14533 H 1357.42 0.266284 1.41517 0
M  V30 14534 H 1359.37 -1.71064 3.85117 0
M  V30 14535 H 1358.1 -1.93734 2.62934 0
M  V30 14536 H 1356.76 -0.073353 3.66527 0
M  V30 14537 H 1356.4 -2.438 4.39967 0
M  V30 14538 H 1356.1 -1.29384 5.73178 0
M  V30 14539 H 1357.63 -2.22515 5.68612 0
M  V30 14540 H 1359.04 0.0458042 5.73282 0
M  V30 14541 H 1357.44 0.807615 5.94641 0
M  V30 14542 H 1358.51 1.37259 4.65068 0
M  V30 14543 N 1359.85 -1.54672 0.302354 0
M  V30 14544 C 1360.78 -2.2653 -0.566265 0
M  V30 14545 C 1361.76 -1.26532 -1.13682 0
M  V30 14546 O 1362.95 -1.55307 -1.1659 0
M  V30 14547 C 1360.08 -3.00709 -1.73757 0
M  V30 14548 C 1359.03 -4.07865 -1.29731 0
M  V30 14549 C 1358.36 -4.69767 -2.55388 0
M  V30 14550 C 1359.66 -5.20547 -0.427567 0
M  V30 14551 H 1361.35 -2.99382 0.033071 0
M  V30 14552 H 1358.9 -1.4399 0.0173458 0
M  V30 14553 H 1360.85 -3.497 -2.35134 0
M  V30 14554 H 1359.58 -2.25437 -2.36317 0
M  V30 14555 H 1358.23 -3.59726 -0.706586 0
M  V30 14556 H 1357.88 -3.91134 -3.16265 0
M  V30 14557 H 1357.58 -5.42137 -2.26631 0
M  V30 14558 H 1359.11 -5.21521 -3.17566 0
M  V30 14559 H 1360.52 -5.65424 -0.947053 0
M  V30 14560 H 1358.92 -5.99645 -0.233704 0
M  V30 14561 H 1359.99 -4.81805 0.546993 0
M  V30 14562 N 1361.33 -0.0301034 -1.57571 0
M  V30 14563 C 1362.58 0.649283 -1.92125 0
M  V30 14564 C 1362.91 1.71722 -0.90692 0
M  V30 14565 O 1362.18 1.94373 0.0702019 0
M  V30 14566 C 1362.47 1.26482 -3.37156 0
M  V30 14567 C 1362.32 0.206375 -4.49326 0
M  V30 14568 C 1363.64 2.18256 -3.82168 0
M  V30 14569 H 1360.76 0.234561 -0.698678 0
M  V30 14570 H 1363.4 -0.0875634 -1.89798 0
M  V30 14571 H 1361.55 1.89283 -3.3927 0
M  V30 14572 H 1363.22 -0.424268 -4.59345 0
M  V30 14573 H 1361.47 -0.468035 -4.31268 0
M  V30 14574 H 1362.14 0.676689 -5.47837 0
M  V30 14575 H 1364.61 1.65441 -3.81797 0
M  V30 14576 H 1363.49 2.58277 -4.84339 0
M  V30 14577 H 1363.75 3.07411 -3.17727 0
M  V30 14578 N 1362.81 1.55714 0.243056 0
M  V30 14579 C 1363.74 1.85615 1.32748 0
M  V30 14580 C 1364.72 0.711577 1.46203 0
M  V30 14581 O 1365.9 0.957732 1.62357 0
M  V30 14582 C 1363.03 2.04425 2.70052 0
M  V30 14583 C 1362.08 3.27071 2.73727 0
M  V30 14584 S 1362.91 4.83615 2.2995 0
M  V30 14585 C 1364.07 5.05434 3.69171 0
M  V30 14586 H 1364.3 2.77305 1.07187 0
M  V30 14587 H 1361.83 1.47871 0.444234 0
M  V30 14588 H 1363.79 2.15946 3.4911 0
M  V30 14589 H 1362.45 1.1357 2.92849 0
M  V30 14590 H 1361.64 3.37211 3.74573 0
M  V30 14591 H 1361.25 3.14296 2.02716 0
M  V30 14592 H 1363.54 4.93013 4.64698 0
M  V30 14593 H 1364.48 6.07401 3.63963 0
M  V30 14594 H 1364.89 4.33262 3.61862 0
M  V30 14595 N 1364.29 -0.50888 1.49158 0
M  V30 14596 C 1365.53 -1.26537 1.58481 0
M  V30 14597 C 1365.87 -1.92353 0.267168 0
M  V30 14598 O 1365.14 -1.80336 -0.728639 0
M  V30 14599 C 1365.42 -2.33846 2.73839 0
M  V30 14600 C 1365.28 -1.72582 4.15374 0
M  V30 14601 C 1366.6 -3.35467 2.84868 0
M  V30 14602 H 1363.71 -0.458697 0.576859 0
M  V30 14603 H 1366.36 -0.564728 1.81413 0
M  V30 14604 H 1364.51 -2.93605 2.54417 0
M  V30 14605 H 1366.18 -1.16711 4.46292 0
M  V30 14606 H 1364.42 -1.03025 4.21389 0
M  V30 14607 H 1365.09 -2.5038 4.91949 0
M  V30 14608 H 1367.57 -2.85689 3.02524 0
M  V30 14609 H 1366.44 -4.07922 3.67275 0
M  V30 14610 H 1366.71 -3.97313 1.93894 0
M  V30 14611 N 1365.76 -1.381 -0.759346 0
M  V30 14612 C 1367.01 -1.33311 -1.51364 0
M  V30 14613 C 1367.33 0.0761325 -1.95452 0
M  V30 14614 O 1368.53 0.246541 -2.70378 0
M  V30 14615 C 1366.99 -2.34067 -2.73387 0
M  V30 14616 C 1366.6 -3.80583 -2.36348 0
M  V30 14617 C 1368.34 -2.38311 -3.51295 0
M  V30 14618 C 1366.25 -4.73039 -3.54948 0
M  V30 14619 H 1365.18 -0.495512 -0.568317 0
M  V30 14620 H 1367.83 -1.63625 -0.830602 0
M  V30 14621 H 1366.21 -1.96788 -3.43643 0
M  V30 14622 H 1367.38 -4.26769 -1.73796 0
M  V30 14623 H 1365.7 -3.79403 -1.71587 0
M  V30 14624 H 1368.3 -3.04586 -4.39467 0
M  V30 14625 H 1368.64 -1.40034 -3.92041 0
M  V30 14626 H 1369.17 -2.74361 -2.88047 0
M  V30 14627 H 1365.91 -5.7249 -3.19273 0
M  V30 14628 H 1365.43 -4.3155 -4.16563 0
M  V30 14629 H 1367.11 -4.90775 -4.21603 0
M  V30 14630 N 1367.24 0.986894 -1.22875 0
M  V30 14631 C 1368.49 1.72388 -1.05484 0
M  V30 14632 C 1368.81 1.90639 0.410074 0
M  V30 14633 O 1368.08 1.47036 1.2945 0
M  V30 14634 H 1366.66 0.638732 -0.387337 0
M  V30 14635 H 1369.32 1.18829 -1.54485 0
M  V30 14636 H 1368.42 2.71599 -1.53754 0
M  V30 14637 N 1368.72 1.0394 1.18466 0
M  V30 14638 C 1369.67 0.623063 2.241 0
M  V30 14639 C 1370.66 -0.349518 1.65755 0
M  V30 14640 O 1371.87 -0.216947 1.78688 0
M  V30 14641 H 1368.24 0.183263 0.729327 0
M  V30 14642 H 1370.21 1.52439 2.56524 0
M  V30 14643 C 1368.96 0.000626805 3.477 0
M  V30 14644 H 1368.29 0.740056 3.92891 0
M  V30 14645 H 1369.73 -0.253484 4.23242 0
M  V30 14646 C 1368.19 -1.24907 3.1289 0
M  V30 14647 O 1368.72 -2.33996 3.2651 0
M  V30 14648 N 1366.92 -1.14187 2.67226 0
M  V30 14649 H 1366.47 -0.254146 2.56343 0
M  V30 14650 H 1366.43 -1.97893 2.44307 0
M  V30 14651 N 1370.2 -1.34667 0.818693 0
M  V30 14652 C 1371.13 -2.32134 0.252239 0
M  V30 14653 C 1372.11 -1.58044 -0.628982 0
M  V30 14654 O 1373.29 -1.86049 -0.55674 0
M  V30 14655 C 1370.42 -3.42249 -0.590183 0
M  V30 14656 C 1369.38 -4.27562 0.193547 0
M  V30 14657 C 1368.7 -5.29107 -0.771349 0
M  V30 14658 C 1370 -5.03205 1.39936 0
M  V30 14659 H 1371.7 -2.79758 1.06657 0
M  V30 14660 H 1369.24 -1.34502 0.514325 0
M  V30 14661 H 1371.2 -4.09445 -0.996616 0
M  V30 14662 H 1369.92 -2.93262 -1.43752 0
M  V30 14663 H 1368.58 -3.61962 0.581297 0
M  V30 14664 H 1368.23 -4.76384 -1.61453 0
M  V30 14665 H 1367.93 -5.87063 -0.251201 0
M  V30 14666 H 1369.45 -5.99174 -1.17573 0
M  V30 14667 H 1370.87 -5.6328 1.06717 0
M  V30 14668 H 1369.26 -5.70715 1.85485 0
M  V30 14669 H 1370.33 -4.33145 2.17976 0
M  V30 14670 N 1371.68 -0.573274 -1.46804 0
M  V30 14671 C 1372.92 -0.0553432 -2.02724 0
M  V30 14672 C 1373.26 1.29753 -1.44492 0
M  V30 14673 O 1372.53 1.84804 -0.606455 0
M  V30 14674 C 1372.81 0.0205511 -3.60094 0
M  V30 14675 C 1372.67 -1.36055 -4.2873 0
M  V30 14676 C 1373.99 0.725944 -4.34071 0
M  V30 14677 H 1371.1 -0.0215858 -0.736684 0
M  V30 14678 H 1373.75 -0.738657 -1.75054 0
M  V30 14679 H 1371.9 0.602481 -3.838 0
M  V30 14680 H 1373.57 -1.98692 -4.16316 0
M  V30 14681 H 1371.81 -1.93087 -3.88458 0
M  V30 14682 H 1372.48 -1.26001 -5.37427 0
M  V30 14683 H 1374.96 0.231677 -4.15455 0
M  V30 14684 H 1373.83 0.74805 -5.43779 0
M  V30 14685 H 1374.1 1.78536 -4.04447 0
M  V30 14686 N 1373.15 1.5451 -0.310553 0
M  V30 14687 C 1374.4 2.00623 0.296343 0
M  V30 14688 C 1374.73 1.19855 1.52802 0
M  V30 14689 O 1374.01 0.277468 1.92511 0
M  V30 14690 C 1374.29 3.54305 0.643448 0
M  V30 14691 C 1374.14 4.45807 -0.598029 0
M  V30 14692 C 1375.46 4.14958 1.46623 0
M  V30 14693 H 1372.58 0.729303 0.106236 0
M  V30 14694 H 1375.22 1.85196 -0.424549 0
M  V30 14695 H 1373.37 3.67581 1.25762 0
M  V30 14696 H 1375.05 4.44421 -1.23643 0
M  V30 14697 H 1373.29 4.16014 -1.22944 0
M  V30 14698 H 1373.96 5.51124 -0.310883 0
M  V30 14699 H 1376.44 4.05176 0.947199 0
M  V30 14700 H 1375.31 5.22627 1.67787 0
M  V30 14701 H 1375.57 3.67445 2.45839 0
M  V30 14702 N 1374.63 0.0384594 1.57553 0
M  V30 14703 C 1375.56 -0.938444 2.13812 0
M  V30 14704 C 1376.54 -1.33307 1.05657 0
M  V30 14705 O 1377.73 -1.41003 1.33535 0
M  V30 14706 C 1374.86 -2.21764 2.67279 0
M  V30 14707 C 1373.81 -1.96347 3.80305 0
M  V30 14708 C 1373.14 -3.30612 4.20238 0
M  V30 14709 C 1374.44 -1.2952 5.05986 0
M  V30 14710 H 1376.13 -0.469887 2.9569 0
M  V30 14711 H 1373.68 -0.224576 1.42238 0
M  V30 14712 H 1375.63 -2.90493 3.05273 0
M  V30 14713 H 1374.36 -2.70802 1.82576 0
M  V30 14714 H 1373.02 -1.30033 3.42764 0
M  V30 14715 H 1372.66 -3.77427 3.32502 0
M  V30 14716 H 1372.36 -3.14409 4.96408 0
M  V30 14717 H 1373.89 -4.00594 4.60822 0
M  V30 14718 H 1375.3 -1.88264 5.41507 0
M  V30 14719 H 1373.7 -1.23685 5.87216 0
M  V30 14720 H 1374.77 -0.269439 4.84151 0
M  V30 14721 N 1376.11 -1.55841 -0.234795 0
M  V30 14722 C 1377.06 -1.92165 -1.31055 0
M  V30 14723 C 1378.05 -0.802106 -1.49207 0
M  V30 14724 O 1379.26 -0.986832 -1.50538 0
M  V30 14725 H 1375.63 -0.610487 -0.439101 0
M  V30 14726 H 1377.61 -2.81955 -0.976926 0
M  V30 14727 C 1376.35 -2.24329 -2.65654 0
M  V30 14728 H 1375.68 -3.09982 -2.5249 0
M  V30 14729 H 1377.12 -2.53639 -3.3977 0
M  V30 14730 C 1375.58 -1.0638 -3.19664 0
M  V30 14731 O 1376.11 -0.318047 -4.00439 0
M  V30 14732 N 1374.31 -0.851167 -2.77855 0
M  V30 14733 H 1373.86 -1.45932 -2.12277 0
M  V30 14734 H 1373.82 -0.0636875 -3.14335 0
M  V30 14735 N 1377.59 0.500963 -1.49426 0
M  V30 14736 C 1378.52 1.61114 -1.69011 0
M  V30 14737 C 1379.5 1.61341 -0.538813 0
M  V30 14738 O 1380.69 1.78081 -0.77466 0
M  V30 14739 C 1377.82 2.99598 -1.75666 0
M  V30 14740 C 1376.77 3.14236 -2.90585 0
M  V30 14741 C 1376.1 4.54071 -2.82354 0
M  V30 14742 C 1377.4 2.94258 -4.3152 0
M  V30 14743 H 1379.09 1.44978 -2.61957 0
M  V30 14744 H 1376.64 0.69603 -1.26061 0
M  V30 14745 H 1378.59 3.77163 -1.87953 0
M  V30 14746 H 1377.31 3.16822 -0.793186 0
M  V30 14747 H 1375.97 2.39096 -2.779 0
M  V30 14748 H 1375.62 4.68172 -1.83914 0
M  V30 14749 H 1375.32 4.64806 -3.59485 0
M  V30 14750 H 1376.84 5.33696 -2.96649 0
M  V30 14751 H 1378.26 3.61592 -4.44886 0
M  V30 14752 H 1376.65 3.16464 -5.09873 0
M  V30 14753 H 1377.72 1.90383 -4.45962 0
M  V30 14754 N 1379.07 1.38501 0.752011 0
M  V30 14755 C 1380.31 1.34795 1.51118 0
M  V30 14756 C 1380.64 -0.0615084 1.94403 0
M  V30 14757 O 1379.9 -1.03892 1.65846 0
M  V30 14758 C 1380.2 2.25111 2.77596 0
M  V30 14759 C 1379.86 3.73052 2.53265 0
M  V30 14760 C 1378.52 4.13365 2.46339 0
M  V30 14761 C 1380.88 4.66692 2.32051 0
M  V30 14762 C 1378.2 5.45406 2.16216 0
M  V30 14763 C 1380.56 5.98992 2.03448 0
M  V30 14764 C 1379.22 6.38388 1.94979 0
M  V30 14765 H 1378.49 0.49325 0.552979 0
M  V30 14766 H 1381.14 1.70872 0.864588 0
M  V30 14767 H 1379.44 1.82096 3.46913 0
M  V30 14768 H 1381.14 2.19547 3.3556 0
M  V30 14769 H 1377.73 3.41091 2.59528 0
M  V30 14770 H 1381.91 4.36392 2.3638 0
M  V30 14771 H 1377.17 5.7487 2.08168 0
M  V30 14772 H 1381.34 6.71091 1.86037 0
M  V30 14773 H 1378.97 7.40625 1.71402 0
M  V30 14774 N 1380.55 -0.980364 1.23396 0
M  V30 14775 C 1381.48 -2.0908 1.0396 0
M  V30 14776 C 1382.46 -1.70044 -0.0434946 0
M  V30 14777 O 1383.64 -1.93822 0.121155 0
M  V30 14778 C 1380.77 -3.41537 0.630061 0
M  V30 14779 C 1379.73 -3.94476 1.66051 0
M  V30 14780 C 1379.05 -5.23128 1.10641 0
M  V30 14781 C 1380.35 -4.23741 3.05354 0
M  V30 14782 H 1382.05 -2.25598 1.9684 0
M  V30 14783 H 1379.59 -1.08409 0.94781 0
M  V30 14784 H 1381.54 -4.18644 0.481145 0
M  V30 14785 H 1380.27 -3.24883 -0.334416 0
M  V30 14786 H 1378.93 -3.19513 1.79742 0
M  V30 14787 H 1378.58 -5.02824 0.132913 0
M  V30 14788 H 1378.28 -5.59515 1.79492 0
M  V30 14789 H 1379.8 -6.02857 0.969344 0
M  V30 14790 H 1381.21 -4.91598 2.94964 0
M  V30 14791 H 1379.61 -4.71329 3.71442 0
M  V30 14792 H 1380.68 -3.31012 3.54343 0
M  V30 14793 N 1382.02 -1.04567 -1.17913 0
M  V30 14794 C 1382.99 -0.645476 -2.19923 0
M  V30 14795 C 1383.99 0.299763 -1.57981 0
M  V30 14796 O 1385.18 0.0844825 -1.73995 0
M  V30 14797 C 1382.31 0.0528935 -3.40859 0
M  V30 14798 H 1383.5 -1.54828 -2.56843 0
M  V30 14799 H 1381.05 -0.838812 -1.31885 0
M  V30 14800 H 1381.79 0.969261 -3.09477 0
M  V30 14801 H 1381.57 -0.626558 -3.87062 0
M  V30 14802 H 1383.06 0.319221 -4.16378 0
M  V30 14803 N 1383.5 1.34231 -0.825823 0
M  V30 14804 C 1384.43 2.31997 -0.264546 0
M  V30 14805 C 1385.41 1.58375 0.620592 0
M  V30 14806 O 1386.6 1.86341 0.546865 0
M  V30 14807 C 1383.73 3.42557 0.572025 0
M  V30 14808 C 1382.68 4.27454 -0.216219 0
M  V30 14809 C 1382.01 5.29509 0.743279 0
M  V30 14810 C 1383.31 5.02456 -1.42603 0
M  V30 14811 H 1385 2.79189 -1.08139 0
M  V30 14812 H 1382.55 1.34227 -0.521451 0
M  V30 14813 H 1384.5 4.09968 0.974889 0
M  V30 14814 H 1383.22 2.94021 1.42195 0
M  V30 14815 H 1381.88 3.61649 -0.600485 0
M  V30 14816 H 1381.53 4.77234 1.58924 0
M  V30 14817 H 1381.23 5.87188 0.220064 0
M  V30 14818 H 1382.76 5.99789 1.14394 0
M  V30 14819 H 1384.17 5.62706 -1.09702 0
M  V30 14820 H 1382.57 5.69723 -1.88509 0
M  V30 14821 H 1383.64 4.31983 -2.2027 0
M  V30 14822 N 1384.98 0.581051 1.46498 0
M  V30 14823 C 1385.91 -0.140957 2.33074 0
M  V30 14824 C 1386.89 -0.885323 1.45245 0
M  V30 14825 O 1388.08 -0.86111 1.74065 0
M  V30 14826 C 1385.21 -1.15625 3.27488 0
M  V30 14827 C 1384.16 -0.526829 4.24745 0
M  V30 14828 C 1383.49 -1.64847 5.08655 0
M  V30 14829 C 1384.79 0.53492 5.19554 0
M  V30 14830 H 1386.48 0.581888 2.93691 0
M  V30 14831 H 1384.03 0.281278 1.41226 0
M  V30 14832 H 1385.98 -1.6697 3.8691 0
M  V30 14833 H 1384.7 -1.90935 2.64974 0
M  V30 14834 H 1383.36 -0.0344738 3.66584 0
M  V30 14835 H 1383.01 -2.3912 4.42528 0
M  V30 14836 H 1382.71 -1.23298 5.74518 0
M  V30 14837 H 1384.23 -2.16472 5.7094 0
M  V30 14838 H 1385.65 0.106606 5.73201 0
M  V30 14839 H 1384.04 0.870639 5.93751 0
M  V30 14840 H 1385.11 1.42184 4.63586 0
M  V30 14841 N 1386.46 -1.54343 0.318742 0
M  V30 14842 C 1387.39 -2.27118 -0.542206 0
M  V30 14843 C 1388.37 -1.27731 -1.12334 0
M  V30 14844 O 1389.55 -1.56535 -1.14937 0
M  V30 14845 C 1386.68 -3.02535 -1.70558 0
M  V30 14846 C 1385.64 -4.09218 -1.25398 0
M  V30 14847 C 1384.96 -4.72449 -2.50391 0
M  V30 14848 C 1386.26 -5.20971 -0.372332 0
M  V30 14849 H 1387.96 -2.9933 0.0648226 0
M  V30 14850 H 1385.5 -1.43963 0.0326168 0
M  V30 14851 H 1387.46 -3.52174 -2.31412 0
M  V30 14852 H 1386.18 -2.27931 -2.33912 0
M  V30 14853 H 1384.84 -3.60455 -0.668392 0
M  V30 14854 H 1384.49 -3.94466 -3.12099 0
M  V30 14855 H 1384.19 -5.4451 -2.20868 0
M  V30 14856 H 1385.71 -5.2486 -3.12016 0
M  V30 14857 H 1387.13 -5.66396 -0.887029 0
M  V30 14858 H 1385.52 -5.99859 -0.17009 0
M  V30 14859 H 1386.59 -4.81198 0.598064 0
M  V30 14860 N 1387.94 -0.0468143 -1.5753 0
M  V30 14861 C 1389.16 0.641161 -1.97241 0
M  V30 14862 C 1389.59 1.6384 -0.92401 0
M  V30 14863 O 1388.94 1.80946 0.113229 0
M  V30 14864 C 1388.99 1.30832 -3.36029 0
M  V30 14865 O 1388.1 2.42394 -3.33645 0
M  V30 14866 H 1387.44 0.167035 -0.642647 0
M  V30 14867 H 1389.97 -0.113921 -2.04283 0
M  V30 14868 H 1389.98 1.66102 -3.72658 0
M  V30 14869 H 1388.65 0.57744 -4.11872 0
M  V30 14870 H 1387.23 2.09104 -3.08756 0
M  V30 14871 N 1389.41 1.55964 0.226527 0
M  V30 14872 C 1390.64 1.83168 0.972846 0
M  V30 14873 C 1391.06 0.626512 1.7736 0
M  V30 14874 O 1390.42 -0.42468 1.76256 0
M  V30 14875 C 1390.47 3.08315 1.87014 0
M  V30 14876 O 1389.57 2.8666 2.96479 0
M  V30 14877 H 1388.92 0.604041 0.275736 0
M  V30 14878 H 1391.45 2.03172 0.241345 0
M  V30 14879 H 1391.46 3.38288 2.28091 0
M  V30 14880 H 1390.13 3.95663 1.28154 0
M  V30 14881 H 1388.71 2.67907 2.59384 0
M  V30 14882 N 1390.89 -0.493031 1.4969 0
M  V30 14883 C 1392.14 -1.24664 1.59578 0
M  V30 14884 C 1392.47 -1.92385 0.286075 0
M  V30 14885 O 1391.72 -1.81712 -0.726586 0
M  V30 14886 C 1392.02 -2.33014 2.70997 0
M  V30 14887 C 1391.69 -1.82697 4.12229 0
M  V30 14888 C 1390.35 -1.68694 4.50662 0
M  V30 14889 C 1392.7 -1.45127 5.00587 0
M  V30 14890 C 1390.03 -1.15512 5.75216 0
M  V30 14891 C 1392.38 -0.933951 6.25668 0
M  V30 14892 C 1391.05 -0.780378 6.62923 0
M  V30 14893 H 1390.32 -0.456178 0.583937 0
M  V30 14894 H 1392.96 -0.546091 1.83549 0
M  V30 14895 H 1391.27 -3.08889 2.41029 0
M  V30 14896 H 1392.96 -2.91041 2.75855 0
M  V30 14897 H 1389.55 -1.94557 3.81897 0
M  V30 14898 H 1393.74 -1.5479 4.71544 0
M  V30 14899 H 1388.99 -1.0234 6.02774 0
M  V30 14900 H 1393.17 -0.634088 6.93507 0
M  V30 14901 H 1390.8 -0.366111 7.59318 0
M  V30 14902 N 1392.37 -1.38898 -0.744656 0
M  V30 14903 C 1393.6 -1.3903 -1.53901 0
M  V30 14904 C 1394.02 0.0156607 -1.88093 0
M  V30 14905 O 1393.38 1.00012 -1.51219 0
M  V30 14906 C 1393.43 -2.2609 -2.80919 0
M  V30 14907 O 1392.53 -1.68414 -3.76444 0
M  V30 14908 H 1391.87 -0.473854 -0.465144 0
M  V30 14909 H 1394.4 -1.82773 -0.919525 0
M  V30 14910 H 1394.41 -2.40264 -3.29754 0
M  V30 14911 H 1393.09 -3.28271 -2.55364 0
M  V30 14912 H 1391.66 -1.63431 -3.35179 0
M  V30 14913 N 1393.85 0.973806 -1.23914 0
M  V30 14914 C 1394.81 2.04892 -1.02723 0
M  V30 14915 C 1395.81 1.60795 0.0132972 0
M  V30 14916 O 1397 1.72714 -0.227084 0
M  V30 14917 C 1394.13 3.36341 -0.555667 0
M  V30 14918 H 1395.33 2.25124 -1.98139 0
M  V30 14919 H 1392.88 1.14817 -1.06051 0
M  V30 14920 H 1393.61 3.21799 0.40197 0
M  V30 14921 H 1393.4 3.69689 -1.30661 0
M  V30 14922 H 1394.89 4.15398 -0.428248 0
M  V30 14923 N 1395.33 1.05191 1.17357 0
M  V30 14924 C 1396.6 0.675826 1.83554 0
M  V30 14925 C 1396.98 -0.843812 1.93502 0
M  V30 14926 O 1396.33 -1.74975 1.46956 0
M  V30 14927 C 1396.54 1.36481 3.21207 0
M  V30 14928 C 1397.89 1.50285 3.97114 0
M  V30 14929 O 1398.91 1.32382 3.30686 0
M  V30 14930 O 1397.77 1.79562 5.16159 0
M  V30 14931 H 1394.87 0.237898 0.792044 0
M  V30 14932 H 1397.41 1.1515 1.24654 0
M  V30 14933 H 1396.18 2.40156 3.08935 0
M  V30 14934 H 1395.81 0.878491 3.87774 0
M  V30 14935 N 1396.8 -1.33791 0.83293 0
M  V30 14936 C 1397.75 -2.31249 0.250357 0
M  V30 14937 C 1398.75 -1.57865 -0.614403 0
M  V30 14938 O 1399.95 -1.72782 -0.504627 0
M  V30 14939 H 1396.33 -0.749421 0.0622268 0
M  V30 14940 H 1398.3 -2.77899 1.08697 0
M  V30 14941 C 1397.05 -3.43082 -0.564783 0
M  V30 14942 H 1396.37 -3.99696 0.0913189 0
M  V30 14943 H 1397.81 -4.13486 -0.938351 0
M  V30 14944 C 1396.27 -2.88414 -1.74124 0
M  V30 14945 O 1396.8 -2.84113 -2.83976 0
M  V30 14946 N 1395.01 -2.45101 -1.56121 0
M  V30 14947 H 1394.55 -2.48799 -0.667607 0
M  V30 14948 H 1394.51 -2.08875 -2.34986 0
M  V30 14949 N 1398.28 -0.588812 -1.46187 0
M  V30 14950 C 1399.21 0.128595 -2.33146 0
M  V30 14951 C 1400.19 0.877608 -1.45712 0
M  V30 14952 O 1401.38 0.851866 -1.74519 0
M  V30 14953 C 1398.51 1.13886 -3.28096 0
M  V30 14954 C 1397.46 0.504296 -4.25019 0
M  V30 14955 C 1396.79 1.62147 -5.09522 0
M  V30 14956 C 1398.09 -0.562466 -5.19263 0
M  V30 14957 H 1399.78 -0.597455 -2.93378 0
M  V30 14958 H 1397.33 -0.288764 -1.41075 0
M  V30 14959 H 1399.28 1.64916 -3.8779 0
M  V30 14960 H 1398.01 1.89527 -2.65983 0
M  V30 14961 H 1396.66 0.0150325 -3.66597 0
M  V30 14962 H 1396.31 2.36769 -4.4379 0
M  V30 14963 H 1396.01 1.20249 -5.75164 0
M  V30 14964 H 1397.54 2.13441 -5.7208 0
M  V30 14965 H 1398.95 -0.137003 -5.73136 0
M  V30 14966 H 1397.35 -0.902115 -5.93281 0
M  V30 14967 H 1398.42 -1.4464 -4.62825 0
M  V30 14968 N 1399.76 1.54172 -0.326923 0
M  V30 14969 C 1400.99 2.05044 0.276508 0
M  V30 14970 C 1401.4 1.20288 1.45521 0
M  V30 14971 O 1400.76 0.234324 1.80989 0
M  V30 14972 C 1400.81 3.54505 0.707714 0
M  V30 14973 O 1400.53 4.36042 -0.424098 0
M  V30 14974 C 1402.03 4.21482 1.3736 0
M  V30 14975 H 1399.25 0.668632 0.0563273 0
M  V30 14976 H 1401.8 1.98929 -0.474087 0
M  V30 14977 H 1399.95 3.60896 1.40828 0
M  V30 14978 H 1400.37 5.24433 -0.0836846 0
M  V30 14979 H 1401.84 5.27501 1.62623 0
M  V30 14980 H 1402.32 3.72802 2.32196 0
M  V30 14981 H 1402.92 4.19238 0.715526 0
M  V30 14982 N 1401.24 0.0551678 1.57503 0
M  V30 14983 C 1402.2 -0.903065 2.10659 0
M  V30 14984 C 1403.2 -1.23728 1.02703 0
M  V30 14985 O 1404.39 -1.17331 1.2876 0
M  V30 14986 C 1401.52 -2.21171 2.59415 0
M  V30 14987 H 1402.72 -0.442197 2.96622 0
M  V30 14988 H 1400.27 -0.193297 1.551 0
M  V30 14989 H 1401 -2.71831 1.76858 0
M  V30 14990 H 1400.79 -1.98216 3.38309 0
M  V30 14991 H 1402.28 -2.89802 3.00674 0
M  V30 14992 N 1402.72 -1.56081 -0.218252 0
M  V30 14993 C 1404.13 -1.69397 -0.784964 0
M  V30 14994 C 1404.48 -0.65775 -1.84846 0
M  V30 14995 O 1403.6 0.190478 -2.1556 0
M  V30 14996 C 1404.2 -3.07114 -1.4306 0
M  V30 14997 C 1402.76 -3.22273 -1.94466 0
M  V30 14998 C 1401.9 -2.65327 -0.80604 0
M  V30 14999 H 1404.86 -1.58699 0.0064566 0
M  V30 15000 H 1404.88 -3.03156 -2.2995 0
M  V30 15001 H 1404.39 -3.8251 -0.656335 0
M  V30 15002 H 1402.49 -2.51752 -2.74684 0
M  V30 15003 H 1402.6 -4.29526 -2.12237 0
M  V30 15004 H 1400.97 -2.23894 -1.21423 0
M  V30 15005 H 1401.75 -3.43271 -0.0443928 0
M  V30 15006 N 1404.2 0.485086 -1.49949 0
M  V30 15007 C 1405.47 1.24639 -1.50747 0
M  V30 15008 C 1405.85 2.09683 -0.244162 0
M  V30 15009 O 1405.2 2.1503 0.772949 0
M  V30 15010 C 1405.41 2.08946 -2.7954 0
M  V30 15011 C 1406.76 2.67604 -3.29656 0
M  V30 15012 O 1407.78 2.192 -2.80766 0
M  V30 15013 O 1406.64 3.55761 -4.14845 0
M  V30 15014 H 1403.74 0.564849 -0.604049 0
M  V30 15015 H 1406.28 0.498052 -1.62227 0
M  V30 15016 H 1405.05 1.46185 -3.62968 0
M  V30 15017 H 1404.68 2.90941 -2.70997 0
M  V30 15018 N 1405.67 1.39291 0.737279 0
M  V30 15019 C 1406.58 1.40098 1.88175 0
M  V30 15020 C 1407.6 0.296053 1.71463 0
M  V30 15021 O 1408.78 0.537153 1.94105 0
M  V30 15022 C 1405.84 1.24071 3.2374 0
M  V30 15023 C 1404.9 2.44515 3.52861 0
M  V30 15024 C 1404.13 2.29243 4.81958 0
M  V30 15025 O 1404.36 1.2947 5.55512 0
M  V30 15026 O 1403.29 3.18178 5.10927 0
M  V30 15027 H 1407.12 2.36565 1.90449 0
M  V30 15028 H 1404.7 1.20382 0.884786 0
M  V30 15029 H 1406.58 1.17257 4.04758 0
M  V30 15030 H 1405.26 0.30698 3.22241 0
M  V30 15031 H 1404.17 2.56905 2.71939 0
M  V30 15032 H 1405.5 3.36573 3.59137 0
M  V30 15033 N 1407.15 -0.967221 1.24429 0
M  V30 15034 C 1408.43 -1.68564 0.992253 0
M  V30 15035 C 1408.81 -2.05446 -0.485301 0
M  V30 15036 O 1408.16 -1.75798 -1.45971 0
M  V30 15037 C 1408.37 -2.91728 1.91562 0
M  V30 15038 C 1409.71 -3.63957 2.18678 0
M  V30 15039 O 1410.74 -3.01786 1.89219 0
M  V30 15040 O 1409.6 -4.75875 2.68711 0
M  V30 15041 H 1406.69 -0.736939 0.375299 0
M  V30 15042 H 1409.24 -1.02127 1.35529 0
M  V30 15043 H 1408.01 -2.61168 2.91388 0
M  V30 15044 H 1407.63 -3.65898 1.55577 0
M  V30 15045 N 1408.63 -1.05812 -1.16797 0
M  V30 15046 C 1410.05 -0.780649 -1.39205 0
M  V30 15047 C 1410.25 0.622191 -1.91653 0
M  V30 15048 O 1409.3 1.38357 -2.11219 0
M  V30 15049 C 1410.61 -1.84148 -2.37718 0
M  V30 15050 C 1412.16 -1.86442 -2.51413 0
M  V30 15051 C 1412.64 -2.91566 -3.53204 0
M  V30 15052 N 1414.13 -2.90568 -3.60727 0
M  V30 15053 C 1414.86 -3.68556 -4.39265 0
M  V30 15054 N 1414.36 -4.56348 -5.21266 0
M  V30 15055 N 1416.15 -3.56969 -4.342 0
M  V30 15056 H 1408.3 -1.96313 -0.810871 0
M  V30 15057 H 1410.57 -0.850421 -0.418913 0
M  V30 15058 H 1410.27 -2.84864 -2.06265 0
M  V30 15059 H 1410.15 -1.68838 -3.37303 0
M  V30 15060 H 1412.53 -0.863873 -2.82172 0
M  V30 15061 H 1412.61 -2.0583 -1.5188 0
M  V30 15062 H 1412.26 -3.91811 -3.23182 0
M  V30 15063 H 1412.19 -2.69429 -4.52455 0
M  V30 15064 H 1414.68 -2.26918 -3.02186 0
M  V30 15065 H 1414.99 -5.12523 -5.78394 0
M  V30 15066 H 1413.34 -4.60406 -5.20626 0
M  V30 15067 H 1416.53 -2.87772 -3.69195 0
M  V30 15068 H 1416.7 -4.17993 -4.95162 0
M  V30 15069 N 1410.11 1.33347 -0.840014 0
M  V30 15070 C 1411.02 2.32965 -0.276527 0
M  V30 15071 C 1412.03 1.634 0.598037 0
M  V30 15072 O 1413.21 1.95046 0.501888 0
M  V30 15073 C 1410.27 3.42498 0.53816 0
M  V30 15074 C 1409.34 4.27781 -0.360814 0
M  V30 15075 C 1408.57 5.32083 0.415085 0
M  V30 15076 O 1408.79 5.46115 1.64666 0
M  V30 15077 O 1407.73 6.01528 -0.211503 0
M  V30 15078 H 1411.55 2.83022 -1.10147 0
M  V30 15079 H 1409.14 1.3671 -0.602566 0
M  V30 15080 H 1411.02 4.09336 1.00108 0
M  V30 15081 H 1409.69 2.94655 1.34015 0
M  V30 15082 H 1408.6 3.63805 -0.871598 0
M  V30 15083 H 1409.93 4.7911 -1.1276 0
M  V30 15084 N 1411.59 0.596556 1.45873 0
M  V30 15085 C 1412.52 -0.177354 2.2751 0
M  V30 15086 C 1413.5 -0.883999 1.36471 0
M  V30 15087 O 1414.68 -0.895098 1.65892 0
M  V30 15088 C 1411.81 -1.25567 3.14564 0
M  V30 15089 C 1410.85 -0.653363 4.21466 0
M  V30 15090 S 1411.69 0.53036 5.32867 0
M  V30 15091 C 1412.84 -0.548817 6.23489 0
M  V30 15092 H 1413.08 0.515289 2.928 0
M  V30 15093 H 1410.61 0.383791 1.49554 0
M  V30 15094 H 1412.57 -1.87298 3.6528 0
M  V30 15095 H 1411.23 -1.92033 2.4856 0
M  V30 15096 H 1410.42 -1.46435 4.82258 0
M  V30 15097 H 1410.02 -0.111425 3.73834 0
M  V30 15098 H 1412.31 -1.43085 6.62218 0
M  V30 15099 H 1413.26 0.0226785 7.08096 0
M  V30 15100 H 1413.67 -0.859188 5.57923 0
M  V30 15101 N 1413.06 -1.53996 0.335095 0
M  V30 15102 C 1414.01 -2.26221 -0.541007 0
M  V30 15103 C 1415.01 -1.28053 -1.109 0
M  V30 15104 O 1416.21 -1.4579 -1.05571 0
M  V30 15105 H 1412.59 -0.726775 -0.193136 0
M  V30 15106 H 1414.56 -2.98263 0.0902792 0
M  V30 15107 C 1413.31 -3.04173 -1.68445 0
M  V30 15108 H 1412.63 -3.79537 -1.25665 0
M  V30 15109 H 1414.07 -3.57937 -2.27282 0
M  V30 15110 C 1412.53 -2.13162 -2.6089 0
M  V30 15111 O 1413.06 -1.7221 -3.62914 0
M  V30 15112 N 1411.26 -1.78414 -2.29384 0
M  V30 15113 H 1410.81 -2.11914 -1.46458 0
M  V30 15114 H 1410.77 -1.178 -2.91497 0
M  V30 15115 N 1414.54 -0.0635198 -1.57472 0
M  V30 15116 C 1415.49 0.924358 -2.13444 0
M  V30 15117 C 1416.48 1.31389 -1.06927 0
M  V30 15118 O 1417.69 1.2921 -1.25319 0
M  V30 15119 H 1414.06 0.316003 -0.682383 0
M  V30 15120 H 1416.04 0.427281 -2.95325 0
M  V30 15121 C 1414.78 2.18546 -2.70431 0
M  V30 15122 H 1414.11 1.89455 -3.52061 0
M  V30 15123 H 1415.55 2.85799 -3.13201 0
M  V30 15124 C 1414.01 2.93845 -1.64794 0
M  V30 15125 O 1414.54 3.87242 -1.06802 0
M  V30 15126 N 1412.74 2.568 -1.36023 0
M  V30 15127 H 1412.29 1.80924 -1.83369 0
M  V30 15128 H 1412.25 3.07486 -0.655741 0
M  V30 15129 N 1416.02 1.56195 0.209972 0
M  V30 15130 C 1416.95 1.96378 1.26324 0
M  V30 15131 C 1417.93 0.833606 1.48273 0
M  V30 15132 O 1419.12 1.0968 1.60262 0
M  V30 15133 C 1416.25 2.29048 2.61064 0
M  V30 15134 C 1415.2 3.44665 2.53752 0
M  V30 15135 C 1414.53 3.6297 3.92628 0
M  V30 15136 C 1415.83 4.79297 2.07536 0
M  V30 15137 H 1417.52 2.8461 0.929379 0
M  V30 15138 H 1415.07 1.36931 0.445627 0
M  V30 15139 H 1417.02 2.55752 3.34916 0
M  V30 15140 H 1415.74 1.37682 2.96161 0
M  V30 15141 H 1414.4 3.18028 1.82356 0
M  V30 15142 H 1414.05 2.68961 4.25052 0
M  V30 15143 H 1413.75 4.40741 3.88614 0
M  V30 15144 H 1415.27 3.92035 4.68125 0
M  V30 15145 H 1416.69 5.05131 2.71138 0
M  V30 15146 H 1415.08 5.60433 2.14557 0
M  V30 15147 H 1416.15 4.73877 1.02802 0
M  V30 15148 N 1417.5 -0.477127 1.50204 0
M  V30 15149 C 1418.43 -1.59319 1.64773 0
M  V30 15150 C 1419.44 -1.53951 0.529427 0
M  V30 15151 O 1420.63 -1.59449 0.802388 0
M  V30 15152 C 1417.73 -2.98185 1.61055 0
M  V30 15153 C 1416.9 -3.28486 2.88817 0
M  V30 15154 C 1415.96 -4.46878 2.77825 0
M  V30 15155 O 1414.99 -4.47483 3.51778 0
M  V30 15156 N 1416.19 -5.48187 1.90974 0
M  V30 15157 H 1418.96 -1.4724 2.61037 0
M  V30 15158 H 1416.52 -0.66544 1.47592 0
M  V30 15159 H 1418.51 -3.75345 1.51323 0
M  V30 15160 H 1417.08 -3.04064 0.725509 0
M  V30 15161 H 1416.3 -2.39997 3.12722 0
M  V30 15162 H 1417.59 -3.4554 3.7347 0
M  V30 15163 H 1416.99 -5.50515 1.30192 0
M  V30 15164 H 1415.54 -6.24355 1.87148 0
M  V30 15165 N 1418.98 -1.3968 -0.729882 0
M  V30 15166 C 1419.91 -1.41549 -1.85704 0
M  V30 15167 C 1420.89 -0.278186 -1.6781 0
M  V30 15168 O 1422.07 -0.484749 -1.88053 0
M  V30 15169 C 1419.2 -1.26327 -3.2351 0
M  V30 15170 C 1418.16 -2.37511 -3.56051 0
M  V30 15171 C 1417.48 -2.07375 -4.92849 0
M  V30 15172 C 1418.78 -3.79833 -3.58502 0
M  V30 15173 H 1420.48 -2.35877 -1.84398 0
M  V30 15174 H 1418.02 -1.13536 -0.885747 0
M  V30 15175 H 1419.98 -1.26254 -4.02042 0
M  V30 15176 H 1418.7 -0.284697 -3.25357 0
M  V30 15177 H 1417.36 -2.36809 -2.79852 0
M  V30 15178 H 1417.01 -1.07943 -4.91281 0
M  V30 15179 H 1416.71 -2.81855 -5.15588 0
M  V30 15180 H 1418.23 -2.08961 -5.73731 0
M  V30 15181 H 1419.64 -3.82436 -4.27101 0
M  V30 15182 H 1418.04 -4.53715 -3.92763 0
M  V30 15183 H 1419.11 -4.10443 -2.58195 0
M  V30 15184 N 1420.45 0.960609 -1.2494 0
M  V30 15185 C 1421.42 2.03791 -1.04891 0
M  V30 15186 C 1422.42 1.608 -0.00375792 0
M  V30 15187 O 1423.61 1.72463 -0.24539 0
M  V30 15188 C 1420.74 3.35733 -0.591309 0
M  V30 15189 H 1421.93 2.2301 -2.00516 0
M  V30 15190 H 1419.49 1.13686 -1.07263 0
M  V30 15191 H 1420.22 3.22207 0.367816 0
M  V30 15192 H 1420.01 3.68283 -1.34574 0
M  V30 15193 H 1421.5 4.14921 -0.472283 0
M  V30 15194 N 1421.93 1.0643 1.16234 0
M  V30 15195 C 1422.86 0.697605 2.22836 0
M  V30 15196 C 1423.84 -0.310563 1.67241 0
M  V30 15197 O 1425.03 -0.185385 1.93313 0
M  V30 15198 C 1422.16 0.0847097 3.47197 0
M  V30 15199 C 1421.11 1.019 4.15693 0
M  V30 15200 C 1420.44 0.269339 5.34021 0
M  V30 15201 C 1421.74 2.34861 4.66516 0
M  V30 15202 H 1423.43 1.58883 2.53765 0
M  V30 15203 H 1420.98 0.765388 1.21975 0
M  V30 15204 H 1422.93 -0.1837 4.20999 0
M  V30 15205 H 1421.66 -0.84154 3.15572 0
M  V30 15206 H 1420.31 1.27218 3.43818 0
M  V30 15207 H 1419.96 -0.660072 4.9865 0
M  V30 15208 H 1419.66 0.892001 5.8079 0
M  V30 15209 H 1421.19 0.00850775 6.10599 0
M  V30 15210 H 1422.6 2.13922 5.31893 0
M  V30 15211 H 1421 2.92637 5.23912 0
M  V30 15212 H 1422.07 2.97834 3.82653 0
M  V30 15213 N 1423.41 -1.329 0.847073 0
M  V30 15214 C 1424.37 -2.27341 0.291324 0
M  V30 15215 C 1425.37 -1.51295 -0.544653 0
M  V30 15216 O 1426.56 -1.70497 -0.357258 0
M  V30 15217 C 1423.7 -3.35779 -0.588668 0
M  V30 15218 H 1424.89 -2.78009 1.12477 0
M  V30 15219 H 1422.44 -1.43442 0.620803 0
M  V30 15220 H 1423.18 -2.90366 -1.44423 0
M  V30 15221 H 1422.96 -3.92099 0.00960515 0
M  V30 15222 H 1424.45 -4.06166 -0.970526 0
M  V30 15223 N 1424.89 -0.604284 -1.45555 0
M  V30 15224 C 1426.3 -0.267665 -1.57339 0
M  V30 15225 C 1426.5 1.22984 -1.59616 0
M  V30 15226 O 1425.56 2.0127 -1.52468 0
M  V30 15227 C 1426.87 -0.935923 -2.85764 0
M  V30 15228 C 1428.42 -0.911531 -2.99433 0
M  V30 15229 C 1428.9 -1.55974 -4.30623 0
M  V30 15230 N 1430.39 -1.52507 -4.37374 0
M  V30 15231 C 1431.12 -1.9958 -5.37546 0
M  V30 15232 N 1430.62 -2.54724 -6.44273 0
M  V30 15233 N 1432.41 -1.90368 -5.28882 0
M  V30 15234 H 1424.56 -1.57666 -1.42321 0
M  V30 15235 H 1426.83 -0.66028 -0.680245 0
M  V30 15236 H 1426.53 -1.99022 -2.89971 0
M  V30 15237 H 1426.41 -0.457194 -3.74419 0
M  V30 15238 H 1428.79 0.134206 -2.94795 0
M  V30 15239 H 1428.87 -1.42849 -2.12197 0
M  V30 15240 H 1428.52 -2.60479 -4.3602 0
M  V30 15241 H 1428.45 -1.01782 -5.1667 0
M  V30 15242 H 1430.94 -1.12221 -3.60853 0
M  V30 15243 H 1431.25 -2.88445 -7.16951 0
M  V30 15244 H 1429.6 -2.58761 -6.45033 0
M  V30 15245 H 1432.79 -1.47029 -4.4441 0
M  V30 15246 H 1432.96 -2.27367 -6.06802 0
M  V30 15247 N 1426.37 1.53816 -0.343257 0
M  V30 15248 C 1427.62 2.0009 0.254346 0
M  V30 15249 C 1427.93 1.23502 1.51679 0
M  V30 15250 O 1429.13 1.60251 2.19162 0
M  V30 15251 C 1427.59 3.56357 0.503775 0
M  V30 15252 C 1427.2 4.418 -0.742754 0
M  V30 15253 C 1428.94 4.11046 1.06025 0
M  V30 15254 C 1426.85 5.89576 -0.46414 0
M  V30 15255 H 1425.78 0.747496 0.0988189 0
M  V30 15256 H 1428.43 1.77679 -0.45854 0
M  V30 15257 H 1426.81 3.74833 1.27736 0
M  V30 15258 H 1427.99 4.35099 -1.51742 0
M  V30 15259 H 1426.3 3.98101 -1.22085 0
M  V30 15260 H 1428.9 5.19063 1.28365 0
M  V30 15261 H 1429.24 3.64247 2.01568 0
M  V30 15262 H 1429.77 3.9628 0.347384 0
M  V30 15263 H 1426.51 6.40608 -1.38928 0
M  V30 15264 H 1426.03 5.99181 0.272441 0
M  V30 15265 H 1427.71 6.46949 -0.0812761 0
M  V30 15266 N 1427.84 0.0718701 1.57436 0
M  V30 15267 C 1428.78 -0.924911 2.09709 0
M  V30 15268 C 1429.79 -1.26136 1.02925 0
M  V30 15269 O 1430.98 -1.21853 1.30438 0
M  V30 15270 C 1428.08 -2.24072 2.54254 0
M  V30 15271 C 1427.25 -2.0831 3.84611 0
M  V30 15272 C 1426.31 -3.23196 4.15248 0
M  V30 15273 O 1425.34 -2.98184 4.84846 0
M  V30 15274 N 1426.54 -4.48293 3.688 0
M  V30 15275 H 1429.3 -0.478605 2.95854 0
M  V30 15276 H 1426.86 -0.113853 1.61499 0
M  V30 15277 H 1428.86 -2.99835 2.71811 0
M  V30 15278 H 1427.43 -2.60201 1.73246 0
M  V30 15279 H 1426.65 -1.17014 3.76432 0
M  V30 15280 H 1427.93 -1.9503 4.69937 0
M  V30 15281 H 1427.33 -4.71501 3.12575 0
M  V30 15282 H 1425.89 -5.21082 3.91556 0
M  V30 15283 N 1429.32 -1.56304 -0.201686 0
M  V30 15284 C 1430.74 -1.49741 -0.552247 0
M  V30 15285 C 1430.94 -0.770683 -1.86179 0
M  V30 15286 O 1429.99 -0.318489 -2.50483 0
M  V30 15287 C 1431.31 -2.94384 -0.613083 0
M  V30 15288 C 1432.86 -3.05018 -0.702365 0
M  V30 15289 C 1433.33 -4.51058 -0.794371 0
M  V30 15290 N 1434.82 -4.55183 -0.858072 0
M  V30 15291 C 1435.56 -5.65487 -0.949317 0
M  V30 15292 N 1435.05 -6.85497 -1.00327 0
M  V30 15293 N 1436.85 -5.53385 -0.985995 0
M  V30 15294 H 1429 -2.01971 0.657394 0
M  V30 15295 H 1431.26 -0.918839 0.233322 0
M  V30 15296 H 1430.97 -3.50584 0.279921 0
M  V30 15297 H 1430.84 -3.47376 -1.47002 0
M  V30 15298 H 1433.23 -2.4887 -1.5858 0
M  V30 15299 H 1433.31 -2.55161 0.180636 0
M  V30 15300 H 1432.95 -5.07829 0.0846883 0
M  V30 15301 H 1432.88 -4.98641 -1.69308 0
M  V30 15302 H 1435.37 -3.68765 -0.825888 0
M  V30 15303 H 1435.69 -7.65312 -1.07322 0
M  V30 15304 H 1434.03 -6.88169 -0.972061 0
M  V30 15305 H 1437.22 -4.58552 -0.940635 0
M  V30 15306 H 1437.39 -6.39376 -1.05365 0
M  V30 15307 N 1430.8 0.469154 -1.50455 0
M  V30 15308 C 1432.05 1.21868 -1.61222 0
M  V30 15309 C 1432.37 1.9243 -0.315535 0
M  V30 15310 O 1431.64 1.84192 0.667083 0
M  V30 15311 H 1430.22 0.452828 -0.594101 0
M  V30 15312 H 1432.88 0.540993 -1.87241 0
M  V30 15313 H 1431.98 1.96554 -2.42431 0
M  V30 15314 N 1432.28 1.40065 0.722464 0
M  V30 15315 C 1433.21 1.42532 1.84951 0
M  V30 15316 C 1434.19 0.287082 1.6766 0
M  V30 15317 O 1435.37 0.494715 1.87793 0
M  V30 15318 C 1432.5 1.28041 3.22836 0
M  V30 15319 C 1431.46 2.39396 3.54787 0
M  V30 15320 C 1430.78 2.09986 4.91742 0
M  V30 15321 C 1432.08 3.81729 3.56483 0
M  V30 15322 H 1433.78 2.36851 1.83144 0
M  V30 15323 H 1431.32 1.14005 0.879714 0
M  V30 15324 H 1433.28 1.28385 4.01367 0
M  V30 15325 H 1432 0.301947 3.25201 0
M  V30 15326 H 1430.66 2.3829 2.78592 0
M  V30 15327 H 1430.31 1.10547 4.90702 0
M  V30 15328 H 1430.01 2.84586 5.14086 0
M  V30 15329 H 1431.53 2.12 5.72615 0
M  V30 15330 H 1432.95 3.84696 4.25067 0
M  V30 15331 H 1431.34 4.55791 3.90351 0
M  V30 15332 H 1432.41 4.11807 2.56014 0
M  V30 15333 N 1433.76 -0.95397 1.25448 0
M  V30 15334 C 1435.17 -1.22516 1.02284 0
M  V30 15335 C 1435.37 -1.99816 -0.259933 0
M  V30 15336 O 1434.43 -2.33022 -0.972479 0
M  V30 15337 C 1435.74 -1.9989 2.24643 0
M  V30 15338 C 1437.29 -2.1293 2.29412 0
M  V30 15339 C 1437.77 -2.93703 3.51429 0
M  V30 15340 N 1439.26 -3.01281 3.51829 0
M  V30 15341 C 1439.99 -3.64174 4.42905 0
M  V30 15342 N 1439.49 -4.28673 5.44253 0
M  V30 15343 N 1441.28 -3.61321 4.30585 0
M  V30 15344 H 1433.43 -0.436859 2.07859 0
M  V30 15345 H 1435.69 -0.255744 0.912852 0
M  V30 15346 H 1435.4 -1.50489 3.17877 0
M  V30 15347 H 1435.27 -3.00593 2.27868 0
M  V30 15348 H 1437.66 -2.61528 1.367 0
M  V30 15349 H 1437.74 -1.1153 2.30206 0
M  V30 15350 H 1437.39 -2.45795 4.44463 0
M  V30 15351 H 1437.32 -3.95331 3.47881 0
M  V30 15352 H 1439.81 -2.55414 2.78517 0
M  V30 15353 H 1440.12 -4.74522 6.09958 0
M  V30 15354 H 1438.47 -4.27299 5.48125 0
M  V30 15355 H 1441.66 -3.10118 3.50634 0
M  V30 15356 H 1441.83 -4.1005 5.0176 0
M  V30 15357 N 1435.24 -1.07045 -1.15668 0
M  V30 15358 C 1436.48 -0.791735 -1.86381 0
M  V30 15359 C 1436.81 0.682084 -1.82148 0
M  V30 15360 O 1436.07 1.51617 -1.23737 0
M  V30 15361 C 1436.36 -1.24127 -3.35153 0
M  V30 15362 C 1436.03 -2.72051 -3.59582 0
M  V30 15363 C 1434.69 -3.12455 -3.65958 0
M  V30 15364 C 1437.04 -3.67547 -3.69538 0
M  V30 15365 C 1434.37 -4.4718 -3.79799 0
M  V30 15366 C 1436.72 -5.02029 -3.84902 0
M  V30 15367 C 1435.39 -5.42059 -3.89523 0
M  V30 15368 H 1434.66 -0.289717 -0.682016 0
M  V30 15369 H 1437.31 -1.34091 -1.36718 0
M  V30 15370 H 1435.61 -0.611428 -3.87 0
M  V30 15371 H 1437.31 -1.00256 -3.88265 0
M  V30 15372 H 1433.9 -2.39771 -3.55257 0
M  V30 15373 H 1438.08 -3.3746 -3.63915 0
M  V30 15374 H 1433.34 -4.77668 -3.81632 0
M  V30 15375 H 1437.51 -5.75902 -3.91548 0
M  V30 15376 H 1435.14 -6.46455 -4 0
M  V30 15377 N 1436.71 1.32449 -0.85411 0
M  V30 15378 C 1437.96 1.97563 -0.4579 0
M  V30 15379 C 1438.29 1.67435 0.983835 0
M  V30 15380 O 1437.57 0.962292 1.69027 0
M  V30 15381 C 1437.85 3.53292 -0.69688 0
M  V30 15382 C 1437.7 3.93053 -2.18699 0
M  V30 15383 C 1439.02 4.39834 -0.152917 0
M  V30 15384 H 1436.14 0.717634 -0.167842 0
M  V30 15385 H 1438.78 1.5684 -1.07243 0
M  V30 15386 H 1436.93 3.88111 -0.173807 0
M  V30 15387 H 1438.61 3.68416 -2.7761 0
M  V30 15388 H 1436.85 3.42232 -2.6657 0
M  V30 15389 H 1437.52 5.01576 -2.3049 0
M  V30 15390 H 1440 4.11748 -0.600216 0
M  V30 15391 H 1438.87 5.47785 -0.349703 0
M  V30 15392 H 1439.13 4.31898 0.944276 0
M  V30 15393 N 1438.19 0.611994 1.45232 0
M  V30 15394 C 1439.14 -0.104265 2.30564 0
M  V30 15395 C 1440.11 -0.855676 1.42364 0
M  V30 15396 O 1441.29 -0.840534 1.71288 0
M  V30 15397 C 1438.43 -1.09274 3.27343 0
M  V30 15398 C 1437.55 -0.341747 4.30646 0
M  V30 15399 C 1436.68 -1.32034 5.14529 0
M  V30 15400 C 1435.72 -0.557405 6.09557 0
M  V30 15401 N 1434.86 -1.4855 6.86205 0
M  V30 15402 H 1439.7 0.629396 2.91278 0
M  V30 15403 H 1437.23 0.322177 1.43528 0
M  V30 15404 H 1439.19 -1.67902 3.81923 0
M  V30 15405 H 1437.82 -1.79376 2.68373 0
M  V30 15406 H 1436.87 0.360114 3.78692 0
M  V30 15407 H 1438.19 0.253328 4.98156 0
M  V30 15408 H 1437.34 -1.97854 5.73532 0
M  V30 15409 H 1436.08 -1.94934 4.47048 0
M  V30 15410 H 1435.08 0.114401 5.49681 0
M  V30 15411 H 1436.31 0.0666137 6.79067 0
M  V30 15412 H 1434.26 -2.10207 6.21409 0
M  V30 15413 H 1434.17 -0.943972 7.50083 0
M  V30 15414 H 1435.44 -2.13314 7.49745 0
M  V30 15415 N 1439.67 -1.53632 0.351409 0
M  V30 15416 C 1441.09 -1.596 -0.000214515 0
M  V30 15417 C 1441.29 -1.36709 -1.4803 0
M  V30 15418 O 1440.34 -1.16524 -2.24006 0
M  V30 15419 C 1441.65 -2.97419 0.443013 0
M  V30 15420 C 1443.2 -3.10485 0.396025 0
M  V30 15421 C 1443.68 -4.50693 0.814843 0
M  V30 15422 N 1445.17 -4.56766 0.76934 0
M  V30 15423 C 1445.9 -5.63418 1.06526 0
M  V30 15424 N 1445.4 -6.77887 1.42974 0
M  V30 15425 N 1447.19 -5.53331 0.988986 0
M  V30 15426 H 1439.34 -1.66765 1.31542 0
M  V30 15427 H 1441.61 -0.781418 0.53674 0
M  V30 15428 H 1441.31 -3.19262 1.47529 0
M  V30 15429 H 1441.19 -3.76781 -0.177725 0
M  V30 15430 H 1443.57 -2.8836 -0.627092 0
M  V30 15431 H 1443.65 -2.33163 1.05207 0
M  V30 15432 H 1443.3 -4.73554 1.83601 0
M  V30 15433 H 1443.23 -5.26424 0.136193 0
M  V30 15434 H 1445.72 -3.74569 0.500623 0
M  V30 15435 H 1446.03 -7.55194 1.64018 0
M  V30 15436 H 1444.38 -6.79314 1.46827 0
M  V30 15437 H 1447.57 -4.62783 0.703526 0
M  V30 15438 H 1447.74 -6.36355 1.22295 0
M  V30 15439 N 1441.15 -0.0802183 -1.57396 0
M  V30 15440 C 1442.38 0.595754 -1.98137 0
M  V30 15441 C 1442.79 1.62638 -0.958871 0
M  V30 15442 O 1442.15 1.82422 0.0534316 0
M  V30 15443 C 1442.2 1.2568 -3.38949 0
M  V30 15444 O 1441.92 0.267417 -4.37283 0
M  V30 15445 C 1443.42 2.0198 -3.94612 0
M  V30 15446 H 1440.64 0.160853 -0.651435 0
M  V30 15447 H 1443.18 -0.155111 -2.03911 0
M  V30 15448 H 1441.34 1.9587 -3.34236 0
M  V30 15449 H 1441.75 0.742695 -5.19215 0
M  V30 15450 H 1443.23 2.43613 -4.95335 0
M  V30 15451 H 1443.7 2.87973 -3.31614 0
M  V30 15452 H 1444.31 1.36639 -4.02753 0
M  V30 15453 N 1442.63 1.56409 0.193394 0
M  V30 15454 C 1443.85 1.84837 0.929676 0
M  V30 15455 C 1444.27 0.662928 1.76779 0
M  V30 15456 O 1443.63 -0.368339 1.78744 0
M  V30 15457 C 1443.68 3.12083 1.82445 0
M  V30 15458 O 1443.4 4.26056 1.02018 0
M  V30 15459 C 1444.9 3.53701 2.67227 0
M  V30 15460 H 1442.12 0.613766 0.271168 0
M  V30 15461 H 1444.66 2.03518 0.200134 0
M  V30 15462 H 1442.82 2.95294 2.5076 0
M  V30 15463 H 1443.23 4.98526 1.63008 0
M  V30 15464 H 1444.71 4.45699 3.25663 0
M  V30 15465 H 1445.18 2.76771 3.41019 0
M  V30 15466 H 1445.79 3.73027 2.04281 0
M  V30 15467 N 1444.1 -0.461169 1.50702 0
M  V30 15468 C 1445.35 -1.21137 1.63393 0
M  V30 15469 C 1445.7 -1.89467 0.334664 0
M  V30 15470 O 1445 -1.79575 -0.668083 0
M  V30 15471 C 1445.19 -2.27213 2.75879 0
M  V30 15472 C 1445.02 -1.69291 4.16618 0
M  V30 15473 C 1443.79 -1.48827 4.82886 0
M  V30 15474 C 1445.99 -1.18233 5.00525 0
M  V30 15475 N 1443.97 -0.862524 6.07811 0
M  V30 15476 C 1445.34 -0.680412 6.16255 0
M  V30 15477 C 1447.4 -1.07182 4.86227 0
M  V30 15478 C 1446.1 -0.0788727 7.19257 0
M  V30 15479 C 1448.13 -0.484201 5.89415 0
M  V30 15480 C 1447.49 0.00728753 7.044 0
M  V30 15481 H 1443.59 -0.431797 0.651978 0
M  V30 15482 H 1446.17 -0.511751 1.87854 0
M  V30 15483 H 1444.34 -2.94591 2.53122 0
M  V30 15484 H 1446.07 -2.94223 2.77875 0
M  V30 15485 H 1442.83 -1.74332 4.40347 0
M  V30 15486 H 1443.25 -0.567778 6.74615 0
M  V30 15487 H 1447.89 -1.43771 3.97605 0
M  V30 15488 H 1445.61 0.299208 8.07546 0
M  V30 15489 H 1449.2 -0.400923 5.80417 0
M  V30 15490 H 1448.08 0.454852 7.8288 0
M  V30 15491 N 1445.58 -1.40446 -0.715026 0
M  V30 15492 C 1446.86 -1.29253 -1.4681 0
M  V30 15493 C 1447.24 0.0888738 -2.10913 0
M  V30 15494 O 1446.59 1.10172 -2.00186 0
M  V30 15495 C 1446.8 -2.43173 -2.50335 0
M  V30 15496 C 1448.14 -2.83433 -3.1615 0
M  V30 15497 O 1449.17 -2.4277 -2.60655 0
M  V30 15498 O 1448.03 -3.53687 -4.16615 0
M  V30 15499 H 1445.12 -0.507627 -0.652873 0
M  V30 15500 H 1447.67 -1.52367 -0.747153 0
M  V30 15501 H 1446.44 -3.35438 -2.01486 0
M  V30 15502 H 1446.06 -2.21832 -3.29964 0
M  V30 15503 N 1447.06 0.947303 -1.25952 0
M  V30 15504 C 1448.31 1.69279 -1.11135 0
M  V30 15505 C 1448.63 1.9139 0.346407 0
M  V30 15506 O 1447.89 1.48786 1.27126 0
M  V30 15507 C 1448.19 3.07652 -1.81892 0
M  V30 15508 C 1447.85 3.05317 -3.31802 0
M  V30 15509 C 1446.52 3.04387 -3.72695 0
M  V30 15510 C 1448.87 2.98088 -4.27543 0
M  V30 15511 C 1446.2 2.93987 -5.07729 0
M  V30 15512 C 1448.55 2.89229 -5.62609 0
M  V30 15513 C 1447.21 2.86639 -6.02822 0
M  V30 15514 H 1446.48 0.619435 -0.40667 0
M  V30 15515 H 1449.13 1.10621 -1.56318 0
M  V30 15516 H 1447.43 3.69898 -1.29161 0
M  V30 15517 H 1449.13 3.6417 -1.67873 0
M  V30 15518 H 1445.72 3.06817 -2.99268 0
M  V30 15519 H 1449.91 2.9792 -3.96935 0
M  V30 15520 H 1445.16 2.90355 -5.38056 0
M  V30 15521 H 1449.34 2.82598 -6.36483 0
M  V30 15522 H 1446.96 2.78336 -7.07413 0
M  V30 15523 N 1448.54 1.07657 1.15099 0
M  V30 15524 C 1449.78 0.811006 1.87622 0
M  V30 15525 C 1450.14 -0.651144 1.80621 0
M  V30 15526 O 1451.34 -1.03188 2.48205 0
M  V30 15527 C 1449.61 1.30906 3.32563 0
M  V30 15528 S 1451.17 1.17465 4.22785 0
M  V30 15529 H 1447.99 0.293808 0.647455 0
M  V30 15530 H 1450.59 1.3763 1.38846 0
M  V30 15531 H 1449.3 2.36784 3.35204 0
M  V30 15532 H 1448.83 0.739107 3.86395 0
M  V30 15533 H 1450.84 0.114115 4.96069 0
M  V30 15534 N 1450.02 -1.31994 0.861122 0
M  V30 15535 C 1451.26 -1.98827 0.474055 0
M  V30 15536 C 1451.62 -1.66627 -0.953916 0
M  V30 15537 O 1452.82 -2.26601 -1.44587 0
M  V30 15538 C 1451.09 -3.50201 0.713743 0
M  V30 15539 S 1452.65 -4.36735 0.425214 0
M  V30 15540 H 1449.47 -0.688534 0.17732 0
M  V30 15541 H 1452.07 -1.6057 1.11523 0
M  V30 15542 H 1450.78 -3.71125 1.75198 0
M  V30 15543 H 1450.31 -3.93355 0.0592289 0
M  V30 15544 H 1452.32 -4.90558 -0.746142 0
M  V30 15545 N 1451.49 -0.619688 -1.44906 0
M  V30 15546 C 1452.74 -0.119397 -2.01747 0
M  V30 15547 C 1453.06 1.25904 -1.48907 0
M  V30 15548 O 1452.33 1.83417 -0.688104 0
M  V30 15549 H 1450.91 -0.0411482 -0.745866 0
M  V30 15550 H 1453.58 -0.803813 -1.77552 0
M  V30 15551 H 1452.67 -0.078368 -3.12002 0
M  V30 15552 N 1452.97 1.53444 -0.359552 0
M  V30 15553 C 1453.9 2.28475 0.4818 0
M  V30 15554 C 1454.88 1.30664 1.08908 0
M  V30 15555 O 1456.07 1.59527 1.10746 0
M  V30 15556 C 1453.2 3.06951 1.62477 0
M  V30 15557 C 1452.15 4.12399 1.14504 0
M  V30 15558 C 1451.48 4.78922 2.37777 0
M  V30 15559 C 1452.78 5.21775 0.234075 0
M  V30 15560 H 1454.47 2.99053 -0.144162 0
M  V30 15561 H 1452.02 1.43826 -0.0707746 0
M  V30 15562 H 1453.97 3.58186 2.21993 0
M  V30 15563 H 1452.7 2.34053 2.27787 0
M  V30 15564 H 1451.35 3.62101 0.572589 0
M  V30 15565 H 1451 4.02602 3.0153 0
M  V30 15566 H 1450.7 5.50175 2.06353 0
M  V30 15567 H 1452.23 5.32948 2.97991 0
M  V30 15568 H 1453.64 5.68549 0.736548 0
M  V30 15569 H 1452.04 6.00099 0.0109887 0
M  V30 15570 H 1453.11 4.79443 -0.725435 0
M  V30 15571 N 1454.45 0.0885642 1.57351 0
M  V30 15572 C 1455.38 -0.869946 2.16689 0
M  V30 15573 C 1456.36 -1.29878 1.09844 0
M  V30 15574 O 1457.55 -1.36684 1.37954 0
M  V30 15575 C 1454.68 -2.13148 2.74199 0
M  V30 15576 C 1453.63 -1.84149 3.86359 0
M  V30 15577 C 1452.96 -3.17075 4.30543 0
M  V30 15578 C 1454.26 -1.13357 5.09851 0
M  V30 15579 H 1455.95 -0.375578 2.97035 0
M  V30 15580 H 1453.5 -0.17921 1.42881 0
M  V30 15581 H 1455.45 -2.80634 3.14361 0
M  V30 15582 H 1454.17 -2.64856 1.91098 0
M  V30 15583 H 1452.83 -1.19063 3.46727 0
M  V30 15584 H 1452.48 -3.66658 3.44342 0
M  V30 15585 H 1452.18 -2.98457 5.06159 0
M  V30 15586 H 1453.7 -3.85731 4.73333 0
M  V30 15587 H 1455.12 -1.70941 5.47222 0
M  V30 15588 H 1453.52 -1.0494 5.90853 0
M  V30 15589 H 1454.59 -0.115273 4.84763 0
M  V30 15590 N 1455.93 -1.56509 -0.185096 0
M  V30 15591 C 1457.34 -1.50318 -0.536334 0
M  V30 15592 C 1457.54 -0.790387 -1.85351 0
M  V30 15593 O 1456.6 -0.345039 -2.50131 0
M  V30 15594 C 1457.91 -2.95017 -0.581825 0
M  V30 15595 C 1459.46 -3.05746 -0.669974 0
M  V30 15596 C 1459.94 -4.51876 -0.746485 0
M  V30 15597 N 1461.43 -4.56067 -0.809746 0
M  V30 15598 C 1462.16 -5.66462 -0.889286 0
M  V30 15599 N 1461.66 -6.86523 -0.930509 0
M  V30 15600 N 1463.45 -5.54399 -0.927246 0
M  V30 15601 H 1455.6 -2.01262 0.678778 0
M  V30 15602 H 1457.87 -0.916313 0.243054 0
M  V30 15603 H 1457.57 -3.50268 0.317089 0
M  V30 15604 H 1457.45 -3.48916 -1.43309 0
M  V30 15605 H 1459.83 -2.50538 -1.55932 0
M  V30 15606 H 1459.91 -2.54955 0.207689 0
M  V30 15607 H 1459.56 -5.07711 0.138546 0
M  V30 15608 H 1459.49 -5.00408 -1.6401 0
M  V30 15609 H 1461.98 -3.6962 -0.786729 0
M  V30 15610 H 1462.29 -7.66407 -0.991992 0
M  V30 15611 H 1460.64 -6.89161 -0.899017 0
M  V30 15612 H 1463.83 -4.59524 -0.891947 0
M  V30 15613 H 1464 -6.40458 -0.985773 0
M  V30 15614 N 1457.41 0.45317 -1.50944 0
M  V30 15615 C 1458.34 1.56678 -1.67287 0
M  V30 15616 C 1459.35 1.53089 -0.553853 0
M  V30 15617 O 1460.54 1.58152 -0.827653 0
M  V30 15618 C 1457.64 2.95585 -1.65779 0
M  V30 15619 C 1456.81 3.2385 -2.94007 0
M  V30 15620 C 1455.87 4.42401 -2.84899 0
M  V30 15621 O 1454.9 4.4183 -3.58853 0
M  V30 15622 N 1456.1 5.4508 -1.99671 0
M  V30 15623 H 1458.87 1.43069 -2.63347 0
M  V30 15624 H 1456.43 0.641875 -1.48632 0
M  V30 15625 H 1458.42 3.7289 -1.57275 0
M  V30 15626 H 1456.99 3.02872 -0.773791 0
M  V30 15627 H 1456.21 2.34991 -3.16501 0
M  V30 15628 H 1457.5 3.39554 -3.7892 0
M  V30 15629 H 1456.89 5.48374 -1.38933 0
M  V30 15630 H 1455.45 6.21298 -1.97057 0
M  V30 15631 N 1458.88 1.40823 0.707568 0
M  V30 15632 C 1460.3 1.23029 1.01666 0
M  V30 15633 C 1460.5 0.111152 2.01193 0
M  V30 15634 O 1459.56 -0.52836 2.4691 0
M  V30 15635 C 1460.87 2.57509 1.55272 0
M  V30 15636 C 1462.42 2.6459 1.67216 0
M  V30 15637 C 1462.89 3.99357 2.24227 0
M  V30 15638 N 1464.38 4.01141 2.31603 0
M  V30 15639 C 1465.12 5.02211 2.76715 0
M  V30 15640 N 1464.61 6.13674 3.21521 0
M  V30 15641 N 1466.41 4.89577 2.76172 0
M  V30 15642 H 1458.56 2.12346 0.0480107 0
M  V30 15643 H 1460.82 0.944281 0.0838885 0
M  V30 15644 H 1460.53 3.40095 0.896012 0
M  V30 15645 H 1460.4 2.79158 2.53674 0
M  V30 15646 H 1462.79 1.8237 2.32002 0
M  V30 15647 H 1462.87 2.46763 0.673927 0
M  V30 15648 H 1462.51 4.8202 1.6006 0
M  V30 15649 H 1462.44 4.14518 3.2478 0
M  V30 15650 H 1464.93 3.20657 1.99968 0
M  V30 15651 H 1465.25 6.86677 3.54534 0
M  V30 15652 H 1463.59 6.17228 3.1946 0
M  V30 15653 H 1466.78 4.01588 2.40509 0
M  V30 15654 H 1466.96 5.68485 3.11012 0
M  V30 15655 N 1460.36 -0.94061 1.26453 0
M  V30 15656 C 1461.77 -1.50169 1.10934 0
M  V30 15657 C 1462.12 -1.93733 -0.310167 0
M  V30 15658 O 1461.25 -1.79966 -1.20172 0
M  V30 15659 C 1461.84 -2.7291 2.00763 0
M  V30 15660 C 1460.4 -3.25283 1.89388 0
M  V30 15661 C 1459.55 -1.98061 1.9408 0
M  V30 15662 H 1462.5 -0.756038 1.39534 0
M  V30 15663 H 1462.52 -3.47237 1.55586 0
M  V30 15664 H 1462.03 -2.41172 3.04069 0
M  V30 15665 H 1460.14 -3.6181 0.890192 0
M  V30 15666 H 1460.25 -3.92351 2.7495 0
M  V30 15667 H 1458.61 -2.13985 1.3814 0
M  V30 15668 H 1459.4 -1.68654 2.99016 0
M  V30 15669 N 1461.84 -1.08266 -1.14527 0
M  V30 15670 C 1462.77 -0.669233 -2.19212 0
M  V30 15671 C 1463.79 0.282962 -1.60322 0
M  V30 15672 O 1464.97 0.0708403 -1.78359 0
M  V30 15673 C 1462.07 0.0362509 -3.38881 0
M  V30 15674 C 1461.25 -0.934477 -4.27301 0
M  V30 15675 C 1460.31 -0.264584 -5.25534 0
M  V30 15676 O 1459.33 -0.908543 -5.61902 0
M  V30 15677 N 1460.53 0.98609 -5.72063 0
M  V30 15678 H 1463.3 -1.56982 -2.55297 0
M  V30 15679 H 1460.86 -0.968551 -1.29733 0
M  V30 15680 H 1462.85 0.495309 -4.01658 0
M  V30 15681 H 1461.42 0.838913 -3.01133 0
M  V30 15682 H 1460.64 -1.57241 -3.61481 0
M  V30 15683 H 1461.93 -1.59232 -4.83242 0
M  V30 15684 H 1461.33 1.52904 -5.44644 0
M  V30 15685 H 1459.89 1.38867 -6.36835 0
M  V30 15686 N 1463.32 1.31536 -0.86811 0
M  V30 15687 C 1464.27 2.28562 -0.320602 0
M  V30 15688 C 1465.24 1.55648 0.579902 0
M  V30 15689 O 1466.42 1.83804 0.51194 0
M  V30 15690 C 1463.56 3.41836 0.473499 0
M  V30 15691 C 1462.67 4.29604 -0.454311 0
M  V30 15692 C 1461.81 5.30021 0.353733 0
M  V30 15693 C 1460.85 6.09434 -0.570624 0
M  V30 15694 N 1459.99 7.01812 0.201058 0
M  V30 15695 H 1464.83 2.74782 -1.15322 0
M  V30 15696 H 1462.36 1.35179 -0.580088 0
M  V30 15697 H 1464.32 4.06248 0.949662 0
M  V30 15698 H 1462.95 2.96732 1.27083 0
M  V30 15699 H 1462 3.65653 -1.04892 0
M  V30 15700 H 1463.31 4.85048 -1.16316 0
M  V30 15701 H 1462.47 6.001 0.892484 0
M  V30 15702 H 1461.21 4.75228 1.09589 0
M  V30 15703 H 1460.21 5.38247 -1.12115 0
M  V30 15704 H 1461.44 6.66314 -1.3116 0
M  V30 15705 H 1459.38 6.49431 0.926058 0
M  V30 15706 H 1459.3 7.54668 -0.448494 0
M  V30 15707 H 1460.57 7.76157 0.7211 0
M  V30 15708 N 1464.8 0.627364 1.44575 0
M  V30 15709 C 1466.21 0.213149 1.85479 0
M  V30 15710 C 1466.56 -1.23458 1.52488 0
M  V30 15711 O 1465.68 -1.93885 0.961115 0
M  V30 15712 C 1466.28 0.380063 3.36661 0
M  V30 15713 C 1464.84 0.020385 3.76394 0
M  V30 15714 C 1463.99 0.695225 2.68444 0
M  V30 15715 H 1466.94 0.832771 1.35095 0
M  V30 15716 H 1466.96 -0.382078 3.78577 0
M  V30 15717 H 1466.47 1.43383 3.60642 0
M  V30 15718 H 1464.57 -1.03179 3.58029 0
M  V30 15719 H 1464.68 0.42782 4.77186 0
M  V30 15720 H 1463.05 0.130898 2.54363 0
M  V30 15721 H 1463.83 1.75151 2.95257 0
M  V30 15722 N 1466.28 -1.53251 0.367684 0
M  V30 15723 C 1467.24 -2.24423 -0.465516 0
M  V30 15724 C 1468.24 -1.25283 -1.00801 0
M  V30 15725 O 1469.43 -1.49545 -0.893424 0
M  V30 15726 C 1466.56 -2.9826 -1.65087 0
M  V30 15727 H 1467.75 -2.99487 0.157292 0
M  V30 15728 H 1465.31 -1.55843 0.119409 0
M  V30 15729 H 1466.04 -2.27443 -2.31171 0
M  V30 15730 H 1465.83 -3.71003 -1.26882 0
M  V30 15731 H 1467.32 -3.52358 -2.24128 0
M  V30 15732 N 1467.75 -0.0969077 -1.57302 0
M  V30 15733 C 1468.72 0.846895 -2.1298 0
M  V30 15734 C 1469.72 1.20962 -1.05947 0
M  V30 15735 O 1470.91 1.13876 -1.31826 0
M  V30 15736 C 1468.04 2.14215 -2.65188 0
M  V30 15737 H 1469.23 0.363398 -2.9769 0
M  V30 15738 H 1466.78 0.152107 -1.55558 0
M  V30 15739 H 1467.52 2.67046 -1.84002 0
M  V30 15740 H 1467.3 1.89176 -3.43445 0
M  V30 15741 H 1468.79 2.81728 -3.08252 0
M  V30 15742 N 1469.23 1.56605 0.176793 0
M  V30 15743 C 1470.16 1.99014 1.2213 0
M  V30 15744 C 1471.14 0.86487 1.46472 0
M  V30 15745 O 1472.33 1.13055 1.57899 0
M  V30 15746 C 1469.46 2.34534 2.56146 0
M  V30 15747 C 1468.41 3.4997 2.46384 0
M  V30 15748 C 1467.74 3.71217 3.8484 0
M  V30 15749 C 1469.04 4.83592 1.97323 0
M  V30 15750 H 1470.73 2.86517 0.8688 0
M  V30 15751 H 1468.28 1.37846 0.416481 0
M  V30 15752 H 1470.23 2.62799 3.29416 0
M  V30 15753 H 1468.95 1.43933 2.93174 0
M  V30 15754 H 1467.61 3.21824 1.75569 0
M  V30 15755 H 1467.26 2.77916 4.19251 0
M  V30 15756 H 1466.96 4.48885 3.79178 0
M  V30 15757 H 1468.49 4.01877 4.59704 0
M  V30 15758 H 1469.9 5.10768 2.60363 0
M  V30 15759 H 1468.3 5.64858 2.02622 0
M  V30 15760 H 1469.37 4.75951 0.927275 0
M  V30 15761 N 1470.71 -0.445159 1.51182 0
M  V30 15762 C 1471.67 -1.52224 1.71349 0
M  V30 15763 C 1472.67 -1.49834 0.583632 0
M  V30 15764 O 1473.86 -1.51995 0.85107 0
M  V30 15765 C 1470.99 -2.91789 1.76273 0
M  V30 15766 H 1472.19 -1.35649 2.67468 0
M  V30 15767 H 1469.74 -0.673312 1.41054 0
M  V30 15768 H 1470.48 -3.13777 0.819405 0
M  V30 15769 H 1470.26 -2.94928 2.58379 0
M  V30 15770 H 1471.75 -3.69938 1.93741 0
M  V30 15771 N 1472.19 -1.41197 -0.700089 0
M  V30 15772 C 1473.15 -1.42419 -1.79582 0
M  V30 15773 C 1474.15 -0.31551 -1.57674 0
M  V30 15774 O 1475.34 -0.575173 -1.64431 0
M  V30 15775 C 1472.47 -1.23114 -3.17893 0
M  V30 15776 H 1473.67 -2.39956 -1.79892 0
M  V30 15777 H 1471.22 -1.27273 -0.907271 0
M  V30 15778 H 1471.95 -0.263992 -3.23224 0
M  V30 15779 H 1471.74 -2.03437 -3.35195 0
M  V30 15780 H 1473.23 -1.26793 -3.97886 0
M  V30 15781 N 1473.67 0.933891 -1.2695 0
M  V30 15782 C 1474.6 2.03768 -1.04934 0
M  V30 15783 C 1475.61 1.62798 -0.00740752 0
M  V30 15784 O 1476.8 1.76765 -0.248289 0
M  V30 15785 C 1473.9 3.34097 -0.568515 0
M  V30 15786 C 1473.07 4.03794 -1.68133 0
M  V30 15787 C 1472.13 5.12397 -1.19731 0
M  V30 15788 O 1471.16 5.36701 -1.89579 0
M  V30 15789 N 1472.36 5.80479 -0.0496327 0
M  V30 15790 H 1475.12 2.23219 -1.99984 0
M  V30 15791 H 1472.69 1.10386 -1.18433 0
M  V30 15792 H 1474.68 4.04053 -0.228736 0
M  V30 15793 H 1473.25 3.11265 0.288587 0
M  V30 15794 H 1472.47 3.27655 -2.1917 0
M  V30 15795 H 1473.76 4.4711 -2.42837 0
M  V30 15796 H 1473.15 5.63179 0.533509 0
M  V30 15797 H 1471.71 6.5139 0.231014 0
M  V30 15798 N 1475.14 1.08871 1.13951 0
M  V30 15799 C 1476.39 0.819665 1.84732 0
M  V30 15800 C 1476.71 -0.656535 1.83615 0
M  V30 15801 O 1475.98 -1.47614 1.28791 0
M  V30 15802 H 1474.56 0.30023 0.684011 0
M  V30 15803 H 1477.22 1.37568 1.38062 0
M  V30 15804 H 1476.32 1.16809 2.89417 0
M  V30 15805 N 1476.62 -1.31073 0.875073 0
M  V30 15806 C 1477.55 -2.27335 0.291809 0
M  V30 15807 C 1478.57 -1.53298 -0.548036 0
M  V30 15808 O 1479.76 -1.7464 -0.369198 0
M  V30 15809 C 1476.86 -3.33465 -0.604521 0
M  V30 15810 C 1476.03 -4.36924 0.204029 0
M  V30 15811 C 1475.09 -5.2252 -0.621238 0
M  V30 15812 O 1474.11 -5.6918 -0.0474551 0
M  V30 15813 N 1475.32 -5.47397 -1.93227 0
M  V30 15814 H 1478.08 -2.78024 1.11906 0
M  V30 15815 H 1475.64 -1.44149 0.737064 0
M  V30 15816 H 1477.63 -3.87646 -1.16243 0
M  V30 15817 H 1476.2 -2.8278 -1.33244 0
M  V30 15818 H 1475.42 -3.82745 0.943389 0
M  V30 15819 H 1476.71 -5.03112 0.758644 0
M  V30 15820 H 1476.11 -5.11253 -2.4215 0
M  V30 15821 H 1474.67 -6.04493 -2.43785 0
M  V30 15822 N 1478.1 -0.635022 -1.4424 0
M  V30 15823 C 1479.03 0.0543561 -2.33437 0
M  V30 15824 C 1480.01 0.830807 -1.48431 0
M  V30 15825 O 1481.2 0.795913 -1.77141 0
M  V30 15826 C 1478.33 1.03391 -3.31553 0
M  V30 15827 C 1477.28 0.368824 -4.26408 0
M  V30 15828 C 1476.61 1.45855 -5.14422 0
M  V30 15829 C 1477.91 -0.727381 -5.1721 0
M  V30 15830 H 1479.6 -0.690489 -2.91329 0
M  V30 15831 H 1477.15 -0.3335 -1.40085 0
M  V30 15832 H 1479.1 1.52495 -3.9284 0
M  V30 15833 H 1477.82 1.80969 -2.71878 0
M  V30 15834 H 1476.48 -0.101605 -3.66459 0
M  V30 15835 H 1476.13 2.22531 -4.51098 0
M  V30 15836 H 1475.83 1.0189 -5.78699 0
M  V30 15837 H 1477.35 1.95132 -5.78581 0
M  V30 15838 H 1478.77 -0.319272 -5.7241 0
M  V30 15839 H 1477.17 -1.09041 -5.9011 0
M  V30 15840 H 1478.24 -1.59292 -4.57989 0
M  V30 15841 N 1479.58 1.53054 -0.375806 0
M  V30 15842 C 1480.99 1.86426 0.101188 0
M  V30 15843 C 1481.34 1.29603 1.47301 0
M  V30 15844 O 1480.47 0.622059 2.07266 0
M  V30 15845 C 1481.06 3.38265 0.190389 0
M  V30 15846 C 1479.62 3.71397 0.611653 0
M  V30 15847 C 1478.77 2.76304 -0.234801 0
M  V30 15848 H 1481.72 1.47156 -0.594211 0
M  V30 15849 H 1481.74 3.66793 1.01207 0
M  V30 15850 H 1481.25 3.79592 -0.80818 0
M  V30 15851 H 1479.35 3.35632 1.61808 0
M  V30 15852 H 1479.46 4.77597 0.379168 0
M  V30 15853 H 1477.83 2.52952 0.297888 0
M  V30 15854 H 1478.61 3.20467 -1.2311 0
M  V30 15855 N 1481.06 0.105248 1.57248 0
M  V30 15856 C 1482.28 -0.567515 1.99484 0
M  V30 15857 C 1482.71 -1.60298 0.984182 0
M  V30 15858 O 1482.06 -1.81242 -0.0459944 0
M  V30 15859 C 1482.11 -1.18271 3.40653 0
M  V30 15860 O 1481.22 -2.29843 3.42412 0
M  V30 15861 H 1480.56 -0.143069 0.648404 0
M  V30 15862 H 1483.09 0.189661 2.03719 0
M  V30 15863 H 1483.1 -1.52157 3.78566 0
M  V30 15864 H 1481.77 -0.424179 4.13731 0
M  V30 15865 H 1480.35 -1.975 3.16304 0
M  V30 15866 N 1482.53 -1.56697 -0.168486 0
M  V30 15867 C 1483.77 -1.83952 -0.891116 0
M  V30 15868 C 1484.14 -0.68657 -1.79305 0
M  V30 15869 O 1485.34 -0.839644 -2.5535 0
M  V30 15870 C 1483.61 -3.16331 -1.66342 0
M  V30 15871 S 1485.17 -3.65077 -2.43442 0
M  V30 15872 H 1481.99 -0.645349 -0.298405 0
M  V30 15873 H 1484.59 -1.94904 -0.152554 0
M  V30 15874 H 1483.29 -3.98233 -0.991915 0
M  V30 15875 H 1482.82 -3.08328 -2.4433 0
M  V30 15876 H 1484.84 -3.32629 -3.68201 0
M  V30 15877 N 1484.01 0.437135 -1.51416 0
M  V30 15878 C 1485.26 1.1835 -1.63328 0
M  V30 15879 C 1485.57 1.92343 -0.355455 0
M  V30 15880 O 1486.78 2.69183 -0.353951 0
M  V30 15881 C 1485.24 2.15235 -2.88447 0
M  V30 15882 C 1484.84 1.46889 -4.23235 0
M  V30 15883 C 1486.59 2.90303 -3.09716 0
M  V30 15884 C 1484.5 2.42259 -5.39504 0
M  V30 15885 H 1483.43 0.445467 -0.608338 0
M  V30 15886 H 1486.08 0.450528 -1.77883 0
M  V30 15887 H 1484.46 2.91968 -2.67527 0
M  V30 15888 H 1485.63 0.757128 -4.54537 0
M  V30 15889 H 1483.95 0.839725 -4.07845 0
M  V30 15890 H 1486.54 3.61747 -3.93756 0
M  V30 15891 H 1486.89 3.5166 -2.22802 0
M  V30 15892 H 1487.42 2.20677 -3.30978 0
M  V30 15893 H 1484.16 1.85591 -6.28678 0
M  V30 15894 H 1483.68 3.11488 -5.12577 0
M  V30 15895 H 1485.36 3.03384 -5.7146 0
M  V30 15896 N 1485.49 1.41566 0.692592 0
M  V30 15897 C 1486.45 1.43369 1.78824 0
M  V30 15898 C 1487.45 0.323867 1.57505 0
M  V30 15899 O 1488.64 0.583885 1.64123 0
M  V30 15900 C 1485.78 1.24798 3.17235 0
M  V30 15901 H 1486.97 2.40906 1.78617 0
M  V30 15902 H 1484.52 1.27752 0.900508 0
M  V30 15903 H 1485.26 0.281129 3.23079 0
M  V30 15904 H 1485.04 2.05212 3.34111 0
M  V30 15905 H 1486.53 1.28902 3.97208 0
M  V30 15906 N 1486.97 -0.927146 1.27443 0
M  V30 15907 C 1488.2 -1.70896 1.16629 0
M  V30 15908 C 1488.61 -1.8676 -0.276811 0
M  V30 15909 O 1487.97 -1.38503 -1.18842 0
M  V30 15910 C 1488.02 -3.1083 1.84573 0
M  V30 15911 O 1487.74 -2.9571 3.23244 0
M  V30 15912 C 1489.24 -4.05159 1.79891 0
M  V30 15913 H 1486.46 -0.534638 0.405467 0
M  V30 15914 H 1489.01 -1.16134 1.68325 0
M  V30 15915 H 1487.16 -3.6245 1.3678 0
M  V30 15916 H 1487.57 -3.84181 3.57079 0
M  V30 15917 H 1489.05 -5.00859 2.32044 0
M  V30 15918 H 1489.53 -4.32426 0.768373 0
M  V30 15919 H 1490.13 -3.59464 2.273 0
M  V30 15920 N 1488.45 -1.09474 -1.13372 0
M  V30 15921 C 1489.86 -0.850378 -1.66209 0
M  V30 15922 C 1490.21 0.621071 -1.86111 0
M  V30 15923 O 1489.33 1.47837 -1.58029 0
M  V30 15924 C 1489.93 -1.53713 -3.01924 0
M  V30 15925 C 1488.49 -1.33972 -3.5175 0
M  V30 15926 C 1487.63 -1.5929 -2.26985 0
M  V30 15927 H 1490.59 -1.25383 -0.972874 0
M  V30 15928 H 1490.61 -0.970503 -3.67915 0
M  V30 15929 H 1490.12 -2.60804 -2.87407 0
M  V30 15930 H 1488.22 -0.289998 -3.7147 0
M  V30 15931 H 1488.33 -2.0749 -4.31839 0
M  V30 15932 H 1486.7 -1.01505 -2.336 0
M  V30 15933 H 1487.48 -2.67611 -2.15033 0
M  V30 15934 N 1489.92 1.30607 -0.882012 0
M  V30 15935 C 1491.15 2.00128 -0.51307 0
M  V30 15936 C 1491.56 1.66307 0.902144 0
M  V30 15937 O 1490.91 0.894797 1.60434 0
M  V30 15938 C 1490.97 3.5438 -0.604547 0
M  V30 15939 C 1490.63 4.1171 -1.98354 0
M  V30 15940 C 1491.63 4.27924 -2.95257 0
M  V30 15941 C 1489.31 4.47158 -2.28812 0
M  V30 15942 C 1491.31 4.78795 -4.20755 0
M  V30 15943 C 1488.99 4.97728 -3.54556 0
M  V30 15944 C 1489.99 5.13499 -4.50342 0
M  V30 15945 O 1489.68 5.62978 -5.73856 0
M  V30 15946 H 1489.41 0.646608 -0.197165 0
M  V30 15947 H 1491.97 1.67532 -1.18837 0
M  V30 15948 H 1490.2 3.86489 0.127719 0
M  V30 15949 H 1491.89 4.05146 -0.247308 0
M  V30 15950 H 1492.65 4.00844 -2.73037 0
M  V30 15951 H 1488.53 4.34152 -1.55026 0
M  V30 15952 H 1492.07 4.91019 -4.95526 0
M  V30 15953 H 1487.97 5.24244 -3.76615 0
M  V30 15954 H 1488.74 5.81326 -5.76196 0
M  V30 15955 N 1491.4 0.642663 1.43901 0
M  V30 15956 C 1492.63 0.157518 2.06801 0
M  V30 15957 C 1493.05 -1.16361 1.47789 0
M  V30 15958 O 1492.41 -1.71645 0.583747 0
M  V30 15959 C 1492.46 0.0685904 3.60535 0
M  V30 15960 O 1491.56 -0.972183 4.00777 0
M  V30 15961 H 1490.9 0.0900406 0.657867 0
M  V30 15962 H 1493.43 0.882604 1.84584 0
M  V30 15963 H 1493.44 -0.118212 4.07829 0
M  V30 15964 H 1492.12 1.03307 4.02865 0
M  V30 15965 H 1490.7 -0.75902 3.65094 0
M  V30 15966 N 1492.88 -1.52852 0.383918 0
M  V30 15967 C 1494.29 -1.86477 -0.0912997 0
M  V30 15968 C 1494.64 -1.30382 -1.46611 0
M  V30 15969 O 1493.77 -0.633042 -2.06934 0
M  V30 15970 C 1494.36 -3.38361 -0.172447 0
M  V30 15971 C 1492.92 -3.71716 -0.591948 0
M  V30 15972 C 1492.07 -2.76176 0.24945 0
M  V30 15973 H 1495.02 -1.46839 0.602006 0
M  V30 15974 H 1495.04 -3.67325 -0.992603 0
M  V30 15975 H 1494.55 -3.79158 0.8283 0
M  V30 15976 H 1492.65 -3.36486 -1.60026 0
M  V30 15977 H 1492.77 -4.77792 -0.353835 0
M  V30 15978 H 1491.13 -2.53106 -0.284469 0
M  V30 15979 H 1491.91 -3.19809 1.24808 0
M  V30 15980 N 1494.36 -0.113586 -1.5719 0
M  V30 15981 C 1495.77 0.412653 -1.82083 0
M  V30 15982 C 1496.12 1.66964 -1.03041 0
M  V30 15983 O 1495.25 2.14767 -0.265354 0
M  V30 15984 C 1495.84 0.755439 -3.3027 0
M  V30 15985 C 1494.4 1.22634 -3.55862 0
M  V30 15986 C 1493.55 0.232285 -2.76325 0
M  V30 15987 H 1496.5 -0.338792 -1.55042 0
M  V30 15988 H 1496.52 1.61335 -3.44603 0
M  V30 15989 H 1496.03 -0.1596 -3.87772 0
M  V30 15990 H 1494.13 2.15846 -3.03713 0
M  V30 15991 H 1494.25 1.1754 -4.64458 0
M  V30 15992 H 1492.61 0.718222 -2.44364 0
M  V30 15993 H 1493.39 -0.675756 -3.36583 0
M  V30 15994 N 1495.84 1.56784 0.160173 0
M  V30 15995 C 1497.25 1.72193 0.721552 0
M  V30 15996 C 1497.6 0.725901 1.82278 0
M  V30 15997 O 1496.72 -0.110343 2.16118 0
M  V30 15998 C 1497.32 3.12212 1.31563 0
M  V30 15999 C 1495.88 3.29268 1.82371 0
M  V30 16000 C 1495.03 2.68136 0.70701 0
M  V30 16001 H 1497.98 1.58565 -0.0653521 0
M  V30 16002 H 1498 3.11481 2.1854 0
M  V30 16003 H 1497.51 3.84682 0.513917 0
M  V30 16004 H 1495.61 2.61774 2.65152 0
M  V30 16005 H 1495.72 4.37107 1.96149 0
M  V30 16006 H 1494.09 2.28246 1.1303 0
M  V30 16007 H 1494.87 3.432 -0.0830407 0
M  V30 16008 N 1497.32 -0.429099 1.51646 0
M  V30 16009 C 1498.73 -1.00868 1.57107 0
M  V30 16010 C 1499.08 -1.9209 0.399483 0
M  V30 16011 O 1498.2 -2.10948 -0.482709 0
M  V30 16012 C 1498.8 -1.83612 2.84732 0
M  V30 16013 C 1497.36 -2.36605 2.92737 0
M  V30 16014 C 1496.5 -1.1604 2.51853 0
M  V30 16015 H 1499.45 -0.21006 1.57304 0
M  V30 16016 H 1499.48 -2.69149 2.68959 0
M  V30 16017 H 1498.99 -1.17192 3.69983 0
M  V30 16018 H 1497.09 -3.06455 2.11934 0
M  V30 16019 H 1497.2 -2.68838 3.96564 0
M  V30 16020 H 1495.57 -1.50826 2.0524 0
M  V30 16021 H 1496.35 -0.51218 3.39458 0
M  V30 16022 N 1498.79 -1.41931 -0.685074 0
M  V30 16023 C 1499.7 -1.46985 -1.82846 0
M  V30 16024 C 1500.72 -0.359487 -1.70246 0
M  V30 16025 O 1501.9 -0.608824 -1.91977 0
M  V30 16026 C 1498.96 -1.36001 -3.18912 0
M  V30 16027 C 1498.02 -2.57442 -3.43543 0
M  V30 16028 C 1497.25 -2.46972 -4.73118 0
M  V30 16029 O 1497.48 -1.49999 -5.50324 0
M  V30 16030 O 1496.41 -3.36922 -4.98766 0
M  V30 16031 H 1500.24 -2.4347 -1.81538 0
M  V30 16032 H 1497.82 -1.23583 -0.839497 0
M  V30 16033 H 1499.7 -1.32198 -4.00127 0
M  V30 16034 H 1498.38 -0.426366 -3.2088 0
M  V30 16035 H 1497.29 -2.66821 -2.62217 0
M  V30 16036 H 1498.62 -3.49671 -3.46398 0
M  V30 16037 N 1500.27 0.920374 -1.27933 0
M  V30 16038 C 1501.5 1.70275 -1.17533 0
M  V30 16039 C 1501.91 1.86904 0.266903 0
M  V30 16040 O 1501.27 1.39131 1.18105 0
M  V30 16041 C 1501.32 3.09847 -1.86219 0
M  V30 16042 O 1501.04 2.93992 -3.24808 0
M  V30 16043 C 1502.54 4.042 -1.82037 0
M  V30 16044 H 1499.76 0.53248 -0.408297 0
M  V30 16045 H 1502.31 1.1524 -1.68938 0
M  V30 16046 H 1500.46 3.61719 -1.38701 0
M  V30 16047 H 1500.88 3.82281 -3.59112 0
M  V30 16048 H 1502.35 4.99621 -2.34697 0
M  V30 16049 H 1502.83 4.32013 -0.791295 0
M  V30 16050 H 1503.43 3.58254 -2.29203 0
M  V30 16051 N 1501.75 1.10074 1.1279 0
M  V30 16052 C 1502.66 0.758458 2.22001 0
M  V30 16053 C 1503.68 -0.242438 1.72303 0
M  V30 16054 O 1504.85 -0.0821223 2.01233 0
M  V30 16055 C 1501.92 0.191326 3.46172 0
M  V30 16056 C 1500.98 1.24902 4.10729 0
M  V30 16057 C 1500.21 0.708857 5.28972 0
M  V30 16058 O 1500.43 -0.465993 5.68493 0
M  V30 16059 O 1499.37 1.46703 5.83748 0
M  V30 16060 H 1503.19 1.66997 2.53665 0
M  V30 16061 H 1500.78 0.875604 1.21052 0
M  V30 16062 H 1502.66 -0.121292 4.21225 0
M  V30 16063 H 1501.34 -0.693094 3.16193 0
M  V30 16064 H 1500.24 1.61444 3.37471 0
M  V30 16065 H 1501.58 2.10632 4.44854 0
M  V30 16066 N 1503.23 -1.30138 0.888926 0
M  V30 16067 C 1504.17 -2.28023 0.356923 0
M  V30 16068 C 1505.14 -1.56551 -0.555066 0
M  V30 16069 O 1506.33 -1.84595 -0.482633 0
M  V30 16070 C 1503.47 -3.42546 -0.419056 0
M  V30 16071 C 1502.58 -4.28827 0.5226 0
M  V30 16072 C 1501.72 -5.30517 -0.269366 0
M  V30 16073 C 1500.76 -6.08449 0.667507 0
M  V30 16074 N 1499.89 -7.02043 -0.08938 0
M  V30 16075 H 1504.73 -2.72912 1.19678 0
M  V30 16076 H 1502.27 -1.34239 0.60152 0
M  V30 16077 H 1504.23 -4.07707 -0.884911 0
M  V30 16078 H 1502.86 -2.98716 -1.22346 0
M  V30 16079 H 1501.91 -3.63938 1.10695 0
M  V30 16080 H 1503.22 -4.83136 1.24018 0
M  V30 16081 H 1502.38 -6.01444 -0.796901 0
M  V30 16082 H 1501.12 -4.76911 -1.02014 0
M  V30 16083 H 1500.12 -5.36396 1.20664 0
M  V30 16084 H 1501.35 -6.64143 1.41744 0
M  V30 16085 H 1499.29 -6.50822 -0.822622 0
M  V30 16086 H 1499.21 -7.53859 0.568499 0
M  V30 16087 H 1500.48 -7.77206 -0.597529 0
M  V30 16088 N 1504.71 -0.650285 -1.43559 0
M  V30 16089 C 1505.95 -0.162725 -2.02146 0
M  V30 16090 C 1506.28 1.21911 -1.51166 0
M  V30 16091 O 1505.56 1.81329 -0.703563 0
M  V30 16092 C 1505.84 -0.170356 -3.59697 0
M  V30 16093 C 1505.7 -1.5859 -4.20915 0
M  V30 16094 C 1507.01 0.494831 -4.37309 0
M  V30 16095 H 1504.13 -0.0606055 -0.734504 0
M  V30 16096 H 1506.78 -0.830411 -1.70892 0
M  V30 16097 H 1504.93 0.39819 -3.86454 0
M  V30 16098 H 1506.6 -2.20481 -4.05199 0
M  V30 16099 H 1504.84 -2.13407 -3.77677 0
M  V30 16100 H 1505.51 -1.54312 -5.29992 0
M  V30 16101 H 1507.99 0.0111281 -4.16099 0
M  V30 16102 H 1506.86 0.458753 -5.4698 0
M  V30 16103 H 1507.12 1.56846 -4.13342 0
M  V30 16104 N 1506.18 1.52647 -0.392018 0
M  V30 16105 C 1507.59 1.86522 0.0814091 0
M  V30 16106 C 1507.95 1.31158 1.45918 0
M  V30 16107 O 1507.07 0.644007 2.06595 0
M  V30 16108 C 1507.67 3.38448 0.1545 0
M  V30 16109 C 1506.22 3.72025 0.572227 0
M  V30 16110 C 1505.37 2.7604 -0.264093 0
M  V30 16111 H 1508.32 1.46517 -0.609785 0
M  V30 16112 H 1508.34 3.67846 0.973109 0
M  V30 16113 H 1507.86 3.78713 -0.848396 0
M  V30 16114 H 1505.96 3.37329 1.58239 0
M  V30 16115 H 1506.07 4.77973 0.328491 0
M  V30 16116 H 1504.43 2.53254 0.271042 0
M  V30 16117 H 1505.22 3.19143 -1.26502 0
M  V30 16118 N 1507.66 0.121921 1.57128 0
M  V30 16119 C 1509.07 -0.402991 1.82299 0
M  V30 16120 C 1509.42 -1.66415 1.03925 0
M  V30 16121 O 1508.55 -2.14623 0.27674 0
M  V30 16122 C 1509.14 -0.737913 3.30666 0
M  V30 16123 C 1507.7 -1.20745 3.56508 0
M  V30 16124 C 1506.85 -0.217628 2.76445 0
M  V30 16125 H 1509.8 0.347009 1.5486 0
M  V30 16126 H 1509.82 -1.59505 3.45454 0
M  V30 16127 H 1509.33 0.180162 3.87682 0
M  V30 16128 H 1507.44 -2.14232 3.04853 0
M  V30 16129 H 1507.55 -1.15075 4.65075 0
M  V30 16130 H 1505.91 -0.705253 2.44741 0
M  V30 16131 H 1506.7 0.693596 3.3622 0
M  V30 16132 N 1509.14 -1.56867 -0.151857 0
M  V30 16133 C 1510.37 -1.87237 -0.880343 0
M  V30 16134 C 1510.78 -0.709565 -1.74959 0
M  V30 16135 O 1510.14 0.320818 -1.79658 0
M  V30 16136 C 1510.19 -3.16811 -1.74107 0
M  V30 16137 O 1509.91 -4.28611 -0.906858 0
M  V30 16138 C 1511.41 -3.60662 -2.57755 0
M  V30 16139 H 1508.63 -0.62074 -0.254799 0
M  V30 16140 H 1511.18 -2.03977 -0.146104 0
M  V30 16141 H 1509.33 -3.01838 -2.42842 0
M  V30 16142 H 1509.75 -5.02673 -1.49733 0
M  V30 16143 H 1511.22 -4.54176 -3.13732 0
M  V30 16144 H 1511.7 -2.85716 -3.33561 0
M  V30 16145 H 1512.3 -3.78312 -1.94319 0
M  V30 16146 N 1510.62 0.421051 -1.51871 0
M  V30 16147 C 1512.03 0.758781 -1.40409 0
M  V30 16148 C 1512.23 1.95219 -0.499197 0
M  V30 16149 O 1511.29 2.52469 0.0395216 0
M  V30 16150 C 1512.6 1.02388 -2.82731 0
M  V30 16151 C 1514.15 1.12733 -2.91994 0
M  V30 16152 C 1514.63 1.42527 -4.35259 0
M  V30 16153 N 1516.12 1.49417 -4.38439 0
M  V30 16154 C 1516.85 1.74074 -5.46339 0
M  V30 16155 N 1516.35 1.96414 -6.64375 0
M  V30 16156 N 1518.14 1.7599 -5.33839 0
M  V30 16157 H 1510.29 -0.364682 -2.09246 0
M  V30 16158 H 1512.56 -0.100819 -0.942624 0
M  V30 16159 H 1512.26 0.219491 -3.51014 0
M  V30 16160 H 1512.14 1.94724 -3.23052 0
M  V30 16161 H 1514.52 1.92233 -2.23899 0
M  V30 16162 H 1514.6 0.182611 -2.55147 0
M  V30 16163 H 1514.25 0.635486 -5.03909 0
M  V30 16164 H 1514.18 2.38231 -4.69631 0
M  V30 16165 H 1516.67 1.3399 -3.53348 0
M  V30 16166 H 1516.98 2.14644 -7.42393 0
M  V30 16167 H 1515.33 1.93702 -6.67461 0
M  V30 16168 H 1518.52 1.58067 -4.40605 0
M  V30 16169 H 1518.69 1.94868 -6.18005 0
M  V30 16170 N 1512.1 1.42293 0.677538 0
M  V30 16171 C 1513.04 1.45556 1.79114 0
M  V30 16172 C 1514.01 0.307826 1.63223 0
M  V30 16173 O 1515.2 0.511504 1.83816 0
M  V30 16174 C 1512.34 1.36104 3.17127 0
M  V30 16175 C 1511.45 2.60891 3.44325 0
M  V30 16176 C 1510.59 2.43601 4.72051 0
M  V30 16177 C 1509.63 3.63775 4.92274 0
M  V30 16178 N 1508.76 3.45444 6.11239 0
M  V30 16179 H 1513.6 2.40723 1.7566 0
M  V30 16180 H 1511.14 1.19517 0.857565 0
M  V30 16181 H 1513.1 1.28622 3.96878 0
M  V30 16182 H 1511.73 0.445342 3.19713 0
M  V30 16183 H 1510.78 2.78751 2.58848 0
M  V30 16184 H 1512.09 3.50229 3.55163 0
M  V30 16185 H 1511.25 2.33689 5.59888 0
M  V30 16186 H 1509.98 1.51748 4.63491 0
M  V30 16187 H 1508.99 3.74122 4.0288 0
M  V30 16188 H 1510.21 4.56605 5.02681 0
M  V30 16189 H 1508.16 2.56306 6.03857 0
M  V30 16190 H 1508.08 4.28368 6.22926 0
M  V30 16191 H 1509.35 3.39339 7.01762 0
M  V30 16192 N 1513.57 -0.913576 1.28419 0
M  V30 16193 C 1514.48 -2.04922 1.14211 0
M  V30 16194 C 1515.5 -1.73865 0.0686424 0
M  V30 16195 O 1516.68 -1.99473 0.277968 0
M  V30 16196 C 1513.74 -3.37214 0.805445 0
M  V30 16197 C 1512.8 -3.81879 1.96129 0
M  V30 16198 C 1512.04 -5.07858 1.6406 0
M  V30 16199 O 1512.26 -5.67693 0.555032 0
M  V30 16200 O 1511.19 -5.4824 2.48428 0
M  V30 16201 H 1515.02 -2.19827 2.09547 0
M  V30 16202 H 1512.6 -1.03501 1.0774 0
M  V30 16203 H 1514.49 -4.16639 0.631648 0
M  V30 16204 H 1513.16 -3.23484 -0.118254 0
M  V30 16205 H 1512.07 -3.03281 2.19024 0
M  V30 16206 H 1513.4 -4.00173 2.8657 0
M  V30 16207 N 1515.05 -1.1067 -1.12204 0
M  V30 16208 C 1516.28 -0.872867 -1.87586 0
M  V30 16209 C 1516.7 0.57682 -1.79773 0
M  V30 16210 O 1516.05 1.39782 -1.17334 0
M  V30 16211 C 1516.1 -1.31572 -3.36706 0
M  V30 16212 O 1515.82 -2.70856 -3.44338 0
M  V30 16213 C 1517.33 -1.11613 -4.29019 0
M  V30 16214 H 1514.55 -0.313132 -0.593455 0
M  V30 16215 H 1517.09 -1.47199 -1.4196 0
M  V30 16216 H 1515.24 -0.760212 -3.79868 0
M  V30 16217 H 1515.66 -2.89854 -4.37132 0
M  V30 16218 H 1517.13 -1.4751 -5.31925 0
M  V30 16219 H 1517.61 -0.0549698 -4.39166 0
M  V30 16220 H 1518.22 -1.65822 -3.91642 0
M  V30 16221 N 1516.53 1.29665 -0.895815 0
M  V30 16222 C 1517.95 1.4824 -0.591355 0
M  V30 16223 C 1518.15 1.81839 0.86815 0
M  V30 16224 O 1517.2 1.91251 1.64861 0
M  V30 16225 C 1518.52 2.59814 -1.51384 0
M  V30 16226 C 1520.06 2.73691 -1.51862 0
M  V30 16227 C 1520.54 3.8839 -2.42729 0
M  V30 16228 N 1522.03 3.95717 -2.40754 0
M  V30 16229 C 1522.76 4.83804 -3.07769 0
M  V30 16230 N 1522.26 5.7661 -3.84048 0
M  V30 16231 N 1524.05 4.77263 -2.96946 0
M  V30 16232 H 1516.2 1.06131 -1.83984 0
M  V30 16233 H 1518.47 0.526819 -0.788141 0
M  V30 16234 H 1518.17 2.4184 -2.55355 0
M  V30 16235 H 1518.05 3.56532 -1.23147 0
M  V30 16236 H 1520.43 2.91064 -0.486375 0
M  V30 16237 H 1520.52 1.77561 -1.84135 0
M  V30 16238 H 1520.16 3.71773 -3.46045 0
M  V30 16239 H 1520.09 4.8388 -2.07767 0
M  V30 16240 H 1522.58 3.29334 -1.8533 0
M  V30 16241 H 1522.89 6.40611 -4.32247 0
M  V30 16242 H 1521.24 5.76507 -3.88155 0
M  V30 16243 H 1524.43 4.03744 -2.36871 0
M  V30 16244 H 1524.6 5.45701 -3.49448 0
M  V30 16245 N 1518.01 0.657889 1.43212 0
M  V30 16246 C 1519.26 0.173187 2.01758 0
M  V30 16247 C 1519.58 -1.21447 1.51924 0
M  V30 16248 O 1518.84 -1.82568 0.704807 0
M  V30 16249 C 1519.14 0.138025 3.57133 0
M  V30 16250 C 1518.8 1.46806 4.26332 0
M  V30 16251 C 1517.47 1.83227 4.44951 0
M  V30 16252 C 1519.82 2.34476 4.65478 0
M  V30 16253 C 1517.15 3.06975 4.99983 0
M  V30 16254 C 1519.5 3.57521 5.21883 0
M  V30 16255 C 1518.16 3.94132 5.38717 0
M  V30 16256 H 1517.43 0.0633735 0.738285 0
M  V30 16257 H 1520.08 0.849524 1.71626 0
M  V30 16258 H 1518.38 -0.621776 3.86835 0
M  V30 16259 H 1520.08 -0.253948 4.00195 0
M  V30 16260 H 1516.67 1.17469 4.12188 0
M  V30 16261 H 1520.85 2.07628 4.50782 0
M  V30 16262 H 1516.11 3.35383 5.11202 0
M  V30 16263 H 1520.28 4.25669 5.51161 0
M  V30 16264 H 1517.91 4.901 5.81125 0
M  V30 16265 N 1519.49 -1.52437 0.400108 0
M  V30 16266 C 1520.4 -2.30496 -0.436875 0
M  V30 16267 C 1521.41 -1.37851 -1.06175 0
M  V30 16268 O 1522.59 -1.70924 -1.06522 0
M  V30 16269 C 1519.65 -3.10459 -1.54325 0
M  V30 16270 C 1518.71 -4.18829 -0.942367 0
M  V30 16271 C 1517.95 -4.94969 -1.99602 0
M  V30 16272 O 1518.17 -4.71314 -3.21278 0
M  V30 16273 O 1517.1 -5.80043 -1.60728 0
M  V30 16274 H 1520.93 -3.03045 0.199343 0
M  V30 16275 H 1518.52 -1.48502 0.163541 0
M  V30 16276 H 1520.4 -3.60282 -2.18575 0
M  V30 16277 H 1519.07 -2.40713 -2.16423 0
M  V30 16278 H 1517.98 -3.73176 -0.262831 0
M  V30 16279 H 1519.31 -4.90841 -0.365441 0
M  V30 16280 N 1520.96 -0.130252 -1.57061 0
M  V30 16281 C 1521.87 0.829198 -2.19457 0
M  V30 16282 C 1522.89 1.2843 -1.17395 0
M  V30 16283 O 1524.07 1.34496 -1.49909 0
M  V30 16284 C 1521.13 2.05727 -2.79065 0
M  V30 16285 C 1520.19 1.65301 -3.962 0
M  V30 16286 C 1519.43 2.82253 -4.52956 0
M  V30 16287 O 1519.65 3.97999 -4.08598 0
M  V30 16288 O 1518.58 2.5869 -5.43473 0
M  V30 16289 H 1522.41 0.328139 -3.01922 0
M  V30 16290 H 1519.99 0.0959361 -1.49092 0
M  V30 16291 H 1521.88 2.7763 -3.17017 0
M  V30 16292 H 1520.55 2.54817 -1.99624 0
M  V30 16293 H 1519.46 0.904712 -3.62996 0
M  V30 16294 H 1520.79 1.20942 -4.7711 0
M  V30 16295 N 1522.44 1.56945 0.143535 0
M  V30 16296 C 1523.69 1.83176 0.853873 0
M  V30 16297 C 1524.01 0.71168 1.81549 0
M  V30 16298 O 1523.28 -0.266391 1.9408 0
M  V30 16299 H 1521.86 0.675785 0.318313 0
M  V30 16300 H 1524.52 1.9442 0.136712 0
M  V30 16301 H 1523.62 2.7823 1.41402 0
M  V30 16302 N 1523.92 -0.412991 1.52093 0
M  V30 16303 C 1524.83 -1.52768 1.78042 0
M  V30 16304 C 1525.85 -1.60758 0.665791 0
M  V30 16305 O 1527.02 -1.77545 0.950772 0
M  V30 16306 C 1524.09 -2.8854 1.92213 0
M  V30 16307 C 1523.15 -2.90468 3.16112 0
M  V30 16308 C 1522.38 -4.19763 3.29598 0
M  V30 16309 O 1522.61 -5.13454 2.48438 0
M  V30 16310 O 1521.54 -4.2847 4.22726 0
M  V30 16311 H 1525.37 -1.33777 2.72649 0
M  V30 16312 H 1522.95 -0.598461 1.3689 0
M  V30 16313 H 1524.83 -3.69073 2.03379 0
M  V30 16314 H 1523.51 -3.07607 1.00795 0
M  V30 16315 H 1522.41 -2.08801 3.10408 0
M  V30 16316 H 1523.75 -2.76349 4.07298 0
M  V30 16317 N 1525.4 -1.4265 -0.669982 0
M  V30 16318 C 1526.33 -1.42457 -1.79551 0
M  V30 16319 C 1527.34 -0.322966 -1.59564 0
M  V30 16320 O 1528.53 -0.586359 -1.68594 0
M  V30 16321 C 1525.63 -1.20561 -3.16731 0
M  V30 16322 C 1524.81 -2.43246 -3.63525 0
M  V30 16323 C 1523.87 -2.16823 -4.79452 0
M  V30 16324 O 1522.89 -2.90058 -4.8975 0
M  V30 16325 N 1524.09 -1.17436 -5.68497 0
M  V30 16326 H 1526.86 -2.39474 -1.80201 0
M  V30 16327 H 1524.42 -1.37591 -0.853244 0
M  V30 16328 H 1526.41 -1.00794 -3.91947 0
M  V30 16329 H 1524.98 -0.320497 -3.10953 0
M  V30 16330 H 1524.2 -2.78549 -2.78934 0
M  V30 16331 H 1525.49 -3.24931 -3.91532 0
M  V30 16332 H 1524.89 -0.568736 -5.62834 0
M  V30 16333 H 1523.44 -1.03655 -6.43505 0
M  V30 16334 N 1526.88 0.906753 -1.28902 0
M  V30 16335 C 1528.29 1.47175 -1.14876 0
M  V30 16336 C 1528.64 1.94487 0.258693 0
M  V30 16337 O 1527.76 1.83088 1.15359 0
M  V30 16338 C 1528.36 2.67491 -2.07928 0
M  V30 16339 C 1526.92 3.20148 -1.97946 0
M  V30 16340 C 1526.07 1.92846 -1.99263 0
M  V30 16341 H 1529.02 0.718777 -1.4149 0
M  V30 16342 H 1529.04 3.42989 -1.64738 0
M  V30 16343 H 1528.55 2.33025 -3.10356 0
M  V30 16344 H 1526.65 3.59322 -0.985806 0
M  V30 16345 H 1526.76 3.84923 -2.85256 0
M  V30 16346 H 1525.13 2.10247 -1.43765 0
M  V30 16347 H 1525.91 1.60666 -3.03383 0
M  V30 16348 N 1528.36 1.11264 1.11616 0
M  V30 16349 C 1529.6 0.858664 1.82952 0
M  V30 16350 C 1529.92 -0.617439 1.84967 0
M  V30 16351 O 1529.19 -1.44849 1.31893 0
M  V30 16352 H 1527.77 0.314671 0.677489 0
M  V30 16353 H 1530.44 1.40466 1.35113 0
M  V30 16354 H 1529.53 1.22921 2.86874 0
M  V30 16355 N 1529.83 -1.29188 0.902679 0
M  V30 16356 C 1530.77 -2.26665 0.339964 0
M  V30 16357 C 1531.78 -1.54426 -0.515396 0
M  V30 16358 O 1532.97 -1.75384 -0.332071 0
M  V30 16359 C 1530.07 -3.34672 -0.533653 0
M  V30 16360 C 1529.24 -4.36393 0.296661 0
M  V30 16361 C 1528.3 -5.2372 -0.510264 0
M  V30 16362 O 1527.33 -5.69153 0.0732871 0
M  V30 16363 N 1528.53 -5.51373 -1.81572 0
M  V30 16364 H 1531.29 -2.75588 1.17778 0
M  V30 16365 H 1528.85 -1.42553 0.767474 0
M  V30 16366 H 1530.85 -3.90025 -1.07995 0
M  V30 16367 H 1529.42 -2.85543 -1.27216 0
M  V30 16368 H 1528.64 -3.80658 1.02436 0
M  V30 16369 H 1529.92 -5.0139 0.865191 0
M  V30 16370 H 1529.32 -5.16275 -2.31251 0
M  V30 16371 H 1527.88 -6.09528 -2.30908 0
M  V30 16372 N 1531.31 -0.665475 -1.42861 0
M  V30 16373 C 1532.56 -0.183521 -2.01265 0
M  V30 16374 C 1532.88 1.21103 -1.52837 0
M  V30 16375 O 1532.15 1.81135 -0.746109 0
M  V30 16376 H 1530.73 -0.0648565 -0.744179 0
M  V30 16377 H 1533.39 -0.859893 -1.74905 0
M  V30 16378 H 1532.49 -0.177589 -3.11594 0
M  V30 16379 N 1532.79 1.52222 -0.408187 0
M  V30 16380 C 1534.02 2.06221 0.16743 0
M  V30 16381 C 1534.43 1.27832 1.3894 0
M  V30 16382 O 1533.79 0.329933 1.79493 0
M  V30 16383 C 1533.84 3.57758 0.518804 0
M  V30 16384 O 1533.56 4.33181 -0.654639 0
M  V30 16385 C 1535.06 4.28171 1.14825 0
M  V30 16386 H 1532.28 0.670677 0.0208054 0
M  V30 16387 H 1534.83 1.96136 -0.578868 0
M  V30 16388 H 1532.98 3.67854 1.215 0
M  V30 16389 H 1533.4 5.23252 -0.361558 0
M  V30 16390 H 1534.87 5.3538 1.34433 0
M  V30 16391 H 1535.35 3.84586 2.12108 0
M  V30 16392 H 1535.95 4.22441 0.492291 0
M  V30 16393 N 1534.27 0.138579 1.5699 0
M  V30 16394 C 1535.68 -0.383633 1.82716 0
M  V30 16395 C 1536.03 -1.65304 1.05684 0
M  V30 16396 O 1535.15 -2.14318 0.299488 0
M  V30 16397 C 1535.75 -0.7028 3.3143 0
M  V30 16398 C 1534.31 -1.16957 3.57768 0
M  V30 16399 C 1533.46 -0.188295 2.7666 0
M  V30 16400 H 1536.41 0.363415 1.54483 0
M  V30 16401 H 1536.43 -1.55832 3.47126 0
M  V30 16402 H 1535.94 0.221271 3.87469 0
M  V30 16403 H 1534.04 -2.10987 3.07108 0
M  V30 16404 H 1534.15 -1.10136 4.66269 0
M  V30 16405 H 1532.52 -0.679255 2.45475 0
M  V30 16406 H 1533.3 0.729218 3.35466 0
M  V30 16407 N 1535.75 -1.57019 -0.13521 0
M  V30 16408 C 1536.99 -1.83626 -0.844147 0
M  V30 16409 C 1537.31 -0.721298 -1.81169 0
M  V30 16410 O 1536.58 0.256095 -1.94219 0
M  V30 16411 H 1535.16 -0.677464 -0.314725 0
M  V30 16412 H 1537.83 -1.9449 -0.126399 0
M  V30 16413 H 1536.92 -2.78976 -1.39925 0
M  V30 16414 N 1537.22 0.404919 -1.52309 0
M  V30 16415 C 1538.5 1.16473 -1.57142 0
M  V30 16416 C 1538.88 2.08094 -0.354967 0
M  V30 16417 O 1538.23 2.18825 0.65788 0
M  V30 16418 C 1538.44 1.93834 -2.90223 0
M  V30 16419 C 1539.79 2.49754 -3.43378 0
M  V30 16420 O 1540.81 2.04009 -2.91991 0
M  V30 16421 O 1539.67 3.33271 -4.3312 0
M  V30 16422 H 1536.76 0.532036 -0.633141 0
M  V30 16423 H 1539.31 0.411359 -1.64639 0
M  V30 16424 H 1538.08 1.2674 -3.70206 0
M  V30 16425 H 1537.71 2.76167 -2.86038 0
M  V30 16426 N 1538.7 1.43003 0.662408 0
M  V30 16427 C 1540.11 1.39275 1.24336 0
M  V30 16428 C 1540.46 0.0921999 1.95983 0
M  V30 16429 O 1539.59 -0.808677 2.00722 0
M  V30 16430 C 1540.18 2.52287 2.26134 0
M  V30 16431 C 1538.74 2.51853 2.79727 0
M  V30 16432 C 1537.89 2.30453 1.5423 0
M  V30 16433 H 1540.84 1.52038 0.455002 0
M  V30 16434 H 1540.86 2.23249 3.08123 0
M  V30 16435 H 1540.37 3.46929 1.73959 0
M  V30 16436 H 1538.48 1.61064 3.3599 0
M  V30 16437 H 1538.59 3.49313 3.27898 0
M  V30 16438 H 1536.95 1.78946 1.81247 0
M  V30 16439 H 1537.74 3.27167 1.04003 0
M  V30 16440 N 1540.18 -0.899904 1.29381 0
M  V30 16441 C 1541.09 -2.03699 1.16378 0
M  V30 16442 C 1542.11 -1.73782 0.0870792 0
M  V30 16443 O 1543.28 -1.99167 0.299109 0
M  V30 16444 C 1540.35 -3.36341 0.841166 0
M  V30 16445 C 1539.41 -3.79778 2.00168 0
M  V30 16446 C 1538.64 -5.0609 1.69437 0
M  V30 16447 O 1538.86 -5.67073 0.615212 0
M  V30 16448 O 1537.8 -5.45574 2.54229 0
M  V30 16449 H 1541.62 -2.17592 2.11866 0
M  V30 16450 H 1539.21 -1.02353 1.08831 0
M  V30 16451 H 1541.09 -4.15946 0.675803 0
M  V30 16452 H 1539.77 -3.23591 -0.0839376 0
M  V30 16453 H 1538.67 -3.00941 2.22229 0
M  V30 16454 H 1540.01 -3.97111 2.90798 0
M  V30 16455 N 1541.66 -1.11854 -1.11024 0
M  V30 16456 C 1543.07 -0.885443 -1.64368 0
M  V30 16457 C 1543.42 0.581455 -1.87386 0
M  V30 16458 O 1542.55 1.44452 -1.61129 0
M  V30 16459 C 1543.14 -1.60082 -2.98595 0
M  V30 16460 C 1541.7 -1.41403 -3.4883 0
M  V30 16461 C 1540.85 -1.64069 -2.23555 0
M  V30 16462 H 1543.8 -1.27418 -0.94606 0
M  V30 16463 H 1543.82 -1.04832 -3.65774 0
M  V30 16464 H 1543.33 -2.66842 -2.8181 0
M  V30 16465 H 1541.43 -0.368727 -3.70771 0
M  V30 16466 H 1541.54 -2.16603 -4.27341 0
M  V30 16467 H 1539.91 -1.06437 -2.31394 0
M  V30 16468 H 1540.69 -2.72112 -2.09308 0
M  V30 16469 N 1543.14 1.28707 -0.909517 0
M  V30 16470 C 1544.38 1.95443 -0.541281 0
M  V30 16471 C 1544.72 1.71457 0.911934 0
M  V30 16472 O 1543.99 1.03312 1.64794 0
M  V30 16473 C 1544.27 3.50019 -0.846097 0
M  V30 16474 C 1544.13 3.83423 -2.35173 0
M  V30 16475 C 1545.45 4.3879 -0.339328 0
M  V30 16476 H 1542.56 0.709869 -0.198128 0
M  V30 16477 H 1545.21 1.52151 -1.13799 0
M  V30 16478 H 1543.36 3.87025 -0.338262 0
M  V30 16479 H 1545.03 3.5631 -2.92986 0
M  V30 16480 H 1543.27 3.30618 -2.80846 0
M  V30 16481 H 1543.94 4.91348 -2.51557 0
M  V30 16482 H 1546.42 4.08832 -0.774312 0
M  V30 16483 H 1545.29 5.45809 -0.581722 0
M  V30 16484 H 1545.56 4.35514 0.760244 0
M  V30 16485 N 1544.61 0.673042 1.42506 0
M  V30 16486 C 1545.85 0.198436 2.03434 0
M  V30 16487 C 1546.22 -1.17227 1.52059 0
M  V30 16488 O 1547.42 -1.74143 2.04762 0
M  V30 16489 C 1545.69 0.22942 3.56663 0
M  V30 16490 S 1547.25 -0.174441 4.38453 0
M  V30 16491 H 1544.07 0.0817512 0.706284 0
M  V30 16492 H 1546.67 0.885803 1.74281 0
M  V30 16493 H 1545.37 1.22941 3.91553 0
M  V30 16494 H 1544.9 -0.477839 3.90487 0
M  V30 16495 H 1546.92 -1.40826 4.75797 0
M  V30 16496 N 1546.09 -1.52004 0.416254 0
M  V30 16497 C 1547.34 -2.02188 -0.157434 0
M  V30 16498 C 1547.67 -1.30097 -1.44182 0
M  V30 16499 O 1546.95 -0.409426 -1.90142 0
M  V30 16500 C 1547.23 -3.57896 -0.397847 0
M  V30 16501 C 1547.08 -4.40628 0.903715 0
M  V30 16502 C 1548.4 -4.24072 -1.17689 0
M  V30 16503 H 1545.52 -0.734889 -0.0557437 0
M  V30 16504 H 1548.16 -1.81831 0.551118 0
M  V30 16505 H 1546.31 -3.75372 -1.00142 0
M  V30 16506 H 1547.98 -4.34848 1.53964 0
M  V30 16507 H 1546.23 -4.06556 1.5131 0
M  V30 16508 H 1546.9 -5.47673 0.689802 0
M  V30 16509 H 1549.37 -4.10738 -0.665832 0
M  V30 16510 H 1548.25 -5.32944 -1.31386 0
M  V30 16511 H 1548.51 -3.83507 -2.19942 0
M  V30 16512 N 1547.57 -0.146903 -1.56914 0
M  V30 16513 C 1548.98 0.373938 -1.82917 0
M  V30 16514 C 1549.33 1.64741 -1.06559 0
M  V30 16515 O 1548.46 2.14156 -0.310849 0
M  V30 16516 C 1549.05 0.685213 -3.31799 0
M  V30 16517 C 1547.61 1.15058 -3.58383 0
M  V30 16518 C 1546.76 0.17362 -2.76756 0
M  V30 16519 H 1549.71 -0.371602 -1.54288 0
M  V30 16520 H 1549.73 1.53989 -3.47948 0
M  V30 16521 H 1549.24 -0.241816 -3.87346 0
M  V30 16522 H 1547.34 2.09355 -3.08223 0
M  V30 16523 H 1547.46 1.07662 -4.66847 0
M  V30 16524 H 1545.82 0.666227 -2.45832 0
M  V30 16525 H 1546.6 -0.746998 -3.35074 0
M  V30 16526 N 1549.05 1.57088 0.126881 0
M  V30 16527 C 1550.3 1.83624 0.834582 0
M  V30 16528 C 1550.61 0.731331 1.81414 0
M  V30 16529 O 1551.82 0.88286 2.56745 0
M  V30 16530 C 1550.27 3.25529 1.5349 0
M  V30 16531 C 1549.88 4.44008 0.59673 0
M  V30 16532 C 1551.62 3.6132 2.22819 0
M  V30 16533 C 1549.53 5.76939 1.29982 0
M  V30 16534 H 1548.46 0.684858 0.315414 0
M  V30 16535 H 1551.11 1.83292 0.087305 0
M  V30 16536 H 1549.49 3.20306 2.32852 0
M  V30 16537 H 1550.67 4.60511 -0.163109 0
M  V30 16538 H 1548.98 4.16399 0.0108081 0
M  V30 16539 H 1551.58 4.57902 2.76098 0
M  V30 16540 H 1551.92 2.88363 3.00254 0
M  V30 16541 H 1552.46 3.68291 1.50354 0
M  V30 16542 H 1549.2 6.53044 0.566925 0
M  V30 16543 H 1548.72 5.64336 2.03187 0
M  V30 16544 H 1550.39 6.20427 1.8352 0
M  V30 16545 N 1550.53 -0.396836 1.52522 0
M  V30 16546 C 1551.49 -1.46695 1.76106 0
M  V30 16547 C 1552.49 -1.47902 0.631005 0
M  V30 16548 O 1553.68 -1.4921 0.898995 0
M  V30 16549 C 1550.81 -2.86033 1.85467 0
M  V30 16550 H 1552 -1.27071 2.71649 0
M  V30 16551 H 1549.56 -0.628096 1.43125 0
M  V30 16552 H 1550.29 -3.11012 0.918816 0
M  V30 16553 H 1550.08 -2.86559 2.67631 0
M  V30 16554 H 1551.57 -3.63587 2.05412 0
M  V30 16555 N 1552.01 -1.43353 -0.654814 0
M  V30 16556 C 1553.25 -1.451 -1.41682 0
M  V30 16557 C 1553.58 -0.0743864 -1.94057 0
M  V30 16558 O 1552.86 0.904515 -1.72188 0
M  V30 16559 C 1553.14 -2.49204 -2.59941 0
M  V30 16560 C 1553 -3.96134 -2.13069 0
M  V30 16561 C 1554.31 -2.50064 -3.62155 0
M  V30 16562 H 1551.43 -0.528339 -0.513836 0
M  V30 16563 H 1554.08 -1.74892 -0.742489 0
M  V30 16564 H 1552.23 -2.2393 -3.1747 0
M  V30 16565 H 1553.9 -4.32459 -1.60552 0
M  V30 16566 H 1552.14 -4.09042 -1.44455 0
M  V30 16567 H 1552.81 -4.64585 -2.98101 0
M  V30 16568 H 1555.29 -2.72587 -3.14382 0
M  V30 16569 H 1554.16 -3.24849 -4.42452 0
M  V30 16570 H 1554.42 -1.53385 -4.14639 0
M  V30 16571 N 1553.48 0.89303 -1.29857 0
M  V30 16572 C 1554.45 1.97944 -1.15546 0
M  V30 16573 C 1555.45 1.60554 -0.088989 0
M  V30 16574 O 1556.64 1.7092 -0.336464 0
M  V30 16575 C 1553.77 3.32126 -0.768442 0
M  V30 16576 H 1554.96 2.12067 -2.12055 0
M  V30 16577 H 1552.51 1.0784 -1.13138 0
M  V30 16578 H 1553.25 3.23704 0.196504 0
M  V30 16579 H 1553.03 3.60631 -1.53907 0
M  V30 16580 H 1554.52 4.11834 -0.691559 0
M  V30 16581 N 1554.96 1.12442 1.10429 0
M  V30 16582 C 1555.87 0.805377 2.20343 0
M  V30 16583 C 1556.89 -0.205836 1.72778 0
M  V30 16584 O 1558.06 -0.0394195 2.01361 0
M  V30 16585 C 1555.13 0.264711 3.45688 0
M  V30 16586 C 1554.19 1.33586 4.07987 0
M  V30 16587 C 1553.42 0.8209 5.27349 0
M  V30 16588 O 1553.65 -0.345303 5.69354 0
M  V30 16589 O 1552.58 1.59052 5.80505 0
M  V30 16590 H 1556.41 1.7234 2.50065 0
M  V30 16591 H 1553.99 0.901084 1.19167 0
M  V30 16592 H 1555.87 -0.0319164 4.21388 0
M  V30 16593 H 1554.55 -0.625869 3.17592 0
M  V30 16594 H 1553.45 1.68566 3.33971 0
M  V30 16595 H 1554.79 2.20021 4.40286 0
M  V30 16596 N 1556.44 -1.28223 0.91633 0
M  V30 16597 C 1557.66 -1.99523 0.566147 0
M  V30 16598 C 1558.09 -1.68 -0.846034 0
M  V30 16599 O 1557.45 -0.913838 -1.56584 0
M  V30 16600 C 1557.5 -3.51949 0.785114 0
M  V30 16601 O 1556.6 -4.1211 -0.154686 0
M  V30 16602 H 1555.94 -0.626764 0.219232 0
M  V30 16603 H 1558.47 -1.63313 1.23247 0
M  V30 16604 H 1558.48 -4.02016 0.696224 0
M  V30 16605 H 1557.16 -3.74227 1.81457 0
M  V30 16606 H 1555.73 -3.72896 -0.0168463 0
M  V30 16607 N 1557.92 -0.68059 -1.42147 0
M  V30 16608 C 1559.19 -0.133957 -1.95141 0
M  V30 16609 C 1559.57 1.3526 -1.62074 0
M  V30 16610 O 1558.92 2.09165 -0.919898 0
M  V30 16611 C 1559.13 -0.409266 -3.46592 0
M  V30 16612 C 1560.48 -0.328899 -4.23324 0
M  V30 16613 O 1561.5 -0.343337 -3.54541 0
M  V30 16614 O 1560.36 -0.276076 -5.45802 0
M  V30 16615 H 1557.46 -0.00623443 -0.826977 0
M  V30 16616 H 1560 -0.755719 -1.51944 0
M  V30 16617 H 1558.78 -1.43883 -3.63887 0
M  V30 16618 H 1558.4 0.244216 -3.96849 0
M  V30 16619 N 1559.4 1.51781 -0.424309 0
M  V30 16620 C 1560.62 2.06387 0.145548 0
M  V30 16621 C 1561.04 1.29299 1.37576 0
M  V30 16622 O 1560.4 0.348952 1.79133 0
M  V30 16623 C 1560.45 3.58288 0.48083 0
M  V30 16624 O 1560.17 4.32463 -0.700546 0
M  V30 16625 C 1561.67 4.29364 1.10278 0
M  V30 16626 H 1558.89 0.67086 0.0136908 0
M  V30 16627 H 1561.43 1.95511 -0.599639 0
M  V30 16628 H 1559.59 3.69122 1.17591 0
M  V30 16629 H 1560 5.22839 -0.417035 0
M  V30 16630 H 1561.48 5.36776 1.28747 0
M  V30 16631 H 1561.95 3.86815 2.08017 0
M  V30 16632 H 1562.56 4.2294 0.447458 0
M  V30 16633 N 1560.87 0.155222 1.56834 0
M  V30 16634 C 1562.15 -0.539327 1.88018 0
M  V30 16635 C 1562.53 -1.8241 1.06253 0
M  V30 16636 O 1561.88 -2.27996 0.151721 0
M  V30 16637 C 1562.09 -0.796826 3.39782 0
M  V30 16638 C 1563.44 -1.13397 4.09178 0
M  V30 16639 O 1564.46 -0.885907 3.45007 0
M  V30 16640 O 1563.32 -1.60117 5.22518 0
M  V30 16641 H 1560.41 -0.276066 0.779562 0
M  V30 16642 H 1562.96 0.192451 1.68605 0
M  V30 16643 H 1561.73 0.112097 3.91139 0
M  V30 16644 H 1561.35 -1.5825 3.6475 0
M  V30 16645 N 1562.35 -1.57153 -0.118549 0
M  V30 16646 C 1563.63 -1.75846 -0.856587 0
M  V30 16647 C 1564.01 -0.730801 -1.98047 0
M  V30 16648 O 1563.36 0.245156 -2.27181 0
M  V30 16649 C 1563.57 -3.20864 -1.37286 0
M  V30 16650 C 1564.91 -3.83378 -1.82501 0
M  V30 16651 O 1565.94 -3.24469 -1.46964 0
M  V30 16652 O 1564.8 -4.86922 -2.48132 0
M  V30 16653 H 1561.89 -0.72002 -0.406817 0
M  V30 16654 H 1564.44 -1.69392 -0.102254 0
M  V30 16655 H 1563.21 -3.87177 -0.566531 0
M  V30 16656 H 1562.83 -3.31858 -2.18988 0
M  V30 16657 N 1563.83 0.388742 -1.5273 0
M  V30 16658 C 1564.76 1.49441 -1.73781 0
M  V30 16659 C 1565.77 1.50602 -0.618285 0
M  V30 16660 O 1566.96 1.545 -0.893986 0
M  V30 16661 C 1564.06 2.88288 -1.78166 0
M  V30 16662 C 1563.24 3.11089 -3.07478 0
M  V30 16663 C 1562.3 4.2992 -3.03407 0
M  V30 16664 O 1561.32 4.26212 -3.77269 0
M  V30 16665 N 1562.52 5.36121 -2.2261 0
M  V30 16666 H 1565.29 1.3177 -2.69178 0
M  V30 16667 H 1562.85 0.578258 -1.51221 0
M  V30 16668 H 1564.84 3.65884 -1.72949 0
M  V30 16669 H 1563.41 2.99317 -0.901553 0
M  V30 16670 H 1562.63 2.21356 -3.26183 0
M  V30 16671 H 1563.92 3.23177 -3.92981 0
M  V30 16672 H 1563.32 5.41988 -1.62067 0
M  V30 16673 H 1561.87 6.12381 -2.23232 0
M  V30 16674 N 1565.31 1.43698 0.647203 0
M  V30 16675 C 1566.22 1.51781 1.78884 0
M  V30 16676 C 1567.23 0.404498 1.69233 0
M  V30 16677 O 1568.41 0.659509 1.90296 0
M  V30 16678 C 1565.47 1.44408 3.15194 0
M  V30 16679 C 1564.54 2.6646 3.36597 0
M  V30 16680 C 1563.77 2.59429 4.66403 0
M  V30 16681 O 1563.99 1.64537 5.46154 0
M  V30 16682 O 1562.93 3.50027 4.89658 0
M  V30 16683 H 1566.75 2.48198 1.75019 0
M  V30 16684 H 1564.34 1.25766 0.806436 0
M  V30 16685 H 1566.22 1.42761 3.96481 0
M  V30 16686 H 1564.89 0.511292 3.19637 0
M  V30 16687 H 1563.8 2.73679 2.5505 0
M  V30 16688 H 1565.13 3.58732 3.37005 0
M  V30 16689 N 1566.79 -0.886131 1.30328 0
M  V30 16690 C 1567.7 -2.02453 1.18532 0
M  V30 16691 C 1568.71 -1.7368 0.105506 0
M  V30 16692 O 1569.89 -1.98838 0.320217 0
M  V30 16693 C 1566.95 -3.3543 0.876792 0
M  V30 16694 C 1566.01 -3.77633 2.04185 0
M  V30 16695 C 1565.25 -5.04264 1.74795 0
M  V30 16696 O 1565.47 -5.66388 0.675323 0
M  V30 16697 O 1564.4 -5.42847 2.60001 0
M  V30 16698 H 1568.23 -2.15333 2.14162 0
M  V30 16699 H 1565.82 -1.01193 1.09911 0
M  V30 16700 H 1567.7 -4.15206 0.719882 0
M  V30 16701 H 1566.37 -3.23662 -0.0496117 0
M  V30 16702 H 1565.28 -2.98567 2.25408 0
M  V30 16703 H 1566.61 -3.94004 2.94994 0
M  V30 16704 N 1568.26 -1.13026 -1.09832 0
M  V30 16705 C 1569.54 -0.800667 -1.78462 0
M  V30 16706 C 1569.92 0.708508 -1.98855 0
M  V30 16707 O 1569.27 1.64436 -1.58661 0
M  V30 16708 C 1569.48 -1.58284 -3.11042 0
M  V30 16709 C 1570.83 -1.77285 -3.85818 0
M  V30 16710 O 1571.85 -1.54848 -3.20781 0
M  V30 16711 O 1570.71 -2.14693 -5.02563 0
M  V30 16712 H 1567.8 -0.291895 -0.773774 0
M  V30 16713 H 1570.35 -1.23464 -1.16425 0
M  V30 16714 H 1569.12 -2.60867 -2.91657 0
M  V30 16715 H 1568.75 -1.14353 -3.80801 0
M  V30 16716 N 1569.74 1.27735 -0.923117 0
M  V30 16717 C 1570.65 2.30734 -0.424124 0
M  V30 16718 C 1571.67 1.66872 0.49291 0
M  V30 16719 O 1572.84 1.97843 0.37683 0
M  V30 16720 C 1569.91 3.45227 0.319254 0
M  V30 16721 C 1568.97 4.2462 -0.632137 0
M  V30 16722 C 1568.2 5.33646 0.0758596 0
M  V30 16723 O 1568.43 5.55481 1.29602 0
M  V30 16724 O 1567.36 5.98966 -0.593624 0
M  V30 16725 H 1571.19 2.75444 -1.27923 0
M  V30 16726 H 1568.77 1.32601 -0.688288 0
M  V30 16727 H 1570.65 4.14874 0.73873 0
M  V30 16728 H 1569.33 3.02582 1.15004 0
M  V30 16729 H 1568.24 3.57525 -1.1012 0
M  V30 16730 H 1569.57 4.70969 -1.43001 0
M  V30 16731 N 1571.22 0.688118 1.41784 0
M  V30 16732 C 1572.13 0.018397 2.34593 0
M  V30 16733 C 1573.15 -0.774275 1.55824 0
M  V30 16734 O 1574.32 -0.713546 1.88336 0
M  V30 16735 C 1571.39 -0.911914 3.34492 0
M  V30 16736 C 1570.45 -0.112284 4.29153 0
M  V30 16737 C 1569.68 -0.998285 5.2428 0
M  V30 16738 O 1569.9 -2.23782 5.24669 0
M  V30 16739 O 1568.84 -0.451951 6.00201 0
M  V30 16740 H 1572.66 0.783224 2.93427 0
M  V30 16741 H 1570.25 0.448413 1.42512 0
M  V30 16742 H 1572.13 -1.4456 3.95829 0
M  V30 16743 H 1570.81 -1.65636 2.78112 0
M  V30 16744 H 1569.71 0.465822 3.71189 0
M  V30 16745 H 1571.05 0.593338 4.88611 0
M  V30 16746 N 1572.7 -1.51554 0.432352 0
M  V30 16747 C 1573.65 -2.29204 -0.396044 0
M  V30 16748 C 1574.64 -1.34846 -1.02532 0
M  V30 16749 O 1575.85 -1.52209 -0.960861 0
M  V30 16750 H 1572.22 -0.737587 -0.146525 0
M  V30 16751 H 1574.19 -2.97085 0.279781 0
M  V30 16752 C 1572.94 -3.1427 -1.4876 0
M  V30 16753 H 1572.26 -3.8676 -1.01274 0
M  V30 16754 H 1573.7 -3.71667 -2.04058 0
M  V30 16755 C 1572.16 -2.29322 -2.46806 0
M  V30 16756 O 1572.69 -1.94941 -3.51228 0
M  V30 16757 N 1570.9 -1.92641 -2.17573 0
M  V30 16758 H 1570.45 -2.208 -1.32685 0
M  V30 16759 H 1570.4 -1.361 -2.83415 0
M  V30 16760 N 1574.18 -0.163538 -1.56749 0
M  V30 16761 C 1575.4 0.493087 -2.01453 0
M  V30 16762 C 1575.83 1.56535 -1.043 0
M  V30 16763 O 1575.18 1.81287 -0.0213039 0
M  V30 16764 C 1575.23 1.05546 -3.44808 0
M  V30 16765 O 1574.34 2.16977 -3.50706 0
M  V30 16766 H 1573.68 0.118905 -0.653267 0
M  V30 16767 H 1576.21 -0.265139 -2.02875 0
M  V30 16768 H 1576.22 1.38002 -3.83953 0
M  V30 16769 H 1574.89 0.270333 -4.1502 0
M  V30 16770 H 1573.47 1.85625 -3.23416 0
M  V30 16771 N 1575.65 1.57214 0.110213 0
M  V30 16772 C 1576.58 2.04015 1.13579 0
M  V30 16773 C 1577.57 0.926215 1.42672 0
M  V30 16774 O 1578.75 1.19651 1.52962 0
M  V30 16775 C 1575.88 2.45187 2.45969 0
M  V30 16776 C 1574.83 3.60105 2.31319 0
M  V30 16777 C 1574.16 3.87205 3.68749 0
M  V30 16778 C 1575.46 4.91526 1.76635 0
M  V30 16779 H 1577.15 2.89944 0.746496 0
M  V30 16780 H 1574.7 1.39488 0.357642 0
M  V30 16781 H 1576.65 2.76534 3.17973 0
M  V30 16782 H 1575.38 1.56238 2.86805 0
M  V30 16783 H 1574.04 3.28981 1.61762 0
M  V30 16784 H 1573.68 2.95448 4.07087 0
M  V30 16785 H 1573.38 4.64563 3.59798 0
M  V30 16786 H 1574.91 4.21013 4.42245 0
M  V30 16787 H 1576.32 5.21351 2.38465 0
M  V30 16788 H 1574.72 5.72944 1.78482 0
M  V30 16789 H 1575.79 4.79456 0.724573 0
M  V30 16790 N 1577.13 -0.380637 1.52934 0
M  V30 16791 C 1578.38 -1.12261 1.68053 0
M  V30 16792 C 1578.7 -1.90263 0.427191 0
M  V30 16793 O 1577.97 -1.87768 -0.558559 0
M  V30 16794 H 1576.55 -0.41742 0.619491 0
M  V30 16795 H 1579.21 -0.430906 1.90077 0
M  V30 16796 H 1578.31 -1.82085 2.53479 0
M  V30 16797 N 1578.61 -1.44039 -0.639573 0
M  V30 16798 C 1579.84 -1.49844 -1.42669 0
M  V30 16799 C 1580.25 -0.120599 -1.88414 0
M  V30 16800 O 1579.61 0.871875 -1.60327 0
M  V30 16801 C 1579.66 -2.45597 -2.65263 0
M  V30 16802 O 1579.38 -3.78023 -2.21427 0
M  V30 16803 C 1580.88 -2.60781 -3.5848 0
M  V30 16804 H 1578.1 -0.508477 -0.437826 0
M  V30 16805 H 1580.65 -1.88919 -0.782923 0
M  V30 16806 H 1578.8 -2.09679 -3.2575 0
M  V30 16807 H 1579.22 -4.29642 -3.00846 0
M  V30 16808 H 1580.69 -3.31826 -4.4113 0
M  V30 16809 H 1581.17 -1.65727 -4.06732 0
M  V30 16810 H 1581.77 -2.97565 -3.03867 0
M  V30 16811 N 1580.09 0.879207 -1.30796 0
M  V30 16812 C 1581 2.01822 -1.19604 0
M  V30 16813 C 1582.01 1.73621 -0.114715 0
M  V30 16814 O 1583.19 1.98665 -0.330757 0
M  V30 16815 C 1580.26 3.3496 -0.894569 0
M  V30 16816 C 1579.32 3.76545 -2.06185 0
M  V30 16817 C 1578.55 5.0333 -1.77467 0
M  V30 16818 O 1578.77 5.66022 -0.70535 0
M  V30 16819 O 1577.71 5.41461 -2.62876 0
M  V30 16820 H 1581.53 2.14194 -2.15301 0
M  V30 16821 H 1579.12 1.00608 -1.10446 0
M  V30 16822 H 1581 4.14818 -0.741891 0
M  V30 16823 H 1579.67 3.23684 0.0324464 0
M  V30 16824 H 1578.58 2.97367 -2.26988 0
M  V30 16825 H 1579.91 3.92434 -2.97079 0
M  V30 16826 N 1581.57 1.13606 1.09231 0
M  V30 16827 C 1582.48 0.828702 2.19476 0
M  V30 16828 C 1583.49 -0.187499 1.72987 0
M  V30 16829 O 1584.67 -0.0180602 2.01392 0
M  V30 16830 C 1581.73 0.301361 3.45388 0
M  V30 16831 C 1580.8 1.37906 4.06547 0
M  V30 16832 C 1580.03 0.876786 5.26449 0
M  V30 16833 O 1580.25 -0.284896 5.69688 0
M  V30 16834 O 1579.19 1.652 5.78785 0
M  V30 16835 H 1583.01 1.74982 2.48223 0
M  V30 16836 H 1580.6 0.913673 1.18205 0
M  V30 16837 H 1582.48 0.0127792 4.21398 0
M  V30 16838 H 1581.15 -0.592149 3.18238 0
M  V30 16839 H 1580.06 1.72098 3.32164 0
M  V30 16840 H 1581.39 2.24678 4.37927 0
M  V30 16841 N 1583.05 -1.27244 0.929878 0
M  V30 16842 C 1583.96 -2.30506 0.436355 0
M  V30 16843 C 1584.97 -1.67131 -0.484054 0
M  V30 16844 O 1586.15 -1.9804 -0.366332 0
M  V30 16845 C 1583.21 -3.45391 -0.300942 0
M  V30 16846 C 1582.27 -4.24279 0.654647 0
M  V30 16847 C 1581.51 -5.33679 -0.047558 0
M  V30 16848 O 1581.73 -5.56161 -1.26654 0
M  V30 16849 O 1580.66 -5.98642 0.62538 0
M  V30 16850 H 1584.49 -2.74762 1.29382 0
M  V30 16851 H 1582.07 -1.32234 0.695311 0
M  V30 16852 H 1583.96 -4.1526 -0.716718 0
M  V30 16853 H 1582.63 -3.03187 -1.13398 0
M  V30 16854 H 1581.54 -3.56936 1.12015 0
M  V30 16855 H 1582.87 -4.70204 1.45497 0
M  V30 16856 N 1584.52 -0.695628 -1.41417 0
M  V30 16857 C 1585.75 -0.234163 -2.06074 0
M  V30 16858 C 1586.17 1.10796 -1.52006 0
M  V30 16859 O 1585.53 1.6936 -0.64705 0
M  V30 16860 C 1585.58 -0.202353 -3.60032 0
M  V30 16861 O 1584.68 0.822767 -4.04109 0
M  V30 16862 H 1584.02 -0.114395 -0.654072 0
M  V30 16863 H 1586.55 -0.950503 -1.81181 0
M  V30 16864 H 1586.56 -0.0332321 -4.07986 0
M  V30 16865 H 1585.24 -1.18188 -3.98754 0
M  V30 16866 H 1583.82 0.622995 -3.67659 0
M  V30 16867 N 1586 1.51322 -0.440383 0
M  V30 16868 C 1587.23 2.07017 0.126018 0
M  V30 16869 C 1587.65 1.30537 1.35431 0
M  V30 16870 O 1587.01 0.344178 1.78003 0
M  V30 16871 C 1587.06 3.58101 0.4238 0
M  V30 16872 O 1586.16 3.83772 1.50973 0
M  V30 16873 H 1585.5 0.664 0.000530178 0
M  V30 16874 H 1588.03 1.94897 -0.622594 0
M  V30 16875 H 1588.04 4.02405 0.673363 0
M  V30 16876 H 1586.72 4.13191 -0.473932 0
M  V30 16877 H 1585.29 3.51329 1.24989 0
M  V30 16878 N 1587.48 0.171848 1.5666 0
M  V30 16879 C 1588.43 -0.758237 2.17989 0
M  V30 16880 C 1589.4 -1.22654 1.12006 0
M  V30 16881 O 1590.58 -1.29461 1.40159 0
M  V30 16882 C 1587.72 -1.98189 2.82516 0
M  V30 16883 C 1586.83 -1.55711 4.02962 0
M  V30 16884 C 1585.97 -2.73447 4.55412 0
M  V30 16885 C 1585.01 -2.27462 5.68267 0
M  V30 16886 N 1584.15 -3.38293 6.15225 0
M  V30 16887 H 1588.99 -0.228467 2.97123 0
M  V30 16888 H 1586.52 -0.10104 1.46753 0
M  V30 16889 H 1588.48 -2.6996 3.18084 0
M  V30 16890 H 1587.11 -2.48536 2.05985 0
M  V30 16891 H 1586.16 -0.736126 3.7321 0
M  V30 16892 H 1587.47 -1.17957 4.84652 0
M  V30 16893 H 1586.63 -3.53374 4.93165 0
M  V30 16894 H 1585.37 -3.14462 3.7278 0
M  V30 16895 H 1584.37 -1.45982 5.30065 0
M  V30 16896 H 1585.6 -1.87505 6.52701 0
M  V30 16897 H 1583.54 -3.78882 5.35522 0
M  V30 16898 H 1583.46 -3.04633 6.91907 0
M  V30 16899 H 1584.73 -4.18503 6.57629 0
M  V30 16900 N 1588.96 -1.5727 -0.101874 0
M  V30 16901 C 1589.89 -1.98253 -1.15014 0
M  V30 16902 C 1590.9 -0.884147 -1.36699 0
M  V30 16903 O 1592.09 -1.16232 -1.35471 0
M  V30 16904 C 1589.19 -2.28043 -2.50698 0
M  V30 16905 C 1588.36 -3.59343 -2.49383 0
M  V30 16906 C 1587.42 -3.77147 -3.66943 0
M  V30 16907 O 1586.45 -4.49075 -3.49744 0
M  V30 16908 N 1587.65 -3.1721 -4.86167 0
M  V30 16909 H 1590.42 -2.88787 -0.801375 0
M  V30 16910 H 1587.98 -1.59264 -0.290941 0
M  V30 16911 H 1589.97 -2.37153 -3.27934 0
M  V30 16912 H 1588.54 -1.4355 -2.77691 0
M  V30 16913 H 1587.76 -3.61264 -1.57741 0
M  V30 16914 H 1589.05 -4.45612 -2.45576 0
M  V30 16915 H 1588.45 -2.58772 -5.03044 0
M  V30 16916 H 1587 -3.31816 -5.61018 0
M  V30 16917 N 1590.44 0.372521 -1.53134 0
M  V30 16918 C 1591.37 1.4759 -1.75357 0
M  V30 16919 C 1592.38 1.49938 -0.634223 0
M  V30 16920 O 1593.57 1.53543 -0.910322 0
M  V30 16921 C 1590.67 2.86382 -1.81214 0
M  V30 16922 C 1589.84 3.0781 -3.1076 0
M  V30 16923 C 1588.9 4.26677 -3.07949 0
M  V30 16924 O 1587.93 4.22186 -3.81769 0
M  V30 16925 N 1589.13 5.33729 -2.28283 0
M  V30 16926 H 1591.89 1.28908 -2.7056 0
M  V30 16927 H 1589.46 0.562186 -1.51826 0
M  V30 16928 H 1591.45 3.64029 -1.7682 0
M  V30 16929 H 1590.02 2.98344 -0.933249 0
M  V30 16930 H 1589.24 2.17884 -3.28512 0
M  V30 16931 H 1590.53 3.18991 -3.96386 0
M  V30 16932 H 1589.92 5.40238 -1.67806 0
M  V30 16933 H 1588.48 6.09979 -2.29714 0
M  V30 16934 N 1591.91 1.44376 0.631925 0
M  V30 16935 C 1592.82 1.5367 1.77264 0
M  V30 16936 C 1593.84 0.422425 1.68794 0
M  V30 16937 O 1595.02 0.679656 1.89585 0
M  V30 16938 C 1592.08 1.47743 3.13644 0
M  V30 16939 C 1591.14 2.70015 3.33752 0
M  V30 16940 C 1590.37 2.64362 4.63626 0
M  V30 16941 O 1590.6 1.7032 5.44378 0
M  V30 16942 O 1589.53 3.55201 4.85918 0
M  V30 16943 H 1593.36 2.5004 1.72376 0
M  V30 16944 H 1590.94 1.26614 0.793052 0
M  V30 16945 H 1592.82 1.46958 3.94945 0
M  V30 16946 H 1591.5 0.545165 3.19076 0
M  V30 16947 H 1590.41 2.76369 2.52133 0
M  V30 16948 H 1591.74 3.62286 3.33181 0
M  V30 16949 N 1593.39 -0.872258 1.31261 0
M  V30 16950 C 1594.62 -1.6632 1.23905 0
M  V30 16951 C 1595.04 -1.87109 -0.192878 0
M  V30 16952 O 1594.4 -1.4112 -1.1382 0
M  V30 16953 C 1594.45 -3.00979 1.98606 0
M  V30 16954 O 1593.55 -3.90642 1.32183 0
M  V30 16955 H 1592.89 -0.507736 0.427902 0
M  V30 16956 H 1595.42 -1.0877 1.73292 0
M  V30 16957 H 1595.43 -3.50931 2.08113 0
M  V30 16958 H 1594.11 -2.85168 3.02741 0
M  V30 16959 H 1592.68 -3.4909 1.31112 0
M  V30 16960 N 1594.87 -1.14184 -1.08627 0
M  V30 16961 C 1595.8 -0.784492 -2.15356 0
M  V30 16962 C 1596.81 0.197581 -1.61597 0
M  V30 16963 O 1598 -0.0238037 -1.78484 0
M  V30 16964 C 1595.1 -0.143433 -3.38596 0
M  V30 16965 C 1594.28 -1.15967 -4.21747 0
M  V30 16966 C 1593.34 -0.542786 -5.23393 0
M  V30 16967 O 1592.36 -1.20512 -5.56296 0
M  V30 16968 N 1593.56 0.681466 -5.76486 0
M  V30 16969 H 1596.33 -1.70294 -2.46617 0
M  V30 16970 H 1593.89 -1.03596 -1.24417 0
M  V30 16971 H 1595.88 0.281703 -4.03718 0
M  V30 16972 H 1594.45 0.67811 -3.05156 0
M  V30 16973 H 1593.67 -1.76182 -3.52638 0
M  V30 16974 H 1594.96 -1.84623 -4.74122 0
M  V30 16975 H 1594.36 1.23819 -5.51983 0
M  V30 16976 H 1592.91 1.04914 -6.43301 0
M  V30 16977 N 1596.35 1.26749 -0.936613 0
M  V30 16978 C 1597.76 1.75925 -0.62507 0
M  V30 16979 C 1598.11 1.76359 0.859771 0
M  V30 16980 O 1597.24 1.37277 1.67284 0
M  V30 16981 C 1597.83 3.19474 -1.12791 0
M  V30 16982 C 1596.39 3.66282 -0.866872 0
M  V30 16983 C 1595.54 2.45913 -1.28148 0
M  V30 16984 H 1598.49 1.1289 -1.11542 0
M  V30 16985 H 1598.51 3.77465 -0.479643 0
M  V30 16986 H 1598.02 3.19126 -2.20862 0
M  V30 16987 H 1596.12 3.72065 0.199647 0
M  V30 16988 H 1596.23 4.55319 -1.49067 0
M  V30 16989 H 1594.6 2.44894 -0.699941 0
M  V30 16990 H 1595.38 2.4827 -2.37101 0
M  V30 16991 N 1597.83 0.703118 1.41046 0
M  V30 16992 C 1599.07 0.237638 2.01403 0
M  V30 16993 C 1599.41 -1.16217 1.55587 0
M  V30 16994 O 1598.68 -1.78593 0.770377 0
M  V30 16995 C 1598.96 0.303738 3.58817 0
M  V30 16996 C 1598.82 1.74103 4.14739 0
M  V30 16997 C 1600.14 -0.332186 4.38845 0
M  V30 16998 H 1597.25 0.0878243 0.731749 0
M  V30 16999 H 1599.9 0.893264 1.67693 0
M  V30 17000 H 1598.05 -0.254485 3.87666 0
M  V30 17001 H 1599.72 2.35368 3.96736 0
M  V30 17002 H 1597.96 2.27277 3.69496 0
M  V30 17003 H 1598.63 1.73876 5.239 0
M  V30 17004 H 1601.11 0.143312 4.15853 0
M  V30 17005 H 1599.98 -0.255429 5.48305 0
M  V30 17006 H 1600.25 -1.41397 4.18878 0
M  V30 17007 N 1599.3 -1.51086 0.448402 0
M  V30 17008 C 1600.53 -2.07081 -0.115038 0
M  V30 17009 C 1600.95 -1.31253 -1.34737 0
M  V30 17010 O 1600.31 -0.353613 -1.77818 0
M  V30 17011 C 1600.36 -3.58321 -0.404803 0
M  V30 17012 O 1599.46 -3.84567 -1.48936 0
M  V30 17013 H 1598.81 -0.663993 0.00299118 0
M  V30 17014 H 1601.34 -1.94564 0.632921 0
M  V30 17015 H 1601.35 -4.02756 -0.652013 0
M  V30 17016 H 1600.02 -4.12934 0.495838 0
M  V30 17017 H 1598.6 -3.51987 -1.23124 0
M  V30 17018 N 1600.78 -0.180154 -1.56567 0
M  V30 17019 C 1602.03 0.461606 -1.96758 0
M  V30 17020 C 1602.35 1.63179 -1.0676 0
M  V30 17021 O 1601.62 1.95429 -0.135762 0
M  V30 17022 H 1600.2 0.173526 -0.726566 0
M  V30 17023 H 1602.86 -0.2634 -1.93112 0
M  V30 17024 H 1601.96 0.815729 -3.01251 0
M  V30 17025 N 1602.26 1.57322 0.0935319 0
M  V30 17026 C 1603.51 1.858 0.795165 0
M  V30 17027 C 1603.83 0.769078 1.79193 0
M  V30 17028 O 1603.1 -0.204511 1.9483 0
M  V30 17029 H 1601.68 0.68557 0.296653 0
M  V30 17030 H 1604.34 1.94756 0.0747892 0
M  V30 17031 H 1603.44 2.82588 1.32479 0
M  V30 17032 N 1603.74 -0.364395 1.53329 0
M  V30 17033 C 1605.15 -0.941133 1.61244 0
M  V30 17034 C 1605.5 -1.90223 0.480596 0
M  V30 17035 O 1604.63 -2.12805 -0.392805 0
M  V30 17036 C 1605.22 -1.7137 2.92263 0
M  V30 17037 C 1603.78 -2.23976 3.02509 0
M  V30 17038 C 1602.93 -1.05253 2.56548 0
M  V30 17039 H 1605.88 -0.143153 1.58053 0
M  V30 17040 H 1605.9 -2.575 2.80132 0
M  V30 17041 H 1605.41 -1.01395 3.74621 0
M  V30 17042 H 1603.51 -2.9719 2.24741 0
M  V30 17043 H 1603.62 -2.51777 4.07609 0
M  V30 17044 H 1601.99 -1.41986 2.11452 0
M  V30 17045 H 1602.77 -0.367744 3.41325 0
M  V30 17046 N 1605.22 -1.44709 -0.62426 0
M  V30 17047 C 1606.13 -1.54608 -1.76447 0
M  V30 17048 C 1607.14 -0.43137 -1.68568 0
M  V30 17049 O 1608.32 -0.6897 -1.89222 0
M  V30 17050 C 1605.38 -1.49404 -3.12857 0
M  V30 17051 C 1604.44 -2.71782 -3.32315 0
M  V30 17052 C 1603.68 -2.66817 -4.62217 0
M  V30 17053 O 1603.9 -1.73205 -5.43467 0
M  V30 17054 O 1602.83 -3.57773 -4.84027 0
M  V30 17055 H 1606.66 -2.50951 -1.71048 0
M  V30 17056 H 1604.25 -1.27033 -0.786326 0
M  V30 17057 H 1606.13 -1.4905 -3.9416 0
M  V30 17058 H 1604.8 -0.562078 -3.18783 0
M  V30 17059 H 1603.71 -2.77702 -2.50664 0
M  V30 17060 H 1605.04 -3.64048 -3.31255 0
M  V30 17061 N 1606.69 0.865285 -1.31722 0
M  V30 17062 C 1607.66 1.95449 -1.19718 0
M  V30 17063 C 1608.66 1.60329 -0.123025 0
M  V30 17064 O 1609.85 1.70168 -0.372643 0
M  V30 17065 C 1606.98 3.30421 -0.838718 0
M  V30 17066 H 1608.17 2.07522 -2.16506 0
M  V30 17067 H 1605.73 1.05416 -1.154 0
M  V30 17068 H 1606.46 3.24048 0.127797 0
M  V30 17069 H 1606.25 3.57286 -1.61522 0
M  V30 17070 H 1607.74 4.10274 -0.77876 0
M  V30 17071 N 1608.17 1.14759 1.0802 0
M  V30 17072 C 1609.58 0.928711 1.61963 0
M  V30 17073 C 1609.93 -0.531568 1.88862 0
M  V30 17074 O 1609.06 -1.40129 1.64902 0
M  V30 17075 C 1609.65 1.67943 2.94246 0
M  V30 17076 C 1608.21 1.50602 3.44958 0
M  V30 17077 C 1607.36 1.69938 2.19126 0
M  V30 17078 H 1610.31 1.29882 0.911945 0
M  V30 17079 H 1610.33 1.14493 3.62866 0
M  V30 17080 H 1609.84 2.7422 2.74636 0
M  V30 17081 H 1607.95 0.466901 3.69663 0
M  V30 17082 H 1608.06 2.27857 4.21447 0
M  V30 17083 H 1606.42 1.12534 2.28491 0
M  V30 17084 H 1607.21 2.77566 2.0202 0
M  V30 17085 N 1609.65 -1.26251 0.943322 0
M  V30 17086 C 1611.06 -1.75591 0.634391 0
M  V30 17087 C 1611.41 -1.76812 -0.850406 0
M  V30 17088 O 1610.54 -1.38162 -1.66554 0
M  V30 17089 C 1611.13 -3.18871 1.14484 0
M  V30 17090 C 1609.69 -3.65817 0.886285 0
M  V30 17091 C 1608.84 -2.4523 1.2945 0
M  V30 17092 H 1611.79 -1.12297 1.12139 0
M  V30 17093 H 1611.81 -3.77205 0.499654 0
M  V30 17094 H 1611.32 -3.17951 2.22551 0
M  V30 17095 H 1609.42 -3.72165 -0.179913 0
M  V30 17096 H 1609.54 -4.54523 1.5148 0
M  V30 17097 H 1607.9 -2.44519 0.712919 0
M  V30 17098 H 1608.68 -2.47009 2.38415 0
M  V30 17099 N 1611.13 -0.710588 -1.40671 0
M  V30 17100 C 1612.41 -0.175319 -1.94813 0
M  V30 17101 C 1612.79 1.31792 -1.64906 0
M  V30 17102 O 1612.13 2.07167 -0.964058 0
M  V30 17103 C 1612.34 -0.482691 -3.45646 0
M  V30 17104 C 1613.69 -0.418619 -4.22531 0
M  V30 17105 O 1614.72 -0.418463 -3.53733 0
M  V30 17106 O 1613.58 -0.391787 -5.45094 0
M  V30 17107 H 1610.67 -0.0237744 -0.826658 0
M  V30 17108 H 1613.22 -0.787778 -1.50307 0
M  V30 17109 H 1611.99 -1.51569 -3.60753 0
M  V30 17110 H 1611.61 0.159984 -3.97278 0
M  V30 17111 N 1612.61 1.50847 -0.456408 0
M  V30 17112 C 1613.83 2.07139 0.104054 0
M  V30 17113 C 1614.26 1.31966 1.34039 0
M  V30 17114 O 1613.62 0.363038 1.77628 0
M  V30 17115 C 1613.66 3.5853 0.385794 0
M  V30 17116 O 1612.77 3.85351 1.46895 0
M  V30 17117 H 1612.11 0.663968 -0.00651246 0
M  V30 17118 H 1614.64 1.94226 -0.64323 0
M  V30 17119 H 1614.65 4.03097 0.630644 0
M  V30 17120 H 1613.32 4.12665 -0.51773 0
M  V30 17121 H 1611.9 3.52635 1.21256 0
M  V30 17122 N 1614.09 0.188454 1.56469 0
M  V30 17123 C 1615.5 -0.167487 1.58719 0
M  V30 17124 C 1615.7 -1.61543 1.20442 0
M  V30 17125 O 1614.76 -2.34985 0.924041 0
M  V30 17126 C 1616.07 0.128854 3.00424 0
M  V30 17127 C 1617.62 0.0684301 3.12925 0
M  V30 17128 C 1618.09 0.337991 4.56751 0
M  V30 17129 N 1619.58 0.286373 4.62314 0
M  V30 17130 C 1620.32 0.468886 5.7148 0
M  V30 17131 N 1619.82 0.711388 6.89138 0
M  V30 17132 N 1621.61 0.403602 5.60649 0
M  V30 17133 H 1613.76 1.13339 1.79633 0
M  V30 17134 H 1616.02 0.451885 0.833369 0
M  V30 17135 H 1615.73 1.13255 3.32966 0
M  V30 17136 H 1615.6 -0.571644 3.72843 0
M  V30 17137 H 1617.99 -0.925864 2.802 0
M  V30 17138 H 1618.07 0.801903 2.42906 0
M  V30 17139 H 1617.71 1.32957 4.90189 0
M  V30 17140 H 1617.64 -0.416293 5.24952 0
M  V30 17141 H 1620.14 0.105286 3.77753 0
M  V30 17142 H 1620.45 0.839643 7.68225 0
M  V30 17143 H 1618.79 0.748205 6.90961 0
M  V30 17144 H 1621.98 0.214616 4.67608 0
M  V30 17145 H 1622.16 0.549261 6.45668 0
M  V30 17146 N 1615.56 -1.5737 -0.0851874 0
M  V30 17147 C 1616.79 -1.90802 -0.800137 0
M  V30 17148 C 1617.21 -0.783132 -1.71792 0
M  V30 17149 O 1616.56 0.244331 -1.80857 0
M  V30 17150 C 1616.61 -3.2391 -1.60513 0
M  V30 17151 O 1616.34 -4.32072 -0.724253 0
M  V30 17152 C 1617.84 -3.7127 -2.42226 0
M  V30 17153 H 1615.06 -0.630988 -0.228242 0
M  V30 17154 H 1617.6 -2.04414 -0.0594587 0
M  V30 17155 H 1615.76 -3.11867 -2.29822 0
M  V30 17156 H 1616.17 -5.08571 -1.28279 0
M  V30 17157 H 1617.64 -4.67074 -2.94187 0
M  V30 17158 H 1618.12 -2.99606 -3.21143 0
M  V30 17159 H 1618.73 -3.86214 -1.78099 0
M  V30 17160 N 1617.04 0.356258 -1.53521 0
M  V30 17161 C 1618.29 1.09594 -1.7135 0
M  V30 17162 C 1618.64 1.86712 -0.464388 0
M  V30 17163 O 1617.94 1.83751 0.54279 0
M  V30 17164 C 1618.13 2.07669 -2.90875 0
M  V30 17165 C 1617.96 1.40189 -4.2729 0
M  V30 17166 C 1616.73 1.15208 -4.91991 0
M  V30 17167 C 1618.93 0.834718 -5.07481 0
M  V30 17168 N 1616.91 0.441767 -6.12308 0
M  V30 17169 C 1618.28 0.254271 -6.19478 0
M  V30 17170 C 1620.33 0.734318 -4.92455 0
M  V30 17171 C 1619.04 -0.416795 -7.18091 0
M  V30 17172 C 1621.06 0.0770155 -5.9135 0
M  V30 17173 C 1620.43 -0.492516 -7.02676 0
M  V30 17174 H 1616.52 0.385858 -0.680175 0
M  V30 17175 H 1619.11 0.381127 -1.90933 0
M  V30 17176 H 1617.28 2.76454 -2.72815 0
M  V30 17177 H 1619.01 2.74382 -2.97484 0
M  V30 17178 H 1615.77 1.43584 -4.5131 0
M  V30 17179 H 1616.19 0.101702 -6.76924 0
M  V30 17180 H 1620.83 1.1604 -4.06564 0
M  V30 17181 H 1618.55 -0.854798 -8.03566 0
M  V30 17182 H 1622.14 0.00013349 -5.818 0
M  V30 17183 H 1621.02 -0.99308 -7.77887 0
M  V30 17184 N 1618.52 1.45038 0.616577 0
M  V30 17185 C 1619.74 1.52321 1.40759 0
M  V30 17186 C 1620.17 0.15375 1.87471 0
M  V30 17187 O 1619.53 -0.859908 1.5961 0
M  V30 17188 C 1619.58 2.50464 2.59423 0
M  V30 17189 O 1618.68 2.01623 3.59753 0
M  V30 17190 H 1618.02 0.513808 0.420592 0
M  V30 17191 H 1620.55 1.90309 0.751234 0
M  V30 17192 H 1620.56 2.68977 3.06783 0
M  V30 17193 H 1619.24 3.4993 2.24771 0
M  V30 17194 H 1617.81 1.92945 3.19103 0
M  V30 17195 N 1620 -0.858287 1.32179 0
M  V30 17196 C 1620.93 -1.97304 1.16636 0
M  V30 17197 C 1621.94 -1.62478 0.102311 0
M  V30 17198 O 1623.13 -1.75016 0.350926 0
M  V30 17199 C 1620.23 -3.30215 0.762337 0
M  V30 17200 C 1619.4 -3.93305 1.9139 0
M  V30 17201 C 1618.46 -5.04545 1.49402 0
M  V30 17202 O 1617.49 -5.24735 2.20548 0
M  V30 17203 N 1618.69 -5.79202 0.387984 0
M  V30 17204 H 1621.46 -2.11179 2.12658 0
M  V30 17205 H 1619.02 -1.03294 1.24668 0
M  V30 17206 H 1621.01 -4.02032 0.463922 0
M  V30 17207 H 1619.58 -3.12418 -0.10662 0
M  V30 17208 H 1618.8 -3.1432 2.37901 0
M  V30 17209 H 1620.09 -4.32192 2.68492 0
M  V30 17210 H 1619.49 -5.65331 -0.204252 0
M  V30 17211 H 1618.04 -6.51629 0.149158 0
M  V30 17212 N 1621.48 -1.1533 -1.07409 0
M  V30 17213 C 1622.72 -0.929181 -1.80261 0
M  V30 17214 C 1623.05 0.542387 -1.86472 0
M  V30 17215 O 1622.33 1.40209 -1.34802 0
M  V30 17216 C 1622.61 -1.54339 -3.25348 0
M  V30 17217 C 1622.47 -3.08551 -3.27286 0
M  V30 17218 C 1623.78 -1.22868 -4.22601 0
M  V30 17219 H 1620.9 -0.338985 -0.654414 0
M  V30 17220 H 1623.55 -1.42485 -1.2569 0
M  V30 17221 H 1621.7 -1.12187 -3.71949 0
M  V30 17222 H 1623.37 -3.59605 -2.88932 0
M  V30 17223 H 1621.61 -3.42471 -2.66263 0
M  V30 17224 H 1622.28 -3.4664 -4.29587 0
M  V30 17225 H 1624.76 -1.59328 -3.84388 0
M  V30 17226 H 1623.63 -1.68462 -5.2241 0
M  V30 17227 H 1623.89 -0.145612 -4.4186 0
M  V30 17228 N 1622.95 1.25748 -0.950004 0
M  V30 17229 C 1624.18 1.97952 -0.618848 0
M  V30 17230 C 1624.6 1.70184 0.801194 0
M  V30 17231 O 1623.96 0.955032 1.54107 0
M  V30 17232 C 1624.01 3.49744 -0.878151 0
M  V30 17233 O 1623.11 4.12375 0.0453685 0
M  V30 17234 H 1622.45 0.620731 -0.235773 0
M  V30 17235 H 1624.98 1.59988 -1.27534 0
M  V30 17236 H 1624.99 4.00029 -0.802567 0
M  V30 17237 H 1623.67 3.69285 -1.91315 0
M  V30 17238 H 1622.25 3.7281 -0.0820265 0
M  V30 17239 N 1624.43 0.718038 1.40292 0
M  V30 17240 C 1625.39 0.0757483 2.29075 0
M  V30 17241 C 1626.39 -0.684831 1.45488 0
M  V30 17242 O 1627.58 -0.516369 1.66371 0
M  V30 17243 C 1624.72 -0.902534 3.28736 0
M  V30 17244 H 1625.91 0.857729 2.87373 0
M  V30 17245 H 1623.46 0.482839 1.48655 0
M  V30 17246 H 1624.2 -1.71148 2.75461 0
M  V30 17247 H 1623.98 -0.360009 3.90444 0
M  V30 17248 H 1625.47 -1.34903 3.9521 0
M  V30 17249 N 1625.91 -1.50602 0.464402 0
M  V30 17250 C 1627.14 -2.06701 -0.0907765 0
M  V30 17251 C 1627.55 -1.32901 -1.341 0
M  V30 17252 O 1626.91 -0.396323 -1.78145 0
M  V30 17253 C 1626.96 -3.59437 -0.385667 0
M  V30 17254 O 1626.68 -4.30453 0.81496 0
M  V30 17255 C 1628.18 -4.32137 -0.988549 0
M  V30 17256 H 1625.4 -0.670987 0.00410069 0
M  V30 17257 H 1627.95 -1.93853 0.651264 0
M  V30 17258 H 1626.1 -3.7211 -1.07763 0
M  V30 17259 H 1626.52 -5.2155 0.55551 0
M  V30 17260 H 1627.99 -5.40001 -1.1447 0
M  V30 17261 H 1628.47 -3.92194 -1.97688 0
M  V30 17262 H 1629.07 -4.23977 -0.335166 0
M  V30 17263 N 1627.39 -0.19675 -1.56367 0
M  V30 17264 C 1628.35 0.709734 -2.17934 0
M  V30 17265 C 1629.35 1.13979 -1.13426 0
M  V30 17266 O 1630.54 1.05261 -1.38801 0
M  V30 17267 C 1627.67 1.96917 -2.78274 0
M  V30 17268 H 1628.87 0.173342 -2.99399 0
M  V30 17269 H 1626.42 0.0528698 -1.56211 0
M  V30 17270 H 1627.15 2.54804 -2.00613 0
M  V30 17271 H 1626.94 1.66951 -3.54781 0
M  V30 17272 H 1628.43 2.61554 -3.25545 0
M  V30 17273 N 1628.87 1.57413 0.0768405 0
M  V30 17274 C 1630.09 1.91607 0.793833 0
M  V30 17275 C 1630.52 0.792708 1.70581 0
M  V30 17276 O 1629.87 -0.25475 1.79501 0
M  V30 17277 C 1629.92 3.24736 1.56776 0
M  V30 17278 O 1629.03 3.13613 2.67807 0
M  V30 17279 H 1628.37 0.627572 0.216908 0
M  V30 17280 H 1630.9 2.04547 0.0465957 0
M  V30 17281 H 1630.91 3.58488 1.94809 0
M  V30 17282 H 1629.58 4.06077 0.898588 0
M  V30 17283 H 1628.16 2.91411 2.32668 0
M  V30 17284 N 1630.34 -0.348112 1.53707 0
M  V30 17285 C 1631.57 -1.11346 1.74976 0
M  V30 17286 C 1631.99 -1.81726 0.485525 0
M  V30 17287 O 1631.35 -1.72384 -0.561565 0
M  V30 17288 C 1631.4 -2.10611 2.92703 0
M  V30 17289 O 1630.5 -3.18042 2.62532 0
M  V30 17290 H 1629.85 -0.322247 0.580563 0
M  V30 17291 H 1632.38 -0.399898 2.00654 0
M  V30 17292 H 1632.39 -2.53912 3.19363 0
M  V30 17293 H 1631.06 -1.58782 3.84397 0
M  V30 17294 H 1629.64 -2.79591 2.46746 0
M  V30 17295 N 1631.82 -1.45363 -0.608876 0
M  V30 17296 C 1632.73 -1.56471 -1.74797 0
M  V30 17297 C 1633.75 -0.449225 -1.68101 0
M  V30 17298 O 1634.92 -0.709731 -1.8848 0
M  V30 17299 C 1631.99 -1.52714 -3.11254 0
M  V30 17300 C 1631.05 -2.75291 -3.29414 0
M  V30 17301 C 1630.28 -2.71704 -4.59361 0
M  V30 17302 O 1630.51 -1.78959 -5.41599 0
M  V30 17303 O 1629.44 -3.62886 -4.80205 0
M  V30 17304 H 1633.27 -2.52751 -1.68377 0
M  V30 17305 H 1630.85 -1.27859 -0.772808 0
M  V30 17306 H 1632.73 -1.53222 -3.92557 0
M  V30 17307 H 1631.41 -0.595858 -3.18169 0
M  V30 17308 H 1630.32 -2.80345 -2.47704 0
M  V30 17309 H 1631.65 -3.67541 -3.27375 0
M  V30 17310 N 1633.3 0.851265 -1.32632 0
M  V30 17311 C 1634.26 1.94168 -1.21785 0
M  V30 17312 C 1635.26 1.60189 -0.140023 0
M  V30 17313 O 1636.45 1.69763 -0.390671 0
M  V30 17314 C 1633.59 3.29513 -0.873717 0
M  V30 17315 H 1634.78 2.05214 -2.18695 0
M  V30 17316 H 1632.33 1.04186 -1.16512 0
M  V30 17317 H 1633.07 3.24165 0.0934202 0
M  V30 17318 H 1632.85 3.55552 -1.65302 0
M  V30 17319 H 1634.34 4.09425 -0.822231 0
M  V30 17320 N 1634.78 1.15898 1.06796 0
M  V30 17321 C 1635.69 0.87507 2.17669 0
M  V30 17322 C 1636.7 -0.150763 1.73346 0
M  V30 17323 O 1637.88 0.0246621 2.01385 0
M  V30 17324 C 1634.95 0.374555 3.44671 0
M  V30 17325 C 1634.01 1.46498 4.0353 0
M  V30 17326 C 1633.24 0.988256 5.2447 0
M  V30 17327 O 1633.46 -0.163992 5.70164 0
M  V30 17328 O 1632.4 1.7744 5.75151 0
M  V30 17329 H 1636.22 1.80208 2.44456 0
M  V30 17330 H 1633.81 0.93854 1.1624 0
M  V30 17331 H 1635.69 0.102161 4.21276 0
M  V30 17332 H 1634.36 -0.524513 3.19422 0
M  V30 17333 H 1633.27 1.79105 3.28439 0
M  V30 17334 H 1634.6 2.33917 4.33063 0
M  V30 17335 N 1636.26 -1.25243 0.956659 0
M  V30 17336 C 1637.22 -2.24054 0.482949 0
M  V30 17337 C 1638.22 -1.55367 -0.41447 0
M  V30 17338 O 1639.41 -1.72912 -0.211475 0
M  V30 17339 C 1636.54 -3.3956 -0.301975 0
M  V30 17340 H 1637.73 -2.67476 1.35634 0
M  V30 17341 H 1635.29 -1.37665 0.740138 0
M  V30 17342 H 1636.02 -3.01561 -1.19294 0
M  V30 17343 H 1635.81 -3.90607 0.341876 0
M  V30 17344 H 1637.3 -4.1293 -0.622807 0
M  V30 17345 N 1637.73 -0.725468 -1.3991 0
M  V30 17346 C 1638.96 -0.277821 -2.05531 0
M  V30 17347 C 1639.38 1.07547 -1.54322 0
M  V30 17348 O 1638.74 1.6795 -0.682828 0
M  V30 17349 C 1638.79 -0.278676 -3.59522 0
M  V30 17350 O 1637.89 0.736864 -4.05764 0
M  V30 17351 H 1637.24 -0.128243 -0.651498 0
M  V30 17352 H 1639.77 -0.988721 -1.79124 0
M  V30 17353 H 1639.78 -0.119765 -4.07824 0
M  V30 17354 H 1638.45 -1.2662 -3.96157 0
M  V30 17355 H 1637.03 0.544869 -3.68898 0
M  V30 17356 N 1639.21 1.50354 -0.472382 0
M  V30 17357 C 1640.18 2.27096 0.30981 0
M  V30 17358 C 1641.18 1.3193 0.919306 0
M  V30 17359 O 1642.37 1.55344 0.788284 0
M  V30 17360 C 1639.5 3.08924 1.44149 0
M  V30 17361 H 1640.69 2.97692 -0.363228 0
M  V30 17362 H 1638.24 1.5465 -0.226483 0
M  V30 17363 H 1638.98 2.42828 2.14954 0
M  V30 17364 H 1638.76 3.78862 1.01023 0
M  V30 17365 H 1640.25 3.66961 1.99323 0
M  V30 17366 N 1640.69 0.205039 1.56261 0
M  V30 17367 C 1641.92 -0.439502 2.0269 0
M  V30 17368 C 1642.34 -1.53715 1.08413 0
M  V30 17369 O 1641.7 -1.81167 0.0693616 0
M  V30 17370 C 1641.75 -0.963672 3.47485 0
M  V30 17371 O 1640.85 -2.07602 3.56336 0
M  V30 17372 H 1640.19 -0.101543 0.65619 0
M  V30 17373 H 1642.72 0.318835 2.021 0
M  V30 17374 H 1642.73 -1.27773 3.87476 0
M  V30 17375 H 1641.41 -0.160203 4.15591 0
M  V30 17376 H 1639.98 -1.76985 3.28224 0
M  V30 17377 N 1642.17 -1.57451 -0.0684915 0
M  V30 17378 C 1643.1 -2.00648 -1.10783 0
M  V30 17379 C 1644.11 -0.912944 -1.34793 0
M  V30 17380 O 1645.3 -1.19079 -1.32975 0
M  V30 17381 C 1642.4 -2.33309 -2.45805 0
M  V30 17382 C 1641.58 -3.64551 -2.41704 0
M  V30 17383 C 1640.64 -3.84845 -3.5886 0
M  V30 17384 O 1639.66 -4.56392 -3.40139 0
M  V30 17385 N 1640.86 -3.27451 -4.79329 0
M  V30 17386 H 1643.63 -2.90422 -0.739938 0
M  V30 17387 H 1641.19 -1.59846 -0.257093 0
M  V30 17388 H 1643.18 -2.44056 -3.22829 0
M  V30 17389 H 1641.75 -1.49408 -2.74583 0
M  V30 17390 H 1640.97 -3.64528 -1.50043 0
M  V30 17391 H 1642.26 -4.50721 -2.36068 0
M  V30 17392 H 1641.66 -2.69384 -4.97442 0
M  V30 17393 H 1640.21 -3.43641 -5.53854 0
M  V30 17394 N 1643.65 0.339955 -1.5389 0
M  V30 17395 C 1644.61 1.40058 -1.81429 0
M  V30 17396 C 1645.61 1.45458 -0.685463 0
M  V30 17397 O 1646.8 1.45771 -0.953754 0
M  V30 17398 C 1643.93 2.78952 -1.95955 0
M  V30 17399 H 1645.13 1.16902 -2.76178 0
M  V30 17400 H 1642.68 0.574543 -1.45357 0
M  V30 17401 H 1643.41 3.07387 -1.03361 0
M  V30 17402 H 1643.2 2.76429 -2.78082 0
M  V30 17403 H 1644.69 3.55713 -2.18765 0
M  V30 17404 N 1645.13 1.45684 0.601159 0
M  V30 17405 C 1646.4 1.4051 1.36074 0
M  V30 17406 C 1646.78 0.0790095 2.10952 0
M  V30 17407 O 1646.13 -0.939162 2.08307 0
M  V30 17408 C 1646.34 2.62297 2.3022 0
M  V30 17409 C 1647.69 3.0766 2.92627 0
M  V30 17410 O 1648.71 2.62716 2.40539 0
M  V30 17411 O 1647.57 3.85675 3.87191 0
M  V30 17412 H 1644.67 0.557902 0.61047 0
M  V30 17413 H 1647.21 1.57822 0.623712 0
M  V30 17414 H 1645.98 3.50389 1.74194 0
M  V30 17415 H 1645.61 2.47351 3.11293 0
M  V30 17416 N 1646.6 -0.84422 1.33082 0
M  V30 17417 C 1647.85 -1.60123 1.25429 0
M  V30 17418 C 1648.2 -1.91559 -0.179646 0
M  V30 17419 O 1647.5 -1.55436 -1.12028 0
M  V30 17420 C 1647.69 -2.92225 2.05765 0
M  V30 17421 C 1647.52 -2.73691 3.56824 0
M  V30 17422 C 1646.29 -2.71528 4.26146 0
M  V30 17423 C 1648.49 -2.46706 4.51266 0
M  V30 17424 N 1646.47 -2.44314 5.63191 0
M  V30 17425 C 1647.84 -2.28994 5.76161 0
M  V30 17426 C 1649.9 -2.32259 4.40409 0
M  V30 17427 C 1648.6 -1.98301 6.91425 0
M  V30 17428 C 1650.63 -2.02959 5.55483 0
M  V30 17429 C 1649.99 -1.86055 6.79384 0
M  V30 17430 H 1646.09 -0.589203 0.514163 0
M  V30 17431 H 1648.67 -0.991494 1.67563 0
M  V30 17432 H 1646.84 -3.51158 1.65959 0
M  V30 17433 H 1648.57 -3.57367 1.89924 0
M  V30 17434 H 1645.33 -2.84843 3.78367 0
M  V30 17435 H 1645.75 -2.33606 6.35419 0
M  V30 17436 H 1650.39 -2.44043 3.45258 0
M  V30 17437 H 1648.11 -1.85254 7.86579 0
M  V30 17438 H 1651.7 -1.92543 5.49016 0
M  V30 17439 H 1650.58 -1.63707 7.66922 0
M  V30 17440 N 1648.08 -1.16463 -1.0618 0
M  V30 17441 C 1649.5 -0.909776 -1.31131 0
M  V30 17442 C 1649.7 0.436686 -1.96711 0
M  V30 17443 O 1648.75 1.17595 -2.23445 0
M  V30 17444 C 1650.07 -2.05967 -2.19084 0
M  V30 17445 C 1651.61 -2.09557 -2.32497 0
M  V30 17446 C 1652.09 -3.23904 -3.23806 0
M  V30 17447 N 1653.58 -3.23628 -3.3139 0
M  V30 17448 C 1654.32 -4.08746 -4.02137 0
M  V30 17449 N 1653.81 -5.03954 -4.75397 0
M  V30 17450 N 1655.6 -3.96729 -3.98199 0
M  V30 17451 H 1647.76 -2.03148 -0.620066 0
M  V30 17452 H 1650.02 -0.886477 -0.335949 0
M  V30 17453 H 1649.72 -3.03227 -1.78174 0
M  V30 17454 H 1649.6 -2.00219 -3.19675 0
M  V30 17455 H 1651.99 -1.12889 -2.72654 0
M  V30 17456 H 1652.07 -2.19369 -1.3157 0
M  V30 17457 H 1651.71 -4.20831 -2.84366 0
M  V30 17458 H 1651.64 -3.11327 -4.24715 0
M  V30 17459 H 1654.13 -2.54687 -2.79182 0
M  V30 17460 H 1654.44 -5.65319 -5.2691 0
M  V30 17461 H 1652.79 -5.07932 -4.74373 0
M  V30 17462 H 1655.98 -3.21652 -3.40085 0
M  V30 17463 H 1656.15 -4.63286 -4.53067 0
M  V30 17464 N 1649.56 1.24734 -0.963288 0
M  V30 17465 C 1650.49 2.24785 -0.447722 0
M  V30 17466 C 1651.5 1.5671 0.44113 0
M  V30 17467 O 1652.69 1.76769 0.248015 0
M  V30 17468 C 1649.79 3.36837 0.373368 0
M  V30 17469 C 1648.97 4.3448 -0.504532 0
M  V30 17470 C 1648.03 5.25558 0.25981 0
M  V30 17471 O 1647.05 5.68155 -0.344754 0
M  V30 17472 N 1648.25 5.59408 1.55058 0
M  V30 17473 H 1651.02 2.69654 -1.30792 0
M  V30 17474 H 1648.58 1.38729 -0.834614 0
M  V30 17475 H 1650.57 3.94733 0.892631 0
M  V30 17476 H 1649.14 2.91288 1.13447 0
M  V30 17477 H 1648.36 3.75337 -1.20481 0
M  V30 17478 H 1649.65 4.96691 -1.10343 0
M  V30 17479 H 1649.05 5.2672 2.06355 0
M  V30 17480 H 1647.6 6.19851 2.01563 0
M  V30 17481 N 1651.04 0.732878 1.39523 0
M  V30 17482 C 1651.97 0.0519358 2.29141 0
M  V30 17483 C 1652.98 -0.705687 1.4671 0
M  V30 17484 O 1654.17 -0.550202 1.69809 0
M  V30 17485 C 1651.27 -0.950691 3.25292 0
M  V30 17486 C 1650.44 -0.255028 4.36656 0
M  V30 17487 C 1649.5 -1.16546 5.13131 0
M  V30 17488 O 1648.53 -0.643742 5.65548 0
M  V30 17489 N 1649.73 -2.49534 5.24131 0
M  V30 17490 H 1652.5 0.8215 2.88221 0
M  V30 17491 H 1650.06 0.581924 1.5108 0
M  V30 17492 H 1652.05 -1.56232 3.73328 0
M  V30 17493 H 1650.62 -1.62148 2.67258 0
M  V30 17494 H 1649.84 0.537045 3.90525 0
M  V30 17495 H 1651.13 0.227162 5.08293 0
M  V30 17496 H 1650.53 -2.944 4.83058 0
M  V30 17497 H 1649.08 -3.05798 5.75613 0
M  V30 17498 N 1652.52 -1.50101 0.480349 0
M  V30 17499 C 1653.76 -2.033 -0.0636175 0
M  V30 17500 C 1654.12 -1.35518 -1.36575 0
M  V30 17501 O 1653.41 -0.474981 -1.85619 0
M  V30 17502 C 1653.6 -3.56191 -0.293745 0
M  V30 17503 C 1653.43 -4.38791 0.984529 0
M  V30 17504 C 1652.2 -4.81565 1.53048 0
M  V30 17505 C 1654.4 -4.78613 1.88239 0
M  V30 17506 N 1652.38 -5.48519 2.75681 0
M  V30 17507 C 1653.75 -5.45074 2.95456 0
M  V30 17508 C 1655.81 -4.60566 1.89166 0
M  V30 17509 C 1654.51 -5.95398 4.03601 0
M  V30 17510 C 1656.54 -5.11836 2.96273 0
M  V30 17511 C 1655.9 -5.78279 4.02209 0
M  V30 17512 H 1652 -0.781816 0.016982 0
M  V30 17513 H 1654.58 -1.83508 0.650617 0
M  V30 17514 H 1652.75 -3.75911 -0.977023 0
M  V30 17515 H 1654.49 -3.96037 -0.832876 0
M  V30 17516 H 1651.24 -4.61159 1.0784 0
M  V30 17517 H 1651.66 -5.86597 3.37983 0
M  V30 17518 H 1656.31 -4.0862 1.08578 0
M  V30 17519 H 1654.02 -6.46375 4.85 0
M  V30 17520 H 1657.61 -4.99696 2.97985 0
M  V30 17521 H 1656.49 -6.17237 4.83724 0
M  V30 17522 N 1653.99 -0.213323 -1.5615 0
M  V30 17523 C 1654.94 0.700175 -2.19923 0
M  V30 17524 C 1655.91 1.19641 -1.15218 0
M  V30 17525 O 1657.1 1.257 -1.43542 0
M  V30 17526 C 1654.24 1.90629 -2.87671 0
M  V30 17527 C 1653.35 1.44973 -4.06948 0
M  V30 17528 C 1652.48 2.61277 -4.62502 0
M  V30 17529 C 1651.52 2.12316 -5.74098 0
M  V30 17530 N 1650.66 3.21862 -6.23978 0
M  V30 17531 H 1655.5 0.14961 -2.97624 0
M  V30 17532 H 1653.04 0.0620957 -1.46969 0
M  V30 17533 H 1654.99 2.61431 -3.2513 0
M  V30 17534 H 1653.62 2.42987 -2.12502 0
M  V30 17535 H 1652.68 0.636917 -3.7503 0
M  V30 17536 H 1653.99 1.05065 -4.87609 0
M  V30 17537 H 1653.14 3.40174 -5.02361 0
M  V30 17538 H 1651.88 3.04468 -3.80987 0
M  V30 17539 H 1650.89 1.31877 -5.33749 0
M  V30 17540 H 1652.11 1.70134 -6.57443 0
M  V30 17541 H 1650.06 3.64551 -5.45379 0
M  V30 17542 H 1649.97 2.86181 -6.9974 0
M  V30 17543 H 1651.24 4.0092 -6.68493 0
M  V30 17544 N 1655.47 1.57485 0.0601405 0
M  V30 17545 C 1656.44 2.03493 1.05467 0
M  V30 17546 C 1657.44 0.933816 1.30907 0
M  V30 17547 O 1658.63 1.19837 1.26431 0
M  V30 17548 C 1655.76 2.42549 2.39547 0
M  V30 17549 H 1656.95 2.92595 0.657893 0
M  V30 17550 H 1654.5 1.53272 0.306183 0
M  V30 17551 H 1655.24 1.56509 2.84034 0
M  V30 17552 H 1655.02 3.22911 2.22421 0
M  V30 17553 H 1656.51 2.7868 3.1101 0
M  V30 17554 N 1656.95 -0.331789 1.54068 0
M  V30 17555 C 1657.86 -1.43116 1.8589 0
M  V30 17556 C 1658.88 -1.57003 0.75007 0
M  V30 17557 O 1660.05 -1.72256 1.04355 0
M  V30 17558 C 1657.12 -2.77945 2.07238 0
M  V30 17559 C 1656.18 -2.73303 3.31065 0
M  V30 17560 C 1655.41 -4.01702 3.51385 0
M  V30 17561 O 1655.63 -4.99562 2.75306 0
M  V30 17562 O 1654.57 -4.0546 4.44844 0
M  V30 17563 H 1658.39 -1.19137 2.79357 0
M  V30 17564 H 1655.98 -0.525057 1.3987 0
M  V30 17565 H 1657.86 -3.57774 2.22656 0
M  V30 17566 H 1656.54 -3.01831 1.16959 0
M  V30 17567 H 1655.44 -1.92054 3.21039 0
M  V30 17568 H 1656.78 -2.54371 4.21374 0
M  V30 17569 N 1658.43 -1.46001 -0.593424 0
M  V30 17570 C 1659.84 -1.45049 -1.17549 0
M  V30 17571 C 1660.19 -0.185601 -1.9532 0
M  V30 17572 O 1659.32 0.711989 -2.04352 0
M  V30 17573 C 1659.91 -2.62789 -2.13839 0
M  V30 17574 C 1658.47 -2.64912 -2.67392 0
M  V30 17575 C 1657.62 -2.37549 -1.43059 0
M  V30 17576 H 1660.57 -1.54035 -0.381944 0
M  V30 17577 H 1660.59 -2.37696 -2.97121 0
M  V30 17578 H 1660.1 -3.54834 -1.57208 0
M  V30 17579 H 1658.2 -1.76911 -3.27922 0
M  V30 17580 H 1658.31 -3.6456 -3.10858 0
M  V30 17581 H 1656.68 -1.8739 -1.72503 0
M  V30 17582 H 1657.46 -3.31757 -0.882746 0
M  V30 17583 N 1659.91 0.83715 -1.33527 0
M  V30 17584 C 1660.84 1.95423 -1.1976 0
M  V30 17585 C 1661.85 1.62295 -0.128147 0
M  V30 17586 O 1663.04 1.74436 -0.378725 0
M  V30 17587 C 1660.14 3.2896 -0.814775 0
M  V30 17588 C 1659.31 3.9021 -1.97623 0
M  V30 17589 C 1658.37 5.02104 -1.5741 0
M  V30 17590 O 1657.4 5.2116 -2.28868 0
M  V30 17591 N 1658.6 5.78511 -0.480081 0
M  V30 17592 H 1661.37 2.0777 -2.15991 0
M  V30 17593 H 1658.93 1.01297 -1.26295 0
M  V30 17594 H 1660.92 4.01243 -0.527823 0
M  V30 17595 H 1659.49 3.12548 0.0569031 0
M  V30 17596 H 1658.71 3.10495 -2.42871 0
M  V30 17597 H 1660 4.27865 -2.75334 0
M  V30 17598 H 1659.39 5.65585 0.114287 0
M  V30 17599 H 1657.95 6.5131 -0.252808 0
M  V30 17600 N 1661.38 1.17024 1.05561 0
M  V30 17601 C 1662.35 0.885897 2.11387 0
M  V30 17602 C 1663.35 -0.122327 1.60334 0
M  V30 17603 O 1664.54 0.109416 1.73856 0
M  V30 17604 C 1661.67 0.32626 3.39335 0
M  V30 17605 H 1662.86 1.82414 2.38045 0
M  V30 17606 H 1660.42 0.980191 1.21745 0
M  V30 17607 H 1661.15 -0.619308 3.18332 0
M  V30 17608 H 1660.94 1.05285 3.777 0
M  V30 17609 H 1662.43 0.145513 4.17346 0
M  V30 17610 N 1662.86 -1.24221 0.969889 0
M  V30 17611 C 1664.27 -1.74206 0.671494 0
M  V30 17612 C 1664.62 -1.78576 -0.81271 0
M  V30 17613 O 1663.75 -1.41664 -1.63586 0
M  V30 17614 C 1664.34 -3.16371 1.21222 0
M  V30 17615 C 1662.9 -3.63855 0.96368 0
M  V30 17616 C 1662.05 -2.42429 1.34623 0
M  V30 17617 H 1665 -1.09893 1.14496 0
M  V30 17618 H 1665.02 -3.7606 0.579552 0
M  V30 17619 H 1664.53 -3.13159 2.29245 0
M  V30 17620 H 1662.64 -3.72463 -0.100931 0
M  V30 17621 H 1662.75 -4.51207 1.61087 0
M  V30 17622 H 1661.11 -2.42952 0.764624 0
M  V30 17623 H 1661.9 -2.41896 2.436 0
M  V30 17624 N 1664.34 -0.740267 -1.39132 0
M  V30 17625 C 1665.59 -0.289949 -2.00009 0
M  V30 17626 C 1665.91 1.12831 -1.59042 0
M  V30 17627 O 1665.18 1.76926 -0.841076 0
M  V30 17628 H 1663.76 -0.104213 -0.739695 0
M  V30 17629 H 1666.42 -0.951398 -1.70101 0
M  V30 17630 H 1665.52 -0.342509 -3.10215 0
M  V30 17631 N 1665.82 1.49844 -0.488302 0
M  V30 17632 C 1667.06 2.04314 0.0592245 0
M  V30 17633 C 1667.42 1.36093 1.35436 0
M  V30 17634 O 1668.62 1.81212 1.98533 0
M  V30 17635 C 1666.89 3.56714 0.221371 0
M  V30 17636 S 1668.45 4.3277 0.724976 0
M  V30 17637 H 1665.27 0.710957 0.00780581 0
M  V30 17638 H 1667.87 1.84045 -0.659373 0
M  V30 17639 H 1666.58 4.03914 -0.726746 0
M  V30 17640 H 1666.11 3.81366 0.965581 0
M  V30 17641 H 1668.12 4.54285 1.99599 0
M  V30 17642 N 1667.3 0.221601 1.56034 0
M  V30 17643 C 1668.54 -0.409277 1.97912 0
M  V30 17644 C 1668.87 -1.60291 1.11049 0
M  V30 17645 O 1668.14 -1.95 0.187529 0
M  V30 17646 H 1666.72 -0.154201 0.730911 0
M  V30 17647 H 1669.38 0.314508 1.92346 0
M  V30 17648 H 1668.47 -0.73557 3.03308 0
M  V30 17649 N 1668.77 -1.57515 -0.0517878 0
M  V30 17650 C 1669.68 -2.08427 -1.07681 0
M  V30 17651 C 1670.7 -1.01797 -1.41115 0
M  V30 17652 O 1671.88 -1.33394 -1.50891 0
M  V30 17653 C 1668.94 -2.53472 -2.36544 0
M  V30 17654 C 1668 -3.74488 -2.09899 0
M  V30 17655 C 1667.24 -4.17374 -3.32618 0
M  V30 17656 O 1667.46 -3.59962 -4.42475 0
M  V30 17657 O 1666.39 -5.10006 -3.19653 0
M  V30 17658 H 1670.22 -2.96122 -0.674217 0
M  V30 17659 H 1667.8 -1.4699 -0.267274 0
M  V30 17660 H 1669.69 -2.82876 -3.12345 0
M  V30 17661 H 1668.36 -1.68899 -2.76143 0
M  V30 17662 H 1667.27 -3.50137 -1.31739 0
M  V30 17663 H 1668.6 -4.59975 -1.75169 0
M  V30 17664 N 1670.25 0.323614 -1.54242 0
M  V30 17665 C 1671.48 1.0811 -1.76408 0
M  V30 17666 C 1671.9 1.81707 -0.512656 0
M  V30 17667 O 1671.25 1.75035 0.516638 0
M  V30 17668 C 1671.3 2.07923 -2.9572 0
M  V30 17669 O 1671.03 1.37317 -4.16024 0
M  V30 17670 C 1672.53 2.95891 -3.30096 0
M  V30 17671 H 1669.75 0.321583 -0.588919 0
M  V30 17672 H 1672.29 0.369756 -2.01129 0
M  V30 17673 H 1670.45 2.74593 -2.73272 0
M  V30 17674 H 1670.86 2.04158 -4.83135 0
M  V30 17675 H 1672.33 3.61822 -4.1688 0
M  V30 17676 H 1672.81 3.62986 -2.47261 0
M  V30 17677 H 1673.42 2.34783 -3.54622 0
M  V30 17678 N 1671.73 1.46313 0.585673 0
M  V30 17679 C 1673.14 1.4567 1.16778 0
M  V30 17680 C 1673.49 0.195957 1.95219 0
M  V30 17681 O 1672.62 -0.701142 2.04727 0
M  V30 17682 C 1673.21 2.6392 2.12443 0
M  V30 17683 C 1671.77 2.66327 2.65983 0
M  V30 17684 C 1670.92 2.38304 1.41797 0
M  V30 17685 H 1673.87 1.54236 0.37377 0
M  V30 17686 H 1673.89 2.39268 2.95856 0
M  V30 17687 H 1673.4 3.55663 1.55324 0
M  V30 17688 H 1671.5 1.78648 3.2698 0
M  V30 17689 H 1671.62 3.66203 3.08921 0
M  V30 17690 H 1669.98 1.88302 1.71507 0
M  V30 17691 H 1670.76 3.3222 0.86514 0
M  V30 17692 N 1673.21 -0.830057 1.33969 0
M  V30 17693 C 1674.12 -1.97244 1.27012 0
M  V30 17694 C 1675.14 -1.73076 0.179075 0
M  V30 17695 O 1676.31 -1.97301 0.404262 0
M  V30 17696 C 1673.38 -3.31409 1.01827 0
M  V30 17697 C 1672.44 -3.68633 2.20018 0
M  V30 17698 C 1671.67 -4.96397 1.96025 0
M  V30 17699 O 1671.89 -5.63014 0.91494 0
M  V30 17700 O 1670.83 -5.31331 2.82791 0
M  V30 17701 H 1674.65 -2.06056 2.23103 0
M  V30 17702 H 1672.24 -0.964399 1.14104 0
M  V30 17703 H 1674.12 -4.11779 0.895337 0
M  V30 17704 H 1672.8 -3.23581 0.0877091 0
M  V30 17705 H 1671.7 -2.88738 2.37869 0
M  V30 17706 H 1673.04 -3.81138 3.11439 0
M  V30 17707 N 1674.69 -1.17582 -1.04939 0
M  V30 17708 C 1675.96 -0.875638 -1.74906 0
M  V30 17709 C 1676.34 0.62353 -2.01681 0
M  V30 17710 O 1675.69 1.57558 -1.65492 0
M  V30 17711 C 1675.9 -1.71334 -3.04049 0
M  V30 17712 C 1677.25 -1.93489 -3.77951 0
M  V30 17713 O 1678.27 -1.68314 -3.13925 0
M  V30 17714 O 1677.13 -2.35815 -4.93005 0
M  V30 17715 H 1674.23 -0.324451 -0.760697 0
M  V30 17716 H 1676.77 -1.2829 -1.11084 0
M  V30 17717 H 1675.55 -2.73003 -2.80331 0
M  V30 17718 H 1675.17 -1.30401 -3.75608 0
M  V30 17719 N 1676.17 1.23705 -0.976463 0
M  V30 17720 C 1677.39 1.96595 -0.660697 0
M  V30 17721 C 1677.82 1.71845 0.764916 0
M  V30 17722 O 1677.17 0.987506 1.52046 0
M  V30 17723 C 1677.22 3.47803 -0.95214 0
M  V30 17724 O 1676.33 4.12378 -0.0421126 0
M  V30 17725 H 1675.67 0.615591 -0.248886 0
M  V30 17726 H 1678.2 1.57247 -1.30899 0
M  V30 17727 H 1678.21 3.98236 -0.887238 0
M  V30 17728 H 1676.88 3.65144 -1.99105 0
M  V30 17729 H 1675.46 3.72552 -0.161087 0
M  V30 17730 N 1677.64 0.747635 1.38738 0
M  V30 17731 C 1678.88 0.305993 2.02097 0
M  V30 17732 C 1679.25 -1.09002 1.58059 0
M  V30 17733 O 1680.45 -1.63044 2.13705 0
M  V30 17734 C 1678.72 0.418156 3.54945 0
M  V30 17735 S 1680.28 0.0582187 4.38761 0
M  V30 17736 H 1677.1 0.119075 0.700958 0
M  V30 17737 H 1679.7 0.97694 1.6934 0
M  V30 17738 H 1678.4 1.43524 3.84486 0
M  V30 17739 H 1677.93 -0.270178 3.92471 0
M  V30 17740 H 1679.95 -1.15407 4.82593 0
M  V30 17741 N 1679.12 -1.49583 0.496242 0
M  V30 17742 C 1680.35 -2.07342 -0.0490986 0
M  V30 17743 C 1680.77 -1.35474 -1.30493 0
M  V30 17744 O 1680.13 -0.410005 -1.76603 0
M  V30 17745 C 1680.18 -3.59427 -0.290601 0
M  V30 17746 O 1679.28 -3.89111 -1.36626 0
M  V30 17747 H 1678.62 -0.663562 0.0241141 0
M  V30 17748 H 1681.15 -1.92452 0.6945 0
M  V30 17749 H 1681.16 -4.04627 -0.523549 0
M  V30 17750 H 1679.84 -4.11147 0.626959 0
M  V30 17751 H 1678.41 -3.55726 -1.11864 0
M  V30 17752 N 1680.6 -0.229873 -1.55915 0
M  V30 17753 C 1681.51 0.687953 -2.24286 0
M  V30 17754 C 1682.53 1.20705 -1.25325 0
M  V30 17755 O 1683.7 1.2469 -1.58159 0
M  V30 17756 C 1680.77 1.87563 -2.91584 0
M  V30 17757 C 1679.83 1.39769 -4.0591 0
M  V30 17758 C 1679.06 2.52876 -4.69989 0
M  V30 17759 O 1679.28 3.71208 -4.33083 0
M  V30 17760 O 1678.22 2.23603 -5.58825 0
M  V30 17761 H 1682.04 0.135464 -3.03398 0
M  V30 17762 H 1679.63 0.000925172 -1.494 0
M  V30 17763 H 1681.51 2.56907 -3.34031 0
M  V30 17764 H 1680.19 2.41606 -2.15426 0
M  V30 17765 H 1679.09 0.672029 -3.68014 0
M  V30 17766 H 1680.43 0.903543 -4.83836 0
M  V30 17767 N 1682.08 1.5754 0.0434337 0
M  V30 17768 C 1683.33 1.88235 0.735652 0
M  V30 17769 C 1683.65 0.825698 1.76656 0
M  V30 17770 O 1682.92 -0.142424 1.95382 0
M  V30 17771 H 1681.5 0.694661 0.274692 0
M  V30 17772 H 1684.16 1.94896 0.0127911 0
M  V30 17773 H 1683.25 2.86659 1.23421 0
M  V30 17774 N 1683.56 -0.31543 1.54411 0
M  V30 17775 C 1684.78 -1.0761 1.77299 0
M  V30 17776 C 1685.21 -1.80655 0.523963 0
M  V30 17777 O 1684.56 -1.73536 -0.524874 0
M  V30 17778 C 1684.61 -2.04355 2.97105 0
M  V30 17779 O 1683.72 -3.12401 2.69219 0
M  V30 17780 H 1683.06 -0.30986 0.587267 0
M  V30 17781 H 1685.59 -0.357246 2.01457 0
M  V30 17782 H 1685.6 -2.47081 3.24677 0
M  V30 17783 H 1684.27 -1.50592 3.87679 0
M  V30 17784 H 1682.85 -2.74294 2.52621 0
M  V30 17785 N 1685.03 -1.46622 -0.577906 0
M  V30 17786 C 1686.26 -1.5576 -1.36185 0
M  V30 17787 C 1686.68 -0.200403 -1.87733 0
M  V30 17788 O 1686.03 0.803091 -1.6388 0
M  V30 17789 C 1686.09 -2.56626 -2.54608 0
M  V30 17790 O 1685.81 -3.87074 -2.05195 0
M  V30 17791 C 1687.31 -2.75751 -3.47097 0
M  V30 17792 H 1684.53 -0.526589 -0.415866 0
M  V30 17793 H 1687.07 -1.9207 -0.702091 0
M  V30 17794 H 1685.23 -2.23307 -3.16564 0
M  V30 17795 H 1685.64 -4.42015 -2.82352 0
M  V30 17796 H 1687.11 -3.50237 -4.26659 0
M  V30 17797 H 1687.59 -1.82829 -3.99337 0
M  V30 17798 H 1688.2 -3.10185 -2.90973 0
M  V30 17799 N 1686.51 0.822941 -1.34408 0
M  V30 17800 C 1687.48 1.91541 -1.25876 0
M  V30 17801 C 1688.48 1.59856 -0.17397 0
M  V30 17802 O 1689.67 1.68896 -0.426592 0
M  V30 17803 C 1686.8 3.27586 -0.943415 0
M  V30 17804 H 1687.99 2.00529 -2.22998 0
M  V30 17805 H 1685.54 1.01691 -1.18695 0
M  V30 17806 H 1686.28 3.24291 0.0246389 0
M  V30 17807 H 1686.06 3.51966 -1.72807 0
M  V30 17808 H 1687.55 4.07589 -0.908891 0
M  V30 17809 N 1687.99 1.18137 1.04314 0
M  V30 17810 C 1689.27 0.884901 1.74439 0
M  V30 17811 C 1689.65 -0.612825 2.02009 0
M  V30 17812 O 1689 -1.56679 1.66325 0
M  V30 17813 C 1689.21 1.72944 3.03136 0
M  V30 17814 C 1690.55 1.95491 3.7692 0
M  V30 17815 O 1691.58 1.69976 3.13028 0
M  V30 17816 O 1690.44 2.38426 4.91747 0
M  V30 17817 H 1687.53 0.328481 0.758966 0
M  V30 17818 H 1690.08 1.28878 1.10402 0
M  V30 17819 H 1688.85 2.74485 2.78879 0
M  V30 17820 H 1688.47 1.32392 3.74911 0
M  V30 17821 N 1689.47 -1.23186 0.98301 0
M  V30 17822 C 1690.4 -2.23304 0.470158 0
M  V30 17823 C 1691.38 -1.55834 -0.464156 0
M  V30 17824 O 1692.56 -1.84379 -0.391997 0
M  V30 17825 C 1689.69 -3.37189 -0.319545 0
M  V30 17826 C 1688.74 -4.22817 0.559296 0
M  V30 17827 S 1689.57 -4.96398 2.00871 0
M  V30 17828 C 1690.73 -6.13731 1.22822 0
M  V30 17829 H 1690.96 -2.6646 1.31857 0
M  V30 17830 H 1688.49 -1.32706 0.789206 0
M  V30 17831 H 1690.45 -4.0323 -0.769158 0
M  V30 17832 H 1689.11 -2.92561 -1.14311 0
M  V30 17833 H 1688.3 -5.03977 -0.0478035 0
M  V30 17834 H 1687.91 -3.61857 0.945262 0
M  V30 17835 H 1690.2 -6.75719 0.490859 0
M  V30 17836 H 1691.14 -6.78832 2.01475 0
M  V30 17837 H 1691.55 -5.59551 0.74586 0
M  V30 17838 N 1690.95 -0.754982 -1.38339 0
M  V30 17839 C 1692.17 -0.322624 -2.04369 0
M  V30 17840 C 1692.59 1.04951 -1.56942 0
M  V30 17841 O 1691.95 1.66686 -0.743109 0
M  V30 17842 C 1692 -0.337767 -3.59919 0
M  V30 17843 O 1691.72 -1.65576 -4.05606 0
M  V30 17844 C 1693.22 0.108281 -4.43168 0
M  V30 17845 H 1690.44 -0.137626 -0.656734 0
M  V30 17846 H 1692.98 -1.02422 -1.77003 0
M  V30 17847 H 1691.14 0.315106 -3.86116 0
M  V30 17848 H 1691.55 -1.5829 -5.00045 0
M  V30 17849 H 1693.03 0.0465256 -5.5198 0
M  V30 17850 H 1693.5 1.15636 -4.23704 0
M  V30 17851 H 1694.11 -0.51577 -4.22161 0
M  V30 17852 N 1692.42 1.49318 -0.504168 0
M  V30 17853 C 1693.37 2.30832 0.286237 0
M  V30 17854 C 1694.37 1.39585 0.959818 0
M  V30 17855 O 1695.57 1.5662 0.887146 0
M  V30 17856 H 1691.95 0.743738 0.111167 0
M  V30 17857 H 1693.92 2.95412 -0.421206 0
M  V30 17858 C 1692.67 3.2101 1.33596 0
M  V30 17859 H 1691.99 3.91152 0.827057 0
M  V30 17860 H 1693.43 3.8098 1.86093 0
M  V30 17861 C 1691.89 2.40836 2.35583 0
M  V30 17862 O 1692.42 2.11476 3.41527 0
M  V30 17863 N 1690.63 2.02802 2.08134 0
M  V30 17864 H 1690.17 2.26879 1.21999 0
M  V30 17865 H 1690.13 1.49467 2.76599 0
M  V30 17866 N 1693.9 0.238138 1.5579 0
M  V30 17867 C 1695.13 -0.393422 2.03125 0
M  V30 17868 C 1695.55 -1.52168 1.11761 0
M  V30 17869 O 1694.9 -1.82034 0.130341 0
M  V30 17870 C 1694.95 -0.909474 3.49873 0
M  V30 17871 O 1694.67 0.17381 4.37755 0
M  V30 17872 C 1696.18 -1.61261 4.12928 0
M  V30 17873 H 1693.4 -0.0945077 0.664311 0
M  V30 17874 H 1695.94 0.359442 2.01316 0
M  V30 17875 H 1694.09 -1.61255 3.52244 0
M  V30 17876 H 1694.51 -0.216641 5.24052 0
M  V30 17877 H 1695.98 -1.92551 5.17328 0
M  V30 17878 H 1696.46 -2.53155 3.589 0
M  V30 17879 H 1697.07 -0.954326 4.14455 0
M  V30 17880 N 1695.38 -1.57561 -0.0350783 0
M  V30 17881 C 1696.34 -2.05145 -1.02217 0
M  V30 17882 C 1697.34 -0.954524 -1.29404 0
M  V30 17883 O 1698.53 -1.21833 -1.24509 0
M  V30 17884 C 1695.67 -2.4633 -2.35658 0
M  V30 17885 H 1696.86 -2.93605 -0.61126 0
M  V30 17886 H 1694.41 -1.53739 -0.28176 0
M  V30 17887 H 1695.15 -1.61008 -2.81508 0
M  V30 17888 H 1694.93 -3.26408 -2.17256 0
M  V30 17889 H 1696.42 -2.83592 -3.06537 0
M  V30 17890 N 1696.86 0.307236 -1.54576 0
M  V30 17891 C 1697.77 1.4014 -1.88143 0
M  V30 17892 C 1698.78 1.5579 -0.774952 0
M  V30 17893 O 1699.96 1.70574 -1.07082 0
M  V30 17894 C 1697.03 2.74613 -2.11633 0
M  V30 17895 C 1696.09 2.68001 -3.35371 0
M  V30 17896 C 1695.32 3.96061 -3.57731 0
M  V30 17897 O 1695.54 4.95119 -2.83219 0
M  V30 17898 O 1694.48 3.98331 -4.51238 0
M  V30 17899 H 1698.3 1.14677 -2.81217 0
M  V30 17900 H 1695.89 0.502739 -1.40687 0
M  V30 17901 H 1697.77 3.54186 -2.2832 0
M  V30 17902 H 1696.44 2.99933 -1.21746 0
M  V30 17903 H 1695.35 1.86922 -3.24054 0
M  V30 17904 H 1696.68 2.47635 -4.25368 0
M  V30 17905 N 1698.34 1.46926 0.570122 0
M  V30 17906 C 1699.27 1.61311 1.68822 0
M  V30 17907 C 1700.25 0.462964 1.63678 0
M  V30 17908 O 1701.43 0.690745 1.815 0
M  V30 17909 C 1698.56 1.61499 3.07466 0
M  V30 17910 C 1697.52 2.7561 3.27449 0
M  V30 17911 C 1696.84 2.60865 4.66748 0
M  V30 17912 C 1698.14 4.17324 3.14067 0
M  V30 17913 H 1699.84 2.54909 1.5704 0
M  V30 17914 H 1697.38 1.22677 0.754077 0
M  V30 17915 H 1699.34 1.70155 3.8552 0
M  V30 17916 H 1698.06 0.64453 3.20177 0
M  V30 17917 H 1696.72 2.66444 2.51799 0
M  V30 17918 H 1696.37 1.61875 4.76241 0
M  V30 17919 H 1696.07 3.37411 4.81069 0
M  V30 17920 H 1697.59 2.7143 5.46954 0
M  V30 17921 H 1699 4.27534 3.81952 0
M  V30 17922 H 1697.4 4.94555 3.39905 0
M  V30 17923 H 1698.47 4.36596 2.10979 0
M  V30 17924 N 1699.82 -0.815801 1.34842 0
M  V30 17925 C 1700.75 -1.94193 1.29659 0
M  V30 17926 C 1701.73 -1.69221 0.172703 0
M  V30 17927 O 1702.91 -1.90716 0.366203 0
M  V30 17928 C 1700.04 -3.30777 1.0585 0
M  V30 17929 C 1699 -3.70207 2.1478 0
M  V30 17930 C 1698.32 -5.04852 1.76149 0
M  V30 17931 C 1699.62 -3.81553 3.56671 0
M  V30 17932 H 1701.32 -1.98787 2.23884 0
M  V30 17933 H 1698.86 -0.955013 1.07775 0
M  V30 17934 H 1700.81 -4.0915 1.00866 0
M  V30 17935 H 1699.54 -3.265 0.0806804 0
M  V30 17936 H 1698.2 -2.94113 2.18845 0
M  V30 17937 H 1697.85 -4.9707 0.770099 0
M  V30 17938 H 1697.55 -5.32205 2.49062 0
M  V30 17939 H 1699.07 -5.85676 1.72674 0
M  V30 17940 H 1700.48 -4.50181 3.54979 0
M  V30 17941 H 1698.88 -4.20367 4.28266 0
M  V30 17942 H 1699.95 -2.83356 3.93494 0
M  V30 17943 N 1701.29 -1.18689 -1.03686 0
M  V30 17944 C 1702.2 -0.932473 -2.15272 0
M  V30 17945 C 1703.22 0.104751 -1.73684 0
M  V30 17946 O 1704.4 -0.0780471 -2.01249 0
M  V30 17947 C 1701.46 -0.465807 -3.43557 0
M  V30 17948 C 1700.52 -1.57146 -3.99504 0
M  V30 17949 C 1699.75 -1.12696 -5.21666 0
M  V30 17950 O 1699.98 0.0127657 -5.70399 0
M  V30 17951 O 1698.91 -1.92627 -5.70244 0
M  V30 17952 H 1702.74 -1.86626 -2.39592 0
M  V30 17953 H 1700.32 -0.969029 -1.13711 0
M  V30 17954 H 1702.2 -0.213819 -4.20857 0
M  V30 17955 H 1700.88 0.43964 -3.20701 0
M  V30 17956 H 1699.79 -1.8775 -3.23575 0
M  V30 17957 H 1701.12 -2.45317 -4.26709 0
M  V30 17958 N 1702.77 1.22662 -0.989529 0
M  V30 17959 C 1703.7 2.23784 -0.495301 0
M  V30 17960 C 1704.72 1.5761 0.40779 0
M  V30 17961 O 1705.91 1.77255 0.210464 0
M  V30 17962 C 1703.01 3.37553 0.301836 0
M  V30 17963 C 1702.18 4.33312 -0.596578 0
M  V30 17964 C 1701.24 5.25991 0.148272 0
M  V30 17965 O 1700.26 5.67296 -0.46519 0
M  V30 17966 N 1701.47 5.62571 1.43158 0
M  V30 17967 H 1704.23 2.66819 -1.36483 0
M  V30 17968 H 1701.79 1.36928 -0.863853 0
M  V30 17969 H 1703.78 3.96538 0.808701 0
M  V30 17970 H 1702.35 2.93628 1.07243 0
M  V30 17971 H 1701.57 3.72697 -1.28416 0
M  V30 17972 H 1702.86 4.94239 -1.20853 0
M  V30 17973 H 1702.26 5.30979 1.95136 0
M  V30 17974 H 1700.82 6.23987 1.8837 0
M  V30 17975 N 1704.25 0.762308 1.37937 0
M  V30 17976 C 1705.5 0.319104 1.9916 0
M  V30 17977 C 1705.81 -1.10787 1.61201 0
M  V30 17978 O 1707.02 -1.65198 2.15457 0
M  V30 17979 C 1705.47 0.519582 3.5613 0
M  V30 17980 C 1705.08 1.9562 4.03034 0
M  V30 17981 C 1706.83 0.139528 4.24271 0
M  V30 17982 C 1704.73 2.10478 5.52678 0
M  V30 17983 H 1703.66 0.115564 0.745091 0
M  V30 17984 H 1706.31 0.940092 1.5759 0
M  V30 17985 H 1704.7 -0.170724 3.95632 0
M  V30 17986 H 1705.87 2.68069 3.74801 0
M  V30 17987 H 1704.18 2.29197 3.47646 0
M  V30 17988 H 1706.78 0.22918 5.34209 0
M  V30 17989 H 1707.12 -0.908999 4.06255 0
M  V30 17990 H 1707.66 0.782019 3.90038 0
M  V30 17991 H 1704.4 3.13616 5.75609 0
M  V30 17992 H 1703.92 1.42501 5.82626 0
M  V30 17993 H 1705.6 1.89887 6.18508 0
M  V30 17994 N 1705.73 -1.49049 0.51208 0
M  V30 17995 C 1707.14 -1.86579 0.0670687 0
M  V30 17996 C 1707.49 -1.42339 -1.35034 0
M  V30 17997 O 1706.61 -0.806142 -2.00824 0
M  V30 17998 C 1707.21 -3.38605 0.114936 0
M  V30 17999 C 1705.77 -3.75396 -0.274787 0
M  V30 18000 C 1704.92 -2.73068 0.482613 0
M  V30 18001 H 1707.87 -1.41208 0.724287 0
M  V30 18002 H 1707.89 -3.74416 -0.677722 0
M  V30 18003 H 1707.4 -3.70774 1.14666 0
M  V30 18004 H 1705.5 -3.48837 -1.30933 0
M  V30 18005 H 1705.61 -4.79071 0.0523691 0
M  V30 18006 H 1703.98 -2.54607 -0.0689364 0
M  V30 18007 H 1704.76 -3.08081 1.51463 0
M  V30 18008 N 1707.21 -0.246397 -1.55662 0
M  V30 18009 C 1708.48 0.42879 -1.90842 0
M  V30 18010 C 1708.86 1.75905 -1.16707 0
M  V30 18011 O 1708.21 2.26723 -0.284391 0
M  V30 18012 C 1708.42 0.597368 -3.4385 0
M  V30 18013 C 1709.77 0.893477 -4.15093 0
M  V30 18014 O 1710.79 0.683251 -3.49586 0
M  V30 18015 O 1709.65 1.2938 -5.30964 0
M  V30 18016 H 1706.75 0.230145 -0.794331 0
M  V30 18017 H 1709.29 -0.290426 -1.67196 0
M  V30 18018 H 1708.06 -0.339952 -3.8982 0
M  V30 18019 H 1707.69 1.36714 -3.73356 0
M  V30 18020 N 1708.68 1.57577 0.026722 0
M  V30 18021 C 1709.61 2.09748 1.02605 0
M  V30 18022 C 1710.59 1.00054 1.37562 0
M  V30 18023 O 1711.78 1.2759 1.46405 0
M  V30 18024 C 1708.91 2.57881 2.32626 0
M  V30 18025 C 1707.86 3.7186 2.11905 0
M  V30 18026 C 1707.19 4.06208 3.47706 0
M  V30 18027 C 1708.49 5.00198 1.50332 0
M  V30 18028 H 1710.18 2.93494 0.591753 0
M  V30 18029 H 1707.73 1.41188 0.283199 0
M  V30 18030 H 1709.68 2.93 3.02868 0
M  V30 18031 H 1708.41 1.71222 2.7812 0
M  V30 18032 H 1707.07 3.37094 1.44096 0
M  V30 18033 H 1706.71 3.16611 3.90853 0
M  V30 18034 H 1706.41 4.82982 3.34667 0
M  V30 18035 H 1707.94 4.43863 4.19306 0
M  V30 18036 H 1709.35 5.33259 2.10494 0
M  V30 18037 H 1707.75 5.81599 1.4786 0
M  V30 18038 H 1708.82 4.82623 0.469405 0
M  V30 18039 N 1710.16 -0.299034 1.54737 0
M  V30 18040 C 1711.41 -1.03195 1.73767 0
M  V30 18041 C 1711.73 -1.87731 0.527445 0
M  V30 18042 O 1711 -1.90465 -0.458242 0
M  V30 18043 H 1709.58 -0.383996 0.640747 0
M  V30 18044 H 1712.24 -0.329544 1.92094 0
M  V30 18045 H 1711.34 -1.68393 2.62774 0
M  V30 18046 N 1711.64 -1.47227 -0.562322 0
M  V30 18047 C 1712.57 -1.55383 -1.6849 0
M  V30 18048 C 1713.58 -0.440437 -1.56729 0
M  V30 18049 O 1714.77 -0.709803 -1.63781 0
M  V30 18050 C 1711.87 -1.43723 -3.06915 0
M  V30 18051 C 1711.05 -2.69541 -3.4448 0
M  V30 18052 C 1710.11 -2.5179 -4.62048 0
M  V30 18053 O 1709.13 -3.25587 -4.66885 0
M  V30 18054 N 1710.33 -1.59282 -5.5822 0
M  V30 18055 H 1713.1 -2.52181 -1.61941 0
M  V30 18056 H 1710.66 -1.43541 -0.748832 0
M  V30 18057 H 1712.65 -1.2959 -3.83391 0
M  V30 18058 H 1711.22 -0.550272 -3.07719 0
M  V30 18059 H 1710.44 -2.98472 -2.57504 0
M  V30 18060 H 1711.73 -3.53079 -3.66351 0
M  V30 18061 H 1711.13 -0.984666 -5.57064 0
M  V30 18062 H 1709.68 -1.51103 -6.34043 0
M  V30 18063 N 1713.12 0.808639 -1.35273 0
M  V30 18064 C 1714.39 1.55238 -1.18998 0
M  V30 18065 C 1714.77 2.09824 0.231723 0
M  V30 18066 O 1714.12 1.92252 1.23497 0
M  V30 18067 C 1714.33 2.66252 -2.25634 0
M  V30 18068 C 1715.68 3.34646 -2.61338 0
M  V30 18069 O 1716.7 2.76521 -2.24532 0
M  V30 18070 O 1715.56 4.39644 -3.24615 0
M  V30 18071 H 1712.66 0.6858 -0.462176 0
M  V30 18072 H 1715.2 0.848777 -1.46949 0
M  V30 18073 H 1713.98 2.23774 -3.21 0
M  V30 18074 H 1713.6 3.4425 -1.98941 0
M  V30 18075 N 1714.6 1.19237 1.03055 0
M  V30 18076 C 1715.84 0.995444 1.76688 0
M  V30 18077 C 1716.18 -0.472805 1.88357 0
M  V30 18078 O 1715.45 -1.3511 1.39913 0
M  V30 18079 C 1715.73 1.66308 3.19396 0
M  V30 18080 C 1715.59 3.20486 3.15609 0
M  V30 18081 C 1716.91 1.38468 4.17749 0
M  V30 18082 H 1714.02 0.36304 0.641382 0
M  V30 18083 H 1716.67 1.47052 1.20315 0
M  V30 18084 H 1714.82 1.25915 3.67529 0
M  V30 18085 H 1716.49 3.70081 2.75387 0
M  V30 18086 H 1714.73 3.52118 2.53369 0
M  V30 18087 H 1715.4 3.62345 4.16426 0
M  V30 18088 H 1717.88 1.73485 3.78209 0
M  V30 18089 H 1716.75 1.87735 5.15797 0
M  V30 18090 H 1717.02 0.309505 4.41015 0
M  V30 18091 N 1716.07 -1.22136 0.99602 0
M  V30 18092 C 1717.02 -2.24178 0.54889 0
M  V30 18093 C 1717.99 -1.60692 -0.420391 0
M  V30 18094 O 1719.18 -1.88021 -0.324452 0
M  V30 18095 C 1716.32 -3.44865 -0.127239 0
M  V30 18096 C 1715.43 -4.22855 0.884153 0
M  V30 18097 C 1714.56 -5.30891 0.181219 0
M  V30 18098 C 1713.6 -6.00603 1.18077 0
M  V30 18099 N 1712.74 -7.00275 0.505927 0
M  V30 18100 H 1717.58 -2.61788 1.42377 0
M  V30 18101 H 1715.12 -1.28658 0.713124 0
M  V30 18102 H 1717.08 -4.1374 -0.536194 0
M  V30 18103 H 1715.71 -3.0801 -0.965892 0
M  V30 18104 H 1714.76 -3.53247 1.41141 0
M  V30 18105 H 1716.07 -4.70888 1.64518 0
M  V30 18106 H 1715.22 -6.06033 -0.284307 0
M  V30 18107 H 1713.96 -4.83841 -0.612289 0
M  V30 18108 H 1712.97 -5.2424 1.65689 0
M  V30 18109 H 1714.19 -6.4974 1.9752 0
M  V30 18110 H 1712.14 -6.55452 -0.268088 0
M  V30 18111 H 1712.06 -7.46329 1.20535 0
M  V30 18112 H 1713.32 -7.79474 0.0633069 0
M  V30 18113 N 1717.55 -0.769612 -1.37531 0
M  V30 18114 C 1718.83 -0.257788 -1.93894 0
M  V30 18115 C 1719.21 1.24679 -1.70348 0
M  V30 18116 O 1718.56 2.02892 -1.05106 0
M  V30 18117 C 1718.77 -0.628857 -3.43288 0
M  V30 18118 C 1720.12 -0.597452 -4.20376 0
M  V30 18119 O 1721.14 -0.568117 -3.5164 0
M  V30 18120 O 1720 -0.622627 -5.42942 0
M  V30 18121 H 1717.09 -0.0588144 -0.824906 0
M  V30 18122 H 1719.64 -0.85082 -1.4683 0
M  V30 18123 H 1718.41 -1.66733 -3.54 0
M  V30 18124 H 1718.03 -0.00865929 -3.97599 0
M  V30 18125 N 1719.03 1.48775 -0.519977 0
M  V30 18126 C 1720.44 1.86541 -0.0769625 0
M  V30 18127 C 1720.79 1.43053 1.34277 0
M  V30 18128 O 1719.92 0.816781 2.00394 0
M  V30 18129 C 1720.51 3.38539 -0.132891 0
M  V30 18130 C 1719.07 3.75536 0.254875 0
M  V30 18131 C 1718.22 2.72808 -0.497088 0
M  V30 18132 H 1721.17 1.40822 -0.731765 0
M  V30 18133 H 1721.19 3.7477 0.657856 0
M  V30 18134 H 1720.7 3.70161 -1.1663 0
M  V30 18135 H 1718.8 3.49527 1.29081 0
M  V30 18136 H 1718.92 4.79037 -0.0777747 0
M  V30 18137 H 1717.28 2.5464 0.0554331 0
M  V30 18138 H 1718.06 3.07274 -1.53094 0
M  V30 18139 N 1720.51 0.254649 1.55529 0
M  V30 18140 C 1721.42 -0.652184 2.25352 0
M  V30 18141 C 1722.43 -1.18695 1.2723 0
M  V30 18142 O 1723.61 -1.22158 1.60123 0
M  V30 18143 C 1720.68 -1.829 2.94531 0
M  V30 18144 C 1719.74 -1.33294 4.08082 0
M  V30 18145 C 1718.97 -2.45367 4.73952 0
M  V30 18146 O 1719.19 -3.64271 4.38933 0
M  V30 18147 O 1718.13 -2.14684 5.62311 0
M  V30 18148 H 1721.95 -0.0871786 3.03575 0
M  V30 18149 H 1719.54 0.0228432 1.49383 0
M  V30 18150 H 1721.42 -2.5156 3.38076 0
M  V30 18151 H 1720.09 -2.38148 2.19242 0
M  V30 18152 H 1719 -0.613396 3.69037 0
M  V30 18153 H 1720.33 -0.826454 4.85212 0
M  V30 18154 N 1721.99 -1.57589 -0.0183649 0
M  V30 18155 C 1723.26 -1.80938 -0.743021 0
M  V30 18156 C 1723.64 -0.855272 -1.92998 0
M  V30 18157 O 1722.99 0.100181 -2.2828 0
M  V30 18158 C 1723.2 -3.28945 -1.16602 0
M  V30 18159 C 1724.55 -3.94208 -1.5775 0
M  V30 18160 O 1725.57 -3.33159 -1.26031 0
M  V30 18161 O 1724.43 -5.01716 -2.16663 0
M  V30 18162 H 1721.53 -0.744435 -0.360203 0
M  V30 18163 H 1724.07 -1.69699 0.00567963 0
M  V30 18164 H 1722.84 -3.89996 -0.319154 0
M  V30 18165 H 1722.47 -3.45113 -1.9744 0
M  V30 18166 N 1723.46 0.290824 -1.54893 0
M  V30 18167 C 1724.7 1.0326 -1.76399 0
M  V30 18168 C 1725.07 1.84136 -0.543874 0
M  V30 18169 O 1726.27 2.61147 -0.636854 0
M  V30 18170 C 1724.54 1.90632 -3.02315 0
M  V30 18171 S 1726.1 2.71317 -3.44866 0
M  V30 18172 H 1722.92 0.348084 -0.619966 0
M  V30 18173 H 1725.52 0.304897 -1.93108 0
M  V30 18174 H 1724.22 1.30109 -3.8923 0
M  V30 18175 H 1723.75 2.67753 -2.88222 0
M  V30 18176 H 1725.77 3.93148 -3.02737 0
M  V30 18177 N 1724.94 1.47523 0.554506 0
M  V30 18178 C 1726.19 1.54287 1.31156 0
M  V30 18179 C 1726.52 0.206279 1.93403 0
M  V30 18180 O 1725.77 -0.801103 1.78552 0
M  V30 18181 C 1726.07 2.6113 2.4402 0
M  V30 18182 C 1725.74 4.04322 1.99586 0
M  V30 18183 C 1724.4 4.43301 1.87184 0
M  V30 18184 C 1726.75 4.94158 1.65703 0
M  V30 18185 C 1724.08 5.69948 1.39198 0
M  V30 18186 C 1726.43 6.21271 1.19187 0
M  V30 18187 C 1725.1 6.59129 1.05383 0
M  V30 18188 H 1724.37 0.564575 0.479934 0
M  V30 18189 H 1727.01 1.81134 0.621521 0
M  V30 18190 H 1725.32 2.2805 3.18591 0
M  V30 18191 H 1727.01 2.63585 3.02199 0
M  V30 18192 H 1723.6 3.73526 2.10182 0
M  V30 18193 H 1727.79 4.6474 1.74156 0
M  V30 18194 H 1723.04 5.98027 1.27178 0
M  V30 18195 H 1727.22 6.90292 0.920312 0
M  V30 18196 H 1724.85 7.57155 0.679777 0
M  V30 18197 N 1726.42 -0.801453 1.357 0
M  V30 18198 C 1727.65 -1.59001 1.32386 0
M  V30 18199 C 1728.06 -1.88548 -0.0975432 0
M  V30 18200 O 1727.42 -1.49199 -1.05099 0
M  V30 18201 C 1727.47 -2.91822 2.13359 0
M  V30 18202 O 1727.19 -2.63554 3.49958 0
M  V30 18203 C 1728.69 -3.86169 2.17689 0
M  V30 18204 H 1725.91 -0.493557 0.45458 0
M  V30 18205 H 1728.46 -0.995616 1.78627 0
M  V30 18206 H 1726.61 -3.47763 1.70704 0
M  V30 18207 H 1727.03 -3.48397 3.92071 0
M  V30 18208 H 1728.5 -4.76461 2.78727 0
M  V30 18209 H 1728.98 -4.23134 1.17704 0
M  V30 18210 H 1729.58 -3.36163 2.60527 0
M  V30 18211 N 1727.9 -1.19782 -1.02421 0
M  V30 18212 C 1728.81 -0.955253 -2.14271 0
M  V30 18213 C 1729.82 0.0863233 -1.73786 0
M  V30 18214 O 1731 -0.0993878 -2.01155 0
M  V30 18215 C 1728.07 -0.502219 -3.43043 0
M  V30 18216 C 1727.13 -1.61374 -3.97815 0
M  V30 18217 C 1726.36 -1.18223 -5.20441 0
M  V30 18218 O 1726.58 -0.0477334 -5.7038 0
M  V30 18219 O 1725.52 -1.98664 -5.68169 0
M  V30 18220 H 1729.34 -1.89157 -2.37599 0
M  V30 18221 H 1726.93 -0.981035 -1.12677 0
M  V30 18222 H 1728.81 -0.258445 -4.20607 0
M  V30 18223 H 1727.48 0.4056 -3.21149 0
M  V30 18224 H 1726.39 -1.91172 -3.21565 0
M  V30 18225 H 1727.72 -2.49829 -4.24083 0
M  V30 18226 N 1729.38 1.21606 -1.00248 0
M  V30 18227 C 1730.63 1.90231 -0.682401 0
M  V30 18228 C 1730.95 1.78324 0.78903 0
M  V30 18229 O 1730.22 1.17653 1.56635 0
M  V30 18230 H 1728.8 0.704132 -0.249414 0
M  V30 18231 H 1731.46 1.47751 -1.27105 0
M  V30 18232 H 1730.55 2.97183 -0.953351 0
M  V30 18233 N 1730.86 0.776895 1.37121 0
M  V30 18234 C 1732.1 0.348792 2.01402 0
M  V30 18235 C 1732.46 -1.05625 1.60335 0
M  V30 18236 O 1733.66 -1.58475 2.17116 0
M  V30 18237 C 1731.93 0.493351 3.53979 0
M  V30 18238 S 1733.49 0.151273 4.38539 0
M  V30 18239 H 1730.31 0.133916 0.698275 0
M  V30 18240 H 1732.91 1.01264 1.6723 0
M  V30 18241 H 1731.61 1.51647 3.81355 0
M  V30 18242 H 1731.15 -0.186869 3.92956 0
M  V30 18243 H 1733.16 -1.05145 4.84932 0
M  V30 18244 N 1732.33 -1.48497 0.527859 0
M  V30 18245 C 1733.58 -2.02799 -0.00702196 0
M  V30 18246 C 1733.91 -1.40433 -1.34135 0
M  V30 18247 O 1733.19 -0.54934 -1.86581 0
M  V30 18248 C 1733.47 -3.59861 -0.131272 0
M  V30 18249 C 1733.32 -4.32711 1.22807 0
M  V30 18250 C 1734.64 -4.31634 -0.85908 0
M  V30 18251 H 1731.76 -0.736999 -0.00107787 0
M  V30 18252 H 1734.4 -1.77242 0.684478 0
M  V30 18253 H 1732.55 -3.81766 -0.720216 0
M  V30 18254 H 1734.23 -4.22229 1.85796 0
M  V30 18255 H 1732.47 -3.94212 1.8105 0
M  V30 18256 H 1733.14 -5.41047 1.09415 0
M  V30 18257 H 1735.62 -4.14546 -0.359322 0
M  V30 18258 H 1734.49 -5.41221 -0.914911 0
M  V30 18259 H 1734.75 -3.98765 -1.90889 0
M  V30 18260 N 1733.81 -0.262893 -1.55392 0
M  V30 18261 C 1735.23 0.09157 -1.59337 0
M  V30 18262 C 1735.43 1.55612 -1.28012 0
M  V30 18263 O 1734.48 2.30308 -1.0351 0
M  V30 18264 C 1735.8 -0.272043 -2.99467 0
M  V30 18265 C 1737.34 -0.217653 -3.12242 0
M  V30 18266 C 1737.82 -0.555528 -4.54618 0
M  V30 18267 N 1739.31 -0.506623 -4.60421 0
M  V30 18268 C 1740.05 -0.741013 -5.68592 0
M  V30 18269 N 1739.54 -1.03937 -6.84959 0
M  V30 18270 N 1741.33 -0.670636 -5.58085 0
M  V30 18271 H 1733.49 -1.2178 -1.74021 0
M  V30 18272 H 1735.75 -0.491131 -0.81086 0
M  V30 18273 H 1735.45 -1.29012 -3.27183 0
M  V30 18274 H 1735.33 0.393105 -3.75146 0
M  V30 18275 H 1737.72 0.791123 -2.84298 0
M  V30 18276 H 1737.8 -0.916884 -2.38803 0
M  V30 18277 H 1737.44 -1.56193 -4.83287 0
M  V30 18278 H 1737.37 0.165358 -5.2634 0
M  V30 18279 H 1739.86 -0.285397 -3.76821 0
M  V30 18280 H 1740.17 -1.20522 -7.63344 0
M  V30 18281 H 1738.52 -1.07702 -6.86604 0
M  V30 18282 H 1741.71 -0.437473 -4.66051 0
M  V30 18283 H 1741.88 -0.856692 -6.42312 0
M  V30 18284 N 1735.29 1.57597 0.0100073 0
M  V30 18285 C 1736.71 1.55348 0.365949 0
M  V30 18286 C 1736.91 0.991487 1.75419 0
M  V30 18287 O 1735.96 0.620894 2.44747 0
M  V30 18288 C 1737.27 2.99656 0.250343 0
M  V30 18289 C 1738.82 3.11297 0.326023 0
M  V30 18290 C 1739.3 4.57373 0.239653 0
M  V30 18291 N 1740.79 4.62241 0.297863 0
M  V30 18292 C 1741.52 5.72836 0.254219 0
M  V30 18293 N 1741.02 6.92611 0.161753 0
M  V30 18294 N 1742.81 5.6127 0.30535 0
M  V30 18295 H 1734.96 1.92471 -0.898253 0
M  V30 18296 H 1737.23 0.883623 -0.343386 0
M  V30 18297 H 1736.93 3.44574 -0.704407 0
M  V30 18298 H 1736.81 3.62682 1.03643 0
M  V30 18299 H 1739.19 2.66316 1.27121 0
M  V30 18300 H 1739.27 2.51068 -0.489756 0
M  V30 18301 H 1738.92 5.03026 -0.70195 0
M  V30 18302 H 1738.85 5.15536 1.07379 0
M  V30 18303 H 1741.34 3.76074 0.371065 0
M  V30 18304 H 1741.65 7.72684 0.134073 0
M  V30 18305 H 1740 6.94883 0.127524 0
M  V30 18306 H 1743.19 4.6659 0.375713 0
M  V30 18307 H 1743.36 6.47446 0.267871 0
M  V30 18308 N 1736.77 -0.282606 1.55045 0
M  V30 18309 C 1738.01 -1.02323 1.76945 0
M  V30 18310 C 1738.37 -1.83845 0.553631 0
M  V30 18311 O 1739.57 -2.60805 0.650695 0
M  V30 18312 C 1737.84 -1.89026 3.03322 0
M  V30 18313 S 1739.4 -2.69484 3.463 0
M  V30 18314 H 1736.22 -0.344792 0.621804 0
M  V30 18315 H 1738.82 -0.294652 1.93267 0
M  V30 18316 H 1737.53 -1.28043 3.89914 0
M  V30 18317 H 1737.06 -2.6622 2.89638 0
M  V30 18318 H 1739.07 -3.91537 3.04817 0
M  V30 18319 N 1738.25 -1.47815 -0.546675 0
M  V30 18320 C 1739.66 -1.48715 -1.12875 0
M  V30 18321 C 1740.01 -0.247647 -1.94631 0
M  V30 18322 O 1739.13 0.646615 -2.06514 0
M  V30 18323 C 1739.73 -2.69459 -2.05371 0
M  V30 18324 C 1738.29 -2.73285 -2.58829 0
M  V30 18325 C 1737.43 -2.4198 -1.35429 0
M  V30 18326 H 1740.38 -1.55172 -0.332746 0
M  V30 18327 H 1740.41 -2.47028 -2.89408 0
M  V30 18328 H 1739.92 -3.59656 -1.4584 0
M  V30 18329 H 1738.02 -1.87254 -3.22128 0
M  V30 18330 H 1738.13 -3.74265 -2.99103 0
M  V30 18331 H 1736.5 -1.92783 -1.66454 0
M  V30 18332 H 1737.28 -3.34397 -0.776753 0
M  V30 18333 N 1739.72 0.794246 -1.36123 0
M  V30 18334 C 1740.96 1.56516 -1.31462 0
M  V30 18335 C 1741.33 1.91706 0.106284 0
M  V30 18336 O 1742.53 2.67365 0.277403 0
M  V30 18337 C 1740.8 2.81108 -2.2071 0
M  V30 18338 S 1742.36 3.71399 -2.33685 0
M  V30 18339 H 1739.18 0.536118 -0.467011 0
M  V30 18340 H 1741.78 0.935871 -1.71644 0
M  V30 18341 H 1740.48 2.53299 -3.22905 0
M  V30 18342 H 1740.01 3.49014 -1.8153 0
M  V30 18343 H 1742.03 4.71998 -1.53078 0
M  V30 18344 N 1741.2 1.20323 1.01785 0
M  V30 18345 C 1742.44 1.0239 1.76906 0
M  V30 18346 C 1742.81 -0.436461 1.86973 0
M  V30 18347 O 1744.01 -0.735939 2.58529 0
M  V30 18348 C 1742.28 1.68729 3.15064 0
M  V30 18349 S 1743.84 1.65881 4.06237 0
M  V30 18350 H 1740.65 0.367179 0.608852 0
M  V30 18351 H 1743.26 1.52857 1.21881 0
M  V30 18352 H 1741.96 2.74194 3.05362 0
M  V30 18353 H 1741.49 1.18387 3.75164 0
M  V30 18354 H 1743.51 0.6908 4.91368 0
M  V30 18355 N 1742.68 -1.21073 1.00892 0
M  V30 18356 C 1743.64 -2.21804 0.577543 0
M  V30 18357 C 1744.64 -1.56985 -0.348201 0
M  V30 18358 O 1745.83 -1.73653 -0.137947 0
M  V30 18359 C 1742.96 -3.40535 -0.157685 0
M  V30 18360 H 1744.16 -2.61483 1.46856 0
M  V30 18361 H 1741.71 -1.34402 0.79786 0
M  V30 18362 H 1742.45 -3.0635 -1.06397 0
M  V30 18363 H 1742.23 -3.88805 0.507238 0
M  V30 18364 H 1743.72 -4.152 -0.447109 0
M  V30 18365 N 1744.16 -0.784156 -1.36707 0
M  V30 18366 C 1745.4 -0.354658 -1.99675 0
M  V30 18367 C 1745.74 1.06948 -1.62098 0
M  V30 18368 O 1745.01 1.73798 -0.873192 0
M  V30 18369 C 1745.3 -0.512421 -3.56435 0
M  V30 18370 C 1745.15 -1.97987 -4.03883 0
M  V30 18371 C 1746.47 0.075762 -4.40035 0
M  V30 18372 H 1743.59 -0.130338 -0.725383 0
M  V30 18373 H 1746.23 -0.989515 -1.62199 0
M  V30 18374 H 1744.38 0.0280323 -3.8849 0
M  V30 18375 H 1746.05 -2.58098 -3.82339 0
M  V30 18376 H 1744.29 -2.48433 -3.55617 0
M  V30 18377 H 1744.96 -2.04125 -5.12871 0
M  V30 18378 H 1747.44 -0.385522 -4.1431 0
M  V30 18379 H 1746.32 -0.0646832 -5.48862 0
M  V30 18380 H 1746.58 1.16735 -4.2641 0
M  V30 18381 N 1745.64 1.48215 -0.535727 0
M  V30 18382 C 1746.91 1.95505 0.0609376 0
M  V30 18383 C 1747.29 1.47806 1.5072 0
M  V30 18384 O 1746.64 0.707142 2.17283 0
M  V30 18385 C 1746.85 3.48944 -0.0622609 0
M  V30 18386 C 1748.2 4.24496 0.0940805 0
M  V30 18387 O 1749.22 3.56198 0.0112532 0
M  V30 18388 O 1748.08 5.4584 0.268547 0
M  V30 18389 H 1745.18 0.82349 0.0761079 0
M  V30 18390 H 1747.72 1.58711 -0.600732 0
M  V30 18391 H 1746.49 3.76401 -1.06949 0
M  V30 18392 H 1746.12 3.92448 0.637999 0
M  V30 18393 N 1747.11 0.27113 1.5525 0
M  V30 18394 C 1748.34 -0.350248 2.03914 0
M  V30 18395 C 1748.76 -1.49763 1.14963 0
M  V30 18396 O 1748.11 -1.81717 0.168923 0
M  V30 18397 C 1748.17 -0.835056 3.51723 0
M  V30 18398 O 1747.89 0.266625 4.37288 0
M  V30 18399 C 1749.39 -1.52466 4.16256 0
M  V30 18400 H 1746.61 -0.0803955 0.666166 0
M  V30 18401 H 1749.15 0.402063 2.00509 0
M  V30 18402 H 1747.31 -1.53747 3.55585 0
M  V30 18403 H 1747.72 -0.105433 5.24394 0
M  V30 18404 H 1749.19 -1.81534 5.21296 0
M  V30 18405 H 1749.67 -2.45485 3.64189 0
M  V30 18406 H 1750.28 -0.8662 4.16386 0
M  V30 18407 N 1748.59 -1.576 -0.00164943 0
M  V30 18408 C 1749.82 -1.94775 -0.697872 0
M  V30 18409 C 1750.24 -0.873094 -1.67399 0
M  V30 18410 O 1749.59 0.148119 -1.81898 0
M  V30 18411 C 1749.64 -3.31963 -1.43117 0
M  V30 18412 O 1749.36 -4.35304 -0.494203 0
M  V30 18413 C 1750.87 -3.83588 -2.22206 0
M  V30 18414 H 1748.09 -0.6422 -0.194474 0
M  V30 18415 H 1750.63 -2.04441 0.04898 0
M  V30 18416 H 1748.78 -3.2361 -2.12967 0
M  V30 18417 H 1749.2 -5.14656 -1.0114 0
M  V30 18418 H 1750.67 -4.82012 -2.69014 0
M  V30 18419 H 1751.15 -3.16208 -3.0481 0
M  V30 18420 H 1751.76 -3.95111 -1.57376 0
M  V30 18421 N 1750.07 0.274379 -1.55193 0
M  V30 18422 C 1751 1.36139 -1.84388 0
M  V30 18423 C 1752.02 1.45601 -0.728294 0
M  V30 18424 O 1753.2 1.47443 -1.00613 0
M  V30 18425 C 1750.3 2.74278 -1.9906 0
M  V30 18426 C 1749.48 2.87424 -3.29706 0
M  V30 18427 C 1748.54 4.06229 -3.34461 0
M  V30 18428 O 1747.56 3.97053 -4.07845 0
M  V30 18429 N 1748.76 5.18131 -2.61764 0
M  V30 18430 H 1751.53 1.1144 -2.78211 0
M  V30 18431 H 1749.09 0.464493 -1.55094 0
M  V30 18432 H 1751.08 3.52047 -1.99613 0
M  V30 18433 H 1749.65 2.91805 -1.1211 0
M  V30 18434 H 1748.87 1.96551 -3.41704 0
M  V30 18435 H 1750.16 2.93137 -4.15871 0
M  V30 18436 H 1749.56 5.28473 -2.01824 0
M  V30 18437 H 1748.12 5.94135 -2.68042 0
M  V30 18438 N 1751.55 1.48103 0.538828 0
M  V30 18439 C 1752.51 1.61495 1.62641 0
M  V30 18440 C 1753.51 0.488792 1.53191 0
M  V30 18441 O 1754.7 0.754355 1.57019 0
M  V30 18442 C 1751.83 1.57681 3.02241 0
M  V30 18443 H 1753.03 2.58462 1.5211 0
M  V30 18444 H 1750.58 1.36567 0.760201 0
M  V30 18445 H 1751.31 0.621583 3.18287 0
M  V30 18446 H 1751.1 2.3943 3.10509 0
M  V30 18447 H 1752.59 1.70228 3.81329 0
M  V30 18448 N 1753.03 -0.787016 1.36542 0
M  V30 18449 C 1754.44 -1.36234 1.2766 0
M  V30 18450 C 1754.79 -1.96026 -0.0825391 0
M  V30 18451 O 1753.91 -1.92731 -0.984059 0
M  V30 18452 C 1754.51 -2.47684 2.31167 0
M  V30 18453 C 1753.07 -3.01026 2.25966 0
M  V30 18454 C 1752.21 -1.74122 2.15816 0
M  V30 18455 H 1755.17 -0.58847 1.47386 0
M  V30 18456 H 1755.19 -3.26765 1.94949 0
M  V30 18457 H 1754.7 -2.04136 3.30076 0
M  V30 18458 H 1752.8 -3.48988 1.30531 0
M  V30 18459 H 1752.91 -3.57677 3.18754 0
M  V30 18460 H 1751.28 -1.9645 1.6211 0
M  V30 18461 H 1752.06 -1.32699 3.16616 0
M  V30 18462 N 1754.5 -1.20861 -1.01145 0
M  V30 18463 C 1755.75 -1.0199 -1.74478 0
M  V30 18464 C 1756.07 0.4484 -1.89775 0
M  V30 18465 O 1755.34 1.32386 -1.44398 0
M  V30 18466 H 1753.92 -0.37439 -0.646406 0
M  V30 18467 H 1756.59 -1.5206 -1.21917 0
M  V30 18468 H 1755.68 -1.48251 -2.74642 0
M  V30 18469 N 1755.98 1.20536 -1.01532 0
M  V30 18470 C 1756.93 2.23277 -0.584486 0
M  V30 18471 C 1757.9 1.6134 0.394773 0
M  V30 18472 O 1759.08 1.88514 0.294498 0
M  V30 18473 C 1756.22 3.45024 0.0723574 0
M  V30 18474 C 1755.34 4.21395 -0.951314 0
M  V30 18475 C 1754.47 5.30535 -0.265656 0
M  V30 18476 C 1753.51 5.98649 -1.27617 0
M  V30 18477 N 1752.65 6.99381 -0.61727 0
M  V30 18478 H 1757.49 2.59489 -1.46524 0
M  V30 18479 H 1755.03 1.27507 -0.733502 0
M  V30 18480 H 1756.98 4.14541 0.470303 0
M  V30 18481 H 1755.61 3.09508 0.916768 0
M  V30 18482 H 1754.67 3.50957 -1.46743 0
M  V30 18483 H 1755.98 4.68211 -1.71989 0
M  V30 18484 H 1755.13 6.06409 0.187857 0
M  V30 18485 H 1753.87 4.84754 0.535237 0
M  V30 18486 H 1752.88 5.21537 -1.74008 0
M  V30 18487 H 1754.1 6.46516 -2.07832 0
M  V30 18488 H 1752.05 6.55796 0.163777 0
M  V30 18489 H 1751.96 7.44317 -1.32393 0
M  V30 18490 H 1753.23 7.79275 -0.187306 0
M  V30 18491 N 1757.46 0.791395 1.36289 0
M  V30 18492 C 1758.71 0.365242 1.99484 0
M  V30 18493 C 1759.04 -1.06087 1.62663 0
M  V30 18494 O 1758.31 -1.73332 0.882396 0
M  V30 18495 C 1758.6 0.531317 3.56159 0
M  V30 18496 C 1758.45 2.00126 4.02827 0
M  V30 18497 C 1759.77 -0.0524248 4.40069 0
M  V30 18498 H 1756.89 0.134183 0.724682 0
M  V30 18499 H 1759.53 0.998102 1.61672 0
M  V30 18500 H 1757.68 -0.0074293 3.88499 0
M  V30 18501 H 1759.35 2.60122 3.80965 0
M  V30 18502 H 1757.6 2.50316 3.54294 0
M  V30 18503 H 1758.27 2.06842 5.11782 0
M  V30 18504 H 1760.74 0.407489 4.141 0
M  V30 18505 H 1759.62 0.0937898 5.4882 0
M  V30 18506 H 1759.88 -1.14472 4.27023 0
M  V30 18507 N 1758.94 -1.47929 0.54358 0
M  V30 18508 C 1760.19 -2.03387 0.0226665 0
M  V30 18509 C 1760.54 -1.41189 -1.30704 0
M  V30 18510 O 1759.83 -0.553281 -1.83438 0
M  V30 18511 C 1760.03 -3.57116 -0.142408 0
M  V30 18512 C 1759.86 -4.3422 1.16975 0
M  V30 18513 C 1758.63 -4.7464 1.73335 0
M  V30 18514 C 1760.82 -4.70199 2.08369 0
M  V30 18515 N 1758.81 -5.36333 2.98697 0
M  V30 18516 C 1760.18 -5.32052 3.18309 0
M  V30 18517 C 1762.23 -4.52128 2.0853 0
M  V30 18518 C 1760.94 -5.77744 4.28491 0
M  V30 18519 C 1762.96 -4.9881 3.17715 0
M  V30 18520 C 1762.32 -5.607 4.26374 0
M  V30 18521 H 1758.42 -0.780392 0.0501262 0
M  V30 18522 H 1761.01 -1.80583 0.727863 0
M  V30 18523 H 1759.18 -3.79716 -0.816707 0
M  V30 18524 H 1760.91 -3.99213 -0.664154 0
M  V30 18525 H 1757.66 -4.5617 1.27302 0
M  V30 18526 H 1758.09 -5.71734 3.62559 0
M  V30 18527 H 1762.73 -4.03647 1.25812 0
M  V30 18528 H 1760.45 -6.25223 5.11979 0
M  V30 18529 H 1764.03 -4.86608 3.1891 0
M  V30 18530 H 1762.91 -5.96165 5.09467 0
M  V30 18531 N 1760.42 -0.27936 -1.55104 0
M  V30 18532 C 1761.66 0.329674 -2.00711 0
M  V30 18533 C 1762.02 1.53167 -1.16437 0
M  V30 18534 O 1761.31 1.90245 -0.22746 0
M  V30 18535 C 1761.51 0.758312 -3.49263 0
M  V30 18536 C 1761.33 -0.400602 -4.47912 0
M  V30 18537 C 1760.1 -0.885741 -4.97476 0
M  V30 18538 C 1762.3 -1.23849 -4.99165 0
M  V30 18539 N 1760.28 -2.01368 -5.79935 0
M  V30 18540 C 1761.66 -2.21425 -5.79112 0
M  V30 18541 C 1763.71 -1.27134 -4.81395 0
M  V30 18542 C 1762.41 -3.22036 -6.43184 0
M  V30 18543 C 1764.44 -2.26593 -5.46269 0
M  V30 18544 C 1763.8 -3.22901 -6.26031 0
M  V30 18545 H 1759.9 0.0856909 -0.777291 0
M  V30 18546 H 1762.48 -0.404349 -1.90455 0
M  V30 18547 H 1760.66 1.46155 -3.59852 0
M  V30 18548 H 1762.39 1.34504 -3.81695 0
M  V30 18549 H 1759.14 -0.46433 -4.71318 0
M  V30 18550 H 1759.57 -2.58139 -6.25854 0
M  V30 18551 H 1764.21 -0.540548 -4.1933 0
M  V30 18552 H 1761.93 -3.96047 -7.04395 0
M  V30 18553 H 1765.51 -2.29882 -5.34458 0
M  V30 18554 H 1764.39 -3.98603 -6.75341 0
M  V30 18555 N 1761.9 1.57599 -0.0067085 0
M  V30 18556 C 1763.31 1.55727 0.349452 0
M  V30 18557 C 1763.51 1.01004 1.74357 0
M  V30 18558 O 1762.57 0.646817 2.44075 0
M  V30 18559 C 1763.88 2.99905 0.218546 0
M  V30 18560 C 1765.43 3.11626 0.292987 0
M  V30 18561 C 1765.9 4.57601 0.191129 0
M  V30 18562 N 1767.39 4.62531 0.248819 0
M  V30 18563 C 1768.13 5.73074 0.193448 0
M  V30 18564 N 1767.63 6.92744 0.0882834 0
M  V30 18565 N 1769.42 5.61562 0.245803 0
M  V30 18566 H 1761.57 1.91508 -0.918617 0
M  V30 18567 H 1763.83 0.879931 -0.352739 0
M  V30 18568 H 1763.54 3.43807 -0.740914 0
M  V30 18569 H 1763.41 3.63761 0.997905 0
M  V30 18570 H 1765.8 2.67649 1.2429 0
M  V30 18571 H 1765.88 2.50534 -0.516358 0
M  V30 18572 H 1765.52 5.02253 -0.755263 0
M  V30 18573 H 1765.45 5.16646 1.01905 0
M  V30 18574 H 1767.95 3.76446 0.331157 0
M  V30 18575 H 1768.26 7.72782 0.052112 0
M  V30 18576 H 1766.6 6.94979 0.0538156 0
M  V30 18577 H 1769.79 4.66962 0.326204 0
M  V30 18578 H 1769.97 6.47694 0.199185 0
M  V30 18579 N 1763.37 -0.266145 1.55336 0
M  V30 18580 C 1764.3 -1.33322 1.91697 0
M  V30 18581 C 1765.28 -1.51182 0.77961 0
M  V30 18582 O 1766.47 -1.64112 1.03832 0
M  V30 18583 C 1763.6 -2.69151 2.19488 0
M  V30 18584 C 1762.55 -2.66012 3.35293 0
M  V30 18585 C 1761.88 -4.05458 3.4858 0
M  V30 18586 C 1763.18 -2.24681 4.71504 0
M  V30 18587 H 1764.87 -1.03138 2.81075 0
M  V30 18588 H 1762.42 -0.494702 1.35236 0
M  V30 18589 H 1764.37 -3.43918 2.43512 0
M  V30 18590 H 1763.1 -3.00932 1.26916 0
M  V30 18591 H 1761.76 -1.93703 3.11247 0
M  V30 18592 H 1761.4 -4.34472 2.53462 0
M  V30 18593 H 1761.1 -4.04251 4.26445 0
M  V30 18594 H 1762.63 -4.81954 3.74904 0
M  V30 18595 H 1764.04 -2.89173 4.95027 0
M  V30 18596 H 1762.44 -2.34622 5.52334 0
M  V30 18597 H 1763.51 -1.19819 4.69863 0
M  V30 18598 N 1764.85 -1.48386 -0.530967 0
M  V30 18599 C 1766.27 -1.34485 -0.859412 0
M  V30 18600 C 1766.47 -0.355124 -1.98346 0
M  V30 18601 O 1765.52 0.224012 -2.51504 0
M  V30 18602 C 1766.84 -2.74488 -1.22787 0
M  V30 18603 C 1768.38 -2.82969 -1.33781 0
M  V30 18604 C 1768.86 -4.23673 -1.7397 0
M  V30 18605 N 1770.35 -4.26341 -1.81074 0
M  V30 18606 C 1771.09 -5.32149 -2.13554 0
M  V30 18607 N 1770.58 -6.48235 -2.44464 0
M  V30 18608 N 1772.37 -5.19542 -2.14551 0
M  V30 18609 H 1764.53 -2.11352 0.210713 0
M  V30 18610 H 1766.79 -0.947472 0.0316283 0
M  V30 18611 H 1766.49 -3.4847 -0.475552 0
M  V30 18612 H 1766.37 -3.0795 -2.17823 0
M  V30 18613 H 1768.76 -2.09244 -2.08089 0
M  V30 18614 H 1768.84 -2.53129 -0.368677 0
M  V30 18615 H 1768.48 -4.97914 -1.00222 0
M  V30 18616 H 1768.41 -4.50956 -2.71931 0
M  V30 18617 H 1770.9 -3.42606 -1.59467 0
M  V30 18618 H 1771.21 -7.24712 -2.6835 0
M  V30 18619 H 1769.56 -6.51512 -2.41986 0
M  V30 18620 H 1772.75 -4.27868 -1.89859 0
M  V30 18621 H 1772.92 -6.02103 -2.39532 0
M  V30 18622 N 1766.33 0.779763 -1.36958 0
M  V30 18623 C 1767.28 1.89278 -1.32071 0
M  V30 18624 C 1768.25 1.65037 -0.18766 0
M  V30 18625 O 1769.43 1.87064 -0.375736 0
M  V30 18626 C 1766.57 3.2623 -1.12552 0
M  V30 18627 C 1765.68 3.62479 -2.35017 0
M  V30 18628 C 1764.82 4.88599 -2.08434 0
M  V30 18629 C 1763.86 5.17555 -3.26808 0
M  V30 18630 N 1763 6.3486 -2.99828 0
M  V30 18631 H 1767.84 1.9279 -2.27235 0
M  V30 18632 H 1765.37 0.942656 -1.12927 0
M  V30 18633 H 1767.33 4.0522 -0.992595 0
M  V30 18634 H 1765.96 3.22114 -0.210387 0
M  V30 18635 H 1765.01 2.78536 -2.59079 0
M  V30 18636 H 1766.32 3.7982 -3.23324 0
M  V30 18637 H 1765.48 5.75476 -1.92127 0
M  V30 18638 H 1764.22 4.73346 -1.17453 0
M  V30 18639 H 1763.22 4.29156 -3.43664 0
M  V30 18640 H 1764.45 5.34721 -4.18629 0
M  V30 18641 H 1762.39 6.20981 -2.11468 0
M  V30 18642 H 1762.31 6.52579 -3.81676 0
M  V30 18643 H 1763.58 7.24695 -2.8712 0
M  V30 18644 N 1767.81 1.21396 1.00503 0
M  V30 18645 C 1769.04 1.05714 1.77855 0
M  V30 18646 C 1769.45 -0.393058 1.84663 0
M  V30 18647 O 1768.81 -1.2727 1.308 0
M  V30 18648 C 1768.86 1.64774 3.21763 0
M  V30 18649 O 1768.58 3.0412 3.15346 0
M  V30 18650 C 1770.08 1.54202 4.15616 0
M  V30 18651 H 1767.3 0.371241 0.558947 0
M  V30 18652 H 1769.84 1.60733 1.26433 0
M  V30 18653 H 1768 1.13847 3.70294 0
M  V30 18654 H 1768.41 3.32356 4.05758 0
M  V30 18655 H 1769.89 2.00269 5.14389 0
M  V30 18656 H 1770.36 0.496455 4.36385 0
M  V30 18657 H 1770.97 2.04377 3.72975 0
M  V30 18658 N 1769.29 -1.19996 1.0217 0
M  V30 18659 C 1770.53 -1.91201 0.722601 0
M  V30 18660 C 1770.89 -1.77387 -0.734692 0
M  V30 18661 O 1772.09 -2.43121 -1.14654 0
M  V30 18662 C 1770.36 -3.38308 1.1525 0
M  V30 18663 S 1771.92 -4.27805 0.976144 0
M  V30 18664 H 1768.74 -0.660456 0.263285 0
M  V30 18665 H 1771.34 -1.45115 1.31003 0
M  V30 18666 H 1770.04 -3.45885 2.20889 0
M  V30 18667 H 1769.58 -3.89422 0.558056 0
M  V30 18668 H 1771.59 -4.96061 -0.117417 0
M  V30 18669 N 1770.76 -0.798611 -1.35867 0
M  V30 18670 C 1771.99 -0.386918 -2.02945 0
M  V30 18671 C 1772.4 1.00438 -1.6034 0
M  V30 18672 O 1771.74 1.65716 -0.792719 0
M  V30 18673 C 1771.81 -0.381754 -3.57467 0
M  V30 18674 C 1771.47 -1.72219 -4.23308 0
M  V30 18675 C 1772.47 -2.67919 -4.45551 0
M  V30 18676 C 1770.15 -2.00402 -4.60591 0
M  V30 18677 C 1772.15 -3.8999 -5.04169 0
M  V30 18678 C 1769.83 -3.22737 -5.18926 0
M  V30 18679 C 1770.83 -4.1735 -5.40655 0
M  V30 18680 O 1770.52 -5.37527 -5.97762 0
M  V30 18681 H 1770.25 -0.156344 -0.657672 0
M  V30 18682 H 1772.81 -1.08128 -1.74635 0
M  V30 18683 H 1771.04 0.369157 -3.84934 0
M  V30 18684 H 1772.72 0.00653107 -4.05899 0
M  V30 18685 H 1773.49 -2.47436 -4.17134 0
M  V30 18686 H 1769.37 -1.27573 -4.42997 0
M  V30 18687 H 1772.91 -4.6385 -5.21046 0
M  V30 18688 H 1768.81 -3.43094 -5.46769 0
M  V30 18689 H 1769.58 -5.38716 -6.16221 0
M  V30 18690 N 1772.24 1.47639 -0.551417 0
M  V30 18691 C 1773.19 2.26938 0.219798 0
M  V30 18692 C 1774.18 1.34006 0.890571 0
M  V30 18693 O 1775.37 1.584 0.789834 0
M  V30 18694 C 1772.5 3.19625 1.25279 0
M  V30 18695 C 1771.58 4.20036 0.585724 0
M  V30 18696 N 1771.97 5.0465 -0.34089 0
M  V30 18697 C 1770.27 4.38012 0.840352 0
M  V30 18698 C 1770.97 5.77129 -0.727814 0
M  V30 18699 N 1769.95 5.43535 -0.0839681 0
M  V30 18700 H 1773.75 2.8974 -0.492729 0
M  V30 18701 H 1771.26 1.58107 -0.370943 0
M  V30 18702 H 1773.26 3.75114 1.8192 0
M  V30 18703 H 1771.92 2.5838 1.96647 0
M  V30 18704 H 1772.93 5.12944 -0.71473 0
M  V30 18705 H 1769.61 3.87941 1.54298 0
M  V30 18706 H 1771 6.55196 -1.48888 0
M  V30 18707 N 1773.72 0.287581 1.54954 0
M  V30 18708 C 1774.97 -0.326315 1.99043 0
M  V30 18709 C 1775.28 -1.56033 1.17954 0
M  V30 18710 O 1776.49 -2.24797 1.52246 0
M  V30 18711 C 1774.94 -0.631918 3.54309 0
M  V30 18712 C 1774.55 0.582998 4.4419 0
M  V30 18713 C 1776.3 -1.20775 4.06957 0
M  V30 18714 C 1774.2 0.251291 5.90866 0
M  V30 18715 H 1773.13 -0.125703 0.743448 0
M  V30 18716 H 1775.78 0.394188 1.79216 0
M  V30 18717 H 1774.17 -1.41166 3.69984 0
M  V30 18718 H 1775.34 1.35957 4.40287 0
M  V30 18719 H 1773.66 1.07653 4.02243 0
M  V30 18720 H 1776.25 -1.46995 5.14098 0
M  V30 18721 H 1776.6 -2.14569 3.56743 0
M  V30 18722 H 1777.13 -0.490021 3.9477 0
M  V30 18723 H 1773.87 1.15744 6.452 0
M  V30 18724 H 1773.39 -0.488274 5.97809 0
M  V30 18725 H 1775.07 -0.152008 6.46821 0
M  V30 18726 N 1775.2 -1.57593 0.0150662 0
M  V30 18727 C 1776.44 -1.91497 -0.667587 0
M  V30 18728 C 1776.78 -0.890493 -1.7258 0
M  V30 18729 O 1776.05 0.0887462 -1.94297 0
M  V30 18730 C 1776.34 -3.35934 -1.29694 0
M  V30 18731 C 1776.19 -4.49109 -0.249242 0
M  V30 18732 C 1777.51 -3.80068 -2.21893 0
M  V30 18733 H 1774.63 -0.696408 -0.241217 0
M  V30 18734 H 1777.27 -1.89873 0.0694484 0
M  V30 18735 H 1775.42 -3.37448 -1.92512 0
M  V30 18736 H 1777.09 -4.59729 0.380417 0
M  V30 18737 H 1775.33 -4.31695 0.426861 0
M  V30 18738 H 1776 -5.47166 -0.728934 0
M  V30 18739 H 1778.48 -3.80201 -1.69076 0
M  V30 18740 H 1777.36 -4.81852 -2.62887 0
M  V30 18741 H 1777.62 -3.1478 -3.10429 0
M  V30 18742 N 1776.68 0.257904 -1.55475 0
M  V30 18743 C 1777.59 1.34084 -1.92506 0
M  V30 18744 C 1778.6 1.53246 -0.824123 0
M  V30 18745 O 1779.78 1.67081 -1.12455 0
M  V30 18746 C 1776.84 2.67741 -2.20263 0
M  V30 18747 C 1775.9 2.57196 -3.43728 0
M  V30 18748 C 1775.14 3.84479 -3.7015 0
M  V30 18749 O 1775.36 4.85858 -2.98827 0
M  V30 18750 O 1774.29 3.83774 -4.63682 0
M  V30 18751 H 1778.12 1.05672 -2.84723 0
M  V30 18752 H 1775.71 0.457726 -1.42215 0
M  V30 18753 H 1777.59 3.46743 -2.39473 0
M  V30 18754 H 1776.26 2.95907 -1.31227 0
M  V30 18755 H 1775.17 1.76518 -3.29837 0
M  V30 18756 H 1776.5 2.33977 -4.33031 0
M  V30 18757 N 1778.15 1.48666 0.52309 0
M  V30 18758 C 1779.1 1.60099 1.62334 0
M  V30 18759 C 1780.09 0.457736 1.54252 0
M  V30 18760 O 1781.28 0.709544 1.62156 0
M  V30 18761 C 1778.41 1.65029 3.01032 0
M  V30 18762 C 1777.5 2.84858 3.14192 0
M  V30 18763 N 1777.89 4.09198 2.97305 0
M  V30 18764 C 1776.18 2.82334 3.45259 0
M  V30 18765 C 1776.89 4.89631 3.14064 0
M  V30 18766 N 1775.86 4.22577 3.4195 0
M  V30 18767 H 1779.66 2.53975 1.47898 0
M  V30 18768 H 1777.18 1.45133 0.728714 0
M  V30 18769 H 1779.17 1.71315 3.80075 0
M  V30 18770 H 1777.83 0.722745 3.16554 0
M  V30 18771 H 1778.85 4.39527 2.73928 0
M  V30 18772 H 1775.52 1.98865 3.67095 0
M  V30 18773 H 1776.91 5.98335 3.05688 0
M  V30 18774 N 1779.63 -0.772489 1.37369 0
M  V30 18775 C 1780.86 -1.56671 1.35901 0
M  V30 18776 C 1781.28 -1.88024 -0.0535538 0
M  V30 18777 O 1780.64 -1.49174 -1.03038 0
M  V30 18778 C 1780.69 -2.85417 2.20384 0
M  V30 18779 O 1779.79 -3.79761 1.60796 0
M  V30 18780 H 1779.13 -0.474596 0.464386 0
M  V30 18781 H 1781.66 -0.956162 1.80883 0
M  V30 18782 H 1781.67 -3.34527 2.33571 0
M  V30 18783 H 1780.35 -2.61926 3.2306 0
M  V30 18784 H 1778.93 -3.38403 1.56645 0
M  V30 18785 N 1781.11 -1.21927 -0.998575 0
M  V30 18786 C 1782.36 -1.05199 -1.74082 0
M  V30 18787 C 1782.71 0.409387 -1.87994 0
M  V30 18788 O 1782 1.29958 -1.40788 0
M  V30 18789 C 1782.2 -1.69015 -3.1491 0
M  V30 18790 C 1782.03 -3.21208 -3.14731 0
M  V30 18791 C 1780.8 -3.90284 -3.20946 0
M  V30 18792 C 1783 -4.18214 -2.99335 0
M  V30 18793 N 1780.98 -5.29611 -3.10461 0
M  V30 18794 C 1782.35 -5.44334 -2.96816 0
M  V30 18795 C 1784.4 -4.09179 -2.83684 0
M  V30 18796 C 1783.11 -6.62459 -2.80251 0
M  V30 18797 C 1785.13 -5.26948 -2.68477 0
M  V30 18798 C 1784.49 -6.51983 -2.66641 0
M  V30 18799 H 1780.59 -0.439342 -0.646918 0
M  V30 18800 H 1783.18 -1.54381 -1.18636 0
M  V30 18801 H 1781.35 -1.22392 -3.68612 0
M  V30 18802 H 1783.08 -1.45433 -3.77666 0
M  V30 18803 H 1779.84 -3.41248 -3.284 0
M  V30 18804 H 1780.26 -6.02603 -3.08543 0
M  V30 18805 H 1784.9 -3.13301 -2.83905 0
M  V30 18806 H 1782.62 -7.58492 -2.78776 0
M  V30 18807 H 1786.21 -5.21784 -2.57358 0
M  V30 18808 H 1785.09 -7.41577 -2.55016 0
M  V30 18809 N 1782.59 1.19452 -1.02805 0
M  V30 18810 C 1783.84 1.89114 -0.724029 0
M  V30 18811 C 1784.16 1.79571 0.747307 0
M  V30 18812 O 1783.42 1.18191 1.55979 0
M  V30 18813 C 1783.72 3.3941 -1.11964 0
M  V30 18814 C 1783.38 3.69156 -2.58911 0
M  V30 18815 C 1782.05 3.76984 -2.99059 0
M  V30 18816 C 1784.4 3.82549 -3.53986 0
M  V30 18817 C 1781.73 3.95673 -4.33197 0
M  V30 18818 C 1784.08 4.02751 -4.87826 0
M  V30 18819 C 1782.74 4.08812 -5.27664 0
M  V30 18820 H 1782.01 0.692017 -0.264941 0
M  V30 18821 H 1784.66 1.41463 -1.29075 0
M  V30 18822 H 1782.96 3.88952 -0.471514 0
M  V30 18823 H 1784.66 3.91627 -0.861939 0
M  V30 18824 H 1781.25 3.6367 -2.26808 0
M  V30 18825 H 1785.43 3.75845 -3.24121 0
M  V30 18826 H 1780.69 3.98605 -4.63599 0
M  V30 18827 H 1784.86 4.12056 -5.61412 0
M  V30 18828 H 1782.49 4.23046 -6.31614 0
M  V30 18829 N 1784.07 0.805805 1.35442 0
M  V30 18830 C 1784.98 0.217149 2.33593 0
M  V30 18831 C 1785.99 -0.639428 1.61825 0
M  V30 18832 O 1787.17 -0.551363 1.93706 0
M  V30 18833 C 1784.23 -0.625149 3.41017 0
M  V30 18834 C 1783.29 0.25183 4.28561 0
M  V30 18835 C 1782.53 -0.550363 5.30855 0
M  V30 18836 O 1782.75 -1.78511 5.41747 0
M  V30 18837 O 1781.68 0.0583487 6.01872 0
M  V30 18838 H 1785.51 1.02909 2.85733 0
M  V30 18839 H 1783.1 0.567579 1.38199 0
M  V30 18840 H 1784.98 -1.10493 4.06656 0
M  V30 18841 H 1783.65 -1.4147 2.91149 0
M  V30 18842 H 1782.56 0.77873 3.65905 0
M  V30 18843 H 1783.89 1.0053 4.81824 0
M  V30 18844 N 1785.54 -1.47344 0.559239 0
M  V30 18845 C 1786.77 -2.0686 0.0408612 0
M  V30 18846 C 1787.19 -1.4116 -1.25376 0
M  V30 18847 O 1786.54 -0.508814 -1.75264 0
M  V30 18848 C 1786.6 -3.61162 -0.156298 0
M  V30 18849 O 1786.32 -4.24399 1.08706 0
M  V30 18850 C 1787.82 -4.37549 -0.711725 0
M  V30 18851 H 1785.04 -0.669368 0.0467647 0
M  V30 18852 H 1787.58 -1.89318 0.773229 0
M  V30 18853 H 1785.74 -3.7821 -0.838802 0
M  V30 18854 H 1786.15 -5.16961 0.886072 0
M  V30 18855 H 1787.62 -5.46187 -0.798961 0
M  V30 18856 H 1788.1 -4.03972 -1.72346 0
M  V30 18857 H 1788.71 -4.25251 -0.0648534 0
M  V30 18858 N 1787.02 -0.295795 -1.54799 0
M  V30 18859 C 1788.27 0.315007 -2.00035 0
M  V30 18860 C 1788.6 1.54295 -1.1842 0
M  V30 18861 O 1787.85 1.94134 -0.247101 0
M  V30 18862 C 1788.15 0.721225 -3.50047 0
M  V30 18863 C 1787.82 -0.404395 -4.49083 0
M  V30 18864 C 1786.48 -0.713419 -4.75882 0
M  V30 18865 C 1788.83 -1.16185 -5.08085 0
M  V30 18866 C 1786.16 -1.78311 -5.58947 0
M  V30 18867 C 1788.51 -2.22142 -5.92314 0
M  V30 18868 C 1787.18 -2.53657 -6.17426 0
M  V30 18869 H 1786.45 0.115269 -0.73198 0
M  V30 18870 H 1789.09 -0.41381 -1.86976 0
M  V30 18871 H 1787.4 1.53005 -3.60689 0
M  V30 18872 H 1789.09 1.20491 -3.82469 0
M  V30 18873 H 1785.68 -0.153436 -4.28325 0
M  V30 18874 H 1789.87 -0.936365 -4.87387 0
M  V30 18875 H 1785.12 -2.03206 -5.76643 0
M  V30 18876 H 1789.3 -2.81296 -6.3706 0
M  V30 18877 H 1786.93 -3.36676 -6.81581 0
M  V30 18878 N 1788.5 1.57583 -0.0234236 0
M  V30 18879 C 1789.75 1.90742 0.655764 0
M  V30 18880 C 1790.06 0.900914 1.73617 0
M  V30 18881 O 1791.27 1.12355 2.47161 0
M  V30 18882 C 1789.73 3.38676 1.21763 0
M  V30 18883 C 1789.33 4.47674 0.170811 0
M  V30 18884 C 1791.08 3.80912 1.87366 0
M  V30 18885 C 1788.98 5.86702 0.743996 0
M  V30 18886 H 1787.91 0.711803 0.248701 0
M  V30 18887 H 1790.57 1.8329 -0.0877955 0
M  V30 18888 H 1788.95 3.41042 2.01262 0
M  V30 18889 H 1790.12 4.5686 -0.601298 0
M  V30 18890 H 1788.44 4.14606 -0.386127 0
M  V30 18891 H 1791.03 4.82133 2.31197 0
M  V30 18892 H 1791.38 3.15669 2.71402 0
M  V30 18893 H 1791.91 3.80945 1.14566 0
M  V30 18894 H 1788.65 6.55474 -0.0580976 0
M  V30 18895 H 1788.17 5.81133 1.48472 0
M  V30 18896 H 1789.85 6.35094 1.23549 0
M  V30 18897 N 1789.98 -0.249655 1.5561 0
M  V30 18898 C 1791.23 -0.975982 1.76515 0
M  V30 18899 C 1791.54 -1.86589 0.586843 0
M  V30 18900 O 1792.75 -2.62876 0.678844 0
M  V30 18901 C 1791.2 -1.7854 3.12492 0
M  V30 18902 C 1790.81 -0.943014 4.37963 0
M  V30 18903 C 1792.56 -2.50462 3.42737 0
M  V30 18904 C 1790.46 -1.74816 5.64972 0
M  V30 18905 H 1789.39 -0.368139 0.65802 0
M  V30 18906 H 1792.04 -0.230745 1.82043 0
M  V30 18907 H 1790.43 -2.57248 3.01064 0
M  V30 18908 H 1791.6 -0.198453 4.60372 0
M  V30 18909 H 1789.91 -0.337249 4.15032 0
M  V30 18910 H 1792.51 -3.1115 4.34845 0
M  V30 18911 H 1792.85 -3.21938 2.63935 0
M  V30 18912 H 1793.39 -1.78767 3.55369 0
M  V30 18913 H 1790.13 -1.07719 6.46589 0
M  V30 18914 H 1789.65 -2.46807 5.46668 0
M  V30 18915 H 1791.33 -2.31599 6.04128 0
M  V30 18916 N 1791.46 -1.48941 -0.515198 0
M  V30 18917 C 1792.7 -1.5771 -1.27019 0
M  V30 18918 C 1793.03 -0.257484 -1.92788 0
M  V30 18919 O 1792.29 0.753481 -1.80613 0
M  V30 18920 C 1792.59 -2.67508 -2.37011 0
M  V30 18921 C 1792.25 -4.09471 -1.88796 0
M  V30 18922 C 1790.91 -4.48108 -1.75365 0
M  V30 18923 C 1793.27 -4.98378 -1.52543 0
M  V30 18924 C 1790.59 -5.73438 -1.24038 0
M  V30 18925 C 1792.95 -6.24212 -1.02673 0
M  V30 18926 C 1791.61 -6.61691 -0.878703 0
M  V30 18927 H 1790.88 -0.577101 -0.464796 0
M  V30 18928 H 1793.53 -1.82718 -0.573279 0
M  V30 18929 H 1791.83 -2.36417 -3.12433 0
M  V30 18930 H 1793.53 -2.71505 -2.95104 0
M  V30 18931 H 1790.12 -3.78967 -2.00205 0
M  V30 18932 H 1794.3 -4.69194 -1.61773 0
M  V30 18933 H 1789.56 -6.01188 -1.11277 0
M  V30 18934 H 1793.73 -6.9249 -0.73697 0
M  V30 18935 H 1791.36 -7.58691 -0.478792 0
M  V30 18936 N 1792.94 0.765193 -1.37777 0
M  V30 18937 C 1793.87 1.88621 -1.28442 0
M  V30 18938 C 1794.85 1.61774 -0.16367 0
M  V30 18939 O 1796.03 1.85427 -0.339007 0
M  V30 18940 C 1793.16 3.23987 -0.987421 0
M  V30 18941 C 1792.2 3.69737 -2.12596 0
M  V30 18942 S 1793.04 3.82637 -3.74632 0
M  V30 18943 C 1794.19 5.20841 -3.47096 0
M  V30 18944 H 1794.43 1.96251 -2.23322 0
M  V30 18945 H 1791.96 0.926976 -1.23477 0
M  V30 18946 H 1793.92 4.02168 -0.822893 0
M  V30 18947 H 1792.58 3.1405 -0.0559964 0
M  V30 18948 H 1791.77 4.67892 -1.87332 0
M  V30 18949 H 1791.37 2.98677 -2.25096 0
M  V30 18950 H 1793.66 6.06222 -3.02491 0
M  V30 18951 H 1794.61 5.5112 -4.44603 0
M  V30 18952 H 1795.02 4.89089 -2.81873 0
M  V30 18953 N 1794.41 1.22455 0.992094 0
M  V30 18954 C 1795.66 1.04373 1.72596 0
M  V30 18955 C 1795.98 -0.421349 1.91008 0
M  V30 18956 O 1797.18 -0.72186 2.61728 0
M  V30 18957 C 1795.64 1.81906 3.10545 0
M  V30 18958 C 1795.25 3.32667 3.00061 0
M  V30 18959 C 1796.99 1.72274 3.87972 0
M  V30 18960 C 1794.9 4.02638 4.3317 0
M  V30 18961 H 1793.83 0.386937 0.647144 0
M  V30 18962 H 1796.48 1.46313 1.10746 0
M  V30 18963 H 1794.86 1.32764 3.73081 0
M  V30 18964 H 1796.03 3.89208 2.46685 0
M  V30 18965 H 1794.35 3.42984 2.36117 0
M  V30 18966 H 1796.95 2.21872 4.86494 0
M  V30 18967 H 1797.29 0.68331 4.10654 0
M  V30 18968 H 1797.82 2.18963 3.32115 0
M  V30 18969 H 1794.56 5.06838 4.15687 0
M  V30 18970 H 1794.08 3.50885 4.86456 0
M  V30 18971 H 1795.76 4.08279 5.01914 0
M  V30 18972 N 1795.89 -1.18905 1.03437 0
M  V30 18973 C 1796.82 -2.24539 0.640669 0
M  V30 18974 C 1797.8 -1.66396 -0.353024 0
M  V30 18975 O 1798.99 -1.92779 -0.234522 0
M  V30 18976 C 1796.12 -3.473 -0.00367731 0
M  V30 18977 C 1795.07 -4.18151 0.912881 0
M  V30 18978 C 1794.4 -5.34534 0.133347 0
M  V30 18979 C 1795.7 -4.72342 2.22913 0
M  V30 18980 H 1797.39 -2.57726 1.52374 0
M  V30 18981 H 1794.94 -1.23883 0.734098 0
M  V30 18982 H 1796.89 -4.20396 -0.290783 0
M  V30 18983 H 1795.61 -3.13328 -0.921578 0
M  V30 18984 H 1794.27 -3.46945 1.18427 0
M  V30 18985 H 1793.92 -4.96809 -0.786762 0
M  V30 18986 H 1793.62 -5.82872 0.743905 0
M  V30 18987 H 1795.15 -6.10423 -0.146889 0
M  V30 18988 H 1796.56 -5.37165 2.00317 0
M  V30 18989 H 1794.96 -5.31189 2.79209 0
M  V30 18990 H 1796.03 -3.90108 2.87999 0
M  V30 18991 N 1797.37 -0.812977 -1.35013 0
M  V30 18992 C 1798.3 -0.242397 -2.32238 0
M  V30 18993 C 1799.28 0.635676 -1.57776 0
M  V30 18994 O 1800.47 0.564621 -1.85811 0
M  V30 18995 C 1797.6 0.604686 -3.41995 0
M  V30 18996 C 1796.55 -0.17542 -4.2764 0
M  V30 18997 C 1795.88 0.793772 -5.28775 0
M  V30 18998 C 1797.18 -1.37802 -5.03794 0
M  V30 18999 H 1798.87 -1.0547 -2.80208 0
M  V30 19000 H 1796.42 -0.508619 -1.34718 0
M  V30 19001 H 1798.37 1.01396 -4.09019 0
M  V30 19002 H 1797.09 1.44994 -2.9265 0
M  V30 19003 H 1795.75 -0.565948 -3.62205 0
M  V30 19004 H 1795.4 1.63471 -4.75696 0
M  V30 19005 H 1795.1 0.276085 -5.86951 0
M  V30 19006 H 1796.62 1.20112 -5.9867 0
M  V30 19007 H 1798.04 -1.04328 -5.63727 0
M  V30 19008 H 1796.43 -1.83064 -5.71496 0
M  V30 19009 H 1797.5 -2.16138 -4.34065 0
M  V30 19010 N 1798.85 1.47045 -0.567045 0
M  V30 19011 C 1800.07 2.0734 -0.0498828 0
M  V30 19012 C 1800.5 1.41545 1.23881 0
M  V30 19013 O 1799.86 0.493798 1.74446 0
M  V30 19014 C 1799.9 3.60404 0.118782 0
M  V30 19015 O 1799.01 3.95186 1.17905 0
M  V30 19016 H 1798.35 0.661656 -0.055746 0
M  V30 19017 H 1800.88 1.8892 -0.78553 0
M  V30 19018 H 1800.89 4.06664 0.3299 0
M  V30 19019 H 1799.56 4.07688 -0.822409 0
M  V30 19020 H 1798.14 3.60658 0.947644 0
M  V30 19021 N 1800.33 0.304 1.5464 0
M  V30 19022 C 1801.55 -0.309709 2.05075 0
M  V30 19023 C 1801.98 -1.46509 1.1797 0
M  V30 19024 O 1801.33 -1.80359 0.184437 0
M  V30 19025 C 1801.38 -0.740734 3.5291 0
M  V30 19026 O 1800.49 -1.8452 3.68817 0
M  V30 19027 H 1799.83 -0.0596065 0.661319 0
M  V30 19028 H 1802.36 0.446718 1.99664 0
M  V30 19029 H 1802.37 -1.02873 3.94818 0
M  V30 19030 H 1801.04 0.104422 4.15769 0
M  V30 19031 H 1799.62 -1.55753 3.38815 0
M  V30 19032 N 1801.8 -1.57568 0.0317802 0
M  V30 19033 C 1803.05 -1.91531 -0.645004 0
M  V30 19034 C 1803.37 -0.909042 -1.72515 0
M  V30 19035 O 1802.64 0.0490427 -1.95839 0
M  V30 19036 H 1801.22 -0.706976 -0.241236 0
M  V30 19037 H 1803.88 -1.94735 0.0802108 0
M  V30 19038 H 1802.98 -2.92221 -1.09604 0
M  V30 19039 N 1803.28 0.241399 -1.5574 0
M  V30 19040 C 1804.25 1.28236 -1.89969 0
M  V30 19041 C 1805.25 1.40804 -0.776582 0
M  V30 19042 O 1806.44 1.3941 -1.04453 0
M  V30 19043 C 1803.57 2.65926 -2.13299 0
M  V30 19044 H 1804.76 0.991011 -2.83053 0
M  V30 19045 H 1802.31 0.480939 -1.48717 0
M  V30 19046 H 1803.05 3.00192 -1.22701 0
M  V30 19047 H 1802.83 2.58184 -2.95099 0
M  V30 19048 H 1804.32 3.4108 -2.40944 0
M  V30 19049 N 1804.76 1.49212 0.507292 0
M  V30 19050 C 1805.69 1.68326 1.61829 0
M  V30 19051 C 1806.67 0.531969 1.61568 0
M  V30 19052 O 1807.86 0.767104 1.78407 0
M  V30 19053 C 1804.99 1.74394 3.0034 0
M  V30 19054 C 1803.94 2.89251 3.15465 0
M  V30 19055 C 1803.27 2.80426 4.55264 0
M  V30 19056 C 1804.57 4.30269 2.96085 0
M  V30 19057 H 1806.26 2.6134 1.46087 0
M  V30 19058 H 1803.81 1.25765 0.701367 0
M  V30 19059 H 1805.76 1.86353 3.77956 0
M  V30 19060 H 1804.48 0.779748 3.17155 0
M  V30 19061 H 1803.14 2.76884 2.40272 0
M  V30 19062 H 1802.79 1.81928 4.68947 0
M  V30 19063 H 1802.49 3.57511 4.66326 0
M  V30 19064 H 1804.01 2.94384 5.34949 0
M  V30 19065 H 1805.43 4.4335 3.63475 0
M  V30 19066 H 1803.83 5.08527 3.18623 0
M  V30 19067 H 1804.9 4.45151 1.92272 0
M  V30 19068 N 1806.24 -0.757876 1.38181 0
M  V30 19069 C 1807.2 -1.85317 1.34871 0
M  V30 19070 C 1808.2 -1.58844 0.250041 0
M  V30 19071 O 1809.39 -1.66668 0.506688 0
M  V30 19072 C 1806.52 -3.22712 1.09864 0
M  V30 19073 H 1807.72 -1.89661 2.32312 0
M  V30 19074 H 1805.27 -0.959122 1.23412 0
M  V30 19075 H 1806 -3.24039 0.130112 0
M  V30 19076 H 1805.79 -3.4332 1.89403 0
M  V30 19077 H 1807.28 -4.02789 1.10232 0
M  V30 19078 N 1807.72 -1.22979 -0.985586 0
M  V30 19079 C 1808.96 -1.05877 -1.72616 0
M  V30 19080 C 1809.29 0.405097 -1.90235 0
M  V30 19081 O 1808.55 1.31642 -1.44807 0
M  V30 19082 C 1808.85 -1.72346 -3.131 0
M  V30 19083 C 1808.51 -3.22256 -3.15376 0
M  V30 19084 C 1807.17 -3.63159 -3.15704 0
M  V30 19085 C 1809.53 -4.18174 -3.11094 0
M  V30 19086 C 1806.85 -4.98448 -3.09461 0
M  V30 19087 C 1809.21 -5.53449 -3.06393 0
M  V30 19088 C 1807.87 -5.93722 -3.05041 0
M  V30 19089 H 1807.14 -0.38743 -0.631648 0
M  V30 19090 H 1809.79 -1.52842 -1.15375 0
M  V30 19091 H 1808.09 -1.17725 -3.73695 0
M  V30 19092 H 1809.79 -1.56595 -3.6916 0
M  V30 19093 H 1806.38 -2.89692 -3.15875 0
M  V30 19094 H 1810.56 -3.87586 -3.09985 0
M  V30 19095 H 1805.82 -5.28873 -3.06763 0
M  V30 19096 H 1809.99 -6.27492 -3.02037 0
M  V30 19097 H 1807.62 -6.98519 -2.99958 0
M  V30 19098 N 1809.19 1.18355 -1.04066 0
M  V30 19099 C 1810.1 2.25641 -0.642115 0
M  V30 19100 C 1811.12 1.70811 0.331614 0
M  V30 19101 O 1812.3 2.00534 0.186542 0
M  V30 19102 C 1809.36 3.46698 -0.0112485 0
M  V30 19103 C 1808.42 4.16662 -1.03398 0
M  V30 19104 C 1807.66 5.3194 -0.433125 0
M  V30 19105 O 1807.88 5.65305 0.760669 0
M  V30 19106 O 1806.81 5.90581 -1.16182 0
M  V30 19107 H 1810.64 2.61997 -1.53595 0
M  V30 19108 H 1808.22 1.25437 -0.811542 0
M  V30 19109 H 1810.11 4.20027 0.339934 0
M  V30 19110 H 1808.78 3.12166 0.856405 0
M  V30 19111 H 1807.69 3.45402 -1.43696 0
M  V30 19112 H 1809.02 4.55194 -1.8724 0
M  V30 19113 N 1810.67 0.820125 1.3458 0
M  V30 19114 C 1811.95 0.329573 1.92803 0
M  V30 19115 C 1812.33 -1.18271 1.74858 0
M  V30 19116 O 1811.68 -1.98851 1.12564 0
M  V30 19117 C 1811.89 0.755833 3.40717 0
M  V30 19118 C 1813.24 0.75306 4.17869 0
M  V30 19119 O 1814.26 0.698235 3.49289 0
M  V30 19120 O 1813.12 0.823708 5.40257 0
M  V30 19121 H 1810.21 0.0893898 0.822155 0
M  V30 19122 H 1812.76 0.904729 1.43571 0
M  V30 19123 H 1811.53 1.79757 3.47568 0
M  V30 19124 H 1811.15 0.15622 3.97293 0
M  V30 19125 N 1812.15 -1.46743 0.574835 0
M  V30 19126 C 1813.4 -2.01625 0.0551724 0
M  V30 19127 C 1813.71 -1.4528 -1.3097 0
M  V30 19128 O 1814.92 -1.91932 -1.92026 0
M  V30 19129 C 1813.37 -3.59868 0.0480708 0
M  V30 19130 C 1812.98 -4.25207 1.41078 0
M  V30 19131 C 1814.73 -4.22436 -0.41806 0
M  V30 19132 C 1812.63 -5.75507 1.36183 0
M  V30 19133 H 1811.56 -0.753812 0.0168558 0
M  V30 19134 H 1814.21 -1.68557 0.725313 0
M  V30 19135 H 1812.6 -3.89976 -0.688076 0
M  V30 19136 H 1813.77 -4.06718 2.16603 0
M  V30 19137 H 1812.09 -3.747 1.81628 0
M  V30 19138 H 1814.68 -5.32601 -0.473353 0
M  V30 19139 H 1815.03 -3.90826 -1.43391 0
M  V30 19140 H 1815.56 -3.96925 0.263775 0
M  V30 19141 H 1812.3 -6.11765 2.35423 0
M  V30 19142 H 1811.82 -5.96282 0.648655 0
M  V30 19143 H 1813.5 -6.38068 1.07137 0
M  V30 19144 N 1813.63 -0.312197 -1.54477 0
M  V30 19145 C 1814.86 0.295632 -2.04474 0
M  V30 19146 C 1815.27 1.47211 -1.18851 0
M  V30 19147 O 1814.61 1.82503 -0.209347 0
M  V30 19148 C 1814.67 0.804123 -3.50391 0
M  V30 19149 C 1814.34 -0.248547 -4.56324 0
M  V30 19150 C 1815.33 -1.0808 -5.08542 0
M  V30 19151 C 1813.02 -0.393467 -5.00757 0
M  V30 19152 C 1815.01 -2.04381 -6.03744 0
M  V30 19153 C 1812.7 -1.35991 -5.95777 0
M  V30 19154 C 1813.7 -2.18355 -6.47155 0
M  V30 19155 O 1813.38 -3.13359 -7.40311 0
M  V30 19156 H 1813.12 0.0665366 -0.672718 0
M  V30 19157 H 1815.67 -0.45308 -2.00341 0
M  V30 19158 H 1813.9 1.60355 -3.51885 0
M  V30 19159 H 1815.59 1.32905 -3.83524 0
M  V30 19160 H 1816.36 -0.979766 -4.75001 0
M  V30 19161 H 1812.23 0.237709 -4.60387 0
M  V30 19162 H 1815.78 -2.68708 -6.43771 0
M  V30 19163 H 1811.68 -1.46162 -6.28734 0
M  V30 19164 H 1812.44 -3.08467 -7.58149 0
M  V30 19165 N 1815.11 1.57549 -0.040136 0
M  V30 19166 C 1816.04 2.13912 0.936168 0
M  V30 19167 C 1817.02 1.05798 1.33194 0
M  V30 19168 O 1818.2 1.33685 1.40861 0
M  V30 19169 C 1815.33 2.67515 2.21479 0
M  V30 19170 C 1814.29 3.80513 1.95943 0
M  V30 19171 C 1813.61 4.20589 3.30165 0
M  V30 19172 C 1814.91 5.06124 1.28981 0
M  V30 19173 H 1816.61 2.9574 0.46674 0
M  V30 19174 H 1814.15 1.42262 0.223062 0
M  V30 19175 H 1816.11 3.05582 2.90168 0
M  V30 19176 H 1814.83 1.82864 2.70608 0
M  V30 19177 H 1813.49 3.42902 1.29669 0
M  V30 19178 H 1813.14 3.32904 3.77073 0
M  V30 19179 H 1812.84 4.96742 3.13881 0
M  V30 19180 H 1814.36 4.61248 4.00103 0
M  V30 19181 H 1815.77 5.41707 1.87687 0
M  V30 19182 H 1814.17 5.87347 1.2306 0
M  V30 19183 H 1815.24 4.84179 0.264286 0
M  V30 19184 N 1816.58 -0.233136 1.55866 0
M  V30 19185 C 1817.49 -1.31004 1.94615 0
M  V30 19186 C 1818.51 -1.51915 0.848399 0
M  V30 19187 O 1819.69 -1.6527 1.15098 0
M  V30 19188 C 1816.75 -2.64203 2.24494 0
M  V30 19189 C 1815.81 -2.51695 3.47776 0
M  V30 19190 C 1815.05 -3.78542 3.7622 0
M  V30 19191 O 1815.27 -4.81043 3.06519 0
M  V30 19192 O 1814.2 -3.76348 4.69729 0
M  V30 19193 H 1818.03 -1.01129 2.86368 0
M  V30 19194 H 1815.61 -0.435043 1.42926 0
M  V30 19195 H 1817.5 -3.42889 2.44959 0
M  V30 19196 H 1816.17 -2.93782 1.35918 0
M  V30 19197 H 1815.08 -1.71248 3.32603 0
M  V30 19198 H 1816.41 -2.27058 4.36698 0
M  V30 19199 N 1818.06 -1.49479 -0.499372 0
M  V30 19200 C 1818.97 -1.69006 -1.62709 0
M  V30 19201 C 1819.99 -0.572681 -1.64306 0
M  V30 19202 O 1821.17 -0.847586 -1.82696 0
M  V30 19203 C 1818.23 -1.75382 -2.99069 0
M  V30 19204 C 1817.29 -2.98968 -3.08086 0
M  V30 19205 C 1816.52 -3.0503 -4.37941 0
M  V30 19206 O 1816.75 -2.18641 -5.26832 0
M  V30 19207 O 1815.68 -3.97507 -4.51964 0
M  V30 19208 H 1819.51 -2.64544 -1.49164 0
M  V30 19209 H 1817.09 -1.3324 -0.675836 0
M  V30 19210 H 1818.97 -1.81919 -3.8011 0
M  V30 19211 H 1817.65 -0.830226 -3.12872 0
M  V30 19212 H 1816.56 -2.97947 -2.26227 0
M  V30 19213 H 1817.89 -3.90812 -2.9921 0
M  V30 19214 N 1819.54 0.750537 -1.38581 0
M  V30 19215 C 1820.96 1.05401 -1.19845 0
M  V30 19216 C 1821.16 2.0144 -0.0492317 0
M  V30 19217 O 1820.21 2.45169 0.604037 0
M  V30 19218 C 1821.53 1.63117 -2.52613 0
M  V30 19219 C 1823.07 1.75274 -2.59322 0
M  V30 19220 C 1823.55 2.36401 -3.92273 0
M  V30 19221 N 1825.04 2.43829 -3.9383 0
M  V30 19222 C 1825.78 2.92028 -4.93465 0
M  V30 19223 N 1825.27 3.4024 -6.03497 0
M  V30 19224 N 1827.06 2.91096 -4.80853 0
M  V30 19225 H 1819.22 0.113286 -2.12098 0
M  V30 19226 H 1821.48 0.112886 -0.941255 0
M  V30 19227 H 1821.18 1.00017 -3.37179 0
M  V30 19228 H 1821.06 2.62138 -2.71226 0
M  V30 19229 H 1823.45 2.375 -1.7515 0
M  V30 19230 H 1823.53 0.74949 -2.44574 0
M  V30 19231 H 1823.17 1.74807 -4.7687 0
M  V30 19232 H 1823.1 3.37373 -4.04335 0
M  V30 19233 H 1825.59 2.09734 -3.14357 0
M  V30 19234 H 1825.9 3.75482 -6.7545 0
M  V30 19235 H 1824.25 3.38289 -6.07113 0
M  V30 19236 H 1827.44 2.52744 -3.94003 0
M  V30 19237 H 1827.61 3.28346 -5.58653 0
M  V30 19238 N 1821.02 1.235 0.979051 0
M  V30 19239 C 1821.97 1.01737 2.07167 0
M  V30 19240 C 1822.94 -0.0656067 1.6597 0
M  V30 19241 O 1824.12 0.0867676 1.90603 0
M  V30 19242 C 1821.26 0.616104 3.39556 0
M  V30 19243 C 1820.37 1.77135 3.94014 0
M  V30 19244 C 1819.51 1.31674 5.14622 0
M  V30 19245 C 1818.55 2.44265 5.6125 0
M  V30 19246 N 1817.69 1.99752 6.73085 0
M  V30 19247 H 1822.53 1.9526 2.25117 0
M  V30 19248 H 1820.06 0.972707 1.10349 0
M  V30 19249 H 1822.02 0.364549 4.15604 0
M  V30 19250 H 1820.65 -0.282117 3.21565 0
M  V30 19251 H 1819.7 2.13687 3.14709 0
M  V30 19252 H 1821.01 2.61775 4.24588 0
M  V30 19253 H 1820.17 1.02339 5.98006 0
M  V30 19254 H 1818.91 0.440724 4.85705 0
M  V30 19255 H 1817.91 2.74373 4.76445 0
M  V30 19256 H 1819.14 3.32405 5.92186 0
M  V30 19257 H 1817.08 1.14532 6.45924 0
M  V30 19258 H 1817 2.77951 7.0305 0
M  V30 19259 H 1818.27 1.73525 7.5994 0
M  V30 19260 N 1822.5 -1.17802 1.04693 0
M  V30 19261 C 1823.73 -1.91867 0.774246 0
M  V30 19262 C 1824.14 -1.76534 -0.669425 0
M  V30 19263 O 1823.5 -1.09915 -1.45688 0
M  V30 19264 C 1823.55 -3.43086 1.13904 0
M  V30 19265 O 1823.27 -3.57943 2.52604 0
M  V30 19266 C 1824.77 -4.34238 0.891767 0
M  V30 19267 H 1821.99 -0.60892 0.281882 0
M  V30 19268 H 1824.53 -1.49414 1.39627 0
M  V30 19269 H 1822.69 -3.83304 0.561863 0
M  V30 19270 H 1823.1 -4.51599 2.66756 0
M  V30 19271 H 1824.58 -5.3887 1.1968 0
M  V30 19272 H 1825.05 -4.38858 -0.17323 0
M  V30 19273 H 1825.66 -3.99727 1.45254 0
M  V30 19274 N 1823.98 -0.827251 -1.34143 0
M  V30 19275 C 1825.22 -0.413762 -1.9741 0
M  V30 19276 C 1825.54 1.0297 -1.66303 0
M  V30 19277 O 1826.74 1.5473 -2.23094 0
M  V30 19278 C 1825.2 -0.688904 -3.53245 0
M  V30 19279 C 1824.81 -2.14627 -3.93242 0
M  V30 19280 C 1826.55 -0.341794 -4.23122 0
M  V30 19281 C 1824.46 -2.36607 -5.42006 0
M  V30 19282 H 1823.39 -0.150982 -0.738729 0
M  V30 19283 H 1826.04 -1.01421 -1.52925 0
M  V30 19284 H 1824.42 -0.0182319 -3.95996 0
M  V30 19285 H 1825.6 -2.85646 -3.61584 0
M  V30 19286 H 1823.91 -2.45523 -3.36314 0
M  V30 19287 H 1826.51 -0.483797 -5.32507 0
M  V30 19288 H 1826.85 0.714135 -4.10129 0
M  V30 19289 H 1827.38 -0.96722 -3.85862 0
M  V30 19290 H 1824.12 -3.40722 -5.5999 0
M  V30 19291 H 1823.64 -1.70137 -5.75164 0
M  V30 19292 H 1825.32 -2.19181 -6.08744 0
M  V30 19293 N 1825.45 1.46436 -0.582609 0
M  V30 19294 C 1826.4 2.30308 0.150697 0
M  V30 19295 C 1827.37 1.40611 0.884185 0
M  V30 19296 O 1828.56 1.6956 0.874874 0
M  V30 19297 C 1825.7 3.25074 1.15847 0
M  V30 19298 C 1824.81 4.2987 0.428442 0
M  V30 19299 C 1823.94 5.11765 1.42373 0
M  V30 19300 C 1822.98 6.0831 0.680103 0
M  V30 19301 N 1822.12 6.83073 1.62345 0
M  V30 19302 H 1826.96 2.92487 -0.570583 0
M  V30 19303 H 1824.5 1.44148 -0.293195 0
M  V30 19304 H 1826.45 3.78462 1.75563 0
M  V30 19305 H 1825.08 2.64704 1.84747 0
M  V30 19306 H 1824.14 3.7934 -0.283744 0
M  V30 19307 H 1825.45 4.98566 -0.15291 0
M  V30 19308 H 1824.6 5.69429 2.09369 0
M  V30 19309 H 1823.34 4.4303 2.03902 0
M  V30 19310 H 1822.35 5.498 -0.00363067 0
M  V30 19311 H 1823.57 6.79064 0.0702152 0
M  V30 19312 H 1821.52 6.17048 2.22684 0
M  V30 19313 H 1821.43 7.48029 1.0949 0
M  V30 19314 H 1822.7 7.45295 2.28376 0
M  V30 19315 N 1826.93 0.320385 1.54309 0
M  V30 19316 C 1828.18 -0.283562 2.00808 0
M  V30 19317 C 1828.51 -1.52036 1.20826 0
M  V30 19318 O 1827.79 -1.9233 0.289721 0
M  V30 19319 C 1828.07 -0.620875 3.54707 0
M  V30 19320 C 1827.92 0.626403 4.45417 0
M  V30 19321 C 1829.24 -1.43978 4.15883 0
M  V30 19322 H 1826.36 -0.10159 0.729965 0
M  V30 19323 H 1829 0.436332 1.84922 0
M  V30 19324 H 1827.15 -1.23419 3.68375 0
M  V30 19325 H 1828.82 1.2647 4.43625 0
M  V30 19326 H 1827.07 1.2559 4.15222 0
M  V30 19327 H 1827.74 0.345969 5.50915 0
M  V30 19328 H 1830.21 -0.921381 4.05771 0
M  V30 19329 H 1829.09 -1.64456 5.23685 0
M  V30 19330 H 1829.35 -2.43494 3.69003 0
M  V30 19331 N 1828.41 -1.57525 0.0484906 0
M  V30 19332 C 1829.34 -2.14405 -0.924811 0
M  V30 19333 C 1830.32 -1.06503 -1.32631 0
M  V30 19334 O 1831.51 -1.3443 -1.4015 0
M  V30 19335 C 1828.64 -2.68686 -2.20057 0
M  V30 19336 C 1827.59 -3.81547 -1.93922 0
M  V30 19337 C 1826.92 -4.22334 -3.27929 0
M  V30 19338 C 1828.22 -5.06801 -1.26295 0
M  V30 19339 H 1829.91 -2.95983 -0.45105 0
M  V30 19340 H 1827.46 -1.42378 -0.215514 0
M  V30 19341 H 1829.41 -3.07117 -2.88543 0
M  V30 19342 H 1828.13 -1.84296 -2.69634 0
M  V30 19343 H 1826.79 -3.43585 -1.27848 0
M  V30 19344 H 1826.44 -3.34899 -3.75302 0
M  V30 19345 H 1826.14 -4.984 -3.11242 0
M  V30 19346 H 1827.66 -4.63363 -3.97652 0
M  V30 19347 H 1829.08 -5.42695 -1.84812 0
M  V30 19348 H 1827.47 -5.87991 -1.19943 0
M  V30 19349 H 1828.54 -4.84313 -0.238605 0
M  V30 19350 N 1829.89 0.224867 -1.55988 0
M  V30 19351 C 1830.82 1.28192 -1.95164 0
M  V30 19352 C 1831.8 1.49062 -0.81942 0
M  V30 19353 O 1832.98 1.61301 -1.08146 0
M  V30 19354 C 1830.11 2.63237 -2.26547 0
M  V30 19355 C 1829.07 2.57029 -3.42228 0
M  V30 19356 C 1828.39 3.96073 -3.59207 0
M  V30 19357 C 1829.69 2.12101 -4.77295 0
M  V30 19358 H 1831.39 0.956495 -2.8371 0
M  V30 19359 H 1828.93 0.458673 -1.365 0
M  V30 19360 H 1830.89 3.37341 -2.52545 0
M  V30 19361 H 1829.61 2.97461 -1.3485 0
M  V30 19362 H 1828.27 1.85382 -3.16273 0
M  V30 19363 H 1827.92 4.27599 -2.64892 0
M  V30 19364 H 1827.62 3.92802 -4.37013 0
M  V30 19365 H 1829.14 4.71844 -3.8755 0
M  V30 19366 H 1830.56 2.75946 -5.0252 0
M  V30 19367 H 1828.95 2.19895 -5.5836 0
M  V30 19368 H 1830.02 1.07319 -4.72875 0
M  V30 19369 N 1831.37 1.49742 0.491438 0
M  V30 19370 C 1832.28 1.69866 1.6181 0
M  V30 19371 C 1833.29 0.581386 1.64 0
M  V30 19372 O 1834.47 0.857263 1.82244 0
M  V30 19373 C 1831.53 1.76965 2.98135 0
M  V30 19374 C 1830.59 3.00597 3.06496 0
M  V30 19375 C 1829.83 3.07348 4.36317 0
M  V30 19376 O 1830.05 2.21432 5.25665 0
M  V30 19377 O 1828.98 3.99898 4.4985 0
M  V30 19378 H 1832.81 2.65332 1.47759 0
M  V30 19379 H 1830.39 1.33596 0.668761 0
M  V30 19380 H 1832.28 1.83932 3.7914 0
M  V30 19381 H 1830.95 0.846807 3.12427 0
M  V30 19382 H 1829.86 2.99142 2.24643 0
M  V30 19383 H 1831.19 3.92393 2.97133 0
M  V30 19384 N 1832.84 -0.743177 1.38977 0
M  V30 19385 C 1834.07 -1.53021 1.3881 0
M  V30 19386 C 1834.48 -1.89188 -0.0213066 0
M  V30 19387 O 1833.83 -1.54033 -1.00097 0
M  V30 19388 C 1833.89 -2.85158 2.18918 0
M  V30 19389 C 1833.55 -2.71471 3.67631 0
M  V30 19390 C 1834.55 -2.40567 4.60894 0
M  V30 19391 C 1832.23 -2.88598 4.11116 0
M  V30 19392 C 1834.23 -2.26959 5.95625 0
M  V30 19393 C 1831.91 -2.74609 5.45924 0
M  V30 19394 C 1832.91 -2.43833 6.37992 0
M  V30 19395 O 1832.6 -2.29922 7.70319 0
M  V30 19396 H 1832.33 -0.47975 0.476252 0
M  V30 19397 H 1834.89 -0.92667 1.83308 0
M  V30 19398 H 1833.12 -3.47741 1.69154 0
M  V30 19399 H 1834.81 -3.4673 2.11029 0
M  V30 19400 H 1835.57 -2.26994 4.28601 0
M  V30 19401 H 1831.45 -3.11547 3.39794 0
M  V30 19402 H 1834.99 -2.02859 6.67453 0
M  V30 19403 H 1830.89 -2.87758 5.77811 0
M  V30 19404 H 1831.66 -2.45054 7.80955 0
M  V30 19405 N 1834.32 -1.24018 -0.972487 0
M  V30 19406 C 1835.29 -1.02941 -2.04782 0
M  V30 19407 C 1836.29 0.0115861 -1.60796 0
M  V30 19408 O 1837.48 -0.228922 -1.72689 0
M  V30 19409 C 1834.61 -0.559246 -3.36282 0
M  V30 19410 H 1835.8 -1.98379 -2.24913 0
M  V30 19411 H 1833.35 -1.06173 -1.14704 0
M  V30 19412 H 1834.09 0.398545 -3.21842 0
M  V30 19413 H 1833.87 -1.31054 -3.6955 0
M  V30 19414 H 1835.36 -0.432669 -4.15353 0
M  V30 19415 N 1835.8 1.17245 -1.05316 0
M  V30 19416 C 1837.08 1.83482 -0.677779 0
M  V30 19417 C 1837.46 1.93592 0.841753 0
M  V30 19418 O 1836.81 1.47142 1.74818 0
M  V30 19419 C 1837.02 3.21062 -1.36823 0
M  V30 19420 C 1838.36 3.96954 -1.50708 0
M  V30 19421 O 1839.39 3.30545 -1.32734 0
M  V30 19422 O 1838.25 5.15967 -1.80111 0
M  V30 19423 H 1835.34 0.79179 -0.238741 0
M  V30 19424 H 1837.89 1.24531 -1.15283 0
M  V30 19425 H 1836.66 3.08679 -2.40484 0
M  V30 19426 H 1836.28 3.8768 -0.882617 0
M  V30 19427 N 1837.28 0.834353 1.33702 0
M  V30 19428 C 1838.23 0.26233 2.29304 0
M  V30 19429 C 1839.2 -0.619326 1.54122 0
M  V30 19430 O 1840.38 -0.558551 1.82441 0
M  V30 19431 C 1837.52 -0.560341 3.4052 0
M  V30 19432 C 1836.63 0.344832 4.30622 0
M  V30 19433 C 1835.77 -0.488505 5.28949 0
M  V30 19434 C 1834.81 0.415341 6.10689 0
M  V30 19435 N 1833.94 -0.3796 7.01073 0
M  V30 19436 H 1838.78 1.08291 2.77628 0
M  V30 19437 H 1836.32 0.545497 1.36612 0
M  V30 19438 H 1838.28 -1.05274 4.03699 0
M  V30 19439 H 1836.91 -1.34593 2.93402 0
M  V30 19440 H 1835.96 0.955519 3.68204 0
M  V30 19441 H 1837.27 1.03935 4.87851 0
M  V30 19442 H 1836.43 -1.04492 5.97634 0
M  V30 19443 H 1835.17 -1.21648 4.72285 0
M  V30 19444 H 1834.17 0.983803 5.40926 0
M  V30 19445 H 1835.4 1.1416 6.69436 0
M  V30 19446 H 1833.34 -1.09103 6.46864 0
M  V30 19447 H 1833.26 0.25629 7.55565 0
M  V30 19448 H 1834.53 -0.918394 7.74071 0
M  V30 19449 N 1838.76 -1.46125 0.590367 0
M  V30 19450 C 1839.69 -2.27433 -0.186997 0
M  V30 19451 C 1840.67 -1.36095 -0.889776 0
M  V30 19452 O 1841.85 -1.65511 -0.902123 0
M  V30 19453 C 1838.98 -3.14029 -1.26899 0
M  V30 19454 C 1838.02 -4.21185 -0.671223 0
M  V30 19455 S 1838.86 -5.33087 0.507766 0
M  V30 19456 C 1840.01 -6.23251 -0.575243 0
M  V30 19457 H 1840.25 -2.93016 0.502873 0
M  V30 19458 H 1837.78 -1.49715 0.377448 0
M  V30 19459 H 1839.74 -3.64483 -1.88845 0
M  V30 19460 H 1838.4 -2.47744 -1.93085 0
M  V30 19461 H 1837.59 -4.81633 -1.48478 0
M  V30 19462 H 1837.19 -3.73783 -0.127271 0
M  V30 19463 H 1839.49 -6.61606 -1.4589 0
M  V30 19464 H 1840.43 -7.081 -0.00733853 0
M  V30 19465 H 1840.84 -5.57554 -0.882831 0
M  V30 19466 N 1840.23 -0.328564 -1.54137 0
M  V30 19467 C 1841.48 0.272505 -2.00658 0
M  V30 19468 C 1841.81 1.51748 -1.21666 0
M  V30 19469 O 1841.06 1.93566 -0.288224 0
M  V30 19470 C 1841.36 0.646813 -3.51498 0
M  V30 19471 C 1841.03 -0.499561 -4.48124 0
M  V30 19472 C 1839.69 -0.8142 -4.74262 0
M  V30 19473 C 1842.04 -1.26936 -5.05506 0
M  V30 19474 C 1839.37 -1.90127 -5.55039 0
M  V30 19475 C 1841.72 -2.34656 -5.87469 0
M  V30 19476 C 1840.39 -2.66696 -6.11906 0
M  V30 19477 H 1839.66 0.0997168 -0.73426 0
M  V30 19478 H 1842.3 -0.453377 -1.86056 0
M  V30 19479 H 1840.61 1.45319 -3.63854 0
M  V30 19480 H 1842.31 1.12352 -3.84939 0
M  V30 19481 H 1838.9 -0.244255 -4.27903 0
M  V30 19482 H 1843.08 -1.03954 -4.85291 0
M  V30 19483 H 1838.34 -2.15392 -5.72203 0
M  V30 19484 H 1842.51 -2.94745 -6.3095 0
M  V30 19485 H 1840.14 -3.51058 -6.74287 0
M  V30 19486 N 1841.71 1.57497 -0.0568439 0
M  V30 19487 C 1842.94 1.97231 0.625102 0
M  V30 19488 C 1843.36 0.934622 1.64043 0
M  V30 19489 O 1842.71 -0.0805064 1.82322 0
M  V30 19490 C 1842.76 3.37046 1.30698 0
M  V30 19491 O 1842.48 4.36838 0.332302 0
M  V30 19492 C 1843.99 3.9157 2.07816 0
M  V30 19493 H 1841.21 0.648975 0.170505 0
M  V30 19494 H 1843.75 2.04119 -0.124823 0
M  V30 19495 H 1841.9 3.31292 2.0081 0
M  V30 19496 H 1842.32 5.18055 0.819691 0
M  V30 19497 H 1843.79 4.91664 2.5094 0
M  V30 19498 H 1844.27 3.27303 2.92864 0
M  V30 19499 H 1844.88 4.0068 1.42603 0
M  V30 19500 N 1843.19 -0.216591 1.56105 0
M  V30 19501 C 1844.42 -0.955625 1.8317 0
M  V30 19502 C 1844.83 -1.78247 0.634397 0
M  V30 19503 O 1844.17 -1.79148 -0.406391 0
M  V30 19504 C 1844.23 -1.91834 3.04039 0
M  V30 19505 C 1843.9 -1.27553 4.38838 0
M  V30 19506 C 1844.89 -0.662972 5.15656 0
M  V30 19507 C 1842.58 -1.28582 4.85564 0
M  V30 19508 C 1844.57 -0.0692674 6.37362 0
M  V30 19509 C 1842.26 -0.688269 6.07212 0
M  V30 19510 C 1843.26 -0.0810524 6.82952 0
M  V30 19511 O 1842.95 0.507186 8.02298 0
M  V30 19512 H 1842.68 -0.285405 0.612797 0
M  V30 19513 H 1845.23 -0.235419 2.04046 0
M  V30 19514 H 1843.46 -2.67767 2.78994 0
M  V30 19515 H 1845.15 -2.52334 3.17934 0
M  V30 19516 H 1845.92 -0.647319 4.80661 0
M  V30 19517 H 1841.8 -1.74784 4.26581 0
M  V30 19518 H 1845.34 0.405305 6.96422 0
M  V30 19519 H 1841.24 -0.701352 6.41679 0
M  V30 19520 H 1842.01 0.401989 8.17512 0
M  V30 19521 N 1844.67 -1.5 -0.48349 0
M  V30 19522 C 1845.91 -1.60606 -1.23829 0
M  V30 19523 C 1846.25 -0.299778 -1.91872 0
M  V30 19524 O 1845.52 0.697925 -1.81547 0
M  V30 19525 C 1845.81 -2.77769 -2.29165 0
M  V30 19526 C 1845.66 -4.18243 -1.65507 0
M  V30 19527 C 1846.98 -2.90521 -3.30584 0
M  V30 19528 H 1844.1 -0.584561 -0.44884 0
M  V30 19529 H 1846.74 -1.82346 -0.533855 0
M  V30 19530 H 1844.89 -2.59364 -2.89245 0
M  V30 19531 H 1846.56 -4.48208 -1.09119 0
M  V30 19532 H 1844.8 -4.23077 -0.958577 0
M  V30 19533 H 1845.47 -4.96128 -2.41994 0
M  V30 19534 H 1847.95 -3.0733 -2.80513 0
M  V30 19535 H 1846.83 -3.74146 -4.0163 0
M  V30 19536 H 1847.09 -2.00609 -3.93965 0
M  V30 19537 N 1846.15 0.735796 -1.39369 0
M  V30 19538 C 1847.39 1.49534 -1.3655 0
M  V30 19539 C 1847.72 1.94461 0.0388165 0
M  V30 19540 O 1846.98 1.67048 1.01949 0
M  V30 19541 C 1847.28 2.7495 -2.28336 0
M  V30 19542 C 1846.94 2.48894 -3.75982 0
M  V30 19543 C 1845.6 2.41498 -4.16212 0
M  V30 19544 C 1847.96 2.26589 -4.69369 0
M  V30 19545 C 1845.28 2.09836 -5.47892 0
M  V30 19546 C 1847.64 1.96444 -6.01326 0
M  V30 19547 C 1846.3 1.87515 -6.4062 0
M  V30 19548 H 1845.57 0.547184 -0.49967 0
M  V30 19549 H 1848.22 0.844587 -1.71869 0
M  V30 19550 H 1846.52 3.44764 -1.86132 0
M  V30 19551 H 1848.22 3.32975 -2.23448 0
M  V30 19552 H 1844.81 2.5553 -3.44097 0
M  V30 19553 H 1848.99 2.31272 -4.39121 0
M  V30 19554 H 1844.25 2.01445 -5.77261 0
M  V30 19555 H 1848.42 1.78193 -6.73216 0
M  V30 19556 H 1846.05 1.62747 -7.42575 0
M  V30 19557 N 1847.63 1.24532 0.965897 0
M  V30 19558 C 1848.87 1.0877 1.71163 0
M  V30 19559 C 1849.2 -0.372297 1.90598 0
M  V30 19560 O 1848.48 -1.27503 1.46878 0
M  V30 19561 C 1848.76 1.83004 3.10131 0
M  V30 19562 C 1848.62 3.36765 2.98177 0
M  V30 19563 C 1849.93 1.60417 4.09822 0
M  V30 19564 H 1847.05 0.396528 0.621236 0
M  V30 19565 H 1849.7 1.53223 1.12351 0
M  V30 19566 H 1847.85 1.4522 3.60338 0
M  V30 19567 H 1849.52 3.84158 2.55382 0
M  V30 19568 H 1847.76 3.65053 2.34347 0
M  V30 19569 H 1848.43 3.83909 3.96633 0
M  V30 19570 H 1850.91 1.93289 3.68482 0
M  V30 19571 H 1849.78 2.14812 5.05121 0
M  V30 19572 H 1850.04 0.542843 4.38755 0
M  V30 19573 N 1849.1 -1.16685 1.05936 0
M  V30 19574 C 1850.03 -2.23129 0.688153 0
M  V30 19575 C 1851.01 -1.67108 -0.31765 0
M  V30 19576 O 1852.2 -1.93233 -0.193578 0
M  V30 19577 C 1849.33 -3.47229 0.069991 0
M  V30 19578 C 1848.28 -4.16121 1.00137 0
M  V30 19579 C 1847.61 -5.34131 0.246699 0
M  V30 19580 C 1848.91 -4.67508 2.32882 0
M  V30 19581 H 1850.6 -2.54436 1.57806 0
M  V30 19582 H 1848.15 -1.22298 0.76021 0
M  V30 19583 H 1850.1 -4.20918 -0.201545 0
M  V30 19584 H 1848.83 -3.15212 -0.854909 0
M  V30 19585 H 1847.49 -3.44355 1.25759 0
M  V30 19586 H 1847.13 -4.98366 -0.681204 0
M  V30 19587 H 1846.83 -5.81163 0.867373 0
M  V30 19588 H 1848.36 -6.10598 -0.0173762 0
M  V30 19589 H 1849.77 -5.32795 2.11666 0
M  V30 19590 H 1848.17 -5.25147 2.90414 0
M  V30 19591 H 1849.24 -3.83912 2.96209 0
M  V30 19592 N 1850.58 -0.841432 -1.33258 0
M  V30 19593 C 1851.49 -0.279006 -2.32935 0
M  V30 19594 C 1852.51 0.596298 -1.63463 0
M  V30 19595 O 1853.68 0.499812 -1.951 0
M  V30 19596 C 1850.75 0.534514 -3.42555 0
M  V30 19597 C 1849.81 -0.365366 -4.27742 0
M  V30 19598 C 1849.04 0.409423 -5.32127 0
M  V30 19599 O 1849.27 1.64085 -5.4629 0
M  V30 19600 O 1848.2 -0.217904 -6.01505 0
M  V30 19601 H 1852.03 -1.10448 -2.82904 0
M  V30 19602 H 1849.61 -0.60402 -1.36645 0
M  V30 19603 H 1851.49 0.996723 -4.09443 0
M  V30 19604 H 1850.17 1.33701 -2.94798 0
M  V30 19605 H 1849.07 -0.875469 -3.63712 0
M  V30 19606 H 1850.41 -1.1327 -4.78989 0
M  V30 19607 N 1852.06 1.4581 -0.598108 0
M  V30 19608 C 1852.99 2.27529 0.174933 0
M  V30 19609 C 1853.97 1.36565 0.882546 0
M  V30 19610 O 1855.15 1.65987 0.893332 0
M  V30 19611 C 1852.28 3.14698 1.25232 0
M  V30 19612 C 1851.33 4.21535 0.648877 0
M  V30 19613 S 1852.16 5.3281 -0.53603 0
M  V30 19614 C 1853.32 6.23547 0.542182 0
M  V30 19615 H 1853.55 2.92745 -0.518405 0
M  V30 19616 H 1851.08 1.49513 -0.385382 0
M  V30 19617 H 1853.04 3.65479 1.86909 0
M  V30 19618 H 1851.7 2.48764 1.91768 0
M  V30 19619 H 1850.89 4.82414 1.45922 0
M  V30 19620 H 1850.5 3.73846 0.107447 0
M  V30 19621 H 1852.79 6.6237 1.4238 0
M  V30 19622 H 1853.73 7.08094 -0.0302138 0
M  V30 19623 H 1854.14 5.58014 0.85325 0
M  V30 19624 N 1853.54 0.336733 1.53961 0
M  V30 19625 C 1854.47 -0.515664 2.27735 0
M  V30 19626 C 1855.45 -1.10835 1.29033 0
M  V30 19627 O 1856.63 -1.13102 1.57866 0
M  V30 19628 C 1853.76 -1.67015 3.04505 0
M  V30 19629 C 1852.72 -1.20613 4.10654 0
M  V30 19630 C 1852.04 -2.44861 4.75339 0
M  V30 19631 C 1853.34 -0.311507 5.2137 0
M  V30 19632 H 1855.04 0.0997513 2.99234 0
M  V30 19633 H 1852.58 0.0494157 1.43915 0
M  V30 19634 H 1854.54 -2.27286 3.54851 0
M  V30 19635 H 1853.26 -2.31236 2.30646 0
M  V30 19636 H 1851.92 -0.62628 3.61211 0
M  V30 19637 H 1851.57 -3.07474 3.98081 0
M  V30 19638 H 1851.27 -2.14498 5.47051 0
M  V30 19639 H 1852.79 -3.0587 5.28466 0
M  V30 19640 H 1854.21 -0.820868 5.67393 0
M  V30 19641 H 1852.6 -0.100073 6.00017 0
M  V30 19642 H 1853.67 0.654181 4.80467 0
M  V30 19643 N 1855.02 -1.57465 0.0651956 0
M  V30 19644 C 1855.95 -2.15374 -0.902018 0
M  V30 19645 C 1856.93 -1.07904 -1.31494 0
M  V30 19646 O 1858.11 -1.35909 -1.38717 0
M  V30 19647 C 1855.24 -2.71005 -2.17195 0
M  V30 19648 C 1854.2 -3.83583 -1.89864 0
M  V30 19649 C 1853.52 -4.25789 -3.23432 0
M  V30 19650 C 1854.82 -5.08112 -1.20913 0
M  V30 19651 H 1856.52 -2.96445 -0.419631 0
M  V30 19652 H 1854.06 -1.42599 -0.200401 0
M  V30 19653 H 1856.01 -3.1016 -2.8527 0
M  V30 19654 H 1854.74 -1.87146 -2.67664 0
M  V30 19655 H 1853.4 -3.44921 -1.24197 0
M  V30 19656 H 1853.05 -3.38861 -3.71729 0
M  V30 19657 H 1852.75 -5.01673 -3.05938 0
M  V30 19658 H 1854.27 -4.67555 -3.92715 0
M  V30 19659 H 1855.68 -5.44624 -1.79046 0
M  V30 19660 H 1854.08 -5.8923 -1.137 0
M  V30 19661 H 1855.15 -4.84538 -0.187224 0
M  V30 19662 N 1856.49 0.20831 -1.56217 0
M  V30 19663 C 1857.44 1.2582 -1.93489 0
M  V30 19664 C 1858.41 1.45907 -0.793748 0
M  V30 19665 O 1859.6 1.59258 -1.05078 0
M  V30 19666 C 1856.74 2.60077 -2.26835 0
M  V30 19667 C 1855.85 2.47678 -3.53948 0
M  V30 19668 C 1854.98 3.74549 -3.76678 0
M  V30 19669 C 1854.02 3.56928 -4.97261 0
M  V30 19670 N 1853.16 4.75779 -5.16313 0
M  V30 19671 H 1858 0.933346 -2.83006 0
M  V30 19672 H 1855.54 0.449531 -1.40063 0
M  V30 19673 H 1857.49 3.38277 -2.44181 0
M  V30 19674 H 1856.12 2.90632 -1.40474 0
M  V30 19675 H 1855.18 1.60844 -3.44722 0
M  V30 19676 H 1856.49 2.30585 -4.42303 0
M  V30 19677 H 1855.64 4.61191 -3.94193 0
M  V30 19678 H 1854.38 3.94582 -2.86629 0
M  V30 19679 H 1853.39 2.6867 -4.79683 0
M  V30 19680 H 1854.61 3.38353 -5.88808 0
M  V30 19681 H 1852.56 4.96101 -4.29209 0
M  V30 19682 H 1852.47 4.61462 -5.98823 0
M  V30 19683 H 1853.74 5.6381 -5.38274 0
M  V30 19684 N 1857.97 1.50255 0.475528 0
M  V30 19685 C 1859.22 1.6223 1.22691 0
M  V30 19686 C 1859.57 0.316569 1.89778 0
M  V30 19687 O 1858.87 -0.685188 1.78929 0
M  V30 19688 C 1859.06 2.73698 2.29835 0
M  V30 19689 C 1858.89 4.14984 1.73259 0
M  V30 19690 C 1857.66 4.81444 1.53428 0
M  V30 19691 C 1859.86 4.99374 1.23004 0
M  V30 19692 N 1857.84 6.0696 0.920483 0
M  V30 19693 C 1859.21 6.15578 0.739186 0
M  V30 19694 C 1861.26 4.85182 1.11816 0
M  V30 19695 C 1859.97 7.19149 0.147502 0
M  V30 19696 C 1861.99 5.88926 0.540422 0
M  V30 19697 C 1861.36 7.04375 0.0599282 0
M  V30 19698 H 1857.45 0.647828 0.437999 0
M  V30 19699 H 1860.04 1.87357 0.529653 0
M  V30 19700 H 1858.21 2.503 2.96992 0
M  V30 19701 H 1859.94 2.75055 2.96861 0
M  V30 19702 H 1856.7 4.38663 1.78526 0
M  V30 19703 H 1857.12 6.74042 0.632126 0
M  V30 19704 H 1861.76 3.96215 1.47559 0
M  V30 19705 H 1859.48 8.07795 -0.222137 0
M  V30 19706 H 1863.07 5.80008 0.456289 0
M  V30 19707 H 1861.95 7.83278 -0.380127 0
M  V30 19708 N 1859.45 -0.728395 1.39758 0
M  V30 19709 C 1860.7 -1.49028 1.37544 0
M  V30 19710 C 1861.03 -1.94182 -0.0265175 0
M  V30 19711 O 1860.3 -1.67257 -0.992737 0
M  V30 19712 C 1860.59 -2.72535 2.35365 0
M  V30 19713 C 1860.44 -2.33358 3.84531 0
M  V30 19714 C 1861.76 -3.74656 2.30914 0
M  V30 19715 H 1858.88 -0.540587 0.500934 0
M  V30 19716 H 1861.52 -0.832335 1.70799 0
M  V30 19717 H 1859.67 -3.28674 2.07137 0
M  V30 19718 H 1861.34 -1.828 4.23535 0
M  V30 19719 H 1859.58 -1.65508 4.00986 0
M  V30 19720 H 1860.26 -3.21832 4.48473 0
M  V30 19721 H 1862.73 -3.28117 2.55888 0
M  V30 19722 H 1861.61 -4.58729 3.01428 0
M  V30 19723 H 1861.87 -4.22047 1.31639 0
M  V30 19724 N 1860.93 -1.25042 -0.959279 0
M  V30 19725 C 1861.89 -1.05107 -2.03679 0
M  V30 19726 C 1862.89 -0.0054691 -1.60799 0
M  V30 19727 O 1864.08 -0.247225 -1.72437 0
M  V30 19728 C 1861.21 -0.594881 -3.35669 0
M  V30 19729 H 1862.41 -2.00753 -2.22796 0
M  V30 19730 H 1859.96 -1.07384 -1.13571 0
M  V30 19731 H 1860.69 0.364387 -3.22246 0
M  V30 19732 H 1860.48 -1.34966 -3.68139 0
M  V30 19733 H 1861.97 -0.476698 -4.1487 0
M  V30 19734 N 1862.41 1.16121 -1.06553 0
M  V30 19735 C 1863.64 1.90335 -0.803506 0
M  V30 19736 C 1864.04 1.77824 0.646172 0
M  V30 19737 O 1863.39 1.12231 1.4543 0
M  V30 19738 C 1863.45 3.41537 -1.12219 0
M  V30 19739 C 1863.11 3.77833 -2.57082 0
M  V30 19740 C 1864.11 3.79533 -3.55318 0
M  V30 19741 C 1861.8 4.08385 -2.92449 0
M  V30 19742 C 1863.79 4.11277 -4.8696 0
M  V30 19743 C 1861.48 4.39795 -4.24291 0
M  V30 19744 C 1862.47 4.41221 -5.21357 0
M  V30 19745 O 1862.16 4.71883 -6.50831 0
M  V30 19746 H 1861.89 0.610323 -0.290658 0
M  V30 19747 H 1864.45 1.48107 -1.42315 0
M  V30 19748 H 1862.68 3.84125 -0.445483 0
M  V30 19749 H 1864.37 3.97029 -0.843985 0
M  V30 19750 H 1865.13 3.56038 -3.29336 0
M  V30 19751 H 1861.01 4.06439 -2.17551 0
M  V30 19752 H 1864.56 4.12305 -5.62717 0
M  V30 19753 H 1860.45 4.62756 -4.5003 0
M  V30 19754 H 1861.22 4.89683 -6.5586 0
M  V30 19755 N 1863.88 0.848487 1.3281 0
M  V30 19756 C 1865.13 0.44797 1.97073 0
M  V30 19757 C 1865.45 -0.998358 1.67505 0
M  V30 19758 O 1864.72 -1.69683 0.97901 0
M  V30 19759 H 1863.3 0.162663 0.729075 0
M  V30 19760 H 1865.97 1.08356 1.62003 0
M  V30 19761 H 1865.06 0.587939 3.06512 0
M  V30 19762 N 1865.36 -1.4549 0.605832 0
M  V30 19763 C 1866.61 -2.02251 0.100338 0
M  V30 19764 C 1866.94 -1.47447 -1.26845 0
M  V30 19765 O 1866.19 -0.638532 -1.8499 0
M  V30 19766 C 1866.49 -3.57399 0.00918576 0
M  V30 19767 C 1866.16 -4.31347 1.31341 0
M  V30 19768 C 1864.82 -4.51267 1.67067 0
M  V30 19769 C 1867.17 -4.73629 2.17543 0
M  V30 19770 C 1864.5 -5.10725 2.88751 0
M  V30 19771 C 1866.85 -5.34432 3.38474 0
M  V30 19772 C 1865.52 -5.52576 3.74455 0
M  V30 19773 H 1864.79 -0.74009 0.0367165 0
M  V30 19774 H 1867.43 -1.74577 0.787099 0
M  V30 19775 H 1865.74 -3.84342 -0.760829 0
M  V30 19776 H 1867.43 -3.99019 -0.398057 0
M  V30 19777 H 1864.02 -4.16155 1.02533 0
M  V30 19778 H 1868.21 -4.57974 1.91241 0
M  V30 19779 H 1863.46 -5.22961 3.16736 0
M  V30 19780 H 1867.64 -5.66149 4.05522 0
M  V30 19781 H 1865.27 -5.98416 4.68831 0
M  V30 19782 N 1866.84 -0.344893 -1.5378 0
M  V30 19783 C 1867.79 0.511269 -2.25066 0
M  V30 19784 C 1868.76 1.09446 -1.24944 0
M  V30 19785 O 1869.94 1.13082 -1.53679 0
M  V30 19786 C 1867.08 1.65563 -3.02792 0
M  V30 19787 C 1866.2 1.09962 -4.17771 0
M  V30 19788 C 1865.33 2.21139 -4.82981 0
M  V30 19789 C 1864.37 1.62897 -5.90026 0
M  V30 19790 N 1863.51 2.67822 -6.49011 0
M  V30 19791 H 1868.35 -0.103166 -2.97821 0
M  V30 19792 H 1865.88 -0.0626846 -1.46966 0
M  V30 19793 H 1867.84 2.32936 -3.46117 0
M  V30 19794 H 1866.47 2.24103 -2.32331 0
M  V30 19795 H 1865.52 0.316786 -3.79079 0
M  V30 19796 H 1866.84 0.633622 -4.94759 0
M  V30 19797 H 1865.99 2.96375 -5.29383 0
M  V30 19798 H 1864.73 2.71083 -4.0542 0
M  V30 19799 H 1863.73 0.861672 -5.43006 0
M  V30 19800 H 1864.96 1.13803 -6.69497 0
M  V30 19801 H 1862.9 3.17018 -5.74313 0
M  V30 19802 H 1862.82 2.25848 -7.21477 0
M  V30 19803 H 1864.09 3.42822 -7.00066 0
M  V30 19804 N 1868.32 1.57428 -0.0735454 0
M  V30 19805 C 1869.27 2.12821 0.893071 0
M  V30 19806 C 1870.24 1.04117 1.29418 0
M  V30 19807 O 1871.42 1.31789 1.37972 0
M  V30 19808 C 1868.56 2.69569 2.15468 0
M  V30 19809 C 1867.67 3.92436 1.80605 0
M  V30 19810 C 1866.81 4.37421 3.01391 0
M  V30 19811 C 1865.85 5.52931 2.62553 0
M  V30 19812 N 1864.98 5.92866 3.76104 0
M  V30 19813 H 1869.82 2.95113 0.413823 0
M  V30 19814 H 1867.36 1.45834 0.192613 0
M  V30 19815 H 1869.32 3.0058 2.89323 0
M  V30 19816 H 1867.95 1.9004 2.6093 0
M  V30 19817 H 1867 3.67876 0.968068 0
M  V30 19818 H 1868.31 4.76327 1.48033 0
M  V30 19819 H 1867.47 4.70102 3.83522 0
M  V30 19820 H 1866.21 3.52386 3.37158 0
M  V30 19821 H 1865.21 5.19899 1.78844 0
M  V30 19822 H 1866.44 6.39698 2.27954 0
M  V30 19823 H 1864.38 5.10781 4.11629 0
M  V30 19824 H 1864.3 6.71502 3.47305 0
M  V30 19825 H 1865.57 6.30171 4.58808 0
M  V30 19826 N 1869.8 -0.200022 1.56326 0
M  V30 19827 C 1871.03 -0.936144 1.84174 0
M  V30 19828 C 1871.43 -1.77564 0.653267 0
M  V30 19829 O 1870.78 -1.79569 -0.387368 0
M  V30 19830 C 1870.84 -1.88598 3.06057 0
M  V30 19831 C 1870.5 -1.22892 4.40167 0
M  V30 19832 C 1871.5 -0.608243 5.1633 0
M  V30 19833 C 1869.19 -1.23424 4.869 0
M  V30 19834 C 1871.18 -0.00166268 6.374 0
M  V30 19835 C 1868.87 -0.623827 6.07908 0
M  V30 19836 C 1869.86 -0.00861163 6.82999 0
M  V30 19837 O 1869.55 0.592252 8.01715 0
M  V30 19838 H 1869.28 -0.278889 0.615789 0
M  V30 19839 H 1871.84 -0.213764 2.04285 0
M  V30 19840 H 1870.07 -2.64793 2.81818 0
M  V30 19841 H 1871.76 -2.48948 3.20593 0
M  V30 19842 H 1872.52 -0.596302 4.8132 0
M  V30 19843 H 1868.4 -1.7025 4.28411 0
M  V30 19844 H 1871.95 0.479147 6.95953 0
M  V30 19845 H 1867.84 -0.633254 6.42386 0
M  V30 19846 H 1868.61 0.488674 8.1704 0
M  V30 19847 N 1871.27 -1.50505 -0.467553 0
M  V30 19848 C 1872.52 -1.61671 -1.21938 0
M  V30 19849 C 1872.85 -0.318688 -1.91871 0
M  V30 19850 O 1872.1 0.695639 -1.82919 0
M  V30 19851 C 1872.4 -2.74913 -2.28381 0
M  V30 19852 C 1872.07 -4.1527 -1.75674 0
M  V30 19853 C 1870.73 -4.5346 -1.6102 0
M  V30 19854 C 1873.08 -5.02978 -1.3661 0
M  V30 19855 C 1870.41 -5.77094 -1.05732 0
M  V30 19856 C 1872.76 -6.27163 -0.827621 0
M  V30 19857 C 1871.43 -6.64152 -0.667746 0
M  V30 19858 H 1870.7 -0.591596 -0.446201 0
M  V30 19859 H 1873.34 -1.84449 -0.514858 0
M  V30 19860 H 1871.65 -2.46237 -3.04754 0
M  V30 19861 H 1873.35 -2.80756 -2.86317 0
M  V30 19862 H 1869.94 -3.85144 -1.88047 0
M  V30 19863 H 1874.12 -4.74103 -1.46764 0
M  V30 19864 H 1869.38 -6.04424 -0.920946 0
M  V30 19865 H 1873.55 -6.94484 -0.516286 0
M  V30 19866 H 1871.18 -7.5983 -0.237178 0
M  V30 19867 N 1872.75 0.720973 -1.40142 0
M  V30 19868 C 1873.98 1.51012 -1.41431 0
M  V30 19869 C 1874.4 1.88796 -0.0125516 0
M  V30 19870 O 1873.75 1.55073 0.962217 0
M  V30 19871 C 1873.8 2.78886 -2.3001 0
M  V30 19872 O 1873.52 2.42703 -3.64729 0
M  V30 19873 C 1875.03 3.7282 -2.39834 0
M  V30 19874 H 1872.25 0.466214 -0.482582 0
M  V30 19875 H 1874.79 0.889777 -1.84128 0
M  V30 19876 H 1872.94 3.37219 -1.90689 0
M  V30 19877 H 1873.36 3.24945 -4.11717 0
M  V30 19878 H 1874.83 4.594 -3.06032 0
M  V30 19879 H 1875.31 4.15552 -1.42173 0
M  V30 19880 H 1875.92 3.20402 -2.79684 0
M  V30 19881 N 1874.23 1.25549 0.952634 0
M  V30 19882 C 1875.18 1.05902 2.07093 0
M  V30 19883 C 1876.17 -0.0106646 1.69397 0
M  V30 19884 O 1877.38 0.14511 1.79414 0
M  V30 19885 H 1873.75 0.325539 0.677885 0
M  V30 19886 H 1875.72 2.00701 2.2082 0
M  V30 19887 C 1874.47 0.696581 3.40651 0
M  V30 19888 H 1873.8 1.5115 3.70127 0
M  V30 19889 H 1875.24 0.598818 4.1975 0
M  V30 19890 C 1873.7 -0.5975 3.31559 0
M  V30 19891 O 1874.23 -1.63906 3.66739 0
M  V30 19892 N 1872.43 -0.583869 2.84674 0
M  V30 19893 H 1871.98 0.264102 2.56243 0
M  V30 19894 H 1871.94 -1.44987 2.78973 0
M  V30 19895 N 1875.71 -1.15554 1.07168 0
M  V30 19896 C 1876.67 -2.18431 0.694305 0
M  V30 19897 C 1877.67 -1.5861 -0.264497 0
M  V30 19898 O 1878.86 -1.7414 -0.0457035 0
M  V30 19899 C 1875.99 -3.40892 0.0230473 0
M  V30 19900 H 1877.19 -2.53331 1.60511 0
M  V30 19901 H 1874.74 -1.29984 0.867982 0
M  V30 19902 H 1875.47 -3.11559 -0.900083 0
M  V30 19903 H 1875.26 -3.8557 0.712622 0
M  V30 19904 H 1876.75 -4.16986 -0.226392 0
M  V30 19905 N 1877.19 -0.855519 -1.32358 0
M  V30 19906 C 1878.43 -0.469284 -1.97912 0
M  V30 19907 C 1878.79 0.964638 -1.66471 0
M  V30 19908 O 1878.08 1.66785 -0.943052 0
M  V30 19909 C 1878.28 -0.64624 -3.51509 0
M  V30 19910 C 1878.1 -2.09581 -3.97877 0
M  V30 19911 C 1876.87 -2.73449 -4.24916 0
M  V30 19912 C 1879.07 -3.06649 -4.12881 0
M  V30 19913 N 1877.05 -4.09308 -4.57537 0
M  V30 19914 C 1878.43 -4.27498 -4.49049 0
M  V30 19915 C 1880.48 -3.02833 -3.95217 0
M  V30 19916 C 1879.18 -5.4503 -4.69398 0
M  V30 19917 C 1881.21 -4.1961 -4.16751 0
M  V30 19918 C 1880.57 -5.39218 -4.53237 0
M  V30 19919 H 1876.67 -0.220478 -0.750276 0
M  V30 19920 H 1879.25 -1.10709 -1.60161 0
M  V30 19921 H 1877.43 -0.038129 -3.88381 0
M  V30 19922 H 1879.16 -0.229815 -4.04047 0
M  V30 19923 H 1875.91 -2.24482 -4.17019 0
M  V30 19924 H 1876.34 -4.7939 -4.78032 0
M  V30 19925 H 1880.98 -2.1148 -3.66109 0
M  V30 19926 H 1878.7 -6.36914 -4.97359 0
M  V30 19927 H 1882.28 -4.18094 -4.04585 0
M  V30 19928 H 1881.16 -6.28075 -4.69565 0
M  V30 19929 N 1878.67 1.45167 -0.61354 0
M  V30 19930 C 1879.91 2.04081 -0.114146 0
M  V30 19931 C 1880.27 1.47081 1.23414 0
M  V30 19932 O 1881.47 1.97386 1.82461 0
M  V30 19933 C 1879.74 3.57307 -0.0817425 0
M  V30 19934 S 1881.3 4.37357 0.355593 0
M  V30 19935 H 1878.12 0.709061 -0.0524763 0
M  V30 19936 H 1880.72 1.77795 -0.81298 0
M  V30 19937 H 1879.42 3.96302 -1.06645 0
M  V30 19938 H 1878.96 3.88177 0.638898 0
M  V30 19939 H 1880.97 4.69566 1.6038 0
M  V30 19940 N 1880.14 0.353044 1.53595 0
M  V30 19941 C 1881.39 -0.233537 2.02055 0
M  V30 19942 C 1881.74 -1.47437 1.23613 0
M  V30 19943 O 1881.04 -1.88943 0.317969 0
M  V30 19944 C 1881.23 -0.590811 3.52483 0
M  V30 19945 C 1881.06 0.613851 4.45491 0
M  V30 19946 C 1879.83 1.12208 4.92684 0
M  V30 19947 C 1882.03 1.47523 4.92688 0
M  V30 19948 N 1880.01 2.28808 5.69667 0
M  V30 19949 C 1881.38 2.48803 5.67888 0
M  V30 19950 C 1883.44 1.49957 4.74781 0
M  V30 19951 C 1882.14 3.52357 6.27086 0
M  V30 19952 C 1884.17 2.52398 5.34836 0
M  V30 19953 C 1883.53 3.52402 6.09912 0
M  V30 19954 H 1879.63 -0.0485078 0.780494 0
M  V30 19955 H 1882.21 0.494757 1.88309 0
M  V30 19956 H 1880.38 -1.2882 3.66415 0
M  V30 19957 H 1882.11 -1.1614 3.87677 0
M  V30 19958 H 1878.87 0.688673 4.68566 0
M  V30 19959 H 1879.29 2.87705 6.12825 0
M  V30 19960 H 1883.93 0.74 4.16274 0
M  V30 19961 H 1881.65 4.29203 6.84697 0
M  V30 19962 H 1885.24 2.5512 5.22882 0
M  V30 19963 H 1884.12 4.3037 6.55554 0
M  V30 19964 N 1881.62 -1.57387 0.0818932 0
M  V30 19965 C 1882.55 -2.16318 -0.879124 0
M  V30 19966 C 1883.53 -1.09293 -1.30342 0
M  V30 19967 O 1884.72 -1.37373 -1.37267 0
M  V30 19968 C 1881.85 -2.73293 -2.14308 0
M  V30 19969 C 1880.8 -3.85575 -1.85785 0
M  V30 19970 C 1880.13 -4.29195 -3.18897 0
M  V30 19971 C 1881.43 -5.09365 -1.15517 0
M  V30 19972 H 1883.12 -2.96873 -0.388166 0
M  V30 19973 H 1880.67 -1.42803 -0.185265 0
M  V30 19974 H 1882.62 -3.13168 -2.81964 0
M  V30 19975 H 1881.34 -1.89974 -2.65664 0
M  V30 19976 H 1880 -3.46219 -1.20532 0
M  V30 19977 H 1879.65 -3.42784 -3.68114 0
M  V30 19978 H 1879.35 -5.04889 -3.006 0
M  V30 19979 H 1880.88 -4.71694 -3.87734 0
M  V30 19980 H 1882.29 -5.46493 -1.73259 0
M  V30 19981 H 1880.69 -5.90403 -1.07444 0
M  V30 19982 H 1881.76 -4.8471 -0.135822 0
M  V30 19983 N 1883.1 0.191729 -1.56429 0
M  V30 19984 C 1884.38 0.937684 -1.71659 0
M  V30 19985 C 1884.76 2.0124 -0.63762 0
M  V30 19986 O 1884.1 2.2579 0.350865 0
M  V30 19987 C 1884.31 1.52104 -3.14111 0
M  V30 19988 C 1885.66 2.00186 -3.74447 0
M  V30 19989 O 1886.69 1.61939 -3.1726 0
M  V30 19990 O 1885.55 2.70576 -4.74817 0
M  V30 19991 H 1882.64 0.439962 -0.700259 0
M  V30 19992 H 1885.19 0.181161 -1.6873 0
M  V30 19993 H 1883.96 0.746526 -3.84113 0
M  V30 19994 H 1883.58 2.3423 -3.21282 0
M  V30 19995 N 1884.58 1.50751 0.459565 0
M  V30 19996 C 1885.82 1.62315 1.21078 0
M  V30 19997 C 1886.15 0.328859 1.917 0
M  V30 19998 O 1885.41 -0.685929 1.83285 0
M  V30 19999 C 1885.71 2.7612 2.26919 0
M  V30 20000 C 1885.37 4.16196 1.73469 0
M  V30 20001 C 1884.03 4.54307 1.58613 0
M  V30 20002 C 1886.39 5.03696 1.33941 0
M  V30 20003 C 1883.71 5.77647 1.0267 0
M  V30 20004 C 1886.07 6.27593 0.794349 0
M  V30 20005 C 1884.73 6.64496 0.632515 0
M  V30 20006 H 1884 0.593954 0.443057 0
M  V30 20007 H 1886.65 1.8472 0.505069 0
M  V30 20008 H 1884.95 2.47849 3.03443 0
M  V30 20009 H 1886.65 2.8227 2.84824 0
M  V30 20010 H 1883.24 3.86136 1.86002 0
M  V30 20011 H 1887.42 4.74875 1.44247 0
M  V30 20012 H 1882.68 6.04904 0.888879 0
M  V30 20013 H 1886.85 6.94748 0.479449 0
M  V30 20014 H 1884.48 7.59945 0.196879 0
M  V30 20015 N 1886.06 -0.713531 1.40522 0
M  V30 20016 C 1886.99 -1.8404 1.43707 0
M  V30 20017 C 1887.97 -1.67474 0.297751 0
M  V30 20018 O 1889.15 -1.87474 0.506662 0
M  V30 20019 C 1886.28 -3.22014 1.30094 0
M  V30 20020 C 1885.24 -3.53255 2.4165 0
M  V30 20021 C 1884.56 -4.90395 2.13113 0
M  V30 20022 C 1885.86 -3.54045 3.83991 0
M  V30 20023 H 1887.56 -1.81632 2.38013 0
M  V30 20024 H 1885.1 -0.872437 1.14562 0
M  V30 20025 H 1887.05 -4.00541 1.30938 0
M  V30 20026 H 1885.78 -3.25002 0.322648 0
M  V30 20027 H 1884.44 -2.77069 2.40059 0
M  V30 20028 H 1884.09 -4.89988 1.13669 0
M  V30 20029 H 1883.79 -5.12264 2.87853 0
M  V30 20030 H 1885.31 -5.71254 2.15642 0
M  V30 20031 H 1886.72 -4.22609 3.87395 0
M  V30 20032 H 1885.12 -3.87441 4.58268 0
M  V30 20033 H 1886.19 -2.53387 4.13428 0
M  V30 20034 N 1887.53 -1.26053 -0.945962 0
M  V30 20035 C 1888.78 -1.10706 -1.68603 0
M  V30 20036 C 1889.1 0.350167 -1.9244 0
M  V30 20037 O 1890.3 0.624224 -2.64227 0
M  V30 20038 C 1888.76 -1.93306 -3.0358 0
M  V30 20039 C 1888.37 -3.43574 -2.87508 0
M  V30 20040 C 1890.11 -1.86555 -3.8131 0
M  V30 20041 C 1888.02 -4.18438 -4.17928 0
M  V30 20042 H 1886.95 -0.410689 -0.632337 0
M  V30 20043 H 1889.6 -1.50322 -1.0524 0
M  V30 20044 H 1887.98 -1.4652 -3.67897 0
M  V30 20045 H 1889.15 -3.98096 -2.3207 0
M  V30 20046 H 1887.47 -3.51511 -2.23224 0
M  V30 20047 H 1890.07 -2.39775 -4.77925 0
M  V30 20048 H 1890.41 -0.83525 -4.07835 0
M  V30 20049 H 1890.94 -2.31138 -3.23759 0
M  V30 20050 H 1887.68 -5.21917 -3.96589 0
M  V30 20051 H 1887.2 -3.68698 -4.73098 0
M  V30 20052 H 1888.88 -4.26626 -4.86415 0
M  V30 20053 N 1889.01 1.14984 -1.07779 0
M  V30 20054 C 1890.26 1.86148 -0.804777 0
M  V30 20055 C 1890.59 1.82364 0.667615 0
M  V30 20056 O 1889.87 1.24982 1.4903 0
M  V30 20057 C 1890.15 3.35067 -1.31916 0
M  V30 20058 C 1890 3.4746 -2.85642 0
M  V30 20059 C 1891.32 4.29961 -0.939217 0
M  V30 20060 H 1888.44 0.675899 -0.293818 0
M  V30 20061 H 1891.08 1.35065 -1.33632 0
M  V30 20062 H 1889.23 3.78702 -0.867011 0
M  V30 20063 H 1890.9 3.12658 -3.3918 0
M  V30 20064 H 1889.15 2.88878 -3.23623 0
M  V30 20065 H 1889.82 4.52109 -3.16704 0
M  V30 20066 H 1892.29 3.94309 -1.3289 0
M  V30 20067 H 1891.17 5.32633 -1.32641 0
M  V30 20068 H 1891.43 4.4183 0.15442 0
M  V30 20069 N 1890.49 0.862526 1.31902 0
M  V30 20070 C 1891.77 0.390745 1.91657 0
M  V30 20071 C 1892.15 -1.12648 1.78532 0
M  V30 20072 O 1891.49 -1.95169 1.18833 0
M  V30 20073 C 1891.7 0.863847 3.3814 0
M  V30 20074 C 1893.05 0.885621 4.15261 0
M  V30 20075 O 1894.08 0.809005 3.46891 0
M  V30 20076 O 1892.94 0.995169 5.37363 0
M  V30 20077 H 1890.03 0.115501 0.818895 0
M  V30 20078 H 1892.58 0.949947 1.4062 0
M  V30 20079 H 1891.35 1.90723 3.41673 0
M  V30 20080 H 1890.97 0.282536 3.96595 0
M  V30 20081 N 1891.97 -1.4484 0.62123 0
M  V30 20082 C 1893.21 -2.02433 0.121965 0
M  V30 20083 C 1893.55 -1.48679 -1.24932 0
M  V30 20084 O 1892.82 -0.666887 -1.8271 0
M  V30 20085 C 1893.11 -3.59967 0.0978513 0
M  V30 20086 C 1892.96 -4.24025 1.50077 0
M  V30 20087 C 1894.28 -4.36224 -0.582838 0
M  V30 20088 H 1891.4 -0.735576 0.0457947 0
M  V30 20089 H 1894.04 -1.72531 0.795812 0
M  V30 20090 H 1892.19 -3.85573 -0.47597 0
M  V30 20091 H 1893.86 -4.09558 2.12272 0
M  V30 20092 H 1892.1 -3.819 2.05754 0
M  V30 20093 H 1892.77 -5.32994 1.43602 0
M  V30 20094 H 1895.25 -4.15992 -0.0949595 0
M  V30 20095 H 1894.13 -5.45944 -0.568863 0
M  V30 20096 H 1894.39 -4.10098 -1.65142 0
M  V30 20097 N 1893.45 -0.361184 -1.53405 0
M  V30 20098 C 1894.67 0.233383 -2.06083 0
M  V30 20099 C 1895.1 1.42029 -1.23326 0
M  V30 20100 O 1894.45 1.79551 -0.251249 0
M  V30 20101 C 1894.5 0.609243 -3.55416 0
M  V30 20102 O 1893.61 1.70705 -3.75411 0
M  V30 20103 H 1892.95 0.035021 -0.663076 0
M  V30 20104 H 1895.48 -0.520514 -1.97868 0
M  V30 20105 H 1895.49 0.881483 -3.98364 0
M  V30 20106 H 1894.16 -0.25866 -4.15095 0
M  V30 20107 H 1892.74 1.4307 -3.44362 0
M  V30 20108 N 1894.92 1.57341 -0.0902386 0
M  V30 20109 C 1895.85 2.16782 0.86764 0
M  V30 20110 C 1896.84 1.09982 1.29761 0
M  V30 20111 O 1898.02 1.38099 1.36537 0
M  V30 20112 C 1895.15 2.74426 2.12856 0
M  V30 20113 C 1894.1 3.86555 1.83738 0
M  V30 20114 C 1893.43 4.3088 3.16617 0
M  V30 20115 C 1894.73 5.09971 1.12814 0
M  V30 20116 H 1896.42 2.97075 0.372417 0
M  V30 20117 H 1893.97 1.42899 0.177689 0
M  V30 20118 H 1895.92 3.14659 2.80299 0
M  V30 20119 H 1894.65 1.9138 2.64653 0
M  V30 20120 H 1893.31 3.46853 1.18694 0
M  V30 20121 H 1892.95 3.44732 3.66291 0
M  V30 20122 H 1892.65 5.06477 2.97918 0
M  V30 20123 H 1894.18 4.73743 3.85227 0
M  V30 20124 H 1895.59 5.47404 1.70358 0
M  V30 20125 H 1893.99 5.90965 1.04311 0
M  V30 20126 H 1895.06 4.84775 0.110114 0
M  V30 20127 N 1896.4 -0.183431 1.56529 0
M  V30 20128 C 1897.65 -0.903332 1.8157 0
M  V30 20129 C 1897.98 -1.82417 0.666167 0
M  V30 20130 O 1897.26 -1.91635 -0.332621 0
M  V30 20131 C 1897.54 -1.70949 3.16936 0
M  V30 20132 C 1897.39 -0.812595 4.42399 0
M  V30 20133 C 1898.71 -2.6797 3.49113 0
M  V30 20134 H 1895.83 -0.326961 0.660504 0
M  V30 20135 H 1898.47 -0.170115 1.89237 0
M  V30 20136 H 1896.62 -2.33458 3.10531 0
M  V30 20137 H 1898.29 -0.201313 4.60861 0
M  V30 20138 H 1896.54 -0.119949 4.33634 0
M  V30 20139 H 1897.21 -1.4119 5.33638 0
M  V30 20140 H 1899.68 -2.15591 3.55893 0
M  V30 20141 H 1898.56 -3.21451 4.44927 0
M  V30 20142 H 1898.82 -3.47584 2.73199 0
M  V30 20143 N 1897.88 -1.50992 -0.451564 0
M  V30 20144 C 1899.11 -1.67021 -1.22958 0
M  V30 20145 C 1899.53 -0.36115 -1.846 0
M  V30 20146 O 1898.89 0.677193 -1.68178 0
M  V30 20147 C 1898.94 -2.77744 -2.29979 0
M  V30 20148 O 1898.04 -2.40356 -3.35116 0
M  V30 20149 H 1897.38 -0.557369 -0.360882 0
M  V30 20150 H 1899.91 -1.97479 -0.535073 0
M  V30 20151 H 1899.92 -3.01406 -2.74988 0
M  V30 20152 H 1898.6 -3.72742 -1.84488 0
M  V30 20153 H 1897.17 -2.27214 -2.95683 0
M  V30 20154 N 1899.36 0.706069 -1.40899 0
M  V30 20155 C 1900.29 1.83275 -1.44681 0
M  V30 20156 C 1901.27 1.67313 -0.306629 0
M  V30 20157 O 1902.45 1.87203 -0.516597 0
M  V30 20158 C 1899.58 3.21319 -1.318 0
M  V30 20159 C 1898.54 3.51969 -2.4352 0
M  V30 20160 C 1897.86 4.89258 -2.1571 0
M  V30 20161 C 1899.16 3.52004 -3.85864 0
M  V30 20162 H 1900.86 1.80367 -2.38973 0
M  V30 20163 H 1898.4 0.866349 -1.15023 0
M  V30 20164 H 1900.36 3.99841 -1.3306 0
M  V30 20165 H 1899.08 3.24827 -0.339879 0
M  V30 20166 H 1897.74 2.75792 -2.41525 0
M  V30 20167 H 1897.39 4.89378 -1.16266 0
M  V30 20168 H 1897.09 5.1073 -2.90566 0
M  V30 20169 H 1898.61 5.70102 -2.18669 0
M  V30 20170 H 1900.03 4.20548 -3.8963 0
M  V30 20171 H 1898.42 3.85005 -4.60316 0
M  V30 20172 H 1899.49 2.51191 -4.14766 0
M  V30 20173 N 1900.84 1.26553 0.939264 0
M  V30 20174 C 1902.08 1.12376 1.68818 0
M  V30 20175 C 1902.42 -0.331784 1.91345 0
M  V30 20176 O 1901.69 -1.24359 1.4955 0
M  V30 20177 C 1901.97 1.89541 3.0618 0
M  V30 20178 C 1901.83 3.43014 2.90966 0
M  V30 20179 C 1903.15 1.69074 4.06327 0
M  V30 20180 H 1900.26 0.409616 0.612686 0
M  V30 20181 H 1902.91 1.55571 1.09076 0
M  V30 20182 H 1901.06 1.5283 3.57177 0
M  V30 20183 H 1902.73 3.89489 2.47176 0
M  V30 20184 H 1900.97 3.69942 2.26551 0
M  V30 20185 H 1901.64 3.92236 3.88401 0
M  V30 20186 H 1904.12 2.01061 3.64299 0
M  V30 20187 H 1902.99 2.25478 5.00451 0
M  V30 20188 H 1903.26 0.635787 4.37504 0
M  V30 20189 N 1902.31 -1.14411 1.08387 0
M  V30 20190 C 1903.28 -2.17682 0.717433 0
M  V30 20191 C 1904.28 -1.58881 -0.24766 0
M  V30 20192 O 1905.47 -1.74179 -0.027231 0
M  V30 20193 C 1902.6 -3.40849 0.0592022 0
M  V30 20194 H 1903.79 -2.51614 1.63188 0
M  V30 20195 H 1901.35 -1.29056 0.88172 0
M  V30 20196 H 1902.08 -3.12496 -0.866987 0
M  V30 20197 H 1901.87 -3.84792 0.753477 0
M  V30 20198 H 1903.36 -4.17203 -0.182152 0
M  V30 20199 N 1903.79 -0.869509 -1.31443 0
M  V30 20200 C 1904.74 -0.314033 -2.3047 0
M  V30 20201 C 1905.73 0.570635 -1.595 0
M  V30 20202 O 1906.94 0.456787 -1.74108 0
M  V30 20203 H 1903.32 -0.0828699 -0.74742 0
M  V30 20204 H 1905.29 -1.16319 -2.74795 0
M  V30 20205 C 1904.04 0.469956 -3.44509 0
M  V30 20206 H 1903.36 -0.201508 -3.99292 0
M  V30 20207 H 1904.8 0.823967 -4.15917 0
M  V30 20208 C 1903.26 1.66104 -2.93106 0
M  V30 20209 O 1903.79 2.76033 -2.91836 0
M  V30 20210 N 1901.99 1.49302 -2.49313 0
M  V30 20211 H 1901.54 0.598742 -2.50545 0
M  V30 20212 H 1901.5 2.29137 -2.15276 0
M  V30 20213 N 1905.27 1.44508 -0.628902 0
M  V30 20214 C 1906.5 2.06429 -0.13951 0
M  V30 20215 C 1906.91 1.46981 1.18499 0
M  V30 20216 O 1906.27 0.591856 1.72636 0
M  V30 20217 C 1906.32 3.61496 -0.016195 0
M  V30 20218 O 1906.04 4.18729 -1.28831 0
M  V30 20219 C 1907.54 4.40447 0.502154 0
M  V30 20220 H 1904.76 0.666375 -0.0786479 0
M  V30 20221 H 1907.31 1.85414 -0.862674 0
M  V30 20222 H 1905.46 3.81781 0.657398 0
M  V30 20223 H 1905.88 5.12145 -1.13171 0
M  V30 20224 H 1907.35 5.49377 0.537458 0
M  V30 20225 H 1907.83 4.11735 1.52876 0
M  V30 20226 H 1908.43 4.25076 -0.138113 0
M  V30 20227 N 1906.75 0.369315 1.53212 0
M  V30 20228 C 1907.68 -0.467242 2.28777 0
M  V30 20229 C 1908.66 -1.08073 1.31355 0
M  V30 20230 O 1909.85 -1.09728 1.60229 0
M  V30 20231 C 1906.98 -1.60519 3.07979 0
M  V30 20232 C 1905.93 -1.11876 4.1312 0
M  V30 20233 C 1905.26 -2.34723 4.80426 0
M  V30 20234 C 1906.56 -0.200846 5.21914 0
M  V30 20235 H 1908.25 0.163201 2.98955 0
M  V30 20236 H 1905.8 0.0799312 1.43778 0
M  V30 20237 H 1907.75 -2.19708 3.59592 0
M  V30 20238 H 1906.47 -2.26292 2.35499 0
M  V30 20239 H 1905.13 -0.549521 3.62458 0
M  V30 20240 H 1904.78 -2.98961 4.04514 0
M  V30 20241 H 1904.48 -2.02846 5.51477 0
M  V30 20242 H 1906 -2.94592 5.34835 0
M  V30 20243 H 1907.42 -0.700331 5.69006 0
M  V30 20244 H 1905.81 0.0272222 6.00094 0
M  V30 20245 H 1906.88 0.755948 4.78971 0
M  V30 20246 N 1908.23 -1.57291 0.0985816 0
M  V30 20247 C 1909.48 -1.94094 -0.563189 0
M  V30 20248 C 1909.8 -0.981394 -1.68504 0
M  V30 20249 O 1909.07 -0.0340632 -1.9587 0
M  V30 20250 H 1907.65 -0.716571 -0.211033 0
M  V30 20251 H 1910.31 -1.94219 0.162732 0
M  V30 20252 H 1909.4 -2.96607 -0.971113 0
M  V30 20253 N 1909.71 0.175127 -1.56624 0
M  V30 20254 C 1910.95 0.892368 -1.81777 0
M  V30 20255 C 1911.28 1.8241 -0.675051 0
M  V30 20256 O 1910.54 1.9276 0.337944 0
M  V30 20257 C 1910.83 1.72397 -3.13072 0
M  V30 20258 C 1910.5 0.941494 -4.40961 0
M  V30 20259 C 1909.16 0.725524 -4.75699 0
M  V30 20260 C 1911.51 0.392358 -5.19721 0
M  V30 20261 C 1908.84 -0.0507428 -5.86678 0
M  V30 20262 C 1911.19 -0.370801 -6.31512 0
M  V30 20263 C 1909.86 -0.597606 -6.64819 0
M  V30 20264 H 1909.13 0.326541 -0.665171 0
M  V30 20265 H 1911.78 0.157524 -1.90851 0
M  V30 20266 H 1910.08 2.52809 -2.99324 0
M  V30 20267 H 1911.78 2.28189 -3.29743 0
M  V30 20268 H 1908.37 1.11986 -4.13711 0
M  V30 20269 H 1912.55 0.546561 -4.93281 0
M  V30 20270 H 1907.81 -0.236241 -6.10943 0
M  V30 20271 H 1911.98 -0.803585 -6.91748 0
M  V30 20272 H 1909.61 -1.201 -7.50653 0
M  V30 20273 N 1911.18 1.5123 0.44355 0
M  V30 20274 C 1912.15 1.71511 1.52041 0
M  V30 20275 C 1913.15 0.585226 1.49772 0
M  V30 20276 O 1914.34 0.852687 1.51904 0
M  V30 20277 C 1911.47 1.76583 2.91601 0
M  V30 20278 H 1912.66 2.67613 1.35364 0
M  V30 20279 H 1910.21 1.41125 0.671811 0
M  V30 20280 H 1910.95 0.822743 3.1369 0
M  V30 20281 H 1910.73 2.58693 2.94653 0
M  V30 20282 H 1912.22 1.94135 3.69732 0
M  V30 20283 N 1912.66 -0.698586 1.41271 0
M  V30 20284 C 1913.57 -1.8424 1.45234 0
M  V30 20285 C 1914.59 -1.70581 0.343225 0
M  V30 20286 O 1915.76 -1.9255 0.590477 0
M  V30 20287 C 1912.83 -3.20195 1.32951 0
M  V30 20288 C 1911.89 -3.45984 2.54152 0
M  V30 20289 C 1911.12 -4.75453 2.42446 0
M  V30 20290 O 1911.35 -5.5173 1.44741 0
M  V30 20291 O 1910.28 -5.01958 3.32147 0
M  V30 20292 H 1914.11 -1.83853 2.41727 0
M  V30 20293 H 1911.69 -0.851252 1.22776 0
M  V30 20294 H 1913.57 -4.0137 1.28374 0
M  V30 20295 H 1912.25 -3.21272 0.395728 0
M  V30 20296 H 1911.15 -2.64751 2.64306 0
M  V30 20297 H 1912.49 -3.49718 3.46349 0
M  V30 20298 N 1914.14 -1.27049 -0.93254 0
M  V30 20299 C 1915.07 -1.03677 -2.03289 0
M  V30 20300 C 1916.05 0.0412728 -1.62548 0
M  V30 20301 O 1917.23 -0.102897 -1.88219 0
M  V30 20302 C 1914.36 -0.571733 -3.3384 0
M  V30 20303 C 1913.41 -1.64362 -3.93557 0
M  V30 20304 S 1914.24 -3.23486 -4.26752 0
M  V30 20305 C 1915.4 -2.78772 -5.6039 0
M  V30 20306 H 1915.63 -1.96842 -2.22802 0
M  V30 20307 H 1913.16 -1.10826 -1.07503 0
M  V30 20308 H 1915.12 -0.310101 -4.09327 0
M  V30 20309 H 1913.78 0.339773 -3.12257 0
M  V30 20310 H 1912.97 -1.26944 -4.87751 0
M  V30 20311 H 1912.58 -1.85708 -3.24636 0
M  V30 20312 H 1914.87 -2.23774 -6.39478 0
M  V30 20313 H 1915.81 -3.71692 -6.02703 0
M  V30 20314 H 1916.22 -2.18065 -5.2068 0
M  V30 20315 N 1915.62 1.13835 -1.08993 0
M  V30 20316 C 1916.87 1.84645 -0.82163 0
M  V30 20317 C 1917.19 1.83685 0.65458 0
M  V30 20318 O 1916.46 1.28948 1.47477 0
M  V30 20319 H 1915.04 0.683691 -0.300958 0
M  V30 20320 H 1917.7 1.37915 -1.37715 0
M  V30 20321 H 1916.79 2.89292 -1.17117 0
M  V30 20322 N 1917.1 0.876467 1.3098 0
M  V30 20323 C 1918.51 0.542323 1.7865 0
M  V30 20324 C 1918.86 -0.941103 1.72156 0
M  V30 20325 O 1917.98 -1.73506 1.29324 0
M  V30 20326 C 1918.58 0.977656 3.24388 0
M  V30 20327 C 1917.14 0.695064 3.69927 0
M  V30 20328 C 1916.28 1.16537 2.51624 0
M  V30 20329 H 1919.23 1.06154 1.1797 0
M  V30 20330 H 1919.26 0.30304 3.79291 0
M  V30 20331 H 1918.77 2.05735 3.29082 0
M  V30 20332 H 1916.87 -0.372992 3.70728 0
M  V30 20333 H 1916.98 1.27665 4.61778 0
M  V30 20334 H 1915.35 0.584941 2.47892 0
M  V30 20335 H 1916.13 2.25262 2.5906 0
M  V30 20336 N 1918.57 -1.44173 0.636557 0
M  V30 20337 C 1919.82 -2.01209 0.140639 0
M  V30 20338 C 1920.14 -1.50704 -1.2469 0
M  V30 20339 O 1921.34 -1.99904 -1.83713 0
M  V30 20340 C 1919.8 -3.5934 0.20066 0
M  V30 20341 C 1919.41 -4.18841 1.58985 0
M  V30 20342 C 1921.15 -4.23829 -0.238514 0
M  V30 20343 C 1919.06 -5.69213 1.60469 0
M  V30 20344 H 1917.99 -0.752418 0.0488124 0
M  V30 20345 H 1920.64 -1.65329 0.796151 0
M  V30 20346 H 1919.02 -3.92544 -0.522054 0
M  V30 20347 H 1920.19 -3.97165 2.33658 0
M  V30 20348 H 1918.51 -3.66659 1.97357 0
M  V30 20349 H 1921.11 -5.34129 -0.247033 0
M  V30 20350 H 1921.45 -3.96556 -1.26685 0
M  V30 20351 H 1921.98 -3.95449 0.431887 0
M  V30 20352 H 1918.72 -6.01229 2.61158 0
M  V30 20353 H 1918.24 -5.92995 0.900975 0
M  V30 20354 H 1919.92 -6.3295 1.34104 0
M  V30 20355 N 1920.05 -0.377435 -1.53014 0
M  V30 20356 C 1921 0.463415 -2.261 0
M  V30 20357 C 1921.97 1.06771 -1.27237 0
M  V30 20358 O 1923.15 1.09797 -1.56043 0
M  V30 20359 C 1920.29 1.59103 -3.06236 0
M  V30 20360 C 1919.41 1.01076 -4.20009 0
M  V30 20361 C 1918.54 2.10845 -4.87563 0
M  V30 20362 C 1917.58 1.50345 -5.93349 0
M  V30 20363 N 1916.72 2.53995 -6.54546 0
M  V30 20364 H 1921.56 -0.166315 -2.97536 0
M  V30 20365 H 1919.09 -0.0938442 -1.468 0
M  V30 20366 H 1921.05 2.25542 -3.5098 0
M  V30 20367 H 1919.68 2.19125 -2.37032 0
M  V30 20368 H 1918.73 0.236306 -3.79665 0
M  V30 20369 H 1920.05 0.528534 -4.95992 0
M  V30 20370 H 1919.2 2.85079 -5.35551 0
M  V30 20371 H 1917.94 2.62423 -4.11079 0
M  V30 20372 H 1916.94 0.746299 -5.44711 0
M  V30 20373 H 1918.17 0.995763 -6.7176 0
M  V30 20374 H 1916.12 3.04765 -5.80908 0
M  V30 20375 H 1916.03 2.10494 -7.26105 0
M  V30 20376 H 1917.3 3.27896 -7.07181 0
M  V30 20377 N 1921.53 1.57237 -0.106922 0
M  V30 20378 C 1922.76 1.99545 0.565392 0
M  V30 20379 C 1923.18 0.985887 1.60193 0
M  V30 20380 O 1922.54 -0.0440657 1.81246 0
M  V30 20381 C 1922.59 3.40779 1.17908 0
M  V30 20382 O 1921.69 3.42656 2.29479 0
M  V30 20383 H 1921.03 0.648556 0.142379 0
M  V30 20384 H 1923.56 2.03699 -0.191829 0
M  V30 20385 H 1923.57 3.78728 1.51754 0
M  V30 20386 H 1922.25 4.13776 0.419776 0
M  V30 20387 H 1920.82 3.16514 1.97164 0
M  V30 20388 N 1923.01 -0.166818 1.56715 0
M  V30 20389 C 1923.94 -1.2086 1.99787 0
M  V30 20390 C 1924.92 -1.45918 0.874178 0
M  V30 20391 O 1926.1 -1.57176 1.14058 0
M  V30 20392 C 1923.23 -2.54648 2.3616 0
M  V30 20393 C 1922.19 -2.44151 3.51532 0
M  V30 20394 C 1921.51 -3.82469 3.7366 0
M  V30 20395 C 1922.81 -1.9424 4.84838 0
M  V30 20396 H 1924.51 -0.850538 2.87065 0
M  V30 20397 H 1922.05 -0.407696 1.38108 0
M  V30 20398 H 1924.01 -3.27736 2.64891 0
M  V30 20399 H 1922.73 -2.92251 1.45797 0
M  V30 20400 H 1921.39 -1.73516 3.22936 0
M  V30 20401 H 1921.04 -4.17473 2.8058 0
M  V30 20402 H 1920.74 -3.76312 4.5129 0
M  V30 20403 H 1922.26 -4.57136 4.04796 0
M  V30 20404 H 1923.68 -2.57105 5.12416 0
M  V30 20405 H 1922.07 -1.99021 5.66137 0
M  V30 20406 H 1923.14 -0.89695 4.76532 0
M  V30 20407 N 1924.49 -1.51463 -0.435524 0
M  V30 20408 C 1925.9 -1.39679 -0.772145 0
M  V30 20409 C 1926.1 -0.480546 -1.95686 0
M  V30 20410 O 1925.16 0.063611 -2.5242 0
M  V30 20411 C 1926.47 -2.81742 -1.05082 0
M  V30 20412 C 1928.02 -2.90905 -1.15514 0
M  V30 20413 C 1928.49 -4.33879 -1.46674 0
M  V30 20414 N 1929.99 -4.36993 -1.53594 0
M  V30 20415 C 1930.72 -5.44653 -1.79279 0
M  V30 20416 N 1930.22 -6.6247 -2.02744 0
M  V30 20417 N 1932.01 -5.32135 -1.81076 0
M  V30 20418 H 1924.16 -2.09584 0.344699 0
M  V30 20419 H 1926.42 -0.943543 0.0918199 0
M  V30 20420 H 1926.13 -3.50789 -0.252975 0
M  V30 20421 H 1926 -3.21179 -1.97798 0
M  V30 20422 H 1928.39 -2.22054 -1.94361 0
M  V30 20423 H 1928.47 -2.54961 -0.20695 0
M  V30 20424 H 1928.12 -5.03279 -0.683541 0
M  V30 20425 H 1928.05 -4.67337 -2.42702 0
M  V30 20426 H 1930.54 -3.52054 -1.37356 0
M  V30 20427 H 1930.85 -7.40311 -2.21718 0
M  V30 20428 H 1929.19 -6.65582 -2.00063 0
M  V30 20429 H 1932.39 -4.39076 -1.62264 0
M  V30 20430 H 1932.56 -6.16118 -2.00756 0
M  V30 20431 N 1925.96 0.691085 -1.4164 0
M  V30 20432 C 1927.19 1.47978 -1.44603 0
M  V30 20433 C 1927.61 1.88727 -0.0525951 0
M  V30 20434 O 1926.96 1.57079 0.929107 0
M  V30 20435 C 1927.02 2.73945 -2.35874 0
M  V30 20436 O 1926.74 2.34912 -3.69795 0
M  V30 20437 C 1928.24 3.67649 -2.47688 0
M  V30 20438 H 1925.46 0.455873 -0.492363 0
M  V30 20439 H 1928 0.850521 -1.85974 0
M  V30 20440 H 1926.16 3.33098 -1.97799 0
M  V30 20441 H 1926.57 3.16139 -4.18517 0
M  V30 20442 H 1928.04 4.52806 -3.15707 0
M  V30 20443 H 1928.52 4.12443 -1.50956 0
M  V30 20444 H 1929.13 3.14397 -2.86417 0
M  V30 20445 N 1927.44 1.27542 0.925789 0
M  V30 20446 C 1928.37 1.12952 2.04363 0
M  V30 20447 C 1929.35 0.0304761 1.70073 0
M  V30 20448 O 1930.54 0.205307 1.93112 0
M  V30 20449 C 1927.67 0.777954 3.38475 0
M  V30 20450 C 1926.62 1.83044 3.86883 0
M  V30 20451 C 1925.95 1.3328 5.17823 0
M  V30 20452 C 1927.25 3.23488 4.10065 0
M  V30 20453 H 1928.94 2.06462 2.16827 0
M  V30 20454 H 1926.49 0.994046 1.04186 0
M  V30 20455 H 1928.44 0.662702 4.16156 0
M  V30 20456 H 1927.17 -0.192851 3.2603 0
M  V30 20457 H 1925.82 1.93463 3.11396 0
M  V30 20458 H 1925.47 0.351399 5.01771 0
M  V30 20459 H 1925.17 2.03648 5.51182 0
M  V30 20460 H 1926.7 1.23053 5.98072 0
M  V30 20461 H 1928.11 3.16058 4.7831 0
M  V30 20462 H 1926.51 3.91583 4.54734 0
M  V30 20463 H 1927.58 3.68399 3.15293 0
M  V30 20464 N 1928.92 -1.13255 1.09595 0
M  V30 20465 C 1930.34 -1.36563 0.825994 0
M  V30 20466 C 1930.54 -1.93595 -0.558844 0
M  V30 20467 O 1929.59 -2.15654 -1.31338 0
M  V30 20468 C 1930.91 -2.31535 1.91864 0
M  V30 20469 C 1932.45 -2.45147 1.94607 0
M  V30 20470 C 1932.93 -3.43427 3.03021 0
M  V30 20471 N 1934.42 -3.50979 3.02271 0
M  V30 20472 C 1935.15 -4.2691 3.82799 0
M  V30 20473 N 1934.65 -5.05981 4.73239 0
M  V30 20474 N 1936.44 -4.22229 3.71051 0
M  V30 20475 H 1928.59 -0.745889 1.98872 0
M  V30 20476 H 1930.86 -0.390727 0.863734 0
M  V30 20477 H 1930.56 -1.96788 2.91492 0
M  V30 20478 H 1930.44 -3.3157 1.79837 0
M  V30 20479 H 1932.82 -2.7918 0.956178 0
M  V30 20480 H 1932.91 -1.45031 2.10712 0
M  V30 20481 H 1932.55 -3.10126 4.02225 0
M  V30 20482 H 1932.48 -4.43352 2.84159 0
M  V30 20483 H 1934.97 -2.94562 2.36731 0
M  V30 20484 H 1935.28 -5.61231 5.31262 0
M  V30 20485 H 1933.63 -5.05208 4.77274 0
M  V30 20486 H 1936.82 -3.59534 2.99755 0
M  V30 20487 H 1936.99 -4.81152 4.34047 0
M  V30 20488 N 1930.4 -0.883401 -1.30514 0
M  V30 20489 C 1931.36 -0.353908 -2.26451 0
M  V30 20490 C 1932.36 0.502723 -1.52739 0
M  V30 20491 O 1933.55 0.310104 -1.71418 0
M  V30 20492 C 1930.68 0.495846 -3.37275 0
M  V30 20493 H 1931.88 -1.20101 -2.74801 0
M  V30 20494 H 1929.43 -0.660124 -1.41676 0
M  V30 20495 H 1930.16 1.3636 -2.94239 0
M  V30 20496 H 1929.95 -0.117731 -3.91923 0
M  V30 20497 H 1931.44 0.858149 -4.08688 0
M  V30 20498 N 1931.88 1.43833 -0.644194 0
M  V30 20499 C 1932.81 2.33467 0.0394911 0
M  V30 20500 C 1933.79 1.48957 0.821339 0
M  V30 20501 O 1934.97 1.77644 0.784618 0
M  V30 20502 C 1932.1 3.32205 1.01277 0
M  V30 20503 C 1931.06 4.26634 0.341666 0
M  V30 20504 C 1930.38 5.15341 1.42577 0
M  V30 20505 C 1931.68 5.16737 -0.760299 0
M  V30 20506 H 1933.38 2.90883 -0.709025 0
M  V30 20507 H 1930.92 1.3987 -0.342413 0
M  V30 20508 H 1932.88 3.93803 1.49991 0
M  V30 20509 H 1931.6 2.73025 1.79234 0
M  V30 20510 H 1930.26 3.66387 -0.124937 0
M  V30 20511 H 1929.91 4.52505 2.19654 0
M  V30 20512 H 1929.61 5.79336 0.98203 0
M  V30 20513 H 1931.13 5.79811 1.91444 0
M  V30 20514 H 1932.54 5.72195 -0.355713 0
M  V30 20515 H 1930.94 5.89404 -1.12796 0
M  V30 20516 H 1932.01 4.56966 -1.62204 0
M  V30 20517 N 1933.35 0.385544 1.52811 0
M  V30 20518 C 1934.77 0.0353371 1.59561 0
M  V30 20519 C 1934.97 -1.44948 1.39973 0
M  V30 20520 O 1934.03 -2.21354 1.21484 0
M  V30 20521 C 1935.34 0.509155 2.96358 0
M  V30 20522 C 1936.89 0.465088 3.09525 0
M  V30 20523 C 1937.36 0.915035 4.48766 0
M  V30 20524 N 1938.85 0.870895 4.54939 0
M  V30 20525 C 1939.59 1.1905 5.60905 0
M  V30 20526 N 1939.08 1.58039 6.74534 0
M  V30 20527 N 1940.88 1.112 5.50991 0
M  V30 20528 H 1933.03 1.35224 1.63793 0
M  V30 20529 H 1935.29 0.554013 0.769268 0
M  V30 20530 H 1935 1.54604 3.15896 0
M  V30 20531 H 1934.87 -0.0937516 3.77083 0
M  V30 20532 H 1937.26 -0.562704 2.89685 0
M  V30 20533 H 1937.34 1.10375 2.30762 0
M  V30 20534 H 1936.98 1.94104 4.69346 0
M  V30 20535 H 1936.91 0.253422 5.2599 0
M  V30 20536 H 1939.4 0.583936 3.73361 0
M  V30 20537 H 1939.72 1.808 7.51353 0
M  V30 20538 H 1938.06 1.61922 6.75874 0
M  V30 20539 H 1941.25 0.806438 4.61101 0
M  V30 20540 H 1941.43 1.3644 6.33473 0
M  V30 20541 N 1934.83 -1.57178 0.115259 0
M  V30 20542 C 1936.24 -1.82126 -0.410715 0
M  V30 20543 C 1936.59 -1.03219 -1.66854 0
M  V30 20544 O 1935.72 -0.267639 -2.14739 0
M  V30 20545 C 1936.31 -3.30351 -0.751923 0
M  V30 20546 C 1934.87 -3.55993 -1.22255 0
M  V30 20547 C 1934.02 -2.7635 -0.229344 0
M  V30 20548 H 1936.97 -1.55005 0.340441 0
M  V30 20549 H 1936.99 -3.44775 -1.60968 0
M  V30 20550 H 1936.5 -3.87754 0.163726 0
M  V30 20551 H 1934.61 -3.03942 -2.15522 0
M  V30 20552 H 1934.72 -4.64583 -1.17046 0
M  V30 20553 H 1933.08 -2.4444 -0.715621 0
M  V30 20554 H 1933.87 -3.36511 0.679337 0
M  V30 20555 N 1936.31 0.158505 -1.56801 0
M  V30 20556 C 1937.24 1.19799 -2.00426 0
M  V30 20557 C 1938.22 1.45453 -0.881905 0
M  V30 20558 O 1939.41 1.56569 -1.1489 0
M  V30 20559 C 1936.54 2.53392 -2.37508 0
M  V30 20560 C 1935.49 2.42283 -3.52822 0
M  V30 20561 C 1934.82 3.80482 -3.75683 0
M  V30 20562 C 1936.12 1.91666 -4.85862 0
M  V30 20563 H 1937.81 0.835303 -2.87512 0
M  V30 20564 H 1935.36 0.400366 -1.38322 0
M  V30 20565 H 1937.31 3.26326 -2.66625 0
M  V30 20566 H 1936.03 2.91474 -1.47345 0
M  V30 20567 H 1934.69 1.71801 -3.23852 0
M  V30 20568 H 1934.34 4.15979 -2.8279 0
M  V30 20569 H 1934.04 3.73913 -4.5328 0
M  V30 20570 H 1935.57 4.54982 -4.07214 0
M  V30 20571 H 1936.98 2.54384 -5.13772 0
M  V30 20572 H 1935.38 1.96016 -5.67184 0
M  V30 20573 H 1936.45 0.871666 -4.77001 0
M  V30 20574 N 1937.79 1.51692 0.427485 0
M  V30 20575 C 1939.21 1.40086 0.764726 0
M  V30 20576 C 1939.41 0.490917 1.95428 0
M  V30 20577 O 1938.46 -0.0502236 2.5245 0
M  V30 20578 C 1939.77 2.82295 1.03586 0
M  V30 20579 C 1941.32 2.91513 1.1397 0
M  V30 20580 C 1941.8 4.34651 1.44371 0
M  V30 20581 N 1943.29 4.37802 1.51274 0
M  V30 20582 C 1944.02 5.45596 1.76388 0
M  V30 20583 N 1943.52 6.63536 1.99228 0
M  V30 20584 N 1945.31 5.33088 1.78252 0
M  V30 20585 H 1937.46 2.09399 -0.355809 0
M  V30 20586 H 1939.73 0.943043 -0.0968225 0
M  V30 20587 H 1939.43 3.50918 0.234369 0
M  V30 20588 H 1939.31 3.22223 1.96092 0
M  V30 20589 H 1941.69 2.23082 1.9318 0
M  V30 20590 H 1941.77 2.55068 0.193426 0
M  V30 20591 H 1941.42 5.03635 0.656841 0
M  V30 20592 H 1941.35 4.68617 2.4022 0
M  V30 20593 H 1943.84 3.52777 1.35487 0
M  V30 20594 H 1944.15 7.41477 2.17789 0
M  V30 20595 H 1942.5 6.66634 1.9653 0
M  V30 20596 H 1945.69 4.39931 1.59933 0
M  V30 20597 H 1945.86 6.17174 1.97486 0
M  V30 20598 N 1939.27 -0.683564 1.42004 0
M  V30 20599 C 1940.23 -1.77907 1.44505 0
M  V30 20600 C 1941.23 -1.57295 0.333889 0
M  V30 20601 O 1942.42 -1.63748 0.594323 0
M  V30 20602 C 1939.55 -3.16434 1.26815 0
M  V30 20603 H 1940.75 -1.7708 2.42039 0
M  V30 20604 H 1938.3 -0.892355 1.28323 0
M  V30 20605 H 1939.03 -3.22894 0.301695 0
M  V30 20606 H 1938.82 -3.32798 2.07335 0
M  V30 20607 H 1940.31 -3.96379 1.31428 0
M  V30 20608 N 1940.75 -1.28031 -0.919012 0
M  V30 20609 C 1941.68 -1.14034 -2.03761 0
M  V30 20610 C 1942.66 -0.039495 -1.70054 0
M  V30 20611 O 1943.84 -0.215546 -1.93 0
M  V30 20612 C 1940.97 -0.795894 -3.38057 0
M  V30 20613 C 1939.93 -1.85093 -3.85907 0
M  V30 20614 C 1939.25 -1.36024 -5.17109 0
M  V30 20615 C 1940.55 -3.25658 -4.08343 0
M  V30 20616 H 1942.25 -2.07609 -2.15729 0
M  V30 20617 H 1939.79 -0.999558 -1.03657 0
M  V30 20618 H 1941.74 -0.684762 -4.15799 0
M  V30 20619 H 1940.47 0.175558 -3.26128 0
M  V30 20620 H 1939.13 -1.95112 -3.10366 0
M  V30 20621 H 1938.78 -0.378004 -5.01578 0
M  V30 20622 H 1938.48 -2.06568 -5.50094 0
M  V30 20623 H 1940 -1.26223 -5.97411 0
M  V30 20624 H 1941.41 -3.1859 -4.76627 0
M  V30 20625 H 1939.81 -3.93989 -4.52651 0
M  V30 20626 H 1940.88 -3.70066 -3.13335 0
M  V30 20627 N 1942.22 1.12672 -1.10194 0
M  V30 20628 C 1943.45 1.88496 -0.865112 0
M  V30 20629 C 1943.87 1.78977 0.578691 0
M  V30 20630 O 1943.23 1.14292 1.40737 0
M  V30 20631 C 1943.28 3.35768 -1.315 0
M  V30 20632 O 1942.38 4.09615 -0.478447 0
M  V30 20633 H 1941.72 0.585782 -0.312658 0
M  V30 20634 H 1944.25 1.42506 -1.46811 0
M  V30 20635 H 1944.26 3.86605 -1.30385 0
M  V30 20636 H 1942.94 3.42013 -2.36643 0
M  V30 20637 H 1941.52 3.68753 -0.554589 0
M  V30 20638 N 1943.7 0.89031 1.30043 0
M  V30 20639 C 1945.12 0.585066 1.4849 0
M  V30 20640 C 1945.32 -0.87585 1.81469 0
M  V30 20641 O 1944.37 -1.6567 1.90551 0
M  V30 20642 C 1945.69 1.50281 2.60454 0
M  V30 20643 C 1947.23 1.50701 2.74332 0
M  V30 20644 C 1947.71 2.41081 3.89415 0
M  V30 20645 N 1949.2 2.39074 3.96734 0
M  V30 20646 C 1949.94 3.05715 4.85104 0
M  V30 20647 N 1949.43 3.81601 5.78232 0
M  V30 20648 N 1951.22 2.9492 4.78517 0
M  V30 20649 H 1943.38 1.83532 1.0691 0
M  V30 20650 H 1945.64 0.785901 0.530155 0
M  V30 20651 H 1945.34 2.54327 2.42921 0
M  V30 20652 H 1945.22 1.21634 3.5705 0
M  V30 20653 H 1947.61 0.474032 2.91268 0
M  V30 20654 H 1947.69 1.83381 1.7834 0
M  V30 20655 H 1947.33 3.44466 3.73236 0
M  V30 20656 H 1947.26 2.05714 4.84757 0
M  V30 20657 H 1949.75 1.83932 3.30117 0
M  V30 20658 H 1950.06 4.29528 6.42437 0
M  V30 20659 H 1948.41 3.85708 5.78147 0
M  V30 20660 H 1951.6 2.35158 4.04745 0
M  V30 20661 H 1951.77 3.47132 5.47178 0
M  V30 20662 N 1945.18 -1.43489 0.651812 0
M  V30 20663 C 1946.43 -2.0183 0.164632 0
M  V30 20664 C 1946.75 -1.51408 -1.2209 0
M  V30 20665 O 1946.01 -0.697062 -1.82865 0
M  V30 20666 C 1946.31 -3.57189 0.122885 0
M  V30 20667 C 1945.97 -4.2695 1.44997 0
M  V30 20668 C 1944.64 -4.45724 1.81339 0
M  V30 20669 C 1946.99 -4.66468 2.32501 0
M  V30 20670 C 1944.32 -5.0128 3.04853 0
M  V30 20671 C 1946.67 -5.23393 3.55306 0
M  V30 20672 C 1945.33 -5.40383 3.91845 0
M  V30 20673 H 1944.6 -0.738547 0.0602433 0
M  V30 20674 H 1947.25 -1.71984 0.842241 0
M  V30 20675 H 1945.55 -3.86568 -0.638169 0
M  V30 20676 H 1947.25 -4.00084 -0.270911 0
M  V30 20677 H 1943.84 -4.12682 1.15721 0
M  V30 20678 H 1948.03 -4.51658 2.05715 0
M  V30 20679 H 1943.28 -5.1262 3.33213 0
M  V30 20680 H 1947.46 -5.52961 4.23329 0
M  V30 20681 H 1945.08 -5.83197 4.87632 0
M  V30 20682 N 1946.66 -0.393643 -1.52605 0
M  V30 20683 C 1947.57 0.446642 -2.30309 0
M  V30 20684 C 1948.58 1.06758 -1.374 0
M  V30 20685 O 1949.76 1.07246 -1.70471 0
M  V30 20686 C 1946.82 1.5564 -3.09802 0
M  V30 20687 C 1945.89 0.960113 -4.18426 0
M  V30 20688 C 1945.12 2.01698 -4.94119 0
M  V30 20689 O 1945.34 3.23273 -4.69947 0
M  V30 20690 O 1944.28 1.63186 -5.79357 0
M  V30 20691 H 1948.1 -0.186494 -3.03127 0
M  V30 20692 H 1945.69 -0.157245 -1.4857 0
M  V30 20693 H 1947.57 2.201 -3.59352 0
M  V30 20694 H 1946.24 2.17442 -2.39793 0
M  V30 20695 H 1945.15 0.278648 -3.73061 0
M  V30 20696 H 1946.48 0.386245 -4.90682 0
M  V30 20697 N 1948.14 1.57115 -0.123593 0
M  V30 20698 C 1949.38 1.94966 0.532239 0
M  V30 20699 C 1949.7 1.00808 1.66922 0
M  V30 20700 O 1948.97 0.0652202 1.95791 0
M  V30 20701 H 1947.55 0.719838 0.199607 0
M  V30 20702 H 1950.22 1.93936 -0.19361 0
M  V30 20703 H 1949.31 2.98115 0.923802 0
M  V30 20704 N 1949.61 -0.150187 1.56883 0
M  V30 20705 C 1950.55 -1.21495 1.93169 0
M  V30 20706 C 1951.52 -1.41721 0.797116 0
M  V30 20707 O 1952.71 -1.56385 1.05243 0
M  V30 20708 C 1949.84 -2.5744 2.20096 0
M  V30 20709 C 1948.88 -2.53828 3.42744 0
M  V30 20710 S 1949.71 -2.00835 4.96413 0
M  V30 20711 C 1950.87 -3.38515 5.26458 0
M  V30 20712 H 1951.1 -0.905357 2.83179 0
M  V30 20713 H 1948.64 -0.355666 1.50248 0
M  V30 20714 H 1950.59 -3.35675 2.3629 0
M  V30 20715 H 1949.26 -2.85591 1.30755 0
M  V30 20716 H 1948.45 -3.53894 3.58852 0
M  V30 20717 H 1948.05 -1.837 3.25776 0
M  V30 20718 H 1950.34 -4.34611 5.19731 0
M  V30 20719 H 1951.29 -3.27263 6.27937 0
M  V30 20720 H 1951.69 -3.35503 4.5398 0
M  V30 20721 N 1951.09 -1.51916 -0.419434 0
M  V30 20722 C 1952.51 -1.4049 -0.757287 0
M  V30 20723 C 1952.71 -0.501274 -1.95165 0
M  V30 20724 O 1951.76 0.0368349 -2.52473 0
M  V30 20725 C 1953.08 -2.8284 -1.02088 0
M  V30 20726 C 1954.63 -2.92113 -1.12422 0
M  V30 20727 C 1955.1 -4.3541 -1.42064 0
M  V30 20728 N 1956.59 -4.38598 -1.4895 0
M  V30 20729 C 1957.33 -5.46524 -1.73492 0
M  V30 20730 N 1956.82 -6.64583 -1.95706 0
M  V30 20731 N 1958.62 -5.34026 -1.75422 0
M  V30 20732 H 1950.77 -2.09207 0.366909 0
M  V30 20733 H 1953.03 -0.942516 0.101822 0
M  V30 20734 H 1952.74 -3.51038 -0.215755 0
M  V30 20735 H 1952.61 -3.23259 -1.9438 0
M  V30 20736 H 1955 -2.24103 -1.91994 0
M  V30 20737 H 1955.08 -2.55167 -0.179896 0
M  V30 20738 H 1954.72 -5.03976 -0.630123 0
M  V30 20739 H 1954.65 -4.69884 -2.37731 0
M  V30 20740 H 1957.14 -3.53491 -1.33614 0
M  V30 20741 H 1957.46 -7.42621 -2.13854 0
M  V30 20742 H 1955.8 -6.67667 -1.92992 0
M  V30 20743 H 1958.99 -4.40773 -1.57598 0
M  V30 20744 H 1959.16 -6.18212 -1.9421 0
M  V30 20745 N 1952.57 0.676023 -1.42365 0
M  V30 20746 C 1953.82 1.43821 -1.4298 0
M  V30 20747 C 1954.15 1.94147 -0.0455702 0
M  V30 20748 O 1953.42 1.70826 0.929976 0
M  V30 20749 C 1953.71 2.63612 -2.45318 0
M  V30 20750 C 1953.56 2.18926 -3.92927 0
M  V30 20751 C 1954.88 3.65827 -2.4466 0
M  V30 20752 H 1952 0.521622 -0.520653 0
M  V30 20753 H 1954.64 0.76837 -1.7377 0
M  V30 20754 H 1952.79 3.2076 -2.19193 0
M  V30 20755 H 1954.46 1.66955 -4.30028 0
M  V30 20756 H 1952.71 1.50512 -4.06852 0
M  V30 20757 H 1953.38 3.04965 -4.60109 0
M  V30 20758 H 1955.85 3.18393 -2.6789 0
M  V30 20759 H 1954.73 4.47226 -3.18245 0
M  V30 20760 H 1954.99 4.1687 -1.47213 0
M  V30 20761 N 1954.05 1.28517 0.912209 0
M  V30 20762 C 1955.29 1.15932 1.66396 0
M  V30 20763 C 1955.63 -0.291123 1.92006 0
M  V30 20764 O 1954.9 -1.21159 1.52154 0
M  V30 20765 C 1955.19 1.95993 3.0209 0
M  V30 20766 C 1955.04 3.49109 2.83625 0
M  V30 20767 C 1956.36 1.77655 4.0265 0
M  V30 20768 H 1953.48 0.42252 0.603859 0
M  V30 20769 H 1956.12 1.5785 1.05752 0
M  V30 20770 H 1954.27 1.60372 3.53855 0
M  V30 20771 H 1955.94 3.94644 2.38859 0
M  V30 20772 H 1954.18 3.74664 2.18653 0
M  V30 20773 H 1954.85 4.00386 3.79993 0
M  V30 20774 H 1957.33 2.08743 3.59952 0
M  V30 20775 H 1956.21 2.36043 4.95555 0
M  V30 20776 H 1956.47 0.728445 4.36057 0
M  V30 20777 N 1955.53 -1.12086 1.1079 0
M  V30 20778 C 1956.77 -1.83949 0.853848 0
M  V30 20779 C 1957.11 -1.8407 -0.619029 0
M  V30 20780 O 1956.38 -1.28889 -1.45664 0
M  V30 20781 C 1956.66 -3.31452 1.40754 0
M  V30 20782 C 1956.52 -3.39765 2.94754 0
M  V30 20783 C 1957.84 -4.2732 1.05288 0
M  V30 20784 H 1954.95 -0.667872 0.311635 0
M  V30 20785 H 1957.6 -1.31475 1.37166 0
M  V30 20786 H 1955.75 -3.7627 0.967112 0
M  V30 20787 H 1957.42 -3.03555 3.4735 0
M  V30 20788 H 1955.66 -2.80196 3.31168 0
M  V30 20789 H 1956.33 -4.43553 3.2858 0
M  V30 20790 H 1958.81 -3.90647 1.43297 0
M  V30 20791 H 1957.68 -5.28929 1.46716 0
M  V30 20792 H 1957.95 -4.42084 -0.0372227 0
M  V30 20793 N 1957 -0.897194 -1.29569 0
M  V30 20794 C 1957.95 -0.362849 -2.29752 0
M  V30 20795 C 1958.95 0.536674 -1.60674 0
M  V30 20796 O 1960.15 0.419753 -1.75037 0
M  V30 20797 H 1956.53 -0.0987052 -0.745494 0
M  V30 20798 H 1958.5 -1.22122 -2.72266 0
M  V30 20799 C 1957.25 0.396775 -3.45429 0
M  V30 20800 H 1956.57 -0.286159 -3.98775 0
M  V30 20801 H 1958.01 0.73556 -4.17571 0
M  V30 20802 C 1956.47 1.59849 -2.96563 0
M  V30 20803 O 1957 2.69781 -2.97626 0
M  V30 20804 N 1955.21 1.4398 -2.52424 0
M  V30 20805 H 1954.75 0.545463 -2.51759 0
M  V30 20806 H 1954.71 2.24519 -2.20088 0
M  V30 20807 N 1958.48 1.43142 -0.659413 0
M  V30 20808 C 1959.45 2.29192 0.0190393 0
M  V30 20809 C 1960.45 1.42532 0.744404 0
M  V30 20810 O 1961.64 1.64093 0.584722 0
M  V30 20811 C 1958.77 3.24723 1.03769 0
M  V30 20812 H 1959.96 2.90674 -0.738166 0
M  V30 20813 H 1957.51 1.50525 -0.420956 0
M  V30 20814 H 1958.25 2.68149 1.82392 0
M  V30 20815 H 1958.03 3.88621 0.52115 0
M  V30 20816 H 1959.52 3.89294 1.5113 0
M  V30 20817 N 1959.96 0.40173 1.52394 0
M  V30 20818 C 1960.89 -0.41861 2.29717 0
M  V30 20819 C 1961.87 -1.05263 1.33618 0
M  V30 20820 O 1963.06 -1.06304 1.62521 0
M  V30 20821 C 1960.19 -1.5395 3.11314 0
M  V30 20822 C 1959.14 -1.03088 4.154 0
M  V30 20823 C 1958.47 -2.2448 4.85297 0
M  V30 20824 C 1959.77 -0.0900956 5.22222 0
M  V30 20825 H 1961.46 0.226577 2.98541 0
M  V30 20826 H 1959.01 0.110411 1.43576 0
M  V30 20827 H 1960.96 -2.12031 3.64171 0
M  V30 20828 H 1959.68 -2.21246 2.40246 0
M  V30 20829 H 1958.34 -0.472515 3.63542 0
M  V30 20830 H 1957.99 -2.90313 4.10764 0
M  V30 20831 H 1957.69 -1.91103 5.55656 0
M  V30 20832 H 1959.21 -2.83181 5.40963 0
M  V30 20833 H 1960.63 -0.579479 5.70364 0
M  V30 20834 H 1959.03 0.154505 5.99901 0
M  V30 20835 H 1960.1 0.857375 4.7726 0
M  V30 20836 N 1961.44 -1.57047 0.131923 0
M  V30 20837 C 1962.68 -1.95921 -0.5237 0
M  V30 20838 C 1963.02 -1.01606 -1.65499 0
M  V30 20839 O 1962.29 -0.0556233 -1.9442 0
M  V30 20840 C 1962.58 -3.44629 -1.04418 0
M  V30 20841 C 1962.43 -4.4972 0.084583 0
M  V30 20842 C 1963.75 -3.9548 -1.93089 0
M  V30 20843 H 1960.87 -0.712382 -0.188894 0
M  V30 20844 H 1963.51 -1.88835 0.2101 0
M  V30 20845 H 1961.66 -3.50799 -1.6695 0
M  V30 20846 H 1963.33 -4.5564 0.720384 0
M  V30 20847 H 1961.57 -4.27339 0.745906 0
M  V30 20848 H 1962.24 -5.51066 -0.321051 0
M  V30 20849 H 1964.72 -3.91695 -1.40408 0
M  V30 20850 H 1963.6 -5.00025 -2.2642 0
M  V30 20851 H 1963.86 -3.36939 -2.86224 0
M  V30 20852 N 1962.92 0.141865 -1.5696 0
M  V30 20853 C 1964.16 0.851923 -1.83267 0
M  V30 20854 C 1964.49 1.81473 -0.713611 0
M  V30 20855 O 1963.76 1.94109 0.264326 0
M  V30 20856 H 1962.34 0.317594 -0.676124 0
M  V30 20857 H 1965 0.134643 -1.94434 0
M  V30 20858 H 1964.09 1.41106 -2.7838 0
M  V30 20859 N 1964.39 1.52136 0.411372 0
M  V30 20860 C 1965.36 1.74698 1.48369 0
M  V30 20861 C 1966.36 0.616863 1.48497 0
M  V30 20862 O 1967.55 0.884716 1.50061 0
M  V30 20863 C 1964.68 1.82729 2.8779 0
M  V30 20864 H 1965.87 2.70424 1.29658 0
M  V30 20865 H 1963.43 1.42519 0.641725 0
M  V30 20866 H 1964.16 0.889096 3.11874 0
M  V30 20867 H 1963.95 2.64884 2.891 0
M  V30 20868 H 1965.44 2.01934 3.6553 0
M  V30 20869 N 1965.87 -0.668464 1.42721 0
M  V30 20870 C 1967.12 -1.42428 1.42819 0
M  V30 20871 C 1967.44 -1.95535 0.0504025 0
M  V30 20872 O 1968.64 -2.71407 -0.0712036 0
M  V30 20873 C 1967.1 -2.57681 2.51254 0
M  V30 20874 C 1966.71 -2.11246 3.95069 0
M  V30 20875 C 1968.45 -3.35151 2.60527 0
M  V30 20876 C 1966.36 -3.23619 4.95 0
M  V30 20877 H 1965.29 -0.535089 0.531221 0
M  V30 20878 H 1967.94 -0.723067 1.68653 0
M  V30 20879 H 1966.32 -3.302 2.18595 0
M  V30 20880 H 1967.49 -1.45838 4.37113 0
M  V30 20881 H 1965.81 -1.46697 3.89704 0
M  V30 20882 H 1968.41 -4.18853 3.32364 0
M  V30 20883 H 1968.75 -3.82166 1.6509 0
M  V30 20884 H 1969.28 -2.69705 2.92411 0
M  V30 20885 H 1966.02 -2.81588 5.91936 0
M  V30 20886 H 1965.54 -3.87788 4.57581 0
M  V30 20887 H 1967.22 -3.88988 5.17008 0
M  V30 20888 N 1967.35 -1.28999 -0.905381 0
M  V30 20889 C 1968.76 -1.15033 -1.47052 0
M  V30 20890 C 1969.11 0.256623 -1.94514 0
M  V30 20891 O 1968.24 1.15164 -1.83211 0
M  V30 20892 C 1968.83 -2.08213 -2.67269 0
M  V30 20893 C 1967.39 -1.98286 -3.19937 0
M  V30 20894 C 1966.54 -1.99468 -1.92634 0
M  V30 20895 H 1969.49 -1.41566 -0.717271 0
M  V30 20896 H 1969.51 -1.65102 -3.42814 0
M  V30 20897 H 1969.02 -3.10604 -2.32695 0
M  V30 20898 H 1967.12 -0.98963 -3.59217 0
M  V30 20899 H 1967.24 -2.85666 -3.84619 0
M  V30 20900 H 1965.6 -1.43988 -2.10094 0
M  V30 20901 H 1966.38 -3.03554 -1.60344 0
M  V30 20902 N 1968.83 1.11497 -1.11383 0
M  V30 20903 C 1970.05 1.87567 -0.885056 0
M  V30 20904 C 1970.48 1.79581 0.559675 0
M  V30 20905 O 1969.84 1.15779 1.39517 0
M  V30 20906 C 1969.89 3.34354 -1.35053 0
M  V30 20907 O 1968.99 4.09085 -0.521865 0
M  V30 20908 H 1968.33 0.582433 -0.318853 0
M  V30 20909 H 1970.86 1.4094 -1.48314 0
M  V30 20910 H 1970.87 3.85201 -1.34478 0
M  V30 20911 H 1969.55 3.39484 -2.40257 0
M  V30 20912 H 1968.12 3.68144 -0.593669 0
M  V30 20913 N 1970.31 0.904053 1.29092 0
M  V30 20914 C 1971.56 0.528154 1.94662 0
M  V30 20915 C 1971.87 -0.930986 1.72023 0
M  V30 20916 O 1973.08 -1.4146 2.31735 0
M  V30 20917 C 1971.53 0.893684 3.48628 0
M  V30 20918 C 1971.14 2.37189 3.8006 0
M  V30 20919 C 1972.88 0.587904 4.20409 0
M  V30 20920 C 1970.79 2.67805 5.2729 0
M  V30 20921 H 1969.72 0.193795 0.72867 0
M  V30 20922 H 1972.37 1.10164 1.46752 0
M  V30 20923 H 1970.75 0.249078 3.95216 0
M  V30 20924 H 1971.93 3.06241 3.44315 0
M  V30 20925 H 1970.24 2.64714 3.21428 0
M  V30 20926 H 1972.84 0.793441 5.2878 0
M  V30 20927 H 1973.18 -0.473803 4.13595 0
M  V30 20928 H 1973.72 1.19054 3.79567 0
M  V30 20929 H 1970.45 3.72791 5.39172 0
M  V30 20930 H 1969.97 2.03381 5.64266 0
M  V30 20931 H 1971.65 2.543 5.94929 0
M  V30 20932 N 1971.79 -1.4279 0.666995 0
M  V30 20933 C 1972.72 -2.28104 -0.0661771 0
M  V30 20934 C 1973.7 -1.4062 -0.816384 0
M  V30 20935 O 1974.88 -1.70061 -0.81312 0
M  V30 20936 C 1972.01 -3.20314 -1.10075 0
M  V30 20937 C 1971.05 -4.24151 -0.447018 0
M  V30 20938 S 1971.89 -5.29646 0.78963 0
M  V30 20939 C 1973.04 -6.25424 -0.244062 0
M  V30 20940 H 1973.28 -2.89939 0.657487 0
M  V30 20941 H 1970.81 -1.47504 0.456278 0
M  V30 20942 H 1972.77 -3.73981 -1.69259 0
M  V30 20943 H 1971.43 -2.57631 -1.79681 0
M  V30 20944 H 1970.62 -4.88826 -1.22739 0
M  V30 20945 H 1970.22 -3.73933 0.0710419 0
M  V30 20946 H 1972.51 -6.68409 -1.10615 0
M  V30 20947 H 1973.46 -7.07143 0.36802 0
M  V30 20948 H 1973.87 -5.6145 -0.586043 0
M  V30 20949 N 1973.26 -0.409806 -1.52179 0
M  V30 20950 C 1974.21 0.430025 -2.2859 0
M  V30 20951 C 1975.21 1.04523 -1.33309 0
M  V30 20952 O 1976.41 0.98335 -1.50765 0
M  V30 20953 H 1972.79 0.157459 -0.73533 0
M  V30 20954 H 1974.76 -0.235647 -2.97468 0
M  V30 20955 C 1973.51 1.53409 -3.12027 0
M  V30 20956 H 1972.83 1.07004 -3.85214 0
M  V30 20957 H 1974.27 2.09553 -3.68597 0
M  V30 20958 C 1972.73 2.50183 -2.25633 0
M  V30 20959 O 1973.26 3.54083 -1.89705 0
M  V30 20960 N 1971.46 2.20409 -1.8939 0
M  V30 20961 H 1971.01 1.35948 -2.18806 0
M  V30 20962 H 1970.97 2.85404 -1.31878 0
M  V30 20963 N 1974.74 1.56975 -0.14025 0
M  V30 20964 C 1975.99 1.96196 0.513302 0
M  V30 20965 C 1976.32 1.02482 1.64958 0
M  V30 20966 O 1975.6 0.0659332 1.94388 0
M  V30 20967 C 1975.88 3.45178 1.02589 0
M  V30 20968 C 1975.73 4.49669 -0.108432 0
M  V30 20969 C 1977.05 3.96499 1.90989 0
M  V30 20970 H 1974.17 0.713374 0.185114 0
M  V30 20971 H 1976.81 1.88721 -0.220112 0
M  V30 20972 H 1974.96 3.51679 1.65088 0
M  V30 20973 H 1976.63 4.55252 -0.744538 0
M  V30 20974 H 1974.88 4.26937 -0.768558 0
M  V30 20975 H 1975.55 5.51228 0.291822 0
M  V30 20976 H 1978.02 3.92434 1.38329 0
M  V30 20977 H 1976.9 5.01219 2.23765 0
M  V30 20978 H 1977.16 3.38452 2.84433 0
M  V30 20979 N 1976.22 -0.133539 1.57033 0
M  V30 20980 C 1977.15 -1.16595 2.02306 0
M  V30 20981 C 1978.13 -1.44031 0.904933 0
M  V30 20982 O 1979.32 -1.54721 1.17367 0
M  V30 20983 C 1976.45 -2.49581 2.41509 0
M  V30 20984 C 1975.4 -2.36639 3.56631 0
M  V30 20985 C 1974.73 -3.74457 3.81688 0
M  V30 20986 C 1976.03 -1.83912 4.88849 0
M  V30 20987 H 1977.72 -0.789456 2.88804 0
M  V30 20988 H 1975.27 -0.378309 1.38942 0
M  V30 20989 H 1977.22 -3.22043 2.71783 0
M  V30 20990 H 1975.94 -2.89093 1.51964 0
M  V30 20991 H 1974.6 -1.66628 3.26544 0
M  V30 20992 H 1974.25 -4.11428 2.89372 0
M  V30 20993 H 1973.95 -3.66655 4.59171 0
M  V30 20994 H 1975.47 -4.48446 4.14401 0
M  V30 20995 H 1976.89 -2.46178 5.17754 0
M  V30 20996 H 1975.28 -1.86967 5.70231 0
M  V30 20997 H 1976.35 -0.795669 4.78327 0
M  V30 20998 N 1977.7 -1.52352 -0.403298 0
M  V30 20999 C 1978.63 -1.79074 -1.49849 0
M  V30 21000 C 1979.61 -0.642006 -1.57519 0
M  V30 21001 O 1980.79 -0.888182 -1.72699 0
M  V30 21002 C 1977.92 -1.9467 -2.87612 0
M  V30 21003 C 1976.88 -3.10295 -2.9479 0
M  V30 21004 C 1976.2 -3.11122 -4.34864 0
M  V30 21005 C 1977.5 -4.49643 -2.65741 0
M  V30 21006 H 1979.2 -2.70783 -1.27737 0
M  V30 21007 H 1976.74 -1.30298 -0.613064 0
M  V30 21008 H 1978.7 -2.11947 -3.64221 0
M  V30 21009 H 1977.42 -0.996377 -3.1103 0
M  V30 21010 H 1976.08 -2.92778 -2.20627 0
M  V30 21011 H 1975.73 -2.13801 -4.553 0
M  V30 21012 H 1975.43 -3.88786 -4.4059 0
M  V30 21013 H 1976.95 -3.30536 -5.13399 0
M  V30 21014 H 1978.37 -4.67335 -3.3207 0
M  V30 21015 H 1976.76 -5.29268 -2.82835 0
M  V30 21016 H 1977.83 -4.57339 -1.61149 0
M  V30 21017 N 1979.18 0.660885 -1.43074 0
M  V30 21018 C 1980.42 1.42296 -1.44498 0
M  V30 21019 C 1980.75 1.94087 -0.0661594 0
M  V30 21020 O 1980.03 1.71803 0.911806 0
M  V30 21021 C 1980.31 2.60995 -2.481 0
M  V30 21022 C 1980.17 2.14746 -3.95227 0
M  V30 21023 C 1981.48 3.63212 -2.48526 0
M  V30 21024 H 1978.6 0.516071 -0.526156 0
M  V30 21025 H 1981.25 0.749896 -1.74575 0
M  V30 21026 H 1979.4 3.18417 -2.22583 0
M  V30 21027 H 1981.07 1.62384 -4.31774 0
M  V30 21028 H 1979.31 1.46188 -4.08426 0
M  V30 21029 H 1979.98 3.00068 -4.63318 0
M  V30 21030 H 1982.46 3.15534 -2.71251 0
M  V30 21031 H 1981.33 4.43825 -3.22971 0
M  V30 21032 H 1981.59 4.15285 -1.51626 0
M  V30 21033 N 1980.65 1.29477 0.898527 0
M  V30 21034 C 1981.89 1.18785 1.66341 0
M  V30 21035 C 1982.26 -0.256262 1.90282 0
M  V30 21036 O 1983.46 -0.486174 2.64367 0
M  V30 21037 C 1981.73 1.9799 2.97548 0
M  V30 21038 S 1983.29 2.03846 3.88577 0
M  V30 21039 H 1980.11 0.423539 0.571083 0
M  V30 21040 H 1982.71 1.63778 1.06757 0
M  V30 21041 H 1981.41 3.02051 2.77837 0
M  V30 21042 H 1980.94 1.53607 3.62172 0
M  V30 21043 H 1982.96 1.156 4.82547 0
M  V30 21044 N 1982.13 -1.10905 1.11972 0
M  V30 21045 C 1983.06 -2.19168 0.805461 0
M  V30 21046 C 1984.04 -1.68557 -0.228623 0
M  V30 21047 O 1985.23 -1.93987 -0.0908778 0
M  V30 21048 C 1982.36 -3.4637 0.253951 0
M  V30 21049 C 1981.31 -4.10228 1.22054 0
M  V30 21050 C 1980.64 -5.32072 0.529483 0
M  V30 21051 C 1981.94 -4.54506 2.57336 0
M  V30 21052 H 1983.63 -2.45713 1.71071 0
M  V30 21053 H 1981.18 -1.18096 0.823969 0
M  V30 21054 H 1983.13 -4.21394 0.0218576 0
M  V30 21055 H 1981.86 -3.19301 -0.68662 0
M  V30 21056 H 1980.51 -3.37204 1.43836 0
M  V30 21057 H 1980.16 -5.01276 -0.416074 0
M  V30 21058 H 1979.86 -5.75748 1.17422 0
M  V30 21059 H 1981.39 -6.09831 0.306313 0
M  V30 21060 H 1982.8 -5.20826 2.3961 0
M  V30 21061 H 1981.2 -5.09015 3.17842 0
M  V30 21062 H 1982.27 -3.67671 3.16143 0
M  V30 21063 N 1983.61 -0.910886 -1.2861 0
M  V30 21064 C 1984.86 -0.53847 -1.94379 0
M  V30 21065 C 1985.17 0.92185 -1.72515 0
M  V30 21066 O 1986.38 1.40229 -2.32482 0
M  V30 21067 C 1984.83 -0.91216 -3.48149 0
M  V30 21068 C 1984.44 -2.39201 -3.78796 0
M  V30 21069 C 1986.19 -0.610192 -4.20092 0
M  V30 21070 C 1984.09 -2.70598 -5.25862 0
M  V30 21071 H 1983.02 -0.197657 -0.727632 0
M  V30 21072 H 1985.67 -1.10941 -1.46165 0
M  V30 21073 H 1984.06 -0.270034 -3.95078 0
M  V30 21074 H 1985.23 -3.08063 -3.42686 0
M  V30 21075 H 1983.55 -2.66414 -3.20019 0
M  V30 21076 H 1986.14 -0.821472 -5.28352 0
M  V30 21077 H 1986.49 0.451862 -4.1384 0
M  V30 21078 H 1987.02 -1.21066 -3.7893 0
M  V30 21079 H 1983.76 -3.75645 -5.37188 0
M  V30 21080 H 1983.28 -2.0637 -5.6318 0
M  V30 21081 H 1984.96 -2.57451 -5.93572 0
M  V30 21082 N 1985.09 1.42434 -0.674558 0
M  V30 21083 C 1986.34 2.01542 -0.196721 0
M  V30 21084 C 1986.66 1.53331 1.19666 0
M  V30 21085 O 1985.92 0.726066 1.81733 0
M  V30 21086 C 1986.22 3.56948 -0.179695 0
M  V30 21087 C 1985.88 4.2459 -1.51771 0
M  V30 21088 C 1984.55 4.42782 -1.88407 0
M  V30 21089 C 1986.9 4.6271 -2.39893 0
M  V30 21090 C 1984.23 4.96367 -3.12789 0
M  V30 21091 C 1986.58 5.17675 -3.63587 0
M  V30 21092 C 1985.24 5.34081 -4.00392 0
M  V30 21093 H 1984.51 0.737495 -0.0719853 0
M  V30 21094 H 1987.16 1.70622 -0.869495 0
M  V30 21095 H 1985.46 3.87534 0.576588 0
M  V30 21096 H 1987.16 4.00464 0.207226 0
M  V30 21097 H 1983.75 4.10789 -1.22271 0
M  V30 21098 H 1987.93 4.48328 -2.12874 0
M  V30 21099 H 1983.19 5.07254 -3.41326 0
M  V30 21100 H 1987.36 5.46156 -4.32072 0
M  V30 21101 H 1984.99 5.75366 -4.96848 0
M  V30 21102 N 1986.57 0.417871 1.51959 0
M  V30 21103 C 1987.81 -0.147628 2.02864 0
M  V30 21104 C 1988.17 -1.42062 1.29755 0
M  V30 21105 O 1987.46 -1.87425 0.39782 0
M  V30 21106 C 1987.65 -0.440779 3.54672 0
M  V30 21107 C 1987.48 0.802246 4.42486 0
M  V30 21108 C 1986.25 1.33004 4.87481 0
M  V30 21109 C 1988.45 1.68287 4.85988 0
M  V30 21110 N 1986.43 2.52763 5.5945 0
M  V30 21111 C 1987.8 2.72665 5.56825 0
M  V30 21112 C 1989.86 1.6996 4.67994 0
M  V30 21113 C 1988.56 3.78636 6.11577 0
M  V30 21114 C 1990.59 2.74855 5.23649 0
M  V30 21115 C 1989.95 3.77953 5.94416 0
M  V30 21116 H 1986.05 -0.0153607 0.781849 0
M  V30 21117 H 1988.63 0.57418 1.86041 0
M  V30 21118 H 1986.8 -1.13163 3.71549 0
M  V30 21119 H 1988.54 -0.995926 3.92254 0
M  V30 21120 H 1985.29 0.886788 4.65224 0
M  V30 21121 H 1985.72 3.13438 6.00071 0
M  V30 21122 H 1990.36 0.91589 4.12761 0
M  V30 21123 H 1988.08 4.57858 6.65877 0
M  V30 21124 H 1991.66 2.77067 5.11591 0
M  V30 21125 H 1990.54 4.57787 6.36711 0
M  V30 21126 N 1988.04 -1.56898 0.148573 0
M  V30 21127 C 1988.97 -2.19852 -0.786585 0
M  V30 21128 C 1989.96 -1.14723 -1.2559 0
M  V30 21129 O 1991.14 -1.43071 -1.31317 0
M  V30 21130 C 1988.27 -2.82137 -2.02524 0
M  V30 21131 C 1987.22 -3.93108 -1.69264 0
M  V30 21132 C 1986.55 -4.42335 -3.00407 0
M  V30 21133 C 1987.85 -5.13807 -0.938092 0
M  V30 21134 H 1989.54 -2.98252 -0.261903 0
M  V30 21135 H 1987.09 -1.43461 -0.124531 0
M  V30 21136 H 1989.04 -3.24845 -2.68428 0
M  V30 21137 H 1987.77 -2.01071 -2.57368 0
M  V30 21138 H 1986.43 -3.5102 -1.05739 0
M  V30 21139 H 1986.07 -3.58089 -3.53244 0
M  V30 21140 H 1985.77 -5.17185 -2.78915 0
M  V30 21141 H 1987.3 -4.87714 -3.67378 0
M  V30 21142 H 1988.71 -5.53349 -1.49924 0
M  V30 21143 H 1987.11 -5.94429 -0.823062 0
M  V30 21144 H 1988.18 -4.8485 0.0698825 0
M  V30 21145 N 1989.52 0.125209 -1.57102 0
M  V30 21146 C 1990.77 0.832627 -1.83712 0
M  V30 21147 C 1991.08 1.81336 -0.733261 0
M  V30 21148 O 1992.29 2.56651 -0.885592 0
M  V30 21149 C 1990.75 1.53143 -3.25692 0
M  V30 21150 C 1990.35 0.592004 -4.44071 0
M  V30 21151 C 1992.1 2.22435 -3.61556 0
M  V30 21152 C 1990.01 1.29368 -5.77077 0
M  V30 21153 H 1988.94 0.314685 -0.685193 0
M  V30 21154 H 1991.59 0.0853544 -1.83301 0
M  V30 21155 H 1989.97 2.32511 -3.20554 0
M  V30 21156 H 1991.14 -0.16801 -4.60494 0
M  V30 21157 H 1989.46 0.00637692 -4.164 0
M  V30 21158 H 1992.05 2.75611 -4.58195 0
M  V30 21159 H 1992.4 2.99947 -2.88683 0
M  V30 21160 H 1992.93 1.49962 -3.68451 0
M  V30 21161 H 1989.67 0.559975 -6.53104 0
M  V30 21162 H 1989.19 2.02586 -5.64552 0
M  V30 21163 H 1990.87 1.8286 -6.20622 0
M  V30 21164 N 1991 1.52564 0.395213 0
M  V30 21165 C 1992.25 1.67305 1.14085 0
M  V30 21166 C 1992.58 0.409869 1.90132 0
M  V30 21167 O 1991.83 -0.607574 1.8603 0
M  V30 21168 C 1992.13 2.85496 2.15004 0
M  V30 21169 C 1991.8 4.23179 1.55661 0
M  V30 21170 C 1990.46 4.60626 1.39202 0
M  V30 21171 C 1992.81 5.08923 1.12457 0
M  V30 21172 C 1990.14 5.81482 0.780775 0
M  V30 21173 C 1992.49 6.30397 0.527451 0
M  V30 21174 C 1991.15 6.66581 0.350111 0
M  V30 21175 H 1990.42 0.612211 0.417467 0
M  V30 21176 H 1993.07 1.86695 0.426269 0
M  V30 21177 H 1991.38 2.60496 2.92658 0
M  V30 21178 H 1993.07 2.94096 2.72595 0
M  V30 21179 H 1989.66 3.93678 1.69457 0
M  V30 21180 H 1993.85 4.80566 1.23976 0
M  V30 21181 H 1989.1 6.0813 0.631518 0
M  V30 21182 H 1993.28 6.96156 0.184351 0
M  V30 21183 H 1990.9 7.60096 -0.125616 0
M  V30 21184 N 1992.48 -0.653289 1.43422 0
M  V30 21185 C 1993.7 -1.4459 1.4869 0
M  V30 21186 C 1994.13 -1.87801 0.10599 0
M  V30 21187 O 1993.49 -1.5737 -0.90025 0
M  V30 21188 C 1993.53 -2.65713 2.43781 0
M  V30 21189 O 1992.64 -3.64767 1.92402 0
M  V30 21190 H 1991.98 -0.433532 0.502938 0
M  V30 21191 H 1994.51 -0.799423 1.88336 0
M  V30 21192 H 1994.52 -3.13528 2.61082 0
M  V30 21193 H 1993.19 -2.33604 3.44096 0
M  V30 21194 H 1991.77 -3.2391 1.84761 0
M  V30 21195 N 1993.96 -1.29952 -0.891648 0
M  V30 21196 C 1995.21 -1.17758 -1.63756 0
M  V30 21197 C 1995.52 0.268231 -1.93752 0
M  V30 21198 O 1996.72 0.511595 -2.66636 0
M  V30 21199 C 1995.18 -2.06008 -2.95108 0
M  V30 21200 C 1994.79 -3.55459 -2.72677 0
M  V30 21201 C 1996.53 -2.0256 -3.73055 0
M  V30 21202 C 1994.44 -4.35787 -3.99805 0
M  V30 21203 H 1993.37 -0.437139 -0.61435 0
M  V30 21204 H 1996.02 -1.54651 -0.987694 0
M  V30 21205 H 1994.4 -1.61991 -3.61351 0
M  V30 21206 H 1995.58 -4.0758 -2.14977 0
M  V30 21207 H 1993.89 -3.60662 -2.08115 0
M  V30 21208 H 1996.49 -2.5983 -4.67325 0
M  V30 21209 H 1996.83 -1.00748 -4.03925 0
M  V30 21210 H 1997.36 -2.44662 -3.13664 0
M  V30 21211 H 1994.1 -5.38268 -3.74096 0
M  V30 21212 H 1993.62 -3.88432 -4.57035 0
M  V30 21213 H 1995.3 -4.46872 -4.67883 0
M  V30 21214 N 1995.44 1.1031 -1.12559 0
M  V30 21215 C 1996.37 2.15925 -0.738365 0
M  V30 21216 C 1997.35 1.60324 0.271099 0
M  V30 21217 O 1998.53 1.87779 0.164746 0
M  V30 21218 C 1995.66 3.38572 -0.0930976 0
M  V30 21219 C 1994.7 4.1287 -1.06959 0
M  V30 21220 S 1995.54 4.68269 -2.59777 0
M  V30 21221 C 1996.69 5.94227 -1.96584 0
M  V30 21222 H 1996.93 2.48437 -1.63298 0
M  V30 21223 H 1994.46 1.22118 -0.94481 0
M  V30 21224 H 1996.42 4.09592 0.272822 0
M  V30 21225 H 1995.08 3.04296 0.778647 0
M  V30 21226 H 1994.27 5.00815 -0.565756 0
M  V30 21227 H 1993.87 3.47668 -1.37852 0
M  V30 21228 H 1996.16 6.64727 -1.30938 0
M  V30 21229 H 1997.11 6.49275 -2.82574 0
M  V30 21230 H 1997.52 5.46318 -1.42114 0
M  V30 21231 N 1996.91 0.917694 1.28125 0
M  V30 21232 C 1998.16 0.551804 1.94421 0
M  V30 21233 C 1998.48 -0.908163 1.72561 0
M  V30 21234 O 1997.75 -1.64255 1.06758 0
M  V30 21235 H 1996.33 0.201081 0.719427 0
M  V30 21236 H 1998.99 1.16791 1.56032 0
M  V30 21237 H 1998.09 0.749587 3.02965 0
M  V30 21238 N 1998.39 -1.42074 0.682102 0
M  V30 21239 C 1999.64 -2.01733 0.207714 0
M  V30 21240 C 1999.97 -1.53844 -1.18514 0
M  V30 21241 O 1999.25 -0.74378 -1.79717 0
M  V30 21242 C 1999.53 -3.59228 0.250438 0
M  V30 21243 C 1999.38 -4.17278 1.67927 0
M  V30 21244 C 2000.7 -4.38303 -0.397296 0
M  V30 21245 H 1997.82 -0.732972 0.0769518 0
M  V30 21246 H 2000.46 -1.69 0.868272 0
M  V30 21247 H 1998.61 -3.87245 -0.312007 0
M  V30 21248 H 2000.28 -4.00187 2.29452 0
M  V30 21249 H 1998.53 -3.7283 2.21767 0
M  V30 21250 H 1999.2 -5.26423 1.66079 0
M  V30 21251 H 2001.67 -4.1602 0.0815622 0
M  V30 21252 H 2000.55 -5.47866 -0.336797 0
M  V30 21253 H 2000.81 -4.16733 -1.476 0
M  V30 21254 N 1999.87 -0.425924 -1.51735 0
M  V30 21255 C 2000.82 0.405756 -2.29034 0
M  V30 21256 C 2001.81 1.03103 -1.3441 0
M  V30 21257 O 2003.02 0.967304 -1.518 0
M  V30 21258 H 1999.39 0.149651 -0.736959 0
M  V30 21259 H 2001.36 -0.267185 -2.97201 0
M  V30 21260 C 2000.11 1.50091 -3.13637 0
M  V30 21261 H 1999.44 1.02912 -3.86328 0
M  V30 21262 H 2000.88 2.05632 -3.70799 0
M  V30 21263 C 1999.33 2.47775 -2.28274 0
M  V30 21264 O 1999.86 3.52051 -1.9345 0
M  V30 21265 N 1998.07 2.18387 -1.91717 0
M  V30 21266 H 1997.62 1.3362 -2.20235 0
M  V30 21267 H 1997.58 2.83989 -1.34897 0
M  V30 21268 N 2001.35 1.56817 -0.156891 0
M  V30 21269 C 2002.28 2.20266 0.774915 0
M  V30 21270 C 2003.26 1.15387 1.24979 0
M  V30 21271 O 2004.44 1.43766 1.30557 0
M  V30 21272 C 2001.57 2.83207 2.01025 0
M  V30 21273 C 2000.53 3.94 1.67177 0
M  V30 21274 C 1999.85 4.43921 2.98057 0
M  V30 21275 C 2001.15 5.14297 0.91083 0
M  V30 21276 H 2002.85 2.98387 0.246082 0
M  V30 21277 H 2000.39 1.43525 0.116921 0
M  V30 21278 H 2002.35 3.26264 2.66701 0
M  V30 21279 H 2001.07 2.02433 2.56298 0
M  V30 21280 H 1999.73 3.51576 1.03876 0
M  V30 21281 H 1999.38 3.59957 3.5134 0
M  V30 21282 H 1999.08 5.18657 2.76169 0
M  V30 21283 H 2000.6 4.89656 3.64787 0
M  V30 21284 H 2002.02 5.54137 1.46988 0
M  V30 21285 H 2000.41 5.94857 0.791526 0
M  V30 21286 H 2001.48 4.84806 -0.0955943 0
M  V30 21287 N 2002.83 -0.116876 1.57166 0
M  V30 21288 C 2004.07 -0.824288 1.84964 0
M  V30 21289 C 2004.4 -1.79779 0.742287 0
M  V30 21290 O 2003.66 -1.93881 -0.26617 0
M  V30 21291 C 2003.95 -1.60659 3.19255 0
M  V30 21292 C 2003.62 -0.777185 4.44152 0
M  V30 21293 C 2002.28 -0.548471 4.78064 0
M  V30 21294 C 2004.63 -0.199197 5.20819 0
M  V30 21295 C 2001.96 0.26845 5.86086 0
M  V30 21296 C 2004.31 0.604927 6.29701 0
M  V30 21297 C 2002.98 0.843937 6.62143 0
M  V30 21298 H 2002.25 -0.301628 0.676832 0
M  V30 21299 H 2004.9 -0.0865824 1.91304 0
M  V30 21300 H 2003.2 -2.41526 3.08501 0
M  V30 21301 H 2004.9 -2.15794 3.37985 0
M  V30 21302 H 2001.49 -0.965541 4.17583 0
M  V30 21303 H 2005.67 -0.363107 4.9497 0
M  V30 21304 H 2000.93 0.462826 6.09646 0
M  V30 21305 H 2005.1 1.05977 6.88289 0
M  V30 21306 H 2002.73 1.47877 7.45679 0
M  V30 21307 N 2004.3 -1.52772 -0.387116 0
M  V30 21308 C 2005.27 -1.77036 -1.45571 0
M  V30 21309 C 2006.27 -0.64041 -1.47497 0
M  V30 21310 O 2007.46 -0.908478 -1.48635 0
M  V30 21311 C 2004.59 -1.87284 -2.84846 0
M  V30 21312 H 2005.78 -2.72452 -1.25339 0
M  V30 21313 H 2003.33 -1.43522 -0.61897 0
M  V30 21314 H 2004.07 -0.9386 -3.1042 0
M  V30 21315 H 2003.85 -2.6945 -2.84849 0
M  V30 21316 H 2005.34 -2.07723 -3.62272 0
M  V30 21317 N 2005.78 0.645673 -1.43767 0
M  V30 21318 C 2007.03 1.4027 -1.45495 0
M  V30 21319 C 2007.35 1.94822 -0.0832023 0
M  V30 21320 O 2006.62 1.74895 0.882519 0
M  V30 21321 H 2005.2 0.520611 -0.535699 0
M  V30 21322 H 2007.86 0.760978 -1.7943 0
M  V30 21323 H 2006.96 2.24129 -2.17192 0
M  V30 21324 N 2007.26 1.30423 0.884744 0
M  V30 21325 C 2008.21 1.16824 1.9905 0
M  V30 21326 C 2009.18 0.0576868 1.66 0
M  V30 21327 O 2010.36 0.227913 1.89434 0
M  V30 21328 C 2007.5 0.866281 3.3405 0
M  V30 21329 C 2006.61 2.05874 3.79789 0
M  V30 21330 C 2005.75 1.69484 5.03437 0
M  V30 21331 C 2004.79 2.85224 5.41585 0
M  V30 21332 N 2003.93 2.49129 6.56414 0
M  V30 21333 H 2008.77 2.1142 2.10013 0
M  V30 21334 H 2006.3 1.05188 1.02829 0
M  V30 21335 H 2008.26 0.671829 4.11755 0
M  V30 21336 H 2006.89 -0.0428113 3.22772 0
M  V30 21337 H 2005.94 2.36443 2.97992 0
M  V30 21338 H 2007.25 2.92549 4.04001 0
M  V30 21339 H 2006.41 1.46416 5.88768 0
M  V30 21340 H 2005.15 0.799794 4.81097 0
M  V30 21341 H 2004.15 3.08958 4.5478 0
M  V30 21342 H 2005.38 3.75416 5.65897 0
M  V30 21343 H 2003.32 1.6213 6.35649 0
M  V30 21344 H 2003.24 3.29336 6.80495 0
M  V30 21345 H 2004.51 2.29417 7.44975 0
M  V30 21346 N 2008.74 -1.09711 1.13142 0
M  V30 21347 C 2009.98 -1.81827 0.891354 0
M  V30 21348 C 2010.31 -1.8557 -0.582598 0
M  V30 21349 O 2009.57 -1.31754 -1.44704 0
M  V30 21350 C 2009.87 -3.27951 1.42067 0
M  V30 21351 C 2009.53 -3.44346 2.91096 0
M  V30 21352 C 2008.19 -3.48528 3.31786 0
M  V30 21353 C 2010.55 -3.49124 3.86991 0
M  V30 21354 C 2007.87 -3.55064 4.67061 0
M  V30 21355 C 2010.23 -3.57194 5.22106 0
M  V30 21356 C 2008.89 -3.59644 5.62328 0
M  V30 21357 H 2008.16 -0.665353 0.32617 0
M  V30 21358 H 2010.81 -1.29268 1.41287 0
M  V30 21359 H 2009.11 -3.83128 0.819786 0
M  V30 21360 H 2010.81 -3.82276 1.21103 0
M  V30 21361 H 2007.4 -3.41773 2.58629 0
M  V30 21362 H 2011.58 -3.45136 3.56643 0
M  V30 21363 H 2006.84 -3.55246 4.97604 0
M  V30 21364 H 2011.01 -3.59836 5.9623 0
M  V30 21365 H 2008.64 -3.64461 6.67137 0
M  V30 21366 N 2010.22 -0.924476 -1.27637 0
M  V30 21367 C 2011.46 -0.562107 -1.94126 0
M  V30 21368 C 2011.79 0.898999 -1.7304 0
M  V30 21369 O 2011.06 1.63686 -1.07627 0
M  V30 21370 H 2009.64 -0.204894 -0.718351 0
M  V30 21371 H 2012.3 -1.17617 -1.5541 0
M  V30 21372 H 2011.39 -0.765644 -3.02563 0
M  V30 21373 N 2011.69 1.41711 -0.689627 0
M  V30 21374 C 2013.11 1.55473 -0.360597 0
M  V30 21375 C 2013.31 1.66635 1.13292 0
M  V30 21376 O 2012.37 1.64148 1.91864 0
M  V30 21377 C 2013.68 2.79704 -1.10392 0
M  V30 21378 C 2015.23 2.93494 -1.08768 0
M  V30 21379 C 2015.7 4.20604 -1.81263 0
M  V30 21380 N 2017.19 4.27549 -1.78203 0
M  V30 21381 C 2017.93 5.24749 -2.3114 0
M  V30 21382 N 2017.42 6.28015 -2.92522 0
M  V30 21383 N 2019.22 5.16648 -2.21429 0
M  V30 21384 H 2011.37 1.3271 -1.65837 0
M  V30 21385 H 2013.63 0.639848 -0.699499 0
M  V30 21386 H 2013.34 2.77645 -2.15885 0
M  V30 21387 H 2013.21 3.71044 -0.678662 0
M  V30 21388 H 2015.6 2.95071 -0.0410356 0
M  V30 21389 H 2015.68 2.03343 -1.55195 0
M  V30 21390 H 2015.32 4.19788 -2.85904 0
M  V30 21391 H 2015.25 5.09716 -1.32275 0
M  V30 21392 H 2017.74 3.53555 -1.33445 0
M  V30 21393 H 2018.06 6.98563 -3.30498 0
M  V30 21394 H 2016.4 6.28534 -2.96598 0
M  V30 21395 H 2019.59 4.34898 -1.73152 0
M  V30 21396 H 2019.77 5.92234 -2.62989 0
M  V30 21397 N 2013.17 0.433965 1.51507 0
M  V30 21398 C 2014.41 -0.132843 2.03968 0
M  V30 21399 C 2014.78 -1.40254 1.31122 0
M  V30 21400 O 2015.98 -2.04937 1.73937 0
M  V30 21401 C 2014.25 -0.349825 3.55684 0
M  V30 21402 S 2015.81 -0.880522 4.29875 0
M  V30 21403 H 2012.63 -0.0334314 0.710214 0
M  V30 21404 H 2015.23 0.592595 1.86302 0
M  V30 21405 H 2013.93 0.580659 4.06271 0
M  V30 21406 H 2013.46 -1.10244 3.77637 0
M  V30 21407 H 2015.48 -2.15847 4.46794 0
M  V30 21408 N 2014.65 -1.56732 0.165206 0
M  V30 21409 C 2015.9 -1.95872 -0.481368 0
M  V30 21410 C 2016.21 -1.05357 -1.64801 0
M  V30 21411 O 2017.42 -1.34152 -2.36041 0
M  V30 21412 C 2015.87 -3.48264 -0.907766 0
M  V30 21413 C 2015.48 -4.47394 0.232939 0
M  V30 21414 C 2017.23 -3.96235 -1.5231 0
M  V30 21415 C 2015.13 -5.91017 -0.212747 0
M  V30 21416 H 2014.06 -0.731304 -0.183605 0
M  V30 21417 H 2016.71 -1.81755 0.252461 0
M  V30 21418 H 2015.1 -3.57777 -1.69739 0
M  V30 21419 H 2016.27 -4.49591 1.01018 0
M  V30 21420 H 2014.59 -4.09446 0.757843 0
M  V30 21421 H 2017.18 -5.0099 -1.8685 0
M  V30 21422 H 2017.53 -3.38822 -2.41879 0
M  V30 21423 H 2018.06 -3.89713 -0.798029 0
M  V30 21424 H 2014.8 -6.52289 0.648008 0
M  V30 21425 H 2014.32 -5.92141 -0.955479 0
M  V30 21426 H 2016 -6.43638 -0.658675 0
M  V30 21427 N 2016.13 0.10854 -1.57226 0
M  V30 21428 C 2017.08 1.15155 -2.02094 0
M  V30 21429 C 2018.07 1.42263 -0.919651 0
M  V30 21430 O 2019.28 1.42102 -1.10485 0
M  V30 21431 H 2015.65 0.388515 -0.643863 0
M  V30 21432 H 2017.62 0.746707 -2.88906 0
M  V30 21433 C 2016.37 2.46727 -2.44992 0
M  V30 21434 H 2015.69 2.26708 -3.29307 0
M  V30 21435 H 2017.13 3.18242 -2.80175 0
M  V30 21436 C 2015.59 3.10059 -1.31776 0
M  V30 21437 O 2016.12 3.96577 -0.639471 0
M  V30 21438 N 2014.33 2.70099 -1.07215 0
M  V30 21439 H 2013.88 1.99837 -1.62552 0
M  V30 21440 H 2013.83 3.12802 -0.316602 0
M  V30 21441 N 2017.61 1.52975 0.379009 0
M  V30 21442 C 2018.54 1.74729 1.48332 0
M  V30 21443 C 2019.55 0.627862 1.50206 0
M  V30 21444 O 2020.74 0.903805 1.53927 0
M  V30 21445 C 2017.84 1.79998 2.87148 0
M  V30 21446 C 2017.01 3.09452 3.09125 0
M  V30 21447 C 2016.07 3.06138 4.27979 0
M  V30 21448 O 2015.1 3.79976 4.23801 0
M  V30 21449 N 2016.3 2.26019 5.34692 0
M  V30 21450 H 2019.07 2.70011 1.30054 0
M  V30 21451 H 2016.63 1.51586 0.568617 0
M  V30 21452 H 2018.62 1.75275 3.64775 0
M  V30 21453 H 2017.19 0.920593 2.98737 0
M  V30 21454 H 2016.41 3.27586 2.19274 0
M  V30 21455 H 2017.7 3.9503 3.20669 0
M  V30 21456 H 2017.09 1.65515 5.40945 0
M  V30 21457 H 2015.65 2.27126 6.10948 0
M  V30 21458 N 2019.08 -0.63804 1.44107 0
M  V30 21459 C 2020.31 -1.4251 1.49995 0
M  V30 21460 C 2020.73 -1.88401 0.122604 0
M  V30 21461 O 2020.08 -1.60419 -0.870168 0
M  V30 21462 C 2020.14 -2.65002 2.45879 0
M  V30 21463 O 2019.86 -2.21025 3.78259 0
M  V30 21464 C 2021.36 -3.58203 2.61162 0
M  V30 21465 H 2018.58 -0.437285 0.508943 0
M  V30 21466 H 2021.12 -0.780912 1.89003 0
M  V30 21467 H 2019.28 -3.25527 2.10026 0
M  V30 21468 H 2019.69 -3.00388 4.29962 0
M  V30 21469 H 2021.16 -4.40776 3.32295 0
M  V30 21470 H 2021.64 -4.06556 1.6616 0
M  V30 21471 H 2022.25 -3.0355 2.97888 0
M  V30 21472 N 2020.56 -1.3089 -0.877815 0
M  V30 21473 C 2021.47 -1.19819 -2.01694 0
M  V30 21474 C 2022.49 -0.116563 -1.73609 0
M  V30 21475 O 2023.66 -0.332871 -1.9863 0
M  V30 21476 C 2020.73 -0.898133 -3.34865 0
M  V30 21477 C 2019.79 -2.06586 -3.76325 0
M  V30 21478 C 2019.02 -1.78002 -5.03141 0
M  V30 21479 O 2019.25 -0.711373 -5.65947 0
M  V30 21480 O 2018.18 -2.63452 -5.41181 0
M  V30 21481 H 2022.01 -2.15529 -2.13965 0
M  V30 21482 H 2019.59 -1.10553 -1.00491 0
M  V30 21483 H 2021.47 -0.746305 -4.14739 0
M  V30 21484 H 2020.15 0.0290018 -3.23687 0
M  V30 21485 H 2019.06 -2.27305 -2.97125 0
M  V30 21486 H 2020.39 -2.97497 -3.92118 0
M  V30 21487 N 2022.04 1.0911 -1.13723 0
M  V30 21488 C 2023.29 1.80994 -0.899205 0
M  V30 21489 C 2023.61 1.86296 0.576084 0
M  V30 21490 O 2022.88 1.35086 1.41875 0
M  V30 21491 H 2021.46 0.670311 -0.329685 0
M  V30 21492 H 2024.12 1.3195 -1.4344 0
M  V30 21493 H 2023.22 2.84065 -1.29281 0
M  V30 21494 N 2023.52 0.931232 1.27145 0
M  V30 21495 C 2024.8 0.491789 1.89317 0
M  V30 21496 C 2025.18 -1.03026 1.84252 0
M  V30 21497 O 2024.52 -1.88596 1.29011 0
M  V30 21498 C 2024.73 1.04187 3.33086 0
M  V30 21499 C 2026.08 1.1045 4.09983 0
M  V30 21500 O 2027.11 0.991747 3.42115 0
M  V30 21501 O 2025.96 1.27861 5.31332 0
M  V30 21502 H 2023.06 0.158746 0.811621 0
M  V30 21503 H 2025.6 1.02315 1.35387 0
M  V30 21504 H 2024.38 2.08566 3.31083 0
M  V30 21505 H 2024 0.492365 3.9454 0
M  V30 21506 N 2025 -1.41343 0.697132 0
M  V30 21507 C 2025.93 -2.33452 0.0471857 0
M  V30 21508 C 2026.91 -1.51902 -0.765488 0
M  V30 21509 O 2028.09 -1.80434 -0.718146 0
M  V30 21510 C 2025.22 -3.35735 -0.888781 0
M  V30 21511 C 2024.18 -4.27608 -0.183088 0
M  V30 21512 C 2023.5 -5.20277 -1.23352 0
M  V30 21513 C 2024.8 -5.13559 0.951558 0
M  V30 21514 H 2026.5 -2.88052 0.816496 0
M  V30 21515 H 2024.04 -1.38502 0.394089 0
M  V30 21516 H 2026 -3.99098 -1.35272 0
M  V30 21517 H 2024.72 -2.79489 -1.68977 0
M  V30 21518 H 2023.38 -3.65671 0.260833 0
M  V30 21519 H 2023.03 -4.60346 -2.02708 0
M  V30 21520 H 2022.73 -5.82581 -0.766336 0
M  V30 21521 H 2024.25 -5.86517 -1.69793 0
M  V30 21522 H 2025.67 -5.70481 0.567835 0
M  V30 21523 H 2024.06 -5.84812 1.34593 0
M  V30 21524 H 2025.13 -4.50631 1.79053 0
M  V30 21525 N 2026.48 -0.441993 -1.51275 0
M  V30 21526 C 2027.89 0.0200405 -1.86689 0
M  V30 21527 C 2028.24 1.41527 -1.35885 0
M  V30 21528 O 2027.36 2.04366 -0.711583 0
M  V30 21529 C 2027.96 0.0431426 -3.38773 0
M  V30 21530 C 2026.52 0.449604 -3.73705 0
M  V30 21531 C 2025.66 -0.354706 -2.75022 0
M  V30 21532 H 2028.61 -0.657627 -1.44433 0
M  V30 21533 H 2028.64 0.851643 -3.70847 0
M  V30 21534 H 2028.15 -0.97245 -3.75719 0
M  V30 21535 H 2026.25 1.47063 -3.4235 0
M  V30 21536 H 2026.36 0.171167 -4.78794 0
M  V30 21537 H 2024.73 0.187631 -2.54008 0
M  V30 21538 H 2025.51 -1.36926 -3.14811 0
M  V30 21539 N 2027.95 1.56642 -0.173515 0
M  V30 21540 C 2028.88 2.21076 0.751509 0
M  V30 21541 C 2029.86 1.16706 1.23749 0
M  V30 21542 O 2031.05 1.45142 1.29025 0
M  V30 21543 C 2028.18 2.85323 1.9801 0
M  V30 21544 C 2027.13 3.95751 1.62989 0
M  V30 21545 C 2026.46 4.47058 2.93332 0
M  V30 21546 C 2027.76 5.15234 0.856231 0
M  V30 21547 H 2029.45 2.98631 0.21442 0
M  V30 21548 H 2027 1.4364 0.101692 0
M  V30 21549 H 2028.95 3.29075 2.63226 0
M  V30 21550 H 2027.68 2.0514 2.54136 0
M  V30 21551 H 2026.34 3.52658 1.00141 0
M  V30 21552 H 2025.98 3.63663 3.47503 0
M  V30 21553 H 2025.68 5.21556 2.70652 0
M  V30 21554 H 2027.21 4.93497 3.59573 0
M  V30 21555 H 2028.62 5.55665 1.41102 0
M  V30 21556 H 2027.02 5.95663 0.728389 0
M  V30 21557 H 2028.09 4.84677 -0.147009 0
M  V30 21558 N 2029.43 -0.1002 1.57281 0
M  V30 21559 C 2030.38 -1.14082 2.02702 0
M  V30 21560 C 2031.37 -1.41773 0.927183 0
M  V30 21561 O 2032.58 -1.41514 1.11237 0
M  V30 21562 H 2028.95 -0.385095 0.645915 0
M  V30 21563 H 2030.93 -0.731375 2.89298 0
M  V30 21564 C 2029.67 -2.45424 2.46297 0
M  V30 21565 H 2029 -2.24959 3.30505 0
M  V30 21566 H 2030.44 -3.16752 2.81859 0
M  V30 21567 C 2028.9 -3.09356 1.33418 0
M  V30 21568 O 2029.43 -3.96233 0.660494 0
M  V30 21569 N 2027.63 -2.69526 1.08646 0
M  V30 21570 H 2027.18 -1.98972 1.63609 0
M  V30 21571 H 2027.14 -3.1263 0.333186 0
M  V30 21572 N 2030.91 -1.53174 -0.370891 0
M  V30 21573 C 2032.14 -1.72749 -1.13319 0
M  V30 21574 C 2032.55 -0.453832 -1.83676 0
M  V30 21575 O 2031.89 0.582685 -1.74214 0
M  V30 21576 C 2031.95 -2.83436 -2.21143 0
M  V30 21577 C 2031.62 -4.23963 -1.70599 0
M  V30 21578 C 2032.61 -5.06496 -1.17293 0
M  V30 21579 C 2030.3 -4.70354 -1.76273 0
M  V30 21580 C 2032.29 -6.33508 -0.703308 0
M  V30 21581 C 2029.98 -5.97346 -1.28923 0
M  V30 21582 C 2030.98 -6.78754 -0.760411 0
M  V30 21583 O 2030.67 -8.03363 -0.293883 0
M  V30 21584 H 2030.4 -0.581347 -0.344981 0
M  V30 21585 H 2032.95 -2.0069 -0.437343 0
M  V30 21586 H 2031.18 -2.50957 -2.94206 0
M  V30 21587 H 2032.87 -2.9124 -2.82726 0
M  V30 21588 H 2033.64 -4.71831 -1.12252 0
M  V30 21589 H 2029.52 -4.07066 -2.16375 0
M  V30 21590 H 2033.06 -6.96997 -0.289876 0
M  V30 21591 H 2028.96 -6.31511 -1.33655 0
M  V30 21592 H 2029.72 -8.17454 -0.413701 0
M  V30 21593 N 2032.39 0.630389 -1.44443 0
M  V30 21594 C 2033.62 1.41712 -1.50749 0
M  V30 21595 C 2034.03 1.88334 -0.132593 0
M  V30 21596 O 2033.39 1.60878 0.861649 0
M  V30 21597 C 2033.44 2.63694 -2.47281 0
M  V30 21598 O 2033.16 2.19016 -3.79425 0
M  V30 21599 C 2034.66 3.56813 -2.63058 0
M  V30 21600 H 2031.88 0.43458 -0.511255 0
M  V30 21601 H 2034.42 0.770878 -1.89414 0
M  V30 21602 H 2032.58 3.24409 -2.11749 0
M  V30 21603 H 2032.99 2.98104 -4.31549 0
M  V30 21604 H 2034.47 4.39008 -3.34628 0
M  V30 21605 H 2034.94 4.05669 -1.68313 0
M  V30 21606 H 2035.55 3.01966 -2.99494 0
M  V30 21607 N 2033.87 1.31354 0.870861 0
M  V30 21608 C 2035.11 1.20348 1.61862 0
M  V30 21609 C 2035.43 -0.237373 1.94154 0
M  V30 21610 O 2036.63 -0.469111 2.67417 0
M  V30 21611 C 2035.09 2.10677 2.91793 0
M  V30 21612 C 2034.7 3.59752 2.66987 0
M  V30 21613 C 2036.44 2.08469 3.69785 0
M  V30 21614 C 2034.35 4.42092 3.92821 0
M  V30 21615 H 2033.28 0.446857 0.607317 0
M  V30 21616 H 2035.93 1.56203 0.962965 0
M  V30 21617 H 2034.31 1.6772 3.58728 0
M  V30 21618 H 2035.49 4.10949 2.08465 0
M  V30 21619 H 2033.8 3.63927 2.02351 0
M  V30 21620 H 2036.4 2.67232 4.63132 0
M  V30 21621 H 2036.74 1.07161 4.02271 0
M  V30 21622 H 2037.27 2.49621 3.09732 0
M  V30 21623 H 2034.01 5.44151 3.65486 0
M  V30 21624 H 2033.53 3.95654 4.50797 0
M  V30 21625 H 2035.21 4.54259 4.60714 0
M  V30 21626 N 2035.34 -1.08505 1.143 0
M  V30 21627 C 2036.59 -1.8114 0.911938 0
M  V30 21628 C 2036.92 -1.85946 -0.560156 0
M  V30 21629 O 2036.2 -1.33458 -1.41489 0
M  V30 21630 C 2036.48 -3.26806 1.51227 0
M  V30 21631 C 2036.33 -3.30215 3.05414 0
M  V30 21632 C 2037.65 -4.23754 1.1883 0
M  V30 21633 H 2034.77 -0.657619 0.332725 0
M  V30 21634 H 2037.41 -1.27044 1.41279 0
M  V30 21635 H 2035.56 -3.73003 1.08633 0
M  V30 21636 H 2037.24 -2.92351 3.56832 0
M  V30 21637 H 2035.48 -2.69518 3.39915 0
M  V30 21638 H 2036.15 -4.32875 3.42525 0
M  V30 21639 H 2038.63 -3.8589 1.55653 0
M  V30 21640 H 2037.5 -5.23993 1.63469 0
M  V30 21641 H 2037.76 -4.41979 0.103442 0
M  V30 21642 N 2036.82 -0.937962 -1.26649 0
M  V30 21643 C 2037.77 -0.435759 -2.28482 0
M  V30 21644 C 2038.76 0.485286 -1.623 0
M  V30 21645 O 2039.97 0.363854 -1.76284 0
M  V30 21646 H 2036.34 -0.122373 -0.741976 0
M  V30 21647 H 2038.32 -1.30722 -2.68243 0
M  V30 21648 C 2037.06 0.286679 -3.46516 0
M  V30 21649 H 2036.39 -0.412881 -3.97662 0
M  V30 21650 H 2037.83 0.602341 -4.197 0
M  V30 21651 C 2036.29 1.50334 -3.01499 0
M  V30 21652 O 2036.82 2.60176 -3.06058 0
M  V30 21653 N 2035.02 1.35877 -2.56877 0
M  V30 21654 H 2034.57 0.465092 -2.53367 0
M  V30 21655 H 2034.53 2.17403 -2.27119 0
M  V30 21656 N 2038.3 1.40971 -0.704618 0
M  V30 21657 C 2039.25 2.32576 -0.0337552 0
M  V30 21658 C 2040.24 1.51452 0.758852 0
M  V30 21659 O 2041.45 1.67327 0.663455 0
M  V30 21660 H 2037.82 0.751959 0.00788634 0
M  V30 21661 H 2039.79 2.86819 -0.823248 0
M  V30 21662 C 2038.54 3.36326 0.882061 0
M  V30 21663 H 2037.87 3.98807 0.281575 0
M  V30 21664 H 2039.31 4.02942 1.31962 0
M  V30 21665 C 2037.76 2.70931 2.00245 0
M  V30 21666 O 2038.29 2.56412 3.09218 0
M  V30 21667 N 2036.5 2.29485 1.78284 0
M  V30 21668 H 2036.05 2.41494 0.89657 0
M  V30 21669 H 2036.01 1.86067 2.5343 0
M  V30 21670 N 2039.78 0.45001 1.51039 0
M  V30 21671 C 2040.73 -0.355012 2.28053 0
M  V30 21672 C 2041.7 -1.00578 1.32186 0
M  V30 21673 O 2042.88 -1.02227 1.61103 0
M  V30 21674 C 2040.02 -1.44311 3.13478 0
M  V30 21675 C 2039.13 -0.809213 4.24353 0
M  V30 21676 C 2038.27 -1.87342 4.97068 0
M  V30 21677 C 2037.31 -1.21864 5.99846 0
M  V30 21678 N 2036.44 -2.22477 6.65919 0
M  V30 21679 H 2041.28 0.308084 2.96403 0
M  V30 21680 H 2038.82 0.163778 1.46185 0
M  V30 21681 H 2040.78 -2.08539 3.61341 0
M  V30 21682 H 2039.41 -2.07566 2.47217 0
M  V30 21683 H 2038.46 -0.0548937 3.8036 0
M  V30 21684 H 2039.77 -0.291288 4.97949 0
M  V30 21685 H 2038.93 -2.59203 5.48542 0
M  V30 21686 H 2037.67 -2.42511 4.23131 0
M  V30 21687 H 2036.67 -0.48556 5.47652 0
M  V30 21688 H 2037.9 -0.674124 6.75746 0
M  V30 21689 H 2035.84 -2.76702 5.94788 0
M  V30 21690 H 2035.76 -1.75611 7.35321 0
M  V30 21691 H 2037.03 -2.93782 7.2202 0
M  V30 21692 N 2041.26 -1.56548 0.18182 0
M  V30 21693 C 2042.48 -2.02015 -0.469543 0
M  V30 21694 C 2042.91 -1.06119 -1.55307 0
M  V30 21695 O 2042.26 -0.0424595 -1.8125 0
M  V30 21696 C 2042.31 -3.46016 -1.01515 0
M  V30 21697 O 2041.42 -3.53215 -2.12869 0
M  V30 21698 H 2040.76 -0.65461 -0.111273 0
M  V30 21699 H 2043.29 -2.02552 0.288798 0
M  V30 21700 H 2043.3 -3.85537 -1.33511 0
M  V30 21701 H 2041.97 -4.15308 -0.22188 0
M  V30 21702 H 2040.55 -3.2556 -1.81838 0
M  V30 21703 N 2042.73 0.0918577 -1.57332 0
M  V30 21704 C 2043.67 1.13749 -1.98982 0
M  V30 21705 C 2044.68 1.36133 -0.892834 0
M  V30 21706 O 2045.87 1.34728 -1.17092 0
M  V30 21707 C 2042.97 2.49241 -2.29635 0
M  V30 21708 C 2042.14 2.4709 -3.60923 0
M  V30 21709 C 2041.2 3.64534 -3.79475 0
M  V30 21710 O 2040.23 3.46877 -4.51292 0
M  V30 21711 N 2041.43 4.84137 -3.20299 0
M  V30 21712 H 2044.19 0.78297 -2.89292 0
M  V30 21713 H 2041.75 0.280794 -1.59446 0
M  V30 21714 H 2043.75 3.26417 -2.39236 0
M  V30 21715 H 2042.32 2.76771 -1.45316 0
M  V30 21716 H 2041.54 1.55438 -3.62261 0
M  V30 21717 H 2042.82 2.42733 -4.47167 0
M  V30 21718 H 2042.22 5.01386 -2.6197 0
M  V30 21719 H 2040.78 5.58894 -3.35381 0
M  V30 21720 N 2044.21 1.53368 0.362763 0
M  V30 21721 C 2045.45 1.7139 1.11376 0
M  V30 21722 C 2045.82 0.457385 1.86472 0
M  V30 21723 O 2047.02 0.514341 2.63833 0
M  V30 21724 C 2045.29 2.93093 2.04527 0
M  V30 21725 S 2046.85 3.31834 2.87109 0
M  V30 21726 H 2043.67 0.603054 0.376626 0
M  V30 21727 H 2046.27 1.91475 0.394647 0
M  V30 21728 H 2044.97 3.82737 1.48125 0
M  V30 21729 H 2044.5 2.75418 2.80906 0
M  V30 21730 H 2046.52 2.84067 4.06842 0
M  V30 21731 N 2045.69 -0.62272 1.44776 0
M  V30 21732 C 2046.6 -1.76282 1.54796 0
M  V30 21733 C 2047.62 -1.68522 0.433164 0
M  V30 21734 O 2048.79 -1.89149 0.691713 0
M  V30 21735 C 2045.86 -3.12697 1.49737 0
M  V30 21736 C 2044.92 -3.32026 2.72135 0
M  V30 21737 C 2044.15 -4.61933 2.67308 0
M  V30 21738 O 2044.37 -5.43282 1.73783 0
M  V30 21739 O 2043.31 -4.83646 3.58288 0
M  V30 21740 H 2047.13 -1.70781 2.51133 0
M  V30 21741 H 2044.72 -0.784974 1.27116 0
M  V30 21742 H 2046.6 -3.94001 1.4947 0
M  V30 21743 H 2045.28 -3.18723 0.565471 0
M  V30 21744 H 2044.18 -2.50368 2.77969 0
M  V30 21745 H 2045.52 -3.30868 3.644 0
M  V30 21746 N 2047.17 -1.31814 -0.863883 0
M  V30 21747 C 2048.39 -1.24961 -1.65528 0
M  V30 21748 C 2048.82 0.18096 -1.87228 0
M  V30 21749 O 2048.18 1.12919 -1.41842 0
M  V30 21750 C 2048.22 -2.00518 -2.99708 0
M  V30 21751 O 2047.33 -1.34668 -3.89793 0
M  V30 21752 H 2046.67 -0.431127 -0.505001 0
M  V30 21753 H 2049.2 -1.73981 -1.07665 0
M  V30 21754 H 2049.21 -2.10344 -3.49599 0
M  V30 21755 H 2047.88 -3.0455 -2.83235 0
M  V30 21756 H 2046.46 -1.33332 -3.48249 0
M  V30 21757 N 2048.65 1.07897 -1.14873 0
M  V30 21758 C 2049.58 2.16955 -0.863287 0
M  V30 21759 C 2050.56 1.69103 0.183853 0
M  V30 21760 O 2051.74 1.9416 0.0394136 0
M  V30 21761 C 2048.87 3.45575 -0.345696 0
M  V30 21762 C 2047.83 4.06847 -1.32888 0
M  V30 21763 C 2047.15 5.30481 -0.670367 0
M  V30 21764 C 2048.45 4.47523 -2.69296 0
M  V30 21765 H 2050.15 2.41091 -1.77526 0
M  V30 21766 H 2047.69 1.1587 -0.854991 0
M  V30 21767 H 2049.65 4.21188 -0.133575 0
M  V30 21768 H 2048.37 3.21009 0.601722 0
M  V30 21769 H 2047.03 3.33272 -1.52726 0
M  V30 21770 H 2046.68 5.02203 0.283023 0
M  V30 21771 H 2046.38 5.72433 -1.32645 0
M  V30 21772 H 2047.9 6.08805 -0.467891 0
M  V30 21773 H 2049.31 5.1429 -2.53335 0
M  V30 21774 H 2047.71 5.00409 -3.31226 0
M  V30 21775 H 2048.78 3.59159 -3.2578 0
M  V30 21776 N 2050.12 0.944665 1.2615 0
M  V30 21777 C 2051.07 0.44787 2.28247 0
M  V30 21778 C 2052.07 -0.476672 1.62555 0
M  V30 21779 O 2053.27 -0.3545 1.76475 0
M  V30 21780 H 2049.65 0.126306 0.741317 0
M  V30 21781 H 2051.62 1.32142 2.67546 0
M  V30 21782 C 2050.37 -0.268298 3.46663 0
M  V30 21783 H 2049.69 0.433964 3.97438 0
M  V30 21784 H 2051.13 -0.580074 4.20013 0
M  V30 21785 C 2049.59 -1.48732 3.02292 0
M  V30 21786 O 2050.12 -2.58549 3.07434 0
M  V30 21787 N 2048.33 -1.34513 2.57594 0
M  V30 21788 H 2047.87 -0.451649 2.5361 0
M  V30 21789 H 2047.83 -2.16196 2.28269 0
M  V30 21790 N 2051.6 -1.40596 0.712085 0
M  V30 21791 C 2052.53 -2.33389 0.0719438 0
M  V30 21792 C 2053.51 -1.52706 -0.749334 0
M  V30 21793 O 2054.7 -1.81185 -0.698968 0
M  V30 21794 C 2051.83 -3.36659 -0.853122 0
M  V30 21795 C 2050.78 -4.27778 -0.137724 0
M  V30 21796 C 2050.11 -5.21556 -1.17827 0
M  V30 21797 C 2051.41 -5.12521 1.00597 0
M  V30 21798 H 2053.1 -2.87169 0.847002 0
M  V30 21799 H 2050.65 -1.38077 0.408756 0
M  V30 21800 H 2052.6 -4.00511 -1.31031 0
M  V30 21801 H 2051.33 -2.81266 -1.66004 0
M  V30 21802 H 2049.98 -3.65374 0.299603 0
M  V30 21803 H 2049.63 -4.6247 -1.97814 0
M  V30 21804 H 2049.33 -5.83361 -0.704503 0
M  V30 21805 H 2050.86 -5.88285 -1.63563 0
M  V30 21806 H 2052.27 -5.69847 0.62831 0
M  V30 21807 H 2050.67 -5.83351 1.40789 0
M  V30 21808 H 2051.74 -4.48706 1.83822 0
M  V30 21809 N 2053.08 -0.458013 -1.50798 0
M  V30 21810 C 2054.31 0.0995379 -2.0666 0
M  V30 21811 C 2054.72 1.34662 -1.32331 0
M  V30 21812 O 2054.08 1.78311 -0.388768 0
M  V30 21813 C 2054.13 0.400901 -3.5927 0
M  V30 21814 O 2053.85 -0.796705 -4.30795 0
M  V30 21815 C 2055.35 1.00686 -4.31714 0
M  V30 21816 H 2052.57 -0.00125628 -0.670999 0
M  V30 21817 H 2055.12 -0.643041 -1.94127 0
M  V30 21818 H 2053.27 1.0934 -3.7165 0
M  V30 21819 H 2053.69 -0.533396 -5.21781 0
M  V30 21820 H 2055.16 1.16758 -5.39511 0
M  V30 21821 H 2055.64 1.99349 -3.91352 0
M  V30 21822 H 2056.24 0.353135 -4.23831 0
M  V30 21823 N 2054.56 1.56449 -0.190119 0
M  V30 21824 C 2055.81 1.97048 0.449068 0
M  V30 21825 C 2056.13 1.07797 1.62496 0
M  V30 21826 O 2055.4 0.148203 1.95339 0
M  V30 21827 H 2053.98 0.727656 0.168896 0
M  V30 21828 H 2056.64 1.9294 -0.275691 0
M  V30 21829 H 2055.74 3.01764 0.79653 0
M  V30 21830 N 2056.04 -0.0835127 1.57379 0
M  V30 21831 C 2056.95 -1.11858 2.06216 0
M  V30 21832 C 2057.96 -1.43137 0.989333 0
M  V30 21833 O 2059.14 -1.53548 1.30327 0
M  V30 21834 C 2056.2 -2.41603 2.48655 0
M  V30 21835 C 2055.27 -2.17401 3.70183 0
M  V30 21836 C 2054.5 -3.40959 4.10588 0
M  V30 21837 O 2054.72 -4.49637 3.50974 0
M  V30 21838 O 2053.66 -3.29863 5.03462 0
M  V30 21839 H 2057.48 -0.733741 2.94703 0
M  V30 21840 H 2055.07 -0.296834 1.46421 0
M  V30 21841 H 2056.95 -3.1798 2.76526 0
M  V30 21842 H 2055.62 -2.7949 1.63301 0
M  V30 21843 H 2054.53 -1.38767 3.47411 0
M  V30 21844 H 2055.86 -1.84401 4.56352 0
M  V30 21845 N 2057.52 -1.53558 -0.354624 0
M  V30 21846 C 2058.45 -1.83751 -1.44076 0
M  V30 21847 C 2059.43 -0.691795 -1.55397 0
M  V30 21848 O 2060.61 -0.942676 -1.69786 0
M  V30 21849 C 2057.74 -2.03721 -2.81274 0
M  V30 21850 C 2056.7 -3.19517 -2.84769 0
M  V30 21851 C 2056.02 -3.248 -4.24746 0
M  V30 21852 C 2057.32 -4.5787 -2.51301 0
M  V30 21853 H 2059.02 -2.7471 -1.19058 0
M  V30 21854 H 2056.56 -1.32182 -0.5713 0
M  V30 21855 H 2058.51 -2.23427 -3.57293 0
M  V30 21856 H 2057.24 -1.09482 -3.07703 0
M  V30 21857 H 2055.9 -2.99649 -2.11201 0
M  V30 21858 H 2055.55 -2.28177 -4.48268 0
M  V30 21859 H 2055.25 -4.02606 -4.27998 0
M  V30 21860 H 2056.77 -3.46702 -5.02623 0
M  V30 21861 H 2058.18 -4.77663 -3.17034 0
M  V30 21862 H 2056.58 -5.37998 -2.65853 0
M  V30 21863 H 2057.65 -4.62234 -1.46518 0
M  V30 21864 N 2058.99 0.615033 -1.45104 0
M  V30 21865 C 2060.22 1.39902 -1.52023 0
M  V30 21866 C 2060.63 1.88611 -0.149112 0
M  V30 21867 O 2059.97 1.6242 0.858222 0
M  V30 21868 C 2060.04 2.6429 -2.43703 0
M  V30 21869 C 2059.7 2.3727 -3.90579 0
M  V30 21870 C 2060.7 1.98094 -4.80682 0
M  V30 21871 C 2058.38 2.50412 -4.3543 0
M  V30 21872 C 2060.38 1.72411 -6.13639 0
M  V30 21873 C 2058.06 2.24342 -5.68431 0
M  V30 21874 C 2059.06 1.85402 -6.57354 0
M  V30 21875 O 2058.75 1.59633 -7.87891 0
M  V30 21876 H 2058.48 0.434923 -0.517511 0
M  V30 21877 H 2061.04 0.757868 -1.90907 0
M  V30 21878 H 2059.27 3.31099 -1.99775 0
M  V30 21879 H 2060.95 3.26322 -2.41389 0
M  V30 21880 H 2061.72 1.87483 -4.47297 0
M  V30 21881 H 2057.6 2.79689 -3.66463 0
M  V30 21882 H 2061.14 1.41942 -6.83007 0
M  V30 21883 H 2057.04 2.34567 -6.01372 0
M  V30 21884 H 2057.81 1.73747 -7.99846 0
M  V30 21885 N 2060.47 1.3227 0.85688 0
M  V30 21886 C 2061.72 1.23895 1.61312 0
M  V30 21887 C 2062.07 -0.197917 1.91379 0
M  V30 21888 O 2061.37 -1.13506 1.5436 0
M  V30 21889 C 2061.56 2.02967 2.94175 0
M  V30 21890 C 2061.39 3.54196 2.77083 0
M  V30 21891 C 2060.16 4.23536 2.75582 0
M  V30 21892 C 2062.36 4.48891 2.51 0
M  V30 21893 N 2060.34 5.60834 2.49677 0
M  V30 21894 C 2061.71 5.7395 2.34481 0
M  V30 21895 C 2063.76 4.38173 2.36451 0
M  V30 21896 C 2062.47 6.89502 2.0489 0
M  V30 21897 C 2064.49 5.53521 2.0825 0
M  V30 21898 C 2063.86 6.77578 1.92529 0
M  V30 21899 H 2059.95 0.508517 0.594083 0
M  V30 21900 H 2062.54 1.6661 1.00744 0
M  V30 21901 H 2060.71 1.62601 3.52726 0
M  V30 21902 H 2062.44 1.86505 3.59163 0
M  V30 21903 H 2059.2 3.75632 2.8844 0
M  V30 21904 H 2059.62 6.33161 2.39659 0
M  V30 21905 H 2064.26 3.42913 2.47326 0
M  V30 21906 H 2061.98 7.84775 1.92752 0
M  V30 21907 H 2065.57 5.47154 1.97773 0
M  V30 21908 H 2064.45 7.65325 1.71018 0
M  V30 21909 N 2061.95 -1.07287 1.15444 0
M  V30 21910 C 2063.18 -1.83614 0.953597 0
M  V30 21911 C 2063.59 -1.82111 -0.498116 0
M  V30 21912 O 2062.95 -1.233 -1.34548 0
M  V30 21913 C 2063 -3.30668 1.46086 0
M  V30 21914 O 2062.72 -3.32236 2.85571 0
M  V30 21915 C 2064.22 -4.23761 1.3016 0
M  V30 21916 H 2061.44 -0.57928 0.338638 0
M  V30 21917 H 2063.99 -1.35426 1.53232 0
M  V30 21918 H 2062.14 -3.76203 0.924647 0
M  V30 21919 H 2062.56 -4.24117 3.08585 0
M  V30 21920 H 2064.03 -5.25009 1.70497 0
M  V30 21921 H 2064.51 -4.38511 0.245852 0
M  V30 21922 H 2065.11 -3.84062 1.82692 0
M  V30 21923 N 2063.43 -0.951342 -1.25647 0
M  V30 21924 C 2064.37 -0.467715 -2.26011 0
M  V30 21925 C 2065.34 0.478049 -1.59072 0
M  V30 21926 O 2066.53 0.392024 -1.86729 0
M  V30 21927 C 2063.67 0.251483 -3.44182 0
M  V30 21928 C 2062.78 -0.731135 -4.25768 0
M  V30 21929 C 2061.92 0.0102901 -5.31199 0
M  V30 21930 C 2060.96 -0.963479 -6.0447 0
M  V30 21931 N 2060.09 -0.253142 -7.01643 0
M  V30 21932 H 2064.93 -1.32847 -2.6675 0
M  V30 21933 H 2062.47 -0.666278 -1.31146 0
M  V30 21934 H 2064.43 0.685002 -4.11538 0
M  V30 21935 H 2063.06 1.07631 -3.04328 0
M  V30 21936 H 2062.11 -1.28314 -3.58106 0
M  V30 21937 H 2063.42 -1.47435 -4.76513 0
M  V30 21938 H 2062.58 0.502603 -6.04615 0
M  V30 21939 H 2061.32 0.78632 -4.81319 0
M  V30 21940 H 2060.32 -1.46682 -5.29872 0
M  V30 21941 H 2061.55 -1.73968 -6.56439 0
M  V30 21942 H 2059.49 0.50421 -6.54059 0
M  V30 21943 H 2059.41 -0.935511 -7.50189 0
M  V30 21944 H 2060.68 0.217742 -7.79196 0
M  V30 21945 N 2064.91 1.40216 -0.719531 0
M  V30 21946 C 2066.15 2.01112 -0.261127 0
M  V30 21947 C 2066.48 1.56933 1.14393 0
M  V30 21948 O 2065.76 0.791168 1.77682 0
M  V30 21949 C 2066.04 3.58438 -0.345592 0
M  V30 21950 C 2065.9 4.12679 -1.78931 0
M  V30 21951 C 2067.21 4.39202 0.280948 0
M  V30 21952 H 2064.33 0.730674 -0.0963582 0
M  V30 21953 H 2066.98 1.66639 -0.912774 0
M  V30 21954 H 2065.13 3.87936 0.209226 0
M  V30 21955 H 2066.8 3.93963 -2.39982 0
M  V30 21956 H 2065.04 3.66819 -2.31574 0
M  V30 21957 H 2065.71 5.21835 -1.79978 0
M  V30 21958 H 2068.19 4.15658 -0.191834 0
M  V30 21959 H 2067.06 5.48566 0.191422 0
M  V30 21960 H 2067.32 4.205 1.36499 0
M  V30 21961 N 2066.38 0.466004 1.50553 0
M  V30 21962 C 2067.33 -0.330804 2.28417 0
M  V30 21963 C 2068.3 -0.991708 1.33246 0
M  V30 21964 O 2069.49 -1.00512 1.62179 0
M  V30 21965 C 2066.63 -1.40978 3.14991 0
M  V30 21966 C 2065.74 -0.76416 4.25188 0
M  V30 21967 C 2064.87 -1.8206 4.99027 0
M  V30 21968 C 2063.91 -1.15495 6.01105 0
M  V30 21969 N 2063.05 -2.15401 6.68242 0
M  V30 21970 H 2067.89 0.339504 2.9606 0
M  V30 21971 H 2065.43 0.179273 1.46003 0
M  V30 21972 H 2067.38 -2.04695 3.63532 0
M  V30 21973 H 2066.01 -2.04932 2.49405 0
M  V30 21974 H 2065.07 -0.0145483 3.80397 0
M  V30 21975 H 2066.38 -0.238458 4.9823 0
M  V30 21976 H 2065.53 -2.5337 5.51261 0
M  V30 21977 H 2064.27 -2.38009 4.25679 0
M  V30 21978 H 2063.28 -0.427447 5.48136 0
M  V30 21979 H 2064.5 -0.602414 6.76423 0
M  V30 21980 H 2062.45 -2.70378 5.97689 0
M  V30 21981 H 2062.36 -1.67802 7.37142 0
M  V30 21982 H 2063.63 -2.86107 7.25095 0
M  V30 21983 N 2067.86 -1.56346 0.198413 0
M  V30 21984 C 2069.11 -1.97966 -0.440131 0
M  V30 21985 C 2069.44 -1.08533 -1.61041 0
M  V30 21986 O 2068.72 -0.138034 -1.9401 0
M  V30 21987 C 2069 -3.48747 -0.897069 0
M  V30 21988 C 2068.85 -4.48957 0.275249 0
M  V30 21989 C 2070.17 -4.03314 -1.76141 0
M  V30 21990 H 2067.29 -0.719752 -0.15851 0
M  V30 21991 H 2069.93 -1.87774 0.290003 0
M  V30 21992 H 2068.08 -3.57564 -1.51921 0
M  V30 21993 H 2069.75 -4.52175 0.912988 0
M  V30 21994 H 2068 -4.23791 0.926484 0
M  V30 21995 H 2068.67 -5.51931 -0.0870366 0
M  V30 21996 H 2071.14 -3.97297 -1.23669 0
M  V30 21997 H 2070.02 -5.09178 -2.05009 0
M  V30 21998 H 2070.28 -3.48776 -2.71676 0
M  V30 21999 N 2069.34 0.0751653 -1.57421 0
M  V30 22000 C 2070.29 1.10843 -2.04491 0
M  V30 22001 C 2071.28 1.4028 -0.94962 0
M  V30 22002 O 2072.49 1.39727 -1.13474 0
M  V30 22003 H 2068.86 0.37477 -0.651959 0
M  V30 22004 H 2070.83 0.685258 -2.90425 0
M  V30 22005 C 2069.58 2.41474 -2.50171 0
M  V30 22006 H 2068.91 2.19672 -3.34042 0
M  V30 22007 H 2070.35 3.12227 -2.86863 0
M  V30 22008 C 2068.81 3.07194 -1.38323 0
M  V30 22009 O 2069.34 3.95132 -0.723447 0
M  V30 22010 N 2067.54 2.67764 -1.1292 0
M  V30 22011 H 2067.09 1.96344 -1.66754 0
M  V30 22012 H 2067.05 3.1206 -0.382881 0
M  V30 22013 N 2070.82 1.53744 0.346476 0
M  V30 22014 C 2072.07 1.70849 1.08705 0
M  V30 22015 C 2072.39 0.470151 1.88732 0
M  V30 22016 O 2071.65 -0.548082 1.87868 0
M  V30 22017 C 2071.95 2.92192 2.05812 0
M  V30 22018 C 2071.61 4.27917 1.42119 0
M  V30 22019 C 2070.28 4.64821 1.24477 0
M  V30 22020 C 2072.63 5.12243 0.962087 0
M  V30 22021 C 2069.96 5.83671 0.595386 0
M  V30 22022 C 2072.31 6.31756 0.326627 0
M  V30 22023 C 2070.97 6.67358 0.137866 0
M  V30 22024 H 2070.24 0.625182 0.397779 0
M  V30 22025 H 2072.89 1.87957 0.366657 0
M  V30 22026 H 2071.19 2.69675 2.84223 0
M  V30 22027 H 2072.89 3.0262 2.63101 0
M  V30 22028 H 2069.48 3.9887 1.56847 0
M  V30 22029 H 2073.66 4.84267 1.08625 0
M  V30 22030 H 2068.92 6.09831 0.437727 0
M  V30 22031 H 2073.09 6.9639 -0.0372189 0
M  V30 22032 H 2070.72 7.59312 -0.367372 0
M  V30 22033 N 2072.3 -0.607329 1.45428 0
M  V30 22034 C 2073.57 -1.36669 1.39932 0
M  V30 22035 C 2073.95 -2.10984 0.0700663 0
M  V30 22036 O 2073.3 -2.07907 -0.947984 0
M  V30 22037 C 2073.51 -2.3133 2.61319 0
M  V30 22038 C 2074.86 -2.93928 3.06417 0
M  V30 22039 O 2075.88 -2.4165 2.61694 0
M  V30 22040 O 2074.74 -3.88823 3.8403 0
M  V30 22041 H 2071.84 -0.61283 0.55531 0
M  V30 22042 H 2074.38 -0.630396 1.57557 0
M  V30 22043 H 2073.15 -1.75677 3.49647 0
M  V30 22044 H 2072.78 -3.12338 2.4603 0
M  V30 22045 N 2073.77 -1.32722 -0.849853 0
M  V30 22046 C 2074.72 -1.22024 -1.98023 0
M  V30 22047 C 2075.72 -0.12398 -1.68946 0
M  V30 22048 O 2076.92 -0.287223 -1.77694 0
M  V30 22049 H 2073.3 -0.378378 -0.649873 0
M  V30 22050 H 2075.27 -2.17614 -2.04173 0
M  V30 22051 C 2074.02 -0.965076 -3.34038 0
M  V30 22052 H 2073.34 -1.80084 -3.56945 0
M  V30 22053 H 2074.78 -0.93048 -4.13664 0
M  V30 22054 C 2073.24 0.332137 -3.35259 0
M  V30 22055 O 2073.77 1.34244 -3.78604 0
M  V30 22056 N 2071.98 0.355806 -2.88414 0
M  V30 22057 H 2071.52 -0.46689 -2.53334 0
M  V30 22058 H 2071.48 1.2236 -2.89613 0
M  V30 22059 N 2075.25 1.06673 -1.16011 0
M  V30 22060 C 2076.5 1.79666 -0.940641 0
M  V30 22061 C 2076.83 1.86814 0.530502 0
M  V30 22062 O 2076.11 1.35692 1.39348 0
M  V30 22063 C 2076.39 3.24359 -1.56407 0
M  V30 22064 C 2076.24 3.25315 -3.10629 0
M  V30 22065 C 2077.56 4.2181 -1.25556 0
M  V30 22066 H 2074.68 0.652242 -0.343145 0
M  V30 22067 H 2077.32 1.2478 -1.43282 0
M  V30 22068 H 2075.47 3.71227 -1.14553 0
M  V30 22069 H 2077.14 2.86637 -3.61438 0
M  V30 22070 H 2075.39 2.64077 -3.4416 0
M  V30 22071 H 2076.06 4.27371 -3.49368 0
M  V30 22072 H 2078.53 3.83365 -1.61772 0
M  V30 22073 H 2077.41 5.21326 -1.71785 0
M  V30 22074 H 2077.67 4.41758 -0.173744 0
M  V30 22075 N 2076.73 0.957992 1.25141 0
M  V30 22076 C 2077.98 0.613378 1.92567 0
M  V30 22077 C 2078.3 -0.852805 1.75363 0
M  V30 22078 O 2077.57 -1.60775 1.11929 0
M  V30 22079 H 2076.15 0.223867 0.712666 0
M  V30 22080 H 2078.81 1.21696 1.52237 0
M  V30 22081 H 2077.91 0.845594 3.00427 0
M  V30 22082 N 2078.21 -1.39832 0.726957 0
M  V30 22083 C 2079.17 -2.29022 0.0903329 0
M  V30 22084 C 2080.17 -1.45921 -0.675553 0
M  V30 22085 O 2081.36 -1.66696 -0.505765 0
M  V30 22086 C 2078.49 -3.29304 -0.881584 0
M  V30 22087 H 2079.69 -2.86821 0.87601 0
M  V30 22088 H 2077.24 -1.48345 0.492294 0
M  V30 22089 H 2077.97 -2.76545 -1.69391 0
M  V30 22090 H 2077.76 -3.90665 -0.33514 0
M  V30 22091 H 2079.25 -3.96061 -1.32384 0
M  V30 22092 N 2079.69 -0.473982 -1.50304 0
M  V30 22093 C 2080.93 0.0798516 -2.01942 0
M  V30 22094 C 2081.26 1.39955 -1.35785 0
M  V30 22095 O 2080.53 1.89302 -0.504142 0
M  V30 22096 H 2079.11 0.0325001 -0.746293 0
M  V30 22097 H 2081.77 -0.625063 -1.84605 0
M  V30 22098 H 2080.86 0.229253 -3.11257 0
M  V30 22099 N 2081.16 1.56239 -0.206702 0
M  V30 22100 C 2082.39 2.01998 0.433638 0
M  V30 22101 C 2082.8 1.08593 1.54933 0
M  V30 22102 O 2082.15 0.0850804 1.83503 0
M  V30 22103 C 2082.21 3.4413 1.03993 0
M  V30 22104 C 2081.87 4.56959 0.0615327 0
M  V30 22105 C 2082.87 5.14701 -0.733387 0
M  V30 22106 C 2080.55 5.02272 -0.0529169 0
M  V30 22107 C 2082.55 6.16216 -1.62961 0
M  V30 22108 C 2080.23 6.03628 -0.952684 0
M  V30 22109 C 2081.23 6.60475 -1.73959 0
M  V30 22110 O 2080.92 7.59861 -2.62425 0
M  V30 22111 H 2080.65 0.666655 0.112011 0
M  V30 22112 H 2083.21 2.02952 -0.316153 0
M  V30 22113 H 2081.44 3.40198 1.83853 0
M  V30 22114 H 2083.13 3.73627 1.58612 0
M  V30 22115 H 2083.89 4.80552 -0.655335 0
M  V30 22116 H 2079.77 4.57714 0.549424 0
M  V30 22117 H 2083.31 6.60514 -2.24425 0
M  V30 22118 H 2079.21 6.372 -1.03181 0
M  V30 22119 H 2079.98 7.77326 -2.56334 0
M  V30 22120 N 2082.64 -0.0668159 1.57458 0
M  V30 22121 C 2083.57 -1.0791 2.07069 0
M  V30 22122 C 2084.55 -1.40063 0.965207 0
M  V30 22123 O 2085.74 -1.49604 1.23823 0
M  V30 22124 C 2082.87 -2.39113 2.51877 0
M  V30 22125 C 2081.82 -2.213 3.66347 0
M  V30 22126 C 2081.15 -3.57931 3.97227 0
M  V30 22127 C 2082.45 -1.63013 4.9621 0
M  V30 22128 H 2084.14 -0.666254 2.91893 0
M  V30 22129 H 2081.69 -0.319039 1.40421 0
M  V30 22130 H 2083.64 -3.10226 2.85198 0
M  V30 22131 H 2082.37 -2.82387 1.64088 0
M  V30 22132 H 2081.02 -1.52628 3.33317 0
M  V30 22133 H 2080.67 -3.98784 3.06562 0
M  V30 22134 H 2080.37 -3.4685 4.74309 0
M  V30 22135 H 2081.9 -4.30467 4.33048 0
M  V30 22136 H 2083.31 -2.23997 5.27729 0
M  V30 22137 H 2081.71 -1.62614 5.77648 0
M  V30 22138 H 2082.78 -0.592078 4.81272 0
M  V30 22139 N 2084.12 -1.53926 -0.338317 0
M  V30 22140 C 2085.08 -1.81578 -1.39865 0
M  V30 22141 C 2086.08 -0.687011 -1.45385 0
M  V30 22142 O 2087.27 -0.955305 -1.45669 0
M  V30 22143 C 2084.41 -1.96252 -2.78744 0
M  V30 22144 H 2085.6 -2.76302 -1.16608 0
M  V30 22145 H 2083.15 -1.45418 -0.572996 0
M  V30 22146 H 2083.89 -1.03688 -3.07277 0
M  V30 22147 H 2083.67 -2.78376 -2.76133 0
M  V30 22148 H 2085.16 -2.19144 -3.5548 0
M  V30 22149 N 2085.6 0.599608 -1.45748 0
M  V30 22150 C 2086.53 1.72038 -1.57877 0
M  V30 22151 C 2087.51 1.64578 -0.429893 0
M  V30 22152 O 2088.7 1.82855 -0.654037 0
M  V30 22153 C 2085.83 3.10657 -1.55272 0
M  V30 22154 C 2084.78 3.32936 -2.68957 0
M  V30 22155 C 2084.11 4.71909 -2.51408 0
M  V30 22156 C 2085.41 3.22412 -4.10911 0
M  V30 22157 H 2087.1 1.62144 -2.51694 0
M  V30 22158 H 2084.65 0.778641 -1.21133 0
M  V30 22159 H 2086.6 3.8887 -1.62353 0
M  V30 22160 H 2085.32 3.21411 -0.579891 0
M  V30 22161 H 2083.98 2.57117 -2.61317 0
M  V30 22162 H 2083.63 4.79406 -1.52247 0
M  V30 22163 H 2083.33 4.8777 -3.2765 0
M  V30 22164 H 2084.85 5.52311 -2.60355 0
M  V30 22165 H 2086.27 3.90488 -4.19752 0
M  V30 22166 H 2084.66 3.498 -4.87607 0
M  V30 22167 H 2085.73 2.19732 -4.32256 0
M  V30 22168 N 2087.08 1.33171 0.842803 0
M  V30 22169 C 2088.01 1.2572 1.96766 0
M  V30 22170 C 2088.99 0.138574 1.69535 0
M  V30 22171 O 2090.17 0.327704 1.91415 0
M  V30 22172 C 2087.3 0.991637 3.32842 0
M  V30 22173 C 2086.26 2.07278 3.74459 0
M  V30 22174 C 2085.58 1.65942 5.08299 0
M  V30 22175 C 2086.88 3.48911 3.88662 0
M  V30 22176 H 2088.58 2.19834 2.03257 0
M  V30 22177 H 2086.12 1.05829 0.976533 0
M  V30 22178 H 2088.08 0.926021 4.111 0
M  V30 22179 H 2086.8 0.0148823 3.26597 0
M  V30 22180 H 2085.46 2.12875 2.98462 0
M  V30 22181 H 2085.11 0.669795 4.98521 0
M  V30 22182 H 2084.81 2.38288 5.37115 0
M  V30 22183 H 2086.33 1.60839 5.89036 0
M  V30 22184 H 2087.75 3.45837 4.57241 0
M  V30 22185 H 2086.14 4.1971 4.2891 0
M  V30 22186 H 2087.21 3.87705 2.91226 0
M  V30 22187 N 2088.56 -1.06056 1.16576 0
M  V30 22188 C 2089.49 -2.13555 0.832268 0
M  V30 22189 C 2090.5 -1.61997 -0.161536 0
M  V30 22190 O 2091.69 -1.78387 0.0635559 0
M  V30 22191 C 2088.79 -3.38193 0.218821 0
M  V30 22192 C 2087.96 -4.19059 1.25332 0
M  V30 22193 C 2087.02 -5.22054 0.659239 0
M  V30 22194 O 2086.05 -5.53474 1.32874 0
M  V30 22195 N 2087.25 -5.77861 -0.552882 0
M  V30 22196 H 2090.01 -2.42762 1.75745 0
M  V30 22197 H 2087.58 -1.22078 1.06342 0
M  V30 22198 H 2089.57 -4.04246 -0.191703 0
M  V30 22199 H 2088.14 -3.06591 -0.609967 0
M  V30 22200 H 2087.36 -3.48626 1.83993 0
M  V30 22201 H 2088.65 -4.69892 1.95139 0
M  V30 22202 H 2088.04 -5.54604 -1.11493 0
M  V30 22203 H 2086.6 -6.45478 -0.905585 0
M  V30 22204 N 2090.03 -0.964615 -1.24631 0
M  V30 22205 C 2091.28 -0.625742 -1.92905 0
M  V30 22206 C 2091.61 0.836529 -1.75259 0
M  V30 22207 O 2090.89 1.60146 -1.10379 0
M  V30 22208 C 2091.17 -0.997473 -3.46009 0
M  V30 22209 C 2091.02 -2.51621 -3.72836 0
M  V30 22210 C 2092.34 -0.529778 -4.369 0
M  V30 22211 H 2089.46 -0.228804 -0.700584 0
M  V30 22212 H 2092.1 -1.20306 -1.47059 0
M  V30 22213 H 2090.25 -0.506207 -3.85188 0
M  V30 22214 H 2091.93 -3.082 -3.43235 0
M  V30 22215 H 2090.17 -2.94954 -3.18095 0
M  V30 22216 H 2090.84 -2.72681 -4.79947 0
M  V30 22217 H 2093.32 -0.951326 -4.05079 0
M  V30 22218 H 2092.19 -0.818472 -5.42764 0
M  V30 22219 H 2092.45 0.570178 -4.38408 0
M  V30 22220 N 2091.51 1.39445 -0.734362 0
M  V30 22221 C 2092.47 2.28971 -0.102477 0
M  V30 22222 C 2093.47 1.46277 0.667805 0
M  V30 22223 O 2094.66 1.66962 0.496917 0
M  V30 22224 C 2091.8 3.29767 0.864107 0
M  V30 22225 H 2092.99 2.86352 -0.891208 0
M  V30 22226 H 2090.54 1.48082 -0.500154 0
M  V30 22227 H 2091.28 2.7744 1.67922 0
M  V30 22228 H 2091.06 3.90837 0.314418 0
M  V30 22229 H 2092.55 3.96757 1.30282 0
M  V30 22230 N 2092.99 0.481946 1.5005 0
M  V30 22231 C 2094.22 -0.0666474 2.06793 0
M  V30 22232 C 2094.63 -1.3254 1.34457 0
M  V30 22233 O 2093.99 -1.7767 0.417087 0
M  V30 22234 C 2094.04 -0.343693 3.59862 0
M  V30 22235 O 2093.76 0.86514 4.29473 0
M  V30 22236 C 2095.26 -0.93805 4.33261 0
M  V30 22237 H 2092.48 0.0119311 0.670894 0
M  V30 22238 H 2095.03 0.673843 1.93079 0
M  V30 22239 H 2093.18 -1.03413 3.73342 0
M  V30 22240 H 2093.6 0.616339 5.20866 0
M  V30 22241 H 2095.07 -1.0816 5.413 0
M  V30 22242 H 2095.55 -1.93098 3.94474 0
M  V30 22243 H 2096.15 -0.285663 4.2434 0
M  V30 22244 N 2094.47 -1.56127 0.214985 0
M  V30 22245 C 2095.71 -1.98129 -0.41849 0
M  V30 22246 C 2096.04 -1.10246 -1.60238 0
M  V30 22247 O 2095.3 -0.145925 -1.95155 0
M  V30 22248 C 2095.6 -3.45828 -0.902084 0
M  V30 22249 C 2095.26 -4.50577 0.170573 0
M  V30 22250 C 2093.92 -4.78945 0.465258 0
M  V30 22251 C 2096.28 -5.13434 0.896355 0
M  V30 22252 C 2093.6 -5.67455 1.49036 0
M  V30 22253 C 2095.96 -6.03053 1.91074 0
M  V30 22254 C 2094.62 -6.29768 2.21242 0
M  V30 22255 H 2093.89 -0.725004 -0.153136 0
M  V30 22256 H 2096.54 -1.88873 0.316127 0
M  V30 22257 H 2094.84 -3.52255 -1.71534 0
M  V30 22258 H 2096.54 -3.75694 -1.40196 0
M  V30 22259 H 2093.13 -4.28544 -0.0692657 0
M  V30 22260 H 2097.31 -4.91593 0.681928 0
M  V30 22261 H 2092.57 -5.8642 1.72978 0
M  V30 22262 H 2096.74 -6.50812 2.47824 0
M  V30 22263 H 2094.37 -6.9815 3.00817 0
M  V30 22264 N 2095.95 0.0584645 -1.57492 0
M  V30 22265 C 2096.89 1.06805 -2.04601 0
M  V30 22266 C 2097.86 1.37677 -0.929204 0
M  V30 22267 O 2099.05 1.48518 -1.19779 0
M  V30 22268 C 2096.19 2.37272 -2.50591 0
M  V30 22269 C 2095.3 2.12815 -3.75944 0
M  V30 22270 C 2094.44 3.36941 -4.10663 0
M  V30 22271 C 2093.47 3.07907 -5.29018 0
M  V30 22272 N 2092.61 4.24401 -5.5931 0
M  V30 22273 H 2097.45 0.659352 -2.90614 0
M  V30 22274 H 2094.99 0.313985 -1.4371 0
M  V30 22275 H 2096.95 3.13463 -2.75312 0
M  V30 22276 H 2095.58 2.75919 -1.67536 0
M  V30 22277 H 2094.63 1.27255 -3.58483 0
M  V30 22278 H 2095.94 1.87378 -4.62267 0
M  V30 22279 H 2095.09 4.21519 -4.36356 0
M  V30 22280 H 2093.83 3.65466 -3.22933 0
M  V30 22281 H 2092.84 2.21727 -5.03108 0
M  V30 22282 H 2094.06 2.80691 -6.18377 0
M  V30 22283 H 2092.01 4.52933 -4.7454 0
M  V30 22284 H 2091.93 4.02284 -6.40081 0
M  V30 22285 H 2093.19 5.09938 -5.89562 0
M  V30 22286 N 2097.42 1.54103 0.330149 0
M  V30 22287 C 2098.67 1.71653 1.06675 0
M  V30 22288 C 2098.99 0.489514 1.88756 0
M  V30 22289 O 2098.26 -0.496523 1.89503 0
M  V30 22290 H 2096.84 0.63288 0.396827 0
M  V30 22291 H 2099.5 1.91391 0.36818 0
M  V30 22292 H 2098.6 2.59328 1.73653 0
M  V30 22293 N 2098.9 -0.59187 1.46064 0
M  V30 22294 C 2100.15 -1.35033 1.52111 0
M  V30 22295 C 2100.5 -1.91676 0.166801 0
M  V30 22296 O 2099.8 -1.73006 -0.823367 0
M  V30 22297 C 2099.99 -2.50587 2.54835 0
M  V30 22298 C 2099.82 -2.05262 4.00122 0
M  V30 22299 C 2098.59 -1.90703 4.67932 0
M  V30 22300 C 2100.79 -1.61778 4.88193 0
M  V30 22301 N 2098.77 -1.39353 5.97874 0
M  V30 22302 C 2100.14 -1.21955 6.07887 0
M  V30 22303 C 2102.2 -1.49512 4.74921 0
M  V30 22304 C 2100.9 -0.710892 7.15778 0
M  V30 22305 C 2102.92 -1.0005 5.82876 0
M  V30 22306 C 2102.29 -0.612004 7.01736 0
M  V30 22307 H 2098.39 -0.487443 0.611493 0
M  V30 22308 H 2100.97 -0.674919 1.82628 0
M  V30 22309 H 2099.14 -3.15703 2.26244 0
M  V30 22310 H 2100.87 -3.17513 2.50933 0
M  V30 22311 H 2097.63 -2.1237 4.23315 0
M  V30 22312 H 2098.05 -1.15866 6.67011 0
M  V30 22313 H 2102.69 -1.78169 3.83426 0
M  V30 22314 H 2100.41 -0.411893 8.0705 0
M  V30 22315 H 2104 -0.909636 5.74645 0
M  V30 22316 H 2102.88 -0.235167 7.83847 0
M  V30 22317 N 2100.38 -1.33616 -0.835729 0
M  V30 22318 C 2101.31 -1.18471 -1.95038 0
M  V30 22319 C 2102.29 -0.0794148 -1.62406 0
M  V30 22320 O 2103.48 -0.242229 -1.86937 0
M  V30 22321 C 2100.6 -0.817792 -3.28679 0
M  V30 22322 C 2099.65 -1.93103 -3.80281 0
M  V30 22323 S 2100.48 -3.5425 -4.0158 0
M  V30 22324 C 2101.64 -3.19572 -5.38167 0
M  V30 22325 H 2101.87 -2.12826 -2.07587 0
M  V30 22326 H 2099.4 -1.18495 -0.989865 0
M  V30 22327 H 2101.36 -0.612875 -4.05899 0
M  V30 22328 H 2100.02 0.107213 -3.13917 0
M  V30 22329 H 2099.22 -1.62774 -4.76991 0
M  V30 22330 H 2098.82 -2.09277 -3.09966 0
M  V30 22331 H 2101.11 -2.70592 -6.21117 0
M  V30 22332 H 2102.05 -4.15375 -5.73471 0
M  V30 22333 H 2102.46 -2.56087 -5.0307 0
M  V30 22334 N 2101.86 1.05436 -1.17136 0
M  V30 22335 C 2103.14 1.75275 -0.868216 0
M  V30 22336 C 2103.52 2.01415 0.632074 0
M  V30 22337 O 2102.86 1.64823 1.58258 0
M  V30 22338 C 2103.07 3.04772 -1.70044 0
M  V30 22339 C 2104.42 3.78768 -1.91885 0
M  V30 22340 O 2105.45 3.14636 -1.66982 0
M  V30 22341 O 2104.3 4.94 -2.33723 0
M  V30 22342 H 2101.4 0.762066 -0.321223 0
M  V30 22343 H 2103.94 1.11627 -1.27818 0
M  V30 22344 H 2102.72 2.81485 -2.71812 0
M  V30 22345 H 2102.34 3.76157 -1.28808 0
M  V30 22346 N 2103.34 0.971211 1.24118 0
M  V30 22347 C 2104.59 0.630598 1.91589 0
M  V30 22348 C 2104.9 -0.838491 1.76716 0
M  V30 22349 O 2106.1 -1.28978 2.38908 0
M  V30 22350 C 2104.56 1.07723 3.434 0
M  V30 22351 C 2104.17 2.57002 3.66953 0
M  V30 22352 C 2105.91 0.809928 4.16702 0
M  V30 22353 C 2103.82 2.95379 5.12352 0
M  V30 22354 H 2102.75 0.232148 0.717373 0
M  V30 22355 H 2105.4 1.17789 1.40706 0
M  V30 22356 H 2103.78 0.458223 3.9334 0
M  V30 22357 H 2104.96 3.24062 3.27598 0
M  V30 22358 H 2103.27 2.8138 3.06944 0
M  V30 22359 H 2105.87 1.07262 5.23831 0
M  V30 22360 H 2106.21 -0.253899 4.15525 0
M  V30 22361 H 2106.74 1.39007 3.72722 0
M  V30 22362 H 2103.48 4.00847 5.18654 0
M  V30 22363 H 2103 2.33005 5.52692 0
M  V30 22364 H 2104.68 2.85478 5.80613 0
M  V30 22365 N 2104.81 -1.39054 0.741747 0
M  V30 22366 C 2105.75 -2.28134 0.0548289 0
M  V30 22367 C 2106.73 -1.4475 -0.740697 0
M  V30 22368 O 2107.91 -1.74132 -0.721832 0
M  V30 22369 C 2105.04 -3.25699 -0.92941 0
M  V30 22370 C 2104.08 -4.25924 -0.221557 0
M  V30 22371 S 2104.92 -5.24716 1.06927 0
M  V30 22372 C 2106.07 -6.25838 0.0878046 0
M  V30 22373 H 2106.3 -2.86046 0.810253 0
M  V30 22374 H 2103.84 -1.44878 0.533825 0
M  V30 22375 H 2105.8 -3.82427 -1.49197 0
M  V30 22376 H 2104.46 -2.66793 -1.65772 0
M  V30 22377 H 2103.65 -4.94645 -0.966549 0
M  V30 22378 H 2103.25 -3.7303 0.269156 0
M  V30 22379 H 2105.54 -6.73333 -0.750286 0
M  V30 22380 H 2106.49 -7.04198 0.742344 0
M  V30 22381 H 2106.89 -5.63767 -0.287607 0
M  V30 22382 N 2106.29 -0.489897 -1.49792 0
M  V30 22383 C 2107.52 0.055599 -2.06525 0
M  V30 22384 C 2107.93 1.32375 -1.3518 0
M  V30 22385 O 2107.27 1.78826 -0.420371 0
M  V30 22386 C 2107.34 0.390775 -3.5737 0
M  V30 22387 C 2107 -0.778051 -4.50328 0
M  V30 22388 C 2108 -1.66543 -4.92503 0
M  V30 22389 C 2105.68 -0.97371 -4.92772 0
M  V30 22390 C 2107.68 -2.73272 -5.75848 0
M  V30 22391 C 2105.36 -2.04419 -5.75896 0
M  V30 22392 C 2106.36 -2.92205 -6.17337 0
M  V30 22393 O 2106.05 -3.97407 -6.98801 0
M  V30 22394 H 2105.78 -0.012225 -0.675889 0
M  V30 22395 H 2108.33 -0.683211 -1.93704 0
M  V30 22396 H 2106.56 1.18303 -3.68159 0
M  V30 22397 H 2108.25 0.873568 -3.96388 0
M  V30 22398 H 2109.02 -1.52604 -4.60366 0
M  V30 22399 H 2104.9 -0.299832 -4.60024 0
M  V30 22400 H 2108.44 -3.41821 -6.08115 0
M  V30 22401 H 2104.34 -2.18358 -6.07446 0
M  V30 22402 H 2105.11 -3.94624 -7.17087 0
M  V30 22403 N 2107.77 1.56011 -0.223262 0
M  V30 22404 C 2108.73 2.19108 0.672641 0
M  V30 22405 C 2109.73 1.15344 1.12038 0
M  V30 22406 O 2110.92 1.40567 1.0289 0
M  V30 22407 C 2108.06 2.81576 1.92165 0
M  V30 22408 H 2109.25 2.9965 0.1225 0
M  V30 22409 H 2106.8 1.56278 0.0263484 0
M  V30 22410 H 2107.54 2.04909 2.51362 0
M  V30 22411 H 2107.32 3.57564 1.60906 0
M  V30 22412 H 2108.81 3.29937 2.55991 0
M  V30 22413 N 2109.25 -0.0501116 1.5752 0
M  V30 22414 C 2110.21 -1.0417 2.0416 0
M  V30 22415 C 2111.21 -1.30309 0.942133 0
M  V30 22416 O 2112.4 -1.25665 1.20639 0
M  V30 22417 C 2109.53 -2.37997 2.4407 0
M  V30 22418 H 2110.73 -0.639249 2.93008 0
M  V30 22419 H 2108.28 -0.296417 1.53464 0
M  V30 22420 H 2109.01 -2.83032 1.58314 0
M  V30 22421 H 2108.8 -2.2036 3.2432 0
M  V30 22422 H 2110.29 -3.09229 2.80654 0
M  V30 22423 N 2110.73 -1.54276 -0.321972 0
M  V30 22424 C 2111.97 -1.72813 -1.0613 0
M  V30 22425 C 2112.31 -0.501222 -1.8762 0
M  V30 22426 O 2111.58 0.501806 -1.87915 0
M  V30 22427 C 2111.86 -3.00469 -1.9847 0
M  V30 22428 C 2111.72 -4.33415 -1.20299 0
M  V30 22429 C 2113.04 -3.23886 -2.97969 0
M  V30 22430 H 2110.15 -0.628793 -0.384432 0
M  V30 22431 H 2112.8 -1.86973 -0.337811 0
M  V30 22432 H 2110.95 -2.88528 -2.60161 0
M  V30 22433 H 2112.62 -4.57242 -0.610559 0
M  V30 22434 H 2110.86 -4.30847 -0.505293 0
M  V30 22435 H 2111.53 -5.18959 -1.8811 0
M  V30 22436 H 2114.01 -3.353 -2.46401 0
M  V30 22437 H 2112.88 -4.14562 -3.59763 0
M  V30 22438 H 2113.15 -2.4119 -3.70513 0
M  V30 22439 N 2112.2 0.584116 -1.46376 0
M  V30 22440 C 2113.48 1.34425 -1.42089 0
M  V30 22441 C 2113.86 2.10846 -0.103623 0
M  V30 22442 O 2113.21 2.09389 0.914788 0
M  V30 22443 C 2113.42 2.27143 -2.64966 0
M  V30 22444 C 2114.77 2.89016 -3.11054 0
M  V30 22445 O 2115.79 2.37457 -2.65505 0
M  V30 22446 O 2114.65 3.82664 -3.90167 0
M  V30 22447 H 2111.74 0.603918 -0.564989 0
M  V30 22448 H 2114.29 0.605251 -1.5854 0
M  V30 22449 H 2113.06 1.70093 -3.52398 0
M  V30 22450 H 2112.69 3.08385 -2.50967 0
M  V30 22451 N 2113.68 1.34058 0.828631 0
M  V30 22452 C 2114.91 1.29306 1.62156 0
M  V30 22453 C 2115.33 -0.131256 1.87641 0
M  V30 22454 O 2114.69 -1.09118 1.44786 0
M  V30 22455 C 2114.74 2.08394 2.94286 0
M  V30 22456 O 2113.84 1.44955 3.86085 0
M  V30 22457 H 2113.18 0.444364 0.493393 0
M  V30 22458 H 2115.71 1.76775 1.03014 0
M  V30 22459 H 2115.72 2.19539 3.43899 0
M  V30 22460 H 2114.4 3.11953 2.7506 0
M  V30 22461 H 2112.98 1.42518 3.44591 0
M  V30 22462 N 2115.16 -1.04814 1.17694 0
M  V30 22463 C 2116.58 -1.3006 0.925018 0
M  V30 22464 C 2116.78 -1.97207 -0.4137 0
M  V30 22465 O 2115.83 -2.24802 -1.14979 0
M  V30 22466 C 2117.15 -2.16666 2.0851 0
M  V30 22467 C 2118.69 -2.30036 2.12256 0
M  V30 22468 C 2119.17 -3.20004 3.27661 0
M  V30 22469 N 2120.66 -3.2759 3.27473 0
M  V30 22470 C 2121.4 -3.97339 4.13412 0
M  V30 22471 N 2120.89 -4.69483 5.09468 0
M  V30 22472 N 2122.68 -3.93542 4.01349 0
M  V30 22473 H 2114.84 -0.596316 2.03857 0
M  V30 22474 H 2117.1 -0.325581 0.890338 0
M  V30 22475 H 2116.8 -1.74624 3.05286 0
M  V30 22476 H 2116.68 -3.17317 2.03936 0
M  V30 22477 H 2119.07 -2.71318 1.16063 0
M  V30 22478 H 2119.15 -1.29001 2.2089 0
M  V30 22479 H 2118.79 -2.79435 4.24121 0
M  V30 22480 H 2118.72 -4.21053 3.16263 0
M  V30 22481 H 2121.21 -2.76191 2.57928 0
M  V30 22482 H 2121.52 -5.20277 5.7143 0
M  V30 22483 H 2119.87 -4.68413 5.13434 0
M  V30 22484 H 2123.06 -3.36308 3.25599 0
M  V30 22485 H 2123.23 -4.4763 4.68542 0
M  V30 22486 N 2116.64 -0.977779 -1.23601 0
M  V30 22487 C 2117.89 -0.643936 -1.91567 0
M  V30 22488 C 2118.21 0.824798 -1.76698 0
M  V30 22489 O 2117.48 1.58974 -1.14473 0
M  V30 22490 H 2116.06 -0.235177 -0.709014 0
M  V30 22491 H 2118.72 -1.24103 -1.50282 0
M  V30 22492 H 2117.82 -0.893282 -2.99043 0
M  V30 22493 N 2118.12 1.38658 -0.749111 0
M  V30 22494 C 2119.35 2.04208 -0.313503 0
M  V30 22495 C 2119.76 1.56615 1.06153 0
M  V30 22496 O 2119.1 0.732462 1.68466 0
M  V30 22497 C 2119.16 3.58611 -0.252636 0
M  V30 22498 C 2118.82 4.29241 -1.56847 0
M  V30 22499 C 2119.82 4.5492 -2.51683 0
M  V30 22500 C 2117.51 4.67517 -1.83667 0
M  V30 22501 C 2119.5 5.17901 -3.71561 0
M  V30 22502 C 2117.19 5.30223 -3.0382 0
M  V30 22503 C 2118.19 5.5535 -3.97587 0
M  V30 22504 O 2117.87 6.16752 -5.15628 0
M  V30 22505 H 2117.61 0.662881 -0.132533 0
M  V30 22506 H 2120.16 1.7842 -1.01762 0
M  V30 22507 H 2118.39 3.83353 0.507689 0
M  V30 22508 H 2120.08 4.05612 0.152857 0
M  V30 22509 H 2120.84 4.25783 -2.32237 0
M  V30 22510 H 2116.72 4.47308 -1.1152 0
M  V30 22511 H 2120.27 5.37429 -4.44765 0
M  V30 22512 H 2116.16 5.58783 -3.2316 0
M  V30 22513 H 2116.93 6.35241 -5.1615 0
M  V30 22514 N 2119.6 0.497834 1.49531 0
M  V30 22515 C 2120.51 -0.286926 2.32839 0
M  V30 22516 C 2121.52 -0.970397 1.44427 0
M  V30 22517 O 2122.7 -0.952478 1.77454 0
M  V30 22518 C 2119.76 -1.33928 3.19788 0
M  V30 22519 C 2118.82 -0.669588 4.24046 0
M  V30 22520 C 2118.06 -1.67181 5.0684 0
M  V30 22521 O 2118.28 -2.90132 4.91101 0
M  V30 22522 O 2117.21 -1.22887 5.89222 0
M  V30 22523 H 2121.04 0.394869 3.01122 0
M  V30 22524 H 2118.62 0.259218 1.47134 0
M  V30 22525 H 2120.51 -1.94822 3.73661 0
M  V30 22526 H 2119.18 -2.00407 2.54202 0
M  V30 22527 H 2118.09 -0.0209922 3.74094 0
M  V30 22528 H 2119.42 -0.0473067 4.92177 0
M  V30 22529 N 2121.07 -1.5589 0.231532 0
M  V30 22530 C 2121.98 -2.24359 -0.685566 0
M  V30 22531 C 2123 -1.25454 -1.20571 0
M  V30 22532 O 2124.18 -1.58292 -1.24522 0
M  V30 22533 C 2121.24 -2.91783 -1.87252 0
M  V30 22534 C 2120.3 -4.06059 -1.39337 0
M  V30 22535 C 2119.53 -4.70258 -2.52375 0
M  V30 22536 O 2119.76 -4.33477 -3.70747 0
M  V30 22537 O 2118.69 -5.59063 -2.23008 0
M  V30 22538 H 2122.52 -3.03412 -0.132235 0
M  V30 22539 H 2120.1 -1.494 0.000664697 0
M  V30 22540 H 2121.98 -3.34305 -2.56551 0
M  V30 22541 H 2120.66 -2.15683 -2.41377 0
M  V30 22542 H 2119.57 -3.68086 -0.668112 0
M  V30 22543 H 2120.9 -4.83932 -0.898393 0
M  V30 22544 N 2122.55 0.0417572 -1.57545 0
M  V30 22545 C 2123.48 1.07361 -2.025 0
M  V30 22546 C 2124.5 1.33224 -0.935692 0
M  V30 22547 O 2125.69 1.30935 -1.21319 0
M  V30 22548 C 2122.79 2.41809 -2.37448 0
M  V30 22549 C 2121.96 2.35482 -3.68601 0
M  V30 22550 C 2121.02 3.52277 -3.90881 0
M  V30 22551 O 2120.04 3.32344 -4.621 0
M  V30 22552 N 2121.25 4.73702 -3.35539 0
M  V30 22553 H 2124.01 0.690538 -2.91636 0
M  V30 22554 H 2121.57 0.229926 -1.60259 0
M  V30 22555 H 2123.56 3.18641 -2.495 0
M  V30 22556 H 2122.13 2.72008 -1.54047 0
M  V30 22557 H 2121.35 1.43834 -3.67022 0
M  V30 22558 H 2122.64 2.28384 -4.54663 0
M  V30 22559 H 2122.04 4.92798 -2.77788 0
M  V30 22560 H 2120.6 5.47941 -3.52992 0
M  V30 22561 N 2124.03 1.54445 0.313786 0
M  V30 22562 C 2125.44 1.64251 0.887611 0
M  V30 22563 C 2125.79 0.542877 1.8854 0
M  V30 22564 O 2124.92 -0.322627 2.13981 0
M  V30 22565 C 2125.51 2.97739 1.61668 0
M  V30 22566 C 2124.07 3.09709 2.13909 0
M  V30 22567 C 2123.22 2.5987 0.967618 0
M  V30 22568 H 2126.17 1.58438 0.091111 0
M  V30 22569 H 2126.19 2.88447 2.4815 0
M  V30 22570 H 2125.7 3.77752 0.890231 0
M  V30 22571 H 2123.8 2.34391 2.89641 0
M  V30 22572 H 2123.92 4.15667 2.38239 0
M  V30 22573 H 2122.28 2.16006 1.34957 0
M  V30 22574 H 2123.06 3.42349 0.255325 0
M  V30 22575 N 2125.51 -0.576345 1.46683 0
M  V30 22576 C 2126.44 -1.69965 1.53768 0
M  V30 22577 C 2127.45 -1.57142 0.425462 0
M  V30 22578 O 2128.64 -1.6445 0.694142 0
M  V30 22579 C 2125.74 -3.08273 1.40788 0
M  V30 22580 C 2124.91 -3.47036 2.66242 0
M  V30 22581 C 2123.97 -4.6443 2.47369 0
M  V30 22582 O 2123 -4.69971 3.21117 0
M  V30 22583 N 2124.2 -5.59714 1.53948 0
M  V30 22584 H 2126.97 -1.6434 2.50624 0
M  V30 22585 H 2124.53 -0.762495 1.4282 0
M  V30 22586 H 2126.52 -3.8461 1.25925 0
M  V30 22587 H 2125.09 -3.0823 0.520883 0
M  V30 22588 H 2124.31 -2.6034 2.96001 0
M  V30 22589 H 2125.6 -3.69703 3.49567 0
M  V30 22590 H 2125 -5.57979 0.931464 0
M  V30 22591 H 2123.55 -6.35456 1.45046 0
M  V30 22592 N 2126.99 -1.34495 -0.82151 0
M  V30 22593 C 2128.23 -1.28128 -1.57971 0
M  V30 22594 C 2128.59 0.147107 -1.91837 0
M  V30 22595 O 2127.88 1.09374 -1.57315 0
M  V30 22596 C 2128.07 -2.10695 -2.88691 0
M  V30 22597 C 2127.9 -3.61418 -2.67595 0
M  V30 22598 C 2126.67 -4.30694 -2.64256 0
M  V30 22599 C 2128.87 -4.55388 -2.39011 0
M  V30 22600 N 2126.85 -5.67256 -2.3472 0
M  V30 22601 C 2128.22 -5.79965 -2.19181 0
M  V30 22602 C 2130.28 -4.44288 -2.2475 0
M  V30 22603 C 2128.98 -6.94692 -1.86537 0
M  V30 22604 C 2131.01 -5.58848 -1.93501 0
M  V30 22605 C 2130.37 -6.82444 -1.74496 0
M  V30 22606 H 2126.47 -0.52409 -0.580391 0
M  V30 22607 H 2129.05 -1.69222 -0.96291 0
M  V30 22608 H 2127.22 -1.71896 -3.48291 0
M  V30 22609 H 2128.96 -1.95962 -3.54092 0
M  V30 22610 H 2125.71 -3.83147 -2.78379 0
M  V30 22611 H 2126.13 -6.39292 -2.22788 0
M  V30 22612 H 2130.78 -3.4935 -2.38148 0
M  V30 22613 H 2128.49 -7.8961 -1.71877 0
M  V30 22614 H 2132.08 -5.52205 -1.83197 0
M  V30 22615 H 2130.96 -7.6959 -1.50667 0
M  V30 22616 N 2128.46 1.04188 -1.18248 0
M  V30 22617 C 2129.37 2.15666 -0.923339 0
M  V30 22618 C 2130.39 1.73638 0.112112 0
M  V30 22619 O 2131.57 2.0128 -0.0695153 0
M  V30 22620 C 2128.63 3.43751 -0.451239 0
M  V30 22621 C 2127.69 4.00167 -1.55451 0
M  V30 22622 C 2126.93 5.22139 -1.10484 0
M  V30 22623 O 2127.15 5.70388 0.0369453 0
M  V30 22624 O 2126.08 5.71056 -1.90207 0
M  V30 22625 H 2129.91 2.40381 -1.85609 0
M  V30 22626 H 2127.49 1.14121 -0.9642 0
M  V30 22627 H 2129.38 4.20944 -0.195977 0
M  V30 22628 H 2128.05 3.20511 0.45323 0
M  V30 22629 H 2126.96 3.24368 -1.86377 0
M  V30 22630 H 2128.29 4.27745 -2.43506 0
M  V30 22631 N 2129.94 0.98432 1.23081 0
M  V30 22632 C 2131.17 0.672559 1.95346 0
M  V30 22633 C 2131.58 -0.765295 1.73031 0
M  V30 22634 O 2130.92 -1.52708 1.02108 0
M  V30 22635 C 2130.99 0.887951 3.48361 0
M  V30 22636 C 2130.65 2.30863 3.944 0
M  V30 22637 C 2131.65 3.28757 4.02759 0
M  V30 22638 C 2129.33 2.64077 4.27281 0
M  V30 22639 C 2131.33 4.57943 4.43358 0
M  V30 22640 C 2129.01 3.93485 4.67561 0
M  V30 22641 C 2130.01 4.9023 4.75567 0
M  V30 22642 O 2129.7 6.17327 5.1494 0
M  V30 22643 H 2129.43 0.248593 0.628631 0
M  V30 22644 H 2131.98 1.31942 1.57418 0
M  V30 22645 H 2130.21 0.183919 3.86262 0
M  V30 22646 H 2131.9 0.572752 4.01839 0
M  V30 22647 H 2132.67 3.04428 3.77556 0
M  V30 22648 H 2128.55 1.89483 4.20258 0
M  V30 22649 H 2132.09 5.33456 4.49522 0
M  V30 22650 H 2127.99 4.17607 4.92214 0
M  V30 22651 H 2128.76 6.21137 5.3304 0
M  V30 22652 N 2131.42 -1.38259 0.756453 0
M  V30 22653 C 2132.37 -2.3229 0.120051 0
M  V30 22654 C 2133.36 -1.54164 -0.702119 0
M  V30 22655 O 2134.57 -1.69674 -0.600895 0
M  V30 22656 H 2130.94 -0.751733 0.0200275 0
M  V30 22657 H 2132.91 -2.83566 0.929131 0
M  V30 22658 C 2131.66 -3.39368 -0.756628 0
M  V30 22659 H 2130.99 -3.99577 -0.133366 0
M  V30 22660 H 2132.43 -4.07562 -1.16916 0
M  V30 22661 C 2130.89 -2.78176 -1.90051 0
M  V30 22662 O 2131.42 -2.67711 -2.99489 0
M  V30 22663 N 2129.62 -2.35944 -1.69644 0
M  V30 22664 H 2129.17 -2.44655 -0.806323 0
M  V30 22665 H 2129.13 -1.95344 -2.46349 0
M  V30 22666 N 2132.9 -0.505757 -1.49264 0
M  V30 22667 C 2133.83 0.259368 -2.32055 0
M  V30 22668 C 2134.81 0.95808 -1.40552 0
M  V30 22669 O 2135.99 0.948562 -1.69458 0
M  V30 22670 C 2133.12 1.32138 -3.2118 0
M  V30 22671 C 2132.08 0.742267 -4.21514 0
M  V30 22672 C 2131.4 1.90515 -4.99608 0
M  V30 22673 C 2132.7 -0.269866 -5.21602 0
M  V30 22674 H 2134.4 -0.431697 -2.96271 0
M  V30 22675 H 2131.94 -0.209055 -1.42474 0
M  V30 22676 H 2133.9 1.86441 -3.77912 0
M  V30 22677 H 2132.62 2.0417 -2.54916 0
M  V30 22678 H 2131.28 0.220956 -3.65934 0
M  V30 22679 H 2130.93 2.61327 -4.29788 0
M  V30 22680 H 2130.63 1.52371 -5.67501 0
M  V30 22681 H 2132.15 2.45242 -5.59186 0
M  V30 22682 H 2133.57 0.18519 -5.73001 0
M  V30 22683 H 2131.96 -0.567397 -5.97412 0
M  V30 22684 H 2133.03 -1.18411 -4.7022 0
M  V30 22685 N 2134.38 1.55765 -0.239796 0
M  V30 22686 C 2135.61 2.02872 0.390693 0
M  V30 22687 C 2136.01 1.11855 1.52595 0
M  V30 22688 O 2135.36 0.123985 1.83281 0
M  V30 22689 C 2135.42 3.46259 0.966699 0
M  V30 22690 C 2135.08 4.56986 -0.0354088 0
M  V30 22691 C 2136.08 5.1303 -0.842397 0
M  V30 22692 C 2133.77 5.02047 -0.159444 0
M  V30 22693 C 2135.76 6.12621 -1.75995 0
M  V30 22694 C 2133.45 6.01472 -1.08051 0
M  V30 22695 C 2134.44 6.56637 -1.87929 0
M  V30 22696 O 2134.13 7.54123 -2.78484 0
M  V30 22697 H 2133.86 0.668881 0.0978453 0
M  V30 22698 H 2136.42 2.02236 -0.359131 0
M  V30 22699 H 2134.65 3.44022 1.76595 0
M  V30 22700 H 2136.34 3.76907 1.50652 0
M  V30 22701 H 2137.1 4.79054 -0.757119 0
M  V30 22702 H 2132.98 4.58777 0.452213 0
M  V30 22703 H 2136.53 6.55605 -2.38385 0
M  V30 22704 H 2132.42 6.34868 -1.16674 0
M  V30 22705 H 2133.19 7.71713 -2.72765 0
M  V30 22706 N 2135.85 -0.0334016 1.57565 0
M  V30 22707 C 2136.79 -1.06832 2.01649 0
M  V30 22708 C 2137.77 -1.35418 0.900045 0
M  V30 22709 O 2138.95 -1.48147 1.16553 0
M  V30 22710 C 2136.08 -2.40405 2.38586 0
M  V30 22711 C 2135.12 -2.27704 3.60629 0
M  V30 22712 S 2135.96 -1.63459 5.09943 0
M  V30 22713 C 2137.11 -2.98531 5.50118 0
M  V30 22714 H 2137.34 -0.692807 2.89115 0
M  V30 22715 H 2134.88 -0.243236 1.52472 0
M  V30 22716 H 2136.84 -3.17222 2.60538 0
M  V30 22717 H 2135.5 -2.75105 1.51579 0
M  V30 22718 H 2134.69 -3.263 3.84115 0
M  V30 22719 H 2134.29 -1.59029 3.38505 0
M  V30 22720 H 2136.58 -3.94861 5.50537 0
M  V30 22721 H 2137.53 -2.79783 6.50482 0
M  V30 22722 H 2137.93 -3.00904 4.77616 0
M  V30 22723 N 2137.33 -1.54609 -0.305591 0
M  V30 22724 C 2138.56 -1.774 -1.05891 0
M  V30 22725 C 2138.97 -0.531327 -1.81586 0
M  V30 22726 O 2138.31 0.508271 -1.76528 0
M  V30 22727 C 2138.38 -2.9256 -2.08923 0
M  V30 22728 C 2138.04 -4.30818 -1.52464 0
M  V30 22729 C 2139.04 -5.11015 -0.957049 0
M  V30 22730 C 2136.72 -4.77407 -1.56165 0
M  V30 22731 C 2138.72 -6.35921 -0.433983 0
M  V30 22732 C 2136.4 -6.02276 -1.03471 0
M  V30 22733 C 2137.4 -6.81368 -0.471844 0
M  V30 22734 O 2137.09 -8.03886 0.047115 0
M  V30 22735 H 2136.82 -0.595455 -0.320014 0
M  V30 22736 H 2139.37 -2.02364 -0.35183 0
M  V30 22737 H 2137.6 -2.6321 -2.83298 0
M  V30 22738 H 2139.29 -3.02969 -2.70119 0
M  V30 22739 H 2140.06 -4.76167 -0.921391 0
M  V30 22740 H 2135.94 -4.15877 -1.98915 0
M  V30 22741 H 2139.48 -6.976 0.00600517 0
M  V30 22742 H 2135.38 -6.36612 -1.0675 0
M  V30 22743 H 2136.15 -8.18473 -0.0666184 0
M  V30 22744 N 2138.81 0.568558 -1.46987 0
M  V30 22745 C 2140.06 1.32251 -1.52291 0
M  V30 22746 C 2140.37 1.94723 -0.184983 0
M  V30 22747 O 2141.58 2.71252 -0.115932 0
M  V30 22748 C 2140.03 2.3976 -2.68408 0
M  V30 22749 C 2139.64 1.83528 -4.08682 0
M  V30 22750 C 2141.39 3.16408 -2.82996 0
M  V30 22751 C 2139.29 2.88751 -5.16117 0
M  V30 22752 H 2138.22 0.497223 -0.56682 0
M  V30 22753 H 2140.87 0.605168 -1.73234 0
M  V30 22754 H 2139.26 3.14357 -2.40823 0
M  V30 22755 H 2140.43 1.1538 -4.46121 0
M  V30 22756 H 2138.75 1.19503 -3.98884 0
M  V30 22757 H 2141.34 3.94962 -3.60429 0
M  V30 22758 H 2141.69 3.69886 -1.91024 0
M  V30 22759 H 2142.22 2.4892 -3.10296 0
M  V30 22760 H 2138.96 2.40142 -6.09928 0
M  V30 22761 H 2138.48 3.55345 -4.83208 0
M  V30 22762 H 2140.16 3.52449 -5.42576 0
M  V30 22763 N 2140.29 1.34929 0.814366 0
M  V30 22764 C 2141.52 1.30673 1.60025 0
M  V30 22765 C 2141.93 -0.119552 1.88822 0
M  V30 22766 O 2141.27 -1.07963 1.48626 0
M  V30 22767 C 2141.33 2.0381 2.96145 0
M  V30 22768 C 2141 3.53033 2.90201 0
M  V30 22769 C 2141.99 4.47776 2.64183 0
M  V30 22770 C 2139.68 3.9557 3.09564 0
M  V30 22771 C 2141.67 5.83031 2.57592 0
M  V30 22772 C 2139.36 5.30923 3.02596 0
M  V30 22773 C 2140.36 6.24465 2.76645 0
M  V30 22774 O 2140.04 7.57336 2.69626 0
M  V30 22775 H 2139.78 0.450688 0.503842 0
M  V30 22776 H 2142.33 1.78247 1.02064 0
M  V30 22777 H 2140.56 1.50862 3.56058 0
M  V30 22778 H 2142.25 1.92733 3.57224 0
M  V30 22779 H 2143.02 4.16231 2.48951 0
M  V30 22780 H 2138.89 3.23151 3.28777 0
M  V30 22781 H 2142.44 6.56015 2.37256 0
M  V30 22782 H 2138.34 5.62083 3.17384 0
M  V30 22783 H 2139.1 7.67171 2.8529 0
M  V30 22784 N 2141.77 -1.0356 1.18799 0
M  V30 22785 C 2143.01 -1.76847 0.986484 0
M  V30 22786 C 2143.34 -1.88397 -0.483413 0
M  V30 22787 O 2142.6 -1.39239 -1.37517 0
M  V30 22788 C 2142.9 -3.19959 1.59252 0
M  V30 22789 C 2142.56 -3.28431 3.0894 0
M  V30 22790 C 2141.22 -3.30451 3.49794 0
M  V30 22791 C 2143.58 -3.2812 4.04953 0
M  V30 22792 C 2140.9 -3.29807 4.85226 0
M  V30 22793 C 2143.26 -3.29016 5.40306 0
M  V30 22794 C 2141.92 -3.2933 5.80601 0
M  V30 22795 H 2141.19 -0.647128 0.36098 0
M  V30 22796 H 2143.84 -1.21597 1.47941 0
M  V30 22797 H 2142.14 -3.78243 1.02172 0
M  V30 22798 H 2143.84 -3.75319 1.41197 0
M  V30 22799 H 2140.43 -3.27583 2.76382 0
M  V30 22800 H 2144.61 -3.25746 3.74437 0
M  V30 22801 H 2139.87 -3.2837 5.15736 0
M  V30 22802 H 2144.04 -3.27726 6.14466 0
M  V30 22803 H 2141.67 -3.28585 6.85519 0
M  V30 22804 N 2143.25 -0.990834 -1.22557 0
M  V30 22805 C 2144.49 -0.666519 -1.91534 0
M  V30 22806 C 2144.82 0.799165 -1.76994 0
M  V30 22807 O 2144.1 1.57769 -1.13751 0
M  V30 22808 C 2144.38 -1.07064 -3.43816 0
M  V30 22809 C 2144.24 -2.59473 -3.67415 0
M  V30 22810 C 2145.55 -0.622332 -4.35678 0
M  V30 22811 H 2142.67 -0.243613 -0.695573 0
M  V30 22812 H 2145.32 -1.23399 -1.44474 0
M  V30 22813 H 2143.47 -0.587797 -3.84028 0
M  V30 22814 H 2145.14 -3.15412 -3.3662 0
M  V30 22815 H 2143.38 -3.01635 -3.11767 0
M  V30 22816 H 2144.05 -2.828 -4.74055 0
M  V30 22817 H 2146.53 -1.03704 -4.0297 0
M  V30 22818 H 2145.4 -0.933416 -5.40905 0
M  V30 22819 H 2145.66 0.477057 -4.39519 0
M  V30 22820 N 2144.72 1.37856 -0.763775 0
M  V30 22821 C 2145.97 1.99126 -0.321223 0
M  V30 22822 C 2146.29 1.61318 1.10615 0
M  V30 22823 O 2147.49 2.15633 1.64969 0
M  V30 22824 C 2145.95 3.56074 -0.523371 0
M  V30 22825 C 2145.56 4.02826 -1.96049 0
M  V30 22826 C 2147.3 4.24256 -0.144043 0
M  V30 22827 C 2145.21 5.52454 -2.11066 0
M  V30 22828 H 2144.14 0.744968 -0.116357 0
M  V30 22829 H 2146.79 1.5749 -0.941769 0
M  V30 22830 H 2145.17 3.9565 0.166513 0
M  V30 22831 H 2146.34 3.74515 -2.68468 0
M  V30 22832 H 2144.66 3.47402 -2.29567 0
M  V30 22833 H 2147.26 5.34184 -0.234865 0
M  V30 22834 H 2147.6 4.06351 0.904676 0
M  V30 22835 H 2148.13 3.89954 -0.786169 0
M  V30 22836 H 2144.87 5.75275 -3.14228 0
M  V30 22837 H 2144.39 5.82474 -1.43121 0
M  V30 22838 H 2146.07 6.18305 -1.90546 0
M  V30 22839 N 2146.2 0.513665 1.48994 0
M  V30 22840 C 2147.45 -0.0263341 2.02483 0
M  V30 22841 C 2147.78 -1.35817 1.39226 0
M  V30 22842 O 2147.03 -1.88621 0.5216 0
M  V30 22843 C 2147.33 -0.214329 3.56757 0
M  V30 22844 C 2147 1.0411 4.38716 0
M  V30 22845 C 2145.66 1.3852 4.60832 0
M  V30 22846 C 2148.01 1.87499 4.86306 0
M  V30 22847 C 2145.34 2.56248 5.27782 0
M  V30 22848 C 2147.69 3.04392 5.54553 0
M  V30 22849 C 2146.35 3.39167 5.7491 0
M  V30 22850 H 2145.62 -0.00963634 0.740937 0
M  V30 22851 H 2148.27 0.676388 1.79157 0
M  V30 22852 H 2146.58 -0.999685 3.78832 0
M  V30 22853 H 2148.27 -0.646802 3.95749 0
M  V30 22854 H 2144.86 0.763083 4.21752 0
M  V30 22855 H 2149.05 1.62228 4.69037 0
M  V30 22856 H 2144.3 2.83413 5.41744 0
M  V30 22857 H 2148.48 3.69325 5.904 0
M  V30 22858 H 2146.1 4.30492 6.26562 0
M  V30 22859 N 2147.68 -1.55636 0.248053 0
M  V30 22860 C 2148.93 -1.98148 -0.376864 0
M  V30 22861 C 2149.24 -1.13944 -1.58984 0
M  V30 22862 O 2150.45 -1.46475 -2.28598 0
M  V30 22863 C 2148.9 -3.52586 -0.721883 0
M  V30 22864 C 2148.51 -4.4553 0.469765 0
M  V30 22865 C 2150.26 -4.03751 -1.31093 0
M  V30 22866 C 2148.16 -5.91314 0.100837 0
M  V30 22867 H 2147.09 -0.740008 -0.144582 0
M  V30 22868 H 2149.74 -1.80161 0.348451 0
M  V30 22869 H 2148.13 -3.66272 -1.50536 0
M  V30 22870 H 2149.3 -4.43604 1.24708 0
M  V30 22871 H 2147.61 -4.04853 0.973816 0
M  V30 22872 H 2150.21 -5.10191 -1.6003 0
M  V30 22873 H 2150.55 -3.51167 -2.23578 0
M  V30 22874 H 2151.09 -3.93395 -0.590329 0
M  V30 22875 H 2147.83 -6.47937 0.992861 0
M  V30 22876 H 2147.35 -5.96373 -0.640255 0
M  V30 22877 H 2149.03 -6.46225 -0.316571 0
M  V30 22878 N 2149.16 0.0250451 -1.5758 0
M  V30 22879 C 2150.41 0.714108 -1.88636 0
M  V30 22880 C 2150.72 1.76305 -0.847099 0
M  V30 22881 O 2151.93 2.50499 -1.04702 0
M  V30 22882 C 2150.38 1.3212 -3.34772 0
M  V30 22883 C 2149.99 0.308393 -4.46937 0
M  V30 22884 C 2151.73 1.98991 -3.74971 0
M  V30 22885 C 2149.64 0.924059 -5.84136 0
M  V30 22886 H 2148.57 0.270472 -0.703819 0
M  V30 22887 H 2151.22 -0.0313912 -1.83473 0
M  V30 22888 H 2149.6 2.11654 -3.34692 0
M  V30 22889 H 2150.78 -0.460527 -4.58493 0
M  V30 22890 H 2149.09 -0.258451 -4.15597 0
M  V30 22891 H 2151.69 2.45913 -4.74796 0
M  V30 22892 H 2152.03 2.8098 -3.07174 0
M  V30 22893 H 2152.57 1.26226 -3.77242 0
M  V30 22894 H 2149.3 0.143492 -6.55343 0
M  V30 22895 H 2148.82 1.66272 -5.76293 0
M  V30 22896 H 2150.5 1.4302 -6.30995 0
M  V30 22897 N 2150.64 1.54769 0.297388 0
M  V30 22898 C 2151.88 1.74221 1.03214 0
M  V30 22899 C 2152.21 0.529956 1.87141 0
M  V30 22900 O 2151.47 -0.488036 1.89517 0
M  V30 22901 C 2151.76 2.98592 1.96412 0
M  V30 22902 C 2151.43 4.32222 1.28433 0
M  V30 22903 C 2150.09 4.68546 1.09626 0
M  V30 22904 C 2152.44 5.15045 0.798634 0
M  V30 22905 C 2149.77 5.8527 0.409394 0
M  V30 22906 C 2152.12 6.32476 0.125474 0
M  V30 22907 C 2150.79 6.67458 -0.0745188 0
M  V30 22908 H 2150.06 0.637521 0.377688 0
M  V30 22909 H 2152.71 1.89028 0.306675 0
M  V30 22910 H 2151.01 2.78581 2.75499 0
M  V30 22911 H 2152.71 3.10837 2.5334 0
M  V30 22912 H 2149.3 4.03658 1.44078 0
M  V30 22913 H 2153.48 4.87477 0.931633 0
M  V30 22914 H 2148.74 6.10915 0.243492 0
M  V30 22915 H 2152.91 6.95919 -0.258751 0
M  V30 22916 H 2150.54 7.57759 -0.608755 0
M  V30 22917 N 2152.11 -0.560755 1.47286 0
M  V30 22918 C 2153.36 -1.31548 1.53426 0
M  V30 22919 C 2153.68 -1.94006 0.196648 0
M  V30 22920 O 2152.95 -1.79743 -0.779049 0
M  V30 22921 H 2151.53 -0.488493 0.565141 0
M  V30 22922 H 2154.19 -0.655071 1.83562 0
M  V30 22923 H 2153.29 -2.11085 2.2989 0
M  V30 22924 N 2153.59 -1.35359 -0.807199 0
M  V30 22925 C 2154.82 -1.31869 -1.60079 0
M  V30 22926 C 2155.24 0.101387 -1.87827 0
M  V30 22927 O 2154.6 1.06801 -1.46503 0
M  V30 22928 C 2154.65 -2.13049 -2.90934 0
M  V30 22929 O 2153.75 -1.51079 -3.8373 0
M  V30 22930 H 2153.09 -0.452158 -0.486261 0
M  V30 22931 H 2155.62 -1.78391 -1.00189 0
M  V30 22932 H 2155.63 -2.24982 -3.40363 0
M  V30 22933 H 2154.31 -3.16289 -2.70063 0
M  V30 22934 H 2152.88 -1.47982 -3.4228 0
M  V30 22935 N 2155.07 1.02928 -1.19346 0
M  V30 22936 C 2156.32 1.76321 -0.995848 0
M  V30 22937 C 2156.64 1.88651 0.473415 0
M  V30 22938 O 2155.9 1.39967 1.36776 0
M  V30 22939 C 2156.2 3.1911 -1.60946 0
M  V30 22940 C 2155.86 3.26788 -3.10677 0
M  V30 22941 C 2154.53 3.28591 -3.51541 0
M  V30 22942 C 2156.88 3.25968 -4.06687 0
M  V30 22943 C 2154.21 3.27229 -4.86968 0
M  V30 22944 C 2156.56 3.26146 -5.42044 0
M  V30 22945 C 2155.22 3.26247 -5.8234 0
M  V30 22946 H 2154.49 0.645204 -0.364407 0
M  V30 22947 H 2157.14 1.20811 -1.48584 0
M  V30 22948 H 2155.44 3.77696 -1.04177 0
M  V30 22949 H 2157.14 3.74565 -1.43185 0
M  V30 22950 H 2153.73 3.26113 -2.78116 0
M  V30 22951 H 2157.92 3.23756 -3.76159 0
M  V30 22952 H 2153.17 3.2563 -5.1747 0
M  V30 22953 H 2157.35 3.24462 -6.16196 0
M  V30 22954 H 2154.97 3.24945 -6.87252 0
M  V30 22955 N 2156.55 0.997319 1.2203 0
M  V30 22956 C 2157.79 0.675666 1.90895 0
M  V30 22957 C 2158.12 -0.792764 1.77611 0
M  V30 22958 O 2157.38 -1.58936 1.14183 0
M  V30 22959 C 2157.68 1.0329 3.42149 0
M  V30 22960 C 2157.34 2.49432 3.75625 0
M  V30 22961 C 2156 2.89368 3.84473 0
M  V30 22962 C 2158.36 3.44136 3.91433 0
M  V30 22963 C 2155.68 4.22987 4.0657 0
M  V30 22964 C 2158.04 4.77419 4.15035 0
M  V30 22965 C 2156.7 5.17089 4.22108 0
M  V30 22966 H 2155.97 0.247244 0.698535 0
M  V30 22967 H 2158.62 1.25433 1.44703 0
M  V30 22968 H 2156.92 0.372375 3.90026 0
M  V30 22969 H 2158.62 0.761993 3.93694 0
M  V30 22970 H 2155.21 2.17479 3.69325 0
M  V30 22971 H 2159.39 3.14451 3.83972 0
M  V30 22972 H 2154.65 4.53305 4.10274 0
M  V30 22973 H 2158.82 5.50743 4.2621 0
M  V30 22974 H 2156.45 6.20643 4.38983 0
M  V30 22975 N 2158.03 -1.37449 0.771075 0
M  V30 22976 C 2159.25 -2.03979 0.346453 0
M  V30 22977 C 2159.67 -1.58156 -1.03113 0
M  V30 22978 O 2159.03 -0.762511 -1.65807 0
M  V30 22979 C 2159.08 -3.595 0.379748 0
M  V30 22980 O 2158.8 -4.03646 1.70298 0
M  V30 22981 C 2160.3 -4.43264 -0.0565544 0
M  V30 22982 H 2157.52 -0.655084 0.145281 0
M  V30 22983 H 2160.06 -1.75795 1.04481 0
M  V30 22984 H 2158.22 -3.86458 -0.270023 0
M  V30 22985 H 2158.63 -4.98163 1.64115 0
M  V30 22986 H 2160.11 -5.51997 0.0178961 0
M  V30 22987 H 2160.58 -4.25025 -1.10683 0
M  V30 22988 H 2161.19 -4.2153 0.565003 0
M  V30 22989 N 2159.5 -0.52156 -1.4872 0
M  V30 22990 C 2160.43 0.234741 -2.32317 0
M  V30 22991 C 2161.42 0.943119 -1.4156 0
M  V30 22992 O 2162.6 0.930536 -1.70454 0
M  V30 22993 C 2159.73 1.28724 -3.22564 0
M  V30 22994 C 2158.68 0.697518 -4.22278 0
M  V30 22995 C 2158.01 1.85205 -5.016 0
M  V30 22996 C 2159.31 -0.325174 -5.21287 0
M  V30 22997 H 2161 -0.463097 -2.95797 0
M  V30 22998 H 2158.55 -0.224154 -1.42245 0
M  V30 22999 H 2160.5 1.82422 -3.79869 0
M  V30 23000 H 2159.23 2.01455 -2.57067 0
M  V30 23001 H 2157.89 0.182131 -3.66147 0
M  V30 23002 H 2157.53 2.56754 -4.32535 0
M  V30 23003 H 2157.23 1.46343 -5.69085 0
M  V30 23004 H 2158.76 2.39297 -5.61755 0
M  V30 23005 H 2160.17 0.124406 -5.73165 0
M  V30 23006 H 2158.57 -0.630729 -5.96776 0
M  V30 23007 H 2159.64 -1.23392 -4.68938 0
M  V30 23008 N 2160.98 1.55502 -0.256304 0
M  V30 23009 C 2161.93 2.23175 0.655412 0
M  V30 23010 C 2162.92 1.22244 1.17272 0
M  V30 23011 O 2164.13 1.40229 1.12853 0
M  V30 23012 H 2160.51 0.716007 0.229866 0
M  V30 23013 H 2162.48 2.98336 0.0616012 0
M  V30 23014 C 2161.23 2.95209 1.83704 0
M  V30 23015 H 2160.55 3.72651 1.44814 0
M  V30 23016 H 2161.99 3.45909 2.452 0
M  V30 23017 C 2160.45 1.99611 2.71398 0
M  V30 23018 O 2160.98 1.53521 3.71207 0
M  V30 23019 N 2159.18 1.66511 2.38165 0
M  V30 23020 H 2158.73 2.04188 1.57051 0
M  V30 23021 H 2158.69 1.02816 2.97113 0
M  V30 23022 N 2162.46 -0.0166879 1.57591 0
M  V30 23023 C 2163.39 -1.01268 2.10398 0
M  V30 23024 C 2164.37 -1.36922 1.00928 0
M  V30 23025 O 2165.56 -1.45589 1.2852 0
M  V30 23026 C 2162.69 -2.30979 2.59357 0
M  V30 23027 C 2161.64 -2.09533 3.73202 0
M  V30 23028 C 2160.97 -3.45113 4.08413 0
M  V30 23029 C 2162.27 -1.47144 5.01145 0
M  V30 23030 H 2163.96 -0.573053 2.93865 0
M  V30 23031 H 2161.51 -0.274203 1.41365 0
M  V30 23032 H 2163.46 -3.00996 2.94923 0
M  V30 23033 H 2162.18 -2.77024 1.72989 0
M  V30 23034 H 2160.84 -1.41946 3.38004 0
M  V30 23035 H 2160.49 -3.88829 3.19094 0
M  V30 23036 H 2160.19 -3.31585 4.85104 0
M  V30 23037 H 2161.71 -4.16472 4.46524 0
M  V30 23038 H 2163.13 -2.07094 5.34588 0
M  V30 23039 H 2161.53 -1.44154 5.82529 0
M  V30 23040 H 2162.6 -0.438665 4.82912 0
M  V30 23041 N 2163.94 -1.54924 -0.289176 0
M  V30 23042 C 2165.19 -1.74766 -1.02289 0
M  V30 23043 C 2165.51 -0.539873 -1.86857 0
M  V30 23044 O 2164.77 0.477978 -1.89773 0
M  V30 23045 C 2165.07 -2.99629 -1.94826 0
M  V30 23046 C 2164.73 -4.32897 -1.26139 0
M  V30 23047 C 2163.4 -4.69121 -1.0714 0
M  V30 23048 C 2165.75 -5.15461 -0.771309 0
M  V30 23049 C 2163.08 -5.85479 -0.37835 0
M  V30 23050 C 2165.43 -6.32533 -0.0919302 0
M  V30 23051 C 2164.09 -6.67409 0.109915 0
M  V30 23052 H 2163.36 -0.639515 -0.374301 0
M  V30 23053 H 2166.01 -1.89188 -0.296646 0
M  V30 23054 H 2164.31 -2.80038 -2.74018 0
M  V30 23055 H 2166.01 -3.12176 -2.51688 0
M  V30 23056 H 2162.6 -4.04416 -1.41935 0
M  V30 23057 H 2166.78 -4.87965 -0.905767 0
M  V30 23058 H 2162.04 -6.11035 -0.211091 0
M  V30 23059 H 2166.21 -6.95772 0.295654 0
M  V30 23060 H 2163.84 -7.57425 0.648932 0
M  V30 23061 N 2165.42 0.552936 -1.47582 0
M  V30 23062 C 2166.67 1.30628 -1.53685 0
M  V30 23063 C 2166.98 1.94516 -0.205625 0
M  V30 23064 O 2168.18 2.71114 -0.144695 0
M  V30 23065 C 2166.64 2.369 -2.70936 0
M  V30 23066 C 2166.25 1.79183 -4.10606 0
M  V30 23067 C 2167.99 3.13388 -2.86336 0
M  V30 23068 C 2165.9 2.8326 -5.19151 0
M  V30 23069 H 2164.83 0.491183 -0.572062 0
M  V30 23070 H 2167.48 0.58676 -1.73866 0
M  V30 23071 H 2165.86 3.11785 -2.44143 0
M  V30 23072 H 2167.04 1.10641 -4.4732 0
M  V30 23073 H 2165.35 1.15265 -4.00129 0
M  V30 23074 H 2167.95 3.91117 -3.64597 0
M  V30 23075 H 2168.29 3.67839 -1.94936 0
M  V30 23076 H 2168.82 2.45615 -3.12919 0
M  V30 23077 H 2165.56 2.3366 -6.12441 0
M  V30 23078 H 2165.08 3.502 -4.8695 0
M  V30 23079 H 2166.76 3.46674 -5.46284 0
M  V30 23080 N 2166.89 1.35785 0.800009 0
M  V30 23081 C 2168.14 1.2917 1.55434 0
M  V30 23082 C 2168.46 -0.131766 1.94554 0
M  V30 23083 O 2167.73 -1.06968 1.64118 0
M  V30 23084 H 2166.31 0.475134 0.576417 0
M  V30 23085 H 2168.98 1.69963 0.953872 0
M  V30 23086 H 2168.07 1.912 2.46676 0
M  V30 23087 N 2168.37 -1.02294 1.19891 0
M  V30 23088 C 2169.62 -1.76051 1.00667 0
M  V30 23089 C 2169.95 -1.88654 -0.460802 0
M  V30 23090 O 2169.23 -1.4077 -1.34216 0
M  V30 23091 C 2169.51 -3.18331 1.68338 0
M  V30 23092 C 2169.36 -3.13562 3.22489 0
M  V30 23093 C 2170.68 -4.16859 1.41125 0
M  V30 23094 H 2167.8 -0.639057 0.367117 0
M  V30 23095 H 2170.44 -1.19377 1.47815 0
M  V30 23096 H 2168.59 -3.6672 1.28252 0
M  V30 23097 H 2170.26 -2.73025 3.71827 0
M  V30 23098 H 2168.51 -2.51121 3.53724 0
M  V30 23099 H 2169.18 -4.1411 3.64989 0
M  V30 23100 H 2171.65 -3.77097 1.75889 0
M  V30 23101 H 2170.53 -5.14592 1.91015 0
M  V30 23102 H 2170.79 -4.40809 0.33758 0
M  V30 23103 N 2169.85 -1.00378 -1.21499 0
M  V30 23104 C 2171.1 -0.681173 -1.8985 0
M  V30 23105 C 2171.41 0.791343 -1.78877 0
M  V30 23106 O 2172.62 1.22598 -2.42244 0
M  V30 23107 C 2171.07 -1.1679 -3.40424 0
M  V30 23108 C 2170.68 -2.6664 -3.6001 0
M  V30 23109 C 2172.43 -0.920124 -4.14408 0
M  V30 23110 C 2170.33 -3.0886 -5.04341 0
M  V30 23111 H 2169.26 -0.251086 -0.710965 0
M  V30 23112 H 2171.91 -1.21478 -1.37533 0
M  V30 23113 H 2170.3 -0.562349 -3.91987 0
M  V30 23114 H 2171.47 -3.32634 -3.18891 0
M  V30 23115 H 2169.79 -2.89419 -2.99376 0
M  V30 23116 H 2172.38 -1.21113 -5.20803 0
M  V30 23117 H 2172.73 0.143641 -4.16052 0
M  V30 23118 H 2173.26 -1.4884 -3.68906 0
M  V30 23119 H 2170 -4.14458 -5.07844 0
M  V30 23120 H 2169.52 -2.47577 -5.4632 0
M  V30 23121 H 2171.2 -3.00772 -5.7284 0
M  V30 23122 N 2171.33 1.37038 -0.778354 0
M  V30 23123 C 2172.58 1.98774 -0.342325 0
M  V30 23124 C 2172.89 1.62483 1.08898 0
M  V30 23125 O 2174.1 2.1737 1.62673 0
M  V30 23126 C 2172.55 3.55499 -0.561108 0
M  V30 23127 C 2172.16 4.00724 -2.00311 0
M  V30 23128 C 2173.9 4.24079 -0.189032 0
M  V30 23129 C 2171.81 5.50184 -2.16914 0
M  V30 23130 H 2170.74 0.743692 -0.124252 0
M  V30 23131 H 2173.39 1.56482 -0.95842 0
M  V30 23132 H 2171.77 3.95804 0.12454 0
M  V30 23133 H 2172.95 3.71647 -2.72425 0
M  V30 23134 H 2171.26 3.44947 -2.33239 0
M  V30 23135 H 2173.86 5.33905 -0.291509 0
M  V30 23136 H 2174.2 4.07288 0.861526 0
M  V30 23137 H 2174.74 3.89098 -0.827484 0
M  V30 23138 H 2171.48 5.71909 -3.20312 0
M  V30 23139 H 2171 5.80924 -1.49291 0
M  V30 23140 H 2172.67 6.16249 -1.97093 0
M  V30 23141 N 2172.81 0.529439 1.48441 0
M  V30 23142 C 2174.08 -0.0692247 1.95477 0
M  V30 23143 C 2174.46 -1.51345 1.47166 0
M  V30 23144 O 2173.81 -2.1758 0.697925 0
M  V30 23145 C 2174.02 0.0474683 3.48968 0
M  V30 23146 C 2175.37 -0.112074 4.24452 0
M  V30 23147 O 2176.39 -0.0263527 3.5619 0
M  V30 23148 O 2175.25 -0.291683 5.45721 0
M  V30 23149 H 2172.35 -0.079598 0.82316 0
M  V30 23150 H 2174.89 0.593999 1.58965 0
M  V30 23151 H 2173.67 1.05353 3.76851 0
M  V30 23152 H 2173.29 -0.65463 3.92174 0
M  V30 23153 N 2174.29 -1.55364 0.264547 0
M  V30 23154 C 2175.23 -2.23519 -0.643568 0
M  V30 23155 C 2176.23 -1.22864 -1.16622 0
M  V30 23156 O 2177.43 -1.40826 -1.12108 0
M  V30 23157 H 2173.81 -0.717216 -0.226066 0
M  V30 23158 H 2175.78 -2.98365 -0.0457788 0
M  V30 23159 C 2174.53 -2.96179 -1.82136 0
M  V30 23160 H 2173.85 -3.73414 -1.42836 0
M  V30 23161 H 2175.29 -3.47204 -2.43362 0
M  V30 23162 C 2173.75 -2.01048 -2.70336 0
M  V30 23163 O 2174.28 -1.55487 -3.70387 0
M  V30 23164 N 2172.49 -1.67772 -2.37278 0
M  V30 23165 H 2172.03 -2.05018 -1.55966 0
M  V30 23166 H 2171.99 -1.0439 -2.96564 0
M  V30 23167 N 2175.76 0.00833021 -1.57598 0
M  V30 23168 C 2177.01 0.694911 -1.90203 0
M  V30 23169 C 2177.34 1.74238 -0.864369 0
M  V30 23170 O 2176.59 1.95254 0.131976 0
M  V30 23171 C 2176.89 1.38284 -3.29564 0
M  V30 23172 C 2176.56 0.469372 -4.4845 0
M  V30 23173 C 2175.22 0.21784 -4.80707 0
M  V30 23174 C 2177.57 -0.160058 -5.20954 0
M  V30 23175 C 2174.9 -0.671554 -5.82844 0
M  V30 23176 C 2177.25 -1.03728 -6.24038 0
M  V30 23177 C 2175.92 -1.29807 -6.54757 0
M  V30 23178 H 2175.19 0.254286 -0.696003 0
M  V30 23179 H 2177.83 -0.0454086 -1.91446 0
M  V30 23180 H 2176.14 2.197 -3.24406 0
M  V30 23181 H 2177.84 1.91998 -3.52048 0
M  V30 23182 H 2174.43 0.675583 -4.23242 0
M  V30 23183 H 2178.61 0.0212698 -4.96295 0
M  V30 23184 H 2173.87 -0.881698 -6.05009 0
M  V30 23185 H 2178.04 -1.5314 -6.79353 0
M  V30 23186 H 2175.67 -1.98894 -7.3372 0
M  V30 23187 N 2177.24 1.55075 0.280956 0
M  V30 23188 C 2178.19 1.8819 1.36702 0
M  V30 23189 C 2179.18 0.757458 1.51522 0
M  V30 23190 O 2180.39 0.941707 1.53401 0
M  V30 23191 H 2176.76 0.597182 0.457031 0
M  V30 23192 H 2178.74 2.78931 1.0602 0
M  V30 23193 C 2177.48 2.16344 2.72196 0
M  V30 23194 H 2176.81 3.0235 2.61581 0
M  V30 23195 H 2178.25 2.4344 3.4715 0
M  V30 23196 C 2176.71 0.968431 3.22681 0
M  V30 23197 O 2177.24 0.199029 4.01207 0
M  V30 23198 N 2175.44 0.768305 2.8026 0
M  V30 23199 H 2174.99 1.39565 2.16516 0
M  V30 23200 H 2174.95 -0.029657 3.14386 0
M  V30 23201 N 2178.72 -0.545102 1.47873 0
M  V30 23202 C 2179.65 -1.66665 1.57339 0
M  V30 23203 C 2180.66 -1.56204 0.458698 0
M  V30 23204 O 2181.85 -1.62941 0.728868 0
M  V30 23205 C 2178.95 -3.05217 1.47295 0
M  V30 23206 C 2178.13 -3.41311 2.73543 0
M  V30 23207 C 2177.19 -4.59078 2.57165 0
M  V30 23208 O 2176.21 -4.63053 3.31014 0
M  V30 23209 N 2177.41 -5.56323 1.65786 0
M  V30 23210 H 2180.18 -1.58986 2.54054 0
M  V30 23211 H 2177.74 -0.732029 1.44405 0
M  V30 23212 H 2179.73 -3.81853 1.34055 0
M  V30 23213 H 2178.3 -3.07056 0.586146 0
M  V30 23214 H 2177.52 -2.54003 3.01457 0
M  V30 23215 H 2178.81 -3.62205 3.5733 0
M  V30 23216 H 2178.21 -5.55877 1.04961 0
M  V30 23217 H 2176.76 -6.32237 1.58492 0
M  V30 23218 N 2180.2 -1.36208 -0.792797 0
M  V30 23219 C 2181.13 -1.2612 -1.9138 0
M  V30 23220 C 2182.14 -0.181437 -1.61786 0
M  V30 23221 O 2183.33 -0.435871 -1.73097 0
M  V30 23222 C 2180.43 -0.922489 -3.26103 0
M  V30 23223 C 2179.6 -2.10345 -3.83502 0
M  V30 23224 C 2178.66 -1.73833 -4.96657 0
M  V30 23225 O 2177.69 -2.45879 -5.13354 0
M  V30 23226 N 2178.89 -0.670023 -5.7662 0
M  V30 23227 H 2181.66 -2.22705 -2.00556 0
M  V30 23228 H 2179.22 -1.29557 -0.970902 0
M  V30 23229 H 2181.21 -0.659458 -3.99291 0
M  V30 23230 H 2179.78 -0.0458868 -3.12566 0
M  V30 23231 H 2179 -2.52948 -3.02342 0
M  V30 23232 H 2180.29 -2.89252 -4.18582 0
M  V30 23233 H 2179.69 -0.0717267 -5.65655 0
M  V30 23234 H 2178.24 -0.466808 -6.50126 0
M  V30 23235 N 2181.68 1.01656 -1.20431 0
M  V30 23236 C 2182.62 2.10198 -0.953184 0
M  V30 23237 C 2183.59 1.6569 0.116613 0
M  V30 23238 O 2184.78 1.90779 -0.0281152 0
M  V30 23239 C 2181.92 3.4129 -0.511397 0
M  V30 23240 C 2181.03 3.99275 -1.64935 0
M  V30 23241 C 2180.17 5.18427 -1.15787 0
M  V30 23242 C 2179.2 5.68496 -2.2689 0
M  V30 23243 N 2178.34 6.78909 -1.7896 0
M  V30 23244 H 2183.18 2.31015 -1.88245 0
M  V30 23245 H 2180.72 1.13288 -0.938314 0
M  V30 23246 H 2182.68 4.16529 -0.236575 0
M  V30 23247 H 2181.31 3.20545 0.380867 0
M  V30 23248 H 2180.36 3.21132 -2.03909 0
M  V30 23249 H 2181.67 4.32437 -2.48595 0
M  V30 23250 H 2180.82 6.00871 -0.839013 0
M  V30 23251 H 2179.56 4.8683 -0.291159 0
M  V30 23252 H 2178.57 4.84657 -2.59592 0
M  V30 23253 H 2179.79 6.02127 -3.14037 0
M  V30 23254 H 2177.74 6.49141 -0.946156 0
M  V30 23255 H 2177.66 7.11265 -2.562 0
M  V30 23256 H 2178.92 7.64917 -1.50074 0
M  V30 23257 N 2183.15 1.01021 1.20965 0
M  V30 23258 C 2184.1 0.575015 2.23522 0
M  V30 23259 C 2185.07 -0.401609 1.61172 0
M  V30 23260 O 2186.26 -0.302487 1.88387 0
M  V30 23261 C 2183.4 -0.0869827 3.4499 0
M  V30 23262 C 2182.51 0.933442 4.21795 0
M  V30 23263 C 2181.64 0.243164 5.30643 0
M  V30 23264 C 2180.68 1.25078 5.99184 0
M  V30 23265 N 2179.82 0.587617 6.99637 0
M  V30 23266 H 2184.66 1.45423 2.60108 0
M  V30 23267 H 2182.2 0.728091 1.27817 0
M  V30 23268 H 2184.15 -0.487872 4.14338 0
M  V30 23269 H 2182.78 -0.929881 3.09117 0
M  V30 23270 H 2181.84 1.45254 3.51576 0
M  V30 23271 H 2183.15 1.70003 4.68936 0
M  V30 23272 H 2182.3 -0.213561 6.06324 0
M  V30 23273 H 2181.04 -0.555781 4.84523 0
M  V30 23274 H 2180.05 1.71796 5.2227 0
M  V30 23275 H 2181.27 2.0509 6.47391 0
M  V30 23276 H 2179.22 -0.191575 6.5572 0
M  V30 23277 H 2179.13 1.29237 7.44872 0
M  V30 23278 H 2180.4 0.154271 7.79347 0
M  V30 23279 N 2184.63 -1.36623 0.78561 0
M  V30 23280 C 2185.58 -2.30101 0.179493 0
M  V30 23281 C 2186.55 -1.51789 -0.674485 0
M  V30 23282 O 2187.73 -1.80309 -0.623959 0
M  V30 23283 C 2184.87 -3.38279 -0.682737 0
M  V30 23284 C 2183.99 -4.31585 0.189365 0
M  V30 23285 C 2183.12 -5.26844 -0.678879 0
M  V30 23286 C 2182.16 -6.1179 0.194912 0
M  V30 23287 N 2181.3 -6.99249 -0.632096 0
M  V30 23288 H 2186.14 -2.81351 0.98212 0
M  V30 23289 H 2183.67 -1.38489 0.495893 0
M  V30 23290 H 2185.63 -3.99642 -1.19759 0
M  V30 23291 H 2184.26 -2.88359 -1.45083 0
M  V30 23292 H 2183.31 -3.71409 0.822157 0
M  V30 23293 H 2184.63 -4.91281 0.862795 0
M  V30 23294 H 2183.78 -5.93478 -1.25969 0
M  V30 23295 H 2182.52 -4.67593 -1.38595 0
M  V30 23296 H 2181.52 -5.44121 0.788155 0
M  V30 23297 H 2182.75 -6.73116 0.899523 0
M  V30 23298 H 2180.7 -6.4251 -1.32353 0
M  V30 23299 H 2180.61 -7.55998 -0.0162646 0
M  V30 23300 H 2181.88 -7.70257 -1.19686 0
M  V30 23301 N 2186.11 -0.537304 -1.48158 0
M  V30 23302 C 2187.04 0.210088 -2.32553 0
M  V30 23303 C 2188.02 0.928052 -1.42552 0
M  V30 23304 O 2189.21 0.912405 -1.71432 0
M  V30 23305 C 2186.34 1.25296 -3.23911 0
M  V30 23306 C 2185.29 0.65269 -4.22994 0
M  V30 23307 C 2184.62 1.79875 -5.03537 0
M  V30 23308 C 2185.92 -0.380445 -5.20913 0
M  V30 23309 H 2187.61 -0.494444 -2.95289 0
M  V30 23310 H 2185.16 -0.239229 -1.41999 0
M  V30 23311 H 2187.11 1.78383 -3.81782 0
M  V30 23312 H 2185.83 1.98717 -2.59189 0
M  V30 23313 H 2184.49 0.143286 -3.6632 0
M  V30 23314 H 2184.14 2.52152 -4.35234 0
M  V30 23315 H 2183.84 1.40299 -5.70605 0
M  V30 23316 H 2185.36 2.33326 -5.64262 0
M  V30 23317 H 2186.78 0.0636068 -5.73265 0
M  V30 23318 H 2185.17 -0.693989 -5.96074 0
M  V30 23319 H 2186.24 -1.28359 -4.67602 0
M  V30 23320 N 2187.59 1.55221 -0.272782 0
M  V30 23321 C 2188.84 1.99151 0.343986 0
M  V30 23322 C 2189.16 1.16259 1.56553 0
M  V30 23323 O 2188.43 0.25154 1.94278 0
M  V30 23324 H 2187.01 0.735586 0.130087 0
M  V30 23325 H 2189.67 1.91208 -0.377577 0
M  V30 23326 H 2188.77 3.05562 0.635452 0
M  V30 23327 N 2189.07 2.77022e-05 1.576 0
M  V30 23328 C 2190.31 -0.683462 1.90193 0
M  V30 23329 C 2190.64 -1.74311 0.8741 0
M  V30 23330 O 2189.91 -1.957 -0.0884894 0
M  V30 23331 H 2188.49 -0.25543 0.701972 0
M  V30 23332 H 2191.15 0.0409602 1.94857 0
M  V30 23333 H 2190.24 -1.15469 2.89954 0
M  V30 23334 N 2190.54 -1.55222 -0.272728 0
M  V30 23335 C 2191.48 -1.84532 -1.35943 0
M  V30 23336 C 2192.49 -0.729843 -1.45524 0
M  V30 23337 O 2193.68 -1.0077 -1.47335 0
M  V30 23338 C 2190.78 -1.99352 -2.74066 0
M  V30 23339 C 2189.95 -3.30012 -2.87073 0
M  V30 23340 C 2189.01 -3.34893 -4.05873 0
M  V30 23341 O 2188.04 -4.08268 -3.96618 0
M  V30 23342 N 2189.24 -2.62316 -5.17852 0
M  V30 23343 H 2192 -2.78329 -1.11144 0
M  V30 23344 H 2189.56 -1.55143 -0.462842 0
M  V30 23345 H 2191.56 -1.99987 -3.51834 0
M  V30 23346 H 2190.13 -1.1242 -2.91686 0
M  V30 23347 H 2189.35 -3.41913 -1.96187 0
M  V30 23348 H 2190.63 -4.16182 -2.92694 0
M  V30 23349 H 2190.03 -2.02386 -5.28258 0
M  V30 23350 H 2188.59 -2.68674 -5.9385 0
M  V30 23351 N 2192.02 0.537252 -1.4816 0
M  V30 23352 C 2193.3 1.29837 -1.46294 0
M  V30 23353 C 2193.68 2.10409 -0.17065 0
M  V30 23354 O 2193.03 2.12194 0.847709 0
M  V30 23355 C 2193.24 2.18598 -2.72058 0
M  V30 23356 C 2194.59 2.78974 -3.20092 0
M  V30 23357 O 2195.61 2.28889 -2.72925 0
M  V30 23358 O 2194.47 3.70057 -4.02144 0
M  V30 23359 H 2191.56 0.585637 -0.583916 0
M  V30 23360 H 2194.11 0.554506 -1.60385 0
M  V30 23361 H 2192.88 1.58795 -3.57631 0
M  V30 23362 H 2192.5 3.00244 -2.60651 0
M  V30 23363 N 2193.5 1.36626 0.785562 0
M  V30 23364 C 2194.75 1.30398 1.5388 0
M  V30 23365 C 2195.06 -0.113418 1.95271 0
M  V30 23366 O 2196.27 -0.298094 2.69859 0
M  V30 23367 C 2194.72 2.28807 2.77804 0
M  V30 23368 C 2194.33 3.76004 2.43568 0
M  V30 23369 C 2196.08 2.31564 3.55779 0
M  V30 23370 C 2193.98 4.66179 3.6391 0
M  V30 23371 H 2192.91 0.484576 0.57767 0
M  V30 23372 H 2195.56 1.6201 0.861677 0
M  V30 23373 H 2193.95 1.90194 3.47336 0
M  V30 23374 H 2195.12 4.23375 1.81908 0
M  V30 23375 H 2193.44 3.76059 1.78797 0
M  V30 23376 H 2196.03 2.96144 4.452 0
M  V30 23377 H 2196.38 1.32527 3.94642 0
M  V30 23378 H 2196.91 2.68814 2.9323 0
M  V30 23379 H 2193.65 5.66293 3.3014 0
M  V30 23380 H 2193.17 4.23522 4.24722 0
M  V30 23381 H 2194.85 4.82639 4.30892 0
M  V30 23382 N 2194.98 -1.01016 1.20969 0
M  V30 23383 C 2196.23 -1.74714 1.02377 0
M  V30 23384 C 2196.55 -1.8938 -0.443342 0
M  V30 23385 O 2195.81 -1.42125 -1.34532 0
M  V30 23386 C 2196.11 -3.16509 1.66003 0
M  V30 23387 C 2195.77 -3.21804 3.15837 0
M  V30 23388 C 2194.44 -3.22957 3.56725 0
M  V30 23389 C 2196.79 -3.19456 4.11822 0
M  V30 23390 C 2194.12 -3.19441 4.92112 0
M  V30 23391 C 2196.47 -3.17482 5.47164 0
M  V30 23392 C 2195.13 -3.16941 5.87456 0
M  V30 23393 H 2194.4 -0.639325 0.374625 0
M  V30 23394 H 2197.05 -1.18431 1.50487 0
M  V30 23395 H 2195.35 -3.75991 1.10172 0
M  V30 23396 H 2197.05 -3.7224 1.49126 0
M  V30 23397 H 2193.64 -3.21647 2.83269 0
M  V30 23398 H 2197.82 -3.17731 3.81262 0
M  V30 23399 H 2193.08 -3.17357 5.22585 0
M  V30 23400 H 2197.25 -3.14618 6.2128 0
M  V30 23401 H 2194.88 -3.13971 6.92334 0
M  V30 23402 N 2196.46 -1.01661 -1.20428 0
M  V30 23403 C 2197.39 -0.53156 -2.21923 0
M  V30 23404 C 2198.37 0.421005 -1.57055 0
M  V30 23405 O 2199.55 0.341002 -1.8539 0
M  V30 23406 C 2196.68 0.226436 -3.37942 0
M  V30 23407 C 2195.72 -0.675684 -4.21114 0
M  V30 23408 S 2196.56 -2.14484 -4.9067 0
M  V30 23409 C 2197.71 -1.39701 -6.1011 0
M  V30 23410 H 2197.95 -1.39155 -2.62723 0
M  V30 23411 H 2195.48 -0.825502 -1.30479 0
M  V30 23412 H 2197.44 0.657666 -4.05197 0
M  V30 23413 H 2196.1 1.06199 -2.95602 0
M  V30 23414 H 2195.29 -0.0911965 -5.03917 0
M  V30 23415 H 2194.89 -1.04469 -3.59113 0
M  V30 23416 H 2197.19 -0.677015 -6.74109 0
M  V30 23417 H 2198.13 -2.20118 -6.73018 0
M  V30 23418 H 2198.54 -0.899884 -5.57281 0
M  V30 23419 N 2197.93 1.36205 -0.792844 0
M  V30 23420 C 2199.16 2.03402 -0.37886 0
M  V30 23421 C 2199.58 1.59776 1.00583 0
M  V30 23422 O 2198.93 0.788793 1.64573 0
M  V30 23423 C 2198.99 3.5885 -0.436893 0
M  V30 23424 O 2198.71 4.00886 -1.76698 0
M  V30 23425 C 2200.21 4.43298 -0.0139722 0
M  V30 23426 H 2197.43 0.652689 -0.155684 0
M  V30 23427 H 2199.97 1.74111 -1.07264 0
M  V30 23428 H 2198.13 3.86838 0.208507 0
M  V30 23429 H 2198.54 4.95489 -1.72019 0
M  V30 23430 H 2200.01 5.51899 -0.105712 0
M  V30 23431 H 2200.49 4.26732 1.03908 0
M  V30 23432 H 2201.1 4.20578 -0.631994 0
M  V30 23433 N 2199.41 0.545154 1.47871 0
M  V30 23434 C 2200.32 -0.212705 2.33634 0
M  V30 23435 C 2201.34 -0.923957 1.47442 0
M  V30 23436 O 2202.51 -0.89554 1.80394 0
M  V30 23437 C 2199.58 -1.23687 3.23886 0
M  V30 23438 C 2198.64 -0.534342 4.25962 0
M  V30 23439 C 2197.87 -1.50971 5.11902 0
M  V30 23440 O 2198.1 -2.74361 5.00082 0
M  V30 23441 O 2197.03 -1.0408 5.92833 0
M  V30 23442 H 2200.86 0.490469 2.99713 0
M  V30 23443 H 2198.44 0.305896 1.46235 0
M  V30 23444 H 2200.32 -1.82836 3.7967 0
M  V30 23445 H 2199 -1.92218 2.6045 0
M  V30 23446 H 2197.91 0.0980336 3.73972 0
M  V30 23447 H 2199.24 0.1093 4.92079 0
M  V30 23448 N 2200.89 -1.55074 0.28101 0
M  V30 23449 C 2201.8 -2.26427 -0.61384 0
M  V30 23450 C 2202.82 -1.29226 -1.16519 0
M  V30 23451 O 2203.99 -1.62173 -1.19423 0
M  V30 23452 C 2201.06 -2.97593 -1.77875 0
M  V30 23453 C 2200.12 -4.10286 -1.26348 0
M  V30 23454 C 2199.35 -4.78049 -2.37287 0
M  V30 23455 O 2199.57 -4.45053 -3.56769 0
M  V30 23456 O 2198.51 -5.65874 -2.05109 0
M  V30 23457 H 2202.33 -3.03679 -0.0356398 0
M  V30 23458 H 2199.92 -1.49322 0.0481948 0
M  V30 23459 H 2201.8 -3.42297 -2.45785 0
M  V30 23460 H 2200.48 -2.23253 -2.34393 0
M  V30 23461 H 2199.38 -3.70025 -0.55067 0
M  V30 23462 H 2200.72 -4.86545 -0.743979 0
M  V30 23463 N 2202.37 -0.00838561 -1.57598 0
M  V30 23464 C 2203.3 1.00865 -2.05813 0
M  V30 23465 C 2204.31 1.3018 -0.977602 0
M  V30 23466 O 2205.5 1.27009 -1.25423 0
M  V30 23467 C 2202.6 2.34133 -2.45021 0
M  V30 23468 C 2201.78 2.23636 -3.75907 0
M  V30 23469 C 2200.84 3.39663 -4.0189 0
M  V30 23470 O 2199.86 3.17474 -4.72439 0
M  V30 23471 N 2201.06 4.62787 -3.5044 0
M  V30 23472 H 2203.83 0.597407 -2.93685 0
M  V30 23473 H 2201.39 0.178824 -1.60909 0
M  V30 23474 H 2203.38 3.10542 -2.59511 0
M  V30 23475 H 2201.95 2.66969 -1.62623 0
M  V30 23476 H 2201.17 1.32084 -3.71413 0
M  V30 23477 H 2202.46 2.13804 -4.61698 0
M  V30 23478 H 2201.86 4.83711 -2.93326 0
M  V30 23479 H 2200.41 5.36434 -3.70246 0
M  V30 23480 N 2203.85 1.55365 0.264492 0
M  V30 23481 C 2204.79 1.88827 1.32714 0
M  V30 23482 C 2205.76 0.740631 1.48674 0
M  V30 23483 O 2206.95 0.992686 1.62943 0
M  V30 23484 C 2204.09 2.17311 2.68086 0
M  V30 23485 C 2203.2 3.44789 2.60278 0
M  V30 23486 C 2202.34 3.6293 3.87885 0
M  V30 23487 C 2201.38 4.84071 3.74623 0
M  V30 23488 N 2200.51 4.98825 4.94083 0
M  V30 23489 H 2205.35 2.79458 1.03477 0
M  V30 23490 H 2202.89 1.38351 0.499733 0
M  V30 23491 H 2204.85 2.31827 3.4686 0
M  V30 23492 H 2203.48 1.29906 2.95507 0
M  V30 23493 H 2202.53 3.387 1.73167 0
M  V30 23494 H 2203.84 4.33703 2.46381 0
M  V30 23495 H 2203 3.7731 4.75102 0
M  V30 23496 H 2201.74 2.72217 4.04659 0
M  V30 23497 H 2200.74 4.69686 2.85789 0
M  V30 23498 H 2201.97 5.76227 3.5936 0
M  V30 23499 H 2199.91 4.11045 5.11252 0
M  V30 23500 H 2199.83 5.81798 4.8275 0
M  V30 23501 H 2201.1 5.17598 5.82848 0
M  V30 23502 N 2205.33 -0.529387 1.48443 0
M  V30 23503 C 2206.27 -1.63391 1.63009 0
M  V30 23504 C 2207.24 -1.59248 0.472148 0
M  V30 23505 O 2208.43 -1.77664 0.695704 0
M  V30 23506 C 2205.57 -3.0165 1.67635 0
M  V30 23507 C 2204.68 -3.16022 2.94541 0
M  V30 23508 C 2203.82 -4.44844 2.90323 0
M  V30 23509 C 2202.85 -4.52747 4.11931 0
M  V30 23510 N 2201.99 -5.72958 4.05788 0
M  V30 23511 H 2206.83 -1.5028 2.57332 0
M  V30 23512 H 2204.37 -0.731634 1.27615 0
M  V30 23513 H 2206.33 -3.81748 1.68299 0
M  V30 23514 H 2204.96 -3.1353 0.768025 0
M  V30 23515 H 2204.01 -2.29172 3.03619 0
M  V30 23516 H 2205.32 -3.17723 3.84518 0
M  V30 23517 H 2204.47 -5.33233 2.89391 0
M  V30 23518 H 2203.21 -4.45665 1.98076 0
M  V30 23519 H 2202.22 -3.62764 4.13137 0
M  V30 23520 H 2203.44 -4.53663 5.05338 0
M  V30 23521 H 2201.39 -5.74675 3.16361 0
M  V30 23522 H 2201.31 -5.76155 4.8947 0
M  V30 23523 H 2202.57 -6.63633 4.08915 0
M  V30 23524 N 2206.8 -1.37041 -0.778305 0
M  V30 23525 C 2208.03 -1.3487 -1.56504 0
M  V30 23526 C 2208.44 0.069447 -1.89073 0
M  V30 23527 O 2207.78 1.03985 -1.51436 0
M  V30 23528 C 2207.85 -2.1159 -2.90637 0
M  V30 23529 C 2207.51 -3.60603 -2.80739 0
M  V30 23530 C 2208.51 -4.54623 -2.52218 0
M  V30 23531 C 2206.19 -4.03638 -2.98967 0
M  V30 23532 C 2208.19 -5.89656 -2.42043 0
M  V30 23533 C 2205.87 -5.38759 -2.88413 0
M  V30 23534 C 2206.87 -6.3158 -2.59991 0
M  V30 23535 O 2206.56 -7.64218 -2.49451 0
M  V30 23536 H 2206.29 -0.463888 -0.491715 0
M  V30 23537 H 2208.85 -1.80891 -0.973021 0
M  V30 23538 H 2207.08 -1.60249 -3.51933 0
M  V30 23539 H 2208.76 -2.02137 -3.51988 0
M  V30 23540 H 2209.53 -4.22685 -2.37828 0
M  V30 23541 H 2205.41 -3.31755 -3.20093 0
M  V30 23542 H 2208.95 -6.62075 -2.19779 0
M  V30 23543 H 2204.85 -5.703 -3.0237 0
M  V30 23544 H 2205.62 -7.74465 -2.6485 0
M  V30 23545 N 2208.28 1.00373 -1.21503 0
M  V30 23546 C 2209.51 1.77484 -1.05749 0
M  V30 23547 C 2209.92 1.85017 0.395623 0
M  V30 23548 O 2209.26 1.31155 1.28624 0
M  V30 23549 C 2209.32 3.22871 -1.58097 0
M  V30 23550 C 2208.99 3.38912 -3.06574 0
M  V30 23551 C 2209.99 3.27093 -4.04112 0
M  V30 23552 C 2207.67 3.64313 -3.45806 0
M  V30 23553 C 2209.66 3.40441 -5.38868 0
M  V30 23554 C 2207.35 3.77303 -4.80714 0
M  V30 23555 C 2208.35 3.65374 -5.77054 0
M  V30 23556 O 2208.04 3.77949 -7.09514 0
M  V30 23557 H 2207.77 0.564579 -0.371788 0
M  V30 23558 H 2210.32 1.2714 -1.61321 0
M  V30 23559 H 2208.55 3.74357 -0.969229 0
M  V30 23560 H 2210.24 3.8166 -1.38168 0
M  V30 23561 H 2211.01 3.07392 -3.75147 0
M  V30 23562 H 2206.89 3.72679 -2.71351 0
M  V30 23563 H 2210.43 3.31047 -6.14047 0
M  V30 23564 H 2206.33 3.96508 -5.09364 0
M  V30 23565 H 2207.1 3.94888 -7.16942 0
M  V30 23566 N 2209.76 1.02298 1.19887 0
M  V30 23567 C 2210.71 0.59212 2.24937 0
M  V30 23568 C 2211.7 -0.372328 1.65258 0
M  V30 23569 O 2212.91 -0.241551 1.78372 0
M  V30 23570 H 2209.28 0.173195 0.731784 0
M  V30 23571 H 2211.25 1.4889 2.58601 0
M  V30 23572 C 2210 -0.0472899 3.47668 0
M  V30 23573 H 2209.33 0.685841 3.93873 0
M  V30 23574 H 2210.77 -0.311787 4.22852 0
M  V30 23575 C 2209.22 -1.29207 3.11139 0
M  V30 23576 O 2209.75 -2.38474 3.23254 0
M  V30 23577 N 2207.96 -1.17858 2.65627 0
M  V30 23578 H 2207.51 -0.289448 2.55969 0
M  V30 23579 H 2207.47 -2.01241 2.41556 0
M  V30 23580 N 2211.24 -1.35782 0.800057 0
M  V30 23581 C 2212.2 -2.28221 0.211605 0
M  V30 23582 C 2213.2 -1.49297 -0.597254 0
M  V30 23583 O 2214.39 -1.69143 -0.416692 0
M  V30 23584 C 2211.52 -3.33514 -0.705787 0
M  V30 23585 H 2212.72 -2.81774 1.02682 0
M  V30 23586 H 2210.27 -1.45527 0.570236 0
M  V30 23587 H 2211 -2.85136 -1.54493 0
M  V30 23588 H 2210.79 -3.91892 -0.127586 0
M  V30 23589 H 2212.28 -4.02521 -1.11204 0
M  V30 23590 N 2212.72 -0.552988 -1.4758 0
M  V30 23591 C 2213.65 0.244817 -2.26883 0
M  V30 23592 C 2214.63 0.924123 -1.33786 0
M  V30 23593 O 2215.81 0.943952 -1.63162 0
M  V30 23594 C 2212.94 1.3485 -3.10698 0
M  V30 23595 C 2211.98 0.778195 -4.1934 0
M  V30 23596 S 2212.82 -0.371934 -5.34207 0
M  V30 23597 C 2213.97 0.73367 -6.21585 0
M  V30 23598 H 2214.21 -0.428139 -2.94201 0
M  V30 23599 H 2211.74 -0.339224 -1.50627 0
M  V30 23600 H 2213.7 1.9806 -3.59559 0
M  V30 23601 H 2212.36 1.99327 -2.4275 0
M  V30 23602 H 2211.55 1.60687 -4.77698 0
M  V30 23603 H 2211.15 0.222356 -3.73338 0
M  V30 23604 H 2213.44 1.62681 -6.57679 0
M  V30 23605 H 2214.39 0.187543 -7.07852 0
M  V30 23606 H 2214.8 1.02444 -5.55127 0
M  V30 23607 N 2214.19 1.54923 -0.28923 0
M  V30 23608 C 2215.14 2.23076 0.592075 0
M  V30 23609 C 2216.11 1.20917 1.13879 0
M  V30 23610 O 2217.3 1.49502 1.18549 0
M  V30 23611 C 2214.44 2.96626 1.76371 0
M  V30 23612 C 2213.55 4.13535 1.24951 0
M  V30 23613 C 2212.68 4.74695 2.38407 0
M  V30 23614 C 2211.72 5.8377 1.84062 0
M  V30 23615 N 2210.86 6.38934 2.91045 0
M  V30 23616 H 2215.7 2.98 0.00426799 0
M  V30 23617 H 2213.24 1.47097 -0.00966114 0
M  V30 23618 H 2215.19 3.37494 2.45262 0
M  V30 23619 H 2213.82 2.24101 2.32333 0
M  V30 23620 H 2212.88 3.7769 0.453241 0
M  V30 23621 H 2214.19 4.92153 0.811576 0
M  V30 23622 H 2213.34 5.18355 3.15267 0
M  V30 23623 H 2212.08 3.95383 2.85523 0
M  V30 23624 H 2211.09 5.39546 1.05687 0
M  V30 23625 H 2212.31 6.64959 1.37865 0
M  V30 23626 H 2210.26 5.62511 3.37516 0
M  V30 23627 H 2210.17 7.12866 2.51712 0
M  V30 23628 H 2211.44 6.87252 3.67838 0
M  V30 23629 N 2215.67 0.0167433 1.57591 0
M  V30 23630 C 2216.62 -0.969215 2.09463 0
M  V30 23631 C 2217.59 -1.33087 0.993833 0
M  V30 23632 O 2218.77 -1.42634 1.26729 0
M  V30 23633 C 2215.91 -2.25046 2.61626 0
M  V30 23634 C 2215.03 -1.94636 3.8567 0
M  V30 23635 C 2214.16 -3.16964 4.26271 0
M  V30 23636 C 2213.2 -2.82316 5.43106 0
M  V30 23637 N 2212.34 -3.97232 5.78922 0
M  V30 23638 H 2217.18 -0.519945 2.93429 0
M  V30 23639 H 2214.71 -0.245062 1.45044 0
M  V30 23640 H 2216.67 -2.99971 2.89954 0
M  V30 23641 H 2215.3 -2.67612 1.8051 0
M  V30 23642 H 2214.35 -1.10006 3.64147 0
M  V30 23643 H 2215.67 -1.65109 4.70681 0
M  V30 23644 H 2214.82 -4.0022 4.5597 0
M  V30 23645 H 2213.56 -3.49642 3.40002 0
M  V30 23646 H 2212.56 -1.9747 5.13114 0
M  V30 23647 H 2213.79 -2.50868 6.31064 0
M  V30 23648 H 2211.74 -4.29776 4.95609 0
M  V30 23649 H 2211.65 -3.71287 6.58545 0
M  V30 23650 H 2212.92 -4.81228 6.13221 0
M  V30 23651 N 2217.15 -1.55503 -0.256249 0
M  V30 23652 C 2218.08 -1.92542 -1.32098 0
M  V30 23653 C 2219.06 -0.789221 -1.50683 0
M  V30 23654 O 2220.25 -1.04874 -1.63447 0
M  V30 23655 C 2217.38 -2.21197 -2.67748 0
M  V30 23656 C 2216.33 -3.3698 -2.63872 0
M  V30 23657 C 2215.66 -3.51154 -4.0323 0
M  V30 23658 C 2216.96 -4.72925 -2.21674 0
M  V30 23659 H 2218.65 -2.81726 -1.01346 0
M  V30 23660 H 2216.2 -1.35548 -0.486081 0
M  V30 23661 H 2218.15 -2.45697 -3.42361 0
M  V30 23662 H 2216.87 -1.2883 -3.00117 0
M  V30 23663 H 2215.53 -3.12474 -1.91717 0
M  V30 23664 H 2215.18 -2.56224 -4.32849 0
M  V30 23665 H 2214.88 -4.2901 -4.01527 0
M  V30 23666 H 2216.4 -3.77965 -4.79557 0
M  V30 23667 H 2217.82 -4.96859 -2.86015 0
M  V30 23668 H 2216.22 -5.53816 -2.311 0
M  V30 23669 H 2217.29 -4.70617 -1.16825 0
M  V30 23670 N 2218.63 0.521507 -1.48721 0
M  V30 23671 C 2219.88 1.27434 -1.56859 0
M  V30 23672 C 2220.2 1.93416 -0.248016 0
M  V30 23673 O 2219.47 1.81746 0.731119 0
M  V30 23674 H 2218.05 0.473337 -0.577894 0
M  V30 23675 H 2220.71 0.606173 -1.85234 0
M  V30 23676 H 2219.81 2.04916 -2.35406 0
M  V30 23677 N 2220.11 1.37452 0.771027 0
M  V30 23678 C 2221.33 1.36067 1.56526 0
M  V30 23679 C 2221.76 -0.0515528 1.88029 0
M  V30 23680 O 2221.11 -1.02879 1.49283 0
M  V30 23681 C 2221.16 2.20688 2.85183 0
M  V30 23682 O 2220.27 1.612 3.7959 0
M  V30 23683 H 2219.61 0.464891 0.474102 0
M  V30 23684 H 2222.14 1.80985 0.954237 0
M  V30 23685 H 2222.15 2.33927 3.34279 0
M  V30 23686 H 2220.82 3.23338 2.61582 0
M  V30 23687 H 2219.4 1.57005 3.38236 0
M  V30 23688 N 2221.58 -0.997276 1.22033 0
M  V30 23689 C 2222.53 -2.08655 0.986504 0
M  V30 23690 C 2223.5 -1.65855 -0.090238 0
M  V30 23691 O 2224.69 -1.9071 0.0584629 0
M  V30 23692 C 2221.83 -3.40433 0.565629 0
M  V30 23693 C 2220.94 -3.966 1.71266 0
M  V30 23694 C 2220.07 -5.1652 1.2402 0
M  V30 23695 C 2219.11 -5.64814 2.35906 0
M  V30 23696 N 2218.25 -6.75976 1.89738 0
M  V30 23697 H 2223.09 -2.27991 1.91896 0
M  V30 23698 H 2220.63 -1.1178 0.956219 0
M  V30 23699 H 2222.59 -4.161 0.302812 0
M  V30 23700 H 2221.22 -3.21111 -0.329823 0
M  V30 23701 H 2220.27 -3.17847 2.08992 0
M  V30 23702 H 2221.58 -4.28428 2.55443 0
M  V30 23703 H 2220.73 -5.9946 0.934501 0
M  V30 23704 H 2219.47 -4.86305 0.368573 0
M  V30 23705 H 2218.48 -4.80465 2.67269 0
M  V30 23706 H 2219.7 -5.97055 3.23577 0
M  V30 23707 H 2217.65 -6.47553 1.04931 0
M  V30 23708 H 2217.57 -7.07099 2.67483 0
M  V30 23709 H 2218.83 -7.62433 1.62224 0
M  V30 23710 N 2223.06 -1.02932 -1.19343 0
M  V30 23711 C 2224.01 -0.610503 -2.22579 0
M  V30 23712 C 2224.98 0.375917 -1.6179 0
M  V30 23713 O 2226.16 0.272478 -1.88844 0
M  V30 23714 C 2223.3 0.0320867 -3.45085 0
M  V30 23715 C 2222.42 -1.00043 -4.20256 0
M  V30 23716 C 2221.55 -0.327553 -5.30189 0
M  V30 23717 C 2220.59 -1.34595 -5.97119 0
M  V30 23718 N 2219.73 -0.698849 -6.98613 0
M  V30 23719 H 2224.57 -1.49542 -2.57762 0
M  V30 23720 H 2222.11 -0.748333 -1.26643 0
M  V30 23721 H 2224.06 0.421893 -4.15061 0
M  V30 23722 H 2222.69 0.880585 -3.10557 0
M  V30 23723 H 2221.75 -1.50829 -3.4922 0
M  V30 23724 H 2223.06 -1.77441 -4.66172 0
M  V30 23725 H 2222.21 0.117073 -6.06587 0
M  V30 23726 H 2220.95 0.478627 -4.85346 0
M  V30 23727 H 2219.96 -1.80083 -5.19471 0
M  V30 23728 H 2221.18 -2.15363 -6.44046 0
M  V30 23729 H 2219.13 0.0872318 -6.55942 0
M  V30 23730 H 2219.04 -1.41071 -7.42721 0
M  V30 23731 H 2220.31 -0.278239 -7.79003 0
M  V30 23732 N 2224.54 1.35356 -0.807246 0
M  V30 23733 C 2225.95 1.81226 -0.448791 0
M  V30 23734 C 2226.3 1.67035 1.02926 0
M  V30 23735 O 2225.43 1.20137 1.79989 0
M  V30 23736 C 2226.02 3.29028 -0.807832 0
M  V30 23737 C 2224.58 3.73038 -0.501967 0
M  V30 23738 C 2223.73 2.57337 -1.03309 0
M  V30 23739 H 2226.68 1.23325 -0.99883 0
M  V30 23740 H 2226.7 3.80353 -0.105607 0
M  V30 23741 H 2226.21 3.39325 -1.88363 0
M  V30 23742 H 2224.31 3.6829 0.565063 0
M  V30 23743 H 2224.43 4.67786 -1.03505 0
M  V30 23744 H 2222.79 2.50596 -0.455383 0
M  V30 23745 H 2223.57 2.70411 -2.11501 0
M  V30 23746 N 2226.02 0.560807 1.47284 0
M  V30 23747 C 2226.95 -0.222398 2.28118 0
M  V30 23748 C 2227.96 -0.876032 1.37221 0
M  V30 23749 O 2229.15 -0.749279 1.62013 0
M  V30 23750 C 2226.25 -1.33279 3.11592 0
M  V30 23751 C 2225.43 -0.775265 4.30475 0
M  V30 23752 C 2224.48 -1.7706 4.95516 0
M  V30 23753 O 2223.51 -1.31529 5.53795 0
M  V30 23754 N 2224.71 -3.10409 4.90537 0
M  V30 23755 H 2227.48 0.47101 2.95976 0
M  V30 23756 H 2225.04 0.397118 1.56954 0
M  V30 23757 H 2227.03 -1.99746 3.51971 0
M  V30 23758 H 2225.6 -1.92938 2.45954 0
M  V30 23759 H 2224.82 0.0662805 3.94144 0
M  V30 23760 H 2226.11 -0.382182 5.07363 0
M  V30 23761 H 2225.51 -3.50042 4.44395 0
M  V30 23762 H 2224.06 -3.72425 5.34923 0
M  V30 23763 N 2227.5 -1.54768 0.297442 0
M  V30 23764 C 2228.44 -2.23387 -0.580237 0
M  V30 23765 C 2229.41 -1.21519 -1.13236 0
M  V30 23766 O 2230.6 -1.50129 -1.17754 0
M  V30 23767 C 2227.74 -2.97558 -1.74796 0
M  V30 23768 C 2226.85 -4.14192 -1.22757 0
M  V30 23769 C 2225.99 -4.75953 -2.35887 0
M  V30 23770 C 2225.03 -5.84738 -1.80963 0
M  V30 23771 N 2224.16 -6.40469 -2.87653 0
M  V30 23772 H 2229 -2.97998 0.0115357 0
M  V30 23773 H 2226.54 -1.4709 0.0174619 0
M  V30 23774 H 2228.5 -3.3879 -2.43469 0
M  V30 23775 H 2227.13 -2.2533 -2.31141 0
M  V30 23776 H 2226.18 -3.77925 -0.433205 0
M  V30 23777 H 2227.49 -4.92577 -0.785464 0
M  V30 23778 H 2226.65 -5.20019 -3.12514 0
M  V30 23779 H 2225.38 -3.96892 -2.83422 0
M  V30 23780 H 2224.39 -5.40099 -1.02824 0
M  V30 23781 H 2225.61 -6.6568 -1.34337 0
M  V30 23782 H 2223.56 -5.64293 -3.34528 0
M  V30 23783 H 2223.48 -7.1419 -2.47927 0
M  V30 23784 H 2224.75 -6.89193 -3.64188 0
M  V30 23785 N 2228.97 -0.0251005 -1.5758 0
M  V30 23786 C 2230.39 0.514292 -1.79477 0
M  V30 23787 C 2230.74 1.72489 -0.934987 0
M  V30 23788 O 2229.86 2.15918 -0.144283 0
M  V30 23789 C 2230.46 0.939785 -3.25505 0
M  V30 23790 C 2229.02 1.42432 -3.48411 0
M  V30 23791 C 2228.16 0.387152 -2.74584 0
M  V30 23792 H 2231.11 -0.251157 -1.567 0
M  V30 23793 H 2231.13 1.80439 -3.34996 0
M  V30 23794 H 2230.65 0.0584946 -3.88056 0
M  V30 23795 H 2228.75 2.32567 -2.91107 0
M  V30 23796 H 2228.86 1.43447 -4.57121 0
M  V30 23797 H 2227.22 0.854367 -2.39943 0
M  V30 23798 H 2228.01 -0.485603 -3.39848 0
M  V30 23799 N 2230.45 1.55637 0.247999 0
M  V30 23800 C 2231.7 1.76619 0.974103 0
M  V30 23801 C 2232.01 0.588829 1.86527 0
M  V30 23802 O 2233.22 0.681641 2.62804 0
M  V30 23803 C 2231.68 3.12682 1.78207 0
M  V30 23804 C 2231.28 4.38063 0.938353 0
M  V30 23805 C 2233.03 3.43004 2.50098 0
M  V30 23806 C 2230.94 5.65158 1.74215 0
M  V30 23807 H 2229.87 0.658411 0.367438 0
M  V30 23808 H 2232.52 1.82068 0.228808 0
M  V30 23809 H 2230.9 3.01337 2.56928 0
M  V30 23810 H 2232.07 4.60393 0.193554 0
M  V30 23811 H 2230.39 4.15068 0.332832 0
M  V30 23812 H 2232.98 4.35176 3.10687 0
M  V30 23813 H 2233.33 2.64277 3.21657 0
M  V30 23814 H 2233.86 3.55559 1.78388 0
M  V30 23815 H 2230.6 6.46703 1.07031 0
M  V30 23816 H 2230.12 5.46931 2.46226 0
M  V30 23817 H 2231.8 6.04374 2.30956 0
M  V30 23818 N 2231.93 -0.513613 1.48996 0
M  V30 23819 C 2233.34 -1.09534 1.51192 0
M  V30 23820 C 2233.69 -1.94031 0.29094 0
M  V30 23821 O 2232.82 -2.07903 -0.600453 0
M  V30 23822 C 2233.41 -1.99317 2.73967 0
M  V30 23823 C 2231.97 -2.52677 2.78983 0
M  V30 23824 C 2231.12 -1.30005 2.44937 0
M  V30 23825 H 2234.07 -0.298098 1.55875 0
M  V30 23826 H 2234.09 -2.83834 2.53414 0
M  V30 23827 H 2233.6 -1.37792 3.62815 0
M  V30 23828 H 2231.7 -3.17877 1.94383 0
M  V30 23829 H 2231.82 -2.90692 3.80835 0
M  V30 23830 H 2230.18 -1.62118 1.96443 0
M  V30 23831 H 2230.96 -0.702072 3.36044 0
M  V30 23832 N 2233.41 -1.37859 -0.763727 0
M  V30 23833 C 2234.83 -1.18834 -1.0654 0
M  V30 23834 C 2235.03 -0.0300077 -2.01478 0
M  V30 23835 O 2234.08 0.627404 -2.44581 0
M  V30 23836 C 2235.39 -2.51045 -1.6552 0
M  V30 23837 C 2236.94 -2.57638 -1.7774 0
M  V30 23838 C 2237.42 -3.9 -2.40134 0
M  V30 23839 N 2238.91 -3.91485 -2.47576 0
M  V30 23840 C 2239.64 -4.90656 -2.96723 0
M  V30 23841 N 2239.14 -6.00223 -3.45983 0
M  V30 23842 N 2240.93 -4.78053 -2.95671 0
M  V30 23843 H 2233.08 -2.1198 -0.133519 0
M  V30 23844 H 2235.35 -0.940135 -0.121863 0
M  V30 23845 H 2235.05 -3.36209 -1.0323 0
M  V30 23846 H 2234.93 -2.68712 -2.64714 0
M  V30 23847 H 2237.31 -1.72876 -2.39161 0
M  V30 23848 H 2237.39 -2.43847 -0.772793 0
M  V30 23849 H 2237.04 -4.7518 -1.7935 0
M  V30 23850 H 2236.97 -4.01098 -3.41216 0
M  V30 23851 H 2239.46 -3.12341 -2.12724 0
M  V30 23852 H 2239.77 -6.71836 -3.81911 0
M  V30 23853 H 2238.12 -6.03857 -3.44067 0
M  V30 23854 H 2241.31 -3.91573 -2.56492 0
M  V30 23855 H 2241.48 -5.55494 -3.33662 0
M  V30 23856 N 2234.89 0.990791 -1.22561 0
M  V30 23857 C 2236.3 1.54516 -1.04794 0
M  V30 23858 C 2236.65 1.92326 0.387964 0
M  V30 23859 O 2235.77 1.74978 1.27325 0
M  V30 23860 C 2236.37 2.80776 -1.89605 0
M  V30 23861 C 2234.93 3.32649 -1.76129 0
M  V30 23862 C 2234.08 2.05719 -1.85943 0
M  V30 23863 H 2237.03 0.811638 -1.36375 0
M  V30 23864 H 2237.05 3.53223 -1.41471 0
M  V30 23865 H 2236.56 2.53226 -2.94106 0
M  V30 23866 H 2234.66 3.65102 -0.743707 0
M  V30 23867 H 2234.77 4.03109 -2.5892 0
M  V30 23868 H 2233.14 2.19376 -1.29407 0
M  V30 23869 H 2233.92 1.80563 -2.91979 0
M  V30 23870 N 2236.37 1.03564 1.18795 0
M  V30 23871 C 2237.3 0.643058 2.24471 0
M  V30 23872 C 2238.28 -0.351253 1.66434 0
M  V30 23873 O 2239.46 -0.232471 1.92804 0
M  V30 23874 C 2236.59 1.85533e-05 3.473 0
M  V30 23875 C 2235.55 0.91733 4.18054 0
M  V30 23876 C 2234.87 0.139035 5.34519 0
M  V30 23877 C 2236.17 2.23415 4.72105 0
M  V30 23878 H 2237.87 1.52648 2.57564 0
M  V30 23879 H 2235.41 0.735416 1.23805 0
M  V30 23880 H 2237.36 -0.286309 4.20426 0
M  V30 23881 H 2236.09 -0.918243 3.13426 0
M  V30 23882 H 2234.75 1.18796 3.46818 0
M  V30 23883 H 2234.4 -0.781475 4.96892 0
M  V30 23884 H 2234.1 0.750107 5.82793 0
M  V30 23885 H 2235.62 -0.140393 6.10439 0
M  V30 23886 H 2237.03 2.00888 5.36951 0
M  V30 23887 H 2235.43 2.79774 5.30892 0
M  V30 23888 H 2236.5 2.88414 3.89802 0
M  V30 23889 N 2237.84 -1.34926 0.814413 0
M  V30 23890 C 2238.79 -2.31572 0.218465 0
M  V30 23891 C 2239.79 -1.57004 -0.6361 0
M  V30 23892 O 2240.99 -1.7207 -0.52839 0
M  V30 23893 H 2237.37 -0.750207 0.0518931 0
M  V30 23894 H 2239.34 -2.7937 1.04857 0
M  V30 23895 C 2238.09 -3.42271 -0.612009 0
M  V30 23896 H 2237.41 -3.99784 0.0362281 0
M  V30 23897 H 2238.85 -4.12154 -0.995245 0
M  V30 23898 C 2237.31 -2.85987 -1.78082 0
M  V30 23899 O 2237.84 -2.80173 -2.87865 0
M  V30 23900 N 2236.04 -2.42927 -1.59484 0
M  V30 23901 H 2235.59 -2.47855 -0.701831 0
M  V30 23902 H 2235.55 -2.05617 -2.37842 0
M  V30 23903 N 2239.32 -0.56861 -1.46985 0
M  V30 23904 C 2240.27 0.172666 -2.30153 0
M  V30 23905 C 2241.24 0.897562 -1.39761 0
M  V30 23906 O 2242.42 0.891014 -1.68717 0
M  V30 23907 C 2239.56 1.18944 -3.23954 0
M  V30 23908 C 2238.68 0.469441 -4.29442 0
M  V30 23909 C 2237.81 1.4725 -5.10383 0
M  V30 23910 C 2236.85 0.738118 -6.07633 0
M  V30 23911 N 2235.99 1.68856 -6.81493 0
M  V30 23912 H 2240.83 -0.542647 -2.93018 0
M  V30 23913 H 2238.36 -0.279426 -1.44422 0
M  V30 23914 H 2240.32 1.79166 -3.7677 0
M  V30 23915 H 2238.95 1.87264 -2.62929 0
M  V30 23916 H 2238 -0.247534 -3.79594 0
M  V30 23917 H 2239.32 -0.105329 -4.98689 0
M  V30 23918 H 2238.47 2.14793 -5.67405 0
M  V30 23919 H 2237.21 2.0812 -4.41064 0
M  V30 23920 H 2236.21 0.0488326 -5.49778 0
M  V30 23921 H 2237.44 0.13501 -6.78966 0
M  V30 23922 H 2235.39 2.28562 -6.14895 0
M  V30 23923 H 2235.3 1.16623 -7.4695 0
M  V30 23924 H 2236.57 2.35477 -7.43082 0
M  V30 23925 N 2240.8 1.54608 -0.305646 0
M  V30 23926 C 2242.03 2.04347 0.304297 0
M  V30 23927 C 2242.44 1.18226 1.47713 0
M  V30 23928 O 2241.78 0.201609 1.8259 0
M  V30 23929 C 2241.84 3.50047 0.818969 0
M  V30 23930 C 2241.51 4.56425 -0.2292 0
M  V30 23931 C 2242.5 5.08995 -1.05923 0
M  V30 23932 C 2240.19 5.00919 -0.372236 0
M  V30 23933 C 2242.18 6.04605 -2.0182 0
M  V30 23934 C 2239.87 5.96348 -1.33464 0
M  V30 23935 C 2240.87 6.48075 -2.1561 0
M  V30 23936 O 2240.56 7.41633 -3.10218 0
M  V30 23937 H 2240.29 0.672429 0.0693877 0
M  V30 23938 H 2242.84 2.00531 -0.444583 0
M  V30 23939 H 2241.07 3.51202 1.61845 0
M  V30 23940 H 2242.76 3.82958 1.3453 0
M  V30 23941 H 2243.53 4.75412 -0.959621 0
M  V30 23942 H 2239.41 4.60282 0.257223 0
M  V30 23943 H 2242.95 6.44905 -2.65977 0
M  V30 23944 H 2238.85 6.29348 -1.43496 0
M  V30 23945 H 2239.61 7.5945 -3.0525 0
M  V30 23946 N 2242.28 0.033457 1.57564 0
M  V30 23947 C 2243.21 -0.975775 2.07392 0
M  V30 23948 C 2244.22 -1.28608 0.998189 0
M  V30 23949 O 2245.41 -1.24997 1.27428 0
M  V30 23950 C 2242.51 -2.30205 2.48714 0
M  V30 23951 C 2241.68 -2.17627 3.79417 0
M  V30 23952 C 2240.74 -3.33226 4.07243 0
M  V30 23953 O 2239.77 -3.09918 4.7743 0
M  V30 23954 N 2240.97 -4.57154 3.57758 0
M  V30 23955 H 2243.74 -0.550608 2.94599 0
M  V30 23956 H 2241.3 -0.153202 1.61174 0
M  V30 23957 H 2243.29 -3.06374 2.64419 0
M  V30 23958 H 2241.86 -2.64348 1.6685 0
M  V30 23959 H 2241.08 -1.26159 3.73467 0
M  V30 23960 H 2242.37 -2.06432 4.65041 0
M  V30 23961 H 2241.77 -4.78983 3.00984 0
M  V30 23962 H 2240.32 -5.30476 3.78733 0
M  V30 23963 N 2243.76 -1.55766 -0.239741 0
M  V30 23964 C 2245 -1.77581 -0.96486 0
M  V30 23965 C 2245.32 -0.598732 -1.85581 0
M  V30 23966 O 2244.59 0.385193 -1.92076 0
M  V30 23967 H 2243.17 -0.65494 -0.359253 0
M  V30 23968 H 2245.84 -1.93212 -0.255967 0
M  V30 23969 H 2244.93 -2.69011 -1.58238 0
M  V30 23970 N 2245.23 0.505704 -1.49266 0
M  V30 23971 C 2246.48 1.26012 -1.58515 0
M  V30 23972 C 2246.81 1.9262 -0.269754 0
M  V30 23973 O 2246.06 1.81089 0.741965 0
M  V30 23974 C 2246.36 2.35303 -2.69012 0
M  V30 23975 C 2246.03 1.86185 -4.10665 0
M  V30 23976 C 2244.69 1.72508 -4.49215 0
M  V30 23977 C 2247.04 1.49366 -4.99339 0
M  V30 23978 C 2244.37 1.20384 -5.74216 0
M  V30 23979 C 2246.72 0.986962 -6.24853 0
M  V30 23980 C 2245.39 0.836553 -6.62237 0
M  V30 23981 H 2244.66 0.461112 -0.580049 0
M  V30 23982 H 2247.3 0.561633 -1.83079 0
M  V30 23983 H 2245.61 3.10921 -2.38401 0
M  V30 23984 H 2247.31 2.93369 -2.73378 0
M  V30 23985 H 2243.9 1.97788 -3.80234 0
M  V30 23986 H 2248.08 1.58782 -4.70215 0
M  V30 23987 H 2243.34 1.07447 -6.01885 0
M  V30 23988 H 2247.51 0.692861 -6.92945 0
M  V30 23989 H 2245.14 0.430474 -7.5898 0
M  V30 23990 N 2246.71 1.38262 0.756405 0
M  V30 23991 C 2247.96 1.33633 1.5108 0
M  V30 23992 C 2248.27 -0.0719725 1.95468 0
M  V30 23993 O 2249.48 -0.240786 2.7043 0
M  V30 23994 C 2247.94 2.34648 2.72888 0
M  V30 23995 C 2247.54 3.81085 2.35537 0
M  V30 23996 C 2249.29 2.39058 3.50787 0
M  V30 23997 C 2247.2 4.73794 3.5394 0
M  V30 23998 H 2246.13 0.49672 0.567261 0
M  V30 23999 H 2248.78 1.63802 0.827118 0
M  V30 24000 H 2247.16 1.97519 3.43223 0
M  V30 24001 H 2248.33 4.27138 1.72887 0
M  V30 24002 H 2246.65 3.79767 1.7078 0
M  V30 24003 H 2249.24 3.05521 4.38818 0
M  V30 24004 H 2249.59 1.40868 3.91742 0
M  V30 24005 H 2250.12 2.74973 2.87462 0
M  V30 24006 H 2246.86 5.73169 3.18053 0
M  V30 24007 H 2246.38 4.32436 4.15643 0
M  V30 24008 H 2248.06 4.91671 4.20558 0
M  V30 24009 N 2248.19 -0.984277 1.23084 0
M  V30 24010 C 2249.44 -1.72504 1.0606 0
M  V30 24011 C 2249.77 -1.90278 -0.403072 0
M  V30 24012 O 2249.02 -1.44947 -1.31487 0
M  V30 24013 C 2249.32 -3.12917 1.72679 0
M  V30 24014 C 2248.99 -3.15033 3.22591 0
M  V30 24015 C 2247.65 -3.15317 3.63495 0
M  V30 24016 C 2250 -3.10649 4.18505 0
M  V30 24017 C 2247.33 -3.0893 4.98777 0
M  V30 24018 C 2249.68 -3.05804 5.53775 0
M  V30 24019 C 2248.34 -3.04409 5.94047 0
M  V30 24020 H 2247.61 -0.631235 0.388102 0
M  V30 24021 H 2250.26 -1.15213 1.52965 0
M  V30 24022 H 2248.57 -3.7357 1.18123 0
M  V30 24023 H 2250.26 -3.68993 1.56988 0
M  V30 24024 H 2246.85 -3.15566 2.90028 0
M  V30 24025 H 2251.04 -3.09572 3.87916 0
M  V30 24026 H 2246.29 -3.062 5.29199 0
M  V30 24027 H 2250.47 -3.01369 6.27813 0
M  V30 24028 H 2248.09 -2.99214 6.98838 0
M  V30 24029 N 2249.67 -1.04192 -1.18244 0
M  V30 24030 C 2250.95 -0.66024 -1.8412 0
M  V30 24031 C 2251.33 0.860187 -1.9278 0
M  V30 24032 O 2250.67 1.76214 -1.45467 0
M  V30 24033 C 2250.88 -1.33753 -3.22352 0
M  V30 24034 C 2252.23 -1.46913 -3.98374 0
M  V30 24035 O 2253.26 -1.29574 -3.31797 0
M  V30 24036 O 2252.11 -1.7518 -5.17662 0
M  V30 24037 H 2249.21 -0.231175 -0.794032 0
M  V30 24038 H 2251.75 -1.14089 -1.25626 0
M  V30 24039 H 2250.53 -2.37528 -3.1096 0
M  V30 24040 H 2250.15 -0.845583 -3.88504 0
M  V30 24041 N 2251.15 1.34492 -0.821557 0
M  V30 24042 C 2252.4 1.97584 -0.40539 0
M  V30 24043 C 2252.71 1.65865 1.03674 0
M  V30 24044 O 2253.91 2.22436 1.55675 0
M  V30 24045 C 2252.37 3.53534 -0.673924 0
M  V30 24046 C 2251.98 3.94148 -2.12958 0
M  V30 24047 C 2253.72 4.23263 -0.323854 0
M  V30 24048 C 2251.63 5.43005 -2.34308 0
M  V30 24049 H 2250.56 0.739362 -0.147849 0
M  V30 24050 H 2253.21 1.53353 -1.00772 0
M  V30 24051 H 2251.59 3.96 -0.00144515 0
M  V30 24052 H 2252.77 3.62792 -2.84111 0
M  V30 24053 H 2251.08 3.37352 -2.44095 0
M  V30 24054 H 2253.68 5.32707 -0.461219 0
M  V30 24055 H 2254.02 4.09823 0.731514 0
M  V30 24056 H 2254.55 3.86269 -0.950854 0
M  V30 24057 H 2251.29 5.61429 -3.38345 0
M  V30 24058 H 2250.81 5.7588 -1.67697 0
M  V30 24059 H 2252.49 6.09667 -2.16599 0
M  V30 24060 N 2252.62 0.576397 1.46681 0
M  V30 24061 C 2253.87 0.0596577 2.02712 0
M  V30 24062 C 2254.2 -1.29445 1.44767 0
M  V30 24063 O 2253.48 -1.84674 0.610387 0
M  V30 24064 C 2253.76 -0.012887 3.60098 0
M  V30 24065 C 2253.61 1.36967 4.28439 0
M  V30 24066 C 2254.93 -0.716704 4.34225 0
M  V30 24067 H 2252.05 0.0231537 0.736636 0
M  V30 24068 H 2254.69 0.742381 1.74896 0
M  V30 24069 H 2252.84 -0.594311 3.83927 0
M  V30 24070 H 2254.52 1.99578 4.15892 0
M  V30 24071 H 2252.76 1.93913 3.88046 0
M  V30 24072 H 2253.43 1.27145 5.37158 0
M  V30 24073 H 2255.91 -0.222834 4.15503 0
M  V30 24074 H 2254.78 -0.736475 5.43937 0
M  V30 24075 H 2255.04 -1.77675 4.04826 0
M  V30 24076 N 2254.1 -1.54444 0.313841 0
M  V30 24077 C 2255.33 -2.04802 -0.293882 0
M  V30 24078 C 2255.75 -1.1905 -1.46535 0
M  V30 24079 O 2255.1 -0.218971 -1.81182 0
M  V30 24080 C 2255.15 -3.53892 -0.737744 0
M  V30 24081 O 2254.87 -4.36386 0.387115 0
M  V30 24082 C 2256.38 -4.20302 -1.40929 0
M  V30 24083 H 2253.6 -0.66813 -0.061994 0
M  V30 24084 H 2256.14 -1.99324 0.457205 0
M  V30 24085 H 2254.29 -3.5969 -1.43883 0
M  V30 24086 H 2254.71 -5.24485 0.0392196 0
M  V30 24087 H 2256.18 -5.26104 -1.67089 0
M  V30 24088 H 2256.66 -3.7082 -2.35348 0
M  V30 24089 H 2257.27 -4.18616 -0.751043 0
M  V30 24090 N 2255.58 -0.0418125 -1.57545 0
M  V30 24091 C 2256.53 0.935768 -2.10979 0
M  V30 24092 C 2257.5 1.31489 -1.01488 0
M  V30 24093 O 2258.68 1.406 -1.28982 0
M  V30 24094 C 2255.82 2.20855 -2.65173 0
M  V30 24095 C 2254.94 1.88475 -3.88717 0
M  V30 24096 C 2254.07 3.10143 -4.3126 0
M  V30 24097 C 2253.11 2.7364 -5.47529 0
M  V30 24098 N 2252.25 3.87972 -5.85168 0
M  V30 24099 H 2257.09 0.473197 -2.94219 0
M  V30 24100 H 2254.62 0.221956 -1.45416 0
M  V30 24101 H 2256.58 2.9532 -2.9469 0
M  V30 24102 H 2255.21 2.64706 -1.84744 0
M  V30 24103 H 2254.26 1.04199 -3.65851 0
M  V30 24104 H 2255.58 1.576 -4.73248 0
M  V30 24105 H 2254.73 3.92915 -4.6228 0
M  V30 24106 H 2253.47 3.44189 -3.45522 0
M  V30 24107 H 2252.47 1.89282 -5.1619 0
M  V30 24108 H 2253.7 2.40796 -6.34976 0
M  V30 24109 H 2251.64 4.21837 -5.02384 0
M  V30 24110 H 2251.56 3.60763 -6.64369 0
M  V30 24111 H 2252.83 4.71411 -6.20799 0
M  V30 24112 N 2257.06 1.55891 0.231477 0
M  V30 24113 C 2257.99 1.88072 1.31002 0
M  V30 24114 C 2259 0.76817 1.43537 0
M  V30 24115 O 2260.19 1.0464 1.44612 0
M  V30 24116 C 2257.29 2.06548 2.68684 0
M  V30 24117 C 2256.47 3.37507 2.78222 0
M  V30 24118 C 2255.52 3.45536 3.96851 0
M  V30 24119 O 2254.55 4.1864 3.85655 0
M  V30 24120 N 2255.75 2.75953 5.10715 0
M  V30 24121 H 2258.52 2.81178 1.03726 0
M  V30 24122 H 2256.08 1.56316 0.421546 0
M  V30 24123 H 2258.07 2.09245 3.46408 0
M  V30 24124 H 2256.64 1.20114 2.88602 0
M  V30 24125 H 2255.86 3.46994 1.87053 0
M  V30 24126 H 2257.15 4.23796 2.81557 0
M  V30 24127 H 2256.55 2.16321 5.22706 0
M  V30 24128 H 2255.1 2.84324 5.86518 0
M  V30 24129 N 2258.54 -0.497781 1.49532 0
M  V30 24130 C 2259.5 -1.58125 1.65919 0
M  V30 24131 C 2260.5 -1.51785 0.530851 0
M  V30 24132 O 2261.69 -1.54879 0.79737 0
M  V30 24133 C 2258.82 -2.97777 1.65956 0
M  V30 24134 H 2260.01 -1.44924 2.62559 0
M  V30 24135 H 2257.57 -0.722251 1.38612 0
M  V30 24136 H 2258.3 -3.16452 0.70912 0
M  V30 24137 H 2258.09 -3.03788 2.47902 0
M  V30 24138 H 2259.58 -3.7649 1.80679 0
M  V30 24139 N 2260.01 -1.38661 -0.749062 0
M  V30 24140 C 2261.26 -1.35116 -1.5083 0
M  V30 24141 C 2261.59 0.0573707 -1.94415 0
M  V30 24142 O 2260.84 1.03538 -1.66067 0
M  V30 24143 C 2261.14 -2.25702 -2.77116 0
M  V30 24144 C 2260.81 -3.7359 -2.52471 0
M  V30 24145 C 2259.47 -4.13888 -2.45458 0
M  V30 24146 C 2261.82 -4.67185 -2.31057 0
M  V30 24147 C 2259.15 -5.45865 -2.15054 0
M  V30 24148 C 2261.5 -5.99424 -2.02173 0
M  V30 24149 C 2260.17 -6.38802 -1.9362 0
M  V30 24150 H 2259.44 -0.494426 -0.551927 0
M  V30 24151 H 2262.08 -1.71055 -0.860949 0
M  V30 24152 H 2260.39 -1.82833 -3.46524 0
M  V30 24153 H 2262.09 -2.2026 -3.35092 0
M  V30 24154 H 2258.68 -3.41643 -2.58801 0
M  V30 24155 H 2262.86 -4.36894 -2.35451 0
M  V30 24156 H 2258.12 -5.75312 -2.06944 0
M  V30 24157 H 2262.29 -6.71485 -1.84609 0
M  V30 24158 H 2259.92 -7.40988 -1.69826 0
M  V30 24159 N 2261.49 0.977736 -1.23605 0
M  V30 24160 C 2262.77 1.69399 -0.977927 0
M  V30 24161 C 2263.15 2.05027 0.502702 0
M  V30 24162 O 2262.5 1.74554 1.47456 0
M  V30 24163 C 2262.71 2.93341 -1.89082 0
M  V30 24164 C 2264.06 3.65798 -2.15585 0
M  V30 24165 O 2265.08 3.03379 -1.86653 0
M  V30 24166 O 2263.94 4.78136 -2.64666 0
M  V30 24167 H 2261.03 0.740095 -0.369038 0
M  V30 24168 H 2263.58 1.03272 -1.34659 0
M  V30 24169 H 2262.35 2.63629 -2.89163 0
M  V30 24170 H 2261.97 3.67204 -1.52469 0
M  V30 24171 N 2262.97 1.04818 1.1769 0
M  V30 24172 C 2264.22 0.757143 1.88136 0
M  V30 24173 C 2264.55 -0.713809 1.80606 0
M  V30 24174 O 2263.83 -1.52162 1.21149 0
M  V30 24175 C 2264.11 1.23346 3.38316 0
M  V30 24176 C 2263.96 2.76707 3.54617 0
M  V30 24177 C 2265.28 0.829491 4.32212 0
M  V30 24178 H 2262.4 0.276522 0.683158 0
M  V30 24179 H 2265.04 1.30151 1.38422 0
M  V30 24180 H 2263.19 0.770352 3.80786 0
M  V30 24181 H 2264.86 3.31113 3.21188 0
M  V30 24182 H 2263.11 3.16167 2.9702 0
M  V30 24183 H 2263.78 3.05096 4.60022 0
M  V30 24184 H 2266.25 1.22812 3.97563 0
M  V30 24185 H 2265.13 1.19043 5.35836 0
M  V30 24186 H 2265.39 -0.266814 4.41294 0
M  V30 24187 N 2264.45 -1.34055 0.828678 0
M  V30 24188 C 2265.68 -2.02326 0.432656 0
M  V30 24189 C 2266.09 -1.62387 -0.963119 0
M  V30 24190 O 2265.45 -0.83215 -1.62424 0
M  V30 24191 C 2265.5 -3.57566 0.531883 0
M  V30 24192 O 2265.22 -3.9606 1.87265 0
M  V30 24193 C 2266.72 -4.43105 0.1315 0
M  V30 24194 H 2263.94 -0.648332 0.172934 0
M  V30 24195 H 2266.49 -1.71206 1.11843 0
M  V30 24196 H 2264.64 -3.87255 -0.10587 0
M  V30 24197 H 2265.06 -4.90754 1.85096 0
M  V30 24198 H 2266.53 -5.51424 0.252001 0
M  V30 24199 H 2267.01 -4.29337 -0.92557 0
M  V30 24200 H 2267.61 -4.18755 0.74328 0
M  V30 24201 N 2265.93 -0.584167 -1.46374 0
M  V30 24202 C 2267.18 -0.0680095 -2.01585 0
M  V30 24203 C 2267.49 1.30042 -1.46111 0
M  V30 24204 O 2268.7 1.908 -1.93151 0
M  V30 24205 C 2267.15 -0.070984 -3.5983 0
M  V30 24206 C 2266.76 -1.43782 -4.243 0
M  V30 24207 C 2268.5 0.391154 -4.22694 0
M  V30 24208 C 2266.41 -1.39845 -5.74628 0
M  V30 24209 H 2265.34 -0.0216553 -0.753689 0
M  V30 24210 H 2267.99 -0.736031 -1.68092 0
M  V30 24211 H 2266.37 0.66323 -3.90407 0
M  V30 24212 H 2267.55 -2.19188 -4.05331 0
M  V30 24213 H 2265.86 -1.8401 -3.73536 0
M  V30 24214 H 2268.46 0.439431 -5.32891 0
M  V30 24215 H 2268.8 1.40899 -3.91731 0
M  V30 24216 H 2269.34 -0.289043 -3.96749 0
M  V30 24217 H 2266.07 -2.39313 -6.10253 0
M  V30 24218 H 2265.59 -0.686609 -5.95857 0
M  V30 24219 H 2267.27 -1.11198 -6.37373 0
M  V30 24220 N 2267.41 1.54275 -0.322027 0
M  V30 24221 C 2268.34 2.20517 0.587141 0
M  V30 24222 C 2269.32 1.18169 1.1169 0
M  V30 24223 O 2270.5 1.46901 1.18119 0
M  V30 24224 C 2267.63 2.86565 1.80549 0
M  V30 24225 C 2266.67 4.0262 1.40711 0
M  V30 24226 S 2267.51 5.33647 0.445124 0
M  V30 24227 C 2268.66 6.03188 1.67079 0
M  V30 24228 H 2268.9 2.9729 0.0244352 0
M  V30 24229 H 2266.43 1.54035 -0.106114 0
M  V30 24230 H 2268.39 3.25241 2.50457 0
M  V30 24231 H 2267.05 2.09599 2.33938 0
M  V30 24232 H 2266.24 4.47691 2.31493 0
M  V30 24233 H 2265.84 3.6561 0.787755 0
M  V30 24234 H 2268.13 6.25273 2.60845 0
M  V30 24235 H 2269.08 6.96758 1.26227 0
M  V30 24236 H 2269.49 5.33079 1.85707 0
M  V30 24237 N 2268.88 0.0501669 1.5752 0
M  V30 24238 C 2270.13 -0.62384 1.92651 0
M  V30 24239 C 2270.46 -1.7091 0.928441 0
M  V30 24240 O 2269.71 -1.9561 -0.0594181 0
M  V30 24241 C 2270.01 -1.25957 3.34469 0
M  V30 24242 C 2269.68 -0.30261 4.49883 0
M  V30 24243 C 2268.34 -0.039279 4.81184 0
M  V30 24244 C 2270.69 0.353296 5.20001 0
M  V30 24245 C 2268.02 0.88741 5.7995 0
M  V30 24246 C 2270.37 1.26817 6.19758 0
M  V30 24247 C 2269.04 1.54018 6.49488 0
M  V30 24248 H 2268.31 -0.228279 0.704961 0
M  V30 24249 H 2270.95 0.116431 1.91146 0
M  V30 24250 H 2269.26 -2.07509 3.32336 0
M  V30 24251 H 2270.96 -1.788 3.58931 0
M  V30 24252 H 2267.55 -0.518034 4.25458 0
M  V30 24253 H 2271.73 0.162942 4.96032 0
M  V30 24254 H 2266.99 1.10564 6.0132 0
M  V30 24255 H 2271.16 1.78248 6.73202 0
M  V30 24256 H 2268.79 2.25988 7.25833 0
M  V30 24257 N 2270.36 -1.56011 -0.223207 0
M  V30 24258 C 2271.29 -1.953 -1.27984 0
M  V30 24259 C 2272.27 -0.821005 -1.48975 0
M  V30 24260 O 2273.46 -1.08318 -1.61186 0
M  V30 24261 C 2270.59 -2.26827 -2.62996 0
M  V30 24262 C 2269.54 -3.42501 -2.56665 0
M  V30 24263 C 2268.87 -3.59629 -3.95691 0
M  V30 24264 C 2270.17 -4.77521 -2.11592 0
M  V30 24265 H 2271.86 -2.83812 -0.953475 0
M  V30 24266 H 2269.41 -1.36549 -0.45722 0
M  V30 24267 H 2271.36 -2.52904 -3.37072 0
M  V30 24268 H 2270.08 -1.35167 -2.97317 0
M  V30 24269 H 2268.74 -3.16471 -1.85046 0
M  V30 24270 H 2268.39 -2.65347 -4.27317 0
M  V30 24271 H 2268.09 -4.37431 -3.92337 0
M  V30 24272 H 2269.62 -3.88052 -4.71432 0
M  V30 24273 H 2271.03 -5.02814 -2.75411 0
M  V30 24274 H 2269.43 -5.58594 -2.19301 0
M  V30 24275 H 2270.5 -4.72989 -1.06816 0
M  V30 24276 N 2271.84 0.489844 -1.49794 0
M  V30 24277 C 2273.09 1.23992 -1.59088 0
M  V30 24278 C 2273.4 1.93469 -0.287941 0
M  V30 24279 O 2274.61 2.70256 -0.259554 0
M  V30 24280 C 2273.06 2.25195 -2.8074 0
M  V30 24281 C 2272.67 1.61607 -4.17836 0
M  V30 24282 C 2274.42 3.00962 -2.9937 0
M  V30 24283 C 2272.32 2.60987 -5.30698 0
M  V30 24284 H 2271.25 0.466478 -0.59238 0
M  V30 24285 H 2273.9 0.512489 -1.76198 0
M  V30 24286 H 2272.29 3.0115 -2.57148 0
M  V30 24287 H 2273.46 0.915695 -4.5161 0
M  V30 24288 H 2271.77 0.981905 -4.04657 0
M  V30 24289 H 2274.37 3.75302 -3.80858 0
M  V30 24290 H 2274.71 3.5924 -2.10362 0
M  V30 24291 H 2275.25 2.32122 -3.23054 0
M  V30 24292 H 2271.99 2.07474 -6.218 0
M  V30 24293 H 2271.51 3.29231 -5.01365 0
M  V30 24294 H 2273.19 3.23193 -5.60496 0
M  V30 24295 N 2273.32 1.39056 0.741698 0
M  V30 24296 C 2274.56 1.37341 1.51383 0
M  V30 24297 C 2274.92 -0.0330176 1.91972 0
M  V30 24298 O 2276.12 -0.175127 2.68229 0
M  V30 24299 C 2274.39 2.31281 2.72477 0
M  V30 24300 S 2275.95 2.47694 3.62206 0
M  V30 24301 H 2272.77 0.487138 0.517897 0
M  V30 24302 H 2275.37 1.75092 0.869659 0
M  V30 24303 H 2274.08 3.3234 2.40787 0
M  V30 24304 H 2273.61 1.94722 3.41829 0
M  V30 24305 H 2275.62 1.70986 4.65809 0
M  V30 24306 N 2274.8 -0.971167 1.24121 0
M  V30 24307 C 2275.73 -2.08302 1.05511 0
M  V30 24308 C 2276.71 -1.70072 -0.0308565 0
M  V30 24309 O 2277.89 -1.93726 0.135556 0
M  V30 24310 C 2275.02 -3.41059 0.655425 0
M  V30 24311 C 2273.98 -3.93231 1.68978 0
M  V30 24312 C 2273.3 -5.22291 1.14525 0
M  V30 24313 C 2274.6 -4.2146 3.08494 0
M  V30 24314 H 2276.3 -2.24129 1.98511 0
M  V30 24315 H 2273.84 -1.07702 0.95584 0
M  V30 24316 H 2275.79 -4.18275 0.512243 0
M  V30 24317 H 2274.52 -3.25123 -0.310263 0
M  V30 24318 H 2273.18 -3.18168 1.82111 0
M  V30 24319 H 2272.83 -5.02712 0.170277 0
M  V30 24320 H 2272.53 -5.58165 1.83645 0
M  V30 24321 H 2274.05 -6.0212 1.01412 0
M  V30 24322 H 2275.46 -4.89393 2.98609 0
M  V30 24323 H 2273.86 -4.68555 3.74935 0
M  V30 24324 H 2274.93 -3.2837 3.56793 0
M  V30 24325 N 2276.27 -1.05441 -1.17133 0
M  V30 24326 C 2277.22 -0.65155 -2.23288 0
M  V30 24327 C 2278.22 0.328382 -1.66187 0
M  V30 24328 O 2279.42 0.194174 -1.7895 0
M  V30 24329 H 2275.8 -0.192536 -0.726935 0
M  V30 24330 H 2277.77 -1.55694 -2.54562 0
M  V30 24331 C 2276.52 -0.0449047 -3.47671 0
M  V30 24332 H 2275.84 -0.790029 -3.91917 0
M  V30 24333 H 2277.28 0.199566 -4.2353 0
M  V30 24334 C 2275.74 1.20912 -3.14455 0
M  V30 24335 O 2276.27 2.29819 -3.29463 0
M  V30 24336 N 2274.48 1.10774 -2.68659 0
M  V30 24337 H 2274.02 0.221481 -2.56646 0
M  V30 24338 H 2273.98 1.94766 -2.46807 0
M  V30 24339 N 2277.75 1.33613 -0.835776 0
M  V30 24340 C 2278.69 2.27214 -0.211855 0
M  V30 24341 C 2279.66 1.49508 0.639222 0
M  V30 24342 O 2280.85 1.78691 0.600161 0
M  V30 24343 C 2277.97 3.31328 0.702835 0
M  V30 24344 C 2277.02 4.26439 -0.0723799 0
M  V30 24345 S 2277.85 5.16103 -1.4282 0
M  V30 24346 C 2279.01 6.23747 -0.518723 0
M  V30 24347 H 2279.24 2.79785 -1.00538 0
M  V30 24348 H 2276.78 1.40857 -0.63236 0
M  V30 24349 H 2278.73 3.91796 1.22498 0
M  V30 24350 H 2277.39 2.77579 1.46999 0
M  V30 24351 H 2276.59 5.00128 0.623502 0
M  V30 24352 H 2276.19 3.7029 -0.525489 0
M  V30 24353 H 2278.48 6.76902 0.284659 0
M  V30 24354 H 2279.42 6.97411 -1.22569 0
M  V30 24355 H 2279.83 5.64409 -0.101444 0
M  V30 24356 N 2279.23 0.591922 1.46062 0
M  V30 24357 C 2280.48 0.0811547 2.02638 0
M  V30 24358 C 2280.81 -1.27902 1.46132 0
M  V30 24359 O 2280.08 -1.84016 0.62994 0
M  V30 24360 C 2280.37 0.0253069 3.60091 0
M  V30 24361 C 2280.22 1.41504 4.26962 0
M  V30 24362 C 2281.54 -0.670608 4.34961 0
M  V30 24363 H 2278.66 0.0309654 0.736349 0
M  V30 24364 H 2281.3 0.76089 1.74099 0
M  V30 24365 H 2279.45 -0.553557 3.84536 0
M  V30 24366 H 2281.12 2.03978 4.13752 0
M  V30 24367 H 2279.37 1.98018 3.85968 0
M  V30 24368 H 2280.04 1.32835 5.35779 0
M  V30 24369 H 2282.51 -0.178752 4.15716 0
M  V30 24370 H 2281.39 -0.678742 5.44687 0
M  V30 24371 H 2281.65 -1.73371 4.06688 0
M  V30 24372 N 2280.71 -1.54102 0.330204 0
M  V30 24373 C 2281.94 -2.05102 -0.272143 0
M  V30 24374 C 2282.35 -1.20597 -1.45264 0
M  V30 24375 O 2281.71 -0.238175 -1.80939 0
M  V30 24376 C 2281.76 -3.54655 -0.700168 0
M  V30 24377 O 2281.48 -4.35951 0.433378 0
M  V30 24378 C 2282.98 -4.21773 -1.36463 0
M  V30 24379 H 2280.2 -0.66875 -0.0549041 0
M  V30 24380 H 2282.75 -1.98827 0.47832 0
M  V30 24381 H 2280.9 -3.61195 -1.40059 0
M  V30 24382 H 2281.31 -5.24414 0.0948461 0
M  V30 24383 H 2282.79 -5.27846 -1.615 0
M  V30 24384 H 2283.27 -3.73296 -2.31402 0
M  V30 24385 H 2283.87 -4.19389 -0.706601 0
M  V30 24386 N 2282.19 -0.0585199 -1.57491 0
M  V30 24387 C 2283.12 0.948933 -2.07534 0
M  V30 24388 C 2284.1 1.2994 -0.977467 0
M  V30 24389 O 2285.28 1.411 -1.24992 0
M  V30 24390 C 2282.41 2.26086 -2.52196 0
M  V30 24391 C 2281.45 2.06291 -3.73291 0
M  V30 24392 S 2282.29 1.33449 -5.18605 0
M  V30 24393 C 2283.44 2.6595 -5.66588 0
M  V30 24394 H 2283.68 0.523067 -2.92662 0
M  V30 24395 H 2281.21 0.153927 -1.53631 0
M  V30 24396 H 2283.17 3.01493 -2.7859 0
M  V30 24397 H 2281.83 2.65799 -1.67361 0
M  V30 24398 H 2281.02 3.0335 -4.02486 0
M  V30 24399 H 2280.62 1.39023 -3.47201 0
M  V30 24400 H 2282.92 3.62091 -5.72622 0
M  V30 24401 H 2283.86 2.41382 -6.65688 0
M  V30 24402 H 2284.27 2.72546 -4.94347 0
M  V30 24403 N 2283.66 1.56128 0.21493 0
M  V30 24404 C 2284.6 1.8798 1.29379 0
M  V30 24405 C 2285.58 0.737832 1.44896 0
M  V30 24406 O 2286.76 0.986861 1.60603 0
M  V30 24407 C 2283.89 2.09263 2.66321 0
M  V30 24408 C 2282.93 3.31955 2.67783 0
M  V30 24409 S 2283.77 4.87684 2.2119 0
M  V30 24410 C 2284.92 5.12011 3.59994 0
M  V30 24411 H 2285.15 2.79194 1.02168 0
M  V30 24412 H 2282.69 1.48649 0.41749 0
M  V30 24413 H 2284.65 2.22207 3.45158 0
M  V30 24414 H 2283.31 1.18834 2.90753 0
M  V30 24415 H 2282.5 3.43912 3.6843 0
M  V30 24416 H 2282.1 3.17902 1.97014 0
M  V30 24417 H 2284.39 5.01315 4.5573 0
M  V30 24418 H 2285.34 6.13867 3.52948 0
M  V30 24419 H 2285.74 4.39718 3.53989 0
M  V30 24420 N 2285.14 -0.481893 1.50052 0
M  V30 24421 C 2286.39 -1.23658 1.60738 0
M  V30 24422 C 2286.72 -1.9184 0.30182 0
M  V30 24423 O 2286 -1.81621 -0.695993 0
M  V30 24424 C 2286.28 -2.28869 2.78013 0
M  V30 24425 C 2286.13 -1.65062 4.18419 0
M  V30 24426 C 2287.45 -3.30274 2.90873 0
M  V30 24427 H 2284.57 -0.448218 0.585038 0
M  V30 24428 H 2287.21 -0.531914 1.82403 0
M  V30 24429 H 2285.36 -2.88969 2.59672 0
M  V30 24430 H 2287.03 -1.08642 4.48324 0
M  V30 24431 H 2285.28 -0.954074 4.23178 0
M  V30 24432 H 2285.95 -2.41465 4.96385 0
M  V30 24433 H 2288.42 -2.80186 3.07628 0
M  V30 24434 H 2287.3 -4.01231 3.74573 0
M  V30 24435 H 2287.56 -3.93751 2.01028 0
M  V30 24436 N 2286.62 -1.39448 -0.734313 0
M  V30 24437 C 2287.53 -1.40498 -1.87876 0
M  V30 24438 C 2288.55 -0.299702 -1.71399 0
M  V30 24439 O 2289.72 -0.541283 -1.9399 0
M  V30 24440 C 2286.79 -1.2476 -3.23475 0
M  V30 24441 C 2285.85 -2.45265 -3.5234 0
M  V30 24442 C 2285.08 -2.30268 -4.81469 0
M  V30 24443 O 2285.3 -1.30652 -5.55235 0
M  V30 24444 O 2284.24 -3.19265 -5.10249 0
M  V30 24445 H 2288.06 -2.3697 -1.89945 0
M  V30 24446 H 2285.65 -1.2057 -0.882222 0
M  V30 24447 H 2287.53 -1.18118 -4.04507 0
M  V30 24448 H 2286.21 -0.313838 -3.22175 0
M  V30 24449 H 2285.11 -2.57483 -2.71392 0
M  V30 24450 H 2286.45 -3.37337 -3.5842 0
M  V30 24451 N 2288.1 0.964571 -1.24635 0
M  V30 24452 C 2289.33 1.74283 -1.11504 0
M  V30 24453 C 2289.74 1.85856 0.332133 0
M  V30 24454 O 2289.1 1.34913 1.22901 0
M  V30 24455 C 2289.15 3.16172 -1.75264 0
M  V30 24456 O 2288.87 3.05176 -3.14323 0
M  V30 24457 C 2290.37 4.10321 -1.67784 0
M  V30 24458 H 2287.59 0.546439 -0.389417 0
M  V30 24459 H 2290.14 1.2108 -1.64803 0
M  V30 24460 H 2288.29 3.66351 -1.2596 0
M  V30 24461 H 2288.7 3.94612 -3.45517 0
M  V30 24462 H 2290.18 5.07527 -2.17073 0
M  V30 24463 H 2290.66 4.34517 -0.639661 0
M  V30 24464 H 2291.26 3.66054 -2.16529 0
M  V30 24465 N 2289.58 1.0606 1.16572 0
M  V30 24466 C 2290.85 0.689448 1.83046 0
M  V30 24467 C 2291.23 -0.829409 1.94124 0
M  V30 24468 O 2290.58 -1.73878 1.48252 0
M  V30 24469 C 2290.79 1.38864 3.20184 0
M  V30 24470 C 2292.14 1.53232 3.95986 0
M  V30 24471 O 2293.16 1.34836 3.29693 0
M  V30 24472 O 2292.02 1.83393 5.1481 0
M  V30 24473 H 2289.12 0.243778 0.790254 0
M  V30 24474 H 2291.66 1.16073 1.23795 0
M  V30 24475 H 2290.43 2.42445 3.07142 0
M  V30 24476 H 2290.06 0.907284 3.8711 0
M  V30 24477 N 2291.06 -1.33168 0.84285 0
M  V30 24478 C 2292.33 -1.92216 0.36225 0
M  V30 24479 C 2292.71 -1.7684 -1.15286 0
M  V30 24480 O 2292.06 -1.15922 -1.96912 0
M  V30 24481 C 2292.27 -3.39385 0.813554 0
M  V30 24482 C 2293.62 -4.1653 0.823877 0
M  V30 24483 O 2294.64 -3.48054 0.757419 0
M  V30 24484 O 2293.5 -5.38781 0.915288 0
M  V30 24485 H 2290.6 -0.820519 0.103331 0
M  V30 24486 H 2293.14 -1.42015 0.928967 0
M  V30 24487 H 2291.91 -3.44466 1.8563 0
M  V30 24488 H 2291.54 -3.96971 0.22363 0
M  V30 24489 N 2292.53 -0.599659 -1.45746 0
M  V30 24490 C 2293.47 0.161838 -2.28628 0
M  V30 24491 C 2294.48 0.839343 -1.39495 0
M  V30 24492 O 2295.67 0.706061 -1.63942 0
M  V30 24493 C 2292.77 1.24971 -3.15017 0
M  V30 24494 C 2291.94 0.660859 -4.32379 0
M  V30 24495 C 2291 1.6386 -5.00036 0
M  V30 24496 O 2290.03 1.168 -5.57087 0
M  V30 24497 N 2291.23 2.97294 -4.98594 0
M  V30 24498 H 2293.99 -0.549317 -2.94623 0
M  V30 24499 H 2291.55 -0.438592 -1.55846 0
M  V30 24500 H 2293.55 1.90344 -3.57143 0
M  V30 24501 H 2292.12 1.86349 -2.50983 0
M  V30 24502 H 2291.34 -0.170758 -3.9383 0
M  V30 24503 H 2292.62 0.24753 -5.08198 0
M  V30 24504 H 2292.02 3.38137 -4.53519 0
M  V30 24505 H 2290.58 3.58111 -5.44609 0
M  V30 24506 N 2294.01 1.53925 -0.338371 0
M  V30 24507 C 2295.24 2.05714 0.263951 0
M  V30 24508 C 2295.66 1.21204 1.43845 0
M  V30 24509 O 2295.02 0.224567 1.79904 0
M  V30 24510 C 2295.07 3.54472 0.661938 0
M  V30 24511 O 2294.17 3.72836 1.76259 0
M  V30 24512 H 2293.51 0.662483 0.0448606 0
M  V30 24513 H 2296.04 1.98619 -0.491083 0
M  V30 24514 H 2296.05 3.97012 0.940524 0
M  V30 24515 H 2294.73 4.15433 -0.19701 0
M  V30 24516 H 2293.3 3.422 1.48167 0
M  V30 24517 N 2295.49 0.0668712 1.57458 0
M  V30 24518 C 2296.9 -0.466526 1.80777 0
M  V30 24519 C 2297.25 -1.69949 0.98039 0
M  V30 24520 O 2296.38 -2.1546 0.201479 0
M  V30 24521 C 2296.97 -0.853153 3.27882 0
M  V30 24522 C 2295.53 -1.33144 3.52065 0
M  V30 24523 C 2294.68 -0.314215 2.75514 0
M  V30 24524 H 2297.63 0.292615 1.55979 0
M  V30 24525 H 2297.65 -1.71494 3.39662 0
M  V30 24526 H 2297.16 0.0444121 3.88075 0
M  V30 24527 H 2295.26 -2.24767 2.97171 0
M  V30 24528 H 2295.38 -1.31276 4.60764 0
M  V30 24529 H 2293.74 -0.79045 2.42124 0
M  V30 24530 H 2294.52 0.575537 3.38441 0
M  V30 24531 N 2296.97 -1.56239 -0.206647 0
M  V30 24532 C 2297.88 -1.96811 -1.27682 0
M  V30 24533 C 2298.89 -0.874062 -1.50453 0
M  V30 24534 O 2300.07 -1.17887 -1.63293 0
M  V30 24535 C 2297.13 -2.28946 -2.60354 0
M  V30 24536 C 2296.2 -3.51998 -2.45756 0
M  V30 24537 C 2295.43 -3.82591 -3.72102 0
M  V30 24538 O 2295.65 -3.1464 -4.75771 0
M  V30 24539 O 2294.59 -4.76049 -3.68321 0
M  V30 24540 H 2298.41 -2.88043 -0.962543 0
M  V30 24541 H 2296 -1.43643 -0.410721 0
M  V30 24542 H 2297.88 -2.50743 -3.38682 0
M  V30 24543 H 2296.55 -1.40885 -2.91433 0
M  V30 24544 H 2295.46 -3.35462 -1.65578 0
M  V30 24545 H 2296.79 -4.40489 -2.19613 0
M  V30 24546 N 2298.45 0.473929 -1.50305 0
M  V30 24547 C 2299.39 1.57228 -1.68961 0
M  V30 24548 C 2300.36 1.57386 -0.530927 0
M  V30 24549 O 2301.55 1.7496 -0.761164 0
M  V30 24550 C 2298.69 2.9522 -1.78715 0
M  V30 24551 C 2297.8 3.04872 -3.06067 0
M  V30 24552 C 2296.94 4.33762 -3.06633 0
M  V30 24553 C 2295.97 4.37146 -4.2845 0
M  V30 24554 N 2295.11 5.57503 -4.26773 0
M  V30 24555 H 2299.95 1.40626 -2.62732 0
M  V30 24556 H 2297.49 0.683766 -1.30242 0
M  V30 24557 H 2299.45 3.75239 -1.82351 0
M  V30 24558 H 2298.08 3.10464 -0.88386 0
M  V30 24559 H 2297.13 2.17745 -3.11915 0
M  V30 24560 H 2298.44 3.03233 -3.96045 0
M  V30 24561 H 2297.59 5.22125 -3.08983 0
M  V30 24562 H 2296.33 4.38006 -2.1448 0
M  V30 24563 H 2295.34 3.47181 -4.26316 0
M  V30 24564 H 2296.56 4.34595 -5.21827 0
M  V30 24565 H 2294.51 5.62538 -3.37472 0
M  V30 24566 H 2294.43 5.57592 -5.10516 0
M  V30 24567 H 2295.69 6.47999 -4.33264 0
M  V30 24568 N 2299.92 1.39835 0.726907 0
M  V30 24569 C 2301.17 1.36808 1.48211 0
M  V30 24570 C 2301.49 -0.0304947 1.95576 0
M  V30 24571 O 2302.69 -0.18337 2.7088 0
M  V30 24572 C 2301.15 2.40384 2.6785 0
M  V30 24573 C 2300.76 3.85996 2.27401 0
M  V30 24574 C 2302.5 2.46445 3.45637 0
M  V30 24575 C 2300.41 4.81195 3.43811 0
M  V30 24576 H 2299.34 0.508641 0.556597 0
M  V30 24577 H 2301.99 1.65519 0.792187 0
M  V30 24578 H 2300.37 2.04755 3.38957 0
M  V30 24579 H 2301.54 4.30709 1.63788 0
M  V30 24580 H 2299.86 3.83304 1.62686 0
M  V30 24581 H 2302.46 3.1476 4.32238 0
M  V30 24582 H 2302.8 1.49146 3.88666 0
M  V30 24583 H 2303.33 2.81009 2.81565 0
M  V30 24584 H 2300.07 5.79786 3.05824 0
M  V30 24585 H 2299.59 4.41155 4.06377 0
M  V30 24586 H 2301.27 5.00481 4.10034 0
M  V30 24587 N 2301.4 -0.957948 1.25144 0
M  V30 24588 C 2302.35 -2.0754 1.05023 0
M  V30 24589 C 2303.34 -1.69391 -0.0178454 0
M  V30 24590 O 2304.55 -1.79474 0.137504 0
M  V30 24591 H 2300.92 -0.679259 0.322662 0
M  V30 24592 H 2302.9 -2.21669 1.99763 0
M  V30 24593 C 2301.64 -3.40943 0.682134 0
M  V30 24594 H 2300.97 -3.70764 1.4958 0
M  V30 24595 H 2302.41 -4.2 0.581019 0
M  V30 24596 C 2300.87 -3.31303 -0.61155 0
M  V30 24597 O 2301.4 -3.66041 -1.65459 0
M  V30 24598 N 2299.6 -2.84424 -0.595932 0
M  V30 24599 H 2299.15 -2.56352 0.253237 0
M  V30 24600 H 2299.11 -2.78356 -1.46168 0
M  V30 24601 N 2302.88 -1.06677 -1.16008 0
M  V30 24602 C 2304.13 -0.78085 -1.85972 0
M  V30 24603 C 2304.44 0.695412 -1.82821 0
M  V30 24604 O 2305.65 1.09585 -2.48402 0
M  V30 24605 C 2304.1 -1.3467 -3.33754 0
M  V30 24606 C 2303.71 -2.85349 -3.45369 0
M  V30 24607 C 2305.46 -1.1385 -4.08948 0
M  V30 24608 C 2303.36 -3.35159 -4.8726 0
M  V30 24609 H 2302.29 -0.28842 -0.696656 0
M  V30 24610 H 2304.94 -1.28597 -1.30901 0
M  V30 24611 H 2303.33 -0.769342 -3.88455 0
M  V30 24612 H 2304.5 -3.4907 -3.0081 0
M  V30 24613 H 2302.81 -3.04881 -2.83613 0
M  V30 24614 H 2305.41 -1.48549 -5.13651 0
M  V30 24615 H 2305.75 -0.0771014 -4.16229 0
M  V30 24616 H 2306.29 -1.68186 -3.60497 0
M  V30 24617 H 2303.03 -4.40795 -4.8516 0
M  V30 24618 H 2302.55 -2.76188 -5.32428 0
M  V30 24619 H 2304.23 -3.30714 -5.56091 0
M  V30 24620 N 2304.36 1.32719 -0.8499 0
M  V30 24621 C 2305.29 2.31482 -0.306349 0
M  V30 24622 C 2306.27 1.59469 0.591924 0
M  V30 24623 O 2307.45 1.87297 0.513166 0
M  V30 24624 C 2304.58 3.43533 0.510144 0
M  V30 24625 C 2303.54 4.26994 -0.293284 0
M  V30 24626 C 2302.86 5.30763 0.647649 0
M  V30 24627 C 2304.16 4.99802 -1.51643 0
M  V30 24628 H 2305.86 2.77193 -1.13157 0
M  V30 24629 H 2303.4 1.33265 -0.545577 0
M  V30 24630 H 2305.36 4.1166 0.900783 0
M  V30 24631 H 2304.08 2.96538 1.36869 0
M  V30 24632 H 2302.74 3.60507 -0.665619 0
M  V30 24633 H 2302.39 4.80023 1.5029 0
M  V30 24634 H 2302.09 5.87489 0.114116 0
M  V30 24635 H 2303.61 6.01754 1.03557 0
M  V30 24636 H 2305.03 5.60636 -1.19834 0
M  V30 24637 H 2303.42 5.6623 -1.98755 0
M  V30 24638 H 2304.49 4.27939 -2.28026 0
M  V30 24639 N 2305.84 0.60738 1.45426 0
M  V30 24640 C 2306.8 -0.101653 2.28974 0
M  V30 24641 C 2307.8 -0.795304 1.39755 0
M  V30 24642 O 2308.99 -0.643499 1.61879 0
M  V30 24643 C 2306.12 -1.15409 3.2077 0
M  V30 24644 H 2307.31 0.632896 2.93146 0
M  V30 24645 H 2304.87 0.366417 1.51944 0
M  V30 24646 H 2305.6 -1.91941 2.61399 0
M  V30 24647 H 2305.39 -0.660912 3.8649 0
M  V30 24648 H 2306.88 -1.65066 3.83592 0
M  V30 24649 N 2307.31 -1.53743 0.34653 0
M  V30 24650 C 2308.26 -2.2512 -0.508874 0
M  V30 24651 C 2309.23 -1.2506 -1.09313 0
M  V30 24652 O 2310.42 -1.53799 -1.12918 0
M  V30 24653 C 2307.56 -3.02968 -1.65241 0
M  V30 24654 C 2306.67 -4.17888 -1.09517 0
M  V30 24655 C 2305.8 -4.83216 -2.20625 0
M  V30 24656 C 2304.84 -5.90199 -1.62269 0
M  V30 24657 N 2303.98 -6.49296 -2.67131 0
M  V30 24658 H 2308.82 -2.9781 0.106336 0
M  V30 24659 H 2306.36 -1.4696 0.0642485 0
M  V30 24660 H 2308.32 -3.46364 -2.32568 0
M  V30 24661 H 2306.95 -2.32569 -2.23856 0
M  V30 24662 H 2306 -3.79112 -0.312751 0
M  V30 24663 H 2307.31 -4.94826 -0.628357 0
M  V30 24664 H 2306.46 -5.29699 -2.95811 0
M  V30 24665 H 2305.2 -4.05708 -2.70652 0
M  V30 24666 H 2304.21 -5.43097 -0.855893 0
M  V30 24667 H 2305.43 -6.69617 -1.1309 0
M  V30 24668 H 2303.38 -5.7465 -3.16407 0
M  V30 24669 H 2303.3 -7.21717 -2.25081 0
M  V30 24670 H 2304.56 -7.00431 -3.42077 0
M  V30 24671 N 2308.79 -0.0752207 -1.5742 0
M  V30 24672 C 2310.04 0.592697 -1.92795 0
M  V30 24673 C 2310.35 1.70561 -0.957508 0
M  V30 24674 O 2311.56 2.43333 -1.20421 0
M  V30 24675 C 2310.02 1.10563 -3.42497 0
M  V30 24676 C 2309.62 0.0235334 -4.47994 0
M  V30 24677 C 2311.37 1.74741 -3.86867 0
M  V30 24678 C 2309.28 0.550699 -5.8883 0
M  V30 24679 H 2308.21 0.225164 -0.719595 0
M  V30 24680 H 2310.86 -0.14801 -1.82902 0
M  V30 24681 H 2309.24 1.8994 -3.47475 0
M  V30 24682 H 2310.41 -0.751179 -4.54636 0
M  V30 24683 H 2308.73 -0.522232 -4.13112 0
M  V30 24684 H 2311.32 2.1522 -4.89474 0
M  V30 24685 H 2311.67 2.60876 -3.24421 0
M  V30 24686 H 2312.2 1.01979 -3.84506 0
M  V30 24687 H 2308.94 -0.273572 -6.54929 0
M  V30 24688 H 2308.46 1.29286 -5.85701 0
M  V30 24689 H 2310.14 1.02602 -6.38813 0
M  V30 24690 N 2310.27 1.56347 0.198358 0
M  V30 24691 C 2311.22 1.95171 1.26534 0
M  V30 24692 C 2312.21 0.836711 1.47294 0
M  V30 24693 O 2313.42 1.0217 1.48194 0
M  V30 24694 H 2309.79 0.620569 0.424733 0
M  V30 24695 H 2311.76 2.84158 0.910854 0
M  V30 24696 C 2310.51 2.30468 2.60346 0
M  V30 24697 H 2309.84 3.15791 2.45186 0
M  V30 24698 H 2311.28 2.61499 3.33757 0
M  V30 24699 C 2309.74 1.13812 3.17094 0
M  V30 24700 O 2310.27 0.41142 3.99588 0
M  V30 24701 N 2308.47 0.915784 2.75793 0
M  V30 24702 H 2308.02 1.50846 2.08814 0
M  V30 24703 H 2307.98 0.137034 3.14101 0
M  V30 24704 N 2311.75 -0.465951 1.50554 0
M  V30 24705 C 2312.68 -1.57125 1.72725 0
M  V30 24706 C 2313.66 -1.60039 0.576322 0
M  V30 24707 O 2314.84 -1.76224 0.816011 0
M  V30 24708 C 2311.97 -2.95416 1.82611 0
M  V30 24709 C 2310.93 -3.07368 2.9784 0
M  V30 24710 C 2310.25 -4.47357 2.92875 0
M  V30 24711 C 2311.55 -2.84106 4.3827 0
M  V30 24712 H 2313.25 -1.38825 2.6527 0
M  V30 24713 H 2310.79 -0.666418 1.27651 0
M  V30 24714 H 2312.75 -3.72673 1.96705 0
M  V30 24715 H 2311.47 -3.14884 0.866914 0
M  V30 24716 H 2310.13 -2.32545 2.83405 0
M  V30 24717 H 2309.78 -4.63752 1.94791 0
M  V30 24718 H 2309.48 -4.56289 3.70235 0
M  V30 24719 H 2311 -5.26627 3.09024 0
M  V30 24720 H 2312.42 -3.5111 4.53205 0
M  V30 24721 H 2310.81 -3.04478 5.1712 0
M  V30 24722 H 2311.88 -1.79923 4.50284 0
M  V30 24723 N 2313.23 -1.40218 -0.719481 0
M  V30 24724 C 2314.16 -1.42925 -1.84647 0
M  V30 24725 C 2315.14 -0.290649 -1.67598 0
M  V30 24726 O 2316.32 -0.49871 -1.87687 0
M  V30 24727 C 2313.45 -1.28728 -3.22562 0
M  V30 24728 C 2312.41 -2.4015 -3.54277 0
M  V30 24729 C 2311.73 -2.11032 -4.91294 0
M  V30 24730 C 2313.03 -3.82487 -3.5567 0
M  V30 24731 H 2314.73 -2.37241 -1.8264 0
M  V30 24732 H 2312.27 -1.14192 -0.877285 0
M  V30 24733 H 2314.23 -1.29239 -4.01093 0
M  V30 24734 H 2312.95 -0.308868 -3.25136 0
M  V30 24735 H 2311.61 -2.38882 -2.78084 0
M  V30 24736 H 2311.26 -1.11591 -4.90466 0
M  V30 24737 H 2310.96 -2.85679 -5.1348 0
M  V30 24738 H 2312.48 -2.13219 -5.72163 0
M  V30 24739 H 2313.89 -3.856 -4.24247 0
M  V30 24740 H 2312.29 -4.56621 -3.8938 0
M  V30 24741 H 2313.36 -4.12351 -2.55137 0
M  V30 24742 N 2314.7 0.951297 -1.25651 0
M  V30 24743 C 2315.95 1.69631 -1.10597 0
M  V30 24744 C 2316.28 1.91279 0.352482 0
M  V30 24745 O 2315.53 1.48382 1.27598 0
M  V30 24746 C 2315.83 3.08228 -1.80915 0
M  V30 24747 C 2315.5 3.06369 -3.30831 0
M  V30 24748 C 2314.16 3.05569 -3.71727 0
M  V30 24749 C 2316.51 2.99444 -4.26594 0
M  V30 24750 C 2313.84 2.95597 -5.06793 0
M  V30 24751 C 2316.19 2.91014 -5.61688 0
M  V30 24752 C 2314.86 2.88552 -6.01909 0
M  V30 24753 H 2314.13 0.620723 -0.404702 0
M  V30 24754 H 2316.77 1.11117 -1.55966 0
M  V30 24755 H 2315.08 3.70306 -1.27986 0
M  V30 24756 H 2316.78 3.64701 -1.66716 0
M  V30 24757 H 2313.37 3.07766 -2.98292 0
M  V30 24758 H 2317.55 2.99178 -3.95987 0
M  V30 24759 H 2312.81 2.92062 -5.37131 0
M  V30 24760 H 2316.98 2.84618 -6.35583 0
M  V30 24761 H 2314.61 2.80581 -7.06526 0
M  V30 24762 N 2316.18 1.07291 1.1544 0
M  V30 24763 C 2317.43 0.796879 1.86488 0
M  V30 24764 C 2317.76 -0.675339 1.82079 0
M  V30 24765 O 2317.04 -1.49558 1.24349 0
M  V30 24766 C 2317.32 1.30495 3.35624 0
M  V30 24767 C 2317.17 2.84167 3.48668 0
M  V30 24768 C 2318.49 0.920983 4.30356 0
M  V30 24769 H 2315.61 0.290951 0.677139 0
M  V30 24770 H 2318.25 1.33058 1.3563 0
M  V30 24771 H 2316.4 0.850949 3.79066 0
M  V30 24772 H 2318.07 3.37851 3.14093 0
M  V30 24773 H 2316.32 3.22396 2.90247 0
M  V30 24774 H 2316.99 3.14785 4.53447 0
M  V30 24775 H 2319.46 1.31217 3.94869 0
M  V30 24776 H 2318.34 1.30382 5.3319 0
M  V30 24777 H 2318.6 -0.173149 4.41761 0
M  V30 24778 N 2317.66 -1.32267 0.856927 0
M  V30 24779 C 2318.62 -2.27118 0.308211 0
M  V30 24780 C 2319.62 -1.51696 -0.533394 0
M  V30 24781 O 2320.81 -1.70758 -0.344577 0
M  V30 24782 C 2317.95 -3.36207 -0.563698 0
M  V30 24783 H 2319.14 -2.77165 1.1454 0
M  V30 24784 H 2316.69 -1.42977 0.631446 0
M  V30 24785 H 2317.43 -2.91432 -1.42261 0
M  V30 24786 H 2317.21 -3.92081 0.0387439 0
M  V30 24787 H 2318.7 -4.06876 -0.940315 0
M  V30 24788 N 2319.14 -0.615084 -1.45102 0
M  V30 24789 C 2320.39 -0.110753 -2.01396 0
M  V30 24790 C 2320.7 1.26914 -1.48836 0
M  V30 24791 O 2321.91 1.86661 -1.97155 0
M  V30 24792 C 2320.36 -0.147293 -3.59598 0
M  V30 24793 C 2319.97 -1.5275 -4.21155 0
M  V30 24794 C 2321.71 0.301406 -4.23429 0
M  V30 24795 C 2319.62 -1.52002 -5.71533 0
M  V30 24796 H 2318.55 -0.0376373 -0.75306 0
M  V30 24797 H 2321.2 -0.77152 -1.66493 0
M  V30 24798 H 2319.58 0.58027 -3.91725 0
M  V30 24799 H 2320.76 -2.27737 -4.0059 0
M  V30 24800 H 2319.07 -1.91892 -3.69549 0
M  V30 24801 H 2321.67 0.326298 -5.33703 0
M  V30 24802 H 2322.01 1.32558 -3.94631 0
M  V30 24803 H 2322.55 -0.373134 -3.96046 0
M  V30 24804 H 2319.29 -2.52204 -6.0504 0
M  V30 24805 H 2318.81 -0.812845 -5.94267 0
M  V30 24806 H 2320.48 -1.24693 -6.34871 0
M  V30 24807 N 2320.62 1.53557 -0.354678 0
M  V30 24808 C 2321.86 2.01092 0.238408 0
M  V30 24809 C 2322.19 1.24225 1.49661 0
M  V30 24810 O 2321.45 0.321037 1.93049 0
M  V30 24811 C 2321.75 3.52546 0.587059 0
M  V30 24812 C 2321.41 4.47212 -0.57555 0
M  V30 24813 C 2320.07 4.72811 -0.89458 0
M  V30 24814 C 2322.43 5.03279 -1.35498 0
M  V30 24815 C 2319.75 5.51732 -1.99521 0
M  V30 24816 C 2322.11 5.83401 -2.44593 0
M  V30 24817 C 2320.77 6.07292 -2.77044 0
M  V30 24818 H 2320.04 0.735847 0.0872397 0
M  V30 24819 H 2322.69 1.85259 -0.484892 0
M  V30 24820 H 2320.99 3.66268 1.39123 0
M  V30 24821 H 2322.69 3.86791 1.05802 0
M  V30 24822 H 2319.28 4.27427 -0.316849 0
M  V30 24823 H 2323.46 4.83457 -1.12176 0
M  V30 24824 H 2318.72 5.68465 -2.25073 0
M  V30 24825 H 2322.89 6.25857 -3.05412 0
M  V30 24826 H 2320.52 6.68231 -3.62452 0
M  V30 24827 N 2322.1 0.083568 1.57378 0
M  V30 24828 C 2323.32 -0.591536 1.98264 0
M  V30 24829 C 2323.74 -1.62433 0.962331 0
M  V30 24830 O 2323.1 -1.82433 -0.0495489 0
M  V30 24831 C 2323.15 -1.24959 3.39216 0
M  V30 24832 O 2322.87 -0.258109 4.37339 0
M  V30 24833 C 2324.37 -2.0114 3.95041 0
M  V30 24834 H 2321.59 -0.159466 0.651776 0
M  V30 24835 H 2324.13 0.159451 2.03877 0
M  V30 24836 H 2322.29 -1.95158 3.34652 0
M  V30 24837 H 2322.7 -0.731643 5.19372 0
M  V30 24838 H 2324.18 -2.42558 4.95852 0
M  V30 24839 H 2324.65 -2.87267 3.32227 0
M  V30 24840 H 2325.26 -1.35782 4.03043 0
M  V30 24841 N 2323.57 -1.5645 -0.190064 0
M  V30 24842 C 2324.82 -1.8056 -0.907876 0
M  V30 24843 C 2325.14 -0.65747 -1.83582 0
M  V30 24844 O 2324.41 0.32389 -1.93204 0
M  V30 24845 H 2322.99 -0.666038 -0.338235 0
M  V30 24846 H 2325.65 -1.93928 -0.194369 0
M  V30 24847 H 2324.75 -2.73909 -1.496 0
M  V30 24848 N 2325.05 0.45796 -1.50799 0
M  V30 24849 C 2325.96 1.57986 -1.73429 0
M  V30 24850 C 2326.98 1.62664 -0.617773 0
M  V30 24851 O 2328.15 1.80289 -0.897646 0
M  V30 24852 C 2325.22 2.94119 -1.83562 0
M  V30 24853 C 2324.28 2.99724 -3.0735 0
M  V30 24854 C 2323.51 4.29363 -3.16991 0
M  V30 24855 O 2323.74 5.20603 -2.33086 0
M  V30 24856 O 2322.67 4.4083 -4.0982 0
M  V30 24857 H 2326.5 1.41812 -2.68557 0
M  V30 24858 H 2324.08 0.638836 -1.35053 0
M  V30 24859 H 2325.96 3.74948 -1.92332 0
M  V30 24860 H 2324.64 3.10464 -0.916191 0
M  V30 24861 H 2323.54 2.17924 -3.04072 0
M  V30 24862 H 2324.88 2.88319 -3.98915 0
M  V30 24863 N 2326.53 1.40598 0.712035 0
M  V30 24864 C 2327.77 1.40521 1.48436 0
M  V30 24865 C 2328.13 0.00770986 1.91998 0
M  V30 24866 O 2329.33 -0.118192 2.6854 0
M  V30 24867 C 2327.61 2.37009 2.6751 0
M  V30 24868 S 2329.16 2.55321 3.56871 0
M  V30 24869 H 2325.98 0.498014 0.507448 0
M  V30 24870 H 2328.58 1.76897 0.832324 0
M  V30 24871 H 2327.29 3.37373 2.33683 0
M  V30 24872 H 2326.82 2.01929 3.37622 0
M  V30 24873 H 2328.83 1.80828 4.62078 0
M  V30 24874 N 2328.01 -0.94462 1.26153 0
M  V30 24875 C 2329.26 -1.68485 1.10886 0
M  V30 24876 C 2329.57 -1.92477 -0.348119 0
M  V30 24877 O 2330.78 -2.64293 -0.621412 0
M  V30 24878 C 2329.23 -3.03374 1.93629 0
M  V30 24879 C 2328.84 -2.87142 3.4388 0
M  V30 24880 C 2330.58 -3.81112 1.8696 0
M  V30 24881 C 2328.49 -4.17482 4.18882 0
M  V30 24882 H 2327.42 -0.6319 0.411362 0
M  V30 24883 H 2330.07 -1.0508 1.50434 0
M  V30 24884 H 2328.45 -3.67741 1.46911 0
M  V30 24885 H 2329.63 -2.31646 3.98342 0
M  V30 24886 H 2327.94 -2.2285 3.51748 0
M  V30 24887 H 2330.54 -4.77669 2.40284 0
M  V30 24888 H 2330.88 -4.07746 0.83959 0
M  V30 24889 H 2331.42 -3.23513 2.31483 0
M  V30 24890 H 2328.15 -3.96034 5.22339 0
M  V30 24891 H 2327.67 -4.72705 3.69201 0
M  V30 24892 H 2329.35 -4.85961 4.27143 0
M  V30 24893 N 2329.49 -1.07901 -1.1487 0
M  V30 24894 C 2330.73 -0.806758 -1.86063 0
M  V30 24895 C 2331.06 0.665674 -1.82435 0
M  V30 24896 O 2330.34 1.48896 -1.2514 0
M  V30 24897 C 2330.62 -1.32273 -3.34927 0
M  V30 24898 C 2330.48 -2.86012 -3.47156 0
M  V30 24899 C 2331.79 -0.943792 -4.29861 0
M  V30 24900 H 2328.91 -0.294537 -0.675586 0
M  V30 24901 H 2331.56 -1.33775 -1.34923 0
M  V30 24902 H 2329.71 -0.87104 -3.78609 0
M  V30 24903 H 2331.38 -3.39512 -3.12296 0
M  V30 24904 H 2329.62 -3.2393 -2.88533 0
M  V30 24905 H 2330.29 -3.17185 -4.51772 0
M  V30 24906 H 2332.77 -1.33309 -3.94167 0
M  V30 24907 H 2331.64 -1.33207 -5.32491 0
M  V30 24908 H 2331.9 0.149719 -4.41846 0
M  V30 24909 N 2330.96 1.31811 -0.863929 0
M  V30 24910 C 2331.91 2.28663 -0.313343 0
M  V30 24911 C 2332.88 1.55463 0.584841 0
M  V30 24912 O 2334.07 1.8364 0.517773 0
M  V30 24913 C 2331.21 3.41684 0.48435 0
M  V30 24914 C 2330.32 4.29747 -0.440669 0
M  V30 24915 C 2329.45 5.29906 0.370558 0
M  V30 24916 C 2328.49 6.09613 -0.551272 0
M  V30 24917 N 2327.63 7.01745 0.223339 0
M  V30 24918 H 2332.47 2.75146 -1.14449 0
M  V30 24919 H 2330.01 1.35363 -0.575793 0
M  V30 24920 H 2331.96 4.05944 0.962555 0
M  V30 24921 H 2330.59 2.96327 1.28024 0
M  V30 24922 H 2329.65 3.65984 -1.0373 0
M  V30 24923 H 2330.96 4.85415 -1.14776 0
M  V30 24924 H 2330.11 5.99813 0.911533 0
M  V30 24925 H 2328.85 4.74878 1.11097 0
M  V30 24926 H 2327.86 5.38601 -1.10405 0
M  V30 24927 H 2329.08 6.66727 -1.29044 0
M  V30 24928 H 2327.03 6.49133 0.946672 0
M  V30 24929 H 2326.94 7.54807 -0.424532 0
M  V30 24930 H 2328.21 7.75925 0.745739 0
M  V30 24931 N 2332.44 0.62277 1.44773 0
M  V30 24932 C 2333.37 -0.0741451 2.33382 0
M  V30 24933 C 2334.35 -0.843361 1.47721 0
M  V30 24934 O 2335.54 -0.810903 1.7646 0
M  V30 24935 C 2332.67 -1.06198 3.30665 0
M  V30 24936 C 2331.62 -0.404962 4.2608 0
M  V30 24937 C 2330.95 -1.50211 5.13167 0
M  V30 24938 C 2332.25 0.683505 5.17808 0
M  V30 24939 H 2333.94 0.665765 2.91904 0
M  V30 24940 H 2331.49 0.321611 1.40363 0
M  V30 24941 H 2333.44 -1.5582 3.91533 0
M  V30 24942 H 2332.16 -1.83267 2.70334 0
M  V30 24943 H 2330.82 0.0705327 3.66532 0
M  V30 24944 H 2330.47 -2.26347 4.49195 0
M  V30 24945 H 2330.17 -1.06792 5.77814 0
M  V30 24946 H 2331.7 -2.00031 5.76906 0
M  V30 24947 H 2333.11 0.270731 5.7266 0
M  V30 24948 H 2331.51 1.04034 5.91014 0
M  V30 24949 H 2332.58 1.55403 4.59323 0
M  V30 24950 N 2333.92 -1.53367 0.362817 0
M  V30 24951 C 2334.88 -2.24274 -0.472639 0
M  V30 24952 C 2335.88 -1.24963 -1.01198 0
M  V30 24953 O 2337.07 -1.4926 -0.898168 0
M  V30 24954 C 2334.2 -2.97734 -1.66034 0
M  V30 24955 H 2335.4 -2.99536 0.147782 0
M  V30 24956 H 2332.95 -1.5588 0.114461 0
M  V30 24957 H 2333.69 -2.26708 -2.31892 0
M  V30 24958 H 2333.47 -3.70598 -1.28059 0
M  V30 24959 H 2334.96 -3.51645 -2.25246 0
M  V30 24960 N 2335.4 -0.091913 -1.57332 0
M  V30 24961 C 2336.36 0.853653 -2.1271 0
M  V30 24962 C 2337.36 1.21298 -1.05563 0
M  V30 24963 O 2338.55 1.14294 -1.31463 0
M  V30 24964 C 2335.68 2.15056 -2.64506 0
M  V30 24965 H 2336.88 0.372848 -2.97573 0
M  V30 24966 H 2334.43 0.157045 -1.55509 0
M  V30 24967 H 2335.16 2.67629 -1.83154 0
M  V30 24968 H 2334.95 1.90266 -3.42843 0
M  V30 24969 H 2336.44 2.82705 -3.07356 0
M  V30 24970 N 2336.88 1.56548 0.181765 0
M  V30 24971 C 2337.81 1.98625 1.22761 0
M  V30 24972 C 2338.79 0.860215 1.46746 0
M  V30 24973 O 2339.97 1.12553 1.58257 0
M  V30 24974 C 2337.1 2.3372 2.5689 0
M  V30 24975 C 2336.06 3.49186 2.47494 0
M  V30 24976 C 2335.38 3.69993 3.86017 0
M  V30 24977 C 2336.68 4.82963 1.98857 0
M  V30 24978 H 2338.38 2.8624 0.877892 0
M  V30 24979 H 2335.92 1.37713 0.420856 0
M  V30 24980 H 2337.88 2.61752 3.30248 0
M  V30 24981 H 2336.6 1.43002 2.93629 0
M  V30 24982 H 2335.26 3.21265 1.7659 0
M  V30 24983 H 2334.91 2.76584 4.20132 0
M  V30 24984 H 2334.61 4.47679 3.80601 0
M  V30 24985 H 2336.13 4.00415 4.60977 0
M  V30 24986 H 2337.54 5.09939 2.61983 0
M  V30 24987 H 2335.94 5.64212 2.04414 0
M  V30 24988 H 2337.01 4.75654 0.942381 0
M  V30 24989 N 2338.35 -0.449957 1.5104 0
M  V30 24990 C 2339.77 -0.785438 1.38935 0
M  V30 24991 C 2339.97 -1.96136 0.461851 0
M  V30 24992 O 2339.03 -2.52348 -0.0876945 0
M  V30 24993 C 2340.34 -1.07765 2.80726 0
M  V30 24994 C 2341.89 -1.18285 2.89789 0
M  V30 24995 C 2342.36 -1.50807 4.32459 0
M  V30 24996 N 2343.85 -1.57757 4.35508 0
M  V30 24997 C 2344.59 -1.84468 5.42917 0
M  V30 24998 N 2344.08 -2.09056 6.60505 0
M  V30 24999 N 2345.88 -1.86146 5.30383 0
M  V30 25000 H 2338.03 0.324684 2.09904 0
M  V30 25001 H 2340.29 0.0828123 0.944376 0
M  V30 25002 H 2340 -0.286437 3.50532 0
M  V30 25003 H 2339.87 -2.00853 3.19277 0
M  V30 25004 H 2342.26 -1.96471 2.20189 0
M  V30 25005 H 2342.34 -0.231269 2.54752 0
M  V30 25006 H 2341.98 -0.731534 5.02604 0
M  V30 25007 H 2341.91 -2.4715 4.64999 0
M  V30 25008 H 2344.4 -1.40709 3.50727 0
M  V30 25009 H 2344.72 -2.28772 7.38162 0
M  V30 25010 H 2343.06 -2.06405 6.63643 0
M  V30 25011 H 2346.25 -1.66447 4.37508 0
M  V30 25012 H 2346.43 -2.06626 6.14174 0
M  V30 25013 N 2339.83 -1.40974 -0.704569 0
M  V30 25014 C 2340.78 -1.38584 -1.81048 0
M  V30 25015 C 2341.77 -0.261613 -1.58759 0
M  V30 25016 O 2342.96 -0.501586 -1.69744 0
M  V30 25017 C 2340.09 -1.26163 -3.19277 0
M  V30 25018 C 2339.17 -2.43411 -3.47292 0
M  V30 25019 N 2339.56 -3.68887 -3.46058 0
M  V30 25020 C 2337.86 -2.3703 -3.778 0
M  V30 25021 C 2338.56 -4.46599 -3.72726 0
M  V30 25022 N 2337.54 -3.76588 -3.92023 0
M  V30 25023 H 2341.34 -2.33528 -1.78443 0
M  V30 25024 H 2338.86 -1.34902 -0.904175 0
M  V30 25025 H 2340.85 -1.22533 -3.98486 0
M  V30 25026 H 2339.51 -0.321958 -3.231 0
M  V30 25027 H 2340.52 -4.01897 -3.26649 0
M  V30 25028 H 2337.2 -1.51488 -3.89047 0
M  V30 25029 H 2338.59 -5.55498 -3.77983 0
M  V30 25030 N 2341.31 0.937917 -1.26653 0
M  V30 25031 C 2342.54 1.71629 -1.15009 0
M  V30 25032 C 2342.95 1.86854 0.296993 0
M  V30 25033 O 2342.29 1.37788 1.21491 0
M  V30 25034 C 2342.35 3.14036 -1.7499 0
M  V30 25035 C 2342.02 3.22184 -3.24108 0
M  V30 25036 C 2343.01 3.05212 -4.20882 0
M  V30 25037 C 2340.7 3.4547 -3.64631 0
M  V30 25038 C 2342.69 3.11398 -5.56156 0
M  V30 25039 C 2340.38 3.51291 -5.00038 0
M  V30 25040 C 2341.38 3.34272 -5.9561 0
M  V30 25041 O 2341.07 3.39808 -7.28551 0
M  V30 25042 H 2340.8 0.544078 -0.401192 0
M  V30 25043 H 2343.35 1.1841 -1.67834 0
M  V30 25044 H 2341.58 3.68693 -1.1663 0
M  V30 25045 H 2343.27 3.73799 -1.58205 0
M  V30 25046 H 2344.04 2.87074 -3.90914 0
M  V30 25047 H 2339.92 3.57772 -2.90724 0
M  V30 25048 H 2343.46 2.98032 -6.30732 0
M  V30 25049 H 2339.36 3.6895 -5.29666 0
M  V30 25050 H 2340.13 3.5633 -7.36866 0
M  V30 25051 N 2342.79 1.08509 1.14296 0
M  V30 25052 C 2344.02 0.835696 1.88944 0
M  V30 25053 C 2344.43 -0.615896 1.78895 0
M  V30 25054 O 2343.77 -1.43504 1.14683 0
M  V30 25055 C 2343.83 1.17999 3.39583 0
M  V30 25056 C 2343.5 2.63458 3.73415 0
M  V30 25057 C 2344.49 3.61708 3.73447 0
M  V30 25058 C 2342.18 2.99339 4.03363 0
M  V30 25059 C 2344.17 4.93871 4.02952 0
M  V30 25060 C 2341.86 4.31695 4.3253 0
M  V30 25061 C 2342.86 5.28771 4.32309 0
M  V30 25062 O 2342.54 6.58747 4.60769 0
M  V30 25063 H 2342.28 0.300976 0.605301 0
M  V30 25064 H 2344.83 1.44808 1.4567 0
M  V30 25065 H 2343.06 0.510617 3.83314 0
M  V30 25066 H 2344.75 0.911252 3.95539 0
M  V30 25067 H 2345.52 3.35331 3.50397 0
M  V30 25068 H 2341.39 2.24418 4.02688 0
M  V30 25069 H 2344.94 5.69634 4.02694 0
M  V30 25070 H 2340.84 4.5782 4.55051 0
M  V30 25071 H 2341.6 6.64077 4.7848 0
M  V30 25072 N 2344.27 -1.31351 0.870907 0
M  V30 25073 C 2345.51 -1.96672 0.482307 0
M  V30 25074 C 2345.84 -1.68838 -0.965608 0
M  V30 25075 O 2345.1 -0.977967 -1.69512 0
M  V30 25076 C 2345.4 -3.50731 0.687219 0
M  V30 25077 C 2345.06 -3.98587 2.10807 0
M  V30 25078 C 2343.72 -4.11366 2.49663 0
M  V30 25079 C 2346.08 -4.23742 3.03466 0
M  V30 25080 C 2343.4 -4.46652 3.80419 0
M  V30 25081 C 2345.76 -4.60493 4.33738 0
M  V30 25082 C 2344.42 -4.71479 4.72508 0
M  V30 25083 H 2343.69 -0.719675 0.176489 0
M  V30 25084 H 2346.34 -1.56469 1.10407 0
M  V30 25085 H 2344.64 -3.91796 -0.0176787 0
M  V30 25086 H 2346.34 -3.99323 0.366355 0
M  V30 25087 H 2342.93 -3.89137 1.79639 0
M  V30 25088 H 2347.11 -4.13363 2.74672 0
M  V30 25089 H 2342.37 -4.53355 4.10218 0
M  V30 25090 H 2346.54 -4.7891 5.05587 0
M  V30 25091 H 2344.17 -4.98577 5.73868 0
M  V30 25092 N 2345.74 -0.630439 -1.44441 0
M  V30 25093 C 2346.97 -0.141707 -2.06414 0
M  V30 25094 C 2347.39 1.18342 -1.47107 0
M  V30 25095 O 2346.74 1.72573 -0.593692 0
M  V30 25096 C 2346.8 -0.020042 -3.61494 0
M  V30 25097 O 2346.52 -1.29277 -4.18592 0
M  V30 25098 C 2348.02 0.497467 -4.405 0
M  V30 25099 H 2345.24 -0.0793569 -0.666291 0
M  V30 25100 H 2347.78 -0.864647 -1.85322 0
M  V30 25101 H 2345.94 0.653335 -3.81851 0
M  V30 25102 H 2346.35 -1.13716 -5.12024 0
M  V30 25103 H 2347.82 0.531611 -5.49434 0
M  V30 25104 H 2348.3 1.52438 -4.11897 0
M  V30 25105 H 2348.91 -0.142636 -4.25061 0
M  V30 25106 N 2347.22 1.53172 -0.370945 0
M  V30 25107 C 2348.17 2.27422 0.488061 0
M  V30 25108 C 2349.16 1.30606 1.07882 0
M  V30 25109 O 2350.37 1.48214 1.0214 0
M  V30 25110 H 2346.75 0.731085 0.176121 0
M  V30 25111 H 2348.72 2.97971 -0.159867 0
M  V30 25112 C 2347.47 3.08022 1.613 0
M  V30 25113 H 2346.79 3.82366 1.16773 0
M  V30 25114 H 2348.23 3.63144 2.18866 0
M  V30 25115 C 2346.69 2.19193 2.55844 0
M  V30 25116 O 2347.22 1.80633 3.58796 0
M  V30 25117 N 2345.42 1.83719 2.25157 0
M  V30 25118 H 2344.97 2.15275 1.41472 0
M  V30 25119 H 2344.93 1.24572 2.88668 0
M  V30 25120 N 2348.7 0.100255 1.57281 0
M  V30 25121 C 2349.93 -0.573846 1.99303 0
M  V30 25122 C 2350.35 -1.6061 0.979087 0
M  V30 25123 O 2349.71 -1.81226 -0.0517485 0
M  V30 25124 C 2349.76 -1.19352 3.40276 0
M  V30 25125 O 2348.86 -2.30929 3.4168 0
M  V30 25126 H 2348.2 -0.145127 0.647946 0
M  V30 25127 H 2350.73 0.183192 2.03778 0
M  V30 25128 H 2350.74 -1.53358 3.78081 0
M  V30 25129 H 2349.42 -0.437313 4.13594 0
M  V30 25130 H 2347.99 -1.98504 3.15675 0
M  V30 25131 N 2350.18 -1.56643 -0.17346 0
M  V30 25132 C 2351.43 -1.83037 -0.887076 0
M  V30 25133 C 2351.78 -0.680493 -1.79964 0
M  V30 25134 O 2351.07 0.323191 -1.88855 0
M  V30 25135 C 2351.27 -3.13255 -1.72064 0
M  V30 25136 C 2351.1 -4.408 -0.890273 0
M  V30 25137 C 2349.87 -5.02118 -0.566194 0
M  V30 25138 C 2352.06 -5.13773 -0.232831 0
M  V30 25139 N 2350.05 -6.13259 0.280535 0
M  V30 25140 C 2351.42 -6.18177 0.475155 0
M  V30 25141 C 2353.47 -4.97672 -0.150775 0
M  V30 25142 C 2352.18 -7.08224 1.25741 0
M  V30 25143 C 2354.2 -5.88161 0.618142 0
M  V30 25144 C 2353.56 -6.92026 1.3145 0
M  V30 25145 H 2349.66 -0.72079 -0.303291 0
M  V30 25146 H 2352.25 -1.94088 -0.15421 0
M  V30 25147 H 2350.42 -3.034 -2.42494 0
M  V30 25148 H 2352.15 -3.27654 -2.37539 0
M  V30 25149 H 2348.9 -4.65052 -0.89577 0
M  V30 25150 H 2349.33 -6.73432 0.694146 0
M  V30 25151 H 2353.97 -4.1738 -0.674795 0
M  V30 25152 H 2351.69 -7.87962 1.79278 0
M  V30 25153 H 2355.27 -5.77774 0.683274 0
M  V30 25154 H 2354.15 -7.60836 1.89994 0
M  V30 25155 N 2351.66 0.44194 -1.51277 0
M  V30 25156 C 2352.61 1.55673 -1.72826 0
M  V30 25157 C 2353.6 1.58626 -0.594478 0
M  V30 25158 O 2354.81 1.62426 -0.775743 0
M  V30 25159 H 2351.18 0.517104 -0.545993 0
M  V30 25160 H 2353.15 1.3467 -2.66283 0
M  V30 25161 C 2351.9 2.93372 -1.86624 0
M  V30 25162 H 2351.22 2.91829 -2.73269 0
M  V30 25163 H 2352.66 3.70752 -2.05715 0
M  V30 25164 C 2351.12 3.31054 -0.6249 0
M  V30 25165 O 2351.65 4.01083 0.222565 0
M  V30 25166 N 2349.86 2.86769 -0.470338 0
M  V30 25167 H 2349.41 2.29951 -1.16104 0
M  V30 25168 H 2349.36 3.12344 0.358996 0
M  V30 25169 N 2353.14 1.41345 0.697083 0
M  V30 25170 C 2354.38 1.39921 1.45276 0
M  V30 25171 C 2354.7 0.0109968 1.95597 0
M  V30 25172 O 2355.9 -0.125871 2.71208 0
M  V30 25173 C 2354.36 2.46011 2.62691 0
M  V30 25174 C 2353.97 3.90732 2.19162 0
M  V30 25175 C 2355.71 2.53721 3.40332 0
M  V30 25176 C 2353.62 4.88379 3.33526 0
M  V30 25177 H 2352.55 0.520333 0.545683 0
M  V30 25178 H 2355.2 1.67162 0.7569 0
M  V30 25179 H 2353.58 2.11898 3.34537 0
M  V30 25180 H 2354.76 4.34086 1.54615 0
M  V30 25181 H 2353.07 3.86669 1.54519 0
M  V30 25182 H 2355.67 3.23858 4.25465 0
M  V30 25183 H 2356.01 1.57356 3.85415 0
M  V30 25184 H 2356.54 2.86918 2.75541 0
M  V30 25185 H 2353.28 5.86143 2.93457 0
M  V30 25186 H 2352.8 4.49675 3.96928 0
M  V30 25187 H 2354.48 5.09066 3.99326 0
M  V30 25188 N 2354.61 -0.931187 1.27148 0
M  V30 25189 C 2355.86 -1.6785 1.13281 0
M  V30 25190 C 2356.19 -1.91816 -0.322006 0
M  V30 25191 O 2355.44 -1.50393 -1.25221 0
M  V30 25192 C 2355.74 -3.05311 1.85795 0
M  V30 25193 C 2355.41 -3.01067 3.35663 0
M  V30 25194 C 2354.07 -2.99617 3.76541 0
M  V30 25195 C 2356.42 -2.9262 4.31304 0
M  V30 25196 C 2353.75 -2.87497 5.11431 0
M  V30 25197 C 2356.1 -2.82041 5.66247 0
M  V30 25198 C 2354.77 -2.78939 6.06423 0
M  V30 25199 H 2354.04 -0.614206 0.414526 0
M  V30 25200 H 2356.68 -1.08621 1.57714 0
M  V30 25201 H 2354.99 -3.68223 1.33861 0
M  V30 25202 H 2356.69 -3.62002 1.72497 0
M  V30 25203 H 2353.28 -3.02981 3.03151 0
M  V30 25204 H 2357.46 -2.92841 4.00697 0
M  V30 25205 H 2352.72 -2.8348 5.4171 0
M  V30 25206 H 2356.89 -2.7447 6.40031 0
M  V30 25207 H 2354.52 -2.69305 7.109 0
M  V30 25208 N 2356.09 -1.09114 -1.13719 0
M  V30 25209 C 2357.37 -0.737737 -1.81154 0
M  V30 25210 C 2357.75 0.777649 -1.96255 0
M  V30 25211 O 2357.1 1.69886 -1.5281 0
M  V30 25212 C 2357.31 -1.47305 -3.16389 0
M  V30 25213 C 2358.65 -1.63677 -3.91784 0
M  V30 25214 O 2359.68 -1.4353 -3.26003 0
M  V30 25215 O 2358.54 -1.96978 -5.09767 0
M  V30 25216 H 2355.63 -0.264644 -0.783513 0
M  V30 25217 H 2358.18 -1.19315 -1.20674 0
M  V30 25218 H 2356.95 -2.50503 -3.00606 0
M  V30 25219 H 2356.57 -1.0096 -3.84568 0
M  V30 25220 N 2357.57 1.30887 -0.877861 0
M  V30 25221 C 2358.82 1.96414 -0.492731 0
M  V30 25222 C 2359.14 1.69348 0.956641 0
M  V30 25223 O 2358.4 0.986943 1.68991 0
M  V30 25224 C 2358.7 3.50361 -0.705809 0
M  V30 25225 C 2358.36 3.97463 -2.12917 0
M  V30 25226 C 2357.03 4.10036 -2.51842 0
M  V30 25227 C 2359.38 4.22127 -3.05709 0
M  V30 25228 C 2356.71 4.44628 -3.82783 0
M  V30 25229 C 2359.06 4.58186 -4.36174 0
M  V30 25230 C 2357.72 4.68967 -4.75002 0
M  V30 25231 H 2356.99 0.718729 -0.180303 0
M  V30 25232 H 2359.64 1.55881 -1.11236 0
M  V30 25233 H 2357.94 3.918 -0.00309945 0
M  V30 25234 H 2359.64 3.99123 -0.387526 0
M  V30 25235 H 2356.23 3.88179 -1.81701 0
M  V30 25236 H 2360.42 4.11901 -2.7686 0
M  V30 25237 H 2355.67 4.51173 -4.12617 0
M  V30 25238 H 2359.85 4.76222 -5.08119 0
M  V30 25239 H 2357.47 4.95527 -5.76504 0
M  V30 25240 N 2359.05 0.638091 1.44105 0
M  V30 25241 C 2360.29 0.145581 2.02277 0
M  V30 25242 C 2360.63 -1.23189 1.50127 0
M  V30 25243 O 2359.9 -1.81919 0.688165 0
M  V30 25244 C 2360.18 0.139854 3.59828 0
M  V30 25245 C 2360.04 1.55016 4.22244 0
M  V30 25246 C 2361.36 -0.531889 4.36874 0
M  V30 25247 H 2358.48 0.0543761 0.734991 0
M  V30 25248 H 2361.12 0.815893 1.7159 0
M  V30 25249 H 2359.27 -0.430939 3.86103 0
M  V30 25250 H 2360.94 2.17038 4.07053 0
M  V30 25251 H 2359.18 2.10197 3.79473 0
M  V30 25252 H 2359.85 1.49813 5.31282 0
M  V30 25253 H 2362.33 -0.046405 4.16074 0
M  V30 25254 H 2361.21 -0.50511 5.46571 0
M  V30 25255 H 2361.47 -1.60345 4.11997 0
M  V30 25256 N 2360.53 -1.52973 0.379063 0
M  V30 25257 C 2361.77 -2.01744 -0.206692 0
M  V30 25258 C 2362.1 -1.26542 -1.47312 0
M  V30 25259 O 2361.38 -0.362937 -1.91084 0
M  V30 25260 C 2361.66 -3.56819 -0.485003 0
M  V30 25261 C 2361.52 -4.42701 0.795997 0
M  V30 25262 C 2362.83 -4.21076 -1.27995 0
M  V30 25263 H 2359.95 -0.733311 -0.0736478 0
M  V30 25264 H 2362.6 -1.83121 0.506613 0
M  V30 25265 H 2360.75 -3.72818 -1.09266 0
M  V30 25266 H 2362.42 -4.38473 1.43315 0
M  V30 25267 H 2360.66 -4.10125 1.41351 0
M  V30 25268 H 2361.33 -5.49192 0.556044 0
M  V30 25269 H 2363.81 -4.08992 -0.765795 0
M  V30 25270 H 2362.68 -5.29581 -1.44343 0
M  V30 25271 H 2362.94 -3.7803 -2.29229 0
M  V30 25272 N 2362 -0.108595 -1.57225 0
M  V30 25273 C 2363.25 0.552727 -1.95122 0
M  V30 25274 C 2363.58 1.66989 -0.991375 0
M  V30 25275 O 2362.86 1.94482 -0.0267553 0
M  V30 25276 C 2363.14 1.09522 -3.43041 0
M  V30 25277 C 2362.99 -0.0178123 -4.49796 0
M  V30 25278 C 2364.31 1.98938 -3.9257 0
M  V30 25279 H 2361.43 0.199449 -0.709499 0
M  V30 25280 H 2364.07 -0.182044 -1.89126 0
M  V30 25281 H 2362.22 1.7214 -3.48282 0
M  V30 25282 H 2363.9 -0.652664 -4.5666 0
M  V30 25283 H 2362.14 -0.682385 -4.28399 0
M  V30 25284 H 2362.81 0.402822 -5.50528 0
M  V30 25285 H 2365.29 1.46207 -3.89567 0
M  V30 25286 H 2364.16 2.33818 -4.96609 0
M  V30 25287 H 2364.42 2.91195 -3.32653 0
M  V30 25288 N 2363.48 1.56732 0.16515 0
M  V30 25289 C 2364.73 1.81534 0.879111 0
M  V30 25290 C 2365.04 0.686874 1.83143 0
M  V30 25291 O 2366.25 0.819989 2.58821 0
M  V30 25292 C 2364.71 3.21689 1.61382 0
M  V30 25293 C 2364.31 4.42421 0.704826 0
M  V30 25294 C 2366.06 3.55778 2.31564 0
M  V30 25295 C 2363.96 5.73598 1.44012 0
M  V30 25296 H 2362.89 0.676963 0.332021 0
M  V30 25297 H 2365.55 1.83025 0.131976 0
M  V30 25298 H 2363.93 3.14533 2.40593 0
M  V30 25299 H 2365.1 4.60772 -0.0507625 0
M  V30 25300 H 2363.42 4.16248 0.112346 0
M  V30 25301 H 2366.01 4.51033 2.87182 0
M  V30 25302 H 2366.36 2.80956 3.07196 0
M  V30 25303 H 2366.89 3.64515 1.5929 0
M  V30 25304 H 2363.63 6.51467 0.726005 0
M  V30 25305 H 2363.15 5.59213 2.16888 0
M  V30 25306 H 2364.83 6.15767 1.98595 0
M  V30 25307 N 2364.96 -0.433911 1.51509 0
M  V30 25308 C 2365.89 -1.53426 1.76019 0
M  V30 25309 C 2366.87 -1.58781 0.610139 0
M  V30 25310 O 2368.06 -1.74453 0.853207 0
M  V30 25311 C 2365.19 -2.91476 1.88836 0
M  V30 25312 C 2364.14 -3.00981 3.04293 0
M  V30 25313 C 2363.47 -4.41044 3.02298 0
M  V30 25314 C 2364.77 -2.74746 4.44198 0
M  V30 25315 H 2366.46 -1.33167 2.68155 0
M  V30 25316 H 2364.01 -0.639191 1.29036 0
M  V30 25317 H 2365.96 -3.68417 2.04565 0
M  V30 25318 H 2364.68 -3.12975 0.93351 0
M  V30 25319 H 2363.34 -2.26481 2.88274 0
M  V30 25320 H 2362.99 -4.59515 2.04584 0
M  V30 25321 H 2362.69 -4.48333 3.7983 0
M  V30 25322 H 2364.21 -5.19954 3.20125 0
M  V30 25323 H 2365.63 -3.41418 4.6055 0
M  V30 25324 H 2364.03 -2.93441 5.23462 0
M  V30 25325 H 2365.1 -1.70331 4.53999 0
M  V30 25326 N 2366.44 -1.41713 -0.689577 0
M  V30 25327 C 2367.66 -1.44962 -1.48327 0
M  V30 25328 C 2368.09 -0.0581613 -1.8801 0
M  V30 25329 O 2367.45 0.940008 -1.55028 0
M  V30 25330 C 2367.49 -2.36939 -2.71831 0
M  V30 25331 O 2366.6 -1.83057 -3.69546 0
M  V30 25332 H 2365.94 -0.491742 -0.446191 0
M  V30 25333 H 2368.47 -1.8624 -0.847094 0
M  V30 25334 H 2368.48 -2.53018 -3.20071 0
M  V30 25335 H 2367.15 -3.38039 -2.42285 0
M  V30 25336 H 2365.73 -1.76458 -3.28507 0
M  V30 25337 N 2367.92 0.924431 -1.2764 0
M  V30 25338 C 2369.17 1.667 -1.13552 0
M  V30 25339 C 2369.48 1.93007 0.317453 0
M  V30 25340 O 2370.68 2.65248 0.579287 0
M  V30 25341 C 2369.14 3.00255 -1.98431 0
M  V30 25342 C 2368.75 2.81635 -3.48405 0
M  V30 25343 C 2370.49 3.78089 -1.93 0
M  V30 25344 C 2368.4 4.10766 -4.25471 0
M  V30 25345 H 2367.33 0.625276 -0.421362 0
M  V30 25346 H 2369.98 1.02673 -1.52087 0
M  V30 25347 H 2368.36 3.65357 -1.52743 0
M  V30 25348 H 2369.54 2.2528 -4.01977 0
M  V30 25349 H 2367.85 2.17226 -3.55249 0
M  V30 25350 H 2370.45 4.73786 -2.47853 0
M  V30 25351 H 2370.79 4.06358 -0.904352 0
M  V30 25352 H 2371.32 3.19789 -2.366 0
M  V30 25353 H 2368.06 3.87674 -5.28573 0
M  V30 25354 H 2367.58 4.66772 -3.76675 0
M  V30 25355 H 2369.26 4.79104 -4.3482 0
M  V30 25356 N 2369.39 1.09715 1.13139 0
M  V30 25357 C 2370.64 0.836257 1.84755 0
M  V30 25358 C 2370.97 -0.636566 1.83471 0
M  V30 25359 O 2370.25 -1.46887 1.27493 0
M  V30 25360 C 2370.53 1.37584 3.3278 0
M  V30 25361 C 2370.38 2.91499 3.42562 0
M  V30 25362 C 2371.7 1.01206 4.28305 0
M  V30 25363 H 2368.82 0.305248 0.670815 0
M  V30 25364 H 2371.46 1.35905 1.32777 0
M  V30 25365 H 2369.61 0.931164 3.77176 0
M  V30 25366 H 2371.29 3.44438 3.06856 0
M  V30 25367 H 2369.53 3.2848 2.83343 0
M  V30 25368 H 2370.2 3.24332 4.46668 0
M  V30 25369 H 2372.68 1.39563 3.91997 0
M  V30 25370 H 2371.55 1.41662 5.30305 0
M  V30 25371 H 2371.81 -0.0794056 4.42029 0
M  V30 25372 N 2370.87 -1.30419 0.88479 0
M  V30 25373 C 2372.12 -1.95762 0.502146 0
M  V30 25374 C 2372.44 -1.70194 -0.951785 0
M  V30 25375 O 2371.71 -1.02543 -1.66918 0
M  V30 25376 H 2370.29 -0.724312 0.182707 0
M  V30 25377 H 2372.95 -1.58953 1.12782 0
M  V30 25378 H 2372.05 -3.04774 0.672242 0
M  V30 25379 N 2372.35 -0.645724 -1.43764 0
M  V30 25380 C 2373.58 -0.163592 -2.06252 0
M  V30 25381 C 2373.99 1.16775 -1.48354 0
M  V30 25382 O 2373.35 1.71934 -0.611963 0
M  V30 25383 C 2373.4 -0.0583822 -3.61453 0
M  V30 25384 O 2373.12 -1.33709 -4.17197 0
M  V30 25385 C 2374.62 0.450718 -4.41003 0
M  V30 25386 H 2371.84 -0.0864194 -0.665412 0
M  V30 25387 H 2374.39 -0.884254 -1.84394 0
M  V30 25388 H 2372.54 0.612798 -3.82523 0
M  V30 25389 H 2372.96 -1.1914 -5.10789 0
M  V30 25390 H 2374.43 0.473306 -5.49967 0
M  V30 25391 H 2374.91 1.4806 -4.13491 0
M  V30 25392 H 2375.51 -0.187712 -4.24886 0
M  V30 25393 N 2373.83 1.5277 -0.38717 0
M  V30 25394 C 2375.07 2.01851 0.19599 0
M  V30 25395 C 2375.41 1.27321 1.46639 0
M  V30 25396 O 2374.68 0.373065 1.90889 0
M  V30 25397 C 2374.97 3.57071 0.466073 0
M  V30 25398 C 2374.82 4.42272 -0.819463 0
M  V30 25399 C 2376.14 4.21749 1.2576 0
M  V30 25400 H 2373.26 0.733691 0.0697579 0
M  V30 25401 H 2375.9 1.8285 -0.516318 0
M  V30 25402 H 2374.05 3.73392 1.07287 0
M  V30 25403 H 2375.72 4.37707 -1.45638 0
M  V30 25404 H 2373.96 4.09369 -1.43524 0
M  V30 25405 H 2374.63 5.4889 -0.585161 0
M  V30 25406 H 2377.11 4.09393 0.744095 0
M  V30 25407 H 2375.99 5.30339 1.41532 0
M  V30 25408 H 2376.25 3.7924 2.27221 0
M  V30 25409 N 2375.31 0.116931 1.57166 0
M  V30 25410 C 2376.24 -0.83072 2.18223 0
M  V30 25411 C 2377.22 -1.27875 1.12169 0
M  V30 25412 O 2378.4 -1.34173 1.40396 0
M  V30 25413 C 2375.53 -2.08168 2.77999 0
M  V30 25414 C 2374.49 -1.7715 3.89618 0
M  V30 25415 C 2373.81 -3.09258 4.36192 0
M  V30 25416 C 2375.11 -1.04142 5.11812 0
M  V30 25417 H 2376.81 -0.32194 2.97664 0
M  V30 25418 H 2374.35 -0.153409 1.43181 0
M  V30 25419 H 2376.31 -2.74918 3.19371 0
M  V30 25420 H 2375.03 -2.61366 1.95845 0
M  V30 25421 H 2373.69 -1.1279 3.48818 0
M  V30 25422 H 2373.34 -3.60387 3.50899 0
M  V30 25423 H 2373.04 -2.89279 5.1146 0
M  V30 25424 H 2374.56 -3.7713 4.80214 0
M  V30 25425 H 2375.97 -1.61043 5.50216 0
M  V30 25426 H 2374.37 -0.942657 5.9265 0
M  V30 25427 H 2375.44 -0.027817 4.84892 0
M  V30 25428 N 2376.78 -1.56818 -0.156836 0
M  V30 25429 C 2378.01 -1.87319 -0.890298 0
M  V30 25430 C 2378.43 -0.704885 -1.74393 0
M  V30 25431 O 2377.79 0.345755 -1.77973 0
M  V30 25432 C 2377.84 -3.16339 -1.73096 0
M  V30 25433 O 2376.94 -2.99581 -2.83417 0
M  V30 25434 H 2376.29 -0.615723 -0.248559 0
M  V30 25435 H 2378.82 -2.04045 -0.150614 0
M  V30 25436 H 2378.83 -3.48111 -2.12797 0
M  V30 25437 H 2377.5 -4.00978 -1.10405 0
M  V30 25438 H 2376.08 -2.79194 -2.47194 0
M  V30 25439 N 2378.26 0.425871 -1.51737 0
M  V30 25440 C 2379.54 1.18627 -1.55522 0
M  V30 25441 C 2379.92 2.08564 -0.326256 0
M  V30 25442 O 2379.27 2.17897 0.687974 0
M  V30 25443 C 2379.48 1.97815 -2.87524 0
M  V30 25444 C 2380.83 2.54462 -3.39903 0
M  V30 25445 O 2381.85 2.08014 -2.89152 0
M  V30 25446 O 2380.71 3.39208 -4.28486 0
M  V30 25447 H 2377.8 0.54071 -0.625749 0
M  V30 25448 H 2380.35 0.434009 -1.64056 0
M  V30 25449 H 2379.12 1.3183 -3.68425 0
M  V30 25450 H 2378.74 2.80083 -2.82205 0
M  V30 25451 N 2379.74 1.42077 0.682052 0
M  V30 25452 C 2380.99 1.41454 1.43784 0
M  V30 25453 C 2381.3 0.0317418 1.95574 0
M  V30 25454 O 2382.51 -0.0970985 2.71326 0
M  V30 25455 C 2380.96 2.48784 2.60067 0
M  V30 25456 C 2380.57 3.93035 2.15006 0
M  V30 25457 C 2382.32 2.57317 3.37622 0
M  V30 25458 C 2380.22 4.91889 3.28328 0
M  V30 25459 H 2379.15 0.526091 0.540134 0
M  V30 25460 H 2381.8 1.67956 0.739128 0
M  V30 25461 H 2380.19 2.15435 3.32271 0
M  V30 25462 H 2381.36 4.35702 1.50002 0
M  V30 25463 H 2379.68 3.88286 1.50409 0
M  V30 25464 H 2382.27 3.28352 4.22006 0
M  V30 25465 H 2382.62 1.61435 3.83724 0
M  V30 25466 H 2383.15 2.89824 2.72483 0
M  V30 25467 H 2379.89 5.89222 2.87224 0
M  V30 25468 H 2379.41 4.5386 3.92137 0
M  V30 25469 H 2381.09 5.13272 3.93904 0
M  V30 25470 N 2381.22 -0.917649 1.28129 0
M  V30 25471 C 2382.47 -1.66095 1.14435 0
M  V30 25472 C 2382.78 -1.93172 -0.307213 0
M  V30 25473 O 2383.99 -2.65552 -0.565212 0
M  V30 25474 C 2382.44 -2.99199 2.0002 0
M  V30 25475 C 2382.05 -2.79783 3.49893 0
M  V30 25476 C 2383.8 -3.7706 1.95002 0
M  V30 25477 C 2381.7 -4.08503 4.27643 0
M  V30 25478 H 2380.63 -0.623032 0.424673 0
M  V30 25479 H 2383.28 -1.01865 1.52629 0
M  V30 25480 H 2381.67 -3.64542 1.54678 0
M  V30 25481 H 2382.84 -2.23145 4.03166 0
M  V30 25482 H 2381.15 -2.15339 3.56396 0
M  V30 25483 H 2383.75 -4.72465 2.50362 0
M  V30 25484 H 2384.09 -4.05873 0.92589 0
M  V30 25485 H 2384.63 -3.1853 2.38293 0
M  V30 25486 H 2381.37 -3.84865 5.30621 0
M  V30 25487 H 2380.89 -4.64768 3.79145 0
M  V30 25488 H 2382.57 -4.76791 4.37355 0
M  V30 25489 N 2382.7 -1.10314 -1.12555 0
M  V30 25490 C 2383.63 -0.708664 -2.17969 0
M  V30 25491 C 2384.64 0.253998 -1.60806 0
M  V30 25492 O 2385.83 0.0386578 -1.78458 0
M  V30 25493 C 2382.93 -0.0248794 -3.38891 0
M  V30 25494 C 2382.1 -1.0114 -4.25546 0
M  V30 25495 C 2381.16 -0.359332 -5.24972 0
M  V30 25496 O 2380.19 -1.00975 -5.60172 0
M  V30 25497 N 2381.39 0.882746 -5.73749 0
M  V30 25498 H 2384.16 -1.61561 -2.52424 0
M  V30 25499 H 2381.72 -0.991793 -1.27965 0
M  V30 25500 H 2383.71 0.422781 -4.02486 0
M  V30 25501 H 2382.28 0.784461 -3.02597 0
M  V30 25502 H 2381.5 -1.63736 -3.58586 0
M  V30 25503 H 2382.79 -1.67922 -4.80291 0
M  V30 25504 H 2382.19 1.43056 -5.47313 0
M  V30 25505 H 2380.74 1.27358 -6.39237 0
M  V30 25506 N 2384.18 1.29948 -0.891694 0
M  V30 25507 C 2385.12 2.27947 -0.361776 0
M  V30 25508 C 2386.09 1.56669 0.551733 0
M  V30 25509 O 2387.28 1.84697 0.478703 0
M  V30 25510 C 2384.42 3.42635 0.411764 0
M  V30 25511 C 2383.53 4.28715 -0.531726 0
M  V30 25512 C 2382.67 5.30573 0.258074 0
M  V30 25513 C 2381.7 6.08306 -0.680455 0
M  V30 25514 N 2380.84 7.02061 0.0744379 0
M  V30 25515 H 2385.68 2.72657 -1.20259 0
M  V30 25516 H 2383.22 1.34111 -0.604376 0
M  V30 25517 H 2385.18 4.07895 0.876232 0
M  V30 25518 H 2383.81 2.98976 1.2171 0
M  V30 25519 H 2382.86 3.63701 -1.1147 0
M  V30 25520 H 2384.17 4.82871 -1.25046 0
M  V30 25521 H 2383.32 6.01612 0.784098 0
M  V30 25522 H 2382.06 4.77127 1.00999 0
M  V30 25523 H 2381.07 5.36138 -1.21805 0
M  V30 25524 H 2382.29 6.63839 -1.43157 0
M  V30 25525 H 2380.24 6.50995 0.808769 0
M  V30 25526 H 2380.16 7.53737 -0.584542 0
M  V30 25527 H 2381.42 7.77332 0.580986 0
M  V30 25528 N 2385.65 0.653339 1.4342 0
M  V30 25529 C 2386.88 0.174275 2.05864 0
M  V30 25530 C 2387.29 -1.16531 1.49054 0
M  V30 25531 O 2386.63 -1.73046 0.616511 0
M  V30 25532 C 2386.7 0.00882192 3.59499 0
M  V30 25533 C 2386.36 1.27372 4.38891 0
M  V30 25534 C 2387.36 2.20248 4.70943 0
M  V30 25535 C 2385.04 1.51534 4.78898 0
M  V30 25536 C 2387.04 3.35578 5.4191 0
M  V30 25537 C 2384.72 2.67157 5.49609 0
M  V30 25538 C 2385.72 3.59004 5.81038 0
M  V30 25539 O 2385.41 4.72609 6.50305 0
M  V30 25540 H 2385.14 0.0872666 0.670344 0
M  V30 25541 H 2387.7 0.894259 1.84911 0
M  V30 25542 H 2385.93 -0.766534 3.79027 0
M  V30 25543 H 2387.61 -0.427616 4.03641 0
M  V30 25544 H 2388.38 2.02823 4.40554 0
M  V30 25545 H 2384.26 0.809238 4.53842 0
M  V30 25546 H 2387.8 4.07289 5.66358 0
M  V30 25547 H 2383.7 2.84516 5.79414 0
M  V30 25548 H 2384.47 4.71875 6.68787 0
M  V30 25549 N 2387.13 -1.52563 0.395266 0
M  V30 25550 C 2388.38 -2.01653 -0.185008 0
M  V30 25551 C 2388.71 -1.28149 -1.46315 0
M  V30 25552 O 2387.96 -0.372108 -1.9213 0
M  V30 25553 C 2388.26 -3.53978 -0.493382 0
M  V30 25554 C 2387.93 -4.45528 0.693918 0
M  V30 25555 C 2386.59 -4.70273 1.01962 0
M  V30 25556 C 2388.94 -4.9951 1.48794 0
M  V30 25557 C 2386.27 -5.46248 2.14079 0
M  V30 25558 C 2388.62 -5.76711 2.59975 0
M  V30 25559 C 2387.28 -5.99733 2.93047 0
M  V30 25560 H 2386.55 -0.737901 -0.0676994 0
M  V30 25561 H 2389.2 -1.83909 0.533839 0
M  V30 25562 H 2387.51 -3.69828 -1.29363 0
M  V30 25563 H 2389.2 -3.8946 -0.955095 0
M  V30 25564 H 2385.79 -4.26437 0.430062 0
M  V30 25565 H 2389.98 -4.80313 1.24954 0
M  V30 25566 H 2385.23 -5.62297 2.40066 0
M  V30 25567 H 2389.41 -6.17539 3.21898 0
M  V30 25568 H 2387.03 -6.58386 3.80042 0
M  V30 25569 N 2388.61 -0.125265 -1.57101 0
M  V30 25570 C 2389.86 0.531213 -1.95408 0
M  V30 25571 C 2390.18 1.66286 -1.00893 0
M  V30 25572 O 2389.44 1.95671 -0.0339775 0
M  V30 25573 C 2389.74 1.09856 -3.40098 0
M  V30 25574 C 2389.4 0.0876197 -4.50815 0
M  V30 25575 C 2388.07 -0.190345 -4.80823 0
M  V30 25576 C 2390.42 -0.600993 -5.17723 0
M  V30 25577 C 2387.75 -1.1631 -5.75056 0
M  V30 25578 C 2390.1 -1.56242 -6.13002 0
M  V30 25579 C 2388.76 -1.84831 -6.414 0
M  V30 25580 H 2388.03 0.194385 -0.715049 0
M  V30 25581 H 2390.68 -0.207497 -1.90373 0
M  V30 25582 H 2388.98 1.91416 -3.41858 0
M  V30 25583 H 2390.68 1.61471 -3.67053 0
M  V30 25584 H 2387.27 0.314453 -4.27445 0
M  V30 25585 H 2391.46 -0.39942 -4.9469 0
M  V30 25586 H 2386.71 -1.39127 -5.9536 0
M  V30 25587 H 2390.89 -2.10165 -6.63931 0
M  V30 25588 H 2388.51 -2.60361 -7.14224 0
M  V30 25589 N 2390.09 1.56899 0.148518 0
M  V30 25590 C 2391.31 1.87789 0.880352 0
M  V30 25591 C 2391.74 0.714124 1.74017 0
M  V30 25592 O 2391.1 -0.336312 1.78153 0
M  V30 25593 C 2391.14 3.17252 1.71416 0
M  V30 25594 O 2390.25 3.01079 2.81824 0
M  V30 25595 H 2389.59 0.617032 0.24529 0
M  V30 25596 H 2392.12 2.04122 0.139791 0
M  V30 25597 H 2392.13 3.49235 2.10948 0
M  V30 25598 H 2390.8 4.01558 1.08277 0
M  V30 25599 H 2389.38 2.80501 2.4571 0
M  V30 25600 N 2391.57 -0.417818 1.51961 0
M  V30 25601 C 2392.98 -0.996972 1.57852 0
M  V30 25602 C 2393.33 -1.91788 0.413747 0
M  V30 25603 O 2392.45 -2.113 -0.467019 0
M  V30 25604 C 2393.05 -1.81491 2.86088 0
M  V30 25605 C 2391.61 -2.34423 2.94487 0
M  V30 25606 C 2390.75 -1.14165 2.52709 0
M  V30 25607 H 2393.7 -0.198364 1.57455 0
M  V30 25608 H 2393.73 -2.67143 2.70952 0
M  V30 25609 H 2393.24 -1.1444 3.70844 0
M  V30 25610 H 2391.34 -3.04872 2.14206 0
M  V30 25611 H 2391.45 -2.65884 3.98551 0
M  V30 25612 H 2389.82 -1.49297 2.06355 0
M  V30 25613 H 2390.6 -0.486939 3.39829 0
M  V30 25614 N 2393.04 -1.42436 -0.674508 0
M  V30 25615 C 2394.27 -1.4632 -1.46281 0
M  V30 25616 C 2394.69 -0.0746168 -1.88652 0
M  V30 25617 O 2394.04 0.910712 -1.58153 0
M  V30 25618 C 2394.09 -2.39055 -2.71173 0
M  V30 25619 O 2393.82 -3.72511 -2.3058 0
M  V30 25620 C 2395.32 -2.51962 -3.64733 0
M  V30 25621 H 2392.54 -0.497649 -0.450096 0
M  V30 25622 H 2395.08 -1.86954 -0.828759 0
M  V30 25623 H 2393.24 -2.01673 -3.30767 0
M  V30 25624 H 2393.65 -4.22178 -3.11233 0
M  V30 25625 H 2395.12 -3.2097 -4.4909 0
M  V30 25626 H 2395.6 -1.55759 -4.10653 0
M  V30 25627 H 2396.21 -2.90066 -3.11033 0
M  V30 25628 N 2394.52 0.910841 -1.28614 0
M  V30 25629 C 2395.45 2.0303 -1.15329 0
M  V30 25630 C 2396.43 1.70026 -0.0503222 0
M  V30 25631 O 2397.62 1.92859 -0.22783 0
M  V30 25632 C 2394.75 3.37544 -0.817403 0
M  V30 25633 C 2393.7 3.84721 -1.87547 0
M  V30 25634 C 2393.03 5.16232 -1.39314 0
M  V30 25635 C 2394.33 4.06261 -3.28251 0
M  V30 25636 H 2396.02 2.14402 -2.08979 0
M  V30 25637 H 2393.57 1.03019 -1.00614 0
M  V30 25638 H 2395.52 4.15355 -0.711224 0
M  V30 25639 H 2394.24 3.26233 0.154789 0
M  V30 25640 H 2392.9 3.09117 -1.97084 0
M  V30 25641 H 2392.55 5.01327 -0.409934 0
M  V30 25642 H 2392.25 5.48768 -2.10066 0
M  V30 25643 H 2393.78 5.96595 -1.30024 0
M  V30 25644 H 2395.19 4.74588 -3.21619 0
M  V30 25645 H 2393.59 4.50133 -3.96863 0
M  V30 25646 H 2394.66 3.10973 -3.72054 0
M  V30 25647 N 2396 1.10909 1.11969 0
M  V30 25648 C 2397.25 0.85454 1.83586 0
M  V30 25649 C 2397.58 -0.619867 1.84358 0
M  V30 25650 O 2396.83 -1.47329 1.28812 0
M  V30 25651 C 2397.13 1.35431 3.30746 0
M  V30 25652 C 2396.8 2.84099 3.50141 0
M  V30 25653 C 2395.46 3.24696 3.55142 0
M  V30 25654 C 2397.81 3.79878 3.5685 0
M  V30 25655 C 2395.14 4.59813 3.64402 0
M  V30 25656 C 2397.49 5.14804 3.67641 0
M  V30 25657 C 2396.15 5.54968 3.709 0
M  V30 25658 H 2395.42 0.312698 0.671789 0
M  V30 25659 H 2398.07 1.38654 1.32088 0
M  V30 25660 H 2396.38 0.742429 3.84701 0
M  V30 25661 H 2398.07 1.13377 3.84638 0
M  V30 25662 H 2394.66 2.51691 3.46914 0
M  V30 25663 H 2398.85 3.49617 3.52252 0
M  V30 25664 H 2394.1 4.90346 3.652 0
M  V30 25665 H 2398.28 5.8886 3.71776 0
M  V30 25666 H 2395.9 6.59659 3.77828 0
M  V30 25667 N 2397.48 -1.29474 0.898573 0
M  V30 25668 C 2398.89 -1.48114 0.594509 0
M  V30 25669 C 2399.09 -1.82023 -0.864278 0
M  V30 25670 O 2398.15 -1.91602 -1.64454 0
M  V30 25671 C 2399.46 -2.59492 1.51936 0
M  V30 25672 C 2401.01 -2.73367 1.52444 0
M  V30 25673 C 2401.49 -3.87872 2.43555 0
M  V30 25674 N 2402.98 -3.95204 2.41596 0
M  V30 25675 C 2403.71 -4.83148 3.08798 0
M  V30 25676 N 2403.21 -5.75791 3.85275 0
M  V30 25677 N 2405 -4.7663 2.97961 0
M  V30 25678 H 2397.15 -1.05739 1.84209 0
M  V30 25679 H 2399.42 -0.52514 0.78926 0
M  V30 25680 H 2399.12 -2.41296 2.55869 0
M  V30 25681 H 2399 -3.56269 1.23905 0
M  V30 25682 H 2401.38 -2.9096 0.492569 0
M  V30 25683 H 2401.46 -1.77169 1.84513 0
M  V30 25684 H 2401.11 -3.71035 3.46836 0
M  V30 25685 H 2401.04 -4.83437 2.08797 0
M  V30 25686 H 2403.53 -3.28939 1.86031 0
M  V30 25687 H 2403.84 -6.39689 4.3361 0
M  V30 25688 H 2402.19 -5.7568 3.89381 0
M  V30 25689 H 2405.38 -4.03239 2.3773 0
M  V30 25690 H 2405.55 -5.44956 3.50609 0
M  V30 25691 N 2398.96 -0.660936 -1.43071 0
M  V30 25692 C 2400.2 -0.177743 -2.0202 0
M  V30 25693 C 2400.54 1.20785 -1.52068 0
M  V30 25694 O 2399.81 1.80801 -0.717019 0
M  V30 25695 C 2400.09 -0.197082 -3.5956 0
M  V30 25696 C 2399.95 -1.61714 -4.19725 0
M  V30 25697 C 2401.27 0.462319 -4.37665 0
M  V30 25698 H 2398.38 -0.0660623 -0.734033 0
M  V30 25699 H 2401.03 -0.843088 -1.7027 0
M  V30 25700 H 2399.18 0.369459 -3.86739 0
M  V30 25701 H 2400.85 -2.23486 -4.03549 0
M  V30 25702 H 2399.09 -2.16208 -3.76081 0
M  V30 25703 H 2399.76 -1.58246 -5.28831 0
M  V30 25704 H 2402.24 -0.0197947 -4.16095 0
M  V30 25705 H 2401.11 0.418091 -5.47305 0
M  V30 25706 H 2401.38 1.5377 -4.14496 0
M  V30 25707 N 2400.43 1.52351 -0.403352 0
M  V30 25708 C 2401.68 2.00934 0.175632 0
M  V30 25709 C 2402 1.29359 1.46716 0
M  V30 25710 O 2403.2 1.68727 2.12705 0
M  V30 25711 C 2401.66 3.58059 0.363549 0
M  V30 25712 C 2401.27 4.38545 -0.915549 0
M  V30 25713 C 2403.01 4.1489 0.898137 0
M  V30 25714 C 2400.92 5.873 -0.695139 0
M  V30 25715 H 2399.85 0.750798 0.0694102 0
M  V30 25716 H 2402.5 1.75742 -0.52791 0
M  V30 25717 H 2400.88 3.79557 1.12928 0
M  V30 25718 H 2402.05 4.28809 -1.68698 0
M  V30 25719 H 2400.37 3.93004 -1.37612 0
M  V30 25720 H 2402.97 5.237 1.07898 0
M  V30 25721 H 2403.31 3.71876 1.8712 0
M  V30 25722 H 2403.84 3.97338 0.191612 0
M  V30 25723 H 2400.58 6.34663 -1.6396 0
M  V30 25724 H 2400.1 5.99789 0.0371062 0
M  V30 25725 H 2401.78 6.46132 -0.335084 0
M  V30 25726 N 2401.91 0.133594 1.57033 0
M  V30 25727 C 2403.33 -0.222916 1.58036 0
M  V30 25728 C 2403.53 -1.65658 1.14716 0
M  V30 25729 O 2402.58 -2.38074 0.84126 0
M  V30 25730 C 2403.9 0.0236644 3.00691 0
M  V30 25731 C 2405.45 -0.0410961 3.12973 0
M  V30 25732 C 2405.92 0.177979 4.57654 0
M  V30 25733 N 2407.41 0.124446 4.63033 0
M  V30 25734 C 2408.15 0.268653 5.7277 0
M  V30 25735 N 2407.64 0.469842 6.91205 0
M  V30 25736 N 2409.44 0.207199 5.61718 0
M  V30 25737 H 2401.59 1.06985 1.83489 0
M  V30 25738 H 2403.85 0.42245 0.848669 0
M  V30 25739 H 2403.56 1.01536 3.36724 0
M  V30 25740 H 2403.43 -0.701743 3.70615 0
M  V30 25741 H 2405.82 -1.02333 2.76789 0
M  V30 25742 H 2405.9 0.716426 2.45563 0
M  V30 25743 H 2405.54 1.15725 4.9454 0
M  V30 25744 H 2405.47 -0.599705 5.23174 0
M  V30 25745 H 2407.96 -0.0269446 3.7789 0
M  V30 25746 H 2408.28 0.570347 7.70692 0
M  V30 25747 H 2406.62 0.505997 6.93156 0
M  V30 25748 H 2409.81 0.0508808 4.68072 0
M  V30 25749 H 2409.98 0.323023 6.47194 0
M  V30 25750 N 2403.39 -1.56975 -0.140195 0
M  V30 25751 C 2404.32 -2.0181 -1.17452 0
M  V30 25752 C 2405.3 -0.898819 -1.44413 0
M  V30 25753 O 2406.49 -1.1671 -1.55218 0
M  V30 25754 C 2403.62 -2.40449 -2.50603 0
M  V30 25755 C 2402.57 -3.55625 -2.38149 0
M  V30 25756 C 2401.9 -3.80098 -3.76072 0
M  V30 25757 C 2403.2 -4.88065 -1.85983 0
M  V30 25758 H 2404.89 -2.88467 -0.801692 0
M  V30 25759 H 2402.44 -1.3878 -0.384196 0
M  V30 25760 H 2404.39 -2.70416 -3.23193 0
M  V30 25761 H 2403.11 -1.50737 -2.89734 0
M  V30 25762 H 2401.77 -3.25834 -1.6801 0
M  V30 25763 H 2401.42 -2.87625 -4.12651 0
M  V30 25764 H 2401.12 -4.57613 -3.68598 0
M  V30 25765 H 2402.64 -4.12496 -4.50199 0
M  V30 25766 H 2404.06 -5.16706 -2.48371 0
M  V30 25767 H 2402.46 -5.69433 -1.89383 0
M  V30 25768 H 2403.53 -4.77986 -0.815938 0
M  V30 25769 N 2404.87 0.409753 -1.5218 0
M  V30 25770 C 2405.83 1.48183 -1.74855 0
M  V30 25771 C 2406.83 1.48432 -0.618443 0
M  V30 25772 O 2408.02 1.49967 -0.886312 0
M  V30 25773 C 2405.15 2.87595 -1.83035 0
M  V30 25774 H 2406.35 1.2937 -2.70561 0
M  V30 25775 H 2403.9 0.640208 -1.42587 0
M  V30 25776 H 2404.63 3.11779 -0.892415 0
M  V30 25777 H 2404.42 2.88818 -2.65192 0
M  V30 25778 H 2405.91 3.65315 -2.02323 0
M  V30 25779 N 2406.35 1.42792 0.666944 0
M  V30 25780 C 2407.76 1.25891 0.981005 0
M  V30 25781 C 2407.96 0.16873 2.00792 0
M  V30 25782 O 2407.02 -0.457426 2.48322 0
M  V30 25783 C 2408.33 2.61851 1.47833 0
M  V30 25784 C 2409.88 2.6927 1.5957 0
M  V30 25785 C 2410.35 4.05616 2.12697 0
M  V30 25786 N 2411.85 4.0761 2.20019 0
M  V30 25787 C 2412.58 5.09931 2.62218 0
M  V30 25788 N 2412.08 6.22631 3.03813 0
M  V30 25789 N 2413.87 4.97286 2.62036 0
M  V30 25790 H 2406.02 2.12396 -0.0128264 0
M  V30 25791 H 2408.28 0.946296 0.0568091 0
M  V30 25792 H 2407.99 3.42522 0.798239 0
M  V30 25793 H 2407.86 2.86309 2.45574 0
M  V30 25794 H 2410.25 1.8894 2.26684 0
M  V30 25795 H 2410.33 2.48592 0.602976 0
M  V30 25796 H 2409.98 4.86406 1.46189 0
M  V30 25797 H 2409.91 4.2365 3.12775 0
M  V30 25798 H 2412.4 3.26253 1.90702 0
M  V30 25799 H 2412.71 6.96549 3.34722 0
M  V30 25800 H 2411.05 6.26124 3.01651 0
M  V30 25801 H 2414.25 4.08312 2.28908 0
M  V30 25802 H 2414.42 5.7716 2.94603 0
M  V30 25803 N 2407.82 -0.904008 1.29095 0
M  V30 25804 C 2409.07 -1.64872 1.1619 0
M  V30 25805 C 2409.39 -1.93487 -0.286708 0
M  V30 25806 O 2410.59 -2.66136 -0.537015 0
M  V30 25807 C 2409.05 -2.9706 2.03183 0
M  V30 25808 C 2408.66 -2.76056 3.52841 0
M  V30 25809 C 2410.4 -3.74971 1.98991 0
M  V30 25810 C 2408.31 -4.03945 4.31952 0
M  V30 25811 H 2407.24 -0.618493 0.431257 0
M  V30 25812 H 2409.89 -1.00241 1.53701 0
M  V30 25813 H 2408.27 -3.62881 1.58536 0
M  V30 25814 H 2409.44 -2.18856 4.0551 0
M  V30 25815 H 2407.76 -2.11547 3.5866 0
M  V30 25816 H 2410.36 -4.69783 2.55359 0
M  V30 25817 H 2410.7 -4.04868 0.968886 0
M  V30 25818 H 2411.23 -3.15985 2.41658 0
M  V30 25819 H 2407.97 -3.79215 5.34674 0
M  V30 25820 H 2407.49 -4.6072 3.84053 0
M  V30 25821 H 2409.17 -4.72126 4.42387 0
M  V30 25822 N 2409.3 -1.11501 -1.11379 0
M  V30 25823 C 2410.55 -0.862556 -1.82769 0
M  V30 25824 C 2410.87 0.613501 -1.85098 0
M  V30 25825 O 2410.14 1.44568 -1.32201 0
M  V30 25826 H 2408.72 -0.316112 -0.676817 0
M  V30 25827 H 2411.38 -1.40753 -1.34813 0
M  V30 25828 H 2410.48 -1.23532 -2.86612 0
M  V30 25829 N 2410.78 1.28995 -0.905426 0
M  V30 25830 C 2412.2 1.47797 -0.602356 0
M  V30 25831 C 2412.4 1.82479 0.854613 0
M  V30 25832 O 2411.45 1.92471 1.63435 0
M  V30 25833 C 2412.77 2.58682 -1.5331 0
M  V30 25834 C 2414.31 2.72555 -1.53892 0
M  V30 25835 C 2414.79 3.86575 -2.45609 0
M  V30 25836 N 2416.28 3.93917 -2.43688 0
M  V30 25837 C 2417.02 4.81503 -3.11356 0
M  V30 25838 N 2416.51 5.7374 -3.88323 0
M  V30 25839 N 2418.3 4.75043 -3.00484 0
M  V30 25840 H 2410.46 1.04761 -1.84767 0
M  V30 25841 H 2412.72 0.520947 -0.792034 0
M  V30 25842 H 2412.42 2.39936 -2.57145 0
M  V30 25843 H 2412.3 3.55607 -1.25793 0
M  V30 25844 H 2414.69 2.90695 -0.507992 0
M  V30 25845 H 2414.77 1.76188 -1.8545 0
M  V30 25846 H 2414.41 3.69191 -3.48799 0
M  V30 25847 H 2414.34 4.82323 -2.11358 0
M  V30 25848 H 2416.83 3.27948 -1.87772 0
M  V30 25849 H 2417.14 6.37381 -4.36996 0
M  V30 25850 H 2415.49 5.73607 -3.92429 0
M  V30 25851 H 2418.68 4.01973 -2.39865 0
M  V30 25852 H 2418.85 5.43089 -3.53494 0
M  V30 25853 N 2412.26 0.668514 1.42719 0
M  V30 25854 C 2413.51 0.185424 2.00846 0
M  V30 25855 C 2413.82 -1.21302 1.53444 0
M  V30 25856 O 2415.03 -1.79215 2.03947 0
M  V30 25857 C 2413.48 0.280654 3.58804 0
M  V30 25858 C 2413.09 1.68276 4.15196 0
M  V30 25859 C 2414.84 -0.144046 4.24256 0
M  V30 25860 C 2412.74 1.73109 5.65497 0
M  V30 25861 H 2411.67 0.0655607 0.751144 0
M  V30 25862 H 2414.32 0.832781 1.63515 0
M  V30 25863 H 2412.71 -0.434484 3.93609 0
M  V30 25864 H 2413.88 2.42447 3.91862 0
M  V30 25865 H 2412.19 2.05476 3.62172 0
M  V30 25866 H 2414.79 -0.127992 5.34547 0
M  V30 25867 H 2415.13 -1.1782 3.99279 0
M  V30 25868 H 2415.67 0.519867 3.94388 0
M  V30 25869 H 2412.41 2.74486 5.95263 0
M  V30 25870 H 2411.93 1.03284 5.9084 0
M  V30 25871 H 2413.61 1.48169 6.29805 0
M  V30 25872 N 2413.74 -1.52135 0.411426 0
M  V30 25873 C 2414.67 -2.29979 -0.403974 0
M  V30 25874 C 2415.65 -1.34286 -1.0441 0
M  V30 25875 O 2416.83 -1.63194 -1.05268 0
M  V30 25876 C 2413.96 -3.12288 -1.51965 0
M  V30 25877 C 2412.92 -4.16048 -1.0044 0
M  V30 25878 C 2412.24 -4.86716 -2.21385 0
M  V30 25879 C 2413.54 -5.22269 -0.0568418 0
M  V30 25880 H 2415.24 -2.98391 0.245581 0
M  V30 25881 H 2412.78 -1.43503 0.11955 0
M  V30 25882 H 2414.74 -3.65514 -2.09708 0
M  V30 25883 H 2413.46 -2.41649 -2.19711 0
M  V30 25884 H 2412.12 -3.63836 -0.449357 0
M  V30 25885 H 2411.77 -4.12605 -2.87692 0
M  V30 25886 H 2411.47 -5.56861 -1.87561 0
M  V30 25887 H 2412.99 -5.42755 -2.7973 0
M  V30 25888 H 2414.41 -5.70721 -0.54315 0
M  V30 25889 H 2412.8 -5.99791 0.1927 0
M  V30 25890 H 2413.87 -4.76704 0.887747 0
M  V30 25891 N 2415.22 -0.14192 -1.5696 0
M  V30 25892 C 2416.63 0.214532 -1.58152 0
M  V30 25893 C 2416.83 1.65047 -1.15593 0
M  V30 25894 O 2415.89 2.37624 -0.853874 0
M  V30 25895 C 2417.2 -0.0396105 -3.00674 0
M  V30 25896 C 2418.75 0.0244978 -3.1299 0
M  V30 25897 C 2419.22 -0.202247 -4.57553 0
M  V30 25898 N 2420.71 -0.149 -4.6296 0
M  V30 25899 C 2421.45 -0.299025 -5.7262 0
M  V30 25900 N 2420.95 -0.506491 -6.90946 0
M  V30 25901 N 2422.74 -0.236985 -5.616 0
M  V30 25902 H 2414.89 -1.07956 -1.82919 0
M  V30 25903 H 2417.15 -0.426945 -0.846417 0
M  V30 25904 H 2416.86 -1.0332 -3.36181 0
M  V30 25905 H 2416.73 0.682078 -3.70982 0
M  V30 25906 H 2419.12 1.00864 -2.77327 0
M  V30 25907 H 2419.2 -0.729439 -2.45179 0
M  V30 25908 H 2418.84 -1.18346 -4.9392 0
M  V30 25909 H 2418.77 0.571952 -5.23485 0
M  V30 25910 H 2421.27 0.00690373 -3.77899 0
M  V30 25911 H 2421.58 -0.611211 -7.70379 0
M  V30 25912 H 2419.92 -0.54275 -6.92877 0
M  V30 25913 H 2423.11 -0.0757031 -4.68039 0
M  V30 25914 H 2423.29 -0.357341 -6.47014 0
M  V30 25915 N 2416.69 1.57047 0.131868 0
M  V30 25916 C 2417.62 2.0243 1.1638 0
M  V30 25917 C 2418.6 0.906465 1.43935 0
M  V30 25918 O 2419.79 1.17531 1.54596 0
M  V30 25919 C 2416.92 2.41774 2.49324 0
M  V30 25920 C 2415.87 3.56883 2.36259 0
M  V30 25921 C 2415.2 3.82087 3.74051 0
M  V30 25922 C 2416.5 4.89045 1.83392 0
M  V30 25923 H 2418.19 2.88888 0.786383 0
M  V30 25924 H 2415.74 1.38982 0.37683 0
M  V30 25925 H 2417.69 2.72126 3.21754 0
M  V30 25926 H 2416.42 1.52271 2.88931 0
M  V30 25927 H 2415.08 3.26721 1.6628 0
M  V30 25928 H 2414.72 2.8981 4.1112 0
M  V30 25929 H 2414.42 4.59561 3.66166 0
M  V30 25930 H 2415.95 4.14878 4.48005 0
M  V30 25931 H 2417.36 5.18016 2.45627 0
M  V30 25932 H 2415.76 5.70429 1.8636 0
M  V30 25933 H 2416.83 4.78412 0.790578 0
M  V30 25934 N 2418.17 -0.401677 1.52395 0
M  V30 25935 C 2419.42 -1.14506 1.66046 0
M  V30 25936 C 2419.73 -1.91461 0.400249 0
M  V30 25937 O 2420.94 -2.68283 0.41668 0
M  V30 25938 C 2419.4 -2.08444 2.93392 0
M  V30 25939 C 2419 -1.36971 4.26548 0
M  V30 25940 C 2420.75 -2.82996 3.16407 0
M  V30 25941 C 2418.65 -2.29601 5.45011 0
M  V30 25942 H 2417.58 -0.431147 0.618569 0
M  V30 25943 H 2420.24 -0.408889 1.78886 0
M  V30 25944 H 2418.62 -2.85645 2.74268 0
M  V30 25945 H 2419.79 -0.650836 4.56181 0
M  V30 25946 H 2418.11 -0.744308 4.09694 0
M  V30 25947 H 2420.7 -3.52458 4.02091 0
M  V30 25948 H 2421.05 -3.46364 2.30949 0
M  V30 25949 H 2421.58 -2.12892 3.36038 0
M  V30 25950 H 2418.32 -1.70868 6.32838 0
M  V30 25951 H 2417.84 -2.9944 5.19707 0
M  V30 25952 H 2419.52 -2.89964 5.78385 0
M  V30 25953 N 2419.65 -1.43144 -0.659362 0
M  V30 25954 C 2421.07 -1.26409 -0.974315 0
M  V30 25955 C 2421.27 -0.179376 -2.007 0
M  V30 25956 O 2420.32 0.444251 -2.48561 0
M  V30 25957 C 2421.63 -2.62631 -1.46443 0
M  V30 25958 C 2423.18 -2.70113 -1.5814 0
M  V30 25959 C 2423.66 -4.06738 -2.10543 0
M  V30 25960 N 2425.15 -4.08771 -2.17854 0
M  V30 25961 C 2425.88 -5.11314 -2.5951 0
M  V30 25962 N 2425.38 -6.24234 -3.00507 0
M  V30 25963 N 2427.17 -4.98669 -2.59395 0
M  V30 25964 H 2419.32 -2.12386 0.0240901 0
M  V30 25965 H 2421.59 -0.946584 -0.0517899 0
M  V30 25966 H 2421.29 -3.4294 -0.780063 0
M  V30 25967 H 2421.17 -2.87608 -2.44053 0
M  V30 25968 H 2423.55 -1.9014 -2.25679 0
M  V30 25969 H 2423.63 -2.48908 -0.589784 0
M  V30 25970 H 2423.28 -4.87175 -1.43608 0
M  V30 25971 H 2423.21 -4.25303 -3.10523 0
M  V30 25972 H 2425.7 -3.2726 -1.88969 0
M  V30 25973 H 2426.01 -6.98315 -3.31023 0
M  V30 25974 H 2424.36 -6.27715 -2.98326 0
M  V30 25975 H 2427.55 -4.0952 -2.2674 0
M  V30 25976 H 2427.72 -5.78714 -2.91538 0
M  V30 25977 N 2421.13 0.897149 -1.29572 0
M  V30 25978 C 2422.38 1.64462 -1.17459 0
M  V30 25979 C 2422.7 1.9307 0.273664 0
M  V30 25980 O 2421.97 1.55857 1.18682 0
M  V30 25981 H 2420.55 0.609614 -0.431717 0
M  V30 25982 H 2423.21 1.07559 -1.62533 0
M  V30 25983 H 2422.3 2.59995 -1.72652 0
M  V30 25984 N 2422.61 1.1209 1.10786 0
M  V30 25985 C 2423.57 0.788615 2.15206 0
M  V30 25986 C 2424.57 -0.195289 1.5961 0
M  V30 25987 O 2425.76 0.0300499 1.74174 0
M  V30 25988 C 2422.89 0.171234 3.4047 0
M  V30 25989 H 2424.08 1.71373 2.46113 0
M  V30 25990 H 2421.64 0.923674 1.26087 0
M  V30 25991 H 2422.37 -0.763777 3.15178 0
M  V30 25992 H 2422.16 0.879581 3.82107 0
M  V30 25993 H 2423.65 -0.0448866 4.17576 0
M  V30 25994 N 2424.08 -1.28513 0.912254 0
M  V30 25995 C 2425.03 -2.27343 0.397994 0
M  V30 25996 C 2426 -1.57527 -0.526738 0
M  V30 25997 O 2427.19 -1.85435 -0.449259 0
M  V30 25998 C 2424.33 -3.43246 -0.357202 0
M  V30 25999 C 2423.44 -4.27815 0.599863 0
M  V30 26000 C 2422.57 -5.30916 -0.173632 0
M  V30 26001 C 2421.61 -6.07146 0.777146 0
M  V30 26002 N 2420.75 -7.0209 0.0372632 0
M  V30 26003 H 2425.59 -2.70709 1.24582 0
M  V30 26004 H 2423.13 -1.33132 0.625635 0
M  V30 26005 H 2425.08 -4.09237 -0.811228 0
M  V30 26006 H 2423.71 -3.00874 -1.16938 0
M  V30 26007 H 2422.77 -3.61882 1.17242 0
M  V30 26008 H 2424.08 -4.80821 1.32713 0
M  V30 26009 H 2423.23 -6.02783 -0.688288 0
M  V30 26010 H 2421.97 -4.78674 -0.933957 0
M  V30 26011 H 2420.98 -5.34132 1.30319 0
M  V30 26012 H 2422.2 -6.61478 1.537 0
M  V30 26013 H 2420.15 -6.522 -0.705099 0
M  V30 26014 H 2420.06 -7.52711 0.704381 0
M  V30 26015 H 2421.33 -7.78158 -0.457246 0
M  V30 26016 N 2425.56 -0.676073 -1.42362 0
M  V30 26017 C 2426.81 -0.198473 -2.01123 0
M  V30 26018 C 2427.13 1.19963 -1.53733 0
M  V30 26019 O 2426.4 1.80576 -0.759549 0
M  V30 26020 H 2424.98 -0.0703852 -0.743677 0
M  V30 26021 H 2427.64 -0.872867 -1.74261 0
M  V30 26022 H 2426.74 -0.200741 -3.11454 0
M  V30 26023 N 2427.04 1.51915 -0.419488 0
M  V30 26024 C 2428.29 2.01109 0.154311 0
M  V30 26025 C 2428.6 1.30908 1.45336 0
M  V30 26026 O 2429.81 1.70974 2.10903 0
M  V30 26027 C 2428.26 3.58425 0.325552 0
M  V30 26028 C 2427.87 4.37549 -0.962011 0
M  V30 26029 C 2429.62 4.15819 0.854082 0
M  V30 26030 C 2427.52 5.8653 -0.757391 0
M  V30 26031 H 2426.45 0.751492 0.0614431 0
M  V30 26032 H 2429.1 1.75172 -0.54652 0
M  V30 26033 H 2427.49 3.80733 1.08896 0
M  V30 26034 H 2428.66 4.26996 -1.73237 0
M  V30 26035 H 2426.98 3.91522 -1.41773 0
M  V30 26036 H 2429.57 5.24815 1.02337 0
M  V30 26037 H 2429.92 3.7384 1.83165 0
M  V30 26038 H 2430.45 3.97519 0.149458 0
M  V30 26039 H 2427.19 6.32889 -1.70682 0
M  V30 26040 H 2426.71 5.99794 -0.0265115 0
M  V30 26041 H 2428.39 6.4574 -0.403596 0
M  V30 26042 N 2428.52 0.150242 1.56882 0
M  V30 26043 C 2429.93 -0.206142 1.58263 0
M  V30 26044 C 2430.13 -1.64432 1.16467 0
M  V30 26045 O 2429.19 -2.37168 0.866464 0
M  V30 26046 C 2430.5 0.0555554 3.00649 0
M  V30 26047 C 2432.05 -0.00789886 3.12999 0
M  V30 26048 C 2432.53 0.226509 4.5744 0
M  V30 26049 N 2434.02 0.17355 4.62875 0
M  V30 26050 C 2434.75 0.329388 5.72453 0
M  V30 26051 N 2434.25 0.543127 6.90668 0
M  V30 26052 N 2436.04 0.266765 5.61467 0
M  V30 26053 H 2428.19 1.08925 1.82343 0
M  V30 26054 H 2430.46 0.431428 0.844141 0
M  V30 26055 H 2430.16 1.05102 3.35628 0
M  V30 26056 H 2430.04 -0.662394 3.71338 0
M  V30 26057 H 2432.42 -0.993917 2.77858 0
M  V30 26058 H 2432.5 0.742431 2.44789 0
M  V30 26059 H 2432.15 1.20964 4.93285 0
M  V30 26060 H 2432.08 -0.544182 5.23781 0
M  V30 26061 H 2434.57 0.0131373 3.77898 0
M  V30 26062 H 2434.88 0.652057 7.70044 0
M  V30 26063 H 2433.23 0.579487 6.9258 0
M  V30 26064 H 2436.42 0.100523 4.67992 0
M  V30 26065 H 2436.59 0.391648 6.46815 0
M  V30 26066 N 2430 -1.57115 -0.123538 0
M  V30 26067 C 2431.22 -1.88794 -0.846427 0
M  V30 26068 C 2431.64 -0.741007 -1.73651 0
M  V30 26069 O 2431 0.288361 -1.80207 0
M  V30 26070 C 2431.05 -3.199 -1.68364 0
M  V30 26071 O 2430.77 -4.30177 -0.829401 0
M  V30 26072 C 2432.27 -3.65253 -2.51208 0
M  V30 26073 H 2429.49 -0.625235 -0.243562 0
M  V30 26074 H 2432.03 -2.04208 -0.109288 0
M  V30 26075 H 2430.19 -3.06169 -2.37358 0
M  V30 26076 H 2430.6 -5.05292 -1.40642 0
M  V30 26077 H 2432.08 -4.59761 -3.05489 0
M  V30 26078 H 2432.55 -2.91686 -3.28354 0
M  V30 26079 H 2433.16 -3.81756 -1.87464 0
M  V30 26080 N 2431.47 0.393589 -1.52606 0
M  V30 26081 C 2432.4 1.48705 -1.80025 0
M  V30 26082 C 2433.39 1.57107 -0.652023 0
M  V30 26083 O 2434.57 1.7213 -0.899161 0
M  V30 26084 C 2431.7 2.86367 -1.96497 0
M  V30 26085 C 2430.65 2.92808 -3.12166 0
M  V30 26086 C 2429.98 4.32874 -3.13885 0
M  V30 26087 C 2431.28 2.62872 -4.51326 0
M  V30 26088 H 2432.97 1.2601 -2.71591 0
M  V30 26089 H 2430.52 0.604755 -1.30686 0
M  V30 26090 H 2432.47 3.62864 -2.14261 0
M  V30 26091 H 2431.2 3.1039 -1.01616 0
M  V30 26092 H 2429.86 2.18759 -2.94177 0
M  V30 26093 H 2429.5 4.5393 -2.16695 0
M  V30 26094 H 2429.2 4.38105 -3.91583 0
M  V30 26095 H 2430.73 5.11284 -3.33798 0
M  V30 26096 H 2432.14 3.29088 -4.6944 0
M  V30 26097 H 2430.54 2.79459 -5.31058 0
M  V30 26098 H 2431.61 1.58234 -4.58356 0
M  V30 26099 N 2432.95 1.43492 0.651762 0
M  V30 26100 C 2433.88 1.51572 1.77618 0
M  V30 26101 C 2434.86 0.370282 1.66021 0
M  V30 26102 O 2436.05 0.587691 1.85094 0
M  V30 26103 C 2433.18 1.43971 3.16053 0
M  V30 26104 C 2432.13 2.5678 3.42415 0
M  V30 26105 C 2431.46 2.34232 4.80666 0
M  V30 26106 C 2432.76 3.99021 3.37016 0
M  V30 26107 H 2434.45 2.45684 1.71113 0
M  V30 26108 H 2432 1.18247 0.821804 0
M  V30 26109 H 2433.95 1.48228 3.9447 0
M  V30 26110 H 2432.68 0.463643 3.23292 0
M  V30 26111 H 2431.33 2.51878 2.6637 0
M  V30 26112 H 2430.98 1.34865 4.84583 0
M  V30 26113 H 2430.68 3.09852 4.99265 0
M  V30 26114 H 2432.21 2.40275 5.61338 0
M  V30 26115 H 2433.62 4.05402 4.05367 0
M  V30 26116 H 2432.02 4.74679 3.67151 0
M  V30 26117 H 2433.09 4.24054 2.35173 0
M  V30 26118 N 2434.43 -0.890264 1.30046 0
M  V30 26119 C 2435.68 -1.64161 1.18564 0
M  V30 26120 C 2436.01 -1.92743 -0.260818 0
M  V30 26121 O 2435.26 -1.54301 -1.20373 0
M  V30 26122 C 2435.56 -2.99246 1.95415 0
M  V30 26123 C 2435.23 -2.90236 3.45071 0
M  V30 26124 C 2433.89 -2.87486 3.85883 0
M  V30 26125 C 2436.24 -2.7875 4.40395 0
M  V30 26126 C 2433.57 -2.71081 5.20319 0
M  V30 26127 C 2435.92 -2.63884 5.74933 0
M  V30 26128 C 2434.58 -2.59505 6.1499 0
M  V30 26129 H 2433.85 -0.600708 0.433856 0
M  V30 26130 H 2436.5 -1.03549 1.6109 0
M  V30 26131 H 2434.81 -3.63778 1.45508 0
M  V30 26132 H 2436.5 -3.56331 1.83927 0
M  V30 26133 H 2433.09 -2.93183 3.12637 0
M  V30 26134 H 2437.28 -2.79945 4.09811 0
M  V30 26135 H 2432.53 -2.66102 5.50454 0
M  V30 26136 H 2436.71 -2.53969 6.48439 0
M  V30 26137 H 2434.33 -2.46552 7.19108 0
M  V30 26138 N 2435.91 -1.12676 -1.1019 0
M  V30 26139 C 2436.87 -0.800017 -2.14784 0
M  V30 26140 C 2437.87 0.186822 -1.59711 0
M  V30 26141 O 2439.06 -0.0392864 -1.74156 0
M  V30 26142 C 2436.19 -0.189287 -3.40374 0
M  V30 26143 H 2437.39 -1.72676 -2.452 0
M  V30 26144 H 2434.94 -0.930348 -1.25595 0
M  V30 26145 H 2435.67 0.747051 -3.15578 0
M  V30 26146 H 2435.46 -0.899833 -3.81635 0
M  V30 26147 H 2436.95 0.0227409 -4.17594 0
M  V30 26148 N 2437.39 1.28028 -0.919057 0
M  V30 26149 C 2438.32 2.29532 -0.428622 0
M  V30 26150 C 2439.3 1.62382 0.506561 0
M  V30 26151 O 2440.48 1.89754 0.413162 0
M  V30 26152 C 2437.61 3.45754 0.327328 0
M  V30 26153 C 2436.57 4.24839 -0.519212 0
M  V30 26154 C 2435.89 5.3345 0.365393 0
M  V30 26155 C 2437.19 4.91061 -1.77923 0
M  V30 26156 H 2438.89 2.70805 -1.27692 0
M  V30 26157 H 2436.43 1.30185 -0.615451 0
M  V30 26158 H 2438.39 4.15856 0.681305 0
M  V30 26159 H 2437.11 3.03376 1.20957 0
M  V30 26160 H 2435.77 3.56472 -0.855779 0
M  V30 26161 H 2435.42 4.87314 1.24634 0
M  V30 26162 H 2435.12 5.87268 -0.197459 0
M  V30 26163 H 2436.64 6.06398 0.715134 0
M  V30 26164 H 2438.05 5.53496 -1.49384 0
M  V30 26165 H 2436.45 5.54898 -2.2849 0
M  V30 26166 H 2437.52 4.15251 -2.50389 0
M  V30 26167 N 2438.86 0.683613 1.42002 0
M  V30 26168 C 2439.8 -0.0395519 2.28166 0
M  V30 26169 C 2440.78 -0.799918 1.41563 0
M  V30 26170 O 2441.96 -0.793218 1.70998 0
M  V30 26171 C 2439.09 -1.06329 3.21577 0
M  V30 26172 C 2438.13 -0.397488 4.24644 0
M  V30 26173 S 2438.97 0.851389 5.28689 0
M  V30 26174 C 2440.12 -0.171056 6.25666 0
M  V30 26175 H 2440.35 0.691279 2.89152 0
M  V30 26176 H 2437.89 0.473461 1.46962 0
M  V30 26177 H 2439.85 -1.64883 3.75931 0
M  V30 26178 H 2438.51 -1.76662 2.5971 0
M  V30 26179 H 2437.7 -1.17026 4.90225 0
M  V30 26180 H 2437.3 0.114677 3.73824 0
M  V30 26181 H 2439.59 -1.02807 6.69654 0
M  V30 26182 H 2440.54 0.450522 7.06665 0
M  V30 26183 H 2440.94 -0.520479 5.62095 0
M  V30 26184 N 2440.34 -1.5169 0.427538 0
M  V30 26185 C 2441.28 -2.24038 -0.433837 0
M  V30 26186 C 2442.25 -1.25583 -1.03285 0
M  V30 26187 O 2443.44 -1.5469 -1.07719 0
M  V30 26188 C 2440.57 -2.98322 -1.60379 0
M  V30 26189 C 2439.61 -4.11357 -1.12641 0
M  V30 26190 S 2440.44 -5.35445 -0.0764489 0
M  V30 26191 C 2441.6 -6.13264 -1.2513 0
M  V30 26192 H 2441.83 -2.96752 0.18042 0
M  V30 26193 H 2439.37 -1.52938 0.211973 0
M  V30 26194 H 2441.32 -3.41722 -2.27456 0
M  V30 26195 H 2439.99 -2.25216 -2.18944 0
M  V30 26196 H 2439.18 -4.62574 -2.00102 0
M  V30 26197 H 2438.78 -3.70168 -0.534023 0
M  V30 26198 H 2441.07 -6.41757 -2.17151 0
M  V30 26199 H 2442.02 -7.03799 -0.779287 0
M  V30 26200 H 2442.42 -5.44606 -1.48543 0
M  V30 26201 N 2441.82 -0.15856 -1.568 0
M  V30 26202 C 2443.05 0.49948 -2.01296 0
M  V30 26203 C 2443.47 1.56865 -1.03802 0
M  V30 26204 O 2442.83 1.81293 -0.0155481 0
M  V30 26205 C 2442.88 1.0664 -3.44471 0
M  V30 26206 O 2441.98 2.18089 -3.50016 0
M  V30 26207 H 2441.32 0.120979 -0.652886 0
M  V30 26208 H 2443.85 -0.258697 -2.02958 0
M  V30 26209 H 2443.86 1.3922 -3.83512 0
M  V30 26210 H 2442.54 0.283508 -4.14933 0
M  V30 26211 H 2441.11 1.86651 -3.22825 0
M  V30 26212 N 2443.3 1.57178 0.115204 0
M  V30 26213 C 2444.23 2.03653 1.14227 0
M  V30 26214 C 2445.21 0.921681 1.42965 0
M  V30 26215 O 2446.4 1.19164 1.53341 0
M  V30 26216 C 2443.53 2.44405 2.46746 0
M  V30 26217 C 2442.48 3.59369 2.32461 0
M  V30 26218 C 2441.81 3.86033 3.69977 0
M  V30 26219 C 2443.11 4.90962 1.78194 0
M  V30 26220 H 2444.8 2.89706 0.755698 0
M  V30 26221 H 2442.35 1.39374 0.362068 0
M  V30 26222 H 2444.3 2.75523 3.1885 0
M  V30 26223 H 2443.02 1.55327 2.873 0
M  V30 26224 H 2441.68 3.28466 1.62805 0
M  V30 26225 H 2441.33 2.94154 4.08023 0
M  V30 26226 H 2441.03 4.63419 3.61271 0
M  V30 26227 H 2442.55 4.19606 4.4358 0
M  V30 26228 H 2443.97 5.20592 2.40119 0
M  V30 26229 H 2442.36 5.72374 1.803 0
M  V30 26230 H 2443.43 4.79223 0.739792 0
M  V30 26231 N 2444.78 -0.38549 1.52813 0
M  V30 26232 C 2446.19 -0.963265 1.59932 0
M  V30 26233 C 2446.54 -1.90867 0.454335 0
M  V30 26234 O 2445.66 -2.12244 -0.422094 0
M  V30 26235 C 2446.26 -1.75381 2.89874 0
M  V30 26236 C 2444.82 -2.28124 2.99393 0
M  V30 26237 C 2443.97 -1.08779 2.55073 0
M  V30 26238 H 2446.92 -0.164921 1.57841 0
M  V30 26239 H 2446.94 -2.61336 2.76557 0
M  V30 26240 H 2446.45 -1.06548 3.73188 0
M  V30 26241 H 2444.55 -3.00259 2.20624 0
M  V30 26242 H 2444.66 -2.5737 4.04101 0
M  V30 26243 H 2443.03 -1.44886 2.09476 0
M  V30 26244 H 2443.81 -0.414747 3.40785 0
M  V30 26245 N 2446.26 -1.43835 -0.644143 0
M  V30 26246 C 2447.22 -1.49356 -1.73855 0
M  V30 26247 C 2448.22 -0.37714 -1.56315 0
M  V30 26248 O 2449.41 -0.639254 -1.62047 0
M  V30 26249 C 2446.54 -1.35493 -3.12817 0
M  V30 26250 H 2447.73 -2.4683 -1.70338 0
M  V30 26251 H 2445.29 -1.30735 -0.856629 0
M  V30 26252 H 2446.02 -0.390625 -3.21939 0
M  V30 26253 H 2445.81 -2.16434 -3.26954 0
M  V30 26254 H 2447.3 -1.42309 -3.92604 0
M  V30 26255 N 2447.73 0.883355 -1.30517 0
M  V30 26256 C 2448.66 2.00538 -1.1961 0
M  V30 26257 C 2449.64 1.69881 -0.0863759 0
M  V30 26258 O 2450.83 1.92332 -0.268687 0
M  V30 26259 C 2447.96 3.35734 -0.888817 0
M  V30 26260 C 2446.91 3.80656 -1.95665 0
M  V30 26261 C 2446.24 5.13161 -1.50233 0
M  V30 26262 C 2447.54 3.99207 -3.36795 0
M  V30 26263 H 2449.23 2.09921 -2.13479 0
M  V30 26264 H 2446.78 1.00861 -1.02776 0
M  V30 26265 H 2448.73 4.13753 -0.799167 0
M  V30 26266 H 2447.46 3.26488 0.0855552 0
M  V30 26267 H 2446.12 3.04867 -2.03597 0
M  V30 26268 H 2445.76 5.00344 -0.51618 0
M  V30 26269 H 2445.46 5.44188 -2.21659 0
M  V30 26270 H 2446.99 5.93703 -1.4265 0
M  V30 26271 H 2448.4 4.6766 -3.31613 0
M  V30 26272 H 2446.8 4.41614 -4.06322 0
M  V30 26273 H 2447.87 3.03011 -3.78566 0
M  V30 26274 N 2449.21 1.13259 1.09591 0
M  V30 26275 C 2450.46 0.893289 1.81732 0
M  V30 26276 C 2450.79 -0.580623 1.85631 0
M  V30 26277 O 2450.04 -1.44564 1.31908 0
M  V30 26278 C 2450.34 1.42416 3.27799 0
M  V30 26279 C 2450.01 2.91462 3.44036 0
M  V30 26280 C 2448.67 3.32156 3.48175 0
M  V30 26281 C 2451.02 3.87362 3.48712 0
M  V30 26282 C 2448.35 4.67439 3.54567 0
M  V30 26283 C 2450.7 5.22486 3.56639 0
M  V30 26284 C 2449.36 5.6271 3.59045 0
M  V30 26285 H 2448.63 0.326877 0.665005 0
M  V30 26286 H 2451.28 1.41425 1.29117 0
M  V30 26287 H 2449.59 0.823863 3.8304 0
M  V30 26288 H 2451.28 1.2151 3.82147 0
M  V30 26289 H 2447.87 2.58993 3.41498 0
M  V30 26290 H 2452.06 3.5701 3.44757 0
M  V30 26291 H 2447.31 4.97982 3.54717 0
M  V30 26292 H 2451.49 5.96613 3.59202 0
M  V30 26293 H 2449.11 6.67525 3.63751 0
M  V30 26294 N 2450.69 -1.27539 0.925834 0
M  V30 26295 C 2451.64 -2.28887 0.413937 0
M  V30 26296 C 2452.63 -1.6183 -0.50075 0
M  V30 26297 O 2453.84 -1.75929 -0.380659 0
M  V30 26298 H 2450.21 -0.74311 0.115287 0
M  V30 26299 H 2452.18 -2.69478 1.28156 0
M  V30 26300 C 2450.93 -3.46227 -0.319731 0
M  V30 26301 H 2450.26 -3.98038 0.374916 0
M  V30 26302 H 2451.7 -4.19106 -0.642362 0
M  V30 26303 C 2450.15 -3.0005 -1.53204 0
M  V30 26304 O 2450.68 -3.03562 -2.63084 0
M  V30 26305 N 2448.89 -2.55569 -1.38322 0
M  V30 26306 H 2448.44 -2.52911 -0.489248 0
M  V30 26307 H 2448.4 -2.25035 -2.1956 0
M  V30 26308 N 2452.17 -0.691135 -1.41637 0
M  V30 26309 C 2453.42 -0.217353 -2.00525 0
M  V30 26310 C 2453.73 1.18846 -1.55355 0
M  V30 26311 O 2454.94 1.75947 -2.06772 0
M  V30 26312 C 2453.39 -0.337702 -3.58312 0
M  V30 26313 C 2453 -1.7486 -4.12466 0
M  V30 26314 C 2454.74 0.076532 -4.24431 0
M  V30 26315 C 2452.65 -1.82084 -5.62672 0
M  V30 26316 H 2451.58 -0.0775025 -0.750006 0
M  V30 26317 H 2454.23 -0.858689 -1.62169 0
M  V30 26318 H 2452.61 0.371809 -3.94251 0
M  V30 26319 H 2453.79 -2.48651 -3.87955 0
M  V30 26320 H 2452.1 -2.11212 -3.58857 0
M  V30 26321 H 2454.7 0.0429344 -5.34683 0
M  V30 26322 H 2455.04 1.11453 -4.01103 0
M  V30 26323 H 2455.58 -0.582545 -3.93511 0
M  V30 26324 H 2452.31 -2.83921 -5.90821 0
M  V30 26325 H 2451.83 -1.12671 -5.89122 0
M  V30 26326 H 2453.51 -1.5817 -6.27368 0
M  V30 26327 N 2453.65 1.51461 -0.435577 0
M  V30 26328 C 2454.89 2.01674 0.131219 0
M  V30 26329 C 2455.21 1.32179 1.43366 0
M  V30 26330 O 2454.48 0.455802 1.90524 0
M  V30 26331 H 2453.06 0.745224 0.0514823 0
M  V30 26332 H 2455.73 1.86136 -0.57788 0
M  V30 26333 H 2454.82 3.10573 0.308392 0
M  V30 26334 N 2455.12 0.166873 1.56714 0
M  V30 26335 C 2456.05 -0.760874 2.20755 0
M  V30 26336 C 2457.04 -1.24242 1.1618 0
M  V30 26337 O 2458.22 -1.29639 1.44594 0
M  V30 26338 C 2455.35 -1.99218 2.84481 0
M  V30 26339 C 2454.3 -1.64665 3.95056 0
M  V30 26340 C 2453.63 -2.95224 4.4581 0
M  V30 26341 C 2454.93 -0.878064 5.14866 0
M  V30 26342 H 2456.62 -0.227077 2.98538 0
M  V30 26343 H 2454.17 -0.10778 1.43596 0
M  V30 26344 H 2456.12 -2.64618 3.27956 0
M  V30 26345 H 2454.85 -2.55004 2.04061 0
M  V30 26346 H 2453.51 -1.01635 3.5223 0
M  V30 26347 H 2453.15 -3.49041 3.62187 0
M  V30 26348 H 2452.85 -2.72861 5.20404 0
M  V30 26349 H 2454.38 -3.61662 4.91969 0
M  V30 26350 H 2455.79 -1.43456 5.55061 0
M  V30 26351 H 2454.19 -0.753633 5.95349 0
M  V30 26352 H 2455.26 0.126462 4.84735 0
M  V30 26353 N 2456.6 -1.57237 -0.106866 0
M  V30 26354 C 2457.53 -2.04256 -1.13145 0
M  V30 26355 C 2458.51 -0.929249 -1.42474 0
M  V30 26356 O 2459.7 -1.19976 -1.52707 0
M  V30 26357 C 2456.83 -2.4571 -2.45446 0
M  V30 26358 C 2455.78 -3.60597 -2.30552 0
M  V30 26359 C 2455.11 -3.87989 -3.67925 0
M  V30 26360 C 2456.41 -4.919 -1.75588 0
M  V30 26361 H 2458.1 -2.90103 -0.740323 0
M  V30 26362 H 2455.65 -1.39564 -0.354672 0
M  V30 26363 H 2457.6 -2.7721 -3.17384 0
M  V30 26364 H 2456.33 -1.56848 -2.86472 0
M  V30 26365 H 2454.98 -3.29325 -1.61061 0
M  V30 26366 H 2454.63 -2.96314 -4.06457 0
M  V30 26367 H 2454.33 -4.65328 -3.58808 0
M  V30 26368 H 2455.86 -4.21953 -4.41348 0
M  V30 26369 H 2457.27 -5.21858 -2.37355 0
M  V30 26370 H 2455.67 -5.73322 -1.77262 0
M  V30 26371 H 2456.74 -4.79609 -0.714367 0
M  V30 26372 N 2458.08 0.377381 -1.53015 0
M  V30 26373 C 2459.01 1.46788 -1.81592 0
M  V30 26374 C 2459.99 1.56407 -0.66865 0
M  V30 26375 O 2461.18 1.71167 -0.917367 0
M  V30 26376 C 2458.31 2.84267 -1.99524 0
M  V30 26377 C 2457.26 2.8948 -3.15254 0
M  V30 26378 C 2456.59 4.29521 -3.18459 0
M  V30 26379 C 2457.89 2.58071 -4.54089 0
M  V30 26380 H 2459.58 1.23123 -2.72912 0
M  V30 26381 H 2457.13 0.59086 -1.3132 0
M  V30 26382 H 2459.08 3.60571 -2.18098 0
M  V30 26383 H 2457.8 3.09294 -1.04903 0
M  V30 26384 H 2456.46 2.15626 -2.96481 0
M  V30 26385 H 2456.11 4.51606 -2.21498 0
M  V30 26386 H 2455.81 4.33927 -3.96208 0
M  V30 26387 H 2457.33 5.07715 -3.39202 0
M  V30 26388 H 2458.75 3.2409 -4.72904 0
M  V30 26389 H 2457.15 2.73811 -5.33992 0
M  V30 26390 H 2458.22 1.53364 -4.60008 0
M  V30 26391 N 2459.56 1.44175 0.636506 0
M  V30 26392 C 2460.81 1.46675 1.39616 0
M  V30 26393 C 2461.13 0.0973032 1.94256 0
M  V30 26394 O 2460.39 -0.900145 1.7377 0
M  V30 26395 C 2460.69 2.47009 2.58305 0
M  V30 26396 C 2460.35 3.92471 2.21985 0
M  V30 26397 C 2459.02 4.32085 2.11793 0
M  V30 26398 C 2461.37 4.84069 1.93202 0
M  V30 26399 C 2458.7 5.61228 1.70997 0
M  V30 26400 C 2461.05 6.13594 1.539 0
M  V30 26401 C 2459.71 6.52168 1.42245 0
M  V30 26402 H 2458.98 0.536721 0.510892 0
M  V30 26403 H 2461.63 1.77356 0.722297 0
M  V30 26404 H 2459.93 2.09792 3.309 0
M  V30 26405 H 2461.63 2.46192 3.16529 0
M  V30 26406 H 2458.22 3.61128 2.30834 0
M  V30 26407 H 2462.4 4.54223 1.99989 0
M  V30 26408 H 2457.66 5.89938 1.60573 0
M  V30 26409 H 2461.83 6.84032 1.30665 0
M  V30 26410 H 2459.46 7.5214 1.10406 0
M  V30 26411 N 2461.04 -0.876421 1.30983 0
M  V30 26412 C 2461.97 -1.99901 1.20672 0
M  V30 26413 C 2462.95 -1.69832 0.0953838 0
M  V30 26414 O 2464.13 -1.92187 0.278884 0
M  V30 26415 C 2461.26 -3.35258 0.906609 0
M  V30 26416 C 2460.22 -3.79613 1.97681 0
M  V30 26417 C 2459.54 -5.12357 1.52952 0
M  V30 26418 C 2460.84 -3.97416 3.38907 0
M  V30 26419 H 2462.54 -2.08786 2.1459 0
M  V30 26420 H 2460.08 -1.00315 1.0331 0
M  V30 26421 H 2462.04 -4.13323 0.821098 0
M  V30 26422 H 2460.76 -3.26529 -0.0682395 0
M  V30 26423 H 2459.42 -3.03783 2.05211 0
M  V30 26424 H 2459.07 -5.00064 0.542707 0
M  V30 26425 H 2458.77 -5.43005 2.24542 0
M  V30 26426 H 2460.29 -5.92938 1.45796 0
M  V30 26427 H 2461.7 -4.65894 3.34089 0
M  V30 26428 H 2460.1 -4.39453 4.08658 0
M  V30 26429 H 2461.17 -3.00999 3.80168 0
M  V30 26430 N 2462.51 -1.13839 -1.08989 0
M  V30 26431 C 2463.76 -0.904251 -1.81524 0
M  V30 26432 C 2464.09 0.568033 -1.85707 0
M  V30 26433 O 2463.37 1.42054 -1.32857 0
M  V30 26434 C 2463.65 -1.4984 -3.27444 0
M  V30 26435 C 2463.5 -3.04012 -3.31507 0
M  V30 26436 C 2464.82 -1.17033 -4.24254 0
M  V30 26437 H 2461.94 -0.329935 -0.659024 0
M  V30 26438 H 2464.58 -1.40739 -1.27642 0
M  V30 26439 H 2462.73 -1.07051 -3.7346 0
M  V30 26440 H 2464.41 -3.55589 -2.93861 0
M  V30 26441 H 2462.65 -3.38769 -2.70957 0
M  V30 26442 H 2463.32 -3.40687 -4.34323 0
M  V30 26443 H 2465.8 -1.54016 -3.86547 0
M  V30 26444 H 2464.67 -1.61246 -5.24682 0
M  V30 26445 H 2464.93 -0.0847051 -4.42019 0
M  V30 26446 N 2463.99 1.27046 -0.932584 0
M  V30 26447 C 2464.93 2.25017 -0.379814 0
M  V30 26448 C 2465.9 1.53838 0.52656 0
M  V30 26449 O 2467.09 1.8265 0.46596 0
M  V30 26450 C 2464.21 3.35628 0.455128 0
M  V30 26451 C 2463.26 4.24727 -0.388502 0
M  V30 26452 S 2464.09 5.04088 -1.8071 0
M  V30 26453 C 2465.25 6.18181 -0.979974 0
M  V30 26454 H 2465.48 2.71556 -1.21015 0
M  V30 26455 H 2463.02 1.35778 -0.735102 0
M  V30 26456 H 2464.97 3.99804 0.930982 0
M  V30 26457 H 2463.63 2.87718 1.26004 0
M  V30 26458 H 2462.83 5.03376 0.250802 0
M  V30 26459 H 2462.43 3.65372 -0.798713 0
M  V30 26460 H 2464.72 6.77148 -0.218234 0
M  V30 26461 H 2465.66 6.86398 -1.73963 0
M  V30 26462 H 2466.07 5.62101 -0.519829 0
M  V30 26463 N 2465.47 0.698636 1.41269 0
M  V30 26464 C 2466.72 0.230901 2.01179 0
M  V30 26465 C 2467.05 -1.17046 1.5534 0
M  V30 26466 O 2466.3 -1.80474 0.756807 0
M  V30 26467 C 2466.6 0.240254 3.56592 0
M  V30 26468 C 2466.27 1.58956 4.21952 0
M  V30 26469 C 2464.93 1.95895 4.39521 0
M  V30 26470 C 2467.28 2.47712 4.58572 0
M  V30 26471 C 2464.61 3.21169 4.90986 0
M  V30 26472 C 2466.96 3.72322 5.11429 0
M  V30 26473 C 2465.62 4.094 5.27208 0
M  V30 26474 H 2464.89 0.0844925 0.736167 0
M  V30 26475 H 2467.54 0.89833 1.69122 0
M  V30 26476 H 2465.85 -0.510729 3.88457 0
M  V30 26477 H 2467.54 -0.139225 4.00758 0
M  V30 26478 H 2464.13 1.29226 4.08655 0
M  V30 26479 H 2468.32 2.20453 4.44651 0
M  V30 26480 H 2463.57 3.49887 5.01387 0
M  V30 26481 H 2467.75 4.4128 5.38744 0
M  V30 26482 H 2465.37 5.06543 5.6685 0
M  V30 26483 N 2466.95 -1.51228 0.443603 0
M  V30 26484 C 2468.2 -2.01329 -0.122297 0
M  V30 26485 C 2468.51 -1.33203 -1.43235 0
M  V30 26486 O 2469.72 -1.74308 -2.08156 0
M  V30 26487 C 2468.17 -3.58897 -0.268488 0
M  V30 26488 C 2467.78 -4.35963 1.0315 0
M  V30 26489 C 2469.52 -4.17125 -0.787821 0
M  V30 26490 C 2467.43 -5.85251 0.850607 0
M  V30 26491 H 2466.36 -0.752375 -0.0494797 0
M  V30 26492 H 2469.01 -1.74281 0.57432 0
M  V30 26493 H 2467.39 -3.82417 -1.02825 0
M  V30 26494 H 2468.57 -4.24186 1.80008 0
M  V30 26495 H 2466.88 -3.89217 1.47984 0
M  V30 26496 H 2469.48 -5.26377 -0.939749 0
M  V30 26497 H 2469.82 -3.76707 -1.77194 0
M  V30 26498 H 2470.36 -3.97707 -0.086197 0
M  V30 26499 H 2467.1 -6.30093 1.80729 0
M  V30 26500 H 2466.62 -5.99676 0.12193 0
M  V30 26501 H 2468.29 -6.45016 0.506276 0
M  V30 26502 N 2468.43 -0.175182 -1.56623 0
M  V30 26503 C 2469.66 0.474247 -2.01083 0
M  V30 26504 C 2470.06 1.57089 -1.05449 0
M  V30 26505 O 2469.41 1.83637 -0.0480918 0
M  V30 26506 C 2469.47 1.10905 -3.41965 0
M  V30 26507 C 2469.13 0.153586 -4.56742 0
M  V30 26508 C 2470.13 -0.629538 -5.16074 0
M  V30 26509 C 2467.82 0.0482894 -5.02277 0
M  V30 26510 C 2469.81 -1.50512 -6.19375 0
M  V30 26511 C 2467.5 -0.830875 -6.05425 0
M  V30 26512 C 2468.49 -1.60616 -6.63846 0
M  V30 26513 O 2468.18 -2.47063 -7.64994 0
M  V30 26514 H 2467.91 0.12542 -0.664263 0
M  V30 26515 H 2470.47 -0.275199 -2.03548 0
M  V30 26516 H 2468.7 1.9067 -3.36425 0
M  V30 26517 H 2470.39 1.66108 -3.70355 0
M  V30 26518 H 2471.15 -0.558382 -4.81775 0
M  V30 26519 H 2467.03 0.641531 -4.56514 0
M  V30 26520 H 2470.58 -2.11072 -6.64902 0
M  V30 26521 H 2466.47 -0.903219 -6.3915 0
M  V30 26522 H 2467.24 -2.40621 -7.82332 0
M  V30 26523 N 2469.91 1.57292 0.0985263 0
M  V30 26524 C 2471.13 1.90494 0.820163 0
M  V30 26525 C 2471.56 0.769125 1.71657 0
M  V30 26526 O 2470.91 -0.279463 1.79133 0
M  V30 26527 C 2470.96 3.22545 1.61236 0
M  V30 26528 O 2470.07 3.09893 2.72103 0
M  V30 26529 H 2469.41 0.624524 0.225536 0
M  V30 26530 H 2471.94 2.04463 0.0747799 0
M  V30 26531 H 2471.95 3.55769 1.99731 0
M  V30 26532 H 2470.62 4.048 0.954464 0
M  V30 26533 H 2469.2 2.88177 2.36662 0
M  V30 26534 N 2471.38 -0.369261 1.53213 0
M  V30 26535 C 2472.63 -1.10958 1.68438 0
M  V30 26536 C 2472.95 -1.90569 0.440771 0
M  V30 26537 O 2474.15 -2.67339 0.473493 0
M  V30 26538 C 2472.61 -2.02174 2.97747 0
M  V30 26539 C 2472.22 -1.27892 4.29357 0
M  V30 26540 C 2473.96 -2.76221 3.22339 0
M  V30 26541 C 2471.87 -2.17989 5.49759 0
M  V30 26542 H 2470.8 -0.417929 0.627576 0
M  V30 26543 H 2473.45 -0.370853 1.79713 0
M  V30 26544 H 2471.83 -2.79763 2.80265 0
M  V30 26545 H 2473 -0.553926 4.57459 0
M  V30 26546 H 2471.32 -0.657239 4.1118 0
M  V30 26547 H 2473.92 -3.4385 4.09477 0
M  V30 26548 H 2474.26 -3.41387 2.38244 0
M  V30 26549 H 2474.79 -2.05717 3.40478 0
M  V30 26550 H 2471.53 -1.57406 6.3632 0
M  V30 26551 H 2471.05 -2.88349 5.25942 0
M  V30 26552 H 2472.73 -2.77631 5.84406 0
M  V30 26553 N 2472.86 -1.4451 -0.628851 0
M  V30 26554 C 2474.11 -1.47413 -1.38837 0
M  V30 26555 C 2474.44 -0.107604 -1.94202 0
M  V30 26556 O 2473.69 0.890916 -1.74245 0
M  V30 26557 C 2473.99 -2.48375 -2.56991 0
M  V30 26558 C 2473.66 -3.93643 -2.19901 0
M  V30 26559 C 2472.32 -4.33202 -2.09498 0
M  V30 26560 C 2474.67 -4.85086 -1.90632 0
M  V30 26561 C 2472 -5.62127 -1.68018 0
M  V30 26562 C 2474.35 -6.14401 -1.50644 0
M  V30 26563 C 2473.01 -6.52913 -1.38785 0
M  V30 26564 H 2472.28 -0.539423 -0.508039 0
M  V30 26565 H 2474.93 -1.77736 -0.712881 0
M  V30 26566 H 2473.24 -2.11544 -3.29782 0
M  V30 26567 H 2474.93 -2.47867 -3.15219 0
M  V30 26568 H 2471.52 -3.62347 -2.28916 0
M  V30 26569 H 2475.71 -4.55277 -1.97577 0
M  V30 26570 H 2470.96 -5.90781 -1.57442 0
M  V30 26571 H 2475.14 -6.84715 -1.27036 0
M  V30 26572 H 2472.76 -7.52715 -1.06416 0
M  V30 26573 N 2474.34 0.869463 -1.31446 0
M  V30 26574 C 2475.59 1.61933 -1.20921 0
M  V30 26575 C 2475.91 1.93607 0.232649 0
M  V30 26576 O 2475.18 1.5834 1.15349 0
M  V30 26577 H 2473.76 0.60032 -0.44455 0
M  V30 26578 H 2476.42 1.04087 -1.64778 0
M  V30 26579 H 2475.52 2.56275 -1.78128 0
M  V30 26580 N 2475.82 1.14415 1.08383 0
M  V30 26581 C 2476.75 0.774908 2.1464 0
M  V30 26582 C 2477.73 -0.243848 1.60761 0
M  V30 26583 O 2478.91 -0.13285 1.88031 0
M  V30 26584 C 2476.04 0.150551 3.38365 0
M  V30 26585 C 2475.09 1.13952 4.10995 0
M  V30 26586 S 2475.92 2.67688 4.63793 0
M  V30 26587 C 2477.07 2.06642 5.90804 0
M  V30 26588 H 2477.31 1.67491 2.4563 0
M  V30 26589 H 2474.84 0.965401 1.20496 0
M  V30 26590 H 2476.8 -0.203261 4.09996 0
M  V30 26591 H 2475.46 -0.726886 3.05574 0
M  V30 26592 H 2474.65 0.650678 4.99782 0
M  V30 26593 H 2474.25 1.43733 3.45278 0
M  V30 26594 H 2476.55 1.42202 6.62408 0
M  V30 26595 H 2477.49 2.93553 6.44385 0
M  V30 26596 H 2477.9 1.51366 5.43828 0
M  V30 26597 N 2477.3 -1.26549 0.939309 0
M  V30 26598 C 2478.26 -2.24698 0.452026 0
M  V30 26599 C 2479.26 -1.54781 -0.435842 0
M  V30 26600 O 2480.45 -1.72604 -0.235284 0
M  V30 26601 C 2477.58 -3.39111 -0.348741 0
M  V30 26602 H 2478.77 -2.6932 1.31935 0
M  V30 26603 H 2476.33 -1.38672 0.721096 0
M  V30 26604 H 2477.06 -2.99889 -1.23439 0
M  V30 26605 H 2476.85 -3.91041 0.288014 0
M  V30 26606 H 2478.34 -4.12032 -0.679654 0
M  V30 26607 N 2478.77 -0.706118 -1.40896 0
M  V30 26608 C 2479.72 -0.0362302 -2.32572 0
M  V30 26609 C 2480.72 0.75724 -1.51533 0
M  V30 26610 O 2481.92 0.661674 -1.67397 0
M  V30 26611 H 2478.3 0.00708613 -0.751967 0
M  V30 26612 H 2480.27 -0.826299 -2.86731 0
M  V30 26613 C 2479.02 0.878481 -3.36419 0
M  V30 26614 H 2478.34 0.277331 -3.98837 0
M  V30 26615 H 2479.78 1.31533 -4.03082 0
M  V30 26616 C 2478.24 1.99956 -2.71144 0
M  V30 26617 O 2478.77 3.08945 -2.56741 0
M  V30 26618 N 2476.97 1.78039 -2.29674 0
M  V30 26619 H 2476.52 0.893999 -2.41589 0
M  V30 26620 H 2476.48 2.53231 -1.86336 0
M  V30 26621 N 2480.25 1.50991 -0.451617 0
M  V30 26622 C 2481.5 2.02201 0.110039 0
M  V30 26623 C 2481.83 1.33491 1.41458 0
M  V30 26624 O 2481.08 0.443159 1.90616 0
M  V30 26625 C 2481.38 3.55565 0.361665 0
M  V30 26626 C 2481.05 4.42646 -0.858795 0
M  V30 26627 C 2479.71 4.66165 -1.19346 0
M  V30 26628 C 2482.06 4.93643 -1.6723 0
M  V30 26629 C 2479.39 5.37927 -2.34205 0
M  V30 26630 C 2481.74 5.66665 -2.812 0
M  V30 26631 C 2480.4 5.88443 -3.15104 0
M  V30 26632 H 2479.67 0.739905 0.040266 0
M  V30 26633 H 2482.32 1.81801 -0.601728 0
M  V30 26634 H 2480.63 3.74374 1.15548 0
M  V30 26635 H 2482.32 3.92736 0.809891 0
M  V30 26636 H 2478.91 4.24547 -0.588035 0
M  V30 26637 H 2483.1 4.75344 -1.42695 0
M  V30 26638 H 2478.35 5.53 -2.6077 0
M  V30 26639 H 2482.53 6.05167 -3.44596 0
M  V30 26640 H 2480.15 6.43828 -4.04215 0
M  V30 26641 N 2481.73 0.183486 1.56528 0
M  V30 26642 C 2482.69 -0.728185 2.17325 0
M  V30 26643 C 2483.69 -1.14937 1.12455 0
M  V30 26644 O 2484.88 -1.06434 1.37903 0
M  V30 26645 C 2482.01 -1.99269 2.76595 0
M  V30 26646 H 2483.21 -0.19872 2.99241 0
M  V30 26647 H 2480.76 -0.0661116 1.5616 0
M  V30 26648 H 2481.5 -2.56495 1.98446 0
M  V30 26649 H 2481.28 -1.69953 3.53353 0
M  V30 26650 H 2482.77 -2.64305 3.23315 0
M  V30 26651 N 2483.21 -1.57342 -0.0901833 0
M  V30 26652 C 2484.44 -1.90271 -0.805022 0
M  V30 26653 C 2484.85 -0.775872 -1.7256 0
M  V30 26654 O 2484.19 0.260811 -1.81839 0
M  V30 26655 C 2484.25 -3.185 -1.66728 0
M  V30 26656 C 2483.91 -4.47685 -0.918013 0
M  V30 26657 C 2484.91 -5.1932 -0.245583 0
M  V30 26658 C 2482.6 -4.94341 -0.890637 0
M  V30 26659 C 2484.59 -6.3585 0.444199 0
M  V30 26660 C 2482.28 -6.10782 -0.197071 0
M  V30 26661 C 2483.28 -6.81387 0.469164 0
M  V30 26662 O 2482.96 -7.95609 1.1516 0
M  V30 26663 H 2482.7 -0.633789 -0.235132 0
M  V30 26664 H 2485.25 -2.0528 -0.0703444 0
M  V30 26665 H 2483.48 -2.9965 -2.44431 0
M  V30 26666 H 2485.17 -3.37221 -2.25913 0
M  V30 26667 H 2485.93 -4.84312 -0.258161 0
M  V30 26668 H 2481.81 -4.39271 -1.39865 0
M  V30 26669 H 2485.36 -6.90896 0.964788 0
M  V30 26670 H 2481.25 -6.45242 -0.182357 0
M  V30 26671 H 2482.02 -8.1162 1.05899 0
M  V30 26672 N 2484.69 0.36113 -1.53407 0
M  V30 26673 C 2485.93 1.10493 -1.70056 0
M  V30 26674 C 2486.27 1.88835 -0.453311 0
M  V30 26675 O 2485.54 1.86577 0.549467 0
M  V30 26676 C 2485.82 2.06053 -2.95321 0
M  V30 26677 C 2485.68 1.3129 -4.30213 0
M  V30 26678 C 2487 3.06116 -3.16198 0
M  V30 26679 H 2484.11 0.40031 -0.618806 0
M  V30 26680 H 2486.76 0.385285 -1.86053 0
M  V30 26681 H 2484.91 2.6742 -2.81813 0
M  V30 26682 H 2486.58 0.726727 -4.5554 0
M  V30 26683 H 2484.82 0.614778 -4.29422 0
M  V30 26684 H 2485.49 2.01256 -5.14004 0
M  V30 26685 H 2487.97 2.54854 -3.2892 0
M  V30 26686 H 2486.84 3.70197 -4.05272 0
M  V30 26687 H 2487.11 3.76531 -2.31682 0
M  V30 26688 N 2486.16 1.44842 0.621179 0
M  V30 26689 C 2487.11 1.52473 1.73265 0
M  V30 26690 C 2488.08 0.37164 1.61889 0
M  V30 26691 O 2489.27 0.583242 1.81667 0
M  V30 26692 C 2486.41 1.48443 3.11542 0
M  V30 26693 C 2485.52 2.74202 3.33822 0
M  V30 26694 C 2484.65 2.61937 4.62128 0
M  V30 26695 C 2483.69 3.82812 4.7762 0
M  V30 26696 N 2482.83 3.69164 5.97212 0
M  V30 26697 H 2487.67 2.47431 1.66078 0
M  V30 26698 H 2485.21 1.2279 0.810005 0
M  V30 26699 H 2487.17 1.44097 3.91525 0
M  V30 26700 H 2485.8 0.570458 3.17719 0
M  V30 26701 H 2484.85 2.88694 2.4771 0
M  V30 26702 H 2486.16 3.63896 3.41146 0
M  V30 26703 H 2485.31 2.5548 5.50286 0
M  V30 26704 H 2484.05 1.69819 4.57179 0
M  V30 26705 H 2483.06 3.89644 3.87889 0
M  V30 26706 H 2484.28 4.75979 4.84376 0
M  V30 26707 H 2482.23 2.79805 5.93334 0
M  V30 26708 H 2482.15 4.52483 6.05636 0
M  V30 26709 H 2483.41 3.66615 6.87905 0
M  V30 26710 N 2487.64 -0.862479 1.31905 0
M  V30 26711 C 2488.89 -1.61836 1.2321 0
M  V30 26712 C 2489.24 -1.91294 -0.206028 0
M  V30 26713 O 2488.54 -1.53877 -1.1416 0
M  V30 26714 C 2488.73 -2.95033 2.01718 0
M  V30 26715 C 2488.56 -2.78582 3.53019 0
M  V30 26716 C 2487.33 -2.77375 4.22364 0
M  V30 26717 C 2489.53 -2.52901 4.47823 0
M  V30 26718 N 2487.51 -2.52052 5.5977 0
M  V30 26719 C 2488.88 -2.36912 5.72951 0
M  V30 26720 C 2490.94 -2.38306 4.37167 0
M  V30 26721 C 2489.64 -2.07811 6.88627 0
M  V30 26722 C 2491.66 -2.10594 5.52634 0
M  V30 26723 C 2491.03 -1.95399 6.76756 0
M  V30 26724 H 2487.13 -0.596233 0.505994 0
M  V30 26725 H 2489.71 -1.01449 1.66181 0
M  V30 26726 H 2487.88 -3.53412 1.61104 0
M  V30 26727 H 2489.61 -3.5995 1.84981 0
M  V30 26728 H 2486.37 -2.9003 3.74406 0
M  V30 26729 H 2486.79 -2.42341 6.32139 0
M  V30 26730 H 2491.43 -2.48778 3.41862 0
M  V30 26731 H 2489.15 -1.96077 7.83951 0
M  V30 26732 H 2492.74 -2.00091 5.4631 0
M  V30 26733 H 2491.62 -1.74261 7.64593 0
M  V30 26734 N 2489.12 -1.14988 -1.07775 0
M  V30 26735 C 2490.03 -0.856584 -2.18403 0
M  V30 26736 C 2491.05 0.165454 -1.73212 0
M  V30 26737 O 2492.22 -0.00758759 -2.01399 0
M  V30 26738 C 2489.29 -0.34532 -3.44976 0
M  V30 26739 C 2488.35 -1.43072 -4.04758 0
M  V30 26740 C 2487.58 -0.943756 -5.25289 0
M  V30 26741 O 2487.8 0.212325 -5.70005 0
M  V30 26742 O 2486.74 -1.72557 -5.76635 0
M  V30 26743 H 2490.56 -1.78129 -2.45975 0
M  V30 26744 H 2488.15 -0.928651 -1.17032 0
M  V30 26745 H 2490.03 -0.0664412 -4.21348 0
M  V30 26746 H 2488.71 0.551575 -3.18966 0
M  V30 26747 H 2487.61 -1.76314 -3.29946 0
M  V30 26748 H 2488.95 -2.30237 -4.35031 0
M  V30 26749 N 2490.6 1.26049 -0.946007 0
M  V30 26750 C 2491.56 2.24456 -0.463936 0
M  V30 26751 C 2492.56 1.5501 0.427627 0
M  V30 26752 O 2493.75 1.72726 0.226127 0
M  V30 26753 C 2490.88 3.39292 0.330753 0
M  V30 26754 H 2492.08 2.68616 -1.33361 0
M  V30 26755 H 2489.63 1.38288 -0.72844 0
M  V30 26756 H 2490.36 3.00539 1.21847 0
M  V30 26757 H 2490.15 3.90883 -0.308748 0
M  V30 26758 H 2491.64 4.12387 0.657793 0
M  V30 26759 N 2492.08 0.71358 1.4052 0
M  V30 26760 C 2493.32 0.251727 2.00526 0
M  V30 26761 C 2493.65 -1.15845 1.56859 0
M  V30 26762 O 2492.92 -1.78499 0.807159 0
M  V30 26763 H 2491.5 0.0900777 0.741549 0
M  V30 26764 H 2494.16 0.918763 1.71886 0
M  V30 26765 H 2493.25 0.283246 3.10812 0
M  V30 26766 N 2493.55 -1.50749 0.459618 0
M  V30 26767 C 2494.8 -2.01447 -0.100936 0
M  V30 26768 C 2495.12 -1.34715 -1.41814 0
M  V30 26769 O 2496.32 -1.76506 -2.06296 0
M  V30 26770 C 2494.78 -3.59162 -0.230407 0
M  V30 26771 C 2494.39 -4.34845 1.07768 0
M  V30 26772 C 2496.13 -4.17938 -0.743535 0
M  V30 26773 C 2494.04 -5.84316 0.912632 0
M  V30 26774 H 2492.97 -0.752857 -0.041497 0
M  V30 26775 H 2495.62 -1.73662 0.592772 0
M  V30 26776 H 2494 -3.83486 -0.987635 0
M  V30 26777 H 2495.17 -4.22253 1.84497 0
M  V30 26778 H 2493.49 -3.87625 1.52104 0
M  V30 26779 H 2496.09 -5.27344 -0.883866 0
M  V30 26780 H 2496.43 -3.78565 -1.73189 0
M  V30 26781 H 2496.96 -3.97776 -0.04401 0
M  V30 26782 H 2493.7 -6.28141 1.87402 0
M  V30 26783 H 2493.22 -5.99513 0.185527 0
M  V30 26784 H 2494.9 -6.44443 0.57466 0
M  V30 26785 N 2495.03 -0.191784 -1.56429 0
M  V30 26786 C 2496.31 0.495298 -1.89225 0
M  V30 26787 C 2496.69 1.79881 -1.10481 0
M  V30 26788 O 2496.04 2.2758 -0.204892 0
M  V30 26789 C 2496.25 0.717307 -3.41549 0
M  V30 26790 C 2497.6 1.03816 -4.11713 0
M  V30 26791 O 2498.62 0.805143 -3.46981 0
M  V30 26792 O 2497.48 1.47878 -5.26112 0
M  V30 26793 H 2494.57 0.257796 -0.785793 0
M  V30 26794 H 2497.12 -0.23175 -1.6811 0
M  V30 26795 H 2495.89 -0.203356 -3.90771 0
M  V30 26796 H 2495.51 1.49693 -3.68344 0
M  V30 26797 N 2496.51 1.57387 0.0818378 0
M  V30 26798 C 2497.79 1.77798 0.815312 0
M  V30 26799 C 2498.17 0.776825 1.96287 0
M  V30 26800 O 2497.52 -0.192066 2.27691 0
M  V30 26801 C 2497.73 3.23981 1.29759 0
M  V30 26802 C 2499.07 3.87533 1.73504 0
M  V30 26803 O 2500.1 3.27811 1.39351 0
M  V30 26804 O 2498.96 4.9258 2.367 0
M  V30 26805 H 2496.05 0.729319 0.389901 0
M  V30 26806 H 2498.6 1.69584 0.0626915 0
M  V30 26807 H 2497.37 3.88394 0.476012 0
M  V30 26808 H 2496.99 3.36879 2.11183 0
M  V30 26809 N 2497.99 -0.35299 1.53596 0
M  V30 26810 C 2498.92 -1.45591 1.75723 0
M  V30 26811 C 2499.9 -1.50886 0.605987 0
M  V30 26812 O 2501.08 -1.68746 0.840053 0
M  V30 26813 C 2498.21 -2.83884 1.84737 0
M  V30 26814 C 2497.26 -2.96256 3.06813 0
M  V30 26815 S 2498.09 -2.63703 4.6607 0
M  V30 26816 C 2499.25 -4.04122 4.7795 0
M  V30 26817 H 2499.48 -1.26603 2.68996 0
M  V30 26818 H 2497.01 -0.548092 1.44344 0
M  V30 26819 H 2498.97 -3.6356 1.90616 0
M  V30 26820 H 2497.63 -3.00173 0.924933 0
M  V30 26821 H 2496.82 -3.97568 3.09768 0
M  V30 26822 H 2496.43 -2.24518 2.99112 0
M  V30 26823 H 2498.72 -4.98526 4.58779 0
M  V30 26824 H 2499.66 -4.06167 5.8003 0
M  V30 26825 H 2500.07 -3.91708 4.06479 0
M  V30 26826 N 2499.47 -1.45169 -0.613489 0
M  V30 26827 C 2500.71 -1.48878 -1.37265 0
M  V30 26828 C 2501.04 -0.128195 -1.94077 0
M  V30 26829 O 2500.3 0.872385 -1.7518 0
M  V30 26830 C 2500.6 -2.51087 -2.54342 0
M  V30 26831 C 2500.26 -3.95953 -2.15713 0
M  V30 26832 C 2498.92 -4.354 -2.04892 0
M  V30 26833 C 2501.28 -4.87081 -1.85476 0
M  V30 26834 C 2498.6 -5.63877 -1.62047 0
M  V30 26835 C 2500.96 -6.15965 -1.44119 0
M  V30 26836 C 2499.62 -6.54348 -1.31852 0
M  V30 26837 H 2498.89 -0.544781 -0.502289 0
M  V30 26838 H 2501.54 -1.78483 -0.69399 0
M  V30 26839 H 2499.84 -2.1503 -3.2752 0
M  V30 26840 H 2501.54 -2.51196 -3.12572 0
M  V30 26841 H 2498.13 -3.64755 -2.2506 0
M  V30 26842 H 2502.31 -4.57347 -1.92737 0
M  V30 26843 H 2497.57 -5.92418 -1.51167 0
M  V30 26844 H 2501.74 -6.86024 -1.19766 0
M  V30 26845 H 2499.37 -7.53801 -0.98426 0
M  V30 26846 N 2500.95 0.855472 -1.32361 0
M  V30 26847 C 2501.89 1.98538 -1.21183 0
M  V30 26848 C 2502.89 1.68997 -0.116818 0
M  V30 26849 O 2504.09 1.77814 -0.279688 0
M  V30 26850 H 2500.47 0.651471 -0.375619 0
M  V30 26851 H 2502.44 2.05094 -2.16747 0
M  V30 26852 C 2501.19 3.34444 -0.950908 0
M  V30 26853 H 2500.51 3.57705 -1.7857 0
M  V30 26854 H 2501.95 4.14055 -0.912936 0
M  V30 26855 C 2500.41 3.35115 0.346346 0
M  V30 26856 O 2500.94 3.78032 1.35848 0
M  V30 26857 N 2499.15 2.8826 0.368029 0
M  V30 26858 H 2498.69 2.53529 -0.456147 0
M  V30 26859 H 2498.65 2.89091 1.23586 0
M  V30 26860 N 2502.42 1.15558 1.07164 0
M  V30 26861 C 2503.67 0.931636 1.79797 0
M  V30 26862 C 2504 -0.541117 1.86821 0
M  V30 26863 O 2503.25 -1.41733 1.34945 0
M  V30 26864 C 2503.55 1.49337 3.24705 0
M  V30 26865 C 2503.22 2.98694 3.37776 0
M  V30 26866 C 2501.88 3.39467 3.41051 0
M  V30 26867 C 2504.23 3.94671 3.40417 0
M  V30 26868 C 2501.56 4.74855 3.44572 0
M  V30 26869 C 2503.91 5.29933 3.45476 0
M  V30 26870 C 2502.58 5.70199 3.47029 0
M  V30 26871 H 2501.85 0.34091 0.657922 0
M  V30 26872 H 2504.49 1.44132 1.26089 0
M  V30 26873 H 2502.8 0.904926 3.81206 0
M  V30 26874 H 2504.5 1.29589 3.79484 0
M  V30 26875 H 2501.09 2.66178 3.35927 0
M  V30 26876 H 2505.27 3.64243 3.37106 0
M  V30 26877 H 2500.53 5.05394 3.44074 0
M  V30 26878 H 2504.7 6.04098 3.46466 0
M  V30 26879 H 2502.33 6.7509 3.4951 0
M  V30 26880 N 2503.9 -1.25546 0.952678 0
M  V30 26881 C 2504.83 -2.25156 0.428648 0
M  V30 26882 C 2505.85 -1.5633 -0.4544 0
M  V30 26883 O 2507.04 -1.76552 -0.262992 0
M  V30 26884 C 2504.14 -3.36508 -0.401912 0
M  V30 26885 C 2503.31 -4.34893 0.467678 0
M  V30 26886 C 2502.37 -5.25319 -0.304358 0
M  V30 26887 O 2501.39 -5.68427 0.296573 0
M  V30 26888 N 2502.6 -5.58073 -1.59796 0
M  V30 26889 H 2505.36 -2.70754 1.28501 0
M  V30 26890 H 2502.92 -1.39432 0.822823 0
M  V30 26891 H 2504.91 -3.93962 -0.926065 0
M  V30 26892 H 2503.48 -2.90315 -1.15913 0
M  V30 26893 H 2502.7 -3.76345 1.17295 0
M  V30 26894 H 2503.99 -4.97609 1.06128 0
M  V30 26895 H 2503.39 -5.24952 -2.10813 0
M  V30 26896 H 2501.95 -6.1812 -2.06811 0
M  V30 26897 N 2505.38 -0.721022 -1.40139 0
M  V30 26898 C 2506.61 -0.272692 -2.05095 0
M  V30 26899 C 2507.02 1.08747 -1.54336 0
M  V30 26900 O 2506.38 1.68448 -0.702241 0
M  V30 26901 C 2506.43 -0.249898 -3.60635 0
M  V30 26902 O 2506.15 -1.55636 -4.09523 0
M  V30 26903 C 2507.65 0.216318 -4.42772 0
M  V30 26904 H 2504.87 -0.12157 -0.659895 0
M  V30 26905 H 2507.42 -0.980754 -1.79448 0
M  V30 26906 H 2505.57 0.409169 -3.85233 0
M  V30 26907 H 2505.99 -1.46049 -5.03756 0
M  V30 26908 H 2507.46 0.181115 -5.51703 0
M  V30 26909 H 2507.94 1.25934 -4.20758 0
M  V30 26910 H 2508.54 -0.412671 -4.23293 0
M  V30 26911 N 2506.86 1.50503 -0.467606 0
M  V30 26912 C 2508.1 2.02306 0.0885864 0
M  V30 26913 C 2508.43 1.34984 1.40034 0
M  V30 26914 O 2507.69 0.463351 1.90136 0
M  V30 26915 C 2507.99 3.55929 0.323932 0
M  V30 26916 C 2507.65 4.4171 -0.905695 0
M  V30 26917 C 2506.31 4.64873 -1.24284 0
M  V30 26918 C 2508.67 4.91842 -1.72456 0
M  V30 26919 C 2505.99 5.35412 -2.39897 0
M  V30 26920 C 2508.35 5.63651 -2.87195 0
M  V30 26921 C 2507.01 5.85068 -3.21328 0
M  V30 26922 H 2506.28 0.740291 0.032416 0
M  V30 26923 H 2508.93 1.81152 -0.620977 0
M  V30 26924 H 2507.23 3.75579 1.11571 0
M  V30 26925 H 2508.93 3.93573 0.768191 0
M  V30 26926 H 2505.52 4.23899 -0.633031 0
M  V30 26927 H 2509.7 4.73804 -1.47728 0
M  V30 26928 H 2504.96 5.50203 -2.6662 0
M  V30 26929 H 2509.13 6.01478 -3.50995 0
M  V30 26930 H 2506.76 6.39504 -4.11021 0
M  V30 26931 N 2508.34 0.200077 1.56325 0
M  V30 26932 C 2509.3 -0.705094 2.18085 0
M  V30 26933 C 2510.3 -1.13738 1.13668 0
M  V30 26934 O 2511.49 -1.04966 1.39025 0
M  V30 26935 C 2508.62 -1.96324 2.78693 0
M  V30 26936 H 2509.81 -0.16697 2.99435 0
M  V30 26937 H 2507.37 -0.049545 1.56221 0
M  V30 26938 H 2508.1 -2.54376 2.01155 0
M  V30 26939 H 2507.89 -1.66196 3.55136 0
M  V30 26940 H 2509.38 -2.60861 3.261 0
M  V30 26941 N 2509.81 -1.57429 -0.0734901 0
M  V30 26942 C 2510.76 -2.04609 -1.10625 0
M  V30 26943 C 2511.76 -0.951113 -1.40179 0
M  V30 26944 O 2512.96 -1.13623 -1.39606 0
M  V30 26945 H 2509.34 -0.652358 -0.374076 0
M  V30 26946 H 2511.31 -2.90498 -0.682167 0
M  V30 26947 C 2510.06 -2.50428 -2.41208 0
M  V30 26948 H 2509.38 -3.34276 -2.19317 0
M  V30 26949 H 2510.82 -2.87195 -3.11922 0
M  V30 26950 C 2509.28 -1.3865 -3.07047 0
M  V30 26951 O 2509.81 -0.727652 -3.95055 0
M  V30 26952 N 2508.01 -1.13205 -2.67643 0
M  V30 26953 H 2507.56 -1.66963 -1.96166 0
M  V30 26954 H 2507.52 -0.386202 -3.12019 0
M  V30 26955 N 2511.29 0.344839 -1.53781 0
M  V30 26956 C 2512.52 1.10974 -1.75213 0
M  V30 26957 C 2512.94 1.81622 -0.489392 0
M  V30 26958 O 2512.3 1.72503 0.557895 0
M  V30 26959 C 2512.35 2.09988 -2.93151 0
M  V30 26960 O 2511.45 3.17482 -2.63209 0
M  V30 26961 H 2510.79 0.321011 -0.581247 0
M  V30 26962 H 2513.32 0.395626 -2.00739 0
M  V30 26963 H 2513.33 2.53232 -3.19903 0
M  V30 26964 H 2512.01 1.57963 -3.84734 0
M  V30 26965 H 2510.58 2.79065 -2.4734 0
M  V30 26966 N 2512.77 1.45492 0.605781 0
M  V30 26967 C 2513.7 1.48794 1.73019 0
M  V30 26968 C 2514.68 0.34414 1.58916 0
M  V30 26969 O 2515.86 0.544908 1.80452 0
M  V30 26970 C 2512.99 1.34469 3.10863 0
M  V30 26971 C 2512.04 2.52737 3.4355 0
M  V30 26972 S 2512.87 4.15197 3.38189 0
M  V30 26973 C 2514.03 4.03341 4.78609 0
M  V30 26974 H 2514.26 2.43931 1.69956 0
M  V30 26975 H 2511.79 1.33097 0.782587 0
M  V30 26976 H 2513.75 1.26891 3.90396 0
M  V30 26977 H 2512.41 0.407995 3.11439 0
M  V30 26978 H 2511.6 2.38644 4.4392 0
M  V30 26979 H 2511.21 2.57185 2.71536 0
M  V30 26980 H 2513.5 3.68597 5.68456 0
M  V30 26981 H 2514.44 5.03629 4.97758 0
M  V30 26982 H 2514.85 3.34967 4.54375 0
M  V30 26983 N 2514.25 -0.848441 1.32813 0
M  V30 26984 C 2515.18 -1.97297 1.24885 0
M  V30 26985 C 2516.16 -1.69592 0.131386 0
M  V30 26986 O 2517.34 -1.91552 0.319586 0
M  V30 26987 C 2514.47 -3.33259 0.977518 0
M  V30 26988 C 2513.43 -3.75335 2.05689 0
M  V30 26989 C 2512.75 -5.08997 1.63786 0
M  V30 26990 C 2514.05 -3.90137 3.47261 0
M  V30 26991 H 2515.75 -2.04187 2.1897 0
M  V30 26992 H 2513.29 -0.98101 1.05414 0
M  V30 26993 H 2515.25 -4.11488 0.908585 0
M  V30 26994 H 2513.97 -3.266 0.00103742 0
M  V30 26995 H 2512.63 -2.99362 2.11608 0
M  V30 26996 H 2512.28 -4.988 0.648656 0
M  V30 26997 H 2511.98 -5.3812 2.36009 0
M  V30 26998 H 2513.5 -5.89712 1.58341 0
M  V30 26999 H 2514.92 -4.58703 3.43896 0
M  V30 27000 H 2513.31 -4.30685 4.17888 0
M  V30 27001 H 2514.38 -2.92867 3.86467 0
M  V30 27002 N 2515.73 -1.16125 -1.06549 0
M  V30 27003 C 2516.97 -0.951798 -1.80887 0
M  V30 27004 C 2517.33 0.511432 -1.85063 0
M  V30 27005 O 2518.53 0.839495 -2.55354 0
M  V30 27006 C 2516.8 -1.55899 -3.21606 0
M  V30 27007 S 2518.36 -1.49381 -4.1259 0
M  V30 27008 H 2515.18 -0.342352 -0.62315 0
M  V30 27009 H 2517.78 -1.47823 -1.2794 0
M  V30 27010 H 2516.49 -2.6167 -3.1616 0
M  V30 27011 H 2516.02 -1.03177 -3.79629 0
M  V30 27012 H 2518.03 -0.492282 -4.93752 0
M  V30 27013 N 2517.2 1.25039 -0.959323 0
M  V30 27014 C 2518.13 2.28053 -0.501429 0
M  V30 27015 C 2519.12 1.63912 0.454644 0
M  V30 27016 O 2520.3 1.90972 0.352584 0
M  V30 27017 C 2517.43 3.4662 0.217163 0
M  V30 27018 C 2516.38 4.22972 -0.654108 0
M  V30 27019 C 2515.71 5.34343 0.195495 0
M  V30 27020 C 2517.01 4.85152 -1.93455 0
M  V30 27021 H 2518.7 2.66605 -1.36242 0
M  V30 27022 H 2516.25 1.28161 -0.656556 0
M  V30 27023 H 2518.2 4.17813 0.548659 0
M  V30 27024 H 2516.93 3.0707 1.11244 0
M  V30 27025 H 2515.59 3.53569 -0.968755 0
M  V30 27026 H 2515.23 4.91033 1.09067 0
M  V30 27027 H 2514.93 5.86343 -0.384194 0
M  V30 27028 H 2516.46 6.08366 0.521851 0
M  V30 27029 H 2517.87 5.48463 -1.66917 0
M  V30 27030 H 2516.27 5.47348 -2.46028 0
M  V30 27031 H 2517.34 4.07075 -2.63474 0
M  V30 27032 N 2518.68 0.728444 1.39755 0
M  V30 27033 C 2519.93 0.273522 2.00644 0
M  V30 27034 C 2520.26 -1.13725 1.57788 0
M  V30 27035 O 2519.51 -1.78828 0.794918 0
M  V30 27036 C 2519.81 0.315839 3.56002 0
M  V30 27037 C 2519.48 1.6787 4.18486 0
M  V30 27038 C 2518.14 2.05174 4.35267 0
M  V30 27039 C 2520.49 2.57383 4.53214 0
M  V30 27040 C 2517.82 3.31511 4.84063 0
M  V30 27041 C 2520.17 3.83086 5.03416 0
M  V30 27042 C 2518.84 4.2049 5.18405 0
M  V30 27043 H 2518.11 0.100089 0.734209 0
M  V30 27044 H 2520.75 0.934001 1.67179 0
M  V30 27045 H 2519.06 -0.428216 3.89453 0
M  V30 27046 H 2520.75 -0.054187 4.00963 0
M  V30 27047 H 2517.34 1.37865 4.05822 0
M  V30 27048 H 2521.53 2.29835 4.39874 0
M  V30 27049 H 2516.78 3.60443 4.93853 0
M  V30 27050 H 2520.96 4.52608 5.29262 0
M  V30 27051 H 2518.59 5.18452 5.55978 0
M  V30 27052 N 2520.16 -1.50253 0.475581 0
M  V30 27053 C 2521.09 -2.26471 -0.35261 0
M  V30 27054 C 2522.11 -1.31981 -0.953142 0
M  V30 27055 O 2523.29 -1.57458 -0.840787 0
M  V30 27056 C 2520.39 -3.03453 -1.50896 0
M  V30 27057 C 2519.57 -4.25331 -1.0204 0
M  V30 27058 C 2518.63 -4.84569 -2.05133 0
M  V30 27059 O 2517.65 -5.45358 -1.63013 0
M  V30 27060 N 2518.85 -4.71964 -3.37979 0
M  V30 27061 H 2521.62 -2.98186 0.30082 0
M  V30 27062 H 2519.18 -1.5897 0.306626 0
M  V30 27063 H 2521.17 -3.3996 -2.19566 0
M  V30 27064 H 2519.74 -2.34507 -2.067 0
M  V30 27065 H 2518.96 -3.93877 -0.159438 0
M  V30 27066 H 2520.25 -5.04343 -0.671972 0
M  V30 27067 H 2519.65 -4.2363 -3.74906 0
M  V30 27068 H 2518.21 -5.12728 -4.02434 0
M  V30 27069 N 2521.64 -0.208365 -1.56217 0
M  V30 27070 C 2522.89 0.42717 -1.97125 0
M  V30 27071 C 2523.2 1.61833 -1.09861 0
M  V30 27072 O 2524.41 2.32252 -1.4061 0
M  V30 27073 C 2522.86 0.81138 -3.50635 0
M  V30 27074 C 2522.47 -0.356228 -4.46581 0
M  V30 27075 C 2524.21 1.41325 -4.00284 0
M  V30 27076 C 2522.12 0.0496813 -5.91379 0
M  V30 27077 H 2521.05 0.163368 -0.736089 0
M  V30 27078 H 2523.7 -0.302488 -1.8099 0
M  V30 27079 H 2522.08 1.59808 -3.62322 0
M  V30 27080 H 2523.26 -1.13378 -4.46634 0
M  V30 27081 H 2521.57 -0.870467 -4.072 0
M  V30 27082 H 2524.17 1.72963 -5.05953 0
M  V30 27083 H 2524.51 2.32443 -3.45364 0
M  V30 27084 H 2525.05 0.690255 -3.91766 0
M  V30 27085 H 2521.79 -0.827643 -6.50254 0
M  V30 27086 H 2521.31 0.791821 -5.9455 0
M  V30 27087 H 2522.98 0.480929 -6.4521 0
M  V30 27088 N 2523.12 1.57465 0.0651402 0
M  V30 27089 C 2524.34 1.91805 0.775775 0
M  V30 27090 C 2524.76 0.804946 1.70781 0
M  V30 27091 O 2524.12 -0.221279 1.81154 0
M  V30 27092 C 2524.17 3.25928 1.56375 0
M  V30 27093 O 2523.89 4.32959 0.669172 0
M  V30 27094 C 2525.39 3.74324 2.37479 0
M  V30 27095 H 2522.61 0.633844 0.220189 0
M  V30 27096 H 2525.15 2.04473 0.0334228 0
M  V30 27097 H 2523.31 3.14768 2.25832 0
M  V30 27098 H 2523.72 5.10164 1.21792 0
M  V30 27099 H 2525.2 4.70783 2.88215 0
M  V30 27100 H 2525.67 3.03671 3.17302 0
M  V30 27101 H 2526.28 3.8845 1.73166 0
M  V30 27102 N 2524.59 -0.336679 1.53962 0
M  V30 27103 C 2525.82 -1.09602 1.75485 0
M  V30 27104 C 2526.24 -1.82135 0.497232 0
M  V30 27105 O 2525.59 -1.7459 -0.531459 0
M  V30 27106 C 2525.65 -2.10423 2.93946 0
M  V30 27107 O 2525.37 -1.40839 4.14845 0
M  V30 27108 C 2526.87 -2.98679 3.27576 0
M  V30 27109 H 2524.09 -0.326564 0.586171 0
M  V30 27110 H 2526.63 -0.386795 2.00809 0
M  V30 27111 H 2524.79 -2.769 2.70934 0
M  V30 27112 H 2525.2 -2.08247 4.81387 0
M  V30 27113 H 2526.67 -3.65343 4.13798 0
M  V30 27114 H 2527.15 -3.65069 2.44174 0
M  V30 27115 H 2527.76 -2.37781 3.52619 0
M  V30 27116 N 2526.07 -1.45812 -0.598057 0
M  V30 27117 C 2527.3 -1.54101 -1.38808 0
M  V30 27118 C 2527.72 -0.177611 -1.8726 0
M  V30 27119 O 2527.08 0.839513 -1.60692 0
M  V30 27120 C 2527.13 -2.53747 -2.56212 0
M  V30 27121 O 2526.23 -2.06188 -3.57156 0
M  V30 27122 H 2525.57 -0.519122 -0.414015 0
M  V30 27123 H 2528.1 -1.91251 -0.726938 0
M  V30 27124 H 2528.11 -2.72862 -3.03332 0
M  V30 27125 H 2526.79 -3.52763 -2.20297 0
M  V30 27126 H 2525.37 -1.96993 -3.1662 0
M  V30 27127 N 2527.55 0.841385 -1.33261 0
M  V30 27128 C 2528.51 1.93257 -1.23224 0
M  V30 27129 C 2529.51 1.60081 -0.151923 0
M  V30 27130 O 2530.7 1.69468 -0.403276 0
M  V30 27131 C 2527.84 3.28855 -0.89818 0
M  V30 27132 H 2529.03 2.03583 -2.20214 0
M  V30 27133 H 2526.58 1.03317 -1.17283 0
M  V30 27134 H 2527.32 3.24226 0.0693271 0
M  V30 27135 H 2527.1 3.54314 -1.6794 0
M  V30 27136 H 2528.59 4.08803 -0.852635 0
M  V30 27137 N 2529.03 1.16688 1.05932 0
M  V30 27138 C 2530.28 0.948775 1.78445 0
M  V30 27139 C 2530.6 -0.52449 1.87814 0
M  V30 27140 O 2529.87 -1.38096 1.38948 0
M  V30 27141 H 2528.45 0.348044 0.660965 0
M  V30 27142 H 2531.11 1.47025 1.27944 0
M  V30 27143 H 2530.21 1.37066 2.80392 0
M  V30 27144 N 2530.51 -1.24529 0.96594 0
M  V30 27145 C 2531.75 -1.93155 0.637383 0
M  V30 27146 C 2532.11 -1.74134 -0.81823 0
M  V30 27147 O 2531.4 -1.08269 -1.58077 0
M  V30 27148 C 2531.6 -3.44667 0.945489 0
M  V30 27149 C 2531.42 -3.78425 2.4295 0
M  V30 27150 C 2530.19 -3.99884 3.08902 0
M  V30 27151 C 2532.39 -3.85044 3.40948 0
M  V30 27152 N 2530.37 -4.20727 4.47059 0
M  V30 27153 C 2531.75 -4.10709 4.64455 0
M  V30 27154 C 2533.8 -3.67773 3.3563 0
M  V30 27155 C 2532.5 -4.20897 5.83299 0
M  V30 27156 C 2534.53 -3.79206 4.53824 0
M  V30 27157 C 2533.89 -4.05294 5.76121 0
M  V30 27158 H 2529.99 -0.728589 0.284047 0
M  V30 27159 H 2532.57 -1.50071 1.24044 0
M  V30 27160 H 2530.75 -3.86622 0.371261 0
M  V30 27161 H 2532.48 -4.00585 0.575683 0
M  V30 27162 H 2529.23 -3.96218 2.59439 0
M  V30 27163 H 2529.66 -4.35131 5.18642 0
M  V30 27164 H 2534.3 -3.46612 2.42116 0
M  V30 27165 H 2532.02 -4.40871 6.77243 0
M  V30 27166 H 2535.6 -3.67216 4.51269 0
M  V30 27167 H 2534.48 -4.13937 6.66052 0
M  V30 27168 N 2531.99 -0.735845 -1.39367 0
M  V30 27169 C 2533.26 -0.210429 -1.94465 0
M  V30 27170 C 2533.64 1.28796 -1.67257 0
M  V30 27171 O 2532.99 2.05394 -1.00127 0
M  V30 27172 C 2533.2 -0.544958 -3.44719 0
M  V30 27173 C 2534.55 -0.494763 -4.21708 0
M  V30 27174 O 2535.57 -0.482199 -3.52921 0
M  V30 27175 O 2534.43 -0.490043 -5.44298 0
M  V30 27176 H 2531.53 -0.0386811 -0.826095 0
M  V30 27177 H 2534.07 -0.814761 -1.48861 0
M  V30 27178 H 2532.84 -1.58051 -3.5796 0
M  V30 27179 H 2532.47 0.0883001 -3.97502 0
M  V30 27180 N 2533.46 1.49999 -0.483543 0
M  V30 27181 C 2534.71 2.01989 0.0669915 0
M  V30 27182 C 2535.03 1.36673 1.39088 0
M  V30 27183 O 2534.3 0.516185 1.88977 0
M  V30 27184 H 2532.88 0.746484 0.0277475 0
M  V30 27185 H 2535.54 1.84203 -0.636805 0
M  V30 27186 H 2534.64 3.11397 0.209429 0
M  V30 27187 N 2534.94 0.216646 1.56104 0
M  V30 27188 C 2535.87 -0.690257 2.23064 0
M  V30 27189 C 2536.85 -1.20483 1.20074 0
M  V30 27190 O 2538.04 -1.24973 1.48645 0
M  V30 27191 C 2535.17 -1.90066 2.90675 0
M  V30 27192 C 2534.12 -1.52013 4.00095 0
M  V30 27193 C 2533.45 -2.80891 4.54977 0
M  V30 27194 C 2534.75 -0.713819 5.17399 0
M  V30 27195 H 2536.44 -0.131985 2.99109 0
M  V30 27196 H 2533.99 -0.0620411 1.43866 0
M  V30 27197 H 2535.94 -2.54051 3.36209 0
M  V30 27198 H 2534.66 -2.48382 2.1207 0
M  V30 27199 H 2533.32 -0.903777 3.55285 0
M  V30 27200 H 2532.97 -3.37342 3.73108 0
M  V30 27201 H 2532.67 -2.56166 5.28822 0
M  V30 27202 H 2534.2 -3.45827 5.03226 0
M  V30 27203 H 2535.61 -1.25725 5.59344 0
M  V30 27204 H 2534.01 -0.563846 5.97445 0
M  V30 27205 H 2535.08 0.280613 4.84087 0
M  V30 27206 N 2536.42 -1.57498 -0.0567885 0
M  V30 27207 C 2537.35 -2.07752 -1.06589 0
M  V30 27208 C 2538.33 -0.974106 -1.39446 0
M  V30 27209 O 2539.52 -1.24773 -1.48813 0
M  V30 27210 C 2536.65 -2.53394 -2.37505 0
M  V30 27211 C 2535.6 -3.67749 -2.18963 0
M  V30 27212 C 2534.93 -3.99498 -3.55395 0
M  V30 27213 C 2536.23 -4.97238 -1.5985 0
M  V30 27214 H 2537.92 -2.92311 -0.647655 0
M  V30 27215 H 2535.47 -1.40622 -0.310091 0
M  V30 27216 H 2537.42 -2.87167 -3.08404 0
M  V30 27217 H 2536.14 -1.65883 -2.81337 0
M  V30 27218 H 2534.8 -3.34282 -1.50502 0
M  V30 27219 H 2534.45 -3.09095 -3.96824 0
M  V30 27220 H 2534.15 -4.76508 -3.43823 0
M  V30 27221 H 2535.67 -4.3578 -4.27701 0
M  V30 27222 H 2537.09 -5.29145 -2.20632 0
M  V30 27223 H 2535.48 -5.78671 -1.58932 0
M  V30 27224 H 2536.55 -4.81639 -0.561421 0
M  V30 27225 N 2537.9 0.328509 -1.54138 0
M  V30 27226 C 2539.12 1.09109 -1.7638 0
M  V30 27227 C 2539.55 1.81093 -0.508628 0
M  V30 27228 O 2538.91 1.73085 0.539567 0
M  V30 27229 C 2538.95 2.06867 -2.95361 0
M  V30 27230 O 2538.06 3.14673 -2.66561 0
M  V30 27231 H 2537.4 0.314828 -0.584619 0
M  V30 27232 H 2539.93 0.374313 -2.01147 0
M  V30 27233 H 2539.94 2.49824 -3.22571 0
M  V30 27234 H 2538.61 1.53874 -3.86388 0
M  V30 27235 H 2537.19 2.76426 -2.50286 0
M  V30 27236 N 2539.38 1.46127 0.590316 0
M  V30 27237 C 2540.79 1.45299 1.1724 0
M  V30 27238 C 2541.14 0.189758 1.9528 0
M  V30 27239 O 2540.26 -0.707638 2.04503 0
M  V30 27240 C 2540.86 2.63244 2.1328 0
M  V30 27241 C 2539.42 2.65481 2.66828 0
M  V30 27242 C 2538.56 2.37853 1.42553 0
M  V30 27243 H 2541.51 1.54116 0.378665 0
M  V30 27244 H 2541.54 2.38328 2.96614 0
M  V30 27245 H 2541.05 3.55168 1.56453 0
M  V30 27246 H 2539.15 1.77609 3.27545 0
M  V30 27247 H 2539.26 3.65221 3.10082 0
M  V30 27248 H 2537.63 1.87756 1.72104 0
M  V30 27249 H 2538.41 3.31944 0.875683 0
M  V30 27250 N 2540.85 -0.834306 1.33705 0
M  V30 27251 C 2542.1 -1.58481 1.24766 0
M  V30 27252 C 2542.42 -1.94735 -0.183741 0
M  V30 27253 O 2543.62 -2.68608 -0.395187 0
M  V30 27254 C 2542.08 -2.85872 2.18643 0
M  V30 27255 C 2541.69 -2.56965 3.66978 0
M  V30 27256 C 2543.43 -3.63895 2.18587 0
M  V30 27257 C 2541.34 -3.8048 4.52757 0
M  V30 27258 H 2540.27 -0.594764 0.463435 0
M  V30 27259 H 2542.92 -0.919523 1.58799 0
M  V30 27260 H 2541.3 -3.53967 1.77549 0
M  V30 27261 H 2542.47 -1.97053 4.16541 0
M  V30 27262 H 2540.79 -1.92238 3.69369 0
M  V30 27263 H 2543.39 -4.55586 2.79902 0
M  V30 27264 H 2543.73 -3.99163 1.18214 0
M  V30 27265 H 2544.26 -3.02731 2.58068 0
M  V30 27266 H 2541 -3.5034 5.54023 0
M  V30 27267 H 2540.52 -4.39715 4.07935 0
M  V30 27268 H 2542.2 -4.48012 4.66792 0
M  V30 27269 N 2542.33 -1.17248 -1.05312 0
M  V30 27270 C 2543.26 -0.9114 -2.14978 0
M  V30 27271 C 2544.24 0.146139 -1.69471 0
M  V30 27272 O 2545.43 -0.00384614 -1.942 0
M  V30 27273 C 2542.56 -0.422589 -3.44719 0
M  V30 27274 C 2541.51 -1.41917 -4.03786 0
M  V30 27275 C 2540.84 -0.788367 -5.28856 0
M  V30 27276 C 2542.14 -2.79198 -4.41413 0
M  V30 27277 H 2543.83 -1.82852 -2.37077 0
M  V30 27278 H 2541.38 -0.880589 -1.13937 0
M  V30 27279 H 2543.33 -0.227363 -4.20786 0
M  V30 27280 H 2542.05 0.530067 -3.2227 0
M  V30 27281 H 2540.71 -1.60112 -3.29787 0
M  V30 27282 H 2540.36 0.171085 -5.02709 0
M  V30 27283 H 2540.06 -1.45363 -5.69336 0
M  V30 27284 H 2541.59 -0.603389 -6.07611 0
M  V30 27285 H 2543 -2.64728 -5.08519 0
M  V30 27286 H 2541.4 -3.42291 -4.92907 0
M  V30 27287 H 2542.47 -3.337 -3.51813 0
M  V30 27288 N 2543.81 1.24015 -0.972531 0
M  V30 27289 C 2544.76 2.27193 -0.498602 0
M  V30 27290 C 2545.75 1.63577 0.440343 0
M  V30 27291 O 2546.96 1.77221 0.315102 0
M  V30 27292 H 2543.33 0.73832 -0.142787 0
M  V30 27293 H 2545.3 2.64536 -1.38069 0
M  V30 27294 C 2544.05 3.47175 0.191011 0
M  V30 27295 H 2543.38 3.96372 -0.522387 0
M  V30 27296 H 2544.82 4.21201 0.486371 0
M  V30 27297 C 2543.28 3.0553 1.41962 0
M  V30 27298 O 2543.81 3.13117 2.51636 0
M  V30 27299 N 2542.01 2.60526 1.28741 0
M  V30 27300 H 2541.56 2.54553 0.395044 0
M  V30 27301 H 2541.52 2.33028 2.11057 0
M  V30 27302 N 2545.29 0.743226 1.38974 0
M  V30 27303 C 2546.52 0.305286 2.04635 0
M  V30 27304 C 2546.93 -1.06278 1.56046 0
M  V30 27305 O 2546.29 -1.6731 0.728951 0
M  V30 27306 C 2546.34 0.307241 3.60192 0
M  V30 27307 O 2546.06 1.62131 4.06995 0
M  V30 27308 C 2547.56 -0.14585 4.4306 0
M  V30 27309 H 2544.78 0.132053 0.657878 0
M  V30 27310 H 2547.33 1.00918 1.77865 0
M  V30 27311 H 2545.48 -0.34783 3.85835 0
M  V30 27312 H 2545.89 1.54045 5.01369 0
M  V30 27313 H 2547.37 -0.0933213 5.51921 0
M  V30 27314 H 2547.85 -1.19224 4.22708 0
M  V30 27315 H 2548.45 0.479961 4.22583 0
M  V30 27316 N 2546.77 -1.4974 0.491491 0
M  V30 27317 C 2548.01 -2.02022 -0.0562786 0
M  V30 27318 C 2548.34 -1.37409 -1.38361 0
M  V30 27319 O 2547.61 -0.5262 -1.88701 0
M  V30 27320 H 2546.19 -0.746621 -0.0237883 0
M  V30 27321 H 2548.85 -1.83863 0.646565 0
M  V30 27322 H 2547.94 -3.11503 -0.192912 0
M  V30 27323 N 2548.24 -0.224922 -1.55987 0
M  V30 27324 C 2549.66 0.282313 -1.84553 0
M  V30 27325 C 2550.01 1.59225 -1.14637 0
M  V30 27326 O 2549.13 2.1234 -0.417192 0
M  V30 27327 C 2549.73 0.519003 -3.34801 0
M  V30 27328 C 2548.29 0.97054 -3.63672 0
M  V30 27329 C 2547.43 0.0354773 -2.77277 0
M  V30 27330 H 2550.38 -0.448033 -1.52244 0
M  V30 27331 H 2550.4 1.36457 -3.5519 0
M  V30 27332 H 2549.92 -0.434558 -3.85659 0
M  V30 27333 H 2548.02 1.93734 -3.18273 0
M  V30 27334 H 2548.13 0.842615 -4.71632 0
M  V30 27335 H 2546.49 0.542884 -2.48847 0
M  V30 27336 H 2547.28 -0.913061 -3.30935 0
M  V30 27337 N 2549.72 1.57526 0.0484352 0
M  V30 27338 C 2551.13 1.76882 0.597455 0
M  V30 27339 C 2551.48 0.853506 1.76663 0
M  V30 27340 O 2550.61 0.0434036 2.16356 0
M  V30 27341 C 2551.2 3.20767 1.0906 0
M  V30 27342 C 2549.76 3.41387 1.58529 0
M  V30 27343 C 2548.91 2.72479 0.51482 0
M  V30 27344 H 2551.86 1.57701 -0.177786 0
M  V30 27345 H 2551.88 3.26214 1.95869 0
M  V30 27346 H 2551.39 3.87361 0.239452 0
M  V30 27347 H 2549.5 2.79941 2.45893 0
M  V30 27348 H 2549.61 4.49932 1.64614 0
M  V30 27349 H 2547.97 2.35696 0.965366 0
M  V30 27350 H 2548.76 3.41743 -0.326541 0
M  V30 27351 N 2551.2 -0.32033 1.5431 0
M  V30 27352 C 2552.43 -1.07579 1.76381 0
M  V30 27353 C 2552.84 -1.82085 0.513976 0
M  V30 27354 O 2552.18 -1.76035 -0.525092 0
M  V30 27355 C 2552.24 -2.11705 2.90553 0
M  V30 27356 C 2551.91 -1.56568 4.29343 0
M  V30 27357 C 2552.9 -1.00577 5.10079 0
M  V30 27358 C 2550.59 -1.60713 4.75896 0
M  V30 27359 C 2552.58 -0.494644 6.35478 0
M  V30 27360 C 2550.27 -1.09213 6.01262 0
M  V30 27361 C 2551.27 -0.536841 6.80887 0
M  V30 27362 O 2550.96 -0.0295958 8.03895 0
M  V30 27363 H 2550.69 -0.325681 0.592375 0
M  V30 27364 H 2553.24 -0.371124 2.02019 0
M  V30 27365 H 2551.47 -2.85796 2.60494 0
M  V30 27366 H 2553.16 -2.72998 3.00378 0
M  V30 27367 H 2553.93 -0.966786 4.75267 0
M  V30 27368 H 2549.81 -2.02874 4.1396 0
M  V30 27369 H 2553.35 -0.0605616 6.97574 0
M  V30 27370 H 2549.25 -1.1282 6.35564 0
M  V30 27371 H 2550.02 -0.144716 8.18372 0
M  V30 27372 N 2552.68 -1.46438 -0.582558 0
M  V30 27373 C 2553.92 -1.53315 -1.35181 0
M  V30 27374 C 2554.28 -0.180541 -1.91149 0
M  V30 27375 O 2555.48 -0.124064 -2.68514 0
M  V30 27376 C 2553.75 -2.60131 -2.45085 0
M  V30 27377 S 2555.31 -2.86414 -3.32434 0
M  V30 27378 H 2552.13 -0.541678 -0.460549 0
M  V30 27379 H 2554.73 -1.83672 -0.669677 0
M  V30 27380 H 2553.44 -3.57042 -2.0236 0
M  V30 27381 H 2552.97 -2.31506 -3.1807 0
M  V30 27382 H 2554.98 -2.21696 -4.4392 0
M  V30 27383 N 2554.16 0.827204 -1.34146 0
M  V30 27384 C 2555.43 1.56863 -1.16847 0
M  V30 27385 C 2555.81 2.09485 0.260617 0
M  V30 27386 O 2555.16 1.90532 1.26134 0
M  V30 27387 C 2555.37 2.69336 -2.21943 0
M  V30 27388 C 2556.72 3.38216 -2.56701 0
M  V30 27389 O 2557.74 2.79589 -2.207 0
M  V30 27390 O 2556.6 4.44076 -3.18526 0
M  V30 27391 H 2553.7 0.692105 -0.452681 0
M  V30 27392 H 2556.24 0.868948 -1.45765 0
M  V30 27393 H 2555.01 2.28176 -3.17886 0
M  V30 27394 H 2554.64 3.46959 -1.94178 0
M  V30 27395 N 2555.63 1.17805 1.04688 0
M  V30 27396 C 2557.05 0.974717 1.59236 0
M  V30 27397 C 2557.4 -0.477259 1.90307 0
M  V30 27398 O 2556.52 -1.35349 1.68848 0
M  V30 27399 C 2557.12 1.76301 2.89315 0
M  V30 27400 C 2555.68 1.6042 3.40503 0
M  V30 27401 C 2554.82 1.76144 2.14169 0
M  V30 27402 H 2557.77 1.3244 0.874371 0
M  V30 27403 H 2557.79 1.24839 3.59438 0
M  V30 27404 H 2557.31 2.81973 2.6667 0
M  V30 27405 H 2555.41 0.572583 3.68174 0
M  V30 27406 H 2555.52 2.39834 4.14749 0
M  V30 27407 H 2553.88 1.19032 2.25174 0
M  V30 27408 H 2554.67 2.83238 1.93987 0
M  V30 27409 N 2557.11 -1.23497 0.979094 0
M  V30 27410 C 2558.34 -1.95914 0.665236 0
M  V30 27411 C 2558.76 -1.72494 -0.767541 0
M  V30 27412 O 2558.11 -1.01557 -1.51633 0
M  V30 27413 C 2558.16 -3.48943 0.9445 0
M  V30 27414 O 2557.88 -3.71568 2.32096 0
M  V30 27415 C 2559.39 -4.38562 0.646413 0
M  V30 27416 H 2556.61 -0.623794 0.247229 0
M  V30 27417 H 2559.15 -1.57022 1.31012 0
M  V30 27418 H 2557.3 -3.85855 0.345643 0
M  V30 27419 H 2557.72 -4.65871 2.40965 0
M  V30 27420 H 2559.19 -5.44742 0.892186 0
M  V30 27421 H 2559.67 -4.37192 -0.419498 0
M  V30 27422 H 2560.28 -4.07255 1.22569 0
M  V30 27423 N 2558.59 -0.750586 -1.38578 0
M  V30 27424 C 2559.52 -0.136278 -2.33102 0
M  V30 27425 C 2560.5 0.706937 -1.54714 0
M  V30 27426 O 2561.69 0.648737 -1.83044 0
M  V30 27427 C 2558.82 0.759957 -3.38883 0
M  V30 27428 C 2557.77 0.0197032 -4.27995 0
M  V30 27429 C 2557.1 1.03399 -5.24607 0
M  V30 27430 C 2558.4 -1.14693 -5.09552 0
M  V30 27431 H 2560.09 -0.925872 -2.84724 0
M  V30 27432 H 2557.64 -0.446678 -1.36897 0
M  V30 27433 H 2559.59 1.19936 -4.03972 0
M  V30 27434 H 2558.31 1.58184 -2.85737 0
M  V30 27435 H 2556.97 -0.400248 -3.64409 0
M  V30 27436 H 2556.62 1.84985 -4.67749 0
M  V30 27437 H 2556.32 0.543361 -5.85082 0
M  V30 27438 H 2557.85 1.47278 -5.92572 0
M  V30 27439 H 2559.26 -0.785218 -5.67897 0
M  V30 27440 H 2557.66 -1.56822 -5.79247 0
M  V30 27441 H 2558.73 -1.96126 -4.43466 0
M  V30 27442 N 2560.07 1.49477 -0.499425 0
M  V30 27443 C 2561.48 1.8663 -0.0512479 0
M  V30 27444 C 2561.83 1.41189 1.36236 0
M  V30 27445 O 2560.96 0.789087 2.015 0
M  V30 27446 C 2561.55 3.3869 -0.0862246 0
M  V30 27447 C 2560.11 3.75149 0.306604 0
M  V30 27448 C 2559.26 2.73467 -0.459445 0
M  V30 27449 H 2562.21 1.41817 -0.712289 0
M  V30 27450 H 2562.23 3.73828 0.709441 0
M  V30 27451 H 2561.74 3.71733 -1.11518 0
M  V30 27452 H 2559.84 3.47715 1.33885 0
M  V30 27453 H 2559.96 4.79099 -0.0117511 0
M  V30 27454 H 2558.32 2.54539 0.0905198 0
M  V30 27455 H 2559.1 3.09354 -1.48845 0
M  V30 27456 N 2561.55 0.233191 1.55865 0
M  V30 27457 C 2562.5 -0.688471 2.22177 0
M  V30 27458 C 2563.49 -1.19074 1.20489 0
M  V30 27459 O 2564.7 -1.14922 1.38538 0
M  V30 27460 H 2561.07 -0.24047 0.712515 0
M  V30 27461 H 2563.04 -0.105883 2.98212 0
M  V30 27462 C 2561.79 -1.88066 2.92449 0
M  V30 27463 H 2561.11 -1.5033 3.7046 0
M  V30 27464 H 2562.55 -2.50308 3.42231 0
M  V30 27465 C 2561.01 -2.74332 1.9556 0
M  V30 27466 O 2561.54 -3.73445 1.47993 0
M  V30 27467 N 2559.75 -2.4061 1.62957 0
M  V30 27468 H 2559.3 -1.60065 2.01834 0
M  V30 27469 H 2559.25 -2.98607 0.983939 0
M  V30 27470 N 2563.03 -1.57549 -0.0400806 0
M  V30 27471 C 2564.25 -1.93407 -0.748897 0
M  V30 27472 C 2564.68 -0.832304 -1.68684 0
M  V30 27473 O 2564.03 0.212787 -1.80047 0
M  V30 27474 C 2564.08 -3.28307 -1.49154 0
M  V30 27475 O 2563.19 -3.19778 -2.60414 0
M  V30 27476 H 2562.53 -0.632464 -0.202201 0
M  V30 27477 H 2565.06 -2.046 0.00115682 0
M  V30 27478 H 2565.07 -3.62937 -1.86389 0
M  V30 27479 H 2563.74 -4.08063 -0.803568 0
M  V30 27480 H 2562.32 -2.96762 -2.25803 0
M  V30 27481 N 2564.5 0.312142 -1.54478 0
M  V30 27482 C 2565.45 1.40466 -1.85397 0
M  V30 27483 C 2566.45 1.53017 -0.726776 0
M  V30 27484 O 2567.65 1.55267 -0.910609 0
M  V30 27485 H 2564.03 0.46897 -0.587853 0
M  V30 27486 H 2566 1.11618 -2.76738 0
M  V30 27487 C 2564.75 2.765 -2.10816 0
M  V30 27488 H 2564.07 2.67619 -2.97018 0
M  V30 27489 H 2565.51 3.51984 -2.36396 0
M  V30 27490 C 2563.97 3.24567 -0.903222 0
M  V30 27491 O 2564.5 4.01526 -0.118155 0
M  V30 27492 N 2562.7 2.81751 -0.711684 0
M  V30 27493 H 2562.25 2.19284 -1.35175 0
M  V30 27494 H 2562.21 3.14262 0.0929921 0
M  V30 27495 N 2565.98 1.46745 0.574784 0
M  V30 27496 C 2567.23 1.52163 1.33006 0
M  V30 27497 C 2567.55 0.178126 1.94185 0
M  V30 27498 O 2566.82 -0.796165 1.78992 0
M  V30 27499 H 2565.4 0.560454 0.493863 0
M  V30 27500 H 2568.06 1.82928 0.672557 0
M  V30 27501 H 2567.16 2.27866 2.13269 0
M  V30 27502 N 2567.46 -0.820078 1.34583 0
M  V30 27503 C 2568.68 -1.6133 1.30336 0
M  V30 27504 C 2569.11 -1.87721 -0.119306 0
M  V30 27505 O 2568.47 -1.45477 -1.08194 0
M  V30 27506 C 2568.52 -2.92953 2.10263 0
M  V30 27507 O 2567.62 -3.85154 1.4741 0
M  V30 27508 H 2566.96 -0.490553 0.447497 0
M  V30 27509 H 2569.49 -1.01886 1.77427 0
M  V30 27510 H 2569.5 -3.42495 2.21724 0
M  V30 27511 H 2568.18 -2.73069 3.13698 0
M  V30 27512 H 2566.75 -3.43677 1.44709 0
M  V30 27513 N 2568.94 -1.18359 -1.04062 0
M  V30 27514 C 2570.35 -0.933281 -1.29468 0
M  V30 27515 C 2570.55 0.401134 -1.97467 0
M  V30 27516 O 2569.61 1.13546 -2.2553 0
M  V30 27517 C 2570.92 -2.09886 -2.15333 0
M  V30 27518 C 2572.47 -2.13716 -2.2868 0
M  V30 27519 C 2572.95 -3.29692 -3.17911 0
M  V30 27520 N 2574.44 -3.29553 -3.25499 0
M  V30 27521 C 2575.17 -4.15933 -3.94699 0
M  V30 27522 N 2574.67 -5.12447 -4.6623 0
M  V30 27523 N 2576.46 -4.03847 -3.90978 0
M  V30 27524 H 2568.61 -2.04233 -0.583323 0
M  V30 27525 H 2570.87 -0.892393 -0.319905 0
M  V30 27526 H 2570.58 -3.06392 -1.72676 0
M  V30 27527 H 2570.45 -2.05953 -3.16012 0
M  V30 27528 H 2572.84 -1.17788 -2.70573 0
M  V30 27529 H 2572.92 -2.21707 -1.27592 0
M  V30 27530 H 2572.57 -4.25891 -2.76729 0
M  V30 27531 H 2572.5 -3.18937 -4.19031 0
M  V30 27532 H 2574.99 -2.59682 -2.74543 0
M  V30 27533 H 2575.3 -5.74731 -5.16628 0
M  V30 27534 H 2573.65 -5.16406 -4.65134 0
M  V30 27535 H 2576.84 -3.27733 -3.34228 0
M  V30 27536 H 2577.01 -4.71383 -4.44637 0
M  V30 27537 N 2570.42 1.22976 -0.98563 0
M  V30 27538 C 2571.66 1.91153 -0.656121 0
M  V30 27539 C 2571.98 1.77219 0.81353 0
M  V30 27540 O 2571.25 1.15483 1.58242 0
M  V30 27541 H 2569.83 0.707502 -0.239687 0
M  V30 27542 H 2572.5 1.49488 -1.25057 0
M  V30 27543 H 2571.59 2.98468 -0.912305 0
M  V30 27544 N 2571.89 0.757924 1.38178 0
M  V30 27545 C 2573.17 0.24134 1.94105 0
M  V30 27546 C 2573.55 -1.26119 1.69285 0
M  V30 27547 O 2572.9 -2.03775 1.03382 0
M  V30 27548 C 2573.11 0.59973 3.43808 0
M  V30 27549 C 2574.46 0.561791 4.20867 0
M  V30 27550 O 2575.48 0.538284 3.52109 0
M  V30 27551 O 2574.34 0.576574 5.4345 0
M  V30 27552 H 2571.43 0.0518187 0.825375 0
M  V30 27553 H 2573.98 0.838341 1.47546 0
M  V30 27554 H 2572.75 1.63726 3.55401 0
M  V30 27555 H 2572.37 -0.0250498 3.97592 0
M  V30 27556 N 2573.37 -1.4921 0.507345 0
M  V30 27557 C 2574.61 -2.04373 -0.0332012 0
M  V30 27558 C 2574.98 -1.37806 -1.33692 0
M  V30 27559 O 2576.18 -1.83726 -1.9621 0
M  V30 27560 C 2574.45 -3.56967 -0.175927 0
M  V30 27561 S 2576.01 -4.33658 -0.669806 0
M  V30 27562 H 2572.83 -0.710999 0.00124853 0
M  V30 27563 H 2575.43 -1.8319 0.682757 0
M  V30 27564 H 2574.13 -4.02956 0.778124 0
M  V30 27565 H 2573.66 -3.82565 -0.916938 0
M  V30 27566 H 2575.68 -4.5679 -1.93798 0
M  V30 27567 N 2574.85 -0.241454 -1.55739 0
M  V30 27568 C 2576.1 0.384041 -1.98418 0
M  V30 27569 C 2576.42 1.58864 -1.13081 0
M  V30 27570 O 2575.69 1.94746 -0.212346 0
M  V30 27571 H 2574.27 0.144881 -0.732815 0
M  V30 27572 H 2576.93 -0.338977 -1.9193 0
M  V30 27573 H 2576.03 0.696886 -3.0422 0
M  V30 27574 N 2576.33 1.57568 0.0317248 0
M  V30 27575 C 2577.55 1.93802 0.73863 0
M  V30 27576 C 2577.98 0.841238 1.6824 0
M  V30 27577 O 2577.34 -0.203235 1.80157 0
M  V30 27578 C 2577.38 3.29093 1.47411 0
M  V30 27579 O 2576.49 3.21155 2.58715 0
M  V30 27580 H 2575.83 0.633527 0.198844 0
M  V30 27581 H 2578.36 2.04596 -0.0120072 0
M  V30 27582 H 2578.37 3.6392 1.84462 0
M  V30 27583 H 2577.04 4.08484 0.781916 0
M  V30 27584 H 2575.62 2.97955 2.24226 0
M  V30 27585 N 2577.81 -0.303946 1.54641 0
M  V30 27586 C 2579.22 -0.877134 1.64813 0
M  V30 27587 C 2579.57 -1.8819 0.554871 0
M  V30 27588 O 2578.69 -2.14183 -0.308995 0
M  V30 27589 C 2579.29 -1.59769 2.98763 0
M  V30 27590 C 2577.85 -2.11933 3.11065 0
M  V30 27591 C 2576.99 -0.951051 2.60481 0
M  V30 27592 H 2579.95 -0.0810208 1.58493 0
M  V30 27593 H 2579.97 -2.46309 2.90021 0
M  V30 27594 H 2579.48 -0.86616 3.78311 0
M  V30 27595 H 2577.58 -2.88142 2.3623 0
M  V30 27596 H 2577.69 -2.35588 4.17175 0
M  V30 27597 H 2576.06 -1.33579 2.16861 0
M  V30 27598 H 2576.84 -0.233521 3.42505 0
M  V30 27599 N 2579.28 -1.47047 -0.566994 0
M  V30 27600 C 2580.25 -1.58362 -1.65693 0
M  V30 27601 C 2581.25 -0.459469 -1.54096 0
M  V30 27602 O 2582.44 -0.724253 -1.5843 0
M  V30 27603 C 2579.57 -1.51885 -3.05195 0
M  V30 27604 H 2580.76 -2.55512 -1.57014 0
M  V30 27605 H 2578.32 -1.35092 -0.786125 0
M  V30 27606 H 2579.05 -0.560729 -3.19416 0
M  V30 27607 H 2578.84 -2.33461 -3.15021 0
M  V30 27608 H 2580.33 -1.6292 -3.84508 0
M  V30 27609 N 2580.76 0.812929 -1.35016 0
M  V30 27610 C 2582.01 1.57202 -1.28123 0
M  V30 27611 C 2582.34 1.93652 0.145835 0
M  V30 27612 O 2581.62 1.60838 1.09368 0
M  V30 27613 C 2581.9 2.86488 -2.18167 0
M  V30 27614 C 2581.75 2.56555 -3.69459 0
M  V30 27615 C 2583.07 3.88142 -2.07446 0
M  V30 27616 H 2580.19 0.570358 -0.466756 0
M  V30 27617 H 2582.83 0.935754 -1.65359 0
M  V30 27618 H 2580.98 3.40785 -1.86541 0
M  V30 27619 H 2582.65 2.0849 -4.11497 0
M  V30 27620 H 2580.9 1.89844 -3.90053 0
M  V30 27621 H 2581.57 3.48792 -4.27841 0
M  V30 27622 H 2584.04 3.43226 -2.35234 0
M  V30 27623 H 2582.92 4.76391 -2.72658 0
M  V30 27624 H 2583.18 4.29341 -1.05446 0
M  V30 27625 N 2582.24 1.18909 1.03433 0
M  V30 27626 C 2583.49 0.986413 1.76392 0
M  V30 27627 C 2583.81 -0.484534 1.88884 0
M  V30 27628 O 2583.08 -1.35117 1.41846 0
M  V30 27629 H 2581.66 0.361986 0.653433 0
M  V30 27630 H 2584.32 1.49705 1.24797 0
M  V30 27631 H 2583.42 1.42982 2.77421 0
M  V30 27632 N 2583.72 -1.22452 0.992137 0
M  V30 27633 C 2584.97 -1.90491 0.663026 0
M  V30 27634 C 2585.28 -1.78114 -0.808376 0
M  V30 27635 O 2586.49 -2.41063 -1.24904 0
M  V30 27636 C 2584.94 -3.41523 1.13536 0
M  V30 27637 C 2584.55 -3.62538 2.63193 0
M  V30 27638 C 2586.29 -4.15267 0.880538 0
M  V30 27639 C 2584.2 -5.07265 3.04033 0
M  V30 27640 H 2583.13 -0.713329 0.24429 0
M  V30 27641 H 2585.78 -1.38686 1.2016 0
M  V30 27642 H 2584.16 -3.92506 0.524919 0
M  V30 27643 H 2585.34 -3.2205 3.29576 0
M  V30 27644 H 2583.65 -3.02124 2.86549 0
M  V30 27645 H 2586.25 -5.21935 1.16138 0
M  V30 27646 H 2586.59 -4.15896 -0.183335 0
M  V30 27647 H 2587.13 -3.70309 1.45313 0
M  V30 27648 H 2583.87 -5.11775 4.09593 0
M  V30 27649 H 2583.39 -5.48658 2.42353 0
M  V30 27650 H 2585.06 -5.75684 2.95292 0
M  V30 27651 N 2585.2 -0.765242 -1.37774 0
M  V30 27652 C 2586.13 -0.160994 -2.32944 0
M  V30 27653 C 2587.11 0.690488 -1.55455 0
M  V30 27654 O 2588.29 0.629286 -1.83722 0
M  V30 27655 C 2585.42 0.723971 -3.3967 0
M  V30 27656 C 2584.38 -0.0256925 -4.27992 0
M  V30 27657 C 2583.7 0.97829 -5.25674 0
M  V30 27658 C 2585 -1.20091 -5.08306 0
M  V30 27659 H 2586.7 -0.956019 -2.83726 0
M  V30 27660 H 2584.24 -0.461173 -1.36416 0
M  V30 27661 H 2586.2 1.15645 -4.05221 0
M  V30 27662 H 2584.92 1.55144 -2.87398 0
M  V30 27663 H 2583.58 -0.438876 -3.63964 0
M  V30 27664 H 2583.23 1.80014 -4.69685 0
M  V30 27665 H 2582.93 0.481275 -5.85626 0
M  V30 27666 H 2584.45 1.40984 -5.94101 0
M  V30 27667 H 2585.86 -0.845407 -5.67032 0
M  V30 27668 H 2584.26 -1.62957 -5.77551 0
M  V30 27669 H 2585.33 -2.00819 -4.41361 0
M  V30 27670 N 2586.67 1.48939 -0.515251 0
M  V30 27671 C 2587.92 2.02486 0.0241794 0
M  V30 27672 C 2588.25 1.39371 1.35669 0
M  V30 27673 O 2587.5 0.523607 1.88565 0
M  V30 27674 C 2587.8 3.56779 0.210532 0
M  V30 27675 C 2587.47 4.38605 -1.04576 0
M  V30 27676 C 2586.13 4.60684 -1.3901 0
M  V30 27677 C 2588.48 4.86106 -1.88017 0
M  V30 27678 C 2585.81 5.27509 -2.56809 0
M  V30 27679 C 2588.16 5.54228 -3.04982 0
M  V30 27680 C 2586.83 5.74549 -3.39779 0
M  V30 27681 H 2586.1 0.740947 0.00884786 0
M  V30 27682 H 2588.74 1.79085 -0.678294 0
M  V30 27683 H 2587.05 3.78938 0.995653 0
M  V30 27684 H 2588.75 3.95818 0.64259 0
M  V30 27685 H 2585.34 4.21671 -0.767571 0
M  V30 27686 H 2589.52 4.68864 -1.62727 0
M  V30 27687 H 2584.78 5.41442 -2.8399 0
M  V30 27688 H 2588.95 5.90007 -3.69953 0
M  V30 27689 H 2586.58 6.26104 -4.31159 0
M  V30 27690 N 2588.15 0.249709 1.55609 0
M  V30 27691 C 2589.4 -0.374252 1.99012 0
M  V30 27692 C 2589.73 -1.57742 1.13788 0
M  V30 27693 O 2588.98 -1.94782 0.18936 0
M  V30 27694 C 2589.28 -0.824826 3.47752 0
M  V30 27695 C 2588.95 0.270898 4.50085 0
M  V30 27696 C 2587.61 0.57183 4.7779 0
M  V30 27697 C 2589.96 1.0105 5.1131 0
M  V30 27698 C 2587.29 1.61639 5.63994 0
M  V30 27699 C 2589.64 2.0446 5.98647 0
M  V30 27700 C 2588.31 2.35215 6.24684 0
M  V30 27701 H 2587.58 -0.136948 0.728235 0
M  V30 27702 H 2590.22 0.35812 1.88122 0
M  V30 27703 H 2588.53 -1.63645 3.55988 0
M  V30 27704 H 2590.23 -1.31793 3.78724 0
M  V30 27705 H 2586.82 0.0262114 4.28592 0
M  V30 27706 H 2591 0.791263 4.89952 0
M  V30 27707 H 2586.26 1.85998 5.82421 0
M  V30 27708 H 2590.43 2.62259 6.4513 0
M  V30 27709 H 2588.06 3.16294 6.91276 0
M  V30 27710 N 2589.63 -1.57583 -0.0233682 0
M  V30 27711 C 2590.86 -1.93795 -0.724648 0
M  V30 27712 C 2591.27 -0.849942 -1.68587 0
M  V30 27713 O 2590.63 0.173172 -1.81677 0
M  V30 27714 C 2590.68 -3.29959 -1.47679 0
M  V30 27715 O 2590.4 -4.34581 -0.554145 0
M  V30 27716 C 2591.9 -3.80489 -2.27471 0
M  V30 27717 H 2589.12 -0.639459 -0.203306 0
M  V30 27718 H 2591.67 -2.04489 0.0208013 0
M  V30 27719 H 2589.82 -3.20645 -2.17407 0
M  V30 27720 H 2590.24 -5.13213 -1.08223 0
M  V30 27721 H 2591.71 -4.78259 -2.75631 0
M  V30 27722 H 2592.19 -3.11977 -3.09139 0
M  V30 27723 H 2592.79 -3.92905 -1.62806 0
M  V30 27724 N 2591.11 0.29574 -1.548 0
M  V30 27725 C 2592.34 1.04911 -1.78329 0
M  V30 27726 C 2592.75 1.80752 -0.545347 0
M  V30 27727 O 2592.11 1.75938 0.484982 0
M  V30 27728 C 2592.16 2.02556 -2.99422 0
M  V30 27729 O 2591.88 1.2979 -4.18433 0
M  V30 27730 C 2593.38 2.89889 -3.3538 0
M  V30 27731 H 2590.6 0.310908 -0.594624 0
M  V30 27732 H 2593.15 0.333418 -2.01764 0
M  V30 27733 H 2591.3 2.69619 -2.7818 0
M  V30 27734 H 2591.72 1.9541 -4.86739 0
M  V30 27735 H 2593.19 3.54243 -4.23339 0
M  V30 27736 H 2593.67 3.58467 -2.53768 0
M  V30 27737 H 2594.27 2.28348 -3.588 0
M  V30 27738 N 2592.59 1.47346 0.559187 0
M  V30 27739 C 2593.82 1.57253 1.33996 0
M  V30 27740 C 2594.23 0.221011 1.87905 0
M  V30 27741 O 2593.57 -0.795588 1.65578 0
M  V30 27742 C 2593.63 2.53615 2.54793 0
M  V30 27743 C 2593.29 3.99353 2.22185 0
M  V30 27744 C 2594.29 4.87894 1.79598 0
M  V30 27745 C 2591.98 4.44673 2.33605 0
M  V30 27746 C 2593.97 6.19774 1.48858 0
M  V30 27747 C 2591.66 5.76581 2.02477 0
M  V30 27748 C 2592.66 6.63954 1.60171 0
M  V30 27749 O 2592.34 7.93411 1.29437 0
M  V30 27750 H 2592.08 0.533738 0.414849 0
M  V30 27751 H 2594.63 1.93661 0.684431 0
M  V30 27752 H 2592.86 2.1227 3.23231 0
M  V30 27753 H 2594.55 2.53671 3.16868 0
M  V30 27754 H 2595.31 4.54129 1.7027 0
M  V30 27755 H 2591.19 3.76874 2.65494 0
M  V30 27756 H 2594.74 6.87928 1.15763 0
M  V30 27757 H 2590.63 6.09889 2.11437 0
M  V30 27758 H 2591.4 8.05897 1.43084 0
M  V30 27759 N 2594.07 -0.805758 1.35445 0
M  V30 27760 C 2595.31 -1.55799 1.281 0
M  V30 27761 C 2595.63 -1.95081 -0.142393 0
M  V30 27762 O 2596.83 -2.69386 -0.338122 0
M  V30 27763 C 2595.29 -2.8117 2.24658 0
M  V30 27764 C 2594.9 -2.49123 3.72346 0
M  V30 27765 C 2596.64 -3.59177 2.26257 0
M  V30 27766 C 2594.55 -3.70791 4.60726 0
M  V30 27767 H 2593.48 -0.5848 0.475947 0
M  V30 27768 H 2596.13 -0.885632 1.60713 0
M  V30 27769 H 2594.51 -3.50121 1.85017 0
M  V30 27770 H 2595.69 -1.88173 4.20627 0
M  V30 27771 H 2594 -1.8436 3.73364 0
M  V30 27772 H 2596.6 -4.49547 2.89503 0
M  V30 27773 H 2596.94 -3.96566 1.26654 0
M  V30 27774 H 2597.47 -2.97189 2.64431 0
M  V30 27775 H 2594.21 -3.3851 5.6133 0
M  V30 27776 H 2593.73 -4.30963 4.1717 0
M  V30 27777 H 2595.41 -4.3801 4.7619 0
M  V30 27778 N 2595.54 -1.19456 -1.02801 0
M  V30 27779 C 2596.79 -0.992027 -1.75618 0
M  V30 27780 C 2597.11 0.477867 -1.89673 0
M  V30 27781 O 2598.31 0.799241 -2.59469 0
M  V30 27782 C 2596.77 -1.72606 -3.15809 0
M  V30 27783 C 2596.38 -3.23612 -3.09805 0
M  V30 27784 C 2598.12 -1.6068 -3.92915 0
M  V30 27785 C 2596.03 -3.89601 -4.44932 0
M  V30 27786 H 2594.96 -0.367555 -0.658346 0
M  V30 27787 H 2597.61 -1.42961 -1.15041 0
M  V30 27788 H 2595.99 -1.2163 -3.76858 0
M  V30 27789 H 2597.16 -3.81713 -2.58131 0
M  V30 27790 H 2595.48 -3.35823 -2.46195 0
M  V30 27791 H 2598.08 -2.07332 -4.92867 0
M  V30 27792 H 2598.42 -0.561098 -4.12501 0
M  V30 27793 H 2598.95 -2.09007 -3.38469 0
M  V30 27794 H 2595.69 -4.94274 -4.3055 0
M  V30 27795 H 2595.21 -3.36289 -4.96658 0
M  V30 27796 H 2596.89 -3.93199 -5.13813 0
M  V30 27797 N 2597.02 1.21924 -0.998617 0
M  V30 27798 C 2598.27 1.90137 -0.673119 0
M  V30 27799 C 2598.58 1.7854 0.798919 0
M  V30 27800 O 2599.79 2.41722 1.23624 0
M  V30 27801 C 2598.25 3.40916 -1.15345 0
M  V30 27802 C 2597.85 3.61137 -2.65112 0
M  V30 27803 C 2599.6 4.14794 -0.902549 0
M  V30 27804 C 2597.5 5.05646 -3.06719 0
M  V30 27805 H 2596.43 0.712023 -0.24807 0
M  V30 27806 H 2599.09 1.38047 -1.20894 0
M  V30 27807 H 2597.47 3.92222 -0.545727 0
M  V30 27808 H 2598.64 3.20298 -3.31279 0
M  V30 27809 H 2596.96 3.006 -2.88147 0
M  V30 27810 H 2599.55 5.21312 -1.18904 0
M  V30 27811 H 2599.9 4.15987 0.161276 0
M  V30 27812 H 2600.43 3.69533 -1.47275 0
M  V30 27813 H 2597.17 5.09596 -4.12301 0
M  V30 27814 H 2596.69 5.47365 -2.45259 0
M  V30 27815 H 2598.37 5.7411 -2.98341 0
M  V30 27816 N 2598.5 0.772537 1.37367 0
M  V30 27817 C 2599.72 0.347421 2.04469 0
M  V30 27818 C 2600.15 -1.02247 1.57883 0
M  V30 27819 O 2599.51 -1.65535 0.739439 0
M  V30 27820 C 2599.56 0.400542 3.58369 0
M  V30 27821 O 2598.66 -0.598718 4.08031 0
M  V30 27822 H 2598 0.150282 0.64677 0
M  V30 27823 H 2600.53 1.04895 1.75665 0
M  V30 27824 H 2600.54 0.258117 4.07183 0
M  V30 27825 H 2599.22 1.39993 3.91631 0
M  V30 27826 H 2597.79 -0.419346 3.70535 0
M  V30 27827 N 2599.98 -1.48664 0.523142 0
M  V30 27828 C 2601.22 -2.02496 -0.0134407 0
M  V30 27829 C 2601.55 -1.40088 -1.34928 0
M  V30 27830 O 2600.81 -0.5336 -1.88285 0
M  V30 27831 C 2601.11 -3.56886 -0.191608 0
M  V30 27832 C 2600.77 -4.38045 1.06901 0
M  V30 27833 C 2599.43 -4.5994 1.41451 0
M  V30 27834 C 2601.79 -4.85102 1.90592 0
M  V30 27835 C 2599.11 -5.2614 2.59603 0
M  V30 27836 C 2601.47 -5.52603 3.07916 0
M  V30 27837 C 2600.13 -5.72739 3.42821 0
M  V30 27838 H 2599.4 -0.740984 -0.00491831 0
M  V30 27839 H 2602.05 -1.78723 0.687782 0
M  V30 27840 H 2600.35 -3.79461 -0.975543 0
M  V30 27841 H 2602.05 -3.96153 -0.62159 0
M  V30 27842 H 2598.64 -4.21258 0.789922 0
M  V30 27843 H 2602.82 -4.67995 1.65211 0
M  V30 27844 H 2598.08 -5.39929 2.86857 0
M  V30 27845 H 2602.25 -5.88036 3.73077 0
M  V30 27846 H 2599.88 -6.23809 4.34473 0
M  V30 27847 N 2601.46 -0.257958 -1.55475 0
M  V30 27848 C 2602.39 0.630873 -2.24816 0
M  V30 27849 C 2603.37 1.17257 -1.23226 0
M  V30 27850 O 2604.55 1.20988 -1.51906 0
M  V30 27851 C 2601.68 1.82293 -2.95612 0
M  V30 27852 C 2600.64 1.41352 -4.03985 0
M  V30 27853 C 2599.96 2.6873 -4.62264 0
M  V30 27854 C 2601.26 0.576389 -5.1911 0
M  V30 27855 H 2602.96 0.0526351 -2.99354 0
M  V30 27856 H 2600.5 0.0238757 -1.4398 0
M  V30 27857 H 2602.45 2.45047 -3.42826 0
M  V30 27858 H 2601.18 2.42672 -2.18581 0
M  V30 27859 H 2599.84 0.809261 -3.57556 0
M  V30 27860 H 2599.49 3.27331 -3.81921 0
M  V30 27861 H 2599.19 2.42055 -5.35428 0
M  V30 27862 H 2600.71 3.32363 -5.12218 0
M  V30 27863 H 2602.12 1.10851 -5.62481 0
M  V30 27864 H 2600.52 0.405246 -5.9873 0
M  V30 27865 H 2601.59 -0.408861 -4.83173 0
M  V30 27866 N 2602.93 1.57593 0.0150108 0
M  V30 27867 C 2604.18 1.89086 0.702082 0
M  V30 27868 C 2604.5 0.858308 1.75762 0
M  V30 27869 O 2605.7 1.06295 2.49827 0
M  V30 27870 C 2604.16 3.35606 1.29986 0
M  V30 27871 C 2603.77 4.47125 0.279929 0
M  V30 27872 C 2605.51 3.7623 1.96599 0
M  V30 27873 C 2603.42 5.84713 0.886846 0
M  V30 27874 H 2602.35 0.705527 0.265985 0
M  V30 27875 H 2605 1.83449 -0.0430731 0
M  V30 27876 H 2603.38 3.36033 2.09519 0
M  V30 27877 H 2604.55 4.5819 -0.489711 0
M  V30 27878 H 2602.87 4.15424 -0.284908 0
M  V30 27879 H 2605.47 4.76352 2.42885 0
M  V30 27880 H 2605.81 3.08957 2.79019 0
M  V30 27881 H 2606.34 3.78038 1.23822 0
M  V30 27882 H 2603.08 6.55421 0.101761 0
M  V30 27883 H 2602.6 5.7734 1.626 0
M  V30 27884 H 2604.28 6.31893 1.38999 0
M  V30 27885 N 2604.41 -0.287527 1.54955 0
M  V30 27886 C 2605.66 -1.02254 1.75134 0
M  V30 27887 C 2605.99 -1.86457 0.542891 0
M  V30 27888 O 2605.27 -1.88986 -0.459823 0
M  V30 27889 C 2605.55 -1.91728 3.04815 0
M  V30 27890 C 2605.4 -1.10615 4.35987 0
M  V30 27891 C 2606.72 -2.90681 3.30443 0
M  V30 27892 H 2603.84 -0.37033 0.637201 0
M  V30 27893 H 2606.48 -0.296079 1.87679 0
M  V30 27894 H 2604.63 -2.5367 2.94251 0
M  V30 27895 H 2606.3 -0.508555 4.58488 0
M  V30 27896 H 2604.55 -0.409195 4.31866 0
M  V30 27897 H 2605.22 -1.76503 5.23021 0
M  V30 27898 H 2607.69 -2.38871 3.40705 0
M  V30 27899 H 2606.57 -3.50439 4.22473 0
M  V30 27900 H 2606.83 -3.65049 2.49383 0
M  V30 27901 N 2605.89 -1.47641 -0.551365 0
M  V30 27902 C 2607.14 -1.54794 -1.31021 0
M  V30 27903 C 2607.47 -0.212001 -1.93039 0
M  V30 27904 O 2606.74 0.779959 -1.78177 0
M  V30 27905 C 2607.03 -2.67034 -2.41589 0
M  V30 27906 C 2606.88 -4.10264 -1.84401 0
M  V30 27907 C 2608.2 -2.75149 -3.43483 0
M  V30 27908 H 2605.32 -0.563493 -0.475021 0
M  V30 27909 H 2607.96 -1.79723 -0.616423 0
M  V30 27910 H 2606.11 -2.45909 -3.00767 0
M  V30 27911 H 2607.78 -4.42768 -1.29438 0
M  V30 27912 H 2606.03 -4.18267 -1.15044 0
M  V30 27913 H 2606.7 -4.84581 -2.64358 0
M  V30 27914 H 2609.17 -2.94223 -2.94231 0
M  V30 27915 H 2608.05 -3.55448 -4.18268 0
M  V30 27916 H 2608.31 -1.82442 -4.027 0
M  V30 27917 N 2607.37 0.798563 -1.3587 0
M  V30 27918 C 2608.32 1.9322 -1.29495 0
M  V30 27919 C 2609.31 1.68349 -0.18839 0
M  V30 27920 O 2610.52 1.76468 -0.354853 0
M  V30 27921 H 2606.89 0.634953 -0.402912 0
M  V30 27922 H 2608.86 1.95716 -2.2525 0
M  V30 27923 C 2607.61 3.3011 -1.0919 0
M  V30 27924 H 2606.93 3.4981 -1.9358 0
M  V30 27925 H 2608.37 4.0981 -1.08773 0
M  V30 27926 C 2606.83 3.36282 0.2039 0
M  V30 27927 O 2607.36 3.83454 1.19692 0
M  V30 27928 N 2605.57 2.89562 0.245437 0
M  V30 27929 H 2605.12 2.51366 -0.563267 0
M  V30 27930 H 2605.07 2.94073 1.11214 0
M  V30 27931 N 2608.85 1.19999 1.02166 0
M  V30 27932 C 2609.78 0.887595 2.10231 0
M  V30 27933 C 2610.76 -0.158289 1.61828 0
M  V30 27934 O 2611.94 -0.0329918 1.88471 0
M  V30 27935 C 2609.07 0.329699 3.37091 0
M  V30 27936 C 2608.11 1.35578 4.04377 0
M  V30 27937 S 2608.95 2.91896 4.48951 0
M  V30 27938 C 2610.1 2.37669 5.7902 0
M  V30 27939 H 2610.34 1.80276 2.36406 0
M  V30 27940 H 2607.87 1.02792 1.1521 0
M  V30 27941 H 2609.83 0.0143545 4.10497 0
M  V30 27942 H 2608.49 -0.563887 3.08997 0
M  V30 27943 H 2607.68 0.914687 4.9563 0
M  V30 27944 H 2607.28 1.61834 3.37173 0
M  V30 27945 H 2609.58 1.77115 6.53939 0
M  V30 27946 H 2610.52 3.27298 6.27919 0
M  V30 27947 H 2610.93 1.79981 5.35039 0
M  V30 27948 N 2610.32 -1.21392 1.00507 0
M  V30 27949 C 2611.55 -1.94177 0.705618 0
M  V30 27950 C 2611.96 -1.74305 -0.735815 0
M  V30 27951 O 2611.31 -1.04685 -1.50953 0
M  V30 27952 C 2611.37 -3.46804 0.946951 0
M  V30 27953 C 2611.03 -3.90425 2.37524 0
M  V30 27954 C 2612.03 -3.97121 3.35546 0
M  V30 27955 C 2609.71 -4.22737 2.71291 0
M  V30 27956 C 2611.71 -4.35522 4.65403 0
M  V30 27957 C 2609.39 -4.60815 4.01364 0
M  V30 27958 C 2610.39 -4.67178 4.98231 0
M  V30 27959 O 2610.08 -5.04388 6.25978 0
M  V30 27960 H 2609.81 -0.624321 0.259227 0
M  V30 27961 H 2612.37 -1.55156 1.34595 0
M  V30 27962 H 2610.6 -3.85895 0.249454 0
M  V30 27963 H 2612.29 -4.00809 0.640874 0
M  V30 27964 H 2613.05 -3.72334 3.10793 0
M  V30 27965 H 2608.93 -4.16982 1.96589 0
M  V30 27966 H 2612.47 -4.40403 5.41009 0
M  V30 27967 H 2608.37 -4.85055 4.25901 0
M  V30 27968 H 2609.14 -5.2242 6.30095 0
M  V30 27969 N 2611.8 -0.779811 -1.36955 0
M  V30 27970 C 2613.05 -0.34444 -1.98737 0
M  V30 27971 C 2613.36 1.08725 -1.62598 0
M  V30 27972 O 2614.57 1.62441 -2.17543 0
M  V30 27973 C 2613.03 -0.564891 -3.55439 0
M  V30 27974 C 2612.63 -2.00737 -4.0051 0
M  V30 27975 C 2614.38 -0.193545 -4.24059 0
M  V30 27976 C 2612.29 -2.17499 -5.49953 0
M  V30 27977 H 2611.22 -0.125043 -0.743559 0
M  V30 27978 H 2613.87 -0.960084 -1.5638 0
M  V30 27979 H 2612.25 0.120328 -3.95817 0
M  V30 27980 H 2613.42 -2.7282 -3.71357 0
M  V30 27981 H 2611.74 -2.33606 -3.44699 0
M  V30 27982 H 2614.33 -0.297191 -5.33873 0
M  V30 27983 H 2614.68 0.857191 -4.07379 0
M  V30 27984 H 2615.21 -0.831625 -3.8901 0
M  V30 27985 H 2611.95 -3.20921 -5.71568 0
M  V30 27986 H 2611.47 -1.49909 -5.80764 0
M  V30 27987 H 2613.15 -1.97748 -6.16039 0
M  V30 27988 N 2613.28 1.48384 -0.531019 0
M  V30 27989 C 2614.24 2.28137 0.220457 0
M  V30 27990 C 2615.24 1.35435 0.866827 0
M  V30 27991 O 2616.43 1.58318 0.726718 0
M  V30 27992 C 2613.57 3.14342 1.31915 0
M  V30 27993 H 2614.76 2.96038 -0.479767 0
M  V30 27994 H 2612.31 1.53643 -0.286995 0
M  V30 27995 H 2613.05 2.51076 2.0526 0
M  V30 27996 H 2612.83 3.82535 0.860783 0
M  V30 27997 H 2614.32 3.745 1.84769 0
M  V30 27998 N 2614.76 0.2662 1.55336 0
M  V30 27999 C 2616.01 -0.353714 1.98574 0
M  V30 28000 C 2616.32 -1.57644 1.15792 0
M  V30 28001 O 2617.53 -2.26873 1.49133 0
M  V30 28002 C 2615.98 -0.680685 3.53404 0
M  V30 28003 C 2615.59 0.521729 4.44952 0
M  V30 28004 C 2617.33 -1.26372 4.05254 0
M  V30 28005 C 2615.24 0.169839 5.91156 0
M  V30 28006 H 2614.17 -0.135936 0.741645 0
M  V30 28007 H 2616.82 0.369452 1.79742 0
M  V30 28008 H 2615.2 -1.46251 3.68004 0
M  V30 28009 H 2616.38 1.29877 4.42118 0
M  V30 28010 H 2614.69 1.021 4.03689 0
M  V30 28011 H 2617.29 -1.54065 5.12023 0
M  V30 28012 H 2617.63 -2.19465 3.53753 0
M  V30 28013 H 2618.17 -0.544378 3.94058 0
M  V30 28014 H 2614.91 1.06841 6.46734 0
M  V30 28015 H 2614.43 -0.570612 5.9708 0
M  V30 28016 H 2616.1 -0.241132 6.46551 0
M  V30 28017 N 2616.24 -1.57599 -0.0066531 0
M  V30 28018 C 2617.49 -1.89456 -0.692045 0
M  V30 28019 C 2617.8 -0.867617 -1.75305 0
M  V30 28020 O 2619 -1.07618 -2.4926 0
M  V30 28021 C 2617.46 -3.36291 -1.28204 0
M  V30 28022 C 2617.07 -4.47267 -0.256213 0
M  V30 28023 C 2618.81 -3.77267 -1.94601 0
M  V30 28024 C 2616.72 -5.85175 -0.855825 0
M  V30 28025 H 2615.65 -0.706927 -0.26224 0
M  V30 28026 H 2618.3 -1.83424 0.0528012 0
M  V30 28027 H 2616.68 -3.37139 -2.07734 0
M  V30 28028 H 2617.86 -4.57924 0.514003 0
M  V30 28029 H 2616.17 -4.15267 0.306935 0
M  V30 28030 H 2618.77 -4.77633 -2.40355 0
M  V30 28031 H 2619.11 -3.10432 -2.77376 0
M  V30 28032 H 2619.64 -3.7869 -1.21815 0
M  V30 28033 H 2616.38 -6.55466 -0.0670009 0
M  V30 28034 H 2615.9 -5.78194 -1.59535 0
M  V30 28035 H 2617.58 -6.32621 -1.35646 0
M  V30 28036 N 2617.72 0.279305 -1.55105 0
M  V30 28037 C 2618.65 1.34942 -1.90559 0
M  V30 28038 C 2619.63 1.51838 -0.766765 0
M  V30 28039 O 2620.81 1.64986 -1.02437 0
M  V30 28040 C 2617.94 2.71002 -2.17198 0
M  V30 28041 C 2616.9 2.68845 -3.33026 0
M  V30 28042 C 2616.22 4.08399 -3.4513 0
M  V30 28043 C 2617.52 2.2867 -4.69582 0
M  V30 28044 H 2619.22 1.05517 -2.8019 0
M  V30 28045 H 2616.76 0.50615 -1.34811 0
M  V30 28046 H 2618.71 3.45971 -2.40587 0
M  V30 28047 H 2617.44 3.01997 -1.2436 0
M  V30 28048 H 2616.1 1.96335 -3.09594 0
M  V30 28049 H 2615.75 4.36605 -2.4977 0
M  V30 28050 H 2615.45 4.07852 -4.23002 0
M  V30 28051 H 2616.97 4.85115 -3.70805 0
M  V30 28052 H 2618.38 2.93359 -4.92558 0
M  V30 28053 H 2616.78 2.39296 -5.50325 0
M  V30 28054 H 2617.85 1.23798 -4.6883 0
M  V30 28055 N 2619.19 1.47931 0.543528 0
M  V30 28056 C 2620.1 1.64101 1.67654 0
M  V30 28057 C 2621.12 0.523651 1.65933 0
M  V30 28058 O 2622.3 0.792975 1.85132 0
M  V30 28059 C 2619.36 1.66426 3.04144 0
M  V30 28060 C 2618.42 2.8969 3.16825 0
M  V30 28061 C 2617.65 2.91894 4.46804 0
M  V30 28062 O 2617.88 2.02904 5.33091 0
M  V30 28063 O 2616.81 3.83915 4.63566 0
M  V30 28064 H 2620.64 2.59999 1.56952 0
M  V30 28065 H 2618.22 1.31175 0.715093 0
M  V30 28066 H 2620.1 1.70555 3.85343 0
M  V30 28067 H 2618.78 0.736978 3.15199 0
M  V30 28068 H 2617.69 2.91099 2.34972 0
M  V30 28069 H 2619.02 3.81757 3.1068 0
M  V30 28070 N 2620.67 -0.791347 1.36292 0
M  V30 28071 C 2621.62 -1.9253 1.30518 0
M  V30 28072 C 2622.61 -1.68247 0.197315 0
M  V30 28073 O 2623.82 -1.76277 0.364207 0
M  V30 28074 H 2620.19 -0.632808 0.406274 0
M  V30 28075 H 2622.17 -1.94519 2.26285 0
M  V30 28076 C 2620.91 -3.29527 1.10939 0
M  V30 28077 H 2620.24 -3.48778 1.95433 0
M  V30 28078 H 2621.68 -4.09228 1.10945 0
M  V30 28079 C 2620.14 -3.36386 -0.186063 0
M  V30 28080 O 2620.67 -3.84083 -1.17657 0
M  V30 28081 N 2618.87 -2.89688 -0.230078 0
M  V30 28082 H 2618.42 -2.51064 0.57659 0
M  V30 28083 H 2618.38 -2.94659 -1.09653 0
M  V30 28084 N 2622.15 -1.2054 -1.01528 0
M  V30 28085 C 2623.4 -1.01636 -1.75147 0
M  V30 28086 C 2623.72 0.451366 -1.8919 0
M  V30 28087 O 2622.98 1.35134 -1.41553 0
M  V30 28088 C 2623.28 -1.64659 -3.1721 0
M  V30 28089 C 2622.94 -3.1447 -3.2314 0
M  V30 28090 C 2621.61 -3.55352 -3.24466 0
M  V30 28091 C 2623.96 -4.10464 -3.21199 0
M  V30 28092 C 2621.29 -4.90754 -3.21524 0
M  V30 28093 C 2623.64 -5.45813 -3.19798 0
M  V30 28094 C 2622.3 -5.86107 -3.19428 0
M  V30 28095 H 2621.57 -0.371912 -0.640908 0
M  V30 28096 H 2624.22 -1.49983 -1.19068 0
M  V30 28097 H 2622.52 -1.08577 -3.76455 0
M  V30 28098 H 2624.22 -1.47547 -3.72869 0
M  V30 28099 H 2620.81 -2.81903 -3.22845 0
M  V30 28100 H 2625 -3.79912 -3.19344 0
M  V30 28101 H 2620.25 -5.21235 -3.19569 0
M  V30 28102 H 2624.43 -6.1994 -3.17249 0
M  V30 28103 H 2622.05 -6.90997 -3.16903 0
M  V30 28104 N 2623.63 1.20858 -1.01149 0
M  V30 28105 C 2624.85 1.94622 -0.716732 0
M  V30 28106 C 2625.28 1.73965 0.715384 0
M  V30 28107 O 2624.64 1.03065 1.49155 0
M  V30 28108 C 2624.68 3.44933 -1.05136 0
M  V30 28109 O 2623.79 4.12089 -0.160204 0
M  V30 28110 H 2623.13 0.60821 -0.266415 0
M  V30 28111 H 2625.66 1.53433 -1.35349 0
M  V30 28112 H 2625.67 3.95532 -1.00093 0
M  V30 28113 H 2624.34 3.59291 -2.09482 0
M  V30 28114 H 2622.92 3.71938 -0.267722 0
M  V30 28115 N 2625.11 0.787064 1.3654 0
M  V30 28116 C 2626.35 0.358907 1.99599 0
M  V30 28117 C 2626.68 -1.06603 1.62325 0
M  V30 28118 O 2625.96 -1.73611 0.876889 0
M  V30 28119 C 2626.24 0.520006 3.56326 0
M  V30 28120 C 2626.1 1.98846 4.0346 0
M  V30 28121 C 2627.41 -0.0663964 4.4005 0
M  V30 28122 H 2624.53 0.131882 0.725104 0
M  V30 28123 H 2627.18 0.992964 1.61988 0
M  V30 28124 H 2625.33 -0.0197638 3.88495 0
M  V30 28125 H 2627 2.58911 3.81789 0
M  V30 28126 H 2625.24 2.4919 3.55087 0
M  V30 28127 H 2625.91 2.05216 5.12436 0
M  V30 28128 H 2628.39 0.394339 4.14227 0
M  V30 28129 H 2627.26 0.0763647 5.48847 0
M  V30 28130 H 2627.52 -1.15827 4.26657 0
M  V30 28131 N 2626.58 -1.48101 0.53888 0
M  V30 28132 C 2627.55 -2.28251 -0.208355 0
M  V30 28133 C 2628.55 -1.35893 -0.859632 0
M  V30 28134 O 2629.74 -1.58701 -0.718312 0
M  V30 28135 C 2626.87 -3.15038 -1.30246 0
M  V30 28136 H 2628.06 -2.95779 0.495459 0
M  V30 28137 H 2625.61 -1.53488 0.295139 0
M  V30 28138 H 2626.35 -2.52161 -2.03925 0
M  V30 28139 H 2626.13 -3.82986 -0.840484 0
M  V30 28140 H 2627.62 -3.75474 -1.8278 0
M  V30 28141 N 2628.06 -0.274434 -1.55192 0
M  V30 28142 C 2629.29 0.345907 -2.03988 0
M  V30 28143 C 2629.7 1.49518 -1.15282 0
M  V30 28144 O 2629.06 1.8168 -0.17279 0
M  V30 28145 C 2629.11 0.827569 -3.519 0
M  V30 28146 O 2628.83 -0.275932 -4.3723 0
M  V30 28147 C 2630.33 1.5158 -4.1658 0
M  V30 28148 H 2627.55 0.0789774 -0.666336 0
M  V30 28149 H 2630.1 -0.40633 -2.00423 0
M  V30 28150 H 2628.25 1.5299 -3.55911 0
M  V30 28151 H 2628.67 0.0942716 -5.24415 0
M  V30 28152 H 2630.14 1.80424 -5.21681 0
M  V30 28153 H 2630.62 2.44709 -3.64711 0
M  V30 28154 H 2631.22 0.857336 -4.16569 0
M  V30 28155 N 2629.54 1.576 -0.00170483 0
M  V30 28156 C 2630.45 2.11962 1.00544 0
M  V30 28157 C 2631.47 1.06528 1.37578 0
M  V30 28158 O 2632.64 1.38439 1.46276 0
M  V30 28159 C 2629.71 2.61354 2.27804 0
M  V30 28160 C 2628.77 3.81396 1.97067 0
M  V30 28161 C 2628 4.28423 3.1826 0
M  V30 28162 O 2628.22 3.74772 4.30002 0
M  V30 28163 O 2627.16 5.20561 3.02158 0
M  V30 28164 H 2630.98 2.98239 0.573321 0
M  V30 28165 H 2628.57 1.47812 0.217229 0
M  V30 28166 H 2630.45 2.93315 3.02563 0
M  V30 28167 H 2629.13 1.78174 2.70251 0
M  V30 28168 H 2628.03 3.54406 1.19779 0
M  V30 28169 H 2629.37 4.65655 1.59456 0
M  V30 28170 N 2631.02 -0.271076 1.55251 0
M  V30 28171 C 2631.93 -1.35711 1.91363 0
M  V30 28172 C 2632.94 -1.53939 0.811102 0
M  V30 28173 O 2634.12 -1.68028 1.11034 0
M  V30 28174 C 2631.18 -2.69599 2.17985 0
M  V30 28175 C 2630.25 -2.60101 3.41535 0
M  V30 28176 C 2629.48 -3.87604 3.66878 0
M  V30 28177 O 2629.7 -4.88374 2.94698 0
M  V30 28178 O 2628.64 -3.87691 4.60412 0
M  V30 28179 H 2632.46 -1.08083 2.83817 0
M  V30 28180 H 2630.05 -0.469767 1.41822 0
M  V30 28181 H 2631.93 -3.48761 2.36524 0
M  V30 28182 H 2630.6 -2.97009 1.28713 0
M  V30 28183 H 2629.51 -1.79308 3.28328 0
M  V30 28184 H 2630.84 -2.3764 4.31032 0
M  V30 28185 N 2632.5 -1.48217 -0.535675 0
M  V30 28186 C 2633.72 -1.5985 -1.32147 0
M  V30 28187 C 2634.15 -0.256874 -1.86338 0
M  V30 28188 O 2633.5 0.770603 -1.64108 0
M  V30 28189 C 2633.55 -2.64386 -2.45219 0
M  V30 28190 O 2632.66 -2.2115 -3.48089 0
M  V30 28191 H 2632 -0.536215 -0.391624 0
M  V30 28192 H 2634.53 -1.94162 -0.645168 0
M  V30 28193 H 2634.54 -2.85481 -2.91486 0
M  V30 28194 H 2633.21 -3.6179 -2.05137 0
M  V30 28195 H 2631.79 -2.10244 -3.0798 0
M  V30 28196 N 2633.97 0.784108 -1.3671 0
M  V30 28197 C 2635.2 1.57303 -1.344 0
M  V30 28198 C 2635.62 1.88657 0.0735246 0
M  V30 28199 O 2634.97 1.50525 1.03191 0
M  V30 28200 C 2635.03 2.89082 -2.17058 0
M  V30 28201 O 2634.75 2.59077 -3.53286 0
M  V30 28202 C 2636.25 3.83365 -2.22589 0
M  V30 28203 H 2633.47 0.487728 -0.460828 0
M  V30 28204 H 2636.01 0.972788 -1.79881 0
M  V30 28205 H 2634.17 3.45561 -1.75119 0
M  V30 28206 H 2634.58 3.43376 -3.96476 0
M  V30 28207 H 2636.05 4.72873 -2.84772 0
M  V30 28208 H 2636.53 4.21601 -1.23083 0
M  V30 28209 H 2637.14 3.32818 -2.64787 0
M  V30 28210 N 2635.45 1.21076 1.00888 0
M  V30 28211 C 2636.36 0.982462 2.13037 0
M  V30 28212 C 2637.38 -0.0641856 1.73882 0
M  V30 28213 O 2638.55 0.124996 2.01012 0
M  V30 28214 C 2635.62 0.545864 3.42376 0
M  V30 28215 C 2634.68 1.66427 3.95728 0
M  V30 28216 C 2633.91 1.24841 5.18893 0
M  V30 28217 O 2634.14 0.120365 5.70273 0
M  V30 28218 O 2633.07 2.05883 5.65593 0
M  V30 28219 H 2636.9 1.92167 2.35171 0
M  V30 28220 H 2634.48 0.995305 1.11418 0
M  V30 28221 H 2636.36 0.311986 4.20244 0
M  V30 28222 H 2635.04 -0.364671 3.21639 0
M  V30 28223 H 2633.95 1.95251 3.19105 0
M  V30 28224 H 2635.28 2.55209 4.20867 0
M  V30 28225 N 2636.93 -1.2032 1.01789 0
M  V30 28226 C 2638.34 -1.71437 0.739337 0
M  V30 28227 C 2638.69 -1.81628 -0.742009 0
M  V30 28228 O 2637.82 -1.47974 -1.57901 0
M  V30 28229 C 2638.41 -3.11371 1.33543 0
M  V30 28230 C 2636.97 -3.59793 1.10572 0
M  V30 28231 C 2636.12 -2.3696 1.44032 0
M  V30 28232 H 2639.07 -1.05315 1.1872 0
M  V30 28233 H 2639.09 -3.73497 0.726676 0
M  V30 28234 H 2638.6 -3.03921 2.41357 0
M  V30 28235 H 2636.7 -3.72572 0.045306 0
M  V30 28236 H 2636.82 -4.44538 1.78668 0
M  V30 28237 H 2635.18 -2.39764 0.859373 0
M  V30 28238 H 2635.96 -2.32151 2.52905 0
M  V30 28239 N 2638.41 -0.794293 -1.3612 0
M  V30 28240 C 2639.34 -0.210369 -2.3255 0
M  V30 28241 C 2640.32 0.657359 -1.56885 0
M  V30 28242 O 2641.5 0.590174 -1.85015 0
M  V30 28243 C 2638.63 0.651759 -3.4113 0
M  V30 28244 C 2637.59 -0.11647 -4.27841 0
M  V30 28245 C 2636.91 0.866567 -5.27631 0
M  V30 28246 C 2638.21 -1.30846 -5.05645 0
M  V30 28247 H 2639.91 -1.01599 -2.81635 0
M  V30 28248 H 2637.45 -0.490005 -1.35407 0
M  V30 28249 H 2639.41 1.07023 -4.07583 0
M  V30 28250 H 2638.13 1.49013 -2.90624 0
M  V30 28251 H 2636.79 -0.515979 -3.62951 0
M  V30 28252 H 2636.44 1.70011 -4.73398 0
M  V30 28253 H 2636.14 0.356947 -5.86515 0
M  V30 28254 H 2637.66 1.28351 -5.96958 0
M  V30 28255 H 2639.08 -0.965492 -5.65112 0
M  V30 28256 H 2637.47 -1.75171 -5.73964 0
M  V30 28257 H 2638.54 -2.10136 -4.37002 0
M  V30 28258 N 2639.89 1.47813 -0.546727 0
M  V30 28259 C 2641.11 2.07389 -0.0213045 0
M  V30 28260 C 2641.54 1.39825 1.2582 0
M  V30 28261 O 2640.89 0.469711 1.7511 0
M  V30 28262 C 2640.94 3.60206 0.168439 0
M  V30 28263 O 2640.05 3.93524 1.2334 0
M  V30 28264 H 2639.39 0.662361 -0.0466225 0
M  V30 28265 H 2641.92 1.89984 -0.759421 0
M  V30 28266 H 2641.93 4.06171 0.385911 0
M  V30 28267 H 2640.6 4.08782 -0.766147 0
M  V30 28268 H 2639.18 3.59318 0.997256 0
M  V30 28269 N 2641.36 0.28266 1.55044 0
M  V30 28270 C 2642.27 -0.61143 2.26492 0
M  V30 28271 C 2643.29 -1.16381 1.2935 0
M  V30 28272 O 2644.47 -1.1925 1.623 0
M  V30 28273 C 2641.53 -1.77558 2.97782 0
M  V30 28274 C 2640.59 -1.25911 4.1042 0
M  V30 28275 C 2639.83 -2.36778 4.78301 0
M  V30 28276 O 2640.05 -3.56295 4.45432 0
M  V30 28277 O 2638.98 -2.04507 5.66092 0
M  V30 28278 H 2642.81 -0.0324082 3.03683 0
M  V30 28279 H 2640.39 0.0497838 1.49317 0
M  V30 28280 H 2642.28 -2.45421 3.42559 0
M  V30 28281 H 2640.95 -2.34155 2.23502 0
M  V30 28282 H 2639.86 -0.546732 3.70083 0
M  V30 28283 H 2641.19 -0.738801 4.86624 0
M  V30 28284 N 2642.84 -1.57597 0.0100627 0
M  V30 28285 C 2644.12 -1.82249 -0.710264 0
M  V30 28286 C 2644.5 -0.889945 -1.91424 0
M  V30 28287 O 2643.85 0.0589891 -2.28424 0
M  V30 28288 C 2644.06 -3.30995 -1.1065 0
M  V30 28289 C 2645.41 -3.96989 -1.50614 0
M  V30 28290 O 2646.43 -3.35378 -1.20001 0
M  V30 28291 O 2645.29 -5.05543 -2.07578 0
M  V30 28292 H 2642.38 -0.750811 -0.346717 0
M  V30 28293 H 2644.93 -1.69661 0.0362876 0
M  V30 28294 H 2643.7 -3.90508 -0.248758 0
M  V30 28295 H 2643.32 -3.48619 -1.91183 0
M  V30 28296 N 2644.32 0.262839 -1.55393 0
M  V30 28297 C 2645.6 1.01496 -1.67206 0
M  V30 28298 C 2645.98 2.03938 -0.545222 0
M  V30 28299 O 2645.33 2.23956 0.453427 0
M  V30 28300 C 2645.54 1.66265 -3.0685 0
M  V30 28301 C 2646.88 2.17048 -3.64932 0
M  V30 28302 O 2647.91 1.76234 -3.09548 0
M  V30 28303 O 2646.77 2.91939 -4.61989 0
M  V30 28304 H 2643.86 0.471426 -0.679475 0
M  V30 28305 H 2646.41 0.257889 -1.67729 0
M  V30 28306 H 2645.18 0.920848 -3.8031 0
M  V30 28307 H 2644.8 2.48633 -3.1027 0
M  V30 28308 N 2645.8 1.48499 0.527807 0
M  V30 28309 C 2647.05 1.56627 1.28352 0
M  V30 28310 C 2647.37 0.24113 1.93 0
M  V30 28311 O 2646.63 -0.768767 1.79968 0
M  V30 28312 C 2646.93 2.65489 2.39271 0
M  V30 28313 C 2646.59 4.07856 1.92261 0
M  V30 28314 C 2645.26 4.46605 1.79158 0
M  V30 28315 C 2647.61 4.97066 1.56763 0
M  V30 28316 C 2644.94 5.72366 1.28895 0
M  V30 28317 C 2647.29 6.23319 1.07961 0
M  V30 28318 C 2645.95 6.60922 0.93477 0
M  V30 28319 H 2645.22 0.57314 0.469672 0
M  V30 28320 H 2647.87 1.82225 0.588749 0
M  V30 28321 H 2646.17 2.33759 3.14426 0
M  V30 28322 H 2647.87 2.68993 2.97395 0
M  V30 28323 H 2644.46 3.77256 2.03411 0
M  V30 28324 H 2648.64 4.67806 1.65745 0
M  V30 28325 H 2643.9 6.00223 1.1637 0
M  V30 28326 H 2648.07 6.9184 0.795653 0
M  V30 28327 H 2645.7 7.58258 0.543098 0
M  V30 28328 N 2647.28 -0.776847 1.37123 0
M  V30 28329 C 2648.55 -1.52419 1.22588 0
M  V30 28330 C 2648.93 -2.10308 -0.182689 0
M  V30 28331 O 2648.28 -1.95082 -1.18976 0
M  V30 28332 C 2648.49 -2.60914 2.31787 0
M  V30 28333 C 2649.84 -3.28455 2.69077 0
M  V30 28334 O 2650.86 -2.71205 2.30925 0
M  V30 28335 O 2649.72 -4.31948 3.34788 0
M  V30 28336 H 2646.82 -0.674827 0.478056 0
M  V30 28337 H 2649.36 -0.814249 1.48889 0
M  V30 28338 H 2648.14 -2.16221 3.26135 0
M  V30 28339 H 2647.76 -3.39513 2.06922 0
M  V30 28340 N 2648.76 -1.2161 -1.00244 0
M  V30 28341 C 2649.69 -0.920929 -2.08792 0
M  V30 28342 C 2650.67 0.132524 -1.62059 0
M  V30 28343 O 2651.85 0.00300347 -1.885 0
M  V30 28344 C 2648.98 -0.383286 -3.36524 0
M  V30 28345 C 2648.02 -1.41994 -4.02169 0
M  V30 28346 S 2648.86 -2.99001 -4.4425 0
M  V30 28347 C 2650.01 -2.4685 -5.75166 0
M  V30 28348 H 2650.25 -1.84014 -2.33508 0
M  V30 28349 H 2647.78 -1.04611 -1.1356 0
M  V30 28350 H 2649.74 -0.0796593 -4.10423 0
M  V30 28351 H 2648.4 0.514657 -3.09855 0
M  V30 28352 H 2647.59 -0.993422 -4.94112 0
M  V30 28353 H 2647.19 -1.67177 -3.34556 0
M  V30 28354 H 2649.48 -1.87496 -6.51039 0
M  V30 28355 H 2650.43 -3.37246 -6.22632 0
M  V30 28356 H 2650.84 -1.8847 -5.32108 0
M  V30 28357 N 2650.23 1.19778 -1.02425 0
M  V30 28358 C 2651.48 1.89343 -0.718021 0
M  V30 28359 C 2651.81 1.79332 0.753004 0
M  V30 28360 O 2651.06 1.17695 1.56353 0
M  V30 28361 C 2651.36 3.39763 -1.10886 0
M  V30 28362 C 2651.03 3.69976 -2.57738 0
M  V30 28363 C 2649.69 3.77932 -2.97861 0
M  V30 28364 C 2652.04 3.8367 -3.5277 0
M  V30 28365 C 2649.37 3.97047 -4.31938 0
M  V30 28366 C 2651.72 4.04297 -4.86545 0
M  V30 28367 C 2650.39 4.10485 -5.26363 0
M  V30 28368 H 2649.66 0.692855 -0.262742 0
M  V30 28369 H 2652.3 1.41873 -1.28625 0
M  V30 28370 H 2650.61 3.891 -0.459162 0
M  V30 28371 H 2652.31 3.91899 -0.849501 0
M  V30 28372 H 2648.9 3.64389 -2.25652 0
M  V30 28373 H 2653.08 3.76872 -3.22926 0
M  V30 28374 H 2648.34 4.00075 -4.62331 0
M  V30 28375 H 2652.51 4.13836 -5.60101 0
M  V30 28376 H 2650.14 4.25049 -6.30268 0
M  V30 28377 N 2651.71 0.801501 1.35697 0
M  V30 28378 C 2652.94 0.391236 2.02862 0
M  V30 28379 C 2653.35 -1.00096 1.60553 0
M  V30 28380 O 2652.69 -1.65546 0.796244 0
M  V30 28381 C 2652.75 0.389362 3.57385 0
M  V30 28382 C 2652.42 1.7312 4.2294 0
M  V30 28383 C 2653.42 2.68867 4.44979 0
M  V30 28384 C 2651.1 2.01381 4.60164 0
M  V30 28385 C 2653.09 3.91062 5.03338 0
M  V30 28386 C 2650.78 3.23841 5.18238 0
M  V30 28387 C 2651.78 4.18499 5.39766 0
M  V30 28388 O 2651.47 5.38798 5.96617 0
M  V30 28389 H 2651.2 0.157743 0.657338 0
M  V30 28390 H 2653.75 1.08499 1.74405 0
M  V30 28391 H 2651.98 -0.360964 3.85012 0
M  V30 28392 H 2653.67 0.00210785 4.059 0
M  V30 28393 H 2654.44 2.48323 4.16606 0
M  V30 28394 H 2650.32 1.28516 4.42724 0
M  V30 28395 H 2653.86 4.64958 5.20057 0
M  V30 28396 H 2649.76 3.44257 5.46038 0
M  V30 28397 H 2650.53 5.40026 6.15073 0
M  V30 28398 N 2653.19 -1.47521 0.554558 0
M  V30 28399 C 2654.1 -2.33764 -0.197824 0
M  V30 28400 C 2655.12 -1.48027 -0.91455 0
M  V30 28401 O 2656.29 -1.80961 -0.884036 0
M  V30 28402 C 2653.36 -3.24667 -1.21622 0
M  V30 28403 C 2652.42 -4.26293 -0.507208 0
M  V30 28404 C 2651.65 -5.12853 -1.47709 0
M  V30 28405 O 2651.87 -5.01819 -2.71171 0
M  V30 28406 O 2650.81 -5.93484 -1.00303 0
M  V30 28407 H 2654.63 -2.99395 0.509543 0
M  V30 28408 H 2652.22 -1.46037 0.315202 0
M  V30 28409 H 2654.1 -3.80826 -1.80415 0
M  V30 28410 H 2652.78 -2.61668 -1.90556 0
M  V30 28411 H 2651.68 -3.73902 0.121844 0
M  V30 28412 H 2653.02 -4.91999 0.14063 0
M  V30 28413 N 2654.67 -0.290879 -1.54892 0
M  V30 28414 C 2655.92 0.322078 -1.99112 0
M  V30 28415 C 2656.23 1.55782 -1.18285 0
M  V30 28416 O 2657.44 2.24472 -1.52724 0
M  V30 28417 C 2655.89 0.624375 -3.54443 0
M  V30 28418 C 2655.5 -0.592451 -4.44065 0
M  V30 28419 C 2657.24 1.19909 -4.07213 0
M  V30 28420 C 2655.15 -0.263866 -5.90811 0
M  V30 28421 H 2654.08 0.12412 -0.743714 0
M  V30 28422 H 2656.73 -0.398001 -1.79132 0
M  V30 28423 H 2655.11 1.40378 -3.70284 0
M  V30 28424 H 2656.29 -1.36894 -4.39996 0
M  V30 28425 H 2654.6 -1.08509 -4.02013 0
M  V30 28426 H 2657.2 1.459 -5.1441 0
M  V30 28427 H 2657.54 2.13809 -3.57199 0
M  V30 28428 H 2658.08 0.481618 -3.94874 0
M  V30 28429 H 2654.81 -1.17117 -6.44953 0
M  V30 28430 H 2654.33 0.47555 -5.97912 0
M  V30 28431 H 2656.01 0.138241 -6.46852 0
M  V30 28432 N 2656.15 1.57589 -0.0184203 0
M  V30 28433 C 2657.39 1.9247 0.657779 0
M  V30 28434 C 2657.75 0.894404 1.70347 0
M  V30 28435 O 2657.04 -0.0910052 1.91384 0
M  V30 28436 C 2657.23 3.31863 1.3267 0
M  V30 28437 C 2657.06 4.48357 0.347325 0
M  V30 28438 C 2655.83 5.05276 -0.0489541 0
M  V30 28439 C 2658.03 5.12788 -0.394021 0
M  V30 28440 N 2656.01 6.05289 -1.02462 0
M  V30 28441 C 2657.38 6.07802 -1.22378 0
M  V30 28442 C 2659.44 4.95809 -0.455877 0
M  V30 28443 C 2658.14 6.87663 -2.10979 0
M  V30 28444 C 2660.17 5.7627 -1.32918 0
M  V30 28445 C 2659.53 6.70891 -2.14674 0
M  V30 28446 H 2655.63 0.752337 0.213337 0
M  V30 28447 H 2658.21 1.94523 -0.0830888 0
M  V30 28448 H 2656.38 3.3065 2.03777 0
M  V30 28449 H 2658.12 3.54122 1.95907 0
M  V30 28450 H 2654.87 4.72495 0.323273 0
M  V30 28451 H 2655.29 6.59983 -1.50837 0
M  V30 28452 H 2659.94 4.2249 0.161942 0
M  V30 28453 H 2657.65 7.60295 -2.7382 0
M  V30 28454 H 2661.24 5.65168 -1.38119 0
M  V30 28455 H 2660.12 7.32066 -2.81156 0
M  V30 28456 N 2657.62 -0.254594 1.5553 0
M  V30 28457 C 2658.53 -1.33674 1.92791 0
M  V30 28458 C 2659.55 -1.5307 0.827383 0
M  V30 28459 O 2660.73 -1.66841 1.1281 0
M  V30 28460 C 2657.79 -2.67272 2.20832 0
M  V30 28461 C 2656.85 -2.56464 3.44274 0
M  V30 28462 C 2656.08 -3.83691 3.70968 0
M  V30 28463 O 2656.31 -4.85221 2.99861 0
M  V30 28464 O 2655.24 -3.82786 4.64498 0
M  V30 28465 H 2659.07 -1.05066 2.84947 0
M  V30 28466 H 2656.65 -0.454698 1.42313 0
M  V30 28467 H 2658.53 -3.46233 2.4021 0
M  V30 28468 H 2657.21 -2.95627 1.31856 0
M  V30 28469 H 2656.12 -1.75815 3.30212 0
M  V30 28470 H 2657.45 -2.33055 4.33528 0
M  V30 28471 N 2659.1 -1.48777 -0.519925 0
M  V30 28472 C 2660.05 -1.64047 -1.6235 0
M  V30 28473 C 2661.02 -0.482279 -1.58944 0
M  V30 28474 O 2662.2 -0.707003 -1.77218 0
M  V30 28475 C 2659.34 -1.69552 -3.00576 0
M  V30 28476 C 2658.46 -2.96547 -3.1414 0
M  V30 28477 C 2657.59 -2.9315 -4.42986 0
M  V30 28478 C 2656.63 -4.14805 -4.50114 0
M  V30 28479 N 2655.77 -4.09428 -5.70363 0
M  V30 28480 H 2660.61 -2.58284 -1.48639 0
M  V30 28481 H 2658.14 -1.28078 -0.723493 0
M  V30 28482 H 2660.1 -1.70726 -3.80668 0
M  V30 28483 H 2658.73 -0.787973 -3.13035 0
M  V30 28484 H 2657.78 -3.05072 -2.27234 0
M  V30 28485 H 2659.1 -3.86533 -3.15268 0
M  V30 28486 H 2658.25 -2.92781 -5.3138 0
M  V30 28487 H 2656.99 -2.0091 -4.44395 0
M  V30 28488 H 2655.99 -4.15439 -3.60126 0
M  V30 28489 H 2657.22 -5.08216 -4.50436 0
M  V30 28490 H 2655.17 -3.20014 -5.72649 0
M  V30 28491 H 2655.08 -4.93129 -5.73027 0
M  V30 28492 H 2656.35 -4.13133 -6.61016 0
M  V30 28493 N 2660.58 0.769564 -1.37534 0
M  V30 28494 C 2661.83 1.5282 -1.32862 0
M  V30 28495 C 2662.15 1.94309 0.0862255 0
M  V30 28496 O 2661.41 1.64512 1.05992 0
M  V30 28497 C 2661.71 2.80436 -2.21563 0
M  V30 28498 C 2661.37 2.57989 -3.69801 0
M  V30 28499 C 2660.04 2.51576 -4.10199 0
M  V30 28500 C 2662.39 2.37967 -4.63704 0
M  V30 28501 C 2659.72 2.23134 -5.42612 0
M  V30 28502 C 2662.07 2.11049 -5.96356 0
M  V30 28503 C 2660.73 2.03082 -6.35857 0
M  V30 28504 H 2660 0.559206 -0.486178 0
M  V30 28505 H 2662.65 0.886248 -1.69758 0
M  V30 28506 H 2660.95 3.492 -1.77669 0
M  V30 28507 H 2662.65 3.38325 -2.15261 0
M  V30 28508 H 2659.24 2.63845 -3.37763 0
M  V30 28509 H 2663.43 2.41911 -4.33351 0
M  V30 28510 H 2658.68 2.15462 -5.72177 0
M  V30 28511 H 2662.86 1.94556 -6.68671 0
M  V30 28512 H 2660.48 1.80807 -7.38385 0
M  V30 28513 N 2662.06 1.22139 0.995977 0
M  V30 28514 C 2663.34 0.952672 1.70832 0
M  V30 28515 C 2663.72 -0.533083 2.04258 0
M  V30 28516 O 2663.06 -1.50031 1.72345 0
M  V30 28517 C 2663.27 1.84706 2.96116 0
M  V30 28518 C 2664.62 2.10131 3.68958 0
M  V30 28519 O 2665.65 1.82129 3.06117 0
M  V30 28520 O 2664.5 2.57539 4.82012 0
M  V30 28521 H 2661.6 0.35801 0.745492 0
M  V30 28522 H 2664.14 1.33111 1.0526 0
M  V30 28523 H 2662.92 2.85218 2.67893 0
M  V30 28524 H 2662.54 1.47002 3.69427 0
M  V30 28525 N 2663.54 -1.19233 1.03059 0
M  V30 28526 C 2664.95 -1.70643 0.757479 0
M  V30 28527 C 2665.3 -1.82405 -0.722703 0
M  V30 28528 O 2664.42 -1.4964 -1.56322 0
M  V30 28529 C 2665.02 -3.09937 1.36838 0
M  V30 28530 C 2663.58 -3.586 1.14382 0
M  V30 28531 C 2662.72 -2.35419 1.46537 0
M  V30 28532 H 2665.68 -1.0405 1.1983 0
M  V30 28533 H 2665.7 -3.72705 0.76625 0
M  V30 28534 H 2665.21 -3.01344 2.44567 0
M  V30 28535 H 2663.31 -3.72503 0.0848197 0
M  V30 28536 H 2663.42 -4.42618 1.83373 0
M  V30 28537 H 2661.79 -2.38839 0.884754 0
M  V30 28538 H 2662.57 -2.29455 2.55353 0
M  V30 28539 N 2665.01 -0.808686 -1.3527 0
M  V30 28540 C 2665.92 -0.222121 -2.33546 0
M  V30 28541 C 2666.94 0.635982 -1.61961 0
M  V30 28542 O 2668.12 0.547239 -1.93823 0
M  V30 28543 C 2665.18 0.61789 -3.4115 0
M  V30 28544 C 2664.24 -0.26095 -4.28506 0
M  V30 28545 C 2663.48 0.539063 -5.30971 0
M  V30 28546 O 2663.7 1.77358 -5.42126 0
M  V30 28547 O 2662.63 -0.0711584 -6.01858 0
M  V30 28548 H 2666.46 -1.03517 -2.85514 0
M  V30 28549 H 2664.04 -0.570519 -1.38078 0
M  V30 28550 H 2665.93 1.09627 -4.0689 0
M  V30 28551 H 2664.6 1.4085 -2.9145 0
M  V30 28552 H 2663.51 -0.786516 -3.65739 0
M  V30 28553 H 2664.84 -1.01556 -4.81609 0
M  V30 28554 N 2666.49 1.47225 -0.562374 0
M  V30 28555 C 2667.46 2.28554 0.172016 0
M  V30 28556 C 2668.46 1.37244 0.837904 0
M  V30 28557 O 2669.65 1.59823 0.692973 0
M  V30 28558 C 2666.78 3.1707 1.25218 0
M  V30 28559 H 2667.97 2.94953 -0.542453 0
M  V30 28560 H 2665.52 1.52999 -0.31952 0
M  V30 28561 H 2666.26 2.55373 1.99888 0
M  V30 28562 H 2666.04 3.84275 0.779448 0
M  V30 28563 H 2667.53 3.78335 1.76784 0
M  V30 28564 N 2667.97 0.299089 1.54736 0
M  V30 28565 C 2669.2 -0.313411 2.04512 0
M  V30 28566 C 2669.61 -1.47665 1.17646 0
M  V30 28567 O 2668.97 -1.81382 0.201672 0
M  V30 28568 C 2669.02 -0.77148 3.53172 0
M  V30 28569 O 2668.74 0.345456 4.36736 0
M  V30 28570 C 2670.24 -1.44933 4.18938 0
M  V30 28571 H 2667.46 -0.0683666 0.667508 0
M  V30 28572 H 2670.01 0.438164 1.99751 0
M  V30 28573 H 2668.16 -1.47308 3.583 0
M  V30 28574 H 2668.58 -0.0108297 5.24499 0
M  V30 28575 H 2670.05 -1.72102 5.24485 0
M  V30 28576 H 2670.53 -2.38876 3.68558 0
M  V30 28577 H 2671.13 -0.790955 4.1788 0
M  V30 28578 N 2669.45 -1.57577 0.0267774 0
M  V30 28579 C 2670.38 -2.06976 -0.984558 0
M  V30 28580 C 2671.39 -0.992728 -1.2903 0
M  V30 28581 O 2672.58 -1.26897 -1.25536 0
M  V30 28582 C 2669.68 -2.47736 -2.31257 0
M  V30 28583 C 2668.86 -3.78491 -2.19234 0
M  V30 28584 C 2667.91 -4.05827 -3.34949 0
M  V30 28585 O 2666.94 -4.76112 -3.11939 0
M  V30 28586 N 2668.14 -3.55817 -4.58666 0
M  V30 28587 H 2670.91 -2.94363 -0.563092 0
M  V30 28588 H 2668.47 -1.61107 -0.160033 0
M  V30 28589 H 2670.46 -2.63118 -3.07492 0
M  V30 28590 H 2669.03 -1.65728 -2.65053 0
M  V30 28591 H 2668.25 -3.72929 -1.27741 0
M  V30 28592 H 2669.54 -4.64162 -2.08401 0
M  V30 28593 H 2668.94 -2.98951 -4.80255 0
M  V30 28594 H 2667.49 -3.76481 -5.32076 0
M  V30 28595 N 2670.93 0.246342 -1.55663 0
M  V30 28596 C 2672.17 0.974304 -1.77521 0
M  V30 28597 C 2672.5 1.85297 -0.591198 0
M  V30 28598 O 2671.76 1.91019 0.425463 0
M  V30 28599 C 2672.06 1.86489 -3.04888 0
M  V30 28600 C 2671.72 1.14153 -4.36211 0
M  V30 28601 C 2670.38 0.941618 -4.71897 0
M  V30 28602 C 2672.74 0.628867 -5.17392 0
M  V30 28603 C 2670.06 0.216749 -5.86299 0
M  V30 28604 C 2672.42 -0.0825385 -6.32546 0
M  V30 28605 C 2671.08 -0.293925 -6.66853 0
M  V30 28606 H 2670.35 0.356523 -0.649594 0
M  V30 28607 H 2673 0.24436 -1.89935 0
M  V30 28608 H 2671.3 2.66191 -2.87488 0
M  V30 28609 H 2673 2.42984 -3.18998 0
M  V30 28610 H 2669.59 1.30729 -4.08176 0
M  V30 28611 H 2673.77 0.770857 -4.90277 0
M  V30 28612 H 2669.03 0.0425049 -6.11385 0
M  V30 28613 H 2673.2 -0.487415 -6.94692 0
M  V30 28614 H 2670.83 -0.857561 -7.55348 0
M  V30 28615 N 2672.4 1.4905 0.512027 0
M  V30 28616 C 2673.65 1.57229 1.2634 0
M  V30 28617 C 2673.97 0.259189 1.93875 0
M  V30 28618 O 2675.17 0.219405 2.70612 0
M  V30 28619 C 2673.63 2.77366 2.29338 0
M  V30 28620 C 2673.24 4.15391 1.67792 0
M  V30 28621 C 2674.98 2.94869 3.05373 0
M  V30 28622 C 2672.89 5.26765 2.68836 0
M  V30 28623 H 2671.82 0.58539 0.475221 0
M  V30 28624 H 2674.47 1.75418 0.53859 0
M  V30 28625 H 2672.85 2.52649 3.04934 0
M  V30 28626 H 2674.02 4.50201 0.982636 0
M  V30 28627 H 2672.34 4.03155 1.04187 0
M  V30 28628 H 2674.94 3.75245 3.80914 0
M  V30 28629 H 2675.28 2.05006 3.62323 0
M  V30 28630 H 2675.81 3.19573 2.36892 0
M  V30 28631 H 2672.55 6.18651 2.16681 0
M  V30 28632 H 2672.07 4.96422 3.36638 0
M  V30 28633 H 2673.75 5.55636 3.31478 0
M  V30 28634 N 2673.88 -0.762259 1.3794 0
M  V30 28635 C 2674.79 -1.90669 1.36684 0
M  V30 28636 C 2675.81 -1.71969 0.265108 0
M  V30 28637 O 2676.98 -1.95041 0.502089 0
M  V30 28638 C 2674.05 -3.25923 1.18217 0
M  V30 28639 C 2673.11 -3.5721 2.38116 0
M  V30 28640 C 2672.34 -4.86011 2.20521 0
M  V30 28641 O 2672.57 -5.57755 1.19439 0
M  V30 28642 O 2671.5 -5.16577 3.0892 0
M  V30 28643 H 2675.33 -1.94681 2.33095 0
M  V30 28644 H 2672.91 -0.906335 1.18768 0
M  V30 28645 H 2674.79 -4.06805 1.09944 0
M  V30 28646 H 2673.47 -3.22742 0.248864 0
M  V30 28647 H 2672.38 -2.76524 2.51963 0
M  V30 28648 H 2673.71 -3.65143 3.30047 0
M  V30 28649 N 2675.36 -1.22666 -0.989486 0
M  V30 28650 C 2676.59 -1.07813 -1.76238 0
M  V30 28651 C 2677 0.374003 -1.85467 0
M  V30 28652 O 2676.34 1.27085 -1.32647 0
M  V30 28653 C 2676.4 -1.61855 -3.21004 0
M  V30 28654 C 2676.07 -3.10509 -3.35311 0
M  V30 28655 C 2677.06 -4.07901 -3.22354 0
M  V30 28656 C 2674.75 -3.50034 -3.60252 0
M  V30 28657 C 2676.74 -5.42804 -3.34129 0
M  V30 28658 C 2674.43 -4.85084 -3.71667 0
M  V30 28659 C 2675.43 -5.81278 -3.58615 0
M  V30 28660 O 2675.12 -7.13876 -3.69643 0
M  V30 28661 H 2674.85 -0.378351 -0.560202 0
M  V30 28662 H 2677.4 -1.62794 -1.25249 0
M  V30 28663 H 2675.63 -1.01285 -3.732 0
M  V30 28664 H 2677.32 -1.42613 -3.80021 0
M  V30 28665 H 2678.09 -3.78709 -3.02993 0
M  V30 28666 H 2673.97 -2.75682 -3.69487 0
M  V30 28667 H 2677.51 -6.17869 -3.23858 0
M  V30 28668 H 2673.41 -5.13957 -3.90536 0
M  V30 28669 H 2674.18 -7.21501 -3.86494 0
M  V30 28670 N 2676.84 1.18685 -1.0369 0
M  V30 28671 C 2678.06 1.93058 -0.757853 0
M  V30 28672 C 2678.49 1.75443 0.678323 0
M  V30 28673 O 2677.85 1.06205 1.46936 0
M  V30 28674 C 2677.9 3.42625 -1.12429 0
M  V30 28675 O 2677 4.11656 -0.247578 0
M  V30 28676 H 2676.34 0.602422 -0.279256 0
M  V30 28677 H 2678.87 1.50528 -1.38573 0
M  V30 28678 H 2678.88 3.9332 -1.0846 0
M  V30 28679 H 2677.56 3.54767 -2.17056 0
M  V30 28680 H 2676.13 3.71286 -0.346555 0
M  V30 28681 N 2678.32 0.815849 1.34839 0
M  V30 28682 C 2679.56 0.401164 1.98793 0
M  V30 28683 C 2679.9 -1.03136 1.6455 0
M  V30 28684 O 2679.17 -1.71712 0.913517 0
M  V30 28685 C 2679.45 0.595471 3.55142 0
M  V30 28686 C 2679.31 2.07359 3.99152 0
M  V30 28687 C 2680.63 0.0269596 4.40092 0
M  V30 28688 H 2677.75 0.147232 0.722144 0
M  V30 28689 H 2680.39 1.0271 1.59846 0
M  V30 28690 H 2678.54 0.0626462 3.88449 0
M  V30 28691 H 2680.21 2.66951 3.76211 0
M  V30 28692 H 2678.45 2.56665 3.49722 0
M  V30 28693 H 2679.12 2.16039 5.07968 0
M  V30 28694 H 2681.6 0.482114 4.13298 0
M  V30 28695 H 2680.48 0.192766 5.48561 0
M  V30 28696 H 2680.74 -1.06751 4.29018 0
M  V30 28697 N 2679.8 -1.46924 0.570174 0
M  V30 28698 C 2680.73 -2.32963 -0.158233 0
M  V30 28699 C 2681.71 -1.44584 -0.896067 0
M  V30 28700 O 2682.89 -1.73422 -0.873991 0
M  V30 28701 C 2680.02 -3.26621 -1.1805 0
M  V30 28702 C 2678.98 -4.24343 -0.558305 0
M  V30 28703 C 2678.3 -5.07418 -1.68614 0
M  V30 28704 C 2679.6 -5.19936 0.496386 0
M  V30 28705 H 2681.3 -2.94114 0.560098 0
M  V30 28706 H 2678.84 -1.41431 0.2708 0
M  V30 28707 H 2680.79 -3.85661 -1.69834 0
M  V30 28708 H 2679.52 -2.63552 -1.92894 0
M  V30 28709 H 2678.18 -3.66548 -0.0616513 0
M  V30 28710 H 2677.83 -4.40743 -2.42394 0
M  V30 28711 H 2677.53 -5.73589 -1.27554 0
M  V30 28712 H 2679.05 -5.69319 -2.20699 0
M  V30 28713 H 2680.46 -5.73264 0.064106 0
M  V30 28714 H 2678.86 -5.9438 0.826595 0
M  V30 28715 H 2679.93 -4.64627 1.38743 0
M  V30 28716 N 2681.27 -0.307291 -1.54575 0
M  V30 28717 C 2682.5 0.305343 -2.0514 0
M  V30 28718 C 2682.92 1.46257 -1.18281 0
M  V30 28719 O 2682.28 1.8032 -0.188275 0
M  V30 28720 C 2682.33 0.733221 -3.53067 0
M  V30 28721 O 2681.43 1.83735 -3.69209 0
M  V30 28722 H 2680.77 0.0581989 -0.661445 0
M  V30 28723 H 2683.3 -0.450966 -1.99568 0
M  V30 28724 H 2683.31 1.02032 -3.95036 0
M  V30 28725 H 2681.99 -0.113271 -4.15746 0
M  V30 28726 H 2680.57 1.55031 -3.39146 0
M  V30 28727 N 2682.75 1.57561 -0.0351337 0
M  V30 28728 C 2684.03 1.83356 0.68118 0
M  V30 28729 C 2684.41 0.920286 1.89984 0
M  V30 28730 O 2683.76 -0.0226414 2.28489 0
M  V30 28731 C 2683.97 3.32713 1.0537 0
M  V30 28732 C 2685.31 3.99335 1.44279 0
M  V30 28733 O 2686.34 3.37244 1.14651 0
M  V30 28734 O 2685.2 5.08781 1.99509 0
M  V30 28735 H 2682.29 0.756232 0.334728 0
M  V30 28736 H 2684.84 1.69582 -0.0632746 0
M  V30 28737 H 2683.61 3.90855 0.1866 0
M  V30 28738 H 2683.23 3.51616 1.85612 0
M  V30 28739 N 2684.23 -0.238084 1.55791 0
M  V30 28740 C 2685.48 -0.964876 1.78035 0
M  V30 28741 C 2685.8 -1.84981 0.601016 0
M  V30 28742 O 2685.06 -1.91242 -0.415327 0
M  V30 28743 C 2685.36 -1.8487 3.05873 0
M  V30 28744 C 2685.02 -1.11838 4.3681 0
M  V30 28745 C 2683.69 -0.916579 4.7239 0
M  V30 28746 C 2686.04 -0.601419 5.17718 0
M  V30 28747 C 2683.37 -0.185653 5.86406 0
M  V30 28748 C 2685.72 0.116083 6.32493 0
M  V30 28749 C 2684.38 0.329285 6.66687 0
M  V30 28750 H 2683.65 -0.353073 0.651476 0
M  V30 28751 H 2686.3 -0.234284 1.90061 0
M  V30 28752 H 2684.6 -2.64663 2.88896 0
M  V30 28753 H 2686.3 -2.41288 3.20283 0
M  V30 28754 H 2682.89 -1.28562 4.08864 0
M  V30 28755 H 2687.08 -0.744845 4.90679 0
M  V30 28756 H 2682.33 -0.0100811 6.11399 0
M  V30 28757 H 2686.51 0.524249 6.94424 0
M  V30 28758 H 2684.13 0.897607 7.54882 0
M  V30 28759 N 2685.71 -1.4932 -0.504115 0
M  V30 28760 C 2686.67 -1.65247 -1.58827 0
M  V30 28761 C 2687.67 -0.524412 -1.52008 0
M  V30 28762 O 2688.86 -0.790797 -1.55216 0
M  V30 28763 C 2685.99 -1.64692 -2.98478 0
M  V30 28764 H 2687.19 -2.61942 -1.46036 0
M  V30 28765 H 2684.74 -1.38304 -0.72812 0
M  V30 28766 H 2685.47 -0.695699 -3.1675 0
M  V30 28767 H 2685.26 -2.46612 -3.04836 0
M  V30 28768 H 2686.75 -1.79082 -3.77252 0
M  V30 28769 N 2687.19 0.754933 -1.38342 0
M  V30 28770 C 2688.46 1.50449 -1.24998 0
M  V30 28771 C 2688.84 2.10572 0.149207 0
M  V30 28772 O 2688.19 1.9695 1.15857 0
M  V30 28773 C 2688.4 2.57193 -2.35908 0
M  V30 28774 C 2689.75 3.24133 -2.74268 0
M  V30 28775 O 2690.77 2.67497 -2.3521 0
M  V30 28776 O 2689.63 4.26567 -3.41617 0
M  V30 28777 H 2686.73 0.667136 -0.488732 0
M  V30 28778 H 2689.27 0.790459 -1.50166 0
M  V30 28779 H 2688.04 2.11005 -3.29534 0
M  V30 28780 H 2687.67 3.36178 -2.12297 0
M  V30 28781 N 2688.66 1.23189 0.982967 0
M  V30 28782 C 2689.63 1.01201 2.05648 0
M  V30 28783 C 2690.63 -0.0252181 1.6078 0
M  V30 28784 O 2691.82 0.214273 1.72877 0
M  V30 28785 C 2688.95 0.530715 3.36744 0
M  V30 28786 H 2690.14 1.96465 2.26587 0
M  V30 28787 H 2687.69 1.05197 1.156 0
M  V30 28788 H 2688.43 -0.425817 3.21492 0
M  V30 28789 H 2688.21 1.27916 3.70648 0
M  V30 28790 H 2689.7 0.397439 4.15704 0
M  V30 28791 N 2690.14 -1.18133 1.04318 0
M  V30 28792 C 2691.07 -2.24057 0.657338 0
M  V30 28793 C 2692.05 -1.66654 -0.340649 0
M  V30 28794 O 2693.24 -1.92948 -0.22019 0
M  V30 28795 C 2690.37 -3.47293 0.0221325 0
M  V30 28796 C 2689.32 -4.17461 0.943931 0
M  V30 28797 C 2688.65 -5.3442 0.173067 0
M  V30 28798 C 2689.95 -4.70673 2.26417 0
M  V30 28799 H 2691.64 -2.56586 1.54285 0
M  V30 28800 H 2689.19 -1.23334 0.743284 0
M  V30 28801 H 2691.14 -4.206 -0.259533 0
M  V30 28802 H 2689.86 -3.14004 -0.898268 0
M  V30 28803 H 2688.52 -3.46055 1.21002 0
M  V30 28804 H 2688.17 -4.9738 -0.74982 0
M  V30 28805 H 2687.87 -5.82303 0.7872 0
M  V30 28806 H 2689.4 -6.10516 -0.101521 0
M  V30 28807 H 2690.81 -5.35661 2.04303 0
M  V30 28808 H 2689.21 -5.291 2.83149 0
M  V30 28809 H 2690.28 -3.87957 2.9089 0
M  V30 28810 N 2691.62 -0.822988 -1.34405 0
M  V30 28811 C 2692.85 -0.42307 -2.03039 0
M  V30 28812 C 2693.27 0.963168 -1.61569 0
M  V30 28813 O 2692.63 1.62677 -0.800367 0
M  V30 28814 C 2692.68 -0.533272 -3.56635 0
M  V30 28815 O 2691.78 0.446867 -4.09972 0
M  V30 28816 H 2691.12 -0.174183 -0.640747 0
M  V30 28817 H 2693.65 -1.11342 -1.71651 0
M  V30 28818 H 2693.66 -0.409062 -4.05944 0
M  V30 28819 H 2692.34 -1.54432 -3.86165 0
M  V30 28820 H 2690.91 0.281536 -3.71836 0
M  V30 28821 N 2693.1 1.4662 -0.577957 0
M  V30 28822 C 2694.01 2.3405 0.160609 0
M  V30 28823 C 2695.02 1.49463 0.890885 0
M  V30 28824 O 2696.2 1.82344 0.855134 0
M  V30 28825 C 2693.27 3.26561 1.16442 0
M  V30 28826 C 2692.33 4.27046 0.439325 0
M  V30 28827 C 2691.56 5.15138 1.39531 0
M  V30 28828 O 2691.78 5.0607 2.63153 0
M  V30 28829 O 2690.72 5.95004 0.908481 0
M  V30 28830 H 2694.54 2.98546 -0.557109 0
M  V30 28831 H 2692.13 1.45517 -0.338395 0
M  V30 28832 H 2694.01 3.83648 1.74333 0
M  V30 28833 H 2692.68 2.64667 1.86369 0
M  V30 28834 H 2691.59 3.7366 -0.181313 0
M  V30 28835 H 2692.92 4.91713 -0.218885 0
M  V30 28836 N 2694.58 0.315484 1.5441 0
M  V30 28837 C 2695.99 -0.174233 1.85885 0
M  V30 28838 C 2696.34 -1.52271 1.23726 0
M  V30 28839 O 2695.46 -2.09547 0.540283 0
M  V30 28840 C 2696.06 -0.322922 3.37258 0
M  V30 28841 C 2694.62 -0.756857 3.68712 0
M  V30 28842 C 2693.76 0.126244 2.77012 0
M  V30 28843 H 2696.72 0.536034 1.49373 0
M  V30 28844 H 2696.74 -1.15516 3.62541 0
M  V30 28845 H 2696.25 0.658669 3.8247 0
M  V30 28846 H 2694.35 -1.74848 3.29027 0
M  V30 28847 H 2694.46 -0.566207 4.75742 0
M  V30 28848 H 2692.83 -0.396875 2.51589 0
M  V30 28849 H 2693.61 1.10445 3.25049 0
M  V30 28850 N 2696.05 -1.5754 0.0434891 0
M  V30 28851 C 2696.98 -2.1411 -0.931613 0
M  V30 28852 C 2697.97 -1.06082 -1.32969 0
M  V30 28853 O 2699.15 -1.33985 -1.40576 0
M  V30 28854 C 2696.28 -2.67986 -2.20909 0
M  V30 28855 C 2695.23 -3.8093 -1.95132 0
M  V30 28856 C 2694.56 -4.21291 -3.29269 0
M  V30 28857 C 2695.86 -5.06397 -1.27904 0
M  V30 28858 H 2697.55 -2.95838 -0.460445 0
M  V30 28859 H 2695.1 -1.42309 -0.220033 0
M  V30 28860 H 2697.05 -3.06199 -2.89517 0
M  V30 28861 H 2695.78 -1.83439 -2.70218 0
M  V30 28862 H 2694.44 -3.43177 -1.28939 0
M  V30 28863 H 2694.08 -3.33706 -3.76364 0
M  V30 28864 H 2693.78 -4.97409 -3.12823 0
M  V30 28865 H 2695.31 -4.62098 -3.99121 0
M  V30 28866 H 2696.72 -5.42105 -1.86534 0
M  V30 28867 H 2695.12 -5.87607 -1.21809 0
M  V30 28868 H 2696.19 -4.84234 -0.253981 0
M  V30 28869 N 2697.53 0.229818 -1.55915 0
M  V30 28870 C 2698.95 0.57914 -1.48722 0
M  V30 28871 C 2699.15 1.87538 -0.737009 0
M  V30 28872 O 2698.2 2.51017 -0.273302 0
M  V30 28873 C 2699.52 0.66603 -2.93231 0
M  V30 28874 C 2701.07 0.757214 -3.03703 0
M  V30 28875 C 2701.54 0.875521 -4.49554 0
M  V30 28876 N 2703.03 0.939955 -4.53563 0
M  V30 28877 C 2703.77 1.05106 -5.63685 0
M  V30 28878 N 2703.26 1.12663 -6.83578 0
M  V30 28879 N 2705.06 1.08555 -5.51518 0
M  V30 28880 H 2697.21 -0.620893 -2.03122 0
M  V30 28881 H 2699.47 -0.216727 -0.922894 0
M  V30 28882 H 2699.18 -0.216701 -3.51032 0
M  V30 28883 H 2699.05 1.53237 -3.44671 0
M  V30 28884 H 2701.44 1.63039 -2.45972 0
M  V30 28885 H 2701.52 -0.134628 -2.55445 0
M  V30 28886 H 2701.16 0.00683423 -5.079 0
M  V30 28887 H 2701.09 1.78266 -4.95509 0
M  V30 28888 H 2703.58 0.892204 -3.67217 0
M  V30 28889 H 2703.9 1.21096 -7.63253 0
M  V30 28890 H 2702.24 1.09591 -6.86305 0
M  V30 28891 H 2705.43 1.02311 -4.56782 0
M  V30 28892 H 2705.6 1.16869 -6.37374 0
M  V30 28893 N 2699.01 1.49585 0.49619 0
M  V30 28894 C 2700.26 1.58561 1.24665 0
M  V30 28895 C 2700.57 0.279737 1.93589 0
M  V30 28896 O 2701.78 0.248095 2.70364 0
M  V30 28897 C 2700.23 2.79783 2.26384 0
M  V30 28898 C 2699.84 4.17148 1.63377 0
M  V30 28899 C 2701.59 2.98091 3.02228 0
M  V30 28900 C 2699.49 5.29587 2.63234 0
M  V30 28901 H 2698.42 0.590397 0.468985 0
M  V30 28902 H 2701.07 1.75979 0.519954 0
M  V30 28903 H 2699.46 2.55869 3.02237 0
M  V30 28904 H 2700.63 4.51218 0.934831 0
M  V30 28905 H 2698.95 4.04237 0.99905 0
M  V30 28906 H 2701.54 3.79264 3.76913 0
M  V30 28907 H 2701.89 2.08838 3.60129 0
M  V30 28908 H 2702.42 3.22067 2.3349 0
M  V30 28909 H 2699.16 6.20915 2.10108 0
M  V30 28910 H 2698.68 4.99965 3.31354 0
M  V30 28911 H 2700.36 5.59121 3.25566 0
M  V30 28912 N 2700.49 -0.747586 1.3874 0
M  V30 28913 C 2701.45 -1.8431 1.36245 0
M  V30 28914 C 2702.45 -1.58654 0.261839 0
M  V30 28915 O 2703.64 -1.66287 0.51906 0
M  V30 28916 C 2700.77 -3.21886 1.12259 0
M  V30 28917 H 2701.97 -1.87929 2.33715 0
M  V30 28918 H 2699.52 -0.949924 1.24121 0
M  V30 28919 H 2700.25 -3.23933 0.15419 0
M  V30 28920 H 2700.04 -3.41903 1.91949 0
M  V30 28921 H 2701.53 -4.01958 1.13223 0
M  V30 28922 N 2701.97 -1.23709 -0.97642 0
M  V30 28923 C 2702.91 -1.02178 -2.0695 0
M  V30 28924 C 2703.88 0.0620742 -1.65984 0
M  V30 28925 O 2705.07 -0.0908241 -1.90584 0
M  V30 28926 C 2702.21 -0.62333 -3.39424 0
M  V30 28927 C 2701.32 -1.77973 -3.93636 0
M  V30 28928 C 2700.46 -1.32769 -5.1434 0
M  V30 28929 C 2699.5 -2.45459 -5.60729 0
M  V30 28930 N 2698.63 -2.01184 -6.72658 0
M  V30 28931 H 2703.47 -1.95738 -2.24701 0
M  V30 28932 H 2701.01 -0.975053 -1.10141 0
M  V30 28933 H 2702.97 -0.373393 -4.15526 0
M  V30 28934 H 2701.6 0.275273 -3.21624 0
M  V30 28935 H 2700.65 -2.14356 -3.14254 0
M  V30 28936 H 2701.96 -2.62678 -4.2403 0
M  V30 28937 H 2701.12 -1.03611 -5.97787 0
M  V30 28938 H 2699.85 -0.451061 -4.8561 0
M  V30 28939 H 2698.86 -2.75386 -4.7586 0
M  V30 28940 H 2700.08 -3.33664 -5.91477 0
M  V30 28941 H 2698.03 -1.15907 -6.45679 0
M  V30 28942 H 2697.95 -2.79447 -7.02457 0
M  V30 28943 H 2699.22 -1.75142 -7.59569 0
M  V30 28944 N 2703.44 1.17579 -1.04943 0
M  V30 28945 C 2704.86 1.69417 -0.784531 0
M  V30 28946 C 2705.21 1.83531 0.693593 0
M  V30 28947 O 2704.33 1.52108 1.53922 0
M  V30 28948 C 2704.93 3.0772 -1.41752 0
M  V30 28949 C 2703.49 3.56735 -1.20072 0
M  V30 28950 C 2702.63 2.33058 -1.50264 0
M  V30 28951 H 2705.58 1.02131 -1.2147 0
M  V30 28952 H 2705.6 3.71439 -0.825447 0
M  V30 28953 H 2705.12 2.97415 -2.4933 0
M  V30 28954 H 2703.22 3.72321 -0.144071 0
M  V30 28955 H 2703.33 4.39645 -1.90392 0
M  V30 28956 H 2701.69 2.37401 -0.92264 0
M  V30 28957 H 2702.48 2.25364 -2.58971 0
M  V30 28958 N 2704.92 0.830104 1.33967 0
M  V30 28959 C 2705.87 0.245476 2.31301 0
M  V30 28960 C 2706.86 -0.617734 1.57735 0
M  V30 28961 O 2708.07 -0.508273 1.72675 0
M  V30 28962 H 2704.45 0.0606448 0.749551 0
M  V30 28963 H 2706.42 1.0811 2.78127 0
M  V30 28964 C 2705.17 -0.572023 3.42962 0
M  V30 28965 H 2704.49 0.0828821 3.99714 0
M  V30 28966 H 2705.93 -0.947077 4.13287 0
M  V30 28967 C 2704.39 -1.74732 2.88046 0
M  V30 28968 O 2704.92 -2.84575 2.83513 0
M  V30 28969 N 2703.12 -1.56638 2.44771 0
M  V30 28970 H 2702.67 -0.672857 2.48657 0
M  V30 28971 H 2702.63 -2.35426 2.08379 0
M  V30 28972 N 2706.4 -1.46311 0.585725 0
M  V30 28973 C 2707.33 -2.28463 -0.183647 0
M  V30 28974 C 2708.35 -1.38688 -0.852615 0
M  V30 28975 O 2709.54 -1.63261 -0.721672 0
M  V30 28976 C 2706.64 -3.1381 -1.27971 0
M  V30 28977 C 2705.81 -4.31728 -0.702088 0
M  V30 28978 C 2704.87 -4.9845 -1.68624 0
M  V30 28979 O 2703.89 -5.55947 -1.22111 0
M  V30 28980 N 2705.1 -4.95735 -3.02039 0
M  V30 28981 H 2707.86 -2.95134 0.521178 0
M  V30 28982 H 2705.42 -1.56257 0.423701 0
M  V30 28983 H 2707.41 -3.55311 -1.93743 0
M  V30 28984 H 2705.98 -2.49194 -1.88736 0
M  V30 28985 H 2705.2 -3.93975 0.13317 0
M  V30 28986 H 2706.49 -5.07938 -0.296012 0
M  V30 28987 H 2705.89 -4.50272 -3.42449 0
M  V30 28988 H 2704.45 -5.41167 -3.63292 0
M  V30 28989 N 2707.88 -0.323668 -1.54241 0
M  V30 28990 C 2709.13 0.279771 -1.9975 0
M  V30 28991 C 2709.44 1.53238 -1.21563 0
M  V30 28992 O 2710.65 2.21182 -1.57451 0
M  V30 28993 C 2709.1 0.549052 -3.55687 0
M  V30 28994 C 2708.71 -0.68651 -4.42709 0
M  V30 28995 C 2710.46 1.11244 -4.09665 0
M  V30 28996 C 2708.36 -0.389126 -5.90118 0
M  V30 28997 H 2707.29 0.108317 -0.746179 0
M  V30 28998 H 2709.94 -0.435908 -1.78247 0
M  V30 28999 H 2708.33 1.32492 -3.73178 0
M  V30 29000 H 2709.5 -1.46196 -4.36994 0
M  V30 29001 H 2707.81 -1.17012 -3.99621 0
M  V30 29002 H 2710.41 1.34956 -5.17389 0
M  V30 29003 H 2710.75 2.06184 -3.61654 0
M  V30 29004 H 2711.29 0.397751 -3.95806 0
M  V30 29005 H 2708.03 -1.30771 -6.42323 0
M  V30 29006 H 2707.55 0.348617 -5.98786 0
M  V30 29007 H 2709.23 0.00100267 -6.47 0
M  V30 29008 N 2709.36 1.57515 -0.0518432 0
M  V30 29009 C 2710.58 1.97444 0.634861 0
M  V30 29010 C 2711.01 0.929236 1.63545 0
M  V30 29011 O 2710.37 -0.107452 1.80981 0
M  V30 29012 C 2710.41 3.36445 1.29759 0
M  V30 29013 O 2709.52 3.34417 2.41327 0
M  V30 29014 H 2708.86 0.643177 0.164983 0
M  V30 29015 H 2711.39 2.04245 -0.120442 0
M  V30 29016 H 2711.4 3.73187 1.64912 0
M  V30 29017 H 2710.07 4.12054 0.564288 0
M  V30 29018 H 2708.65 3.09422 2.08117 0
M  V30 29019 N 2710.84 -0.221546 1.56035 0
M  V30 29020 C 2711.77 -1.27776 1.95436 0
M  V30 29021 C 2712.75 -1.48887 0.82259 0
M  V30 29022 O 2713.93 -1.61071 1.08489 0
M  V30 29023 C 2711.06 -2.62755 2.27106 0
M  V30 29024 C 2710.02 -2.563 3.42774 0
M  V30 29025 C 2709.34 -3.95308 3.60049 0
M  V30 29026 C 2710.64 -2.11084 4.77745 0
M  V30 29027 H 2712.34 -0.950454 2.83913 0
M  V30 29028 H 2709.88 -0.455767 1.36597 0
M  V30 29029 H 2711.83 -3.36803 2.53262 0
M  V30 29030 H 2710.56 -2.97173 1.35483 0
M  V30 29031 H 2709.22 -1.84709 3.16667 0
M  V30 29032 H 2708.87 -4.27034 2.65802 0
M  V30 29033 H 2708.57 -3.91871 4.37848 0
M  V30 29034 H 2710.09 -4.71018 3.88554 0
M  V30 29035 H 2711.5 -2.74876 5.03106 0
M  V30 29036 H 2709.9 -2.18707 5.58827 0
M  V30 29037 H 2710.97 -1.06313 4.73102 0
M  V30 29038 N 2712.31 -1.49846 -0.48825 0
M  V30 29039 C 2713.56 -1.59219 -1.23823 0
M  V30 29040 C 2713.88 -0.29 -1.93438 0
M  V30 29041 O 2715.08 -0.26243 -2.70229 0
M  V30 29042 C 2713.54 -2.8098 -2.24897 0
M  V30 29043 C 2713.15 -4.18008 -1.61162 0
M  V30 29044 C 2714.89 -2.9969 -3.00643 0
M  V30 29045 C 2712.8 -5.30975 -2.60422 0
M  V30 29046 H 2711.73 -0.592876 -0.465847 0
M  V30 29047 H 2714.38 -1.76253 -0.510614 0
M  V30 29048 H 2712.76 -2.57468 -3.00876 0
M  V30 29049 H 2713.93 -4.51707 -0.910888 0
M  V30 29050 H 2712.25 -4.04762 -0.977599 0
M  V30 29051 H 2714.85 -3.81257 -3.74896 0
M  V30 29052 H 2715.19 -2.10745 -3.59016 0
M  V30 29053 H 2715.72 -3.23301 -2.31778 0
M  V30 29054 H 2712.46 -6.2202 -2.06812 0
M  V30 29055 H 2711.98 -5.01715 -3.28698 0
M  V30 29056 H 2713.66 -5.60839 -3.22596 0
M  V30 29057 N 2713.79 0.740218 -1.39135 0
M  V30 29058 C 2714.74 1.87554 -1.37573 0
M  V30 29059 C 2715.73 1.67399 -0.259623 0
M  V30 29060 O 2716.94 1.74804 -0.42938 0
M  V30 29061 H 2713.31 0.617293 -0.42948 0
M  V30 29062 H 2715.29 1.85987 -2.33349 0
M  V30 29063 C 2714.03 3.25182 -1.23093 0
M  V30 29064 H 2713.36 3.41284 -2.08243 0
M  V30 29065 H 2714.8 4.04828 -1.26056 0
M  V30 29066 C 2713.26 3.36845 0.0610879 0
M  V30 29067 O 2713.79 3.88185 1.03321 0
M  V30 29068 N 2711.99 2.90342 0.122403 0
M  V30 29069 H 2711.54 2.48751 -0.669373 0
M  V30 29070 H 2711.5 2.98525 0.98641 0
M  V30 29071 N 2715.27 1.24225 0.969846 0
M  V30 29072 C 2716.2 0.975962 2.06277 0
M  V30 29073 C 2717.18 -0.08951 1.62353 0
M  V30 29074 O 2718.36 0.046975 1.88441 0
M  V30 29075 C 2715.49 0.472374 3.3539 0
M  V30 29076 C 2714.54 1.52607 3.98263 0
M  V30 29077 S 2715.37 3.10675 4.36167 0
M  V30 29078 C 2716.53 2.62013 5.68419 0
M  V30 29079 H 2716.76 1.90141 2.28547 0
M  V30 29080 H 2714.29 1.07586 1.10746 0
M  V30 29081 H 2716.25 0.188448 4.10067 0
M  V30 29082 H 2714.91 -0.432323 3.11111 0
M  V30 29083 H 2714.1 1.12408 4.91305 0
M  V30 29084 H 2713.71 1.75989 3.30006 0
M  V30 29085 H 2716 2.04691 6.45839 0
M  V30 29086 H 2716.94 3.53636 6.13472 0
M  V30 29087 H 2717.35 2.02512 5.26924 0
M  V30 29088 N 2716.75 -1.1702 1.05565 0
M  V30 29089 C 2718.02 -1.83337 0.681683 0
M  V30 29090 C 2718.4 -1.9377 -0.837631 0
M  V30 29091 O 2717.75 -1.47514 -1.74505 0
M  V30 29092 C 2717.96 -3.2077 1.37506 0
M  V30 29093 C 2719.31 -3.96632 1.51552 0
M  V30 29094 O 2720.33 -3.30262 1.33437 0
M  V30 29095 O 2719.19 -5.15583 1.81209 0
M  V30 29096 H 2716.29 -0.79128 0.240425 0
M  V30 29097 H 2718.83 -1.24286 1.15547 0
M  V30 29098 H 2717.61 -3.08167 2.41141 0
M  V30 29099 H 2717.23 -3.87491 0.890866 0
M  V30 29100 N 2718.23 -0.837197 -1.33524 0
M  V30 29101 C 2719.16 -0.284246 -2.31763 0
M  V30 29102 C 2720.14 0.607114 -1.58897 0
M  V30 29103 O 2721.32 0.531015 -1.86799 0
M  V30 29104 C 2718.45 0.542901 -3.4303 0
M  V30 29105 C 2717.41 -0.252526 -4.27254 0
M  V30 29106 C 2716.73 0.698266 -5.30121 0
M  V30 29107 C 2718.03 -1.46866 -5.01226 0
M  V30 29108 H 2719.73 -1.10507 -2.7826 0
M  V30 29109 H 2717.27 -0.532836 -1.33779 0
M  V30 29110 H 2719.22 0.940024 -4.10782 0
M  V30 29111 H 2717.95 1.39692 -2.95218 0
M  V30 29112 H 2716.61 -0.631188 -3.61125 0
M  V30 29113 H 2716.26 1.54864 -4.78567 0
M  V30 29114 H 2715.96 0.170171 -5.87354 0
M  V30 29115 H 2717.48 1.09294 -6.00739 0
M  V30 29116 H 2718.89 -1.14479 -5.61754 0
M  V30 29117 H 2717.29 -1.93343 -5.68101 0
M  V30 29118 H 2718.36 -2.23932 -4.30096 0
M  V30 29119 N 2719.7 1.45999 -0.593476 0
M  V30 29120 C 2721.11 1.85926 -0.169834 0
M  V30 29121 C 2721.47 1.49567 1.26981 0
M  V30 29122 O 2720.59 0.915636 1.96074 0
M  V30 29123 C 2721.19 3.37456 -0.301444 0
M  V30 29124 C 2719.74 3.7634 0.0674022 0
M  V30 29125 C 2718.89 2.69992 -0.63243 0
M  V30 29126 H 2721.84 1.37 -0.801038 0
M  V30 29127 H 2721.86 3.77583 0.470265 0
M  V30 29128 H 2721.38 3.63888 -1.34933 0
M  V30 29129 H 2719.48 3.55525 1.11501 0
M  V30 29130 H 2719.59 4.78054 -0.316416 0
M  V30 29131 H 2717.95 2.546 -0.0715408 0
M  V30 29132 H 2718.74 2.99262 -1.68218 0
M  V30 29133 N 2721.18 0.331843 1.54067 0
M  V30 29134 C 2722.12 -0.573088 2.20887 0
M  V30 29135 C 2723.09 -1.10936 1.18878 0
M  V30 29136 O 2724.28 -1.17182 1.47651 0
M  V30 29137 C 2721.4 -1.78721 2.87709 0
M  V30 29138 C 2720.45 -1.38145 4.03508 0
M  V30 29139 S 2721.28 -0.411136 5.33919 0
M  V30 29140 C 2722.44 -1.63235 6.04239 0
M  V30 29141 H 2722.67 -0.00550511 2.97299 0
M  V30 29142 H 2720.21 0.11592 1.53964 0
M  V30 29143 H 2722.16 -2.48381 3.26829 0
M  V30 29144 H 2720.82 -2.32599 2.11084 0
M  V30 29145 H 2720.02 -2.28637 4.49156 0
M  V30 29146 H 2719.62 -0.76446 3.66104 0
M  V30 29147 H 2721.91 -2.56858 6.26921 0
M  V30 29148 H 2722.85 -1.21788 6.97548 0
M  V30 29149 H 2723.26 -1.82309 5.34251 0
M  V30 29150 N 2722.66 -1.57485 0.0601958 0
M  V30 29151 C 2723.91 -1.93331 -0.612467 0
M  V30 29152 C 2724.24 -0.939556 -1.69959 0
M  V30 29153 O 2723.51 0.0330616 -1.94472 0
M  V30 29154 C 2723.8 -3.39511 -1.20019 0
M  V30 29155 C 2723.65 -4.49639 -0.120511 0
M  V30 29156 C 2724.97 -3.86267 -2.10916 0
M  V30 29157 H 2722.09 -0.70303 -0.221172 0
M  V30 29158 H 2724.73 -1.89596 0.123801 0
M  V30 29159 H 2722.88 -3.42824 -1.82768 0
M  V30 29160 H 2724.55 -4.58451 0.51193 0
M  V30 29161 H 2722.8 -4.30295 0.550327 0
M  V30 29162 H 2723.47 -5.49029 -0.571922 0
M  V30 29163 H 2725.94 -3.84887 -1.58118 0
M  V30 29164 H 2724.82 -4.89184 -2.48978 0
M  V30 29165 H 2725.08 -3.23541 -3.01286 0
M  V30 29166 N 2724.14 0.213268 -1.5615 0
M  V30 29167 C 2725.36 0.95725 -1.83988 0
M  V30 29168 C 2725.79 1.76821 -0.641557 0
M  V30 29169 O 2725.15 1.7661 0.409691 0
M  V30 29170 C 2725.19 1.84388 -3.09893 0
M  V30 29171 O 2724.3 2.94033 -2.89168 0
M  V30 29172 H 2723.64 0.270595 -0.606362 0
M  V30 29173 H 2726.17 0.224076 -2.03369 0
M  V30 29174 H 2726.18 2.25209 -3.40213 0
M  V30 29175 H 2724.85 1.24788 -3.96738 0
M  V30 29176 H 2723.43 2.57098 -2.70101 0
M  V30 29177 N 2725.62 1.50103 0.480296 0
M  V30 29178 C 2726.86 1.60314 1.2306 0
M  V30 29179 C 2727.19 0.30126 1.92659 0
M  V30 29180 O 2726.46 -0.680721 1.83693 0
M  V30 29181 H 2725.04 0.590727 0.457221 0
M  V30 29182 H 2727.7 1.86835 0.55486 0
M  V30 29183 H 2726.79 2.40967 1.98346 0
M  V30 29184 N 2727.09 -0.732829 1.39526 0
M  V30 29185 C 2728.37 -1.48441 1.27376 0
M  V30 29186 C 2728.75 -2.10783 -0.115688 0
M  V30 29187 O 2728.1 -1.98768 -1.12709 0
M  V30 29188 C 2728.31 -2.53407 2.3997 0
M  V30 29189 C 2729.66 -3.19729 2.7939 0
M  V30 29190 O 2730.68 -2.63721 2.39436 0
M  V30 29191 O 2729.54 -4.21079 3.4836 0
M  V30 29192 H 2726.63 -0.659276 0.499283 0
M  V30 29193 H 2729.18 -0.766469 1.51405 0
M  V30 29194 H 2727.95 -2.05736 3.32849 0
M  V30 29195 H 2727.58 -3.32758 2.17618 0
M  V30 29196 N 2728.57 -1.24737 -0.963244 0
M  V30 29197 C 2729.99 -1.01373 -1.23271 0
M  V30 29198 C 2730.19 0.274741 -1.99618 0
M  V30 29199 O 2729.24 0.989728 -2.32294 0
M  V30 29200 C 2730.56 -2.23155 -2.0155 0
M  V30 29201 C 2732.11 -2.27827 -2.14625 0
M  V30 29202 C 2732.58 -3.49242 -2.963 0
M  V30 29203 N 2734.07 -3.49586 -3.03881 0
M  V30 29204 C 2734.81 -4.40193 -3.67448 0
M  V30 29205 N 2734.3 -5.4106 -4.32696 0
M  V30 29206 N 2736.1 -4.27894 -3.64504 0
M  V30 29207 H 2728.25 -2.07529 -0.452258 0
M  V30 29208 H 2730.51 -0.910931 -0.262504 0
M  V30 29209 H 2730.22 -3.16753 -1.52841 0
M  V30 29210 H 2730.09 -2.25633 -3.02274 0
M  V30 29211 H 2732.48 -1.34757 -2.62535 0
M  V30 29212 H 2732.56 -2.29372 -1.13234 0
M  V30 29213 H 2732.2 -4.42628 -2.49084 0
M  V30 29214 H 2732.13 -3.4494 -3.97899 0
M  V30 29215 H 2734.62 -2.76616 -2.57472 0
M  V30 29216 H 2734.94 -6.06423 -4.79031 0
M  V30 29217 H 2733.28 -5.44942 -4.31351 0
M  V30 29218 H 2736.47 -3.48326 -3.12709 0
M  V30 29219 H 2736.64 -4.98706 -4.13759 0
M  V30 29220 N 2730.05 1.16459 -1.06184 0
M  V30 29221 C 2731.3 1.86301 -0.77296 0
M  V30 29222 C 2731.61 1.82524 0.703155 0
M  V30 29223 O 2732.82 2.47935 1.10637 0
M  V30 29224 C 2731.27 3.34322 -1.33254 0
M  V30 29225 C 2730.88 3.46576 -2.83882 0
M  V30 29226 C 2732.63 4.09427 -1.12115 0
M  V30 29227 C 2730.53 4.88676 -3.33091 0
M  V30 29228 H 2729.46 0.697873 -0.285464 0
M  V30 29229 H 2732.11 1.31445 -1.28041 0
M  V30 29230 H 2730.5 3.88777 -0.752868 0
M  V30 29231 H 2731.67 3.02287 -3.47792 0
M  V30 29232 H 2729.99 2.84903 -3.03676 0
M  V30 29233 H 2732.58 5.14276 -1.4637 0
M  V30 29234 H 2732.93 4.16258 -0.0594564 0
M  V30 29235 H 2733.46 3.61207 -1.66656 0
M  V30 29236 H 2730.2 4.87024 -4.38734 0
M  V30 29237 H 2729.72 5.33594 -2.73929 0
M  V30 29238 H 2731.4 5.57488 -3.28353 0
M  V30 29239 N 2731.53 0.844266 1.33079 0
M  V30 29240 C 2732.48 0.253329 2.26588 0
M  V30 29241 C 2733.46 -0.59481 1.49502 0
M  V30 29242 O 2734.65 -0.445894 1.71292 0
M  V30 29243 C 2731.78 -0.566117 3.386 0
M  V30 29244 C 2730.87 0.293831 4.23081 0
M  V30 29245 N 2731.26 1.37513 4.86748 0
M  V30 29246 C 2729.56 0.081787 4.45925 0
M  V30 29247 C 2730.26 1.90332 5.4968 0
M  V30 29248 N 2729.24 1.204 5.30099 0
M  V30 29249 H 2733.04 1.08014 2.73332 0
M  V30 29250 H 2730.55 0.689284 1.47046 0
M  V30 29251 H 2732.55 -1.0058 4.04585 0
M  V30 29252 H 2731.21 -1.39084 2.93404 0
M  V30 29253 H 2732.22 1.75804 4.87148 0
M  V30 29254 H 2728.9 -0.709056 4.11435 0
M  V30 29255 H 2730.29 2.80913 6.10359 0
M  V30 29256 N 2733.01 -1.45682 0.60121 0
M  V30 29257 C 2734.25 -2.0417 0.0968396 0
M  V30 29258 C 2734.61 -1.4603 -1.24657 0
M  V30 29259 O 2735.81 -1.95832 -1.84128 0
M  V30 29260 C 2734.08 -3.57363 0.0514468 0
M  V30 29261 S 2735.64 -4.3704 -0.39266 0
M  V30 29262 H 2732.46 -0.70948 0.0464629 0
M  V30 29263 H 2735.06 -1.78477 0.797877 0
M  V30 29264 H 2733.77 -3.97192 1.03281 0
M  V30 29265 H 2733.3 -3.87622 -0.671785 0
M  V30 29266 H 2735.31 -4.6819 -1.64355 0
M  V30 29267 N 2734.48 -0.340009 -1.53889 0
M  V30 29268 C 2735.42 0.561366 -2.21188 0
M  V30 29269 C 2736.4 1.10304 -1.19465 0
M  V30 29270 O 2737.58 1.16397 -1.4827 0
M  V30 29271 C 2734.71 1.77192 -2.88653 0
M  V30 29272 C 2733.75 1.36003 -4.04234 0
M  V30 29273 S 2734.59 0.382815 -5.3413 0
M  V30 29274 C 2735.74 1.60029 -6.05096 0
M  V30 29275 H 2735.97 -0.0102615 -2.97298 0
M  V30 29276 H 2733.51 -0.124083 -1.53901 0
M  V30 29277 H 2735.47 2.46644 -3.28142 0
M  V30 29278 H 2734.13 2.31476 -2.12315 0
M  V30 29279 H 2733.32 2.26252 -4.50362 0
M  V30 29280 H 2732.92 0.745033 -3.66504 0
M  V30 29281 H 2735.21 2.5353 -6.28275 0
M  V30 29282 H 2736.16 1.18087 -6.98184 0
M  V30 29283 H 2736.56 1.79473 -5.3521 0
M  V30 29284 N 2735.96 1.57451 -0.0685468 0
M  V30 29285 C 2737.24 1.84759 0.642134 0
M  V30 29286 C 2737.62 0.960377 1.87989 0
M  V30 29287 O 2736.97 0.0258296 2.28485 0
M  V30 29288 C 2737.18 3.34874 0.982888 0
M  V30 29289 C 2738.53 4.02306 1.35777 0
M  V30 29290 O 2739.55 3.396 1.07471 0
M  V30 29291 O 2738.41 5.12899 1.88672 0
M  V30 29292 H 2735.5 0.763161 0.318612 0
M  V30 29293 H 2738.05 1.6941 -0.0992313 0
M  V30 29294 H 2736.82 3.91163 0.103652 0
M  V30 29295 H 2736.44 3.55474 1.78112 0
M  V30 29296 N 2737.44 -0.204984 1.56261 0
M  V30 29297 C 2738.69 -0.925026 1.79238 0
M  V30 29298 C 2739 -1.84832 0.640043 0
M  V30 29299 O 2740.21 -2.60824 0.753855 0
M  V30 29300 C 2738.67 -1.69517 3.17478 0
M  V30 29301 C 2738.27 -0.817191 4.40484 0
M  V30 29302 C 2740.02 -2.40543 3.4977 0
M  V30 29303 C 2737.92 -1.58563 5.69747 0
M  V30 29304 H 2736.85 -0.349141 0.668294 0
M  V30 29305 H 2739.51 -0.178512 1.8263 0
M  V30 29306 H 2737.89 -2.4852 3.08308 0
M  V30 29307 H 2739.06 -0.0665178 4.60752 0
M  V30 29308 H 2737.38 -0.218243 4.15828 0
M  V30 29309 H 2739.97 -2.98568 4.43578 0
M  V30 29310 H 2740.32 -3.14247 2.73047 0
M  V30 29311 H 2740.85 -1.68515 3.60344 0
M  V30 29312 H 2737.59 -0.891565 6.49408 0
M  V30 29313 H 2737.11 -2.31049 5.53513 0
M  V30 29314 H 2738.79 -2.14201 6.10514 0
M  V30 29315 N 2738.92 -1.50356 -0.472329 0
M  V30 29316 C 2739.85 -1.72057 -1.57856 0
M  V30 29317 C 2740.83 -0.569533 -1.60282 0
M  V30 29318 O 2742.02 -0.808534 -1.76568 0
M  V30 29319 C 2739.15 -1.81357 -2.96188 0
M  V30 29320 C 2738.1 -2.96535 -3.08628 0
M  V30 29321 C 2737.43 -2.90975 -4.48595 0
M  V30 29322 C 2738.73 -4.37062 -2.85962 0
M  V30 29323 H 2740.42 -2.64679 -1.39948 0
M  V30 29324 H 2737.97 -1.27368 -0.671823 0
M  V30 29325 H 2739.92 -1.95123 -3.73504 0
M  V30 29326 H 2738.64 -0.853558 -3.15249 0
M  V30 29327 H 2737.3 -2.82417 -2.33744 0
M  V30 29328 H 2736.95 -1.92823 -4.64573 0
M  V30 29329 H 2736.65 -3.68297 -4.57855 0
M  V30 29330 H 2738.17 -3.06789 -5.27933 0
M  V30 29331 H 2739.59 -4.51712 -3.53028 0
M  V30 29332 H 2737.98 -5.15825 -3.06667 0
M  V30 29333 H 2739.05 -4.49517 -1.8183 0
M  V30 29334 N 2740.4 0.725419 -1.39912 0
M  V30 29335 C 2741.64 1.48515 -1.37657 0
M  V30 29336 C 2741.97 1.94485 0.024364 0
M  V30 29337 O 2741.23 1.67801 1.00705 0
M  V30 29338 C 2741.53 2.73246 -2.30373 0
M  V30 29339 C 2741.19 2.46093 -3.77821 0
M  V30 29340 C 2739.85 2.38398 -4.17995 0
M  V30 29341 C 2742.21 2.23095 -4.7104 0
M  V30 29342 C 2739.53 2.05758 -5.49436 0
M  V30 29343 C 2741.89 1.9197 -6.02769 0
M  V30 29344 C 2740.55 1.8275 -6.41996 0
M  V30 29345 H 2739.82 0.543456 -0.503723 0
M  V30 29346 H 2742.47 0.831792 -1.72492 0
M  V30 29347 H 2740.77 3.43371 -1.88689 0
M  V30 29348 H 2742.47 3.31305 -2.25916 0
M  V30 29349 H 2739.06 2.52965 -3.45986 0
M  V30 29350 H 2743.24 2.28002 -4.40827 0
M  V30 29351 H 2738.5 1.9715 -5.78742 0
M  V30 29352 H 2742.67 1.73185 -6.74522 0
M  V30 29353 H 2740.3 1.57224 -7.43764 0
M  V30 29354 N 2741.88 1.25246 0.956615 0
M  V30 29355 C 2742.84 1.05541 2.03455 0
M  V30 29356 C 2743.84 0.00889143 1.60798 0
M  V30 29357 O 2745.03 0.250895 1.72384 0
M  V30 29358 C 2742.16 0.602024 3.35542 0
M  V30 29359 H 2743.35 2.01227 2.22369 0
M  V30 29360 H 2740.91 1.07625 1.13343 0
M  V30 29361 H 2741.64 -0.357528 3.22323 0
M  V30 29362 H 2741.43 1.35749 3.67851 0
M  V30 29363 H 2742.92 0.485527 4.14768 0
M  V30 29364 N 2743.35 -1.15894 1.068 0
M  V30 29365 C 2744.6 -1.86547 0.7878 0
M  V30 29366 C 2744.93 -1.82004 -0.685927 0
M  V30 29367 O 2744.18 -1.23417 -1.51877 0
M  V30 29368 C 2744.48 -3.35414 1.23419 0
M  V30 29369 C 2744.15 -3.60155 2.71291 0
M  V30 29370 C 2742.81 -3.66617 3.11682 0
M  V30 29371 C 2745.16 -3.70313 3.66766 0
M  V30 29372 C 2742.49 -3.80742 4.46377 0
M  V30 29373 C 2744.84 -3.85961 5.01215 0
M  V30 29374 C 2743.51 -3.90666 5.41236 0
M  V30 29375 H 2742.78 -0.682626 0.288276 0
M  V30 29376 H 2745.42 -1.37001 1.33802 0
M  V30 29377 H 2743.73 -3.87128 0.603258 0
M  V30 29378 H 2745.43 -3.88476 0.994366 0
M  V30 29379 H 2742.02 -3.55763 2.39021 0
M  V30 29380 H 2746.2 -3.64627 3.36691 0
M  V30 29381 H 2741.46 -3.8264 4.76861 0
M  V30 29382 H 2745.63 -3.92763 5.75074 0
M  V30 29383 H 2743.26 -4.01364 6.45609 0
M  V30 29384 N 2744.83 -0.851312 -1.32629 0
M  V30 29385 C 2746.06 -0.466934 -2.01562 0
M  V30 29386 C 2746.47 0.935418 -1.63998 0
M  V30 29387 O 2745.83 1.60988 -0.859598 0
M  V30 29388 C 2745.88 -0.592496 -3.56611 0
M  V30 29389 O 2745.6 -1.9396 -3.92824 0
M  V30 29390 C 2747.1 -0.20669 -4.42818 0
M  V30 29391 H 2744.32 -0.183914 -0.645304 0
M  V30 29392 H 2746.87 -1.14733 -1.69283 0
M  V30 29393 H 2745.02 0.0401255 -3.87379 0
M  V30 29394 H 2745.44 -1.93399 -4.87542 0
M  V30 29395 H 2746.91 -0.345559 -5.50917 0
M  V30 29396 H 2747.39 0.852564 -4.30846 0
M  V30 29397 H 2747.99 -0.814249 -4.17433 0
M  V30 29398 N 2746.31 1.45361 -0.608928 0
M  V30 29399 C 2747.26 2.30542 0.109131 0
M  V30 29400 C 2748.23 1.42183 0.858679 0
M  V30 29401 O 2749.41 1.7111 0.844148 0
M  V30 29402 C 2746.55 3.27111 1.09965 0
M  V30 29403 C 2745.66 4.30573 0.350836 0
M  V30 29404 C 2744.8 5.1425 1.33119 0
M  V30 29405 C 2743.84 6.09438 0.57027 0
M  V30 29406 N 2742.98 6.8589 1.49998 0
M  V30 29407 H 2747.82 2.9141 -0.623246 0
M  V30 29408 H 2745.35 1.43596 -0.319147 0
M  V30 29409 H 2747.31 3.81567 1.68708 0
M  V30 29410 H 2745.94 2.67994 1.79942 0
M  V30 29411 H 2744.99 3.78767 -0.35212 0
M  V30 29412 H 2746.3 4.98209 -0.242812 0
M  V30 29413 H 2745.46 5.73113 1.99064 0
M  V30 29414 H 2744.2 4.46636 1.95877 0
M  V30 29415 H 2743.2 5.49704 -0.102798 0
M  V30 29416 H 2744.43 6.7908 -0.05228 0
M  V30 29417 H 2742.37 6.20964 2.11518 0
M  V30 29418 H 2742.29 7.49883 0.959802 0
M  V30 29419 H 2743.56 7.49293 2.14896 0
M  V30 29420 N 2747.79 0.348166 1.53706 0
M  V30 29421 C 2749.2 -0.00358329 1.596 0
M  V30 29422 C 2749.4 -1.48318 1.36397 0
M  V30 29423 O 2748.46 -2.24251 1.1605 0
M  V30 29424 C 2749.77 0.436735 2.97512 0
M  V30 29425 C 2751.32 0.389471 3.10567 0
M  V30 29426 C 2751.8 0.805328 4.50864 0
M  V30 29427 N 2753.29 0.759697 4.56928 0
M  V30 29428 C 2754.02 1.05337 5.63641 0
M  V30 29429 N 2753.52 1.41543 6.78187 0
M  V30 29430 N 2755.31 0.977305 5.53539 0
M  V30 29431 H 2747.46 1.31189 1.67042 0
M  V30 29432 H 2749.72 0.535089 0.782549 0
M  V30 29433 H 2749.43 1.46855 3.19572 0
M  V30 29434 H 2749.3 -0.185678 3.76743 0
M  V30 29435 H 2751.69 -0.633178 2.88227 0
M  V30 29436 H 2751.77 1.04715 2.33385 0
M  V30 29437 H 2751.42 1.82601 4.7394 0
M  V30 29438 H 2751.35 0.125081 5.26451 0
M  V30 29439 H 2753.84 0.492716 3.74674 0
M  V30 29440 H 2754.15 1.62424 7.55538 0
M  V30 29441 H 2752.5 1.45393 6.79622 0
M  V30 29442 H 2755.69 0.693756 4.6293 0
M  V30 29443 H 2755.86 1.20952 6.36612 0
M  V30 29444 N 2749.27 -1.57412 0.0768958 0
M  V30 29445 C 2750.51 -1.93969 -0.591927 0
M  V30 29446 C 2750.84 -0.957529 -1.68953 0
M  V30 29447 O 2750.12 0.0124334 -1.94496 0
M  V30 29448 C 2750.4 -3.40764 -1.16412 0
M  V30 29449 C 2750.26 -4.49741 -0.0728142 0
M  V30 29450 C 2751.57 -3.88483 -2.06807 0
M  V30 29451 H 2748.69 -0.705337 -0.213703 0
M  V30 29452 H 2751.34 -1.89454 0.143903 0
M  V30 29453 H 2749.49 -3.44743 -1.79122 0
M  V30 29454 H 2751.16 -4.57882 0.560526 0
M  V30 29455 H 2749.4 -4.29687 0.595934 0
M  V30 29456 H 2750.07 -5.49605 -0.513658 0
M  V30 29457 H 2752.55 -3.86542 -1.54027 0
M  V30 29458 H 2751.42 -4.91797 -2.43776 0
M  V30 29459 H 2751.68 -3.26719 -2.97838 0
M  V30 29460 N 2750.74 0.196695 -1.56368 0
M  V30 29461 C 2751.67 1.24651 -1.97445 0
M  V30 29462 C 2752.66 1.4756 -0.846173 0
M  V30 29463 O 2753.84 1.59324 -1.11038 0
M  V30 29464 C 2750.97 2.59108 -2.31258 0
M  V30 29465 C 2749.92 2.50815 -3.46808 0
M  V30 29466 C 2749.25 3.8953 -3.66293 0
M  V30 29467 C 2750.55 2.03457 -4.81043 0
M  V30 29468 H 2752.24 0.905166 -2.85389 0
M  V30 29469 H 2749.79 0.433977 -1.37305 0
M  V30 29470 H 2751.74 3.32731 -2.58588 0
M  V30 29471 H 2750.47 2.9498 -1.40194 0
M  V30 29472 H 2749.13 1.79648 -3.19566 0
M  V30 29473 H 2748.77 4.22752 -2.72562 0
M  V30 29474 H 2748.47 3.84856 -4.44027 0
M  V30 29475 H 2750 4.64777 -3.95998 0
M  V30 29476 H 2751.41 2.66837 -5.07416 0
M  V30 29477 H 2749.81 2.09788 -5.62236 0
M  V30 29478 H 2750.88 0.987726 -4.74734 0
M  V30 29479 N 2752.22 1.50604 0.464349 0
M  V30 29480 C 2753.47 1.6161 1.21353 0
M  V30 29481 C 2753.79 0.321677 1.92328 0
M  V30 29482 O 2753.06 -0.661199 1.84404 0
M  V30 29483 H 2751.64 0.595543 0.450929 0
M  V30 29484 H 2754.3 1.87413 0.535013 0
M  V30 29485 H 2753.4 2.43058 1.95779 0
M  V30 29486 N 2753.7 -0.717989 1.40295 0
M  V30 29487 C 2754.61 -1.86224 1.42681 0
M  V30 29488 C 2755.63 -1.71038 0.319685 0
M  V30 29489 O 2756.8 -1.93345 0.563886 0
M  V30 29490 C 2753.87 -3.21997 1.28526 0
M  V30 29491 C 2752.93 -3.49454 2.4936 0
M  V30 29492 C 2752.16 -4.78749 2.35871 0
M  V30 29493 O 2752.38 -5.53673 1.37123 0
M  V30 29494 O 2751.32 -5.06488 3.25198 0
M  V30 29495 H 2755.14 -1.87167 2.3917 0
M  V30 29496 H 2752.73 -0.868091 1.21592 0
M  V30 29497 H 2754.61 -4.03101 1.22831 0
M  V30 29498 H 2753.29 -3.21787 0.351415 0
M  V30 29499 H 2752.19 -2.68368 2.60633 0
M  V30 29500 H 2753.53 -3.54458 3.41497 0
M  V30 29501 N 2755.18 -1.25752 -0.94996 0
M  V30 29502 C 2756.4 -1.13631 -1.73501 0
M  V30 29503 C 2756.83 0.305557 -1.85602 0
M  V30 29504 O 2756.19 1.22137 -1.33986 0
M  V30 29505 C 2756.23 -1.80061 -3.12427 0
M  V30 29506 O 2755.34 -1.08343 -3.97914 0
M  V30 29507 H 2754.68 -0.396449 -0.532658 0
M  V30 29508 H 2757.21 -1.66405 -1.1904 0
M  V30 29509 H 2757.22 -1.86533 -3.62863 0
M  V30 29510 H 2755.89 -2.84961 -3.02936 0
M  V30 29511 H 2754.47 -1.09784 -3.56373 0
M  V30 29512 N 2756.66 1.15326 -1.07413 0
M  V30 29513 C 2757.9 1.85759 -0.796106 0
M  V30 29514 C 2758.23 1.82766 0.679832 0
M  V30 29515 O 2757.5 1.26903 1.4924 0
M  V30 29516 H 2756.08 0.687774 -0.291507 0
M  V30 29517 H 2758.74 1.398 -1.35801 0
M  V30 29518 H 2757.83 2.90879 -1.13119 0
M  V30 29519 N 2758.13 0.858334 1.32176 0
M  V30 29520 C 2759.04 0.308647 2.32561 0
M  V30 29521 C 2760.06 -0.575433 1.6421 0
M  V30 29522 O 2761.24 -0.474926 1.9572 0
M  V30 29523 C 2758.3 -0.490848 3.43208 0
M  V30 29524 C 2757.36 0.419808 4.27242 0
M  V30 29525 C 2756.6 -0.341625 5.32605 0
M  V30 29526 O 2756.82 -1.57115 5.48335 0
M  V30 29527 O 2755.75 0.294485 6.01179 0
M  V30 29528 H 2759.58 1.14042 2.81475 0
M  V30 29529 H 2757.16 0.621373 1.35865 0
M  V30 29530 H 2759.05 -0.944502 4.10679 0
M  V30 29531 H 2757.72 -1.29936 2.96476 0
M  V30 29532 H 2756.63 0.921715 3.62568 0
M  V30 29533 H 2757.96 1.1936 4.77508 0
M  V30 29534 N 2759.61 -1.45036 0.616628 0
M  V30 29535 C 2760.55 -2.27733 -0.145944 0
M  V30 29536 C 2761.52 -1.37677 -0.865084 0
M  V30 29537 O 2762.71 -1.67112 -0.872122 0
M  V30 29538 C 2759.83 -3.16267 -1.21214 0
M  V30 29539 C 2758.88 -4.22327 -0.595144 0
M  V30 29540 S 2759.71 -5.32085 0.603837 0
M  V30 29541 C 2760.87 -6.24187 -0.462732 0
M  V30 29542 H 2761.1 -2.92061 0.555643 0
M  V30 29543 H 2758.64 -1.4901 0.404391 0
M  V30 29544 H 2760.59 -3.6783 -1.8224 0
M  V30 29545 H 2759.25 -2.51186 -1.88585 0
M  V30 29546 H 2758.45 -4.84233 -1.39767 0
M  V30 29547 H 2758.05 -3.73952 -0.0598308 0
M  V30 29548 H 2760.34 -6.6413 -1.33933 0
M  V30 29549 H 2761.28 -7.07998 0.120384 0
M  V30 29550 H 2761.69 -5.59056 -0.782121 0
M  V30 29551 N 2761.09 -0.356312 -1.53519 0
M  V30 29552 C 2762.37 0.292189 -1.93405 0
M  V30 29553 C 2762.75 1.67174 -1.28904 0
M  V30 29554 O 2762.1 2.24131 -0.444672 0
M  V30 29555 C 2762.31 0.351689 -3.47223 0
M  V30 29556 C 2763.65 0.59646 -4.2039 0
M  V30 29557 O 2764.68 0.433281 -3.53555 0
M  V30 29558 O 2763.54 0.913494 -5.38811 0
M  V30 29559 H 2760.63 0.173158 -0.808669 0
M  V30 29560 H 2763.18 -0.40842 -1.64712 0
M  V30 29561 H 2761.95 -0.615909 -3.86422 0
M  V30 29562 H 2761.57 1.09857 -3.82122 0
M  V30 29563 N 2762.57 1.57369 -0.0852427 0
M  V30 29564 C 2763.53 2.12346 0.862662 0
M  V30 29565 C 2764.53 1.05048 1.21744 0
M  V30 29566 O 2765.72 1.30978 1.1485 0
M  V30 29567 C 2762.85 2.63592 2.16176 0
M  V30 29568 H 2764.05 2.97413 0.385459 0
M  V30 29569 H 2761.6 1.55441 0.163636 0
M  V30 29570 H 2762.33 1.82018 2.68403 0
M  V30 29571 H 2762.12 3.42033 1.91717 0
M  V30 29572 H 2763.61 3.06154 2.84006 0
M  V30 29573 N 2764.05 -0.188399 1.5647 0
M  V30 29574 C 2764.98 -1.23602 1.98103 0
M  V30 29575 C 2765.96 -1.47109 0.853986 0
M  V30 29576 O 2767.14 -1.58733 1.11881 0
M  V30 29577 C 2764.27 -2.57878 2.32629 0
M  V30 29578 C 2763.23 -2.48972 3.48134 0
M  V30 29579 C 2762.55 -3.87582 3.68354 0
M  V30 29580 C 2763.85 -2.00903 4.82115 0
M  V30 29581 H 2765.55 -0.890018 2.85865 0
M  V30 29582 H 2763.09 -0.42669 1.37533 0
M  V30 29583 H 2765.05 -3.31355 2.60349 0
M  V30 29584 H 2763.77 -2.94233 1.41756 0
M  V30 29585 H 2762.43 -1.7795 3.20514 0
M  V30 29586 H 2762.08 -4.213 2.748 0
M  V30 29587 H 2761.78 -3.82496 4.46062 0
M  V30 29588 H 2763.3 -4.62671 3.98457 0
M  V30 29589 H 2764.71 -2.64142 5.08824 0
M  V30 29590 H 2763.11 -2.06804 5.6334 0
M  V30 29591 H 2764.18 -0.962536 4.75251 0
M  V30 29592 N 2765.53 -1.50848 -0.456355 0
M  V30 29593 C 2766.47 -1.70785 -1.55246 0
M  V30 29594 C 2767.44 -0.549259 -1.56756 0
M  V30 29595 O 2768.63 -0.78153 -1.7406 0
M  V30 29596 C 2765.77 -1.82148 -2.93114 0
M  V30 29597 C 2764.88 -3.09604 -3.0128 0
M  V30 29598 C 2764.02 -3.11675 -4.30154 0
M  V30 29599 C 2763.05 -4.33523 -4.32116 0
M  V30 29600 N 2762.19 -4.3325 -5.52484 0
M  V30 29601 H 2767.03 -2.64356 -1.3755 0
M  V30 29602 H 2764.57 -1.31031 -0.66852 0
M  V30 29603 H 2766.53 -1.86718 -3.73085 0
M  V30 29604 H 2765.16 -0.920033 -3.09411 0
M  V30 29605 H 2764.21 -3.14435 -2.1409 0
M  V30 29606 H 2765.52 -3.99557 -2.9859 0
M  V30 29607 H 2764.67 -3.15055 -5.18484 0
M  V30 29608 H 2763.41 -2.19577 -4.35473 0
M  V30 29609 H 2762.42 -4.30339 -3.42182 0
M  V30 29610 H 2763.64 -5.26864 -4.28476 0
M  V30 29611 H 2761.59 -3.44014 -5.58561 0
M  V30 29612 H 2761.51 -5.16989 -5.51596 0
M  V30 29613 H 2762.77 -4.40797 -6.42898 0
M  V30 29614 N 2767 0.710538 -1.40674 0
M  V30 29615 C 2768.25 1.46605 -1.38528 0
M  V30 29616 C 2768.57 1.95598 0.00766802 0
M  V30 29617 O 2769.77 2.71076 0.151744 0
M  V30 29618 C 2768.23 2.65026 -2.43494 0
M  V30 29619 C 2767.84 2.22881 -3.88623 0
M  V30 29620 C 2769.58 3.42737 -2.50462 0
M  V30 29621 C 2767.49 3.38171 -4.85174 0
M  V30 29622 H 2766.42 0.550623 -0.515102 0
M  V30 29623 H 2769.07 0.772816 -1.66433 0
M  V30 29624 H 2767.45 3.36544 -2.08696 0
M  V30 29625 H 2768.62 1.5875 -4.32591 0
M  V30 29626 H 2766.94 1.58201 -3.85177 0
M  V30 29627 H 2769.54 4.28536 -3.19783 0
M  V30 29628 H 2769.88 3.86899 -1.53672 0
M  V30 29629 H 2770.41 2.78267 -2.84276 0
M  V30 29630 H 2767.15 2.99037 -5.83316 0
M  V30 29631 H 2766.67 4.01201 -4.45867 0
M  V30 29632 H 2768.35 4.04165 -5.05232 0
M  V30 29633 N 2768.48 1.26254 0.943277 0
M  V30 29634 C 2769.41 1.0342 2.04541 0
M  V30 29635 C 2770.43 -0.00466249 1.62799 0
M  V30 29636 O 2771.62 0.235177 1.76944 0
M  V30 29637 C 2768.72 0.54373 3.3451 0
M  V30 29638 C 2767.89 1.65135 4.0503 0
M  V30 29639 C 2766.95 1.15929 5.13271 0
M  V30 29640 O 2765.97 1.85595 5.38092 0
M  V30 29641 N 2767.18 0.00659483 5.805 0
M  V30 29642 H 2769.94 1.98323 2.24695 0
M  V30 29643 H 2767.5 1.17612 1.11262 0
M  V30 29644 H 2769.49 0.198774 4.04212 0
M  V30 29645 H 2768.06 -0.311656 3.11043 0
M  V30 29646 H 2767.28 2.16735 3.29271 0
M  V30 29647 H 2768.57 2.39516 4.48898 0
M  V30 29648 H 2767.97 -0.575248 5.62768 0
M  V30 29649 H 2766.53 -0.279302 6.51201 0
M  V30 29650 N 2769.96 -1.14755 1.08024 0
M  V30 29651 C 2770.89 -2.18724 0.650777 0
M  V30 29652 C 2771.87 -1.59102 -0.335468 0
M  V30 29653 O 2773.05 -1.86963 -0.240262 0
M  V30 29654 C 2770.18 -3.38672 -0.0433782 0
M  V30 29655 C 2769.23 -4.16844 0.902393 0
M  V30 29656 S 2770.06 -4.78355 2.40701 0
M  V30 29657 C 2771.22 -6.01664 1.72485 0
M  V30 29658 H 2771.45 -2.54814 1.53157 0
M  V30 29659 H 2768.98 -1.25825 0.894845 0
M  V30 29660 H 2770.94 -4.08161 -0.437612 0
M  V30 29661 H 2769.6 -3.00912 -0.900606 0
M  V30 29662 H 2768.79 -5.02687 0.363534 0
M  V30 29663 H 2768.4 -3.52939 1.23734 0
M  V30 29664 H 2770.69 -6.69462 1.04052 0
M  V30 29665 H 2771.63 -6.60132 2.56187 0
M  V30 29666 H 2772.04 -5.516 1.19989 0
M  V30 29667 N 2771.44 -0.865331 -1.31719 0
M  V30 29668 C 2772.35 -0.320976 -2.32394 0
M  V30 29669 C 2773.36 0.566717 -1.64512 0
M  V30 29670 O 2774.54 0.46454 -1.95969 0
M  V30 29671 C 2771.6 0.47264 -3.43463 0
M  V30 29672 C 2770.67 -0.44246 -4.27014 0
M  V30 29673 C 2769.9 0.313375 -5.32779 0
M  V30 29674 O 2770.12 1.54205 -5.4916 0
M  V30 29675 O 2769.06 -0.326363 -6.01015 0
M  V30 29676 H 2772.88 -1.15533 -2.80866 0
M  V30 29677 H 2770.47 -0.628569 -1.35534 0
M  V30 29678 H 2772.35 0.922709 -4.11174 0
M  V30 29679 H 2771.02 1.28362 -2.97161 0
M  V30 29680 H 2769.93 -0.94093 -3.62074 0
M  V30 29681 H 2771.26 -1.21891 -4.76868 0
M  V30 29682 N 2772.92 1.44707 -0.624311 0
M  V30 29683 C 2773.83 2.34442 0.0860671 0
M  V30 29684 C 2774.84 1.52222 0.842883 0
M  V30 29685 O 2776.02 1.84972 0.79669 0
M  V30 29686 C 2773.08 3.301 1.05993 0
M  V30 29687 C 2772.14 4.28228 0.303241 0
M  V30 29688 C 2771.38 5.19316 1.23072 0
M  V30 29689 O 2771.6 5.14186 2.4692 0
M  V30 29690 O 2770.53 5.97593 0.718725 0
M  V30 29691 H 2774.36 2.96623 -0.651808 0
M  V30 29692 H 2771.94 1.44367 -0.384519 0
M  V30 29693 H 2773.83 3.89 1.6204 0
M  V30 29694 H 2772.5 2.70462 1.77854 0
M  V30 29695 H 2771.41 3.72894 -0.300098 0
M  V30 29696 H 2772.74 4.90768 -0.375209 0
M  V30 29697 N 2774.39 0.364449 1.53328 0
M  V30 29698 C 2775.34 -0.482567 2.25699 0
M  V30 29699 C 2776.31 -1.07846 1.26327 0
M  V30 29700 O 2777.5 -1.11116 1.55106 0
M  V30 29701 C 2774.64 -1.61694 3.04876 0
M  V30 29702 C 2773.75 -1.04633 4.19137 0
M  V30 29703 C 2772.88 -2.14971 4.85758 0
M  V30 29704 C 2771.92 -1.5537 5.92053 0
M  V30 29705 N 2771.06 -2.59535 6.52369 0
M  V30 29706 H 2775.9 0.141084 2.97666 0
M  V30 29707 H 2773.44 0.081395 1.46875 0
M  V30 29708 H 2775.39 -2.28509 3.49055 0
M  V30 29709 H 2774.02 -2.21126 2.35166 0
M  V30 29710 H 2773.08 -0.268486 3.79451 0
M  V30 29711 H 2774.39 -0.570566 4.95526 0
M  V30 29712 H 2773.54 -2.89609 5.33115 0
M  V30 29713 H 2772.28 -2.65899 4.08839 0
M  V30 29714 H 2771.29 -0.792453 5.44059 0
M  V30 29715 H 2772.51 -1.05268 6.70892 0
M  V30 29716 H 2770.46 -3.09679 5.78304 0
M  V30 29717 H 2770.37 -2.16642 7.24294 0
M  V30 29718 H 2771.64 -3.3388 7.04375 0
M  V30 29719 N 2775.87 -1.57322 0.0935872 0
M  V30 29720 C 2777.12 -1.94298 -0.570475 0
M  V30 29721 C 2777.45 -0.975219 -1.68285 0
M  V30 29722 O 2776.7 0.00545215 -1.95699 0
M  V30 29723 C 2777 -3.37815 -1.16686 0
M  V30 29724 C 2776.67 -4.50547 -0.17843 0
M  V30 29725 C 2775.33 -4.81109 0.0934321 0
M  V30 29726 C 2777.68 -5.18829 0.496563 0
M  V30 29727 C 2775.01 -5.77282 1.04701 0
M  V30 29728 C 2777.36 -6.16025 1.4386 0
M  V30 29729 C 2776.02 -6.44994 1.71871 0
M  V30 29730 H 2775.29 -0.710988 -0.208752 0
M  V30 29731 H 2777.94 -1.90752 0.169099 0
M  V30 29732 H 2776.25 -3.37932 -1.98265 0
M  V30 29733 H 2777.94 -3.63725 -1.68834 0
M  V30 29734 H 2774.53 -4.26725 -0.400509 0
M  V30 29735 H 2778.72 -4.95394 0.299671 0
M  V30 29736 H 2773.97 -5.98042 1.27104 0
M  V30 29737 H 2778.15 -6.6803 1.96745 0
M  V30 29738 H 2775.77 -7.19325 2.45919 0
M  V30 29739 N 2777.35 0.180099 -1.56568 0
M  V30 29740 C 2778.28 1.25159 -1.90815 0
M  V30 29741 C 2779.26 1.43216 -0.769925 0
M  V30 29742 O 2780.44 1.58365 -1.02239 0
M  V30 29743 C 2777.57 2.61594 -2.15143 0
M  V30 29744 C 2776.62 2.60322 -3.37838 0
M  V30 29745 S 2777.45 2.10271 -4.9249 0
M  V30 29746 C 2778.61 3.485 -5.19903 0
M  V30 29747 H 2778.84 0.959233 -2.814 0
M  V30 29748 H 2776.37 0.384274 -1.49542 0
M  V30 29749 H 2778.33 3.40123 -2.29841 0
M  V30 29750 H 2776.99 2.88034 -1.25281 0
M  V30 29751 H 2776.18 3.60678 -3.52034 0
M  V30 29752 H 2775.79 1.89884 -3.22211 0
M  V30 29753 H 2778.08 4.4445 -5.11342 0
M  V30 29754 H 2779.02 3.39187 -6.21577 0
M  V30 29755 H 2779.43 3.44106 -4.47495 0
M  V30 29756 N 2778.83 1.51088 0.448349 0
M  V30 29757 C 2779.79 1.71028 1.52585 0
M  V30 29758 C 2780.79 0.580468 1.49957 0
M  V30 29759 O 2781.98 0.84786 1.52174 0
M  V30 29760 C 2779.11 1.75657 2.9216 0
M  V30 29761 H 2780.31 2.67181 1.36213 0
M  V30 29762 H 2777.86 1.40911 0.676288 0
M  V30 29763 H 2778.59 0.81278 3.1395 0
M  V30 29764 H 2778.38 2.57756 2.95473 0
M  V30 29765 H 2779.87 1.9296 3.70346 0
M  V30 29766 N 2780.31 -0.703068 1.41049 0
M  V30 29767 C 2781.27 -1.79882 1.42039 0
M  V30 29768 C 2782.27 -1.57741 0.312181 0
M  V30 29769 O 2783.46 -1.64552 0.571701 0
M  V30 29770 C 2780.59 -3.18152 1.22443 0
M  V30 29771 H 2781.78 -1.80398 2.39575 0
M  V30 29772 H 2779.34 -0.909955 1.27081 0
M  V30 29773 H 2780.07 -3.23279 0.257169 0
M  V30 29774 H 2779.86 -3.35624 2.02729 0
M  V30 29775 H 2781.35 -3.98153 1.25953 0
M  V30 29776 N 2781.78 -1.26752 -0.936569 0
M  V30 29777 C 2782.73 -1.0853 -2.05728 0
M  V30 29778 C 2783.73 -0.0109081 -1.69396 0
M  V30 29779 O 2784.93 -0.167946 -1.79215 0
M  V30 29780 H 2781.31 -0.334145 -0.673685 0
M  V30 29781 H 2783.28 -2.03497 -2.18247 0
M  V30 29782 C 2782.03 -0.739904 -3.39736 0
M  V30 29783 H 2781.35 -1.55851 -3.68172 0
M  V30 29784 H 2782.79 -0.652223 -4.18954 0
M  V30 29785 C 2781.25 0.555229 -3.32293 0
M  V30 29786 O 2781.78 1.59222 -3.68797 0
M  V30 29787 N 2779.99 0.54757 -2.85395 0
M  V30 29788 H 2779.53 -0.296712 -2.55885 0
M  V30 29789 H 2779.49 1.41423 -2.80797 0
M  V30 29790 N 2783.26 1.1418 -1.08631 0
M  V30 29791 C 2784.67 1.66835 -0.838032 0
M  V30 29792 C 2785.02 1.85645 0.634852 0
M  V30 29793 O 2784.15 1.56928 1.49005 0
M  V30 29794 C 2784.74 3.03055 -1.5147 0
M  V30 29795 C 2783.3 3.52734 -1.31361 0
M  V30 29796 C 2782.45 2.28159 -1.57603 0
M  V30 29797 H 2785.4 0.982143 -1.24658 0
M  V30 29798 H 2785.42 3.68624 -0.943199 0
M  V30 29799 H 2784.93 2.89333 -2.58666 0
M  V30 29800 H 2783.04 3.71675 -0.262449 0
M  V30 29801 H 2783.15 4.33365 -2.04282 0
M  V30 29802 H 2781.51 2.34346 -0.9977 0
M  V30 29803 H 2782.3 2.17011 -2.6601 0
M  V30 29804 N 2784.74 0.872304 1.31258 0
M  V30 29805 C 2785.97 0.498135 2.01329 0
M  V30 29806 C 2786.39 -0.902539 1.65033 0
M  V30 29807 O 2785.75 -1.59594 0.860193 0
M  V30 29808 C 2785.8 0.665268 3.5441 0
M  V30 29809 O 2784.9 -0.294401 4.11348 0
M  V30 29810 H 2784.24 0.197844 0.633841 0
M  V30 29811 H 2786.77 1.17636 1.674 0
M  V30 29812 H 2786.78 0.559444 4.04146 0
M  V30 29813 H 2785.46 1.68657 3.80168 0
M  V30 29814 H 2784.03 -0.143337 3.72624 0
M  V30 29815 N 2786.22 -1.44374 0.631976 0
M  V30 29816 C 2787.17 -2.30686 -0.0724401 0
M  V30 29817 C 2788.14 -1.43531 -0.83595 0
M  V30 29818 O 2789.32 -1.72432 -0.816819 0
M  V30 29819 C 2786.46 -3.28819 -1.04747 0
M  V30 29820 C 2785.57 -4.31077 -0.282291 0
M  V30 29821 C 2784.71 -5.16302 -1.24921 0
M  V30 29822 C 2783.75 -6.10268 -0.473242 0
M  V30 29823 N 2782.88 -6.88189 -1.39067 0
M  V30 29824 H 2787.72 -2.90381 0.669528 0
M  V30 29825 H 2785.26 -1.4307 0.341952 0
M  V30 29826 H 2787.22 -3.84203 -1.62616 0
M  V30 29827 H 2785.85 -2.70822 -1.75656 0
M  V30 29828 H 2784.9 -3.78159 0.412334 0
M  V30 29829 H 2786.21 -4.97759 0.322042 0
M  V30 29830 H 2785.37 -5.76207 -1.89921 0
M  V30 29831 H 2784.11 -4.49695 -1.88747 0
M  V30 29832 H 2783.11 -5.49471 0.190238 0
M  V30 29833 H 2784.34 -6.78911 0.160309 0
M  V30 29834 H 2782.28 -6.2425 -2.01612 0
M  V30 29835 H 2782.2 -7.51315 -0.840381 0
M  V30 29836 H 2783.47 -7.52617 -2.02948 0
M  V30 29837 N 2787.7 -0.372575 -1.53133 0
M  V30 29838 C 2788.95 0.21608 -2.00539 0
M  V30 29839 C 2789.26 1.49293 -1.26377 0
M  V30 29840 O 2790.46 2.16061 -1.64408 0
M  V30 29841 C 2788.92 0.435615 -3.57254 0
M  V30 29842 C 2788.53 -0.827007 -4.40301 0
M  V30 29843 C 2790.27 0.981545 -4.12996 0
M  V30 29844 C 2788.18 -0.576671 -5.88582 0
M  V30 29845 H 2787.11 0.0845228 -0.749248 0
M  V30 29846 H 2789.76 -0.492395 -1.7677 0
M  V30 29847 H 2788.14 1.20553 -3.77204 0
M  V30 29848 H 2789.32 -1.60025 -4.32121 0
M  V30 29849 H 2787.63 -1.29666 -3.95696 0
M  V30 29850 H 2790.23 1.18427 -5.2142 0
M  V30 29851 H 2790.57 1.94574 -3.68031 0
M  V30 29852 H 2791.1 0.271627 -3.96872 0
M  V30 29853 H 2787.84 -1.51139 -6.37838 0
M  V30 29854 H 2787.36 0.157941 -5.99592 0
M  V30 29855 H 2789.04 -0.204836 -6.46676 0
M  V30 29856 N 2789.17 1.5727 -0.101929 0
M  V30 29857 C 2790.4 1.99364 0.571724 0
M  V30 29858 C 2790.82 0.980796 1.60505 0
M  V30 29859 O 2790.18 -0.0498199 1.81232 0
M  V30 29860 C 2790.23 3.40402 1.1899 0
M  V30 29861 O 2789.33 3.41926 2.30566 0
M  V30 29862 H 2788.68 0.6481 0.144437 0
M  V30 29863 H 2791.21 2.03759 -0.185361 0
M  V30 29864 H 2791.22 3.78244 1.52955 0
M  V30 29865 H 2789.89 4.13641 0.432911 0
M  V30 29866 H 2788.47 3.15886 1.98167 0
M  V30 29867 N 2790.65 -0.171793 1.56661 0
M  V30 29868 C 2791.88 -0.902772 1.85832 0
M  V30 29869 C 2792.29 -1.76357 0.685188 0
M  V30 29870 O 2791.63 -1.80239 -0.354915 0
M  V30 29871 C 2791.7 -1.83047 3.09409 0
M  V30 29872 C 2791.36 -1.14932 4.42312 0
M  V30 29873 C 2792.36 -0.515013 5.17343 0
M  V30 29874 C 2790.04 -1.14622 4.89047 0
M  V30 29875 C 2792.04 0.113306 6.37299 0
M  V30 29876 C 2789.72 -0.514077 6.08934 0
M  V30 29877 C 2790.72 0.114584 6.82904 0
M  V30 29878 O 2790.41 0.736762 8.00517 0
M  V30 29879 H 2790.14 -0.267737 0.62072 0
M  V30 29880 H 2792.69 -0.176882 2.04637 0
M  V30 29881 H 2790.92 -2.59667 2.86549 0
M  V30 29882 H 2792.61 -2.43125 3.25031 0
M  V30 29883 H 2793.38 -0.509389 4.82318 0
M  V30 29884 H 2789.26 -1.62495 4.31412 0
M  V30 29885 H 2792.8 0.604599 6.94975 0
M  V30 29886 H 2788.7 -0.517282 6.43424 0
M  V30 29887 H 2789.47 0.635965 8.16026 0
M  V30 29888 N 2792.13 -1.51324 -0.44033 0
M  V30 29889 C 2793.04 -1.75261 -1.55952 0
M  V30 29890 C 2794.06 -0.636715 -1.61932 0
M  V30 29891 O 2795.23 -0.918625 -1.7923 0
M  V30 29892 C 2792.3 -1.86982 -2.91956 0
M  V30 29893 C 2791.36 -3.10827 -2.96117 0
M  V30 29894 C 2790.59 -3.2198 -4.25634 0
M  V30 29895 O 2790.81 -2.39146 -5.17847 0
M  V30 29896 O 2789.75 -4.14937 -4.36017 0
M  V30 29897 H 2793.57 -2.70194 -1.38668 0
M  V30 29898 H 2791.16 -1.35789 -0.623031 0
M  V30 29899 H 2793.04 -1.96695 -3.72678 0
M  V30 29900 H 2791.72 -0.952361 -3.09373 0
M  V30 29901 H 2790.62 -3.06595 -2.14361 0
M  V30 29902 H 2791.96 -4.02252 -2.83644 0
M  V30 29903 N 2793.61 0.695578 -1.41419 0
M  V30 29904 C 2795.02 1.2755 -1.36337 0
M  V30 29905 C 2795.37 1.96145 -0.0464681 0
M  V30 29906 O 2794.5 1.98782 0.855269 0
M  V30 29907 C 2795.09 2.31956 -2.46945 0
M  V30 29908 C 2793.65 2.85524 -2.45261 0
M  V30 29909 C 2792.8 1.59562 -2.26793 0
M  V30 29910 H 2795.75 0.490336 -1.50935 0
M  V30 29911 H 2795.77 3.13246 -2.16003 0
M  V30 29912 H 2795.28 1.82002 -3.42778 0
M  V30 29913 H 2793.38 3.39655 -1.53185 0
M  V30 29914 H 2793.49 3.35955 -3.41571 0
M  V30 29915 H 2791.86 1.85371 -1.7467 0
M  V30 29916 H 2792.64 1.11604 -3.24653 0
M  V30 29917 N 2795.09 1.27247 0.929833 0
M  V30 29918 C 2796.34 1.12844 1.6718 0
M  V30 29919 C 2796.65 -0.325632 1.9287 0
M  V30 29920 O 2797.86 -0.590526 2.65 0
M  V30 29921 C 2796.31 1.97156 3.01094 0
M  V30 29922 C 2795.92 3.47208 2.83109 0
M  V30 29923 C 2797.66 1.91395 3.78904 0
M  V30 29924 C 2795.57 4.23726 4.12565 0
M  V30 29925 H 2794.5 0.418708 0.627056 0
M  V30 29926 H 2797.15 1.5165 1.03317 0
M  V30 29927 H 2795.53 1.51193 3.66001 0
M  V30 29928 H 2796.71 4.01019 2.26982 0
M  V30 29929 H 2795.02 3.54325 2.1873 0
M  V30 29930 H 2797.62 2.45842 4.74832 0
M  V30 29931 H 2797.96 0.887118 4.06738 0
M  V30 29932 H 2798.5 2.35242 3.20789 0
M  V30 29933 H 2795.23 5.26925 3.89911 0
M  V30 29934 H 2794.75 3.74693 4.68364 0
M  V30 29935 H 2796.43 4.32785 4.80943 0
M  V30 29936 N 2796.57 -1.13603 1.09235 0
M  V30 29937 C 2797.79 -1.88681 0.848941 0
M  V30 29938 C 2798.21 -1.79025 -0.599635 0
M  V30 29939 O 2797.57 -1.15547 -1.41263 0
M  V30 29940 C 2797.62 -3.38352 1.27279 0
M  V30 29941 O 2797.34 -3.47755 2.66455 0
M  V30 29942 C 2798.84 -4.30404 1.06148 0
M  V30 29943 H 2796.06 -0.597389 0.30556 0
M  V30 29944 H 2798.6 -1.4382 1.45382 0
M  V30 29945 H 2796.76 -3.80804 0.711843 0
M  V30 29946 H 2797.17 -4.40783 2.84272 0
M  V30 29947 H 2798.65 -5.33758 1.40734 0
M  V30 29948 H 2799.12 -4.392 -0.000883131 0
M  V30 29949 H 2799.73 -3.93719 1.60828 0
M  V30 29950 N 2798.04 -0.879253 -1.30793 0
M  V30 29951 C 2799.27 -0.509584 -2.00526 0
M  V30 29952 C 2799.69 0.900421 -1.65945 0
M  V30 29953 O 2799.04 1.59129 -0.893553 0
M  V30 29954 C 2799.09 -0.668005 -3.55274 0
M  V30 29955 O 2798.82 -2.02249 -3.88622 0
M  V30 29956 C 2800.32 -0.300572 -4.4228 0
M  V30 29957 H 2797.54 -0.19756 -0.641257 0
M  V30 29958 H 2800.08 -1.18298 -1.66811 0
M  V30 29959 H 2798.24 -0.0420524 -3.87377 0
M  V30 29960 H 2798.65 -2.03697 -4.8333 0
M  V30 29961 H 2800.12 -0.462339 -5.5006 0
M  V30 29962 H 2800.6 0.760984 -4.32557 0
M  V30 29963 H 2801.21 -0.902609 -4.15612 0
M  V30 29964 N 2799.52 1.44037 -0.639624 0
M  V30 29965 C 2800.75 2.0632 -0.154847 0
M  V30 29966 C 2801.16 1.47858 1.17403 0
M  V30 29967 O 2800.52 0.604669 1.72192 0
M  V30 29968 C 2800.57 3.61474 -0.0430593 0
M  V30 29969 O 2800.29 4.1776 -1.31939 0
M  V30 29970 C 2801.79 4.40808 0.469408 0
M  V30 29971 H 2799.01 0.665772 -0.0835979 0
M  V30 29972 H 2801.56 1.84767 -0.87643 0
M  V30 29973 H 2799.71 3.82259 0.629008 0
M  V30 29974 H 2800.13 5.1129 -1.16974 0
M  V30 29975 H 2801.6 5.49762 0.496616 0
M  V30 29976 H 2802.08 4.1286 1.49812 0
M  V30 29977 H 2802.68 4.24961 -0.169699 0
M  V30 29978 N 2801 0.380691 1.52933 0
M  V30 29979 C 2801.93 -0.450227 2.29118 0
M  V30 29980 C 2802.91 -1.07094 1.32155 0
M  V30 29981 O 2804.1 -1.08534 1.6104 0
M  V30 29982 C 2801.23 -1.58226 3.09163 0
M  V30 29983 C 2800.18 -1.08802 4.1394 0
M  V30 29984 C 2799.51 -2.31146 4.82157 0
M  V30 29985 C 2800.81 -0.162055 5.22049 0
M  V30 29986 H 2802.5 0.185413 2.98825 0
M  V30 29987 H 2800.05 0.0906139 1.43715 0
M  V30 29988 H 2802 -2.1703 3.61215 0
M  V30 29989 H 2800.72 -2.24535 2.37174 0
M  V30 29990 H 2799.38 -0.52257 3.62856 0
M  V30 29991 H 2799.03 -2.95946 4.06724 0
M  V30 29992 H 2798.73 -1.98742 5.5297 0
M  V30 29993 H 2800.25 -2.90609 5.37009 0
M  V30 29994 H 2801.67 -0.658026 5.69511 0
M  V30 29995 H 2800.06 0.0718177 6.00057 0
M  V30 29996 H 2801.13 0.791522 4.78396 0
M  V30 29997 N 2802.48 -1.57214 0.110268 0
M  V30 29998 C 2803.89 -1.57687 -0.246352 0
M  V30 29999 C 2804.09 -1.12244 -1.67343 0
M  V30 30000 O 2803.15 -0.805825 -2.39296 0
M  V30 30001 C 2804.46 -3.00693 -0.020976 0
M  V30 30002 C 2806.01 -3.12878 -0.0875527 0
M  V30 30003 C 2806.49 -4.57868 0.11002 0
M  V30 30004 N 2807.98 -4.63167 0.0556949 0
M  V30 30005 C 2808.71 -5.73106 0.183596 0
M  V30 30006 N 2808.21 -6.91826 0.36718 0
M  V30 30007 N 2810 -5.61964 0.123788 0
M  V30 30008 H 2802.15 -1.85057 1.04249 0
M  V30 30009 H 2804.41 -0.854847 0.409805 0
M  V30 30010 H 2804.12 -3.38195 0.965263 0
M  V30 30011 H 2803.99 -3.69532 -0.756683 0
M  V30 30012 H 2806.38 -2.75239 -1.06431 0
M  V30 30013 H 2806.46 -2.46599 0.679893 0
M  V30 30014 H 2806.11 -4.96204 1.08371 0
M  V30 30015 H 2806.04 -5.22226 -0.677305 0
M  V30 30016 H 2808.53 -3.77809 -0.0830398 0
M  V30 30017 H 2808.84 -7.71454 0.455874 0
M  V30 30018 H 2807.19 -6.9383 0.403042 0
M  V30 30019 H 2810.38 -4.68096 -0.0186105 0
M  V30 30020 H 2810.55 -6.47603 0.226911 0
M  V30 30021 N 2803.96 0.163482 -1.5675 0
M  V30 30022 C 2805.37 0.515541 -1.51044 0
M  V30 30023 C 2805.57 1.84243 -0.815887 0
M  V30 30024 O 2804.63 2.49632 -0.37952 0
M  V30 30025 C 2805.94 0.541062 -2.95792 0
M  V30 30026 C 2807.49 0.627722 -3.06641 0
M  V30 30027 C 2807.96 0.684062 -4.52863 0
M  V30 30028 N 2809.45 0.746738 -4.57141 0
M  V30 30029 C 2810.19 0.811037 -5.67635 0
M  V30 30030 N 2809.69 0.83569 -6.87741 0
M  V30 30031 N 2811.48 0.850658 -5.55626 0
M  V30 30032 H 2803.63 -0.706485 -2.00306 0
M  V30 30033 H 2805.89 -0.255675 -0.912872 0
M  V30 30034 H 2805.6 -0.365391 -3.49797 0
M  V30 30035 H 2805.47 1.38481 -3.5086 0
M  V30 30036 H 2807.86 1.5246 -2.52666 0
M  V30 30037 H 2807.94 -0.24285 -2.54645 0
M  V30 30038 H 2807.58 -0.208589 -5.07471 0
M  V30 30039 H 2807.51 1.57089 -5.02624 0
M  V30 30040 H 2810.01 0.735652 -3.7067 0
M  V30 30041 H 2810.32 0.886144 -7.67703 0
M  V30 30042 H 2808.66 0.803837 -6.90336 0
M  V30 30043 H 2811.85 0.828454 -4.60711 0
M  V30 30044 H 2812.03 0.897305 -6.41757 0
M  V30 30045 N 2805.43 1.51555 0.432299 0
M  V30 30046 C 2806.38 1.73233 1.52509 0
M  V30 30047 C 2807.35 0.574127 1.55862 0
M  V30 30048 O 2808.54 0.809123 1.72794 0
M  V30 30049 C 2805.68 1.86788 2.90179 0
M  V30 30050 C 2804.79 3.14358 2.96316 0
M  V30 30051 C 2803.92 3.18479 4.25141 0
M  V30 30052 C 2802.96 4.40343 4.25164 0
M  V30 30053 N 2802.1 4.41985 5.45522 0
M  V30 30054 H 2806.94 2.66511 1.33327 0
M  V30 30055 H 2804.48 1.32078 0.647589 0
M  V30 30056 H 2806.43 1.9263 3.70067 0
M  V30 30057 H 2805.06 0.969141 3.07908 0
M  V30 30058 H 2804.12 3.17801 2.09061 0
M  V30 30059 H 2805.43 4.04256 2.92196 0
M  V30 30060 H 2804.58 3.23264 5.13406 0
M  V30 30061 H 2803.32 2.26478 4.31925 0
M  V30 30062 H 2802.33 4.35729 3.35292 0
M  V30 30063 H 2803.55 5.33614 4.2004 0
M  V30 30064 H 2801.5 3.52856 5.53018 0
M  V30 30065 H 2801.41 5.25699 5.43302 0
M  V30 30066 H 2802.68 4.50969 6.35804 0
M  V30 30067 N 2806.91 -0.688069 1.41786 0
M  V30 30068 C 2807.86 -1.79418 1.40688 0
M  V30 30069 C 2808.85 -1.58443 0.280123 0
M  V30 30070 O 2810.04 -1.69147 0.521362 0
M  V30 30071 C 2807.17 -3.17783 1.2988 0
M  V30 30072 C 2806.25 -3.44428 2.47448 0
M  V30 30073 N 2806.64 -3.41729 3.72901 0
M  V30 30074 C 2804.94 -3.75008 2.41422 0
M  V30 30075 C 2805.64 -3.67488 4.50918 0
M  V30 30076 N 2804.62 -3.87602 3.81138 0
M  V30 30077 H 2808.42 -1.75706 2.35594 0
M  V30 30078 H 2805.93 -0.888369 1.35948 0
M  V30 30079 H 2807.93 -3.97029 1.27175 0
M  V30 30080 H 2806.59 -3.22702 0.359644 0
M  V30 30081 H 2807.6 -3.21936 4.05682 0
M  V30 30082 H 2804.28 -3.87253 1.56018 0
M  V30 30083 H 2805.67 -3.71475 5.59872 0
M  V30 30084 N 2808.39 -1.27739 -0.923072 0
M  V30 30085 C 2809.3 -1.12688 -2.05763 0
M  V30 30086 C 2810.32 -0.0557503 -1.73911 0
M  V30 30087 O 2811.49 -0.263172 -1.99673 0
M  V30 30088 C 2808.56 -0.780422 -3.37802 0
M  V30 30089 C 2807.62 -1.93293 -3.83323 0
M  V30 30090 C 2806.85 -1.6029 -5.09061 0
M  V30 30091 O 2807.07 -0.512928 -5.68089 0
M  V30 30092 O 2806.01 -2.44357 -5.50067 0
M  V30 30093 H 2809.83 -2.07911 -2.21375 0
M  V30 30094 H 2807.42 -1.06969 -1.04297 0
M  V30 30095 H 2809.3 -0.600742 -4.17096 0
M  V30 30096 H 2807.98 0.142234 -3.23387 0
M  V30 30097 H 2806.88 -2.1677 -3.04896 0
M  V30 30098 H 2808.22 -2.83595 -4.02287 0
M  V30 30099 N 2809.87 1.13022 -1.09836 0
M  V30 30100 C 2810.78 2.22161 -0.75377 0
M  V30 30101 C 2811.79 1.72251 0.246074 0
M  V30 30102 O 2812.97 2.01215 0.0863697 0
M  V30 30103 C 2810.04 3.46211 -0.184019 0
M  V30 30104 C 2809.1 4.10991 -1.24035 0
M  V30 30105 C 2808.33 5.2912 -0.69769 0
M  V30 30106 O 2808.55 5.68394 0.477992 0
M  V30 30107 O 2807.49 5.84056 -1.4547 0
M  V30 30108 H 2811.31 2.54017 -1.66461 0
M  V30 30109 H 2808.9 1.21236 -0.873047 0
M  V30 30110 H 2810.78 4.21199 0.130183 0
M  V30 30111 H 2809.45 3.16046 0.699767 0
M  V30 30112 H 2808.36 3.37811 -1.60731 0
M  V30 30113 H 2809.69 4.45297 -2.09693 0
M  V30 30114 N 2811.35 0.886177 1.30325 0
M  V30 30115 C 2812.59 0.505975 1.96387 0
M  V30 30116 C 2812.93 -0.942682 1.69786 0
M  V30 30117 O 2812.2 -1.66629 1.00325 0
M  V30 30118 C 2812.48 0.782887 3.51487 0
M  V30 30119 C 2812.34 2.28226 3.87599 0
M  V30 30120 C 2813.66 0.260205 4.3933 0
M  V30 30121 H 2810.77 0.185305 0.713324 0
M  V30 30122 H 2813.42 1.11039 1.54176 0
M  V30 30123 H 2811.57 0.268467 3.87571 0
M  V30 30124 H 2813.24 2.86518 3.61532 0
M  V30 30125 H 2811.48 2.74843 3.35625 0
M  V30 30126 H 2812.15 2.42662 4.95802 0
M  V30 30127 H 2814.63 0.700517 4.10161 0
M  V30 30128 H 2813.5 0.483276 5.46768 0
M  V30 30129 H 2813.77 -0.838598 4.34074 0
M  V30 30130 N 2812.82 -1.43695 0.647253 0
M  V30 30131 C 2814.05 -2.0675 0.16412 0
M  V30 30132 C 2814.47 -1.4816 -1.15889 0
M  V30 30133 O 2813.83 -0.589224 -1.71458 0
M  V30 30134 C 2813.88 -3.60511 0.0801001 0
M  V30 30135 O 2812.98 -4.01086 -0.959383 0
M  V30 30136 H 2812.33 -0.657576 0.0921404 0
M  V30 30137 H 2814.86 -1.84301 0.888493 0
M  V30 30138 H 2814.87 -4.07864 -0.105192 0
M  V30 30139 H 2813.54 -4.02533 1.04593 0
M  V30 30140 H 2812.12 -3.65334 -0.747361 0
M  V30 30141 N 2814.3 -0.388796 -1.52729 0
M  V30 30142 C 2815.27 0.434505 -2.25044 0
M  V30 30143 C 2816.27 0.990622 -1.26662 0
M  V30 30144 O 2817.46 0.872704 -1.50763 0
M  V30 30145 C 2814.59 1.60956 -3.00509 0
M  V30 30146 H 2815.78 -0.198602 -2.99242 0
M  V30 30147 H 2813.33 -0.140902 -1.55664 0
M  V30 30148 H 2814.07 2.28011 -2.30611 0
M  V30 30149 H 2813.85 1.21751 -3.72719 0
M  V30 30150 H 2815.34 2.19245 -3.55417 0
M  V30 30151 N 2815.78 1.57153 -0.118604 0
M  V30 30152 C 2816.71 2.11006 0.869009 0
M  V30 30153 C 2817.69 1.02636 1.26113 0
M  V30 30154 O 2818.88 1.30288 1.36225 0
M  V30 30155 C 2816 2.60644 2.16292 0
M  V30 30156 C 2815.05 3.80894 1.9189 0
M  V30 30157 S 2815.88 5.23322 1.13553 0
M  V30 30158 C 2817.04 5.76328 2.44125 0
M  V30 30159 H 2817.27 2.94446 0.410953 0
M  V30 30160 H 2814.8 1.54106 0.095162 0
M  V30 30161 H 2816.76 2.89897 2.90637 0
M  V30 30162 H 2815.42 1.77386 2.59216 0
M  V30 30163 H 2814.62 4.13773 2.87763 0
M  V30 30164 H 2814.22 3.52256 1.25666 0
M  V30 30165 H 2816.51 5.86028 3.39966 0
M  V30 30166 H 2817.45 6.74418 2.15791 0
M  V30 30167 H 2817.86 5.04392 2.53474 0
M  V30 30168 N 2817.26 -0.155167 1.56834 0
M  V30 30169 C 2818.5 -0.870435 1.8317 0
M  V30 30170 C 2818.84 -1.81185 0.698961 0
M  V30 30171 O 2818.11 -1.92204 -0.298001 0
M  V30 30172 C 2818.4 -1.65205 3.19968 0
M  V30 30173 C 2818.25 -0.732666 4.43793 0
M  V30 30174 C 2819.57 -2.6163 3.5389 0
M  V30 30175 H 2816.69 -0.314995 0.666294 0
M  V30 30176 H 2819.33 -0.135954 1.89513 0
M  V30 30177 H 2817.48 -2.27819 3.14691 0
M  V30 30178 H 2819.15 -0.118154 4.61149 0
M  V30 30179 H 2817.39 -0.0417143 4.3378 0
M  V30 30180 H 2818.06 -1.31542 5.36098 0
M  V30 30181 H 2820.54 -2.09136 3.59724 0
M  V30 30182 H 2819.42 -3.13374 4.50653 0
M  V30 30183 H 2819.68 -3.426 2.79424 0
M  V30 30184 N 2818.74 -1.51782 -0.424256 0
M  V30 30185 C 2819.99 -1.64328 -1.16958 0
M  V30 30186 C 2820.3 -0.371783 -1.92034 0
M  V30 30187 O 2821.5 -0.376807 -2.68872 0
M  V30 30188 C 2819.96 -2.90265 -2.12777 0
M  V30 30189 C 2819.57 -4.24467 -1.43288 0
M  V30 30190 C 2821.31 -3.12171 -2.87662 0
M  V30 30191 C 2819.22 -5.41543 -2.37667 0
M  V30 30192 H 2818.15 -0.612101 -0.440282 0
M  V30 30193 H 2820.8 -1.7826 -0.4354 0
M  V30 30194 H 2819.18 -2.69997 -2.89685 0
M  V30 30195 H 2820.36 -4.55164 -0.718484 0
M  V30 30196 H 2818.67 -4.08544 -0.805046 0
M  V30 30197 H 2821.27 -3.96815 -3.58388 0
M  V30 30198 H 2821.61 -2.25782 -3.49754 0
M  V30 30199 H 2822.14 -3.32841 -2.17857 0
M  V30 30200 H 2818.88 -6.30232 -1.80244 0
M  V30 30201 H 2818.4 -5.15205 -3.07123 0
M  V30 30202 H 2820.08 -5.74017 -2.98519 0
M  V30 30203 N 2820.21 0.68054 -1.42149 0
M  V30 30204 C 2821.15 1.80603 -1.41122 0
M  V30 30205 C 2822.16 1.59799 -0.311127 0
M  V30 30206 O 2823.35 1.69025 -0.573843 0
M  V30 30207 C 2820.45 3.17616 -1.18209 0
M  V30 30208 C 2819.62 3.65318 -2.40544 0
M  V30 30209 C 2818.68 4.81047 -2.13262 0
M  V30 30210 O 2817.71 4.91887 -2.86419 0
M  V30 30211 N 2818.91 5.69352 -1.13218 0
M  V30 30212 H 2821.67 1.81971 -2.38131 0
M  V30 30213 H 2819.23 0.863422 -1.36955 0
M  V30 30214 H 2821.23 3.92684 -0.978849 0
M  V30 30215 H 2819.8 3.11182 -0.297435 0
M  V30 30216 H 2819.02 2.80992 -2.76473 0
M  V30 30217 H 2820.3 3.9393 -3.22019 0
M  V30 30218 H 2819.7 5.6324 -0.526992 0
M  V30 30219 H 2818.26 6.44256 -0.988812 0
M  V30 30220 N 2821.69 1.28226 0.916285 0
M  V30 30221 C 2823.11 1.05878 1.19424 0
M  V30 30222 C 2823.31 -0.200464 2.005 0
M  V30 30223 O 2822.36 -0.902832 2.35808 0
M  V30 30224 C 2823.68 2.30482 1.93129 0
M  V30 30225 C 2825.23 2.35635 2.06022 0
M  V30 30226 C 2825.7 3.59999 2.83134 0
M  V30 30227 N 2827.19 3.60624 2.90697 0
M  V30 30228 C 2827.93 4.53527 3.50857 0
M  V30 30229 N 2827.42 5.56746 4.12317 0
M  V30 30230 N 2829.22 4.41128 3.48372 0
M  V30 30231 H 2821.37 2.09065 0.374923 0
M  V30 30232 H 2823.63 0.920046 0.228515 0
M  V30 30233 H 2823.34 3.22207 1.4098 0
M  V30 30234 H 2823.21 2.36696 2.93692 0
M  V30 30235 H 2825.6 1.44408 2.57352 0
M  V30 30236 H 2825.68 2.33417 1.04643 0
M  V30 30237 H 2825.32 4.51568 2.32484 0
M  V30 30238 H 2825.25 3.5947 3.84823 0
M  V30 30239 H 2827.74 2.85981 2.47029 0
M  V30 30240 H 2828.06 6.23784 4.56194 0
M  V30 30241 H 2826.4 5.60575 4.10829 0
M  V30 30242 H 2829.59 3.59692 2.99566 0
M  V30 30243 H 2829.76 5.13718 3.94965 0
M  V30 30244 N 2823.17 -1.12438 1.10433 0
M  V30 30245 C 2824.13 -2.16353 0.75658 0
M  V30 30246 C 2825.13 -1.59302 -0.218962 0
M  V30 30247 O 2826.32 -1.74199 0.0041903 0
M  V30 30248 C 2823.46 -3.40686 0.120672 0
M  V30 30249 H 2824.65 -2.48629 1.677 0
M  V30 30250 H 2822.2 -1.27444 0.904854 0
M  V30 30251 H 2822.94 -3.14009 -0.810481 0
M  V30 30252 H 2822.72 -3.83371 0.82276 0
M  V30 30253 H 2824.21 -4.17463 -0.106871 0
M  V30 30254 N 2824.65 -0.893076 -1.29853 0
M  V30 30255 C 2825.9 -0.515619 -1.95825 0
M  V30 30256 C 2826.22 0.936812 -1.70453 0
M  V30 30257 O 2825.48 1.67828 -1.0066 0
M  V30 30258 C 2825.78 -0.74665 -3.49514 0
M  V30 30259 C 2825.44 -2.17542 -3.94951 0
M  V30 30260 C 2824.11 -2.5661 -4.07069 0
M  V30 30261 C 2826.46 -3.10615 -4.18531 0
M  V30 30262 C 2823.79 -3.87946 -4.40131 0
M  V30 30263 C 2826.14 -4.41492 -4.53065 0
M  V30 30264 C 2824.8 -4.80442 -4.63391 0
M  V30 30265 H 2824.07 -0.188678 -0.716576 0
M  V30 30266 H 2826.72 -1.13047 -1.54572 0
M  V30 30267 H 2825.02 -0.048824 -3.9177 0
M  V30 30268 H 2826.72 -0.43408 -3.98644 0
M  V30 30269 H 2823.31 -1.86218 -3.86032 0
M  V30 30270 H 2827.5 -2.81648 -4.08642 0
M  V30 30271 H 2822.75 -4.17854 -4.46327 0
M  V30 30272 H 2826.93 -5.13642 -4.7026 0
M  V30 30273 H 2824.55 -5.82248 -4.88765 0
M  V30 30274 N 2826.13 1.4335 -0.654865 0
M  V30 30275 C 2827.54 1.56306 -0.322577 0
M  V30 30276 C 2827.74 1.63823 1.17321 0
M  V30 30277 O 2826.8 1.5942 1.9581 0
M  V30 30278 C 2828.11 2.82313 -1.03538 0
M  V30 30279 C 2829.66 2.96059 -1.01579 0
M  V30 30280 C 2830.14 4.24899 -1.70952 0
M  V30 30281 N 2831.63 4.31767 -1.67724 0
M  V30 30282 C 2832.36 5.3023 -2.18275 0
M  V30 30283 N 2831.86 6.34961 -2.77121 0
M  V30 30284 N 2833.65 5.21894 -2.08765 0
M  V30 30285 H 2825.8 1.36715 -1.62551 0
M  V30 30286 H 2828.06 0.656715 -0.683688 0
M  V30 30287 H 2827.77 2.82827 -2.0905 0
M  V30 30288 H 2827.64 3.72589 -0.587979 0
M  V30 30289 H 2830.03 2.95084 0.0309315 0
M  V30 30290 H 2830.11 2.07067 -1.5019 0
M  V30 30291 H 2829.76 4.26635 -2.75582 0
M  V30 30292 H 2829.69 5.12791 -1.19806 0
M  V30 30293 H 2832.18 3.56704 -1.24784 0
M  V30 30294 H 2832.49 7.06415 -3.13365 0
M  V30 30295 H 2830.84 6.3558 -2.81182 0
M  V30 30296 H 2834.03 4.38991 -1.62496 0
M  V30 30297 H 2834.2 5.98471 -2.48469 0
M  V30 30298 N 2827.61 0.39689 1.52521 0
M  V30 30299 C 2829.02 0.0471939 1.5953 0
M  V30 30300 C 2829.22 -1.43904 1.41046 0
M  V30 30301 O 2828.28 -2.20446 1.23126 0
M  V30 30302 C 2829.59 0.531165 2.95972 0
M  V30 30303 C 2831.14 0.488078 3.09171 0
M  V30 30304 C 2831.61 0.94836 4.48074 0
M  V30 30305 N 2833.1 0.90468 4.54279 0
M  V30 30306 C 2833.84 1.23215 5.60005 0
M  V30 30307 N 2833.34 1.63048 6.7334 0
M  V30 30308 N 2835.13 1.15291 5.50149 0
M  V30 30309 H 2827.28 1.36437 1.62784 0
M  V30 30310 H 2829.54 0.559715 0.76513 0
M  V30 30311 H 2829.25 1.56947 3.14739 0
M  V30 30312 H 2829.12 -0.0657259 3.77143 0
M  V30 30313 H 2831.51 -0.54116 2.90096 0
M  V30 30314 H 2831.59 1.12087 2.29935 0
M  V30 30315 H 2831.23 1.97586 4.67891 0
M  V30 30316 H 2831.16 0.292504 5.25787 0
M  V30 30317 H 2833.66 0.611666 3.72917 0
M  V30 30318 H 2833.97 1.86379 7.49989 0
M  V30 30319 H 2832.31 1.66941 6.74652 0
M  V30 30320 H 2835.5 0.840683 4.60489 0
M  V30 30321 H 2835.68 1.41144 6.32442 0
M  V30 30322 N 2829.08 -1.57088 0.126936 0
M  V30 30323 C 2830.03 -2.12292 -0.83164 0
M  V30 30324 C 2831.02 -1.04566 -1.2229 0
M  V30 30325 O 2832.21 -1.30784 -1.19266 0
M  V30 30326 C 2829.34 -2.73219 -2.07861 0
M  V30 30327 C 2828.42 -3.88038 -1.71136 0
M  V30 30328 N 2828.82 -4.94754 -1.05127 0
M  V30 30329 C 2827.11 -3.9837 -2.00542 0
M  V30 30330 C 2827.81 -5.75049 -0.877156 0
M  V30 30331 N 2826.79 -5.25138 -1.40468 0
M  V30 30332 H 2830.59 -2.92176 -0.317874 0
M  V30 30333 H 2828.11 -1.62225 -0.0752767 0
M  V30 30334 H 2830.1 -3.11116 -2.77511 0
M  V30 30335 H 2828.76 -1.94801 -2.59774 0
M  V30 30336 H 2829.77 -5.1295 -0.71433 0
M  V30 30337 H 2826.45 -3.31004 -2.54446 0
M  V30 30338 H 2827.84 -6.70943 -0.358418 0
M  V30 30339 N 2830.56 0.146848 -1.56914 0
M  V30 30340 C 2831.49 1.18306 -2.0131 0
M  V30 30341 C 2832.47 1.44793 -0.89269 0
M  V30 30342 O 2833.66 1.55711 -1.16051 0
M  V30 30343 C 2830.79 2.5162 -2.39384 0
M  V30 30344 C 2829.74 2.39654 -3.54612 0
M  V30 30345 C 2829.07 3.77679 -3.785 0
M  V30 30346 C 2830.37 1.8805 -4.87273 0
M  V30 30347 H 2832.06 0.813913 -2.88125 0
M  V30 30348 H 2829.61 0.390075 -1.38616 0
M  V30 30349 H 2831.56 3.24336 -2.69043 0
M  V30 30350 H 2830.28 2.90371 -1.49507 0
M  V30 30351 H 2828.94 1.6939 -3.25119 0
M  V30 30352 H 2828.59 4.13866 -2.85874 0
M  V30 30353 H 2828.29 3.70535 -4.56046 0
M  V30 30354 H 2829.82 4.51944 -4.10584 0
M  V30 30355 H 2831.23 2.50559 -5.15648 0
M  V30 30356 H 2829.63 1.91795 -5.68625 0
M  V30 30357 H 2830.7 0.836193 -4.77636 0
M  V30 30358 N 2832.04 1.52005 0.4162 0
M  V30 30359 C 2832.97 1.77797 1.51362 0
M  V30 30360 C 2833.95 0.628628 1.58058 0
M  V30 30361 O 2835.14 0.873509 1.73446 0
M  V30 30362 C 2832.27 1.92224 2.89253 0
M  V30 30363 C 2831.22 3.07785 2.9741 0
M  V30 30364 C 2830.55 3.07424 4.37486 0
M  V30 30365 C 2831.85 4.47374 2.69543 0
M  V30 30366 H 2833.54 2.69691 1.30028 0
M  V30 30367 H 2831.09 1.29773 0.624089 0
M  V30 30368 H 2833.04 2.08851 3.66004 0
M  V30 30369 H 2831.76 0.969972 3.11864 0
M  V30 30370 H 2830.42 2.90897 2.23102 0
M  V30 30371 H 2830.07 2.09933 4.57097 0
M  V30 30372 H 2829.77 3.85037 4.4387 0
M  V30 30373 H 2831.29 3.26171 5.16183 0
M  V30 30374 H 2832.71 4.64503 3.3602 0
M  V30 30375 H 2831.1 5.26851 2.87312 0
M  V30 30376 H 2832.17 4.55956 1.65021 0
M  V30 30377 N 2833.52 -0.672992 1.42508 0
M  V30 30378 C 2834.45 -1.79852 1.42078 0
M  V30 30379 C 2835.46 -1.59632 0.319597 0
M  V30 30380 O 2836.65 -1.68718 0.582799 0
M  V30 30381 C 2833.75 -3.16984 1.19892 0
M  V30 30382 C 2832.92 -3.64037 2.42478 0
M  V30 30383 C 2831.98 -4.79909 2.1581 0
M  V30 30384 O 2831.01 -4.90361 2.89024 0
M  V30 30385 N 2832.21 -5.68744 1.16235 0
M  V30 30386 H 2834.98 -1.80706 2.39093 0
M  V30 30387 H 2832.54 -0.856147 1.37411 0
M  V30 30388 H 2834.53 -3.92159 0.99966 0
M  V30 30389 H 2833.1 -3.1102 0.313933 0
M  V30 30390 H 2832.32 -2.79521 2.77959 0
M  V30 30391 H 2833.61 -3.92217 3.24104 0
M  V30 30392 H 2833.01 -5.62953 0.556855 0
M  V30 30393 H 2831.56 -6.43723 1.02296 0
M  V30 30394 N 2835 -1.2871 -0.909472 0
M  V30 30395 C 2836.41 -1.0651 -1.1886 0
M  V30 30396 C 2836.61 0.189828 -2.00604 0
M  V30 30397 O 2835.67 0.890314 -2.36283 0
M  V30 30398 C 2836.98 -2.31503 -1.91903 0
M  V30 30399 C 2838.53 -2.36725 -2.04769 0
M  V30 30400 C 2839 -3.61495 -2.81221 0
M  V30 30401 N 2840.49 -3.6216 -2.88781 0
M  V30 30402 C 2841.23 -4.55381 -3.48447 0
M  V30 30403 N 2840.73 -5.58925 -4.09359 0
M  V30 30404 N 2842.52 -4.42969 -3.46027 0
M  V30 30405 H 2834.67 -2.09261 -0.363831 0
M  V30 30406 H 2836.93 -0.921245 -0.223633 0
M  V30 30407 H 2836.64 -3.2295 -1.39269 0
M  V30 30408 H 2836.51 -2.3825 -2.92432 0
M  V30 30409 H 2838.9 -1.45771 -2.56583 0
M  V30 30410 H 2838.98 -2.33969 -1.03404 0
M  V30 30411 H 2838.62 -4.52794 -2.30086 0
M  V30 30412 H 2838.55 -3.61506 -3.82911 0
M  V30 30413 H 2841.05 -2.87287 -2.45508 0
M  V30 30414 H 2841.36 -6.26195 -4.5288 0
M  V30 30415 H 2839.7 -5.62746 -4.0785 0
M  V30 30416 H 2842.89 -3.61275 -2.97654 0
M  V30 30417 H 2843.07 -5.15806 -3.92235 0
M  V30 30418 N 2836.47 1.1185 -1.11028 0
M  V30 30419 C 2837.7 1.87847 -0.879097 0
M  V30 30420 C 2838.12 1.79402 0.565374 0
M  V30 30421 O 2837.48 1.15335 1.39884 0
M  V30 30422 C 2837.53 3.34782 -1.33991 0
M  V30 30423 O 2836.63 4.09248 -0.508875 0
M  V30 30424 H 2835.97 0.583443 -0.317003 0
M  V30 30425 H 2838.5 1.41411 -1.47866 0
M  V30 30426 H 2838.51 3.85626 -1.33255 0
M  V30 30427 H 2837.19 3.40245 -2.39178 0
M  V30 30428 H 2835.77 3.68331 -0.581978 0
M  V30 30429 N 2837.95 0.89995 1.29378 0
M  V30 30430 C 2838.88 0.3945 2.30143 0
M  V30 30431 C 2839.86 -0.530611 1.61612 0
M  V30 30432 O 2841.05 -0.441286 1.8912 0
M  V30 30433 C 2838.18 -0.378619 3.4523 0
M  V30 30434 C 2837.13 0.456087 4.25563 0
M  V30 30435 C 2836.46 -0.444544 5.32849 0
M  V30 30436 C 2837.76 1.70613 4.93648 0
M  V30 30437 H 2839.45 1.23657 2.7267 0
M  V30 30438 H 2837 0.596057 1.31085 0
M  V30 30439 H 2838.95 -0.742964 4.14799 0
M  V30 30440 H 2837.67 -1.25448 3.01547 0
M  V30 30441 H 2836.33 0.802767 3.57703 0
M  V30 30442 H 2835.98 -1.31854 4.85411 0
M  V30 30443 H 2835.68 0.110257 5.87497 0
M  V30 30444 H 2837.21 -0.805076 6.05269 0
M  V30 30445 H 2838.62 1.41151 5.55652 0
M  V30 30446 H 2837.02 2.20227 5.58229 0
M  V30 30447 H 2838.09 2.44197 4.18922 0
M  V30 30448 N 2839.43 -1.43001 0.662458 0
M  V30 30449 C 2840.38 -2.30788 -0.0234918 0
M  V30 30450 C 2841.35 -1.45272 -0.805317 0
M  V30 30451 O 2842.53 -1.74126 -0.78006 0
M  V30 30452 C 2839.67 -3.30967 -0.977487 0
M  V30 30453 C 2838.79 -4.31578 -0.19079 0
M  V30 30454 C 2837.92 -5.18836 -1.13942 0
M  V30 30455 C 2836.96 -6.11134 -0.343688 0
M  V30 30456 N 2836.1 -6.90984 -1.24438 0
M  V30 30457 H 2840.94 -2.88896 0.730972 0
M  V30 30458 H 2838.47 -1.42313 0.372222 0
M  V30 30459 H 2840.43 -3.87566 -1.5443 0
M  V30 30460 H 2839.06 -2.74487 -1.69872 0
M  V30 30461 H 2838.11 -3.77199 0.492455 0
M  V30 30462 H 2839.43 -4.96964 0.427552 0
M  V30 30463 H 2838.58 -5.80106 -1.77656 0
M  V30 30464 H 2837.32 -4.53598 -1.79166 0
M  V30 30465 H 2836.32 -5.48944 0.306747 0
M  V30 30466 H 2837.55 -6.78418 0.30428 0
M  V30 30467 H 2835.49 -6.28386 -1.88325 0
M  V30 30468 H 2835.41 -7.52928 -0.680827 0
M  V30 30469 H 2836.68 -7.56752 -1.86938 0
M  V30 30470 N 2840.91 -0.404973 -1.52308 0
M  V30 30471 C 2841.86 0.439824 -2.23718 0
M  V30 30472 C 2842.84 1.01688 -1.24693 0
M  V30 30473 O 2844.03 0.940383 -1.49953 0
M  V30 30474 C 2841.16 1.55819 -3.05901 0
M  V30 30475 C 2840.25 0.992115 -4.12332 0
M  V30 30476 N 2840.64 0.152336 -5.05571 0
M  V30 30477 C 2838.94 1.26304 -4.27742 0
M  V30 30478 C 2839.64 -0.162144 -5.81474 0
M  V30 30479 N 2838.62 0.445915 -5.41768 0
M  V30 30480 H 2842.42 -0.208135 -2.93162 0
M  V30 30481 H 2839.93 -0.215159 -1.60968 0
M  V30 30482 H 2841.93 2.17596 -3.55609 0
M  V30 30483 H 2840.59 2.20882 -2.37995 0
M  V30 30484 H 2841.6 -0.211647 -5.17467 0
M  V30 30485 H 2838.28 1.91355 -3.71065 0
M  V30 30486 H 2839.67 -0.843541 -6.66584 0
M  V30 30487 N 2842.39 1.57018 -0.135265 0
M  V30 30488 C 2843.35 2.14983 0.794669 0
M  V30 30489 C 2844.35 1.08868 1.1834 0
M  V30 30490 O 2845.54 1.34565 1.10625 0
M  V30 30491 C 2842.67 2.70336 2.0768 0
M  V30 30492 H 2843.86 2.98488 0.290644 0
M  V30 30493 H 2841.42 1.55883 0.114101 0
M  V30 30494 H 2842.15 1.90464 2.62476 0
M  V30 30495 H 2841.94 3.4796 1.80739 0
M  V30 30496 H 2843.43 3.15035 2.74122 0
M  V30 30497 N 2843.86 -0.138524 1.5699 0
M  V30 30498 C 2845.09 -0.868377 1.88345 0
M  V30 30499 C 2845.51 -1.73559 0.72519 0
M  V30 30500 O 2844.87 -1.78364 -0.324961 0
M  V30 30501 C 2844.92 -1.69393 3.18337 0
M  V30 30502 O 2844.02 -2.79902 3.02868 0
M  V30 30503 H 2843.37 -0.241356 0.618582 0
M  V30 30504 H 2845.9 -0.12679 2.04207 0
M  V30 30505 H 2845.91 -2.0872 3.50571 0
M  V30 30506 H 2844.58 -1.05717 4.0224 0
M  V30 30507 H 2843.16 -2.43919 2.8206 0
M  V30 30508 N 2845.34 -1.52224 -0.408133 0
M  V30 30509 C 2846.59 -1.66331 -1.15499 0
M  V30 30510 C 2846.92 -0.393735 -1.90473 0
M  V30 30511 O 2846.17 0.623324 -1.85508 0
M  V30 30512 C 2846.47 -2.83663 -2.17417 0
M  V30 30513 C 2846.14 -4.21844 -1.59243 0
M  V30 30514 C 2844.8 -4.59429 -1.43102 0
M  V30 30515 C 2847.15 -5.07952 -1.16767 0
M  V30 30516 C 2844.48 -5.80799 -0.830046 0
M  V30 30517 C 2846.83 -6.29927 -0.580877 0
M  V30 30518 C 2845.5 -6.6626 -0.406611 0
M  V30 30519 H 2844.77 -0.60865 -0.422642 0
M  V30 30520 H 2847.41 -1.86327 -0.442082 0
M  V30 30521 H 2845.72 -2.58006 -2.94856 0
M  V30 30522 H 2847.41 -2.91775 -2.75079 0
M  V30 30523 H 2844 -3.92227 -1.72789 0
M  V30 30524 H 2848.19 -4.79497 -1.28046 0
M  V30 30525 H 2843.44 -6.07572 -0.683054 0
M  V30 30526 H 2847.62 -6.95975 -0.243365 0
M  V30 30527 H 2845.25 -7.60175 0.0611703 0
M  V30 30528 N 2846.82 0.665425 -1.42863 0
M  V30 30529 C 2847.75 1.79056 -1.4987 0
M  V30 30530 C 2848.73 1.66367 -0.354423 0
M  V30 30531 O 2849.92 1.85646 -0.570002 0
M  V30 30532 C 2847.05 3.17413 -1.40949 0
M  V30 30533 C 2846 3.4485 -2.53501 0
M  V30 30534 C 2845.33 4.82879 -2.29634 0
M  V30 30535 C 2846.63 3.40808 -3.95787 0
M  V30 30536 H 2848.32 1.73449 -2.44041 0
M  V30 30537 H 2845.87 0.83305 -1.17458 0
M  V30 30538 H 2847.82 3.95866 -1.44457 0
M  V30 30539 H 2846.54 3.2372 -0.432773 0
M  V30 30540 H 2845.2 2.68761 -2.49325 0
M  V30 30541 H 2844.85 4.85848 -1.30235 0
M  V30 30542 H 2844.55 5.02199 -3.05074 0
M  V30 30543 H 2846.07 5.63605 -2.34907 0
M  V30 30544 H 2847.49 4.09217 -4.01515 0
M  V30 30545 H 2845.89 3.71664 -4.71154 0
M  V30 30546 H 2846.96 2.39209 -4.21791 0
M  V30 30547 N 2848.3 1.29191 0.902633 0
M  V30 30548 C 2849.55 1.16992 1.65285 0
M  V30 30549 C 2849.87 -0.279198 1.92486 0
M  V30 30550 O 2849.13 -1.2184 1.53145 0
M  V30 30551 C 2849.43 1.9255 3.01097 0
M  V30 30552 C 2849.09 3.42286 2.93515 0
M  V30 30553 C 2847.76 3.83122 2.91155 0
M  V30 30554 C 2850.11 4.37715 2.82939 0
M  V30 30555 C 2847.44 5.17709 2.76034 0
M  V30 30556 C 2849.79 5.72389 2.69358 0
M  V30 30557 C 2848.45 6.12486 2.65362 0
M  V30 30558 H 2847.72 0.428104 0.60482 0
M  V30 30559 H 2850.37 1.60094 1.05081 0
M  V30 30560 H 2848.67 1.4203 3.6515 0
M  V30 30561 H 2850.37 1.80518 3.5807 0
M  V30 30562 H 2846.96 3.09825 2.96153 0
M  V30 30563 H 2851.14 4.07121 2.83842 0
M  V30 30564 H 2846.4 5.4789 2.71343 0
M  V30 30565 H 2850.57 6.45986 2.60145 0
M  V30 30566 H 2848.2 7.16722 2.53403 0
M  V30 30567 N 2849.78 -1.1126 1.1162 0
M  V30 30568 C 2851.19 -1.35051 0.850492 0
M  V30 30569 C 2851.39 -1.94572 -0.523833 0
M  V30 30570 O 2850.45 -2.17988 -1.27427 0
M  V30 30571 C 2851.76 -2.28037 1.96009 0
M  V30 30572 C 2853.31 -2.41597 1.98998 0
M  V30 30573 C 2853.78 -3.37906 3.09166 0
M  V30 30574 N 2855.28 -3.4547 3.08553 0
M  V30 30575 C 2856.01 -4.19936 3.90437 0
M  V30 30576 N 2855.51 -4.97363 4.82288 0
M  V30 30577 N 2857.3 -4.15467 3.78607 0
M  V30 30578 H 2849.45 -0.709897 2.00185 0
M  V30 30579 H 2851.71 -0.375084 0.870641 0
M  V30 30580 H 2851.42 -1.91498 2.94994 0
M  V30 30581 H 2851.29 -3.28272 1.85788 0
M  V30 30582 H 2853.68 -2.7741 1.00638 0
M  V30 30583 H 2853.76 -1.41207 2.13294 0
M  V30 30584 H 2853.41 -3.0282 4.07753 0
M  V30 30585 H 2853.34 -4.38155 2.92109 0
M  V30 30586 H 2855.83 -2.90245 2.42005 0
M  V30 30587 H 2856.14 -5.51557 5.41299 0
M  V30 30588 H 2854.48 -4.96517 4.86309 0
M  V30 30589 H 2857.68 -3.54069 3.06191 0
M  V30 30590 H 2857.85 -4.73245 4.42655 0
M  V30 30591 N 2851.25 -0.906798 -1.28899 0
M  V30 30592 C 2852.19 -0.347199 -2.26555 0
M  V30 30593 C 2853.2 0.510463 -1.5459 0
M  V30 30594 O 2854.39 0.32647 -1.75489 0
M  V30 30595 C 2851.49 0.522965 -3.34841 0
M  V30 30596 C 2850.66 -0.310591 -4.36296 0
M  V30 30597 C 2849.72 0.493542 -5.2388 0
M  V30 30598 O 2848.75 -0.0914569 -5.69127 0
M  V30 30599 N 2849.95 1.79811 -5.5195 0
M  V30 30600 H 2852.71 -1.18657 -2.7521 0
M  V30 30601 H 2850.27 -0.772021 -1.42308 0
M  V30 30602 H 2852.27 1.06749 -3.90367 0
M  V30 30603 H 2850.84 1.26304 -2.85948 0
M  V30 30604 H 2850.06 -1.03651 -3.80329 0
M  V30 30605 H 2851.34 -0.881194 -5.01111 0
M  V30 30606 H 2850.74 2.29601 -5.1701 0
M  V30 30607 H 2849.3 2.28961 -6.10263 0
M  V30 30608 N 2852.73 1.42648 -0.670032 0
M  V30 30609 C 2853.66 2.29145 0.0501343 0
M  V30 30610 C 2854.68 1.43423 0.770306 0
M  V30 30611 O 2855.87 1.67191 0.625259 0
M  V30 30612 C 2852.97 3.20737 1.09458 0
M  V30 30613 C 2852.14 4.35087 0.449183 0
M  V30 30614 C 2851.2 5.07433 1.39276 0
M  V30 30615 O 2850.22 5.62121 0.894898 0
M  V30 30616 N 2851.43 5.12501 2.72622 0
M  V30 30617 H 2854.19 2.91593 -0.692363 0
M  V30 30618 H 2851.75 1.53521 -0.514083 0
M  V30 30619 H 2853.74 3.66002 1.72698 0
M  V30 30620 H 2852.31 2.59774 1.73886 0
M  V30 30621 H 2851.53 3.92528 -0.362642 0
M  V30 30622 H 2852.82 5.088 -0.00063421 0
M  V30 30623 H 2852.22 4.69472 3.15614 0
M  V30 30624 H 2850.78 5.61428 3.31122 0
M  V30 30625 N 2854.21 0.413044 1.52091 0
M  V30 30626 C 2855.17 -0.398647 2.25707 0
M  V30 30627 C 2856.17 -0.970346 1.28222 0
M  V30 30628 O 2857.36 -0.848609 1.52132 0
M  V30 30629 C 2854.5 -1.56155 3.03032 0
M  V30 30630 H 2855.69 0.246183 2.98888 0
M  V30 30631 H 2853.24 0.165649 1.5542 0
M  V30 30632 H 2853.98 -2.24313 2.34209 0
M  V30 30633 H 2853.76 -1.15806 3.74608 0
M  V30 30634 H 2855.25 -2.13563 3.5886 0
M  V30 30635 N 2855.69 -1.56945 0.143591 0
M  V30 30636 C 2856.94 -1.95628 -0.507368 0
M  V30 30637 C 2857.26 -1.02925 -1.65624 0
M  V30 30638 O 2856.53 -0.090148 -1.95692 0
M  V30 30639 H 2855.11 -0.722321 -0.190424 0
M  V30 30640 H 2857.77 -1.93674 0.218292 0
M  V30 30641 H 2856.87 -2.99267 -0.885764 0
M  V30 30642 N 2857.17 0.130197 -1.57061 0
M  V30 30643 C 2858.39 0.858376 -1.88803 0
M  V30 30644 C 2858.82 1.73172 -0.734384 0
M  V30 30645 O 2858.18 1.78534 0.315497 0
M  V30 30646 C 2858.22 1.67702 -3.19231 0
M  V30 30647 O 2857.33 2.78291 -3.04348 0
M  V30 30648 H 2856.67 0.238072 -0.619853 0
M  V30 30649 H 2859.2 0.115959 -2.04271 0
M  V30 30650 H 2859.21 2.06858 -3.51673 0
M  V30 30651 H 2857.88 1.03583 -4.02795 0
M  V30 30652 H 2856.46 2.4242 -2.8335 0
M  V30 30653 N 2858.65 1.52438 0.400055 0
M  V30 30654 C 2859.89 1.66612 1.14389 0
M  V30 30655 C 2860.21 0.402961 1.90791 0
M  V30 30656 O 2859.48 -0.582392 1.87043 0
M  V30 30657 H 2858.06 0.614133 0.425265 0
M  V30 30658 H 2860.73 1.89514 0.455043 0
M  V30 30659 H 2859.82 2.51142 1.85294 0
M  V30 30660 N 2860.12 -0.657839 1.43214 0
M  V30 30661 C 2861.05 -1.78259 1.50818 0
M  V30 30662 C 2862.03 -1.66176 0.363241 0
M  V30 30663 O 2863.22 -1.85342 0.579839 0
M  V30 30664 C 2860.35 -3.16661 1.4263 0
M  V30 30665 C 2859.3 -3.43501 2.55326 0
M  V30 30666 C 2858.63 -4.81654 2.32192 0
M  V30 30667 C 2859.93 -3.38704 3.97589 0
M  V30 30668 H 2861.62 -1.72152 2.44957 0
M  V30 30669 H 2859.17 -0.826809 1.17898 0
M  V30 30670 H 2861.12 -3.95095 1.46555 0
M  V30 30671 H 2859.85 -3.23486 0.449934 0
M  V30 30672 H 2858.51 -2.67435 2.50747 0
M  V30 30673 H 2858.15 -4.8515 1.32809 0
M  V30 30674 H 2857.85 -5.00574 3.07733 0
M  V30 30675 H 2859.38 -5.62352 2.37893 0
M  V30 30676 H 2860.79 -4.07082 4.0368 0
M  V30 30677 H 2859.19 -3.6916 4.73118 0
M  V30 30678 H 2860.26 -2.36968 4.23053 0
M  V30 30679 N 2861.6 -1.29668 -0.895769 0
M  V30 30680 C 2862.83 -1.20888 -1.68526 0
M  V30 30681 C 2863.25 0.226563 -1.86731 0
M  V30 30682 O 2862.61 1.16344 -1.39046 0
M  V30 30683 C 2862.66 -1.9315 -3.04509 0
M  V30 30684 O 2861.76 -1.25122 -3.92961 0
M  V30 30685 H 2861.1 -0.418684 -0.515364 0
M  V30 30686 H 2863.63 -1.71304 -1.11875 0
M  V30 30687 H 2863.64 -2.01756 -3.54625 0
M  V30 30688 H 2862.32 -2.97553 -2.90577 0
M  V30 30689 H 2860.89 -1.248 -3.51396 0
M  V30 30690 N 2863.08 1.10667 -1.12208 0
M  V30 30691 C 2863.99 2.20512 -0.800724 0
M  V30 30692 C 2865.01 1.72734 0.209482 0
M  V30 30693 O 2866.18 2.01353 0.0436696 0
M  V30 30694 C 2863.25 3.45743 -0.257414 0
M  V30 30695 C 2862.31 4.08268 -1.32725 0
M  V30 30696 C 2861.54 5.27521 -0.809767 0
M  V30 30697 O 2861.76 5.6928 0.35732 0
M  V30 30698 O 2860.7 5.80839 -1.57826 0
M  V30 30699 H 2864.52 2.50429 -1.71811 0
M  V30 30700 H 2862.11 1.19357 -0.898567 0
M  V30 30701 H 2863.99 4.2138 0.0408108 0
M  V30 30702 H 2862.67 3.17459 0.632572 0
M  V30 30703 H 2861.57 3.34326 -1.6786 0
M  V30 30704 H 2862.91 4.40749 -2.19091 0
M  V30 30705 N 2864.56 0.913621 1.28416 0
M  V30 30706 C 2865.47 0.407006 2.31042 0
M  V30 30707 C 2866.48 -0.505269 1.66502 0
M  V30 30708 O 2867.66 -0.391487 1.97558 0
M  V30 30709 C 2864.72 -0.344841 3.44981 0
M  V30 30710 C 2863.79 0.600638 4.25077 0
M  V30 30711 C 2863.02 -0.115422 5.33575 0
M  V30 30712 O 2863.24 -1.33717 5.54505 0
M  V30 30713 O 2862.18 0.549201 5.99389 0
M  V30 30714 H 2866 1.25878 2.76385 0
M  V30 30715 H 2863.59 0.678438 1.33107 0
M  V30 30716 H 2865.47 -0.769469 4.14315 0
M  V30 30717 H 2864.14 -1.17245 3.01721 0
M  V30 30718 H 2863.05 1.07466 3.58332 0
M  V30 30719 H 2864.38 1.39506 4.72016 0
M  V30 30720 N 2866.04 -1.4229 0.677588 0
M  V30 30721 C 2867.31 -1.95169 0.129837 0
M  V30 30722 C 2867.69 -1.61788 -1.35602 0
M  V30 30723 O 2867.04 -0.915481 -2.09359 0
M  V30 30724 C 2867.25 -3.46678 0.401949 0
M  V30 30725 C 2868.6 -4.23393 0.319963 0
M  V30 30726 O 2869.62 -3.54613 0.335853 0
M  V30 30727 O 2868.48 -5.45859 0.264555 0
M  V30 30728 H 2865.58 -0.826988 0.00448886 0
M  V30 30729 H 2868.12 -1.52103 0.75251 0
M  V30 30730 H 2866.89 -3.6419 1.43114 0
M  V30 30731 H 2866.52 -3.96797 -0.252592 0
M  V30 30732 N 2867.51 -0.421104 -1.5187 0
M  V30 30733 C 2868.48 0.386672 -2.25915 0
M  V30 30734 C 2869.48 0.963532 -1.28735 0
M  V30 30735 O 2870.67 0.840529 -1.5258 0
M  V30 30736 C 2867.8 1.54546 -3.03856 0
M  V30 30737 H 2868.99 -0.262031 -2.98753 0
M  V30 30738 H 2866.54 -0.173889 -1.5533 0
M  V30 30739 H 2867.28 2.23068 -2.35396 0
M  V30 30740 H 2867.06 1.13817 -3.75217 0
M  V30 30741 H 2868.55 2.11657 -3.59988 0
M  V30 30742 N 2868.99 1.56866 -0.151912 0
M  V30 30743 C 2870.4 1.83035 0.368096 0
M  V30 30744 C 2870.75 1.07085 1.644 0
M  V30 30745 O 2869.88 0.317685 2.14055 0
M  V30 30746 C 2870.47 3.32016 0.674617 0
M  V30 30747 C 2869.03 3.58749 1.13913 0
M  V30 30748 C 2868.18 2.7681 0.164784 0
M  V30 30749 H 2871.13 1.54169 -0.376526 0
M  V30 30750 H 2871.15 3.48438 1.52877 0
M  V30 30751 H 2870.66 3.87267 -0.254181 0
M  V30 30752 H 2868.77 3.0889 2.0837 0
M  V30 30753 H 2868.88 4.67188 1.06171 0
M  V30 30754 H 2867.24 2.46044 0.658376 0
M  V30 30755 H 2868.03 3.34834 -0.757691 0
M  V30 30756 N 2870.47 -0.121866 1.57128 0
M  V30 30757 C 2871.38 -1.16854 2.03427 0
M  V30 30758 C 2872.4 -1.45507 0.954134 0
M  V30 30759 O 2873.57 -1.5668 1.26544 0
M  V30 30760 C 2870.64 -2.47594 2.42689 0
M  V30 30761 C 2869.7 -2.26364 3.64771 0
M  V30 30762 C 2868.93 -3.5087 4.02151 0
M  V30 30763 O 2869.15 -4.58062 3.39905 0
M  V30 30764 O 2868.09 -3.42042 4.95268 0
M  V30 30765 H 2871.91 -0.805388 2.92826 0
M  V30 30766 H 2869.5 -0.332452 1.45654 0
M  V30 30767 H 2871.38 -3.24629 2.68689 0
M  V30 30768 H 2870.06 -2.83389 1.56437 0
M  V30 30769 H 2868.96 -1.47197 3.43924 0
M  V30 30770 H 2870.3 -1.95474 4.5172 0
M  V30 30771 N 2871.95 -1.52648 -0.391965 0
M  V30 30772 C 2873.36 -1.41833 -0.731823 0
M  V30 30773 C 2873.56 -0.536395 -1.94229 0
M  V30 30774 O 2872.62 -0.0087101 -2.52498 0
M  V30 30775 C 2873.93 -2.84636 -0.969693 0
M  V30 30776 C 2875.48 -2.94094 -1.07135 0
M  V30 30777 C 2875.96 -4.37902 -1.34187 0
M  V30 30778 N 2877.45 -4.41213 -1.41015 0
M  V30 30779 C 2878.18 -5.49564 -1.63606 0
M  V30 30780 N 2877.68 -6.68005 -1.83687 0
M  V30 30781 N 2879.47 -5.37103 -1.65761 0
M  V30 30782 H 2871.62 -2.08511 0.404584 0
M  V30 30783 H 2873.89 -0.940526 0.118806 0
M  V30 30784 H 2873.59 -3.5137 -0.152403 0
M  V30 30785 H 2873.47 -3.26712 -1.88518 0
M  V30 30786 H 2875.85 -2.2753 -1.87921 0
M  V30 30787 H 2875.93 -2.5545 -0.133842 0
M  V30 30788 H 2875.58 -5.05031 -0.539118 0
M  V30 30789 H 2875.51 -4.74096 -2.29217 0
M  V30 30790 H 2878 -3.55843 -1.27216 0
M  V30 30791 H 2878.31 -7.46358 -2.00424 0
M  V30 30792 H 2876.66 -6.71039 -1.80918 0
M  V30 30793 H 2879.85 -4.43543 -1.49622 0
M  V30 30794 H 2880.02 -6.21615 -1.83027 0
M  V30 30795 N 2873.43 0.650235 -1.43561 0
M  V30 30796 C 2874.34 1.79204 -1.51404 0
M  V30 30797 C 2875.35 1.69318 -0.400925 0
M  V30 30798 O 2876.53 1.90434 -0.655491 0
M  V30 30799 C 2873.59 3.15498 -1.43743 0
M  V30 30800 C 2872.65 3.37159 -2.65749 0
M  V30 30801 C 2871.89 4.6695 -2.58444 0
M  V30 30802 O 2872.11 5.465 -1.63384 0
M  V30 30803 O 2871.04 4.90395 -3.48993 0
M  V30 30804 H 2874.87 1.75542 -2.47828 0
M  V30 30805 H 2872.46 0.809089 -1.25595 0
M  V30 30806 H 2874.34 3.96782 -1.41923 0
M  V30 30807 H 2873.01 3.19744 -0.504544 0
M  V30 30808 H 2871.92 2.55627 -2.7314 0
M  V30 30809 H 2873.25 3.37761 -3.5802 0
M  V30 30810 N 2874.9 1.30141 0.88888 0
M  V30 30811 C 2876.15 1.18504 1.63711 0
M  V30 30812 C 2876.47 -0.261365 1.9324 0
M  V30 30813 O 2875.74 -1.17687 1.5661 0
M  V30 30814 H 2874.32 0.43559 0.606853 0
M  V30 30815 H 2876.99 1.63215 1.06522 0
M  V30 30816 H 2876.08 1.74304 2.58891 0
M  V30 30817 N 2876.38 -1.1007 1.12794 0
M  V30 30818 C 2877.31 -2.18563 0.821727 0
M  V30 30819 C 2878.29 -1.68722 -0.21609 0
M  V30 30820 O 2879.48 -1.94049 -0.076459 0
M  V30 30821 C 2876.61 -3.46172 0.279685 0
M  V30 30822 C 2875.56 -4.09309 1.25099 0
M  V30 30823 C 2874.89 -5.31664 0.56901 0
M  V30 30824 C 2876.19 -4.52581 2.60706 0
M  V30 30825 H 2877.88 -2.44435 1.72893 0
M  V30 30826 H 2875.43 -1.17481 0.832723 0
M  V30 30827 H 2877.38 -4.21366 0.0531731 0
M  V30 30828 H 2876.11 -3.19802 -0.662872 0
M  V30 30829 H 2874.76 -3.36126 1.46338 0
M  V30 30830 H 2874.41 -5.01572 -0.37881 0
M  V30 30831 H 2874.11 -5.7486 1.21697 0
M  V30 30832 H 2875.64 -6.09587 0.351624 0
M  V30 30833 H 2877.05 -5.19031 2.43474 0
M  V30 30834 H 2875.45 -5.06639 3.21616 0
M  V30 30835 H 2876.52 -3.65311 3.18867 0
M  V30 30836 N 2877.86 -0.920419 -1.2793 0
M  V30 30837 C 2879.11 -0.552901 -1.93974 0
M  V30 30838 C 2879.42 0.909004 -1.73195 0
M  V30 30839 O 2880.63 1.38498 -2.33518 0
M  V30 30840 C 2879.08 -0.938008 -3.47461 0
M  V30 30841 C 2878.69 -2.4201 -3.77008 0
M  V30 30842 C 2880.44 -0.641394 -4.19626 0
M  V30 30843 C 2878.34 -2.74498 -5.23836 0
M  V30 30844 H 2877.27 -0.203059 -0.726143 0
M  V30 30845 H 2879.92 -1.12024 -1.45337 0
M  V30 30846 H 2878.31 -0.299386 -3.94867 0
M  V30 30847 H 2879.48 -3.10601 -3.40387 0
M  V30 30848 H 2877.8 -2.68785 -3.18031 0
M  V30 30849 H 2880.39 -0.860714 -5.27727 0
M  V30 30850 H 2880.74 0.421095 -4.14165 0
M  V30 30851 H 2881.27 -1.23878 -3.7802 0
M  V30 30852 H 2878.01 -3.79627 -5.34381 0
M  V30 30853 H 2877.53 -2.1055 -5.6163 0
M  V30 30854 H 2879.21 -2.61855 -5.91643 0
M  V30 30855 N 2879.34 1.41929 -0.685124 0
M  V30 30856 C 2880.3 2.29189 -0.0223035 0
M  V30 30857 C 2881.3 1.43851 0.718575 0
M  V30 30858 O 2882.49 1.65121 0.555029 0
M  V30 30859 C 2879.62 3.26541 0.978955 0
M  V30 30860 H 2880.82 2.89295 -0.790475 0
M  V30 30861 H 2878.37 1.49741 -0.448038 0
M  V30 30862 H 2879.1 2.71395 1.77526 0
M  V30 30863 H 2878.89 3.89498 0.450969 0
M  V30 30864 H 2880.38 3.91956 1.44084 0
M  V30 30865 N 2880.82 0.429152 1.51644 0
M  V30 30866 C 2882.05 -0.138756 2.06134 0
M  V30 30867 C 2882.45 -1.37713 1.29737 0
M  V30 30868 O 2881.8 -1.80374 0.347987 0
M  V30 30869 C 2881.86 -0.534431 3.55505 0
M  V30 30870 C 2881.52 0.595996 4.53097 0
M  V30 30871 C 2882.52 1.46567 4.98813 0
M  V30 30872 C 2880.21 0.774397 4.96295 0
M  V30 30873 C 2882.2 2.49851 5.8639 0
M  V30 30874 C 2879.89 1.81052 5.83664 0
M  V30 30875 C 2880.88 2.67097 6.28608 0
M  V30 30876 O 2880.57 3.68932 7.14244 0
M  V30 30877 H 2880.3 -0.0150144 0.675833 0
M  V30 30878 H 2882.86 0.604619 1.963 0
M  V30 30879 H 2881.09 -1.33039 3.63094 0
M  V30 30880 H 2882.78 -1.03255 3.92547 0
M  V30 30881 H 2883.54 1.33933 4.6614 0
M  V30 30882 H 2879.42 0.114259 4.60858 0
M  V30 30883 H 2882.97 3.17045 6.21392 0
M  V30 30884 H 2878.86 1.93708 6.15749 0
M  V30 30885 H 2879.63 3.65415 7.32403 0
M  V30 30886 N 2882.29 -1.56783 0.160229 0
M  V30 30887 C 2883.54 -1.96834 -0.488276 0
M  V30 30888 C 2883.87 -1.04574 -1.6364 0
M  V30 30889 O 2883.15 -0.0906822 -1.94288 0
M  V30 30890 C 2883.43 -3.46456 -0.981847 0
M  V30 30891 C 2883.28 -4.49495 0.165686 0
M  V30 30892 C 2884.6 -3.98899 -1.85924 0
M  V30 30893 H 2881.72 -0.715673 -0.176014 0
M  V30 30894 H 2884.36 -1.88425 0.244127 0
M  V30 30895 H 2882.51 -3.53753 -1.60596 0
M  V30 30896 H 2884.19 -4.54267 0.802451 0
M  V30 30897 H 2882.43 -4.25924 0.822864 0
M  V30 30898 H 2883.1 -5.51555 -0.221602 0
M  V30 30899 H 2885.58 -3.94164 -1.3332 0
M  V30 30900 H 2884.45 -5.04028 -2.17364 0
M  V30 30901 H 2884.71 -3.42047 -2.801 0
M  V30 30902 N 2883.77 0.113531 -1.57191 0
M  V30 30903 C 2884.71 1.16954 -1.95952 0
M  V30 30904 C 2885.68 1.39822 -0.829976 0
M  V30 30905 O 2886.87 1.53886 -1.08864 0
M  V30 30906 C 2884 2.52233 -2.26044 0
M  V30 30907 C 2883.04 2.45759 -3.48575 0
M  V30 30908 S 2883.87 1.89194 -5.00965 0
M  V30 30909 C 2885.03 3.26135 -5.34216 0
M  V30 30910 H 2885.26 0.839019 -2.85215 0
M  V30 30911 H 2882.8 0.320503 -1.51037 0
M  V30 30912 H 2884.75 3.30068 -2.4406 0
M  V30 30913 H 2883.42 2.82461 -1.37385 0
M  V30 30914 H 2882.61 3.45422 -3.67014 0
M  V30 30915 H 2882.21 1.76047 -3.29975 0
M  V30 30916 H 2884.5 4.22362 -5.29732 0
M  V30 30917 H 2885.45 3.12518 -6.35404 0
M  V30 30918 H 2885.85 3.24816 -4.61687 0
M  V30 30919 N 2885.25 1.52854 0.383864 0
M  V30 30920 C 2886.48 1.72332 1.15397 0
M  V30 30921 C 2886.9 0.443012 1.82809 0
M  V30 30922 O 2886.26 -0.601615 1.71027 0
M  V30 30923 C 2886.31 2.87712 2.17381 0
M  V30 30924 O 2885.41 2.55044 3.24078 0
M  V30 30925 H 2884.75 0.572889 0.335699 0
M  V30 30926 H 2887.28 1.99667 0.446585 0
M  V30 30927 H 2887.29 3.13355 2.61291 0
M  V30 30928 H 2885.97 3.8059 1.67703 0
M  V30 30929 H 2884.54 2.40158 2.85269 0
M  V30 30930 N 2886.73 -0.642612 1.43904 0
M  V30 30931 C 2887.64 -1.78399 1.52352 0
M  V30 30932 C 2888.66 -1.69103 0.409899 0
M  V30 30933 O 2889.83 -1.90084 0.665581 0
M  V30 30934 C 2886.9 -3.14731 1.45414 0
M  V30 30935 C 2885.96 -3.35744 2.67533 0
M  V30 30936 C 2885.19 -4.65573 2.60917 0
M  V30 30937 O 2885.41 -5.45626 1.6628 0
M  V30 30938 O 2884.35 -4.88538 3.51589 0
M  V30 30939 H 2888.17 -1.74225 2.48755 0
M  V30 30940 H 2885.76 -0.802417 1.26022 0
M  V30 30941 H 2887.64 -3.96023 1.44026 0
M  V30 30942 H 2886.32 -3.19472 0.521494 0
M  V30 30943 H 2885.22 -2.54175 2.74492 0
M  V30 30944 H 2886.56 -3.35858 3.59806 0
M  V30 30945 N 2888.21 -1.30611 -0.881966 0
M  V30 30946 C 2889.16 -1.17158 -2.00939 0
M  V30 30947 C 2890.15 -0.0827452 -1.69198 0
M  V30 30948 O 2891.36 -0.243806 -1.78341 0
M  V30 30949 H 2887.73 -0.362418 -0.658906 0
M  V30 30950 H 2889.7 -2.1257 -2.09419 0
M  V30 30951 C 2888.45 -0.883332 -3.36292 0
M  V30 30952 H 2887.77 -1.71326 -3.6123 0
M  V30 30953 H 2889.21 -0.829328 -4.1581 0
M  V30 30954 C 2887.67 0.413793 -3.34349 0
M  V30 30955 O 2888.2 1.43437 -3.75218 0
M  V30 30956 N 2886.41 0.426032 -2.8746 0
M  V30 30957 H 2885.96 -0.404974 -2.54397 0
M  V30 30958 H 2885.91 1.29386 -2.86543 0
M  V30 30959 N 2889.69 1.0947 -1.13376 0
M  V30 30960 C 2890.93 1.81637 -0.895222 0
M  V30 30961 C 2891.26 1.85693 0.578647 0
M  V30 30962 O 2890.52 1.32062 1.44423 0
M  V30 30963 C 2890.81 3.27648 -1.42765 0
M  V30 30964 C 2890.48 3.43725 -2.91828 0
M  V30 30965 C 2889.14 3.47821 -3.32527 0
M  V30 30966 C 2891.49 3.483 -3.87733 0
M  V30 30967 C 2888.82 3.54069 -4.67816 0
M  V30 30968 C 2891.17 3.56082 -5.22865 0
M  V30 30969 C 2889.84 3.58446 -5.63092 0
M  V30 30970 H 2889.11 0.664657 -0.327585 0
M  V30 30971 H 2891.76 1.28967 -1.41562 0
M  V30 30972 H 2890.06 3.82952 -0.827938 0
M  V30 30973 H 2891.76 3.82017 -1.21917 0
M  V30 30974 H 2888.35 3.41222 -2.59356 0
M  V30 30975 H 2892.53 3.44377 -3.57377 0
M  V30 30976 H 2887.79 3.54186 -4.98359 0
M  V30 30977 H 2891.96 3.58567 -5.96995 0
M  V30 30978 H 2889.59 3.6304 -6.67911 0
M  V30 30979 N 2891.16 0.92719 1.2744 0
M  V30 30980 C 2892.39 0.583077 1.99035 0
M  V30 30981 C 2892.81 -0.831731 1.68712 0
M  V30 30982 O 2892.17 -1.55802 0.927108 0
M  V30 30983 C 2892.22 0.814986 3.5127 0
M  V30 30984 O 2891.32 -0.119669 4.12226 0
M  V30 30985 H 2890.66 0.224549 0.624879 0
M  V30 30986 H 2893.19 1.2463 1.6226 0
M  V30 30987 H 2893.2 0.730353 4.0141 0
M  V30 30988 H 2891.88 1.8463 3.72672 0
M  V30 30989 H 2890.46 0.0148344 3.72897 0
M  V30 30990 N 2892.64 -1.41564 0.692641 0
M  V30 30991 C 2894.06 -1.55396 0.363906 0
M  V30 30992 C 2894.26 -1.66876 -1.12937 0
M  V30 30993 O 2893.31 -1.64556 -1.91514 0
M  V30 30994 C 2894.63 -2.79468 1.10987 0
M  V30 30995 C 2896.17 -2.93261 1.09393 0
M  V30 30996 C 2896.65 -4.20217 1.82157 0
M  V30 30997 N 2898.14 -4.27168 1.79113 0
M  V30 30998 C 2898.88 -5.24256 2.32256 0
M  V30 30999 N 2898.37 -6.27391 2.93858 0
M  V30 31000 N 2900.16 -5.16176 2.22529 0
M  V30 31001 H 2892.32 -1.32357 1.66119 0
M  V30 31002 H 2894.58 -0.638358 0.700859 0
M  V30 31003 H 2894.28 -2.77185 2.16475 0
M  V30 31004 H 2894.16 -3.70899 0.686557 0
M  V30 31005 H 2896.55 -2.95062 0.0473156 0
M  V30 31006 H 2896.63 -2.03012 1.55627 0
M  V30 31007 H 2896.27 -4.19178 2.86796 0
M  V30 31008 H 2896.2 -5.09434 1.33359 0
M  V30 31009 H 2898.69 -3.5327 1.34197 0
M  V30 31010 H 2899 -6.97858 3.31984 0
M  V30 31011 H 2897.35 -6.27901 2.97935 0
M  V30 31012 H 2900.54 -4.34528 1.74077 0
M  V30 31013 H 2900.71 -5.91673 2.64249 0
M  V30 31014 N 2894.12 -0.437188 -1.51415 0
M  V30 31015 C 2895.53 0.0259677 -1.86682 0
M  V30 31016 C 2895.88 1.41957 -1.35435 0
M  V30 31017 O 2895.01 2.04591 -0.705091 0
M  V30 31018 C 2895.6 0.0538982 -3.38757 0
M  V30 31019 C 2894.16 0.461466 -3.73561 0
M  V30 31020 C 2893.31 -0.345973 -2.75133 0
M  V30 31021 H 2896.26 -0.653038 -1.44641 0
M  V30 31022 H 2896.28 0.863413 -3.70574 0
M  V30 31023 H 2895.79 -0.960516 -3.76026 0
M  V30 31024 H 2893.89 1.48149 -3.41881 0
M  V30 31025 H 2894.01 0.186367 -4.78737 0
M  V30 31026 H 2892.37 0.195695 -2.53947 0
M  V30 31027 H 2893.15 -1.35926 -3.15244 0
M  V30 31028 N 2895.6 1.56696 -0.168541 0
M  V30 31029 C 2896.53 2.20836 0.758524 0
M  V30 31030 C 2897.51 1.16313 1.24118 0
M  V30 31031 O 2898.69 1.44732 1.29485 0
M  V30 31032 C 2895.82 2.84693 1.98915 0
M  V30 31033 C 2894.78 3.95231 1.64245 0
M  V30 31034 C 2894.1 4.46124 2.94749 0
M  V30 31035 C 2895.4 5.14959 0.872585 0
M  V30 31036 H 2897.1 2.98562 0.2239 0
M  V30 31037 H 2894.64 1.43607 0.106252 0
M  V30 31038 H 2896.6 3.28237 2.64269 0
M  V30 31039 H 2895.32 2.04332 2.54786 0
M  V30 31040 H 2893.98 3.52338 1.0126 0
M  V30 31041 H 2893.63 3.62558 3.48655 0
M  V30 31042 H 2893.33 5.20695 2.72307 0
M  V30 31043 H 2894.85 4.92353 3.61138 0
M  V30 31044 H 2896.27 5.55214 1.42866 0
M  V30 31045 H 2894.66 5.95429 0.747297 0
M  V30 31046 H 2895.73 4.84721 -0.13162 0
M  V30 31047 N 2897.08 -0.105193 1.57249 0
M  V30 31048 C 2898.32 -0.808918 1.85205 0
M  V30 31049 C 2898.64 -1.79758 0.755772 0
M  V30 31050 O 2897.91 -1.94673 -0.21895 0
M  V30 31051 H 2896.49 -0.301727 0.683352 0
M  V30 31052 H 2899.16 -0.0892263 1.94696 0
M  V30 31053 H 2898.25 -1.3457 2.81598 0
M  V30 31054 N 2898.55 -1.53055 -0.375752 0
M  V30 31055 C 2899.97 -1.60542 -0.953062 0
M  V30 31056 C 2900.32 -0.466479 -1.90574 0
M  V30 31057 O 2899.44 0.408571 -2.12508 0
M  V30 31058 C 2900.04 -2.90985 -1.73532 0
M  V30 31059 C 2898.6 -3.0084 -2.26213 0
M  V30 31060 C 2897.74 -2.55761 -1.07153 0
M  V30 31061 H 2900.69 -1.57943 -0.154867 0
M  V30 31062 H 2900.71 -2.78216 -2.5957 0
M  V30 31063 H 2900.23 -3.73859 -1.04169 0
M  V30 31064 H 2898.33 -2.22532 -2.98848 0
M  V30 31065 H 2898.44 -4.05731 -2.54792 0
M  V30 31066 H 2896.8 -2.10394 -1.4355 0
M  V30 31067 H 2897.59 -3.41043 -0.39304 0
M  V30 31068 N 2900.03 0.634971 -1.44242 0
M  V30 31069 C 2901.44 1.21653 -1.41625 0
M  V30 31070 C 2901.79 1.95771 -0.129618 0
M  V30 31071 O 2900.92 2.0223 0.770189 0
M  V30 31072 C 2901.51 2.21274 -2.56561 0
M  V30 31073 C 2900.07 2.74865 -2.5715 0
M  V30 31074 C 2899.22 1.498 -2.33357 0
M  V30 31075 H 2902.17 0.425878 -1.52879 0
M  V30 31076 H 2902.19 3.03803 -2.29094 0
M  V30 31077 H 2901.7 1.673 -3.50189 0
M  V30 31078 H 2899.81 3.32852 -1.67453 0
M  V30 31079 H 2899.92 3.21166 -3.55513 0
M  V30 31080 H 2898.28 1.77796 -1.82375 0
M  V30 31081 H 2899.07 0.977344 -3.29094 0
M  V30 31082 N 2901.51 1.31076 0.875027 0
M  V30 31083 C 2902.74 1.23553 1.66581 0
M  V30 31084 C 2903.16 -0.196827 1.87067 0
M  V30 31085 O 2902.52 -1.14117 1.40879 0
M  V30 31086 C 2902.57 1.9797 3.01397 0
M  V30 31087 O 2901.67 1.31358 3.9092 0
M  V30 31088 H 2901.01 0.42683 0.508638 0
M  V30 31089 H 2903.54 1.73062 1.09136 0
M  V30 31090 H 2903.55 2.07372 3.5137 0
M  V30 31091 H 2902.23 3.02138 2.85806 0
M  V30 31092 H 2900.8 1.30374 3.49366 0
M  V30 31093 N 2902.99 -1.08867 1.13955 0
M  V30 31094 C 2904.21 -1.85451 0.928592 0
M  V30 31095 C 2904.64 -1.80838 -0.51761 0
M  V30 31096 O 2904 -1.19003 -1.36777 0
M  V30 31097 C 2904.04 -3.31111 1.4282 0
M  V30 31098 O 2903.15 -4.07755 0.617201 0
M  V30 31099 H 2902.49 -0.574833 0.33236 0
M  V30 31100 H 2905.02 -1.3744 1.51563 0
M  V30 31101 H 2905.03 -3.81957 1.43432 0
M  V30 31102 H 2903.7 -3.33784 2.48115 0
M  V30 31103 H 2902.28 -3.66658 0.67943 0
M  V30 31104 N 2904.47 -0.933936 -1.26946 0
M  V30 31105 C 2905.69 -0.593624 -1.98723 0
M  V30 31106 C 2906.12 0.822772 -1.69151 0
M  V30 31107 O 2905.47 1.55309 -0.935357 0
M  V30 31108 C 2905.52 -0.833604 -3.50832 0
M  V30 31109 O 2904.63 0.0978064 -4.12284 0
M  V30 31110 H 2903.97 -0.22786 -0.623679 0
M  V30 31111 H 2906.5 -1.25489 -1.61597 0
M  V30 31112 H 2906.51 -0.75163 -4.01017 0
M  V30 31113 H 2905.18 -1.86604 -3.71688 0
M  V30 31114 H 2903.76 -0.0346098 -3.72884 0
M  V30 31115 N 2905.94 1.41194 -0.700139 0
M  V30 31116 C 2907.17 2.05998 -0.240741 0
M  V30 31117 C 2907.59 1.52359 1.1031 0
M  V30 31118 O 2906.95 0.652454 1.69153 0
M  V30 31119 C 2907 3.59965 -0.213846 0
M  V30 31120 O 2906.1 4.0437 0.809862 0
M  V30 31121 H 2905.45 0.653703 -0.116482 0
M  V30 31122 H 2907.98 1.80877 -0.956283 0
M  V30 31123 H 2907.99 4.07974 -0.0462569 0
M  V30 31124 H 2906.66 3.98374 -1.19461 0
M  V30 31125 H 2905.24 3.67856 0.611255 0
M  V30 31126 N 2907.42 0.445212 1.51181 0
M  V30 31127 C 2908.67 -0.120154 2.01342 0
M  V30 31128 C 2908.98 -1.43093 1.33356 0
M  V30 31129 O 2910.19 -2.07971 1.74529 0
M  V30 31130 C 2908.65 -0.264669 3.58926 0
M  V30 31131 C 2908.25 1.03614 4.35853 0
M  V30 31132 C 2910 -0.783381 4.17209 0
M  V30 31133 C 2907.91 0.856834 5.8516 0
M  V30 31134 H 2906.84 -0.048679 0.752427 0
M  V30 31135 H 2909.49 0.576174 1.7422 0
M  V30 31136 H 2907.87 -1.02418 3.82526 0
M  V30 31137 H 2909.04 1.8046 4.23994 0
M  V30 31138 H 2907.36 1.48398 3.89059 0
M  V30 31139 H 2909.95 -0.934147 5.26477 0
M  V30 31140 H 2910.3 -1.76793 3.76895 0
M  V30 31141 H 2910.83 -0.0819647 3.97716 0
M  V30 31142 H 2907.57 1.81399 6.299 0
M  V30 31143 H 2907.09 0.128312 5.99663 0
M  V30 31144 H 2908.77 0.51314 6.44962 0
M  V30 31145 N 2908.9 -1.56605 0.176849 0
M  V30 31146 C 2910.13 -2.01865 -0.475954 0
M  V30 31147 C 2910.55 -1.05626 -1.55643 0
M  V30 31148 O 2909.91 -0.0367048 -1.81263 0
M  V30 31149 C 2909.96 -3.45692 -1.02613 0
M  V30 31150 O 2909.06 -3.52537 -2.13989 0
M  V30 31151 H 2908.4 -0.654253 -0.113351 0
M  V30 31152 H 2910.93 -2.02642 0.282365 0
M  V30 31153 H 2910.94 -3.85111 -1.34735 0
M  V30 31154 H 2909.62 -4.15235 -0.235065 0
M  V30 31155 H 2908.19 -3.24981 -1.8287 0
M  V30 31156 N 2910.38 0.0968524 -1.57302 0
M  V30 31157 C 2911.6 0.818135 -1.90582 0
M  V30 31158 C 2912.03 1.71575 -0.770951 0
M  V30 31159 O 2911.39 1.79163 0.277557 0
M  V30 31160 C 2911.43 1.60893 -3.22716 0
M  V30 31161 O 2910.54 2.71773 -3.10182 0
M  V30 31162 H 2909.88 0.224871 -0.624763 0
M  V30 31163 H 2912.41 0.072604 -2.04471 0
M  V30 31164 H 2912.42 1.99352 -3.55981 0
M  V30 31165 H 2911.09 0.950156 -4.04901 0
M  V30 31166 H 2909.67 2.36355 -2.88428 0
M  V30 31167 N 2911.86 1.53252 0.36763 0
M  V30 31168 C 2913.08 1.73241 1.13116 0
M  V30 31169 C 2913.5 0.460436 1.831 0
M  V30 31170 O 2912.86 -0.566527 1.73484 0
M  V30 31171 C 2912.91 2.89647 2.16303 0
M  V30 31172 O 2912.63 4.11923 1.49168 0
M  V30 31173 C 2914.13 3.21492 3.05218 0
M  V30 31174 H 2911.35 0.579473 0.338308 0
M  V30 31175 H 2913.89 1.99989 0.427174 0
M  V30 31176 H 2912.05 2.653 2.82302 0
M  V30 31177 H 2912.46 4.77094 2.17903 0
M  V30 31178 H 2913.94 4.06353 3.73606 0
M  V30 31179 H 2914.41 2.36769 3.69915 0
M  V30 31180 H 2915.02 3.47757 2.44837 0
M  V30 31181 N 2913.34 -0.627313 1.44577 0
M  V30 31182 C 2914.56 -1.41884 1.51273 0
M  V30 31183 C 2914.99 -1.87579 0.139847 0
M  V30 31184 O 2914.34 -1.58968 -0.871718 0
M  V30 31185 C 2914.39 -2.61273 2.48534 0
M  V30 31186 O 2913.5 -3.61238 1.9895 0
M  V30 31187 H 2912.84 -0.42439 0.510676 0
M  V30 31188 H 2915.37 -0.765322 1.89747 0
M  V30 31189 H 2915.38 -3.08768 2.66695 0
M  V30 31190 H 2914.05 -2.2736 3.48253 0
M  V30 31191 H 2912.63 -3.20525 1.90574 0
M  V30 31192 N 2914.81 -1.31539 -0.868063 0
M  V30 31193 C 2916.06 -1.21333 -1.62125 0
M  V30 31194 C 2916.39 0.228066 -1.93158 0
M  V30 31195 O 2915.64 1.17737 -1.56322 0
M  V30 31196 C 2915.94 -2.00466 -2.95886 0
M  V30 31197 C 2915.61 -3.49948 -2.84337 0
M  V30 31198 C 2914.27 -3.90707 -2.80895 0
M  V30 31199 C 2916.62 -4.45063 -2.71235 0
M  V30 31200 C 2913.95 -5.24845 -2.62211 0
M  V30 31201 C 2916.3 -5.79329 -2.54088 0
M  V30 31202 C 2914.97 -6.19306 -2.4903 0
M  V30 31203 H 2914.24 -0.44399 -0.593257 0
M  V30 31204 H 2916.88 -1.62824 -1.008 0
M  V30 31205 H 2915.19 -1.51661 -3.61256 0
M  V30 31206 H 2916.89 -1.89948 -3.53158 0
M  V30 31207 H 2913.48 -3.17568 -2.87834 0
M  V30 31208 H 2917.66 -4.14503 -2.72948 0
M  V30 31209 H 2912.92 -5.54891 -2.56721 0
M  V30 31210 H 2917.09 -6.52656 -2.42926 0
M  V30 31211 H 2914.72 -7.23189 -2.34311 0
M  V30 31212 N 2916.29 1.08262 -1.1453 0
M  V30 31213 C 2917.7 1.62158 -0.92529 0
M  V30 31214 C 2918.05 1.88749 0.535553 0
M  V30 31215 O 2917.18 1.64606 1.40477 0
M  V30 31216 C 2917.77 2.946 -1.67321 0
M  V30 31217 C 2916.33 3.45275 -1.49874 0
M  V30 31218 C 2915.48 2.19484 -1.69475 0
M  V30 31219 H 2918.43 0.914684 -1.29689 0
M  V30 31220 H 2918.45 3.63107 -1.13727 0
M  V30 31221 H 2917.96 2.75215 -2.73639 0
M  V30 31222 H 2916.06 3.69761 -0.459097 0
M  V30 31223 H 2916.18 4.21927 -2.26967 0
M  V30 31224 H 2914.54 2.28728 -1.12052 0
M  V30 31225 H 2915.32 2.02605 -2.77139 0
M  V30 31226 N 2917.77 0.940655 1.26449 0
M  V30 31227 C 2919.18 0.630683 1.75725 0
M  V30 31228 C 2919.53 -0.854136 1.76632 0
M  V30 31229 O 2918.66 -1.66845 1.3781 0
M  V30 31230 C 2919.25 1.13811 3.19112 0
M  V30 31231 C 2917.81 0.878561 3.66003 0
M  V30 31232 C 2916.96 1.28932 2.45503 0
M  V30 31233 H 2919.91 1.11902 1.12533 0
M  V30 31234 H 2919.93 0.491691 3.7731 0
M  V30 31235 H 2919.44 2.21879 3.1842 0
M  V30 31236 H 2917.54 -0.187768 3.72127 0
M  V30 31237 H 2917.66 1.5052 4.54841 0
M  V30 31238 H 2916.02 0.707756 2.44669 0
M  V30 31239 H 2916.8 2.37893 2.47512 0
M  V30 31240 N 2919.25 -1.40821 0.707617 0
M  V30 31241 C 2920.47 -2.05867 0.251662 0
M  V30 31242 C 2920.9 -1.52942 -1.09501 0
M  V30 31243 O 2920.26 -0.661415 -1.68805 0
M  V30 31244 C 2920.3 -3.59847 0.232933 0
M  V30 31245 O 2919.41 -4.04794 -0.788405 0
M  V30 31246 H 2918.75 -0.653076 0.119947 0
M  V30 31247 H 2921.28 -1.80367 0.965862 0
M  V30 31248 H 2921.29 -4.07944 0.0678921 0
M  V30 31249 H 2919.96 -3.97735 1.21572 0
M  V30 31250 H 2918.54 -3.68175 -0.591738 0
M  V30 31251 N 2920.73 -0.453223 -1.50943 0
M  V30 31252 C 2921.96 0.105945 -2.06328 0
M  V30 31253 C 2922.36 1.35632 -1.31912 0
M  V30 31254 O 2921.71 1.79797 -0.376639 0
M  V30 31255 C 2921.77 0.477805 -3.56311 0
M  V30 31256 C 2921.43 -0.668005 -4.52091 0
M  V30 31257 C 2922.43 -1.54484 -4.96418 0
M  V30 31258 C 2920.11 -0.853255 -4.95 0
M  V30 31259 C 2922.11 -2.59148 -5.82341 0
M  V30 31260 C 2919.8 -1.90315 -5.80709 0
M  V30 31261 C 2920.79 -2.77064 -6.24279 0
M  V30 31262 O 2920.48 -3.80248 -7.08284 0
M  V30 31263 H 2920.21 0.00426059 -0.675987 0
M  V30 31264 H 2922.77 -0.635772 -1.95313 0
M  V30 31265 H 2921 1.27246 -3.65165 0
M  V30 31266 H 2922.69 0.96997 -3.9414 0
M  V30 31267 H 2923.45 -1.41332 -4.63951 0
M  V30 31268 H 2919.33 -0.187563 -4.60618 0
M  V30 31269 H 2922.88 -3.2689 -6.1627 0
M  V30 31270 H 2918.77 -2.0348 -6.1259 0
M  V30 31271 H 2919.54 -3.7702 -7.26497 0
M  V30 31272 N 2922.2 1.56509 -0.185151 0
M  V30 31273 C 2923.48 1.89013 0.503315 0
M  V30 31274 C 2923.86 1.09718 1.80348 0
M  V30 31275 O 2923.21 0.195243 2.27664 0
M  V30 31276 C 2923.42 3.41242 0.731779 0
M  V30 31277 C 2924.77 4.11269 1.0556 0
M  V30 31278 O 2925.79 3.46637 0.819845 0
M  V30 31279 O 2924.65 5.25481 1.50107 0
M  V30 31280 H 2921.74 0.784693 0.261125 0
M  V30 31281 H 2924.29 1.68207 -0.224622 0
M  V30 31282 H 2923.06 3.90854 -0.186789 0
M  V30 31283 H 2922.68 3.67707 1.51254 0
M  V30 31284 N 2923.68 -0.0885089 1.57351 0
M  V30 31285 C 2924.91 -0.808017 1.91013 0
M  V30 31286 C 2925.33 -1.71164 0.780039 0
M  V30 31287 O 2924.69 -1.79307 -0.268051 0
M  V30 31288 C 2924.74 -1.59179 3.23565 0
M  V30 31289 O 2923.84 -2.70124 3.11619 0
M  V30 31290 H 2923.18 -0.221554 0.625947 0
M  V30 31291 H 2925.71 -0.0617594 2.04507 0
M  V30 31292 H 2925.72 -1.97461 3.57034 0
M  V30 31293 H 2924.4 -0.92867 4.05399 0
M  V30 31294 H 2922.97 -2.34822 2.89678 0
M  V30 31295 N 2925.16 -1.53445 -0.359498 0
M  V30 31296 C 2926.41 -1.70173 -1.10312 0
M  V30 31297 C 2926.74 -0.455321 -1.88787 0
M  V30 31298 O 2926.01 0.547481 -1.86636 0
M  V30 31299 C 2926.3 -2.9554 -2.05738 0
M  V30 31300 C 2926.15 -4.30352 -1.30832 0
M  V30 31301 C 2927.47 -3.16524 -3.05779 0
M  V30 31302 H 2924.59 -0.619232 -0.399651 0
M  V30 31303 H 2927.23 -1.86093 -0.383305 0
M  V30 31304 H 2925.38 -2.82098 -2.6712 0
M  V30 31305 H 2927.05 -4.55617 -0.721879 0
M  V30 31306 H 2925.29 -4.29487 -0.610208 0
M  V30 31307 H 2925.97 -5.14218 -2.00709 0
M  V30 31308 H 2928.44 -3.29191 -2.54504 0
M  V30 31309 H 2927.32 -4.05666 -3.69765 0
M  V30 31310 H 2927.58 -2.32083 -3.76284 0
M  V30 31311 N 2926.64 0.619637 -1.44908 0
M  V30 31312 C 2927.87 1.40588 -1.51798 0
M  V30 31313 C 2928.28 1.8823 -0.146586 0
M  V30 31314 O 2927.64 1.61514 0.849669 0
M  V30 31315 C 2927.69 2.61849 -2.49233 0
M  V30 31316 O 2927.41 2.1619 -3.81043 0
M  V30 31317 C 2928.91 3.54848 -2.65703 0
M  V30 31318 H 2926.13 0.430768 -0.51447 0
M  V30 31319 H 2928.67 0.75678 -1.89982 0
M  V30 31320 H 2926.83 3.22826 -2.14154 0
M  V30 31321 H 2927.24 2.94889 -4.33752 0
M  V30 31322 H 2928.72 4.36509 -3.37882 0
M  V30 31323 H 2929.19 4.04407 -1.71323 0
M  V30 31324 H 2929.8 2.99732 -3.0173 0
M  V30 31325 N 2928.12 1.31997 0.861075 0
M  V30 31326 C 2929.53 1.10848 1.14825 0
M  V30 31327 C 2929.73 -0.115245 2.0117 0
M  V30 31328 O 2928.79 -0.802006 2.39425 0
M  V30 31329 C 2930.1 2.38466 1.83179 0
M  V30 31330 C 2931.65 2.44161 1.95842 0
M  V30 31331 C 2932.12 3.71683 2.67611 0
M  V30 31332 N 2933.62 3.72628 2.7514 0
M  V30 31333 C 2934.35 4.68 3.31306 0
M  V30 31334 N 2933.85 5.73733 3.88333 0
M  V30 31335 N 2935.64 4.55506 3.29348 0
M  V30 31336 H 2927.79 2.10467 0.285914 0
M  V30 31337 H 2930.05 0.92891 0.189287 0
M  V30 31338 H 2929.76 3.27897 1.27187 0
M  V30 31339 H 2929.63 2.4894 2.83388 0
M  V30 31340 H 2932.02 1.55194 2.50996 0
M  V30 31341 H 2932.1 2.37645 0.946489 0
M  V30 31342 H 2931.75 4.61022 2.13122 0
M  V30 31343 H 2931.68 3.75469 3.6923 0
M  V30 31344 H 2934.17 2.96201 2.34677 0
M  V30 31345 H 2934.48 6.42572 4.29327 0
M  V30 31346 H 2932.82 5.77496 3.86683 0
M  V30 31347 H 2936.02 3.72074 2.8404 0
M  V30 31348 H 2936.19 5.30008 3.72821 0
M  V30 31349 N 2929.59 -1.07653 1.15103 0
M  V30 31350 C 2930.56 -2.12949 0.847662 0
M  V30 31351 C 2931.56 -1.60088 -0.151199 0
M  V30 31352 O 2932.75 -1.74025 0.0780705 0
M  V30 31353 C 2929.88 -3.39868 0.26506 0
M  V30 31354 H 2931.07 -2.41293 1.78095 0
M  V30 31355 H 2928.63 -1.23492 0.958094 0
M  V30 31356 H 2929.36 -3.17164 -0.67657 0
M  V30 31357 H 2929.15 -3.79536 0.98462 0
M  V30 31358 H 2930.64 -4.17541 0.0702855 0
M  V30 31359 N 2931.07 -0.947348 -1.25949 0
M  V30 31360 C 2932.3 -0.615162 -1.97543 0
M  V30 31361 C 2932.72 0.811191 -1.70485 0
M  V30 31362 O 2932.07 1.54168 -0.976647 0
M  V30 31363 C 2932.12 -0.85539 -3.51234 0
M  V30 31364 O 2931.84 -2.22565 -3.77355 0
M  V30 31365 C 2933.35 -0.534592 -4.40065 0
M  V30 31366 H 2930.57 -0.231274 -0.629884 0
M  V30 31367 H 2933.11 -1.26974 -1.60306 0
M  V30 31368 H 2931.26 -0.247334 -3.8661 0
M  V30 31369 H 2931.68 -2.29031 -4.71853 0
M  V30 31370 H 2933.15 -0.753264 -5.46836 0
M  V30 31371 H 2933.63 0.530625 -4.35983 0
M  V30 31372 H 2934.24 -1.12165 -4.10243 0
M  V30 31373 N 2932.55 1.40444 -0.715075 0
M  V30 31374 C 2933.78 2.05731 -0.262576 0
M  V30 31375 C 2934.2 1.5352 1.08688 0
M  V30 31376 O 2933.56 0.670358 1.68451 0
M  V30 31377 C 2933.61 3.59718 -0.252013 0
M  V30 31378 O 2932.71 4.05206 0.766927 0
M  V30 31379 H 2932.05 0.652431 -0.123409 0
M  V30 31380 H 2934.58 1.79852 -0.975413 0
M  V30 31381 H 2934.59 4.07902 -0.0895254 0
M  V30 31382 H 2933.27 3.97085 -1.23679 0
M  V30 31383 H 2931.84 3.68484 0.572204 0
M  V30 31384 N 2934.03 0.461222 1.507 0
M  V30 31385 C 2935.31 -0.158262 1.94959 0
M  V30 31386 C 2935.69 -1.57897 1.40114 0
M  V30 31387 O 2935.03 -2.20536 0.598015 0
M  V30 31388 C 2935.24 -0.111659 3.48821 0
M  V30 31389 C 2936.59 -0.305445 4.235 0
M  V30 31390 O 2937.62 -0.188696 3.557 0
M  V30 31391 O 2936.47 -0.540148 5.43824 0
M  V30 31392 H 2933.57 -0.117039 0.818676 0
M  V30 31393 H 2936.11 0.520917 1.61507 0
M  V30 31394 H 2934.89 0.880644 3.81262 0
M  V30 31395 H 2934.51 -0.832723 3.88782 0
M  V30 31396 N 2935.51 -1.56408 0.193449 0
M  V30 31397 C 2936.45 -2.20353 -0.744791 0
M  V30 31398 C 2937.45 -1.1742 -1.22102 0
M  V30 31399 O 2938.65 -1.35569 -1.18411 0
M  V30 31400 H 2935.03 -0.706165 -0.258525 0
M  V30 31401 H 2937 -2.97846 -0.181742 0
M  V30 31402 C 2935.75 -2.87568 -1.95448 0
M  V30 31403 H 2935.07 -3.66514 -1.5971 0
M  V30 31404 H 2936.51 -3.3575 -2.58936 0
M  V30 31405 C 2934.97 -1.88515 -2.7922 0
M  V30 31406 O 2935.5 -1.38441 -3.7709 0
M  V30 31407 N 2933.71 -1.56781 -2.44679 0
M  V30 31408 H 2933.25 -1.97695 -1.6515 0
M  V30 31409 H 2933.21 -0.907626 -3.01014 0
M  V30 31410 N 2936.98 0.0801629 -1.57396 0
M  V30 31411 C 2937.91 1.09662 -2.06147 0
M  V30 31412 C 2938.9 1.40877 -0.953298 0
M  V30 31413 O 2940.08 1.50649 -1.2255 0
M  V30 31414 C 2937.21 2.4124 -2.49841 0
M  V30 31415 C 2936.16 2.24398 -3.64458 0
M  V30 31416 C 2935.49 3.61286 -3.94178 0
M  V30 31417 C 2936.79 1.67214 -4.9481 0
M  V30 31418 H 2938.48 0.690977 -2.91317 0
M  V30 31419 H 2936.03 0.330932 -1.40146 0
M  V30 31420 H 2937.98 3.12633 -2.82557 0
M  V30 31421 H 2936.71 2.83768 -1.61688 0
M  V30 31422 H 2935.37 1.55448 -3.32011 0
M  V30 31423 H 2935.01 4.01369 -3.0317 0
M  V30 31424 H 2934.71 3.50859 -4.71351 0
M  V30 31425 H 2936.24 4.34123 -4.29383 0
M  V30 31426 H 2937.65 2.28463 -5.25811 0
M  V30 31427 H 2936.05 1.67505 -5.76248 0
M  V30 31428 H 2937.12 0.632859 -4.80752 0
M  V30 31429 N 2938.46 1.53634 0.351355 0
M  V30 31430 C 2939.39 1.77376 1.45156 0
M  V30 31431 C 2940.41 0.654852 1.49049 0
M  V30 31432 O 2941.6 0.931423 1.52272 0
M  V30 31433 C 2938.7 1.85148 2.83854 0
M  V30 31434 C 2937.87 3.14978 3.03493 0
M  V30 31435 C 2936.93 3.13808 4.22388 0
M  V30 31436 O 2935.95 3.87558 4.16878 0
M  V30 31437 N 2937.16 2.35626 5.30529 0
M  V30 31438 H 2939.92 2.72313 1.25162 0
M  V30 31439 H 2937.48 1.52587 0.541183 0
M  V30 31440 H 2939.47 1.81826 3.61554 0
M  V30 31441 H 2938.04 0.974327 2.97028 0
M  V30 31442 H 2937.26 3.31487 2.1333 0
M  V30 31443 H 2938.55 4.0075 3.13491 0
M  V30 31444 H 2937.95 1.75245 5.37871 0
M  V30 31445 H 2936.51 2.38109 6.06751 0
M  V30 31446 N 2939.94 -0.611943 1.45234 0
M  V30 31447 C 2941.19 -1.3731 1.49244 0
M  V30 31448 C 2941.52 -1.93751 0.131997 0
M  V30 31449 O 2940.79 -1.74799 -0.852968 0
M  V30 31450 C 2941.08 -2.52424 2.56816 0
M  V30 31451 C 2940.93 -2.01208 4.02288 0
M  V30 31452 C 2942.25 -3.54567 2.60711 0
M  V30 31453 H 2939.37 -0.497915 0.543369 0
M  V30 31454 H 2942.01 -0.690211 1.7702 0
M  V30 31455 H 2940.16 -3.10678 2.33262 0
M  V30 31456 H 2941.83 -1.47636 4.37037 0
M  V30 31457 H 2940.08 -1.32241 4.13152 0
M  V30 31458 H 2940.75 -2.84169 4.73235 0
M  V30 31459 H 2943.22 -3.06146 2.81805 0
M  V30 31460 H 2942.1 -4.32608 3.37849 0
M  V30 31461 H 2942.36 -4.099 1.65634 0
M  V30 31462 N 2941.42 -1.32452 -0.854063 0
M  V30 31463 C 2942.83 -1.11455 -1.14236 0
M  V30 31464 C 2943.03 0.104575 -2.01228 0
M  V30 31465 O 2942.09 0.789297 -2.39847 0
M  V30 31466 C 2943.4 -2.39434 -1.81912 0
M  V30 31467 C 2944.95 -2.45197 -1.94545 0
M  V30 31468 C 2945.43 -3.73097 -2.65636 0
M  V30 31469 N 2946.92 -3.74082 -2.7316 0
M  V30 31470 C 2947.65 -4.6975 -3.28819 0
M  V30 31471 N 2947.15 -5.75784 -3.85284 0
M  V30 31472 N 2948.94 -4.57247 -3.26928 0
M  V30 31473 H 2941.09 -2.10616 -0.274749 0
M  V30 31474 H 2943.36 -0.929901 -0.184358 0
M  V30 31475 H 2943.06 -3.28567 -1.25446 0
M  V30 31476 H 2942.94 -2.50439 -2.82064 0
M  V30 31477 H 2945.32 -1.56523 -2.50169 0
M  V30 31478 H 2945.4 -2.38144 -0.933872 0
M  V30 31479 H 2945.05 -4.62146 -2.10675 0
M  V30 31480 H 2944.98 -3.77421 -3.67234 0
M  V30 31481 H 2947.47 -2.97442 -2.33103 0
M  V30 31482 H 2947.78 -6.44839 -4.25913 0
M  V30 31483 H 2946.13 -5.79538 -3.83615 0
M  V30 31484 H 2949.32 -3.73575 -2.82063 0
M  V30 31485 H 2949.49 -5.31978 -3.70005 0
M  V30 31486 N 2942.9 1.07041 -1.15672 0
M  V30 31487 C 2944.15 1.79342 -0.931705 0
M  V30 31488 C 2944.47 1.87305 0.542388 0
M  V30 31489 O 2943.74 1.37624 1.39415 0
M  V30 31490 H 2942.32 0.664256 -0.341721 0
M  V30 31491 H 2944.98 1.29342 -1.45797 0
M  V30 31492 H 2944.07 2.81687 -1.34384 0
M  V30 31493 N 2944.38 0.954014 1.25445 0
M  V30 31494 C 2945.6 0.625164 1.97754 0
M  V30 31495 C 2946.03 -0.795757 1.70439 0
M  V30 31496 O 2945.38 -1.53801 0.959947 0
M  V30 31497 C 2945.43 0.889313 3.49462 0
M  V30 31498 O 2944.54 -0.0322032 4.12387 0
M  V30 31499 H 2943.88 0.237753 0.619975 0
M  V30 31500 H 2946.41 1.28044 1.5958 0
M  V30 31501 H 2946.42 0.815333 3.9977 0
M  V30 31502 H 2945.09 1.92493 3.68672 0
M  V30 31503 H 2943.67 0.093928 3.72782 0
M  V30 31504 N 2945.85 -1.40063 0.722513 0
M  V30 31505 C 2947.13 -1.94657 0.191863 0
M  V30 31506 C 2947.51 -1.6602 -1.30386 0
M  V30 31507 O 2946.86 -0.981624 -2.0634 0
M  V30 31508 C 2947.07 -3.45223 0.512039 0
M  V30 31509 C 2948.42 -4.2216 0.454501 0
M  V30 31510 O 2949.44 -3.53365 0.4485 0
M  V30 31511 O 2948.3 -5.44741 0.438082 0
M  V30 31512 H 2945.39 -0.826426 0.0307966 0
M  V30 31513 H 2947.94 -1.49632 0.800519 0
M  V30 31514 H 2946.71 -3.59452 1.54628 0
M  V30 31515 H 2946.33 -3.974 -0.126227 0
M  V30 31516 N 2947.33 -0.469207 -1.50453 0
M  V30 31517 C 2948.56 0.084055 -2.06429 0
M  V30 31518 C 2948.97 1.34225 -1.33343 0
M  V30 31519 O 2948.31 1.79388 -0.395688 0
M  V30 31520 C 2948.37 0.439987 -3.56797 0
M  V30 31521 C 2948.04 -0.715918 -4.51358 0
M  V30 31522 C 2949.04 -1.5974 -4.94752 0
M  V30 31523 C 2946.72 -0.905708 -4.94067 0
M  V30 31524 C 2948.71 -2.6531 -5.7956 0
M  V30 31525 C 2946.4 -1.96463 -5.78658 0
M  V30 31526 C 2947.4 -2.83669 -6.21306 0
M  V30 31527 O 2947.09 -3.87739 -7.04211 0
M  V30 31528 H 2946.82 -0.00290939 -0.675994 0
M  V30 31529 H 2949.37 -0.656452 -1.94628 0
M  V30 31530 H 2947.6 1.23365 -3.66494 0
M  V30 31531 H 2949.29 0.928112 -3.95147 0
M  V30 31532 H 2950.06 -1.46245 -4.62425 0
M  V30 31533 H 2945.94 -0.236407 -4.60393 0
M  V30 31534 H 2949.48 -3.33408 -6.12768 0
M  V30 31535 H 2945.38 -2.09966 -6.10397 0
M  V30 31536 H 2946.15 -3.84704 -7.22457 0
M  V30 31537 N 2948.81 1.56303 -0.201741 0
M  V30 31538 C 2950.03 2.02597 0.443779 0
M  V30 31539 C 2950.46 1.08089 1.53943 0
M  V30 31540 O 2949.82 0.0655375 1.81182 0
M  V30 31541 C 2949.87 3.47281 0.971005 0
M  V30 31542 O 2948.97 3.55897 2.08354 0
M  V30 31543 H 2948.31 0.655974 0.102928 0
M  V30 31544 H 2950.84 2.02167 -0.314568 0
M  V30 31545 H 2950.85 3.87206 1.28591 0
M  V30 31546 H 2949.53 4.15557 0.168975 0
M  V30 31547 H 2948.1 3.27849 1.77677 0
M  V30 31548 N 2950.29 -0.0718147 1.57436 0
M  V30 31549 C 2951.24 -1.09226 2.00134 0
M  V30 31550 C 2952.22 -1.3448 0.883402 0
M  V30 31551 O 2953.41 -1.34781 1.14731 0
M  V30 31552 C 2950.54 -2.40601 2.4488 0
M  V30 31553 C 2949.63 -2.18621 3.63409 0
M  V30 31554 N 2950.02 -1.6657 4.77586 0
M  V30 31555 C 2948.32 -2.49094 3.69957 0
M  V30 31556 C 2949.02 -1.59405 5.59433 0
M  V30 31557 N 2947.99 -2.05455 5.03279 0
M  V30 31558 H 2951.8 -0.683135 2.8585 0
M  V30 31559 H 2949.31 -0.278886 1.59987 0
M  V30 31560 H 2951.31 -3.14467 2.73708 0
M  V30 31561 H 2949.97 -2.82229 1.60551 0
M  V30 31562 H 2950.98 -1.35435 4.99878 0
M  V30 31563 H 2947.66 -2.94089 2.96341 0
M  V30 31564 H 2949.05 -1.20015 6.61095 0
M  V30 31565 N 2951.77 -1.53818 -0.343203 0
M  V30 31566 C 2952.99 -1.75331 -1.10787 0
M  V30 31567 C 2953.42 -0.491324 -1.8157 0
M  V30 31568 O 2952.77 0.556059 -1.72562 0
M  V30 31569 C 2952.82 -2.93374 -2.09676 0
M  V30 31570 O 2951.93 -2.63546 -3.17202 0
M  V30 31571 H 2951.27 -0.581588 -0.320392 0
M  V30 31572 H 2953.8 -2.00781 -0.39349 0
M  V30 31573 H 2953.81 -3.20172 -2.52891 0
M  V30 31574 H 2952.48 -3.84902 -1.57554 0
M  V30 31575 H 2951.06 -2.47637 -2.78801 0
M  V30 31576 N 2953.24 0.604233 -1.45557 0
M  V30 31577 C 2954.15 1.74297 -1.57028 0
M  V30 31578 C 2955.17 1.67957 -0.454589 0
M  V30 31579 O 2956.35 1.88253 -0.715745 0
M  V30 31580 C 2953.41 3.10765 -1.53707 0
M  V30 31581 C 2952.47 3.28533 -2.76341 0
M  V30 31582 C 2951.7 4.58491 -2.73169 0
M  V30 31583 O 2951.93 5.41025 -1.80687 0
M  V30 31584 O 2950.86 4.79044 -3.64418 0
M  V30 31585 H 2954.69 1.67569 -2.53287 0
M  V30 31586 H 2952.27 0.768722 -1.28105 0
M  V30 31587 H 2954.15 3.92066 -1.54475 0
M  V30 31588 H 2952.83 3.17977 -0.606013 0
M  V30 31589 H 2951.74 2.46808 -2.81134 0
M  V30 31590 H 2953.07 3.262 -3.68584 0
M  V30 31591 N 2954.72 1.32903 0.847027 0
M  V30 31592 C 2956 1.14506 1.58581 0
M  V30 31593 C 2956.38 -0.291687 2.09075 0
M  V30 31594 O 2955.73 -1.28949 1.88638 0
M  V30 31595 C 2955.94 2.17921 2.72601 0
M  V30 31596 C 2957.28 2.51652 3.41989 0
M  V30 31597 O 2958.31 2.16525 2.82834 0
M  V30 31598 O 2957.17 3.11898 4.48756 0
M  V30 31599 H 2954.26 0.442357 0.698748 0
M  V30 31600 H 2956.81 1.44459 0.890491 0
M  V30 31601 H 2955.58 3.14463 2.3287 0
M  V30 31602 H 2955.2 1.89006 3.49803 0
M  V30 31603 N 2956.2 -1.06426 1.16238 0
M  V30 31604 C 2957.13 -2.15838 0.890845 0
M  V30 31605 C 2958.11 -1.69324 -0.162303 0
M  V30 31606 O 2959.3 -1.94194 -0.014685 0
M  V30 31607 C 2956.43 -3.45107 0.389675 0
M  V30 31608 C 2955.38 -4.05122 1.38058 0
M  V30 31609 C 2954.71 -5.29584 0.737867 0
M  V30 31610 C 2956.01 -4.44058 2.74973 0
M  V30 31611 H 2957.7 -2.38811 1.80582 0
M  V30 31612 H 2955.25 -1.14772 0.869677 0
M  V30 31613 H 2957.2 -4.20984 0.187201 0
M  V30 31614 H 2955.92 -3.21749 -0.560794 0
M  V30 31615 H 2954.58 -3.313 1.56958 0
M  V30 31616 H 2954.23 -5.02523 -0.219047 0
M  V30 31617 H 2953.93 -5.70697 1.39924 0
M  V30 31618 H 2955.45 -6.08159 0.545381 0
M  V30 31619 H 2956.87 -5.11022 2.59864 0
M  V30 31620 H 2955.26 -4.9615 3.37572 0
M  V30 31621 H 2956.33 -3.54982 3.30327 0
M  V30 31622 N 2957.68 -0.960653 -1.24937 0
M  V30 31623 C 2958.64 -0.490099 -2.23899 0
M  V30 31624 C 2959.64 0.409508 -1.55498 0
M  V30 31625 O 2960.83 0.205954 -1.72978 0
M  V30 31626 C 2957.96 0.291133 -3.39655 0
M  V30 31627 H 2959.16 -1.36487 -2.67042 0
M  V30 31628 H 2956.71 -0.744529 -1.37428 0
M  V30 31629 H 2957.44 1.18331 -3.01941 0
M  V30 31630 H 2957.23 -0.354345 -3.90496 0
M  V30 31631 H 2958.72 0.609621 -4.13126 0
M  V30 31632 N 2959.16 1.39677 -0.729931 0
M  V30 31633 C 2960.43 1.94552 -0.202184 0
M  V30 31634 C 2960.81 1.66709 1.29504 0
M  V30 31635 O 2960.16 0.992553 2.05817 0
M  V30 31636 C 2960.37 3.44947 -0.53034 0
M  V30 31637 C 2961.72 4.21913 -0.476882 0
M  V30 31638 O 2962.74 3.53122 -0.467234 0
M  V30 31639 O 2961.6 5.44501 -0.466965 0
M  V30 31640 H 2958.7 0.826251 -0.0351789 0
M  V30 31641 H 2961.24 1.49205 -0.808444 0
M  V30 31642 H 2960.01 3.58627 -1.56532 0
M  V30 31643 H 2959.64 3.97461 0.10515 0
M  V30 31644 N 2960.63 0.47718 1.50202 0
M  V30 31645 C 2961.88 -0.0757029 2.02358 0
M  V30 31646 C 2962.21 -1.39172 1.35873 0
M  V30 31647 O 2961.46 -1.89837 0.475449 0
M  V30 31648 C 2961.76 -0.301262 3.56128 0
M  V30 31649 C 2961.43 0.933802 4.41125 0
M  V30 31650 C 2960.09 1.27241 4.64072 0
M  V30 31651 C 2962.44 1.75585 4.90734 0
M  V30 31652 C 2959.77 2.43301 5.33874 0
M  V30 31653 C 2962.12 2.90778 5.6181 0
M  V30 31654 C 2960.79 3.25047 5.8301 0
M  V30 31655 H 2960.06 -0.0277017 0.740482 0
M  V30 31656 H 2962.7 0.632499 1.80753 0
M  V30 31657 H 2961.01 -1.09177 3.76281 0
M  V30 31658 H 2962.71 -0.743115 3.94054 0
M  V30 31659 H 2959.3 0.660009 4.23488 0
M  V30 31660 H 2963.48 1.50742 4.72854 0
M  V30 31661 H 2958.74 2.70118 5.48494 0
M  V30 31662 H 2962.91 3.54818 5.99231 0
M  V30 31663 H 2960.54 4.15085 6.36874 0
M  V30 31664 N 2962.11 -1.56194 0.210027 0
M  V30 31665 C 2963.52 -1.84275 -0.29991 0
M  V30 31666 C 2963.87 -1.13113 -1.60312 0
M  V30 31667 O 2963 -0.396911 -2.12729 0
M  V30 31668 C 2963.59 -3.34291 -0.550927 0
M  V30 31669 C 2962.15 -3.6273 -1.0052 0
M  V30 31670 C 2961.3 -2.77231 -0.0619341 0
M  V30 31671 H 2964.25 -1.52665 0.433485 0
M  V30 31672 H 2964.27 -3.53872 -1.3984 0
M  V30 31673 H 2963.78 -3.86057 0.397737 0
M  V30 31674 H 2961.89 -3.1641 -1.96762 0
M  V30 31675 H 2962 -4.70807 -0.887581 0
M  V30 31676 H 2960.36 -2.48318 -0.566605 0
M  V30 31677 H 2961.15 -3.31791 0.881441 0
M  V30 31678 N 2963.59 0.0634645 -1.57472 0
M  V30 31679 C 2965 0.614306 -1.76304 0
M  V30 31680 C 2965.35 1.77469 -0.836609 0
M  V30 31681 O 2964.48 2.16388 -0.0227564 0
M  V30 31682 C 2965.07 1.12116 -3.19711 0
M  V30 31683 C 2963.63 1.6178 -3.39859 0
M  V30 31684 C 2962.78 0.540797 -2.71976 0
M  V30 31685 H 2965.73 -0.16273 -1.57863 0
M  V30 31686 H 2965.75 1.98973 -3.2433 0
M  V30 31687 H 2965.26 0.276404 -3.87114 0
M  V30 31688 H 2963.36 2.48553 -2.77582 0
M  V30 31689 H 2963.48 1.689 -4.48341 0
M  V30 31690 H 2961.84 0.987813 -2.34764 0
M  V30 31691 H 2962.62 -0.293916 -3.4204 0
M  V30 31692 N 2965.07 1.53998 0.33504 0
M  V30 31693 C 2966.29 1.75916 1.09856 0
M  V30 31694 C 2966.72 0.500947 1.81307 0
M  V30 31695 O 2966.08 -0.5469 1.72855 0
M  V30 31696 C 2966.12 2.94482 2.08117 0
M  V30 31697 O 2965.23 2.65225 3.158 0
M  V30 31698 H 2964.57 0.583279 0.317303 0
M  V30 31699 H 2967.1 2.00986 0.382836 0
M  V30 31700 H 2967.11 3.21509 2.51189 0
M  V30 31701 H 2965.78 3.85732 1.5551 0
M  V30 31702 H 2964.36 2.49112 2.77484 0
M  V30 31703 N 2966.55 -0.596505 1.45875 0
M  V30 31704 C 2967.96 -1.17855 1.448 0
M  V30 31705 C 2968.31 -1.95359 0.181478 0
M  V30 31706 O 2967.43 -2.04201 -0.716301 0
M  V30 31707 C 2968.03 -2.14394 2.62337 0
M  V30 31708 C 2966.59 -2.67951 2.64347 0
M  V30 31709 C 2965.73 -1.4356 2.37246 0
M  V30 31710 H 2968.69 -0.385195 1.53954 0
M  V30 31711 H 2968.71 -2.97622 2.37068 0
M  V30 31712 H 2968.22 -1.57957 3.54501 0
M  V30 31713 H 2966.32 -3.28295 1.76219 0
M  V30 31714 H 2966.43 -3.11627 3.63903 0
M  V30 31715 H 2964.8 -1.72898 1.87025 0
M  V30 31716 H 2965.58 -0.889747 3.3157 0
M  V30 31717 N 2968.02 -1.3335 -0.839967 0
M  V30 31718 C 2969.3 -1.15345 -1.57971 0
M  V30 31719 C 2969.68 0.280595 -2.09227 0
M  V30 31720 O 2969.03 1.27947 -1.8932 0
M  V30 31721 C 2969.24 -2.19363 -2.71442 0
M  V30 31722 C 2970.59 -2.53462 -3.4065 0
M  V30 31723 O 2971.61 -2.18022 -2.81682 0
M  V30 31724 O 2970.47 -3.14274 -4.47095 0
M  V30 31725 H 2967.56 -0.446056 -0.696393 0
M  V30 31726 H 2970.11 -1.44929 -0.882817 0
M  V30 31727 H 2968.88 -3.15694 -2.31199 0
M  V30 31728 H 2968.51 -1.90859 -3.48796 0
M  V30 31729 N 2969.5 1.05808 -1.16801 0
M  V30 31730 C 2970.92 1.30839 -0.913958 0
M  V30 31731 C 2971.12 1.9685 0.430404 0
M  V30 31732 O 2970.17 2.23819 1.16881 0
M  V30 31733 C 2971.49 2.18426 -2.06666 0
M  V30 31734 C 2973.04 2.31827 -2.10298 0
M  V30 31735 C 2973.51 3.2277 -3.24936 0
M  V30 31736 N 2975 3.30355 -3.24684 0
M  V30 31737 C 2975.74 4.0083 -4.10028 0
M  V30 31738 N 2975.23 4.73786 -5.05469 0
M  V30 31739 N 2977.03 3.9693 -3.97998 0
M  V30 31740 H 2969.18 0.613577 -2.03345 0
M  V30 31741 H 2971.44 0.333117 -0.887545 0
M  V30 31742 H 2971.15 1.77206 -3.03794 0
M  V30 31743 H 2971.02 3.19034 -2.01239 0
M  V30 31744 H 2973.41 2.72292 -1.13759 0
M  V30 31745 H 2973.49 1.30869 -2.19788 0
M  V30 31746 H 2973.13 2.83021 -4.21736 0
M  V30 31747 H 2973.06 4.23719 -3.12682 0
M  V30 31748 H 2975.55 2.78368 -2.55577 0
M  V30 31749 H 2975.87 5.25103 -5.66998 0
M  V30 31750 H 2974.21 4.72749 -5.09444 0
M  V30 31751 H 2977.4 3.39057 -3.22736 0
M  V30 31752 H 2977.57 4.51586 -4.6473 0
M  V30 31753 N 2970.98 0.967265 1.24426 0
M  V30 31754 C 2972.26 0.545809 1.8783 0
M  V30 31755 C 2972.64 -0.977066 1.87127 0
M  V30 31756 O 2971.99 -1.84823 1.3436 0
M  V30 31757 C 2972.2 1.13684 3.29965 0
M  V30 31758 C 2973.54 1.22147 4.06651 0
M  V30 31759 O 2974.57 1.08932 3.39134 0
M  V30 31760 O 2973.43 1.43027 5.27452 0
M  V30 31761 H 2970.52 0.181926 0.806741 0
M  V30 31762 H 2973.07 1.06151 1.32401 0
M  V30 31763 H 2971.84 2.17963 3.24973 0
M  V30 31764 H 2971.46 0.605163 3.92968 0
M  V30 31765 N 2972.46 -1.39288 0.737328 0
M  V30 31766 C 2973.88 -1.5416 0.413159 0
M  V30 31767 C 2974.08 -1.70384 -1.07571 0
M  V30 31768 O 2973.13 -1.70565 -1.86182 0
M  V30 31769 C 2974.44 -2.75796 1.19822 0
M  V30 31770 C 2975.99 -2.89633 1.18667 0
M  V30 31771 C 2976.47 -4.1421 1.95434 0
M  V30 31772 N 2977.96 -4.21254 1.92612 0
M  V30 31773 C 2978.69 -5.16602 2.48817 0
M  V30 31774 N 2978.19 -6.17724 3.13669 0
M  V30 31775 N 2979.98 -5.08835 2.38838 0
M  V30 31776 H 2972.13 -1.27005 1.70246 0
M  V30 31777 H 2974.4 -0.615737 0.720813 0
M  V30 31778 H 2974.1 -2.70157 2.25184 0
M  V30 31779 H 2973.98 -3.68527 0.804209 0
M  V30 31780 H 2976.36 -2.94762 0.141163 0
M  V30 31781 H 2976.44 -1.97958 1.62007 0
M  V30 31782 H 2976.09 -4.09842 2.99987 0
M  V30 31783 H 2976.02 -5.04933 1.49499 0
M  V30 31784 H 2978.51 -3.48822 1.45368 0
M  V30 31785 H 2978.82 -6.86943 3.54018 0
M  V30 31786 H 2977.17 -6.18105 3.1776 0
M  V30 31787 H 2980.36 -4.2877 1.87814 0
M  V30 31788 H 2980.53 -5.82966 2.82939 0
M  V30 31789 N 2973.94 -0.485139 -1.49947 0
M  V30 31790 C 2974.85 0.306656 -2.32587 0
M  V30 31791 C 2975.86 0.982607 -1.436 0
M  V30 31792 O 2977.04 0.967488 -1.7664 0
M  V30 31793 C 2974.1 1.36635 -3.18641 0
M  V30 31794 C 2973.17 0.705515 -4.23463 0
M  V30 31795 C 2972.4 1.71472 -5.05404 0
M  V30 31796 O 2972.62 2.94285 -4.88623 0
M  V30 31797 O 2971.56 1.27878 -5.88159 0
M  V30 31798 H 2975.38 -0.369325 -3.01446 0
M  V30 31799 H 2972.97 -0.246735 -1.47349 0
M  V30 31800 H 2974.85 1.97983 -3.71995 0
M  V30 31801 H 2973.52 2.02555 -2.52494 0
M  V30 31802 H 2972.43 0.0527075 -3.74063 0
M  V30 31803 H 2973.76 0.0890322 -4.92119 0
M  V30 31804 N 2975.42 1.56081 -0.218307 0
M  V30 31805 C 2976.64 2.03056 0.422266 0
M  V30 31806 C 2977.07 1.09715 1.52788 0
M  V30 31807 O 2976.42 0.0847505 1.81102 0
M  V30 31808 C 2976.47 3.48291 0.934116 0
M  V30 31809 O 2975.58 3.58087 2.04567 0
M  V30 31810 H 2974.92 0.657029 0.0959648 0
M  V30 31811 H 2977.45 2.01822 -0.335993 0
M  V30 31812 H 2977.46 3.88548 1.24477 0
M  V30 31813 H 2976.13 4.15712 0.12489 0
M  V30 31814 H 2974.71 3.29715 1.7419 0
M  V30 31815 N 2976.89 -0.0551124 1.57504 0
M  V30 31816 C 2978.14 -0.749976 1.87238 0
M  V30 31817 C 2978.46 -1.7789 0.8133 0
M  V30 31818 O 2979.66 -2.52451 0.999025 0
M  V30 31819 C 2978.12 -1.38485 3.3219 0
M  V30 31820 C 2977.73 -0.393629 4.46267 0
M  V30 31821 C 2979.47 -2.0611 3.71105 0
M  V30 31822 C 2977.38 -1.03536 5.82266 0
M  V30 31823 H 2976.31 -0.283854 0.698529 0
M  V30 31824 H 2978.96 -0.00362772 1.835 0
M  V30 31825 H 2977.34 -2.18003 3.30592 0
M  V30 31826 H 2978.51 0.372946 4.59288 0
M  V30 31827 H 2976.83 0.179093 4.16015 0
M  V30 31828 H 2979.43 -2.54929 4.70016 0
M  V30 31829 H 2979.77 -2.86791 3.01756 0
M  V30 31830 H 2980.3 -1.33402 3.74765 0
M  V30 31831 H 2977.04 -0.268529 6.5495 0
M  V30 31832 H 2976.56 -1.7724 5.73015 0
M  V30 31833 H 2978.24 -1.55036 6.2815 0
M  V30 31834 N 2978.37 -1.54173 -0.326869 0
M  V30 31835 C 2979.62 -1.72475 -1.06678 0
M  V30 31836 C 2979.95 -0.495263 -1.87779 0
M  V30 31837 O 2979.23 0.50777 -1.87755 0
M  V30 31838 C 2979.51 -2.99837 -1.99423 0
M  V30 31839 C 2979.36 -4.3303 -1.21674 0
M  V30 31840 C 2980.68 -3.22939 -2.98996 0
M  V30 31841 H 2977.8 -0.62757 -0.386427 0
M  V30 31842 H 2980.44 -1.86865 -0.343746 0
M  V30 31843 H 2978.59 -2.877 -2.61076 0
M  V30 31844 H 2980.26 -4.57045 -0.625073 0
M  V30 31845 H 2978.51 -4.30685 -0.51897 0
M  V30 31846 H 2979.18 -5.18359 -1.89757 0
M  V30 31847 H 2981.65 -3.34516 -2.47464 0
M  V30 31848 H 2980.53 -4.13418 -3.61077 0
M  V30 31849 H 2980.79 -2.40012 -3.71277 0
M  V30 31850 O 2979.89 0.472826 -1.54423 0
M  V30 31851 H 2980.58 1.12724 -1.57522 0
M  V30 END ATOM
M  V30 BEGIN BOND
M  V30 END BOND
M  V30 END CTAB
M  END
$$$$
