drugbank_target|P21917 D(4) dopamine receptor (DB00246; DB00248; DB00268; DB00334; DB00363; DB00408; DB00409; DB00413; DB00477; DB00490; DB00543; DB00589; DB00714; DB00988; DB01186; DB01200; DB01224; DB01235; DB01238; DB01267; DB01403; DB04908; DB04946; DB05271; DB06216; DB06477; DB08922; DB09286; DB12061; DB14185)
 OpenBabel12092119303D

  0  0  0     0  0            999 V3000
M  V30 BEGIN CTAB
M  V30 COUNTS 6822 6924 0 0 0
M  V30 BEGIN ATOM
M  V30 1 H -0.908 1.98254 -0.117106 0
M  V30 2 N 0 1.576 0 0
M  V30 3 C 0.933 2.03868 1.02534 0
M  V30 4 C 1.911 0.928543 1.3348 0
M  V30 5 O 3.095 1.19667 1.45644 0
M  V30 6 C 0.222 2.43627 2.35294 0
M  V30 7 C -0.732 3.65373 2.2001 0
M  V30 8 S 0.101 5.13292 1.52614 0
M  V30 9 C 1.257 5.56322 2.86805 0
M  V30 10 H 1.49 2.90518 0.631377 0
M  V30 11 H -0.977 1.52953 0.210867 0
M  V30 12 H 0.981 2.67203 3.11629 0
M  V30 13 H -0.358 1.57376 2.7183 0
M  V30 14 H -1.165 3.90944 3.18086 0
M  V30 15 H -1.563 3.418 1.51819 0
M  V30 16 H 0.729 5.58782 3.83104 0
M  V30 17 H 1.672 6.56266 2.65933 0
M  V30 18 H 2.08 4.83886 2.90714 0
M  V30 19 N 1.4781 -0.272755 1.55222 0
M  V30 20 C 2.7261 -1.00234 1.75492 0
M  V30 21 C 3.0471 -1.8681 0.5592 0
M  V30 22 O 2.3171 -1.91215 -0.425882 0
M  V30 23 H 0.8971 -0.373076 0.647166 0
M  V30 24 H 3.5591 -0.296926 1.92625 0
M  V30 25 H 2.6551 -1.63913 2.65592 0
M  V30 26 N 2.9562 -1.48159 -0.537278 0
M  V30 27 C 3.9042 -1.62573 -1.66352 0
M  V30 28 C 4.8982 -0.492366 -1.62087 0
M  V30 29 O 6.1042 -0.670847 -1.67032 0
M  V30 30 H 2.4792 -0.511992 -0.550789 0
M  V30 31 H 4.4502 -2.57176 -1.51337 0
M  V30 32 C 3.1992 -1.67583 -3.04649 0
M  V30 33 H 2.5222 -2.54151 -3.08622 0
M  V30 34 H 3.9622 -1.81713 -3.83088 0
M  V30 35 C 2.4212 -0.413039 -3.34358 0
M  V30 36 O 2.9512 0.477259 -3.98855 0
M  V30 37 N 1.1572 -0.286961 -2.8918 0
M  V30 38 H 0.7042 -1.01241 -2.36871 0
M  V30 39 H 0.6622 0.556963 -3.09427 0
M  V30 40 N 4.4343 0.785586 -1.36625 0
M  V30 41 C 5.8503 1.08419 -1.17122 0
M  V30 42 C 6.0503 2.015 0.00208491 0
M  V30 43 O 5.1063 2.43551 0.666278 0
M  V30 44 C 6.4193 1.69498 -2.48377 0
M  V30 45 C 7.9673 1.81821 -2.54775 0
M  V30 46 C 8.4423 2.46315 -3.86126 0
M  V30 47 N 9.9333 2.53779 -3.87492 0
M  V30 48 C 10.6683 3.045 -4.85868 0
M  V30 49 N 10.1643 3.55499 -5.94637 0
M  V30 50 N 11.9573 3.03247 -4.73284 0
M  V30 51 H 4.1083 0.167264 -2.1174 0
M  V30 52 H 6.3713 0.13682 -0.938075 0
M  V30 53 H 6.0773 1.08571 -3.34522 0
M  V30 54 H 5.9513 2.6896 -2.64462 0
M  V30 55 H 8.3383 2.41884 -1.69045 0
M  V30 56 H 8.4193 0.811532 -2.42586 0
M  V30 57 H 8.0633 1.86895 -4.72263 0
M  V30 58 H 7.9933 3.47561 -3.95612 0
M  V30 59 H 10.4843 2.17672 -3.08913 0
M  V30 60 H 10.7973 3.92562 -6.65669 0
M  V30 61 H 9.1423 3.5364 -5.98301 0
M  V30 62 H 12.3333 2.62696 -3.87438 0
M  V30 63 H 12.5063 3.42467 -5.50109 0
M  V30 64 N 5.9124 1.20967 1.01018 0
M  V30 65 C 7.1374 1.0503 1.78839 0
M  V30 66 C 7.5624 -0.395752 1.8389 0
M  V30 67 O 6.9204 -1.28529 1.27867 0
M  V30 68 C 6.9684 1.64602 3.2084 0
M  V30 69 O 6.0724 0.887988 4.02726 0
M  V30 70 H 5.4134 0.369987 0.551367 0
M  V30 71 H 7.9434 1.60399 1.27018 0
M  V30 72 H 7.9534 1.68607 3.71532 0
M  V30 73 H 6.6284 2.69841 3.16479 0
M  V30 74 H 5.2054 0.922648 3.61305 0
M  V30 75 N 7.3905 -1.2043 1.01659 0
M  V30 76 C 8.6185 -1.93777 0.725132 0
M  V30 77 C 9.0335 -1.74772 -0.714166 0
M  V30 78 O 8.3905 -1.06169 -1.4844 0
M  V30 79 C 8.4415 -3.45876 1.05129 0
M  V30 80 O 8.1625 -3.6426 2.43406 0
M  V30 81 C 9.6635 -4.36368 0.780891 0
M  V30 82 H 6.8835 -0.615901 0.266284 0
M  V30 83 H 9.4275 -1.52922 1.35776 0
M  V30 84 H 7.5825 -3.8461 0.464065 0
M  V30 85 H 7.9965 -4.58246 2.55169 0
M  V30 86 H 9.4705 -5.41743 1.05918 0
M  V30 87 H 9.9475 -4.38275 -0.284937 0
M  V30 88 H 10.5535 -4.03296 1.35027 0
M  V30 89 N 8.8686 -0.792821 -1.36206 0
M  V30 90 C 9.8316 -0.199459 -2.2833 0
M  V30 91 C 10.8316 0.605189 -1.48977 0
M  V30 92 O 12.0216 0.425685 -1.68919 0
M  V30 93 C 9.1536 0.723523 -3.33134 0
M  V30 94 H 10.3466 -1.01181 -2.82316 0
M  V30 95 H 7.8996 -0.562485 -1.45828 0
M  V30 96 H 8.6346 1.56008 -2.84309 0
M  V30 97 H 8.4196 0.148436 -3.91819 0
M  V30 98 H 9.9096 1.13344 -4.01924 0
M  V30 99 N 10.3467 1.47872 -0.545128 0
M  V30 100 C 11.6237 1.9554 0.0485222 0
M  V30 101 C 12.0037 1.4876 1.49779 0
M  V30 102 O 11.3517 0.720925 2.16829 0
M  V30 103 C 11.5617 3.48898 -0.084417 0
M  V30 104 C 12.9097 4.24547 0.0671239 0
M  V30 105 O 13.9337 3.56198 -0.0113649 0
M  V30 106 O 12.7927 5.45999 0.233882 0
M  V30 107 H 9.8867 0.823957 0.0708773 0
M  V30 108 H 12.4327 1.58327 -0.610798 0
M  V30 109 H 11.2047 3.75714 -1.09337 0
M  V30 110 H 10.8277 3.92845 0.613066 0
M  V30 111 N 11.8248 0.280983 1.55075 0
M  V30 112 C 12.7878 -0.590896 2.21452 0
M  V30 113 C 13.7878 -1.07682 1.19421 0
M  V30 114 O 14.9778 -0.97605 1.44288 0
M  V30 115 C 12.1098 -1.81587 2.88511 0
M  V30 116 H 13.3028 -0.0112554 2.99898 0
M  V30 117 H 10.8558 0.0316438 1.56268 0
M  V30 118 H 11.5908 -2.43587 2.14093 0
M  V30 119 H 11.3758 -1.4753 3.63287 0
M  V30 120 H 12.8658 -2.43575 3.39206 0
M  V30 121 N 13.3029 -1.57598 0.00835791 0
M  V30 122 C 14.5799 -1.82172 -0.712235 0
M  V30 123 C 14.9599 -0.887873 -1.9152 0
M  V30 124 O 14.3079 0.06146 -2.28417 0
M  V30 125 C 14.5179 -3.30875 -1.11008 0
M  V30 126 C 15.8659 -3.96826 -1.51044 0
M  V30 127 O 16.8899 -3.35248 -1.20364 0
M  V30 128 O 15.7489 -5.05318 -2.08125 0
M  V30 129 H 12.8429 -0.750435 -0.347529 0
M  V30 130 H 15.3889 -1.69665 0.0344523 0
M  V30 131 H 14.1609 -3.90481 -0.252982 0
M  V30 132 H 13.7839 -3.48412 -1.9156 0
M  V30 133 N 14.781 0.264519 -1.55364 0
M  V30 134 C 16.029 0.993021 -1.76021 0
M  V30 135 C 16.35 1.86511 -0.569099 0
M  V30 136 O 15.62 1.91438 0.415735 0
M  V30 137 H 14.2 0.369639 -0.649135 0
M  V30 138 H 16.862 0.286707 -1.9278 0
M  V30 139 H 15.958 1.62502 -2.66457 0
M  V30 140 N 16.2591 1.48442 0.529413 0
M  V30 141 C 17.1891 1.65902 1.64313 0
M  V30 142 C 18.1701 0.507897 1.6234 0
M  V30 143 O 19.3551 0.740503 1.79528 0
M  V30 144 C 16.4851 1.69911 3.02898 0
M  V30 145 C 15.4391 2.8453 3.19729 0
M  V30 146 C 14.7651 2.73629 4.59381 0
M  V30 147 C 16.0651 4.25821 3.02447 0
M  V30 148 H 17.7591 2.5914 1.49955 0
M  V30 149 H 15.3051 1.24709 0.719982 0
M  V30 150 H 17.2581 1.80715 3.80684 0
M  V30 151 H 15.9821 0.732524 3.18279 0
M  V30 152 H 14.6411 2.73283 2.44361 0
M  V30 153 H 14.2891 1.74938 4.71599 0
M  V30 154 H 13.9891 3.50541 4.71588 0
M  V30 155 H 15.5131 2.86401 5.39265 0
M  V30 156 H 16.9271 4.37898 3.70024 0
M  V30 157 H 15.3241 5.03735 3.26146 0
M  V30 158 H 16.3941 4.42244 1.98867 0
M  V30 159 N 17.7372 -0.778329 1.37039 0
M  V30 160 C 18.6672 -1.90546 1.34962 0
M  V30 161 C 19.6482 -1.68681 0.219274 0
M  V30 162 O 20.8332 -1.89634 0.418624 0
M  V30 163 C 17.9632 -3.27734 1.14925 0
M  V30 164 C 16.9172 -3.64147 2.24902 0
M  V30 165 C 16.2432 -4.99806 1.89996 0
M  V30 166 C 17.5432 -3.71579 3.67051 0
M  V30 167 H 19.2372 -1.92541 2.29277 0
M  V30 168 H 16.7832 -0.924948 1.10366 0
M  V30 169 H 18.7362 -4.06215 1.12104 0
M  V30 170 H 17.4602 -3.26154 0.170631 0
M  V30 171 H 16.1192 -2.8797 2.26868 0
M  V30 172 H 15.7672 -4.94759 0.906796 0
M  V30 173 H 15.4672 -5.25139 2.63634 0
M  V30 174 H 16.9912 -5.80694 1.88749 0
M  V30 175 H 18.4052 -4.40227 3.67251 0
M  V30 176 H 16.8022 -4.08405 4.39688 0
M  V30 177 H 17.8722 -2.72404 4.01154 0
M  V30 178 N 19.2153 -1.21501 -1.00376 0
M  V30 179 C 20.1783 -0.976927 -2.07337 0
M  V30 180 C 21.1783 0.0525322 -1.60714 0
M  V30 181 O 22.3683 -0.184869 -1.73216 0
M  V30 182 C 19.5003 -0.473423 -3.37597 0
M  V30 183 H 20.6933 -1.92587 -2.29892 0
M  V30 184 H 18.2463 -1.03217 -1.17371 0
M  V30 185 H 18.9813 0.480379 -3.20722 0
M  V30 186 H 18.7663 -1.216 -3.72768 0
M  V30 187 H 20.2563 -0.32675 -4.1632 0
M  V30 188 N 20.6934 1.19889 -1.02296 0
M  V30 189 C 21.9414 1.89046 -0.714558 0
M  V30 190 C 22.2624 1.79636 0.758681 0
M  V30 191 O 21.5324 1.20292 1.54618 0
M  V30 192 H 20.1124 0.699802 -0.261317 0
M  V30 193 H 22.7744 1.45574 -1.29592 0
M  V30 194 H 21.8704 2.95524 -1.0036 0
M  V30 195 N 22.1715 0.800033 1.35784 0
M  V30 196 C 23.5875 0.482977 1.52117 0
M  V30 197 C 23.7875 -0.996948 1.75109 0
M  V30 198 O 22.8435 -1.78216 1.78872 0
M  V30 199 C 24.1565 1.32264 2.70049 0
M  V30 200 C 25.7045 1.31742 2.83924 0
M  V30 201 C 26.1795 2.14106 4.04874 0
M  V30 202 N 27.6705 2.11607 4.12039 0
M  V30 203 C 28.4055 2.72099 5.04727 0
M  V30 204 N 27.9015 3.41492 6.02789 0
M  V30 205 N 29.6945 2.61776 4.97423 0
M  V30 206 H 21.8455 1.75856 1.19115 0
M  V30 207 H 24.1085 0.748122 0.582252 0
M  V30 208 H 23.8145 2.37261 2.59616 0
M  V30 209 H 23.6885 0.971303 3.6448 0
M  V30 210 H 26.0755 0.275333 2.93813 0
M  V30 211 H 26.1565 1.70859 1.9037 0
M  V30 212 H 25.8005 3.18351 3.95746 0
M  V30 213 H 25.7305 1.72353 4.97596 0
M  V30 214 H 28.2215 1.61112 3.41835 0
M  V30 215 H 28.5345 3.84953 6.70098 0
M  V30 216 H 26.8795 3.45596 6.02983 0
M  V30 217 H 30.0705 2.07157 4.19766 0
M  V30 218 H 30.2435 3.0921 5.69468 0
M  V30 219 N 23.6496 -1.47581 0.552962 0
M  V30 220 C 24.8976 -2.02082 0.0272703 0
M  V30 221 C 25.2186 -1.4301 -1.32563 0
M  V30 222 O 24.4886 -0.603745 -1.86365 0
M  V30 223 H 23.0686 -0.746966 0.00709182 0
M  V30 224 H 25.7306 -1.81033 0.722008 0
M  V30 225 H 24.8266 -3.12034 -0.0639951 0
M  V30 226 N 25.1277 -0.289203 -1.54924 0
M  V30 227 C 26.5387 0.205791 -1.85562 0
M  V30 228 C 26.8897 1.54351 -1.2112 0
M  V30 229 O 26.0147 2.10435 -0.504601 0
M  V30 230 C 26.6097 0.380177 -3.3666 0
M  V30 231 C 25.1687 0.819395 -3.67373 0
M  V30 232 C 24.3157 -0.079159 -2.77187 0
M  V30 233 H 27.2667 -0.510577 -1.50262 0
M  V30 234 H 27.2877 1.21659 -3.60526 0
M  V30 235 H 26.7997 -0.593589 -3.83534 0
M  V30 236 H 24.9007 1.80413 -3.26009 0
M  V30 237 H 25.0137 0.646957 -4.74712 0
M  V30 238 H 23.3777 0.439565 -2.50878 0
M  V30 239 H 24.1607 -1.04906 -3.26878 0
M  V30 240 N 26.6058 1.57591 -0.0167156 0
M  V30 241 C 27.5688 2.08393 0.954204 0
M  V30 242 C 28.5688 0.996531 1.26198 0
M  V30 243 O 29.7588 1.25858 1.20438 0
M  V30 244 C 26.8908 2.5394 2.27436 0
M  V30 245 H 28.0838 2.95455 0.514451 0
M  V30 246 H 25.6368 1.54582 0.231089 0
M  V30 247 H 26.3718 1.70171 2.76066 0
M  V30 248 H 26.1568 3.33371 2.06412 0
M  V30 249 H 27.6468 2.93512 2.97053 0
M  V30 250 N 28.0839 -0.256276 1.55502 0
M  V30 251 C 29.0469 -1.30047 1.88734 0
M  V30 252 C 30.0469 -1.4154 0.763086 0
M  V30 253 O 31.2369 -1.40403 1.03115 0
M  V30 254 C 28.3689 -2.67953 2.10747 0
M  V30 255 H 29.5619 -1.01802 2.82093 0
M  V30 256 H 27.1149 -0.495134 1.4825 0
M  V30 257 H 27.8499 -3.01351 1.19825 0
M  V30 258 H 27.6349 -2.60993 2.92617 0
M  V30 259 H 29.1249 -3.43368 2.37673 0
M  V30 260 N 29.562 -1.4872 -0.521534 0
M  V30 261 C 30.81 -1.56857 -1.27437 0
M  V30 262 C 31.131 -0.247982 -1.93417 0
M  V30 263 O 30.401 0.731151 -1.81744 0
M  V30 264 H 28.981 -0.577885 -0.473347 0
M  V30 265 H 31.643 -1.85233 -0.606205 0
M  V30 266 H 30.739 -2.35402 -2.0492 0
M  V30 267 N 31.0401 0.771051 -1.3745 0
M  V30 268 C 32.0031 1.86598 -1.33093 0
M  V30 269 C 33.0031 1.59076 -0.234845 0
M  V30 270 O 34.1931 1.67145 -0.490732 0
M  V30 271 C 31.3251 3.23747 -1.06773 0
M  V30 272 H 32.5181 1.91873 -2.30488 0
M  V30 273 H 30.0711 0.970876 -1.2249 0
M  V30 274 H 30.8061 3.24148 -0.099129 0
M  V30 275 H 30.5911 3.45115 -1.86112 0
M  V30 276 H 32.0811 4.03824 -1.06377 0
M  V30 277 N 32.5182 1.22032 0.997298 0
M  V30 278 C 33.7432 1.06921 1.77715 0
M  V30 279 C 34.1682 -0.376226 1.84299 0
M  V30 280 O 33.5262 -1.27165 1.29223 0
M  V30 281 C 33.5742 1.67996 3.19076 0
M  V30 282 O 32.6782 0.930653 4.01762 0
M  V30 283 H 32.0192 0.375814 0.547412 0
M  V30 284 H 34.5492 1.61737 1.25309 0
M  V30 285 H 34.5592 1.72538 3.69723 0
M  V30 286 H 33.2342 2.73182 3.13599 0
M  V30 287 H 31.8112 0.960917 3.60307 0
M  V30 288 N 33.9963 -1.19345 1.0293 0
M  V30 289 C 34.9593 -2.20793 0.615069 0
M  V30 290 C 35.9593 -1.57553 -0.321533 0
M  V30 291 O 37.1493 -1.73862 -0.108483 0
M  V30 292 C 34.2813 -3.40754 -0.0999222 0
M  V30 293 H 35.4743 -2.58955 1.51269 0
M  V30 294 H 33.0273 -1.3303 0.820534 0
M  V30 295 H 33.7623 -3.0811 -1.01187 0
M  V30 296 H 33.5473 -3.87889 0.57309 0
M  V30 297 H 35.0373 -4.15898 -0.376645 0
M  V30 298 N 35.4744 -0.807222 -1.35358 0
M  V30 299 C 36.7224 -0.387122 -1.98358 0
M  V30 300 C 37.0434 1.04942 -1.64354 0
M  V30 301 O 36.3134 1.72615 -0.926339 0
M  V30 302 H 34.8934 -0.140154 -0.733734 0
M  V30 303 H 37.5554 -1.0332 -1.6526 0
M  V30 304 H 36.6514 -0.493352 -3.08176 0
M  V30 305 N 36.9525 1.47285 -0.560781 0
M  V30 306 C 37.9155 2.28535 0.174488 0
M  V30 307 C 38.9155 1.37153 0.839388 0
M  V30 308 O 40.1055 1.59748 0.694702 0
M  V30 309 C 37.2375 3.16934 1.25561 0
M  V30 310 H 38.4305 2.95012 -0.539262 0
M  V30 311 H 35.9835 1.53034 -0.317865 0
M  V30 312 H 36.7185 2.55157 2.00164 0
M  V30 313 H 36.5035 3.8419 0.783604 0
M  V30 314 H 37.9935 3.78143 1.77193 0
M  V30 315 N 38.4306 0.297415 1.54768 0
M  V30 316 C 39.6556 -0.318435 2.04941 0
M  V30 317 C 40.0806 -1.4701 1.17345 0
M  V30 318 O 39.4386 -1.80436 0.176758 0
M  V30 319 C 39.4866 -0.755749 3.52592 0
M  V30 320 O 38.5906 -1.86088 3.68028 0
M  V30 321 H 37.9316 -0.062421 0.661059 0
M  V30 322 H 40.4616 0.438215 1.99852 0
M  V30 323 H 40.4716 -1.04552 3.94376 0
M  V30 324 H 39.1466 0.0867233 4.1581 0
M  V30 325 H 37.7236 -1.57193 3.38149 0
M  V30 326 N 39.9087 -1.5758 0.0250728 0
M  V30 327 C 40.8717 -2.08896 -0.943139 0
M  V30 328 C 41.8717 -1.00321 -1.25668 0
M  V30 329 O 43.0617 -1.26495 -1.19769 0
M  V30 330 C 40.1937 -2.55143 -2.26086 0
M  V30 331 H 41.3867 -2.95723 -0.498775 0
M  V30 332 H 38.9397 -1.54703 -0.222888 0
M  V30 333 H 39.6747 -1.71633 -2.75159 0
M  V30 334 H 39.4597 -3.34461 -2.04641 0
M  V30 335 H 40.9497 -2.95083 -2.95492 0
M  V30 336 N 41.3868 0.248026 -1.55636 0
M  V30 337 C 42.6348 0.974295 -1.77065 0
M  V30 338 C 42.9558 1.85897 -0.588849 0
M  V30 339 O 42.2258 1.91868 0.395407 0
M  V30 340 H 40.8058 0.362733 -0.653019 0
M  V30 341 H 43.4678 0.266244 -1.93073 0
M  V30 342 H 42.5638 1.59667 -2.68166 0
M  V30 343 N 42.8649 1.48995 0.513639 0
M  V30 344 C 43.7949 1.67636 1.62544 0
M  V30 345 C 44.7759 0.525087 1.61793 0
M  V30 346 O 45.9609 0.759502 1.78732 0
M  V30 347 C 43.0909 1.73114 3.01079 0
M  V30 348 C 42.0449 2.87905 3.16693 0
M  V30 349 C 41.3709 2.78486 4.56453 0
M  V30 350 C 42.6709 4.29005 2.97913 0
M  V30 351 H 44.3649 2.60716 1.47198 0
M  V30 352 H 41.9109 1.25465 0.706714 0
M  V30 353 H 43.8639 1.84742 3.78746 0
M  V30 354 H 42.5879 0.766241 3.17484 0
M  V30 355 H 41.2469 2.75859 2.41448 0
M  V30 356 H 40.8949 1.7993 4.69717 0
M  V30 357 H 40.5949 3.55523 4.67843 0
M  V30 358 H 42.1189 2.92104 5.36197 0
M  V30 359 H 43.5329 4.41798 3.65359 0
M  V30 360 H 41.9299 5.07166 3.20785 0
M  V30 361 H 42.9999 4.44329 1.94165 0
M  V30 362 N 44.343 -0.763751 1.37857 0
M  V30 363 C 45.306 -1.85889 1.34081 0
M  V30 364 C 46.306 -1.58949 0.243277 0
M  V30 365 O 47.496 -1.66882 0.499589 0
M  V30 366 C 44.628 -3.23176 1.08489 0
M  V30 367 H 45.821 -1.90648 2.31502 0
M  V30 368 H 43.374 -0.964367 1.23003 0
M  V30 369 H 44.109 -3.24091 0.116318 0
M  V30 370 H 43.894 -3.44124 1.8794 0
M  V30 371 H 45.384 -4.03254 1.08517 0
M  V30 372 N 45.8211 -1.22559 -0.990812 0
M  V30 373 C 47.0691 -1.04933 -1.72724 0
M  V30 374 C 47.3901 0.416158 -1.90508 0
M  V30 375 O 46.6601 1.29918 -1.46622 0
M  V30 376 H 45.2401 -0.385296 -0.639965 0
M  V30 377 H 47.9021 -1.54105 -1.19322 0
M  V30 378 H 46.9981 -1.52886 -2.72089 0
M  V30 379 N 47.2992 1.18797 -1.03562 0
M  V30 380 C 48.2312 2.21731 -0.580337 0
M  V30 381 C 49.2442 1.59051 0.347349 0
M  V30 382 O 50.4332 1.77929 0.142669 0
M  V30 383 C 47.5332 3.38459 0.172805 0
M  V30 384 C 46.7062 4.3072 -0.761496 0
M  V30 385 C 45.7652 5.26174 -0.0525547 0
M  V30 386 O 44.7912 5.65108 -0.681333 0
M  V30 387 N 45.9932 5.67624 1.21586 0
M  V30 388 H 48.7582 2.61417 -1.46565 0
M  V30 389 H 46.3192 1.33531 -0.915476 0
M  V30 390 H 48.3112 3.99335 0.656793 0
M  V30 391 H 46.8812 2.97507 0.959602 0
M  V30 392 H 46.1012 3.67525 -1.42544 0
M  V30 393 H 47.3892 4.89267 -1.39626 0
M  V30 394 H 46.7872 5.38038 1.74732 0
M  V30 395 H 45.3442 6.30721 1.64421 0
M  V30 396 N 48.7773 0.814389 1.34928 0
M  V30 397 C 50.0253 0.397636 1.9815 0
M  V30 398 C 50.3463 -1.04069 1.64908 0
M  V30 399 O 49.6163 -1.72121 0.93548 0
M  V30 400 H 48.1963 0.144043 0.732981 0
M  V30 401 H 50.8583 1.04195 1.6471 0
M  V30 402 H 49.9543 0.509688 3.0791 0
M  V30 403 N 50.2554 -1.46986 0.568584 0
M  V30 404 C 51.2184 -2.28624 -0.162366 0
M  V30 405 C 52.2184 -1.37596 -0.832103 0
M  V30 406 O 53.4084 -1.60115 -0.68622 0
M  V30 407 C 50.5404 -3.17596 -1.23878 0
M  V30 408 H 51.7334 -2.94722 0.554899 0
M  V30 409 H 49.2864 -1.52863 0.325976 0
M  V30 410 H 50.0214 -2.56214 -1.98808 0
M  V30 411 H 49.8064 -3.846 -0.763219 0
M  V30 412 H 51.2964 -3.79078 -1.75185 0
M  V30 413 N 51.7335 -0.305618 -1.54608 0
M  V30 414 C 52.6965 0.555591 -2.22364 0
M  V30 415 C 53.6965 1.05768 -1.21119 0
M  V30 416 O 54.8865 0.952972 -1.45822 0
M  V30 417 C 52.0185 1.76974 -2.91364 0
M  V30 418 H 53.2115 -0.0364572 -2.99878 0
M  V30 419 H 50.7645 -0.0565007 -1.56198 0
M  V30 420 H 51.4995 2.40151 -2.17941 0
M  V30 421 H 51.2845 1.41732 -3.65588 0
M  V30 422 H 52.7745 2.38148 -3.43038 0
M  V30 423 N 53.2116 1.57565 -0.0334293 0
M  V30 424 C 54.1746 2.09393 0.932048 0
M  V30 425 C 55.1746 1.00986 1.25134 0
M  V30 426 O 56.3646 1.27129 1.19096 0
M  V30 427 C 53.4966 2.56338 2.2473 0
M  V30 428 H 54.6896 2.95984 0.483085 0
M  V30 429 H 52.2426 1.54819 0.21468 0
M  V30 430 H 52.9776 1.7309 2.74245 0
M  V30 431 H 52.7626 3.35542 2.02865 0
M  V30 432 H 54.2526 2.96646 2.93923 0
M  V30 433 N 54.6897 -0.239769 1.55765 0
M  V30 434 C 55.6197 -1.30052 1.9393 0
M  V30 435 C 56.6007 -1.49839 0.805132 0
M  V30 436 O 57.7857 -1.62328 1.06599 0
M  V30 437 C 54.9157 -2.65391 2.2402 0
M  V30 438 C 53.8697 -2.60289 3.39755 0
M  V30 439 C 53.1957 -3.99489 3.55405 0
M  V30 440 C 54.4957 -2.16654 4.75246 0
M  V30 441 H 56.1897 -0.983573 2.82783 0
M  V30 442 H 53.7357 -0.471701 1.36055 0
M  V30 443 H 55.6887 -3.3974 2.49308 0
M  V30 444 H 54.4127 -2.98736 1.32 0
M  V30 445 H 53.0717 -1.88398 3.14487 0
M  V30 446 H 52.7197 -4.30112 2.60793 0
M  V30 447 H 52.4197 -3.96962 4.33238 0
M  V30 448 H 53.9437 -4.75528 3.83022 0
M  V30 449 H 55.3577 -2.80737 4.99859 0
M  V30 450 H 53.7547 -2.25223 5.56232 0
M  V30 451 H 54.8247 -1.11835 4.71827 0
M  V30 452 N 56.1678 -1.49265 -0.50573 0
M  V30 453 C 57.4138 -1.58748 -1.26202 0
M  V30 454 C 57.7468 -0.271227 -1.92297 0
M  V30 455 O 57.0218 0.724831 -1.80489 0
M  V30 456 C 57.3048 -2.74332 -2.33268 0
M  V30 457 C 57.1578 -4.15737 -1.71705 0
M  V30 458 C 58.4768 -2.85576 -3.34865 0
M  V30 459 H 55.5958 -0.577826 -0.457478 0
M  V30 460 H 58.2378 -1.81532 -0.560897 0
M  V30 461 H 56.3878 -2.55036 -2.93068 0
M  V30 462 H 58.0598 -4.46537 -1.15769 0
M  V30 463 H 56.3028 -4.21605 -1.02135 0
M  V30 464 H 56.9738 -4.92477 -2.49341 0
M  V30 465 H 59.4498 -3.03127 -2.8505 0
M  V30 466 H 58.3258 -3.68135 -4.07146 0
M  V30 467 H 58.5868 -1.94732 -3.96903 0
M  V30 468 N 57.6459 0.756429 -1.3826 0
M  V30 469 C 58.8939 1.51248 -1.34047 0
M  V30 470 C 59.2149 1.94875 0.0698372 0
M  V30 471 O 58.4849 1.67436 1.01696 0
M  V30 472 H 57.0649 0.561018 -0.493222 0
M  V30 473 H 59.7269 0.899347 -1.7291 0
M  V30 474 H 58.8229 2.40472 -1.98947 0
M  V30 475 N 59.124 1.23083 0.984299 0
M  V30 476 C 60.372 1.05848 1.72165 0
M  V30 477 C 60.693 -0.406049 1.90726 0
M  V30 478 O 59.963 -1.29139 1.47309 0
M  V30 479 H 58.543 0.388685 0.637913 0
M  V30 480 H 61.205 1.54736 1.18503 0
M  V30 481 H 60.301 1.54327 2.71274 0
M  V30 482 N 60.6021 -1.18246 1.0419 0
M  V30 483 C 61.8481 -1.88536 0.747122 0
M  V30 484 C 62.1811 -1.80223 -0.723409 0
M  V30 485 O 61.4561 -1.20337 -1.52804 0
M  V30 486 C 61.7391 -3.38968 1.21544 0
M  V30 487 C 61.5921 -3.56084 2.74816 0
M  V30 488 C 62.9111 -4.32648 0.806482 0
M  V30 489 H 60.0301 -0.684619 0.272883 0
M  V30 490 H 62.6721 -1.39113 1.29413 0
M  V30 491 H 60.8221 -3.8119 0.750081 0
M  V30 492 H 62.4941 -3.22946 3.29399 0
M  V30 493 H 60.7371 -2.98699 3.14582 0
M  V30 494 H 61.4081 -4.61639 3.02644 0
M  V30 495 H 63.8841 -3.98211 1.20695 0
M  V30 496 H 62.7601 -5.36462 1.1619 0
M  V30 497 H 63.0211 -4.41146 -0.29029 0
M  V30 498 N 62.0802 -0.821533 -1.34494 0
M  V30 499 C 63.0102 -0.257138 -2.3208 0
M  V30 500 C 63.9912 0.625645 -1.58176 0
M  V30 501 O 65.1762 0.552811 -1.86166 0
M  V30 502 C 62.3062 0.582958 -3.42372 0
M  V30 503 C 61.2602 -0.202571 -4.2752 0
M  V30 504 C 60.5862 0.760179 -5.29269 0
M  V30 505 C 61.8862 -1.40998 -5.02908 0
M  V30 506 H 63.5802 -1.07247 -2.79532 0
M  V30 507 H 61.1262 -0.517163 -1.34393 0
M  V30 508 H 63.0792 0.987972 -4.09655 0
M  V30 509 H 61.8032 1.43133 -2.93565 0
M  V30 510 H 60.4622 -0.588936 -3.61838 0
M  V30 511 H 60.1102 1.60447 -4.76724 0
M  V30 512 H 59.8102 0.238809 -5.87115 0
M  V30 513 H 61.3342 1.16308 -5.9942 0
M  V30 514 H 62.7482 -1.07905 -5.63054 0
M  V30 515 H 61.1452 -1.86689 -5.70322 0
M  V30 516 H 62.2152 -2.1889 -4.32684 0
M  V30 517 N 63.5583 1.46682 -0.576371 0
M  V30 518 C 64.4883 2.33028 0.148397 0
M  V30 519 C 65.4693 1.44961 0.889956 0
M  V30 520 O 66.6543 1.73789 0.866662 0
M  V30 521 C 63.7843 3.27117 1.1667 0
M  V30 522 C 62.7383 4.24575 0.540386 0
M  V30 523 C 62.0643 5.08126 1.6647 0
M  V30 524 C 63.3643 5.19722 -0.518331 0
M  V30 525 H 65.0583 2.93875 -0.572509 0
M  V30 526 H 62.6043 1.41315 -0.276768 0
M  V30 527 H 64.5573 3.86374 1.68204 0
M  V30 528 H 63.2813 2.64364 1.9178 0
M  V30 529 H 61.9403 3.66571 0.0461769 0
M  V30 530 H 61.5883 4.41762 2.40531 0
M  V30 531 H 61.2883 5.74122 1.25131 0
M  V30 532 H 62.8123 5.70246 2.18293 0
M  V30 533 H 64.2263 5.73232 -0.0883058 0
M  V30 534 H 62.6233 5.94026 -0.851679 0
M  V30 535 H 63.6933 4.64037 -1.40703 0
M  V30 536 N 65.0364 0.313813 1.54444 0
M  V30 537 C 66.2854 -0.292519 1.99568 0
M  V30 538 C 66.5984 -1.54011 1.20582 0
M  V30 539 O 67.8044 -2.22183 1.56035 0
M  V30 540 C 66.2604 -0.571752 3.55329 0
M  V30 541 C 65.8684 0.658229 4.43138 0
M  V30 542 C 67.6124 -1.13857 4.08946 0
M  V30 543 C 65.5194 0.351439 5.90355 0
M  V30 544 H 64.4494 -0.113079 0.745472 0
M  V30 545 H 67.1004 0.424518 1.78522 0
M  V30 546 H 65.4824 -1.34872 3.72325 0
M  V30 547 H 66.6564 1.43403 4.37918 0
M  V30 548 H 64.9714 1.14458 4.0036 0
M  V30 549 H 67.5684 -1.38257 5.16516 0
M  V30 550 H 67.9114 -2.08489 3.6033 0
M  V30 551 H 68.4444 -0.423015 3.95544 0
M  V30 552 H 65.1834 1.26667 6.43145 0
M  V30 553 H 64.7034 -0.386842 5.98551 0
M  V30 554 H 66.3824 -0.0423134 6.46986 0
M  V30 555 N 66.5145 -1.57545 0.0417849 0
M  V30 556 C 67.7625 -1.91937 -0.632829 0
M  V30 557 C 68.0835 -0.919978 -1.71934 0
M  V30 558 O 67.3535 0.0366064 -1.95866 0
M  V30 559 H 65.9335 -0.708493 -0.236742 0
M  V30 560 H 68.5955 -1.9468 0.0925745 0
M  V30 561 H 67.6915 -2.92912 -1.07746 0
M  V30 562 N 67.9926 0.231505 -1.5589 0
M  V30 563 C 68.9556 1.27028 -1.90779 0
M  V30 564 C 69.9556 1.40308 -0.785507 0
M  V30 565 O 71.1456 1.38744 -1.05336 0
M  V30 566 C 68.2776 2.64566 -2.14983 0
M  V30 567 H 69.4706 0.973017 -2.83677 0
M  V30 568 H 67.0236 0.471486 -1.49019 0
M  V30 569 H 67.7586 2.99406 -1.24604 0
M  V30 570 H 67.5436 2.56305 -2.96732 0
M  V30 571 H 69.0336 3.39543 -2.43105 0
M  V30 572 N 69.4707 1.49531 0.497807 0
M  V30 573 C 70.7167 1.59415 1.25358 0
M  V30 574 C 71.0497 0.281422 1.9215 0
M  V30 575 O 70.3247 -0.715249 1.80871 0
M  V30 576 C 70.6077 2.75566 2.3181 0
M  V30 577 C 70.4607 4.16642 1.69498 0
M  V30 578 C 71.7797 2.87347 3.33346 0
M  V30 579 H 68.8987 0.580244 0.454408 0
M  V30 580 H 71.5407 1.81827 0.551262 0
M  V30 581 H 69.6907 2.56587 2.91711 0
M  V30 582 H 71.3627 4.47145 1.13399 0
M  V30 583 H 69.6057 4.22141 0.998978 0
M  V30 584 H 70.2767 4.93792 2.46725 0
M  V30 585 H 72.7527 3.04634 2.83438 0
M  V30 586 H 71.6287 3.70289 4.05188 0
M  V30 587 H 71.8897 1.96834 3.95865 0
M  V30 588 N 70.9488 -0.749086 1.3866 0
M  V30 589 C 71.8788 -1.8764 1.38973 0
M  V30 590 C 72.8598 -1.68178 0.255004 0
M  V30 591 O 74.0448 -1.88704 0.458754 0
M  V30 592 C 71.1748 -3.25222 1.21851 0
M  V30 593 C 70.1288 -3.59295 2.32575 0
M  V30 594 C 69.4548 -4.95663 2.00555 0
M  V30 595 C 70.7548 -3.63709 3.7485 0
M  V30 596 H 72.4488 -1.87635 2.3331 0
M  V30 597 H 69.9948 -0.901329 1.12303 0
M  V30 598 H 71.9478 -4.03746 1.20695 0
M  V30 599 H 70.6718 -3.25719 0.239775 0
M  V30 600 H 69.3308 -2.83093 2.32925 0
M  V30 601 H 68.9788 -4.92724 1.01154 0
M  V30 602 H 68.6788 -5.19429 2.74714 0
M  V30 603 H 70.2028 -5.7656 2.01024 0
M  V30 604 H 71.6168 -4.32338 3.76506 0
M  V30 605 H 70.0138 -3.98986 4.48252 0
M  V30 606 H 71.0838 -2.63834 4.06841 0
M  V30 607 N 72.4269 -1.23603 -0.977757 0
M  V30 608 C 73.3899 -1.02069 -2.05218 0
M  V30 609 C 74.3899 0.0184305 -1.60789 0
M  V30 610 O 75.5799 -0.221569 -1.72785 0
M  V30 611 C 72.7119 -0.544926 -3.36517 0
M  V30 612 H 73.9049 -1.9742 -2.25755 0
M  V30 613 H 71.4579 -1.05684 -1.15155 0
M  V30 614 H 72.1929 0.412241 -3.21669 0
M  V30 615 H 71.9779 -1.2948 -3.70105 0
M  V30 616 H 73.4679 -0.414985 -4.15533 0
M  V30 617 N 73.905 1.17692 -1.04816 0
M  V30 618 C 75.153 1.87488 -0.754497 0
M  V30 619 C 75.474 1.81205 0.720407 0
M  V30 620 O 74.744 1.23544 1.52032 0
M  V30 621 H 73.324 0.694101 -0.276102 0
M  V30 622 H 75.986 1.42793 -1.32651 0
M  V30 623 H 75.082 2.93328 -1.06606 0
M  V30 624 N 75.3831 0.828654 1.34056 0
M  V30 625 C 76.3311 0.242973 2.31327 0
M  V30 626 C 77.3251 -0.61944 1.57668 0
M  V30 627 O 78.5311 -0.51014 1.7262 0
M  V30 628 H 74.9061 0.059834 0.749616 0
M  V30 629 H 76.8771 1.07809 2.78244 0
M  V30 630 C 75.6261 -0.575733 3.429 0
M  V30 631 H 74.9491 0.0785582 3.99723 0
M  V30 632 H 76.3891 -0.951547 4.13185 0
M  V30 633 C 74.8481 -1.75044 2.87856 0
M  V30 634 O 75.3781 -2.84882 2.83205 0
M  V30 635 N 73.5841 -1.56903 2.44602 0
M  V30 636 H 73.1311 -0.675547 2.48584 0
M  V30 637 H 73.0891 -2.35652 2.08124 0
M  V30 638 N 76.8612 -1.46375 0.584142 0
M  V30 639 C 78.0862 -2.07268 0.0740405 0
M  V30 640 C 78.5112 -1.42979 -1.22223 0
M  V30 641 O 77.8692 -0.514092 -1.73859 0
M  V30 642 C 77.9172 -3.60518 -0.0767769 0
M  V30 643 O 77.0212 -3.96533 -1.13292 0
M  V30 644 H 76.3622 -0.660961 0.0634524 0
M  V30 645 H 78.8922 -1.87991 0.807492 0
M  V30 646 H 78.9022 -4.07021 -0.282489 0
M  V30 647 H 77.5772 -4.06702 0.86986 0
M  V30 648 H 76.1542 -3.61738 -0.905553 0
M  V30 649 N 78.3393 -0.321999 -1.54275 0
M  V30 650 C 79.2693 0.537411 -2.27231 0
M  V30 651 C 80.2503 1.12064 -1.27968 0
M  V30 652 O 81.4353 1.14606 -1.56777 0
M  V30 653 C 78.5653 1.69919 -3.02894 0
M  V30 654 C 77.5193 1.24534 -4.09482 0
M  V30 655 C 76.8453 2.49394 -4.72977 0
M  V30 656 C 78.1453 0.361335 -5.21049 0
M  V30 657 H 79.8393 -0.0711406 -2.99315 0
M  V30 658 H 77.3853 -0.0356555 -1.43956 0
M  V30 659 H 79.3383 2.30668 -3.52662 0
M  V30 660 H 78.0623 2.33431 -2.28424 0
M  V30 661 H 76.7213 0.660782 -3.60596 0
M  V30 662 H 76.3693 3.11265 -3.95124 0
M  V30 663 H 76.0693 2.19718 -5.44975 0
M  V30 664 H 77.5933 3.10908 -5.25517 0
M  V30 665 H 79.0073 0.875072 -5.66582 0
M  V30 666 H 77.4043 0.157428 -5.99893 0
M  V30 667 H 78.4743 -0.60822 -4.8107 0
M  V30 668 N 79.8174 1.5752 -0.0501392 0
M  V30 669 C 81.0634 1.92936 0.624798 0
M  V30 670 C 81.3964 0.928685 1.70555 0
M  V30 671 O 80.6714 -0.0454779 1.94447 0
M  V30 672 C 80.9544 3.38737 1.22185 0
M  V30 673 C 80.8074 4.49552 0.149218 0
M  V30 674 C 82.1264 3.84913 2.13378 0
M  V30 675 H 79.2454 0.701604 0.225657 0
M  V30 676 H 81.8874 1.89671 -0.111693 0
M  V30 677 H 80.0374 3.4165 1.84953 0
M  V30 678 H 81.7094 4.58768 -0.482648 0
M  V30 679 H 79.9524 4.30638 -0.522841 0
M  V30 680 H 80.6234 5.48653 0.606966 0
M  V30 681 H 83.0994 3.8387 1.60572 0
M  V30 682 H 81.9754 4.87584 2.52097 0
M  V30 683 H 82.2364 3.21611 3.03346 0
M  V30 684 N 81.2955 -0.223234 1.56011 0
M  V30 685 C 82.5355 -0.954962 1.8072 0
M  V30 686 C 82.8995 -1.81598 0.623384 0
M  V30 687 O 84.1005 -2.58132 0.749745 0
M  V30 688 C 82.3715 -1.77313 3.10314 0
M  V30 689 S 83.9305 -2.56073 3.56332 0
M  V30 690 H 80.7485 -0.320812 0.634508 0
M  V30 691 H 83.3505 -0.220686 1.9425 0
M  V30 692 H 82.0545 -1.13071 3.94516 0
M  V30 693 H 81.5855 -2.54974 2.99586 0
M  V30 694 H 83.6005 -3.79619 3.19536 0
M  V30 695 N 82.7736 -1.49793 -0.48987 0
M  V30 696 C 84.0196 -1.60078 -1.24511 0
M  V30 697 C 84.3526 -0.291608 -1.91998 0
M  V30 698 O 83.6276 0.705647 -1.81248 0
M  V30 699 C 83.9106 -2.76791 -2.30345 0
M  V30 700 C 83.7636 -4.17535 -1.67286 0
M  V30 701 C 85.0826 -2.89111 -3.31817 0
M  V30 702 H 82.2016 -0.582645 -0.451324 0
M  V30 703 H 84.8436 -1.82117 -0.541612 0
M  V30 704 H 82.9936 -2.5813 -2.90346 0
M  V30 705 H 84.6656 -4.4774 -1.11026 0
M  V30 706 H 82.9086 -4.22665 -0.976577 0
M  V30 707 H 83.5796 -4.95094 -2.44103 0
M  V30 708 H 86.0556 -3.06133 -2.81819 0
M  V30 709 H 84.9316 -3.72433 -4.03219 0
M  V30 710 H 85.1926 -1.9893 -3.94815 0
M  V30 711 N 84.2517 0.741722 -1.39055 0
M  V30 712 C 85.4767 1.53607 -1.39354 0
M  V30 713 C 85.9017 1.88096 0.0116905 0
M  V30 714 O 85.2597 1.5143 0.996924 0
M  V30 715 C 85.3077 2.80441 -2.26682 0
M  V30 716 O 84.4117 3.76088 -1.69208 0
M  V30 717 H 83.7527 0.464142 -0.474835 0
M  V30 718 H 86.2827 0.915665 -1.82967 0
M  V30 719 H 86.2927 3.29246 -2.40959 0
M  V30 720 H 84.9677 2.5467 -3.2881 0
M  V30 721 H 83.5447 3.34833 -1.64138 0
M  V30 722 N 85.7298 1.2412 0.971189 0
M  V30 723 C 86.9758 1.08041 1.71625 0
M  V30 724 C 87.3088 -0.380407 1.90438 0
M  V30 725 O 86.5838 -1.28127 1.46334 0
M  V30 726 C 86.8668 1.81682 3.10908 0
M  V30 727 C 86.7198 3.35493 2.99608 0
M  V30 728 C 88.0388 1.58671 4.10501 0
M  V30 729 H 85.1578 0.39388 0.622919 0
M  V30 730 H 87.7998 1.52743 1.13003 0
M  V30 731 H 85.9498 1.43684 3.60953 0
M  V30 732 H 87.6218 3.83068 2.57015 0
M  V30 733 H 85.8648 3.64052 2.35899 0
M  V30 734 H 86.5358 3.82217 3.98264 0
M  V30 735 H 89.0118 1.91719 3.69301 0
M  V30 736 H 87.8878 2.1266 5.06031 0
M  V30 737 H 88.1488 0.524161 4.38982 0
M  V30 738 N 87.2079 -1.17134 1.05439 0
M  V30 739 C 88.1709 -2.19439 0.661764 0
M  V30 740 C 89.1709 -1.58199 -0.288042 0
M  V30 741 O 90.3609 -1.74053 -0.0715803 0
M  V30 742 C 87.4929 -3.40889 -0.0276209 0
M  V30 743 H 88.6859 -2.55688 1.56728 0
M  V30 744 H 86.2389 -1.31259 0.848567 0
M  V30 745 H 86.9739 -3.10187 -0.94629 0
M  V30 746 H 86.7589 -3.86586 0.655238 0
M  V30 747 H 88.2489 -4.16603 -0.288342 0
M  V30 748 N 88.686 -0.835752 -1.33615 0
M  V30 749 C 89.914 -0.443344 -2.02094 0
M  V30 750 C 90.329 0.954522 -1.62894 0
M  V30 751 O 89.686 1.61982 -0.840723 0
M  V30 752 C 89.737 -0.550775 -3.5728 0
M  V30 753 O 89.458 -1.89356 -3.95065 0
M  V30 754 C 90.959 -0.154919 -4.43029 0
M  V30 755 H 88.179 -0.176359 -0.647409 0
M  V30 756 H 90.723 -1.12746 -1.70612 0
M  V30 757 H 88.878 0.0853997 -3.87306 0
M  V30 758 H 89.292 -1.87687 -4.89769 0
M  V30 759 H 90.766 -0.281144 -5.51284 0
M  V30 760 H 91.243 0.902863 -4.2982 0
M  V30 761 H 91.849 -0.765404 -4.18356 0
M  V30 762 N 90.1641 1.46063 -0.591896 0
M  V30 763 C 91.0741 2.34192 0.13831 0
M  V30 764 C 92.0901 1.50305 0.876608 0
M  V30 765 O 93.2661 1.8315 0.837728 0
M  V30 766 C 90.3311 3.27656 1.13326 0
M  V30 767 C 89.3921 4.27445 0.39863 0
M  V30 768 C 88.6251 5.16443 1.34618 0
M  V30 769 O 88.8481 5.08553 2.58321 0
M  V30 770 O 87.7821 5.95843 0.851768 0
M  V30 771 H 91.6081 2.98002 -0.58552 0
M  V30 772 H 89.1931 1.45188 -0.352239 0
M  V30 773 H 91.0751 3.85291 1.70671 0
M  V30 774 H 89.7501 2.6643 1.83839 0
M  V30 775 H 88.6571 3.73471 -0.216895 0
M  V30 776 H 89.9901 4.91482 -0.265709 0
M  V30 777 N 91.6422 0.330177 1.54103 0
M  V30 778 C 93.0582 -0.0222371 1.59585 0
M  V30 779 C 93.2582 -1.49902 1.34654 0
M  V30 780 O 92.3142 -2.25592 1.13421 0
M  V30 781 C 93.6272 0.401932 2.98002 0
M  V30 782 C 95.1752 0.353145 3.11001 0
M  V30 783 C 95.6502 0.752576 4.51775 0
M  V30 784 N 97.1412 0.706239 4.57784 0
M  V30 785 C 97.8762 0.987417 5.64834 0
M  V30 786 N 97.3722 1.33607 6.79795 0
M  V30 787 N 99.1652 0.91254 5.54643 0
M  V30 788 H 91.3162 1.29228 1.68564 0
M  V30 789 H 93.5792 0.525906 0.78875 0
M  V30 790 H 93.2852 1.4311 3.21267 0
M  V30 791 H 93.1592 -0.229699 3.765 0
M  V30 792 H 95.5462 -0.666822 2.87467 0
M  V30 793 H 95.6272 1.0198 2.34593 0
M  V30 794 H 95.2712 1.77049 4.76042 0
M  V30 795 H 95.2012 0.0635409 5.26562 0
M  V30 796 H 97.6922 0.44889 3.75224 0
M  V30 797 H 98.0052 1.53582 7.57385 0
M  V30 798 H 96.3502 1.37439 6.81275 0
M  V30 799 H 99.5412 0.639601 4.6371 0
M  V30 800 H 99.7142 1.13503 6.37982 0
M  V30 801 N 93.1203 -1.57491 0.0584922 0
M  V30 802 C 94.0833 -2.1085 -0.898617 0
M  V30 803 C 95.0833 -1.02964 -1.23511 0
M  V30 804 O 96.2733 -1.29007 -1.17059 0
M  V30 805 C 93.4053 -2.59881 -2.20623 0
M  V30 806 H 94.5983 -2.96715 -0.435936 0
M  V30 807 H 92.1513 -1.55141 -0.190023 0
M  V30 808 H 92.8863 -1.77431 -2.71457 0
M  V30 809 H 92.6713 -3.38727 -1.97501 0
M  V30 810 H 94.1613 -3.01285 -2.89166 0
M  V30 811 N 94.5984 0.214957 -1.56127 0
M  V30 812 C 95.5284 1.2695 -1.95974 0
M  V30 813 C 96.5094 1.48539 -0.828868 0
M  V30 814 O 97.6944 1.60611 -1.09168 0
M  V30 815 C 94.8244 2.61794 -2.28214 0
M  V30 816 C 93.7784 2.54851 -3.43853 0
M  V30 817 C 93.1044 3.93785 -3.61715 0
M  V30 818 C 94.4044 2.09065 -4.78632 0
M  V30 819 H 96.0984 0.93846 -2.84312 0
M  V30 820 H 93.6444 0.449996 -1.36788 0
M  V30 821 H 95.5974 3.35731 -2.54682 0
M  V30 822 H 94.3214 2.96599 -1.36736 0
M  V30 823 H 92.9804 1.8337 -3.17444 0
M  V30 824 H 92.6284 4.25908 -2.67602 0
M  V30 825 H 92.3284 3.90019 -4.39498 0
M  V30 826 H 93.8524 4.69374 -3.90539 0
M  V30 827 H 95.2664 2.7275 -5.04262 0
M  V30 828 H 93.6634 2.16346 -5.59745 0
M  V30 829 H 94.7334 1.04315 -4.73547 0
M  V30 830 N 96.0765 1.50051 0.48192 0
M  V30 831 C 97.0085 1.64263 1.59844 0
M  V30 832 C 98.0215 0.52451 1.54119 0
M  V30 833 O 99.2105 0.797293 1.59704 0
M  V30 834 C 96.3105 1.60102 2.98698 0
M  V30 835 C 95.4835 2.87767 3.29407 0
M  V30 836 C 94.5425 2.76397 4.47762 0
M  V30 837 O 93.5685 3.50348 4.48603 0
M  V30 838 N 94.7705 1.89222 5.48794 0
M  V30 839 H 97.5355 2.60566 1.48073 0
M  V30 840 H 95.0965 1.47379 0.670149 0
M  V30 841 H 97.0885 1.50123 3.75826 0
M  V30 842 H 95.6585 0.715798 3.04294 0
M  V30 843 H 94.8785 3.11954 2.40994 0
M  V30 844 H 96.1665 3.72365 3.4673 0
M  V30 845 H 95.5645 1.28434 5.50928 0
M  V30 846 H 94.1215 1.85154 6.24949 0
M  V30 847 N 97.5546 -0.734337 1.39446 0
M  V30 848 C 98.7826 -1.52358 1.39981 0
M  V30 849 C 99.1976 -1.88799 -0.0054975 0
M  V30 850 O 98.5546 -1.54146 -0.976998 0
M  V30 851 C 98.6056 -2.81072 2.27333 0
M  V30 852 O 98.3266 -2.46178 3.62392 0
M  V30 853 C 99.8276 -3.75096 2.36259 0
M  V30 854 H 97.0476 -0.470806 0.478103 0
M  V30 855 H 99.5916 -0.907339 1.83269 0
M  V30 856 H 97.7466 -3.39026 1.87457 0
M  V30 857 H 98.1606 -3.28866 4.08592 0
M  V30 858 H 99.6346 -4.62305 3.01626 0
M  V30 859 H 100.112 -4.16892 1.38194 0
M  V30 860 H 100.718 -3.23061 2.76608 0
M  V30 861 N 99.0327 -1.24633 -0.964593 0
M  V30 862 C 100.444 -1.08045 -1.5226 0
M  V30 863 C 100.795 0.347116 -1.93105 0
M  V30 864 O 99.9197 1.23588 -1.77637 0
M  V30 865 C 100.515 -1.95514 -2.76695 0
M  V30 866 C 99.0737 -1.8314 -3.28841 0
M  V30 867 C 98.2207 -1.90262 -2.01732 0
M  V30 868 H 101.172 -1.38064 -0.782553 0
M  V30 869 H 101.193 -1.48925 -3.50145 0
M  V30 870 H 100.705 -2.99407 -2.46936 0
M  V30 871 H 98.8057 -0.82092 -3.63444 0
M  V30 872 H 98.9187 -2.67406 -3.97531 0
M  V30 873 H 97.2827 -1.34027 -2.16584 0
M  V30 874 H 98.0657 -2.9574 -1.74334 0
M  V30 875 N 100.511 1.16574 -1.06058 0
M  V30 876 C 101.739 1.90952 -0.796552 0
M  V30 877 C 102.154 1.77302 0.648808 0
M  V30 878 O 101.511 1.11605 1.44397 0
M  V30 879 C 101.562 3.41736 -1.17894 0
M  V30 880 O 101.283 3.54975 -2.56758 0
M  V30 881 C 102.784 4.33169 -0.942308 0
M  V30 882 H 100.004 0.605594 -0.288959 0
M  V30 883 H 102.548 1.47777 -1.41358 0
M  V30 884 H 100.703 3.82623 -0.606491 0
M  V30 885 H 101.117 4.4846 -2.72 0
M  V30 886 H 102.591 5.37439 -1.25952 0
M  V30 887 H 103.068 4.3903 0.122078 0
M  V30 888 H 103.674 3.98007 -1.49902 0
M  V30 889 N 101.989 0.842826 1.3317 0
M  V30 890 C 102.937 0.267495 2.31057 0
M  V30 891 C 103.931 -0.602682 1.58316 0
M  V30 892 O 105.137 -0.491803 1.73151 0
M  V30 893 H 101.512 0.0677813 0.748939 0
M  V30 894 H 103.483 1.10754 2.77085 0
M  V30 895 C 102.232 -0.539331 3.43492 0
M  V30 896 H 101.555 0.12095 3.99617 0
M  V30 897 H 102.995 -0.90767 4.14171 0
M  V30 898 C 101.454 -1.71981 2.89697 0
M  V30 899 O 101.984 -2.81862 2.86211 0
M  V30 900 N 100.19 -1.54299 2.46252 0
M  V30 901 H 99.7369 -0.649143 2.49287 0
M  V30 902 H 99.6949 -2.33431 2.10612 0
M  V30 903 N 103.467 -1.45747 0.599634 0
M  V30 904 C 104.692 -2.07178 0.0960198 0
M  V30 905 C 105.117 -1.44268 -1.207 0
M  V30 906 O 104.475 -0.532503 -1.73303 0
M  V30 907 C 104.523 -3.60579 -0.0385348 0
M  V30 908 O 103.627 -3.97713 -1.0908 0
M  V30 909 H 102.968 -0.660251 0.0704593 0
M  V30 910 H 105.498 -1.87124 0.827385 0
M  V30 911 H 105.508 -4.07298 -0.239304 0
M  V30 912 H 104.183 -4.05756 0.912947 0
M  V30 913 H 102.76 -3.62678 -0.867135 0
M  V30 914 N 104.945 -0.338344 -1.53925 0
M  V30 915 C 106.192 0.259758 -2.00827 0
M  V30 916 C 106.52 1.50973 -1.22628 0
M  V30 917 O 105.775 1.93379 -0.300509 0
M  V30 918 C 106.074 0.62448 -3.51902 0
M  V30 919 C 105.74 -0.528006 -4.47798 0
M  V30 920 C 104.402 -0.844298 -4.73735 0
M  V30 921 C 106.754 -1.30143 -5.0469 0
M  V30 922 C 104.082 -1.93648 -5.53821 0
M  V30 923 C 106.434 -2.38382 -5.85967 0
M  V30 924 C 105.098 -2.70576 -6.10201 0
M  V30 925 H 104.368 0.0950523 -0.734878 0
M  V30 926 H 107.015 -0.465182 -1.85764 0
M  V30 927 H 105.32 1.43006 -3.64769 0
M  V30 928 H 107.017 1.09905 -3.85645 0
M  V30 929 H 103.607 -0.271421 -4.2774 0
M  V30 930 H 107.791 -1.07033 -4.84621 0
M  V30 931 H 103.047 -2.19021 -5.70824 0
M  V30 932 H 107.221 -2.98746 -6.29066 0
M  V30 933 H 104.848 -3.55333 -6.72044 0
M  V30 934 N 106.423 1.57458 -0.0668435 0
M  V30 935 C 107.672 1.92477 0.602947 0
M  V30 936 C 107.985 0.948419 1.71068 0
M  V30 937 O 109.191 1.19124 2.43971 0
M  V30 938 C 107.647 3.41903 1.12383 0
M  V30 939 C 107.255 4.47975 0.04737 0
M  V30 940 C 108.999 3.85931 1.76797 0
M  V30 941 C 106.906 5.88529 0.582022 0
M  V30 942 H 105.836 0.718387 0.22899 0
M  V30 943 H 108.487 1.82978 -0.138276 0
M  V30 944 H 106.869 3.46459 1.91787 0
M  V30 945 H 108.043 4.55029 -0.726978 0
M  V30 946 H 106.358 4.13384 -0.500243 0
M  V30 947 H 108.955 4.88322 2.17821 0
M  V30 948 H 109.298 3.23029 2.62599 0
M  V30 949 H 109.831 3.83958 1.04024 0
M  V30 950 H 106.57 6.55065 -0.238721 0
M  V30 951 H 106.09 5.85004 1.324 0
M  V30 952 H 107.769 6.38258 1.05999 0
M  V30 953 N 107.901 -0.206675 1.56239 0
M  V30 954 C 109.147 -0.930218 1.80208 0
M  V30 955 C 109.48 -1.83387 0.638981 0
M  V30 956 O 108.755 -1.91119 -0.361066 0
M  V30 957 C 109.038 -1.75641 3.1436 0
M  V30 958 C 108.891 -0.878257 4.41142 0
M  V30 959 C 110.21 -2.73129 3.45092 0
M  V30 960 H 107.329 -0.336742 0.655571 0
M  V30 961 H 109.971 -0.198222 1.88963 0
M  V30 962 H 108.121 -2.38048 3.07027 0
M  V30 963 H 109.793 -0.269787 4.6051 0
M  V30 964 H 108.036 -0.184385 4.33408 0
M  V30 965 H 108.707 -1.49106 5.3148 0
M  V30 966 H 111.183 -2.20856 3.52649 0
M  V30 967 H 110.059 -3.28028 4.40101 0
M  V30 968 H 110.32 -3.51606 2.68003 0
M  V30 969 N 109.379 -1.50304 -0.473955 0
M  V30 970 C 110.604 -1.65175 -1.25427 0
M  V30 971 C 111.029 -0.333673 -1.85117 0
M  V30 972 O 110.387 0.702114 -1.67153 0
M  V30 973 C 110.435 -2.74295 -2.34082 0
M  V30 974 O 109.539 -2.35349 -3.38651 0
M  V30 975 H 108.88 -0.551944 -0.369126 0
M  V30 976 H 111.41 -1.96662 -0.564364 0
M  V30 977 H 111.42 -2.97285 -2.79438 0
M  V30 978 H 110.095 -3.69959 -1.90008 0
M  V30 979 H 108.672 -2.22794 -2.99027 0
M  V30 980 N 110.857 0.726932 -1.39834 0
M  V30 981 C 111.787 1.85405 -1.41941 0
M  V30 982 C 112.768 1.67751 -0.281728 0
M  V30 983 O 113.953 1.8795 -0.488717 0
M  V30 984 C 111.083 3.23243 -1.2701 0
M  V30 985 C 110.037 3.55549 -2.38262 0
M  V30 986 C 109.363 4.9241 -2.08415 0
M  V30 987 C 110.663 3.577 -3.80589 0
M  V30 988 H 112.357 1.83899 -2.36266 0
M  V30 989 H 109.903 0.883349 -1.13723 0
M  V30 990 H 111.856 4.01775 -1.27103 0
M  V30 991 H 110.58 3.25296 -0.291564 0
M  V30 992 H 109.239 2.79351 -2.37399 0
M  V30 993 H 108.887 4.91052 -1.0898 0
M  V30 994 H 108.587 5.14992 -2.82943 0
M  V30 995 H 110.111 5.73289 -2.10171 0
M  V30 996 H 111.525 4.26293 -3.83337 0
M  V30 997 H 109.922 3.91804 -4.54543 0
M  V30 998 H 110.992 2.57328 -4.10987 0
M  V30 999 N 112.336 1.25143 0.95797 0
M  V30 1000 C 113.299 1.05321 2.03569 0
M  V30 1001 C 114.299 0.007152 1.60798 0
M  V30 1002 O 115.489 0.24903 1.72411 0
M  V30 1003 C 112.621 0.598394 3.35607 0
M  V30 1004 H 113.814 2.00986 2.22586 0
M  V30 1005 H 111.367 1.07502 1.13459 0
M  V30 1006 H 112.102 -0.361014 3.22284 0
M  V30 1007 H 111.887 1.35351 3.67998 0
M  V30 1008 H 113.377 0.48104 4.1482 0
M  V30 1009 N 113.814 -1.1601 1.06675 0
M  V30 1010 C 114.777 -2.18724 0.685001 0
M  V30 1011 C 115.777 -1.58496 -0.271246 0
M  V30 1012 O 116.967 -1.74119 -0.0531156 0
M  V30 1013 C 114.099 -3.40899 0.00853648 0
M  V30 1014 H 115.292 -2.54011 1.59431 0
M  V30 1015 H 112.845 -1.30352 0.862441 0
M  V30 1016 H 113.58 -3.11173 -0.913337 0
M  V30 1017 H 113.365 -3.8587 0.696204 0
M  V30 1018 H 114.855 -4.16886 -0.24414 0
M  V30 1019 N 115.292 -0.849877 -1.32721 0
M  V30 1020 C 116.255 -0.296122 -2.27279 0
M  V30 1021 C 117.255 0.541458 -1.5141 0
M  V30 1022 O 118.445 0.353658 -1.70572 0
M  V30 1023 C 115.577 0.581579 -3.35902 0
M  V30 1024 H 116.77 -1.13064 -2.77771 0
M  V30 1025 H 114.323 -0.62383 -1.43311 0
M  V30 1026 H 115.058 1.43809 -2.9067 0
M  V30 1027 H 114.843 -0.0178814 -3.92096 0
M  V30 1028 H 116.333 0.961951 -4.0637 0
M  V30 1029 N 116.77 1.45427 -0.607355 0
M  V30 1030 C 118.047 1.9557 -0.0344566 0
M  V30 1031 C 118.427 1.54979 1.43334 0
M  V30 1032 O 117.775 0.812241 2.13576 0
M  V30 1033 C 117.985 3.48226 -0.232321 0
M  V30 1034 C 119.333 4.2445 -0.113001 0
M  V30 1035 O 120.357 3.55829 -0.162431 0
M  V30 1036 O 119.216 5.465 0.00209442 0
M  V30 1037 H 116.31 0.826222 0.0358667 0
M  V30 1038 H 118.856 1.55594 -0.6774 0
M  V30 1039 H 117.628 3.70739 -1.25174 0
M  V30 1040 H 117.251 3.95092 0.445896 0
M  V30 1041 N 118.248 0.346503 1.53744 0
M  V30 1042 C 119.178 -0.501193 2.28058 0
M  V30 1043 C 120.159 -1.10014 1.29734 0
M  V30 1044 O 121.344 -1.12097 1.58581 0
M  V30 1045 C 118.474 -1.65078 3.05559 0
M  V30 1046 C 117.428 -1.18003 4.11411 0
M  V30 1047 C 116.754 -2.41837 4.76884 0
M  V30 1048 C 118.054 -0.278394 5.21558 0
M  V30 1049 H 119.748 0.11875 2.99164 0
M  V30 1050 H 117.294 0.0585531 1.43881 0
M  V30 1051 H 119.247 -2.25028 3.56287 0
M  V30 1052 H 117.971 -2.29767 2.32109 0
M  V30 1053 H 116.63 -0.603331 3.61601 0
M  V30 1054 H 116.278 -3.0494 4.00026 0
M  V30 1055 H 115.978 -2.1102 5.48402 0
M  V30 1056 H 117.502 -3.02508 5.30397 0
M  V30 1057 H 118.916 -0.784823 5.67903 0
M  V30 1058 H 117.313 -0.0619707 6.00068 0
M  V30 1059 H 118.383 0.684677 4.80042 0
M  V30 1060 N 119.726 -1.57421 0.075193 0
M  V30 1061 C 120.656 -2.15942 -0.888324 0
M  V30 1062 C 121.637 -1.08737 -1.30806 0
M  V30 1063 O 122.822 -1.36787 -1.37851 0
M  V30 1064 C 119.952 -2.72379 -2.1547 0
M  V30 1065 C 118.906 -3.8478 -1.87425 0
M  V30 1066 C 118.232 -4.27834 -3.20721 0
M  V30 1067 C 119.532 -5.08869 -1.17684 0
M  V30 1068 H 121.226 -2.96705 -0.400799 0
M  V30 1069 H 118.772 -1.42723 -0.191342 0
M  V30 1070 H 120.725 -3.11965 -2.83295 0
M  V30 1071 H 119.449 -1.88841 -2.6647 0
M  V30 1072 H 118.108 -3.45703 -1.22004 0
M  V30 1073 H 117.756 -3.41214 -3.6957 0
M  V30 1074 H 117.456 -5.03605 -3.02746 0
M  V30 1075 H 118.98 -4.70039 -3.89738 0
M  V30 1076 H 120.394 -5.4575 -1.75584 0
M  V30 1077 H 118.791 -5.8994 -1.09956 0
M  V30 1078 H 119.861 -4.84648 -0.156453 0
M  V30 1079 N 121.204 0.198386 -1.56346 0
M  V30 1080 C 122.134 1.24865 -1.9731 0
M  V30 1081 C 123.115 1.47651 -0.844576 0
M  V30 1082 O 124.3 1.59444 -1.10866 0
M  V30 1083 C 121.43 2.59358 -2.30977 0
M  V30 1084 C 120.384 2.5119 -3.46537 0
M  V30 1085 C 119.71 3.89926 -3.65871 0
M  V30 1086 C 121.01 2.03977 -4.80823 0
M  V30 1087 H 122.704 0.908252 -2.85291 0
M  V30 1088 H 120.25 0.435462 -1.37258 0
M  V30 1089 H 122.203 3.33011 -2.58228 0
M  V30 1090 H 120.927 2.95132 -1.39874 0
M  V30 1091 H 119.586 1.79993 -3.19371 0
M  V30 1092 H 119.234 4.23046 -2.72105 0
M  V30 1093 H 118.934 3.85336 -4.4361 0
M  V30 1094 H 120.458 4.65205 -3.95495 0
M  V30 1095 H 121.872 2.67386 -5.07127 0
M  V30 1096 H 120.269 2.10397 -5.62008 0
M  V30 1097 H 121.339 0.992861 -4.74626 0
M  V30 1098 N 122.682 1.50554 0.465978 0
M  V30 1099 C 123.645 1.69233 1.54574 0
M  V30 1100 C 124.645 0.562901 1.50626 0
M  V30 1101 O 125.835 0.830016 1.53155 0
M  V30 1102 C 122.967 1.7223 2.94193 0
M  V30 1103 H 124.16 2.65571 1.39327 0
M  V30 1104 H 121.713 1.40111 0.692711 0
M  V30 1105 H 122.448 0.77603 3.14878 0
M  V30 1106 H 122.233 2.54285 2.98466 0
M  V30 1107 H 123.723 1.88618 3.72576 0
M  V30 1108 N 124.16 -0.719506 1.40217 0
M  V30 1109 C 125.09 -1.8465 1.42922 0
M  V30 1110 C 126.071 -1.67599 0.29062 0
M  V30 1111 O 127.256 -1.87688 0.498677 0
M  V30 1112 C 124.386 -3.22565 1.28722 0
M  V30 1113 C 123.34 -3.54281 2.40144 0
M  V30 1114 C 122.666 -4.91298 2.11023 0
M  V30 1115 C 123.966 -3.55676 3.82481 0
M  V30 1116 H 125.66 -1.82644 2.37237 0
M  V30 1117 H 123.206 -0.877305 1.1419 0
M  V30 1118 H 125.159 -4.01095 1.29232 0
M  V30 1119 H 123.883 -3.25137 0.308811 0
M  V30 1120 H 122.542 -2.78088 2.38877 0
M  V30 1121 H 122.19 -4.90468 1.11582 0
M  V30 1122 H 121.89 -5.13485 2.8567 0
M  V30 1123 H 123.414 -5.72166 2.13209 0
M  V30 1124 H 124.828 -4.24254 3.85592 0
M  V30 1125 H 123.225 -3.89388 4.56614 0
M  V30 1126 H 124.295 -2.55144 4.12346 0
M  V30 1127 N 125.638 -1.25649 -0.95132 0
M  V30 1128 C 126.568 -1.08808 -2.06599 0
M  V30 1129 C 127.549 0.00382547 -1.701 0
M  V30 1130 O 128.734 -0.166325 -1.93486 0
M  V30 1131 C 125.864 -0.709542 -3.39975 0
M  V30 1132 C 124.818 -1.75206 -3.90496 0
M  V30 1133 C 124.144 -1.22811 -5.20405 0
M  V30 1134 C 125.444 -3.15153 -4.16504 0
M  V30 1135 H 127.138 -2.02048 -2.20946 0
M  V30 1136 H 124.684 -0.972835 -1.06169 0
M  V30 1137 H 126.637 -0.578649 -4.17408 0
M  V30 1138 H 125.361 0.258556 -3.25575 0
M  V30 1139 H 124.02 -1.87145 -3.15234 0
M  V30 1140 H 123.668 -0.250145 -5.02378 0
M  V30 1141 H 123.368 -1.92492 -5.55176 0
M  V30 1142 H 124.892 -1.10968 -6.00432 0
M  V30 1143 H 126.306 -3.06349 -4.84586 0
M  V30 1144 H 124.703 -3.82333 -4.62538 0
M  V30 1145 H 125.773 -3.61966 -3.22658 0
M  V30 1146 N 127.117 1.15442 -1.07289 0
M  V30 1147 C 128.363 1.86489 -0.796846 0
M  V30 1148 C 128.696 1.82078 0.675371 0
M  V30 1149 O 127.971 1.24346 1.4956 0
M  V30 1150 C 128.254 3.35626 -1.30489 0
M  V30 1151 C 128.107 3.48673 -2.84161 0
M  V30 1152 C 129.426 4.30357 -0.920907 0
M  V30 1153 H 126.545 0.677144 -0.290939 0
M  V30 1154 H 129.187 1.35633 -1.33056 0
M  V30 1155 H 127.337 3.79068 -0.850883 0
M  V30 1156 H 129.009 3.14099 -3.37846 0
M  V30 1157 H 127.252 2.90253 -3.22391 0
M  V30 1158 H 127.923 4.53453 -3.14777 0
M  V30 1159 H 130.399 3.94871 -1.3121 0
M  V30 1160 H 129.275 5.33193 -1.30372 0
M  V30 1161 H 129.536 4.4176 0.173226 0
M  V30 1162 N 128.595 0.856903 1.32268 0
M  V30 1163 C 129.525 0.31858 2.31316 0
M  V30 1164 C 130.506 -0.583487 1.59779 0
M  V30 1165 O 131.691 -0.503259 1.87566 0
M  V30 1166 C 128.821 -0.491979 3.43798 0
M  V30 1167 C 127.775 0.315849 4.26833 0
M  V30 1168 C 127.101 -0.619586 5.31098 0
M  V30 1169 C 128.401 1.54282 4.98993 0
M  V30 1170 H 130.095 1.14621 2.76591 0
M  V30 1171 H 127.641 0.552613 1.32974 0
M  V30 1172 H 129.594 -0.879012 4.1213 0
M  V30 1173 H 128.318 -1.35299 2.97257 0
M  V30 1174 H 126.977 0.684664 3.6015 0
M  V30 1175 H 126.625 -1.47751 4.8081 0
M  V30 1176 H 126.325 -0.0830621 5.87541 0
M  V30 1177 H 127.849 -1.00375 6.02293 0
M  V30 1178 H 129.263 1.22796 5.59995 0
M  V30 1179 H 127.66 2.01745 5.65172 0
M  V30 1180 H 128.73 2.30285 4.26728 0
M  V30 1181 N 130.073 -1.45103 0.615059 0
M  V30 1182 C 131.484 -1.85654 0.197383 0
M  V30 1183 C 131.835 -1.51433 -1.24749 0
M  V30 1184 O 130.96 -0.944608 -1.94695 0
M  V30 1185 C 131.555 -3.36972 0.351448 0
M  V30 1186 C 130.114 -3.76398 -0.011593 0
M  V30 1187 C 129.261 -2.69024 0.672394 0
M  V30 1188 H 132.212 -1.35797 0.821263 0
M  V30 1189 H 132.233 -3.78239 -0.414227 0
M  V30 1190 H 131.745 -3.61847 1.40314 0
M  V30 1191 H 129.846 -3.5714 -1.06217 0
M  V30 1192 H 129.959 -4.77532 0.387265 0
M  V30 1193 H 128.323 -2.54465 0.109284 0
M  V30 1194 H 129.106 -2.96735 1.72636 0
M  V30 1195 N 131.551 -0.354651 -1.53558 0
M  V30 1196 C 132.481 0.489091 -2.2832 0
M  V30 1197 C 133.462 1.09324 -1.30316 0
M  V30 1198 O 134.647 1.11255 -1.59173 0
M  V30 1199 C 131.777 1.63456 -3.0643 0
M  V30 1200 C 130.731 1.1582 -4.12031 0
M  V30 1201 C 130.057 2.39305 -4.7816 0
M  V30 1202 C 131.357 0.250731 -5.21698 0
M  V30 1203 H 133.051 -0.134614 -2.99097 0
M  V30 1204 H 130.597 -0.0661826 -1.43848 0
M  V30 1205 H 132.55 2.23136 -3.57475 0
M  V30 1206 H 131.274 2.28533 -2.33325 0
M  V30 1207 H 129.933 0.584146 -3.61916 0
M  V30 1208 H 129.581 3.02814 -4.01637 0
M  V30 1209 H 129.281 2.08109 -5.49513 0
M  V30 1210 H 130.805 2.99691 -5.31994 0
M  V30 1211 H 132.219 0.754695 -5.68311 0
M  V30 1212 H 130.616 0.0301468 -6.00092 0
M  V30 1213 H 131.686 -0.710125 -4.79672 0
M  V30 1214 N 133.029 1.57378 -0.0835403 0
M  V30 1215 C 134.276 1.9393 0.58287 0
M  V30 1216 C 134.604 0.964455 1.68904 0
M  V30 1217 O 133.859 -0.0179474 1.95692 0
M  V30 1218 C 134.158 3.37063 1.1884 0
M  V30 1219 C 133.824 4.50424 0.207194 0
M  V30 1220 C 132.486 4.81159 -0.0627115 0
M  V30 1221 C 134.838 5.19136 -0.463426 0
M  V30 1222 C 132.166 5.77939 -1.01012 0
M  V30 1223 C 134.518 6.16931 -1.39924 0
M  V30 1224 C 133.182 6.46078 -1.67749 0
M  V30 1225 H 132.452 0.70964 0.213287 0
M  V30 1226 H 135.099 1.90856 -0.156916 0
M  V30 1227 H 133.404 3.3666 2.00418 0
M  V30 1228 H 135.101 3.6264 1.71153 0
M  V30 1229 H 131.691 4.2646 0.427747 0
M  V30 1230 H 135.875 4.95576 -0.268034 0
M  V30 1231 H 131.131 5.98842 -1.23283 0
M  V30 1232 H 135.305 6.69273 -1.92476 0
M  V30 1233 H 132.932 7.2088 -2.41321 0
M  V30 1234 N 134.507 -0.190092 1.56449 0
M  V30 1235 C 135.753 -0.911052 1.81184 0
M  V30 1236 C 136.086 -1.82699 0.658396 0
M  V30 1237 O 135.361 -1.91491 -0.340775 0
M  V30 1238 C 135.644 -1.72297 3.16205 0
M  V30 1239 C 135.497 -0.831419 4.42049 0
M  V30 1240 C 136.816 -2.69454 3.47969 0
M  V30 1241 H 133.935 -0.32977 0.659106 0
M  V30 1242 H 136.577 -0.178169 1.89163 0
M  V30 1243 H 134.727 -2.34778 3.09534 0
M  V30 1244 H 136.399 -0.220929 4.60771 0
M  V30 1245 H 134.642 -0.138406 4.33579 0
M  V30 1246 H 135.313 -1.43461 5.33032 0
M  V30 1247 H 137.789 -2.17104 3.54972 0
M  V30 1248 H 136.665 -3.23342 4.43555 0
M  V30 1249 H 136.926 -3.48744 2.71717 0
M  V30 1250 N 135.985 -1.50799 -0.457987 0
M  V30 1251 C 137.215 -1.65977 -1.23025 0
M  V30 1252 C 137.623 -0.347918 -1.85974 0
M  V30 1253 O 136.966 0.68148 -1.70592 0
M  V30 1254 C 137.028 -2.70309 -2.3701 0
M  V30 1255 C 136.692 -4.135 -1.94594 0
M  V30 1256 C 137.689 -4.98949 -1.46101 0
M  V30 1257 C 135.374 -4.5949 -2.02915 0
M  V30 1258 C 137.368 -6.28442 -1.06489 0
M  V30 1259 C 135.055 -5.88984 -1.62914 0
M  V30 1260 C 136.053 -6.73286 -1.1478 0
M  V30 1261 O 135.741 -8.00362 -0.75339 0
M  V30 1262 H 135.473 -0.56064 -0.377702 0
M  V30 1263 H 138.027 -1.97857 -0.551537 0
M  V30 1264 H 136.257 -2.337 -3.08093 0
M  V30 1265 H 137.946 -2.74574 -2.98938 0
M  V30 1266 H 138.712 -4.6463 -1.39084 0
M  V30 1267 H 134.591 -3.94009 -2.39328 0
M  V30 1268 H 138.135 -6.94194 -0.688488 0
M  V30 1269 H 134.032 -6.22822 -1.69595 0
M  V30 1270 H 134.8 -8.13744 -0.88108 0
M  V30 1271 N 137.463 0.71206 -1.40597 0
M  V30 1272 C 138.688 1.50617 -1.42581 0
M  V30 1273 C 139.113 1.88079 -0.0282102 0
M  V30 1274 O 138.471 1.53511 0.964579 0
M  V30 1275 C 138.519 2.7557 -2.3258 0
M  V30 1276 O 137.623 3.72414 -1.77148 0
M  V30 1277 H 136.964 0.453966 -0.484573 0
M  V30 1278 H 139.494 0.876649 -1.84868 0
M  V30 1279 H 139.504 3.2406 -2.47889 0
M  V30 1280 H 138.179 2.47639 -3.34138 0
M  V30 1281 H 136.756 3.31276 -1.71204 0
M  V30 1282 N 138.941 1.26152 0.944643 0
M  V30 1283 C 139.851 1.09176 2.07648 0
M  V30 1284 C 140.867 0.0261935 1.7398 0
M  V30 1285 O 142.043 0.229208 2.00091 0
M  V30 1286 C 139.108 0.722915 3.39079 0
M  V30 1287 C 138.169 1.86752 3.86552 0
M  V30 1288 C 137.402 1.51617 5.11711 0
M  V30 1289 O 137.625 0.416331 5.68879 0
M  V30 1290 O 136.559 2.34975 5.54139 0
M  V30 1291 H 140.385 2.0412 2.24875 0
M  V30 1292 H 137.97 1.05182 1.061 0
M  V30 1293 H 139.852 0.529787 4.18056 0
M  V30 1294 H 138.527 -0.197159 3.23099 0
M  V30 1295 H 137.434 2.11558 3.08535 0
M  V30 1296 H 138.767 2.76719 4.07047 0
M  V30 1297 N 140.419 -1.14872 1.07899 0
M  V30 1298 C 141.665 -1.86064 0.806725 0
M  V30 1299 C 141.998 -1.82434 -0.665706 0
M  V30 1300 O 141.273 -1.25138 -1.48899 0
M  V30 1301 C 141.556 -3.34929 1.32267 0
M  V30 1302 C 141.409 -3.47161 2.86006 0
M  V30 1303 C 142.728 -4.29863 0.943717 0
M  V30 1304 H 139.847 -0.675591 0.294526 0
M  V30 1305 H 142.489 -1.34925 1.33773 0
M  V30 1306 H 140.639 -3.78611 0.870974 0
M  V30 1307 H 142.311 -3.12302 3.39507 0
M  V30 1308 H 140.554 -2.88539 3.23925 0
M  V30 1309 H 141.225 -4.51777 3.17177 0
M  V30 1310 H 143.701 -3.9417 1.33302 0
M  V30 1311 H 142.577 -5.32494 1.33198 0
M  V30 1312 H 142.838 -4.41846 -0.149796 0
M  V30 1313 N 141.898 -0.863906 -1.31812 0
M  V30 1314 C 142.83 -0.272485 -2.27575 0
M  V30 1315 C 143.843 0.56104 -1.52827 0
M  V30 1316 O 145.032 0.384021 -1.7432 0
M  V30 1317 C 142.132 0.63283 -3.32939 0
M  V30 1318 C 141.305 -0.166902 -4.37081 0
M  V30 1319 C 140.364 0.665608 -5.21973 0
M  V30 1320 O 139.39 0.0958091 -5.69119 0
M  V30 1321 N 140.592 1.9787 -5.45736 0
M  V30 1322 H 143.357 -1.0954 -2.78964 0
M  V30 1323 H 140.918 -0.724791 -1.4477 0
M  V30 1324 H 142.91 1.19532 -3.86645 0
M  V30 1325 H 141.48 1.35642 -2.81638 0
M  V30 1326 H 140.7 -0.910838 -3.83533 0
M  V30 1327 H 141.988 -0.715874 -5.03739 0
M  V30 1328 H 141.386 2.46484 -5.09178 0
M  V30 1329 H 139.943 2.48911 -6.024 0
M  V30 1330 N 143.376 1.44774 -0.622745 0
M  V30 1331 C 144.624 2.01721 -0.123655 0
M  V30 1332 C 144.945 1.49172 1.25589 0
M  V30 1333 O 144.215 0.691974 1.83272 0
M  V30 1334 H 142.795 0.745777 -0.0427225 0
M  V30 1335 H 145.457 1.77382 -0.807559 0
M  V30 1336 H 144.553 3.11984 -0.0849534 0
M  V30 1337 N 144.854 0.36279 1.53368 0
M  V30 1338 C 146.102 -0.227326 2.00817 0
M  V30 1339 C 146.423 -1.49511 1.25186 0
M  V30 1340 O 145.693 -1.92482 0.364348 0
M  V30 1341 H 144.273 -0.0869923 0.741917 0
M  V30 1342 H 146.935 0.488381 1.88682 0
M  V30 1343 H 146.031 -0.456273 3.08747 0
M  V30 1344 N 146.332 -1.57332 0.0918853 0
M  V30 1345 C 147.295 -2.12708 -0.85369 0
M  V30 1346 C 148.295 -1.05561 -1.213 0
M  V30 1347 O 149.485 -1.31461 -1.14296 0
M  V30 1348 C 146.617 -2.64503 -2.15061 0
M  V30 1349 H 147.81 -2.97573 -0.3729 0
M  V30 1350 H 145.363 -1.55509 -0.157072 0
M  V30 1351 H 146.098 -1.83149 -2.67632 0
M  V30 1352 H 145.883 -3.4284 -1.90272 0
M  V30 1353 H 147.373 -3.07351 -2.82711 0
M  V30 1354 N 147.81 0.181792 -1.56548 0
M  V30 1355 C 149.056 0.896803 -1.82562 0
M  V30 1356 C 149.411 1.80324 -0.670908 0
M  V30 1357 O 148.704 1.8868 0.333235 0
M  V30 1358 C 148.898 1.73728 -3.12335 0
M  V30 1359 C 148.727 0.913714 -4.4032 0
M  V30 1360 C 147.497 0.592903 -5.01809 0
M  V30 1361 C 149.695 0.260164 -5.13642 0
M  V30 1362 N 147.677 -0.247901 -6.13399 0
M  V30 1363 C 149.048 -0.442256 -6.18421 0
M  V30 1364 C 151.103 0.177253 -4.97584 0
M  V30 1365 C 149.806 -1.21971 -7.08883 0
M  V30 1366 C 151.832 -0.586839 -5.88481 0
M  V30 1367 C 151.194 -1.27766 -6.92716 0
M  V30 1368 H 147.293 0.307122 -0.719166 0
M  V30 1369 H 149.877 0.164535 -1.94004 0
M  V30 1370 H 148.048 2.44105 -3.02105 0
M  V30 1371 H 149.78 2.39279 -3.26386 0
M  V30 1372 H 146.535 0.920502 -4.64568 0
M  V30 1373 H 146.959 -0.658304 -6.73792 0
M  V30 1374 H 151.601 0.696993 -4.17015 0
M  V30 1375 H 149.319 -1.75083 -7.88905 0
M  V30 1376 H 152.905 -0.652522 -5.78129 0
M  V30 1377 H 151.785 -1.85943 -7.61836 0
M  V30 1378 N 149.288 1.51039 0.449983 0
M  V30 1379 C 150.218 1.74379 1.55288 0
M  V30 1380 C 151.199 0.593236 1.5942 0
M  V30 1381 O 152.384 0.834625 1.7535 0
M  V30 1382 C 149.514 1.85728 2.93466 0
M  V30 1383 C 148.468 3.01078 3.04197 0
M  V30 1384 C 147.794 2.97595 4.44231 0
M  V30 1385 C 149.094 4.41254 2.7945 0
M  V30 1386 H 150.788 2.66725 1.36008 0
M  V30 1387 H 148.334 1.2835 0.652864 0
M  V30 1388 H 150.287 2.0064 3.70569 0
M  V30 1389 H 149.011 0.900207 3.13949 0
M  V30 1390 H 147.67 2.85851 2.29531 0
M  V30 1391 H 147.318 1.99691 4.61663 0
M  V30 1392 H 147.018 3.75046 4.52343 0
M  V30 1393 H 148.542 3.14583 5.23326 0
M  V30 1394 H 149.956 4.56897 3.46292 0
M  V30 1395 H 148.353 5.20315 2.98985 0
M  V30 1396 H 149.423 4.52164 1.75144 0
M  V30 1397 N 150.766 -0.704594 1.40972 0
M  V30 1398 C 151.696 -1.83124 1.44872 0
M  V30 1399 C 152.677 -1.67281 0.30838 0
M  V30 1400 O 153.862 -1.87149 0.518556 0
M  V30 1401 C 150.992 -3.21181 1.32136 0
M  V30 1402 C 149.946 -3.51714 2.43888 0
M  V30 1403 C 149.272 -4.89032 2.16222 0
M  V30 1404 C 150.572 -3.516 3.86232 0
M  V30 1405 H 152.266 -1.80117 2.39161 0
M  V30 1406 H 149.812 -0.865145 1.15114 0
M  V30 1407 H 151.765 -3.99702 1.33479 0
M  V30 1408 H 150.489 -3.24791 0.343279 0
M  V30 1409 H 149.148 -2.75539 2.41813 0
M  V30 1410 H 148.796 -4.89256 1.16778 0
M  V30 1411 H 148.496 -5.10426 2.911 0
M  V30 1412 H 150.02 -5.69873 2.19265 0
M  V30 1413 H 151.434 -4.2014 3.9007 0
M  V30 1414 H 149.831 -3.84523 4.60719 0
M  V30 1415 H 150.901 -2.50757 4.15029 0
M  V30 1416 N 152.244 -1.26651 -0.937939 0
M  V30 1417 C 153.469 -1.15279 -1.72411 0
M  V30 1418 C 153.894 0.287866 -1.85884 0
M  V30 1419 O 153.252 1.20855 -1.35143 0
M  V30 1420 C 153.3 -1.83028 -3.10698 0
M  V30 1421 O 152.404 -1.12128 -3.96864 0
M  V30 1422 H 151.745 -0.401504 -0.528858 0
M  V30 1423 H 154.275 -1.67531 -1.1745 0
M  V30 1424 H 154.285 -1.89981 -3.6107 0
M  V30 1425 H 152.96 -2.87833 -3.00208 0
M  V30 1426 H 151.537 -1.13173 -3.55312 0
M  V30 1427 N 153.722 1.14298 -1.08507 0
M  V30 1428 C 155.133 1.66926 -0.836227 0
M  V30 1429 C 155.484 1.85576 0.63686 0
M  V30 1430 O 154.609 1.56767 1.49175 0
M  V30 1431 C 155.204 3.03219 -1.51142 0
M  V30 1432 C 153.763 3.52876 -1.30979 0
M  V30 1433 C 152.91 2.2833 -1.57356 0
M  V30 1434 H 155.861 0.983491 -1.24552 0
M  V30 1435 H 155.882 3.68726 -0.939211 0
M  V30 1436 H 155.394 2.89612 -2.58353 0
M  V30 1437 H 153.495 3.71703 -0.258429 0
M  V30 1438 H 153.608 4.33586 -2.03814 0
M  V30 1439 H 151.972 2.34454 -0.995164 0
M  V30 1440 H 152.755 2.17298 -2.65775 0
M  V30 1441 N 155.201 0.870884 1.31352 0
M  V30 1442 C 156.617 0.562932 1.49343 0
M  V30 1443 C 156.817 -0.902725 1.80148 0
M  V30 1444 O 155.873 -1.68484 1.88067 0
M  V30 1445 C 157.186 1.46393 2.62659 0
M  V30 1446 C 158.734 1.46607 2.76542 0
M  V30 1447 C 159.209 2.35266 3.92955 0
M  V30 1448 N 160.7 2.33151 4.00243 0
M  V30 1449 C 161.435 2.98471 4.89594 0
M  V30 1450 N 160.931 3.72964 5.8384 0
M  V30 1451 N 162.724 2.87775 4.82848 0
M  V30 1452 H 154.875 1.81923 1.09626 0
M  V30 1453 H 157.138 0.777934 0.541777 0
M  V30 1454 H 156.844 2.50689 2.46674 0
M  V30 1455 H 156.718 1.16314 3.58819 0
M  V30 1456 H 159.105 0.43069 2.9194 0
M  V30 1457 H 159.186 1.8071 1.81046 0
M  V30 1458 H 158.83 3.38881 3.78315 0
M  V30 1459 H 158.76 1.98487 4.87761 0
M  V30 1460 H 161.251 1.79006 3.32814 0
M  V30 1461 H 161.564 4.19932 6.4875 0
M  V30 1462 H 159.909 3.77073 5.83816 0
M  V30 1463 H 163.1 2.29116 4.08195 0
M  V30 1464 H 163.273 3.38961 5.52277 0
M  V30 1465 N 156.679 -1.44442 0.630414 0
M  V30 1466 C 157.609 -2.33418 -0.0618083 0
M  V30 1467 C 158.59 -1.48165 -0.835541 0
M  V30 1468 O 159.775 -1.76886 -0.801564 0
M  V30 1469 C 156.905 -3.31222 -1.04449 0
M  V30 1470 C 155.859 -4.26288 -0.382436 0
M  V30 1471 C 155.185 -5.13954 -1.47497 0
M  V30 1472 C 156.485 -5.1744 0.710865 0
M  V30 1473 H 158.179 -2.91548 0.681184 0
M  V30 1474 H 155.725 -1.40191 0.329026 0
M  V30 1475 H 157.678 -3.92351 -1.53748 0
M  V30 1476 H 156.402 -2.71299 -1.81836 0
M  V30 1477 H 155.061 -3.6649 0.0899054 0
M  V30 1478 H 154.709 -4.50385 -2.2397 0
M  V30 1479 H 154.409 -5.7837 -1.03737 0
M  V30 1480 H 155.933 -5.77955 -1.96979 0
M  V30 1481 H 157.347 -5.72509 0.300996 0
M  V30 1482 H 155.744 -5.90455 1.07156 0
M  V30 1483 H 156.814 -4.58496 1.57829 0
M  V30 1484 N 158.157 -0.370918 -1.53173 0
M  V30 1485 C 159.397 0.217106 -2.03244 0
M  V30 1486 C 159.761 1.45558 -1.25207 0
M  V30 1487 O 160.962 2.11957 -1.65311 0
M  V30 1488 C 159.233 0.496664 -3.53932 0
M  V30 1489 S 160.792 1.0576 -4.25864 0
M  V30 1490 H 157.61 0.0627827 -0.708223 0
M  V30 1491 H 160.212 -0.515019 -1.88594 0
M  V30 1492 H 158.916 -0.412096 -4.08326 0
M  V30 1493 H 158.447 1.25772 -3.72753 0
M  V30 1494 H 160.462 2.34145 -4.37482 0
M  V30 1495 N 159.635 1.57281 -0.100228 0
M  V30 1496 C 160.912 1.86014 0.604812 0
M  V30 1497 C 161.292 0.998025 1.86018 0
M  V30 1498 O 160.64 0.0718184 2.28387 0
M  V30 1499 C 160.85 3.36784 0.915278 0
M  V30 1500 C 162.198 4.04957 1.27651 0
M  V30 1501 O 163.222 3.41695 1.00613 0
M  V30 1502 O 162.081 5.16593 1.7831 0
M  V30 1503 H 159.175 0.76942 0.303185 0
M  V30 1504 H 161.721 1.69176 -0.133313 0
M  V30 1505 H 160.493 3.91292 0.0248896 0
M  V30 1506 H 160.116 3.58987 1.70921 0
M  V30 1507 N 161.113 -0.173488 1.56642 0
M  V30 1508 C 162.076 -1.19859 1.95362 0
M  V30 1509 C 163.076 -1.37296 0.83704 0
M  V30 1510 O 164.266 -1.34739 1.10413 0
M  V30 1511 C 161.398 -2.56405 2.24654 0
M  V30 1512 H 162.591 -0.867062 2.87092 0
M  V30 1513 H 160.144 -0.415853 1.50666 0
M  V30 1514 H 160.879 -2.94576 1.35631 0
M  V30 1515 H 160.664 -2.45115 3.06041 0
M  V30 1516 H 162.154 -3.30287 2.5554 0
M  V30 1517 N 162.591 -1.51276 -0.441967 0
M  V30 1518 C 163.521 -1.752 -1.54361 0
M  V30 1519 C 164.502 -0.601682 -1.59103 0
M  V30 1520 O 165.687 -0.843913 -1.74905 0
M  V30 1521 C 162.817 -1.87282 -2.92477 0
M  V30 1522 C 161.771 -3.02687 -3.02596 0
M  V30 1523 C 161.097 -2.99947 -4.42647 0
M  V30 1524 C 162.397 -4.4273 -2.77106 0
M  V30 1525 H 164.091 -2.67442 -1.34592 0
M  V30 1526 H 161.637 -1.28694 -0.646048 0
M  V30 1527 H 163.59 -2.02602 -3.695 0
M  V30 1528 H 162.314 -0.916844 -3.13467 0
M  V30 1529 H 160.973 -2.87065 -2.28012 0
M  V30 1530 H 160.621 -2.02136 -4.60597 0
M  V30 1531 H 160.321 -3.77439 -4.50348 0
M  V30 1532 H 161.845 -3.17354 -5.2165 0
M  V30 1533 H 163.259 -4.58727 -3.43864 0
M  V30 1534 H 161.656 -5.21893 -2.96222 0
M  V30 1535 H 162.726 -4.53087 -1.72744 0
M  V30 1536 N 164.069 0.697108 -1.41344 0
M  V30 1537 C 165.002 1.82134 -1.37486 0
M  V30 1538 C 165.98 1.60784 -0.242351 0
M  V30 1539 O 167.164 1.83553 -0.429012 0
M  V30 1540 C 164.291 3.18788 -1.14421 0
M  V30 1541 C 163.337 3.58932 -2.3037 0
M  V30 1542 S 164.17 3.63916 -3.92843 0
M  V30 1543 C 165.326 5.03298 -3.72078 0
M  V30 1544 H 165.559 1.85129 -2.32625 0
M  V30 1545 H 163.092 0.865671 -1.2785 0
M  V30 1546 H 165.05 3.97677 -1.018 0
M  V30 1547 H 163.711 3.13404 -0.20905 0
M  V30 1548 H 162.904 4.58202 -2.09922 0
M  V30 1549 H 162.506 2.87347 -2.39391 0
M  V30 1550 H 164.798 5.90753 -3.31688 0
M  V30 1551 H 165.741 5.28788 -4.70945 0
M  V30 1552 H 166.149 4.74764 -3.05384 0
M  V30 1553 N 165.547 1.27147 0.931209 0
M  V30 1554 C 166.51 1.09615 2.01289 0
M  V30 1555 C 167.51 0.0412581 1.60747 0
M  V30 1556 O 168.7 0.285545 1.71844 0
M  V30 1557 C 165.832 0.669447 3.34262 0
M  V30 1558 H 167.025 2.05662 2.18273 0
M  V30 1559 H 164.578 1.09885 1.11153 0
M  V30 1560 H 165.313 -0.292572 3.22978 0
M  V30 1561 H 165.098 1.43127 3.65044 0
M  V30 1562 H 166.588 0.568921 4.13706 0
M  V30 1563 N 167.025 -1.13721 1.09112 0
M  V30 1564 C 167.958 -2.18094 0.67158 0
M  V30 1565 C 168.936 -1.59414 -0.320299 0
M  V30 1566 O 170.12 -1.87183 -0.222444 0
M  V30 1567 C 167.247 -3.38698 -0.0111189 0
M  V30 1568 C 166.293 -4.15966 0.942055 0
M  V30 1569 S 167.126 -4.7604 2.45246 0
M  V30 1570 C 168.282 -5.99994 1.78208 0
M  V30 1571 H 168.515 -2.53344 1.55577 0
M  V30 1572 H 166.048 -1.24967 0.906789 0
M  V30 1573 H 168.006 -4.08559 -0.398716 0
M  V30 1574 H 166.667 -3.01756 -0.871905 0
M  V30 1575 H 165.86 -5.02318 0.411396 0
M  V30 1576 H 165.462 -3.51745 1.2709 0
M  V30 1577 H 167.754 -6.68441 1.10424 0
M  V30 1578 H 168.697 -6.57662 2.62463 0
M  V30 1579 H 169.105 -5.50432 1.25238 0
M  V30 1580 N 168.503 -0.877838 -1.30888 0
M  V30 1581 C 169.78 -0.413052 -1.91189 0
M  V30 1582 C 170.16 1.1056 -1.79832 0
M  V30 1583 O 169.508 1.93771 -1.21099 0
M  V30 1584 C 169.718 -0.903191 -3.3711 0
M  V30 1585 C 171.066 -0.93395 -4.14201 0
M  V30 1586 O 172.09 -0.849373 -3.45925 0
M  V30 1587 O 170.949 -1.05772 -5.36167 0
M  V30 1588 H 168.043 -0.125035 -0.817493 0
M  V30 1589 H 170.589 -0.966269 -1.39504 0
M  V30 1590 H 169.361 -1.94692 -3.39427 0
M  V30 1591 H 168.984 -0.328732 -3.96239 0
M  V30 1592 N 169.982 1.44106 -0.638065 0
M  V30 1593 C 171.228 2.02277 -0.145546 0
M  V30 1594 C 171.561 1.50125 1.23191 0
M  V30 1595 O 170.836 0.688133 1.8192 0
M  V30 1596 C 171.119 3.59829 -0.139791 0
M  V30 1597 C 170.972 4.22247 -1.55008 0
M  V30 1598 C 172.291 4.36873 0.531966 0
M  V30 1599 H 169.41 0.734992 -0.0543632 0
M  V30 1600 H 172.052 1.71592 -0.815863 0
M  V30 1601 H 170.202 3.86102 0.431007 0
M  V30 1602 H 171.874 4.07057 -2.1703 0
M  V30 1603 H 170.117 3.79476 -2.10191 0
M  V30 1604 H 170.788 5.31284 -1.49804 0
M  V30 1605 H 173.264 4.16074 0.0464781 0
M  V30 1606 H 172.14 5.4657 0.505206 0
M  V30 1607 H 172.401 4.11995 1.60352 0
M  V30 1608 N 171.46 0.379036 1.52974 0
M  V30 1609 C 172.393 -0.504932 2.22544 0
M  V30 1610 C 173.371 -1.0723 1.22231 0
M  V30 1611 O 174.555 -1.12589 1.51182 0
M  V30 1612 C 171.682 -1.69794 2.93066 0
M  V30 1613 C 170.728 -1.25678 4.07563 0
M  V30 1614 S 171.561 -0.246852 5.34931 0
M  V30 1615 C 172.717 -1.44588 6.08971 0
M  V30 1616 H 172.95 0.0858666 2.97176 0
M  V30 1617 H 170.483 0.163183 1.53535 0
M  V30 1618 H 172.441 -2.38219 3.34308 0
M  V30 1619 H 171.102 -2.26002 2.18133 0
M  V30 1620 H 170.295 -2.14725 4.5597 0
M  V30 1621 H 169.897 -0.651584 3.6828 0
M  V30 1622 H 172.189 -2.37469 6.34519 0
M  V30 1623 H 173.132 -1.00292 7.00962 0
M  V30 1624 H 173.54 -1.65804 5.39601 0
M  V30 1625 N 172.938 -1.57226 0.108567 0
M  V30 1626 C 173.868 -2.17778 -0.84232 0
M  V30 1627 C 174.849 -1.11487 -1.2847 0
M  V30 1628 O 176.034 -1.39681 -1.34918 0
M  V30 1629 C 173.164 -2.76888 -2.09644 0
M  V30 1630 C 172.118 -3.88669 -1.79221 0
M  V30 1631 C 171.444 -4.34541 -3.11574 0
M  V30 1632 C 172.744 -5.11251 -1.06864 0
M  V30 1633 H 174.438 -2.97489 -0.337774 0
M  V30 1634 H 171.984 -1.43097 -0.161025 0
M  V30 1635 H 173.937 -3.17904 -2.76614 0
M  V30 1636 H 172.661 -1.94451 -2.62405 0
M  V30 1637 H 171.32 -3.48213 -1.14644 0
M  V30 1638 H 170.968 -3.48977 -3.62249 0
M  V30 1639 H 170.668 -5.09914 -2.91996 0
M  V30 1640 H 172.192 -4.782 -3.7968 0
M  V30 1641 H 173.606 -5.49352 -1.63968 0
M  V30 1642 H 172.003 -5.9214 -0.974178 0
M  V30 1643 H 173.073 -4.8487 -0.0536168 0
M  V30 1644 N 174.416 0.165178 -1.56732 0
M  V30 1645 C 175.656 0.887231 -1.8414 0
M  V30 1646 C 176.02 1.79159 -0.690353 0
M  V30 1647 O 177.221 2.55172 -0.845032 0
M  V30 1648 C 175.492 1.65674 -3.16681 0
M  V30 1649 S 177.051 2.42671 -3.6559 0
M  V30 1650 H 173.869 0.297042 -0.645978 0
M  V30 1651 H 176.471 0.148439 -1.94936 0
M  V30 1652 H 175.175 0.983507 -3.98441 0
M  V30 1653 H 174.706 2.43679 -3.08843 0
M  V30 1654 H 176.721 3.67499 -3.33406 0
M  V30 1655 N 175.894 1.51508 0.433938 0
M  V30 1656 C 177.122 1.68157 1.20543 0
M  V30 1657 C 177.537 0.380362 1.84929 0
M  V30 1658 O 176.894 -0.641446 1.70856 0
M  V30 1659 C 176.945 2.79965 2.28696 0
M  V30 1660 O 176.666 4.05045 1.66943 0
M  V30 1661 C 178.167 3.07912 3.18912 0
M  V30 1662 H 175.387 0.56421 0.363191 0
M  V30 1663 H 177.931 1.97941 0.513754 0
M  V30 1664 H 176.086 2.5277 2.93574 0
M  V30 1665 H 176.5 4.67165 2.38448 0
M  V30 1666 H 177.974 3.89719 3.90926 0
M  V30 1667 H 178.451 2.20456 3.79863 0
M  V30 1668 H 179.057 3.36779 2.59731 0
M  V30 1669 N 177.372 -0.689602 1.41712 0
M  V30 1670 C 178.335 -1.78521 1.43746 0
M  V30 1671 C 179.335 -1.57436 0.327191 0
M  V30 1672 O 180.525 -1.64 0.587348 0
M  V30 1673 C 177.657 -3.16971 1.25467 0
M  V30 1674 H 178.85 -1.78108 2.41283 0
M  V30 1675 H 176.403 -0.89781 1.27942 0
M  V30 1676 H 177.138 -3.23019 0.287948 0
M  V30 1677 H 176.923 -3.33678 2.05917 0
M  V30 1678 H 178.413 -3.96935 1.2974 0
M  V30 1679 N 178.85 -1.27639 -0.924453 0
M  V30 1680 C 180.075 -1.17101 -1.71179 0
M  V30 1681 C 180.5 0.268134 -1.86179 0
M  V30 1682 O 179.858 1.19415 -1.36418 0
M  V30 1683 C 179.906 -1.86313 -3.08739 0
M  V30 1684 O 179.01 -1.16331 -3.95652 0
M  V30 1685 H 178.351 -0.407091 -0.524569 0
M  V30 1686 H 180.881 -1.68767 -1.15666 0
M  V30 1687 H 180.891 -1.938 -3.59034 0
M  V30 1688 H 179.566 -2.91001 -2.97138 0
M  V30 1689 H 178.143 -1.16935 -3.54091 0
M  V30 1690 N 180.328 1.1314 -1.09713 0
M  V30 1691 C 181.577 1.83838 -0.829851 0
M  V30 1692 C 181.89 1.84599 0.646728 0
M  V30 1693 O 183.096 2.51218 1.02965 0
M  V30 1694 C 181.552 3.30069 -1.43466 0
M  V30 1695 C 181.16 3.37688 -2.94399 0
M  V30 1696 C 182.904 4.05788 -1.24645 0
M  V30 1697 C 180.811 4.78209 -3.47952 0
M  V30 1698 H 179.741 0.68877 -0.306777 0
M  V30 1699 H 182.392 1.27448 -1.3202 0
M  V30 1700 H 180.774 3.8628 -0.871996 0
M  V30 1701 H 181.948 2.91456 -3.56918 0
M  V30 1702 H 180.263 2.75436 -3.12289 0
M  V30 1703 H 182.86 5.09535 -1.62107 0
M  V30 1704 H 183.203 4.15878 -0.187357 0
M  V30 1705 H 183.736 3.55915 -1.77678 0
M  V30 1706 H 180.475 4.73311 -4.53495 0
M  V30 1707 H 179.995 5.24924 -2.90198 0
M  V30 1708 H 181.674 5.47133 -3.45332 0
M  V30 1709 N 181.806 0.884767 1.30421 0
M  V30 1710 C 183.053 0.503105 1.96151 0
M  V30 1711 C 183.381 -0.947676 1.69851 0
M  V30 1712 O 182.636 -1.68467 0.995861 0
M  V30 1713 C 182.935 0.724318 3.49983 0
M  V30 1714 C 182.601 2.15015 3.96332 0
M  V30 1715 C 181.263 2.54005 4.08699 0
M  V30 1716 C 183.615 3.07936 4.20505 0
M  V30 1717 C 180.943 3.85128 4.42599 0
M  V30 1718 C 183.295 4.3859 4.55874 0
M  V30 1719 C 181.959 4.77474 4.66449 0
M  V30 1720 H 181.229 0.184099 0.717766 0
M  V30 1721 H 183.876 1.12058 1.55291 0
M  V30 1722 H 182.181 0.0238086 3.91793 0
M  V30 1723 H 183.878 0.408617 3.98913 0
M  V30 1724 H 180.468 1.8375 3.87213 0
M  V30 1725 H 184.652 2.79033 4.10431 0
M  V30 1726 H 179.908 4.14996 4.48986 0
M  V30 1727 H 184.082 5.10629 4.7353 0
M  V30 1728 H 181.709 5.79115 4.92473 0
M  V30 1729 N 183.284 -1.43765 0.645699 0
M  V30 1730 C 184.232 -2.32516 -0.0624849 0
M  V30 1731 C 185.226 -1.48183 -0.820855 0
M  V30 1732 O 186.432 -1.64439 -0.732106 0
M  V30 1733 H 182.807 -0.750989 -0.0389864 0
M  V30 1734 H 184.778 -2.89979 0.703892 0
M  V30 1735 C 183.527 -3.32389 -1.02044 0
M  V30 1736 H 182.85 -3.97301 -0.446312 0
M  V30 1737 H 184.29 -3.97138 -1.48517 0
M  V30 1738 C 182.749 -2.62416 -2.11281 0
M  V30 1739 O 183.279 -2.434 -3.19561 0
M  V30 1740 N 181.485 -2.21913 -1.87624 0
M  V30 1741 H 181.032 -2.37578 -0.995703 0
M  V30 1742 H 180.99 -1.75424 -2.6091 0
M  V30 1743 N 184.763 -0.387143 -1.52771 0
M  V30 1744 C 185.693 0.440551 -2.29306 0
M  V30 1745 C 186.674 1.06535 -1.32606 0
M  V30 1746 O 187.859 1.07853 -1.61497 0
M  V30 1747 C 184.989 1.56919 -3.09829 0
M  V30 1748 C 183.943 1.07054 -4.14395 0
M  V30 1749 C 183.269 2.29109 -4.83129 0
M  V30 1750 C 184.569 0.140015 -5.22112 0
M  V30 1751 H 186.263 -0.198026 -2.98744 0
M  V30 1752 H 183.809 -0.09668 -1.43675 0
M  V30 1753 H 185.762 2.15503 -3.62128 0
M  V30 1754 H 184.486 2.23532 -2.3812 0
M  V30 1755 H 183.145 0.507247 -3.63074 0
M  V30 1756 H 182.793 2.94227 -4.0797 0
M  V30 1757 H 182.493 1.96406 -5.53804 0
M  V30 1758 H 184.017 2.88339 -5.38231 0
M  V30 1759 H 185.431 0.633978 -5.69784 0
M  V30 1760 H 183.828 -0.0971485 -6.00021 0
M  V30 1761 H 184.898 -0.811711 -4.78058 0
M  V30 1762 N 186.241 1.57166 -0.116904 0
M  V30 1763 C 187.481 1.97008 0.544715 0
M  V30 1764 C 187.845 0.998713 1.63981 0
M  V30 1765 O 189.046 1.28644 2.36018 0
M  V30 1766 C 187.317 3.41145 1.06559 0
M  V30 1767 S 188.876 4.02998 1.73603 0
M  V30 1768 H 185.694 0.688587 0.177112 0
M  V30 1769 H 188.296 1.94459 -0.201487 0
M  V30 1770 H 187 4.09592 0.257374 0
M  V30 1771 H 186.531 3.4734 1.84712 0
M  V30 1772 H 188.546 3.93585 3.02168 0
M  V30 1773 N 187.719 -0.156864 1.56817 0
M  V30 1774 C 188.682 -1.17781 1.96622 0
M  V30 1775 C 189.682 -1.36401 0.851555 0
M  V30 1776 O 190.872 -1.33561 1.11836 0
M  V30 1777 C 188.004 -2.54008 2.27361 0
M  V30 1778 H 189.197 -0.836564 2.87996 0
M  V30 1779 H 186.75 -0.39985 1.51099 0
M  V30 1780 H 187.485 -2.9312 1.38748 0
M  V30 1781 H 187.27 -2.41856 3.08623 0
M  V30 1782 H 188.76 -3.27558 2.59029 0
M  V30 1783 N 189.197 -1.51736 -0.425897 0
M  V30 1784 C 190.446 -1.64201 -1.17136 0
M  V30 1785 C 190.759 -0.369705 -1.92074 0
M  V30 1786 O 191.965 -0.373898 -2.68913 0
M  V30 1787 C 190.421 -2.90035 -2.13091 0
M  V30 1788 C 190.029 -4.24312 -1.43747 0
M  V30 1789 C 191.773 -3.1186 -2.87999 0
M  V30 1790 C 189.68 -5.41285 -2.38253 0
M  V30 1791 H 188.61 -0.611624 -0.440944 0
M  V30 1792 H 191.261 -1.78212 -0.437328 0
M  V30 1793 H 189.643 -2.69684 -2.89977 0
M  V30 1794 H 190.817 -4.55086 -0.723408 0
M  V30 1795 H 189.132 -4.08456 -0.809465 0
M  V30 1796 H 191.729 -3.96427 -3.58817 0
M  V30 1797 H 192.072 -2.25403 -3.49999 0
M  V30 1798 H 192.605 -3.32605 -2.18217 0
M  V30 1799 H 189.344 -6.30037 -1.80925 0
M  V30 1800 H 188.864 -5.14872 -3.0768 0
M  V30 1801 H 190.543 -5.73694 -2.99139 0
M  V30 1802 N 190.675 0.682077 -1.42076 0
M  V30 1803 C 191.9 1.47558 -1.45744 0
M  V30 1804 C 192.325 1.87977 -0.0680981 0
M  V30 1805 O 191.683 1.55522 0.9318 0
M  V30 1806 C 191.731 2.70575 -2.38373 0
M  V30 1807 O 190.835 3.68573 -1.85007 0
M  V30 1808 H 190.176 0.443585 -0.494093 0
M  V30 1809 H 192.706 0.837238 -1.86686 0
M  V30 1810 H 192.716 3.18729 -2.54707 0
M  V30 1811 H 191.391 2.40495 -3.39315 0
M  V30 1812 H 189.968 3.2757 -1.78192 0
M  V30 1813 N 192.153 1.28127 0.917671 0
M  V30 1814 C 193.399 1.15223 1.66888 0
M  V30 1815 C 193.732 -0.299293 1.9188 0
M  V30 1816 O 193.007 -1.21805 1.51637 0
M  V30 1817 C 193.29 1.94706 3.02922 0
M  V30 1818 C 193.143 3.47898 2.85109 0
M  V30 1819 C 194.462 1.75939 4.03402 0
M  V30 1820 H 191.581 0.419946 0.605652 0
M  V30 1821 H 194.223 1.57398 1.06423 0
M  V30 1822 H 192.373 1.58864 3.54534 0
M  V30 1823 H 194.045 3.93624 2.40537 0
M  V30 1824 H 192.288 3.7373 2.20246 0
M  V30 1825 H 192.959 3.98765 3.81694 0
M  V30 1826 H 195.435 2.07209 3.60837 0
M  V30 1827 H 194.311 2.33931 4.96556 0
M  V30 1828 H 194.572 0.709877 4.36364 0
M  V30 1829 N 193.631 -1.12557 1.10312 0
M  V30 1830 C 194.908 -1.80363 0.756878 0
M  V30 1831 C 195.288 -1.97067 -0.756824 0
M  V30 1832 O 194.636 -1.54601 -1.68259 0
M  V30 1833 C 194.846 -3.14812 1.50647 0
M  V30 1834 C 196.194 -3.90029 1.67817 0
M  V30 1835 O 197.218 -3.24464 1.46974 0
M  V30 1836 O 196.077 -5.07652 2.02365 0
M  V30 1837 H 193.171 -0.780667 0.272926 0
M  V30 1838 H 195.717 -1.19404 1.20586 0
M  V30 1839 H 194.489 -2.97936 2.53672 0
M  V30 1840 H 194.112 -3.83478 1.05026 0
M  V30 1841 N 195.109 -0.891671 -1.2995 0
M  V30 1842 C 196.525 -0.58662 -1.48428 0
M  V30 1843 C 196.725 0.873951 -1.81561 0
M  V30 1844 O 195.781 1.65471 -1.90724 0
M  V30 1845 C 197.094 -1.50553 -2.60296 0
M  V30 1846 C 198.642 -1.50988 -2.74175 0
M  V30 1847 C 199.117 -2.41488 -3.89163 0
M  V30 1848 N 200.608 -2.39489 -3.96483 0
M  V30 1849 C 201.343 -3.06223 -4.84784 0
M  V30 1850 N 200.839 -3.82206 -5.77833 0
M  V30 1851 N 202.632 -2.95421 -4.78208 0
M  V30 1852 H 194.783 -1.83644 -1.06718 0
M  V30 1853 H 197.046 -0.786455 -0.529332 0
M  V30 1854 H 196.752 -2.54581 -2.42654 0
M  V30 1855 H 196.626 -1.22008 -3.56923 0
M  V30 1856 H 199.013 -0.47708 -2.91218 0
M  V30 1857 H 199.094 -1.83567 -1.78148 0
M  V30 1858 H 198.738 -3.44857 -3.72876 0
M  V30 1859 H 198.668 -2.06222 -4.84541 0
M  V30 1860 H 201.159 -1.84278 -3.29924 0
M  V30 1861 H 201.472 -4.302 -6.41988 0
M  V30 1862 H 199.817 -3.86313 -5.77743 0
M  V30 1863 H 203.008 -2.35581 -4.04499 0
M  V30 1864 H 203.181 -3.47704 -5.46814 0
M  V30 1865 N 196.587 1.43421 -0.653314 0
M  V30 1866 C 197.834 2.01812 -0.166745 0
M  V30 1867 C 198.162 1.51535 1.21931 0
M  V30 1868 O 197.417 0.698975 1.82792 0
M  V30 1869 C 197.716 3.57176 -0.126623 0
M  V30 1870 C 197.382 4.26798 -1.45444 0
M  V30 1871 C 196.044 4.45534 -1.81805 0
M  V30 1872 C 198.396 4.66225 -2.32989 0
M  V30 1873 C 195.724 5.00961 -3.05377 0
M  V30 1874 C 198.076 5.23021 -3.55853 0
M  V30 1875 C 196.74 5.39973 -3.9241 0
M  V30 1876 H 196.01 0.738484 -0.0610162 0
M  V30 1877 H 198.657 1.71896 -0.84404 0
M  V30 1878 H 196.962 3.86634 0.634123 0
M  V30 1879 H 198.659 4.00112 0.266723 0
M  V30 1880 H 195.249 4.12561 -1.16153 0
M  V30 1881 H 199.433 4.51443 -2.06187 0
M  V30 1882 H 194.689 5.12271 -3.3375 0
M  V30 1883 H 198.863 5.52518 -4.23907 0
M  V30 1884 H 196.49 5.82687 -4.88242 0
M  V30 1885 N 198.065 0.39524 1.52563 0
M  V30 1886 C 199.311 -0.185318 2.01952 0
M  V30 1887 C 199.644 -1.45964 1.28095 0
M  V30 1888 O 198.919 -1.90689 0.38315 0
M  V30 1889 C 199.202 -0.447193 3.57312 0
M  V30 1890 C 199.055 0.842828 4.41833 0
M  V30 1891 C 200.374 -1.23529 4.22408 0
M  V30 1892 H 197.493 -0.0658788 0.73405 0
M  V30 1893 H 200.135 0.525975 1.82575 0
M  V30 1894 H 198.285 -1.05312 3.73954 0
M  V30 1895 H 199.957 1.4795 4.36931 0
M  V30 1896 H 198.2 1.45686 4.08605 0
M  V30 1897 H 198.871 0.614165 5.48573 0
M  V30 1898 H 201.347 -0.722445 4.0978 0
M  V30 1899 H 200.223 -1.38727 5.3108 0
M  V30 1900 H 200.484 -2.25213 3.80436 0
M  V30 1901 N 199.544 -1.57102 0.125237 0
M  V30 1902 C 200.507 -2.14471 -0.80838 0
M  V30 1903 C 201.507 -1.0811 -1.19033 0
M  V30 1904 O 202.697 -1.33856 -1.11482 0
M  V30 1905 C 199.829 -2.69005 -2.09402 0
M  V30 1906 H 201.022 -2.98297 -0.309696 0
M  V30 1907 H 198.575 -1.55807 -0.124051 0
M  V30 1908 H 199.31 -1.88785 -2.63687 0
M  V30 1909 H 199.095 -3.46799 -1.82957 0
M  V30 1910 H 200.585 -3.13278 -2.76128 0
M  V30 1911 N 201.022 0.148545 -1.56898 0
M  V30 1912 C 202.268 0.862694 -1.83536 0
M  V30 1913 C 202.601 1.80889 -0.706604 0
M  V30 1914 O 201.876 1.92328 0.289885 0
M  V30 1915 C 202.159 1.63853 -3.20662 0
M  V30 1916 C 202.012 0.713925 -4.44098 0
M  V30 1917 C 203.331 2.60133 -3.54991 0
M  V30 1918 H 200.45 0.312179 -0.667618 0
M  V30 1919 H 203.092 0.127953 -1.89569 0
M  V30 1920 H 201.242 2.26489 -3.1565 0
M  V30 1921 H 202.914 0.098686 -4.61194 0
M  V30 1922 H 201.157 0.0234019 -4.33794 0
M  V30 1923 H 201.828 1.29278 -5.36648 0
M  V30 1924 H 204.304 2.07616 -3.60603 0
M  V30 1925 H 203.18 3.11468 -4.51972 0
M  V30 1926 H 203.441 3.41417 -2.80868 0
M  V30 1927 N 202.5 1.5196 0.417844 0
M  V30 1928 C 203.463 1.74065 1.49111 0
M  V30 1929 C 204.463 0.610537 1.48758 0
M  V30 1930 O 205.653 0.87832 1.50437 0
M  V30 1931 C 202.785 1.81502 2.88565 0
M  V30 1932 H 203.978 2.69869 1.30807 0
M  V30 1933 H 201.531 1.42244 0.647785 0
M  V30 1934 H 202.266 0.875813 3.1225 0
M  V30 1935 H 202.051 2.63651 2.90225 0
M  V30 1936 H 203.541 2.00376 3.66387 0
M  V30 1937 N 203.978 -0.674533 1.42435 0
M  V30 1938 C 205.224 -1.43671 1.43131 0
M  V30 1939 C 205.557 -1.94142 0.0476021 0
M  V30 1940 O 204.832 -1.70924 -0.928188 0
M  V30 1941 C 205.115 -2.63355 2.45594 0
M  V30 1942 C 204.968 -2.18514 3.93156 0
M  V30 1943 C 206.287 -3.65571 2.45043 0
M  V30 1944 H 203.406 -0.521077 0.521198 0
M  V30 1945 H 206.048 -0.766551 1.7385 0
M  V30 1946 H 204.198 -3.2053 2.19528 0
M  V30 1947 H 205.87 -1.66504 4.30202 0
M  V30 1948 H 204.113 -1.50086 4.07009 0
M  V30 1949 H 204.784 -3.04484 4.60428 0
M  V30 1950 H 207.26 -3.18113 2.68223 0
M  V30 1951 H 206.136 -4.46893 3.18713 0
M  V30 1952 H 206.397 -4.16716 1.47649 0
M  V30 1953 N 205.456 -1.28612 -0.910864 0
M  V30 1954 C 206.867 -1.14406 -1.47541 0
M  V30 1955 C 207.218 0.264901 -1.94403 0
M  V30 1956 O 206.343 1.15942 -1.82719 0
M  V30 1957 C 206.938 -2.07073 -2.68153 0
M  V30 1958 C 205.497 -1.96923 -3.20778 0
M  V30 1959 C 204.644 -1.98646 -1.93481 0
M  V30 1960 H 207.595 -1.41259 -0.723291 0
M  V30 1961 H 207.616 -1.63642 -3.43514 0
M  V30 1962 H 207.128 -3.09611 -2.34015 0
M  V30 1963 H 205.229 -0.97433 -3.59635 0
M  V30 1964 H 205.342 -2.84026 -3.85832 0
M  V30 1965 H 203.706 -1.43093 -2.10705 0
M  V30 1966 H 204.489 -3.02868 -1.61634 0
M  V30 1967 N 206.934 1.1197 -1.10907 0
M  V30 1968 C 207.864 2.19928 -0.784473 0
M  V30 1969 C 208.845 1.6833 0.244726 0
M  V30 1970 O 210.03 1.93892 0.109418 0
M  V30 1971 C 207.16 3.46597 -0.220827 0
M  V30 1972 C 206.114 4.11376 -1.18127 0
M  V30 1973 C 205.44 5.32554 -0.478594 0
M  V30 1974 C 206.74 4.56945 -2.52979 0
M  V30 1975 H 208.434 2.47337 -1.68715 0
M  V30 1976 H 205.98 1.18879 -0.812642 0
M  V30 1977 H 207.933 4.21396 0.0184278 0
M  V30 1978 H 206.657 3.1863 0.717113 0
M  V30 1979 H 205.316 3.38564 -1.40606 0
M  V30 1980 H 204.964 5.00856 0.463976 0
M  V30 1981 H 204.664 5.76844 -1.11912 0
M  V30 1982 H 206.188 6.10096 -0.248 0
M  V30 1983 H 207.602 5.23093 -2.3462 0
M  V30 1984 H 205.999 5.1203 -3.12962 0
M  V30 1985 H 207.069 3.70676 -3.12614 0
M  V30 1986 N 208.412 0.89855 1.29475 0
M  V30 1987 C 209.828 0.594483 1.48115 0
M  V30 1988 C 210.028 -0.86431 1.82022 0
M  V30 1989 O 209.084 -1.64457 1.91599 0
M  V30 1990 C 210.397 1.51932 2.59494 0
M  V30 1991 C 211.945 1.5244 2.7337 0
M  V30 1992 C 212.42 2.43548 3.87877 0
M  V30 1993 N 213.911 2.41589 3.95208 0
M  V30 1994 C 214.646 3.08789 4.83153 0
M  V30 1995 N 214.142 3.85265 5.75798 0
M  V30 1996 N 215.935 2.97952 4.76635 0
M  V30 1997 H 208.086 1.84207 1.05742 0
M  V30 1998 H 210.349 0.789251 0.525154 0
M  V30 1999 H 210.055 2.55865 2.41301 0
M  V30 2000 H 209.929 1.23899 3.56271 0
M  V30 2001 H 212.316 0.492518 2.90961 0
M  V30 2002 H 212.397 1.8451 1.77172 0
M  V30 2003 H 212.041 3.46829 3.71041 0
M  V30 2004 H 211.971 2.08788 4.83441 0
M  V30 2005 H 214.462 1.86025 3.28943 0
M  V30 2006 H 214.775 4.33598 6.39697 0
M  V30 2007 H 213.12 3.89371 5.75687 0
M  V30 2008 H 216.311 2.37723 4.03244 0
M  V30 2009 H 216.484 3.50599 5.44962 0
M  V30 2010 N 209.89 -1.43072 0.660911 0
M  V30 2011 C 211.12 -2.05769 0.185153 0
M  V30 2012 C 211.528 -1.49668 -1.15742 0
M  V30 2013 O 210.871 -0.625649 -1.72717 0
M  V30 2014 C 210.933 -3.59489 0.0278237 0
M  V30 2015 C 210.597 -4.38212 1.2969 0
M  V30 2016 C 211.594 -4.69772 2.22734 0
M  V30 2017 C 209.279 -4.7809 1.54063 0
M  V30 2018 C 211.273 -5.40129 3.38437 0
M  V30 2019 C 208.96 -5.4819 2.70058 0
M  V30 2020 C 209.958 -5.79132 3.62071 0
M  V30 2021 O 209.646 -6.47798 4.76039 0
M  V30 2022 H 209.378 -0.669873 0.0908086 0
M  V30 2023 H 211.932 -1.84436 0.90402 0
M  V30 2024 H 210.162 -3.79426 -0.746489 0
M  V30 2025 H 211.851 -4.03862 -0.406275 0
M  V30 2026 H 212.617 -4.39476 2.05149 0
M  V30 2027 H 208.496 -4.53408 0.833215 0
M  V30 2028 H 212.04 -5.64198 4.10277 0
M  V30 2029 H 207.937 -5.77902 2.87574 0
M  V30 2030 H 208.705 -6.66283 4.75404 0
M  V30 2031 N 211.368 -0.403325 -1.52352 0
M  V30 2032 C 212.316 0.439752 -2.28405 0
M  V30 2033 C 213.31 1.05089 -1.32863 0
M  V30 2034 O 214.516 0.989759 -1.50345 0
M  V30 2035 H 210.891 0.160587 -0.734653 0
M  V30 2036 H 212.862 -0.222983 -2.97566 0
M  V30 2037 C 211.611 1.54736 -3.11371 0
M  V30 2038 H 210.934 1.08643 -3.84755 0
M  V30 2039 H 212.374 2.1112 -3.67701 0
M  V30 2040 C 210.833 2.51141 -2.24566 0
M  V30 2041 O 211.363 3.54887 -1.88196 0
M  V30 2042 N 209.569 2.21213 -1.8845 0
M  V30 2043 H 209.116 1.36878 -2.18225 0
M  V30 2044 H 209.074 2.85963 -1.30662 0
M  V30 2045 N 212.846 1.57033 -0.133567 0
M  V30 2046 C 214.262 1.58035 0.222944 0
M  V30 2047 C 214.462 1.14713 1.6566 0
M  V30 2048 O 213.518 0.841218 2.38075 0
M  V30 2049 C 214.831 3.00691 -0.0236116 0
M  V30 2050 C 216.379 3.12973 0.0411512 0
M  V30 2051 C 216.854 4.57654 -0.177899 0
M  V30 2052 N 218.345 4.63033 -0.124365 0
M  V30 2053 C 219.08 5.72771 -0.268553 0
M  V30 2054 N 218.576 6.91206 -0.46972 0
M  V30 2055 N 220.369 5.61718 -0.2071 0
M  V30 2056 H 212.52 1.8349 -1.06981 0
M  V30 2057 H 214.783 0.848677 -0.422436 0
M  V30 2058 H 214.489 3.36726 -1.0153 0
M  V30 2059 H 214.363 3.70614 0.701808 0
M  V30 2060 H 216.75 2.76787 1.02338 0
M  V30 2061 H 216.831 2.45564 -0.716383 0
M  V30 2062 H 216.475 4.94542 -1.15717 0
M  V30 2063 H 216.405 5.23173 0.599797 0
M  V30 2064 H 218.896 3.7789 0.027011 0
M  V30 2065 H 219.209 7.70693 -0.570212 0
M  V30 2066 H 217.554 6.93156 -0.505876 0
M  V30 2067 H 220.745 4.68072 -0.0507986 0
M  V30 2068 H 220.918 6.47195 -0.322909 0
M  V30 2069 N 214.325 -0.140222 1.56975 0
M  V30 2070 C 215.257 -1.19818 1.95388 0
M  V30 2071 C 216.27 -1.38816 0.850525 0
M  V30 2072 O 217.459 -1.38267 1.12891 0
M  V30 2073 C 214.559 -2.56189 2.21857 0
M  V30 2074 C 213.732 -2.58077 3.5315 0
M  V30 2075 C 212.791 -3.76037 3.6808 0
M  V30 2076 O 211.817 -3.60598 4.40406 0
M  V30 2077 N 213.019 -4.93763 3.05251 0
M  V30 2078 H 215.784 -0.871609 2.86746 0
M  V30 2079 H 213.345 -0.32972 1.58507 0
M  V30 2080 H 215.337 -3.33623 2.2908 0
M  V30 2081 H 213.907 -2.81111 1.36731 0
M  V30 2082 H 213.127 -1.6651 3.57307 0
M  V30 2083 H 214.415 -2.56377 4.39486 0
M  V30 2084 H 213.813 -5.09209 2.46419 0
M  V30 2085 H 212.37 -5.68949 3.18026 0
M  V30 2086 N 215.803 -1.52179 -0.40978 0
M  V30 2087 C 217.051 -1.65878 -1.15451 0
M  V30 2088 C 217.372 -0.390771 -1.91044 0
M  V30 2089 O 216.642 0.594323 -1.86667 0
M  V30 2090 H 215.222 -0.611405 -0.429177 0
M  V30 2091 H 217.884 -1.89219 -0.467134 0
M  V30 2092 H 216.98 -2.49954 -1.86894 0
M  V30 2093 N 217.281 0.66697 -1.42791 0
M  V30 2094 C 218.529 1.42417 -1.43394 0
M  V30 2095 C 218.85 1.94925 -0.0542373 0
M  V30 2096 O 218.12 1.73564 0.908415 0
M  V30 2097 H 216.7 0.528515 -0.527902 0
M  V30 2098 H 219.362 0.787562 -1.78279 0
M  V30 2099 H 218.458 2.27333 -2.13837 0
M  V30 2100 N 218.759 1.29093 0.90403 0
M  V30 2101 C 219.984 1.19809 1.69294 0
M  V30 2102 C 220.409 -0.238481 1.86582 0
M  V30 2103 O 219.767 -1.1723 1.383 0
M  V30 2104 C 219.815 1.91202 3.05736 0
M  V30 2105 O 218.919 1.22611 3.93752 0
M  V30 2106 H 218.26 0.415385 0.518027 0
M  V30 2107 H 220.79 1.70586 1.12967 0
M  V30 2108 H 220.8 1.99487 3.55906 0
M  V30 2109 H 219.475 2.95692 2.92471 0
M  V30 2110 H 218.052 1.22554 3.52186 0
M  V30 2111 N 220.237 -1.11381 1.11499 0
M  V30 2112 C 221.653 -1.35143 0.849031 0
M  V30 2113 C 221.853 -1.94515 -0.525938 0
M  V30 2114 O 220.909 -2.1785 -1.27662 0
M  V30 2115 C 222.222 -2.28249 1.95762 0
M  V30 2116 C 223.77 -2.41812 1.98736 0
M  V30 2117 C 224.245 -3.3824 3.088 0
M  V30 2118 N 225.736 -3.45803 3.08179 0
M  V30 2119 C 226.471 -4.20358 3.89982 0
M  V30 2120 N 225.967 -4.97884 4.8175 0
M  V30 2121 N 227.76 -4.15877 3.78157 0
M  V30 2122 H 219.911 -0.712062 2.00109 0
M  V30 2123 H 222.174 -0.376025 0.870235 0
M  V30 2124 H 221.88 -1.91817 2.94787 0
M  V30 2125 H 221.754 -3.28473 1.85433 0
M  V30 2126 H 224.141 -2.77518 1.00338 0
M  V30 2127 H 224.222 -1.41437 2.13141 0
M  V30 2128 H 223.866 -3.03261 4.07425 0
M  V30 2129 H 223.796 -4.38471 2.91635 0
M  V30 2130 H 226.287 -2.90506 2.41691 0
M  V30 2131 H 226.6 -5.52142 5.40702 0
M  V30 2132 H 224.945 -4.97043 4.85771 0
M  V30 2133 H 228.136 -3.544 3.05808 0
M  V30 2134 H 228.309 -4.73723 4.42143 0
M  V30 2135 N 221.715 -0.905404 -1.28997 0
M  V30 2136 C 223.131 -0.60233 -1.47798 0
M  V30 2137 C 223.331 0.854645 -1.82478 0
M  V30 2138 O 222.387 1.63439 -1.92468 0
M  V30 2139 C 223.7 -1.53306 -2.58685 0
M  V30 2140 C 225.248 -1.53887 -2.72558 0
M  V30 2141 C 225.723 -2.45602 -3.86579 0
M  V30 2142 N 227.214 -2.43681 -3.93921 0
M  V30 2143 C 227.949 -3.11347 -4.81509 0
M  V30 2144 N 227.445 -3.88313 -5.73746 0
M  V30 2145 N 229.238 -3.00476 -4.75048 0
M  V30 2146 H 221.389 -1.84765 -1.04764 0
M  V30 2147 H 223.652 -0.792025 -0.520961 0
M  V30 2148 H 223.358 -2.57141 -2.39941 0
M  V30 2149 H 223.232 -1.25787 -3.55609 0
M  V30 2150 H 225.619 -0.507941 -2.90696 0
M  V30 2151 H 225.7 -1.85447 -1.76191 0
M  V30 2152 H 225.344 -3.48792 -3.69197 0
M  V30 2153 H 225.274 -2.11349 -4.82327 0
M  V30 2154 H 227.765 -1.87767 -3.27951 0
M  V30 2155 H 228.078 -4.36985 -6.37389 0
M  V30 2156 H 226.423 -3.92419 -5.73614 0
M  V30 2157 H 229.614 -2.39858 -4.01977 0
M  V30 2158 H 229.787 -3.53485 -5.43095 0
M  V30 2159 N 223.193 1.4272 -0.668489 0
M  V30 2160 C 224.125 2.2914 0.052613 0
M  V30 2161 C 225.138 1.43339 0.771857 0
M  V30 2162 O 226.327 1.67123 0.627067 0
M  V30 2163 C 223.427 3.20618 1.09804 0
M  V30 2164 C 222.6 4.35039 0.45389 0
M  V30 2165 C 221.659 5.07282 1.39825 0
M  V30 2166 O 220.685 5.62024 0.900978 0
M  V30 2167 N 221.887 5.12206 2.73176 0
M  V30 2168 H 224.652 2.91668 -0.689209 0
M  V30 2169 H 222.213 1.53577 -0.512422 0
M  V30 2170 H 224.205 3.65815 1.73094 0
M  V30 2171 H 222.775 2.59585 1.74167 0
M  V30 2172 H 221.995 3.92567 -0.358396 0
M  V30 2173 H 223.283 5.088 0.00486972 0
M  V30 2174 H 222.681 4.6913 3.16122 0
M  V30 2175 H 221.238 5.61069 3.31729 0
M  V30 2176 N 224.671 0.411399 1.52136 0
M  V30 2177 C 225.601 -0.404015 2.29978 0
M  V30 2178 C 226.582 -1.04412 1.34284 0
M  V30 2179 O 227.767 -1.0527 1.63192 0
M  V30 2180 C 224.897 -1.5197 3.12286 0
M  V30 2181 C 223.851 -1.00448 4.16046 0
M  V30 2182 C 223.177 -2.21393 4.86712 0
M  V30 2183 C 224.477 -0.0569336 5.22269 0
M  V30 2184 H 226.171 0.245529 2.98392 0
M  V30 2185 H 223.717 0.119525 1.43503 0
M  V30 2186 H 225.67 -2.09715 3.6551 0
M  V30 2187 H 224.394 -2.19716 2.41646 0
M  V30 2188 H 223.053 -0.449421 3.63835 0
M  V30 2189 H 222.701 -2.87699 4.12599 0
M  V30 2190 H 222.401 -1.87571 5.56858 0
M  V30 2191 H 223.925 -2.7974 5.4275 0
M  V30 2192 H 225.339 -0.54325 5.7072 0
M  V30 2193 H 223.736 0.192594 5.99791 0
M  V30 2194 H 224.806 0.887663 4.76706 0
M  V30 2195 N 226.149 -1.5696 0.141893 0
M  V30 2196 C 227.079 -2.19516 -0.795936 0
M  V30 2197 C 228.06 -1.14187 -1.26077 0
M  V30 2198 O 229.245 -1.42511 -1.31925 0
M  V30 2199 C 226.375 -2.81272 -2.03723 0
M  V30 2200 C 225.329 -3.92384 -1.70936 0
M  V30 2201 C 224.655 -4.41052 -3.02287 0
M  V30 2202 C 225.955 -5.13403 -0.959954 0
M  V30 2203 H 227.649 -2.98138 -0.274596 0
M  V30 2204 H 225.195 -1.43406 -0.130636 0
M  V30 2205 H 227.148 -3.237 -2.69808 0
M  V30 2206 H 225.872 -1.99973 -2.58221 0
M  V30 2207 H 224.531 -3.50566 -1.07232 0
M  V30 2208 H 224.179 -3.56582 -3.54765 0
M  V30 2209 H 223.879 -5.15993 -2.81114 0
M  V30 2210 H 225.403 -4.86146 -3.69451 0
M  V30 2211 H 226.817 -5.52706 -1.52279 0
M  V30 2212 H 225.214 -5.94073 -0.848357 0
M  V30 2213 H 226.284 -4.84875 0.0492434 0
M  V30 2214 N 227.627 0.131896 -1.57047 0
M  V30 2215 C 228.557 1.16384 -2.02428 0
M  V30 2216 C 229.538 1.43936 -0.90644 0
M  V30 2217 O 230.723 1.54599 -1.17528 0
M  V30 2218 C 227.853 2.49328 -2.4177 0
M  V30 2219 C 226.807 2.36266 -3.56879 0
M  V30 2220 C 226.133 3.74057 -3.8208 0
M  V30 2221 C 227.433 1.834 -4.89042 0
M  V30 2222 H 229.127 0.786433 -2.88887 0
M  V30 2223 H 226.673 0.376855 -1.38981 0
M  V30 2224 H 228.626 3.21759 -2.7212 0
M  V30 2225 H 227.35 2.88934 -1.52266 0
M  V30 2226 H 226.009 1.66286 -3.26718 0
M  V30 2227 H 225.657 4.11125 -2.89803 0
M  V30 2228 H 225.357 3.66174 -4.59554 0
M  V30 2229 H 226.881 4.48012 -4.1487 0
M  V30 2230 H 228.295 2.45636 -5.18011 0
M  V30 2231 H 226.692 1.8637 -5.70426 0
M  V30 2232 H 227.762 0.790662 -4.7841 0
M  V30 2233 N 229.106 1.52395 0.401703 0
M  V30 2234 C 230.355 1.66044 1.14509 0
M  V30 2235 C 230.668 0.400216 1.91462 0
M  V30 2236 O 231.874 0.416632 2.68284 0
M  V30 2237 C 230.33 2.93388 2.0845 0
M  V30 2238 C 229.938 4.26545 1.36978 0
M  V30 2239 C 231.682 3.16402 2.83001 0
M  V30 2240 C 229.589 5.45007 2.29611 0
M  V30 2241 H 228.519 0.618562 0.431158 0
M  V30 2242 H 231.17 1.78886 0.40892 0
M  V30 2243 H 229.552 2.74263 2.8565 0
M  V30 2244 H 230.726 4.56179 0.650916 0
M  V30 2245 H 229.041 4.09692 0.74438 0
M  V30 2246 H 231.638 4.02085 3.52465 0
M  V30 2247 H 231.981 2.30943 3.46368 0
M  V30 2248 H 232.514 3.36034 2.12898 0
M  V30 2249 H 229.253 6.32835 1.70879 0
M  V30 2250 H 228.773 5.19702 2.9945 0
M  V30 2251 H 230.452 5.7838 2.89974 0
M  V30 2252 N 230.584 -0.659388 1.43143 0
M  V30 2253 C 231.832 -1.41654 1.44147 0
M  V30 2254 C 232.153 -1.94893 0.0645739 0
M  V30 2255 O 231.423 -1.74044 -0.899198 0
M  V30 2256 H 230.003 -0.525708 0.530697 0
M  V30 2257 H 232.665 -0.778097 1.78694 0
M  V30 2258 H 231.761 -2.26195 2.1504 0
M  V30 2259 N 232.062 -1.29571 -0.897171 0
M  V30 2260 C 233.025 -1.14913 -1.98312 0
M  V30 2261 C 234.025 -0.0838629 -1.60581 0
M  V30 2262 O 235.215 -0.331006 -1.71026 0
M  V30 2263 C 232.347 -0.757835 -3.3237 0
M  V30 2264 H 233.54 -2.11377 -2.12743 0
M  V30 2265 H 231.093 -1.12793 -1.08201 0
M  V30 2266 H 231.828 0.206837 -3.2364 0
M  V30 2267 H 231.613 -1.52755 -3.61121 0
M  V30 2268 H 233.103 -0.678408 -4.12053 0
M  V30 2269 N 233.54 1.10788 -1.12088 0
M  V30 2270 C 234.768 1.86461 -0.896651 0
M  V30 2271 C 235.183 1.80492 0.553912 0
M  V30 2272 O 234.54 1.19102 1.38278 0
M  V30 2273 C 234.591 3.35006 -1.35843 0
M  V30 2274 O 234.312 3.40866 -2.75213 0
M  V30 2275 C 235.813 4.27565 -1.1706 0
M  V30 2276 H 233.033 0.589425 -0.320654 0
M  V30 2277 H 235.577 1.40076 -1.48993 0
M  V30 2278 H 233.732 3.7887 -0.808458 0
M  V30 2279 H 234.146 4.33411 -2.9539 0
M  V30 2280 H 235.62 5.30007 -1.54263 0
M  V30 2281 H 236.097 4.3906 -0.110814 0
M  V30 2282 H 236.703 3.89501 -1.70789 0
M  V30 2283 N 235.018 0.912232 1.28515 0
M  V30 2284 C 236.264 0.554851 1.95686 0
M  V30 2285 C 236.619 -0.89138 1.70506 0
M  V30 2286 O 235.912 -1.62529 1.01464 0
M  V30 2287 C 236.106 0.798392 3.48368 0
M  V30 2288 C 235.935 2.26674 3.88393 0
M  V30 2289 C 234.705 2.91657 4.12631 0
M  V30 2290 C 236.903 3.24303 3.99164 0
M  V30 2291 N 234.885 4.28805 4.39317 0
M  V30 2292 C 236.256 4.4661 4.30046 0
M  V30 2293 C 238.311 3.19723 3.81683 0
M  V30 2294 C 237.014 5.64915 4.45268 0
M  V30 2295 C 239.04 4.37325 3.98121 0
M  V30 2296 C 238.402 5.58406 4.29375 0
M  V30 2297 H 234.501 0.252876 0.739985 0
M  V30 2298 H 237.085 1.17565 1.55199 0
M  V30 2299 H 235.256 0.20688 3.87849 0
M  V30 2300 H 236.988 0.405193 4.02666 0
M  V30 2301 H 233.743 2.42393 4.06869 0
M  V30 2302 H 234.167 4.99712 4.56746 0
M  V30 2303 H 238.809 2.27191 3.56573 0
M  V30 2304 H 236.527 6.57927 4.6921 0
M  V30 2305 H 240.113 4.35282 3.86033 0
M  V30 2306 H 238.993 6.47889 4.41825 0
M  V30 2307 N 236.496 -1.42363 0.676048 0
M  V30 2308 C 237.426 -2.33497 0.0124832 0
M  V30 2309 C 238.407 -1.50748 -0.787981 0
M  V30 2310 O 239.592 -1.79346 -0.744884 0
M  V30 2311 C 236.722 -3.34377 -0.938582 0
M  V30 2312 C 235.676 -4.27289 -0.246622 0
M  V30 2313 C 235.002 -5.18386 -1.31071 0
M  V30 2314 C 236.302 -5.14916 0.875125 0
M  V30 2315 H 237.996 -2.89233 0.773593 0
M  V30 2316 H 235.542 -1.39073 0.37346 0
M  V30 2317 H 237.495 -3.97044 -1.41188 0
M  V30 2318 H 236.219 -2.76947 -1.73113 0
M  V30 2319 H 234.878 -3.66018 0.206456 0
M  V30 2320 H 234.526 -4.57282 -2.09528 0
M  V30 2321 H 234.226 -5.81378 -0.852839 0
M  V30 2322 H 235.75 -5.83929 -1.78492 0
M  V30 2323 H 237.164 -5.71262 0.482983 0
M  V30 2324 H 235.561 -5.86747 1.25887 0
M  V30 2325 H 236.631 -4.53242 1.72335 0
M  V30 2326 N 237.974 -0.419461 -1.51915 0
M  V30 2327 C 238.904 0.391813 -2.30189 0
M  V30 2328 C 239.885 1.03699 -1.34836 0
M  V30 2329 O 241.07 1.04403 -1.63748 0
M  V30 2330 C 238.2 1.50312 -3.13087 0
M  V30 2331 C 237.154 0.9824 -4.16573 0
M  V30 2332 C 236.48 2.18809 -4.8788 0
M  V30 2333 C 237.78 0.0292356 -5.22292 0
M  V30 2334 H 239.474 -0.26135 -2.98257 0
M  V30 2335 H 237.02 -0.127134 -1.43438 0
M  V30 2336 H 238.973 2.07773 -3.66617 0
M  V30 2337 H 237.697 2.18431 -2.42807 0
M  V30 2338 H 236.356 0.430119 -3.64068 0
M  V30 2339 H 236.004 2.85507 -4.14119 0
M  V30 2340 H 235.704 1.84615 -5.57845 0
M  V30 2341 H 237.228 2.76858 -5.44226 0
M  V30 2342 H 238.642 0.512976 -5.71 0
M  V30 2343 H 237.039 -0.2244 -5.9968 0
M  V30 2344 H 238.109 -0.912931 -4.76228 0
M  V30 2345 N 239.452 1.56882 -0.150215 0
M  V30 2346 C 240.677 2.01027 0.510184 0
M  V30 2347 C 241.102 1.02966 1.57415 0
M  V30 2348 O 240.46 0.00590158 1.81299 0
M  V30 2349 C 240.508 3.43899 1.08472 0
M  V30 2350 O 239.612 3.4885 2.19948 0
M  V30 2351 H 238.953 0.652233 0.124451 0
M  V30 2352 H 241.483 2.03093 -0.247894 0
M  V30 2353 H 241.493 3.82766 1.41259 0
M  V30 2354 H 240.168 4.14776 0.305582 0
M  V30 2355 H 238.745 3.21827 1.88366 0
M  V30 2356 N 240.93 -0.123565 1.57115 0
M  V30 2357 C 241.893 -1.13583 1.99076 0
M  V30 2358 C 242.893 -1.34564 0.880296 0
M  V30 2359 O 244.083 -1.31158 1.14644 0
M  V30 2360 C 241.215 -2.49128 2.32698 0
M  V30 2361 H 242.408 -0.775287 2.89706 0
M  V30 2362 H 239.961 -0.36771 1.51913 0
M  V30 2363 H 240.696 -2.90111 1.44934 0
M  V30 2364 H 240.481 -2.35255 3.13684 0
M  V30 2365 H 241.971 -3.2199 2.65918 0
M  V30 2366 N 242.408 -1.52605 -0.393616 0
M  V30 2367 C 243.371 -1.76415 -1.46323 0
M  V30 2368 C 244.371 -0.634126 -1.47768 0
M  V30 2369 O 245.561 -0.902142 -1.4902 0
M  V30 2370 C 242.693 -1.8607 -2.85641 0
M  V30 2371 H 243.886 -2.71916 -1.26498 0
M  V30 2372 H 241.439 -1.43257 -0.625073 0
M  V30 2373 H 242.174 -0.925378 -3.10817 0
M  V30 2374 H 241.959 -2.68235 -2.85993 0
M  V30 2375 H 243.449 -2.06179 -3.63153 0
M  V30 2376 N 243.887 0.651787 -1.4349 0
M  V30 2377 C 245.133 1.41376 -1.45398 0
M  V30 2378 C 245.466 1.94041 -0.0784823 0
M  V30 2379 O 244.741 1.72379 0.900878 0
M  V30 2380 C 245.024 2.59414 -2.49752 0
M  V30 2381 C 244.877 2.12232 -3.96582 0
M  V30 2382 C 246.196 3.61626 -2.50827 0
M  V30 2383 H 243.315 0.512719 -0.529422 0
M  V30 2384 H 245.957 0.738796 -1.75048 0
M  V30 2385 H 244.107 3.16997 -2.246 0
M  V30 2386 H 245.779 1.59639 -4.32797 0
M  V30 2387 H 244.022 1.43592 -4.09346 0
M  V30 2388 H 244.693 2.9712 -4.65214 0
M  V30 2389 H 247.169 3.13805 -2.7325 0
M  V30 2390 H 246.045 4.41766 -3.25783 0
M  V30 2391 H 246.306 4.14314 -1.5426 0
M  V30 2392 N 245.365 1.30045 0.890287 0
M  V30 2393 C 246.328 1.15963 1.977 0
M  V30 2394 C 247.328 0.0923777 1.60534 0
M  V30 2395 O 248.518 0.340071 1.70848 0
M  V30 2396 C 245.65 0.775451 3.31963 0
M  V30 2397 H 246.843 2.12502 2.11619 0
M  V30 2398 H 244.396 1.13366 1.07601 0
M  V30 2399 H 245.131 -0.189671 3.23745 0
M  V30 2400 H 244.916 1.54668 3.60306 0
M  V30 2401 H 246.406 0.700251 4.11687 0
M  V30 2402 N 246.843 -1.10192 1.12674 0
M  V30 2403 C 247.806 -2.14786 0.799979 0
M  V30 2404 C 248.806 -1.59711 -0.18685 0
M  V30 2405 O 249.996 -1.74156 0.0392558 0
M  V30 2406 C 247.128 -3.40374 0.189228 0
M  V30 2407 H 248.321 -2.45203 1.72671 0
M  V30 2408 H 245.874 -1.25597 0.930326 0
M  V30 2409 H 246.609 -3.15577 -0.747107 0
M  V30 2410 H 246.394 -3.81637 0.899766 0
M  V30 2411 H 247.884 -4.17594 -0.0228143 0
M  V30 2412 N 248.321 -0.919034 -1.28029 0
M  V30 2413 C 249.732 -0.600735 -1.76771 0
M  V30 2414 C 250.083 0.884024 -1.75156 0
M  V30 2415 O 249.208 1.69163 -1.34956 0
M  V30 2416 C 249.803 -1.08372 -3.21 0
M  V30 2417 C 248.362 -0.816248 -3.67443 0
M  V30 2418 C 247.509 -1.24742 -2.47658 0
M  V30 2419 H 250.46 -1.09974 -1.14418 0
M  V30 2420 H 250.481 -0.427512 -3.78091 0
M  V30 2421 H 249.993 -2.16437 -3.22144 0
M  V30 2422 H 248.094 0.250968 -3.71754 0
M  V30 2423 H 248.207 -1.4277 -4.57333 0
M  V30 2424 H 246.571 -0.666083 -2.45836 0
M  V30 2425 H 247.354 -2.33653 -2.51518 0
M  V30 2426 N 249.799 1.42003 -0.683588 0
M  V30 2427 C 251.045 2.01712 -0.209825 0
M  V30 2428 C 251.378 1.53968 1.18353 0
M  V30 2429 O 250.653 0.745661 1.79639 0
M  V30 2430 C 250.936 3.59202 -0.254197 0
M  V30 2431 C 250.789 4.17102 -1.68363 0
M  V30 2432 C 252.108 4.38344 0.392709 0
M  V30 2433 H 249.227 0.732891 -0.0777189 0
M  V30 2434 H 251.869 1.68909 -0.87004 0
M  V30 2435 H 250.019 3.87278 0.307954 0
M  V30 2436 H 251.691 3.99946 -2.29871 0
M  V30 2437 H 249.934 3.72597 -2.22157 0
M  V30 2438 H 250.605 5.26249 -1.6663 0
M  V30 2439 H 253.081 4.16011 -0.0859162 0
M  V30 2440 H 251.957 5.47901 0.331063 0
M  V30 2441 H 252.218 4.16887 1.47164 0
M  V30 2442 N 251.277 0.427512 1.51691 0
M  V30 2443 C 252.207 -0.3796 2.30394 0
M  V30 2444 C 253.188 -1.02982 1.35384 0
M  V30 2445 O 254.373 -1.03534 1.643 0
M  V30 2446 C 251.503 -1.48649 3.1388 0
M  V30 2447 C 250.457 -0.960294 4.17088 0
M  V30 2448 C 249.783 -2.16219 4.89033 0
M  V30 2449 C 251.083 -0.00153679 5.223 0
M  V30 2450 H 252.777 0.277164 2.98114 0
M  V30 2451 H 250.323 0.134739 1.43368 0
M  V30 2452 H 252.276 -2.05826 3.67714 0
M  V30 2453 H 251 -2.1714 2.43962 0
M  V30 2454 H 249.659 -0.410806 3.64291 0
M  V30 2455 H 249.307 -2.83307 4.15628 0
M  V30 2456 H 249.007 -1.81654 5.58816 0
M  V30 2457 H 250.531 -2.73968 5.45687 0
M  V30 2458 H 251.945 -0.482687 5.71264 0
M  V30 2459 H 250.342 0.256199 5.99553 0
M  V30 2460 H 251.412 0.938174 4.75738 0
M  V30 2461 N 252.755 -1.56801 0.158532 0
M  V30 2462 C 253.995 -1.98383 -0.49229 0
M  V30 2463 C 254.359 -1.04184 -1.61275 0
M  V30 2464 O 255.56 -1.34856 -2.32524 0
M  V30 2465 C 253.831 -3.4385 -0.974766 0
M  V30 2466 S 255.39 -4.07459 -1.62857 0
M  V30 2467 H 252.208 -0.693041 -0.158794 0
M  V30 2468 H 254.81 -1.93856 0.252974 0
M  V30 2469 H 253.514 -4.10131 -0.148688 0
M  V30 2470 H 253.045 -3.52115 -1.75438 0
M  V30 2471 H 255.06 -4.01458 -2.91627 0
M  V30 2472 N 254.233 0.115231 -1.57178 0
M  V30 2473 C 255.481 0.820727 -1.84685 0
M  V30 2474 C 255.802 1.80237 -0.744279 0
M  V30 2475 O 255.072 1.94529 0.231375 0
M  V30 2476 H 253.652 0.306084 -0.681411 0
M  V30 2477 H 256.314 0.101656 -1.94635 0
M  V30 2478 H 255.41 1.36366 -2.80733 0
M  V30 2479 N 255.711 1.52812 0.385517 0
M  V30 2480 C 256.641 1.80808 1.47752 0
M  V30 2481 C 257.622 0.660318 1.5676 0
M  V30 2482 O 258.807 0.908246 1.71652 0
M  V30 2483 C 255.937 1.98008 2.85324 0
M  V30 2484 C 254.891 3.13709 2.91154 0
M  V30 2485 C 254.217 3.16169 4.31209 0
M  V30 2486 C 255.517 4.52709 2.60483 0
M  V30 2487 H 257.211 2.72253 1.24573 0
M  V30 2488 H 254.757 1.31003 0.597839 0
M  V30 2489 H 256.71 2.16176 3.61726 0
M  V30 2490 H 255.434 1.03255 3.09848 0
M  V30 2491 H 254.093 2.95329 2.17201 0
M  V30 2492 H 253.741 2.19092 4.52778 0
M  V30 2493 H 253.441 3.93894 4.36029 0
M  V30 2494 H 254.965 3.36496 5.09512 0
M  V30 2495 H 256.379 4.71173 3.26602 0
M  V30 2496 H 254.776 5.32528 2.76648 0
M  V30 2497 H 255.846 4.59186 1.55809 0
M  V30 2498 N 257.189 -0.644168 1.43834 0
M  V30 2499 C 258.137 -1.77793 1.49974 0
M  V30 2500 C 259.131 -1.65253 0.372536 0
M  V30 2501 O 260.337 -1.7149 0.546924 0
M  V30 2502 H 256.712 -0.58675 0.47035 0
M  V30 2503 H 258.683 -1.69736 2.45423 0
M  V30 2504 C 257.432 -3.16087 1.4486 0
M  V30 2505 H 256.755 -3.26378 2.30905 0
M  V30 2506 H 258.195 -3.95349 1.53217 0
M  V30 2507 C 256.654 -3.36484 0.167463 0
M  V30 2508 O 257.184 -3.94298 -0.767609 0
M  V30 2509 N 255.39 -2.90504 0.0747556 0
M  V30 2510 H 254.937 -2.4364 0.836507 0
M  V30 2511 H 254.895 -3.04527 -0.781714 0
M  V30 2512 N 258.668 -1.30515 -0.883378 0
M  V30 2513 C 259.945 -1.10086 -1.6168 0
M  V30 2514 C 260.325 0.349269 -2.08191 0
M  V30 2515 O 259.673 1.34105 -1.85008 0
M  V30 2516 C 259.883 -2.10315 -2.78511 0
M  V30 2517 C 261.231 -2.42119 -3.48803 0
M  V30 2518 O 262.255 -2.08638 -2.88702 0
M  V30 2519 O 261.114 -2.99396 -4.57192 0
M  V30 2520 H 258.208 -0.422907 -0.710689 0
M  V30 2521 H 260.754 -1.41947 -0.930015 0
M  V30 2522 H 259.526 -3.07917 -2.41459 0
M  V30 2523 H 259.149 -1.79282 -3.54886 0
M  V30 2524 N 260.146 1.09593 -1.13257 0
M  V30 2525 C 261.392 1.82003 -0.89458 0
M  V30 2526 C 261.725 1.85402 0.577906 0
M  V30 2527 O 261 1.32099 1.42759 0
M  V30 2528 C 261.283 3.28237 -1.48096 0
M  V30 2529 C 261.136 3.3312 -3.02244 0
M  V30 2530 C 262.455 4.24871 -1.14774 0
M  V30 2531 H 259.574 0.66077 -0.326424 0
M  V30 2532 H 262.216 1.28389 -1.40058 0
M  V30 2533 H 260.366 3.74024 -1.05062 0
M  V30 2534 H 262.038 2.95748 -3.54021 0
M  V30 2535 H 260.281 2.72756 -3.37323 0
M  V30 2536 H 260.952 4.3613 -3.38371 0
M  V30 2537 H 263.428 3.87361 -1.51957 0
M  V30 2538 H 262.304 5.25532 -1.58452 0
M  V30 2539 H 262.565 4.42058 -0.0611849 0
M  V30 2540 N 261.624 0.925811 1.2754 0
M  V30 2541 C 263.04 0.625767 1.46821 0
M  V30 2542 C 263.24 -0.825506 1.83814 0
M  V30 2543 O 262.296 -1.60356 1.95044 0
M  V30 2544 C 263.609 1.57402 2.56213 0
M  V30 2545 C 265.157 1.58204 2.70075 0
M  V30 2546 C 265.632 2.51721 3.82623 0
M  V30 2547 N 267.123 2.49917 3.89994 0
M  V30 2548 C 267.858 3.18968 4.76494 0
M  V30 2549 N 267.354 3.97391 5.67496 0
M  V30 2550 N 269.147 3.07996 4.70208 0
M  V30 2551 H 261.298 1.86409 1.01811 0
M  V30 2552 H 263.561 0.800213 0.508295 0
M  V30 2553 H 263.267 2.60925 2.35819 0
M  V30 2554 H 263.141 1.31428 3.53563 0
M  V30 2555 H 265.528 0.554124 2.89851 0
M  V30 2556 H 265.609 1.88226 1.73218 0
M  V30 2557 H 265.253 3.54622 3.63601 0
M  V30 2558 H 265.183 2.18996 4.78903 0
M  V30 2559 H 267.674 1.9296 3.24923 0
M  V30 2560 H 267.987 4.4707 6.30356 0
M  V30 2561 H 266.332 4.01495 5.67298 0
M  V30 2562 H 269.523 2.46223 3.9811 0
M  V30 2563 H 269.696 3.6208 5.37403 0
M  V30 2564 N 263.102 -1.41638 0.69111 0
M  V30 2565 C 264.35 -2.00902 0.219758 0
M  V30 2566 C 264.671 -1.54994 -1.18329 0
M  V30 2567 O 263.941 -0.778628 -1.79762 0
M  V30 2568 H 262.521 -0.74289 0.0782558 0
M  V30 2569 H 265.183 -1.73327 0.891271 0
M  V30 2570 H 264.279 -3.11224 0.233708 0
M  V30 2571 N 264.58 -0.43555 -1.51462 0
M  V30 2572 C 265.996 -0.0877501 -1.59359 0
M  V30 2573 C 266.196 1.4027 -1.4466 0
M  V30 2574 O 265.252 2.17243 -1.28693 0
M  V30 2575 C 266.565 -0.606264 -2.94525 0
M  V30 2576 C 268.113 -0.566548 -3.0783 0
M  V30 2577 C 268.588 -1.06201 -4.45517 0
M  V30 2578 N 270.079 -1.01992 -4.51832 0
M  V30 2579 C 270.814 -1.37417 -5.5669 0
M  V30 2580 N 270.31 -1.80119 -6.68976 0
M  V30 2581 N 272.103 -1.29245 -5.47039 0
M  V30 2582 H 264.254 -1.40533 -1.59261 0
M  V30 2583 H 266.517 -0.578992 -0.750648 0
M  V30 2584 H 266.223 -1.64901 -3.10645 0
M  V30 2585 H 266.097 -0.0302097 -3.77188 0
M  V30 2586 H 268.484 0.467208 -2.91378 0
M  V30 2587 H 268.565 -1.17898 -2.2701 0
M  V30 2588 H 268.209 -2.09422 -4.62715 0
M  V30 2589 H 268.139 -0.426127 -5.24873 0
M  V30 2590 H 270.63 -0.706308 -3.71241 0
M  V30 2591 H 270.943 -2.05392 -7.45006 0
M  V30 2592 H 269.288 -1.84044 -6.70189 0
M  V30 2593 H 272.479 -0.957522 -4.58202 0
M  V30 2594 H 272.652 -1.57182 -6.28648 0
M  V30 2595 N 266.058 1.56714 -0.166846 0
M  V30 2596 C 267.335 1.88412 0.525373 0
M  V30 2597 C 267.715 1.07602 1.81618 0
M  V30 2598 O 267.063 0.168621 2.27877 0
M  V30 2599 C 267.273 3.40363 0.771613 0
M  V30 2600 C 268.621 4.10007 1.1036 0
M  V30 2601 O 269.645 3.45655 0.860304 0
M  V30 2602 O 268.504 5.2369 1.56239 0
M  V30 2603 H 265.598 0.781587 0.270278 0
M  V30 2604 H 268.144 1.68458 -0.204946 0
M  V30 2605 H 266.916 3.91046 -0.141093 0
M  V30 2606 H 266.539 3.65914 1.55541 0
M  V30 2607 N 267.536 -0.106894 1.57237 0
M  V30 2608 C 268.947 -0.662723 1.74542 0
M  V30 2609 C 269.298 -1.7971 0.787319 0
M  V30 2610 O 268.423 -2.16368 -0.0369636 0
M  V30 2611 C 269.018 -1.20896 3.16496 0
M  V30 2612 C 267.577 -1.71096 3.35266 0
M  V30 2613 C 266.724 -0.615642 2.7038 0
M  V30 2614 H 269.675 0.119106 1.58252 0
M  V30 2615 H 269.696 -2.07847 3.18716 0
M  V30 2616 H 269.208 -0.383122 3.86204 0
M  V30 2617 H 267.309 -2.56119 2.70618 0
M  V30 2618 H 267.422 -1.81208 4.43509 0
M  V30 2619 H 265.786 -1.05222 2.31949 0
M  V30 2620 H 266.569 0.199419 3.4272 0
M  V30 2621 N 269.014 -1.53014 -0.377408 0
M  V30 2622 C 269.977 -1.77957 -1.44444 0
M  V30 2623 C 270.977 -0.649763 -1.47087 0
M  V30 2624 O 272.167 -0.917897 -1.48055 0
M  V30 2625 C 269.299 -1.89089 -2.83651 0
M  V30 2626 H 270.492 -2.73243 -1.23606 0
M  V30 2627 H 268.045 -1.43912 -0.609844 0
M  V30 2628 H 268.78 -0.958293 -3.09818 0
M  V30 2629 H 268.565 -2.71254 -2.83132 0
M  V30 2630 H 270.055 -2.1002 -3.60945 0
M  V30 2631 N 270.492 0.636531 -1.44174 0
M  V30 2632 C 271.738 1.39826 -1.4689 0
M  V30 2633 C 272.071 1.93947 -0.0990585 0
M  V30 2634 O 271.346 1.73325 0.882544 0
M  V30 2635 C 271.629 2.56751 -2.5249 0
M  V30 2636 C 271.482 2.08014 -3.98811 0
M  V30 2637 C 272.801 3.58946 -2.54649 0
M  V30 2638 H 269.92 0.507075 -0.53483 0
M  V30 2639 H 272.562 0.720188 -1.75822 0
M  V30 2640 H 270.712 3.14597 -2.2795 0
M  V30 2641 H 272.384 1.5504 -4.34466 0
M  V30 2642 H 270.627 1.39242 -4.10846 0
M  V30 2643 H 271.298 2.92169 -4.68339 0
M  V30 2644 H 273.774 3.1089 -2.76563 0
M  V30 2645 H 272.65 4.38286 -3.3045 0
M  V30 2646 H 272.911 4.12655 -1.58646 0
M  V30 2647 N 271.97 1.30982 0.876444 0
M  V30 2648 C 273.21 1.21589 1.64303 0
M  V30 2649 C 273.574 -0.223962 1.90689 0
M  V30 2650 O 274.775 -0.44128 2.65153 0
M  V30 2651 C 273.046 2.03007 2.94148 0
M  V30 2652 S 274.605 2.10405 3.85065 0
M  V30 2653 H 271.423 0.433161 0.563819 0
M  V30 2654 H 274.025 1.65565 1.03964 0
M  V30 2655 H 272.729 3.06719 2.72675 0
M  V30 2656 H 272.26 1.59725 3.59515 0
M  V30 2657 H 274.275 1.23765 4.80517 0
M  V30 2658 N 273.449 -1.08991 1.13837 0
M  V30 2659 C 274.865 -1.33312 0.877506 0
M  V30 2660 C 275.065 -1.95587 -0.48456 0
M  V30 2661 O 274.121 -2.20509 -1.23013 0
M  V30 2662 C 275.434 -2.24045 2.0056 0
M  V30 2663 C 276.982 -2.37542 2.03821 0
M  V30 2664 C 277.457 -3.31614 3.15905 0
M  V30 2665 N 278.948 -3.39189 3.15445 0
M  V30 2666 C 279.683 -4.11992 3.98811 0
M  V30 2667 N 279.179 -4.87553 4.92203 0
M  V30 2668 N 280.972 -4.07762 3.86894 0
M  V30 2669 H 273.123 -0.669456 2.01574 0
M  V30 2670 H 275.386 -0.357482 0.878015 0
M  V30 2671 H 275.092 -1.85521 2.98789 0
M  V30 2672 H 274.966 -3.24466 1.92359 0
M  V30 2673 H 277.353 -2.75327 1.06202 0
M  V30 2674 H 277.434 -1.36884 2.16093 0
M  V30 2675 H 277.078 -2.94551 4.13766 0
M  V30 2676 H 277.008 -4.32186 3.0087 0
M  V30 2677 H 279.499 -2.85314 2.47799 0
M  V30 2678 H 279.812 -5.40549 5.52292 0
M  V30 2679 H 278.157 -4.86627 4.96205 0
M  V30 2680 H 281.348 -3.47833 3.13257 0
M  V30 2681 H 281.521 -4.64238 4.52092 0
M  V30 2682 N 274.927 -0.932562 -1.27047 0
M  V30 2683 C 275.857 -0.452902 -2.29066 0
M  V30 2684 C 276.838 0.489338 -1.62909 0
M  V30 2685 O 278.023 0.393046 -1.90181 0
M  V30 2686 C 275.153 0.290698 -3.46081 0
M  V30 2687 C 274.107 -0.564168 -4.24265 0
M  V30 2688 C 273.433 0.308886 -5.33807 0
M  V30 2689 C 274.733 -1.83112 -4.89149 0
M  V30 2690 H 276.427 -1.30552 -2.69437 0
M  V30 2691 H 273.973 -0.629201 -1.29526 0
M  V30 2692 H 275.926 0.637233 -4.16554 0
M  V30 2693 H 274.65 1.17738 -3.0464 0
M  V30 2694 H 273.309 -0.893477 -3.55545 0
M  V30 2695 H 272.957 1.19467 -4.88607 0
M  V30 2696 H 272.657 -0.259633 -5.87026 0
M  V30 2697 H 274.181 0.650884 -6.07121 0
M  V30 2698 H 275.595 -1.55236 -5.51883 0
M  V30 2699 H 273.992 -2.34353 -5.52448 0
M  V30 2700 H 275.062 -2.54772 -4.12576 0
M  V30 2701 N 276.405 1.4127 -0.698611 0
M  V30 2702 C 277.315 2.34573 -0.0357891 0
M  V30 2703 C 278.331 1.56393 0.762701 0
M  V30 2704 O 279.507 1.8886 0.699564 0
M  V30 2705 C 276.572 3.35159 0.887089 0
M  V30 2706 C 275.633 4.29225 0.0804634 0
M  V30 2707 C 274.866 5.25006 0.959387 0
M  V30 2708 O 275.089 5.26314 2.19886 0
M  V30 2709 O 274.023 6.00519 0.407439 0
M  V30 2710 H 277.849 2.92838 -0.804957 0
M  V30 2711 H 275.434 1.42175 -0.458966 0
M  V30 2712 H 277.316 3.9689 1.41621 0
M  V30 2713 H 275.991 2.79333 1.6357 0
M  V30 2714 H 274.898 3.70833 -0.493328 0
M  V30 2715 H 276.231 4.88157 -0.629547 0
M  V30 2716 N 277.883 0.443576 1.51229 0
M  V30 2717 C 279.16 -0.181038 1.9476 0
M  V30 2718 C 279.54 -1.59523 1.38259 0
M  V30 2719 O 278.888 -2.2122 0.572198 0
M  V30 2720 C 279.098 -0.152422 3.48667 0
M  V30 2721 C 280.446 -0.354923 4.23114 0
M  V30 2722 O 281.47 -0.230257 3.55455 0
M  V30 2723 O 280.329 -0.603674 5.43156 0
M  V30 2724 H 277.423 -0.1266 0.817252 0
M  V30 2725 H 279.969 0.502004 1.62105 0
M  V30 2726 H 278.741 0.836022 3.82265 0
M  V30 2727 H 278.364 -0.878107 3.87782 0
M  V30 2728 N 279.361 -1.56624 0.175154 0
M  V30 2729 C 280.777 -1.58571 -0.180966 0
M  V30 2730 C 280.977 -1.19065 -1.6256 0
M  V30 2731 O 280.033 -0.904044 -2.35761 0
M  V30 2732 C 281.346 -3.00522 0.103326 0
M  V30 2733 C 282.894 -3.12972 0.0418426 0
M  V30 2734 C 283.369 -4.57022 0.299175 0
M  V30 2735 N 284.86 -4.62541 0.247086 0
M  V30 2736 C 285.595 -5.71857 0.420318 0
M  V30 2737 N 285.091 -6.89717 0.652816 0
M  V30 2738 N 286.884 -5.60972 0.355957 0
M  V30 2739 H 279.035 -1.80589 1.11809 0
M  V30 2740 H 281.298 -0.837178 0.444788 0
M  V30 2741 H 281.004 -3.33916 1.10422 0
M  V30 2742 H 280.878 -3.72344 -0.603299 0
M  V30 2743 H 283.265 -2.79403 -0.949636 0
M  V30 2744 H 283.346 -2.43578 0.781238 0
M  V30 2745 H 282.99 -4.913 1.28788 0
M  V30 2746 H 282.92 -5.24579 -0.460876 0
M  V30 2747 H 285.411 -3.77829 0.0731895 0
M  V30 2748 H 285.724 -7.68911 0.774347 0
M  V30 2749 H 284.069 -6.91572 0.689476 0
M  V30 2750 H 287.26 -4.67773 0.174882 0
M  V30 2751 H 287.433 -6.46111 0.494388 0
M  V30 2752 N 280.839 0.0985539 -1.57292 0
M  V30 2753 C 282.116 0.834155 -1.76921 0
M  V30 2754 C 282.496 1.97101 -0.755928 0
M  V30 2755 O 281.844 2.27474 0.216245 0
M  V30 2756 C 282.054 1.33194 -3.22584 0
M  V30 2757 C 283.402 1.77611 -3.85668 0
M  V30 2758 O 284.426 1.42825 -3.26312 0
M  V30 2759 O 283.285 2.4192 -4.90038 0
M  V30 2760 H 280.379 0.397628 -0.725135 0
M  V30 2761 H 282.925 0.0807044 -1.69508 0
M  V30 2762 H 281.697 0.517248 -3.87866 0
M  V30 2763 H 281.32 2.1475 -3.34616 0
M  V30 2764 N 282.317 1.53212 0.369288 0
M  V30 2765 C 283.547 1.72868 1.13139 0
M  V30 2766 C 283.955 0.455754 1.83629 0
M  V30 2767 O 283.298 -0.580861 1.74275 0
M  V30 2768 C 283.36 2.83667 2.20847 0
M  V30 2769 C 283.024 4.24142 1.70155 0
M  V30 2770 C 284.021 5.06619 1.16763 0
M  V30 2771 C 281.706 4.70539 1.7578 0
M  V30 2772 C 283.7 6.33581 0.696678 0
M  V30 2773 C 281.387 5.97481 1.28297 0
M  V30 2774 C 282.385 6.78833 0.753307 0
M  V30 2775 O 282.073 8.03393 0.285475 0
M  V30 2776 H 281.805 0.581707 0.344373 0
M  V30 2777 H 284.359 2.00736 0.435243 0
M  V30 2778 H 282.589 2.51265 2.93944 0
M  V30 2779 H 284.278 2.91536 2.82421 0
M  V30 2780 H 285.044 4.71948 1.11758 0
M  V30 2781 H 280.923 4.07293 2.15949 0
M  V30 2782 H 284.467 6.97027 0.282581 0
M  V30 2783 H 280.364 6.31651 1.32994 0
M  V30 2784 H 281.132 8.17497 0.405145 0
M  V30 2785 N 283.795 -0.628877 1.44509 0
M  V30 2786 C 285.041 -1.39045 1.47629 0
M  V30 2787 C 285.374 -1.93892 0.109343 0
M  V30 2788 O 284.649 -1.7379 -0.87334 0
M  V30 2789 C 284.932 -2.55408 2.53848 0
M  V30 2790 C 284.785 -2.05896 3.99909 0
M  V30 2791 C 286.104 -3.5759 2.56549 0
M  V30 2792 H 283.223 -0.504232 0.537512 0
M  V30 2793 H 285.865 -0.710854 1.76201 0
M  V30 2794 H 284.015 -3.13384 2.29615 0
M  V30 2795 H 285.687 -1.52734 4.35282 0
M  V30 2796 H 283.93 -1.37061 4.11578 0
M  V30 2797 H 284.601 -2.89681 4.69882 0
M  V30 2798 H 287.077 -3.09419 2.78207 0
M  V30 2799 H 285.953 -4.36527 3.32769 0
M  V30 2800 H 286.214 -4.11808 1.60832 0
M  V30 2801 N 285.273 -1.31445 -0.869486 0
M  V30 2802 C 286.519 -1.21337 -1.62496 0
M  V30 2803 C 286.852 0.227872 -1.92858 0
M  V30 2804 O 286.127 1.16094 -1.56053 0
M  V30 2805 C 286.41 -2.05814 -2.95487 0
M  V30 2806 C 286.263 -3.5824 -2.72 0
M  V30 2807 C 287.582 -1.9079 -3.96594 0
M  V30 2808 H 284.701 -0.442135 -0.589649 0
M  V30 2809 H 287.343 -1.6124 -1.00507 0
M  V30 2810 H 285.493 -1.71913 -3.48394 0
M  V30 2811 H 287.165 -4.0228 -2.25762 0
M  V30 2812 H 285.408 -3.81647 -2.06224 0
M  V30 2813 H 286.079 -4.12657 -3.66631 0
M  V30 2814 H 288.555 -2.20459 -3.52898 0
M  V30 2815 H 287.431 -2.52199 -4.87531 0
M  V30 2816 H 287.692 -0.871341 -4.33428 0
M  V30 2817 N 286.751 1.08385 -1.14413 0
M  V30 2818 C 287.981 1.8425 -0.934644 0
M  V30 2819 C 288.389 1.81907 0.520234 0
M  V30 2820 O 287.732 1.22126 1.37226 0
M  V30 2821 C 287.794 3.32853 -1.35828 0
M  V30 2822 C 287.458 3.5893 -2.82875 0
M  V30 2823 C 288.455 3.53756 -3.80989 0
M  V30 2824 C 286.14 3.86934 -3.20293 0
M  V30 2825 C 288.134 3.76216 -5.14529 0
M  V30 2826 C 285.821 4.09047 -4.54008 0
M  V30 2827 C 286.819 4.03682 -5.50936 0
M  V30 2828 O 286.507 4.25214 -6.82238 0
M  V30 2829 H 286.239 0.588502 -0.332628 0
M  V30 2830 H 288.793 1.37792 -1.52324 0
M  V30 2831 H 287.023 3.8007 -0.713019 0
M  V30 2832 H 288.712 3.90154 -1.11957 0
M  V30 2833 H 289.478 3.32135 -3.53428 0
M  V30 2834 H 285.357 3.9023 -2.45442 0
M  V30 2835 H 288.901 3.71943 -5.90173 0
M  V30 2836 H 284.798 4.30151 -4.8129 0
M  V30 2837 H 285.566 4.42619 -6.88499 0
M  V30 2838 N 288.23 0.939286 1.26551 0
M  V30 2839 C 289.455 0.602008 1.98471 0
M  V30 2840 C 289.88 -0.815624 1.69497 0
M  V30 2841 O 289.238 -1.54912 0.941905 0
M  V30 2842 C 289.286 0.848407 3.50477 0
M  V30 2843 O 288.39 -0.0804009 4.12322 0
M  V30 2844 H 287.731 0.23049 0.622712 0
M  V30 2845 H 290.261 1.2617 1.61066 0
M  V30 2846 H 290.271 0.768553 4.00696 0
M  V30 2847 H 288.946 1.88171 3.70897 0
M  V30 2848 H 287.523 0.0503508 3.72866 0
M  V30 2849 N 289.708 -1.40897 0.706093 0
M  V30 2850 C 290.933 -2.05895 0.249435 0
M  V30 2851 C 291.358 -1.52823 -1.09666 0
M  V30 2852 O 290.716 -0.659589 -1.68876 0
M  V30 2853 C 290.764 -3.59872 0.22904 0
M  V30 2854 O 289.868 -4.04708 -0.792784 0
M  V30 2855 H 289.209 -0.653206 0.119241 0
M  V30 2856 H 291.739 -1.80471 0.96391 0
M  V30 2857 H 291.749 -4.07951 0.0634791 0
M  V30 2858 H 290.424 -3.97866 1.21141 0
M  V30 2859 H 289.001 -3.68111 -0.59572 0
M  V30 2860 N 291.186 -0.45159 -1.50991 0
M  V30 2861 C 292.432 0.110237 -2.025 0
M  V30 2862 C 292.765 1.41109 -1.33424 0
M  V30 2863 O 292.04 1.89135 -0.453659 0
M  V30 2864 C 292.323 0.314271 -3.58726 0
M  V30 2865 C 292.176 -1.00623 -4.38401 0
M  V30 2866 C 293.495 1.07767 -4.26702 0
M  V30 2867 H 290.614 0.0385897 -0.735989 0
M  V30 2868 H 293.256 -0.593374 -1.80497 0
M  V30 2869 H 291.406 0.913601 -3.77605 0
M  V30 2870 H 293.078 -1.64064 -4.31139 0
M  V30 2871 H 291.321 -1.6075 -4.02917 0
M  V30 2872 H 291.992 -0.817341 -5.45915 0
M  V30 2873 H 294.468 0.56986 -4.12179 0
M  V30 2874 H 293.344 1.18921 -5.35863 0
M  V30 2875 H 293.605 2.10939 -3.88532 0
M  V30 2876 N 292.664 1.56529 -0.183458 0
M  V30 2877 C 293.904 1.99141 0.460667 0
M  V30 2878 C 294.268 1.06736 1.59597 0
M  V30 2879 O 295.469 1.38538 2.30349 0
M  V30 2880 C 293.74 3.45358 0.919939 0
M  V30 2881 S 295.299 4.09999 1.56354 0
M  V30 2882 H 292.117 0.695479 0.147748 0
M  V30 2883 H 294.719 1.93429 -0.283782 0
M  V30 2884 H 293.423 4.10315 0.0834208 0
M  V30 2885 H 292.954 3.54862 1.69814 0
M  V30 2886 H 294.969 4.06046 2.85203 0
M  V30 2887 N 294.142 -0.090211 1.57342 0
M  V30 2888 C 295.367 -0.810082 1.90925 0
M  V30 2889 C 295.792 -1.71248 0.778187 0
M  V30 2890 O 295.15 -1.79278 -0.269991 0
M  V30 2891 C 295.198 -1.59529 3.23393 0
M  V30 2892 O 294.302 -2.70461 3.11327 0
M  V30 2893 H 293.643 -0.222231 0.625707 0
M  V30 2894 H 296.173 -0.0639716 2.045 0
M  V30 2895 H 296.183 -1.97847 3.5682 0
M  V30 2896 H 294.858 -0.933055 4.05299 0
M  V30 2897 H 293.435 -2.35135 2.89423 0
M  V30 2898 N 295.62 -1.53406 -0.361157 0
M  V30 2899 C 296.867 -1.69802 -1.10333 0
M  V30 2900 C 297.195 -0.452087 -1.89173 0
M  V30 2901 O 296.45 0.566017 -1.87336 0
M  V30 2902 C 296.749 -2.90211 -2.08596 0
M  V30 2903 C 296.415 -4.26539 -1.46203 0
M  V30 2904 C 295.077 -4.6361 -1.28915 0
M  V30 2905 C 297.429 -5.113 -1.01101 0
M  V30 2906 C 294.757 -5.83075 -0.651157 0
M  V30 2907 C 297.109 -6.31415 -0.387007 0
M  V30 2908 C 295.773 -6.67195 -0.201657 0
M  V30 2909 H 295.043 -0.621351 -0.403737 0
M  V30 2910 H 297.69 -1.87598 -0.384609 0
M  V30 2911 H 295.995 -2.66946 -2.86788 0
M  V30 2912 H 297.692 -3.00091 -2.65982 0
M  V30 2913 H 294.282 -3.97352 -1.60653 0
M  V30 2914 H 298.466 -4.83206 -1.13249 0
M  V30 2915 H 293.722 -6.09385 -0.496006 0
M  V30 2916 H 297.896 -6.96394 -0.0293563 0
M  V30 2917 H 295.523 -7.59628 0.294766 0
M  V30 2918 N 297.098 0.621204 -1.44841 0
M  V30 2919 C 298.345 1.38055 -1.48145 0
M  V30 2920 C 298.673 1.94143 -0.117867 0
M  V30 2921 O 297.928 1.74713 0.881694 0
M  V30 2922 C 298.227 2.55675 -2.4973 0
M  V30 2923 C 297.893 2.17817 -3.94799 0
M  V30 2924 C 296.555 2.07205 -4.34303 0
M  V30 2925 C 298.907 1.88065 -4.86087 0
M  V30 2926 C 296.235 1.65045 -5.63007 0
M  V30 2927 C 298.587 1.47394 -6.15189 0
M  V30 2928 C 297.251 1.35331 -6.53637 0
M  V30 2929 H 296.521 0.505181 -0.542101 0
M  V30 2930 H 299.168 0.703477 -1.78111 0
M  V30 2931 H 297.473 3.2866 -2.13284 0
M  V30 2932 H 299.17 3.13904 -2.4953 0
M  V30 2933 H 295.76 2.26998 -3.63552 0
M  V30 2934 H 299.944 1.95168 -4.56315 0
M  V30 2935 H 295.2 1.54317 -5.91605 0
M  V30 2936 H 299.374 1.23415 -6.85377 0
M  V30 2937 H 297.001 1.02435 -7.53267 0
M  V30 2938 N 298.576 1.31904 0.862503 0
M  V30 2939 C 299.506 1.22782 1.98612 0
M  V30 2940 C 300.487 0.113362 1.69722 0
M  V30 2941 O 301.672 0.299218 1.91881 0
M  V30 2942 C 298.802 0.942058 3.34279 0
M  V30 2943 C 297.756 2.0169 3.77499 0
M  V30 2944 C 297.082 1.58369 5.10709 0
M  V30 2945 C 298.382 3.43096 3.93805 0
M  V30 2946 H 300.076 2.16788 2.06502 0
M  V30 2947 H 297.622 1.04366 0.992154 0
M  V30 2948 H 299.575 0.864818 4.1243 0
M  V30 2949 H 298.299 -0.0336603 3.26583 0
M  V30 2950 H 296.958 2.08416 3.01593 0
M  V30 2951 H 296.606 0.595628 4.99461 0
M  V30 2952 H 296.306 2.30279 5.40597 0
M  V30 2953 H 297.83 1.52067 5.91361 0
M  V30 2954 H 299.244 3.39003 4.62331 0
M  V30 2955 H 297.641 4.13288 4.35101 0
M  V30 2956 H 298.711 3.83334 2.96957 0
M  V30 2957 N 300.054 -1.07777 1.14986 0
M  V30 2958 C 301.465 -1.61766 0.932127 0
M  V30 2959 C 301.816 -1.88974 -0.527581 0
M  V30 2960 O 300.941 -1.65198 -1.39781 0
M  V30 2961 C 301.536 -2.93891 1.68563 0
M  V30 2962 C 300.095 -3.44639 1.5133 0
M  V30 2963 C 299.242 -2.18767 1.704 0
M  V30 2964 H 302.193 -0.909201 1.30074 0
M  V30 2965 H 302.214 -3.62623 1.15259 0
M  V30 2966 H 301.726 -2.74057 2.74799 0
M  V30 2967 H 299.827 -3.69564 0.474702 0
M  V30 2968 H 299.94 -4.20966 2.28746 0
M  V30 2969 H 298.304 -2.28253 1.13016 0
M  V30 2970 H 299.087 -2.01433 2.77992 0
M  V30 2971 N 301.532 -0.945985 -1.26051 0
M  V30 2972 C 302.772 -0.603665 -1.95282 0
M  V30 2973 C 303.136 0.842377 -1.72534 0
M  V30 2974 O 304.337 1.29387 -2.35611 0
M  V30 2975 C 302.608 -0.942292 -3.44754 0
M  V30 2976 S 304.167 -0.711242 -4.32997 0
M  V30 2977 H 300.985 -0.222176 -0.675395 0
M  V30 2978 H 303.587 -1.21832 -1.52896 0
M  V30 2979 H 302.291 -1.99203 -3.58812 0
M  V30 2980 H 301.822 -0.317546 -3.92116 0
M  V30 2981 H 303.837 0.422221 -4.944 0
M  V30 2982 N 303.011 1.40521 -0.713556 0
M  V30 2983 C 304.422 1.83853 -0.324807 0
M  V30 2984 C 304.773 1.59667 1.14021 0
M  V30 2985 O 303.898 1.07649 1.87725 0
M  V30 2986 C 304.493 3.33751 -0.582746 0
M  V30 2987 C 303.052 3.75584 -0.247727 0
M  V30 2988 C 302.199 2.63753 -0.856121 0
M  V30 2989 H 305.15 1.29817 -0.91286 0
M  V30 2990 H 305.171 3.80194 0.152682 0
M  V30 2991 H 304.683 3.51322 -1.64908 0
M  V30 2992 H 302.784 3.63608 0.813624 0
M  V30 2993 H 302.897 4.7373 -0.715307 0
M  V30 2994 H 301.261 2.53108 -0.28432 0
M  V30 2995 H 302.044 2.84137 -1.92668 0
M  V30 2996 N 304.489 0.459591 1.5075 0
M  V30 2997 C 305.419 -0.330644 2.31147 0
M  V30 2998 C 306.4 -1.00087 1.37538 0
M  V30 2999 O 307.585 -1.00025 1.66459 0
M  V30 3000 C 304.715 -1.41958 3.16962 0
M  V30 3001 C 303.669 -0.871608 4.19031 0
M  V30 3002 C 302.995 -2.05797 4.9351 0
M  V30 3003 C 304.295 0.109251 5.22186 0
M  V30 3004 H 305.989 0.340336 2.97459 0
M  V30 3005 H 303.535 0.165119 1.4305 0
M  V30 3006 H 305.488 -1.9798 3.71997 0
M  V30 3007 H 304.212 -2.11917 2.48513 0
M  V30 3008 H 302.871 -0.333442 3.6508 0
M  V30 3009 H 302.519 -2.74427 4.21544 0
M  V30 3010 H 302.219 -1.6976 5.62544 0
M  V30 3011 H 303.743 -2.62331 5.51375 0
M  V30 3012 H 305.157 -0.361405 5.7216 0
M  V30 3013 H 303.554 0.383316 5.98875 0
M  V30 3014 H 304.624 1.03887 4.73641 0
M  V30 3015 N 305.967 -1.56429 0.191757 0
M  V30 3016 C 306.9 -2.14829 -0.76967 0
M  V30 3017 C 307.878 -1.08405 -1.2119 0
M  V30 3018 O 309.062 -1.36498 -1.30002 0
M  V30 3019 C 306.189 -2.70446 -2.03903 0
M  V30 3020 C 305.235 -3.89428 -1.7392 0
M  V30 3021 S 306.068 -5.28048 -0.890265 0
M  V30 3022 C 307.224 -5.87085 -2.16984 0
M  V30 3023 H 307.457 -2.96042 -0.273204 0
M  V30 3024 H 304.99 -1.54383 -0.0231975 0
M  V30 3025 H 306.948 -3.03134 -2.76803 0
M  V30 3026 H 305.609 -1.89281 -2.50662 0
M  V30 3027 H 304.802 -4.26742 -2.68155 0
M  V30 3028 H 304.404 -3.57732 -1.09103 0
M  V30 3029 H 306.696 -6.01244 -3.12269 0
M  V30 3030 H 307.639 -6.83747 -1.84108 0
M  V30 3031 H 308.047 -5.15663 -2.29678 0
M  V30 3032 N 307.445 0.0818655 -1.57387 0
M  V30 3033 C 308.375 1.09885 -2.06028 0
M  V30 3034 C 309.356 1.4098 -0.951774 0
M  V30 3035 O 310.541 1.50781 -1.22387 0
M  V30 3036 C 307.671 2.4151 -2.4958 0
M  V30 3037 C 306.625 2.24792 -3.64215 0
M  V30 3038 C 305.951 3.61712 -3.93787 0
M  V30 3039 C 307.251 1.67749 -4.94629 0
M  V30 3040 H 308.945 0.694128 -2.91243 0
M  V30 3041 H 306.491 0.332448 -1.4011 0
M  V30 3042 H 308.444 3.12939 -2.82219 0
M  V30 3043 H 307.168 2.83943 -1.61381 0
M  V30 3044 H 305.827 1.55807 -3.31843 0
M  V30 3045 H 305.475 4.01697 -3.02735 0
M  V30 3046 H 305.175 3.51368 -4.70971 0
M  V30 3047 H 306.699 4.34587 -4.28913 0
M  V30 3048 H 308.113 2.29032 -5.25564 0
M  V30 3049 H 306.51 1.68128 -5.76067 0
M  V30 3050 H 307.58 0.638059 -4.80684 0
M  V30 3051 N 308.923 1.53595 0.353017 0
M  V30 3052 C 309.853 1.83902 1.43883 0
M  V30 3053 C 310.834 0.693421 1.55324 0
M  V30 3054 O 312.019 0.944452 1.69687 0
M  V30 3055 C 309.149 2.04016 2.8106 0
M  V30 3056 C 308.103 3.19814 2.84434 0
M  V30 3057 C 307.429 3.25244 4.24406 0
M  V30 3058 C 308.729 4.58133 2.50822 0
M  V30 3059 H 310.423 2.74835 1.1877 0
M  V30 3060 H 307.969 1.32242 0.569917 0
M  V30 3061 H 309.922 2.238 3.57059 0
M  V30 3062 H 308.646 1.09804 3.07588 0
M  V30 3063 H 307.305 2.9987 2.10887 0
M  V30 3064 H 306.953 2.28646 4.48029 0
M  V30 3065 H 306.653 4.03054 4.27576 0
M  V30 3066 H 308.177 3.47228 5.0226 0
M  V30 3067 H 309.591 4.77995 3.16534 0
M  V30 3068 H 307.988 5.38276 2.6529 0
M  V30 3069 H 309.058 4.62387 1.46034 0
M  V30 3070 N 310.401 -0.613514 1.45168 0
M  V30 3071 C 311.331 -1.7354 1.56225 0
M  V30 3072 C 312.312 -1.64981 0.41414 0
M  V30 3073 O 313.497 -1.83472 0.636526 0
M  V30 3074 C 310.627 -3.12128 1.52295 0
M  V30 3075 C 309.581 -3.35491 2.65762 0
M  V30 3076 C 308.907 -4.74291 2.46885 0
M  V30 3077 C 310.207 -3.26325 4.0781 0
M  V30 3078 H 311.901 -1.64543 2.50132 0
M  V30 3079 H 309.447 -0.790185 1.20383 0
M  V30 3080 H 311.4 -3.90404 1.58628 0
M  V30 3081 H 310.124 -3.2195 0.549139 0
M  V30 3082 H 308.783 -2.59603 2.58847 0
M  V30 3083 H 308.431 -4.80839 1.47657 0
M  V30 3084 H 308.131 -4.9088 3.22972 0
M  V30 3085 H 309.655 -5.54775 2.55063 0
M  V30 3086 H 311.069 -3.94483 4.16 0
M  V30 3087 H 309.466 -3.54445 4.8424 0
M  V30 3088 H 310.536 -2.23855 4.30136 0
M  V30 3089 N 311.879 -1.3236 -0.855495 0
M  V30 3090 C 313.109 -1.25688 -1.6397 0
M  V30 3091 C 313.517 0.177592 -1.88365 0
M  V30 3092 O 312.86 1.12485 -1.45234 0
M  V30 3093 C 312.922 -1.94602 -3.02275 0
M  V30 3094 C 312.586 -3.43937 -3.00926 0
M  V30 3095 C 313.583 -4.39435 -2.77835 0
M  V30 3096 C 311.268 -3.85858 -3.21588 0
M  V30 3097 C 313.262 -5.74829 -2.75409 0
M  V30 3098 C 310.949 -5.21361 -3.18789 0
M  V30 3099 C 311.947 -6.15658 -2.95727 0
M  V30 3100 O 311.635 -7.48681 -2.928 0
M  V30 3101 H 311.367 -0.434972 -0.51747 0
M  V30 3102 H 313.921 -1.75023 -1.075 0
M  V30 3103 H 312.151 -1.39836 -3.60531 0
M  V30 3104 H 313.84 -1.81651 -3.62985 0
M  V30 3105 H 314.606 -4.08374 -2.6164 0
M  V30 3106 H 310.485 -3.12883 -3.38564 0
M  V30 3107 H 314.029 -6.48404 -2.57328 0
M  V30 3108 H 309.926 -5.52052 -3.34528 0
M  V30 3109 H 310.694 -7.5803 -3.0876 0
M  V30 3110 N 313.357 1.07166 -1.15556 0
M  V30 3111 C 314.603 1.80222 -0.942961 0
M  V30 3112 C 314.958 1.85121 0.524209 0
M  V30 3113 O 314.251 1.32531 1.38369 0
M  V30 3114 C 314.445 3.24707 -1.49332 0
M  V30 3115 C 314.274 3.33887 -3.01247 0
M  V30 3116 C 313.044 3.44337 -3.69811 0
M  V30 3117 C 315.242 3.24484 -3.99017 0
M  V30 3118 N 313.224 3.42439 -5.09518 0
M  V30 3119 C 314.595 3.29726 -5.25053 0
M  V30 3120 C 316.65 3.08307 -3.90962 0
M  V30 3121 C 315.353 3.20455 -6.43973 0
M  V30 3122 C 317.379 3.00371 -5.09442 0
M  V30 3123 C 316.741 3.06227 -6.34354 0
M  V30 3124 H 312.84 0.672709 -0.398731 0
M  V30 3125 H 315.424 1.27905 -1.46794 0
M  V30 3126 H 313.595 3.7544 -0.994946 0
M  V30 3127 H 315.327 3.85894 -1.21935 0
M  V30 3128 H 312.082 3.48762 -3.20409 0
M  V30 3129 H 312.506 3.45013 -5.8249 0
M  V30 3130 H 317.148 3.02633 -2.95251 0
M  V30 3131 H 314.866 3.24888 -7.39914 0
M  V30 3132 H 318.452 2.88955 -5.04971 0
M  V30 3133 H 317.332 3.00132 -7.24493 0
M  V30 3134 N 314.835 0.952656 1.25548 0
M  V30 3135 C 315.798 0.475794 2.24207 0
M  V30 3136 C 316.798 -0.419428 1.55234 0
M  V30 3137 O 317.988 -0.216994 1.72843 0
M  V30 3138 C 315.12 -0.312814 3.39462 0
M  V30 3139 H 316.313 1.34779 2.67908 0
M  V30 3140 H 313.866 0.735739 1.37901 0
M  V30 3141 H 314.601 -1.20257 3.01179 0
M  V30 3142 H 314.386 0.329404 3.90714 0
M  V30 3143 H 315.876 -0.635986 4.12729 0
M  V30 3144 N 316.313 -1.40141 0.720998 0
M  V30 3145 C 317.541 -2.05096 0.272656 0
M  V30 3146 C 317.956 -1.54334 -1.0875 0
M  V30 3147 O 317.313 -0.702211 -1.6845 0
M  V30 3148 C 317.364 -3.60636 0.249835 0
M  V30 3149 O 317.085 -4.09526 1.55629 0
M  V30 3150 C 318.586 -4.42772 -0.216396 0
M  V30 3151 H 315.806 -0.659897 0.121558 0
M  V30 3152 H 318.35 -1.79449 0.980723 0
M  V30 3153 H 316.505 -3.85232 -0.409237 0
M  V30 3154 H 316.919 -5.03758 1.4604 0
M  V30 3155 H 318.393 -5.51702 -0.181212 0
M  V30 3156 H 318.87 -4.20756 -1.25941 0
M  V30 3157 H 319.476 -4.23294 0.412596 0
M  V30 3158 N 317.792 -0.46758 -1.50504 0
M  V30 3159 C 319.039 0.0886219 -2.02306 0
M  V30 3160 C 319.367 1.40037 -1.34981 0
M  V30 3161 O 318.622 1.90136 -0.463318 0
M  V30 3162 C 318.921 0.323995 -3.55928 0
M  V30 3163 C 318.587 -0.905618 -4.41712 0
M  V30 3164 C 317.249 -1.24275 -4.64875 0
M  V30 3165 C 319.601 -1.72448 -4.91845 0
M  V30 3166 C 316.929 -2.39888 -5.35417 0
M  V30 3167 C 319.281 -2.87185 -5.63656 0
M  V30 3168 C 317.945 -3.21317 -5.85074 0
M  V30 3169 H 317.215 0.0324291 -0.74029 0
M  V30 3170 H 319.862 -0.620945 -1.81153 0
M  V30 3171 H 318.167 1.11577 -3.75577 0
M  V30 3172 H 319.864 0.76826 -3.93572 0
M  V30 3173 H 316.454 -0.632956 -4.239 0
M  V30 3174 H 320.638 -1.4772 -4.73806 0
M  V30 3175 H 315.894 -2.66611 -5.50208 0
M  V30 3176 H 320.068 -3.50985 -6.01484 0
M  V30 3177 H 317.695 -4.1101 -6.39511 0
M  V30 3178 N 319.27 1.56325 -0.20005 0
M  V30 3179 C 320.686 1.58839 0.155716 0
M  V30 3180 C 320.886 1.21636 1.60645 0
M  V30 3181 O 319.942 0.941437 2.34293 0
M  V30 3182 C 321.255 3.0032 -0.151124 0
M  V30 3183 C 322.803 3.12866 -0.0916284 0
M  V30 3184 C 323.278 4.56488 -0.371845 0
M  V30 3185 N 324.769 4.62089 -0.320641 0
M  V30 3186 C 325.504 5.71116 -0.511243 0
M  V30 3187 N 325 6.88592 -0.762461 0
M  V30 3188 N 326.793 5.60335 -0.445157 0
M  V30 3189 H 318.944 1.78788 -1.14668 0
M  V30 3190 H 321.207 0.829996 -0.458051 0
M  V30 3191 H 320.913 3.32117 -1.15721 0
M  V30 3192 H 320.787 3.73257 0.543986 0
M  V30 3193 H 323.174 2.80878 0.905065 0
M  V30 3194 H 323.255 2.42304 -0.81989 0
M  V30 3195 H 322.899 4.89189 -1.36588 0
M  V30 3196 H 322.829 5.25246 0.377362 0
M  V30 3197 H 325.32 3.77665 -0.13329 0
M  V30 3198 H 325.633 7.67581 -0.896576 0
M  V30 3199 H 323.978 6.90387 -0.799412 0
M  V30 3200 H 327.169 4.67436 -0.249278 0
M  V30 3201 H 327.342 6.45243 -0.597116 0
M  V30 3202 N 320.748 -0.0735177 1.57428 0
M  V30 3203 C 321.996 -0.771472 1.86796 0
M  V30 3204 C 322.317 -1.78201 0.791804 0
M  V30 3205 O 321.587 -1.95074 -0.179718 0
M  V30 3206 H 320.167 -0.28791 0.689287 0
M  V30 3207 H 322.829 -0.0500161 1.94836 0
M  V30 3208 H 321.925 -1.28874 2.8425 0
M  V30 3209 N 322.226 -1.5378 -0.344866 0
M  V30 3210 C 323.156 -1.84662 -1.42906 0
M  V30 3211 C 324.137 -0.701648 -1.54955 0
M  V30 3212 O 325.322 -0.953438 -1.69184 0
M  V30 3213 C 322.452 -2.05503 -2.79974 0
M  V30 3214 C 321.406 -3.21318 -2.82734 0
M  V30 3215 C 320.732 -3.2749 -4.22675 0
M  V30 3216 C 322.032 -4.59456 -2.48389 0
M  V30 3217 H 323.726 -2.75461 -1.17311 0
M  V30 3218 H 321.272 -1.32542 -0.562896 0
M  V30 3219 H 323.225 -2.25691 -3.55867 0
M  V30 3220 H 321.949 -1.11434 -3.07002 0
M  V30 3221 H 320.608 -3.00984 -2.09294 0
M  V30 3222 H 320.256 -2.31019 -4.4681 0
M  V30 3223 H 319.956 -4.05316 -4.25433 0
M  V30 3224 H 321.48 -3.49887 -5.00412 0
M  V30 3225 H 322.894 -4.79667 -3.13995 0
M  V30 3226 H 321.291 -5.39675 -2.62432 0
M  V30 3227 H 322.361 -4.63155 -1.4358 0
M  V30 3228 N 323.704 0.605807 -1.45491 0
M  V30 3229 C 324.636 1.73031 -1.5031 0
M  V30 3230 C 325.649 1.57968 -0.393687 0
M  V30 3231 O 326.838 1.65817 -0.660839 0
M  V30 3232 C 323.938 3.11049 -1.34543 0
M  V30 3233 C 323.111 3.52334 -2.59189 0
M  V30 3234 C 322.17 4.69323 -2.37954 0
M  V30 3235 O 321.196 4.7635 -3.11575 0
M  V30 3236 N 322.398 5.62705 -1.4263 0
M  V30 3237 H 325.163 1.6936 -2.4726 0
M  V30 3238 H 322.724 0.79114 -1.41254 0
M  V30 3239 H 324.716 3.87071 -1.18144 0
M  V30 3240 H 323.286 3.09217 -0.458623 0
M  V30 3241 H 322.506 2.66256 -2.90691 0
M  V30 3242 H 323.794 3.76677 -3.42041 0
M  V30 3243 H 323.192 5.59744 -0.818758 0
M  V30 3244 H 321.749 6.38252 -1.32202 0
M  V30 3245 N 325.182 1.32811 0.848464 0
M  V30 3246 C 326.598 1.11937 1.13764 0
M  V30 3247 C 326.798 -0.0960789 2.01271 0
M  V30 3248 O 325.854 -0.779165 2.40178 0
M  V30 3249 C 327.167 2.402 1.809 0
M  V30 3250 C 328.715 2.46016 1.93508 0
M  V30 3251 C 329.19 3.74215 2.64059 0
M  V30 3252 N 330.681 3.75232 2.71579 0
M  V30 3253 C 331.416 4.71134 3.26833 0
M  V30 3254 N 330.912 5.77406 3.8285 0
M  V30 3255 N 332.705 4.58623 3.24995 0
M  V30 3256 H 324.856 2.1073 0.265855 0
M  V30 3257 H 327.119 0.930671 0.180431 0
M  V30 3258 H 326.825 3.29093 1.24058 0
M  V30 3259 H 326.699 2.51628 2.81004 0
M  V30 3260 H 329.086 1.57577 2.49506 0
M  V30 3261 H 329.167 2.38536 0.923811 0
M  V30 3262 H 328.811 4.63031 2.08722 0
M  V30 3263 H 328.741 3.78968 3.65637 0
M  V30 3264 H 331.232 2.98423 2.31845 0
M  V30 3265 H 331.545 6.46632 4.23187 0
M  V30 3266 H 329.89 5.81152 3.81165 0
M  V30 3267 H 333.081 3.74762 2.80484 0
M  V30 3268 H 333.254 5.33535 3.67756 0
M  V30 3269 N 326.66 -1.06551 1.16123 0
M  V30 3270 C 327.906 -1.79719 0.952505 0
M  V30 3271 C 328.261 -1.85396 -0.514385 0
M  V30 3272 O 327.554 -1.33263 -1.37665 0
M  V30 3273 C 327.748 -3.23911 1.51052 0
M  V30 3274 C 327.577 -3.32284 3.03013 0
M  V30 3275 C 326.347 -3.42371 3.71632 0
M  V30 3276 C 328.545 -3.22363 4.00732 0
M  V30 3277 N 326.527 -3.39732 5.11327 0
M  V30 3278 C 327.898 -3.26937 5.26794 0
M  V30 3279 C 329.953 -3.0623 3.92591 0
M  V30 3280 C 328.656 -3.17035 6.45663 0
M  V30 3281 C 330.682 -2.97665 5.11028 0
M  V30 3282 C 330.044 -3.02858 6.35969 0
M  V30 3283 H 326.143 -0.670585 0.402293 0
M  V30 3284 H 328.727 -1.27125 1.4747 0
M  V30 3285 H 326.898 -3.74907 1.01484 0
M  V30 3286 H 328.63 -3.85242 1.2398 0
M  V30 3287 H 325.385 -3.47058 3.22254 0
M  V30 3288 H 325.809 -3.41919 5.84312 0
M  V30 3289 H 330.451 -3.01063 2.96852 0
M  V30 3290 H 328.169 -3.2096 7.41627 0
M  V30 3291 H 331.755 -2.86273 5.06497 0
M  V30 3292 H 330.635 -2.96286 7.26075 0
M  V30 3293 N 328.138 -0.959301 -1.25041 0
M  V30 3294 C 329.048 -0.489994 -2.29426 0
M  V30 3295 C 330.064 0.444944 -1.68215 0
M  V30 3296 O 331.24 0.320046 -1.98841 0
M  V30 3297 C 328.305 0.220309 -3.45999 0
M  V30 3298 C 327.366 -0.753418 -4.22637 0
M  V30 3299 C 326.599 -0.076918 -5.33645 0
M  V30 3300 O 326.822 1.13649 -5.58963 0
M  V30 3301 O 325.756 -0.764824 -5.97021 0
M  V30 3302 H 329.582 -1.35755 -2.71669 0
M  V30 3303 H 327.167 -0.725961 -1.30576 0
M  V30 3304 H 329.049 0.619677 -4.16819 0
M  V30 3305 H 327.724 1.06296 -3.0575 0
M  V30 3306 H 326.631 -1.20308 -3.54227 0
M  V30 3307 H 327.964 -1.56423 -4.66683 0
M  V30 3308 N 329.616 1.39756 -0.72842 0
M  V30 3309 C 330.862 2.00942 -0.273892 0
M  V30 3310 C 331.195 1.57656 1.13394 0
M  V30 3311 O 330.47 0.802434 1.77176 0
M  V30 3312 C 330.753 3.58211 -0.368346 0
M  V30 3313 C 330.606 4.11534 -1.81548 0
M  V30 3314 C 331.925 4.39372 0.253054 0
M  V30 3315 H 329.044 0.730047 -0.100996 0
M  V30 3316 H 331.686 1.66056 -0.923337 0
M  V30 3317 H 329.836 3.88061 0.184588 0
M  V30 3318 H 331.508 3.92431 -2.42478 0
M  V30 3319 H 329.751 3.65341 -2.33898 0
M  V30 3320 H 330.422 5.20682 -1.83288 0
M  V30 3321 H 332.898 4.15527 -0.218224 0
M  V30 3322 H 331.774 5.48677 0.156585 0
M  V30 3323 H 332.035 4.21358 1.33826 0
M  V30 3324 N 331.094 0.475555 1.50254 0
M  V30 3325 C 332.057 -0.305016 2.27161 0
M  V30 3326 C 333.057 -0.916519 1.32123 0
M  V30 3327 O 334.247 -0.785003 1.5551 0
M  V30 3328 C 331.379 -1.43496 3.09227 0
M  V30 3329 H 332.572 0.369511 2.97615 0
M  V30 3330 H 330.125 0.229747 1.54602 0
M  V30 3331 H 330.86 -2.14441 2.43281 0
M  V30 3332 H 330.645 -1.00223 3.79075 0
M  V30 3333 H 332.135 -1.98548 3.67381 0
M  V30 3334 N 332.573 -1.56217 0.208337 0
M  V30 3335 C 333.989 -1.58919 -0.14729 0
M  V30 3336 C 334.189 -1.22486 -1.59998 0
M  V30 3337 O 333.245 -0.953849 -2.3379 0
M  V30 3338 C 334.558 -3.00236 0.167048 0
M  V30 3339 C 336.106 -3.12813 0.108219 0
M  V30 3340 C 336.581 -4.56284 0.396049 0
M  V30 3341 N 338.072 -4.61912 0.345142 0
M  V30 3342 C 338.807 -5.70837 0.541523 0
M  V30 3343 N 338.303 -6.88178 0.798968 0
M  V30 3344 N 340.096 -5.60091 0.474867 0
M  V30 3345 H 332.247 -1.78177 1.15614 0
M  V30 3346 H 334.51 -0.827555 0.462446 0
M  V30 3347 H 334.216 -3.31499 1.1748 0
M  V30 3348 H 334.09 -3.7354 -0.524184 0
M  V30 3349 H 336.477 -2.81354 -0.890157 0
M  V30 3350 H 336.558 -2.41866 0.832729 0
M  V30 3351 H 336.202 -4.88458 1.3918 0
M  V30 3352 H 336.132 -5.25439 -0.349502 0
M  V30 3353 H 338.623 -3.77589 0.153316 0
M  V30 3354 H 338.936 -7.67095 0.93727 0
M  V30 3355 H 337.281 -6.89953 0.836013 0
M  V30 3356 H 340.472 -4.67297 0.274064 0
M  V30 3357 H 340.645 -6.44917 0.631326 0
M  V30 3358 N 334.051 0.0651679 -1.57465 0
M  V30 3359 C 335.467 0.420105 -1.53972 0
M  V30 3360 C 335.667 1.78782 -0.929474 0
M  V30 3361 O 334.723 2.46771 -0.534839 0
M  V30 3362 C 336.036 0.355084 -2.98596 0
M  V30 3363 C 337.584 0.434792 -3.09965 0
M  V30 3364 C 338.059 0.399609 -4.56253 0
M  V30 3365 N 339.55 0.459488 -4.60915 0
M  V30 3366 C 340.285 0.454584 -5.71595 0
M  V30 3367 N 339.781 0.404102 -6.9162 0
M  V30 3368 N 341.574 0.501635 -5.59857 0
M  V30 3369 H 333.725 -0.830328 -1.95498 0
M  V30 3370 H 335.988 -0.312244 -0.895102 0
M  V30 3371 H 335.694 -0.583357 -3.46828 0
M  V30 3372 H 335.568 1.16275 -3.58831 0
M  V30 3373 H 337.955 1.36366 -2.61703 0
M  V30 3374 H 338.036 -0.40157 -2.52628 0
M  V30 3375 H 337.68 -0.525436 -5.05175 0
M  V30 3376 H 337.61 1.25359 -5.11461 0
M  V30 3377 H 340.101 0.502482 -3.74544 0
M  V30 3378 H 340.414 0.404468 -7.71741 0
M  V30 3379 H 338.759 0.37069 -6.94011 0
M  V30 3380 H 341.95 0.538812 -4.64989 0
M  V30 3381 H 342.123 0.494345 -6.46112 0
M  V30 3382 N 335.529 1.53961 0.336706 0
M  V30 3383 C 336.492 1.81724 1.39675 0
M  V30 3384 C 337.492 0.688532 1.45313 0
M  V30 3385 O 338.682 0.956829 1.45569 0
M  V30 3386 C 335.814 1.96543 2.78538 0
M  V30 3387 H 337.007 2.76424 1.16318 0
M  V30 3388 H 334.56 1.45478 0.571474 0
M  V30 3389 H 335.295 1.0401 3.07168 0
M  V30 3390 H 335.08 2.78665 2.75841 0
M  V30 3391 H 336.57 2.19516 3.5525 0
M  V30 3392 N 337.007 -0.598083 1.45811 0
M  V30 3393 C 337.954 -1.7082 1.55207 0
M  V30 3394 C 338.924 -1.61278 0.39732 0
M  V30 3395 O 340.109 -1.80717 0.612038 0
M  V30 3396 C 337.249 -3.09144 1.53376 0
M  V30 3397 C 336.362 -3.29423 2.79472 0
M  V30 3398 C 335.497 -4.57907 2.69248 0
M  V30 3399 C 334.536 -4.71476 3.90354 0
M  V30 3400 N 333.673 -5.9127 3.78608 0
M  V30 3401 H 338.513 -1.62125 2.50039 0
M  V30 3402 H 336.05 -0.790389 1.24062 0
M  V30 3403 H 338.008 -3.89186 1.50301 0
M  V30 3404 H 336.638 -3.16773 0.620876 0
M  V30 3405 H 335.69 -2.43091 2.92594 0
M  V30 3406 H 337.002 -3.3532 3.69272 0
M  V30 3407 H 336.156 -5.46157 2.64192 0
M  V30 3408 H 334.895 -4.54423 1.77063 0
M  V30 3409 H 333.9 -3.81648 3.95759 0
M  V30 3410 H 335.125 -4.76751 4.83617 0
M  V30 3411 H 333.071 -5.88813 2.89199 0
M  V30 3412 H 332.988 -5.98369 4.6205 0
M  V30 3413 H 334.256 -6.81992 3.77501 0
M  V30 3414 N 338.485 -1.33259 -0.841409 0
M  V30 3415 C 339.415 -1.25926 -1.96634 0
M  V30 3416 C 340.396 -0.140349 -1.6952 0
M  V30 3417 O 341.581 -0.329707 -1.91381 0
M  V30 3418 C 338.711 -0.99512 -3.32738 0
M  V30 3419 C 337.665 -2.0767 -3.74242 0
M  V30 3420 C 336.991 -1.66474 -5.08125 0
M  V30 3421 C 338.291 -3.49318 -3.88297 0
M  V30 3422 H 339.985 -2.20046 -2.03027 0
M  V30 3423 H 337.531 -1.05931 -0.975425 0
M  V30 3424 H 339.484 -0.930323 -4.11002 0
M  V30 3425 H 338.208 -0.0183004 -3.26595 0
M  V30 3426 H 336.867 -2.13187 -2.98239 0
M  V30 3427 H 336.515 -0.675012 -4.9845 0
M  V30 3428 H 336.215 -2.3885 -5.36865 0
M  V30 3429 H 337.739 -1.61455 -5.88867 0
M  V30 3430 H 339.153 -3.46316 -4.56879 0
M  V30 3431 H 337.55 -4.20158 -4.28471 0
M  V30 3432 H 338.62 -3.8801 -2.9082 0
M  V30 3433 N 339.963 1.05934 -1.16686 0
M  V30 3434 C 340.913 2.11764 -0.844978 0
M  V30 3435 C 341.897 1.59922 0.177178 0
M  V30 3436 O 343.089 1.76983 -0.0241768 0
M  V30 3437 C 340.218 3.41493 -0.351812 0
M  V30 3438 C 339.304 4.00152 -1.40496 0
M  V30 3439 N 339.695 4.32874 -2.61636 0
M  V30 3440 C 337.993 4.278 -1.26106 0
M  V30 3441 C 338.694 4.79552 -3.29249 0
M  V30 3442 N 337.67 4.79211 -2.56628 0
M  V30 3443 H 341.472 2.34916 -1.76612 0
M  V30 3444 H 338.986 1.23511 -1.05446 0
M  V30 3445 H 340.983 4.16773 -0.102796 0
M  V30 3446 H 339.643 3.19778 0.56322 0
M  V30 3447 H 340.654 4.23109 -2.98663 0
M  V30 3448 H 337.331 4.15511 -0.407081 0
M  V30 3449 H 338.721 5.14045 -4.32675 0
M  V30 3450 N 341.441 0.965919 1.2453 0
M  V30 3451 C 342.689 0.625593 1.92174 0
M  V30 3452 C 343.01 -0.841652 1.75901 0
M  V30 3453 O 342.28 -1.60061 1.12948 0
M  V30 3454 H 340.86 0.228388 0.71123 0
M  V30 3455 H 343.522 1.2266 1.51461 0
M  V30 3456 H 342.618 0.864653 2.99884 0
M  V30 3457 N 342.919 -1.39368 0.735821 0
M  V30 3458 C 344.335 -1.54204 0.411492 0
M  V30 3459 C 344.535 -1.70268 -1.07755 0
M  V30 3460 O 343.591 -1.70364 -1.86366 0
M  V30 3461 C 344.904 -2.75925 1.19523 0
M  V30 3462 C 346.452 -2.89761 1.18354 0
M  V30 3463 C 346.927 -4.14421 1.94986 0
M  V30 3464 N 348.418 -4.21462 1.92156 0
M  V30 3465 C 349.153 -5.16871 2.48258 0
M  V30 3466 N 348.649 -6.18063 3.13001 0
M  V30 3467 N 350.442 -5.09093 2.38287 0
M  V30 3468 H 342.593 -1.27189 1.70108 0
M  V30 3469 H 344.856 -0.616517 0.720147 0
M  V30 3470 H 344.562 -2.70401 2.24892 0
M  V30 3471 H 344.436 -3.68614 0.800222 0
M  V30 3472 H 346.823 -2.94777 0.137975 0
M  V30 3473 H 346.904 -1.98133 1.61793 0
M  V30 3474 H 346.548 -4.10166 2.99543 0
M  V30 3475 H 346.478 -5.05095 1.48953 0
M  V30 3476 H 348.969 -3.48979 1.44991 0
M  V30 3477 H 349.282 -6.87326 3.53275 0
M  V30 3478 H 347.627 -6.18448 3.17091 0
M  V30 3479 H 350.818 -4.28973 1.8735 0
M  V30 3480 H 350.991 -5.83272 2.82308 0
M  V30 3481 N 344.397 -0.483516 -1.5 0
M  V30 3482 C 345.36 0.292965 -2.2732 0
M  V30 3483 C 346.36 0.909499 -1.32608 0
M  V30 3484 O 347.55 0.776745 -1.55924 0
M  V30 3485 C 344.682 1.41854 -3.09984 0
M  V30 3486 H 345.875 -0.385289 -2.97415 0
M  V30 3487 H 343.428 -0.237942 -1.54478 0
M  V30 3488 H 344.163 2.13148 -2.44414 0
M  V30 3489 H 343.948 0.982114 -3.79601 0
M  V30 3490 H 345.438 1.96597 -3.68429 0
M  V30 3491 N 345.875 1.56104 -0.216619 0
M  V30 3492 C 347.286 1.844 0.292128 0
M  V30 3493 C 347.637 1.13788 1.59833 0
M  V30 3494 O 346.762 0.405888 2.12559 0
M  V30 3495 C 347.357 3.3452 0.53681 0
M  V30 3496 C 345.916 3.63151 0.989876 0
M  V30 3497 C 345.063 2.77255 0.0502302 0
M  V30 3498 H 348.014 1.52481 -0.439926 0
M  V30 3499 H 348.035 3.54459 1.38345 0
M  V30 3500 H 347.547 3.85885 -0.414031 0
M  V30 3501 H 345.648 3.17238 1.95425 0
M  V30 3502 H 345.761 4.71177 0.867698 0
M  V30 3503 H 344.125 2.48555 0.556117 0
M  V30 3504 H 344.908 3.31416 -0.89544 0
M  V30 3505 N 347.353 -0.0568162 1.57498 0
M  V30 3506 C 348.769 -0.411933 1.54192 0
M  V30 3507 C 348.969 -1.78287 0.938942 0
M  V30 3508 O 348.025 -2.46483 0.547919 0
M  V30 3509 C 349.338 -0.339244 2.9878 0
M  V30 3510 C 350.886 -0.418348 3.10192 0
M  V30 3511 C 351.361 -0.375407 4.56459 0
M  V30 3512 N 352.852 -0.435038 4.61153 0
M  V30 3513 C 353.587 -0.424265 5.71828 0
M  V30 3514 N 353.083 -0.367418 6.91825 0
M  V30 3515 N 354.876 -0.471938 5.60115 0
M  V30 3516 H 347.027 0.840684 1.95055 0
M  V30 3517 H 349.29 0.316987 0.893433 0
M  V30 3518 H 348.996 0.601742 3.46514 0
M  V30 3519 H 348.87 -1.14371 3.59443 0
M  V30 3520 H 351.257 -1.34976 2.62422 0
M  V30 3521 H 351.338 0.414962 2.52412 0
M  V30 3522 H 350.982 0.552219 5.04889 0
M  V30 3523 H 350.912 -1.22645 5.12119 0
M  V30 3524 H 353.403 -0.482612 3.74806 0
M  V30 3525 H 353.716 -0.363535 7.71944 0
M  V30 3526 H 352.061 -0.333879 6.94198 0
M  V30 3527 H 355.252 -0.514145 4.65268 0
M  V30 3528 H 355.425 -0.460073 6.46365 0
M  V30 3529 N 348.832 -1.54138 -0.328536 0
M  V30 3530 C 350.248 -1.44736 -0.672574 0
M  V30 3531 C 350.448 -0.616217 -1.91846 0
M  V30 3532 O 349.504 -0.113067 -2.52247 0
M  V30 3533 C 350.817 -2.884 -0.851217 0
M  V30 3534 C 352.365 -2.98271 -0.948877 0
M  V30 3535 C 352.84 -4.43074 -1.15973 0
M  V30 3536 N 354.331 -4.46665 -1.22658 0
M  V30 3537 C 355.066 -5.55857 -1.40751 0
M  V30 3538 N 354.562 -6.75026 -1.5592 0
M  V30 3539 N 356.355 -5.43495 -1.4342 0
M  V30 3540 H 348.506 -2.06661 0.490421 0
M  V30 3541 H 350.769 -0.934812 0.157579 0
M  V30 3542 H 350.475 -3.51699 -0.00704236 0
M  V30 3543 H 350.349 -3.34225 -1.74853 0
M  V30 3544 H 352.736 -2.35102 -1.78356 0
M  V30 3545 H 352.817 -2.55785 -0.0281435 0
M  V30 3546 H 352.461 -5.06827 -0.329915 0
M  V30 3547 H 352.391 -4.83165 -2.09426 0
M  V30 3548 H 354.882 -3.60797 -1.124 0
M  V30 3549 H 355.195 -7.54004 -1.69404 0
M  V30 3550 H 353.54 -6.77944 -1.53027 0
M  V30 3551 H 356.731 -4.49349 -1.31162 0
M  V30 3552 H 356.904 -6.28649 -1.57178 0
M  V30 3553 N 350.31 0.590341 -1.46126 0
M  V30 3554 C 351.721 1.17243 -1.45296 0
M  V30 3555 C 352.072 1.95281 -0.189723 0
M  V30 3556 O 351.197 2.04502 0.707674 0
M  V30 3557 C 351.792 2.13284 -2.6324 0
M  V30 3558 C 350.351 2.66832 -2.65476 0
M  V30 3559 C 349.498 1.42557 -2.3785 0
M  V30 3560 H 352.449 0.378692 -1.54116 0
M  V30 3561 H 352.47 2.96619 -2.38323 0
M  V30 3562 H 351.982 1.56459 -3.55165 0
M  V30 3563 H 350.083 3.27548 -1.77603 0
M  V30 3564 H 350.196 3.10088 -3.65215 0
M  V30 3565 H 348.56 1.72107 -1.87753 0
M  V30 3566 H 349.343 0.875741 -3.31942 0
M  V30 3567 N 351.788 1.33704 0.83433 0
M  V30 3568 C 353.013 1.28615 1.62705 0
M  V30 3569 C 353.438 -0.139242 1.87584 0
M  V30 3570 O 352.796 -1.09734 1.4432 0
M  V30 3571 C 352.844 2.07139 2.95171 0
M  V30 3572 O 351.948 1.4331 3.86699 0
M  V30 3573 H 351.289 0.44226 0.49528 0
M  V30 3574 H 353.819 1.76335 1.03766 0
M  V30 3575 H 353.829 2.18073 3.44831 0
M  V30 3576 H 352.504 3.10779 2.76386 0
M  V30 3577 H 351.081 1.4105 3.45195 0
M  V30 3578 N 353.266 -1.05314 1.17247 0
M  V30 3579 C 354.514 -1.77941 0.958194 0
M  V30 3580 C 354.835 -1.88089 -0.514556 0
M  V30 3581 O 354.105 -1.39676 -1.37359 0
M  V30 3582 H 352.685 -0.659116 0.351533 0
M  V30 3583 H 355.347 -1.27166 1.47699 0
M  V30 3584 H 354.443 -2.79663 1.38546 0
M  V30 3585 N 354.744 -0.972509 -1.24016 0
M  V30 3586 C 356.155 -0.67517 -1.74064 0
M  V30 3587 C 356.506 0.808939 -1.78747 0
M  V30 3588 O 355.631 1.63286 -1.42009 0
M  V30 3589 C 356.226 -1.21889 -3.16115 0
M  V30 3590 C 354.785 -0.971358 -3.6365 0
M  V30 3591 C 353.932 -1.35134 -2.42145 0
M  V30 3592 H 356.883 -1.14727 -1.09651 0
M  V30 3593 H 356.904 -0.587489 -3.75937 0
M  V30 3594 H 356.416 -2.29906 -3.12674 0
M  V30 3595 H 354.517 0.0930686 -3.72484 0
M  V30 3596 H 354.63 -1.62039 -4.50866 0
M  V30 3597 H 352.994 -0.769751 -2.4279 0
M  V30 3598 H 353.777 -2.4411 -2.41381 0
M  V30 3599 N 356.222 1.38976 -0.743202 0
M  V30 3600 C 357.47 1.99948 -0.29417 0
M  V30 3601 C 357.791 1.59279 1.12495 0
M  V30 3602 O 357.061 0.844808 1.76748 0
M  V30 3603 H 355.641 0.739473 -0.105774 0
M  V30 3604 H 358.303 1.699 -0.954986 0
M  V30 3605 H 357.399 3.10142 -0.349056 0
M  V30 3606 N 357.7 0.491464 1.49741 0
M  V30 3607 C 359.111 0.0413169 1.86654 0
M  V30 3608 C 359.462 -1.36985 1.40462 0
M  V30 3609 O 358.587 -2.01917 0.778354 0
M  V30 3610 C 359.182 0.0682023 3.38731 0
M  V30 3611 C 357.741 -0.32656 3.74981 0
M  V30 3612 C 356.888 0.444888 2.73708 0
M  V30 3613 H 359.839 0.704733 1.42194 0
M  V30 3614 H 359.86 -0.729322 3.73445 0
M  V30 3615 H 359.372 1.09539 3.72321 0
M  V30 3616 H 357.473 -1.35734 3.46997 0
M  V30 3617 H 357.586 -0.013741 4.79098 0
M  V30 3618 H 355.95 -0.104062 2.54487 0
M  V30 3619 H 356.733 1.47197 3.10142 0
M  V30 3620 N 359.178 -1.55987 0.224894 0
M  V30 3621 C 360.589 -1.84553 -0.282345 0
M  V30 3622 C 360.94 -1.14634 -1.59227 0
M  V30 3623 O 360.065 -0.417155 -2.12341 0
M  V30 3624 C 360.66 -3.348 -0.519062 0
M  V30 3625 C 359.219 -3.63671 -0.970604 0
M  V30 3626 C 358.366 -2.77277 -0.0355261 0
M  V30 3627 H 361.317 -1.52245 0.448006 0
M  V30 3628 H 361.338 -3.55187 -1.36463 0
M  V30 3629 H 360.85 -3.8566 0.43449 0
M  V30 3630 H 358.951 -3.1827 -1.9374 0
M  V30 3631 H 359.064 -4.71631 -0.842698 0
M  V30 3632 H 357.428 -2.48846 -0.542927 0
M  V30 3633 H 358.211 -3.30937 0.913003 0
M  V30 3634 N 360.656 0.0484629 -1.57525 0
M  V30 3635 C 361.881 0.759177 -1.93006 0
M  V30 3636 C 362.306 1.69125 -0.823317 0
M  V30 3637 O 361.664 1.79931 0.222364 0
M  V30 3638 C 361.712 1.50899 -3.27509 0
M  V30 3639 O 360.816 2.62112 -3.18388 0
M  V30 3640 H 360.157 0.205564 -0.631379 0
M  V30 3641 H 362.687 0.00972959 -2.04598 0
M  V30 3642 H 362.697 1.88317 -3.6194 0
M  V30 3643 H 361.372 0.825269 -4.0763 0
M  V30 3644 H 359.949 2.27379 -2.95556 0
M  V30 3645 N 362.134 1.5431 0.320358 0
M  V30 3646 C 363.545 1.63872 0.894594 0
M  V30 3647 C 363.896 0.534847 1.88769 0
M  V30 3648 O 363.021 -0.331732 2.13842 0
M  V30 3649 C 363.616 2.97049 1.62934 0
M  V30 3650 C 362.175 3.08796 2.15226 0
M  V30 3651 C 361.322 2.59456 0.978671 0
M  V30 3652 H 364.273 1.58398 0.0978544 0
M  V30 3653 H 364.294 2.87388 2.49376 0
M  V30 3654 H 363.806 3.7737 0.906302 0
M  V30 3655 H 361.907 2.33156 2.90636 0
M  V30 3656 H 362.02 4.14649 2.40006 0
M  V30 3657 H 360.384 2.1543 1.35875 0
M  V30 3658 H 361.167 3.42237 0.269895 0
M  V30 3659 N 363.613 -0.582584 1.46437 0
M  V30 3660 C 364.841 -1.36682 1.55324 0
M  V30 3661 C 365.256 -1.87796 0.194409 0
M  V30 3662 O 364.613 -1.63623 -0.808318 0
M  V30 3663 C 364.664 -2.55426 2.55812 0
M  V30 3664 O 364.385 -2.0643 3.86417 0
M  V30 3665 C 365.886 -3.47976 2.74641 0
M  V30 3666 H 363.106 -0.417545 0.525259 0
M  V30 3667 H 365.65 -0.708219 1.91845 0
M  V30 3668 H 363.805 -3.17275 2.22295 0
M  V30 3669 H 364.219 -2.83762 4.41111 0
M  V30 3670 H 365.693 -4.27775 3.48874 0
M  V30 3671 H 366.17 -3.99919 1.81553 0
M  V30 3672 H 366.776 -2.91962 3.09255 0
M  V30 3673 N 365.091 -1.34144 -0.827227 0
M  V30 3674 C 366.502 -1.23557 -1.39966 0
M  V30 3675 C 366.853 0.140731 -1.95695 0
M  V30 3676 O 365.978 1.04087 -1.89723 0
M  V30 3677 C 366.573 -2.23708 -2.54441 0
M  V30 3678 C 365.132 -2.16924 -3.07605 0
M  V30 3679 C 364.279 -2.10549 -1.80456 0
M  V30 3680 H 367.23 -1.45573 -0.631991 0
M  V30 3681 H 367.251 -1.85157 -3.32411 0
M  V30 3682 H 366.763 -3.23866 -2.13851 0
M  V30 3683 H 364.864 -1.20107 -3.52711 0
M  V30 3684 H 364.977 -3.07988 -3.66988 0
M  V30 3685 H 363.341 -1.56203 -2.01178 0
M  V30 3686 H 364.124 -3.12535 -1.42046 0
M  V30 3687 N 366.569 1.04691 -1.17803 0
M  V30 3688 C 367.98 1.59238 -0.974689 0
M  V30 3689 C 368.331 1.90306 0.477292 0
M  V30 3690 O 367.456 1.68846 1.35352 0
M  V30 3691 C 368.051 2.89318 -1.76296 0
M  V30 3692 C 366.61 3.40506 -1.60414 0
M  V30 3693 C 365.757 2.14172 -1.76141 0
M  V30 3694 H 368.708 0.874395 -1.32439 0
M  V30 3695 H 368.729 3.5944 -1.24833 0
M  V30 3696 H 368.241 2.66675 -2.81968 0
M  V30 3697 H 366.342 3.68175 -0.572519 0
M  V30 3698 H 366.455 4.14753 -2.39827 0
M  V30 3699 H 364.819 2.25176 -1.19028 0
M  V30 3700 H 365.602 1.93992 -2.83235 0
M  V30 3701 N 368.047 0.979072 1.23499 0
M  V30 3702 C 369.01 0.523244 2.23147 0
M  V30 3703 C 370.01 -0.386406 1.56088 0
M  V30 3704 O 371.2 -0.180283 1.73265 0
M  V30 3705 C 368.332 -0.240739 3.40049 0
M  V30 3706 H 369.525 1.40432 2.64989 0
M  V30 3707 H 367.078 0.764824 1.36309 0
M  V30 3708 H 367.813 -1.13841 3.03662 0
M  V30 3709 H 367.598 0.412207 3.89927 0
M  V30 3710 H 369.088 -0.548297 4.13985 0
M  V30 3711 N 369.525 -1.3858 0.750561 0
M  V30 3712 C 370.936 -1.82927 0.373438 0
M  V30 3713 C 371.287 -1.62634 -1.09748 0
M  V30 3714 O 370.412 -1.12588 -1.84805 0
M  V30 3715 C 371.007 -3.32088 0.671029 0
M  V30 3716 C 369.566 -3.74795 0.34722 0
M  V30 3717 C 368.713 -2.61391 0.92575 0
M  V30 3718 H 371.664 -1.27351 0.946958 0
M  V30 3719 H 371.685 -3.80465 -0.0518269 0
M  V30 3720 H 371.197 -3.46826 1.74164 0
M  V30 3721 H 369.298 -3.65638 -0.716933 0
M  V30 3722 H 369.411 -4.71667 0.840656 0
M  V30 3723 H 367.775 -2.52265 0.351327 0
M  V30 3724 H 368.558 -2.78929 2.00133 0
M  V30 3725 N 371.003 -0.499398 -1.49478 0
M  V30 3726 C 372.419 -0.155261 -1.58843 0
M  V30 3727 C 372.619 1.34008 -1.50479 0
M  V30 3728 O 371.675 2.11589 -1.37791 0
M  V30 3729 C 372.988 -0.730636 -2.91689 0
M  V30 3730 C 374.536 -0.696599 -3.0515 0
M  V30 3731 C 375.011 -1.25001 -4.40612 0
M  V30 3732 N 376.502 -1.21064 -4.47099 0
M  V30 3733 C 377.237 -1.60905 -5.50361 0
M  V30 3734 N 376.733 -2.08331 -6.60735 0
M  V30 3735 N 378.526 -1.52331 -5.41065 0
M  V30 3736 H 370.677 -1.47162 -1.53158 0
M  V30 3737 H 372.94 -0.610309 -0.725415 0
M  V30 3738 H 372.646 -1.77928 -3.03372 0
M  V30 3739 H 372.52 -0.190161 -3.7672 0
M  V30 3740 H 374.907 0.343204 -2.93097 0
M  V30 3741 H 374.988 -1.2742 -2.21806 0
M  V30 3742 H 374.632 -2.28859 -4.53416 0
M  V30 3743 H 374.562 -0.64836 -5.22593 0
M  V30 3744 H 377.053 -0.863128 -3.67911 0
M  V30 3745 H 377.366 -2.36805 -7.35624 0
M  V30 3746 H 375.711 -2.12304 -6.6178 0
M  V30 3747 H 378.902 -1.151 -4.53729 0
M  V30 3748 H 379.075 -1.83704 -6.21415 0
M  V30 3749 N 372.481 1.55866 -0.233164 0
M  V30 3750 C 373.411 2.23783 0.666599 0
M  V30 3751 C 374.392 1.21343 1.19205 0
M  V30 3752 O 375.577 1.4996 1.23392 0
M  V30 3753 C 372.707 2.92671 1.86978 0
M  V30 3754 C 371.661 4.01682 1.47768 0
M  V30 3755 C 370.987 4.57926 2.76058 0
M  V30 3756 C 372.287 5.18126 0.658993 0
M  V30 3757 H 373.981 2.99232 0.100306 0
M  V30 3758 H 371.527 1.43924 0.046804 0
M  V30 3759 H 373.48 3.3888 2.50476 0
M  V30 3760 H 372.204 2.14688 2.46123 0
M  V30 3761 H 370.863 3.56222 0.866106 0
M  V30 3762 H 370.511 3.76659 3.33372 0
M  V30 3763 H 370.211 5.31505 2.50552 0
M  V30 3764 H 371.735 5.06859 3.40479 0
M  V30 3765 H 373.149 5.60644 1.19795 0
M  V30 3766 H 371.546 5.98009 0.500552 0
M  V30 3767 H 372.616 4.83763 -0.331856 0
M  V30 3768 N 373.959 -0.0401083 1.57549 0
M  V30 3769 C 375.37 -0.588097 1.77196 0
M  V30 3770 C 375.721 -1.76209 0.862832 0
M  V30 3771 O 374.846 -2.16331 0.0548389 0
M  V30 3772 C 375.441 -1.07363 3.21339 0
M  V30 3773 C 374 -1.56723 3.42221 0
M  V30 3774 C 373.147 -0.50041 2.72747 0
M  V30 3775 H 376.098 0.186119 1.57605 0
M  V30 3776 H 376.119 -1.94143 3.27244 0
M  V30 3777 H 375.631 -0.218975 3.87482 0
M  V30 3778 H 373.732 -2.4441 2.81237 0
M  V30 3779 H 373.845 -1.62234 4.50796 0
M  V30 3780 H 372.209 -0.952894 2.36203 0
M  V30 3781 H 372.992 0.344599 3.41566 0
M  V30 3782 N 375.437 -1.54477 -0.31217 0
M  V30 3783 C 376.369 -1.81011 -1.40598 0
M  V30 3784 C 377.382 -0.692546 -1.47335 0
M  V30 3785 O 378.571 -0.969847 -1.49854 0
M  V30 3786 C 375.671 -1.92307 -2.79054 0
M  V30 3787 C 374.844 -3.22594 -2.95384 0
M  V30 3788 C 373.903 -3.24448 -4.1427 0
M  V30 3789 O 372.929 -3.98035 -4.06887 0
M  V30 3790 N 374.131 -2.49042 -5.24365 0
M  V30 3791 H 376.896 -2.75408 -1.18196 0
M  V30 3792 H 374.457 -1.53914 -0.502202 0
M  V30 3793 H 376.449 -1.90962 -3.56813 0
M  V30 3794 H 375.019 -1.04955 -2.94454 0
M  V30 3795 H 374.239 -3.36806 -2.04831 0
M  V30 3796 H 375.527 -4.08593 -3.03198 0
M  V30 3797 H 374.925 -1.88867 -5.33241 0
M  V30 3798 H 373.482 -2.53463 -6.005 0
M  V30 3799 N 376.915 0.57481 -1.46744 0
M  V30 3800 C 378.192 1.3352 -1.4294 0
M  V30 3801 C 378.572 2.10775 -0.117009 0
M  V30 3802 O 377.92 2.09966 0.901474 0
M  V30 3803 C 378.13 2.25456 -2.66403 0
M  V30 3804 C 379.478 2.87035 -3.12883 0
M  V30 3805 O 380.502 2.35766 -2.67007 0
M  V30 3806 O 379.361 3.80179 -3.92589 0
M  V30 3807 H 376.455 0.600318 -0.568812 0
M  V30 3808 H 379.001 0.595171 -1.58921 0
M  V30 3809 H 377.773 1.67851 -3.53471 0
M  V30 3810 H 377.396 3.06785 -2.52921 0
M  V30 3811 N 378.394 1.34581 0.820102 0
M  V30 3812 C 379.805 1.24298 1.39309 0
M  V30 3813 C 380.156 -0.130351 1.95767 0
M  V30 3814 O 379.281 -1.0308 1.90272 0
M  V30 3815 C 379.876 2.25054 2.53251 0
M  V30 3816 C 378.435 2.18552 3.0645 0
M  V30 3817 C 377.582 2.11503 1.79337 0
M  V30 3818 H 380.533 1.45906 0.624262 0
M  V30 3819 H 380.554 1.86917 3.31425 0
M  V30 3820 H 380.066 3.24996 2.1213 0
M  V30 3821 H 378.167 1.21976 3.52069 0
M  V30 3822 H 378.28 3.0993 3.65349 0
M  V30 3823 H 376.644 1.57268 2.00347 0
M  V30 3824 H 377.427 3.13284 1.40386 0
M  V30 3825 N 379.872 -1.04064 1.18357 0
M  V30 3826 C 381.112 -1.78829 0.989921 0
M  V30 3827 C 381.476 -1.86106 -0.472095 0
M  V30 3828 O 382.677 -2.57076 -0.785187 0
M  V30 3829 C 380.948 -3.1823 1.6268 0
M  V30 3830 S 382.507 -4.09332 1.58091 0
M  V30 3831 H 379.325 -0.615754 0.355482 0
M  V30 3832 H 381.927 -1.24778 1.50501 0
M  V30 3833 H 380.631 -3.10543 2.68311 0
M  V30 3834 H 380.162 -3.77357 1.112 0
M  V30 3835 H 382.177 -4.92598 0.596817 0
M  V30 3836 N 381.35 -0.985608 -1.22978 0
M  V30 3837 C 382.598 -0.656087 -1.91154 0
M  V30 3838 C 382.919 0.813561 -1.77218 0
M  V30 3839 O 382.189 1.58244 -1.1548 0
M  V30 3840 H 380.769 -0.239674 -0.707506 0
M  V30 3841 H 383.431 -1.25054 -1.49491 0
M  V30 3842 H 382.527 -0.912253 -2.9847 0
M  V30 3843 N 382.828 1.3818 -0.7579 0
M  V30 3844 C 384.239 1.82726 -0.383134 0
M  V30 3845 C 384.59 1.63214 1.08884 0
M  V30 3846 O 383.715 1.13566 1.84205 0
M  V30 3847 C 384.31 3.31728 -0.688631 0
M  V30 3848 C 382.869 3.74606 -0.367091 0
M  V30 3849 C 382.016 2.60896 -0.939599 0
M  V30 3850 H 384.967 1.26847 -0.953699 0
M  V30 3851 H 384.988 3.80487 0.0316492 0
M  V30 3852 H 384.5 3.45898 -1.76001 0
M  V30 3853 H 382.601 3.66013 0.697532 0
M  V30 3854 H 382.714 4.71215 -0.865658 0
M  V30 3855 H 381.078 2.52075 -0.3647 0
M  V30 3856 H 381.861 2.77864 -2.0161 0
M  V30 3857 N 384.306 0.507319 1.49211 0
M  V30 3858 C 385.583 -0.0982702 1.95353 0
M  V30 3859 C 385.963 -1.53516 1.449 0
M  V30 3860 O 385.311 -2.18594 0.66551 0
M  V30 3861 C 385.521 -0.00440283 3.49 0
M  V30 3862 C 386.869 -0.175147 4.24239 0
M  V30 3863 O 387.893 -0.0792891 3.56112 0
M  V30 3864 O 386.752 -0.37276 5.45227 0
M  V30 3865 H 383.846 -0.0918236 0.821887 0
M  V30 3866 H 386.392 0.570307 1.5983 0
M  V30 3867 H 385.164 0.997402 3.78375 0
M  V30 3868 H 384.787 -0.712845 3.91158 0
M  V30 3869 N 385.784 -1.5574 0.241426 0
M  V30 3870 C 387.024 -2.00714 -0.38644 0
M  V30 3871 C 387.388 -1.12586 -1.55526 0
M  V30 3872 O 388.589 -1.46992 -2.25048 0
M  V30 3873 C 386.86 -3.48534 -0.791128 0
M  V30 3874 S 388.419 -4.15519 -1.41029 0
M  V30 3875 H 385.237 -0.700484 -0.121834 0
M  V30 3876 H 387.839 -1.92243 0.355377 0
M  V30 3877 H 386.543 -4.10342 0.0689225 0
M  V30 3878 H 386.074 -3.6092 -1.56526 0
M  V30 3879 H 388.089 -4.16352 -2.69936 0
M  V30 3880 N 387.262 0.0317525 -1.57568 0
M  V30 3881 C 388.225 1.01783 -2.0536 0
M  V30 3882 C 389.225 1.29203 -0.957253 0
M  V30 3883 O 390.415 1.24251 -1.22095 0
M  V30 3884 C 387.547 2.35137 -2.46827 0
M  V30 3885 H 388.74 0.605062 -2.93733 0
M  V30 3886 H 386.293 0.278514 -1.53799 0
M  V30 3887 H 387.028 2.81168 -1.61602 0
M  V30 3888 H 386.813 2.16566 -3.26866 0
M  V30 3889 H 388.303 3.05938 -2.84239 0
M  V30 3890 N 388.74 1.54641 0.303973 0
M  V30 3891 C 390.151 1.64811 0.877163 0
M  V30 3892 C 390.502 0.554838 1.88191 0
M  V30 3893 O 389.627 -0.309033 2.14182 0
M  V30 3894 C 390.222 2.9876 1.59775 0
M  V30 3895 C 388.781 3.11061 2.11938 0
M  V30 3896 C 387.928 2.60479 0.951097 0
M  V30 3897 H 390.879 1.58493 0.0810486 0
M  V30 3898 H 390.9 2.90017 2.46314 0
M  V30 3899 H 390.412 3.7831 0.866226 0
M  V30 3900 H 388.513 2.36225 2.88146 0
M  V30 3901 H 388.626 4.17171 2.35595 0
M  V30 3902 H 386.99 2.16859 1.33583 0
M  V30 3903 H 387.773 3.42504 0.233581 0
M  V30 3904 N 390.218 -0.567019 1.47046 0
M  V30 3905 C 391.629 -1.14916 1.47143 0
M  V30 3906 C 391.98 -1.94954 0.220767 0
M  V30 3907 O 391.105 -2.05602 -0.67505 0
M  V30 3908 C 391.7 -2.09069 2.666 0
M  V30 3909 C 390.259 -2.62575 2.69687 0
M  V30 3910 C 389.406 -1.38755 2.40088 0
M  V30 3911 H 392.357 -0.354126 1.54699 0
M  V30 3912 H 392.378 -2.92789 2.43011 0
M  V30 3913 H 391.89 -1.50789 3.57609 0
M  V30 3914 H 389.991 -3.24681 1.82792 0
M  V30 3915 H 390.104 -3.04239 3.70102 0
M  V30 3916 H 388.468 -1.69098 1.90468 0
M  V30 3917 H 389.251 -0.822822 3.33293 0
M  V30 3918 N 391.696 -1.35014 -0.812953 0
M  V30 3919 C 392.659 -1.27292 -1.90602 0
M  V30 3920 C 393.659 -0.185817 -1.59723 0
M  V30 3921 O 394.849 -0.439102 -1.68575 0
M  V30 3922 C 391.981 -0.967676 -3.26877 0
M  V30 3923 H 393.174 -2.24479 -1.9887 0
M  V30 3924 H 390.727 -1.19446 -1.00808 0
M  V30 3925 H 391.462 0.0005954 -3.243 0
M  V30 3926 H 391.247 -1.75412 -3.50675 0
M  V30 3927 H 392.737 -0.939085 -4.06904 0
M  V30 3928 N 393.175 1.03435 -1.18907 0
M  V30 3929 C 394.586 1.58195 -0.991523 0
M  V30 3930 C 394.937 1.90801 0.457081 0
M  V30 3931 O 394.062 1.70272 1.33553 0
M  V30 3932 C 394.657 2.87432 -1.79355 0
M  V30 3933 C 393.216 3.38785 -1.64017 0
M  V30 3934 C 392.363 2.12292 -1.78402 0
M  V30 3935 H 395.314 0.860299 -1.33359 0
M  V30 3936 H 395.335 3.58096 -1.28638 0
M  V30 3937 H 394.847 2.63669 -2.84781 0
M  V30 3938 H 392.948 3.67547 -0.611536 0
M  V30 3939 H 393.061 4.12186 -2.44212 0
M  V30 3940 H 391.425 2.23901 -1.2141 0
M  V30 3941 H 392.208 1.90977 -2.85277 0
M  V30 3942 N 394.653 0.992116 1.22453 0
M  V30 3943 C 395.901 0.666215 1.90804 0
M  V30 3944 C 396.222 -0.804152 1.77647 0
M  V30 3945 O 395.492 -1.57629 1.16318 0
M  V30 3946 H 394.072 0.243423 0.706225 0
M  V30 3947 H 396.734 1.25845 1.48825 0
M  V30 3948 H 395.83 0.928069 2.97982 0
M  V30 3949 N 396.131 -1.37776 0.765217 0
M  V30 3950 C 397.061 -2.32945 0.160953 0
M  V30 3951 C 398.042 -1.55454 -0.690516 0
M  V30 3952 O 399.227 -1.83721 -0.629318 0
M  V30 3953 C 396.357 -3.39669 -0.724031 0
M  V30 3954 C 395.311 -4.27992 0.0256173 0
M  V30 3955 C 394.637 -5.25673 -0.978383 0
M  V30 3956 C 395.937 -5.08309 1.20082 0
M  V30 3957 H 397.631 -2.83728 0.955969 0
M  V30 3958 H 395.177 -1.36416 0.461149 0
M  V30 3959 H 397.13 -4.05219 -1.15652 0
M  V30 3960 H 395.854 -2.87396 -1.5515 0
M  V30 3961 H 394.513 -3.63964 0.438812 0
M  V30 3962 H 394.161 -4.69682 -1.80022 0
M  V30 3963 H 393.861 -5.85625 -0.481378 0
M  V30 3964 H 395.385 -5.94098 -1.40995 0
M  V30 3965 H 396.799 -5.67034 0.845307 0
M  V30 3966 H 395.196 -5.77554 1.62947 0
M  V30 3967 H 396.266 -4.41365 2.00811 0
M  V30 3968 N 397.609 -0.515225 -1.4894 0
M  V30 3969 C 399.02 -0.0710067 -1.86565 0
M  V30 3970 C 399.371 1.34733 -1.42623 0
M  V30 3971 O 398.496 2.00653 -0.810379 0
M  V30 3972 C 399.091 -0.122083 -3.3858 0
M  V30 3973 C 397.65 0.266863 -3.75453 0
M  V30 3974 C 396.797 -0.488376 -2.72966 0
M  V30 3975 H 399.748 -0.727266 -1.41055 0
M  V30 3976 H 399.769 0.669818 -3.74558 0
M  V30 3977 H 399.281 -1.15448 -3.70531 0
M  V30 3978 H 397.382 1.30196 -3.49113 0
M  V30 3979 H 397.495 -0.0624811 -4.79059 0
M  V30 3980 H 395.859 0.0635622 -2.54621 0
M  V30 3981 H 396.642 -1.52113 -3.07761 0
M  V30 3982 N 399.087 1.5561 -0.249682 0
M  V30 3983 C 400.503 1.59254 0.105103 0
M  V30 3984 C 400.703 1.26685 1.56694 0
M  V30 3985 O 399.759 1.0155 2.31179 0
M  V30 3986 C 401.072 2.99687 -0.246592 0
M  V30 3987 C 402.62 3.12416 -0.191118 0
M  V30 3988 C 403.095 4.55074 -0.516885 0
M  V30 3989 N 404.586 4.60835 -0.467489 0
M  V30 3990 C 405.321 5.69201 -0.69268 0
M  V30 3991 N 404.817 6.85817 -0.981146 0
M  V30 3992 N 406.61 5.58635 -0.623198 0
M  V30 3993 H 398.761 1.75049 -1.20298 0
M  V30 3994 H 401.024 0.815003 -0.484225 0
M  V30 3995 H 400.73 3.28267 -1.26228 0
M  V30 3996 H 400.604 3.74798 0.424962 0
M  V30 3997 H 402.991 2.83615 0.815247 0
M  V30 3998 H 403.072 2.39573 -0.896563 0
M  V30 3999 H 402.716 4.84596 -1.52082 0
M  V30 4000 H 402.646 5.26181 0.210068 0
M  V30 4001 H 405.137 3.7705 -0.253373 0
M  V30 4002 H 405.45 7.64341 -1.14032 0
M  V30 4003 H 403.795 6.87494 -1.01865 0
M  V30 4004 H 406.986 4.66406 -0.397863 0
M  V30 4005 H 407.159 6.43017 -0.802093 0
M  V30 4006 N 400.565 -0.0233959 1.57583 0
M  V30 4007 C 401.813 -0.711654 1.89156 0
M  V30 4008 C 402.134 -1.75591 0.848096 0
M  V30 4009 O 401.404 -1.95547 -0.117566 0
M  V30 4010 H 399.984 -0.265835 0.698098 0
M  V30 4011 H 402.646 0.0119948 1.94896 0
M  V30 4012 H 401.742 -1.19766 2.88206 0
M  V30 4013 N 402.043 -1.548 -0.295768 0
M  V30 4014 C 403.454 -1.65274 -0.868411 0
M  V30 4015 C 403.805 -0.56481 -1.87894 0
M  V30 4016 O 402.93 0.29767 -2.14343 0
M  V30 4017 C 403.525 -2.99603 -1.58188 0
M  V30 4018 C 402.084 -3.12181 -2.10286 0
M  V30 4019 C 401.231 -2.6098 -0.93727 0
M  V30 4020 H 404.182 -1.58534 -0.0726422 0
M  V30 4021 H 404.203 -2.91319 -2.44772 0
M  V30 4022 H 403.715 -3.78764 -0.846151 0
M  V30 4023 H 401.816 -2.3775 -2.8689 0
M  V30 4024 H 401.929 -4.18415 -2.33379 0
M  V30 4025 H 400.293 -2.17564 -1.32431 0
M  V30 4026 H 401.076 -3.42623 -0.215414 0
M  V30 4027 N 403.521 0.559213 -1.47345 0
M  V30 4028 C 404.761 1.32728 -1.55444 0
M  V30 4029 C 405.125 1.90838 -0.210895 0
M  V30 4030 O 406.326 2.68282 -0.166719 0
M  V30 4031 C 404.597 2.4092 -2.63993 0
M  V30 4032 S 406.156 3.2784 -2.91661 0
M  V30 4033 H 402.974 0.451883 -0.548929 0
M  V30 4034 H 405.576 0.640404 -1.84714 0
M  V30 4035 H 404.28 1.9666 -3.60212 0
M  V30 4036 H 403.811 3.14351 -2.36531 0
M  V30 4037 H 405.826 4.40341 -2.28722 0
M  V30 4038 N 404.999 1.35443 0.805782 0
M  V30 4039 C 406.247 1.28507 1.55982 0
M  V30 4040 C 406.568 -0.140046 1.94496 0
M  V30 4041 O 405.838 -1.07666 1.63661 0
M  V30 4042 H 404.418 0.472676 0.578434 0
M  V30 4043 H 407.08 1.69555 0.961098 0
M  V30 4044 H 406.176 1.90148 2.47488 0
M  V30 4045 N 406.477 -1.02803 1.19454 0
M  V30 4046 C 407.888 -1.57667 0.999899 0
M  V30 4047 C 408.239 -1.91041 -0.446956 0
M  V30 4048 O 407.364 -1.70978 -1.32648 0
M  V30 4049 C 407.959 -2.86477 1.80877 0
M  V30 4050 C 406.518 -3.37911 1.65811 0
M  V30 4051 C 405.665 -2.11343 1.79526 0
M  V30 4052 H 408.616 -0.853214 1.33813 0
M  V30 4053 H 408.637 -3.57408 1.30536 0
M  V30 4054 H 408.149 -2.62155 2.86175 0
M  V30 4055 H 406.25 -3.67218 0.63102 0
M  V30 4056 H 406.363 -4.10885 2.46395 0
M  V30 4057 H 404.727 -2.23254 1.22596 0
M  V30 4058 H 405.51 -1.89461 2.86285 0
M  V30 4059 N 407.956 -0.998596 -1.21925 0
M  V30 4060 C 409.233 -0.593401 -1.86382 0
M  V30 4061 C 409.613 0.92916 -1.89552 0
M  V30 4062 O 408.961 1.81347 -1.39017 0
M  V30 4063 C 409.171 -1.22039 -3.26967 0
M  V30 4064 C 410.519 -1.32449 -4.03413 0
M  V30 4065 O 411.543 -1.17522 -3.36254 0
M  V30 4066 O 410.402 -1.56395 -5.23644 0
M  V30 4067 H 407.496 -0.202385 -0.801854 0
M  V30 4068 H 410.042 -1.09484 -1.29659 0
M  V30 4069 H 408.814 -2.26158 -3.19325 0
M  V30 4070 H 408.437 -0.704906 -3.91301 0
M  V30 4071 N 409.434 1.37368 -0.772513 0
M  V30 4072 C 410.674 2.01512 -0.342361 0
M  V30 4073 C 411.038 1.59997 1.06136 0
M  V30 4074 O 412.239 2.16609 1.59167 0
M  V30 4075 C 410.51 3.54134 -0.482048 0
M  V30 4076 S 412.069 4.38585 -0.137272 0
M  V30 4077 H 408.887 0.698699 -0.131686 0
M  V30 4078 H 411.489 1.67552 -1.0073 0
M  V30 4079 H 410.193 3.81837 -1.50428 0
M  V30 4080 H 409.724 3.92894 0.199413 0
M  V30 4081 H 411.739 4.84594 1.06692 0
M  V30 4082 N 410.912 0.523116 1.48665 0
M  V30 4083 C 411.875 -0.232592 2.28017 0
M  V30 4084 C 412.875 -0.874021 1.34972 0
M  V30 4085 O 414.065 -0.735132 1.57929 0
M  V30 4086 C 411.197 -1.33586 3.13636 0
M  V30 4087 H 412.39 0.464008 2.96289 0
M  V30 4088 H 409.943 0.278816 1.53793 0
M  V30 4089 H 410.678 -2.06593 2.4998 0
M  V30 4090 H 410.463 -0.881125 3.82071 0
M  V30 4091 H 411.953 -1.86759 3.73511 0
M  V30 4092 N 412.39 -1.55475 0.257931 0
M  V30 4093 C 413.801 -1.8511 -0.243135 0
M  V30 4094 C 414.152 -1.17986 -1.5676 0
M  V30 4095 O 413.277 -0.462102 -2.11409 0
M  V30 4096 C 413.872 -3.35826 -0.447929 0
M  V30 4097 C 412.431 -3.65647 -0.893245 0
M  V30 4098 C 411.578 -2.7729 0.0232965 0
M  V30 4099 H 414.529 -1.51261 0.480199 0
M  V30 4100 H 414.55 -3.58002 -1.28898 0
M  V30 4101 H 414.062 -3.84652 0.516196 0
M  V30 4102 H 412.163 -3.22308 -1.86945 0
M  V30 4103 H 412.276 -4.73312 -0.742469 0
M  V30 4104 H 410.64 -2.49942 -0.490021 0
M  V30 4105 H 411.423 -3.28926 0.982994 0
M  V30 4106 N 413.868 0.0150385 -1.57593 0
M  V30 4107 C 414.831 0.995996 -2.06428 0
M  V30 4108 C 415.831 1.2818 -0.970903 0
M  V30 4109 O 417.021 1.22949 -1.23406 0
M  V30 4110 C 414.153 2.32506 -2.49307 0
M  V30 4111 H 415.346 0.573873 -2.94358 0
M  V30 4112 H 412.899 0.262186 -1.54085 0
M  V30 4113 H 413.634 2.79438 -1.64575 0
M  V30 4114 H 413.419 2.13087 -3.29145 0
M  V30 4115 H 414.909 3.02906 -2.87468 0
M  V30 4116 N 415.346 1.54954 0.287554 0
M  V30 4117 C 416.309 1.86076 1.33823 0
M  V30 4118 C 417.309 0.734414 1.43049 0
M  V30 4119 O 418.499 1.00266 1.42452 0
M  V30 4120 C 415.631 2.05305 2.72144 0
M  V30 4121 H 416.824 2.79984 1.07465 0
M  V30 4122 H 414.377 1.47223 0.524902 0
M  V30 4123 H 415.112 1.1373 3.03704 0
M  V30 4124 H 414.897 2.873 2.66836 0
M  V30 4125 H 416.387 2.30706 3.48087 0
M  V30 4126 N 416.824 -0.551391 1.4764 0
M  V30 4127 C 418.235 -1.13349 1.48354 0
M  V30 4128 C 418.586 -1.94709 0.241432 0
M  V30 4129 O 417.711 -2.06306 -0.653205 0
M  V30 4130 C 418.306 -2.0623 2.68802 0
M  V30 4131 C 416.865 -2.597 2.72457 0
M  V30 4132 C 416.012 -1.36201 2.41546 0
M  V30 4133 H 418.963 -0.337698 1.55065 0
M  V30 4134 H 418.984 -2.90196 2.46103 0
M  V30 4135 H 418.496 -1.46987 3.59188 0
M  V30 4136 H 416.597 -3.22724 1.86225 0
M  V30 4137 H 416.71 -3.00296 3.73308 0
M  V30 4138 H 415.074 -1.67068 1.9225 0
M  V30 4139 H 415.857 -0.787425 3.34147 0
M  V30 4140 N 418.302 -1.35869 -0.798587 0
M  V30 4141 C 419.55 -1.29332 -1.55298 0
M  V30 4142 C 419.871 0.129729 -1.94568 0
M  V30 4143 O 419.141 1.06796 -1.6423 0
M  V30 4144 H 417.721 -0.475737 -0.57592 0
M  V30 4145 H 420.383 -1.70062 -0.952093 0
M  V30 4146 H 419.479 -1.91458 -2.46476 0
M  V30 4147 N 419.78 1.02168 -1.19998 0
M  V30 4148 C 420.71 2.12488 -0.96804 0
M  V30 4149 C 421.691 1.69799 0.101185 0
M  V30 4150 O 422.876 1.94121 -0.0552993 0
M  V30 4151 C 420.006 3.43479 -0.513776 0
M  V30 4152 C 418.96 3.99884 -1.52566 0
M  V30 4153 C 418.286 5.26582 -0.928214 0
M  V30 4154 C 419.586 4.33861 -2.90795 0
M  V30 4155 H 421.28 2.32149 -1.89069 0
M  V30 4156 H 418.826 1.11564 -0.910468 0
M  V30 4157 H 420.779 4.20036 -0.338774 0
M  V30 4158 H 419.503 3.23561 0.444493 0
M  V30 4159 H 418.162 3.25429 -1.68794 0
M  V30 4160 H 417.81 5.02986 0.0378289 0
M  V30 4161 H 417.51 5.65284 -1.60397 0
M  V30 4162 H 419.034 6.05799 -0.764167 0
M  V30 4163 H 420.448 5.01327 -2.78109 0
M  V30 4164 H 418.845 4.83664 -3.55231 0
M  V30 4165 H 419.915 3.42848 -3.42904 0
M  V30 4166 N 421.258 1.00505 1.21394 0
M  V30 4167 C 422.669 0.721082 1.72213 0
M  V30 4168 C 423.02 -0.761263 1.80829 0
M  V30 4169 O 422.145 -1.59464 1.46288 0
M  V30 4170 C 422.74 1.30228 3.12772 0
M  V30 4171 C 421.299 1.06743 3.60947 0
M  V30 4172 C 420.446 1.41507 2.38477 0
M  V30 4173 H 423.397 1.17594 1.06571 0
M  V30 4174 H 423.418 0.686955 3.74247 0
M  V30 4175 H 422.93 2.38115 3.06468 0
M  V30 4176 H 421.031 0.00572162 3.726 0
M  V30 4177 H 421.144 1.73936 4.46411 0
M  V30 4178 H 419.508 0.833852 2.40664 0
M  V30 4179 H 420.291 2.50424 2.34824 0
M  V30 4180 N 422.737 -1.36956 0.779787 0
M  V30 4181 C 424.148 -1.82094 0.412156 0
M  V30 4182 C 424.499 -1.64926 -1.06273 0
M  V30 4183 O 423.624 -1.16483 -1.82375 0
M  V30 4184 C 424.219 -3.3059 0.741319 0
M  V30 4185 C 422.778 -3.73974 0.426641 0
M  V30 4186 C 421.925 -2.59368 0.980987 0
M  V30 4187 H 424.876 -1.25314 0.973758 0
M  V30 4188 H 424.897 -3.80489 0.028887 0
M  V30 4189 H 424.409 -3.43054 1.81482 0
M  V30 4190 H 422.51 -3.67076 -0.639215 0
M  V30 4191 H 422.623 -4.69778 0.940515 0
M  V30 4192 H 420.987 -2.51463 0.404757 0
M  V30 4193 H 421.77 -2.74621 2.06005 0
M  V30 4194 N 424.215 -0.530993 -1.48385 0
M  V30 4195 C 425.492 0.0671788 -1.95485 0
M  V30 4196 C 425.872 1.51191 -1.47324 0
M  V30 4197 O 425.22 2.17507 -0.700202 0
M  V30 4198 C 425.43 -0.0511206 -3.48963 0
M  V30 4199 C 426.778 0.107632 -4.24464 0
M  V30 4200 O 427.802 0.0226248 -3.56193 0
M  V30 4201 O 426.661 0.285972 -5.45751 0
M  V30 4202 H 423.755 0.0787365 -0.823243 0
M  V30 4203 H 426.301 -0.595662 -1.58902 0
M  V30 4204 H 425.073 -1.05747 -3.7674 0
M  V30 4205 H 424.696 0.650525 -3.92242 0
M  V30 4206 N 425.693 1.55336 -0.266172 0
M  V30 4207 C 427.104 1.85236 0.233315 0
M  V30 4208 C 427.455 1.18816 1.56132 0
M  V30 4209 O 426.58 0.473307 2.11161 0
M  V30 4210 C 427.175 3.36059 0.430113 0
M  V30 4211 C 425.734 3.66116 0.873842 0
M  V30 4212 C 424.881 2.77274 -0.0380016 0
M  V30 4213 H 427.832 1.51004 -0.488214 0
M  V30 4214 H 427.853 3.58681 1.26998 0
M  V30 4215 H 427.365 3.84373 -0.536588 0
M  V30 4216 H 425.466 3.23295 1.85233 0
M  V30 4217 H 425.579 4.73699 0.717358 0
M  V30 4218 H 423.943 2.50198 0.476759 0
M  V30 4219 H 424.726 3.284 -1.00042 0
M  V30 4220 N 427.171 -0.0066808 1.57599 0
M  V30 4221 C 428.411 -0.697501 1.92131 0
M  V30 4222 C 428.775 -1.71306 0.867071 0
M  V30 4223 O 429.976 -2.45377 1.09743 0
M  V30 4224 C 428.247 -1.32978 3.3174 0
M  V30 4225 S 429.806 -2.04665 3.88146 0
M  V30 4226 H 426.624 -0.230555 0.672581 0
M  V30 4227 H 429.226 0.0484026 1.9544 0
M  V30 4228 H 427.93 -0.57772 4.06313 0
M  V30 4229 H 427.461 -2.11376 3.31789 0
M  V30 4230 H 429.476 -3.32097 3.68682 0
M  V30 4231 N 428.649 -1.55105 -0.279332 0
M  V30 4232 C 429.897 -1.75066 -1.00977 0
M  V30 4233 C 430.218 -0.551276 -1.87045 0
M  V30 4234 O 429.488 0.433984 -1.91032 0
M  V30 4235 H 428.068 -0.645578 -0.375816 0
M  V30 4236 H 430.73 -1.92497 -0.305089 0
M  V30 4237 H 429.826 -2.64894 -1.65038 0
M  V30 4238 N 430.127 0.543554 -1.4793 0
M  V30 4239 C 431.538 1.12561 -1.48953 0
M  V30 4240 C 431.889 1.94578 -0.251754 0
M  V30 4241 O 431.014 2.0665 0.642255 0
M  V30 4242 C 431.609 2.04801 -2.69892 0
M  V30 4243 C 430.168 2.58251 -2.73831 0
M  V30 4244 C 429.315 1.34918 -2.42265 0
M  V30 4245 H 432.266 0.32947 -1.55242 0
M  V30 4246 H 432.287 2.88886 -2.47639 0
M  V30 4247 H 431.799 1.4508 -3.59963 0
M  V30 4248 H 429.9 3.21732 -1.87934 0
M  V30 4249 H 430.013 2.98312 -3.74895 0
M  V30 4250 H 428.377 1.66046 -1.93134 0
M  V30 4251 H 429.16 0.769693 -3.3456 0
M  V30 4252 N 431.605 1.3629 0.791371 0
M  V30 4253 C 432.882 1.20962 1.53712 0
M  V30 4254 C 433.262 -0.205021 2.10102 0
M  V30 4255 O 432.61 -1.21042 1.93807 0
M  V30 4256 C 432.82 2.29002 2.63361 0
M  V30 4257 C 434.168 2.65572 3.31295 0
M  V30 4258 O 435.192 2.2803 2.73643 0
M  V30 4259 O 434.051 3.3018 4.35481 0
M  V30 4260 H 431.145 0.47086 0.679867 0
M  V30 4261 H 433.691 1.48016 0.830021 0
M  V30 4262 H 432.463 3.2382 2.19674 0
M  V30 4263 H 432.086 2.03303 3.41692 0
M  V30 4264 N 433.083 -1.0153 1.20538 0
M  V30 4265 C 434.323 -1.76689 1.02763 0
M  V30 4266 C 434.687 -1.87065 -0.432513 0
M  V30 4267 O 435.888 -2.58684 -0.730481 0
M  V30 4268 C 434.159 -3.14707 1.69393 0
M  V30 4269 S 435.718 -4.05886 1.66738 0
M  V30 4270 H 432.536 -0.608076 0.368463 0
M  V30 4271 H 435.138 -1.21558 1.53114 0
M  V30 4272 H 433.842 -3.04782 2.74838 0
M  V30 4273 H 433.373 -3.74913 1.19179 0
M  V30 4274 H 435.388 -4.91221 0.70117 0
M  V30 4275 N 434.561 -1.01147 -1.20859 0
M  V30 4276 C 435.524 -0.582224 -2.21682 0
M  V30 4277 C 436.524 0.344887 -1.57058 0
M  V30 4278 O 437.714 0.134281 -1.73682 0
M  V30 4279 C 434.846 0.150496 -3.40568 0
M  V30 4280 H 436.039 -1.47408 -2.61172 0
M  V30 4281 H 433.592 -0.800695 -1.34233 0
M  V30 4282 H 434.327 1.0575 -3.06574 0
M  V30 4283 H 434.112 -0.515444 -3.88697 0
M  V30 4284 H 435.602 0.438344 -4.15293 0
M  V30 4285 N 436.039 1.36541 -0.78704 0
M  V30 4286 C 437.45 1.81873 -0.421807 0
M  V30 4287 C 437.801 1.65487 1.05397 0
M  V30 4288 O 436.926 1.17448 1.81755 0
M  V30 4289 C 437.521 3.30192 -0.758841 0
M  V30 4290 C 436.08 3.73743 -0.446468 0
M  V30 4291 C 435.227 2.58844 -0.994728 0
M  V30 4292 H 438.178 1.24796 -0.98039 0
M  V30 4293 H 438.199 3.80468 -0.0490648 0
M  V30 4294 H 437.711 3.42087 -1.83299 0
M  V30 4295 H 435.812 3.6741 0.619739 0
M  V30 4296 H 435.925 4.69272 -0.965415 0
M  V30 4297 H 434.289 2.51245 -0.418087 0
M  V30 4298 H 435.072 2.73525 -2.07458 0
M  V30 4299 N 437.518 0.538854 1.48102 0
M  V30 4300 C 438.929 0.100679 1.86428 0
M  V30 4301 C 439.28 -1.32447 1.44749 0
M  V30 4302 O 438.405 -1.99339 0.842199 0
M  V30 4303 C 439 0.175933 3.38343 0
M  V30 4304 C 437.559 -0.207098 3.7583 0
M  V30 4305 C 436.706 0.531741 2.72154 0
M  V30 4306 H 439.657 0.749614 1.3988 0
M  V30 4307 H 439.678 -0.610144 3.75576 0
M  V30 4308 H 439.19 1.21328 3.68648 0
M  V30 4309 H 437.291 -1.24626 3.5114 0
M  V30 4310 H 437.404 0.138687 4.78899 0
M  V30 4311 H 435.768 -0.0230462 2.5469 0
M  V30 4312 H 436.551 1.56989 3.05302 0
M  V30 4313 N 438.996 -1.55193 0.274407 0
M  V30 4314 C 439.959 -2.212 -0.600279 0
M  V30 4315 C 440.959 -1.18963 -1.08187 0
M  V30 4316 O 442.149 -1.43873 -0.982158 0
M  V30 4317 C 439.281 -2.87739 -1.82809 0
M  V30 4318 H 440.474 -2.9989 -0.0239682 0
M  V30 4319 H 438.027 -1.5628 0.0250192 0
M  V30 4320 H 438.762 -2.13058 -2.44493 0
M  V30 4321 H 438.547 -3.62658 -1.49069 0
M  V30 4322 H 440.037 -3.38171 -2.45011 0
M  V30 4323 N 440.474 -0.00167713 -1.576 0
M  V30 4324 C 441.885 0.54091 -1.78693 0
M  V30 4325 C 442.236 1.7386 -0.909247 0
M  V30 4326 O 441.361 2.16109 -0.112176 0
M  V30 4327 C 441.956 0.98806 -3.24072 0
M  V30 4328 C 440.515 1.47594 -3.46256 0
M  V30 4329 C 439.662 0.42792 -2.73978 0
M  V30 4330 H 442.613 -0.22784 -1.57056 0
M  V30 4331 H 442.634 1.85398 -3.32277 0
M  V30 4332 H 442.146 0.116164 -3.87926 0
M  V30 4333 H 440.247 2.36868 -2.87618 0
M  V30 4334 H 440.36 1.50225 -4.54939 0
M  V30 4335 H 438.724 0.889934 -2.38647 0
M  V30 4336 H 439.507 -0.435038 -3.40532 0
M  V30 4337 N 441.952 1.55251 0.271103 0
M  V30 4338 C 443.2 1.75599 1.00047 0
M  V30 4339 C 443.521 0.561188 1.8675 0
M  V30 4340 O 442.791 -0.423846 1.9126 0
M  V30 4341 H 441.371 0.647562 0.372387 0
M  V30 4342 H 444.033 1.92656 0.294876 0
M  V30 4343 H 443.129 2.65766 1.6363 0
M  V30 4344 N 443.43 -0.535701 1.48216 0
M  V30 4345 C 444.36 -1.65014 1.65204 0
M  V30 4346 C 445.341 -1.62554 0.501011 0
M  V30 4347 O 446.526 -1.7984 0.732886 0
M  V30 4348 C 443.656 -3.03616 1.68626 0
M  V30 4349 C 442.61 -3.20932 2.83172 0
M  V30 4350 C 441.936 -4.60537 2.71679 0
M  V30 4351 C 443.236 -3.04249 4.24535 0
M  V30 4352 H 444.93 -1.51053 2.58502 0
M  V30 4353 H 442.476 -0.725262 1.24402 0
M  V30 4354 H 444.429 -3.81446 1.79099 0
M  V30 4355 H 443.153 -3.18587 0.719026 0
M  V30 4356 H 441.812 -2.45517 2.72244 0
M  V30 4357 H 441.46 -4.72336 1.72937 0
M  V30 4358 H 441.16 -4.73069 3.48538 0
M  V30 4359 H 442.684 -5.40475 2.84112 0
M  V30 4360 H 444.098 -3.71877 4.36326 0
M  V30 4361 H 442.495 -3.28278 5.02348 0
M  V30 4362 H 443.565 -2.00739 4.41397 0
M  V30 4363 N 444.908 -1.36708 -0.784132 0
M  V30 4364 C 446.319 -1.27947 -1.35965 0
M  V30 4365 C 446.67 0.0784013 -1.96043 0
M  V30 4366 O 445.795 0.979989 -1.92938 0
M  V30 4367 C 446.39 -2.31689 -2.47195 0
M  V30 4368 C 444.949 -2.26601 -3.00548 0
M  V30 4369 C 444.096 -2.16184 -1.73666 0
M  V30 4370 H 447.047 -1.4751 -0.585358 0
M  V30 4371 H 447.068 -1.95638 -3.26352 0
M  V30 4372 H 446.58 -3.30506 -2.03439 0
M  V30 4373 H 444.681 -1.31268 -3.48711 0
M  V30 4374 H 444.794 -3.19508 -3.57004 0
M  V30 4375 H 443.158 -1.62524 -1.96107 0
M  V30 4376 H 443.941 -3.16896 -1.32031 0
M  V30 4377 N 446.386 1.0089 -1.21074 0
M  V30 4378 C 447.318 2.09737 -0.924291 0
M  V30 4379 C 448.331 1.62546 0.0909809 0
M  V30 4380 O 449.52 1.77942 -0.141021 0
M  V30 4381 C 446.62 3.36922 -0.36559 0
M  V30 4382 C 445.793 4.13216 -1.43426 0
M  V30 4383 C 444.852 5.18696 -0.885496 0
M  V30 4384 O 443.878 5.47176 -1.56801 0
M  V30 4385 N 445.08 5.79718 0.301227 0
M  V30 4386 H 447.845 2.34895 -1.8613 0
M  V30 4387 H 445.406 1.17341 -1.11546 0
M  V30 4388 H 447.398 4.04697 0.0158407 0
M  V30 4389 H 445.968 3.08952 0.476149 0
M  V30 4390 H 445.188 3.40301 -1.9897 0
M  V30 4391 H 446.476 4.60967 -2.15376 0
M  V30 4392 H 445.874 5.58926 0.872849 0
M  V30 4393 H 444.431 6.48804 0.624211 0
M  V30 4394 N 447.864 1.01787 1.20321 0
M  V30 4395 C 449.141 0.622978 1.85414 0
M  V30 4396 C 449.521 -0.898887 1.91006 0
M  V30 4397 O 448.869 -1.79112 1.41884 0
M  V30 4398 C 449.079 1.27226 3.24984 0
M  V30 4399 C 450.427 1.3885 4.01255 0
M  V30 4400 O 451.451 1.22857 3.34342 0
M  V30 4401 O 450.31 1.64705 5.2109 0
M  V30 4402 H 447.404 0.215116 0.798533 0
M  V30 4403 H 449.95 1.11533 1.27901 0
M  V30 4404 H 448.722 2.31209 3.15687 0
M  V30 4405 H 448.345 0.767069 3.90131 0
M  V30 4406 N 449.342 -1.36122 0.79427 0
M  V30 4407 C 450.753 -1.81646 0.431446 0
M  V30 4408 C 451.104 -1.66043 -1.04518 0
M  V30 4409 O 450.229 -1.1841 -1.8113 0
M  V30 4410 C 450.824 -3.29785 0.776341 0
M  V30 4411 C 449.383 -3.73501 0.466282 0
M  V30 4412 C 448.53 -2.58313 1.00844 0
M  V30 4413 H 451.481 -1.24274 0.986995 0
M  V30 4414 H 451.502 -3.80437 0.0692413 0
M  V30 4415 H 451.014 -3.4111 1.8511 0
M  V30 4416 H 449.115 -3.67733 -0.600245 0
M  V30 4417 H 449.228 -4.68754 0.990288 0
M  V30 4418 H 447.592 -2.5102 0.431406 0
M  V30 4419 H 448.375 -2.72421 2.08906 0
M  V30 4420 N 450.82 -0.546701 -1.47814 0
M  V30 4421 C 452.06 -0.0209604 -2.04389 0
M  V30 4422 C 452.424 1.29993 -1.413 0
M  V30 4423 O 453.625 1.91273 -1.8886 0
M  V30 4424 C 451.896 0.0812844 -3.57308 0
M  V30 4425 S 453.455 0.55467 -4.3528 0
M  V30 4426 H 450.273 -0.0200865 -0.710716 0
M  V30 4427 H 452.875 -0.731055 -1.81317 0
M  V30 4428 H 451.579 -0.884616 -4.00753 0
M  V30 4429 H 451.11 0.815253 -3.8486 0
M  V30 4430 H 453.125 1.81627 -4.61764 0
M  V30 4431 N 452.299 1.55045 -0.282633 0
M  V30 4432 C 453.547 1.99365 0.331334 0
M  V30 4433 C 453.868 1.1725 1.55812 0
M  V30 4434 O 453.138 0.263871 1.94115 0
M  V30 4435 H 451.718 0.736397 0.125414 0
M  V30 4436 H 454.38 1.90964 -0.389711 0
M  V30 4437 H 453.476 3.0596 0.616036 0
M  V30 4438 N 453.777 0.010035 1.57597 0
M  V30 4439 C 455.188 -0.531426 1.78977 0
M  V30 4440 C 455.539 -1.73375 0.918454 0
M  V30 4441 O 454.664 -2.16047 0.123635 0
M  V30 4442 C 455.259 -0.97086 3.24592 0
M  V30 4443 C 453.818 -1.45756 3.47033 0
M  V30 4444 C 452.965 -0.413384 2.74201 0
M  V30 4445 H 455.916 0.236166 1.56933 0
M  V30 4446 H 455.937 -1.83633 3.33255 0
M  V30 4447 H 455.449 -0.0955893 3.87982 0
M  V30 4448 H 453.55 -2.35339 2.88871 0
M  V30 4449 H 453.663 -1.4781 4.55729 0
M  V30 4450 H 452.027 -0.877266 2.39115 0
M  V30 4451 H 452.81 0.453092 3.40297 0
M  V30 4452 N 455.255 -1.55392 -0.262866 0
M  V30 4453 C 456.532 -1.67204 -1.01499 0
M  V30 4454 C 456.912 -0.545186 -2.03939 0
M  V30 4455 O 456.26 0.453467 -2.23955 0
M  V30 4456 C 456.47 -3.06847 -1.6627 0
M  V30 4457 C 457.818 -3.64928 -2.17054 0
M  V30 4458 O 458.842 -3.09545 -1.76239 0
M  V30 4459 O 457.701 -4.61984 -2.91947 0
M  V30 4460 H 454.795 -0.679467 -0.471438 0
M  V30 4461 H 457.341 -1.67729 -0.257918 0
M  V30 4462 H 456.113 -3.80309 -0.920915 0
M  V30 4463 H 455.736 -3.10266 -2.48638 0
M  V30 4464 N 456.733 0.527833 -1.48498 0
M  V30 4465 C 457.973 1.29401 -1.58224 0
M  V30 4466 C 458.337 1.90348 -0.251327 0
M  V30 4467 O 459.538 2.67868 -0.223588 0
M  V30 4468 C 457.809 2.35266 -2.69044 0
M  V30 4469 S 459.368 3.2158 -2.98549 0
M  V30 4470 H 456.186 0.440138 -0.558391 0
M  V30 4471 H 458.788 0.601079 -1.8603 0
M  V30 4472 H 457.492 1.88975 -3.64303 0
M  V30 4473 H 457.023 3.09263 -2.43146 0
M  V30 4474 H 459.038 4.35391 -2.38011 0
M  V30 4475 N 458.211 1.37122 0.776871 0
M  V30 4476 C 459.174 1.32301 1.8716 0
M  V30 4477 C 460.174 0.228099 1.59174 0
M  V30 4478 O 461.364 0.483642 1.67352 0
M  V30 4479 C 458.496 1.054 3.24197 0
M  V30 4480 H 459.689 2.29673 1.92848 0
M  V30 4481 H 457.242 1.22077 0.97606 0
M  V30 4482 H 457.977 0.0853872 3.24188 0
M  V30 4483 H 457.762 1.84648 3.45901 0
M  V30 4484 H 459.252 1.04664 4.04271 0
M  V30 4485 N 459.689 -1.00246 1.21608 0
M  V30 4486 C 461.1 -1.55511 1.03312 0
M  V30 4487 C 461.451 -1.91946 -0.406332 0
M  V30 4488 O 460.576 -1.73753 -1.28992 0
M  V30 4489 C 461.171 -2.82576 1.86913 0
M  V30 4490 C 459.73 -3.34318 1.72941 0
M  V30 4491 C 458.877 -2.07487 1.83968 0
M  V30 4492 H 461.828 -0.824638 1.35593 0
M  V30 4493 H 461.849 -3.54559 1.38087 0
M  V30 4494 H 461.361 -2.56026 2.91672 0
M  V30 4495 H 459.462 -3.65797 0.70877 0
M  V30 4496 H 459.575 -4.05566 2.55055 0
M  V30 4497 H 457.939 -2.20603 1.27304 0
M  V30 4498 H 458.722 -1.83346 2.9024 0
M  V30 4499 N 461.167 -1.02423 -1.1978 0
M  V30 4500 C 462.578 -0.748389 -1.71044 0
M  V30 4501 C 462.929 0.732398 -1.82017 0
M  V30 4502 O 462.054 1.57116 -1.48807 0
M  V30 4503 C 462.649 -1.35187 -3.1066 0
M  V30 4504 C 461.208 -1.12472 -3.59203 0
M  V30 4505 C 460.355 -1.45283 -2.36195 0
M  V30 4506 H 463.306 -1.19275 -1.04686 0
M  V30 4507 H 463.327 -0.746408 -3.73107 0
M  V30 4508 H 462.839 -2.4296 -3.02642 0
M  V30 4509 H 460.94 -0.0649983 -3.72543 0
M  V30 4510 H 461.053 -1.81016 -4.43588 0
M  V30 4511 H 459.417 -0.872034 -2.39307 0
M  V30 4512 H 460.2 -2.54129 -2.30811 0
M  V30 4513 N 462.645 1.35699 -0.801477 0
M  V30 4514 C 463.608 2.28199 -0.213994 0
M  V30 4515 C 464.608 1.49359 0.595691 0
M  V30 4516 O 465.798 1.69186 0.414921 0
M  V30 4517 C 462.93 3.33587 0.702297 0
M  V30 4518 H 464.123 2.81666 -1.02976 0
M  V30 4519 H 461.676 1.45467 -0.571759 0
M  V30 4520 H 462.411 2.85297 1.54195 0
M  V30 4521 H 462.196 3.91906 0.123484 0
M  V30 4522 H 463.686 4.02638 1.10783 0
M  V30 4523 N 464.123 0.554532 1.47522 0
M  V30 4524 C 465.534 0.120446 1.86311 0
M  V30 4525 C 465.885 -1.30904 1.46145 0
M  V30 4526 O 465.01 -1.98434 0.863294 0
M  V30 4527 C 465.605 0.211808 3.38137 0
M  V30 4528 C 464.164 -0.167224 3.76028 0
M  V30 4529 C 463.311 0.560576 2.71575 0
M  V30 4530 H 466.262 0.764408 1.39077 0
M  V30 4531 H 466.283 -0.570275 3.76202 0
M  V30 4532 H 465.795 1.25232 3.6734 0
M  V30 4533 H 463.896 -1.20894 3.52442 0
M  V30 4534 H 464.009 0.189473 4.78725 0
M  V30 4535 H 462.373 0.00396836 2.547 0
M  V30 4536 H 463.156 1.60219 3.0362 0
M  V30 4537 N 465.601 -1.54893 0.290851 0
M  V30 4538 C 466.849 -1.99538 -0.320756 0
M  V30 4539 C 467.17 -1.18075 -1.55188 0
M  V30 4540 O 466.44 -0.274162 -1.93972 0
M  V30 4541 H 465.02 -0.737052 -0.121507 0
M  V30 4542 H 467.682 -1.90755 0.399832 0
M  V30 4543 H 466.778 -3.06282 -0.599802 0
M  V30 4544 N 467.08 -0.0183926 -1.57589 0
M  V30 4545 C 468.01 0.965596 -2.12599 0
M  V30 4546 C 468.991 1.34641 -1.0395 0
M  V30 4547 O 470.176 1.42693 -1.31729 0
M  V30 4548 C 467.306 2.25149 -2.64434 0
M  V30 4549 C 466.26 2.01175 -3.77773 0
M  V30 4550 C 465.586 3.35937 -4.15994 0
M  V30 4551 C 466.886 1.35953 -5.04296 0
M  V30 4552 H 468.58 0.507504 -2.95067 0
M  V30 4553 H 466.126 0.242671 -1.41941 0
M  V30 4554 H 468.079 2.94357 -3.01549 0
M  V30 4555 H 466.803 2.73105 -1.79112 0
M  V30 4556 H 465.462 1.34388 -3.4108 0
M  V30 4557 H 465.11 3.81631 -3.27669 0
M  V30 4558 H 464.81 3.20705 -4.92364 0
M  V30 4559 H 466.334 4.0643 -4.55683 0
M  V30 4560 H 467.748 1.95144 -5.39065 0
M  V30 4561 H 466.145 1.31152 -5.85593 0
M  V30 4562 H 467.215 0.331071 -4.83768 0
M  V30 4563 N 468.558 1.5553 0.254621 0
M  V30 4564 C 469.969 1.67518 0.824286 0
M  V30 4565 C 470.32 0.614429 1.86331 0
M  V30 4566 O 469.445 -0.240736 2.15057 0
M  V30 4567 C 470.04 3.03692 1.50189 0
M  V30 4568 C 468.599 3.17646 2.01935 0
M  V30 4569 C 467.746 2.63373 0.867746 0
M  V30 4570 H 470.697 1.58671 0.0305843 0
M  V30 4571 H 470.718 2.97706 2.36962 0
M  V30 4572 H 470.23 3.80874 0.745431 0
M  V30 4573 H 468.331 2.45273 2.80485 0
M  V30 4574 H 468.444 4.24455 2.22204 0
M  V30 4575 H 466.808 2.20999 1.26616 0
M  V30 4576 H 467.591 3.43074 0.124498 0
M  V30 4577 N 470.036 -0.519951 1.48776 0
M  V30 4578 C 471.452 -0.849418 1.35119 0
M  V30 4579 C 471.652 -1.98077 0.36982 0
M  V30 4580 O 470.708 -2.51664 -0.205359 0
M  V30 4581 C 472.021 -1.20748 2.75391 0
M  V30 4582 C 473.569 -1.31679 2.83954 0
M  V30 4583 C 474.044 -1.70824 4.24951 0
M  V30 4584 N 475.535 -1.77908 4.27672 0
M  V30 4585 C 476.27 -2.09603 5.33717 0
M  V30 4586 N 475.766 -2.39652 6.5003 0
M  V30 4587 N 477.559 -2.10694 5.21119 0
M  V30 4588 H 469.71 0.226377 2.1119 0
M  V30 4589 H 471.973 0.0386519 0.947212 0
M  V30 4590 H 471.679 -0.449703 3.48813 0
M  V30 4591 H 471.553 -2.15534 3.09556 0
M  V30 4592 H 473.94 -2.06532 2.10781 0
M  V30 4593 H 474.021 -0.3499 2.53396 0
M  V30 4594 H 473.665 -0.965282 4.98643 0
M  V30 4595 H 473.595 -2.6858 4.52959 0
M  V30 4596 H 476.086 -1.56923 3.43779 0
M  V30 4597 H 476.399 -2.6297 7.26682 0
M  V30 4598 H 474.744 -2.37149 6.53288 0
M  V30 4599 H 477.935 -1.86682 4.29264 0
M  V30 4600 H 478.108 -2.35062 6.03863 0
M  V30 4601 N 471.514 -1.37532 -0.769588 0
M  V30 4602 C 472.762 -1.32597 -1.5252 0
M  V30 4603 C 473.083 0.0884294 -1.94799 0
M  V30 4604 O 472.353 1.03289 -1.66458 0
M  V30 4605 H 470.933 -0.487846 -0.565699 0
M  V30 4606 H 473.595 -1.72044 -0.915806 0
M  V30 4607 H 472.691 -1.96643 -2.42359 0
M  V30 4608 N 472.992 0.995999 -1.22138 0
M  V30 4609 C 474.403 1.54961 -1.04135 0
M  V30 4610 C 474.754 1.92159 0.396147 0
M  V30 4611 O 473.879 1.74435 1.28069 0
M  V30 4612 C 474.474 2.81581 -1.88408 0
M  V30 4613 C 473.033 3.33396 -1.74712 0
M  V30 4614 C 472.18 2.06509 -1.85066 0
M  V30 4615 H 475.131 0.817436 -1.36028 0
M  V30 4616 H 475.152 3.53822 -1.39966 0
M  V30 4617 H 474.664 2.54476 -2.93025 0
M  V30 4618 H 472.765 3.65416 -0.728159 0
M  V30 4619 H 472.878 4.04208 -2.57202 0
M  V30 4620 H 471.242 2.19925 -1.28472 0
M  V30 4621 H 472.025 1.81804 -2.91208 0
M  V30 4622 N 474.47 1.03057 1.19235 0
M  V30 4623 C 475.71 0.736757 1.9066 0
M  V30 4624 C 476.074 -0.721521 1.77927 0
M  V30 4625 O 477.275 -1.12849 2.43964 0
M  V30 4626 C 475.546 1.17755 3.37444 0
M  V30 4627 S 477.105 1.00783 4.27069 0
M  V30 4628 H 473.923 0.268174 0.658486 0
M  V30 4629 H 476.525 1.32076 1.4414 0
M  V30 4630 H 475.229 2.23448 3.44237 0
M  V30 4631 H 474.76 0.586912 3.88997 0
M  V30 4632 H 476.775 -0.0806356 4.96134 0
M  V30 4633 N 475.948 -1.35272 0.808662 0
M  V30 4634 C 477.196 -1.98316 0.389233 0
M  V30 4635 C 477.517 -1.64465 -1.04767 0
M  V30 4636 O 476.787 -0.928175 -1.72516 0
M  V30 4637 H 475.367 -0.733585 0.140935 0
M  V30 4638 H 478.029 -1.6515 1.03496 0
M  V30 4639 H 477.125 -3.08123 0.496631 0
M  V30 4640 N 477.426 -0.562348 -1.47226 0
M  V30 4641 C 478.837 -0.130325 -1.86245 0
M  V30 4642 C 479.188 1.30128 -1.46838 0
M  V30 4643 O 478.313 1.97974 -0.873805 0
M  V30 4644 C 478.908 -0.229738 -3.3802 0
M  V30 4645 C 477.467 0.14728 -3.76112 0
M  V30 4646 C 476.614 -0.574971 -2.71274 0
M  V30 4647 H 479.565 -0.771773 -1.3867 0
M  V30 4648 H 479.586 0.550316 -3.76499 0
M  V30 4649 H 479.098 -1.27178 -3.66671 0
M  V30 4650 H 477.199 1.19023 -3.53078 0
M  V30 4651 H 477.312 -0.214858 -4.78618 0
M  V30 4652 H 475.676 -0.0174756 -2.54694 0
M  V30 4653 H 476.459 -1.61827 -3.02766 0
M  V30 4654 N 478.904 1.54736 -0.299062 0
M  V30 4655 C 480.181 1.92187 0.363802 0
M  V30 4656 C 480.561 1.22607 1.71845 0
M  V30 4657 O 479.909 0.361141 2.25628 0
M  V30 4658 C 480.119 3.45678 0.480377 0
M  V30 4659 C 481.467 4.17885 0.752147 0
M  V30 4660 O 482.491 3.51702 0.564264 0
M  V30 4661 O 481.35 5.35048 1.11294 0
M  V30 4662 H 478.444 0.801681 0.203066 0
M  V30 4663 H 480.99 1.66115 -0.346978 0
M  V30 4664 H 479.762 3.88443 -0.471999 0
M  V30 4665 H 479.385 3.77779 1.2397 0
M  V30 4666 N 480.382 0.0267497 1.57577 0
M  V30 4667 C 481.622 -0.65659 1.93567 0
M  V30 4668 C 481.986 -1.69429 0.903213 0
M  V30 4669 O 483.187 -2.42994 1.14923 0
M  V30 4670 C 481.458 -1.25912 3.34486 0
M  V30 4671 S 483.017 -1.96386 3.924 0
M  V30 4672 H 479.835 -0.216237 0.67732 0
M  V30 4673 H 482.437 0.0898475 1.95293 0
M  V30 4674 H 481.141 -0.491405 4.07447 0
M  V30 4675 H 480.672 -2.04291 3.36198 0
M  V30 4676 H 482.687 -3.24202 3.75643 0
M  V30 4677 N 481.861 -1.55662 -0.24637 0
M  V30 4678 C 482.824 -1.89558 -1.28842 0
M  V30 4679 C 483.824 -0.772082 -1.41052 0
M  V30 4680 O 485.014 -1.04007 -1.39743 0
M  V30 4681 C 482.146 -2.12449 -2.66605 0
M  V30 4682 H 483.339 -2.82735 -1.00004 0
M  V30 4683 H 480.892 -1.48562 -0.485684 0
M  V30 4684 H 481.627 -1.21742 -3.00582 0
M  V30 4685 H 481.412 -2.94273 -2.59125 0
M  V30 4686 H 482.902 -2.39854 -3.41847 0
M  V30 4687 N 483.339 0.512053 -1.4905 0
M  V30 4688 C 484.75 1.09376 -1.51307 0
M  V30 4689 C 485.101 1.94 -0.292971 0
M  V30 4690 O 484.226 2.07965 0.598277 0
M  V30 4691 C 484.821 1.99031 -2.74176 0
M  V30 4692 C 483.38 2.52385 -2.79247 0
M  V30 4693 C 482.527 1.29749 -2.45073 0
M  V30 4694 H 485.478 0.296467 -1.55906 0
M  V30 4695 H 485.499 2.83569 -2.53711 0
M  V30 4696 H 485.011 1.37412 -3.62959 0
M  V30 4697 H 483.112 3.17673 -1.94716 0
M  V30 4698 H 483.225 2.90293 -3.81139 0
M  V30 4699 H 481.589 1.61912 -1.96612 0
M  V30 4700 H 482.372 0.698555 -3.36118 0
M  V30 4701 N 484.817 1.37938 0.762283 0
M  V30 4702 C 486.228 1.30094 1.33912 0
M  V30 4703 C 486.579 -0.0472026 1.96143 0
M  V30 4704 O 485.704 -0.94917 1.94473 0
M  V30 4705 C 486.299 2.35592 2.43478 0
M  V30 4706 C 484.858 2.31353 2.96905 0
M  V30 4707 C 484.005 2.18919 1.70205 0
M  V30 4708 H 486.956 1.48423 0.561816 0
M  V30 4709 H 486.977 2.00806 3.23199 0
M  V30 4710 H 486.489 3.33701 1.98155 0
M  V30 4711 H 484.59 1.36799 3.46579 0
M  V30 4712 H 484.703 3.25147 3.51875 0
M  V30 4713 H 483.067 1.65624 1.93496 0
M  V30 4714 H 483.85 3.18956 1.26973 0
M  V30 4715 N 486.295 -0.989507 1.22664 0
M  V30 4716 C 487.258 -2.06183 1.00106 0
M  V30 4717 C 488.258 -1.60765 -0.0337726 0
M  V30 4718 O 489.448 -1.72989 0.205072 0
M  V30 4719 C 486.58 -3.37021 0.51279 0
M  V30 4720 H 487.773 -2.27629 1.95256 0
M  V30 4721 H 485.326 -1.16158 1.0458 0
M  V30 4722 H 486.061 -3.21261 -0.442917 0
M  V30 4723 H 485.846 -3.71323 1.25942 0
M  V30 4724 H 487.336 -4.1591 0.375315 0
M  V30 4725 N 487.773 -1.03688 -1.18687 0
M  V30 4726 C 489.184 -0.766488 -1.70241 0
M  V30 4727 C 489.535 0.713052 -1.82784 0
M  V30 4728 O 488.66 1.55529 -1.50465 0
M  V30 4729 C 489.255 -1.38475 -3.09209 0
M  V30 4730 C 487.814 -1.16276 -3.5799 0
M  V30 4731 C 486.961 -1.4778 -2.34641 0
M  V30 4732 H 489.912 -1.20378 -1.03415 0
M  V30 4733 H 489.933 -0.785939 -3.72295 0
M  V30 4734 H 489.445 -2.46157 -3.00048 0
M  V30 4735 H 487.546 -0.104508 -3.72453 0
M  V30 4736 H 487.659 -1.8571 -4.41643 0
M  V30 4737 H 486.023 -0.897366 -2.38368 0
M  V30 4738 H 486.806 -2.56562 -2.28102 0
M  V30 4739 N 489.251 1.34841 -0.815825 0
M  V30 4740 C 490.499 1.98107 -0.399744 0
M  V30 4741 C 490.82 1.65019 1.03894 0
M  V30 4742 O 490.09 0.937311 1.72021 0
M  V30 4743 H 488.67 0.732827 -0.144823 0
M  V30 4744 H 491.332 1.64599 -1.0437 0
M  V30 4745 H 490.428 3.07856 -0.512965 0
M  V30 4746 N 490.729 0.570148 1.46925 0
M  V30 4747 C 491.659 -0.158274 2.32963 0
M  V30 4748 C 492.64 -0.896093 1.44583 0
M  V30 4749 O 493.825 -0.874022 1.7342 0
M  V30 4750 C 490.955 -1.18055 3.26619 0
M  V30 4751 C 489.909 -0.558379 4.24342 0
M  V30 4752 C 489.235 -1.68623 5.07415 0
M  V30 4753 C 490.535 0.496295 5.19937 0
M  V30 4754 H 492.229 0.560046 2.94115 0
M  V30 4755 H 489.775 0.270775 1.41431 0
M  V30 4756 H 491.728 -1.69841 3.85658 0
M  V30 4757 H 490.452 -1.92899 2.63548 0
M  V30 4758 H 489.111 -0.0617157 3.66548 0
M  V30 4759 H 488.759 -2.42402 4.40738 0
M  V30 4760 H 488.459 -1.27564 5.73586 0
M  V30 4761 H 489.983 -2.20709 5.69315 0
M  V30 4762 H 491.397 0.0640052 5.73264 0
M  V30 4763 H 489.794 0.82649 5.94381 0
M  V30 4764 H 490.864 1.38735 4.6463 0
M  V30 4765 N 492.207 -1.54576 0.307264 0
M  V30 4766 C 493.618 -1.8579 -0.184121 0
M  V30 4767 C 493.969 -1.22914 -1.52927 0
M  V30 4768 O 493.094 -0.529126 -2.09831 0
M  V30 4769 C 493.689 -3.37081 -0.340862 0
M  V30 4770 C 492.248 -3.68304 -0.776465 0
M  V30 4771 C 491.395 -2.77076 0.111503 0
M  V30 4772 H 494.346 -1.49656 0.528078 0
M  V30 4773 H 494.367 -3.61922 -1.17443 0
M  V30 4774 H 493.879 -3.82815 0.638309 0
M  V30 4775 H 491.98 -3.28092 -1.76596 0
M  V30 4776 H 492.093 -4.75434 -0.591512 0
M  V30 4777 H 490.457 -2.51374 -0.410256 0
M  V30 4778 H 491.24 -3.25632 1.08714 0
M  V30 4779 N 493.685 -0.035106 -1.57561 0
M  V30 4780 C 494.617 0.973604 -2.07494 0
M  V30 4781 C 495.63 1.28504 -0.999534 0
M  V30 4782 O 496.819 1.24864 -1.27559 0
M  V30 4783 C 493.919 2.29945 -2.48955 0
M  V30 4784 C 493.092 2.1723 -3.79644 0
M  V30 4785 C 492.151 3.328 -4.07592 0
M  V30 4786 O 491.177 3.09418 -4.77754 0
M  V30 4787 N 492.379 4.56779 -3.58236 0
M  V30 4788 H 495.144 0.547525 -2.94656 0
M  V30 4789 H 492.705 0.151515 -1.61189 0
M  V30 4790 H 494.697 3.06097 -2.64739 0
M  V30 4791 H 493.267 2.64173 -1.67126 0
M  V30 4792 H 492.487 1.25768 -3.73599 0
M  V30 4793 H 493.775 2.05945 -4.65257 0
M  V30 4794 H 493.173 4.78668 -3.01485 0
M  V30 4795 H 491.73 5.30079 -3.79288 0
M  V30 4796 N 495.163 1.55791 0.238111 0
M  V30 4797 C 496.44 1.68798 0.98826 0
M  V30 4798 C 496.82 0.577562 2.03045 0
M  V30 4799 O 496.168 -0.41778 2.24648 0
M  V30 4800 C 496.378 3.09454 1.61367 0
M  V30 4801 C 497.726 3.68335 2.11221 0
M  V30 4802 O 498.75 3.1231 1.71292 0
M  V30 4803 O 497.609 4.6657 2.84561 0
M  V30 4804 H 494.703 0.686881 0.460568 0
M  V30 4805 H 497.249 1.68118 0.231202 0
M  V30 4806 H 496.021 3.81726 0.860295 0
M  V30 4807 H 495.644 3.14182 2.4367 0
M  V30 4808 N 496.642 -0.504142 1.49319 0
M  V30 4809 C 498.053 -1.08572 1.51885 0
M  V30 4810 C 498.404 -1.93842 0.303255 0
M  V30 4811 O 497.529 -2.0828 -0.58724 0
M  V30 4812 C 498.124 -1.97574 2.75227 0
M  V30 4813 C 496.683 -2.509 2.80581 0
M  V30 4814 C 495.83 -1.28447 2.45757 0
M  V30 4815 H 498.781 -0.288194 1.56061 0
M  V30 4816 H 498.802 -2.82219 2.55211 0
M  V30 4817 H 498.314 -1.35486 3.63683 0
M  V30 4818 H 496.415 -3.16636 1.96398 0
M  V30 4819 H 496.528 -2.88268 3.82673 0
M  V30 4820 H 494.892 -1.60868 1.97468 0
M  V30 4821 H 495.675 -0.68072 3.36483 0
M  V30 4822 N 498.12 -1.38341 -0.754957 0
M  V30 4823 C 499.36 -1.35888 -1.52689 0
M  V30 4824 C 499.724 0.0513682 -1.91931 0
M  V30 4825 O 500.925 0.200761 -2.68049 0
M  V30 4826 C 499.196 -2.28666 -2.74676 0
M  V30 4827 S 500.755 -2.4422 -3.64558 0
M  V30 4828 H 497.573 -0.482165 -0.522531 0
M  V30 4829 H 500.175 -1.74253 -0.886358 0
M  V30 4830 H 498.879 -3.30023 -2.43953 0
M  V30 4831 H 498.41 -1.91445 -3.43675 0
M  V30 4832 H 500.425 -1.66525 -4.67423 0
M  V30 4833 N 499.598 0.982988 -1.23187 0
M  V30 4834 C 500.846 1.72052 -1.06031 0
M  V30 4835 C 501.167 1.90769 0.404019 0
M  V30 4836 O 500.437 1.47446 1.28982 0
M  V30 4837 H 499.017 0.637499 -0.389363 0
M  V30 4838 H 501.679 1.18338 -1.54862 0
M  V30 4839 H 500.775 2.7111 -1.54615 0
M  V30 4840 N 501.076 1.04316 1.18135 0
M  V30 4841 C 502.487 0.775505 1.69832 0
M  V30 4842 C 502.838 -0.703348 1.8316 0
M  V30 4843 O 501.963 -1.54729 1.51287 0
M  V30 4844 C 502.558 1.40112 3.0847 0
M  V30 4845 C 501.117 1.18172 3.57368 0
M  V30 4846 C 500.264 1.49022 2.33854 0
M  V30 4847 H 503.215 1.20925 1.02775 0
M  V30 4848 H 503.236 0.805672 3.71873 0
M  V30 4849 H 502.748 2.47744 2.98738 0
M  V30 4850 H 500.849 0.124258 3.72393 0
M  V30 4851 H 500.962 1.8805 4.40652 0
M  V30 4852 H 499.326 0.909995 2.37889 0
M  V30 4853 H 500.109 2.57768 2.26738 0
M  V30 4854 N 502.554 -1.34406 0.822964 0
M  V30 4855 C 503.831 -1.92733 0.333641 0
M  V30 4856 C 504.211 -1.75107 -1.17901 0
M  V30 4857 O 503.559 -1.12983 -1.98613 0
M  V30 4858 C 503.769 -3.40557 0.763023 0
M  V30 4859 C 505.117 -4.17709 0.761879 0
M  V30 4860 O 506.141 -3.49141 0.705606 0
M  V30 4861 O 505 -5.40082 0.835109 0
M  V30 4862 H 502.094 -0.821964 0.0911249 0
M  V30 4863 H 504.64 -1.4338 0.907757 0
M  V30 4864 H 503.412 -3.47187 1.8049 0
M  V30 4865 H 503.035 -3.97259 0.164605 0
M  V30 4866 N 504.032 -0.577932 -1.46621 0
M  V30 4867 C 505.272 -0.0643097 -2.04299 0
M  V30 4868 C 505.636 1.26967 -1.44026 0
M  V30 4869 O 506.837 1.87224 -1.92875 0
M  V30 4870 C 505.108 0.00547588 -3.574 0
M  V30 4871 S 506.667 0.462216 -4.36359 0
M  V30 4872 H 503.485 -0.0351573 -0.71013 0
M  V30 4873 H 506.087 -0.76935 -1.79725 0
M  V30 4874 H 504.791 -0.969423 -3.98786 0
M  V30 4875 H 504.322 0.733435 -3.86503 0
M  V30 4876 H 506.337 1.71791 -4.65513 0
M  V30 4877 N 505.51 1.54411 -0.315457 0
M  V30 4878 C 506.473 2.22713 0.54142 0
M  V30 4879 C 507.473 1.2179 1.04995 0
M  V30 4880 O 508.663 1.46426 0.943667 0
M  V30 4881 C 505.795 2.92485 1.75116 0
M  V30 4882 H 506.988 2.99849 -0.0555508 0
M  V30 4883 H 504.541 1.56159 -0.0664453 0
M  V30 4884 H 505.276 2.19466 2.38758 0
M  V30 4885 H 505.061 3.66483 1.39401 0
M  V30 4886 H 506.551 3.44548 2.35959 0
M  V30 4887 N 506.988 0.0434614 1.5754 0
M  V30 4888 C 508.399 -0.493343 1.80064 0
M  V30 4889 C 508.75 -1.71388 0.955023 0
M  V30 4890 O 507.875 -2.15736 0.169434 0
M  V30 4891 C 508.47 -0.90179 3.26578 0
M  V30 4892 C 507.029 -1.38362 3.50047 0
M  V30 4893 C 506.176 -0.355129 2.75017 0
M  V30 4894 H 509.127 0.2694 1.56397 0
M  V30 4895 H 509.148 -1.76523 3.37075 0
M  V30 4896 H 508.66 -0.013271 3.88098 0
M  V30 4897 H 506.761 -2.29159 2.93798 0
M  V30 4898 H 506.874 -1.3811 4.58762 0
M  V30 4899 H 505.238 -0.826348 2.40922 0
M  V30 4900 H 506.021 0.525172 3.39259 0
M  V30 4901 N 508.466 -1.55915 -0.229846 0
M  V30 4902 C 509.877 -1.68809 -0.797531 0
M  V30 4903 C 510.228 -0.643995 -1.8533 0
M  V30 4904 O 509.353 0.206492 -2.15413 0
M  V30 4905 C 509.948 -3.06043 -1.45338 0
M  V30 4906 C 508.507 -3.20819 -1.96856 0
M  V30 4907 C 507.654 -2.6472 -0.825736 0
M  V30 4908 H 510.605 -1.58699 -0.00533733 0
M  V30 4909 H 510.626 -3.01438 -2.32196 0
M  V30 4910 H 510.138 -3.82012 -0.684743 0
M  V30 4911 H 508.239 -2.49704 -2.76548 0
M  V30 4912 H 508.352 -4.27937 -2.15423 0
M  V30 4913 H 506.716 -2.22985 -1.23084 0
M  V30 4914 H 507.499 -3.43229 -0.0699019 0
M  V30 4915 N 509.944 0.496216 -1.49584 0
M  V30 4916 C 510.907 1.57952 -1.66084 0
M  V30 4917 C 511.907 1.51729 -0.53244 0
M  V30 4918 O 513.097 1.54796 -0.79899 0
M  V30 4919 C 510.229 2.97604 -1.66268 0
M  V30 4920 H 511.422 1.44649 -2.6271 0
M  V30 4921 H 508.975 0.7208 -1.38687 0
M  V30 4922 H 509.71 3.16378 -0.712432 0
M  V30 4923 H 509.495 3.03528 -2.4822 0
M  V30 4924 H 510.985 3.76301 -1.81073 0
M  V30 4925 N 511.423 1.38739 0.74761 0
M  V30 4926 C 512.834 1.31507 1.32524 0
M  V30 4927 C 513.185 -0.0263963 1.96182 0
M  V30 4928 O 512.31 -0.92849 1.95469 0
M  V30 4929 C 512.905 2.38162 2.40966 0
M  V30 4930 C 511.464 2.34489 2.94434 0
M  V30 4931 C 510.611 2.20712 1.67873 0
M  V30 4932 H 513.562 1.4901 0.546043 0
M  V30 4933 H 513.583 2.04222 3.21051 0
M  V30 4934 H 513.095 3.35783 1.94605 0
M  V30 4935 H 511.196 1.40467 3.45108 0
M  V30 4936 H 511.309 3.28861 3.48407 0
M  V30 4937 H 509.673 1.67667 1.91729 0
M  V30 4938 H 510.456 3.20285 1.23582 0
M  V30 4939 N 512.901 -0.976442 1.23707 0
M  V30 4940 C 514.149 -1.71487 1.06942 0
M  V30 4941 C 514.47 -1.9098 -0.393897 0
M  V30 4942 O 513.74 -1.48128 -1.28198 0
M  V30 4943 H 512.32 -0.635425 0.392739 0
M  V30 4944 H 514.982 -1.17515 1.55487 0
M  V30 4945 H 514.078 -2.70286 1.56051 0
M  V30 4946 N 514.379 -1.04941 -1.1758 0
M  V30 4947 C 515.309 -0.669172 -2.23706 0
M  V30 4948 C 516.29 0.331835 -1.66832 0
M  V30 4949 O 517.475 0.209988 -1.93061 0
M  V30 4950 C 514.605 -0.0404889 -3.47276 0
M  V30 4951 C 513.559 -0.965983 -4.16957 0
M  V30 4952 C 512.885 -0.201312 -5.34321 0
M  V30 4953 C 514.185 -2.28902 -4.69469 0
M  V30 4954 H 515.879 -1.55639 -2.55767 0
M  V30 4955 H 513.425 -0.749793 -1.22939 0
M  V30 4956 H 515.378 0.237298 -4.20731 0
M  V30 4957 H 514.102 0.881658 -3.14475 0
M  V30 4958 H 512.761 -1.22829 -3.45411 0
M  V30 4959 H 512.409 0.723519 -4.97769 0
M  V30 4960 H 512.109 -0.817968 -5.81879 0
M  V30 4961 H 513.633 0.0692499 -6.10561 0
M  V30 4962 H 515.047 -2.07132 -5.34574 0
M  V30 4963 H 513.444 -2.85942 -5.27596 0
M  V30 4964 H 514.514 -2.92937 -3.86414 0
M  V30 4965 N 515.857 1.33968 -0.830081 0
M  V30 4966 C 517.268 1.80439 -0.479455 0
M  V30 4967 C 517.619 1.68756 1.00079 0
M  V30 4968 O 516.744 1.23171 1.77927 0
M  V30 4969 C 517.339 3.27611 -0.863505 0
M  V30 4970 C 515.898 3.72133 -0.565145 0
M  V30 4971 C 515.045 2.55549 -1.07657 0
M  V30 4972 H 517.996 1.21614 -1.0196 0
M  V30 4973 H 518.017 3.8012 -0.170083 0
M  V30 4974 H 517.529 3.36082 -1.94089 0
M  V30 4975 H 515.63 3.69196 0.502536 0
M  V30 4976 H 515.743 4.65963 -1.11422 0
M  V30 4977 H 514.107 2.49788 -0.497807 0
M  V30 4978 H 514.89 2.66786 -2.16055 0
M  V30 4979 N 517.335 0.585699 1.46312 0
M  V30 4980 C 518.746 0.159938 1.86014 0
M  V30 4981 C 519.097 -1.27775 1.48889 0
M  V30 4982 O 518.222 -1.96559 0.90519 0
M  V30 4983 C 518.817 0.283485 3.37612 0
M  V30 4984 C 517.376 -0.0874256 3.76298 0
M  V30 4985 C 516.523 0.618055 2.70325 0
M  V30 4986 H 519.474 0.793737 1.37425 0
M  V30 4987 H 519.495 -0.490348 3.77327 0
M  V30 4988 H 519.007 1.32995 3.64601 0
M  V30 4989 H 517.108 -1.13391 3.54927 0
M  V30 4990 H 517.221 0.290975 4.78216 0
M  V30 4991 H 515.585 0.057993 2.54634 0
M  V30 4992 H 516.368 1.66623 3.00153 0
M  V30 4993 N 518.813 -1.54241 0.323641 0
M  V30 4994 C 520.09 -1.92741 -0.333181 0
M  V30 4995 C 520.47 -1.25326 -1.69872 0
M  V30 4996 O 519.818 -0.396991 -2.25025 0
M  V30 4997 C 520.028 -3.46399 -0.425322 0
M  V30 4998 C 521.376 -4.19029 -0.68557 0
M  V30 4999 O 522.4 -3.52555 -0.50824 0
M  V30 5000 O 521.259 -5.36751 -1.02767 0
M  V30 5001 H 518.353 -0.804811 -0.190286 0
M  V30 5002 H 520.899 -1.65542 0.373361 0
M  V30 5003 H 519.671 -3.87643 0.533737 0
M  V30 5004 H 519.294 -3.79704 -1.17944 0
M  V30 5005 N 520.291 -0.0518155 -1.57515 0
M  V30 5006 C 521.702 0.483787 -1.80323 0
M  V30 5007 C 522.053 1.70879 -0.964099 0
M  V30 5008 O 521.178 2.15643 -0.180872 0
M  V30 5009 C 521.773 0.884459 -3.27052 0
M  V30 5010 C 520.332 1.36504 -3.50776 0
M  V30 5011 C 519.479 0.340539 -2.75201 0
M  V30 5012 H 522.43 -0.277691 -1.56252 0
M  V30 5013 H 522.451 1.74733 -3.38007 0
M  V30 5014 H 521.963 -0.00731093 -3.88099 0
M  V30 5015 H 520.064 2.27598 -2.95009 0
M  V30 5016 H 520.177 1.35675 -4.59488 0
M  V30 5017 H 518.541 0.81356 -2.41357 0
M  V30 5018 H 519.324 -0.543156 -3.38976 0
M  V30 5019 N 521.769 1.56035 0.221574 0
M  V30 5020 C 523.009 1.80822 0.953038 0
M  V30 5021 C 523.373 0.625316 1.81532 0
M  V30 5022 O 524.574 0.752491 2.58052 0
M  V30 5023 C 522.845 3.10503 1.76983 0
M  V30 5024 S 524.404 3.56604 2.55693 0
M  V30 5025 H 521.222 0.634849 0.320137 0
M  V30 5026 H 523.824 1.94274 0.218619 0
M  V30 5027 H 522.528 3.94636 1.12651 0
M  V30 5028 H 522.059 2.99858 2.54655 0
M  V30 5029 H 524.074 3.1994 3.79279 0
M  V30 5030 N 523.247 -0.488276 1.49845 0
M  V30 5031 C 524.495 -1.23911 1.59657 0
M  V30 5032 C 524.816 -1.92816 0.291005 0
M  V30 5033 O 524.086 -1.83328 -0.690485 0
M  V30 5034 H 522.666 -0.460357 0.588286 0
M  V30 5035 H 525.328 -0.564794 1.86537 0
M  V30 5036 H 524.424 -1.99625 2.39909 0
M  V30 5037 N 524.725 -1.39134 -0.740242 0
M  V30 5038 C 525.95 -1.39518 -1.53459 0
M  V30 5039 C 526.375 0.00968883 -1.88098 0
M  V30 5040 O 525.733 0.995312 -1.51536 0
M  V30 5041 C 525.781 -2.26981 -2.802 0
M  V30 5042 O 524.885 -1.69609 -3.75908 0
M  V30 5043 H 524.226 -0.475328 -0.463637 0
M  V30 5044 H 526.756 -1.83064 -0.913717 0
M  V30 5045 H 526.766 -2.41309 -3.28989 0
M  V30 5046 H 525.441 -3.29081 -2.5432 0
M  V30 5047 H 524.018 -1.64495 -3.34658 0
M  V30 5048 N 526.204 0.969867 -1.24223 0
M  V30 5049 C 527.152 2.08535 -1.03034 0
M  V30 5050 C 528.146 1.69366 0.0340379 0
M  V30 5051 O 529.352 1.79597 -0.12034 0
M  V30 5052 H 525.727 0.682313 -0.316154 0
M  V30 5053 H 527.698 2.23569 -1.97635 0
M  V30 5054 C 526.447 3.4158 -0.649509 0
M  V30 5055 H 525.77 3.72177 -1.46028 0
M  V30 5056 H 527.21 4.20536 -0.540841 0
M  V30 5057 C 525.669 3.30703 0.643194 0
M  V30 5058 O 526.199 3.64443 1.68951 0
M  V30 5059 N 524.405 2.83841 0.623095 0
M  V30 5060 H 523.952 2.56583 -0.228719 0
M  V30 5061 H 523.91 2.76946 1.48823 0
M  V30 5062 N 527.682 1.05563 1.17022 0
M  V30 5063 C 528.922 0.777033 1.89054 0
M  V30 5064 C 529.286 -0.683617 1.79418 0
M  V30 5065 O 530.487 -1.07648 2.46303 0
M  V30 5066 C 528.758 1.24886 3.34871 0
M  V30 5067 S 530.317 1.0982 4.24835 0
M  V30 5068 H 527.135 0.282082 0.652649 0
M  V30 5069 H 529.737 1.35103 1.41306 0
M  V30 5070 H 528.441 2.30699 3.3942 0
M  V30 5071 H 527.972 0.669292 3.87665 0
M  V30 5072 H 529.987 0.02462 4.96194 0
M  V30 5073 N 529.16 -1.33526 0.837174 0
M  V30 5074 C 530.123 -2.27551 0.274421 0
M  V30 5075 C 531.123 -1.50886 -0.555881 0
M  V30 5076 O 532.313 -1.70227 -0.369918 0
M  V30 5077 C 529.445 -3.35332 -0.613605 0
M  V30 5078 H 530.638 -2.78837 1.10408 0
M  V30 5079 H 528.191 -1.439 0.610126 0
M  V30 5080 H 528.926 -2.89285 -1.46577 0
M  V30 5081 H 528.711 -3.92095 -0.0195341 0
M  V30 5082 H 530.201 -4.05433 -1.00068 0
M  V30 5083 N 530.638 -0.59345 -1.46 0
M  V30 5084 C 532.049 -0.169801 -1.85926 0
M  V30 5085 C 532.4 1.26984 -1.49565 0
M  V30 5086 O 531.525 1.96076 -0.915602 0
M  V30 5087 C 532.12 -0.301385 -3.37457 0
M  V30 5088 C 530.679 0.0674684 -3.7634 0
M  V30 5089 C 529.826 -0.632383 -2.69993 0
M  V30 5090 H 532.777 -0.801014 -1.37002 0
M  V30 5091 H 532.798 0.470331 -3.77582 0
M  V30 5092 H 532.31 -1.34927 -3.63891 0
M  V30 5093 H 530.411 1.11507 -3.55523 0
M  V30 5094 H 530.524 -0.316332 -4.78055 0
M  V30 5095 H 528.888 -0.0714961 -2.546 0
M  V30 5096 H 529.671 -1.68212 -2.99265 0
M  V30 5097 N 532.116 1.54067 -0.331816 0
M  V30 5098 C 533.527 1.86059 0.15454 0
M  V30 5099 C 533.878 1.25331 1.50952 0
M  V30 5100 O 533.003 0.562441 2.08963 0
M  V30 5101 C 533.598 3.37581 0.287192 0
M  V30 5102 C 532.157 3.69493 0.717773 0
M  V30 5103 C 531.304 2.76863 -0.155569 0
M  V30 5104 H 534.255 1.48797 -0.55182 0
M  V30 5105 H 534.276 3.63744 1.11671 0
M  V30 5106 H 533.788 3.81751 -0.699131 0
M  V30 5107 H 531.889 3.3086 1.71354 0
M  V30 5108 H 532.002 4.76315 0.5158 0
M  V30 5109 H 530.366 2.51995 0.370213 0
M  V30 5110 H 531.149 3.23861 -1.13881 0
M  V30 5111 N 533.594 0.0601682 1.57485 0
M  V30 5112 C 534.871 -0.651956 1.84415 0
M  V30 5113 C 535.251 -1.88498 0.950361 0
M  V30 5114 O 534.599 -2.28496 0.0136719 0
M  V30 5115 C 534.809 -1.00069 3.34346 0
M  V30 5116 C 536.157 -1.37915 4.01578 0
M  V30 5117 O 537.181 -1.09277 3.39024 0
M  V30 5118 O 536.04 -1.91399 5.11887 0
M  V30 5119 H 533.134 -0.322668 0.761455 0
M  V30 5120 H 535.68 0.0902159 1.6946 0
M  V30 5121 H 534.452 -0.124463 3.91102 0
M  V30 5122 H 534.075 -1.80001 3.54521 0
M  V30 5123 N 535.072 -1.5615 -0.213296 0
M  V30 5124 C 536.035 -1.92249 -1.24792 0
M  V30 5125 C 537.035 -0.801828 -1.39382 0
M  V30 5126 O 538.225 -1.06948 -1.37506 0
M  V30 5127 C 535.357 -2.18056 -2.62039 0
M  V30 5128 H 536.55 -2.84793 -0.939845 0
M  V30 5129 H 534.103 -1.49559 -0.454062 0
M  V30 5130 H 534.838 -1.2809 -2.97932 0
M  V30 5131 H 534.623 -2.99703 -2.52825 0
M  V30 5132 H 536.113 -2.47051 -3.36683 0
M  V30 5133 N 536.55 0.480323 -1.50102 0
M  V30 5134 C 537.796 1.23489 -1.60867 0
M  V30 5135 C 538.129 1.91809 -0.303827 0
M  V30 5136 O 537.404 1.81694 0.694092 0
M  V30 5137 C 537.687 2.28578 -2.78252 0
M  V30 5138 C 537.54 1.64624 -4.18592 0
M  V30 5139 C 538.859 3.2997 -2.91218 0
M  V30 5140 H 535.978 0.447605 -0.585507 0
M  V30 5141 H 538.62 0.530005 -1.82458 0
M  V30 5142 H 536.77 2.88697 -2.59974 0
M  V30 5143 H 538.442 1.08173 -4.48438 0
M  V30 5144 H 536.685 0.949645 -4.23278 0
M  V30 5145 H 537.356 2.40946 -4.96638 0
M  V30 5146 H 539.832 2.79864 -3.07921 0
M  V30 5147 H 538.708 4.00839 -3.74993 0
M  V30 5148 H 538.969 3.93541 -2.0144 0
M  V30 5149 N 538.028 1.39524 0.732853 0
M  V30 5150 C 539.444 1.21176 1.03868 0
M  V30 5151 C 539.644 0.0748448 2.01361 0
M  V30 5152 O 538.7 -0.57281 2.45917 0
M  V30 5153 C 540.013 2.54667 1.59892 0
M  V30 5154 C 541.561 2.6153 1.71962 0
M  V30 5155 C 542.036 3.95248 2.31394 0
M  V30 5156 N 543.527 3.96899 2.38801 0
M  V30 5157 C 544.262 4.97138 2.85729 0
M  V30 5158 N 543.758 6.07775 3.32537 0
M  V30 5159 N 545.551 4.84516 2.84957 0
M  V30 5160 H 537.702 2.12225 0.086304 0
M  V30 5161 H 539.965 0.942614 0.100907 0
M  V30 5162 H 539.671 3.38423 0.95721 0
M  V30 5163 H 539.545 2.74538 2.58668 0
M  V30 5164 H 541.932 1.78156 2.35254 0
M  V30 5165 H 542.013 2.45507 0.718327 0
M  V30 5166 H 541.657 4.79054 1.68729 0
M  V30 5167 H 541.587 4.08593 3.32204 0
M  V30 5168 H 544.078 3.16998 2.05719 0
M  V30 5169 H 544.391 6.8017 3.66862 0
M  V30 5170 H 542.736 6.11366 3.30541 0
M  V30 5171 H 545.927 3.97185 2.47713 0
M  V30 5172 H 546.1 5.62783 3.21215 0
M  V30 5173 N 539.506 -0.963266 1.24736 0
M  V30 5174 C 540.469 -2.04013 1.04457 0
M  V30 5175 C 541.469 -1.608 0.000335555 0
M  V30 5176 O 542.659 -1.72515 0.241719 0
M  V30 5177 C 539.791 -3.35858 0.584162 0
M  V30 5178 H 540.984 -2.23436 2.00041 0
M  V30 5179 H 538.537 -1.13914 1.07021 0
M  V30 5180 H 539.272 -3.22128 -0.374673 0
M  V30 5181 H 539.057 -3.68568 1.3379 0
M  V30 5182 H 540.547 -4.1502 0.463451 0
M  V30 5183 N 540.985 -1.06182 -1.16461 0
M  V30 5184 C 541.948 -0.675723 -2.19013 0
M  V30 5185 C 542.948 0.277963 -1.58379 0
M  V30 5186 O 544.138 0.0604962 -1.74095 0
M  V30 5187 C 541.27 0.00591459 -3.40899 0
M  V30 5188 H 542.463 -1.58353 -2.54685 0
M  V30 5189 H 540.016 -0.856908 -1.30716 0
M  V30 5190 H 540.751 0.92652 -3.10783 0
M  V30 5191 H 540.536 -0.67984 -3.86161 0
M  V30 5192 H 542.026 0.26181 -4.16778 0
M  V30 5193 N 542.463 1.3308 -0.844243 0
M  V30 5194 C 543.426 2.27403 -0.286485 0
M  V30 5195 C 544.426 1.51179 0.547872 0
M  V30 5196 O 545.616 1.70421 0.360886 0
M  V30 5197 C 542.748 3.35653 0.595813 0
M  V30 5198 H 543.941 2.78248 -1.11885 0
M  V30 5199 H 541.494 1.43574 -0.617749 0
M  V30 5200 H 542.229 2.90058 1.4504 0
M  V30 5201 H 542.014 3.921 -0.00125994 0
M  V30 5202 H 543.504 4.05958 0.979168 0
M  V30 5203 N 543.941 0.601185 1.45683 0
M  V30 5204 C 544.871 -0.108824 2.33246 0
M  V30 5205 C 545.852 -0.865223 1.46451 0
M  V30 5206 O 547.037 -0.83704 1.75235 0
M  V30 5207 C 544.167 -1.11101 3.2905 0
M  V30 5208 C 543.121 -0.468244 4.25431 0
M  V30 5209 C 542.447 -1.57822 5.10878 0
M  V30 5210 C 543.747 0.606469 5.18767 0
M  V30 5211 H 545.441 0.622306 2.92861 0
M  V30 5212 H 542.987 0.300714 1.40825 0
M  V30 5213 H 544.94 -1.61622 3.89174 0
M  V30 5214 H 543.664 -1.87265 2.67581 0
M  V30 5215 H 542.323 0.0160484 3.66596 0
M  V30 5216 H 541.971 -2.32998 4.45781 0
M  V30 5217 H 541.671 -1.15369 5.76163 0
M  V30 5218 H 543.195 -2.08583 5.73869 0
M  V30 5219 H 544.609 0.185589 5.73 0
M  V30 5220 H 543.006 0.952381 5.92494 0
M  V30 5221 H 544.076 1.48559 4.61582 0
M  V30 5222 N 545.419 -1.53889 0.339982 0
M  V30 5223 C 546.83 -1.86139 -0.144671 0
M  V30 5224 C 547.181 -1.2613 -1.50285 0
M  V30 5225 O 546.306 -0.573515 -2.08662 0
M  V30 5226 C 546.901 -3.37728 -0.269285 0
M  V30 5227 C 545.46 -3.69868 -0.698168 0
M  V30 5228 C 544.607 -2.76777 0.170249 0
M  V30 5229 H 547.558 -1.48503 0.559704 0
M  V30 5230 H 547.579 -3.64331 -1.0974 0
M  V30 5231 H 547.091 -3.81375 0.719366 0
M  V30 5232 H 545.192 -3.31764 -1.69597 0
M  V30 5233 H 545.305 -4.76582 -0.490533 0
M  V30 5234 H 543.669 -2.52188 -0.356844 0
M  V30 5235 H 544.452 -3.23253 1.15597 0
M  V30 5236 N 546.897 -0.0685191 -1.57451 0
M  V30 5237 C 548.308 0.464634 -1.80826 0
M  V30 5238 C 548.659 1.69847 -0.982169 0
M  V30 5239 O 547.784 2.15439 -0.203734 0
M  V30 5240 C 548.379 0.849721 -3.27971 0
M  V30 5241 C 546.938 1.32776 -3.52204 0
M  V30 5242 C 546.085 0.311332 -2.75547 0
M  V30 5243 H 549.036 -0.294248 -1.55948 0
M  V30 5244 H 549.057 1.71138 -3.39841 0
M  V30 5245 H 548.569 -0.0484736 -3.8807 0
M  V30 5246 H 546.67 2.24456 -2.97406 0
M  V30 5247 H 546.783 1.30794 -4.60901 0
M  V30 5248 H 545.147 0.787915 -2.42206 0
M  V30 5249 H 545.93 -0.579078 -3.38381 0
M  V30 5250 N 548.375 1.56261 0.205012 0
M  V30 5251 C 549.307 1.90266 1.27795 0
M  V30 5252 C 550.32 0.792397 1.42214 0
M  V30 5253 O 551.509 1.07077 1.42817 0
M  V30 5254 C 548.609 2.11074 2.65143 0
M  V30 5255 C 547.782 3.42176 2.7246 0
M  V30 5256 C 546.841 3.52216 3.90936 0
M  V30 5257 O 545.867 4.25119 3.78501 0
M  V30 5258 N 547.069 2.84573 5.05963 0
M  V30 5259 H 549.834 2.82896 0.989434 0
M  V30 5260 H 547.395 1.57008 0.394981 0
M  V30 5261 H 549.387 2.15089 3.4281 0
M  V30 5262 H 547.957 1.2499 2.86524 0
M  V30 5263 H 547.177 3.50116 1.81142 0
M  V30 5264 H 548.465 4.28509 2.74331 0
M  V30 5265 H 547.863 2.25152 5.18963 0
M  V30 5266 H 546.42 2.94228 5.81613 0
M  V30 5267 N 549.853 -0.472356 1.50355 0
M  V30 5268 C 551.081 -1.24784 1.65035 0
M  V30 5269 C 551.496 -1.85837 0.333176 0
M  V30 5270 O 550.853 -1.69168 -0.68472 0
M  V30 5271 C 550.904 -2.35747 2.74054 0
M  V30 5272 O 550.625 -1.77197 4.00665 0
M  V30 5273 C 552.126 -3.26645 2.99696 0
M  V30 5274 H 549.346 -0.377432 0.554785 0
M  V30 5275 H 551.89 -0.563962 1.9657 0
M  V30 5276 H 550.045 -2.99912 2.45217 0
M  V30 5277 H 550.459 -2.5026 4.60945 0
M  V30 5278 H 551.933 -4.00718 3.79644 0
M  V30 5279 H 552.41 -3.8535 2.10718 0
M  V30 5280 H 553.016 -2.68218 3.3006 0
M  V30 5281 N 551.331 -1.39911 -0.725443 0
M  V30 5282 C 552.742 -1.33599 -1.30415 0
M  V30 5283 C 553.093 -0.00481792 -1.96199 0
M  V30 5284 O 552.218 0.897275 -1.96921 0
M  V30 5285 C 552.813 -2.41965 -2.37146 0
M  V30 5286 C 551.372 -2.39144 -2.90667 0
M  V30 5287 C 550.519 -2.23355 -1.64341 0
M  V30 5288 H 553.47 -1.4986 -0.522267 0
M  V30 5289 H 553.491 -2.09304 -3.17761 0
M  V30 5290 H 553.003 -3.38837 -1.89238 0
M  V30 5291 H 551.104 -1.4594 -3.4283 0
M  V30 5292 H 551.217 -3.34362 -3.43131 0
M  V30 5293 H 549.581 -1.70696 -1.89037 0
M  V30 5294 H 550.364 -3.2221 -1.18471 0
M  V30 5295 N 552.809 0.956637 -1.25245 0
M  V30 5296 C 554.22 1.51569 -1.09012 0
M  V30 5297 C 554.571 1.93322 0.334813 0
M  V30 5298 O 553.696 1.78421 1.22454 0
M  V30 5299 C 554.291 2.75444 -1.97271 0
M  V30 5300 C 552.85 3.27669 -1.8523 0
M  V30 5301 C 551.997 2.00517 -1.91542 0
M  V30 5302 H 554.948 0.773746 -1.3856 0
M  V30 5303 H 554.969 3.4919 -1.51151 0
M  V30 5304 H 554.481 2.45024 -3.00973 0
M  V30 5305 H 552.582 3.62914 -0.844045 0
M  V30 5306 H 552.695 3.9582 -2.69932 0
M  V30 5307 H 551.059 2.15727 -1.35404 0
M  V30 5308 H 551.842 1.72448 -2.96844 0
M  V30 5309 N 554.287 1.06798 1.15896 0
M  V30 5310 C 555.219 0.641263 2.20046 0
M  V30 5311 C 556.232 -0.303355 1.59949 0
M  V30 5312 O 557.421 -0.0935478 1.78255 0
M  V30 5313 C 554.521 -0.0794029 3.38807 0
M  V30 5314 C 553.694 0.879986 4.28457 0
M  V30 5315 C 552.753 0.197638 5.25829 0
M  V30 5316 O 551.779 0.836913 5.63014 0
M  V30 5317 N 552.981 -1.05886 5.70761 0
M  V30 5318 H 555.746 1.53718 2.57276 0
M  V30 5319 H 553.307 0.951951 1.30956 0
M  V30 5320 H 555.299 -0.546418 4.00994 0
M  V30 5321 H 553.869 -0.877193 3.0004 0
M  V30 5322 H 553.089 1.52625 3.63454 0
M  V30 5323 H 554.377 1.53065 4.8523 0
M  V30 5324 H 553.775 -1.59828 5.42652 0
M  V30 5325 H 552.332 -1.46965 6.35015 0
M  V30 5326 N 555.766 -1.3263 0.851289 0
M  V30 5327 C 556.994 -2.01563 0.466899 0
M  V30 5328 C 557.409 -1.63996 -0.935447 0
M  V30 5329 O 556.766 -0.85957 -1.6099 0
M  V30 5330 C 556.817 -3.56613 0.592433 0
M  V30 5331 O 556.538 -3.92828 1.93954 0
M  V30 5332 C 558.039 -4.42818 0.206612 0
M  V30 5333 H 555.259 -0.645307 0.183902 0
M  V30 5334 H 557.803 -1.69285 1.1473 0
M  V30 5335 H 555.958 -3.87379 -0.0401936 0
M  V30 5336 H 556.372 -4.87545 1.9339 0
M  V30 5337 H 557.846 -5.50918 0.345462 0
M  V30 5338 H 558.323 -4.30844 -0.85264 0
M  V30 5339 H 558.929 -4.17434 0.814176 0
M  V30 5340 N 557.244 -0.608902 -1.45362 0
M  V30 5341 C 558.66 -0.272659 -1.57254 0
M  V30 5342 C 558.86 1.22477 -1.60005 0
M  V30 5343 O 557.916 2.00785 -1.53106 0
M  V30 5344 C 559.229 -0.944991 -2.85465 0
M  V30 5345 C 560.777 -0.921033 -2.99142 0
M  V30 5346 C 561.252 -1.5734 -4.30126 0
M  V30 5347 N 562.743 -1.53895 -4.36887 0
M  V30 5348 C 563.478 -2.01286 -5.36909 0
M  V30 5349 N 562.974 -2.56768 -6.43461 0
M  V30 5350 N 564.767 -1.92046 -5.28275 0
M  V30 5351 H 556.918 -1.58117 -1.4182 0
M  V30 5352 H 559.181 -0.662437 -0.678146 0
M  V30 5353 H 558.887 -1.99941 -2.89338 0
M  V30 5354 H 558.761 -0.469079 -3.74272 0
M  V30 5355 H 561.148 0.124846 -2.94836 0
M  V30 5356 H 561.229 -1.43522 -2.11743 0
M  V30 5357 H 560.873 -2.61862 -4.35191 0
M  V30 5358 H 560.803 -1.03422 -5.16344 0
M  V30 5359 H 563.294 -1.13366 -3.60495 0
M  V30 5360 H 563.607 -2.9072 -7.16032 0
M  V30 5361 H 561.952 -2.60808 -6.44208 0
M  V30 5362 H 565.143 -1.48439 -4.43941 0
M  V30 5363 H 565.316 -2.29293 -6.06077 0
M  V30 5364 N 558.722 1.53707 -0.348139 0
M  V30 5365 C 560.138 1.596 0.00361134 0
M  V30 5366 C 560.338 1.36394 1.4832 0
M  V30 5367 O 559.394 1.16046 2.24253 0
M  V30 5368 C 560.707 2.97512 -0.436682 0
M  V30 5369 C 562.255 3.10568 -0.389416 0
M  V30 5370 C 562.73 4.50866 -0.805249 0
M  V30 5371 N 564.221 4.56929 -0.759616 0
M  V30 5372 C 564.956 5.63643 -1.05327 0
M  V30 5373 N 564.452 6.78189 -1.41531 0
M  V30 5374 N 566.245 5.5354 -0.977207 0
M  V30 5375 H 558.396 1.67044 -1.31187 0
M  V30 5376 H 560.659 0.782559 -0.535075 0
M  V30 5377 H 560.365 3.19575 -1.46849 0
M  V30 5378 H 560.239 3.76742 0.185744 0
M  V30 5379 H 562.626 2.88226 0.633228 0
M  V30 5380 H 562.707 2.33387 -1.04711 0
M  V30 5381 H 562.351 4.73943 -1.82593 0
M  V30 5382 H 562.281 5.26452 -0.124989 0
M  V30 5383 H 564.772 3.74675 -0.49265 0
M  V30 5384 H 565.085 7.55541 -1.62411 0
M  V30 5385 H 563.43 6.79624 -1.45381 0
M  V30 5386 H 566.621 4.62932 -0.693675 0
M  V30 5387 H 566.794 6.36614 -1.2094 0
M  V30 5388 N 560.2 0.0768682 1.57412 0
M  V30 5389 C 561.616 -0.279772 1.57129 0
M  V30 5390 C 561.816 -1.69688 1.08666 0
M  V30 5391 O 560.872 -2.40953 0.754843 0
M  V30 5392 C 562.185 -0.0848055 3.0058 0
M  V30 5393 C 563.733 -0.153954 3.12621 0
M  V30 5394 C 564.208 0.0127946 4.57998 0
M  V30 5395 N 565.699 -0.0426435 4.6318 0
M  V30 5396 C 566.434 0.0618892 5.73367 0
M  V30 5397 N 565.93 0.220229 6.9245 0
M  V30 5398 N 567.723 0.00446072 5.621 0
M  V30 5399 H 559.874 1.00297 1.87228 0
M  V30 5400 H 562.137 0.391565 0.863354 0
M  V30 5401 H 561.843 0.89325 3.40168 0
M  V30 5402 H 561.717 -0.834961 3.67843 0
M  V30 5403 H 564.104 -1.1225 2.72917 0
M  V30 5404 H 564.185 0.627389 2.47987 0
M  V30 5405 H 563.829 0.978128 4.98392 0
M  V30 5406 H 563.759 -0.788016 5.20671 0
M  V30 5407 H 566.25 -0.163226 3.77547 0
M  V30 5408 H 566.563 0.291999 7.72248 0
M  V30 5409 H 564.908 0.255658 6.9453 0
M  V30 5410 H 568.099 -0.117979 4.67951 0
M  V30 5411 H 568.272 0.0893796 6.47938 0
M  V30 5412 N 561.678 -1.56367 -0.196722 0
M  V30 5413 C 563.094 -1.49916 -0.54749 0
M  V30 5414 C 563.294 -0.77659 -1.85934 0
M  V30 5415 O 562.35 -0.32644 -2.50381 0
M  V30 5416 C 563.663 -2.94577 -0.603734 0
M  V30 5417 C 565.211 -3.05239 -0.692677 0
M  V30 5418 C 565.686 -4.51308 -0.780046 0
M  V30 5419 N 567.177 -4.55453 -0.843616 0
M  V30 5420 C 567.912 -5.65786 -0.931358 0
M  V30 5421 N 567.408 -6.85812 -0.981503 0
M  V30 5422 N 569.201 -5.53695 -0.968421 0
M  V30 5423 H 561.352 -2.01761 0.663803 0
M  V30 5424 H 563.615 -0.918094 0.236238 0
M  V30 5425 H 563.321 -3.50494 0.29105 0
M  V30 5426 H 563.195 -3.47841 -1.45898 0
M  V30 5427 H 565.582 -2.49372 -1.57789 0
M  V30 5428 H 565.663 -2.55103 0.188736 0
M  V30 5429 H 565.307 -5.078 0.100811 0
M  V30 5430 H 565.237 -4.99176 -1.67724 0
M  V30 5431 H 567.728 -3.69025 -0.814176 0
M  V30 5432 H 568.041 -7.65648 -1.04892 0
M  V30 5433 H 566.386 -6.88474 -0.950208 0
M  V30 5434 H 569.577 -4.58848 -0.926072 0
M  V30 5435 H 569.75 -6.39708 -1.03334 0
M  V30 5436 N 563.156 0.464375 -1.50603 0
M  V30 5437 C 564.572 0.798684 -1.38178 0
M  V30 5438 C 564.772 1.96568 -0.44308 0
M  V30 5439 O 563.828 2.52252 0.111814 0
M  V30 5440 C 565.141 1.10444 -2.79683 0
M  V30 5441 C 566.689 1.2105 -2.88645 0
M  V30 5442 C 567.164 1.54934 -4.30998 0
M  V30 5443 N 568.655 1.61913 -4.3398 0
M  V30 5444 C 569.39 1.8965 -5.41129 0
M  V30 5445 N 568.886 2.15361 -6.58477 0
M  V30 5446 N 570.679 1.91207 -5.28579 0
M  V30 5447 H 562.83 -0.304603 -2.10204 0
M  V30 5448 H 565.093 -0.0737804 -0.945125 0
M  V30 5449 H 564.799 0.319934 -3.50242 0
M  V30 5450 H 564.673 2.03896 -3.17342 0
M  V30 5451 H 567.06 1.98567 -2.18301 0
M  V30 5452 H 567.141 0.255613 -2.5452 0
M  V30 5453 H 566.785 0.779549 -5.01882 0
M  V30 5454 H 566.715 2.51584 -4.62615 0
M  V30 5455 H 569.206 1.44055 -3.49366 0
M  V30 5456 H 569.519 2.35818 -7.35941 0
M  V30 5457 H 567.864 2.1274 -6.6164 0
M  V30 5458 H 571.055 1.70622 -4.35897 0
M  V30 5459 H 571.228 2.12488 -6.12171 0
M  V30 5460 N 564.634 1.40294 0.718013 0
M  V30 5461 C 565.597 1.4012 1.81381 0
M  V30 5462 C 566.597 0.295405 1.58063 0
M  V30 5463 O 567.787 0.554187 1.6515 0
M  V30 5464 C 564.919 1.19056 3.19435 0
M  V30 5465 H 566.112 2.37645 1.82933 0
M  V30 5466 H 563.665 1.26107 0.923405 0
M  V30 5467 H 564.4 0.222809 3.23534 0
M  V30 5468 H 564.185 1.99152 3.37758 0
M  V30 5469 H 565.675 1.21716 3.99468 0
M  V30 5470 N 566.112 -0.949982 1.2575 0
M  V30 5471 C 567.059 -2.04738 1.06541 0
M  V30 5472 C 568.029 -1.66078 -0.0268818 0
M  V30 5473 O 569.214 -1.90348 0.131196 0
M  V30 5474 C 566.354 -3.38027 0.695127 0
M  V30 5475 C 565.467 -3.89776 1.86276 0
M  V30 5476 C 564.602 -5.11411 1.4364 0
M  V30 5477 C 563.641 -5.554 2.57287 0
M  V30 5478 N 562.778 -6.68244 2.15395 0
M  V30 5479 H 567.618 -2.20502 2.00457 0
M  V30 5480 H 565.155 -1.0805 0.998178 0
M  V30 5481 H 567.113 -4.14641 0.461375 0
M  V30 5482 H 565.743 -3.22135 -0.207046 0
M  V30 5483 H 564.795 -3.0964 2.20969 0
M  V30 5484 H 566.107 -4.18368 2.71606 0
M  V30 5485 H 565.261 -5.95457 1.16257 0
M  V30 5486 H 564 -4.84545 0.553879 0
M  V30 5487 H 563.005 -4.69916 2.85409 0
M  V30 5488 H 564.23 -5.84272 3.46125 0
M  V30 5489 H 562.176 -6.43078 1.29565 0
M  V30 5490 H 562.093 -6.96377 2.94272 0
M  V30 5491 H 563.361 -7.55687 1.91201 0
M  V30 5492 N 567.59 -1.07411 -1.15328 0
M  V30 5493 C 568.839 -0.792643 -1.85473 0
M  V30 5494 C 569.152 0.683789 -1.83259 0
M  V30 5495 O 570.358 1.08005 -2.49093 0
M  V30 5496 C 568.814 -1.36787 -3.32892 0
M  V30 5497 C 568.422 -2.87536 -3.43551 0
M  V30 5498 C 570.166 -1.16444 -4.08217 0
M  V30 5499 C 568.073 -3.38247 -4.85122 0
M  V30 5500 H 567.003 -0.292838 -0.694811 0
M  V30 5501 H 569.654 -1.29426 -1.30082 0
M  V30 5502 H 568.036 -0.793993 -3.87958 0
M  V30 5503 H 569.21 -3.50973 -2.98588 0
M  V30 5504 H 567.525 -3.06676 -2.81672 0
M  V30 5505 H 570.122 -1.51808 -5.12697 0
M  V30 5506 H 570.465 -0.10353 -4.16171 0
M  V30 5507 H 570.998 -1.70472 -3.59422 0
M  V30 5508 H 567.737 -4.43866 -4.82351 0
M  V30 5509 H 567.257 -2.79564 -5.30664 0
M  V30 5510 H 568.936 -3.34238 -5.5398 0
M  V30 5511 N 569.068 1.32177 -0.85831 0
M  V30 5512 C 570.296 2.01313 -0.477582 0
M  V30 5513 C 570.711 1.6449 0.926736 0
M  V30 5514 O 570.068 0.868096 1.60531 0
M  V30 5515 C 570.119 3.56293 -0.611337 0
M  V30 5516 O 569.84 3.91794 -1.96034 0
M  V30 5517 C 571.341 4.42702 -0.230093 0
M  V30 5518 H 568.561 0.644323 -0.187322 0
M  V30 5519 H 571.105 1.68674 -1.15626 0
M  V30 5520 H 569.26 3.87395 0.0196494 0
M  V30 5521 H 569.674 4.86513 -1.95973 0
M  V30 5522 H 571.148 5.50727 -0.374674 0
M  V30 5523 H 571.625 4.3129 0.829779 0
M  V30 5524 H 572.231 4.16997 -0.836302 0
M  V30 5525 N 570.547 0.616602 1.45037 0
M  V30 5526 C 571.795 0.115103 2.01772 0
M  V30 5527 C 572.116 -1.2622 1.48639 0
M  V30 5528 O 571.386 -1.83563 0.684199 0
M  V30 5529 H 569.966 0.0395607 0.745952 0
M  V30 5530 H 572.628 0.800032 1.77723 0
M  V30 5531 H 571.724 0.0717274 3.12018 0
M  V30 5532 N 572.025 -1.5352 0.356285 0
M  V30 5533 C 573.441 -1.59599 0.00485267 0
M  V30 5534 C 573.641 -1.37179 -1.47595 0
M  V30 5535 O 572.697 -1.17234 -2.23635 0
M  V30 5536 C 574.01 -2.97277 0.452454 0
M  V30 5537 C 575.558 -3.10357 0.405881 0
M  V30 5538 C 576.033 -4.50432 0.829148 0
M  V30 5539 N 577.524 -4.5652 0.783838 0
M  V30 5540 C 578.259 -5.63077 1.08315 0
M  V30 5541 N 577.755 -6.77429 1.45126 0
M  V30 5542 N 579.548 -5.53014 1.00655 0
M  V30 5543 H 571.699 -1.66346 1.32071 0
M  V30 5544 H 573.962 -0.77971 0.539218 0
M  V30 5545 H 573.668 -3.18792 1.48542 0
M  V30 5546 H 573.542 -3.76836 -0.165762 0
M  V30 5547 H 575.929 -2.88558 -0.617934 0
M  V30 5548 H 576.01 -2.32828 1.05947 0
M  V30 5549 H 575.654 -4.72968 1.85103 0
M  V30 5550 H 575.584 -5.26378 0.152906 0
M  V30 5551 H 578.075 -3.74408 0.512513 0
M  V30 5552 H 578.388 -7.54669 1.66415 0
M  V30 5553 H 576.733 -6.78844 1.48983 0
M  V30 5554 H 579.924 -4.62557 0.718215 0
M  V30 5555 H 580.097 -6.35964 1.24315 0
M  V30 5556 N 573.503 -0.0852151 -1.57369 0
M  V30 5557 C 574.413 0.891712 -2.16992 0
M  V30 5558 C 575.429 1.3174 -1.13669 0
M  V30 5559 O 576.605 1.38735 -1.45995 0
M  V30 5560 C 573.67 2.13635 -2.73059 0
M  V30 5561 C 572.731 1.7658 -3.91303 0
M  V30 5562 C 571.964 2.95111 -4.44686 0
M  V30 5563 O 572.187 4.09539 -3.97032 0
M  V30 5564 O 571.121 2.74149 -5.35841 0
M  V30 5565 H 574.947 0.414477 -3.00858 0
M  V30 5566 H 572.532 0.138598 -1.48756 0
M  V30 5567 H 574.414 2.86595 -3.08935 0
M  V30 5568 H 573.089 2.6043 -1.92244 0
M  V30 5569 H 571.996 1.00831 -3.60255 0
M  V30 5570 H 573.329 1.34557 -4.7345 0
M  V30 5571 N 574.981 1.5647 0.188427 0
M  V30 5572 C 576.397 1.50204 0.539532 0
M  V30 5573 C 576.597 0.78644 1.85519 0
M  V30 5574 O 575.653 0.339714 2.50204 0
M  V30 5575 C 576.966 2.94893 0.588103 0
M  V30 5576 C 578.514 3.05602 0.67648 0
M  V30 5577 C 578.989 4.51716 0.756101 0
M  V30 5578 N 580.48 4.55894 0.819451 0
M  V30 5579 C 581.215 5.66272 0.90134 0
M  V30 5580 N 580.711 6.86323 0.945118 0
M  V30 5581 N 582.504 5.54201 0.939043 0
M  V30 5582 H 574.655 2.01406 -0.674493 0
M  V30 5583 H 576.918 0.916828 -0.241103 0
M  V30 5584 H 576.624 3.50334 -0.309633 0
M  V30 5585 H 576.498 3.4861 1.44051 0
M  V30 5586 H 578.885 2.50206 1.56465 0
M  V30 5587 H 578.966 2.54999 -0.202262 0
M  V30 5588 H 578.61 5.07739 -0.12774 0
M  V30 5589 H 578.54 5.00058 1.65074 0
M  V30 5590 H 581.031 3.69452 0.794594 0
M  V30 5591 H 581.344 7.66194 1.0083 0
M  V30 5592 H 579.689 6.88968 0.913683 0
M  V30 5593 H 582.88 4.59333 0.901725 0
M  V30 5594 H 583.053 6.40247 0.999402 0
M  V30 5595 N 576.459 -0.456382 1.50847 0
M  V30 5596 C 577.406 -1.55249 1.70782 0
M  V30 5597 C 578.376 -1.56757 0.549231 0
M  V30 5598 O 579.561 -1.74061 0.7815 0
M  V30 5599 C 576.701 -2.93118 1.82143 0
M  V30 5600 C 575.814 -3.01285 3.09598 0
M  V30 5601 C 574.949 -4.30159 3.11667 0
M  V30 5602 C 573.988 -4.32124 4.33515 0
M  V30 5603 N 573.125 -5.52492 4.3324 0
M  V30 5604 H 577.965 -1.37555 2.64353 0
M  V30 5605 H 575.502 -0.668543 1.3103 0
M  V30 5606 H 577.46 -3.73088 1.86711 0
M  V30 5607 H 576.09 -3.09413 0.919978 0
M  V30 5608 H 575.142 -2.14096 3.14431 0
M  V30 5609 H 576.454 -2.98597 3.99551 0
M  V30 5610 H 575.608 -5.18489 3.15046 0
M  V30 5611 H 574.347 -4.35477 2.1957 0
M  V30 5612 H 573.352 -3.42189 4.30333 0
M  V30 5613 H 574.577 -4.28485 5.26856 0
M  V30 5614 H 572.523 -5.58567 3.44004 0
M  V30 5615 H 572.44 -5.51605 5.16979 0
M  V30 5616 H 573.708 -6.42906 4.40786 0
M  V30 5617 N 577.937 -1.40673 -0.710563 0
M  V30 5618 C 578.9 -1.4108 -1.80635 0
M  V30 5619 C 579.9 -0.303783 -1.57904 0
M  V30 5620 O 581.09 -0.562937 -1.64853 0
M  V30 5621 C 578.222 -1.20748 -3.18799 0
M  V30 5622 H 579.415 -2.38612 -1.81671 0
M  V30 5623 H 576.968 -1.26595 -0.916704 0
M  V30 5624 H 577.703 -0.239964 -3.23411 0
M  V30 5625 H 577.488 -2.00941 -3.36698 0
M  V30 5626 H 578.978 -1.23833 -3.98817 0
M  V30 5627 N 579.415 0.9433 -1.26252 0
M  V30 5628 C 580.348 2.04162 -1.01946 0
M  V30 5629 C 581.326 1.62507 0.0550808 0
M  V30 5630 O 582.51 1.883 -0.0869025 0
M  V30 5631 C 579.637 3.34313 -0.54335 0
M  V30 5632 C 578.683 3.94939 -1.61013 0
M  V30 5633 S 579.516 4.29484 -3.19849 0
M  V30 5634 C 580.672 5.62738 -2.74001 0
M  V30 5635 H 580.905 2.24466 -1.94942 0
M  V30 5636 H 578.438 1.08441 -1.09909 0
M  V30 5637 H 580.396 4.09576 -0.275315 0
M  V30 5638 H 579.057 3.11957 0.36629 0
M  V30 5639 H 578.25 4.88812 -1.22795 0
M  V30 5640 H 577.852 3.26202 -1.82943 0
M  V30 5641 H 580.144 6.41356 -2.18333 0
M  V30 5642 H 581.087 6.05839 -3.66558 0
M  V30 5643 H 581.495 5.22514 -2.13634 0
M  V30 5644 N 580.893 1.08022 1.14757 0
M  V30 5645 C 582.309 0.807072 1.3769 0
M  V30 5646 C 582.509 -0.585504 1.92806 0
M  V30 5647 O 581.565 -1.34301 2.13821 0
M  V30 5648 C 582.878 1.88651 2.34161 0
M  V30 5649 C 584.426 1.91206 2.47809 0
M  V30 5650 C 584.901 2.98253 3.47576 0
M  V30 5651 N 586.392 2.974 3.55117 0
M  V30 5652 C 587.127 3.76872 4.32152 0
M  V30 5653 N 586.623 4.66212 5.12463 0
M  V30 5654 N 588.416 3.6519 4.27309 0
M  V30 5655 H 580.567 1.97824 0.77326 0
M  V30 5656 H 582.83 0.85826 0.402608 0
M  V30 5657 H 582.536 2.88749 2.00791 0
M  V30 5658 H 582.41 1.75244 3.3402 0
M  V30 5659 H 584.797 0.917564 2.80472 0
M  V30 5660 H 584.878 2.08691 1.47925 0
M  V30 5661 H 584.522 3.97907 3.15646 0
M  V30 5662 H 584.452 2.78014 4.47231 0
M  V30 5663 H 586.943 2.32643 2.97801 0
M  V30 5664 H 587.256 5.23468 5.68508 0
M  V30 5665 H 585.601 4.70257 5.11745 0
M  V30 5666 H 588.792 2.94765 3.63636 0
M  V30 5667 H 588.965 4.27366 4.87095 0
M  V30 5668 N 582.371 -1.3172 0.865308 0
M  V30 5669 C 583.617 -1.97168 0.474633 0
M  V30 5670 C 583.95 -1.68263 -0.969604 0
M  V30 5671 O 583.225 -0.976588 -1.68205 0
M  V30 5672 C 583.508 -3.52689 0.726808 0
M  V30 5673 C 583.361 -3.91185 2.22024 0
M  V30 5674 C 584.68 -4.39689 0.190201 0
M  V30 5675 H 581.799 -0.716185 0.17392 0
M  V30 5676 H 584.441 -1.55925 1.08569 0
M  V30 5677 H 582.591 -3.8795 0.206705 0
M  V30 5678 H 584.263 -3.66049 2.80724 0
M  V30 5679 H 582.506 -3.3996 2.69462 0
M  V30 5680 H 583.177 -4.99604 2.34735 0
M  V30 5681 H 585.653 -4.11225 0.635103 0
M  V30 5682 H 584.529 -5.47469 0.396132 0
M  V30 5683 H 584.79 -4.32683 -0.907625 0
M  V30 5684 N 583.85 -0.624285 -1.44708 0
M  V30 5685 C 584.779 0.0717025 -2.3339 0
M  V30 5686 C 585.76 0.841814 -1.47809 0
M  V30 5687 O 586.946 0.809056 -1.76544 0
M  V30 5688 C 584.076 1.05852 -3.30776 0
M  V30 5689 C 583.029 0.400503 -4.26122 0
M  V30 5690 C 582.356 1.49674 -5.13324 0
M  V30 5691 C 583.656 -0.688924 -5.17737 0
M  V30 5692 H 585.35 -0.668819 -2.91834 0
M  V30 5693 H 582.896 -0.32308 -1.40329 0
M  V30 5694 H 584.849 1.5541 -3.91696 0
M  V30 5695 H 583.572 1.82984 -2.70526 0
M  V30 5696 H 582.231 -0.0743687 -3.66525 0
M  V30 5697 H 581.88 2.25877 -4.49431 0
M  V30 5698 H 581.58 1.06188 -5.77926 0
M  V30 5699 H 583.104 1.99427 -5.77115 0
M  V30 5700 H 584.518 -0.276724 -5.72632 0
M  V30 5701 H 582.915 -1.04652 -5.90904 0
M  V30 5702 H 583.985 -1.55884 -4.5916 0
M  V30 5703 N 585.328 1.53329 -0.364422 0
M  V30 5704 C 586.739 1.86345 0.115039 0
M  V30 5705 C 587.09 1.28505 1.4826 0
M  V30 5706 O 586.215 0.606639 2.07723 0
M  V30 5707 C 586.81 3.38114 0.215522 0
M  V30 5708 C 585.369 3.70932 0.639237 0
M  V30 5709 C 584.516 2.76471 -0.214261 0
M  V30 5710 H 587.467 1.47593 -0.583258 0
M  V30 5711 H 587.488 3.66031 1.0393 0
M  V30 5712 H 587 3.80182 -0.779948 0
M  V30 5713 H 585.101 3.3442 1.64298 0
M  V30 5714 H 585.214 4.77302 0.41465 0
M  V30 5715 H 583.578 2.52724 0.316678 0
M  V30 5716 H 584.361 3.21373 -1.20725 0
M  V30 5717 N 586.806 0.0935595 1.57322 0
M  V30 5718 C 588.052 -0.571355 1.94585 0
M  V30 5719 C 588.385 -1.67929 0.975366 0
M  V30 5720 O 587.66 -1.94498 0.00816206 0
M  V30 5721 C 587.943 -1.12797 3.41978 0
M  V30 5722 C 587.796 -0.0251881 4.49793 0
M  V30 5723 C 589.115 -2.02682 3.90651 0
M  V30 5724 H 586.234 -0.206223 0.70756 0
M  V30 5725 H 588.876 0.163956 1.89291 0
M  V30 5726 H 587.026 -1.75461 3.4662 0
M  V30 5727 H 588.698 0.608979 4.57263 0
M  V30 5728 H 586.941 0.641399 4.29032 0
M  V30 5729 H 587.612 -0.455433 5.50118 0
M  V30 5730 H 590.088 -1.49925 3.88152 0
M  V30 5731 H 588.964 -2.38555 4.94351 0
M  V30 5732 H 589.225 -2.94362 3.29854 0
M  V30 5733 N 588.284 -1.56567 -0.180126 0
M  V30 5734 C 589.53 -1.81761 -0.899497 0
M  V30 5735 C 589.863 -0.670015 -1.82276 0
M  V30 5736 O 589.138 0.328575 -1.91705 0
M  V30 5737 C 589.421 -3.17296 -1.7028 0
M  V30 5738 C 589.274 -4.4257 -0.803255 0
M  V30 5739 C 590.593 -3.49678 -2.67233 0
M  V30 5740 H 587.712 -0.661192 -0.325567 0
M  V30 5741 H 590.354 -1.89272 -0.16612 0
M  V30 5742 H 588.504 -3.11023 -2.32802 0
M  V30 5743 H 590.176 -4.60902 -0.191585 0
M  V30 5744 H 588.419 -4.33658 -0.110796 0
M  V30 5745 H 589.09 -5.33935 -1.40064 0
M  V30 5746 H 591.566 -3.56347 -2.14839 0
M  V30 5747 H 590.442 -4.45605 -3.20511 0
M  V30 5748 H 590.703 -2.73932 -3.47007 0
M  V30 5749 N 589.762 0.448376 -1.51087 0
M  V30 5750 C 591.008 1.20049 -1.6345 0
M  V30 5751 C 591.341 1.91121 -0.344444 0
M  V30 5752 O 590.616 1.83125 0.655396 0
M  V30 5753 C 590.899 2.22624 -2.83038 0
M  V30 5754 C 590.752 1.55708 -4.21989 0
M  V30 5755 C 592.071 3.23718 -2.98152 0
M  V30 5756 H 589.19 0.435085 -0.59487 0
M  V30 5757 H 591.832 0.491183 -1.83541 0
M  V30 5758 H 589.982 2.83117 -2.66039 0
M  V30 5759 H 591.654 0.986367 -4.50631 0
M  V30 5760 H 589.897 0.859647 -4.25197 0
M  V30 5761 H 590.568 2.30357 -5.01637 0
M  V30 5762 H 593.044 2.73269 -3.13788 0
M  V30 5763 H 591.92 3.92795 -3.83411 0
M  V30 5764 H 592.181 3.89179 -2.09743 0
M  V30 5765 N 591.24 1.41047 0.703093 0
M  V30 5766 C 592.488 1.39723 1.4602 0
M  V30 5767 C 592.809 0.00461257 1.94999 0
M  V30 5768 O 592.079 -0.952292 1.71196 0
M  V30 5769 H 590.659 0.514281 0.541779 0
M  V30 5770 H 593.321 1.76217 0.832678 0
M  V30 5771 H 592.417 2.07982 2.32701 0
M  V30 5772 N 592.718 -0.936591 1.26751 0
M  V30 5773 C 593.681 -2.01752 1.08761 0
M  V30 5774 C 594.681 -1.60763 0.0344435 0
M  V30 5775 O 595.871 -1.71963 0.278258 0
M  V30 5776 C 593.003 -3.34543 0.655271 0
M  V30 5777 H 594.196 -2.19143 2.04735 0
M  V30 5778 H 591.749 -1.11618 1.09413 0
M  V30 5779 H 592.484 -3.22851 -0.30626 0
M  V30 5780 H 592.269 -3.65647 1.41578 0
M  V30 5781 H 593.759 -4.13944 0.551378 0
M  V30 5782 N 594.196 -1.08629 -1.14182 0
M  V30 5783 C 595.443 -0.817345 -1.85272 0
M  V30 5784 C 595.771 0.656917 -1.83071 0
M  V30 5785 O 595.026 1.49897 -1.25815 0
M  V30 5786 C 595.325 -1.28734 -3.3341 0
M  V30 5787 C 594.991 -2.76981 -3.55798 0
M  V30 5788 C 593.653 -3.17469 -3.61617 0
M  V30 5789 C 596.005 -3.72605 -3.64438 0
M  V30 5790 C 593.333 -4.52371 -3.736 0
M  V30 5791 C 595.685 -5.07286 -3.77947 0
M  V30 5792 C 594.349 -5.47376 -3.82016 0
M  V30 5793 H 593.619 -0.299088 -0.677958 0
M  V30 5794 H 596.266 -1.35962 -1.34857 0
M  V30 5795 H 594.571 -0.664702 -3.8612 0
M  V30 5796 H 596.268 -1.05598 -3.86846 0
M  V30 5797 H 592.858 -2.44644 -3.51919 0
M  V30 5798 H 597.042 -3.42443 -3.5923 0
M  V30 5799 H 592.298 -4.82882 -3.75013 0
M  V30 5800 H 596.472 -5.81243 -3.83575 0
M  V30 5801 H 594.099 -6.51906 -3.91054 0
M  V30 5802 N 595.674 1.31259 -0.872281 0
M  V30 5803 C 596.604 2.30929 -0.345554 0
M  V30 5804 C 597.585 1.60449 0.5648 0
M  V30 5805 O 598.77 1.8814 0.481335 0
M  V30 5806 C 595.9 3.44348 0.451823 0
M  V30 5807 C 594.854 4.26435 -0.365641 0
M  V30 5808 C 594.18 5.31785 0.557562 0
M  V30 5809 C 595.48 4.97159 -1.60095 0
M  V30 5810 H 597.174 2.75234 -1.17841 0
M  V30 5811 H 594.72 1.3232 -0.568094 0
M  V30 5812 H 596.673 4.13128 0.830854 0
M  V30 5813 H 595.397 2.98816 1.31821 0
M  V30 5814 H 594.056 3.59326 -0.726649 0
M  V30 5815 H 593.704 4.82502 1.4213 0
M  V30 5816 H 593.404 5.87598 0.0144878 0
M  V30 5817 H 594.928 6.03424 0.933387 0
M  V30 5818 H 596.342 5.58523 -1.29323 0
M  V30 5819 H 594.739 5.62779 -2.08327 0
M  V30 5820 H 595.809 4.24012 -2.35249 0
M  V30 5821 N 597.152 0.631951 1.44375 0
M  V30 5822 C 598.082 -0.0593243 2.33425 0
M  V30 5823 C 599.063 -0.833964 1.48253 0
M  V30 5824 O 600.248 -0.799682 1.76971 0
M  V30 5825 C 597.378 -1.04096 3.31333 0
M  V30 5826 C 596.332 -0.377899 4.26328 0
M  V30 5827 C 595.658 -1.4695 5.14111 0
M  V30 5828 C 596.958 0.716371 5.17364 0
M  V30 5829 H 598.652 0.684287 2.91475 0
M  V30 5830 H 596.198 0.330518 1.40156 0
M  V30 5831 H 598.151 -1.53331 3.92514 0
M  V30 5832 H 596.875 -1.81547 2.71493 0
M  V30 5833 H 595.534 0.0938054 3.6648 0
M  V30 5834 H 595.182 -2.2349 4.50623 0
M  V30 5835 H 594.882 -1.03121 5.78481 0
M  V30 5836 H 596.406 -1.96363 5.78164 0
M  V30 5837 H 597.82 0.307089 5.72477 0
M  V30 5838 H 596.217 1.07784 5.90341 0
M  V30 5839 H 597.287 1.58316 4.58327 0
M  V30 5840 N 598.631 -1.53133 0.372548 0
M  V30 5841 C 599.871 -2.03267 -0.214943 0
M  V30 5842 C 600.235 -1.25362 -1.45425 0
M  V30 5843 O 601.436 -1.65536 -2.11781 0
M  V30 5844 C 599.707 -3.53985 -0.492897 0
M  V30 5845 S 601.266 -4.25977 -1.05307 0
M  V30 5846 H 598.084 -0.708289 -0.062029 0
M  V30 5847 H 600.686 -1.88539 0.517025 0
M  V30 5848 H 599.39 -4.08282 0.416442 0
M  V30 5849 H 598.921 -3.72887 -1.25375 0
M  V30 5850 H 600.936 -4.37731 -2.33679 0
M  V30 5851 N 600.109 -0.101901 -1.5727 0
M  V30 5852 C 601.355 0.554864 -1.95686 0
M  V30 5853 C 601.71 1.65368 -0.983415 0
M  V30 5854 O 601.003 1.91597 -0.0105374 0
M  V30 5855 C 601.197 1.14898 -3.38427 0
M  V30 5856 C 601.026 0.109251 -4.49567 0
M  V30 5857 C 599.796 -0.316633 -5.04307 0
M  V30 5858 C 601.994 -0.665196 -5.0998 0
M  V30 5859 N 599.976 -1.34393 -5.99009 0
M  V30 5860 C 601.347 -1.54413 -6.00464 0
M  V30 5861 C 603.402 -0.717966 -4.92696 0
M  V30 5862 C 602.105 -2.47122 -6.75517 0
M  V30 5863 C 604.131 -1.63268 -5.68417 0
M  V30 5864 C 603.493 -2.49923 -6.58572 0
M  V30 5865 H 599.592 0.17317 -0.762585 0
M  V30 5866 H 602.176 -0.18605 -1.93809 0
M  V30 5867 H 600.347 1.85969 -3.40984 0
M  V30 5868 H 602.079 1.76867 -3.64006 0
M  V30 5869 H 598.834 0.0724419 -4.73545 0
M  V30 5870 H 599.258 -1.85598 -6.51062 0
M  V30 5871 H 603.9 -0.0621637 -4.22754 0
M  V30 5872 H 601.618 -3.13724 -7.44717 0
M  V30 5873 H 605.204 -1.67874 -5.57054 0
M  V30 5874 H 604.084 -3.19553 -7.16139 0
M  V30 5875 N 601.587 1.56661 0.17182 0
M  V30 5876 C 602.815 1.861 0.904115 0
M  V30 5877 C 603.23 0.687227 1.75848 0
M  V30 5878 O 602.587 -0.343671 1.79235 0
M  V30 5879 C 602.638 3.14568 1.78127 0
M  V30 5880 O 602.359 4.27422 0.961366 0
M  V30 5881 C 603.86 3.5735 2.62327 0
M  V30 5882 H 601.08 0.617445 0.262684 0
M  V30 5883 H 603.624 2.03775 0.172068 0
M  V30 5884 H 601.779 2.98721 2.46666 0
M  V30 5885 H 602.193 5.00725 1.56123 0
M  V30 5886 H 603.667 4.50144 3.1949 0
M  V30 5887 H 604.144 2.81445 3.37173 0
M  V30 5888 H 604.75 3.75807 1.99121 0
M  V30 5889 N 603.065 -0.440357 1.51323 0
M  V30 5890 C 604.476 -1.02032 1.56353 0
M  V30 5891 C 604.827 -1.92382 0.385197 0
M  V30 5892 O 603.952 -2.10583 -0.498373 0
M  V30 5893 C 604.547 -1.85723 2.83359 0
M  V30 5894 C 603.106 -2.38774 2.90971 0
M  V30 5895 C 602.253 -1.17908 2.50984 0
M  V30 5896 H 605.204 -0.221744 1.57143 0
M  V30 5897 H 605.225 -2.71141 2.66951 0
M  V30 5898 H 604.737 -1.19939 3.69102 0
M  V30 5899 H 602.838 -3.08021 2.09651 0
M  V30 5900 H 602.951 -2.71778 3.94555 0
M  V30 5901 H 601.315 -1.52347 2.04114 0
M  V30 5902 H 602.098 -0.537393 3.39068 0
M  V30 5903 N 604.543 -1.41418 -0.695603 0
M  V30 5904 C 605.79 -1.40774 -1.45564 0
M  V30 5905 C 606.118 -0.0168604 -1.94493 0
M  V30 5906 O 605.373 0.971259 -1.69897 0
M  V30 5907 C 605.672 -2.36112 -2.68302 0
M  V30 5908 C 605.338 -3.82952 -2.38031 0
M  V30 5909 C 604 -4.22954 -2.29486 0
M  V30 5910 C 606.352 -4.75662 -2.13061 0
M  V30 5911 C 603.68 -5.53674 -1.94067 0
M  V30 5912 C 606.032 -6.06702 -1.79151 0
M  V30 5913 C 604.696 -6.45725 -1.69102 0
M  V30 5914 H 603.966 -0.515128 -0.532658 0
M  V30 5915 H 606.613 -1.74216 -0.795047 0
M  V30 5916 H 604.918 -1.95924 -3.39295 0
M  V30 5917 H 606.615 -2.32887 -3.26442 0
M  V30 5918 H 603.205 -3.5127 -2.45576 0
M  V30 5919 H 607.389 -4.45561 -2.18608 0
M  V30 5920 H 602.645 -5.8279 -1.8484 0
M  V30 5921 H 606.819 -6.78041 -1.5885 0
M  V30 5922 H 604.446 -7.46929 -1.41426 0
M  V30 5923 N 606.021 0.929856 -1.27246 0
M  V30 5924 C 607.268 1.67731 -1.13457 0
M  V30 5925 C 607.596 1.9185 0.319998 0
M  V30 5926 O 606.851 1.50524 1.25064 0
M  V30 5927 C 607.15 3.05116 -1.86115 0
M  V30 5928 C 606.816 3.00715 -3.35978 0
M  V30 5929 C 605.478 2.99222 -3.76855 0
M  V30 5930 C 607.83 2.92168 -4.3161 0
M  V30 5931 C 605.158 2.86962 -5.11732 0
M  V30 5932 C 607.51 2.81449 -5.66542 0
M  V30 5933 C 606.174 2.78305 -6.06715 0
M  V30 5934 H 605.444 0.613772 -0.415168 0
M  V30 5935 H 608.091 1.08456 -1.57827 0
M  V30 5936 H 606.396 3.68083 -1.34246 0
M  V30 5937 H 608.093 3.61822 -1.72876 0
M  V30 5938 H 604.683 3.02664 -3.03468 0
M  V30 5939 H 608.867 2.92421 -4.01003 0
M  V30 5940 H 604.123 2.82913 -5.42006 0
M  V30 5941 H 608.297 2.738 -6.40317 0
M  V30 5942 H 605.924 2.68561 -7.11181 0
M  V30 5943 N 607.499 1.09233 1.13605 0
M  V30 5944 C 608.745 0.828385 1.8511 0
M  V30 5945 C 609.078 -0.64437 1.83198 0
M  V30 5946 O 608.353 -1.47428 1.26867 0
M  V30 5947 C 608.636 1.36167 3.33363 0
M  V30 5948 C 608.489 2.90038 3.438 0
M  V30 5949 C 609.808 0.993819 4.28732 0
M  V30 5950 H 606.927 0.30239 0.672108 0
M  V30 5951 H 609.569 1.35339 1.33355 0
M  V30 5952 H 607.719 0.9151 3.77569 0
M  V30 5953 H 609.391 3.43128 3.08319 0
M  V30 5954 H 607.634 3.27271 2.84739 0
M  V30 5955 H 608.305 3.22428 4.48045 0
M  V30 5956 H 610.781 1.37893 3.92587 0
M  V30 5957 H 609.657 1.39403 5.30903 0
M  V30 5958 H 609.918 -0.0982206 4.41991 0
M  V30 5959 N 608.977 -1.30795 0.87923 0
M  V30 5960 C 610.223 -1.96653 0.495519 0
M  V30 5961 C 610.556 -1.69282 -0.951703 0
M  V30 5962 O 609.831 -0.994374 -1.6716 0
M  V30 5963 C 610.114 -3.51898 0.764174 0
M  V30 5964 C 609.967 -3.88808 2.2616 0
M  V30 5965 C 611.286 -4.39462 0.236825 0
M  V30 5966 H 608.405 -0.7143 0.181507 0
M  V30 5967 H 611.047 -1.54765 1.10217 0
M  V30 5968 H 609.197 -3.87709 0.247841 0
M  V30 5969 H 610.869 -3.63051 2.8459 0
M  V30 5970 H 609.112 -3.37082 2.73053 0
M  V30 5971 H 609.783 -4.97086 2.4002 0
M  V30 5972 H 612.259 -4.10528 0.678683 0
M  V30 5973 H 611.135 -5.47018 0.454176 0
M  V30 5974 H 611.396 -4.33621 -0.861683 0
M  V30 5975 N 610.455 -0.639598 -1.44038 0
M  V30 5976 C 611.405 0.0823038 -2.27851 0
M  V30 5977 C 612.389 0.807991 -1.39141 0
M  V30 5978 O 613.581 0.692702 -1.62882 0
M  V30 5979 C 610.71 1.05742 -3.26609 0
M  V30 5980 C 609.796 0.330911 -4.22807 0
M  V30 5981 N 610.187 -0.645126 -5.01669 0
M  V30 5982 C 608.485 0.574214 -4.42288 0
M  V30 5983 C 609.186 -1.07513 -5.71678 0
M  V30 5984 N 608.162 -0.412164 -5.42035 0
M  V30 5985 H 611.964 -0.666861 -2.86234 0
M  V30 5986 H 609.478 -0.465777 -1.55577 0
M  V30 5987 H 611.475 1.58927 -3.85419 0
M  V30 5988 H 610.135 1.80679 -2.69787 0
M  V30 5989 H 611.146 -1.02329 -5.0769 0
M  V30 5990 H 607.823 1.30581 -3.96554 0
M  V30 5991 H 609.213 -1.88196 -6.45005 0
M  V30 5992 N 611.933 1.52934 -0.380664 0
M  V30 5993 C 613.182 2.00651 0.205477 0
M  V30 5994 C 613.495 1.27164 1.48623 0
M  V30 5995 O 614.701 1.65547 2.15189 0
M  V30 5996 C 613.157 3.57479 0.416726 0
M  V30 5997 C 612.765 4.39857 -0.850268 0
M  V30 5998 C 614.509 4.13509 0.959702 0
M  V30 5999 C 612.416 5.88269 -0.607773 0
M  V30 6000 H 611.346 0.749684 0.0805614 0
M  V30 6001 H 613.997 1.76508 -0.501732 0
M  V30 6002 H 612.379 3.77836 1.18557 0
M  V30 6003 H 613.553 4.31269 -1.62307 0
M  V30 6004 H 611.868 3.95005 -1.31756 0
M  V30 6005 H 614.465 5.22039 1.15669 0
M  V30 6006 H 614.808 3.69054 1.92626 0
M  V30 6007 H 615.341 3.9701 0.250645 0
M  V30 6008 H 612.08 6.3703 -1.54509 0
M  V30 6009 H 611.6 5.99667 0.126247 0
M  V30 6010 H 613.279 6.46558 -0.239014 0
M  V30 6011 N 613.412 0.11024 1.57214 0
M  V30 6012 C 614.64 -0.557834 1.99238 0
M  V30 6013 C 615.055 -1.60778 0.989734 0
M  V30 6014 O 614.412 -1.82491 -0.0186092 0
M  V30 6015 C 614.463 -1.19189 3.41286 0
M  V30 6016 O 614.184 -0.183919 4.37714 0
M  V30 6017 C 615.685 -1.94413 3.98395 0
M  V30 6018 H 612.905 -0.148392 0.654386 0
M  V30 6019 H 615.449 0.193996 2.03578 0
M  V30 6020 H 613.604 -1.89456 3.37913 0
M  V30 6021 H 614.018 -0.643475 5.20538 0
M  V30 6022 H 615.492 -2.34116 4.99894 0
M  V30 6023 H 615.969 -2.81592 3.3705 0
M  V30 6024 H 616.575 -1.28928 4.05287 0
M  V30 6025 N 614.89 -1.56749 -0.16351 0
M  V30 6026 C 615.822 -1.93587 -1.22705 0
M  V30 6027 C 616.835 -0.829824 -1.40063 0
M  V30 6028 O 618.024 -1.10826 -1.39928 0
M  V30 6029 C 615.124 -2.1803 -2.59454 0
M  V30 6030 C 614.297 -3.4928 -2.63292 0
M  V30 6031 C 613.356 -3.62457 -3.8146 0
M  V30 6032 O 612.382 -4.35004 -3.67096 0
M  V30 6033 N 613.584 -2.97888 -4.9824 0
M  V30 6034 H 616.349 -2.8542 -0.914081 0
M  V30 6035 H 613.91 -1.58 -0.353214 0
M  V30 6036 H 615.902 -2.24102 -3.36987 0
M  V30 6037 H 614.472 -1.32543 -2.8311 0
M  V30 6038 H 613.692 -3.54795 -1.71796 0
M  V30 6039 H 614.98 -4.35632 -2.62873 0
M  V30 6040 H 614.378 -2.38833 -5.12811 0
M  V30 6041 H 612.935 -3.09545 -5.73607 0
M  V30 6042 N 616.368 0.432326 -1.51554 0
M  V30 6043 C 617.331 1.50765 -1.72634 0
M  V30 6044 C 618.331 1.49334 -0.596314 0
M  V30 6045 O 619.521 1.51268 -0.863925 0
M  V30 6046 C 616.653 2.90284 -1.7874 0
M  V30 6047 H 617.846 1.33377 -2.68609 0
M  V30 6048 H 615.399 0.661329 -1.4162 0
M  V30 6049 H 616.134 3.13071 -0.845977 0
M  V30 6050 H 615.919 2.92727 -2.6087 0
M  V30 6051 H 617.409 3.68282 -1.96871 0
M  V30 6052 N 617.846 1.41785 0.688094 0
M  V30 6053 C 618.776 1.47 1.8142 0
M  V30 6054 C 619.757 0.327881 1.6691 0
M  V30 6055 O 620.942 0.540362 1.86531 0
M  V30 6056 C 618.072 1.35876 3.19617 0
M  V30 6057 C 617.026 2.47976 3.48844 0
M  V30 6058 C 616.352 2.21915 4.86475 0
M  V30 6059 C 617.652 3.90309 3.47068 0
M  V30 6060 H 619.346 2.41247 1.77314 0
M  V30 6061 H 616.892 1.16116 0.851651 0
M  V30 6062 H 618.845 1.38134 3.98117 0
M  V30 6063 H 617.569 0.38116 3.24368 0
M  V30 6064 H 616.228 2.45013 2.72698 0
M  V30 6065 H 615.876 1.2248 4.8786 0
M  V30 6066 H 615.576 2.97037 5.06994 0
M  V30 6067 H 617.1 2.25901 5.67275 0
M  V30 6068 H 618.514 3.94947 4.1556 0
M  V30 6069 H 616.911 4.65175 3.7912 0
M  V30 6070 H 617.981 4.17927 2.45896 0
M  V30 6071 N 619.324 -0.923095 1.27737 0
M  V30 6072 C 620.564 -1.6858 1.15586 0
M  V30 6073 C 620.928 -1.89758 -0.292562 0
M  V30 6074 O 622.129 -2.6339 -0.536583 0
M  V30 6075 C 620.4 -3.01275 1.92271 0
M  V30 6076 S 621.959 -3.924 1.96387 0
M  V30 6077 H 618.777 -0.579069 0.412554 0
M  V30 6078 H 621.379 -1.09866 1.61709 0
M  V30 6079 H 620.083 -2.83556 2.96689 0
M  V30 6080 H 619.614 -3.6504 1.46661 0
M  V30 6081 H 621.629 -4.84667 1.06361 0
M  V30 6082 N 620.802 -1.09834 -1.13024 0
M  V30 6083 C 622.213 -0.855651 -1.65938 0
M  V30 6084 C 622.564 0.615159 -1.86307 0
M  V30 6085 O 621.689 1.47335 -1.58497 0
M  V30 6086 C 622.284 -1.5467 -3.01434 0
M  V30 6087 C 620.843 -1.35088 -3.51323 0
M  V30 6088 C 619.99 -1.6001 -2.26478 0
M  V30 6089 H 622.941 -1.25691 -0.968889 0
M  V30 6090 H 622.962 -0.982179 -3.67605 0
M  V30 6091 H 622.474 -2.61715 -2.86578 0
M  V30 6092 H 620.575 -0.30179 -3.71376 0
M  V30 6093 H 620.688 -2.0886 -4.31178 0
M  V30 6094 H 619.052 -1.02246 -2.33276 0
M  V30 6095 H 619.835 -2.68293 -2.14182 0
M  V30 6096 N 622.28 1.30327 -0.886154 0
M  V30 6097 C 623.243 2.26376 -0.358687 0
M  V30 6098 C 624.243 1.52845 0.499498 0
M  V30 6099 O 625.433 1.71483 0.306485 0
M  V30 6100 C 622.565 3.37379 0.488726 0
M  V30 6101 H 623.758 2.74547 -1.20681 0
M  V30 6102 H 621.311 1.41536 -0.663113 0
M  V30 6103 H 622.046 2.94526 1.35739 0
M  V30 6104 H 621.831 3.91897 -0.126003 0
M  V30 6105 H 623.321 4.08868 0.84952 0
M  V30 6106 N 623.758 0.647228 1.43697 0
M  V30 6107 C 624.998 0.16171 2.03759 0
M  V30 6108 C 625.362 -1.19951 1.49919 0
M  V30 6109 O 626.563 -1.77808 2.01588 0
M  V30 6110 C 624.834 0.16505 3.57019 0
M  V30 6111 S 626.393 -0.253497 4.38067 0
M  V30 6112 H 623.211 0.0689985 0.707644 0
M  V30 6113 H 625.813 0.854224 1.7585 0
M  V30 6114 H 624.517 1.15858 3.93707 0
M  V30 6115 H 624.048 -0.548194 3.89562 0
M  V30 6116 H 626.063 -1.49385 4.73179 0
M  V30 6117 N 625.236 -1.5273 0.388769 0
M  V30 6118 C 626.461 -2.0647 -0.19621 0
M  V30 6119 C 626.886 -1.25865 -1.39784 0
M  V30 6120 O 626.244 -0.283562 -1.79069 0
M  V30 6121 C 626.292 -3.56456 -0.5451 0
M  V30 6122 O 625.396 -3.78426 -1.63912 0
M  V30 6123 H 624.737 -0.663599 -0.023067 0
M  V30 6124 H 627.267 -1.96898 0.556084 0
M  V30 6125 H 627.277 -3.99888 -0.809557 0
M  V30 6126 H 625.952 -4.14561 0.333417 0
M  V30 6127 H 624.529 -3.46884 -1.36842 0
M  V30 6128 N 626.714 -0.118576 -1.57153 0
M  V30 6129 C 627.96 0.540326 -1.95469 0
M  V30 6130 C 628.293 1.66356 -1.00196 0
M  V30 6131 O 627.568 1.94461 -0.039104 0
M  V30 6132 C 627.851 1.07342 -3.43729 0
M  V30 6133 C 627.704 -0.0463732 -4.49776 0
M  V30 6134 C 629.023 1.96442 -3.93826 0
M  V30 6135 H 626.142 0.19494 -0.710751 0
M  V30 6136 H 628.784 -0.19405 -1.89006 0
M  V30 6137 H 626.934 1.69925 -3.49368 0
M  V30 6138 H 628.606 -0.681648 -4.56236 0
M  V30 6139 H 626.849 -0.709574 -4.27957 0
M  V30 6140 H 627.52 0.367856 -5.50773 0
M  V30 6141 H 629.996 1.43731 -3.90488 0
M  V30 6142 H 628.872 2.3066 -4.98084 0
M  V30 6143 H 629.133 2.89077 -3.34495 0
M  V30 6144 N 628.193 1.56834 0.155195 0
M  V30 6145 C 629.604 1.72421 0.716082 0
M  V30 6146 C 629.955 0.731685 1.82046 0
M  V30 6147 O 629.08 -0.103481 2.16152 0
M  V30 6148 C 629.675 3.12629 1.30571 0
M  V30 6149 C 628.234 3.29846 1.81325 0
M  V30 6150 C 627.381 2.68359 0.698494 0
M  V30 6151 H 630.332 1.58544 -0.0703861 0
M  V30 6152 H 630.353 3.12174 2.1755 0
M  V30 6153 H 629.865 3.84844 0.501701 0
M  V30 6154 H 627.966 2.62614 2.64319 0
M  V30 6155 H 628.079 4.37727 1.9476 0
M  V30 6156 H 626.443 2.28604 1.12305 0
M  V30 6157 H 627.226 3.43171 -0.0939366 0
M  V30 6158 N 629.671 -0.424282 1.51781 0
M  V30 6159 C 631.082 -1.00368 1.57427 0
M  V30 6160 C 631.433 -1.91962 0.40558 0
M  V30 6161 O 630.558 -2.111 -0.47601 0
M  V30 6162 C 631.153 -1.82707 2.85313 0
M  V30 6163 C 629.712 -2.35675 2.93487 0
M  V30 6164 C 628.859 -1.1524 2.5222 0
M  V30 6165 H 631.81 -0.205064 1.5737 0
M  V30 6166 H 631.831 -2.68294 2.69812 0
M  V30 6167 H 631.343 -1.16017 3.70353 0
M  V30 6168 H 629.444 -3.05781 2.12906 0
M  V30 6169 H 629.557 -2.67578 3.97415 0
M  V30 6170 H 627.921 -1.50174 2.05718 0
M  V30 6171 H 628.704 -0.5014 3.39619 0
M  V30 6172 N 631.149 -1.42148 -0.680565 0
M  V30 6173 C 632.565 -1.24947 -0.992995 0
M  V30 6174 C 632.765 -0.149527 -2.00944 0
M  V30 6175 O 631.821 0.481145 -2.47873 0
M  V30 6176 C 633.134 -2.60426 -1.5033 0
M  V30 6177 C 634.682 -2.67733 -1.62137 0
M  V30 6178 C 635.157 -4.03564 -2.16565 0
M  V30 6179 N 636.648 -4.05488 -2.23905 0
M  V30 6180 C 637.383 -5.07401 -2.67081 0
M  V30 6181 N 636.879 -6.19698 -3.09751 0
M  V30 6182 N 638.672 -4.94758 -2.66778 0
M  V30 6183 H 630.823 -2.12399 -0.0074788 0
M  V30 6184 H 633.086 -0.94571 -0.0658529 0
M  V30 6185 H 632.792 -3.41743 -0.830947 0
M  V30 6186 H 632.666 -2.83949 -2.483 0
M  V30 6187 H 635.053 -1.86765 -2.2848 0
M  V30 6188 H 635.134 -2.48004 -0.626713 0
M  V30 6189 H 634.778 -4.84987 -1.50833 0
M  V30 6190 H 634.708 -4.20641 -3.1681 0
M  V30 6191 H 637.199 -3.24415 -1.93812 0
M  V30 6192 H 637.512 -6.93318 -3.41365 0
M  V30 6193 H 635.857 -6.23212 -3.07623 0
M  V30 6194 H 639.048 -4.06105 -2.32801 0
M  V30 6195 H 639.221 -5.74317 -3.00107 0
M  V30 6196 N 632.627 0.916307 -1.28225 0
M  V30 6197 C 633.557 2.0352 -1.14464 0
M  V30 6198 C 634.538 1.70045 -0.0430844 0
M  V30 6199 O 635.723 1.92954 -0.219619 0
M  V30 6200 C 632.853 3.37889 -0.803027 0
M  V30 6201 C 631.807 3.85516 -1.85908 0
M  V30 6202 C 631.133 5.1682 -1.37116 0
M  V30 6203 C 632.433 4.07655 -3.26519 0
M  V30 6204 H 634.127 2.1529 -2.08064 0
M  V30 6205 H 631.673 1.03446 -1.00174 0
M  V30 6206 H 633.626 4.15654 -0.693537 0
M  V30 6207 H 632.35 3.26164 0.168674 0
M  V30 6208 H 631.009 3.09953 -1.95767 0
M  V30 6209 H 630.657 5.01497 -0.38859 0
M  V30 6210 H 630.357 5.49657 -2.07728 0
M  V30 6211 H 631.881 5.97143 -1.27484 0
M  V30 6212 H 633.295 4.75953 -3.19596 0
M  V30 6213 H 631.692 4.51818 -3.94943 0
M  V30 6214 H 632.762 3.12553 -3.70727 0
M  V30 6215 N 634.105 1.10431 1.1244 0
M  V30 6216 C 635.351 0.847972 1.84221 0
M  V30 6217 C 635.684 -0.624903 1.83871 0
M  V30 6218 O 634.959 -1.46074 1.28423 0
M  V30 6219 C 635.242 1.39695 3.319 0
M  V30 6220 C 635.095 2.93668 3.40704 0
M  V30 6221 C 636.414 1.03924 4.27654 0
M  V30 6222 H 633.533 0.309502 0.668863 0
M  V30 6223 H 636.175 1.36745 1.31912 0
M  V30 6224 H 634.325 0.955095 3.76577 0
M  V30 6225 H 635.997 3.46379 3.04662 0
M  V30 6226 H 634.24 3.30272 2.81252 0
M  V30 6227 H 634.911 3.27162 4.446 0
M  V30 6228 H 637.387 1.42049 3.91102 0
M  V30 6229 H 636.263 1.45027 5.29394 0
M  V30 6230 H 636.524 -0.051336 4.4207 0
M  V30 6231 N 635.583 -1.29855 0.893053 0
M  V30 6232 C 636.808 -2.00512 0.530066 0
M  V30 6233 C 637.233 -1.66446 -0.876199 0
M  V30 6234 O 636.591 -0.885446 -1.58207 0
M  V30 6235 C 636.639 -3.53308 0.721505 0
M  V30 6236 O 635.743 -4.11764 -0.228994 0
M  V30 6237 H 635.084 -0.630617 0.207891 0
M  V30 6238 H 637.614 -1.6551 1.20282 0
M  V30 6239 H 637.624 -4.03206 0.623599 0
M  V30 6240 H 636.299 -3.77439 1.74678 0
M  V30 6241 H 634.876 -3.72805 -0.0841034 0
M  V30 6242 N 637.061 -0.65484 -1.43351 0
M  V30 6243 C 638.024 0.0263562 -2.29185 0
M  V30 6244 C 639.024 0.748951 -1.42293 0
M  V30 6245 O 640.214 0.589957 -1.63906 0
M  V30 6246 C 637.346 1.04806 -3.2439 0
M  V30 6247 H 638.539 -0.728883 -2.90908 0
M  V30 6248 H 636.092 -0.416149 -1.50658 0
M  V30 6249 H 636.827 1.83247 -2.67565 0
M  V30 6250 H 636.612 0.533554 -3.88453 0
M  V30 6251 H 638.102 1.52372 -3.88809 0
M  V30 6252 N 638.539 1.52521 -0.396863 0
M  V30 6253 C 639.785 2.01971 0.183169 0
M  V30 6254 C 640.118 1.2825 1.45827 0
M  V30 6255 O 639.393 0.385179 1.90648 0
M  V30 6256 C 639.676 3.5736 0.443391 0
M  V30 6257 C 639.529 4.41743 -0.84753 0
M  V30 6258 C 640.848 4.22539 1.2308 0
M  V30 6259 H 637.967 0.734119 0.0650976 0
M  V30 6260 H 640.609 1.82519 -0.527918 0
M  V30 6261 H 638.759 3.74066 1.04914 0
M  V30 6262 H 640.431 4.36773 -1.48414 0
M  V30 6263 H 638.674 4.0845 -1.4612 0
M  V30 6264 H 639.345 5.48507 -0.620003 0
M  V30 6265 H 641.821 4.09857 0.718084 0
M  V30 6266 H 640.697 5.31227 1.38162 0
M  V30 6267 H 640.958 3.80675 2.24808 0
M  V30 6268 N 640.017 0.126909 1.57088 0
M  V30 6269 C 641.245 -0.53667 1.99819 0
M  V30 6270 C 641.66 -1.5972 1.00673 0
M  V30 6271 O 641.017 -1.825 0.000747365 0
M  V30 6272 C 641.068 -1.15563 3.42531 0
M  V30 6273 O 640.789 -0.137483 4.37884 0
M  V30 6274 C 642.29 -1.90176 4.00435 0
M  V30 6275 H 639.51 -0.141443 0.655923 0
M  V30 6276 H 642.054 0.215578 2.03361 0
M  V30 6277 H 640.209 -1.85861 3.39904 0
M  V30 6278 H 640.623 -0.588229 5.21191 0
M  V30 6279 H 642.097 -2.28801 5.02349 0
M  V30 6280 H 642.574 -2.78002 3.40017 0
M  V30 6281 H 643.18 -1.24623 4.06632 0
M  V30 6282 N 641.495 -1.56914 -0.146875 0
M  V30 6283 C 642.741 -1.84515 -0.855914 0
M  V30 6284 C 643.096 -0.710909 -1.78784 0
M  V30 6285 O 642.389 0.291123 -1.89375 0
M  V30 6286 C 642.583 -3.16128 -1.66727 0
M  V30 6287 C 642.412 -4.42246 -0.815405 0
M  V30 6288 C 641.182 -5.03006 -0.480976 0
M  V30 6289 C 643.38 -5.14094 -0.145684 0
M  V30 6290 N 641.362 -6.12695 0.384476 0
M  V30 6291 C 642.733 -6.17282 0.579902 0
M  V30 6292 C 644.788 -4.97856 -0.0663705 0
M  V30 6293 C 643.491 -7.0599 1.37731 0
M  V30 6294 C 645.517 -5.87028 0.71778 0
M  V30 6295 C 644.879 -6.89698 1.43165 0
M  V30 6296 H 640.978 -0.725829 -0.291026 0
M  V30 6297 H 643.562 -1.94322 -0.121279 0
M  V30 6298 H 641.733 -3.07468 -2.37315 0
M  V30 6299 H 643.465 -3.31635 -2.31949 0
M  V30 6300 H 640.22 -4.66504 -0.816789 0
M  V30 6301 H 640.644 -6.72158 0.80823 0
M  V30 6302 H 645.286 -4.18465 -0.603929 0
M  V30 6303 H 643.004 -7.84809 1.92613 0
M  V30 6304 H 646.59 -5.76532 0.781141 0
M  V30 6305 H 645.47 -7.57505 2.02868 0
M  V30 6306 N 642.974 0.416227 -1.52004 0
M  V30 6307 C 643.904 1.51365 -1.77795 0
M  V30 6308 C 644.885 1.58059 -0.628601 0
M  V30 6309 O 646.07 1.73447 -0.873478 0
M  V30 6310 C 643.2 2.89256 -1.92219 0
M  V30 6311 C 642.154 2.97415 -3.0778 0
M  V30 6312 C 641.48 4.37492 -3.07417 0
M  V30 6313 C 642.78 2.69551 -4.47369 0
M  V30 6314 H 644.474 1.30033 -2.69688 0
M  V30 6315 H 642.02 0.624112 -1.29772 0
M  V30 6316 H 643.973 3.66008 -2.08845 0
M  V30 6317 H 642.697 3.11866 -0.969917 0
M  V30 6318 H 641.356 2.23107 -2.90893 0
M  V30 6319 H 641.004 4.571 -2.09925 0
M  V30 6320 H 640.704 4.43877 -3.85029 0
M  V30 6321 H 642.228 5.16188 -3.26162 0
M  V30 6322 H 643.642 3.36028 -4.64497 0
M  V30 6323 H 642.039 2.87321 -5.26846 0
M  V30 6324 H 643.109 1.65029 -4.55953 0
M  V30 6325 N 644.452 1.42507 0.673017 0
M  V30 6326 C 645.7 1.42789 1.43023 0
M  V30 6327 C 646.021 0.0459738 1.94946 0
M  V30 6328 O 645.291 -0.915765 1.73178 0
M  V30 6329 H 643.871 0.525657 0.530748 0
M  V30 6330 H 646.533 1.77944 0.795113 0
M  V30 6331 H 645.629 2.12872 2.28237 0
M  V30 6332 N 645.93 -0.909495 1.28709 0
M  V30 6333 C 647.16 -1.69027 1.188 0
M  V30 6334 C 647.568 -1.87469 -0.255329 0
M  V30 6335 O 646.911 -1.40458 -1.18394 0
M  V30 6336 C 646.973 -3.10064 1.81936 0
M  V30 6337 C 646.637 -3.14891 3.31199 0
M  V30 6338 C 647.634 -2.95768 4.27571 0
M  V30 6339 C 645.319 -3.37269 3.7223 0
M  V30 6340 C 647.313 -2.98942 5.6295 0
M  V30 6341 C 645 -3.40074 5.07733 0
M  V30 6342 C 645.998 -3.20932 6.02903 0
M  V30 6343 O 645.686 -3.23507 7.35934 0
M  V30 6344 H 645.418 -0.535014 0.413203 0
M  V30 6345 H 647.972 -1.14645 1.70428 0
M  V30 6346 H 646.202 -3.66005 1.24808 0
M  V30 6347 H 647.891 -3.70185 1.66486 0
M  V30 6348 H 648.657 -2.78302 3.97206 0
M  V30 6349 H 644.536 -3.51212 2.98615 0
M  V30 6350 H 648.08 -2.83919 6.37209 0
M  V30 6351 H 643.977 -3.5707 5.37747 0
M  V30 6352 H 644.745 -3.3984 7.44615 0
M  V30 6353 N 647.408 -1.11026 -1.11852 0
M  V30 6354 C 648.654 -0.857729 -1.83768 0
M  V30 6355 C 648.987 0.615143 -1.842 0
M  V30 6356 O 648.262 1.45391 -1.29196 0
M  V30 6357 C 648.545 -1.41453 -3.31154 0
M  V30 6358 C 648.398 -2.95471 -3.39142 0
M  V30 6359 C 649.717 -1.0619 -4.27097 0
M  V30 6360 H 646.836 -0.313044 -0.667212 0
M  V30 6361 H 649.478 -1.37443 -1.31185 0
M  V30 6362 H 647.628 -0.975052 -3.76065 0
M  V30 6363 H 649.3 -3.4799 -3.02821 0
M  V30 6364 H 647.543 -3.31759 -2.79497 0
M  V30 6365 H 648.214 -3.29515 -4.42859 0
M  V30 6366 H 650.69 -1.44122 -3.90344 0
M  V30 6367 H 649.566 -1.47832 -5.28618 0
M  V30 6368 H 649.827 0.0278912 -4.42091 0
M  V30 6369 N 648.886 1.2938 -0.899927 0
M  V30 6370 C 649.834 2.29675 -0.367698 0
M  V30 6371 C 650.828 1.60787 0.533282 0
M  V30 6372 O 652.034 1.75126 0.416058 0
M  V30 6373 H 648.409 0.745284 -0.100279 0
M  V30 6374 H 650.38 2.72008 -1.22696 0
M  V30 6375 C 649.129 3.45512 0.389483 0
M  V30 6376 H 648.452 3.98713 -0.294575 0
M  V30 6377 H 649.892 4.17725 0.726744 0
M  V30 6378 C 648.351 2.969 1.59223 0
M  V30 6379 O 648.881 2.98195 2.69152 0
M  V30 6380 N 647.087 2.52728 1.43447 0
M  V30 6381 H 646.634 2.51873 0.540148 0
M  V30 6382 H 646.592 2.20561 2.24054 0
M  V30 6383 N 650.364 0.662433 1.43002 0
M  V30 6384 C 651.589 0.186003 2.06564 0
M  V30 6385 C 652.014 -1.14314 1.49379 0
M  V30 6386 O 651.372 -1.70824 0.607346 0
M  V30 6387 C 651.42 0.118269 3.60406 0
M  V30 6388 O 650.524 -0.916859 4.02079 0
M  V30 6389 H 649.865 0.0990981 0.656563 0
M  V30 6390 H 652.395 0.907958 1.8335 0
M  V30 6391 H 652.405 -0.0619981 4.07953 0
M  V30 6392 H 651.08 1.08849 4.01403 0
M  V30 6393 H 649.657 -0.708635 3.66105 0
M  V30 6394 N 651.842 -1.52309 0.404946 0
M  V30 6395 C 652.805 -2.25491 -0.410651 0
M  V30 6396 C 653.805 -1.27704 -0.977154 0
M  V30 6397 O 654.995 -1.51679 -0.856691 0
M  V30 6398 C 652.127 -3.02197 -1.57765 0
M  V30 6399 H 653.32 -2.99015 0.230277 0
M  V30 6400 H 650.873 -1.55506 0.157377 0
M  V30 6401 H 651.608 -2.33013 -2.25556 0
M  V30 6402 H 651.393 -3.73987 -1.17797 0
M  V30 6403 H 652.883 -3.57719 -2.15469 0
M  V30 6404 N 653.32 -0.135238 -1.57019 0
M  V30 6405 C 654.25 0.805235 -2.19176 0
M  V30 6406 C 655.231 1.2656 -1.13651 0
M  V30 6407 O 656.416 1.32528 -1.4195 0
M  V30 6408 C 653.546 2.04914 -2.80406 0
M  V30 6409 C 652.5 1.72598 -3.91655 0
M  V30 6410 C 651.826 3.04154 -4.39766 0
M  V30 6411 C 653.126 0.981709 -5.12991 0
M  V30 6412 H 654.82 0.287232 -2.98019 0
M  V30 6413 H 652.366 0.136714 -1.4335 0
M  V30 6414 H 654.319 2.71178 -3.22553 0
M  V30 6415 H 653.043 2.59067 -1.98877 0
M  V30 6416 H 651.702 1.08717 -3.50109 0
M  V30 6417 H 651.35 3.56274 -3.55075 0
M  V30 6418 H 651.05 2.83299 -5.14796 0
M  V30 6419 H 652.574 3.71509 -4.84576 0
M  V30 6420 H 653.988 1.5462 -5.52056 0
M  V30 6421 H 652.385 0.873533 -5.93708 0
M  V30 6422 H 653.455 -0.0286887 -4.84892 0
M  V30 6423 N 654.798 1.5699 0.138552 0
M  V30 6424 C 655.746 1.99858 1.18994 0
M  V30 6425 C 656.74 0.89231 1.43994 0
M  V30 6426 O 657.946 1.0775 1.44187 0
M  V30 6427 H 654.321 0.636325 0.400743 0
M  V30 6428 H 656.292 2.87427 0.801755 0
M  V30 6429 C 655.041 2.40235 2.51361 0
M  V30 6430 H 654.364 3.24917 2.32957 0
M  V30 6431 H 655.804 2.74045 3.23535 0
M  V30 6432 C 654.263 1.25829 3.1252 0
M  V30 6433 O 654.793 0.563604 3.97727 0
M  V30 6434 N 652.999 1.02036 2.72097 0
M  V30 6435 H 652.546 1.58705 2.02905 0
M  V30 6436 H 652.504 0.256796 3.1335 0
M  V30 6437 N 656.276 -0.40816 1.52223 0
M  V30 6438 C 657.687 -0.986929 1.58482 0
M  V30 6439 C 658.038 -1.91521 0.425917 0
M  V30 6440 O 657.163 -2.11593 -0.453593 0
M  V30 6441 C 657.758 -1.7967 2.87235 0
M  V30 6442 C 656.317 -2.32549 2.9597 0
M  V30 6443 C 655.464 -1.12558 2.53428 0
M  V30 6444 H 658.415 -0.188362 1.57578 0
M  V30 6445 H 658.436 -2.65417 2.72642 0
M  V30 6446 H 657.948 -1.12082 3.71563 0
M  V30 6447 H 656.049 -3.03505 2.16137 0
M  V30 6448 H 656.162 -2.63348 4.00231 0
M  V30 6449 H 654.526 -1.47984 2.07299 0
M  V30 6450 H 655.309 -0.465351 3.40131 0
M  V30 6451 N 657.755 -1.42862 -0.66545 0
M  V30 6452 C 659.001 -1.44043 -1.42757 0
M  V30 6453 C 659.334 -0.0599629 -1.94107 0
M  V30 6454 O 658.609 0.917286 -1.71511 0
M  V30 6455 C 658.892 -2.47266 -2.61786 0
M  V30 6456 C 658.745 -3.94539 -2.16007 0
M  V30 6457 C 660.064 -2.47365 -3.64003 0
M  V30 6458 H 657.183 -0.524506 -0.517748 0
M  V30 6459 H 659.825 -1.74335 -0.755466 0
M  V30 6460 H 657.975 -2.21565 -3.19126 0
M  V30 6461 H 659.647 -4.31254 -1.63762 0
M  V30 6462 H 657.89 -4.07957 -1.47491 0
M  V30 6463 H 658.561 -4.62357 -3.01546 0
M  V30 6464 H 661.037 -2.70243 -3.16399 0
M  V30 6465 H 659.913 -3.21552 -4.44854 0
M  V30 6466 H 660.174 -1.50299 -4.15767 0
M  V30 6467 N 659.233 0.902656 -1.29189 0
M  V30 6468 C 660.482 1.6475 -1.16362 0
M  V30 6469 C 660.795 1.93517 0.284682 0
M  V30 6470 O 662.001 2.66192 0.534229 0
M  V30 6471 C 660.457 2.96848 -2.03493 0
M  V30 6472 C 660.065 2.75687 -3.5313 0
M  V30 6473 C 661.809 3.74762 -1.99383 0
M  V30 6474 C 659.716 4.03492 -4.32375 0
M  V30 6475 H 658.646 0.618041 -0.431904 0
M  V30 6476 H 661.297 1.0008 -1.53806 0
M  V30 6477 H 659.679 3.62715 -1.58916 0
M  V30 6478 H 660.853 2.18431 -4.05739 0
M  V30 6479 H 659.168 2.11171 -3.58881 0
M  V30 6480 H 661.765 4.69515 -2.5585 0
M  V30 6481 H 662.108 4.04767 -0.973123 0
M  V30 6482 H 662.641 3.15732 -2.41988 0
M  V30 6483 H 659.38 3.78656 -5.3507 0
M  V30 6484 H 658.9 4.60318 -3.84535 0
M  V30 6485 H 660.579 4.71662 -4.42881 0
M  V30 6486 N 660.711 1.11618 1.11262 0
M  V30 6487 C 661.941 0.88745 1.86569 0
M  V30 6488 C 662.349 -0.56636 1.80524 0
M  V30 6489 O 661.692 -1.40289 1.18594 0
M  V30 6490 C 661.754 1.27313 3.36202 0
M  V30 6491 C 661.418 2.73649 3.66013 0
M  V30 6492 C 662.415 3.71863 3.63337 0
M  V30 6493 C 660.1 3.10342 3.9496 0
M  V30 6494 C 662.094 5.04788 3.89188 0
M  V30 6495 C 659.781 4.43451 4.20469 0
M  V30 6496 C 660.779 5.40484 4.17572 0
M  V30 6497 O 660.467 6.71195 4.42439 0
M  V30 6498 H 660.199 0.317543 0.596777 0
M  V30 6499 H 662.753 1.48768 1.41624 0
M  V30 6500 H 660.983 0.616062 3.81761 0
M  V30 6501 H 662.672 1.01991 3.92877 0
M  V30 6502 H 663.438 3.44861 3.41022 0
M  V30 6503 H 659.317 2.35431 3.9635 0
M  V30 6504 H 662.861 5.80516 3.86842 0
M  V30 6505 H 658.758 4.70187 4.42261 0
M  V30 6506 H 659.526 6.77012 4.59997 0
M  V30 6507 N 662.189 -1.289 0.906776 0
M  V30 6508 C 663.417 -1.99401 0.551969 0
M  V30 6509 C 663.832 -1.67816 -0.865048 0
M  V30 6510 O 663.189 -0.927078 -1.57199 0
M  V30 6511 C 663.24 -3.53779 0.743152 0
M  V30 6512 O 662.961 -3.84248 2.1044 0
M  V30 6513 C 664.462 -4.41543 0.39424 0
M  V30 6514 H 661.682 -0.636926 0.211106 0
M  V30 6515 H 664.226 -1.64266 1.21807 0
M  V30 6516 H 662.381 -3.87201 0.124143 0
M  V30 6517 H 662.795 -4.78904 2.13895 0
M  V30 6518 H 664.269 -5.48957 0.578814 0
M  V30 6519 H 664.746 -4.34073 -0.669137 0
M  V30 6520 H 665.352 -4.13605 0.990491 0
M  V30 6521 N 663.667 -0.670007 -1.42649 0
M  V30 6522 C 664.913 -0.190568 -2.01903 0
M  V30 6523 C 665.246 1.19817 -1.52832 0
M  V30 6524 O 664.521 1.80342 -0.728485 0
M  V30 6525 C 664.804 -0.21991 -3.59428 0
M  V30 6526 C 664.657 -1.64376 -4.18689 0
M  V30 6527 C 665.976 0.434519 -4.3795 0
M  V30 6528 H 663.095 -0.0707219 -0.733599 0
M  V30 6529 H 665.737 -0.853883 -1.69732 0
M  V30 6530 H 663.887 0.344894 -3.86966 0
M  V30 6531 H 665.559 -2.26044 -4.02122 0
M  V30 6532 H 663.802 -2.18591 -3.747 0
M  V30 6533 H 664.473 -1.61601 -5.27815 0
M  V30 6534 H 666.949 -0.0462156 -4.16074 0
M  V30 6535 H 665.825 0.38333 -5.4756 0
M  V30 6536 H 666.086 1.51135 -4.15464 0
M  V30 6537 N 665.145 1.52092 -0.413018 0
M  V30 6538 C 666.392 2.01855 0.161497 0
M  V30 6539 C 666.72 1.29845 1.44812 0
M  V30 6540 O 665.975 0.394471 1.91683 0
M  V30 6541 C 666.274 3.54529 0.4521 0
M  V30 6542 C 665.94 4.4469 -0.745788 0
M  V30 6543 C 664.602 4.69053 -1.07435 0
M  V30 6544 C 666.954 4.97742 -1.54604 0
M  V30 6545 C 664.282 5.43717 -2.20429 0
M  V30 6546 C 666.634 5.73642 -2.66678 0
M  V30 6547 C 665.298 5.96277 -3.00016 0
M  V30 6548 H 664.568 0.73864 0.0590961 0
M  V30 6549 H 667.215 1.83274 -0.555234 0
M  V30 6550 H 665.52 3.7131 1.25045 0
M  V30 6551 H 667.217 3.90546 0.909647 0
M  V30 6552 H 663.807 4.25907 -0.479725 0
M  V30 6553 H 667.991 4.78824 -1.30543 0
M  V30 6554 H 663.247 5.59462 -2.46602 0
M  V30 6555 H 667.421 6.13746 -3.29072 0
M  V30 6556 H 665.048 6.53913 -3.87688 0
M  V30 6557 N 666.623 0.143563 1.56945 0
M  V30 6558 C 667.571 -0.814556 2.17871 0
M  V30 6559 C 668.565 -1.25778 1.13474 0
M  V30 6560 O 669.771 -1.22666 1.31731 0
M  V30 6561 H 666.146 -0.280873 0.697578 0
M  V30 6562 H 668.117 -0.276459 2.97117 0
M  V30 6563 C 666.866 -2.04503 2.81201 0
M  V30 6564 H 666.189 -1.71296 3.61245 0
M  V30 6565 H 667.629 -2.69493 3.27337 0
M  V30 6566 C 666.088 -2.85079 1.79532 0
M  V30 6567 O 666.618 -3.81306 1.26368 0
M  V30 6568 N 664.824 -2.49546 1.48913 0
M  V30 6569 H 664.371 -1.71359 1.92338 0
M  V30 6570 H 664.329 -3.03751 0.811348 0
M  V30 6571 N 668.101 -1.57061 -0.130224 0
M  V30 6572 C 669.064 -1.98593 -1.14426 0
M  V30 6573 C 670.064 -0.874584 -1.34936 0
M  V30 6574 O 671.254 -1.14086 -1.31643 0
M  V30 6575 C 668.386 -2.31639 -2.50112 0
M  V30 6576 H 669.579 -2.89374 -0.787561 0
M  V30 6577 H 667.132 -1.51756 -0.374146 0
M  V30 6578 H 667.867 -1.43703 -2.90723 0
M  V30 6579 H 667.652 -3.12684 -2.36583 0
M  V30 6580 H 669.142 -2.64551 -3.23114 0
M  V30 6581 N 669.579 0.400081 -1.52437 0
M  V30 6582 C 670.489 1.51253 -1.79331 0
M  V30 6583 C 671.505 1.60188 -0.679396 0
M  V30 6584 O 672.681 1.76733 -0.965791 0
M  V30 6585 C 669.746 2.869 -1.94652 0
M  V30 6586 C 668.807 2.87777 -3.18564 0
M  V30 6587 C 668.04 4.16954 -3.33145 0
M  V30 6588 O 668.263 5.11329 -2.52783 0
M  V30 6589 O 667.197 4.2487 -4.26343 0
M  V30 6590 H 671.023 1.31461 -2.73773 0
M  V30 6591 H 668.608 0.586834 -1.37392 0
M  V30 6592 H 670.49 3.67336 -2.065 0
M  V30 6593 H 669.165 3.06741 -1.034 0
M  V30 6594 H 668.072 2.06162 -3.12167 0
M  V30 6595 H 669.405 2.72886 -4.09627 0
M  V30 6596 N 671.057 1.43213 0.657864 0
M  V30 6597 C 672.304 1.44584 1.41781 0
M  V30 6598 C 672.632 0.0684208 1.9438 0
M  V30 6599 O 671.887 -0.925872 1.72413 0
M  V30 6600 C 672.186 2.43143 2.61947 0
M  V30 6601 C 671.852 3.89128 2.27794 0
M  V30 6602 C 670.514 4.28889 2.18191 0
M  V30 6603 C 672.866 4.81144 2.00375 0
M  V30 6604 C 670.194 5.58625 1.79319 0
M  V30 6605 C 672.546 6.11239 1.63003 0
M  V30 6606 C 671.21 6.49981 1.51922 0
M  V30 6607 H 670.48 0.529069 0.518813 0
M  V30 6608 H 673.127 1.76263 0.748577 0
M  V30 6609 H 671.432 2.04851 3.33981 0
M  V30 6610 H 673.129 2.4146 3.20153 0
M  V30 6611 H 669.719 3.57657 2.36176 0
M  V30 6612 H 673.903 4.512 2.06718 0
M  V30 6613 H 669.159 5.87486 1.69323 0
M  V30 6614 H 673.333 6.82014 1.40817 0
M  V30 6615 H 670.96 7.50416 1.21572 0
M  V30 6616 N 672.536 -0.895792 1.29666 0
M  V30 6617 C 673.952 -1.17726 1.07763 0
M  V30 6618 C 674.152 -2.00794 -0.168576 0
M  V30 6619 O 673.208 -2.37213 -0.865244 0
M  V30 6620 C 674.521 -1.89441 2.33522 0
M  V30 6621 C 676.069 -2.02251 2.3888 0
M  V30 6622 C 676.544 -2.77378 3.64452 0
M  V30 6623 N 678.035 -2.8493 3.65198 0
M  V30 6624 C 678.77 -3.43606 4.59045 0
M  V30 6625 N 678.266 -4.03417 5.63228 0
M  V30 6626 N 680.059 -3.41317 4.46608 0
M  V30 6627 H 672.21 -0.341652 2.09634 0
M  V30 6628 H 674.473 -0.213865 0.923561 0
M  V30 6629 H 674.179 -1.35842 3.24407 0
M  V30 6630 H 674.053 -2.89893 2.41334 0
M  V30 6631 H 676.44 -2.55025 1.4848 0
M  V30 6632 H 676.521 -1.0092 2.3505 0
M  V30 6633 H 676.165 -2.25279 4.55205 0
M  V30 6634 H 676.095 -3.79062 3.65541 0
M  V30 6635 H 678.586 -2.42453 2.89871 0
M  V30 6636 H 678.899 -4.46224 6.30955 0
M  V30 6637 H 677.244 -4.01868 5.67033 0
M  V30 6638 H 680.435 -2.93812 3.64407 0
M  V30 6639 H 680.608 -3.86751 5.1993 0
M  V30 6640 N 674.014 -1.12206 -1.10668 0
M  V30 6641 C 674.962 -0.782918 -2.19028 0
M  V30 6642 C 675.956 0.229175 -1.67843 0
M  V30 6643 O 677.162 0.0876295 -1.79787 0
M  V30 6644 H 673.537 -0.235339 -0.714227 0
M  V30 6645 H 675.508 -1.70527 -2.44874 0
M  V30 6646 C 674.257 -0.25116 -3.46792 0
M  V30 6647 H 673.58 -1.02123 -3.86537 0
M  V30 6648 H 675.02 -0.0521409 -4.23968 0
M  V30 6649 C 673.479 1.02037 -3.21076 0
M  V30 6650 O 674.009 2.09862 -3.42522 0
M  V30 6651 N 672.215 0.946348 -2.74759 0
M  V30 6652 H 671.762 0.068777 -2.57508 0
M  V30 6653 H 671.72 1.79775 -2.57931 0
M  V30 6654 N 675.492 1.28418 -0.913599 0
M  V30 6655 C 676.738 1.9527 -0.547484 0
M  V30 6656 C 677.071 1.71745 0.906486 0
M  V30 6657 O 676.346 1.03834 1.64465 0
M  V30 6658 C 676.629 3.49748 -0.857205 0
M  V30 6659 C 676.482 3.82675 -2.3639 0
M  V30 6660 C 677.801 4.3868 -0.353258 0
M  V30 6661 H 674.92 0.709236 -0.200381 0
M  V30 6662 H 677.562 1.51789 -1.14281 0
M  V30 6663 H 675.712 3.86915 -0.350548 0
M  V30 6664 H 677.384 3.55378 -2.94116 0
M  V30 6665 H 675.627 3.29724 -2.81894 0
M  V30 6666 H 676.298 4.90547 -2.53115 0
M  V30 6667 H 678.774 4.08584 -0.787288 0
M  V30 6668 H 677.65 5.45621 -0.599049 0
M  V30 6669 H 677.911 4.35753 0.746413 0
M  V30 6670 N 676.97 0.677563 1.42291 0
M  V30 6671 C 678.217 0.200975 2.015 0
M  V30 6672 C 678.545 -1.19342 1.53583 0
M  V30 6673 O 677.8 -1.81579 0.7299 0
M  V30 6674 C 678.099 0.187229 3.56909 0
M  V30 6675 C 677.765 1.52667 4.24268 0
M  V30 6676 C 676.427 1.89341 4.42384 0
M  V30 6677 C 678.779 2.40869 4.62203 0
M  V30 6678 C 676.107 3.13836 4.95705 0
M  V30 6679 C 678.459 3.64679 5.16906 0
M  V30 6680 C 677.123 4.01519 5.33234 0
M  V30 6681 H 676.393 0.0735418 0.737342 0
M  V30 6682 H 679.04 0.873095 1.70439 0
M  V30 6683 H 677.345 -0.568407 3.87655 0
M  V30 6684 H 679.042 -0.198773 4.00507 0
M  V30 6685 H 675.632 1.23138 4.1053 0
M  V30 6686 H 679.816 2.1382 4.47878 0
M  V30 6687 H 675.072 3.42396 5.06532 0
M  V30 6688 H 679.246 4.33224 5.45243 0
M  V30 6689 H 676.873 4.98062 5.74316 0
M  V30 6690 N 678.448 -1.51871 0.421078 0
M  V30 6691 C 679.864 -1.59435 0.0725398 0
M  V30 6692 C 680.064 -1.43315 -1.41644 0
M  V30 6693 O 679.12 -1.26614 -2.18461 0
M  V30 6694 C 680.433 -2.9509 0.578132 0
M  V30 6695 C 681.981 -3.08356 0.537149 0
M  V30 6696 C 682.456 -4.4651 1.01945 0
M  V30 6697 N 683.947 -4.52784 0.976758 0
M  V30 6698 C 684.682 -5.57976 1.32099 0
M  V30 6699 N 684.178 -6.70664 1.73727 0
M  V30 6700 N 685.971 -5.48248 1.2402 0
M  V30 6701 H 678.122 -1.60595 1.39007 0
M  V30 6702 H 680.385 -0.756138 0.571803 0
M  V30 6703 H 680.091 -3.12205 1.61929 0
M  V30 6704 H 679.965 -3.772 -0.00578374 0
M  V30 6705 H 682.352 -2.90919 -0.494991 0
M  V30 6706 H 682.433 -2.28125 1.15727 0
M  V30 6707 H 682.077 -4.64692 2.04997 0
M  V30 6708 H 682.007 -5.25256 0.376023 0
M  V30 6709 H 684.498 -3.71898 0.670851 0
M  V30 6710 H 684.811 -7.46932 1.98274 0
M  V30 6711 H 683.156 -6.71914 1.77641 0
M  V30 6712 H 686.347 -4.59095 0.913756 0
M  V30 6713 H 686.52 -6.30119 1.51176 0
M  V30 6714 N 679.926 -0.151884 -1.56866 0
M  V30 6715 C 680.873 0.785936 -2.17006 0
M  V30 6716 C 681.843 1.2407 -1.10435 0
M  V30 6717 O 683.028 1.31235 -1.38499 0
M  V30 6718 C 680.168 2.01771 -2.79969 0
M  V30 6719 C 679.281 1.6083 -4.00946 0
M  V30 6720 C 678.416 2.79224 -4.51893 0
M  V30 6721 C 677.455 2.3468 -5.65324 0
M  V30 6722 N 676.592 3.461 -6.10867 0
M  V30 6723 H 681.432 0.266286 -2.96808 0
M  V30 6724 H 678.969 0.11972 -1.46612 0
M  V30 6725 H 680.927 2.73989 -3.14621 0
M  V30 6726 H 679.557 2.51139 -2.02803 0
M  V30 6727 H 678.609 0.783592 -3.72242 0
M  V30 6728 H 679.921 1.24119 -4.83111 0
M  V30 6729 H 679.075 3.59625 -4.88625 0
M  V30 6730 H 677.814 3.19183 -3.68746 0
M  V30 6731 H 676.819 1.52721 -5.28163 0
M  V30 6732 H 678.044 1.95801 -6.5026 0
M  V30 6733 H 675.99 3.85671 -5.30654 0
M  V30 6734 H 675.907 3.1342 -6.87971 0
M  V30 6735 H 677.175 4.26844 -6.52246 0
M  V30 6736 N 681.404 1.57128 0.121893 0
M  V30 6737 C 682.367 1.99197 1.13372 0
M  V30 6738 C 683.367 0.881728 1.3447 0
M  V30 6739 O 684.557 1.14783 1.31036 0
M  V30 6740 C 681.689 2.32963 2.4888 0
M  V30 6741 H 682.882 2.89788 0.772204 0
M  V30 6742 H 680.435 1.51952 0.366093 0
M  V30 6743 H 681.17 1.45243 2.89957 0
M  V30 6744 H 680.955 3.13934 2.34921 0
M  V30 6745 H 682.445 2.66261 3.21706 0
M  V30 6746 N 682.882 -0.391992 1.52647 0
M  V30 6747 C 683.812 -1.48517 1.8018 0
M  V30 6748 C 684.793 -1.57039 0.653667 0
M  V30 6749 O 685.978 -1.72036 0.900962 0
M  V30 6750 C 683.108 -2.86161 1.96797 0
M  V30 6751 C 682.062 -2.92481 3.12472 0
M  V30 6752 C 681.388 -4.32546 3.14338 0
M  V30 6753 C 682.688 -2.624 4.51601 0
M  V30 6754 H 684.382 -1.25726 2.71723 0
M  V30 6755 H 681.928 -0.603387 1.30749 0
M  V30 6756 H 683.881 -3.62639 2.14641 0
M  V30 6757 H 682.605 -3.10283 1.01941 0
M  V30 6758 H 681.264 -2.18451 2.94406 0
M  V30 6759 H 680.912 -4.53703 2.1717 0
M  V30 6760 H 680.612 -4.37695 3.92042 0
M  V30 6761 H 682.136 -5.10934 3.34333 0
M  V30 6762 H 683.55 -3.28596 4.69785 0
M  V30 6763 H 681.947 -2.78903 5.3135 0
M  V30 6764 H 683.017 -1.57754 4.58521 0
M  V30 6765 N 684.36 -1.4356 -0.65026 0
M  V30 6766 C 685.776 -1.27025 -0.966269 0
M  V30 6767 C 685.976 -0.192117 -2.00582 0
M  V30 6768 O 685.032 0.428459 -2.48838 0
M  V30 6769 C 686.345 -2.63556 -1.44772 0
M  V30 6770 C 687.893 -2.71111 -1.56421 0
M  V30 6771 C 688.368 -4.08067 -2.07956 0
M  V30 6772 N 689.859 -4.10146 -2.15254 0
M  V30 6773 C 690.594 -5.12952 -2.56258 0
M  V30 6774 N 690.09 -6.26129 -2.96537 0
M  V30 6775 N 691.883 -5.00306 -2.56224 0
M  V30 6776 H 684.034 -2.12367 0.0375758 0
M  V30 6777 H 686.297 -0.946894 -0.0457782 0
M  V30 6778 H 686.003 -3.43429 -0.758271 0
M  V30 6779 H 685.877 -2.89152 -2.42221 0
M  V30 6780 H 688.264 -1.91569 -2.24467 0
M  V30 6781 H 688.345 -2.49277 -0.573967 0
M  V30 6782 H 687.989 -4.88077 -1.40511 0
M  V30 6783 H 687.919 -4.27266 -3.07817 0
M  V30 6784 H 690.41 -3.28453 -1.86887 0
M  V30 6785 H 690.723 -7.00403 -3.26582 0
M  V30 6786 H 689.068 -6.29597 -2.94334 0
M  V30 6787 H 692.259 -4.10952 -2.24135 0
M  V30 6788 H 692.432 -5.80553 -2.87857 0
M  V30 6789 N 685.838 0.888903 -1.30139 0
M  V30 6790 C 686.801 1.97576 -1.16174 0
M  V30 6791 C 687.801 1.60525 -0.094086 0
M  V30 6792 O 688.991 1.70812 -0.341889 0
M  V30 6793 C 686.123 3.3188 -0.778983 0
M  V30 6794 H 687.316 2.11393 -2.12728 0
M  V30 6795 H 684.869 1.0748 -1.1348 0
M  V30 6796 H 685.604 3.23765 0.186225 0
M  V30 6797 H 685.389 3.60141 -1.55051 0
M  V30 6798 H 686.879 4.11612 -0.704631 0
M  V30 6799 N 687.317 1.12792 1.10072 0
M  V30 6800 C 688.557 0.895691 1.8373 0
M  V30 6801 C 688.921 -0.568131 1.83402 0
M  V30 6802 O 690.122 -0.917666 2.52651 0
M  V30 6803 C 688.393 1.4593 3.2625 0
M  V30 6804 S 689.952 1.36615 4.16991 0
M  V30 6805 H 686.77 0.323017 0.633389 0
M  V30 6806 H 689.372 1.43816 1.32428 0
M  V30 6807 H 688.076 2.51818 3.24062 0
M  V30 6808 H 687.607 0.914478 3.82624 0
M  V30 6809 H 689.622 0.340131 4.95033 0
M  V30 6810 N 688.795 -1.27931 0.920396 0
M  V30 6811 C 690.035 -1.96459 0.564198 0
M  V30 6812 C 690.399 -1.70802 -0.876967 0
M  V30 6813 O 691.6 -2.32956 -1.34107 0
M  V30 6814 C 689.871 -3.46583 0.872641 0
M  V30 6815 S 691.43 -4.34343 0.623859 0
M  V30 6816 H 688.248 -0.679735 0.208523 0
M  V30 6817 H 690.85 -1.55319 1.18727 0
M  V30 6818 H 689.554 -3.62753 1.91933 0
M  V30 6819 H 689.085 -3.92677 0.238479 0
M  V30 6820 H 691.1 -4.93449 -0.521744 0
M  V30 6821 O 690.312 -0.824023 -1.38896 0
M  V30 6822 H 691.003 -0.40654 -1.89386 0
M  V30 END ATOM
M  V30 BEGIN BOND
M  V30 END BOND
M  V30 END CTAB
M  END
$$$$
