drugbank_target|Q8II73 Spermidine synthase (DB11638)
 OpenBabel12092121103D

  0  0  0     0  0            999 V3000
M  V30 BEGIN CTAB
M  V30 COUNTS 5179 5236 0 0 0
M  V30 BEGIN ATOM
M  V30 1 H -0.908 1.98254 -0.117106 0
M  V30 2 N 0 1.576 0 0
M  V30 3 C 0.933 2.03868 1.02534 0
M  V30 4 C 1.911 0.928543 1.3348 0
M  V30 5 O 3.095 1.19667 1.45644 0
M  V30 6 C 0.222 2.43627 2.35294 0
M  V30 7 C -0.732 3.65373 2.2001 0
M  V30 8 S 0.101 5.13292 1.52614 0
M  V30 9 C 1.257 5.56322 2.86805 0
M  V30 10 H 1.49 2.90518 0.631377 0
M  V30 11 H -0.977 1.52953 0.210867 0
M  V30 12 H 0.981 2.67203 3.11629 0
M  V30 13 H -0.358 1.57376 2.7183 0
M  V30 14 H -1.165 3.90944 3.18086 0
M  V30 15 H -1.563 3.418 1.51819 0
M  V30 16 H 0.729 5.58782 3.83104 0
M  V30 17 H 1.672 6.56266 2.65933 0
M  V30 18 H 2.08 4.83886 2.90714 0
M  V30 19 N 1.4781 -0.272755 1.55222 0
M  V30 20 C 2.7551 -1.02562 1.66555 0
M  V30 21 C 3.1351 -2.04282 0.532189 0
M  V30 22 O 2.4831 -2.23662 -0.467717 0
M  V30 23 C 2.6931 -1.6822 3.05782 0
M  V30 24 C 4.0411 -2.19373 3.63539 0
M  V30 25 O 5.0651 -1.78206 3.08417 0
M  V30 26 O 3.9241 -2.94883 4.60115 0
M  V30 27 H 1.0181 -0.475755 0.676451 0
M  V30 28 H 3.5641 -0.268593 1.67561 0
M  V30 29 H 2.3361 -0.945112 3.79715 0
M  V30 30 H 1.9591 -2.50609 3.08676 0
M  V30 31 N 2.9562 -1.48159 -0.537278 0
M  V30 32 C 3.9032 -1.62138 -1.64256 0
M  V30 33 C 4.8732 -0.463668 -1.59497 0
M  V30 34 O 6.0582 -0.686241 -1.78032 0
M  V30 35 C 3.1982 -1.66028 -3.02537 0
M  V30 36 C 2.3112 -2.92855 -3.17585 0
M  V30 37 C 1.4462 -2.87952 -4.46382 0
M  V30 38 C 0.4852 -4.09516 -4.54932 0
M  V30 39 N -0.3778 -4.02733 -5.75109 0
M  V30 40 H 4.4622 -2.56529 -1.51647 0
M  V30 41 H 1.9992 -1.27224 -0.738414 0
M  V30 42 H 3.9572 -1.66265 -3.82638 0
M  V30 43 H 2.5872 -0.751331 -3.13934 0
M  V30 44 H 1.6392 -3.02395 -2.30784 0
M  V30 45 H 2.9512 -3.82822 -3.19764 0
M  V30 46 H 2.1052 -2.8655 -5.34765 0
M  V30 47 H 0.8442 -1.95702 -4.46712 0
M  V30 48 H -0.1508 -4.11201 -3.64957 0
M  V30 49 H 1.0742 -5.02917 -4.56346 0
M  V30 50 H -0.9798 -3.13299 -5.76351 0
M  V30 51 H -1.0628 -4.86397 -5.78752 0
M  V30 52 H 0.2052 -4.05379 -6.65799 0
M  V30 53 N 4.4343 0.785586 -1.36625 0
M  V30 54 C 5.3643 1.91259 -1.33949 0
M  V30 55 C 6.3453 1.68795 -0.210325 0
M  V30 56 O 7.5303 1.89854 -0.408561 0
M  V30 57 C 4.6603 3.28339 -1.13186 0
M  V30 58 C 3.6143 3.65335 -2.22967 0
M  V30 59 C 2.9403 5.00806 -1.87342 0
M  V30 60 C 4.2403 3.7352 -3.65075 0
M  V30 61 H 5.9343 1.93755 -2.28253 0
M  V30 62 H 3.4803 0.930788 -1.09874 0
M  V30 63 H 5.4333 4.06804 -1.09948 0
M  V30 64 H 4.1573 3.2624 -0.153332 0
M  V30 65 H 2.8163 2.89169 -2.25337 0
M  V30 66 H 2.4643 4.95233 -0.880545 0
M  V30 67 H 2.1643 5.26529 -2.60846 0
M  V30 68 H 3.6883 5.81687 -1.85667 0
M  V30 69 H 5.1023 4.42168 -3.64911 0
M  V30 70 H 3.4993 4.10731 -4.37516 0
M  V30 71 H 4.5693 2.74527 -3.99703 0
M  V30 72 N 5.9124 1.20967 1.01018 0
M  V30 73 C 7.1614 1.01796 1.74128 0
M  V30 74 C 7.4744 -0.449691 1.90361 0
M  V30 75 O 8.6804 -0.76068 2.60626 0
M  V30 76 C 7.1364 1.7727 3.13215 0
M  V30 77 C 6.7444 3.28171 3.04972 0
M  V30 78 C 8.4884 1.66489 3.90489 0
M  V30 79 C 6.3954 3.96156 4.39107 0
M  V30 80 H 5.3254 0.377276 0.652824 0
M  V30 81 H 7.9764 1.44651 1.12909 0
M  V30 82 H 6.3584 1.27205 3.75013 0
M  V30 83 H 7.5324 3.85499 2.52443 0
M  V30 84 H 5.8474 3.39437 2.41188 0
M  V30 85 H 8.4444 2.14617 4.89738 0
M  V30 86 H 8.7874 0.6222 4.11624 0
M  V30 87 H 9.3204 2.14003 3.35332 0
M  V30 88 H 6.0594 5.00604 4.23174 0
M  V30 89 H 5.5794 3.43617 4.91617 0
M  V30 90 H 7.2584 4.00774 5.07926 0
M  V30 91 N 7.3905 -1.2043 1.01659 0
M  V30 92 C 8.6155 -1.94318 0.724942 0
M  V30 93 C 9.0405 -1.74266 -0.708034 0
M  V30 94 O 8.3985 -1.03694 -1.48719 0
M  V30 95 C 8.4465 -3.44486 1.06591 0
M  V30 96 O 7.5505 -4.12017 0.177599 0
M  V30 97 H 6.8915 -0.60708 0.26898 0
M  V30 98 H 9.4215 -1.52861 1.35995 0
M  V30 99 H 9.4315 -3.95106 1.01762 0
M  V30 100 H 8.1065 -3.58404 2.10997 0
M  V30 101 H 6.6835 -3.71821 0.283421 0
M  V30 102 N 8.8686 -0.792821 -1.36206 0
M  V30 103 C 9.8166 -0.181555 -2.3189 0
M  V30 104 C 10.8106 0.661025 -1.55971 0
M  V30 105 O 12.0166 0.555728 -1.71206 0
M  V30 106 H 8.3916 -0.0399382 -0.750939 0
M  V30 107 H 10.3626 -1.00394 -2.81005 0
M  V30 108 C 9.1116 0.666444 -3.41253 0
M  V30 109 H 8.4346 0.0274489 -3.99791 0
M  V30 110 H 9.8746 1.06076 -4.10517 0
M  V30 111 C 8.3336 1.82614 -2.83114 0
M  V30 112 O 8.8636 2.9229 -2.75553 0
M  V30 113 N 7.0696 1.63333 -2.40356 0
M  V30 114 H 6.6166 0.741217 -2.46706 0
M  V30 115 H 6.5746 2.41087 -2.01803 0
M  V30 116 N 10.3467 1.47872 -0.545128 0
M  V30 117 C 11.2947 2.31533 0.222512 0
M  V30 118 C 12.2887 1.42177 0.920985 0
M  V30 119 O 13.4947 1.59005 0.843645 0
M  V30 120 H 9.8697 0.746519 0.0906278 0
M  V30 121 H 11.8407 2.94139 -0.50246 0
M  V30 122 C 10.5897 3.2457 1.24699 0
M  V30 123 H 9.9127 3.93283 0.718944 0
M  V30 124 H 11.3527 3.85963 1.75523 0
M  V30 125 C 9.8117 2.47237 2.28856 0
M  V30 126 O 10.3417 2.20808 3.35569 0
M  V30 127 N 8.5477 2.08461 2.02466 0
M  V30 128 H 8.0947 2.30155 1.157 0
M  V30 129 H 8.0527 1.57033 2.72375 0
M  V30 130 N 11.8248 0.280983 1.55075 0
M  V30 131 C 12.7718 -0.603937 2.22758 0
M  V30 132 C 13.7418 -1.1452 1.20309 0
M  V30 133 O 14.9268 -1.19343 1.48869 0
M  V30 134 C 12.0668 -1.77947 2.95684 0
M  V30 135 C 11.1798 -1.2715 4.12864 0
M  V30 136 C 10.3148 -2.4093 4.7342 0
M  V30 137 C 9.3538 -1.87165 5.82783 0
M  V30 138 N 8.4908 -2.94441 6.37377 0
M  V30 139 H 13.3308 -0.020124 2.97993 0
M  V30 140 H 10.8678 0.00183425 1.471 0
M  V30 141 H 12.8258 -2.47055 3.36184 0
M  V30 142 H 11.4558 -2.33522 2.22861 0
M  V30 143 H 10.5078 -0.473331 3.77444 0
M  V30 144 H 11.8198 -0.837751 4.91715 0
M  V30 145 H 10.9738 -3.18021 5.1667 0
M  V30 146 H 9.7128 -2.87623 3.93859 0
M  V30 147 H 8.7178 -1.08556 5.38976 0
M  V30 148 H 9.9428 -1.41401 6.64216 0
M  V30 149 H 7.8888 -3.40505 5.60707 0
M  V30 150 H 7.8058 -2.55501 7.11516 0
M  V30 151 H 9.0738 -3.71489 6.85285 0
M  V30 152 N 13.3029 -1.57598 0.00835791 0
M  V30 153 C 14.2329 -2.1198 -0.979113 0
M  V30 154 C 15.2139 -1.03091 -1.35301 0
M  V30 155 O 16.3989 -1.30818 -1.43528 0
M  V30 156 C 13.5289 -2.62995 -2.26828 0
M  V30 157 C 12.4829 -3.76485 -2.03576 0
M  V30 158 C 11.8089 -4.13846 -3.38579 0
M  V30 159 C 13.1089 -5.0342 -1.39161 0
M  V30 160 H 14.8029 -2.94738 -0.526281 0
M  V30 161 H 12.3489 -1.41783 -0.251704 0
M  V30 162 H 14.3019 -2.99669 -2.96271 0
M  V30 163 H 13.0259 -1.7737 -2.7424 0
M  V30 164 H 11.6849 -3.40217 -1.36557 0
M  V30 165 H 11.3329 -3.25232 -3.83709 0
M  V30 166 H 11.0329 -4.90312 -3.23834 0
M  V30 167 H 12.5569 -4.53086 -4.09323 0
M  V30 168 H 13.9709 -5.37812 -1.98573 0
M  V30 169 H 12.3679 -5.84746 -1.34878 0
M  V30 170 H 13.4379 -4.83548 -0.361868 0
M  V30 171 N 14.781 0.264519 -1.55364 0
M  V30 172 C 15.728 1.32717 -1.88825 0
M  V30 173 C 16.698 1.48675 -0.740605 0
M  V30 174 O 17.883 1.62945 -0.992657 0
M  V30 175 C 15.023 2.68089 -2.17307 0
M  V30 176 C 14.136 2.60284 -3.44785 0
M  V30 177 C 13.271 3.87892 -3.62924 0
M  V30 178 C 12.31 3.74631 -4.84064 0
M  V30 179 N 11.447 4.94092 -4.98816 0
M  V30 180 H 16.287 1.03481 -2.79456 0
M  V30 181 H 13.824 0.499757 -1.3835 0
M  V30 182 H 15.782 3.46864 -2.31821 0
M  V30 183 H 14.412 2.95509 -1.299 0
M  V30 184 H 13.464 1.73173 -3.38697 0
M  V30 185 H 14.776 2.46388 -4.33698 0
M  V30 186 H 13.93 4.75109 -3.77302 0
M  V30 187 H 12.669 4.04664 -2.7221 0
M  V30 188 H 11.674 2.85797 -4.69681 0
M  V30 189 H 12.899 3.5937 -5.76221 0
M  V30 190 H 10.845 5.11259 -4.11036 0
M  V30 191 H 10.762 4.8276 -5.81789 0
M  V30 192 H 12.03 5.82857 -5.17588 0
M  V30 193 N 16.2591 1.48442 0.529413 0
M  V30 194 C 17.1891 1.65902 1.64313 0
M  V30 195 C 18.1701 0.507897 1.6234 0
M  V30 196 O 19.3551 0.740503 1.79528 0
M  V30 197 C 16.4851 1.69911 3.02898 0
M  V30 198 C 15.4391 2.8453 3.19729 0
M  V30 199 C 14.7651 2.73629 4.59381 0
M  V30 200 C 16.0651 4.25821 3.02447 0
M  V30 201 H 17.7591 2.5914 1.49955 0
M  V30 202 H 15.3051 1.24709 0.719982 0
M  V30 203 H 17.2581 1.80715 3.80684 0
M  V30 204 H 15.9821 0.732524 3.18279 0
M  V30 205 H 14.6411 2.73283 2.44361 0
M  V30 206 H 14.2891 1.74938 4.71599 0
M  V30 207 H 13.9891 3.50541 4.71588 0
M  V30 208 H 15.5131 2.86401 5.39265 0
M  V30 209 H 16.9271 4.37898 3.70024 0
M  V30 210 H 15.3241 5.03735 3.26146 0
M  V30 211 H 16.3941 4.42244 1.98867 0
M  V30 212 N 17.7372 -0.778329 1.37039 0
M  V30 213 C 18.9622 -1.57248 1.35233 0
M  V30 214 C 19.3872 -1.87999 -0.0615568 0
M  V30 215 O 18.7452 -1.48734 -1.03672 0
M  V30 216 C 18.7932 -2.86353 2.19167 0
M  V30 217 O 17.8972 -3.80442 1.59178 0
M  V30 218 H 17.2382 -0.476569 0.462362 0
M  V30 219 H 19.7682 -0.963853 1.80474 0
M  V30 220 H 19.7782 -3.35519 2.32145 0
M  V30 221 H 18.4532 -2.63299 3.21942 0
M  V30 222 H 17.0302 -3.39067 1.55203 0
M  V30 223 N 19.2153 -1.21501 -1.00376 0
M  V30 224 C 20.4613 -1.03452 -1.74429 0
M  V30 225 C 20.7943 0.430764 -1.89362 0
M  V30 226 O 20.0693 1.31962 -1.42886 0
M  V30 227 C 20.3523 -1.73375 -3.15615 0
M  V30 228 C 20.2053 -3.27431 -3.08397 0
M  V30 229 C 21.5243 -1.47732 -4.14564 0
M  V30 230 H 18.6433 -0.377226 -0.633143 0
M  V30 231 H 21.2853 -1.49693 -1.17013 0
M  V30 232 H 19.4353 -1.34064 -3.64636 0
M  V30 233 H 21.1073 -3.76119 -2.67081 0
M  V30 234 H 19.3503 -3.5767 -2.45468 0
M  V30 235 H 20.0213 -3.71524 -4.08258 0
M  V30 236 H 22.4973 -1.8186 -3.74254 0
M  V30 237 H 21.3733 -1.99169 -5.11491 0
M  V30 238 H 21.6343 -0.407589 -4.40217 0
M  V30 239 N 20.6934 1.19889 -1.02296 0
M  V30 240 C 21.9394 1.89701 -0.717033 0
M  V30 241 C 22.2724 1.7905 0.751989 0
M  V30 242 O 21.5474 1.17891 1.547 0
M  V30 243 C 21.8304 3.40858 -1.16136 0
M  V30 244 C 21.6834 3.60411 -2.69117 0
M  V30 245 C 23.0024 4.33876 -0.737549 0
M  V30 246 H 20.1214 0.688874 -0.261957 0
M  V30 247 H 22.7634 1.41154 -1.27183 0
M  V30 248 H 20.9134 3.82335 -0.689342 0
M  V30 249 H 22.5854 3.28145 -3.2422 0
M  V30 250 H 20.8284 3.03665 -3.0979 0
M  V30 251 H 21.4994 4.66396 -2.95261 0
M  V30 252 H 23.9754 4.00081 -1.14344 0
M  V30 253 H 22.8514 5.38242 -1.0764 0
M  V30 254 H 23.1124 4.40628 0.360436 0
M  V30 255 N 22.1715 0.800033 1.35784 0
M  V30 256 C 23.1015 0.220184 2.3246 0
M  V30 257 C 24.0825 -0.65073 1.57161 0
M  V30 258 O 25.2675 -0.582359 1.85263 0
M  V30 259 C 22.3975 -0.637353 3.41402 0
M  V30 260 C 21.3515 0.134531 4.27789 0
M  V30 261 C 20.6775 -0.844285 5.27992 0
M  V30 262 C 21.9775 1.32979 5.05088 0
M  V30 263 H 23.6715 1.02787 2.81203 0
M  V30 264 H 21.2175 0.495717 1.35199 0
M  V30 265 H 23.1705 -1.05302 4.08031 0
M  V30 266 H 21.8945 -1.47785 2.91251 0
M  V30 267 H 20.5535 0.531296 3.6273 0
M  V30 268 H 20.2015 -1.68011 4.74111 0
M  V30 269 H 19.9015 -0.332184 5.8666 0
M  V30 270 H 21.4255 -1.2583 5.97494 0
M  V30 271 H 22.8395 0.98934 5.64699 0
M  V30 272 H 21.2365 1.77593 5.7322 0
M  V30 273 H 22.3065 2.11978 4.36111 0
M  V30 274 N 23.6496 -1.47581 0.552962 0
M  V30 275 C 24.5796 -2.32762 -0.185451 0
M  V30 276 C 25.5606 -1.43527 -0.912905 0
M  V30 277 O 26.7456 -1.72388 -0.894201 0
M  V30 278 C 23.8756 -3.25219 -1.21859 0
M  V30 279 C 22.8296 -4.23661 -0.607864 0
M  V30 280 C 22.1556 -5.05413 -1.74533 0
M  V30 281 C 23.4556 -5.20481 0.435582 0
M  V30 282 H 25.1496 -2.94749 0.525684 0
M  V30 283 H 22.6956 -1.41738 0.254251 0
M  V30 284 H 24.6486 -3.8365 -1.7433 0
M  V30 285 H 23.3726 -2.61279 -1.95961 0
M  V30 286 H 22.0316 -3.66451 -0.104489 0
M  V30 287 H 21.6796 -4.3788 -2.47529 0
M  V30 288 H 21.3796 -5.72059 -1.34249 0
M  V30 289 H 22.9036 -5.66701 -2.27338 0
M  V30 290 H 24.3176 -5.733 -0.00290157 0
M  V30 291 H 22.7146 -5.95305 0.757067 0
M  V30 292 H 23.7846 -4.66217 1.33303 0
M  V30 293 N 25.1277 -0.289203 -1.54924 0
M  V30 294 C 26.3757 0.322879 -1.99504 0
M  V30 295 C 26.6967 1.55313 -1.1791 0
M  V30 296 O 25.9667 1.94001 -0.272097 0
M  V30 297 H 24.5467 0.122291 -0.736922 0
M  V30 298 H 27.2087 -0.397802 -1.90797 0
M  V30 299 H 26.3047 0.603061 -3.06218 0
M  V30 300 N 26.6058 1.57591 -0.0167156 0
M  V30 301 C 27.8538 1.90906 0.663285 0
M  V30 302 C 28.1748 0.892509 1.73376 0
M  V30 303 O 27.4448 -0.0677623 1.95783 0
M  V30 304 H 26.0248 0.704637 0.247983 0
M  V30 305 H 28.6868 1.94803 -0.0615909 0
M  V30 306 H 27.7828 2.9116 1.12393 0
M  V30 307 N 28.0839 -0.256276 1.55502 0
M  V30 308 C 29.0139 -1.32102 1.92539 0
M  V30 309 C 29.9949 -1.50684 0.789194 0
M  V30 310 O 31.1799 -1.63449 1.04872 0
M  V30 311 C 28.3099 -2.67752 2.21192 0
M  V30 312 C 27.2639 -2.63878 3.36975 0
M  V30 313 C 26.5899 -4.03236 3.51147 0
M  V30 314 C 27.8899 -2.21682 4.72921 0
M  V30 315 H 29.5839 -1.01351 2.81724 0
M  V30 316 H 27.1299 -0.486105 1.35547 0
M  V30 317 H 29.0829 -3.42365 2.45691 0
M  V30 318 H 27.8069 -3.0012 1.28824 0
M  V30 319 H 26.4659 -1.91722 3.12471 0
M  V30 320 H 26.1139 -4.32854 2.56216 0
M  V30 321 H 25.8139 -4.01535 4.29003 0
M  V30 322 H 27.3379 -4.79563 3.77957 0
M  V30 323 H 28.7519 -2.86023 4.96854 0
M  V30 324 H 27.1489 -2.3111 5.53812 0
M  V30 325 H 28.2189 -1.16833 4.70615 0
M  V30 326 N 29.562 -1.4872 -0.521534 0
M  V30 327 C 30.802 -1.58771 -1.28729 0
M  V30 328 C 31.166 -0.259394 -1.9024 0
M  V30 329 O 32.367 -0.234942 -2.67771 0
M  V30 330 C 30.638 -2.70039 -2.34124 0
M  V30 331 S 32.197 -2.9991 -3.20312 0
M  V30 332 H 29.015 -0.560251 -0.437767 0
M  V30 333 H 31.617 -1.86283 -0.593188 0
M  V30 334 H 30.321 -3.65101 -1.87429 0
M  V30 335 H 29.852 -2.44455 -3.08229 0
M  V30 336 H 31.867 -2.39855 -4.34378 0
M  V30 337 N 31.0401 0.771051 -1.3745 0
M  V30 338 C 32.2651 1.56529 -1.36065 0
M  V30 339 C 32.6901 1.88029 0.0515859 0
M  V30 340 O 32.0481 1.49282 1.02882 0
M  V30 341 C 32.0961 2.85187 -2.20683 0
M  V30 342 O 31.2001 3.79593 -1.61193 0
M  V30 343 H 30.5411 0.47411 -0.464883 0
M  V30 344 H 33.0711 0.954269 -1.80983 0
M  V30 345 H 33.0811 3.34283 -2.33921 0
M  V30 346 H 31.7561 2.61588 -3.23334 0
M  V30 347 H 30.3331 3.38239 -1.56999 0
M  V30 348 N 32.5182 1.22032 0.997298 0
M  V30 349 C 33.4482 1.01065 2.10495 0
M  V30 350 C 34.4292 -0.0669542 1.69968 0
M  V30 351 O 35.6142 0.0943987 1.9397 0
M  V30 352 C 32.7442 0.582874 3.42374 0
M  V30 353 C 31.6982 1.60592 3.96729 0
M  V30 354 C 31.0242 1.03412 5.24605 0
M  V30 355 C 32.3242 2.99478 4.27914 0
M  V30 356 H 34.0182 1.93708 2.28292 0
M  V30 357 H 31.5642 0.932761 1.09707 0
M  V30 358 H 33.5172 0.423332 4.19268 0
M  V30 359 H 32.2412 -0.379213 3.24391 0
M  V30 360 H 30.9002 1.75316 3.21963 0
M  V30 361 H 30.5482 0.063518 5.0296 0
M  V30 362 H 30.2482 1.71754 5.61938 0
M  V30 363 H 31.7722 0.886066 6.04137 0
M  V30 364 H 33.1862 2.88153 4.95622 0
M  V30 365 H 31.5832 3.64903 4.76409 0
M  V30 366 H 32.6532 3.49742 3.3587 0
M  V30 367 N 33.9963 -1.19345 1.0293 0
M  V30 368 C 34.9593 -2.20793 0.615069 0
M  V30 369 C 35.9593 -1.57553 -0.321533 0
M  V30 370 O 37.1493 -1.73862 -0.108483 0
M  V30 371 C 34.2813 -3.40754 -0.0999222 0
M  V30 372 H 35.4743 -2.58955 1.51269 0
M  V30 373 H 33.0273 -1.3303 0.820534 0
M  V30 374 H 33.7623 -3.0811 -1.01187 0
M  V30 375 H 33.5473 -3.87889 0.57309 0
M  V30 376 H 35.0373 -4.15898 -0.376645 0
M  V30 377 N 35.4744 -0.807222 -1.35358 0
M  V30 378 C 36.7044 -0.399796 -2.02695 0
M  V30 379 C 37.1124 0.994176 -1.60974 0
M  V30 380 O 36.4554 1.65209 -0.803226 0
M  V30 381 C 36.5174 -0.404445 -3.57218 0
M  V30 382 C 36.1814 -1.74904 -4.22206 0
M  V30 383 C 37.1784 -2.70743 -4.4384 0
M  V30 384 C 34.8634 -2.03322 -4.5931 0
M  V30 385 C 36.8574 -3.93183 -5.01683 0
M  V30 386 C 34.5444 -3.26026 -5.16866 0
M  V30 387 C 35.5424 -4.20774 -5.37994 0
M  V30 388 O 35.2304 -5.41312 -5.94337 0
M  V30 389 H 34.9624 -0.160517 -0.656666 0
M  V30 390 H 37.5164 -1.09235 -1.73945 0
M  V30 391 H 35.7464 0.344707 -3.85161 0
M  V30 392 H 37.4354 -0.0192429 -4.05895 0
M  V30 393 H 38.2014 -2.5008 -4.15554 0
M  V30 394 H 34.0804 -1.30384 -4.42178 0
M  V30 395 H 37.6244 -4.6715 -5.1809 0
M  V30 396 H 33.5214 -3.46559 -5.44579 0
M  V30 397 H 34.2894 -5.42618 -6.12787 0
M  V30 398 N 36.9525 1.47285 -0.560781 0
M  V30 399 C 38.1825 2.06555 -0.0429638 0
M  V30 400 C 38.5905 1.41339 1.25777 0
M  V30 401 O 37.9335 0.505182 1.76617 0
M  V30 402 C 37.9955 3.58827 0.219887 0
M  V30 403 C 37.6595 4.46105 -0.991944 0
M  V30 404 C 38.6565 4.84 -1.89843 0
M  V30 405 C 36.3415 4.87567 -1.20762 0
M  V30 406 C 38.3355 5.6216 -3.00425 0
M  V30 407 C 36.0225 5.65491 -2.31653 0
M  V30 408 C 37.0205 6.02699 -3.21315 0
M  V30 409 O 36.7085 6.79052 -4.30283 0
M  V30 410 H 36.4405 0.674537 -0.0444468 0
M  V30 411 H 38.9945 1.90225 -0.774818 0
M  V30 412 H 37.2245 3.73383 1.00609 0
M  V30 413 H 38.9135 4.00103 0.683522 0
M  V30 414 H 39.6795 4.52564 -1.74387 0
M  V30 415 H 35.5585 4.5807 -0.518893 0
M  V30 416 H 39.1025 5.9112 -3.70436 0
M  V30 417 H 34.9995 5.9634 -2.47081 0
M  V30 418 H 35.7675 6.9745 -4.28376 0
M  V30 419 N 38.4306 0.297415 1.54768 0
M  V30 420 C 39.3806 -0.595275 2.20092 0
M  V30 421 C 40.3646 -1.10163 1.17273 0
M  V30 422 O 41.5566 -1.043 1.43006 0
M  V30 423 C 38.6856 -1.7684 2.94249 0
M  V30 424 C 37.7716 -1.27818 4.0438 0
M  V30 425 N 38.1626 -0.505695 5.03266 0
M  V30 426 C 36.4606 -1.55923 4.17857 0
M  V30 427 C 37.1616 -0.245094 5.81183 0
M  V30 428 N 36.1376 -0.823881 5.3732 0
M  V30 429 H 39.9396 0.00250837 2.939 0
M  V30 430 H 37.4536 0.102007 1.62079 0
M  V30 431 H 39.4506 -2.41944 3.39513 0
M  V30 432 H 38.1106 -2.36992 2.21957 0
M  V30 433 H 39.1216 -0.150928 5.1768 0
M  V30 434 H 35.7986 -2.16849 3.56767 0
M  V30 435 H 37.1886 0.375084 6.70852 0
M  V30 436 N 39.9087 -1.5758 0.0250728 0
M  V30 437 C 40.8387 -2.13007 -0.956575 0
M  V30 438 C 41.8197 -1.0452 -1.342 0
M  V30 439 O 43.0047 -1.32332 -1.42133 0
M  V30 440 C 40.1347 -2.65386 -2.24026 0
M  V30 441 C 39.0887 -3.78623 -1.99571 0
M  V30 442 C 38.4147 -4.17414 -3.3417 0
M  V30 443 C 39.7147 -5.04867 -1.33814 0
M  V30 444 H 41.4087 -2.9528 -0.494991 0
M  V30 445 H 38.9547 -1.42042 -0.236651 0
M  V30 446 H 40.9077 -3.02794 -2.93076 0
M  V30 447 H 39.6317 -1.80268 -2.72343 0
M  V30 448 H 38.2907 -3.41646 -1.32941 0
M  V30 449 H 37.9387 -3.29284 -3.80238 0
M  V30 450 H 37.6387 -4.93719 -3.18615 0
M  V30 451 H 39.1627 -4.57402 -4.04495 0
M  V30 452 H 40.5767 -5.39888 -1.92857 0
M  V30 453 H 38.9737 -5.86144 -1.28669 0
M  V30 454 H 40.0437 -4.83904 -0.310561 0
M  V30 455 N 41.3868 0.248026 -1.55636 0
M  V30 456 C 42.3338 1.30707 -1.90222 0
M  V30 457 C 43.3038 1.47881 -0.756332 0
M  V30 458 O 44.4888 1.61883 -1.00988 0
M  V30 459 C 41.6288 2.65769 -2.20138 0
M  V30 460 C 40.7418 2.56612 -3.47526 0
M  V30 461 C 39.8768 3.8402 -3.67017 0
M  V30 462 C 38.9158 3.69476 -4.8801 0
M  V30 463 N 38.0528 4.88774 -5.04029 0
M  V30 464 H 42.8928 1.00512 -2.80538 0
M  V30 465 H 40.4298 0.485055 -1.38873 0
M  V30 466 H 42.3878 3.44386 -2.35487 0
M  V30 467 H 41.0178 2.94115 -1.33027 0
M  V30 468 H 40.0698 1.69571 -3.40514 0
M  V30 469 H 41.3818 2.41774 -4.36287 0
M  V30 470 H 40.5358 4.7108 -3.8232 0
M  V30 471 H 39.2748 4.01754 -2.76487 0
M  V30 472 H 38.2798 2.80799 -4.72686 0
M  V30 473 H 39.5048 3.53238 -5.8 0
M  V30 474 H 37.4508 5.0687 -4.16435 0
M  V30 475 H 37.3678 4.76562 -5.86877 0
M  V30 476 H 38.6358 5.77335 -5.23741 0
M  V30 477 N 42.8649 1.48995 0.513639 0
M  V30 478 C 43.8129 1.65199 1.63744 0
M  V30 479 C 44.8069 0.51809 1.61283 0
M  V30 480 O 46.0129 0.697335 1.65943 0
M  V30 481 H 42.3879 0.52069 0.542574 0
M  V30 482 H 44.3589 2.59552 1.47226 0
M  V30 483 C 43.1079 1.72409 3.01945 0
M  V30 484 H 42.4309 2.59029 3.04539 0
M  V30 485 H 43.8709 1.87785 3.80148 0
M  V30 486 C 42.3299 0.46618 3.33659 0
M  V30 487 O 42.8599 -0.413744 3.99564 0
M  V30 488 N 41.0659 0.332931 2.88687 0
M  V30 489 H 40.6129 1.04996 2.35231 0
M  V30 490 H 40.5709 -0.507665 3.10274 0
M  V30 491 N 44.343 -0.763751 1.37857 0
M  V30 492 C 45.29 -1.87726 1.34267 0
M  V30 493 C 46.26 -1.64807 0.206879 0
M  V30 494 O 47.445 -1.86613 0.397508 0
M  V30 495 C 44.585 -3.24896 1.16346 0
M  V30 496 C 43.698 -3.59716 2.39225 0
M  V30 497 C 42.833 -4.86137 2.14114 0
M  V30 498 C 41.872 -5.13711 3.32817 0
M  V30 499 N 41.009 -6.31323 3.07206 0
M  V30 500 H 45.849 -1.90129 2.29466 0
M  V30 501 H 43.386 -0.929433 1.14017 0
M  V30 502 H 45.344 -4.04036 1.03975 0
M  V30 503 H 43.974 -3.21847 0.247909 0
M  V30 504 H 43.026 -2.75498 2.62307 0
M  V30 505 H 44.338 -3.76027 3.27728 0
M  V30 506 H 43.492 -5.73198 1.9882 0
M  V30 507 H 42.231 -4.71945 1.22961 0
M  V30 508 H 41.236 -4.25123 3.48641 0
M  V30 509 H 42.461 -5.29807 4.24832 0
M  V30 510 H 40.407 -6.18474 2.1869 0
M  V30 511 H 40.324 -6.48087 3.89254 0
M  V30 512 H 41.592 -7.213 2.95546 0
M  V30 513 N 45.8211 -1.22559 -0.990812 0
M  V30 514 C 47.0681 -1.05141 -1.73065 0
M  V30 515 C 47.3961 0.413191 -1.9006 0
M  V30 516 O 46.6511 1.32257 -1.44245 0
M  V30 517 C 46.9501 -1.71011 -3.13831 0
M  V30 518 C 46.6161 -3.20911 -3.16745 0
M  V30 519 C 45.2781 -3.61812 -3.17247 0
M  V30 520 C 47.6301 -4.16846 -3.12872 0
M  V30 521 C 44.9581 -4.97127 -3.1158 0
M  V30 522 C 47.3101 -5.5214 -3.08746 0
M  V30 523 C 45.9741 -5.92419 -3.07565 0
M  V30 524 H 45.2441 -0.384738 -0.633291 0
M  V30 525 H 47.8911 -1.5235 -1.16025 0
M  V30 526 H 46.1961 -1.16133 -3.74193 0
M  V30 527 H 47.8931 -1.55023 -3.69823 0
M  V30 528 H 44.4831 -2.88344 -3.17105 0
M  V30 529 H 48.6671 -3.86263 -3.11632 0
M  V30 530 H 43.9231 -5.27562 -3.09012 0
M  V30 531 H 48.0971 -6.26201 -3.04705 0
M  V30 532 H 45.7241 -6.97236 -3.02929 0
M  V30 533 N 47.2992 1.18797 -1.03562 0
M  V30 534 C 48.2492 2.20161 -0.592724 0
M  V30 535 C 49.2332 1.56772 0.362133 0
M  V30 536 O 50.4252 1.76062 0.182009 0
M  V30 537 C 47.5542 3.43266 0.0481024 0
M  V30 538 C 46.6402 4.13786 -0.9296 0
M  V30 539 N 47.0312 4.60388 -2.09467 0
M  V30 540 C 45.3292 4.39572 -0.754499 0
M  V30 541 C 46.0302 5.14619 -2.71187 0
M  V30 542 N 45.0062 5.05826 -1.991 0
M  V30 543 H 48.8082 2.53877 -1.48066 0
M  V30 544 H 46.3222 1.34946 -0.903514 0
M  V30 545 H 48.3192 4.15136 0.383058 0
M  V30 546 H 46.9792 3.11048 0.931636 0
M  V30 547 H 47.9902 4.54999 -2.47379 0
M  V30 548 H 44.6672 4.17425 0.0793713 0
M  V30 549 H 46.0572 5.60917 -3.69895 0
M  V30 550 N 48.7773 0.814389 1.34928 0
M  V30 551 C 49.7073 0.244827 2.32213 0
M  V30 552 C 50.6883 -0.634024 1.57842 0
M  V30 553 O 51.8733 -0.562676 1.8587 0
M  V30 554 C 49.0033 -0.601106 3.42058 0
M  V30 555 C 47.9573 0.179896 4.27622 0
M  V30 556 C 47.2833 -0.788237 5.28858 0
M  V30 557 C 48.5833 1.38329 5.03649 0
M  V30 558 H 50.2773 1.05763 2.80097 0
M  V30 559 H 47.8233 0.510029 1.34665 0
M  V30 560 H 49.7763 -1.00968 4.09125 0
M  V30 561 H 48.5003 -1.44688 2.92802 0
M  V30 562 H 47.1593 0.569739 3.62146 0
M  V30 563 H 46.8073 -1.62973 4.75866 0
M  V30 564 H 46.5073 -0.269942 5.8698 0
M  V30 565 H 48.0313 -1.19485 5.98795 0
M  V30 566 H 49.4453 1.04918 5.63618 0
M  V30 567 H 47.8423 1.83662 5.71304 0
M  V30 568 H 48.9123 2.16592 4.33839 0
M  V30 569 N 50.2554 -1.46986 0.568584 0
M  V30 570 C 51.4804 -2.07335 0.0520528 0
M  V30 571 C 51.9054 -1.41675 -1.23733 0
M  V30 572 O 51.2634 -0.495623 -1.74394 0
M  V30 573 C 51.3114 -3.60417 -0.11501 0
M  V30 574 O 50.4154 -3.95309 -1.17492 0
M  V30 575 H 49.7564 -0.661597 0.0564385 0
M  V30 576 H 52.2864 -1.88837 0.787507 0
M  V30 577 H 52.2964 -4.06698 -0.325644 0
M  V30 578 H 50.9714 -4.07601 0.826675 0
M  V30 579 H 49.5484 -3.60757 -0.943869 0
M  V30 580 N 51.7335 -0.305618 -1.54608 0
M  V30 581 C 52.6655 0.602161 -2.21149 0
M  V30 582 C 53.6785 1.09394 -1.20569 0
M  V30 583 O 54.8675 1.0106 -1.47136 0
M  V30 584 C 51.9675 1.83692 -2.84799 0
M  V30 585 C 51.1405 1.48686 -4.11353 0
M  V30 586 C 50.1995 2.57725 -4.58764 0
M  V30 587 O 49.2255 2.22623 -5.23858 0
M  V30 588 N 50.4275 3.88346 -4.31471 0
M  V30 589 H 53.1925 0.0324966 -2.99682 0
M  V30 590 H 50.7535 -0.128021 -1.61393 0
M  V30 591 H 52.7455 2.55994 -3.13448 0
M  V30 592 H 51.3155 2.31486 -2.10078 0
M  V30 593 H 50.5355 0.596269 -3.89664 0
M  V30 594 H 51.8235 1.22842 -4.93748 0
M  V30 595 H 51.2215 4.19671 -3.79331 0
M  V30 596 H 49.7785 4.56932 -4.64818 0
M  V30 597 N 53.2116 1.57565 -0.0334293 0
M  V30 598 C 54.4586 1.91978 0.644272 0
M  V30 599 C 54.7866 0.910231 1.71887 0
M  V30 600 O 54.0416 -0.0801961 1.95536 0
M  V30 601 C 54.3406 3.33112 1.29504 0
M  V30 602 C 54.0066 4.49537 0.350388 0
M  V30 603 C 52.6686 4.81115 0.0903974 0
M  V30 604 C 55.0206 5.20347 -0.298032 0
M  V30 605 C 52.3486 5.8086 -0.825746 0
M  V30 606 C 54.7006 6.2107 -1.20226 0
M  V30 607 C 53.3646 6.51088 -1.4711 0
M  V30 608 H 52.6346 0.702496 0.235756 0
M  V30 609 H 55.2816 1.91259 -0.0961176 0
M  V30 610 H 53.5866 3.30113 2.11028 0
M  V30 611 H 55.2836 3.57011 1.82603 0
M  V30 612 H 51.8736 4.24883 0.563205 0
M  V30 613 H 56.0576 4.96178 -0.110234 0
M  V30 614 H 51.3136 6.02461 -1.04169 0
M  V30 615 H 55.4876 6.75057 -1.71086 0
M  V30 616 H 53.1146 7.28193 -2.18264 0
M  V30 617 N 54.6897 -0.239769 1.55765 0
M  V30 618 C 55.9297 -0.974076 1.79697 0
M  V30 619 C 56.2937 -1.82249 0.604088 0
M  V30 620 O 57.4947 -2.58913 0.722324 0
M  V30 621 C 55.7657 -1.80595 3.08416 0
M  V30 622 S 57.3247 -2.59838 3.53596 0
M  V30 623 H 54.1427 -0.327524 0.63107 0
M  V30 624 H 56.7447 -0.241277 1.94005 0
M  V30 625 H 55.4487 -1.17249 3.93295 0
M  V30 626 H 54.9797 -2.58137 2.96865 0
M  V30 627 H 56.9947 -3.82987 3.15492 0
M  V30 628 N 56.1678 -1.49265 -0.50573 0
M  V30 629 C 57.4148 -1.58513 -1.26015 0
M  V30 630 C 57.7428 -0.26972 -1.92621 0
M  V30 631 O 56.9978 0.741997 -1.81088 0
M  V30 632 C 57.2968 -2.69008 -2.35308 0
M  V30 633 C 56.9628 -4.10662 -1.86192 0
M  V30 634 C 55.6248 -4.49212 -1.72516 0
M  V30 635 C 57.9768 -4.99336 -1.49375 0
M  V30 636 C 55.3048 -5.74214 -1.20394 0
M  V30 637 C 57.6568 -6.24852 -0.987072 0
M  V30 638 C 56.3208 -6.62236 -0.836669 0
M  V30 639 H 55.5908 -0.580041 -0.461122 0
M  V30 640 H 58.2378 -1.83078 -0.561665 0
M  V30 641 H 56.5428 -2.38396 -3.10926 0
M  V30 642 H 58.2398 -2.73373 -2.93374 0
M  V30 643 H 54.8298 -3.8023 -1.97795 0
M  V30 644 H 59.0138 -4.70212 -1.5879 0
M  V30 645 H 54.2698 -6.01883 -1.07458 0
M  V30 646 H 58.4438 -6.92944 -0.692983 0
M  V30 647 H 56.0708 -7.58979 -0.430607 0
M  V30 648 N 57.6459 0.756429 -1.3826 0
M  V30 649 C 58.8709 1.55077 -1.37717 0
M  V30 650 C 59.2959 1.88073 0.03164 0
M  V30 651 O 58.6539 1.50364 1.01293 0
M  V30 652 C 58.7019 2.8283 -2.23695 0
M  V30 653 O 57.8059 3.77862 -1.6521 0
M  V30 654 H 57.1469 0.469152 -0.469885 0
M  V30 655 H 59.6769 0.935019 -1.81985 0
M  V30 656 H 59.6869 3.31783 -2.37453 0
M  V30 657 H 58.3619 2.58144 -3.2609 0
M  V30 658 H 56.9389 3.36555 -1.60578 0
M  V30 659 N 59.124 1.23083 0.984299 0
M  V30 660 C 60.071 1.00854 2.07598 0
M  V30 661 C 61.041 -0.0726709 1.65941 0
M  V30 662 O 62.226 0.0786535 1.90638 0
M  V30 663 C 59.366 0.601645 3.39815 0
M  V30 664 C 58.479 1.75456 3.94765 0
M  V30 665 C 57.614 1.29482 5.15177 0
M  V30 666 C 56.653 2.41873 5.62284 0
M  V30 667 N 55.79 1.96885 6.73929 0
M  V30 668 H 60.63 1.943 2.25946 0
M  V30 669 H 58.167 0.968001 1.10762 0
M  V30 670 H 60.125 0.346854 4.15756 0
M  V30 671 H 58.755 -0.295803 3.21442 0
M  V30 672 H 57.807 2.12346 3.15616 0
M  V30 673 H 59.119 2.59965 4.25699 0
M  V30 674 H 58.273 0.997923 5.98437 0
M  V30 675 H 57.012 0.420046 4.85888 0
M  V30 676 H 56.017 2.72342 4.77608 0
M  V30 677 H 57.242 3.29881 5.93595 0
M  V30 678 H 55.188 1.11782 6.46406 0
M  V30 679 H 55.105 2.74956 7.04227 0
M  V30 680 H 56.373 1.70289 7.60672 0
M  V30 681 N 60.6021 -1.18246 1.0419 0
M  V30 682 C 61.5491 -2.2192 0.634037 0
M  V30 683 C 62.5191 -1.62179 -0.358765 0
M  V30 684 O 63.7041 -1.89122 -0.252466 0
M  V30 685 C 60.8441 -3.451 0.00445535 0
M  V30 686 C 59.9571 -4.19174 1.04487 0
M  V30 687 C 59.0921 -5.29813 0.383676 0
M  V30 688 C 58.1311 -5.9566 1.4091 0
M  V30 689 N 57.2681 -6.97834 0.772784 0
M  V30 690 H 62.1081 -2.56164 1.52263 0
M  V30 691 H 59.6451 -1.25843 0.761701 0
M  V30 692 H 61.6031 -4.15485 -0.377919 0
M  V30 693 H 60.2331 -3.11472 -0.847652 0
M  V30 694 H 59.2851 -3.47604 1.54518 0
M  V30 695 H 60.5971 -4.64267 1.82368 0
M  V30 696 H 59.7511 -6.06677 -0.0528366 0
M  V30 697 H 58.4901 -4.85825 -0.427208 0
M  V30 698 H 57.4951 -5.17535 1.85574 0
M  V30 699 H 58.7201 -6.4173 2.22171 0
M  V30 700 H 56.6661 -6.55998 -0.0177708 0
M  V30 701 H 56.5831 -7.41186 1.48928 0
M  V30 702 H 57.8511 -7.78665 0.36071 0
M  V30 703 N 62.0802 -0.821533 -1.34494 0
M  V30 704 C 63.3262 -0.418729 -1.99043 0
M  V30 705 C 63.6812 1.00672 -1.6396 0
M  V30 706 O 62.9742 1.69132 -0.900271 0
M  V30 707 C 63.1682 -0.556512 -3.53041 0
M  V30 708 C 62.9972 -1.9938 -4.03085 0
M  V30 709 C 61.7672 -2.62539 -4.31742 0
M  V30 710 C 63.9652 -2.96035 -4.20556 0
M  V30 711 N 61.9472 -3.97523 -4.67813 0
M  V30 712 C 63.3182 -4.15924 -4.59791 0
M  V30 713 C 65.3732 -2.9267 -4.02801 0
M  V30 714 C 64.0762 -5.32899 -4.83126 0
M  V30 715 C 66.1022 -4.08861 -4.27302 0
M  V30 716 C 65.4642 -5.275 -4.66822 0
M  V30 717 H 61.5632 -0.201299 -0.755647 0
M  V30 718 H 64.1472 -1.06594 -1.62929 0
M  V30 719 H 62.3182 0.0607924 -3.88352 0
M  V30 720 H 64.0502 -0.126842 -4.04501 0
M  V30 721 H 60.8052 -2.13789 -4.22601 0
M  V30 722 H 61.2292 -4.67061 -4.90085 0
M  V30 723 H 65.8712 -2.02088 -3.71376 0
M  V30 724 H 63.5892 -6.24041 -5.13418 0
M  V30 725 H 67.1752 -4.07654 -4.15101 0
M  V30 726 H 66.0552 -6.15913 -4.85408 0
M  V30 727 N 63.5583 1.46682 -0.576371 0
M  V30 728 C 64.8053 2.02412 -0.0595339 0
M  V30 729 C 65.1333 1.44859 1.29793 0
M  V30 730 O 64.3883 0.601099 1.8624 0
M  V30 731 C 64.6873 3.57345 0.062886 0
M  V30 732 C 64.3533 4.33908 -1.22616 0
M  V30 733 C 63.0153 4.54544 -1.57933 0
M  V30 734 C 65.3673 4.77919 -2.07948 0
M  V30 735 C 62.6953 5.16444 -2.78393 0
M  V30 736 C 65.0473 5.41149 -3.27629 0
M  V30 737 C 63.7113 5.60014 -3.63236 0
M  V30 738 H 62.9813 0.74068 -0.021785 0
M  V30 739 H 65.6283 1.76128 -0.751735 0
M  V30 740 H 63.9333 3.82729 0.838178 0
M  V30 741 H 65.6303 3.98136 0.478439 0
M  V30 742 H 62.2203 4.18138 -0.941202 0
M  V30 743 H 66.4043 4.61738 -1.81967 0
M  V30 744 H 61.6603 5.29242 -3.06126 0
M  V30 745 H 65.8343 5.74211 -3.94023 0
M  V30 746 H 63.4613 6.07748 -4.56669 0
M  V30 747 N 65.0364 0.313813 1.54444 0
M  V30 748 C 66.2614 -0.296681 2.05267 0
M  V30 749 C 66.6864 -1.45757 1.18897 0
M  V30 750 O 66.0444 -1.80239 0.195886 0
M  V30 751 C 66.0924 -0.71831 3.53373 0
M  V30 752 O 65.1964 -1.82175 3.69981 0
M  V30 753 H 64.5374 -0.0554061 0.661684 0
M  V30 754 H 67.0674 0.459387 1.99376 0
M  V30 755 H 67.0774 -1.00364 3.95463 0
M  V30 756 H 65.7524 0.130821 4.15694 0
M  V30 757 H 64.3294 -1.53598 3.39797 0
M  V30 758 N 66.5145 -1.57545 0.0417849 0
M  V30 759 C 67.4245 -2.14451 -0.951213 0
M  V30 760 C 68.4405 -1.09992 -1.34825 0
M  V30 761 O 69.6165 -1.42114 -1.42708 0
M  V30 762 C 66.6815 -2.67063 -2.21084 0
M  V30 763 C 65.7425 -3.86284 -1.87304 0
M  V30 764 C 64.9755 -4.36378 -3.07261 0
M  V30 765 O 65.1985 -3.85587 -4.20332 0
M  V30 766 O 64.1325 -5.28077 -2.88822 0
M  V30 767 H 67.9585 -2.99601 -0.497287 0
M  V30 768 H 65.5435 -1.48317 -0.179567 0
M  V30 769 H 67.4255 -3.00914 -2.95006 0
M  V30 770 H 66.1005 -1.84989 -2.65633 0
M  V30 771 H 65.0075 -3.57338 -1.10727 0
M  V30 772 H 66.3405 -4.6956 -1.47562 0
M  V30 773 N 67.9926 0.231505 -1.5589 0
M  V30 774 C 69.2396 0.957352 -1.78441 0
M  V30 775 C 69.5676 1.84726 -0.60882 0
M  V30 776 O 68.8226 1.91416 0.40725 0
M  V30 777 C 69.1216 1.83577 -3.0665 0
M  V30 778 C 68.7876 1.09993 -4.37278 0
M  V30 779 C 67.4496 0.896629 -4.72773 0
M  V30 780 C 69.8016 0.579558 -5.17968 0
M  V30 781 C 67.1296 0.160896 -5.86479 0
M  V30 782 C 69.4816 -0.142783 -6.32439 0
M  V30 783 C 68.1456 -0.357427 -6.66542 0
M  V30 784 H 67.4156 0.35032 -0.65296 0
M  V30 785 H 70.0626 0.226259 -1.90159 0
M  V30 786 H 68.3676 2.63441 -2.90011 0
M  V30 787 H 70.0646 2.39934 -3.21298 0
M  V30 788 H 66.6546 1.26835 -4.09403 0
M  V30 789 H 70.8386 0.724125 -4.90989 0
M  V30 790 H 66.0946 -0.0157293 -6.11398 0
M  V30 791 H 70.2686 -0.553559 -6.94196 0
M  V30 792 H 67.8956 -0.929466 -7.54497 0
M  V30 793 N 69.4707 1.49531 0.497807 0
M  V30 794 C 70.6957 1.63159 1.28039 0
M  V30 795 C 71.1207 0.30418 1.85624 0
M  V30 796 O 70.4787 -0.728618 1.66015 0
M  V30 797 C 70.5267 2.70537 2.38416 0
M  V30 798 O 69.6307 2.29931 3.42353 0
M  V30 799 H 68.9717 0.546001 0.377861 0
M  V30 800 H 71.5017 1.9574 0.59558 0
M  V30 801 H 71.5117 2.92802 2.84132 0
M  V30 802 H 70.1867 3.6689 1.95869 0
M  V30 803 H 68.7637 2.18009 3.02533 0
M  V30 804 N 70.9488 -0.749086 1.3866 0
M  V30 805 C 72.1978 -1.50371 1.3443 0
M  V30 806 C 72.5108 -1.95503 -0.0616397 0
M  V30 807 O 73.7168 -2.70554 -0.226489 0
M  V30 808 C 72.1728 -2.71644 2.36088 0
M  V30 809 C 71.7808 -2.3352 3.82325 0
M  V30 810 C 73.5248 -3.49518 2.40909 0
M  V30 811 C 71.4318 -3.51431 4.75658 0
M  V30 812 H 70.3618 -0.564628 0.499712 0
M  V30 813 H 73.0128 -0.818449 1.64237 0
M  V30 814 H 71.3948 -3.42175 1.9933 0
M  V30 815 H 72.5688 -1.70627 4.28046 0
M  V30 816 H 70.8838 -1.6877 3.80665 0
M  V30 817 H 73.4808 -4.37197 3.07836 0
M  V30 818 H 73.8238 -3.90992 1.42937 0
M  V30 819 H 74.3568 -2.86005 2.76489 0
M  V30 820 H 71.0958 -3.15019 5.74842 0
M  V30 821 H 70.6158 -4.13352 4.34627 0
M  V30 822 H 72.2948 -4.17953 4.93887 0
M  V30 823 N 72.4269 -1.23603 -0.977757 0
M  V30 824 C 73.3599 -0.962772 -2.06896 0
M  V30 825 C 74.3379 0.0998743 -1.62293 0
M  V30 826 O 75.5219 -0.0349421 -1.88468 0
M  V30 827 C 72.6489 -0.45095 -3.35685 0
M  V30 828 C 71.6949 -1.50061 -3.99229 0
M  V30 829 S 72.5279 -3.07884 -4.38142 0
M  V30 830 C 73.6839 -2.58378 -5.7008 0
M  V30 831 H 73.9169 -1.88677 -2.29757 0
M  V30 832 H 71.4499 -1.06876 -1.11431 0
M  V30 833 H 73.4079 -0.162261 -4.10179 0
M  V30 834 H 72.0689 0.452179 -3.10828 0
M  V30 835 H 71.2619 -1.09269 -4.92013 0
M  V30 836 H 70.8639 -1.73878 -3.31123 0
M  V30 837 H 73.1559 -2.00563 -6.47133 0
M  V30 838 H 74.0989 -3.49711 -6.15717 0
M  V30 839 H 74.5069 -1.99143 -5.28207 0
M  V30 840 N 73.905 1.17692 -1.04816 0
M  V30 841 C 75.151 1.88389 -0.766892 0
M  V30 842 C 75.506 1.79282 0.698269 0
M  V30 843 O 74.799 1.18739 1.50372 0
M  V30 844 C 74.993 3.37462 -1.17703 0
M  V30 845 C 74.822 3.6108 -2.68051 0
M  V30 846 C 73.592 3.78018 -3.35307 0
M  V30 847 C 75.79 3.61039 -3.66273 0
M  V30 848 N 73.772 3.89444 -4.74559 0
M  V30 849 C 75.143 3.78269 -4.91235 0
M  V30 850 C 77.198 3.44168 -3.59796 0
M  V30 851 C 75.901 3.80376 -6.10497 0
M  V30 852 C 77.927 3.4756 -4.78493 0
M  V30 853 C 77.289 3.65295 -6.02278 0
M  V30 854 H 73.388 0.707651 -0.332798 0
M  V30 855 H 75.972 1.41314 -1.33934 0
M  V30 856 H 74.143 3.83214 -0.63257 0
M  V30 857 H 75.875 3.95759 -0.845989 0
M  V30 858 H 72.63 3.77714 -2.85708 0
M  V30 859 H 73.054 3.98962 -5.46954 0
M  V30 860 H 77.696 3.29396 -2.65062 0
M  V30 861 H 75.414 3.93933 -7.05579 0
M  V30 862 H 79 3.3577 -4.75131 0
M  V30 863 H 77.88 3.6782 -6.92588 0
M  V30 864 N 75.3831 0.828654 1.34056 0
M  V30 865 C 76.7941 0.477534 1.8049 0
M  V30 866 C 77.1451 -1.00258 1.6865 0
M  V30 867 O 76.2701 -1.78057 1.22982 0
M  V30 868 C 76.8651 0.860018 3.27703 0
M  V30 869 C 75.4241 0.561185 3.72193 0
M  V30 870 C 74.5711 1.07385 2.55663 0
M  V30 871 H 77.5221 1.0183 1.21722 0
M  V30 872 H 77.5431 0.166038 3.80138 0
M  V30 873 H 77.0551 1.93731 3.36288 0
M  V30 874 H 75.1561 -0.506465 3.69142 0
M  V30 875 H 75.2691 1.10926 4.66082 0
M  V30 876 H 73.6331 0.495149 2.49841 0
M  V30 877 H 74.4161 2.15771 2.67016 0
M  V30 878 N 76.8612 -1.46375 0.584142 0
M  V30 879 C 78.1092 -2.01978 0.0701287 0
M  V30 880 C 78.4302 -1.4579 -1.295 0
M  V30 881 O 77.7002 -0.64314 -1.85042 0
M  V30 882 H 76.2802 -0.746648 0.0229345 0
M  V30 883 H 78.9422 -1.79461 0.760245 0
M  V30 884 H 78.0382 -3.121 0.0022064 0
M  V30 885 N 78.3393 -0.321999 -1.54275 0
M  V30 886 C 79.2713 0.578671 -2.21775 0
M  V30 887 C 80.2843 1.08109 -1.21722 0
M  V30 888 O 81.4733 0.994938 -1.482 0
M  V30 889 C 78.5733 1.80661 -2.86731 0
M  V30 890 C 77.7463 1.44314 -4.12907 0
M  V30 891 C 76.8053 2.52845 -4.61472 0
M  V30 892 O 75.8313 2.17054 -5.2619 0
M  V30 893 N 77.0333 3.83748 -4.35566 0
M  V30 894 H 79.7983 0.000709447 -2.997 0
M  V30 895 H 77.3593 -0.145132 -1.61248 0
M  V30 896 H 79.3513 2.52655 -3.16145 0
M  V30 897 H 77.9213 2.29245 -2.12521 0
M  V30 898 H 77.1413 0.554906 -3.90275 0
M  V30 899 H 78.4293 1.17598 -4.95023 0
M  V30 900 H 77.8273 4.15625 -3.83761 0
M  V30 901 H 76.3843 4.51977 -4.69638 0
M  V30 902 N 79.8174 1.5752 -0.0501392 0
M  V30 903 C 80.7804 2.1037 0.909786 0
M  V30 904 C 81.7804 1.02308 1.24056 0
M  V30 905 O 82.9704 1.28385 1.17741 0
M  V30 906 C 80.1024 2.58708 2.21998 0
M  V30 907 H 81.2954 2.96479 0.451665 0
M  V30 908 H 78.8484 1.55038 0.198248 0
M  V30 909 H 79.5834 1.75989 2.72394 0
M  V30 910 H 79.3684 3.37675 1.99295 0
M  V30 911 H 80.8584 2.99747 2.9076 0
M  V30 912 N 81.2955 -0.223234 1.56011 0
M  V30 913 C 82.5425 -0.947875 1.78946 0
M  V30 914 C 82.8705 -1.844 0.618608 0
M  V30 915 O 82.1255 -1.91629 -0.397093 0
M  V30 916 C 82.4245 -1.81948 3.0762 0
M  V30 917 C 82.0905 -1.07672 4.37856 0
M  V30 918 C 80.7525 -0.871544 4.73242 0
M  V30 919 C 83.1045 -0.552081 5.18268 0
M  V30 920 C 80.4325 -0.129791 5.86556 0
M  V30 921 C 82.7845 0.17632 6.32354 0
M  V30 922 C 81.4485 0.39277 6.66343 0
M  V30 923 H 80.7185 -0.346852 0.654809 0
M  V30 924 H 83.3655 -0.216171 1.90276 0
M  V30 925 H 81.6705 -2.61899 2.91404 0
M  V30 926 H 83.3675 -2.38227 3.22566 0
M  V30 927 H 79.9575 -1.24662 4.1007 0
M  V30 928 H 84.1415 -0.698076 4.91366 0
M  V30 929 H 79.3975 0.048153 6.11381 0
M  V30 930 H 83.5715 0.590367 6.93893 0
M  V30 931 H 81.1985 0.969466 7.53993 0
M  V30 932 N 82.7736 -1.49793 -0.48987 0
M  V30 933 C 83.9986 -1.63836 -1.27172 0
M  V30 934 C 84.4236 -0.31402 -1.8546 0
M  V30 935 O 83.7816 0.719803 -1.66399 0
M  V30 936 C 83.8296 -2.71797 -2.36978 0
M  V30 937 O 82.9336 -2.31744 -3.41128 0
M  V30 938 H 82.2746 -0.547997 -0.37496 0
M  V30 939 H 84.8046 -1.96053 -0.585191 0
M  V30 940 H 84.8146 -2.94305 -2.82575 0
M  V30 941 H 83.4896 -3.67923 -1.93921 0
M  V30 942 H 82.0666 -2.1961 -3.01373 0
M  V30 943 N 84.2517 0.741722 -1.39055 0
M  V30 944 C 85.1817 1.869 -1.39966 0
M  V30 945 C 86.1627 1.6804 -0.26392 0
M  V30 946 O 87.3477 1.88458 -0.468755 0
M  V30 947 C 84.4777 3.24572 -1.23574 0
M  V30 948 C 83.4317 3.58056 -2.34477 0
M  V30 949 C 82.7577 4.94593 -2.0318 0
M  V30 950 C 84.0577 3.61716 -3.76774 0
M  V30 951 H 85.7517 1.86395 -2.34302 0
M  V30 952 H 83.2977 0.895361 -1.1278 0
M  V30 953 H 85.2507 4.031 -1.22834 0
M  V30 954 H 83.9747 3.25587 -0.257045 0
M  V30 955 H 82.6337 2.81854 -2.34423 0
M  V30 956 H 82.2817 4.92181 -1.03765 0
M  V30 957 H 81.9817 5.17964 -2.77465 0
M  V30 958 H 83.5057 5.75486 -2.04079 0
M  V30 959 H 84.9197 4.30335 -3.78794 0
M  V30 960 H 83.3167 3.96603 -4.50362 0
M  V30 961 H 84.3867 2.61672 -4.08235 0
M  V30 962 N 85.7298 1.2412 0.971189 0
M  V30 963 C 86.6768 1.0305 2.06517 0
M  V30 964 C 87.6468 -0.0550666 1.66009 0
M  V30 965 O 88.8318 0.0988688 1.90544 0
M  V30 966 C 85.9718 0.637653 3.39158 0
M  V30 967 C 85.0848 1.79633 3.92882 0
M  V30 968 C 84.2198 1.34939 5.13775 0
M  V30 969 C 83.2588 2.47823 5.59687 0
M  V30 970 N 82.3958 2.04022 6.71803 0
M  V30 971 H 87.2358 1.96685 2.23873 0
M  V30 972 H 84.7728 0.979694 1.09729 0
M  V30 973 H 86.7308 0.390931 4.15364 0
M  V30 974 H 85.3608 -0.261693 3.21737 0
M  V30 975 H 84.4128 2.15681 3.13346 0
M  V30 976 H 85.7248 2.64466 4.22918 0
M  V30 977 H 84.8788 1.06134 5.97345 0
M  V30 978 H 83.6178 0.471557 4.85415 0
M  V30 979 H 82.6228 2.77392 4.74693 0
M  V30 980 H 83.8478 3.36158 5.90063 0
M  V30 981 H 81.7938 1.18632 6.45184 0
M  V30 982 H 81.7108 2.82409 7.01271 0
M  V30 983 H 82.9788 1.78347 7.58823 0
M  V30 984 N 87.2079 -1.17134 1.05439 0
M  V30 985 C 88.4569 -1.86791 0.761049 0
M  V30 986 C 88.7699 -1.82072 -0.714795 0
M  V30 987 O 89.9759 -2.47223 -1.12218 0
M  V30 988 C 88.4319 -3.35166 1.31117 0
M  V30 989 C 88.0399 -3.48381 2.81664 0
M  V30 990 C 89.7839 -4.10134 1.09499 0
M  V30 991 C 87.6909 -4.90793 3.29964 0
M  V30 992 H 86.6209 -0.699681 0.281002 0
M  V30 993 H 89.2719 -1.3226 1.27199 0
M  V30 994 H 87.6539 -3.8925 0.72803 0
M  V30 995 H 88.8279 -3.04502 3.45855 0
M  V30 996 H 87.1429 -2.86836 3.01851 0
M  V30 997 H 89.7399 -5.152 1.43084 0
M  V30 998 H 90.0829 -4.16287 0.0328772 0
M  V30 999 H 90.6159 -3.62264 1.64346 0
M  V30 1000 H 87.3549 -4.89816 4.35616 0
M  V30 1001 H 86.8749 -5.35333 2.70516 0
M  V30 1002 H 88.5539 -5.59573 3.24787 0
M  V30 1003 N 88.686 -0.835752 -1.33615 0
M  V30 1004 C 89.633 -0.26473 -2.29277 0
M  V30 1005 C 90.603 0.617712 -1.54187 0
M  V30 1006 O 91.788 0.556641 -1.825 0
M  V30 1007 C 88.928 0.556777 -3.40579 0
M  V30 1008 C 88.041 -0.349339 -4.30585 0
M  V30 1009 C 87.176 0.482969 -5.29 0
M  V30 1010 C 86.215 -0.421732 -6.10645 0
M  V30 1011 N 85.352 0.372262 -7.01112 0
M  V30 1012 H 90.192 -1.08582 -2.77514 0
M  V30 1013 H 87.729 -0.546927 -1.36554 0
M  V30 1014 H 89.687 1.04852 -4.03809 0
M  V30 1015 H 88.317 1.34286 -2.93542 0
M  V30 1016 H 87.369 -0.959372 -3.68104 0
M  V30 1017 H 88.681 -1.04445 -4.87742 0
M  V30 1018 H 87.835 1.03866 -5.97743 0
M  V30 1019 H 86.574 1.21153 -4.72412 0
M  V30 1020 H 85.579 -0.989464 -5.40823 0
M  V30 1021 H 86.804 -1.14861 -6.69316 0
M  V30 1022 H 84.75 1.08426 -6.46977 0
M  V30 1023 H 84.667 -0.264198 -7.55538 0
M  V30 1024 H 85.935 0.910293 -7.74167 0
M  V30 1025 N 90.1641 1.46063 -0.591896 0
M  V30 1026 C 91.1111 2.30399 0.136069 0
M  V30 1027 C 92.0811 1.41169 0.875238 0
M  V30 1028 O 93.2661 1.70112 0.86409 0
M  V30 1029 C 90.4061 3.25804 1.13781 0
M  V30 1030 C 89.5191 4.30134 0.401137 0
M  V30 1031 C 88.6541 5.12659 1.39121 0
M  V30 1032 C 87.6931 6.0873 0.641462 0
M  V30 1033 N 86.8301 6.8409 1.58004 0
M  V30 1034 H 91.6701 2.92118 -0.589144 0
M  V30 1035 H 89.2071 1.43959 -0.302342 0
M  V30 1036 H 91.1651 3.79569 1.73156 0
M  V30 1037 H 89.7951 2.65872 1.83062 0
M  V30 1038 H 88.8471 3.79152 -0.307826 0
M  V30 1039 H 90.1591 4.98458 -0.184565 0
M  V30 1040 H 89.3131 5.70747 2.05749 0
M  V30 1041 H 88.0521 4.44316 2.01084 0
M  V30 1042 H 87.0571 5.49786 -0.0385419 0
M  V30 1043 H 88.2821 6.79095 0.0270945 0
M  V30 1044 H 86.2281 6.18449 2.18761 0
M  V30 1045 H 86.1451 7.48709 1.04738 0
M  V30 1046 H 87.4131 7.4673 2.23639 0
M  V30 1047 N 91.6422 0.330177 1.54103 0
M  V30 1048 C 92.8912 -0.271336 1.99867 0
M  V30 1049 C 93.2042 -1.52723 1.22209 0
M  V30 1050 O 94.4102 -2.20515 1.58383 0
M  V30 1051 C 92.8662 -0.534032 3.55916 0
M  V30 1052 C 92.4742 0.705193 4.42415 0
M  V30 1053 C 94.2182 -1.09514 4.1013 0
M  V30 1054 C 92.1252 0.414035 5.89949 0
M  V30 1055 H 91.0552 -0.105166 0.74663 0
M  V30 1056 H 93.7062 0.443429 1.78062 0
M  V30 1057 H 92.0882 -1.30915 3.73734 0
M  V30 1058 H 93.2622 1.4804 4.36372 0
M  V30 1059 H 91.5772 1.18698 3.99124 0
M  V30 1060 H 94.1742 -1.3277 5.17954 0
M  V30 1061 H 94.5172 -2.04656 3.62521 0
M  V30 1062 H 95.0502 -0.381038 3.95971 0
M  V30 1063 H 91.7892 1.33481 6.41766 0
M  V30 1064 H 91.3092 -0.323336 5.98928 0
M  V30 1065 H 92.9882 0.0263105 6.46995 0
M  V30 1066 N 93.1203 -1.57491 0.0584922 0
M  V30 1067 C 94.0503 -2.14988 -0.911178 0
M  V30 1068 C 95.0313 -1.07343 -1.31952 0
M  V30 1069 O 96.2163 -1.35318 -1.39294 0
M  V30 1070 C 93.3463 -2.70078 -2.18347 0
M  V30 1071 C 92.3003 -3.82771 -1.91495 0
M  V30 1072 C 91.6263 -4.24408 -3.25241 0
M  V30 1073 C 92.9263 -5.07592 -1.23075 0
M  V30 1074 H 94.6203 -2.96263 -0.432246 0
M  V30 1075 H 92.1663 -1.42512 -0.206469 0
M  V30 1076 H 94.1193 -3.08943 -2.86587 0
M  V30 1077 H 92.8433 -1.86005 -2.68458 0
M  V30 1078 H 91.5023 -3.44389 -1.25664 0
M  V30 1079 H 91.1503 -3.37275 -3.73168 0
M  V30 1080 H 90.8503 -5.00366 -3.08071 0
M  V30 1081 H 92.3743 -4.65879 -3.94701 0
M  V30 1082 H 93.7883 -5.43857 -1.81362 0
M  V30 1083 H 92.1853 -5.88741 -1.16207 0
M  V30 1084 H 93.2553 -4.84454 -0.207847 0
M  V30 1085 N 94.5984 0.214957 -1.56127 0
M  V30 1086 C 95.8284 0.953707 -1.8327 0
M  V30 1087 C 96.2364 1.78181 -0.636262 0
M  V30 1088 O 95.5794 1.79191 0.404516 0
M  V30 1089 C 95.6414 1.91516 -3.0424 0
M  V30 1090 C 95.3054 1.27094 -4.38972 0
M  V30 1091 C 96.3024 0.657575 -5.15725 0
M  V30 1092 C 93.9874 1.28073 -4.85698 0
M  V30 1093 C 95.9814 0.0625968 -6.37369 0
M  V30 1094 C 93.6684 0.681914 -6.07283 0
M  V30 1095 C 94.6664 0.0739046 -6.8296 0
M  V30 1096 O 94.3544 -0.515582 -8.02245 0
M  V30 1097 H 94.0864 0.284764 -0.613095 0
M  V30 1098 H 96.6404 0.233283 -2.04071 0
M  V30 1099 H 94.8704 2.67475 -2.79274 0
M  V30 1100 H 96.5594 2.52001 -3.18198 0
M  V30 1101 H 97.3254 0.642288 -4.80728 0
M  V30 1102 H 93.2044 1.74337 -4.26764 0
M  V30 1103 H 96.7484 -0.412593 -6.96379 0
M  V30 1104 H 92.6454 0.694636 -6.41752 0
M  V30 1105 H 93.4134 -0.410544 -8.1747 0
M  V30 1106 N 96.0765 1.50051 0.48192 0
M  V30 1107 C 96.9865 1.7089 1.60728 0
M  V30 1108 C 98.0025 0.591788 1.63627 0
M  V30 1109 O 99.1785 0.868817 1.81696 0
M  V30 1110 C 96.2435 1.78855 2.97005 0
M  V30 1111 C 95.3045 3.02537 3.04581 0
M  V30 1112 C 94.5375 3.10112 4.34357 0
M  V30 1113 O 94.7605 2.24765 5.24249 0
M  V30 1114 O 93.6945 4.02747 4.47301 0
M  V30 1115 H 97.5205 2.66264 1.46072 0
M  V30 1116 H 95.1055 1.34018 0.660264 0
M  V30 1117 H 96.9875 1.86336 3.77964 0
M  V30 1118 H 95.6625 0.866628 3.11883 0
M  V30 1119 H 94.5695 3.00563 2.22739 0
M  V30 1120 H 95.9025 3.94272 2.94636 0
M  V30 1121 N 97.5546 -0.734337 1.39446 0
M  V30 1122 C 98.7826 -1.52358 1.39981 0
M  V30 1123 C 99.1976 -1.88799 -0.0054975 0
M  V30 1124 O 98.5546 -1.54146 -0.976998 0
M  V30 1125 C 98.6056 -2.81072 2.27333 0
M  V30 1126 O 98.3266 -2.46178 3.62392 0
M  V30 1127 C 99.8276 -3.75096 2.36259 0
M  V30 1128 H 97.0476 -0.470806 0.478103 0
M  V30 1129 H 99.5916 -0.907339 1.83269 0
M  V30 1130 H 97.7466 -3.39026 1.87457 0
M  V30 1131 H 98.1606 -3.28866 4.08592 0
M  V30 1132 H 99.6346 -4.62305 3.01626 0
M  V30 1133 H 100.112 -4.16892 1.38194 0
M  V30 1134 H 100.718 -3.23061 2.76608 0
M  V30 1135 N 99.0327 -1.24633 -0.964593 0
M  V30 1136 C 99.9797 -1.04144 -2.05968 0
M  V30 1137 C 100.95 0.046262 -1.66036 0
M  V30 1138 O 102.135 -0.108972 -1.90489 0
M  V30 1139 C 99.2747 -0.65563 -3.38815 0
M  V30 1140 C 98.3877 -1.81714 -3.91923 0
M  V30 1141 C 97.5227 -1.37662 -5.13052 0
M  V30 1142 C 96.5617 -2.50788 -5.58365 0
M  V30 1143 N 95.6987 -2.07582 -6.70712 0
M  V30 1144 H 100.539 -1.9787 -2.22827 0
M  V30 1145 H 98.0757 -0.9855 -1.09208 0
M  V30 1146 H 100.034 -0.412954 -4.15151 0
M  V30 1147 H 98.6637 0.244627 -3.21872 0
M  V30 1148 H 97.7157 -2.1734 -3.12198 0
M  V30 1149 H 99.0277 -2.66705 -4.21509 0
M  V30 1150 H 98.1817 -1.093 -5.96773 0
M  V30 1151 H 96.9207 -0.497293 -4.85158 0
M  V30 1152 H 95.9257 -2.79906 -4.73215 0
M  V30 1153 H 97.1507 -3.39283 -5.88272 0
M  V30 1154 H 95.0967 -1.22051 -6.44546 0
M  V30 1155 H 95.0137 -2.86125 -6.99763 0
M  V30 1156 H 96.2817 -1.82369 -7.57867 0
M  V30 1157 N 100.511 1.16574 -1.06058 0
M  V30 1158 C 101.736 1.91493 -0.796562 0
M  V30 1159 C 102.161 1.76773 0.642868 0
M  V30 1160 O 101.519 1.09142 1.44768 0
M  V30 1161 C 101.567 3.40293 -1.19303 0
M  V30 1162 O 100.671 4.11074 -0.330394 0
M  V30 1163 H 100.012 0.596678 -0.291326 0
M  V30 1164 H 102.542 1.47708 -1.41575 0
M  V30 1165 H 102.552 3.91057 -1.16356 0
M  V30 1166 H 101.227 3.50326 -2.24153 0
M  V30 1167 H 99.8038 3.70513 -0.421225 0
M  V30 1168 N 101.989 0.842826 1.3317 0
M  V30 1169 C 102.936 0.276885 2.29133 0
M  V30 1170 C 103.906 -0.609527 1.54512 0
M  V30 1171 O 105.091 -0.546955 1.82792 0
M  V30 1172 C 102.231 -0.538707 3.40869 0
M  V30 1173 C 101.344 0.372169 4.30394 0
M  V30 1174 C 100.479 -0.454908 5.29249 0
M  V30 1175 C 99.5179 0.45411 6.10413 0
M  V30 1176 N 98.6549 -0.335075 7.013 0
M  V30 1177 H 103.495 1.10052 2.76934 0
M  V30 1178 H 101.032 0.554161 1.36262 0
M  V30 1179 H 102.99 -1.02709 4.0436 0
M  V30 1180 H 101.62 -1.32727 2.9425 0
M  V30 1181 H 100.672 0.97888 3.6759 0
M  V30 1182 H 101.984 1.0703 4.87182 0
M  V30 1183 H 101.138 -1.00695 5.98285 0
M  V30 1184 H 99.8769 -1.18646 4.73048 0
M  V30 1185 H 98.8819 1.01813 5.40291 0
M  V30 1186 H 100.107 1.18409 6.68697 0
M  V30 1187 H 98.0529 -1.04994 6.47543 0
M  V30 1188 H 97.9699 0.304262 7.55387 0
M  V30 1189 H 99.2379 -0.869224 7.74638 0
M  V30 1190 N 103.467 -1.45747 0.599634 0
M  V30 1191 C 104.697 -2.06369 0.0977132 0
M  V30 1192 C 105.105 -1.44624 -1.21985 0
M  V30 1193 O 104.448 -0.551831 -1.75216 0
M  V30 1194 C 104.51 -3.59284 -0.124673 0
M  V30 1195 C 104.174 -4.43318 1.10987 0
M  V30 1196 C 105.171 -4.78796 2.02609 0
M  V30 1197 C 102.856 -4.84194 1.33647 0
M  V30 1198 C 104.85 -5.53997 3.15224 0
M  V30 1199 C 102.537 -5.5915 2.46565 0
M  V30 1200 C 103.535 -5.93968 3.37182 0
M  V30 1201 O 103.223 -6.67405 4.48136 0
M  V30 1202 H 102.955 -0.673122 0.0623153 0
M  V30 1203 H 105.509 -1.88104 0.824981 0
M  V30 1204 H 103.739 -3.75919 -0.906745 0
M  V30 1205 H 105.428 -4.01775 -0.577201 0
M  V30 1206 H 106.194 -4.47781 1.86325 0
M  V30 1207 H 102.073 -4.56534 0.64016 0
M  V30 1208 H 105.617 -5.81091 3.85978 0
M  V30 1209 H 101.514 -5.89579 2.62805 0
M  V30 1210 H 102.282 -6.85847 4.46717 0
M  V30 1211 N 104.945 -0.338344 -1.53925 0
M  V30 1212 C 105.877 0.555117 -2.22376 0
M  V30 1213 C 106.89 1.06812 -1.22862 0
M  V30 1214 O 108.079 0.979163 -1.49247 0
M  V30 1215 C 105.179 1.77609 -2.88631 0
M  V30 1216 C 104.352 1.39927 -4.14414 0
M  V30 1217 C 103.411 2.47936 -4.64127 0
M  V30 1218 O 102.437 2.11461 -5.28463 0
M  V30 1219 N 103.639 3.79107 -4.39612 0
M  V30 1220 H 106.404 -0.0310778 -2.99684 0
M  V30 1221 H 103.965 -0.162226 -1.61085 0
M  V30 1222 H 105.957 2.49287 -3.18807 0
M  V30 1223 H 104.527 2.26978 -2.14941 0
M  V30 1224 H 103.747 0.513481 -3.90841 0
M  V30 1225 H 105.035 1.12341 -4.96243 0
M  V30 1226 H 104.433 4.11531 -3.88148 0
M  V30 1227 H 102.99 4.4697 -4.74406 0
M  V30 1228 N 106.423 1.57458 -0.0668435 0
M  V30 1229 C 107.371 2.13639 0.919851 0
M  V30 1230 C 108.365 1.07204 1.31163 0
M  V30 1231 O 109.571 1.25591 1.28945 0
M  V30 1232 H 105.946 0.683048 0.314562 0
M  V30 1233 H 107.917 2.95415 0.421047 0
M  V30 1234 C 106.666 2.70892 2.17975 0
M  V30 1235 H 105.989 3.5246 1.88711 0
M  V30 1236 H 107.429 3.13803 2.85138 0
M  V30 1237 C 105.888 1.65414 2.93496 0
M  V30 1238 O 106.418 1.07619 3.87015 0
M  V30 1239 N 104.624 1.36564 2.56512 0
M  V30 1240 H 104.171 1.83751 1.80536 0
M  V30 1241 H 104.129 0.66223 3.07347 0
M  V30 1242 N 107.901 -0.206675 1.56239 0
M  V30 1243 C 109.147 -0.930218 1.80208 0
M  V30 1244 C 109.48 -1.83387 0.638981 0
M  V30 1245 O 108.755 -1.91119 -0.361066 0
M  V30 1246 C 109.038 -1.75641 3.1436 0
M  V30 1247 C 108.891 -0.878257 4.41142 0
M  V30 1248 C 110.21 -2.73129 3.45092 0
M  V30 1249 H 107.329 -0.336742 0.655571 0
M  V30 1250 H 109.971 -0.198222 1.88963 0
M  V30 1251 H 108.121 -2.38048 3.07027 0
M  V30 1252 H 109.793 -0.269787 4.6051 0
M  V30 1253 H 108.036 -0.184385 4.33408 0
M  V30 1254 H 108.707 -1.49106 5.3148 0
M  V30 1255 H 111.183 -2.20856 3.52649 0
M  V30 1256 H 110.059 -3.28028 4.40101 0
M  V30 1257 H 110.32 -3.51606 2.68003 0
M  V30 1258 N 109.379 -1.50304 -0.473955 0
M  V30 1259 C 110.309 -1.71886 -1.58042 0
M  V30 1260 C 111.29 -0.567799 -1.60344 0
M  V30 1261 O 112.475 -0.806623 -1.76656 0
M  V30 1262 C 109.605 -1.81036 -2.96384 0
M  V30 1263 C 108.559 -2.962 -3.08949 0
M  V30 1264 C 107.885 -2.9049 -4.48909 0
M  V30 1265 C 109.185 -4.36752 -2.86434 0
M  V30 1266 H 110.879 -2.64527 -1.40234 0
M  V30 1267 H 108.425 -1.27295 -0.673201 0
M  V30 1268 H 110.378 -1.94719 -3.73714 0
M  V30 1269 H 109.102 -0.850147 -3.15341 0
M  V30 1270 H 107.761 -2.82164 -2.3405 0
M  V30 1271 H 107.409 -1.92321 -4.64781 0
M  V30 1272 H 107.109 -3.67802 -4.58253 0
M  V30 1273 H 108.633 -3.06218 -5.28264 0
M  V30 1274 H 110.047 -4.5133 -3.53517 0
M  V30 1275 H 108.444 -5.15493 -3.07225 0
M  V30 1276 H 109.514 -4.49321 -1.82316 0
M  V30 1277 N 110.857 0.726932 -1.39834 0
M  V30 1278 C 112.103 1.48884 -1.377 0
M  V30 1279 C 112.436 1.94185 0.0244852 0
M  V30 1280 O 111.711 1.67361 0.990986 0
M  V30 1281 C 111.994 2.72288 -2.3565 0
M  V30 1282 C 111.847 2.32956 -3.84775 0
M  V30 1283 C 113.166 3.74414 -2.31306 0
M  V30 1284 H 110.285 0.540062 -0.5015 0
M  V30 1285 H 112.927 0.830547 -1.70886 0
M  V30 1286 H 111.077 3.28457 -2.07481 0
M  V30 1287 H 112.749 1.82356 -4.23726 0
M  V30 1288 H 110.992 1.65088 -4.01159 0
M  V30 1289 H 111.663 3.21362 -4.4881 0
M  V30 1290 H 114.139 3.27849 -2.56231 0
M  V30 1291 H 113.015 4.58414 -3.01907 0
M  V30 1292 H 113.276 4.21909 -1.32081 0
M  V30 1293 N 112.336 1.25143 0.95797 0
M  V30 1294 C 113.583 1.09692 1.70217 0
M  V30 1295 C 113.911 -0.362654 1.91089 0
M  V30 1296 O 113.166 -1.28386 1.47701 0
M  V30 1297 C 113.465 1.79272 3.09187 0
M  V30 1298 C 113.131 3.29196 3.08125 0
M  V30 1299 C 111.793 3.70096 3.07543 0
M  V30 1300 C 114.145 4.24995 3.0171 0
M  V30 1301 C 111.473 5.05213 2.9829 0
M  V30 1302 C 113.825 5.60132 2.93999 0
M  V30 1303 C 112.489 6.00365 2.9175 0
M  V30 1304 H 111.759 0.401393 0.622868 0
M  V30 1305 H 114.406 1.55372 1.11945 0
M  V30 1306 H 112.711 1.26014 3.70982 0
M  V30 1307 H 114.408 1.64773 3.65583 0
M  V30 1308 H 110.998 2.96651 3.09348 0
M  V30 1309 H 115.182 3.9439 3.01281 0
M  V30 1310 H 110.438 5.35569 2.94916 0
M  V30 1311 H 114.612 6.3406 2.87996 0
M  V30 1312 H 112.239 7.05023 2.84336 0
M  V30 1313 N 113.814 -1.1601 1.06675 0
M  V30 1314 C 114.724 -2.24156 0.692179 0
M  V30 1315 C 115.74 -1.71507 -0.293513 0
M  V30 1316 O 116.916 -2.009 -0.141861 0
M  V30 1317 C 113.981 -3.46587 0.0884131 0
M  V30 1318 C 113.042 -4.14257 1.12646 0
M  V30 1319 C 112.275 -5.30844 0.551416 0
M  V30 1320 O 112.498 -5.66858 -0.634656 0
M  V30 1321 O 111.432 -5.87848 1.29298 0
M  V30 1322 H 115.258 -2.58513 1.59388 0
M  V30 1323 H 112.843 -1.23599 0.83926 0
M  V30 1324 H 114.725 -4.20679 -0.246361 0
M  V30 1325 H 113.4 -3.13994 -0.786712 0
M  V30 1326 H 112.307 -3.42118 1.51348 0
M  V30 1327 H 113.64 -4.50914 1.97325 0
M  V30 1328 N 115.292 -0.849877 -1.32721 0
M  V30 1329 C 116.517 -0.463856 -2.02146 0
M  V30 1330 C 116.942 0.930449 -1.63476 0
M  V30 1331 O 116.3 1.61033 -0.832952 0
M  V30 1332 C 116.348 -0.604955 -3.55489 0
M  V30 1333 O 115.452 0.36425 -4.10788 0
M  V30 1334 H 114.793 -0.187046 -0.637111 0
M  V30 1335 H 117.323 -1.14775 -1.69375 0
M  V30 1336 H 117.333 -0.490696 -4.05038 0
M  V30 1337 H 116.008 -1.62174 -3.82978 0
M  V30 1338 H 114.585 0.206628 -3.72327 0
M  V30 1339 N 116.77 1.45427 -0.607355 0
M  V30 1340 C 117.998 2.06614 -0.108814 0
M  V30 1341 C 118.413 1.45204 1.2067 0
M  V30 1342 O 117.77 0.566132 1.73497 0
M  V30 1343 C 117.821 3.61481 0.0375347 0
M  V30 1344 O 117.542 4.20598 -1.22593 0
M  V30 1345 C 119.043 4.39652 0.567561 0
M  V30 1346 H 116.263 0.66747 -0.0687351 0
M  V30 1347 H 118.807 1.86675 -0.835022 0
M  V30 1348 H 116.962 3.80762 0.714068 0
M  V30 1349 H 117.376 5.1377 -1.05547 0
M  V30 1350 H 118.85 5.48518 0.61905 0
M  V30 1351 H 119.327 4.09417 1.58978 0
M  V30 1352 H 119.933 4.25234 -0.0749202 0
M  V30 1353 N 118.248 0.346503 1.53744 0
M  V30 1354 C 119.476 -0.25041 2.05379 0
M  V30 1355 C 119.891 -1.43979 1.22129 0
M  V30 1356 O 119.248 -1.80677 0.257321 0
M  V30 1357 C 119.299 -0.662575 3.55376 0
M  V30 1358 O 119.02 0.479515 4.35468 0
M  V30 1359 C 120.521 -1.31989 4.23195 0
M  V30 1360 H 117.741 -0.0478198 0.669294 0
M  V30 1361 H 120.285 0.499346 1.9831 0
M  V30 1362 H 118.44 -1.36227 3.62658 0
M  V30 1363 H 118.854 0.15037 5.24284 0
M  V30 1364 H 120.328 -1.55902 5.29527 0
M  V30 1365 H 120.805 -2.27436 3.75725 0
M  V30 1366 H 121.411 -0.662154 4.20114 0
M  V30 1367 N 119.726 -1.57421 0.075193 0
M  V30 1368 C 120.956 -1.97659 -0.601203 0
M  V30 1369 C 121.364 -0.952427 -1.63479 0
M  V30 1370 O 120.707 0.0688241 -1.83571 0
M  V30 1371 C 120.769 -3.34218 -1.32434 0
M  V30 1372 C 120.433 -4.5484 -0.443826 0
M  V30 1373 C 121.43 -5.19034 0.299969 0
M  V30 1374 C 119.115 -5.00952 -0.367709 0
M  V30 1375 C 121.109 -6.27695 1.10807 0
M  V30 1376 C 118.796 -6.09484 0.444058 0
M  V30 1377 C 119.794 -6.72719 1.18061 0
M  V30 1378 O 119.482 -7.79161 1.97898 0
M  V30 1379 H 119.214 -0.65494 -0.167422 0
M  V30 1380 H 121.768 -2.04886 0.145157 0
M  V30 1381 H 119.998 -3.23615 -2.11685 0
M  V30 1382 H 121.687 -3.59038 -1.89331 0
M  V30 1383 H 122.453 -4.84351 0.250776 0
M  V30 1384 H 118.332 -4.51509 -0.930638 0
M  V30 1385 H 121.876 -6.76982 1.68347 0
M  V30 1386 H 117.773 -6.43601 0.494803 0
M  V30 1387 H 118.541 -7.96055 1.90367 0
M  V30 1388 N 121.204 0.198386 -1.56346 0
M  V30 1389 C 122.452 0.91747 -1.80075 0
M  V30 1390 C 122.773 1.83929 -0.647692 0
M  V30 1391 O 122.043 1.93029 0.334166 0
M  V30 1392 H 120.623 0.341774 -0.664228 0
M  V30 1393 H 123.285 0.204684 -1.93822 0
M  V30 1394 H 122.381 1.51055 -2.7311 0
M  V30 1395 N 122.682 1.50554 0.465978 0
M  V30 1396 C 123.629 1.6979 1.56333 0
M  V30 1397 C 124.599 0.539239 1.57103 0
M  V30 1398 O 125.784 0.770401 1.74555 0
M  V30 1399 C 122.924 1.80273 2.94271 0
M  V30 1400 C 122.037 3.07674 3.0325 0
M  V30 1401 C 121.172 3.08922 4.32135 0
M  V30 1402 C 120.211 4.30755 4.34875 0
M  V30 1403 N 119.348 4.29714 5.55239 0
M  V30 1404 H 124.188 2.63472 1.39235 0
M  V30 1405 H 121.725 1.30602 0.676873 0
M  V30 1406 H 123.683 1.84332 3.74269 0
M  V30 1407 H 122.313 0.900258 3.09992 0
M  V30 1408 H 121.365 3.13062 2.16094 0
M  V30 1409 H 122.677 3.97642 3.01135 0
M  V30 1410 H 121.831 3.11738 5.20485 0
M  V30 1411 H 120.57 2.16792 4.36866 0
M  V30 1412 H 119.575 4.28146 3.44922 0
M  V30 1413 H 120.8 5.24117 4.31831 0
M  V30 1414 H 118.746 3.4044 5.60746 0
M  V30 1415 H 118.663 5.13456 5.54886 0
M  V30 1416 H 119.931 4.36683 6.457 0
M  V30 1417 N 124.16 -0.719506 1.40217 0
M  V30 1418 C 125.406 -1.48152 1.38488 0
M  V30 1419 C 125.739 -1.94195 -0.0141867 0
M  V30 1420 O 125.014 -1.67884 -0.982096 0
M  V30 1421 C 125.297 -2.71035 2.37091 0
M  V30 1422 C 125.15 -2.30912 3.86005 0
M  V30 1423 C 126.469 -3.73182 2.33288 0
M  V30 1424 H 123.588 -0.537395 0.504357 0
M  V30 1425 H 126.23 -0.821472 1.71324 0
M  V30 1426 H 124.38 -3.27352 2.0922 0
M  V30 1427 H 126.052 -1.80107 4.24687 0
M  V30 1428 H 124.295 -1.62958 4.02029 0
M  V30 1429 H 124.966 -3.18978 4.50508 0
M  V30 1430 H 127.442 -3.26485 2.57966 0
M  V30 1431 H 126.318 -4.56806 3.04334 0
M  V30 1432 H 126.579 -4.21202 1.34317 0
M  V30 1433 N 125.638 -1.25649 -0.95132 0
M  V30 1434 C 126.568 -1.08808 -2.06599 0
M  V30 1435 C 127.549 0.00382547 -1.701 0
M  V30 1436 O 128.734 -0.166325 -1.93486 0
M  V30 1437 C 125.864 -0.709542 -3.39975 0
M  V30 1438 C 124.818 -1.75206 -3.90496 0
M  V30 1439 C 124.144 -1.22811 -5.20405 0
M  V30 1440 C 125.444 -3.15153 -4.16504 0
M  V30 1441 H 127.138 -2.02048 -2.20946 0
M  V30 1442 H 124.684 -0.972835 -1.06169 0
M  V30 1443 H 126.637 -0.578649 -4.17408 0
M  V30 1444 H 125.361 0.258556 -3.25575 0
M  V30 1445 H 124.02 -1.87145 -3.15234 0
M  V30 1446 H 123.668 -0.250145 -5.02378 0
M  V30 1447 H 123.368 -1.92492 -5.55176 0
M  V30 1448 H 124.892 -1.10968 -6.00432 0
M  V30 1449 H 126.306 -3.06349 -4.84586 0
M  V30 1450 H 124.703 -3.82333 -4.62538 0
M  V30 1451 H 125.773 -3.61966 -3.22658 0
M  V30 1452 N 127.117 1.15442 -1.07289 0
M  V30 1453 C 128.363 1.86489 -0.796846 0
M  V30 1454 C 128.696 1.82078 0.675371 0
M  V30 1455 O 127.971 1.24346 1.4956 0
M  V30 1456 C 128.254 3.35626 -1.30489 0
M  V30 1457 C 128.107 3.48673 -2.84161 0
M  V30 1458 C 129.426 4.30357 -0.920907 0
M  V30 1459 H 126.545 0.677144 -0.290939 0
M  V30 1460 H 129.187 1.35633 -1.33056 0
M  V30 1461 H 127.337 3.79068 -0.850883 0
M  V30 1462 H 129.009 3.14099 -3.37846 0
M  V30 1463 H 127.252 2.90253 -3.22391 0
M  V30 1464 H 127.923 4.53453 -3.14777 0
M  V30 1465 H 130.399 3.94871 -1.3121 0
M  V30 1466 H 129.275 5.33193 -1.30372 0
M  V30 1467 H 129.536 4.4176 0.173226 0
M  V30 1468 N 128.595 0.856903 1.32268 0
M  V30 1469 C 129.525 0.31858 2.31316 0
M  V30 1470 C 130.506 -0.583487 1.59779 0
M  V30 1471 O 131.691 -0.503259 1.87566 0
M  V30 1472 C 128.821 -0.491979 3.43798 0
M  V30 1473 C 127.775 0.315849 4.26833 0
M  V30 1474 C 127.101 -0.619586 5.31098 0
M  V30 1475 C 128.401 1.54282 4.98993 0
M  V30 1476 H 130.095 1.14621 2.76591 0
M  V30 1477 H 127.641 0.552613 1.32974 0
M  V30 1478 H 129.594 -0.879012 4.1213 0
M  V30 1479 H 128.318 -1.35299 2.97257 0
M  V30 1480 H 126.977 0.684664 3.6015 0
M  V30 1481 H 126.625 -1.47751 4.8081 0
M  V30 1482 H 126.325 -0.0830621 5.87541 0
M  V30 1483 H 127.849 -1.00375 6.02293 0
M  V30 1484 H 129.263 1.22796 5.59995 0
M  V30 1485 H 127.66 2.01745 5.65172 0
M  V30 1486 H 128.73 2.30285 4.26728 0
M  V30 1487 N 130.073 -1.45103 0.615059 0
M  V30 1488 C 131.35 -1.95549 0.0448276 0
M  V30 1489 C 131.73 -1.55737 -1.4251 0
M  V30 1490 O 131.078 -0.823556 -2.13143 0
M  V30 1491 C 131.288 -3.48098 0.250785 0
M  V30 1492 C 132.636 -4.24384 0.135509 0
M  V30 1493 O 133.66 -3.55738 0.181299 0
M  V30 1494 O 132.519 -5.46493 0.0268878 0
M  V30 1495 H 129.613 -0.8264 -0.0314845 0
M  V30 1496 H 132.159 -1.55232 0.685642 0
M  V30 1497 H 130.931 -3.7007 1.27139 0
M  V30 1498 H 130.554 -3.95323 -0.424937 0
M  V30 1499 N 131.551 -0.354651 -1.53558 0
M  V30 1500 C 132.799 0.237972 -2.00694 0
M  V30 1501 C 133.12 1.50173 -1.24391 0
M  V30 1502 O 132.39 1.92673 -0.354135 0
M  V30 1503 H 130.97 0.0909256 -0.741446 0
M  V30 1504 H 133.632 -0.478368 -1.88938 0
M  V30 1505 H 132.728 0.47264 -3.085 0
M  V30 1506 N 133.029 1.57378 -0.0835403 0
M  V30 1507 C 134.275 1.94217 0.583733 0
M  V30 1508 C 134.608 0.964653 1.68547 0
M  V30 1509 O 133.883 -0.00422258 1.945 0
M  V30 1510 C 134.166 3.41253 1.14972 0
M  V30 1511 C 134.019 4.49768 0.0538277 0
M  V30 1512 C 135.338 3.89352 2.05166 0
M  V30 1513 H 132.457 0.706233 0.210724 0
M  V30 1514 H 135.099 1.89392 -0.1519 0
M  V30 1515 H 133.249 3.45496 1.77665 0
M  V30 1516 H 134.921 4.57641 -0.579851 0
M  V30 1517 H 133.164 4.29432 -0.614068 0
M  V30 1518 H 133.835 5.49817 0.490452 0
M  V30 1519 H 136.311 3.87189 1.52393 0
M  V30 1520 H 135.187 4.92822 2.41698 0
M  V30 1521 H 135.448 3.27973 2.96456 0
M  V30 1522 N 134.507 -0.190092 1.56449 0
M  V30 1523 C 135.756 -0.907912 1.80111 0
M  V30 1524 C 136.069 -1.84214 0.657619 0
M  V30 1525 O 137.275 -2.60094 0.778663 0
M  V30 1526 C 135.731 -1.66485 3.19078 0
M  V30 1527 C 135.339 -0.7752 4.41242 0
M  V30 1528 C 137.083 -2.37201 3.52045 0
M  V30 1529 C 134.99 -1.53129 5.71231 0
M  V30 1530 H 133.92 -0.34276 0.671589 0
M  V30 1531 H 136.571 -0.161109 1.82791 0
M  V30 1532 H 134.953 -2.45572 3.10661 0
M  V30 1533 H 136.127 -0.0226298 4.60794 0
M  V30 1534 H 134.442 -0.178627 4.16017 0
M  V30 1535 H 137.039 -2.94329 4.46402 0
M  V30 1536 H 137.382 -3.11632 2.76028 0
M  V30 1537 H 137.915 -1.65075 3.61932 0
M  V30 1538 H 134.654 -0.82967 6.50228 0
M  V30 1539 H 134.174 -2.25767 5.55688 0
M  V30 1540 H 135.853 -2.08377 6.12526 0
M  V30 1541 N 135.985 -1.50799 -0.457987 0
M  V30 1542 C 136.917 -1.66786 -1.57211 0
M  V30 1543 C 137.93 -0.548962 -1.53265 0
M  V30 1544 O 139.119 -0.8226 -1.58416 0
M  V30 1545 C 136.219 -1.64834 -2.96113 0
M  V30 1546 C 135.392 -2.92971 -3.24787 0
M  V30 1547 C 134.451 -2.83485 -4.43309 0
M  V30 1548 O 133.477 -3.5744 -4.42973 0
M  V30 1549 N 134.679 -1.97929 -5.45714 0
M  V30 1550 H 137.444 -2.62889 -1.43909 0
M  V30 1551 H 135.005 -1.48427 -0.646617 0
M  V30 1552 H 136.997 -1.56084 -3.7339 0
M  V30 1553 H 135.567 -0.764118 -3.03117 0
M  V30 1554 H 134.787 -3.15749 -2.36 0
M  V30 1555 H 136.075 -3.77834 -3.40762 0
M  V30 1556 H 135.473 -1.37182 -5.48815 0
M  V30 1557 H 134.03 -1.95073 -6.21924 0
M  V30 1558 N 137.463 0.71206 -1.40597 0
M  V30 1559 C 138.393 1.83889 -1.43899 0
M  V30 1560 C 139.374 1.67442 -0.299504 0
M  V30 1561 O 140.559 1.87421 -0.508624 0
M  V30 1562 C 137.689 3.21877 -1.30431 0
M  V30 1563 C 136.643 3.53002 -2.42019 0
M  V30 1564 C 135.969 4.90172 -2.13626 0
M  V30 1565 C 137.269 3.53643 -3.84362 0
M  V30 1566 H 138.963 1.81383 -2.38203 0
M  V30 1567 H 136.509 0.871237 -1.14654 0
M  V30 1568 H 138.462 4.00404 -1.31357 0
M  V30 1569 H 137.186 3.24968 -0.326049 0
M  V30 1570 H 135.845 2.76818 -2.40349 0
M  V30 1571 H 135.493 4.89869 -1.14182 0
M  V30 1572 H 135.193 5.11962 -2.88389 0
M  V30 1573 H 136.717 5.71028 -2.1624 0
M  V30 1574 H 138.131 4.22203 -3.87837 0
M  V30 1575 H 136.528 3.86961 -4.58673 0
M  V30 1576 H 137.598 2.52954 -4.13693 0
M  V30 1577 N 138.941 1.26152 0.944643 0
M  V30 1578 C 140.169 1.14259 1.72489 0
M  V30 1579 C 140.584 -0.302555 1.8636 0
M  V30 1580 O 139.941 -1.20741 1.36849 0
M  V30 1581 C 139.992 1.80266 3.13347 0
M  V30 1582 O 139.713 3.19133 3.00143 0
M  V30 1583 C 141.214 1.74283 4.07603 0
M  V30 1584 H 138.434 0.398051 0.540181 0
M  V30 1585 H 140.978 1.66706 1.18446 0
M  V30 1586 H 139.133 1.31766 3.64303 0
M  V30 1587 H 139.547 3.51744 3.89071 0
M  V30 1588 H 141.021 2.25111 5.04013 0
M  V30 1589 H 141.498 0.708631 4.33446 0
M  V30 1590 H 142.104 2.22319 3.62567 0
M  V30 1591 N 140.419 -1.14872 1.07899 0
M  V30 1592 C 141.329 -2.2341 0.715915 0
M  V30 1593 C 142.345 -1.71808 -0.275306 0
M  V30 1594 O 143.521 -2.01039 -0.120545 0
M  V30 1595 C 140.586 -3.46474 0.125168 0
M  V30 1596 C 139.647 -4.13039 1.17034 0
M  V30 1597 C 138.88 -5.30229 0.607688 0
M  V30 1598 O 139.103 -5.675 -0.574497 0
M  V30 1599 O 138.037 -5.86444 1.35526 0
M  V30 1600 H 141.863 -2.56808 1.62121 0
M  V30 1601 H 139.448 -1.22702 0.852322 0
M  V30 1602 H 141.33 -4.20917 -0.201729 0
M  V30 1603 H 140.005 -3.14811 -0.753364 0
M  V30 1604 H 138.912 -3.40493 1.54968 0
M  V30 1605 H 140.245 -4.48796 2.02097 0
M  V30 1606 N 141.898 -0.863906 -1.31812 0
M  V30 1607 C 142.845 -0.313303 -2.28664 0
M  V30 1608 C 143.815 0.584868 -1.55462 0
M  V30 1609 O 145 0.517805 -1.83639 0
M  V30 1610 C 142.14 0.48441 -3.41683 0
M  V30 1611 C 141.253 -0.440594 -4.29747 0
M  V30 1612 C 140.388 0.370652 -5.29905 0
M  V30 1613 C 139.427 -0.551164 -6.09613 0
M  V30 1614 N 138.564 0.223462 -7.01744 0
M  V30 1615 H 143.404 -1.14444 -2.75148 0
M  V30 1616 H 140.941 -0.575769 -1.35364 0
M  V30 1617 H 142.899 0.962627 -4.05943 0
M  V30 1618 H 141.529 1.28029 -2.96325 0
M  V30 1619 H 140.581 -1.03724 -3.65986 0
M  V30 1620 H 141.893 -1.14767 -4.85417 0
M  V30 1621 H 141.047 0.911638 -5.99812 0
M  V30 1622 H 139.786 1.11105 -4.74876 0
M  V30 1623 H 138.791 -1.10396 -5.38603 0
M  V30 1624 H 140.016 -1.29032 -6.66729 0
M  V30 1625 H 137.962 0.946787 -6.49132 0
M  V30 1626 H 137.879 -0.424399 -7.54808 0
M  V30 1627 H 139.147 0.745876 -7.75923 0
M  V30 1628 N 143.376 1.44774 -0.622745 0
M  V30 1629 C 144.653 1.95522 -0.0551974 0
M  V30 1630 C 145.033 1.5649 1.41683 0
M  V30 1631 O 144.381 0.834848 2.12703 0
M  V30 1632 C 144.591 3.4796 -0.269242 0
M  V30 1633 C 145.939 4.24306 -0.158014 0
M  V30 1634 O 146.963 3.55637 -0.200162 0
M  V30 1635 O 145.822 5.46471 -0.0558693 0
M  V30 1636 H 142.916 0.826556 0.0271015 0
M  V30 1637 H 145.462 1.54866 -0.693864 0
M  V30 1638 H 144.234 3.6939 -1.29099 0
M  V30 1639 H 143.857 3.95543 0.403966 0
M  V30 1640 N 144.854 0.36279 1.53368 0
M  V30 1641 C 145.764 -0.492994 2.29362 0
M  V30 1642 C 146.78 -1.09507 1.35219 0
M  V30 1643 O 147.956 -1.10662 1.68273 0
M  V30 1644 C 145.021 -1.61855 3.066 0
M  V30 1645 C 144.082 -1.04429 4.16405 0
M  V30 1646 C 143.315 -2.11621 4.89951 0
M  V30 1647 O 143.538 -3.32684 4.63333 0
M  V30 1648 O 142.472 -1.74835 5.75948 0
M  V30 1649 H 146.298 0.125331 3.03441 0
M  V30 1650 H 143.883 0.127253 1.48857 0
M  V30 1651 H 145.765 -2.27302 3.54841 0
M  V30 1652 H 144.44 -2.22233 2.3536 0
M  V30 1653 H 143.347 -0.353819 3.72423 0
M  V30 1654 H 144.68 -0.485113 4.89804 0
M  V30 1655 N 146.332 -1.57332 0.0918853 0
M  V30 1656 C 147.579 -1.94236 -0.572577 0
M  V30 1657 C 147.907 -0.973398 -1.6839 0
M  V30 1658 O 147.162 0.00756912 -1.95699 0
M  V30 1659 C 147.461 -3.37689 -1.17051 0
M  V30 1660 C 147.127 -4.50527 -0.183304 0
M  V30 1661 C 145.789 -4.81119 0.0882276 0
M  V30 1662 C 148.141 -5.18883 0.49095 0
M  V30 1663 C 145.469 -5.77395 1.04076 0
M  V30 1664 C 147.821 -6.1618 1.43193 0
M  V30 1665 C 146.485 -6.45179 1.71173 0
M  V30 1666 H 145.755 -0.710762 -0.209521 0
M  V30 1667 H 148.402 -1.9077 0.167036 0
M  V30 1668 H 146.707 -3.37718 -1.9863 0
M  V30 1669 H 148.404 -3.63543 -1.69227 0
M  V30 1670 H 144.994 -4.26681 -0.405124 0
M  V30 1671 H 149.178 -4.95427 0.294312 0
M  V30 1672 H 144.434 -5.98179 1.26457 0
M  V30 1673 H 148.608 -6.68243 1.96023 0
M  V30 1674 H 146.235 -7.1959 2.4514 0
M  V30 1675 N 147.81 0.181792 -1.56548 0
M  V30 1676 C 148.773 1.20894 -1.94724 0
M  V30 1677 C 149.773 1.37738 -0.829747 0
M  V30 1678 O 150.963 1.35323 -1.09697 0
M  V30 1679 C 148.095 2.57593 -2.23291 0
M  V30 1680 H 149.288 0.882275 -2.86629 0
M  V30 1681 H 146.841 0.423838 -1.50444 0
M  V30 1682 H 147.576 2.95291 -1.34067 0
M  V30 1683 H 147.361 2.46735 -3.04736 0
M  V30 1684 H 148.851 3.31637 -2.53785 0
M  V30 1685 N 149.288 1.51039 0.449983 0
M  V30 1686 C 150.518 1.66627 1.22143 0
M  V30 1687 C 150.926 0.357776 1.85786 0
M  V30 1688 O 150.269 -0.672424 1.70951 0
M  V30 1689 C 150.331 2.71562 2.35573 0
M  V30 1690 C 149.995 4.14526 1.92399 0
M  V30 1691 C 150.992 4.99717 1.43453 0
M  V30 1692 C 148.677 4.60559 2.00475 0
M  V30 1693 C 150.671 6.28998 1.03155 0
M  V30 1694 C 148.358 5.8984 1.59788 0
M  V30 1695 C 149.356 6.73886 1.11208 0
M  V30 1696 O 149.044 8.0075 0.710935 0
M  V30 1697 H 148.776 0.562635 0.374724 0
M  V30 1698 H 151.33 1.98146 0.541036 0
M  V30 1699 H 149.56 2.3533 3.06849 0
M  V30 1700 H 151.249 2.76156 2.97478 0
M  V30 1701 H 152.015 4.65361 1.36618 0
M  V30 1702 H 147.894 3.95273 2.37235 0
M  V30 1703 H 151.438 6.9455 0.651663 0
M  V30 1704 H 147.335 6.23713 1.66289 0
M  V30 1705 H 148.103 8.142 0.837913 0
M  V30 1706 N 150.766 -0.704594 1.40972 0
M  V30 1707 C 151.716 -1.81051 1.38581 0
M  V30 1708 C 152.7 -1.58759 0.261585 0
M  V30 1709 O 153.892 -1.69745 0.501556 0
M  V30 1710 C 151.021 -3.19279 1.26157 0
M  V30 1711 C 150.107 -3.47296 2.43405 0
M  V30 1712 N 150.498 -3.46064 3.68881 0
M  V30 1713 C 148.796 -3.77804 2.37023 0
M  V30 1714 C 149.497 -3.72733 4.46592 0
M  V30 1715 N 148.473 -3.9203 3.76581 0
M  V30 1716 H 152.275 -1.78448 2.33525 0
M  V30 1717 H 149.789 -0.904198 1.349 0
M  V30 1718 H 151.786 -3.98488 1.22526 0
M  V30 1719 H 150.446 -3.231 0.321902 0
M  V30 1720 H 151.457 -3.26656 4.01891 0
M  V30 1721 H 148.134 -3.8905 1.51481 0
M  V30 1722 H 149.524 -3.77993 5.55492 0
M  V30 1723 N 152.244 -1.26651 -0.937939 0
M  V30 1724 C 153.154 -1.10276 -2.07066 0
M  V30 1725 C 154.17 -0.0354197 -1.73964 0
M  V30 1726 O 155.346 -0.239816 -1.99967 0
M  V30 1727 C 152.411 -0.740887 -3.38691 0
M  V30 1728 C 151.472 -1.88799 -3.85556 0
M  V30 1729 C 150.705 -1.54329 -5.10899 0
M  V30 1730 O 150.928 -0.446494 -5.6865 0
M  V30 1731 O 149.862 -2.37911 -5.52885 0
M  V30 1732 H 153.688 -2.05309 -2.23789 0
M  V30 1733 H 151.273 -1.05743 -1.0554 0
M  V30 1734 H 153.155 -0.55195 -4.1777 0
M  V30 1735 H 151.83 0.180022 -3.23199 0
M  V30 1736 H 150.737 -2.13191 -3.07409 0
M  V30 1737 H 152.07 -2.78874 -4.05574 0
M  V30 1738 N 153.722 1.14298 -1.08507 0
M  V30 1739 C 154.655 2.18447 -0.660004 0
M  V30 1740 C 155.633 1.59242 0.328749 0
M  V30 1741 O 156.817 1.87062 0.232367 0
M  V30 1742 C 153.944 3.38688 0.0290807 0
M  V30 1743 C 152.99 4.1646 -0.919982 0
M  V30 1744 S 153.823 4.77334 -2.42718 0
M  V30 1745 C 154.979 6.00931 -1.75024 0
M  V30 1746 H 155.212 2.54166 -1.54231 0
M  V30 1747 H 152.745 1.25446 -0.900149 0
M  V30 1748 H 154.703 4.08342 0.420378 0
M  V30 1749 H 153.364 3.01289 0.887895 0
M  V30 1750 H 152.557 5.02529 -0.384751 0
M  V30 1751 H 152.159 3.52414 -1.25223 0
M  V30 1752 H 154.451 6.69017 -1.06877 0
M  V30 1753 H 155.394 6.59044 -2.58971 0
M  V30 1754 H 155.802 5.51089 -1.22317 0
M  V30 1755 N 155.201 0.870884 1.31352 0
M  V30 1756 C 156.134 0.271983 2.26573 0
M  V30 1757 C 157.112 -0.599385 1.51149 0
M  V30 1758 O 158.296 -0.552605 1.80218 0
M  V30 1759 C 155.423 -0.614801 3.33073 0
M  V30 1760 C 154.469 0.185342 4.26097 0
M  V30 1761 S 155.302 1.56444 5.12138 0
M  V30 1762 C 156.458 0.683807 6.22153 0
M  V30 1763 H 156.691 1.07916 2.77023 0
M  V30 1764 H 154.224 0.669459 1.39132 0
M  V30 1765 H 156.182 -1.12074 3.94905 0
M  V30 1766 H 154.843 -1.39593 2.81376 0
M  V30 1767 H 154.036 -0.490771 5.01605 0
M  V30 1768 H 153.638 0.623415 3.68768 0
M  V30 1769 H 155.93 -0.10521 6.77418 0
M  V30 1770 H 156.873 1.41004 6.93919 0
M  V30 1771 H 157.281 0.250952 5.63942 0
M  V30 1772 N 156.679 -1.44442 0.630414 0
M  V30 1773 C 157.907 -2.06414 0.141671 0
M  V30 1774 C 158.322 -1.47105 -1.18345 0
M  V30 1775 O 157.679 -0.593662 -1.72574 0
M  V30 1776 C 157.73 -3.61494 0.0199784 0
M  V30 1777 O 157.451 -4.18594 1.29269 0
M  V30 1778 C 158.952 -4.40499 -0.497544 0
M  V30 1779 H 156.172 -0.666292 0.0793452 0
M  V30 1780 H 158.716 -1.85323 0.864614 0
M  V30 1781 H 156.871 -3.8185 -0.653402 0
M  V30 1782 H 157.285 -5.12026 1.13707 0
M  V30 1783 H 158.759 -5.49433 -0.531708 0
M  V30 1784 H 159.236 -4.11895 -1.52445 0
M  V30 1785 H 159.842 -4.25061 0.142562 0
M  V30 1786 N 158.157 -0.370918 -1.53173 0
M  V30 1787 C 159.107 0.489588 -2.22681 0
M  V30 1788 C 160.091 1.04442 -1.22395 0
M  V30 1789 O 161.283 0.973578 -1.47819 0
M  V30 1790 C 158.412 1.626 -3.02351 0
M  V30 1791 C 157.498 1.08379 -4.10018 0
M  V30 1792 N 157.889 0.265004 -5.05105 0
M  V30 1793 C 156.187 1.35809 -4.2482 0
M  V30 1794 C 156.888 -0.0324755 -5.81691 0
M  V30 1795 N 155.864 0.566581 -5.40639 0
M  V30 1796 H 159.666 -0.142729 -2.93553 0
M  V30 1797 H 157.18 -0.179221 -1.61408 0
M  V30 1798 H 159.177 2.2547 -3.50669 0
M  V30 1799 H 157.837 2.26132 -2.33011 0
M  V30 1800 H 158.848 -0.0962352 -5.17811 0
M  V30 1801 H 155.525 1.9958 -3.66707 0
M  V30 1802 H 156.915 -0.69473 -6.68299 0
M  V30 1803 N 159.635 1.57281 -0.100228 0
M  V30 1804 C 160.881 1.94826 0.563101 0
M  V30 1805 C 161.214 0.982475 1.67514 0
M  V30 1806 O 160.489 0.0164069 1.94493 0
M  V30 1807 C 160.772 3.42453 1.11346 0
M  V30 1808 C 160.625 4.498 0.00612081 0
M  V30 1809 C 161.944 3.91506 2.01024 0
M  V30 1810 H 159.063 0.708428 0.203221 0
M  V30 1811 H 161.705 1.8922 -0.171979 0
M  V30 1812 H 159.855 3.47361 1.7399 0
M  V30 1813 H 161.527 4.57 -0.628357 0
M  V30 1814 H 159.77 4.28756 -0.659581 0
M  V30 1815 H 160.441 5.50306 0.432109 0
M  V30 1816 H 162.917 3.88784 1.48278 0
M  V30 1817 H 161.793 4.95358 2.36457 0
M  V30 1818 H 162.054 3.31099 2.92961 0
M  V30 1819 N 161.113 -0.173488 1.56642 0
M  V30 1820 C 162.524 -0.736155 1.71574 0
M  V30 1821 C 162.875 -1.82888 0.710389 0
M  V30 1822 O 162 -2.16017 -0.1287 0
M  V30 1823 C 162.595 -1.34211 3.11083 0
M  V30 1824 C 161.154 -1.85162 3.27707 0
M  V30 1825 C 160.301 -0.729765 2.67525 0
M  V30 1826 H 163.252 0.0518786 1.58615 0
M  V30 1827 H 163.273 -2.21178 3.09613 0
M  V30 1828 H 162.785 -0.546579 3.84232 0
M  V30 1829 H 160.886 -2.67366 2.59512 0
M  V30 1830 H 160.999 -1.99855 4.35425 0
M  V30 1831 H 159.363 -1.14965 2.27278 0
M  V30 1832 H 160.146 0.0538806 3.43258 0
M  V30 1833 N 162.591 -1.51276 -0.441967 0
M  V30 1834 C 163.524 -1.66933 -1.55591 0
M  V30 1835 C 164.502 -0.516958 -1.54163 0
M  V30 1836 O 165.686 -0.740209 -1.73358 0
M  V30 1837 C 162.813 -1.67866 -2.94174 0
M  V30 1838 C 161.859 -2.89013 -3.13646 0
M  V30 1839 S 162.692 -4.49897 -2.90436 0
M  V30 1840 C 163.848 -4.53568 -4.31308 0
M  V30 1841 H 164.081 -2.61155 -1.42076 0
M  V30 1842 H 161.614 -1.40902 -0.631341 0
M  V30 1843 H 163.572 -1.69089 -3.74058 0
M  V30 1844 H 162.233 -0.748296 -3.05056 0
M  V30 1845 H 161.426 -2.86054 -4.14957 0
M  V30 1846 H 161.028 -2.85509 -2.4158 0
M  V30 1847 H 163.32 -4.28924 -5.24434 0
M  V30 1848 H 164.263 -5.55355 -4.39303 0
M  V30 1849 H 164.671 -3.82943 -4.14747 0
M  V30 1850 N 164.069 0.697108 -1.41344 0
M  V30 1851 C 165.297 1.48593 -1.43972 0
M  V30 1852 C 165.712 1.88747 -0.0445612 0
M  V30 1853 O 165.069 1.56682 0.935785 0
M  V30 1854 C 165.12 2.74946 -2.34706 0
M  V30 1855 O 164.841 2.36484 -3.68791 0
M  V30 1856 C 166.342 3.687 -2.46121 0
M  V30 1857 H 163.562 0.457964 -0.490418 0
M  V30 1858 H 166.106 0.858429 -1.8561 0
M  V30 1859 H 164.261 3.33937 -1.9638 0
M  V30 1860 H 164.675 3.17918 -4.17167 0
M  V30 1861 H 166.149 4.54145 -3.13777 0
M  V30 1862 H 166.626 4.13081 -1.49199 0
M  V30 1863 H 167.232 3.15613 -2.85076 0
M  V30 1864 N 165.547 1.27147 0.931209 0
M  V30 1865 C 166.793 1.13446 1.68101 0
M  V30 1866 C 167.126 -0.319628 1.91552 0
M  V30 1867 O 166.401 -1.23407 1.50336 0
M  V30 1868 C 166.684 1.91482 3.0497 0
M  V30 1869 C 166.537 3.44855 2.88782 0
M  V30 1870 C 167.856 1.71651 4.05246 0
M  V30 1871 H 164.975 0.413498 0.610072 0
M  V30 1872 H 167.617 1.56261 1.08086 0
M  V30 1873 H 165.767 1.55095 3.56199 0
M  V30 1874 H 167.439 3.9105 2.44698 0
M  V30 1875 H 165.682 3.71373 2.24198 0
M  V30 1876 H 166.353 3.94694 3.85902 0
M  V30 1877 H 168.829 2.0337 3.63015 0
M  V30 1878 H 167.705 2.28651 4.99009 0
M  V30 1879 H 167.966 0.663555 4.37092 0
M  V30 1880 N 167.025 -1.13721 1.09112 0
M  V30 1881 C 168.25 -1.89314 0.847053 0
M  V30 1882 C 168.675 -1.78416 -0.595774 0
M  V30 1883 O 168.033 -1.12942 -1.41823 0
M  V30 1884 C 168.081 -3.3701 1.28284 0
M  V30 1885 O 167.185 -4.10054 0.439267 0
M  V30 1886 H 166.526 -0.588745 0.307044 0
M  V30 1887 H 169.056 -1.43902 1.45442 0
M  V30 1888 H 169.066 -3.87834 1.26683 0
M  V30 1889 H 167.741 -3.4426 2.33363 0
M  V30 1890 H 166.318 -3.69266 0.519312 0
M  V30 1891 N 168.503 -0.877838 -1.30888 0
M  V30 1892 C 169.45 -0.337538 -2.28318 0
M  V30 1893 C 170.42 0.568346 -1.56074 0
M  V30 1894 O 171.605 0.498298 -1.84178 0
M  V30 1895 C 168.745 0.448142 -3.42178 0
M  V30 1896 C 167.858 -0.48615 -4.29256 0
M  V30 1897 C 166.993 0.314427 -5.30269 0
M  V30 1898 C 166.032 -0.615791 -6.08995 0
M  V30 1899 N 165.169 0.14902 -7.01942 0
M  V30 1900 H 170.009 -1.17356 -2.73919 0
M  V30 1901 H 167.546 -0.590094 -1.34745 0
M  V30 1902 H 169.504 0.919517 -4.06941 0
M  V30 1903 H 168.134 1.24879 -2.97666 0
M  V30 1904 H 167.186 -1.076 -3.64865 0
M  V30 1905 H 168.498 -1.19909 -4.84173 0
M  V30 1906 H 167.652 0.847969 -6.00745 0
M  V30 1907 H 166.391 1.06062 -4.76027 0
M  V30 1908 H 165.396 -1.16102 -5.37401 0
M  V30 1909 H 166.621 -1.36097 -6.65323 0
M  V30 1910 H 164.567 0.877884 -6.50099 0
M  V30 1911 H 164.484 -0.504433 -7.54315 0
M  V30 1912 H 165.752 0.663537 -7.76671 0
M  V30 1913 N 169.982 1.44106 -0.638065 0
M  V30 1914 C 170.892 2.34513 0.0637334 0
M  V30 1915 C 171.908 1.53018 0.828346 0
M  V30 1916 O 173.084 1.85723 0.779036 0
M  V30 1917 C 170.149 3.31095 1.02844 0
M  V30 1918 C 169.21 4.28497 0.26244 0
M  V30 1919 C 168.443 5.20465 1.1812 0
M  V30 1920 O 168.666 5.16514 2.42011 0
M  V30 1921 O 167.6 5.98251 0.661774 0
M  V30 1922 H 171.426 2.95989 -0.68003 0
M  V30 1923 H 169.011 1.43994 -0.398252 0
M  V30 1924 H 170.893 3.90526 1.58327 0
M  V30 1925 H 169.568 2.72144 1.7527 0
M  V30 1926 H 168.475 3.72592 -0.335602 0
M  V30 1927 H 169.808 4.90388 -0.421936 0
M  V30 1928 N 171.46 0.379036 1.52974 0
M  V30 1929 C 172.871 -0.0972525 1.86447 0
M  V30 1930 C 173.222 -1.47027 1.29914 0
M  V30 1931 O 172.347 -2.07135 0.626433 0
M  V30 1932 C 172.942 -0.183248 3.38304 0
M  V30 1933 C 171.501 -0.603812 3.71525 0
M  V30 1934 C 170.648 0.240632 2.76254 0
M  V30 1935 H 173.599 0.597316 1.4703 0
M  V30 1936 H 173.62 -1.00432 3.67006 0
M  V30 1937 H 173.132 0.816191 3.79421 0
M  V30 1938 H 171.233 -1.61099 3.35973 0
M  V30 1939 H 171.346 -0.369086 4.77676 0
M  V30 1940 H 169.71 -0.292548 2.53014 0
M  V30 1941 H 170.493 1.23786 3.20206 0
M  V30 1942 N 172.938 -1.57226 0.108567 0
M  V30 1943 C 173.885 -2.14756 -0.845481 0
M  V30 1944 C 174.855 -1.06971 -1.27068 0
M  V30 1945 O 176.04 -1.34827 -1.35005 0
M  V30 1946 C 173.18 -2.74298 -2.09415 0
M  V30 1947 C 172.293 -3.96358 -1.71826 0
M  V30 1948 C 171.428 -4.44021 -2.9158 0
M  V30 1949 C 170.467 -5.58637 -2.50181 0
M  V30 1950 N 169.604 -6.01091 -3.62814 0
M  V30 1951 H 174.444 -2.95961 -0.348035 0
M  V30 1952 H 171.981 -1.46226 -0.160106 0
M  V30 1953 H 173.939 -3.06945 -2.82561 0
M  V30 1954 H 172.569 -1.95801 -2.56636 0
M  V30 1955 H 171.621 -3.69939 -0.885947 0
M  V30 1956 H 172.933 -4.79504 -1.37394 0
M  V30 1957 H 172.087 -4.78522 -3.72963 0
M  V30 1958 H 170.826 -3.59803 -3.29231 0
M  V30 1959 H 169.831 -5.23751 -1.67228 0
M  V30 1960 H 171.056 -6.44613 -2.13659 0
M  V30 1961 H 169.002 -5.19817 -4.00158 0
M  V30 1962 H 168.919 -6.79066 -3.32273 0
M  V30 1963 H 170.187 -6.40227 -4.44668 0
M  V30 1964 N 174.416 0.165178 -1.56732 0
M  V30 1965 C 175.364 1.22369 -1.97809 0
M  V30 1966 C 176.358 1.45488 -0.867741 0
M  V30 1967 O 177.564 1.45995 -1.05288 0
M  V30 1968 H 173.939 0.411486 -0.629431 0
M  V30 1969 H 175.91 0.850425 -2.86025 0
M  V30 1970 C 174.659 2.55403 -2.35934 0
M  V30 1971 H 173.982 2.38438 -3.20916 0
M  V30 1972 H 175.422 3.2814 -2.68514 0
M  V30 1973 C 173.881 3.14611 -1.20506 0
M  V30 1974 O 174.411 3.98626 -0.496016 0
M  V30 1975 N 172.617 2.7379 -0.97403 0
M  V30 1976 H 172.164 2.0557 -1.55238 0
M  V30 1977 H 172.122 3.1374 -0.203573 0
M  V30 1978 N 175.894 1.51508 0.433938 0
M  V30 1979 C 177.14 1.64588 1.18484 0
M  V30 1980 C 177.473 0.362666 1.90784 0
M  V30 1981 O 176.748 -0.637892 1.83742 0
M  V30 1982 C 177.031 2.85149 2.19913 0
M  V30 1983 C 176.884 4.23456 1.51674 0
M  V30 1984 C 178.203 3.01227 3.20858 0
M  V30 1985 H 175.322 0.598994 0.429389 0
M  V30 1986 H 177.964 1.84002 0.473647 0
M  V30 1987 H 176.114 2.68729 2.80566 0
M  V30 1988 H 177.786 4.51552 0.943322 0
M  V30 1989 H 176.029 4.25998 0.819035 0
M  V30 1990 H 176.7 5.03812 2.2556 0
M  V30 1991 H 179.176 3.16382 2.70263 0
M  V30 1992 H 178.052 3.87141 3.89118 0
M  V30 1993 H 178.313 2.13447 3.8716 0
M  V30 1994 N 177.372 -0.689602 1.41712 0
M  V30 1995 C 178.302 -1.81577 1.46806 0
M  V30 1996 C 179.283 -1.66945 0.326105 0
M  V30 1997 O 180.468 -1.86588 0.538377 0
M  V30 1998 C 177.598 -3.19762 1.35535 0
M  V30 1999 C 176.552 -3.49107 2.47605 0
M  V30 2000 C 175.878 -4.86711 2.21397 0
M  V30 2001 C 177.178 -3.47483 3.89939 0
M  V30 2002 H 178.872 -1.7757 2.41058 0
M  V30 2003 H 176.418 -0.852887 1.16025 0
M  V30 2004 H 178.371 -3.98263 1.3771 0
M  V30 2005 H 177.095 -3.24409 0.377708 0
M  V30 2006 H 175.754 -2.72959 2.44722 0
M  V30 2007 H 175.402 -4.8799 1.21961 0
M  V30 2008 H 175.102 -5.0731 2.96497 0
M  V30 2009 H 176.626 -5.67515 2.25297 0
M  V30 2010 H 178.04 -4.1598 3.94505 0
M  V30 2011 H 176.437 -3.79615 4.64771 0
M  V30 2012 H 177.507 -2.46341 4.17665 0
M  V30 2013 N 178.85 -1.27639 -0.924453 0
M  V30 2014 C 180.096 -1.14336 -1.67497 0
M  V30 2015 C 180.429 0.309465 -1.91718 0
M  V30 2016 O 179.704 1.22608 -1.50989 0
M  V30 2017 C 179.987 -1.93096 -3.0395 0
M  V30 2018 C 179.84 -3.46381 -2.8695 0
M  V30 2019 C 181.159 -1.73798 -4.0433 0
M  V30 2020 H 178.278 -0.416728 -0.607871 0
M  V30 2021 H 180.92 -1.56832 -1.07256 0
M  V30 2022 H 179.07 -1.56982 -3.55372 0
M  V30 2023 H 180.742 -3.92343 -2.42621 0
M  V30 2024 H 178.985 -3.72557 -2.22225 0
M  V30 2025 H 179.656 -3.96735 -3.83804 0
M  V30 2026 H 182.132 -2.05293 -3.61931 0
M  V30 2027 H 181.008 -2.31294 -4.97789 0
M  V30 2028 H 181.269 -0.686725 -4.36734 0
M  V30 2029 N 180.328 1.1314 -1.09713 0
M  V30 2030 C 181.574 1.84757 -0.836224 0
M  V30 2031 C 181.907 1.8347 0.636598 0
M  V30 2032 O 181.182 1.27491 1.46889 0
M  V30 2033 C 181.465 3.32782 -1.37578 0
M  V30 2034 C 181.318 3.42567 -2.91493 0
M  V30 2035 C 182.637 4.28307 -1.01198 0
M  V30 2036 H 179.756 0.67082 -0.305236 0
M  V30 2037 H 182.398 1.3278 -1.35903 0
M  V30 2038 H 180.548 3.77177 -0.931097 0
M  V30 2039 H 182.22 3.06862 -3.44432 0
M  V30 2040 H 180.463 2.83349 -3.28475 0
M  V30 2041 H 181.134 4.46674 -3.24324 0
M  V30 2042 H 183.61 3.91999 -1.39556 0
M  V30 2043 H 182.486 5.30307 -1.41653 0
M  V30 2044 H 182.747 4.42029 0.0794833 0
M  V30 2045 N 181.806 0.884767 1.30421 0
M  V30 2046 C 183.054 0.502112 1.95763 0
M  V30 2047 C 183.375 -0.951815 1.70192 0
M  V30 2048 O 182.645 -1.6692 1.0254 0
M  V30 2049 H 181.225 0.182694 0.724315 0
M  V30 2050 H 183.887 1.1278 1.58955 0
M  V30 2051 H 182.983 0.672188 3.04775 0
M  V30 2052 N 183.284 -1.43765 0.645699 0
M  V30 2053 C 184.532 -2.01499 0.155731 0
M  V30 2054 C 184.853 -1.51151 -1.232 0
M  V30 2055 O 184.123 -0.721044 -1.82148 0
M  V30 2056 H 182.703 -0.745003 0.0545817 0
M  V30 2057 H 185.365 -1.76075 0.835677 0
M  V30 2058 H 184.461 -3.1181 0.134577 0
M  V30 2059 N 184.763 -0.387143 -1.52771 0
M  V30 2060 C 186.011 0.195349 -2.01154 0
M  V30 2061 C 186.332 1.475 -1.27549 0
M  V30 2062 O 185.602 1.91878 -0.394924 0
M  V30 2063 H 184.182 0.075178 -0.743207 0
M  V30 2064 H 186.844 -0.518337 -1.87881 0
M  V30 2065 H 185.94 0.407096 -3.09434 0
M  V30 2066 N 186.241 1.57166 -0.116904 0
M  V30 2067 C 187.518 1.86645 0.585049 0
M  V30 2068 C 187.898 1.0177 1.84949 0
M  V30 2069 O 187.246 0.0960379 2.28298 0
M  V30 2070 C 187.456 3.37736 0.879507 0
M  V30 2071 C 188.804 4.06289 1.23348 0
M  V30 2072 O 189.828 3.42743 0.969836 0
M  V30 2073 O 188.687 5.18455 1.7282 0
M  V30 2074 H 185.781 0.772593 0.295007 0
M  V30 2075 H 188.327 1.69025 -0.151249 0
M  V30 2076 H 187.099 3.91296 -0.0166136 0
M  V30 2077 H 186.722 3.6078 1.67103 0
M  V30 2078 N 187.719 -0.156864 1.56817 0
M  V30 2079 C 188.967 -0.869404 1.82444 0
M  V30 2080 C 189.288 -1.82147 0.69623 0
M  V30 2081 O 188.558 -1.93847 -0.28287 0
M  V30 2082 H 187.138 -0.324043 0.673056 0
M  V30 2083 H 189.8 -0.153224 1.94297 0
M  V30 2084 H 188.896 -1.43761 2.77019 0
M  V30 2085 N 189.197 -1.51736 -0.425897 0
M  V30 2086 C 190.445 -1.64644 -1.17204 0
M  V30 2087 C 190.766 -0.370486 -1.91448 0
M  V30 2088 O 190.036 0.614088 -1.86026 0
M  V30 2089 H 188.616 -0.606819 -0.435638 0
M  V30 2090 H 191.278 -1.88713 -0.487177 0
M  V30 2091 H 190.374 -2.47958 -1.89534 0
M  V30 2092 N 190.675 0.682077 -1.42076 0
M  V30 2093 C 191.924 1.43786 -1.41451 0
M  V30 2094 C 192.237 1.95574 -0.0317074 0
M  V30 2095 O 193.443 2.71326 0.0971462 0
M  V30 2096 C 191.899 2.60071 -2.48779 0
M  V30 2097 C 191.507 2.15013 -3.93031 0
M  V30 2098 C 193.251 3.37626 -2.57311 0
M  V30 2099 C 191.158 3.28336 -4.91883 0
M  V30 2100 H 190.088 0.540143 -0.526082 0
M  V30 2101 H 192.739 0.739157 -1.67955 0
M  V30 2102 H 191.121 3.32275 -2.15429 0
M  V30 2103 H 192.295 1.5001 -4.35699 0
M  V30 2104 H 190.61 1.50416 -3.88284 0
M  V30 2105 H 193.207 4.22012 -3.28345 0
M  V30 2106 H 193.55 3.83727 -1.61429 0
M  V30 2107 H 194.083 2.72488 -2.89819 0
M  V30 2108 H 190.822 2.87234 -5.89217 0
M  V30 2109 H 190.342 3.92145 -4.53853 0
M  V30 2110 H 192.021 3.93913 -5.13265 0
M  V30 2111 N 192.153 1.28127 0.917671 0
M  V30 2112 C 193.402 1.14432 1.66097 0
M  V30 2113 C 193.715 -0.307247 1.93172 0
M  V30 2114 O 194.921 -0.565259 2.65551 0
M  V30 2115 C 193.377 2.00015 2.99202 0
M  V30 2116 C 192.985 3.49889 2.79789 0
M  V30 2117 C 194.729 1.94996 3.77064 0
M  V30 2118 C 192.636 4.27636 4.08511 0
M  V30 2119 H 191.566 0.424662 0.62304 0
M  V30 2120 H 194.217 1.52628 1.01868 0
M  V30 2121 H 192.599 1.54672 3.64544 0
M  V30 2122 H 193.773 4.03162 2.23152 0
M  V30 2123 H 192.088 3.56392 2.15345 0
M  V30 2124 H 194.685 2.50354 4.72469 0
M  V30 2125 H 195.028 0.925819 4.05875 0
M  V30 2126 H 195.561 2.38287 3.18534 0
M  V30 2127 H 192.3 5.30615 3.84874 0
M  V30 2128 H 191.82 3.79137 4.64774 0
M  V30 2129 H 193.499 4.37346 4.76799 0
M  V30 2130 N 193.631 -1.12557 1.10312 0
M  V30 2131 C 195.047 -1.36036 0.834649 0
M  V30 2132 C 195.247 -1.93946 -0.546539 0
M  V30 2133 O 194.303 -2.16484 -1.29966 0
M  V30 2134 C 195.616 -2.30312 1.9333 0
M  V30 2135 C 197.164 -2.43906 1.9616 0
M  V30 2136 C 197.639 -3.41496 3.05195 0
M  V30 2137 N 199.13 -3.49053 3.04494 0
M  V30 2138 C 199.865 -4.24471 3.85502 0
M  V30 2139 N 199.361 -5.02966 4.76442 0
M  V30 2140 N 201.154 -4.19864 3.73725 0
M  V30 2141 H 193.305 -0.733246 1.99342 0
M  V30 2142 H 195.568 -0.385234 0.866198 0
M  V30 2143 H 195.274 -1.94933 2.92735 0
M  V30 2144 H 195.148 -3.30421 1.81939 0
M  V30 2145 H 197.535 -2.78567 0.973886 0
M  V30 2146 H 197.616 -1.4369 2.11629 0
M  V30 2147 H 197.26 -3.07565 4.04186 0
M  V30 2148 H 197.19 -4.41539 2.86968 0
M  V30 2149 H 199.681 -2.93053 2.38596 0
M  V30 2150 H 199.994 -5.57846 5.34815 0
M  V30 2151 H 198.339 -5.02167 4.80472 0
M  V30 2152 H 201.53 -3.57623 3.02032 0
M  V30 2153 H 201.703 -4.78386 4.37093 0
M  V30 2154 N 195.109 -0.891671 -1.2995 0
M  V30 2155 C 196.019 -0.367691 -2.31701 0
M  V30 2156 C 197.035 0.533486 -1.6562 0
M  V30 2157 O 198.211 0.424997 -1.96865 0
M  V30 2158 C 195.276 0.403406 -3.44345 0
M  V30 2159 C 194.337 -0.528328 -4.26037 0
M  V30 2160 C 193.57 0.206063 -5.33302 0
M  V30 2161 O 193.793 1.43119 -5.52153 0
M  V30 2162 O 192.727 -0.447281 -6.00236 0
M  V30 2163 H 196.553 -1.21163 -2.78484 0
M  V30 2164 H 194.138 -0.655725 -1.34241 0
M  V30 2165 H 196.02 0.839753 -4.12948 0
M  V30 2166 H 194.695 1.22354 -2.99685 0
M  V30 2167 H 193.602 -1.01362 -3.60106 0
M  V30 2168 H 194.935 -1.31465 -4.74318 0
M  V30 2169 N 196.587 1.43421 -0.653314 0
M  V30 2170 C 197.517 2.33487 0.0246656 0
M  V30 2171 C 198.498 1.49475 0.811863 0
M  V30 2172 O 199.683 1.78139 0.773322 0
M  V30 2173 C 196.813 3.32841 0.99166 0
M  V30 2174 C 195.767 4.26842 0.314568 0
M  V30 2175 C 195.093 5.16236 1.39302 0
M  V30 2176 C 196.393 5.16243 -0.793095 0
M  V30 2177 H 198.087 2.90427 -0.727481 0
M  V30 2178 H 195.633 1.39649 -0.351287 0
M  V30 2179 H 197.586 3.94747 1.47487 0
M  V30 2180 H 196.31 2.74158 1.77497 0
M  V30 2181 H 194.969 3.663 -0.148199 0
M  V30 2182 H 194.617 4.53891 2.16776 0
M  V30 2183 H 194.317 5.79948 0.945223 0
M  V30 2184 H 195.841 5.81015 1.87759 0
M  V30 2185 H 197.255 5.71958 -0.392039 0
M  V30 2186 H 195.652 5.88676 -1.16536 0
M  V30 2187 H 196.722 4.55927 -1.65103 0
M  V30 2188 N 198.065 0.39524 1.52563 0
M  V30 2189 C 199.305 -0.184744 2.03563 0
M  V30 2190 C 199.669 -1.43548 1.27507 0
M  V30 2191 O 200.87 -2.093 1.68662 0
M  V30 2192 C 199.141 -0.440294 3.54678 0
M  V30 2193 S 200.7 -0.989712 4.27493 0
M  V30 2194 H 197.518 -0.0515075 0.709132 0
M  V30 2195 H 200.12 0.544957 1.87751 0
M  V30 2196 H 198.824 0.477005 4.07618 0
M  V30 2197 H 198.355 -1.19825 3.74707 0
M  V30 2198 H 200.37 -2.27155 4.41152 0
M  V30 2199 N 199.544 -1.57102 0.125237 0
M  V30 2200 C 200.491 -2.15641 -0.822655 0
M  V30 2201 C 201.461 -1.08313 -1.25927 0
M  V30 2202 O 202.646 -1.36251 -1.33567 0
M  V30 2203 C 199.786 -2.76504 -2.06494 0
M  V30 2204 C 198.899 -3.98158 -1.67612 0
M  V30 2205 C 198.034 -4.47088 -2.86854 0
M  V30 2206 C 197.073 -5.6126 -2.44242 0
M  V30 2207 N 196.21 -6.04905 -3.56419 0
M  V30 2208 H 201.05 -2.96313 -0.316625 0
M  V30 2209 H 198.587 -1.46388 -0.144588 0
M  V30 2210 H 200.545 -3.09925 -2.79289 0
M  V30 2211 H 199.175 -1.98512 -2.54545 0
M  V30 2212 H 198.227 -3.70858 -0.846661 0
M  V30 2213 H 199.539 -4.80934 -1.32301 0
M  V30 2214 H 198.693 -4.82451 -3.67867 0
M  V30 2215 H 197.432 -3.63275 -3.25396 0
M  V30 2216 H 196.437 -5.25495 -1.61663 0
M  V30 2217 H 197.662 -6.46843 -2.0681 0
M  V30 2218 H 195.608 -5.24032 -3.94623 0
M  V30 2219 H 195.525 -6.82552 -3.25051 0
M  V30 2220 H 196.793 -6.44907 -4.37853 0
M  V30 2221 N 201.022 0.148545 -1.56898 0
M  V30 2222 C 202.252 0.875118 -1.8715 0
M  V30 2223 C 202.66 1.75322 -0.711262 0
M  V30 2224 O 202.003 1.80745 0.328151 0
M  V30 2225 C 202.065 1.7844 -3.12089 0
M  V30 2226 C 201.729 1.08361 -4.43967 0
M  V30 2227 C 202.726 0.438247 -5.1805 0
M  V30 2228 C 200.411 1.07358 -4.90693 0
M  V30 2229 C 202.405 -0.20779 -6.37061 0
M  V30 2230 C 200.092 0.42373 -6.09629 0
M  V30 2231 C 201.09 -0.215829 -6.82659 0
M  V30 2232 O 200.778 -0.855378 -7.99336 0
M  V30 2233 H 200.51 0.258504 -0.624621 0
M  V30 2234 H 203.064 0.14652 -2.04877 0
M  V30 2235 H 201.294 2.55389 -2.90367 0
M  V30 2236 H 202.983 2.38279 -3.286 0
M  V30 2237 H 203.749 0.437817 -4.8302 0
M  V30 2238 H 199.628 1.5608 -4.33774 0
M  V30 2239 H 203.172 -0.70758 -6.94002 0
M  V30 2240 H 199.069 0.421822 -6.4412 0
M  V30 2241 H 199.837 -0.756892 -8.14993 0
M  V30 2242 N 202.5 1.5196 0.417844 0
M  V30 2243 C 203.447 1.74678 1.50852 0
M  V30 2244 C 204.417 0.588947 1.55308 0
M  V30 2245 O 205.602 0.825544 1.72016 0
M  V30 2246 C 202.742 1.89544 2.88387 0
M  V30 2247 C 201.855 3.17166 2.93309 0
M  V30 2248 C 200.99 3.22513 4.22088 0
M  V30 2249 C 200.029 4.44372 4.20951 0
M  V30 2250 N 199.166 4.47161 5.41287 0
M  V30 2251 H 204.006 2.67768 1.30783 0
M  V30 2252 H 201.543 1.32689 0.63498 0
M  V30 2253 H 203.501 1.96146 3.68216 0
M  V30 2254 H 202.131 0.998424 3.06971 0
M  V30 2255 H 201.183 3.19778 2.06024 0
M  V30 2256 H 202.495 4.07021 2.88332 0
M  V30 2257 H 201.649 3.28139 5.10303 0
M  V30 2258 H 200.388 2.30581 4.29748 0
M  V30 2259 H 199.393 4.38902 3.31127 0
M  V30 2260 H 200.618 5.3759 4.14938 0
M  V30 2261 H 198.564 3.58108 5.49632 0
M  V30 2262 H 198.481 5.3085 5.3827 0
M  V30 2263 H 199.749 4.57005 6.3148 0
M  V30 2264 N 203.978 -0.674533 1.42435 0
M  V30 2265 C 205.203 -1.46784 1.46524 0
M  V30 2266 C 205.628 -1.87938 0.078066 0
M  V30 2267 O 204.986 -1.56014 -0.92354 0
M  V30 2268 C 205.034 -2.69307 2.39805 0
M  V30 2269 O 204.138 -3.67587 1.86959 0
M  V30 2270 H 203.479 -0.440959 0.496439 0
M  V30 2271 H 206.009 -0.827326 1.87127 0
M  V30 2272 H 206.019 -3.17374 2.56393 0
M  V30 2273 H 204.694 -2.38692 3.40586 0
M  V30 2274 H 203.271 -3.2662 1.79927 0
M  V30 2275 N 205.456 -1.28612 -0.910864 0
M  V30 2276 C 206.702 -1.16106 -1.66274 0
M  V30 2277 C 207.035 0.289113 -1.92036 0
M  V30 2278 O 206.31 1.21 -1.52281 0
M  V30 2279 C 206.593 -1.96309 -3.01885 0
M  V30 2280 C 206.446 -3.49405 -2.8326 0
M  V30 2281 C 207.765 -1.78076 -4.02463 0
M  V30 2282 H 204.884 -0.423152 -0.603417 0
M  V30 2283 H 207.526 -1.57961 -1.05586 0
M  V30 2284 H 205.676 -1.60742 -3.53687 0
M  V30 2285 H 207.348 -3.94894 -2.38446 0
M  V30 2286 H 205.591 -3.74893 -2.18261 0
M  V30 2287 H 206.262 -4.00784 -3.79574 0
M  V30 2288 H 208.738 -2.0912 -3.59733 0
M  V30 2289 H 207.614 -2.36561 -4.95308 0
M  V30 2290 H 207.875 -0.733008 -4.35981 0
M  V30 2291 N 206.934 1.1197 -1.10907 0
M  V30 2292 C 207.844 2.21433 -0.774896 0
M  V30 2293 C 208.86 1.72478 0.229657 0
M  V30 2294 O 210.036 2.01288 0.0672008 0
M  V30 2295 C 207.101 3.4602 -0.216986 0
M  V30 2296 C 206.162 4.09791 -1.27944 0
M  V30 2297 C 205.395 5.28431 -0.748055 0
M  V30 2298 O 205.618 5.68823 0.423833 0
M  V30 2299 O 204.552 5.82644 -1.51027 0
M  V30 2300 H 208.378 2.5242 -1.68873 0
M  V30 2301 H 205.963 1.20399 -0.884555 0
M  V30 2302 H 207.845 4.21304 0.090059 0
M  V30 2303 H 206.52 3.16698 0.669633 0
M  V30 2304 H 205.427 3.36265 -1.63941 0
M  V30 2305 H 206.76 4.4328 -2.13925 0
M  V30 2306 N 208.412 0.89855 1.29475 0
M  V30 2307 C 209.36 0.365253 2.29714 0
M  V30 2308 C 210.354 -0.534993 1.6073 0
M  V30 2309 O 211.56 -0.417921 1.75081 0
M  V30 2310 H 207.935 0.0994853 0.74539 0
M  V30 2311 H 209.906 1.22406 2.72138 0
M  V30 2312 C 208.655 -0.393159 3.4547 0
M  V30 2313 H 207.978 0.290332 3.98744 0
M  V30 2314 H 209.418 -0.731189 4.17648 0
M  V30 2315 C 207.877 -1.59539 2.9673 0
M  V30 2316 O 208.407 -2.69469 2.97908 0
M  V30 2317 N 206.613 -1.43716 2.52575 0
M  V30 2318 H 206.16 -0.542828 2.51816 0
M  V30 2319 H 206.118 -2.24288 2.20323 0
M  V30 2320 N 209.89 -1.43072 0.660911 0
M  V30 2321 C 211.139 -2.00942 0.174735 0
M  V30 2322 C 211.452 -1.52797 -1.22117 0
M  V30 2323 O 212.658 -2.02991 -1.80297 0
M  V30 2324 C 211.114 -3.58948 0.261559 0
M  V30 2325 C 210.722 -4.16085 1.66064 0
M  V30 2326 C 212.466 -4.24173 -0.166617 0
M  V30 2327 C 210.373 -5.6641 1.70098 0
M  V30 2328 H 209.303 -0.751483 0.0615631 0
M  V30 2329 H 211.954 -1.63955 0.824069 0
M  V30 2330 H 210.336 -3.93372 -0.455421 0
M  V30 2331 H 211.51 -3.93147 2.40359 0
M  V30 2332 H 209.825 -3.6326 2.03546 0
M  V30 2333 H 212.422 -5.34471 -0.156433 0
M  V30 2334 H 212.765 -3.98647 -1.19943 0
M  V30 2335 H 213.298 -3.94659 0.498875 0
M  V30 2336 H 210.037 -5.96715 2.71315 0
M  V30 2337 H 209.557 -5.91382 1.00139 0
M  V30 2338 H 211.236 -6.30585 1.44816 0
M  V30 2339 N 211.368 -0.403325 -1.52352 0
M  V30 2340 C 212.645 0.232611 -1.94212 0
M  V30 2341 C 213.025 1.63133 -1.33981 0
M  V30 2342 O 212.373 2.22659 -0.513344 0
M  V30 2343 C 212.583 0.244811 -3.4814 0
M  V30 2344 C 213.931 0.46698 -4.22024 0
M  V30 2345 O 214.955 0.324419 -3.5472 0
M  V30 2346 O 213.814 0.74747 -5.41364 0
M  V30 2347 H 210.908 0.148223 -0.813609 0
M  V30 2348 H 213.454 -0.458848 -1.63379 0
M  V30 2349 H 212.226 -0.734378 -3.84347 0
M  V30 2350 H 211.849 0.980611 -3.85318 0
M  V30 2351 N 212.846 1.57033 -0.133567 0
M  V30 2352 C 214.095 1.94861 0.520768 0
M  V30 2353 C 214.408 1.02012 1.66892 0
M  V30 2354 O 215.614 1.29365 2.38699 0
M  V30 2355 C 214.07 3.46362 0.977809 0
M  V30 2356 C 213.678 4.47773 -0.142674 0
M  V30 2357 C 215.422 3.93083 1.60269 0
M  V30 2358 C 213.329 5.90468 0.331883 0
M  V30 2359 H 212.259 0.727453 0.198315 0
M  V30 2360 H 214.91 1.82227 -0.215759 0
M  V30 2361 H 213.292 3.54282 1.7692 0
M  V30 2362 H 214.466 4.51536 -0.919317 0
M  V30 2363 H 212.781 4.10891 -0.675124 0
M  V30 2364 H 215.378 4.97121 1.96914 0
M  V30 2365 H 215.721 3.33876 2.48662 0
M  V30 2366 H 216.254 3.88025 0.876453 0
M  V30 2367 H 212.993 6.53463 -0.516341 0
M  V30 2368 H 212.513 5.90094 1.07469 0
M  V30 2369 H 214.192 6.42179 0.788332 0
M  V30 2370 N 214.325 -0.140222 1.56975 0
M  V30 2371 C 215.565 -0.857823 1.85528 0
M  V30 2372 C 215.929 -1.78039 0.718768 0
M  V30 2373 O 217.13 -2.53795 0.885521 0
M  V30 2374 C 215.401 -1.60615 3.19277 0
M  V30 2375 S 216.96 -2.36824 3.69405 0
M  V30 2376 H 213.778 -0.286727 0.650622 0
M  V30 2377 H 216.38 -0.117408 1.95147 0
M  V30 2378 H 215.084 -0.919994 3.99955 0
M  V30 2379 H 214.615 -2.38735 3.12681 0
M  V30 2380 H 216.63 -3.62148 3.3921 0
M  V30 2381 N 215.803 -1.52179 -0.40978 0
M  V30 2382 C 216.713 -1.78364 -1.52392 0
M  V30 2383 C 217.729 -0.669183 -1.60617 0
M  V30 2384 O 218.905 -0.954518 -1.77344 0
M  V30 2385 C 215.97 -1.92822 -2.88133 0
M  V30 2386 C 215.031 -3.16725 -2.898 0
M  V30 2387 C 214.264 -3.30483 -4.19067 0
M  V30 2388 O 214.487 -2.49522 -5.12928 0
M  V30 2389 O 213.421 -4.2363 -4.27576 0
M  V30 2390 H 217.247 -2.72931 -1.33201 0
M  V30 2391 H 214.832 -1.37016 -0.59557 0
M  V30 2392 H 216.714 -2.04157 -3.68643 0
M  V30 2393 H 215.389 -1.01444 -3.07393 0
M  V30 2394 H 214.296 -3.10848 -2.08146 0
M  V30 2395 H 215.629 -4.07881 -2.75489 0
M  V30 2396 N 217.281 0.66697 -1.42791 0
M  V30 2397 C 218.53 1.42278 -1.42968 0
M  V30 2398 C 218.843 1.9553 -0.0524489 0
M  V30 2399 O 220.049 2.71414 0.068363 0
M  V30 2400 C 218.505 2.57418 -2.51524 0
M  V30 2401 C 218.113 2.10832 -3.9529 0
M  V30 2402 C 219.857 3.34878 -2.60877 0
M  V30 2403 C 217.764 3.23101 -4.95338 0
M  V30 2404 H 216.694 0.534533 -0.531781 0
M  V30 2405 H 219.345 0.721302 -1.68729 0
M  V30 2406 H 217.727 3.29971 -2.18941 0
M  V30 2407 H 218.901 1.4538 -4.37266 0
M  V30 2408 H 217.216 1.46289 -3.89857 0
M  V30 2409 H 219.813 4.18505 -3.32802 0
M  V30 2410 H 220.156 3.81993 -1.6549 0
M  V30 2411 H 220.689 2.69398 -2.92693 0
M  V30 2412 H 217.428 2.80969 -5.9223 0
M  V30 2413 H 216.948 3.87309 -4.57987 0
M  V30 2414 H 218.627 3.88447 -5.17415 0
M  V30 2415 N 218.759 1.29093 0.90403 0
M  V30 2416 C 220.036 1.075 1.63411 0
M  V30 2417 C 220.416 -0.382346 2.07609 0
M  V30 2418 O 219.764 -1.37031 1.82851 0
M  V30 2419 C 219.974 2.05858 2.81822 0
M  V30 2420 C 221.322 2.36539 3.52611 0
M  V30 2421 O 222.346 2.04019 2.91984 0
M  V30 2422 O 221.205 2.92085 4.61897 0
M  V30 2423 H 218.299 0.411547 0.717327 0
M  V30 2424 H 220.845 1.40449 0.952479 0
M  V30 2425 H 219.617 3.04037 2.46327 0
M  V30 2426 H 219.24 1.73613 3.57693 0
M  V30 2427 N 220.237 -1.11381 1.11499 0
M  V30 2428 C 221.147 -2.21019 0.786628 0
M  V30 2429 C 222.163 -1.72597 -0.220507 0
M  V30 2430 O 223.339 -2.01321 -0.0565251 0
M  V30 2431 C 220.404 -3.459 0.235333 0
M  V30 2432 C 219.465 -4.09107 1.30115 0
M  V30 2433 C 218.698 -5.28027 0.776068 0
M  V30 2434 O 218.921 -5.6904 -0.393661 0
M  V30 2435 O 217.855 -5.81835 1.54114 0
M  V30 2436 H 221.681 -2.51521 1.70209 0
M  V30 2437 H 219.266 -1.19928 0.890928 0
M  V30 2438 H 221.148 -4.21346 -0.067715 0
M  V30 2439 H 219.823 -3.17049 -0.652828 0
M  V30 2440 H 218.73 -3.35391 1.65722 0
M  V30 2441 H 220.063 -4.42139 2.16273 0
M  V30 2442 N 221.715 -0.905404 -1.28997 0
M  V30 2443 C 222.943 -0.549846 -1.9946 0
M  V30 2444 C 223.358 0.866834 -1.67724 0
M  V30 2445 O 222.715 1.57298 -0.925404 0
M  V30 2446 C 222.766 -0.739387 -3.53858 0
M  V30 2447 O 222.487 -2.10031 -3.84472 0
M  V30 2448 C 223.988 -0.389541 -4.41585 0
M  V30 2449 H 221.208 -0.210429 -0.637151 0
M  V30 2450 H 223.752 -1.21632 -1.64396 0
M  V30 2451 H 221.907 -0.120023 -3.87214 0
M  V30 2452 H 222.321 -2.13385 -4.79132 0
M  V30 2453 H 223.795 -0.572972 -5.49018 0
M  V30 2454 H 224.272 0.673756 -4.34001 0
M  V30 2455 H 224.878 -0.986089 -4.1371 0
M  V30 2456 N 223.193 1.4272 -0.668489 0
M  V30 2457 C 224.439 2.01923 -0.188419 0
M  V30 2458 C 224.772 1.52704 1.19979 0
M  V30 2459 O 224.047 0.726566 1.8042 0
M  V30 2460 C 224.33 3.59451 -0.216085 0
M  V30 2461 C 224.183 4.18864 -1.6393 0
M  V30 2462 C 225.502 4.37903 0.439179 0
M  V30 2463 H 222.621 0.733674 -0.0699412 0
M  V30 2464 H 225.263 1.69822 -0.852076 0
M  V30 2465 H 223.413 3.86929 0.349012 0
M  V30 2466 H 225.085 4.02362 -2.25616 0
M  V30 2467 H 223.328 3.74933 -2.18193 0
M  V30 2468 H 223.999 5.27987 -1.61039 0
M  V30 2469 H 226.475 4.16079 -0.0417878 0
M  V30 2470 H 225.351 5.47519 0.389157 0
M  V30 2471 H 225.612 4.15303 1.51577 0
M  V30 2472 N 224.671 0.411399 1.52136 0
M  V30 2473 C 225.92 -0.165009 2.01024 0
M  V30 2474 C 226.233 -1.4603 1.30133 0
M  V30 2475 O 227.439 -2.1181 1.69849 0
M  V30 2476 C 225.895 -0.344618 3.58246 0
M  V30 2477 C 225.503 0.938716 4.38055 0
M  V30 2478 C 227.247 -0.876195 4.15359 0
M  V30 2479 C 225.154 0.726172 5.86925 0
M  V30 2480 H 224.084 -0.0654407 0.751155 0
M  V30 2481 H 226.735 0.537192 1.75461 0
M  V30 2482 H 225.117 -1.10921 3.80148 0
M  V30 2483 H 226.291 1.70963 4.27912 0
M  V30 2484 H 224.606 1.39688 3.92271 0
M  V30 2485 H 227.203 -1.05128 5.24263 0
M  V30 2486 H 227.546 -1.85152 3.7286 0
M  V30 2487 H 228.079 -0.170607 3.97434 0
M  V30 2488 H 224.818 1.67312 6.33788 0
M  V30 2489 H 224.338 -0.00540283 5.998 0
M  V30 2490 H 226.017 0.369231 6.45946 0
M  V30 2491 N 226.149 -1.5696 0.141893 0
M  V30 2492 C 227.059 -2.20066 -0.812905 0
M  V30 2493 C 228.075 -1.18344 -1.27557 0
M  V30 2494 O 229.251 -1.50902 -1.33381 0
M  V30 2495 C 226.316 -2.80583 -2.03652 0
M  V30 2496 C 225.377 -3.97414 -1.62359 0
M  V30 2497 C 224.61 -4.55036 -2.78887 0
M  V30 2498 O 224.833 -4.11538 -3.94959 0
M  V30 2499 O 223.767 -5.45376 -2.54653 0
M  V30 2500 H 227.593 -3.02157 -0.305746 0
M  V30 2501 H 225.178 -1.49159 -0.0848799 0
M  V30 2502 H 227.06 -3.19067 -2.75272 0
M  V30 2503 H 225.735 -2.01508 -2.5333 0
M  V30 2504 H 224.642 -3.63656 -0.877775 0
M  V30 2505 H 225.975 -4.77994 -1.17401 0
M  V30 2506 N 227.627 0.131896 -1.57047 0
M  V30 2507 C 228.873 0.843179 -1.84441 0
M  V30 2508 C 229.206 1.80129 -0.725749 0
M  V30 2509 O 228.481 1.92624 0.269469 0
M  V30 2510 C 228.764 1.60442 -3.22382 0
M  V30 2511 C 228.617 0.666782 -4.4483 0
M  V30 2512 C 229.936 2.56354 -3.5773 0
M  V30 2513 H 227.055 0.305081 -0.670891 0
M  V30 2514 H 229.697 0.107839 -1.89694 0
M  V30 2515 H 227.847 2.23128 -3.18035 0
M  V30 2516 H 229.519 0.0497646 -4.61273 0
M  V30 2517 H 227.762 -0.022609 -4.33794 0
M  V30 2518 H 228.433 1.23579 -5.37989 0
M  V30 2519 H 230.909 2.0378 -3.62785 0
M  V30 2520 H 229.785 3.06657 -4.5525 0
M  V30 2521 H 230.046 3.38419 -2.84473 0
M  V30 2522 N 229.106 1.52395 0.401703 0
M  V30 2523 C 230.331 1.70972 1.17403 0
M  V30 2524 C 230.756 0.421615 1.83314 0
M  V30 2525 O 230.114 -0.621564 1.70312 0
M  V30 2526 C 230.162 2.85151 2.20728 0
M  V30 2527 O 229.266 2.51238 3.27037 0
M  V30 2528 H 228.607 0.568927 0.342372 0
M  V30 2529 H 231.137 1.99131 0.469891 0
M  V30 2530 H 231.147 3.10279 2.64936 0
M  V30 2531 H 229.822 3.78603 1.7214 0
M  V30 2532 H 228.399 2.36808 2.88057 0
M  V30 2533 N 230.584 -0.659388 1.43143 0
M  V30 2534 C 231.531 -1.77249 1.47822 0
M  V30 2535 C 232.501 -1.62818 0.328558 0
M  V30 2536 O 233.686 -1.83151 0.534838 0
M  V30 2537 C 230.826 -3.15371 1.40126 0
M  V30 2538 C 229.939 -3.4098 2.65249 0
M  V30 2539 C 229.074 -4.68915 2.49584 0
M  V30 2540 C 228.113 -4.87608 3.70006 0
M  V30 2541 N 227.25 -6.06796 3.53189 0
M  V30 2542 H 232.09 -1.72584 2.42938 0
M  V30 2543 H 229.627 -0.842297 1.20598 0
M  V30 2544 H 231.585 -3.9521 1.33659 0
M  V30 2545 H 230.215 -3.19121 0.485964 0
M  V30 2546 H 229.267 -2.55282 2.8202 0
M  V30 2547 H 230.579 -3.50681 3.54717 0
M  V30 2548 H 229.733 -5.56871 2.4079 0
M  V30 2549 H 228.472 -4.61524 1.5763 0
M  V30 2550 H 227.477 -3.9809 3.79215 0
M  V30 2551 H 228.702 -4.96834 4.62961 0
M  V30 2552 H 226.648 -6.00549 2.63965 0
M  V30 2553 H 226.565 -6.17428 4.36255 0
M  V30 2554 H 227.833 -6.9739 3.48236 0
M  V30 2555 N 232.062 -1.29571 -0.897171 0
M  V30 2556 C 233.311 -1.1706 -1.64256 0
M  V30 2557 C 233.624 0.276476 -1.93636 0
M  V30 2558 O 234.83 0.52294 -2.66416 0
M  V30 2559 C 233.286 -2.0475 -2.95982 0
M  V30 2560 C 232.894 -3.54295 -2.74187 0
M  V30 2561 C 234.638 -2.0097 -3.73914 0
M  V30 2562 C 232.545 -4.34081 -4.01656 0
M  V30 2563 H 231.475 -0.43452 -0.616205 0
M  V30 2564 H 234.126 -1.54229 -0.994268 0
M  V30 2565 H 232.508 -1.60452 -3.62038 0
M  V30 2566 H 233.682 -4.06662 -2.1671 0
M  V30 2567 H 231.997 -3.59773 -2.09648 0
M  V30 2568 H 234.594 -2.57838 -4.68427 0
M  V30 2569 H 234.937 -0.990273 -4.0435 0
M  V30 2570 H 235.47 -2.43325 -3.14703 0
M  V30 2571 H 232.209 -5.36671 -3.76384 0
M  V30 2572 H 231.729 -3.86483 -4.58684 0
M  V30 2573 H 233.408 -4.44877 -4.69781 0
M  V30 2574 N 233.54 1.10788 -1.12088 0
M  V30 2575 C 234.77 1.86191 -0.895351 0
M  V30 2576 C 235.178 1.80763 0.558702 0
M  V30 2577 O 234.521 1.19188 1.39785 0
M  V30 2578 C 234.583 3.35659 -1.28737 0
M  V30 2579 C 234.247 3.64849 -2.75198 0
M  V30 2580 C 235.244 3.61757 -3.734 0
M  V30 2581 C 232.929 3.93641 -3.12013 0
M  V30 2582 C 234.923 3.87045 -5.06434 0
M  V30 2583 C 232.61 4.18585 -4.4523 0
M  V30 2584 C 233.608 4.15277 -5.42249 0
M  V30 2585 O 233.296 4.3959 -6.73065 0
M  V30 2586 H 233.028 0.595425 -0.32007 0
M  V30 2587 H 235.582 1.40992 -1.49367 0
M  V30 2588 H 233.812 3.81497 -0.63224 0
M  V30 2589 H 235.501 3.92441 -1.03656 0
M  V30 2590 H 236.267 3.39557 -3.46303 0
M  V30 2591 H 232.146 3.95348 -2.37109 0
M  V30 2592 H 235.69 3.84378 -5.82151 0
M  V30 2593 H 231.587 4.40264 -4.72057 0
M  V30 2594 H 232.355 4.57123 -6.78956 0
M  V30 2595 N 235.018 0.912232 1.28515 0
M  V30 2596 C 236.265 0.544599 1.95039 0
M  V30 2597 C 236.593 -0.911435 1.71823 0
M  V30 2598 O 235.848 -1.66317 1.03137 0
M  V30 2599 C 236.147 0.798392 3.48368 0
M  V30 2600 C 235.813 2.23374 3.91682 0
M  V30 2601 C 234.475 2.62617 4.03219 0
M  V30 2602 C 236.827 3.16786 4.13879 0
M  V30 2603 C 234.155 3.94429 4.3433 0
M  V30 2604 C 236.507 4.48161 4.46469 0
M  V30 2605 C 235.171 4.8726 4.56217 0
M  V30 2606 H 234.441 0.199283 0.7137 0
M  V30 2607 H 237.088 1.15327 1.52879 0
M  V30 2608 H 235.393 0.106908 3.91654 0
M  V30 2609 H 237.09 0.493141 3.97956 0
M  V30 2610 H 233.68 1.91922 3.83228 0
M  V30 2611 H 237.864 2.87677 4.0442 0
M  V30 2612 H 233.12 4.24426 4.40082 0
M  V30 2613 H 237.294 5.20559 4.62592 0
M  V30 2614 H 234.921 5.89431 4.80078 0
M  V30 2615 N 236.496 -1.42363 0.676048 0
M  V30 2616 C 237.443 -2.308 -0.00150904 0
M  V30 2617 C 238.413 -1.46032 -0.791444 0
M  V30 2618 O 239.598 -1.74861 -0.76344 0
M  V30 2619 C 236.738 -3.31883 -0.945919 0
M  V30 2620 C 235.851 -4.31741 -0.149675 0
M  V30 2621 C 234.986 -5.19898 -1.08995 0
M  V30 2622 C 234.025 -6.11434 -0.285465 0
M  V30 2623 N 233.162 -6.92138 -1.17851 0
M  V30 2624 H 238.002 -2.88187 0.758455 0
M  V30 2625 H 235.539 -1.41952 0.38576 0
M  V30 2626 H 237.497 -3.89019 -1.50731 0
M  V30 2627 H 236.127 -2.76093 -1.6725 0
M  V30 2628 H 235.179 -3.76713 0.528359 0
M  V30 2629 H 236.491 -4.96534 0.474866 0
M  V30 2630 H 235.645 -5.81772 -1.72123 0
M  V30 2631 H 234.384 -4.55284 -1.74837 0
M  V30 2632 H 233.389 -5.48627 0.359018 0
M  V30 2633 H 234.614 -6.78097 0.368883 0
M  V30 2634 H 232.56 -6.30152 -1.82332 0
M  V30 2635 H 232.477 -7.53542 -0.609082 0
M  V30 2636 H 233.745 -7.58499 -1.79722 0
M  V30 2637 N 237.974 -0.419461 -1.51915 0
M  V30 2638 C 238.922 0.415502 -2.28859 0
M  V30 2639 C 239.916 1.03674 -1.3397 0
M  V30 2640 O 241.122 0.973757 -1.51387 0
M  V30 2641 H 237.497 0.152786 -0.736315 0
M  V30 2642 H 239.468 -0.254531 -2.97312 0
M  V30 2643 C 238.217 1.51425 -3.12995 0
M  V30 2644 H 237.54 1.04556 -3.85886 0
M  V30 2645 H 238.98 2.07208 -3.6992 0
M  V30 2646 C 237.439 2.48745 -2.27217 0
M  V30 2647 O 237.969 3.52871 -1.9195 0
M  V30 2648 N 236.175 2.19202 -1.90785 0
M  V30 2649 H 235.722 1.34556 -2.19664 0
M  V30 2650 H 235.68 2.84561 -1.33687 0
M  V30 2651 N 239.452 1.56882 -0.150215 0
M  V30 2652 C 240.701 1.95403 0.500071 0
M  V30 2653 C 241.014 1.03777 1.658 0
M  V30 2654 O 242.22 1.31889 2.37313 0
M  V30 2655 C 240.676 3.4738 0.941018 0
M  V30 2656 C 240.284 4.47596 -0.190158 0
M  V30 2657 C 242.028 3.9476 1.56091 0
M  V30 2658 C 239.935 5.90787 0.269237 0
M  V30 2659 H 238.865 0.729515 0.190588 0
M  V30 2660 H 241.516 1.81988 -0.235074 0
M  V30 2661 H 239.898 3.56138 1.73152 0
M  V30 2662 H 241.072 4.50536 -0.967157 0
M  V30 2663 H 239.387 4.10151 -0.718666 0
M  V30 2664 H 241.984 4.99181 1.9163 0
M  V30 2665 H 242.327 3.36494 2.45107 0
M  V30 2666 H 242.86 3.88932 0.835249 0
M  V30 2667 H 239.599 6.52879 -0.585621 0
M  V30 2668 H 239.119 5.912 1.01204 0
M  V30 2669 H 240.798 6.42979 0.720176 0
M  V30 2670 N 240.93 -0.123565 1.57115 0
M  V30 2671 C 242.155 -0.850398 1.89164 0
M  V30 2672 C 242.58 -1.7286 0.741688 0
M  V30 2673 O 241.938 -1.78665 -0.307958 0
M  V30 2674 C 241.986 -1.66353 3.19936 0
M  V30 2675 O 241.09 -2.77004 3.0552 0
M  V30 2676 H 240.431 -0.235454 0.620852 0
M  V30 2677 H 242.961 -0.107335 2.04318 0
M  V30 2678 H 242.971 -2.05372 3.52543 0
M  V30 2679 H 241.646 -1.01881 4.03228 0
M  V30 2680 H 240.223 -2.41221 2.84371 0
M  V30 2681 N 242.408 -1.52605 -0.393616 0
M  V30 2682 C 243.648 -1.6911 -1.1481 0
M  V30 2683 C 244.012 -0.41969 -1.87357 0
M  V30 2684 O 245.213 -0.461034 -2.64817 0
M  V30 2685 C 243.484 -2.88909 -2.10395 0
M  V30 2686 S 245.043 -3.25977 -2.93742 0
M  V30 2687 H 241.861 -0.595337 -0.38871 0
M  V30 2688 H 244.463 -1.90641 -0.433178 0
M  V30 2689 H 243.167 -3.79672 -1.55812 0
M  V30 2690 H 242.698 -2.69698 -2.86403 0
M  V30 2691 H 244.713 -2.75806 -4.12487 0
M  V30 2692 N 243.887 0.651787 -1.4349 0
M  V30 2693 C 245.135 1.40888 -1.44897 0
M  V30 2694 C 245.456 1.94856 -0.0749086 0
M  V30 2695 O 244.726 1.74518 0.889956 0
M  V30 2696 H 243.306 0.522887 -0.533478 0
M  V30 2697 H 245.968 0.768609 -1.79104 0
M  V30 2698 H 245.064 2.25052 -2.16236 0
M  V30 2699 N 245.365 1.30045 0.890287 0
M  V30 2700 C 246.595 1.21296 1.67245 0
M  V30 2701 C 247.003 -0.227471 1.87828 0
M  V30 2702 O 246.346 -1.16296 1.422 0
M  V30 2703 C 246.408 1.86519 3.07329 0
M  V30 2704 C 246.072 3.35837 3.09939 0
M  V30 2705 C 247.069 4.31915 2.89389 0
M  V30 2706 C 244.754 3.77196 3.31706 0
M  V30 2707 C 246.748 5.67325 2.90552 0
M  V30 2708 C 244.435 5.12725 3.32499 0
M  V30 2709 C 245.433 6.076 3.11947 0
M  V30 2710 O 245.121 7.40655 3.12547 0
M  V30 2711 H 244.853 0.4211 0.528821 0
M  V30 2712 H 247.407 1.72111 1.12103 0
M  V30 2713 H 245.637 1.30228 3.64112 0
M  V30 2714 H 247.326 1.71963 3.67673 0
M  V30 2715 H 248.092 4.01294 2.72375 0
M  V30 2716 H 243.971 3.03796 3.4674 0
M  V30 2717 H 247.515 6.41354 2.74429 0
M  V30 2718 H 243.412 5.42988 3.49047 0
M  V30 2719 H 244.18 7.49577 3.28749 0
M  V30 2720 N 246.843 -1.10192 1.12674 0
M  V30 2721 C 247.753 -2.20172 0.810026 0
M  V30 2722 C 248.769 -1.72821 -0.202188 0
M  V30 2723 O 249.945 -2.01369 -0.0351691 0
M  V30 2724 C 247.01 -3.45631 0.272007 0
M  V30 2725 C 246.071 -4.07704 1.34447 0
M  V30 2726 C 245.304 -5.27175 0.832029 0
M  V30 2727 O 245.527 -5.69425 -0.333284 0
M  V30 2728 O 244.461 -5.80168 1.60277 0
M  V30 2729 H 248.287 -2.49701 1.72867 0
M  V30 2730 H 245.872 -1.18977 0.903597 0
M  V30 2731 H 247.754 -4.21394 -0.0230219 0
M  V30 2732 H 246.429 -3.17723 -0.619164 0
M  V30 2733 H 245.336 -3.33614 1.6927 0
M  V30 2734 H 246.669 -4.3982 2.2095 0
M  V30 2735 N 248.321 -0.919034 -1.28029 0
M  V30 2736 C 249.598 -0.473668 -1.89778 0
M  V30 2737 C 249.978 1.04783 -1.83259 0
M  V30 2738 O 249.326 1.8982 -1.27202 0
M  V30 2739 C 249.536 -1.00998 -3.34066 0
M  V30 2740 C 250.884 -1.06525 -4.1102 0
M  V30 2741 O 251.908 -0.958996 -3.43048 0
M  V30 2742 O 250.767 -1.22776 -5.3253 0
M  V30 2743 H 247.861 -0.15098 -0.813101 0
M  V30 2744 H 250.407 -1.01016 -1.36359 0
M  V30 2745 H 249.179 -2.05392 -3.33061 0
M  V30 2746 H 248.802 -0.454626 -3.94992 0
M  V30 2747 N 249.799 1.42003 -0.683588 0
M  V30 2748 C 250.746 2.30798 -0.0107309 0
M  V30 2749 C 251.716 1.4645 0.783688 0
M  V30 2750 O 252.901 1.75263 0.754156 0
M  V30 2751 C 250.041 3.3238 0.928306 0
M  V30 2752 C 249.154 4.31814 0.126776 0
M  V30 2753 C 248.289 5.20468 1.06236 0
M  V30 2754 C 247.328 6.11577 0.253035 0
M  V30 2755 N 246.465 6.92754 1.14179 0
M  V30 2756 H 251.305 2.8778 -0.773727 0
M  V30 2757 H 248.842 1.41745 -0.393283 0
M  V30 2758 H 250.8 3.89813 1.48666 0
M  V30 2759 H 249.43 2.76976 1.65783 0
M  V30 2760 H 248.482 3.76427 -0.54833 0
M  V30 2761 H 249.794 4.96276 -0.501192 0
M  V30 2762 H 248.948 5.82677 1.69035 0
M  V30 2763 H 247.687 4.56204 1.7242 0
M  V30 2764 H 246.692 5.48428 -0.388108 0
M  V30 2765 H 247.917 6.77892 -0.404839 0
M  V30 2766 H 245.863 6.3111 1.78987 0
M  V30 2767 H 245.78 7.53855 0.569111 0
M  V30 2768 H 247.048 7.59441 1.75697 0
M  V30 2769 N 251.277 0.427512 1.51691 0
M  V30 2770 C 252.693 0.0792977 1.59403 0
M  V30 2771 C 252.893 -1.41035 1.43914 0
M  V30 2772 O 251.949 -2.17922 1.27539 0
M  V30 2773 C 253.262 0.590636 2.94842 0
M  V30 2774 C 254.81 0.550215 3.08126 0
M  V30 2775 C 255.285 1.03836 4.46074 0
M  V30 2776 N 256.776 0.995943 4.52366 0
M  V30 2777 C 257.511 1.34463 5.57411 0
M  V30 2778 N 257.007 1.76569 6.69922 0
M  V30 2779 N 258.8 1.26343 5.47717 0
M  V30 2780 H 250.951 1.39687 1.60004 0
M  V30 2781 H 253.214 0.575003 0.753708 0
M  V30 2782 H 252.92 1.63251 3.11516 0
M  V30 2783 H 252.794 0.0102061 3.77199 0
M  V30 2784 H 255.181 -0.482654 2.91126 0
M  V30 2785 H 255.262 1.16693 2.27632 0
M  V30 2786 H 254.906 2.06965 4.63819 0
M  V30 2787 H 254.836 0.398286 5.25092 0
M  V30 2788 H 257.327 0.68661 3.7161 0
M  V30 2789 H 257.64 2.01438 7.46085 0
M  V30 2790 H 255.985 1.80488 6.71155 0
M  V30 2791 H 259.176 0.933209 4.58703 0
M  V30 2792 H 259.349 1.53846 6.29472 0
M  V30 2793 N 252.755 -1.56801 0.158532 0
M  V30 2794 C 254.001 -1.96781 -0.490405 0
M  V30 2795 C 254.334 -1.04397 -1.63753 0
M  V30 2796 O 253.609 -0.0885805 -1.94298 0
M  V30 2797 C 253.892 -3.4635 -0.985594 0
M  V30 2798 C 253.745 -4.49512 0.160824 0
M  V30 2799 C 255.064 -3.98697 -1.86355 0
M  V30 2800 H 252.183 -0.715482 -0.176788 0
M  V30 2801 H 254.825 -1.88451 0.242088 0
M  V30 2802 H 252.975 -3.53579 -1.60978 0
M  V30 2803 H 254.647 -4.54353 0.797537 0
M  V30 2804 H 252.89 -4.26013 0.818256 0
M  V30 2805 H 253.561 -5.51531 -0.227569 0
M  V30 2806 H 256.037 -3.94019 -1.33746 0
M  V30 2807 H 254.913 -5.03792 -2.17909 0
M  V30 2808 H 255.174 -3.41744 -2.8047 0
M  V30 2809 N 254.233 0.115231 -1.57178 0
M  V30 2810 C 255.181 1.16014 -2.01602 0
M  V30 2811 C 256.175 1.42653 -0.913587 0
M  V30 2812 O 257.381 1.42571 -1.09879 0
M  V30 2813 H 253.756 0.391252 -0.642204 0
M  V30 2814 H 255.727 0.758998 -2.88586 0
M  V30 2815 C 254.476 2.47767 -2.4394 0
M  V30 2816 H 253.799 2.28108 -3.28339 0
M  V30 2817 H 255.239 3.19432 -2.78818 0
M  V30 2818 C 253.698 3.10617 -1.30455 0
M  V30 2819 O 254.228 3.96846 -0.622585 0
M  V30 2820 N 252.434 2.70553 -1.06064 0
M  V30 2821 H 251.981 2.00527 -1.61699 0
M  V30 2822 H 251.939 3.12934 -0.303284 0
M  V30 2823 N 255.711 1.52812 0.385517 0
M  V30 2824 C 256.957 1.68275 1.13188 0
M  V30 2825 C 257.29 0.423179 1.89533 0
M  V30 2826 O 256.565 -0.579113 1.85679 0
M  V30 2827 C 256.848 2.92001 2.1073 0
M  V30 2828 C 256.701 4.28067 1.38125 0
M  V30 2829 C 258.02 3.11283 3.11113 0
M  V30 2830 H 255.139 0.612352 0.410115 0
M  V30 2831 H 257.781 1.85415 0.414869 0
M  V30 2832 H 255.931 2.77519 2.71874 0
M  V30 2833 H 257.603 4.54324 0.799187 0
M  V30 2834 H 255.846 4.28388 0.683092 0
M  V30 2835 H 256.517 5.10733 2.09417 0
M  V30 2836 H 258.993 3.2482 2.6006 0
M  V30 2837 H 257.869 3.99325 3.76605 0
M  V30 2838 H 258.13 2.25656 3.80173 0
M  V30 2839 N 257.189 -0.644168 1.43834 0
M  V30 2840 C 258.436 -1.40395 1.4593 0
M  V30 2841 C 258.764 -1.94305 0.0869658 0
M  V30 2842 O 258.019 -1.73288 -0.909378 0
M  V30 2843 C 258.318 -2.59615 2.45631 0
M  V30 2844 C 257.984 -2.2407 3.91284 0
M  V30 2845 C 256.646 -2.14089 4.30952 0
M  V30 2846 C 258.998 -1.95775 4.83034 0
M  V30 2847 C 256.326 -1.73981 5.6031 0
M  V30 2848 C 258.678 -1.57163 6.12766 0
M  V30 2849 C 257.342 -1.45713 6.51402 0
M  V30 2850 H 256.612 -0.513741 0.533995 0
M  V30 2851 H 259.259 -0.731724 1.76969 0
M  V30 2852 H 257.564 -3.32011 2.08028 0
M  V30 2853 H 259.261 -3.17834 2.44504 0
M  V30 2854 H 255.851 -2.32753 3.59895 0
M  V30 2855 H 260.035 -2.02403 4.53152 0
M  V30 2856 H 255.291 -1.63709 5.89075 0
M  V30 2857 H 259.465 -1.34303 6.83327 0
M  V30 2858 H 257.092 -1.14406 7.51542 0
M  V30 2859 N 258.668 -1.30515 -0.883378 0
M  V30 2860 C 259.917 -1.18795 -1.63005 0
M  V30 2861 C 260.23 0.255923 -1.93919 0
M  V30 2862 O 261.436 0.494654 -2.66956 0
M  V30 2863 C 259.892 -2.07878 -2.93794 0
M  V30 2864 C 259.5 -3.57184 -2.70414 0
M  V30 2865 C 261.244 -2.04924 -3.71761 0
M  V30 2866 C 259.151 -4.38317 -3.97029 0
M  V30 2867 H 258.081 -0.441031 -0.611562 0
M  V30 2868 H 260.732 -1.55275 -0.977854 0
M  V30 2869 H 259.114 -1.64283 -3.60315 0
M  V30 2870 H 260.288 -4.08937 -2.12384 0
M  V30 2871 H 258.603 -3.61976 -2.0582 0
M  V30 2872 H 261.2 -2.62792 -4.65665 0
M  V30 2873 H 261.543 -1.0331 -4.03277 0
M  V30 2874 H 262.076 -2.46649 -3.12104 0
M  V30 2875 H 258.815 -5.40632 -3.70671 0
M  V30 2876 H 258.335 -3.91326 -4.54559 0
M  V30 2877 H 260.014 -4.49834 -4.65036 0
M  V30 2878 N 260.146 1.09593 -1.13257 0
M  V30 2879 C 261.056 2.19739 -0.821691 0
M  V30 2880 C 262.072 1.72926 0.19302 0
M  V30 2881 O 263.248 2.01385 0.0244895 0
M  V30 2882 C 260.313 3.45482 -0.290333 0
M  V30 2883 C 259.374 4.06985 -1.36607 0
M  V30 2884 C 258.607 5.26726 -0.859975 0
M  V30 2885 O 258.83 5.69594 0.303082 0
M  V30 2886 O 257.764 5.7931 -1.63351 0
M  V30 2887 H 261.59 2.48781 -1.74189 0
M  V30 2888 H 259.175 1.18496 -0.909894 0
M  V30 2889 H 261.057 4.214 0.000674022 0
M  V30 2890 H 259.732 3.18047 0.602306 0
M  V30 2891 H 258.639 3.32712 -1.71037 0
M  V30 2892 H 259.972 4.38643 -2.23279 0
M  V30 2893 N 261.624 0.925811 1.2754 0
M  V30 2894 C 262.901 0.483726 1.89524 0
M  V30 2895 C 263.281 -1.03809 1.83812 0
M  V30 2896 O 262.629 -1.89143 1.28207 0
M  V30 2897 C 262.839 1.02769 3.33526 0
M  V30 2898 C 264.187 1.08703 4.10449 0
M  V30 2899 O 265.211 0.977175 3.42534 0
M  V30 2900 O 264.07 1.25599 5.31871 0
M  V30 2901 H 261.164 0.15529 0.812289 0
M  V30 2902 H 263.71 1.01738 1.35822 0
M  V30 2903 H 262.482 2.07155 3.31967 0
M  V30 2904 H 262.105 0.475567 3.94746 0
M  V30 2905 N 263.102 -1.41638 0.69111 0
M  V30 2906 C 264.065 -2.29178 0.0319786 0
M  V30 2907 C 265.065 -1.44153 -0.712496 0
M  V30 2908 O 266.255 -1.65354 -0.548053 0
M  V30 2909 C 263.387 -3.26952 -0.965161 0
M  V30 2910 H 264.58 -2.88959 0.802681 0
M  V30 2911 H 262.133 -1.4955 0.454356 0
M  V30 2912 H 262.868 -2.72142 -1.76378 0
M  V30 2913 H 262.653 -3.89685 -0.434522 0
M  V30 2914 H 264.143 -3.92561 -1.42428 0
M  V30 2915 N 264.58 -0.43555 -1.51462 0
M  V30 2916 C 265.805 0.132627 -2.06976 0
M  V30 2917 C 266.23 1.35848 -1.30104 0
M  V30 2918 O 265.588 1.78112 -0.338493 0
M  V30 2919 C 265.636 0.43523 -3.57964 0
M  V30 2920 O 264.74 1.52198 -3.83288 0
M  V30 2921 H 264.081 0.00265 -0.663995 0
M  V30 2922 H 266.611 -0.616369 -1.95095 0
M  V30 2923 H 266.621 0.686206 -4.02188 0
M  V30 2924 H 265.296 -0.460739 -4.1334 0
M  V30 2925 H 263.873 1.2611 -3.50928 0
M  V30 2926 N 266.058 1.56714 -0.166846 0
M  V30 2927 C 267.005 2.17746 0.765193 0
M  V30 2928 C 267.975 1.11614 1.23011 0
M  V30 2929 O 269.16 1.39745 1.29908 0
M  V30 2930 C 266.3 2.81882 1.9909 0
M  V30 2931 C 265.413 4.02462 1.56997 0
M  V30 2932 C 264.548 4.54537 2.749 0
M  V30 2933 C 263.587 5.67538 2.29275 0
M  V30 2934 N 262.724 6.14142 3.40255 0
M  V30 2935 H 267.564 2.97048 0.237952 0
M  V30 2936 H 265.101 1.4672 0.105725 0
M  V30 2937 H 267.059 3.17221 2.70974 0
M  V30 2938 H 265.689 2.05191 2.49192 0
M  V30 2939 H 264.741 3.72973 0.748037 0
M  V30 2940 H 266.053 4.84273 1.19503 0
M  V30 2941 H 265.207 4.92035 3.54946 0
M  V30 2942 H 263.946 3.71774 3.1565 0
M  V30 2943 H 262.951 5.29597 1.47674 0
M  V30 2944 H 264.176 6.52099 1.89588 0
M  V30 2945 H 262.122 5.3431 3.8059 0
M  V30 2946 H 262.039 6.9093 3.06841 0
M  V30 2947 H 263.307 6.56289 4.206 0
M  V30 2948 N 267.536 -0.106894 1.57237 0
M  V30 2949 C 268.783 -0.812526 1.85484 0
M  V30 2950 C 269.111 -1.79304 0.753687 0
M  V30 2951 O 268.366 -1.94047 -0.253853 0
M  V30 2952 C 268.665 -1.58628 3.20268 0
M  V30 2953 C 268.331 -0.748967 4.44636 0
M  V30 2954 C 266.993 -0.518104 4.78403 0
M  V30 2955 C 269.345 -0.166122 5.20935 0
M  V30 2956 C 266.673 0.305659 5.85903 0
M  V30 2957 C 269.025 0.644899 6.29304 0
M  V30 2958 C 267.689 0.885965 6.61594 0
M  V30 2959 H 266.959 -0.297324 0.678734 0
M  V30 2960 H 269.606 -0.0744332 1.91355 0
M  V30 2961 H 267.911 -2.39562 3.10028 0
M  V30 2962 H 269.608 -2.13643 3.39349 0
M  V30 2963 H 266.198 -0.939006 4.18187 0
M  V30 2964 H 270.382 -0.33167 4.95191 0
M  V30 2965 H 265.638 0.501528 6.0934 0
M  V30 2966 H 269.812 1.10345 6.87602 0
M  V30 2967 H 267.439 1.52609 7.44725 0
M  V30 2968 N 269.014 -1.53014 -0.377408 0
M  V30 2969 C 269.944 -1.81589 -1.46791 0
M  V30 2970 C 270.925 -0.668622 -1.56408 0
M  V30 2971 O 272.11 -0.917337 -1.71168 0
M  V30 2972 C 269.24 -1.99519 -2.8427 0
M  V30 2973 C 268.194 -3.15249 -2.89486 0
M  V30 2974 C 267.52 -3.18451 -4.29527 0
M  V30 2975 C 268.82 -4.54084 -2.58079 0
M  V30 2976 H 270.514 -2.7291 -1.23127 0
M  V30 2977 H 268.06 -1.31319 -0.590883 0
M  V30 2978 H 270.013 -2.18092 -3.60575 0
M  V30 2979 H 268.737 -1.04897 -3.09296 0
M  V30 2980 H 267.396 -2.96477 -2.15631 0
M  V30 2981 H 267.044 -2.2149 -4.5161 0
M  V30 2982 H 266.744 -3.962 -4.33934 0
M  V30 2983 H 268.268 -3.39193 -5.07721 0
M  V30 2984 H 269.682 -4.72899 -3.24098 0
M  V30 2985 H 268.079 -5.33987 -2.7382 0
M  V30 2986 H 269.149 -4.60006 -1.53372 0
M  V30 2987 N 270.492 0.636531 -1.44174 0
M  V30 2988 C 271.402 1.77754 -1.53103 0
M  V30 2989 C 272.418 1.68928 -0.417034 0
M  V30 2990 O 273.594 1.89801 -0.6736 0
M  V30 2991 C 270.659 3.14115 -1.46741 0
M  V30 2992 C 269.72 3.34612 -2.68948 0
M  V30 2993 C 268.953 4.64467 -2.6288 0
M  V30 2994 O 269.176 5.44919 -1.68581 0
M  V30 2995 O 268.11 4.87049 -3.53648 0
M  V30 2996 H 271.936 1.73174 -2.49489 0
M  V30 2997 H 269.521 0.79709 -1.2636 0
M  V30 2998 H 271.403 3.95412 -1.45696 0
M  V30 2999 H 270.078 3.19249 -0.534975 0
M  V30 3000 H 268.985 2.53014 -2.75562 0
M  V30 3001 H 270.318 3.34336 -3.61221 0
M  V30 3002 N 271.97 1.30982 0.876444 0
M  V30 3003 C 272.918 1.18006 2.00443 0
M  V30 3004 C 273.912 0.0898871 1.69161 0
M  V30 3005 O 275.118 0.251333 1.78237 0
M  V30 3006 H 271.493 0.365196 0.65737 0
M  V30 3007 H 273.464 2.13453 2.0852 0
M  V30 3008 C 272.213 0.897521 3.35916 0
M  V30 3009 H 271.536 1.7285 3.60504 0
M  V30 3010 H 272.976 0.846874 4.15456 0
M  V30 3011 C 271.435 -0.399674 3.34521 0
M  V30 3012 O 271.965 -1.41852 3.7582 0
M  V30 3013 N 270.171 -0.413893 2.87637 0
M  V30 3014 H 269.718 0.41571 2.54224 0
M  V30 3015 H 269.676 -1.28175 2.87086 0
M  V30 3016 N 273.449 -1.08991 1.13837 0
M  V30 3017 C 274.695 -1.81526 0.90422 0
M  V30 3018 C 275.028 -1.85706 -0.568066 0
M  V30 3019 O 274.303 -1.32855 -1.42056 0
M  V30 3020 C 274.586 -3.27447 1.49835 0
M  V30 3021 C 274.439 -3.31512 3.04006 0
M  V30 3022 C 275.758 -4.24256 1.17025 0
M  V30 3023 H 272.877 -0.659029 0.329923 0
M  V30 3024 H 275.519 -1.27644 1.40737 0
M  V30 3025 H 273.669 -3.73462 1.07044 0
M  V30 3026 H 275.341 -2.93867 3.55584 0
M  V30 3027 H 273.584 -2.70963 3.38765 0
M  V30 3028 H 274.255 -4.34329 3.40679 0
M  V30 3029 H 276.731 -3.86549 1.54009 0
M  V30 3030 H 275.607 -5.24684 1.61237 0
M  V30 3031 H 275.868 -4.42019 0.0846274 0
M  V30 3032 N 274.927 -0.932562 -1.27047 0
M  V30 3033 C 276.155 -0.592031 -1.98249 0
M  V30 3034 C 276.57 0.831062 -1.69525 0
M  V30 3035 O 275.927 1.55299 -0.958561 0
M  V30 3036 C 275.978 -0.814279 -3.5221 0
M  V30 3037 O 275.699 -2.18139 -3.7993 0
M  V30 3038 C 277.2 -0.483121 -4.4066 0
M  V30 3039 H 274.42 -0.223896 -0.632544 0
M  V30 3040 H 276.964 -1.25091 -1.61779 0
M  V30 3041 H 275.119 -0.20213 -3.86872 0
M  V30 3042 H 275.533 -2.235 -4.74498 0
M  V30 3043 H 277.007 -0.689298 -5.47679 0
M  V30 3044 H 277.484 0.581546 -4.35333 0
M  V30 3045 H 278.09 -1.07362 -4.11526 0
M  V30 3046 N 276.405 1.4127 -0.698611 0
M  V30 3047 C 277.353 2.32588 -0.023855 0
M  V30 3048 C 278.347 1.51128 0.765292 0
M  V30 3049 O 279.553 1.67043 0.670571 0
M  V30 3050 H 275.928 0.751918 0.0110871 0
M  V30 3051 H 277.899 2.87167 -0.811031 0
M  V30 3052 C 276.648 3.35947 0.896369 0
M  V30 3053 H 275.971 3.98684 0.298548 0
M  V30 3054 H 277.411 4.02376 1.33676 0
M  V30 3055 C 275.87 2.70076 2.01396 0
M  V30 3056 O 276.4 2.55093 3.10307 0
M  V30 3057 N 274.606 2.28724 1.79259 0
M  V30 3058 H 274.153 2.4111 0.906841 0
M  V30 3059 H 274.111 1.84986 2.54219 0
M  V30 3060 N 277.883 0.443576 1.51229 0
M  V30 3061 C 279.111 -0.11929 2.06556 0
M  V30 3062 C 279.526 -1.35921 1.31038 0
M  V30 3063 O 278.883 -1.78675 0.371704 0
M  V30 3064 C 278.934 -0.435228 3.5887 0
M  V30 3065 O 278.655 0.755486 4.31537 0
M  V30 3066 C 280.156 -1.04808 4.30732 0
M  V30 3067 H 277.376 -0.0051584 0.67098 0
M  V30 3068 H 279.92 0.624453 1.94733 0
M  V30 3069 H 278.075 -1.12887 3.70588 0
M  V30 3070 H 278.489 0.483491 5.22267 0
M  V30 3071 H 279.963 -1.2191 5.3837 0
M  V30 3072 H 280.44 -2.03081 3.89429 0
M  V30 3073 H 281.046 -0.393637 4.23474 0
M  V30 3074 N 279.361 -1.56624 0.175154 0
M  V30 3075 C 280.591 -2.01082 -0.474283 0
M  V30 3076 C 280.999 -1.05447 -1.57091 0
M  V30 3077 O 280.342 -0.0480595 -1.83637 0
M  V30 3078 C 280.404 -3.41963 -1.10911 0
M  V30 3079 C 280.068 -4.56742 -0.153666 0
M  V30 3080 C 281.065 -5.16076 0.629448 0
M  V30 3081 C 278.75 -5.02277 -0.0483776 0
M  V30 3082 C 280.744 -6.19377 1.50501 0
M  V30 3083 C 278.431 -6.05427 0.830768 0
M  V30 3084 C 279.429 -6.63849 1.60605 0
M  V30 3085 O 279.117 -7.64998 2.47049 0
M  V30 3086 H 278.849 -0.664261 -0.125432 0
M  V30 3087 H 281.403 -2.03549 0.275163 0
M  V30 3088 H 279.633 -3.36422 -1.90676 0
M  V30 3089 H 281.322 -3.70352 -1.66114 0
M  V30 3090 H 282.088 -4.81776 0.558297 0
M  V30 3091 H 277.967 -4.56513 -0.641611 0
M  V30 3092 H 281.511 -6.64906 2.1106 0
M  V30 3093 H 277.408 -6.39151 0.903107 0
M  V30 3094 H 278.176 -7.82336 2.40607 0
M  V30 3095 N 280.839 0.0985539 -1.57292 0
M  V30 3096 C 282.116 0.834155 -1.76921 0
M  V30 3097 C 282.496 1.97101 -0.755928 0
M  V30 3098 O 281.844 2.27474 0.216245 0
M  V30 3099 C 282.054 1.33194 -3.22584 0
M  V30 3100 C 283.402 1.77611 -3.85668 0
M  V30 3101 O 284.426 1.42825 -3.26312 0
M  V30 3102 O 283.285 2.4192 -4.90038 0
M  V30 3103 H 280.379 0.397628 -0.725135 0
M  V30 3104 H 282.925 0.0807044 -1.69508 0
M  V30 3105 H 281.697 0.517248 -3.87866 0
M  V30 3106 H 281.32 2.1475 -3.34616 0
M  V30 3107 N 282.317 1.53212 0.369288 0
M  V30 3108 C 283.563 1.69466 1.11397 0
M  V30 3109 C 283.896 0.443257 1.89074 0
M  V30 3110 O 283.171 -0.559386 1.86282 0
M  V30 3111 C 283.454 2.9422 2.07621 0
M  V30 3112 C 283.307 4.29508 1.33577 0
M  V30 3113 C 284.626 3.14565 3.07794 0
M  V30 3114 H 281.745 0.616667 0.403597 0
M  V30 3115 H 284.387 1.85845 0.395179 0
M  V30 3116 H 282.537 2.80387 2.68916 0
M  V30 3117 H 284.209 4.55147 0.750955 0
M  V30 3118 H 282.452 4.29088 0.637618 0
M  V30 3119 H 283.123 5.12926 2.03989 0
M  V30 3120 H 285.599 3.2756 2.56601 0
M  V30 3121 H 284.475 4.03297 3.72348 0
M  V30 3122 H 284.736 2.29675 3.77759 0
M  V30 3123 N 283.795 -0.628877 1.44509 0
M  V30 3124 C 285.044 -1.38437 1.4669 0
M  V30 3125 C 285.357 -1.95322 0.104272 0
M  V30 3126 O 286.563 -2.715 0.00362163 0
M  V30 3127 C 285.019 -2.50659 2.5826 0
M  V30 3128 C 284.627 -2.00277 4.0074 0
M  V30 3129 C 286.371 -3.27844 2.69664 0
M  V30 3130 C 284.278 -3.09854 5.0373 0
M  V30 3131 H 283.208 -0.520245 0.545766 0
M  V30 3132 H 285.859 -0.676313 1.70582 0
M  V30 3133 H 284.241 -3.2405 2.27612 0
M  V30 3134 H 285.415 -1.33736 4.40966 0
M  V30 3135 H 283.73 -1.35901 3.93599 0
M  V30 3136 H 286.327 -4.09534 3.43781 0
M  V30 3137 H 286.67 -3.77471 1.75559 0
M  V30 3138 H 287.203 -2.61543 2.99733 0
M  V30 3139 H 283.942 -2.65168 5.99472 0
M  V30 3140 H 283.462 -3.7503 4.68095 0
M  V30 3141 H 285.141 -3.74592 5.27532 0
M  V30 3142 N 285.273 -1.31445 -0.869486 0
M  V30 3143 C 286.522 -1.20517 -1.61736 0
M  V30 3144 C 286.835 0.235341 -1.94179 0
M  V30 3145 O 288.041 0.466312 -2.67465 0
M  V30 3146 C 286.497 -2.10982 -2.91573 0
M  V30 3147 C 286.105 -3.60032 -2.66611 0
M  V30 3148 C 287.849 -2.08856 -3.69567 0
M  V30 3149 C 285.756 -4.42503 -3.92358 0
M  V30 3150 H 284.686 -0.447493 -0.606849 0
M  V30 3151 H 287.337 -1.56303 -0.96133 0
M  V30 3152 H 285.719 -1.68095 -3.58553 0
M  V30 3153 H 286.893 -4.11167 -2.08035 0
M  V30 3154 H 285.208 -3.64139 -2.0197 0
M  V30 3155 H 287.805 -2.67716 -4.62852 0
M  V30 3156 H 288.148 -1.07582 -4.02159 0
M  V30 3157 H 288.681 -2.49945 -3.09471 0
M  V30 3158 H 285.42 -5.44533 -3.64916 0
M  V30 3159 H 284.94 -3.96125 -4.50383 0
M  V30 3160 H 286.619 -4.54741 -4.60238 0
M  V30 3161 N 286.751 1.08385 -1.14413 0
M  V30 3162 C 287.997 1.81044 -0.913834 0
M  V30 3163 C 288.33 1.86004 0.558209 0
M  V30 3164 O 287.605 1.33606 1.4135 0
M  V30 3165 C 287.888 3.26648 -1.51569 0
M  V30 3166 C 287.741 3.29895 -3.0576 0
M  V30 3167 C 289.06 4.23629 -1.19273 0
M  V30 3168 H 286.179 0.65727 -0.333414 0
M  V30 3169 H 288.821 1.26896 -1.41412 0
M  V30 3170 H 286.971 3.72889 -1.09023 0
M  V30 3171 H 288.643 2.91977 -3.57137 0
M  V30 3172 H 286.886 2.69163 -3.40197 0
M  V30 3173 H 287.557 4.32516 -3.42977 0
M  V30 3174 H 290.033 3.85727 -1.56057 0
M  V30 3175 H 288.909 5.23822 -1.64017 0
M  V30 3176 H 289.17 4.41968 -0.108068 0
M  V30 3177 N 288.23 0.939286 1.26551 0
M  V30 3178 C 289.507 0.5038 1.89001 0
M  V30 3179 C 289.887 -1.01854 1.84903 0
M  V30 3180 O 289.235 -1.87773 1.30206 0
M  V30 3181 C 289.445 1.063 3.32417 0
M  V30 3182 C 290.793 1.13051 4.09273 0
M  V30 3183 O 291.817 1.01345 3.41479 0
M  V30 3184 O 290.676 1.31233 5.30509 0
M  V30 3185 H 287.77 0.163897 0.810597 0
M  V30 3186 H 290.316 1.03173 1.34735 0
M  V30 3187 H 289.088 2.10665 3.29752 0
M  V30 3188 H 288.711 0.517408 3.94219 0
M  V30 3189 N 289.708 -1.40897 0.706093 0
M  V30 3190 C 290.933 -2.05895 0.249435 0
M  V30 3191 C 291.358 -1.52823 -1.09666 0
M  V30 3192 O 290.716 -0.659589 -1.68876 0
M  V30 3193 C 290.764 -3.59872 0.22904 0
M  V30 3194 O 289.868 -4.04708 -0.792784 0
M  V30 3195 H 289.209 -0.653206 0.119241 0
M  V30 3196 H 291.739 -1.80471 0.96391 0
M  V30 3197 H 291.749 -4.07951 0.0634791 0
M  V30 3198 H 290.424 -3.97866 1.21141 0
M  V30 3199 H 289.001 -3.68111 -0.59572 0
M  V30 3200 N 291.186 -0.45159 -1.50991 0
M  V30 3201 C 292.411 0.110667 -2.07105 0
M  V30 3202 C 292.836 1.3446 -1.31538 0
M  V30 3203 O 292.194 1.77743 -0.357365 0
M  V30 3204 C 292.242 0.397238 -3.58405 0
M  V30 3205 O 291.346 1.48124 -3.84881 0
M  V30 3206 H 290.687 -0.00439271 -0.663985 0
M  V30 3207 H 293.217 -0.637026 -1.9443 0
M  V30 3208 H 293.227 0.64351 -4.02893 0
M  V30 3209 H 291.902 -0.504553 -4.12828 0
M  V30 3210 H 290.479 1.22381 -3.52246 0
M  V30 3211 N 292.664 1.56529 -0.183458 0
M  V30 3212 C 293.941 1.88959 0.50536 0
M  V30 3213 C 294.321 1.09523 1.80466 0
M  V30 3214 O 293.669 0.19278 2.27685 0
M  V30 3215 C 293.879 3.41162 0.73547 0
M  V30 3216 C 295.227 4.11155 1.06005 0
M  V30 3217 O 296.251 3.46548 0.823594 0
M  V30 3218 O 295.11 5.25318 1.50675 0
M  V30 3219 H 292.204 0.78441 0.261973 0
M  V30 3220 H 294.75 1.68231 -0.222802 0
M  V30 3221 H 293.522 3.90874 -0.182561 0
M  V30 3222 H 293.145 3.67543 1.51651 0
M  V30 3223 N 294.142 -0.090211 1.57342 0
M  V30 3224 C 295.553 -0.644173 1.75235 0
M  V30 3225 C 295.904 -1.78865 0.806335 0
M  V30 3226 O 295.029 -2.16395 -0.0140128 0
M  V30 3227 C 295.624 -1.17532 3.1776 0
M  V30 3228 C 294.183 -1.67531 3.37061 0
M  V30 3229 C 293.33 -0.58693 2.71017 0
M  V30 3230 H 296.281 0.135884 1.58117 0
M  V30 3231 H 296.302 -2.04455 3.20902 0
M  V30 3232 H 295.814 -0.342138 3.86589 0
M  V30 3233 H 293.915 -2.53234 2.73319 0
M  V30 3234 H 294.028 -1.76493 4.45406 0
M  V30 3235 H 292.392 -1.02756 2.33052 0
M  V30 3236 H 293.175 0.235758 3.4249 0
M  V30 3237 N 295.62 -1.53406 -0.361157 0
M  V30 3238 C 296.869 -1.69022 -1.10066 0
M  V30 3239 C 297.182 -0.450838 -1.90333 0
M  V30 3240 O 298.388 -0.487617 -2.67085 0
M  V30 3241 C 296.844 -2.98812 -2.00598 0
M  V30 3242 C 296.452 -4.30027 -1.25621 0
M  V30 3243 C 298.196 -3.23795 -2.74513 0
M  V30 3244 C 296.103 -5.50903 -2.1508 0
M  V30 3245 H 295.033 -0.629776 -0.414606 0
M  V30 3246 H 297.684 -1.79907 -0.361348 0
M  V30 3247 H 296.066 -2.8174 -2.78278 0
M  V30 3248 H 297.24 -4.57745 -0.529739 0
M  V30 3249 H 295.555 -4.11522 -0.635496 0
M  V30 3250 H 298.152 -4.11289 -3.41681 0
M  V30 3251 H 298.495 -2.40045 -3.40123 0
M  V30 3252 H 299.028 -3.41561 -2.03914 0
M  V30 3253 H 295.767 -6.37143 -1.54041 0
M  V30 3254 H 295.287 -5.27459 -2.85565 0
M  V30 3255 H 296.966 -5.85865 -2.74538 0
M  V30 3256 N 297.098 0.621204 -1.44841 0
M  V30 3257 C 298.346 1.37783 -1.47852 0
M  V30 3258 C 298.667 1.94653 -0.116224 0
M  V30 3259 O 297.937 1.76367 0.852737 0
M  V30 3260 H 296.517 0.511453 -0.544449 0
M  V30 3261 H 299.179 0.730446 -1.80694 0
M  V30 3262 H 298.275 2.20414 -2.20961 0
M  V30 3263 N 298.576 1.31904 0.862503 0
M  V30 3264 C 299.987 1.19803 1.43193 0
M  V30 3265 C 300.338 -0.192567 1.95253 0
M  V30 3266 O 299.463 -1.09081 1.86896 0
M  V30 3267 C 300.058 2.16883 2.60283 0
M  V30 3268 C 298.617 2.08692 3.13248 0
M  V30 3269 C 297.764 2.05691 1.85975 0
M  V30 3270 H 300.715 1.43846 0.670365 0
M  V30 3271 H 300.736 1.76278 3.37204 0
M  V30 3272 H 300.248 3.18083 2.22363 0
M  V30 3273 H 298.349 1.10713 3.55771 0
M  V30 3274 H 298.462 2.9815 3.75025 0
M  V30 3275 H 296.826 1.50814 2.05249 0
M  V30 3276 H 297.609 3.08659 1.50282 0
M  V30 3277 N 300.054 -1.07777 1.14986 0
M  V30 3278 C 301.017 -2.13041 0.845358 0
M  V30 3279 C 302.017 -1.60071 -0.152931 0
M  V30 3280 O 303.207 -1.74033 0.0761879 0
M  V30 3281 C 300.339 -3.39896 0.261383 0
M  V30 3282 H 301.532 -2.41485 1.77834 0
M  V30 3283 H 299.085 -1.23595 0.956757 0
M  V30 3284 H 299.82 -3.17091 -0.68 0
M  V30 3285 H 299.605 -3.79642 0.980514 0
M  V30 3286 H 301.095 -4.17548 0.0657687 0
M  V30 3287 N 301.532 -0.945985 -1.26051 0
M  V30 3288 C 302.442 -0.465633 -2.29933 0
M  V30 3289 C 303.458 0.462761 -1.67733 0
M  V30 3290 O 304.634 0.341118 -1.9849 0
M  V30 3291 C 301.699 0.256994 -3.45746 0
M  V30 3292 C 300.76 -0.708549 -4.23412 0
M  V30 3293 C 299.993 -0.0203135 -5.33696 0
M  V30 3294 O 300.216 1.19571 -5.57726 0
M  V30 3295 O 299.15 -0.701459 -5.97799 0
M  V30 3296 H 302.976 -1.32866 -2.73094 0
M  V30 3297 H 300.561 -0.712071 -1.31339 0
M  V30 3298 H 302.443 0.663852 -4.16138 0
M  V30 3299 H 301.118 1.09533 -3.04605 0
M  V30 3300 H 300.025 -1.16545 -3.55483 0
M  V30 3301 H 301.358 -1.51465 -4.68315 0
M  V30 3302 N 303.011 1.40521 -0.713556 0
M  V30 3303 C 304.239 2.05237 -0.261775 0
M  V30 3304 C 304.654 1.53755 1.09567 0
M  V30 3305 O 304.011 0.693268 1.6882 0
M  V30 3306 C 304.062 3.60763 -0.230706 0
M  V30 3307 O 303.783 4.10345 -1.53455 0
M  V30 3308 C 305.284 4.42651 0.239874 0
M  V30 3309 H 302.504 0.660533 -0.118057 0
M  V30 3310 H 305.048 1.79967 -0.971192 0
M  V30 3311 H 303.203 3.8501 0.429661 0
M  V30 3312 H 303.617 5.04526 -1.43366 0
M  V30 3313 H 305.091 5.51599 0.210468 0
M  V30 3314 H 305.568 4.20082 1.28171 0
M  V30 3315 H 306.174 4.23507 -0.390142 0
M  V30 3316 N 304.489 0.459591 1.5075 0
M  V30 3317 C 305.419 -0.330644 2.31147 0
M  V30 3318 C 306.4 -1.00087 1.37538 0
M  V30 3319 O 307.585 -1.00025 1.66459 0
M  V30 3320 C 304.715 -1.41958 3.16962 0
M  V30 3321 C 303.669 -0.871608 4.19031 0
M  V30 3322 C 302.995 -2.05797 4.9351 0
M  V30 3323 C 304.295 0.109251 5.22186 0
M  V30 3324 H 305.989 0.340336 2.97459 0
M  V30 3325 H 303.535 0.165119 1.4305 0
M  V30 3326 H 305.488 -1.9798 3.71997 0
M  V30 3327 H 304.212 -2.11917 2.48513 0
M  V30 3328 H 302.871 -0.333442 3.6508 0
M  V30 3329 H 302.519 -2.74427 4.21544 0
M  V30 3330 H 302.219 -1.6976 5.62544 0
M  V30 3331 H 303.743 -2.62331 5.51375 0
M  V30 3332 H 305.157 -0.361405 5.7216 0
M  V30 3333 H 303.554 0.383316 5.98875 0
M  V30 3334 H 304.624 1.03887 4.73641 0
M  V30 3335 N 305.967 -1.56429 0.191757 0
M  V30 3336 C 307.214 -1.97485 -0.447891 0
M  V30 3337 C 307.542 -1.07852 -1.61859 0
M  V30 3338 O 306.797 -0.116903 -1.95351 0
M  V30 3339 C 307.096 -3.44449 -0.953384 0
M  V30 3340 C 306.762 -4.50781 0.103586 0
M  V30 3341 C 305.424 -4.79584 0.394023 0
M  V30 3342 C 307.776 -5.1471 0.819946 0
M  V30 3343 C 305.104 -5.69607 1.40585 0
M  V30 3344 C 307.456 -6.05827 1.8209 0
M  V30 3345 C 306.12 -6.32987 2.11857 0
M  V30 3346 H 305.39 -0.722648 -0.163895 0
M  V30 3347 H 308.037 -1.89322 0.28802 0
M  V30 3348 H 306.342 -3.49666 -1.76751 0
M  V30 3349 H 308.039 -3.73569 -1.45765 0
M  V30 3350 H 304.629 -4.28394 -0.132951 0
M  V30 3351 H 308.813 -4.92552 0.608789 0
M  V30 3352 H 304.069 -5.88926 1.64243 0
M  V30 3353 H 308.243 -6.54424 2.38123 0
M  V30 3354 H 305.87 -7.02544 2.90407 0
M  V30 3355 N 307.445 0.0818655 -1.57387 0
M  V30 3356 C 308.393 1.11712 -2.04018 0
M  V30 3357 C 309.387 1.40683 -0.94364 0
M  V30 3358 O 310.593 1.40209 -1.12878 0
M  V30 3359 H 306.968 0.377542 -0.650358 0
M  V30 3360 H 308.939 0.697614 -2.90131 0
M  V30 3361 C 307.688 2.42537 -2.49141 0
M  V30 3362 H 307.011 2.21092 -3.33104 0
M  V30 3363 H 308.451 3.13446 -2.85531 0
M  V30 3364 C 306.91 3.0778 -1.37014 0
M  V30 3365 O 307.44 3.95436 -0.706621 0
M  V30 3366 N 305.646 2.68242 -1.11779 0
M  V30 3367 H 305.193 1.97052 -1.65917 0
M  V30 3368 H 305.151 3.1222 -0.369594 0
M  V30 3369 N 308.923 1.53595 0.353017 0
M  V30 3370 C 309.855 1.77219 1.45348 0
M  V30 3371 C 310.868 0.65324 1.49119 0
M  V30 3372 O 312.057 0.929775 1.52373 0
M  V30 3373 C 309.157 1.84841 2.84055 0
M  V30 3374 C 308.33 3.14649 3.03833 0
M  V30 3375 C 307.389 3.13351 4.22727 0
M  V30 3376 O 306.415 3.87107 4.17297 0
M  V30 3377 N 307.617 2.35052 5.30783 0
M  V30 3378 H 310.382 2.72178 1.25457 0
M  V30 3379 H 307.943 1.52528 0.542833 0
M  V30 3380 H 309.935 1.81435 3.61751 0
M  V30 3381 H 308.505 0.971114 2.97133 0
M  V30 3382 H 307.725 3.31256 2.13689 0
M  V30 3383 H 309.013 4.00411 3.13925 0
M  V30 3384 H 308.411 1.74663 5.38061 0
M  V30 3385 H 306.968 2.37453 6.07009 0
M  V30 3386 N 310.401 -0.613514 1.45168 0
M  V30 3387 C 311.349 -1.74572 1.53712 0
M  V30 3388 C 312.343 -1.64426 0.407505 0
M  V30 3389 O 313.549 -1.70291 0.583176 0
M  V30 3390 H 309.924 -0.576641 0.48269 0
M  V30 3391 H 311.895 -1.64492 2.48968 0
M  V30 3392 C 310.644 -3.12943 1.51532 0
M  V30 3393 H 309.967 -3.21407 2.37776 0
M  V30 3394 H 311.407 -3.9201 1.61569 0
M  V30 3395 C 309.866 -3.36053 0.238798 0
M  V30 3396 O 310.396 -3.95837 -0.6838 0
M  V30 3397 N 308.602 -2.9028 0.136359 0
M  V30 3398 H 308.149 -2.41811 0.887999 0
M  V30 3399 H 308.107 -3.06116 -0.716944 0
M  V30 3400 N 311.879 -1.3236 -0.855495 0
M  V30 3401 C 313.126 -1.22872 -1.60962 0
M  V30 3402 C 313.454 0.209658 -1.93367 0
M  V30 3403 O 312.709 1.16243 -1.57436 0
M  V30 3404 C 313.008 -2.03275 -2.93963 0
M  V30 3405 C 312.674 -3.5264 -2.80991 0
M  V30 3406 C 311.336 -3.93364 -2.7716 0
M  V30 3407 C 313.688 -4.47626 -2.66983 0
M  V30 3408 C 311.016 -5.27319 -2.572 0
M  V30 3409 C 313.368 -5.81723 -2.48558 0
M  V30 3410 C 312.032 -6.2165 -2.4312 0
M  V30 3411 H 311.302 -0.44962 -0.589001 0
M  V30 3412 H 313.949 -1.63777 -0.992442 0
M  V30 3413 H 312.254 -1.55095 -3.59795 0
M  V30 3414 H 313.951 -1.93303 -3.51333 0
M  V30 3415 H 310.541 -3.20295 -2.84797 0
M  V30 3416 H 314.725 -4.17084 -2.68988 0
M  V30 3417 H 309.981 -5.57311 -2.51424 0
M  V30 3418 H 314.155 -6.5494 -2.36699 0
M  V30 3419 H 311.782 -7.25388 -2.27412 0
M  V30 3420 N 313.357 1.07166 -1.15556 0
M  V30 3421 C 314.587 1.83248 -0.954133 0
M  V30 3422 C 314.995 1.82449 0.500911 0
M  V30 3423 O 314.338 1.23575 1.35923 0
M  V30 3424 C 314.4 3.31393 -1.39351 0
M  V30 3425 C 314.064 3.5591 -2.86666 0
M  V30 3426 C 315.061 3.49695 -3.8472 0
M  V30 3427 C 312.746 3.83515 -3.24379 0
M  V30 3428 C 314.74 3.70737 -5.18491 0
M  V30 3429 C 312.427 4.04209 -4.58321 0
M  V30 3430 C 313.425 3.97815 -5.55186 0
M  V30 3431 O 313.113 4.17954 -6.86709 0
M  V30 3432 H 312.845 0.584941 -0.338851 0
M  V30 3433 H 315.399 1.36169 -1.53777 0
M  V30 3434 H 313.629 3.79292 -0.75329 0
M  V30 3435 H 315.318 3.88945 -1.16089 0
M  V30 3436 H 316.084 3.28368 -3.56931 0
M  V30 3437 H 311.963 3.87605 -2.49567 0
M  V30 3438 H 315.507 3.65663 -5.94085 0
M  V30 3439 H 311.404 4.25023 -4.85825 0
M  V30 3440 H 312.172 4.35291 -6.93155 0
M  V30 3441 N 314.835 0.952656 1.25548 0
M  V30 3442 C 315.745 0.47782 2.29682 0
M  V30 3443 C 316.761 -0.453859 1.67977 0
M  V30 3444 O 317.937 -0.330587 1.98668 0
M  V30 3445 C 315.002 -0.238655 3.45878 0
M  V30 3446 C 314.063 0.730994 4.23031 0
M  V30 3447 C 313.296 0.0486165 5.33678 0
M  V30 3448 O 313.519 -1.16612 5.58353 0
M  V30 3449 O 312.453 0.733152 5.97418 0
M  V30 3450 H 316.279 1.34312 2.72386 0
M  V30 3451 H 313.864 0.719026 1.30959 0
M  V30 3452 H 315.746 -0.641774 4.16484 0
M  V30 3453 H 314.421 -1.07916 3.05181 0
M  V30 3454 H 313.328 1.18428 3.5486 0
M  V30 3455 H 314.661 1.53946 4.67506 0
M  V30 3456 N 316.313 -1.40141 0.720998 0
M  V30 3457 C 317.26 -2.30688 0.071919 0
M  V30 3458 C 318.23 -1.48476 -0.744584 0
M  V30 3459 O 319.415 -1.77201 -0.707423 0
M  V30 3460 C 316.555 -3.34724 -0.839855 0
M  V30 3461 C 315.668 -4.31998 -0.0122438 0
M  V30 3462 C 314.803 -5.23102 -0.923995 0
M  V30 3463 C 313.842 -6.12033 -0.0907969 0
M  V30 3464 N 312.979 -6.95537 -0.957718 0
M  V30 3465 H 317.819 -2.85628 0.849755 0
M  V30 3466 H 315.356 -1.40653 0.430726 0
M  V30 3467 H 317.314 -3.93618 -1.38279 0
M  V30 3468 H 315.944 -2.81274 -1.58381 0
M  V30 3469 H 314.996 -3.74841 0.64794 0
M  V30 3470 H 316.308 -4.94772 0.632595 0
M  V30 3471 H 315.462 -5.86953 -1.53527 0
M  V30 3472 H 314.201 -4.60615 -1.60264 0
M  V30 3473 H 313.206 -5.47207 0.533377 0
M  V30 3474 H 314.431 -6.76581 0.584428 0
M  V30 3475 H 312.377 -6.35633 -1.62192 0
M  V30 3476 H 312.294 -7.55099 -0.36904 0
M  V30 3477 H 313.562 -7.63832 -1.555 0
M  V30 3478 N 317.792 -0.46758 -1.50504 0
M  V30 3479 C 319.041 0.0902868 -2.01498 0
M  V30 3480 C 319.354 1.411 -1.35463 0
M  V30 3481 O 320.56 2.0536 -1.77594 0
M  V30 3482 C 319.016 0.21142 -3.59278 0
M  V30 3483 C 318.624 -1.10065 -4.34269 0
M  V30 3484 C 320.368 0.721433 -4.18325 0
M  V30 3485 C 318.275 -0.943505 -5.83825 0
M  V30 3486 H 317.205 0.037517 -0.753066 0
M  V30 3487 H 319.856 -0.601943 -1.73346 0
M  V30 3488 H 318.238 0.967352 -3.84003 0
M  V30 3489 H 319.412 -1.86726 -4.21272 0
M  V30 3490 H 317.727 -1.5415 -3.86816 0
M  V30 3491 H 320.324 0.85598 -5.27804 0
M  V30 3492 H 320.667 1.71186 -3.79475 0
M  V30 3493 H 321.2 0.0229843 -3.97793 0
M  V30 3494 H 317.939 -1.90719 -6.27141 0
M  V30 3495 H 317.459 -0.217213 -5.99407 0
M  V30 3496 H 319.138 -0.608715 -6.4413 0
M  V30 3497 N 319.27 1.56325 -0.20005 0
M  V30 3498 C 320.5 2.01811 0.442232 0
M  V30 3499 C 320.908 1.07932 1.55394 0
M  V30 3500 O 320.251 0.0772685 1.83537 0
M  V30 3501 C 320.313 3.43685 1.05457 0
M  V30 3502 C 319.977 4.56928 0.0809833 0
M  V30 3503 C 320.974 5.15009 -0.711471 0
M  V30 3504 C 318.659 5.0229 -0.0315364 0
M  V30 3505 C 320.653 6.16904 -1.60336 0
M  V30 3506 C 318.34 6.04028 -0.926981 0
M  V30 3507 C 319.338 6.6121 -1.71146 0
M  V30 3508 O 319.026 7.60971 -2.59189 0
M  V30 3509 H 318.758 0.666173 0.114848 0
M  V30 3510 H 321.312 2.03085 -0.307511 0
M  V30 3511 H 319.542 3.39413 1.85299 0
M  V30 3512 H 321.231 3.72948 1.60201 0
M  V30 3513 H 321.997 4.80827 -0.634873 0
M  V30 3514 H 317.876 4.57476 0.568902 0
M  V30 3515 H 321.42 6.61464 -2.21611 0
M  V30 3516 H 317.317 6.37634 -1.00468 0
M  V30 3517 H 318.085 7.7841 -2.53023 0
M  V30 3518 N 320.748 -0.0735177 1.57428 0
M  V30 3519 C 321.696 -1.10628 2.04607 0
M  V30 3520 C 322.69 -1.40181 0.951088 0
M  V30 3521 O 323.896 -1.39608 1.1362 0
M  V30 3522 H 320.271 -0.374088 0.652351 0
M  V30 3523 H 322.242 -0.682218 2.90497 0
M  V30 3524 C 320.991 -2.41212 2.50423 0
M  V30 3525 H 320.314 -2.19322 3.34272 0
M  V30 3526 H 321.754 -3.11927 2.87189 0
M  V30 3527 C 320.213 -3.0705 1.38644 0
M  V30 3528 O 320.743 -3.95056 0.727582 0
M  V30 3529 N 318.949 -2.67645 1.132 0
M  V30 3530 H 318.496 -1.96169 1.66959 0
M  V30 3531 H 318.454 -3.1202 0.386147 0
M  V30 3532 N 322.226 -1.5378 -0.344866 0
M  V30 3533 C 323.189 -1.80981 -1.40637 0
M  V30 3534 C 324.189 -0.680816 -1.45676 0
M  V30 3535 O 325.379 -0.949095 -1.46075 0
M  V30 3536 C 322.511 -1.95063 -2.79577 0
M  V30 3537 H 323.704 -2.75803 -1.17783 0
M  V30 3538 H 321.257 -1.45173 -0.579181 0
M  V30 3539 H 321.992 -1.02379 -3.07716 0
M  V30 3540 H 321.777 -2.77198 -2.77315 0
M  V30 3541 H 323.267 -2.17629 -3.56409 0
M  V30 3542 N 323.704 0.605807 -1.45491 0
M  V30 3543 C 324.634 1.72709 -1.57143 0
M  V30 3544 C 325.615 1.6476 -0.422884 0
M  V30 3545 O 326.8 1.83132 -0.646247 0
M  V30 3546 C 323.93 3.11316 -1.53948 0
M  V30 3547 C 322.884 3.34077 -2.67537 0
M  V30 3548 C 322.21 4.72975 -2.49397 0
M  V30 3549 C 323.51 3.24158 -4.09535 0
M  V30 3550 H 325.204 1.63214 -2.51001 0
M  V30 3551 H 322.75 0.78379 -1.208 0
M  V30 3552 H 324.703 3.89557 -1.60696 0
M  V30 3553 H 323.427 3.21655 -0.566205 0
M  V30 3554 H 322.086 2.58227 -2.6022 0
M  V30 3555 H 321.734 4.8005 -1.50205 0
M  V30 3556 H 321.434 4.8916 -3.25571 0
M  V30 3557 H 322.958 5.53414 -2.58002 0
M  V30 3558 H 324.372 3.92271 -4.18086 0
M  V30 3559 H 322.769 3.51872 -4.86113 0
M  V30 3560 H 323.839 2.2157 -4.31317 0
M  V30 3561 N 325.182 1.32811 0.848464 0
M  V30 3562 C 326.129 1.22265 1.95755 0
M  V30 3563 C 327.099 0.103413 1.65778 0
M  V30 3564 O 328.284 0.280033 1.88734 0
M  V30 3565 C 325.424 0.958014 3.31536 0
M  V30 3566 C 324.537 2.16262 3.73971 0
M  V30 3567 C 323.672 1.83295 4.98575 0
M  V30 3568 C 322.711 3.00041 5.33518 0
M  V30 3569 N 321.848 2.67125 6.49299 0
M  V30 3570 H 326.688 2.17128 2.04107 0
M  V30 3571 H 324.225 1.07982 0.998913 0
M  V30 3572 H 326.183 0.785052 4.09747 0
M  V30 3573 H 324.813 0.046159 3.22767 0
M  V30 3574 H 323.865 2.44565 2.91362 0
M  V30 3575 H 325.177 3.03572 3.95785 0
M  V30 3576 H 324.331 1.62586 5.84509 0
M  V30 3577 H 323.07 0.932078 4.7871 0
M  V30 3578 H 322.075 3.21374 4.46093 0
M  V30 3579 H 323.3 3.90869 5.55336 0
M  V30 3580 H 321.246 1.79586 6.3094 0
M  V30 3581 H 321.163 3.47965 6.71161 0
M  V30 3582 H 322.431 2.49861 7.3837 0
M  V30 3583 N 326.66 -1.06551 1.16123 0
M  V30 3584 C 328.071 -1.60768 0.949232 0
M  V30 3585 C 328.422 -1.89523 -0.507508 0
M  V30 3586 O 327.547 -1.66671 -1.38021 0
M  V30 3587 C 328.142 -2.92086 1.71671 0
M  V30 3588 C 326.701 -3.43015 1.54977 0
M  V30 3589 C 325.848 -2.16947 1.72711 0
M  V30 3590 H 328.799 -0.895354 1.31031 0
M  V30 3591 H 328.82 -3.6138 1.19099 0
M  V30 3592 H 328.332 -2.71127 2.7769 0
M  V30 3593 H 326.433 -3.69039 0.513873 0
M  V30 3594 H 326.546 -4.18516 2.33198 0
M  V30 3595 H 324.91 -2.27041 1.15431 0
M  V30 3596 H 325.693 -1.98473 2.80113 0
M  V30 3597 N 328.138 -0.959301 -1.25041 0
M  V30 3598 C 329.086 -0.474437 -2.2771 0
M  V30 3599 C 330.08 0.457697 -1.631 0
M  V30 3600 O 331.286 0.333912 -1.76876 0
M  V30 3601 H 327.661 -0.134936 -0.739795 0
M  V30 3602 H 329.632 -1.35251 -2.65988 0
M  V30 3603 C 328.381 0.227884 -3.46952 0
M  V30 3604 H 327.704 -0.480248 -3.96905 0
M  V30 3605 H 329.144 0.531091 -4.20661 0
M  V30 3606 C 327.603 1.452 -3.04004 0
M  V30 3607 O 328.133 2.54949 -3.10426 0
M  V30 3608 N 326.339 1.31502 -2.59144 0
M  V30 3609 H 325.886 0.422065 -2.54119 0
M  V30 3610 H 325.844 2.13521 -2.30773 0
M  V30 3611 N 329.616 1.39756 -0.72842 0
M  V30 3612 C 330.864 2.00248 -0.272946 0
M  V30 3613 C 331.185 1.58077 1.14178 0
M  V30 3614 O 330.455 0.826014 1.77634 0
M  V30 3615 H 329.035 0.740554 -0.0979247 0
M  V30 3616 H 331.697 1.70903 -0.936912 0
M  V30 3617 H 330.793 3.10495 -0.316142 0
M  V30 3618 N 331.094 0.475555 1.50254 0
M  V30 3619 C 332.324 -0.0753399 2.06463 0
M  V30 3620 C 332.732 -1.33661 1.33908 0
M  V30 3621 O 332.075 -1.79219 0.403257 0
M  V30 3622 C 332.137 -0.424921 3.5698 0
M  V30 3623 C 331.801 0.734965 4.51051 0
M  V30 3624 C 332.798 1.61827 4.94073 0
M  V30 3625 C 330.483 0.926557 4.9368 0
M  V30 3626 C 332.477 2.67754 5.78434 0
M  V30 3627 C 330.164 1.98904 5.77824 0
M  V30 3628 C 331.162 2.8629 6.20103 0
M  V30 3629 O 330.85 3.90708 7.02568 0
M  V30 3630 H 330.582 0.00576308 0.675975 0
M  V30 3631 H 333.136 0.664662 1.94349 0
M  V30 3632 H 331.366 -1.21817 3.67012 0
M  V30 3633 H 333.055 -0.911422 3.95535 0
M  V30 3634 H 333.821 1.48196 4.61804 0
M  V30 3635 H 329.7 0.25584 4.6029 0
M  V30 3636 H 333.244 3.35992 6.11355 0
M  V30 3637 H 329.141 2.12541 6.09505 0
M  V30 3638 H 329.909 3.87751 7.20827 0
M  V30 3639 N 332.573 -1.56217 0.208337 0
M  V30 3640 C 333.813 -1.99849 -0.428927 0
M  V30 3641 C 334.177 -1.09262 -1.57879 0
M  V30 3642 O 335.378 -1.42185 -2.28116 0
M  V30 3643 C 333.649 -3.46777 -0.864879 0
M  V30 3644 S 335.208 -4.12434 -1.49811 0
M  V30 3645 H 332.026 -0.697742 -0.136665 0
M  V30 3646 H 334.628 -1.92953 0.314519 0
M  V30 3647 H 333.332 -4.10396 -0.0181326 0
M  V30 3648 H 332.863 -3.57518 -1.64147 0
M  V30 3649 H 334.878 -4.10532 -2.78707 0
M  V30 3650 N 334.051 0.0651679 -1.57465 0
M  V30 3651 C 335.297 0.764193 -1.87851 0
M  V30 3652 C 335.63 1.76889 -0.801495 0
M  V30 3653 O 334.905 1.93594 0.187528 0
M  V30 3654 C 335.188 1.46625 -3.28897 0
M  V30 3655 C 335.041 0.477515 -4.47258 0
M  V30 3656 C 336.36 2.4095 -3.68281 0
M  V30 3657 H 333.479 0.276351 -0.683227 0
M  V30 3658 H 336.121 0.0272868 -1.8998 0
M  V30 3659 H 334.271 2.09438 -3.27212 0
M  V30 3660 H 335.943 -0.145922 -4.61069 0
M  V30 3661 H 334.186 -0.206576 -4.33308 0
M  V30 3662 H 334.857 1.0065 -5.42746 0
M  V30 3663 H 337.333 1.88209 -3.71102 0
M  V30 3664 H 336.209 2.87072 -4.67847 0
M  V30 3665 H 336.47 3.26049 -2.98571 0
M  V30 3666 N 335.529 1.53961 0.336706 0
M  V30 3667 C 336.492 1.81724 1.39675 0
M  V30 3668 C 337.492 0.688532 1.45313 0
M  V30 3669 O 338.682 0.956829 1.45569 0
M  V30 3670 C 335.814 1.96543 2.78538 0
M  V30 3671 H 337.007 2.76424 1.16318 0
M  V30 3672 H 334.56 1.45478 0.571474 0
M  V30 3673 H 335.295 1.0401 3.07168 0
M  V30 3674 H 335.08 2.78665 2.75841 0
M  V30 3675 H 336.57 2.19516 3.5525 0
M  V30 3676 N 337.007 -0.598083 1.45811 0
M  V30 3677 C 337.939 -1.72231 1.51225 0
M  V30 3678 C 338.952 -1.57757 0.402059 0
M  V30 3679 O 340.141 -1.65464 0.669624 0
M  V30 3680 C 337.241 -3.10331 1.3619 0
M  V30 3681 C 336.414 -3.50955 2.61054 0
M  V30 3682 C 335.473 -4.68055 2.40439 0
M  V30 3683 O 334.499 -4.74691 3.14097 0
M  V30 3684 N 335.701 -5.61941 1.45612 0
M  V30 3685 H 338.466 -1.68046 2.48154 0
M  V30 3686 H 336.027 -0.783637 1.41671 0
M  V30 3687 H 338.019 -3.86439 1.20195 0
M  V30 3688 H 336.589 -3.0897 0.475015 0
M  V30 3689 H 335.809 -2.64711 2.92099 0
M  V30 3690 H 337.097 -3.74858 3.44034 0
M  V30 3691 H 336.495 -5.59301 0.848431 0
M  V30 3692 H 335.052 -6.37542 1.35585 0
M  V30 3693 N 338.485 -1.33259 -0.841409 0
M  V30 3694 C 339.725 -1.25902 -1.61022 0
M  V30 3695 C 340.089 0.173325 -1.91216 0
M  V30 3696 O 341.29 0.370824 -2.6623 0
M  V30 3697 C 339.561 -2.10735 -2.88662 0
M  V30 3698 S 341.12 -2.20541 -3.79351 0
M  V30 3699 H 337.938 -0.447958 -0.552137 0
M  V30 3700 H 340.54 -1.68263 -0.995382 0
M  V30 3701 H 339.244 -3.1384 -2.64448 0
M  V30 3702 H 338.775 -1.69201 -3.55154 0
M  V30 3703 H 340.79 -1.36462 -4.77067 0
M  V30 3704 N 339.963 1.05934 -1.16686 0
M  V30 3705 C 340.873 2.17014 -0.891183 0
M  V30 3706 C 341.889 1.73453 0.137907 0
M  V30 3707 O 343.065 2.01361 -0.039592 0
M  V30 3708 C 340.13 3.44384 -0.400099 0
M  V30 3709 C 339.191 4.02433 -1.49486 0
M  V30 3710 C 338.424 5.23723 -1.02711 0
M  V30 3711 O 338.647 5.7027 0.121716 0
M  V30 3712 O 337.581 5.7382 -1.81699 0
M  V30 3713 H 341.407 2.43113 -1.82015 0
M  V30 3714 H 338.992 1.15541 -0.947132 0
M  V30 3715 H 340.874 4.21189 -0.133392 0
M  V30 3716 H 339.549 3.19802 0.500817 0
M  V30 3717 H 338.456 3.27102 -1.81535 0
M  V30 3718 H 339.789 4.31317 -2.37121 0
M  V30 3719 N 341.441 0.965919 1.2453 0
M  V30 3720 C 342.666 0.643971 1.97149 0
M  V30 3721 C 343.091 -0.779487 1.71189 0
M  V30 3722 O 342.449 -1.5288 0.974553 0
M  V30 3723 C 342.497 0.922557 3.48599 0
M  V30 3724 O 341.601 0.00707672 4.12399 0
M  V30 3725 H 340.942 0.243647 0.617683 0
M  V30 3726 H 343.472 1.29558 1.58353 0
M  V30 3727 H 343.482 0.853373 3.98976 0
M  V30 3728 H 342.157 1.95996 3.66822 0
M  V30 3729 H 340.734 0.12943 3.72675 0
M  V30 3730 N 342.919 -1.39368 0.735821 0
M  V30 3731 C 343.849 -2.33234 0.111506 0
M  V30 3732 C 344.83 -1.53954 -0.723334 0
M  V30 3733 O 346.015 -1.82344 -0.668147 0
M  V30 3734 C 343.145 -3.38057 -0.795917 0
M  V30 3735 C 342.099 -4.2795 -0.065172 0
M  V30 3736 C 341.425 -5.23479 -1.08967 0
M  V30 3737 C 342.725 -5.10741 1.09273 0
M  V30 3738 H 344.419 -2.85692 0.895571 0
M  V30 3739 H 341.965 -1.37364 0.432109 0
M  V30 3740 H 343.918 -4.02675 -1.24221 0
M  V30 3741 H 342.642 -2.8404 -1.61211 0
M  V30 3742 H 341.301 -3.64813 0.361511 0
M  V30 3743 H 340.949 -4.65758 -1.89944 0
M  V30 3744 H 340.649 -5.84472 -0.605489 0
M  V30 3745 H 342.173 -5.90974 -1.53565 0
M  V30 3746 H 343.587 -5.68699 0.724841 0
M  V30 3747 H 341.984 -5.8088 1.50659 0
M  V30 3748 H 343.054 -4.45525 1.91404 0
M  V30 3749 N 344.397 -0.483516 -1.5 0
M  V30 3750 C 345.643 0.0593261 -2.03313 0
M  V30 3751 C 345.998 1.36288 -1.35806 0
M  V30 3752 O 345.291 1.85519 -0.478897 0
M  V30 3753 C 345.485 0.286226 -3.56252 0
M  V30 3754 C 345.314 -0.993788 -4.38582 0
M  V30 3755 C 344.084 -1.54064 -4.81241 0
M  V30 3756 C 346.282 -1.89249 -4.78215 0
M  V30 3757 N 344.264 -2.76838 -5.47936 0
M  V30 3758 C 345.635 -2.96606 -5.44449 0
M  V30 3759 C 347.69 -1.90138 -4.60165 0
M  V30 3760 C 346.393 -4.04857 -5.94544 0
M  V30 3761 C 348.419 -2.97353 -5.1121 0
M  V30 3762 C 347.781 -4.03429 -5.77429 0
M  V30 3763 H 343.88 -0.0186322 -0.781778 0
M  V30 3764 H 346.464 -0.654489 -1.8337 0
M  V30 3765 H 344.635 0.969086 -3.76116 0
M  V30 3766 H 346.367 0.824515 -3.96212 0
M  V30 3767 H 343.122 -1.08813 -4.6093 0
M  V30 3768 H 343.546 -3.39221 -5.85882 0
M  V30 3769 H 348.188 -1.09441 -4.0839 0
M  V30 3770 H 345.906 -4.86363 -6.4535 0
M  V30 3771 H 349.492 -2.99039 -4.99066 0
M  V30 3772 H 348.372 -4.85025 -6.16214 0
M  V30 3773 N 345.875 1.56104 -0.216619 0
M  V30 3774 C 347.124 1.97348 0.416744 0
M  V30 3775 C 347.437 1.10715 1.6125 0
M  V30 3776 O 348.643 1.41836 2.31506 0
M  V30 3777 C 347.099 3.51059 0.792835 0
M  V30 3778 C 346.707 4.46387 -0.379828 0
M  V30 3779 C 348.451 4.01026 1.39208 0
M  V30 3780 C 346.358 5.91397 0.0184223 0
M  V30 3781 H 345.288 0.736942 0.159475 0
M  V30 3782 H 347.939 1.80827 -0.31205 0
M  V30 3783 H 346.321 3.63162 1.57891 0
M  V30 3784 H 347.495 4.46029 -1.15737 0
M  V30 3785 H 345.81 4.06734 -0.891979 0
M  V30 3786 H 348.407 5.0686 1.70286 0
M  V30 3787 H 348.75 3.46587 2.30614 0
M  V30 3788 H 349.283 3.92125 0.669537 0
M  V30 3789 H 346.022 6.49807 -0.862002 0
M  V30 3790 H 345.542 5.94961 0.760384 0
M  V30 3791 H 347.221 6.45455 0.446818 0
M  V30 3792 N 347.353 -0.0568162 1.57498 0
M  V30 3793 C 348.303 -1.07315 2.01166 0
M  V30 3794 C 349.287 -1.33632 0.896171 0
M  V30 3795 O 350.479 -1.33682 1.16009 0
M  V30 3796 C 347.608 -2.38257 2.47161 0
M  V30 3797 C 346.694 -2.1515 3.65474 0
M  V30 3798 N 347.085 -1.62014 4.7915 0
M  V30 3799 C 345.383 -2.45559 3.72313 0
M  V30 3800 C 346.084 -1.54069 5.60926 0
M  V30 3801 N 345.06 -2.00652 5.05213 0
M  V30 3802 H 348.862 -0.655878 2.86488 0
M  V30 3803 H 346.376 -0.263635 1.60246 0
M  V30 3804 H 348.373 -3.11845 2.76691 0
M  V30 3805 H 347.033 -2.80687 1.63232 0
M  V30 3806 H 348.044 -1.30667 5.01145 0
M  V30 3807 H 344.721 -2.91253 2.99129 0
M  V30 3808 H 346.111 -1.13712 6.62208 0
M  V30 3809 N 348.832 -1.54138 -0.328536 0
M  V30 3810 C 350.078 -1.7236 -1.06865 0
M  V30 3811 C 350.411 -0.493231 -1.87832 0
M  V30 3812 O 349.686 0.5098 -1.877 0
M  V30 3813 C 349.969 -2.99621 -1.99747 0
M  V30 3814 C 349.822 -4.32899 -1.22143 0
M  V30 3815 C 351.141 -3.22615 -2.99345 0
M  V30 3816 H 348.26 -0.627151 -0.387105 0
M  V30 3817 H 350.902 -1.86827 -0.345767 0
M  V30 3818 H 349.052 -2.87418 -2.61387 0
M  V30 3819 H 350.724 -4.56978 -0.630017 0
M  V30 3820 H 348.967 -4.30628 -0.523628 0
M  V30 3821 H 349.638 -5.18154 -1.90318 0
M  V30 3822 H 352.114 -3.34248 -2.47826 0
M  V30 3823 H 350.99 -4.13027 -3.61524 0
M  V30 3824 H 351.251 -2.3961 -3.71536 0
M  V30 3825 N 350.31 0.590341 -1.46126 0
M  V30 3826 C 351.558 1.34616 -1.50742 0
M  V30 3827 C 351.879 1.94363 -0.157486 0
M  V30 3828 O 351.149 1.78136 0.815136 0
M  V30 3829 H 349.729 0.499789 -0.555175 0
M  V30 3830 H 352.391 0.691953 -1.82203 0
M  V30 3831 H 351.487 2.15678 -2.25587 0
M  V30 3832 N 351.788 1.33704 0.83433 0
M  V30 3833 C 353.016 1.28467 1.62185 0
M  V30 3834 C 353.431 -0.143526 1.88254 0
M  V30 3835 O 352.788 -1.08709 1.4659 0
M  V30 3836 C 352.839 2.06174 2.96942 0
M  V30 3837 O 352.56 3.43422 2.72016 0
M  V30 3838 C 354.061 2.08201 3.91366 0
M  V30 3839 H 351.281 0.4424 0.504503 0
M  V30 3840 H 353.825 1.76145 1.03891 0
M  V30 3841 H 351.98 1.62167 3.51825 0
M  V30 3842 H 352.394 3.83453 3.57861 0
M  V30 3843 H 353.868 2.67017 4.83121 0
M  V30 3844 H 354.345 1.07343 4.2588 0
M  V30 3845 H 354.951 2.52246 3.42421 0
M  V30 3846 N 353.266 -1.05314 1.17247 0
M  V30 3847 C 354.515 -1.77685 0.954521 0
M  V30 3848 C 354.828 -1.88616 -0.518025 0
M  V30 3849 O 356.034 -2.57714 -0.854144 0
M  V30 3850 C 354.49 -3.19402 1.65863 0
M  V30 3851 C 354.098 -3.16605 3.16963 0
M  V30 3852 C 355.842 -3.96237 1.52303 0
M  V30 3853 C 353.749 -4.53103 3.80068 0
M  V30 3854 H 352.679 -0.666 0.353496 0
M  V30 3855 H 355.33 -1.1805 1.40486 0
M  V30 3856 H 353.712 -3.79355 1.13602 0
M  V30 3857 H 354.886 -2.66176 3.76148 0
M  V30 3858 H 353.201 -2.53268 3.30521 0
M  V30 3859 H 355.798 -4.97157 1.96822 0
M  V30 3860 H 356.141 -4.136 0.473401 0
M  V30 3861 H 356.674 -3.42829 2.01775 0
M  V30 3862 H 353.413 -4.40946 4.85023 0
M  V30 3863 H 352.933 -5.03686 3.2567 0
M  V30 3864 H 354.612 -5.22045 3.82202 0
M  V30 3865 N 354.744 -0.972509 -1.24016 0
M  V30 3866 C 355.691 -0.505969 -2.25186 0
M  V30 3867 C 356.661 0.451009 -1.5986 0
M  V30 3868 O 357.846 0.360307 -1.87367 0
M  V30 3869 C 354.986 0.193089 -3.44559 0
M  V30 3870 C 354.099 -0.803222 -4.24467 0
M  V30 3871 C 353.234 -0.0797793 -5.3114 0
M  V30 3872 C 352.273 -1.06583 -6.02749 0
M  V30 3873 N 351.41 -0.372074 -7.01113 0
M  V30 3874 H 356.25 -1.37351 -2.64459 0
M  V30 3875 H 353.787 -0.688419 -1.29997 0
M  V30 3876 H 355.745 0.615125 -4.1264 0
M  V30 3877 H 354.375 1.02455 -3.06109 0
M  V30 3878 H 353.427 -1.34368 -3.55878 0
M  V30 3879 H 354.739 -1.55494 -4.73944 0
M  V30 3880 H 353.893 0.400015 -6.0538 0
M  V30 3881 H 352.632 0.704597 -4.82583 0
M  V30 3882 H 351.637 -1.55645 -5.27309 0
M  V30 3883 H 352.862 -1.85074 -6.53395 0
M  V30 3884 H 350.808 0.393238 -6.5482 0
M  V30 3885 H 350.725 -1.06258 -7.48495 0
M  V30 3886 H 351.993 0.0855932 -7.79453 0
M  V30 3887 N 356.222 1.38976 -0.743202 0
M  V30 3888 C 357.17 2.32394 -0.0978389 0
M  V30 3889 C 358.164 1.53486 0.716824 0
M  V30 3890 O 359.37 1.69092 0.617088 0
M  V30 3891 H 355.745 0.75189 -0.0128402 0
M  V30 3892 H 357.716 2.84441 -0.901981 0
M  V30 3893 C 356.465 3.38629 0.789036 0
M  V30 3894 H 355.788 3.99432 0.171559 0
M  V30 3895 H 357.228 4.06426 1.20807 0
M  V30 3896 C 355.687 2.76347 1.92702 0
M  V30 3897 O 356.217 2.64836 3.02034 0
M  V30 3898 N 354.423 2.34311 1.71891 0
M  V30 3899 H 353.97 2.43873 0.829675 0
M  V30 3900 H 353.928 1.9298 2.48205 0
M  V30 3901 N 357.7 0.491464 1.49741 0
M  V30 3902 C 358.633 -0.338464 2.25676 0
M  V30 3903 C 359.611 -0.978676 1.29849 0
M  V30 3904 O 360.795 -1.01064 1.59117 0
M  V30 3905 C 357.922 -1.47588 3.04853 0
M  V30 3906 C 356.968 -0.951 4.15762 0
M  V30 3907 S 357.801 0.150626 5.35288 0
M  V30 3908 C 358.957 -0.990178 6.18018 0
M  V30 3909 H 359.19 0.306068 2.9572 0
M  V30 3910 H 356.723 0.276622 1.51902 0
M  V30 3911 H 358.681 -2.12764 3.51058 0
M  V30 3912 H 357.342 -2.09199 2.34296 0
M  V30 3913 H 356.535 -1.80311 4.70642 0
M  V30 3914 H 356.137 -0.376607 3.72099 0
M  V30 3915 H 358.429 -1.89748 6.50386 0
M  V30 3916 H 359.372 -0.480205 7.0647 0
M  V30 3917 H 359.78 -1.25321 5.50413 0
M  V30 3918 N 359.178 -1.55987 0.224894 0
M  V30 3919 C 360.427 -1.97566 -0.406273 0
M  V30 3920 C 360.74 -1.11569 -1.6066 0
M  V30 3921 O 361.946 -1.43062 -2.3075 0
M  V30 3922 C 360.402 -3.51474 -0.774207 0
M  V30 3923 C 360.01 -4.46179 0.403496 0
M  V30 3924 C 361.754 -4.01758 -1.37079 0
M  V30 3925 C 359.661 -5.91399 0.0129412 0
M  V30 3926 H 358.591 -0.737777 -0.155565 0
M  V30 3927 H 361.242 -1.80659 0.321635 0
M  V30 3928 H 359.624 -3.63994 -1.55963 0
M  V30 3929 H 360.798 -4.45409 1.18101 0
M  V30 3930 H 359.113 -4.06255 0.913536 0
M  V30 3931 H 361.71 -5.07756 -1.67596 0
M  V30 3932 H 362.053 -3.47805 -2.28773 0
M  V30 3933 H 362.586 -3.92475 -0.648733 0
M  V30 3934 H 359.325 -6.49341 0.896451 0
M  V30 3935 H 358.845 -5.95356 -0.728821 0
M  V30 3936 H 360.524 -6.45683 -0.412582 0
M  V30 3937 N 360.656 0.0484629 -1.57525 0
M  V30 3938 C 361.904 0.741657 -1.88 0
M  V30 3939 C 362.225 1.76918 -0.820054 0
M  V30 3940 O 361.495 1.95335 0.148661 0
M  V30 3941 H 360.075 0.276908 -0.69378 0
M  V30 3942 H 362.737 0.019013 -1.94891 0
M  V30 3943 H 361.833 1.24336 -2.86264 0
M  V30 3944 N 362.134 1.5431 0.320358 0
M  V30 3945 C 363.364 1.7638 1.07582 0
M  V30 3946 C 363.772 0.513944 1.82086 0
M  V30 3947 O 363.115 -0.525123 1.76035 0
M  V30 3948 C 363.177 2.9055 2.1171 0
M  V30 3949 C 362.841 4.2934 1.56575 0
M  V30 3950 C 363.838 5.10077 1.00586 0
M  V30 3951 C 361.523 4.75893 1.60722 0
M  V30 3952 C 363.517 6.35477 0.494756 0
M  V30 3953 C 361.204 6.0126 1.09224 0
M  V30 3954 C 362.202 6.80886 0.53696 0
M  V30 3955 O 361.89 8.03894 0.0297371 0
M  V30 3956 H 361.622 0.592369 0.325692 0
M  V30 3957 H 364.176 2.02019 0.37116 0
M  V30 3958 H 362.406 2.60489 2.85801 0
M  V30 3959 H 364.095 3.00373 2.73003 0
M  V30 3960 H 364.861 4.75265 0.966869 0
M  V30 3961 H 360.74 4.13957 2.02882 0
M  V30 3962 H 364.284 6.97574 0.0606842 0
M  V30 3963 H 360.181 6.35562 1.12831 0
M  V30 3964 H 360.949 8.18372 0.14486 0
M  V30 3965 N 363.613 -0.582584 1.46437 0
M  V30 3966 C 364.576 -1.67366 1.56592 0
M  V30 3967 C 365.576 -1.54575 0.443072 0
M  V30 3968 O 366.766 -1.59191 0.707381 0
M  V30 3969 C 363.898 -3.06791 1.48634 0
M  V30 3970 H 365.091 -1.5972 2.5383 0
M  V30 3971 H 362.644 -0.800432 1.34249 0
M  V30 3972 H 363.379 -3.19993 0.526763 0
M  V30 3973 H 363.164 -3.17484 2.30101 0
M  V30 3974 H 364.654 -3.86218 1.58826 0
M  V30 3975 N 365.091 -1.34144 -0.827227 0
M  V30 3976 C 366.038 -1.25364 -1.93785 0
M  V30 3977 C 367.008 -0.129774 -1.65592 0
M  V30 3978 O 368.193 -0.310024 -1.88264 0
M  V30 3979 C 365.333 -1.01064 -3.2997 0
M  V30 3980 C 364.446 -2.22185 -3.70484 0
M  V30 3981 C 363.581 -1.91203 -4.95595 0
M  V30 3982 C 362.62 -3.08491 -5.28677 0
M  V30 3983 N 361.757 -2.77421 -6.44967 0
M  V30 3984 H 366.597 -2.20347 -2.00627 0
M  V30 3985 H 364.134 -1.09558 -0.981608 0
M  V30 3986 H 366.092 -0.850139 -4.08446 0
M  V30 3987 H 364.722 -0.0975026 -3.22653 0
M  V30 3988 H 363.774 -2.4917 -2.87434 0
M  V30 3989 H 365.086 -3.0983 -3.90905 0
M  V30 3990 H 364.24 -1.71864 -5.81848 0
M  V30 3991 H 362.979 -1.00812 -4.77167 0
M  V30 3992 H 361.984 -3.28431 -4.40923 0
M  V30 3993 H 363.209 -3.99655 -5.49047 0
M  V30 3994 H 361.155 -1.89601 -6.28003 0
M  V30 3995 H 361.072 -3.58598 -6.6554 0
M  V30 3996 H 362.34 -2.61577 -7.34301 0
M  V30 3997 N 366.569 1.04691 -1.17803 0
M  V30 3998 C 367.516 2.12557 -0.899343 0
M  V30 3999 C 368.486 1.65339 0.158771 0
M  V30 4000 O 369.671 1.90789 0.0204797 0
M  V30 4001 C 366.811 3.42481 -0.424315 0
M  V30 4002 C 365.924 4.03346 -1.54713 0
M  V30 4003 C 365.059 5.21208 -1.02546 0
M  V30 4004 C 364.098 5.74089 -2.12339 0
M  V30 4005 N 363.235 6.83247 -1.61612 0
M  V30 4006 H 368.075 2.35734 -1.823 0
M  V30 4007 H 365.612 1.1564 -0.909159 0
M  V30 4008 H 367.57 4.16996 -0.130421 0
M  V30 4009 H 366.2 3.19471 0.462377 0
M  V30 4010 H 365.252 3.2622 -1.95664 0
M  V30 4011 H 366.564 4.38628 -2.37501 0
M  V30 4012 H 365.718 6.02812 -0.685718 0
M  V30 4013 H 364.457 4.87414 -0.167084 0
M  V30 4014 H 363.462 4.91111 -2.47165 0
M  V30 4015 H 364.687 6.0993 -2.98601 0
M  V30 4016 H 362.633 6.5134 -0.780533 0
M  V30 4017 H 362.55 7.17559 -2.38003 0
M  V30 4018 H 363.818 7.68491 -1.30545 0
M  V30 4019 N 368.047 0.979072 1.23499 0
M  V30 4020 C 368.977 0.537606 2.27227 0
M  V30 4021 C 369.958 -0.428539 1.64613 0
M  V30 4022 O 371.143 -0.322191 1.91509 0
M  V30 4023 C 368.273 -0.162052 3.46922 0
M  V30 4024 C 367.227 0.721242 4.21879 0
M  V30 4025 C 366.553 -0.110555 5.34586 0
M  V30 4026 C 367.853 2.01141 4.82016 0
M  V30 4027 H 369.547 1.40462 2.64406 0
M  V30 4028 H 367.093 0.67684 1.27102 0
M  V30 4029 H 369.046 -0.482192 4.18632 0
M  V30 4030 H 367.77 -1.06351 3.08799 0
M  V30 4031 H 366.429 1.02482 3.51984 0
M  V30 4032 H 366.077 -1.0125 4.92704 0
M  V30 4033 H 365.777 0.477325 5.85658 0
M  V30 4034 H 367.301 -0.425107 6.09118 0
M  V30 4035 H 368.715 1.75612 5.45741 0
M  V30 4036 H 367.112 2.54695 5.43369 0
M  V30 4037 H 368.182 2.69909 4.02836 0
M  V30 4038 N 369.525 -1.3858 0.750561 0
M  V30 4039 C 370.772 -2.00184 0.305373 0
M  V30 4040 C 371.1 -1.59575 -1.11203 0
M  V30 4041 O 370.355 -0.823236 -1.77542 0
M  V30 4042 C 370.654 -3.55455 0.372373 0
M  V30 4043 C 370.32 -4.15765 1.745 0
M  V30 4044 C 368.982 -4.31951 2.12065 0
M  V30 4045 C 371.334 -4.49067 2.64553 0
M  V30 4046 C 368.662 -4.78734 3.39162 0
M  V30 4047 C 371.014 -4.97265 3.91038 0
M  V30 4048 C 369.678 -5.11658 4.28676 0
M  V30 4049 H 368.948 -0.732526 0.111744 0
M  V30 4050 H 371.595 -1.65673 0.960451 0
M  V30 4051 H 369.9 -3.90084 -0.366272 0
M  V30 4052 H 371.597 -4.00999 0.00953918 0
M  V30 4053 H 368.187 -4.03579 1.44297 0
M  V30 4054 H 372.371 -4.36166 2.36796 0
M  V30 4055 H 367.627 -4.88062 3.68246 0
M  V30 4056 H 371.801 -5.22003 4.60962 0
M  V30 4057 H 369.428 -5.47668 5.27222 0
M  V30 4058 N 371.003 -0.499398 -1.49478 0
M  V30 4059 C 371.95 0.279881 -2.29097 0
M  V30 4060 C 372.92 0.961805 -1.3542 0
M  V30 4061 O 374.105 0.968777 -1.64376 0
M  V30 4062 C 371.245 1.33932 -3.18051 0
M  V30 4063 C 370.358 0.669333 -4.26783 0
M  V30 4064 C 369.493 1.70907 -5.02955 0
M  V30 4065 C 368.532 1.02087 -6.03527 0
M  V30 4066 N 367.669 2.00474 -6.7287 0
M  V30 4067 H 372.509 -0.405317 -2.95231 0
M  V30 4068 H 370.046 -0.211726 -1.45568 0
M  V30 4069 H 372.004 1.96553 -3.67998 0
M  V30 4070 H 370.634 1.9933 -2.53904 0
M  V30 4071 H 369.686 -0.0701234 -3.80335 0
M  V30 4072 H 370.998 0.127503 -4.98637 0
M  V30 4073 H 370.152 2.41037 -5.56764 0
M  V30 4074 H 368.891 2.28476 -4.30871 0
M  V30 4075 H 367.896 0.305338 -5.48951 0
M  V30 4076 H 369.121 0.451708 -6.77596 0
M  V30 4077 H 367.067 2.57007 -6.03559 0
M  V30 4078 H 366.984 1.51353 -7.40694 0
M  V30 4079 H 368.252 2.69897 -7.31284 0
M  V30 4080 N 372.481 1.55866 -0.233164 0
M  V30 4081 C 373.428 2.20796 0.67215 0
M  V30 4082 C 374.398 1.16731 1.18166 0
M  V30 4083 O 375.583 1.45129 1.23864 0
M  V30 4084 C 372.723 2.90072 1.86955 0
M  V30 4085 C 371.836 4.08759 1.39786 0
M  V30 4086 C 370.971 4.65787 2.55374 0
M  V30 4087 C 370.01 5.76752 2.04998 0
M  V30 4088 N 369.147 6.28021 3.13901 0
M  V30 4089 H 373.987 2.9779 0.111749 0
M  V30 4090 H 371.524 1.47036 0.0434007 0
M  V30 4091 H 373.482 3.28428 2.57276 0
M  V30 4092 H 372.112 2.15575 2.40265 0
M  V30 4093 H 371.164 3.7581 0.589173 0
M  V30 4094 H 372.476 4.88906 0.98856 0
M  V30 4095 H 371.63 5.06646 3.33758 0
M  V30 4096 H 370.369 3.84828 2.99598 0
M  V30 4097 H 369.374 5.35383 1.25079 0
M  V30 4098 H 370.599 6.59553 1.61759 0
M  V30 4099 H 368.545 5.49971 3.57586 0
M  V30 4100 H 368.462 7.03323 2.7726 0
M  V30 4101 H 369.73 6.73538 3.92386 0
M  V30 4102 N 373.959 -0.0401083 1.57549 0
M  V30 4103 C 375.205 -0.734211 1.89043 0
M  V30 4104 C 375.538 -1.75591 0.829535 0
M  V30 4105 O 374.813 -1.93868 -0.156706 0
M  V30 4106 C 375.096 -1.41374 3.31188 0
M  V30 4107 C 374.949 -0.406299 4.47961 0
M  V30 4108 C 376.268 -2.35061 3.72068 0
M  V30 4109 H 373.387 -0.265447 0.687537 0
M  V30 4110 H 376.029 0.00294087 1.9 0
M  V30 4111 H 374.179 -2.04206 3.30503 0
M  V30 4112 H 375.851 0.219255 4.60779 0
M  V30 4113 H 374.094 0.275485 4.32924 0
M  V30 4114 H 374.765 -0.920022 5.44279 0
M  V30 4115 H 377.241 -1.82282 3.74049 0
M  V30 4116 H 376.117 -2.79593 4.72355 0
M  V30 4117 H 376.378 -3.21258 3.0372 0
M  V30 4118 N 375.437 -1.54477 -0.31217 0
M  V30 4119 C 376.347 -1.87695 -1.4074 0
M  V30 4120 C 377.363 -0.769975 -1.56036 0
M  V30 4121 O 378.539 -1.06537 -1.70915 0
M  V30 4122 C 375.604 -2.10755 -2.75287 0
M  V30 4123 C 374.665 -3.34514 -2.69071 0
M  V30 4124 C 373.898 -3.56465 -3.97201 0
M  V30 4125 O 374.121 -2.81637 -4.96021 0
M  V30 4126 O 373.055 -4.49964 -3.9977 0
M  V30 4127 H 376.881 -2.80849 -1.15574 0
M  V30 4128 H 374.466 -1.40526 -0.507228 0
M  V30 4129 H 376.348 -2.27188 -3.54913 0
M  V30 4130 H 375.023 -1.20788 -3.0032 0
M  V30 4131 H 373.93 -3.23456 -1.87955 0
M  V30 4132 H 375.263 -4.24575 -2.48992 0
M  V30 4133 N 376.915 0.57481 -1.46744 0
M  V30 4134 C 378.145 1.35659 -1.55821 0
M  V30 4135 C 378.553 1.88129 -0.201036 0
M  V30 4136 O 377.896 1.64723 0.813134 0
M  V30 4137 C 377.958 2.57473 -2.50894 0
M  V30 4138 C 377.622 2.26415 -3.9697 0
M  V30 4139 C 378.619 1.84771 -4.85958 0
M  V30 4140 C 376.304 2.38316 -4.42166 0
M  V30 4141 C 378.298 1.55434 -6.18158 0
M  V30 4142 C 375.985 2.08591 -5.74398 0
M  V30 4143 C 376.983 1.67216 -6.62214 0
M  V30 4144 O 376.671 1.37859 -7.91991 0
M  V30 4145 H 376.403 0.420496 -0.529301 0
M  V30 4146 H 378.957 0.704967 -1.92923 0
M  V30 4147 H 377.187 3.25468 -2.08824 0
M  V30 4148 H 378.876 3.19546 -2.50291 0
M  V30 4149 H 379.642 1.75085 -4.52295 0
M  V30 4150 H 375.521 2.69483 -3.74032 0
M  V30 4151 H 379.065 1.23065 -6.86659 0
M  V30 4152 H 374.962 2.17905 -6.07608 0
M  V30 4153 H 375.73 1.51638 -8.04331 0
M  V30 4154 N 378.394 1.34581 0.820102 0
M  V30 4155 C 379.357 1.2628 1.91275 0
M  V30 4156 C 380.357 0.177344 1.59819 0
M  V30 4157 O 381.547 0.430156 1.68806 0
M  V30 4158 C 378.679 0.950327 3.27386 0
M  V30 4159 H 379.872 2.23421 2.00057 0
M  V30 4160 H 377.425 1.1891 1.0144 0
M  V30 4161 H 378.16 -0.0177938 3.24295 0
M  V30 4162 H 377.945 1.73549 3.51601 0
M  V30 4163 H 379.435 0.917492 4.07396 0
M  V30 4164 N 379.872 -1.04064 1.18357 0
M  V30 4165 C 380.82 -2.14187 0.907007 0
M  V30 4166 C 381.814 -1.68879 -0.132725 0
M  V30 4167 O 383.02 -1.79993 0.0154248 0
M  V30 4168 H 379.395 -0.699585 0.275835 0
M  V30 4169 H 381.366 -2.34711 1.84264 0
M  V30 4170 C 380.115 -3.44785 0.449254 0
M  V30 4171 H 379.438 -3.80058 1.24081 0
M  V30 4172 H 380.878 -4.22974 0.294737 0
M  V30 4173 C 379.337 -3.26391 -0.834909 0
M  V30 4174 O 379.867 -3.53973 -1.89911 0
M  V30 4175 N 378.073 -2.79726 -0.787523 0
M  V30 4176 H 377.62 -2.5748 0.0787347 0
M  V30 4177 H 377.578 -2.67798 -1.64716 0
M  V30 4178 N 381.35 -0.985608 -1.22978 0
M  V30 4179 C 382.599 -0.652881 -1.90841 0
M  V30 4180 C 382.912 0.817842 -1.77681 0
M  V30 4181 O 384.118 1.26185 -2.40395 0
M  V30 4182 C 382.574 -1.11717 -3.42122 0
M  V30 4183 C 382.182 -2.6126 -3.63933 0
M  V30 4184 C 383.926 -0.85843 -4.1573 0
M  V30 4185 C 381.833 -3.0133 -5.08876 0
M  V30 4186 H 380.763 -0.240491 -0.714619 0
M  V30 4187 H 383.414 -1.1942 -1.39324 0
M  V30 4188 H 381.796 -0.504027 -3.92779 0
M  V30 4189 H 382.97 -3.27858 -3.23799 0
M  V30 4190 H 381.285 -2.84937 -3.03644 0
M  V30 4191 H 383.882 -1.13359 -5.22546 0
M  V30 4192 H 384.225 0.205461 -4.15793 0
M  V30 4193 H 384.758 -1.43341 -3.71077 0
M  V30 4194 H 381.497 -4.06864 -5.13947 0
M  V30 4195 H 381.017 -2.3943 -5.49939 0
M  V30 4196 H 382.696 -2.92224 -5.77247 0
M  V30 4197 N 382.828 1.3818 -0.7579 0
M  V30 4198 C 384.053 2.04827 -0.325679 0
M  V30 4199 C 384.478 1.56788 1.03919 0
M  V30 4200 O 383.836 0.721811 1.66312 0
M  V30 4201 C 383.884 3.58774 -0.362447 0
M  V30 4202 O 382.988 4.07372 0.642033 0
M  V30 4203 H 382.329 0.64833 -0.143402 0
M  V30 4204 H 384.859 1.7677 -1.03023 0
M  V30 4205 H 384.869 4.07434 -0.214844 0
M  V30 4206 H 383.544 3.93096 -1.35824 0
M  V30 4207 H 382.121 3.70068 0.458688 0
M  V30 4208 N 384.306 0.507319 1.49211 0
M  V30 4209 C 385.555 -0.0368315 2.01666 0
M  V30 4210 C 385.868 -1.37459 1.39156 0
M  V30 4211 O 387.074 -2.00579 1.82976 0
M  V30 4212 C 385.53 -0.116089 3.59713 0
M  V30 4213 C 385.138 1.2154 4.31198 0
M  V30 4214 C 386.882 -0.610268 4.2009 0
M  V30 4215 C 384.789 1.09796 5.81119 0
M  V30 4216 H 383.719 -0.0175376 0.753796 0
M  V30 4217 H 386.37 0.647691 1.71689 0
M  V30 4218 H 384.752 -0.8652 3.86433 0
M  V30 4219 H 385.926 1.9783 4.16173 0
M  V30 4220 H 384.241 1.64352 3.82593 0
M  V30 4221 H 386.838 -0.715742 5.29888 0
M  V30 4222 H 387.181 -1.61064 3.8388 0
M  V30 4223 H 387.714 0.0824916 3.97714 0
M  V30 4224 H 384.453 2.0728 6.21864 0
M  V30 4225 H 383.973 0.376058 5.9862 0
M  V30 4226 H 385.652 0.779281 6.4229 0
M  V30 4227 N 385.784 -1.5574 0.241426 0
M  V30 4228 C 387.195 -1.84842 -0.262755 0
M  V30 4229 C 387.546 -1.16317 -1.58003 0
M  V30 4230 O 386.671 -0.439653 -2.11887 0
M  V30 4231 C 387.266 -3.35332 -0.483523 0
M  V30 4232 C 385.825 -3.6468 -0.931977 0
M  V30 4233 C 384.972 -2.77299 -0.0061151 0
M  V30 4234 H 387.923 -1.51761 0.464129 0
M  V30 4235 H 387.944 -3.56615 -1.32688 0
M  V30 4236 H 387.456 -3.85178 0.47537 0
M  V30 4237 H 385.557 -3.20307 -1.90353 0
M  V30 4238 H 385.67 -4.72498 -0.792628 0
M  V30 4239 H 384.034 -2.49408 -0.516503 0
M  V30 4240 H 384.817 -3.2995 0.948052 0
M  V30 4241 N 387.262 0.0317525 -1.57568 0
M  V30 4242 C 388.49 0.734949 -1.93407 0
M  V30 4243 C 388.905 1.69036 -0.84096 0
M  V30 4244 O 388.262 1.81582 0.182836 0
M  V30 4245 C 388.313 1.49432 -3.29169 0
M  V30 4246 O 388.034 0.577261 -4.3428 0
M  V30 4247 C 389.535 2.29492 -3.79273 0
M  V30 4248 H 386.755 0.206706 -0.638368 0
M  V30 4249 H 389.299 -0.00992046 -2.04498 0
M  V30 4250 H 387.454 2.1911 -3.19483 0
M  V30 4251 H 387.868 1.10952 -5.1263 0
M  V30 4252 H 389.342 2.78172 -4.76785 0
M  V30 4253 H 389.819 3.10794 -3.10328 0
M  V30 4254 H 390.425 1.64894 -3.92033 0
M  V30 4255 N 388.74 1.54641 0.303973 0
M  V30 4256 C 389.97 1.77511 1.05705 0
M  V30 4257 C 390.378 0.533228 1.81531 0
M  V30 4258 O 389.721 -0.506423 1.76582 0
M  V30 4259 C 389.783 2.92779 2.08617 0
M  V30 4260 C 389.447 4.30977 1.52013 0
M  V30 4261 C 390.444 5.11115 0.9517 0
M  V30 4262 C 388.129 4.77571 1.55665 0
M  V30 4263 C 390.123 6.35966 0.427327 0
M  V30 4264 C 387.81 6.02384 1.02841 0
M  V30 4265 C 388.808 6.81417 0.464713 0
M  V30 4266 O 388.496 8.03881 -0.0555283 0
M  V30 4267 H 388.228 0.59579 0.319391 0
M  V30 4268 H 390.782 2.02401 0.349712 0
M  V30 4269 H 389.012 2.63506 2.83022 0
M  V30 4270 H 390.701 3.03252 2.69802 0
M  V30 4271 H 391.467 4.76264 0.916407 0
M  V30 4272 H 387.346 4.16085 1.9848 0
M  V30 4273 H 390.89 6.97599 -0.0133062 0
M  V30 4274 H 386.787 6.36723 1.06084 0
M  V30 4275 H 387.555 8.18479 0.0580522 0
M  V30 4276 N 390.218 -0.567019 1.47046 0
M  V30 4277 C 391.629 -1.14916 1.47143 0
M  V30 4278 C 391.98 -1.94954 0.220767 0
M  V30 4279 O 391.105 -2.05602 -0.67505 0
M  V30 4280 C 391.7 -2.09069 2.666 0
M  V30 4281 C 390.259 -2.62575 2.69687 0
M  V30 4282 C 389.406 -1.38755 2.40088 0
M  V30 4283 H 392.357 -0.354126 1.54699 0
M  V30 4284 H 392.378 -2.92789 2.43011 0
M  V30 4285 H 391.89 -1.50789 3.57609 0
M  V30 4286 H 389.991 -3.24681 1.82792 0
M  V30 4287 H 390.104 -3.04239 3.70102 0
M  V30 4288 H 388.468 -1.69098 1.90468 0
M  V30 4289 H 389.251 -0.822822 3.33293 0
M  V30 4290 N 391.696 -1.35014 -0.812953 0
M  V30 4291 C 392.936 -1.29289 -1.58315 0
M  V30 4292 C 393.3 0.132727 -1.91541 0
M  V30 4293 O 394.501 0.314269 -2.66957 0
M  V30 4294 C 392.772 -2.1681 -2.84127 0
M  V30 4295 S 394.331 -2.28538 -3.74588 0
M  V30 4296 H 391.149 -0.459569 -0.542511 0
M  V30 4297 H 393.751 -1.70336 -0.959467 0
M  V30 4298 H 392.455 -3.19379 -2.57731 0
M  V30 4299 H 391.986 -1.76697 -3.51485 0
M  V30 4300 H 394.001 -1.4655 -4.74065 0
M  V30 4301 N 393.175 1.03435 -1.18907 0
M  V30 4302 C 394.423 1.76394 -0.986382 0
M  V30 4303 C 394.744 1.88883 0.484567 0
M  V30 4304 O 394.014 1.41843 1.3512 0
M  V30 4305 H 392.594 0.65344 -0.361975 0
M  V30 4306 H 395.256 1.248 -1.49703 0
M  V30 4307 H 394.352 2.77424 -1.42978 0
M  V30 4308 N 394.653 0.992116 1.22453 0
M  V30 4309 C 395.893 0.675727 1.92907 0
M  V30 4310 C 396.257 -0.777762 1.75542 0
M  V30 4311 O 397.458 -1.20553 2.40251 0
M  V30 4312 C 395.729 1.0696 3.4102 0
M  V30 4313 S 397.288 0.871456 4.30059 0
M  V30 4314 H 394.106 0.247089 0.666684 0
M  V30 4315 H 396.708 1.27423 1.48269 0
M  V30 4316 H 395.412 2.12383 3.51172 0
M  V30 4317 H 394.943 0.462858 3.90668 0
M  V30 4318 H 396.958 -0.238436 4.95627 0
M  V30 4319 N 396.131 -1.37776 0.765217 0
M  V30 4320 C 397.38 -1.99092 0.323307 0
M  V30 4321 C 397.693 -1.61434 -1.10446 0
M  V30 4322 O 398.899 -2.15805 -1.64743 0
M  V30 4323 C 397.355 -3.56019 0.527098 0
M  V30 4324 C 396.963 -4.0262 1.96471 0
M  V30 4325 C 398.707 -4.2424 0.148483 0
M  V30 4326 C 396.614 -5.52233 2.11644 0
M  V30 4327 H 395.544 -0.744846 0.117137 0
M  V30 4328 H 398.195 -1.57391 0.943417 0
M  V30 4329 H 396.577 -3.95667 -0.162372 0
M  V30 4330 H 397.751 -3.74234 2.68859 0
M  V30 4331 H 396.066 -3.47161 2.29931 0
M  V30 4332 H 398.663 -5.34159 0.240456 0
M  V30 4333 H 399.006 -4.06446 -0.900422 0
M  V30 4334 H 399.539 -3.89872 0.79025 0
M  V30 4335 H 396.278 -5.74945 3.1483 0
M  V30 4336 H 395.798 -5.82324 1.4373 0
M  V30 4337 H 397.477 -6.18106 1.91193 0
M  V30 4338 N 397.609 -0.515225 -1.4894 0
M  V30 4339 C 398.857 0.0241671 -2.02086 0
M  V30 4340 C 399.178 1.3616 -1.3959 0
M  V30 4341 O 398.448 1.87841 -0.556121 0
M  V30 4342 H 397.028 0.0119203 -0.746905 0
M  V30 4343 H 399.69 -0.675702 -1.82812 0
M  V30 4344 H 398.786 0.143385 -3.1177 0
M  V30 4345 N 399.087 1.5561 -0.249682 0
M  V30 4346 C 400.336 1.98187 0.37479 0
M  V30 4347 C 400.649 1.14111 1.58865 0
M  V30 4348 O 401.855 1.46714 2.28445 0
M  V30 4349 C 400.311 3.52661 0.718192 0
M  V30 4350 C 399.919 4.45481 -0.474428 0
M  V30 4351 C 401.663 4.03888 1.3067 0
M  V30 4352 C 399.57 5.91303 -0.107026 0
M  V30 4353 H 398.5 0.740159 0.143808 0
M  V30 4354 H 401.151 1.80125 -0.350336 0
M  V30 4355 H 399.533 3.66429 1.50152 0
M  V30 4356 H 400.707 4.43473 -1.25172 0
M  V30 4357 H 399.022 4.04751 -0.978052 0
M  V30 4358 H 401.619 5.10358 1.59496 0
M  V30 4359 H 401.962 3.51401 2.23211 0
M  V30 4360 H 402.495 3.93457 0.586211 0
M  V30 4361 H 399.234 6.47833 -0.999642 0
M  V30 4362 H 398.754 5.9644 0.634013 0
M  V30 4363 H 400.433 6.46258 0.309807 0
M  V30 4364 N 400.565 -0.0233959 1.57583 0
M  V30 4365 C 401.495 -1.02162 2.09965 0
M  V30 4366 C 402.476 -1.3735 1.00344 0
M  V30 4367 O 403.661 -1.46135 1.27899 0
M  V30 4368 C 400.791 -2.32081 2.58371 0
M  V30 4369 C 399.745 -2.1112 3.72307 0
M  V30 4370 C 399.071 -3.46848 4.06941 0
M  V30 4371 C 400.371 -1.49276 5.00514 0
M  V30 4372 H 402.065 -0.585557 2.93618 0
M  V30 4373 H 399.611 -0.280218 1.41247 0
M  V30 4374 H 401.564 -3.02249 2.93639 0
M  V30 4375 H 400.288 -2.77758 1.71808 0
M  V30 4376 H 398.947 -1.43384 3.37397 0
M  V30 4377 H 398.595 -3.90184 3.17436 0
M  V30 4378 H 398.295 -3.33646 4.83688 0
M  V30 4379 H 399.819 -4.18369 4.44747 0
M  V30 4380 H 401.233 -2.09368 5.33702 0
M  V30 4381 H 399.63 -1.46632 5.8191 0
M  V30 4382 H 400.7 -0.459217 4.82721 0
M  V30 4383 N 402.043 -1.548 -0.295768 0
M  V30 4384 C 403.283 -1.76069 -1.03823 0
M  V30 4385 C 403.647 -0.537992 -1.84309 0
M  V30 4386 O 404.848 -0.628514 -2.61349 0
M  V30 4387 C 403.119 -3.01705 -1.91596 0
M  V30 4388 S 404.678 -3.43998 -2.72416 0
M  V30 4389 H 401.496 -0.618852 -0.350062 0
M  V30 4390 H 404.098 -1.93009 -0.31106 0
M  V30 4391 H 402.802 -3.88812 -1.31351 0
M  V30 4392 H 402.333 -2.87366 -2.68671 0
M  V30 4393 H 404.348 -3.0148 -3.94112 0
M  V30 4394 N 403.521 0.559213 -1.47345 0
M  V30 4395 C 404.761 1.32728 -1.55444 0
M  V30 4396 C 405.125 1.90838 -0.210895 0
M  V30 4397 O 406.326 2.68282 -0.166719 0
M  V30 4398 C 404.597 2.4092 -2.63993 0
M  V30 4399 S 406.156 3.2784 -2.91661 0
M  V30 4400 H 402.974 0.451883 -0.548929 0
M  V30 4401 H 405.576 0.640404 -1.84714 0
M  V30 4402 H 404.28 1.9666 -3.60212 0
M  V30 4403 H 403.811 3.14351 -2.36531 0
M  V30 4404 H 405.826 4.40341 -2.28722 0
M  V30 4405 N 404.999 1.35443 0.805782 0
M  V30 4406 C 406.224 1.32037 1.59941 0
M  V30 4407 C 406.649 -0.0994215 1.87837 0
M  V30 4408 O 406.007 -1.06648 1.46615 0
M  V30 4409 C 406.055 2.13354 2.90711 0
M  V30 4410 O 405.159 1.5148 3.83572 0
M  V30 4411 H 404.5 0.452666 0.485787 0
M  V30 4412 H 407.03 1.78496 1.00002 0
M  V30 4413 H 407.04 2.25338 3.40128 0
M  V30 4414 H 405.715 3.16572 2.69732 0
M  V30 4415 H 404.292 1.4834 3.42125 0
M  V30 4416 N 406.477 -1.02803 1.19454 0
M  V30 4417 C 407.424 -2.11099 0.933046 0
M  V30 4418 C 408.394 -1.65571 -0.132447 0
M  V30 4419 O 409.579 -1.90797 0.00987576 0
M  V30 4420 C 406.719 -3.41763 0.478747 0
M  V30 4421 C 405.832 -4.00833 1.6111 0
M  V30 4422 C 404.967 -5.19511 1.10825 0
M  V30 4423 C 404.006 -5.70639 2.21445 0
M  V30 4424 N 403.143 -6.80589 1.72461 0
M  V30 4425 H 407.983 -2.32804 1.86028 0
M  V30 4426 H 405.52 -1.14179 0.927441 0
M  V30 4427 H 407.478 -4.16736 0.196745 0
M  V30 4428 H 406.108 -3.20166 -0.411493 0
M  V30 4429 H 405.16 -3.23066 2.00829 0
M  V30 4430 H 406.472 -4.34794 2.4445 0
M  V30 4431 H 405.626 -6.01645 0.781533 0
M  V30 4432 H 404.365 -4.87086 0.244606 0
M  V30 4433 H 403.37 -4.87116 2.54947 0
M  V30 4434 H 404.595 -6.05102 3.08267 0
M  V30 4435 H 402.541 -6.50016 0.884056 0
M  V30 4436 H 402.458 -7.13681 2.49389 0
M  V30 4437 H 403.726 -7.66317 1.42755 0
M  V30 4438 N 407.956 -0.998596 -1.21925 0
M  V30 4439 C 409.184 -0.696286 -1.94832 0
M  V30 4440 C 409.599 0.740032 -1.73692 0
M  V30 4441 O 408.956 1.5 -1.03953 0
M  V30 4442 C 409.007 -0.999833 -3.47398 0
M  V30 4443 O 408.728 -2.37972 -3.67833 0
M  V30 4444 C 410.229 -0.716025 -4.37479 0
M  V30 4445 H 407.449 -0.257111 -0.619786 0
M  V30 4446 H 409.993 -1.33491 -1.54921 0
M  V30 4447 H 408.148 -0.406918 -3.85257 0
M  V30 4448 H 408.562 -2.48338 -4.61983 0
M  V30 4449 H 410.036 -0.978642 -5.43256 0
M  V30 4450 H 410.513 0.349968 -4.37803 0
M  V30 4451 H 411.119 -1.29025 -4.05256 0
M  V30 4452 N 409.434 1.37368 -0.772513 0
M  V30 4453 C 410.711 1.93839 -0.26188 0
M  V30 4454 C 411.091 1.7061 1.24319 0
M  V30 4455 O 410.439 1.05534 2.02669 0
M  V30 4456 C 410.649 3.43154 -0.636102 0
M  V30 4457 C 411.997 4.20249 -0.606324 0
M  V30 4458 O 413.021 3.5152 -0.575538 0
M  V30 4459 O 411.88 5.42809 -0.634086 0
M  V30 4460 H 408.974 0.82478 -0.0605555 0
M  V30 4461 H 411.52 1.4665 -0.853917 0
M  V30 4462 H 410.292 3.53647 -1.6748 0
M  V30 4463 H 409.915 3.97596 -0.0170516 0
M  V30 4464 N 410.912 0.523116 1.48665 0
M  V30 4465 C 412.14 -0.0096312 2.06898 0
M  V30 4466 C 412.555 -1.28784 1.38059 0
M  V30 4467 O 411.912 -1.76453 0.465893 0
M  V30 4468 C 411.963 -0.244386 3.60673 0
M  V30 4469 O 411.684 0.983172 4.26925 0
M  V30 4470 C 413.185 -0.818289 4.35682 0
M  V30 4471 H 410.405 0.0304161 0.67031 0
M  V30 4472 H 412.949 0.726799 1.91149 0
M  V30 4473 H 411.104 -0.930847 3.76051 0
M  V30 4474 H 411.518 0.759653 5.1897 0
M  V30 4475 H 412.992 -0.93201 5.44075 0
M  V30 4476 H 413.469 -1.82153 3.99646 0
M  V30 4477 H 414.075 -0.168609 4.24966 0
M  V30 4478 N 412.39 -1.55475 0.257931 0
M  V30 4479 C 413.638 -1.98813 -0.363009 0
M  V30 4480 C 413.959 -1.14757 -1.57657 0
M  V30 4481 O 413.229 -0.232956 -1.9451 0
M  V30 4482 H 411.809 -0.734308 -0.137113 0
M  V30 4483 H 414.471 -1.9156 0.359281 0
M  V30 4484 H 413.567 -3.04941 -0.664634 0
M  V30 4485 N 413.868 0.0150385 -1.57593 0
M  V30 4486 C 414.798 1.01047 -2.10503 0
M  V30 4487 C 415.779 1.36816 -1.01071 0
M  V30 4488 O 416.964 1.45455 -1.28672 0
M  V30 4489 C 414.094 2.30708 -2.59598 0
M  V30 4490 C 413.048 2.09142 -3.73421 0
M  V30 4491 C 412.374 3.44685 -4.08774 0
M  V30 4492 C 413.674 1.46619 -5.01298 0
M  V30 4493 H 415.368 0.569978 -2.93925 0
M  V30 4494 H 412.914 0.272724 -1.41394 0
M  V30 4495 H 414.867 3.00687 -2.95238 0
M  V30 4496 H 413.591 2.76843 -1.73279 0
M  V30 4497 H 412.25 1.41592 -3.38153 0
M  V30 4498 H 411.898 3.88495 -3.195 0
M  V30 4499 H 411.598 3.31077 -4.8545 0
M  V30 4500 H 413.122 4.16004 -4.4696 0
M  V30 4501 H 414.536 2.06535 -5.34805 0
M  V30 4502 H 412.933 1.43544 -5.82679 0
M  V30 4503 H 414.003 0.433611 -4.82957 0
M  V30 4504 N 415.346 1.54954 0.287554 0
M  V30 4505 C 416.574 1.78881 1.03967 0
M  V30 4506 C 416.989 0.554894 1.80462 0
M  V30 4507 O 416.346 -0.475676 1.76192 0
M  V30 4508 C 416.397 3.00488 2.0097 0
M  V30 4509 O 416.118 4.19113 1.27577 0
M  V30 4510 C 417.619 3.36907 2.88112 0
M  V30 4511 H 414.839 0.596259 0.307761 0
M  V30 4512 H 417.383 2.01937 0.322749 0
M  V30 4513 H 415.538 2.79601 2.68145 0
M  V30 4514 H 415.952 4.87765 1.92835 0
M  V30 4515 H 417.426 4.25205 3.52001 0
M  V30 4516 H 417.903 2.55659 3.57121 0
M  V30 4517 H 418.509 3.60001 2.26449 0
M  V30 4518 N 416.824 -0.551391 1.4764 0
M  V30 4519 C 417.771 -1.65796 1.60563 0
M  V30 4520 C 418.741 -1.59932 0.448428 0
M  V30 4521 O 419.926 -1.78679 0.669222 0
M  V30 4522 C 417.066 -3.04108 1.63133 0
M  V30 4523 C 416.179 -3.20365 2.89811 0
M  V30 4524 C 415.314 -4.49109 2.8368 0
M  V30 4525 C 414.353 -4.58819 4.05156 0
M  V30 4526 N 413.49 -5.78926 3.97227 0
M  V30 4527 H 418.33 -1.54088 2.5507 0
M  V30 4528 H 415.867 -0.75052 1.26513 0
M  V30 4529 H 417.825 -3.84207 1.62606 0
M  V30 4530 H 416.455 -3.14637 0.721341 0
M  V30 4531 H 415.507 -2.33659 3.00179 0
M  V30 4532 H 416.819 -3.23402 3.79753 0
M  V30 4533 H 415.973 -5.37475 2.81434 0
M  V30 4534 H 414.712 -4.4856 1.91431 0
M  V30 4535 H 413.717 -3.68864 4.077 0
M  V30 4536 H 414.942 -4.61124 4.98539 0
M  V30 4537 H 412.888 -5.79314 3.07785 0
M  V30 4538 H 412.805 -5.83367 4.80853 0
M  V30 4539 H 414.073 -6.69637 3.99007 0
M  V30 4540 N 418.302 -1.35869 -0.798587 0
M  V30 4541 C 419.713 -1.26498 -1.37314 0
M  V30 4542 C 420.064 0.0991899 -1.95949 0
M  V30 4543 O 419.189 1.0004 -1.91888 0
M  V30 4544 C 419.784 -2.29054 -2.49639 0
M  V30 4545 C 418.343 -2.234 -3.02935 0
M  V30 4546 C 417.49 -2.14329 -1.75949 0
M  V30 4547 H 420.441 -1.46881 -0.600971 0
M  V30 4548 H 420.462 -1.92166 -3.28409 0
M  V30 4549 H 419.974 -3.2833 -2.06933 0
M  V30 4550 H 418.075 -1.27562 -3.50084 0
M  V30 4551 H 418.188 -3.15703 -3.60372 0
M  V30 4552 H 416.552 -1.60435 -1.9782 0
M  V30 4553 H 417.335 -3.15477 -1.35384 0
M  V30 4554 N 419.78 1.02168 -1.19998 0
M  V30 4555 C 420.728 2.12717 -0.940967 0
M  V30 4556 C 421.722 1.69069 0.105841 0
M  V30 4557 O 422.928 1.79946 -0.0440583 0
M  V30 4558 H 419.303 0.695108 -0.28693 0
M  V30 4559 H 421.274 2.3175 -1.87975 0
M  V30 4560 C 420.023 3.44027 -0.504049 0
M  V30 4561 H 419.346 3.78036 -1.30112 0
M  V30 4562 H 420.786 4.22452 -0.361991 0
M  V30 4563 C 419.245 3.27678 0.782878 0
M  V30 4564 O 419.775 3.56949 1.84256 0
M  V30 4565 N 417.981 2.80943 0.742921 0
M  V30 4566 H 417.528 2.57322 -0.119687 0
M  V30 4567 H 417.486 2.70385 1.60435 0
M  V30 4568 N 421.258 1.00505 1.21394 0
M  V30 4569 C 422.205 0.565496 2.23765 0
M  V30 4570 C 423.175 -0.408466 1.60999 0
M  V30 4571 O 424.36 -0.310503 1.88257 0
M  V30 4572 C 421.5 -0.101667 3.4495 0
M  V30 4573 C 420.613 0.915479 4.22188 0
M  V30 4574 C 419.748 0.220574 5.30742 0
M  V30 4575 C 418.787 1.22527 5.99711 0
M  V30 4576 N 417.924 0.557831 6.9988 0
M  V30 4577 H 422.764 1.44314 2.60725 0
M  V30 4578 H 420.301 0.722643 1.28126 0
M  V30 4579 H 422.259 -0.505504 4.14126 0
M  V30 4580 H 420.889 -0.94303 3.08718 0
M  V30 4581 H 419.941 1.43756 3.52191 0
M  V30 4582 H 421.253 1.68005 4.69655 0
M  V30 4583 H 420.407 -0.239368 6.06228 0
M  V30 4584 H 419.146 -0.576401 4.84282 0
M  V30 4585 H 418.151 1.69571 5.22997 0
M  V30 4586 H 419.376 2.02332 6.48258 0
M  V30 4587 H 417.322 -0.219486 6.55633 0
M  V30 4588 H 417.239 1.26065 7.45415 0
M  V30 4589 H 418.507 0.121095 7.79406 0
M  V30 4590 N 422.737 -1.36956 0.779787 0
M  V30 4591 C 423.684 -2.30175 0.169697 0
M  V30 4592 C 424.654 -1.51501 -0.68094 0
M  V30 4593 O 425.839 -1.80042 -0.631629 0
M  V30 4594 C 422.979 -3.37985 -0.697131 0
M  V30 4595 C 422.092 -4.31661 0.170992 0
M  V30 4596 C 421.227 -5.2655 -0.701298 0
M  V30 4597 C 420.266 -6.11867 0.168869 0
M  V30 4598 N 419.403 -6.98973 -0.661855 0
M  V30 4599 H 424.243 -2.81767 0.970135 0
M  V30 4600 H 421.78 -1.38699 0.489994 0
M  V30 4601 H 423.738 -3.99128 -1.2146 0
M  V30 4602 H 422.368 -2.87739 -1.46309 0
M  V30 4603 H 421.42 -3.71756 0.80634 0
M  V30 4604 H 422.732 -4.91644 0.841875 0
M  V30 4605 H 421.886 -5.92937 -1.28494 0
M  V30 4606 H 420.625 -4.66998 -1.40584 0
M  V30 4607 H 419.63 -5.44452 0.764986 0
M  V30 4608 H 420.855 -6.73493 0.870863 0
M  V30 4609 H 418.801 -6.41941 -1.35086 0
M  V30 4610 H 418.718 -7.55984 -0.0484447 0
M  V30 4611 H 419.986 -7.6974 -1.22963 0
M  V30 4612 N 424.215 -0.530993 -1.48385 0
M  V30 4613 C 425.145 0.219985 -2.32461 0
M  V30 4614 C 426.126 0.934111 -1.42156 0
M  V30 4615 O 427.311 0.919694 -1.71042 0
M  V30 4616 C 424.441 1.26674 -3.23375 0
M  V30 4617 C 423.395 0.67069 -4.22712 0
M  V30 4618 C 422.721 1.82017 -5.02766 0
M  V30 4619 C 424.021 -0.358268 -5.2107 0
M  V30 4620 H 425.715 -0.48187 -2.95497 0
M  V30 4621 H 423.261 -0.233182 -1.42099 0
M  V30 4622 H 425.214 1.80006 -3.81019 0
M  V30 4623 H 423.938 1.99818 -2.58341 0
M  V30 4624 H 422.597 0.158878 -3.66256 0
M  V30 4625 H 422.245 2.54002 -4.34157 0
M  V30 4626 H 421.945 1.42727 -5.70003 0
M  V30 4627 H 423.469 2.35725 -5.63264 0
M  V30 4628 H 424.883 0.0880081 -5.73232 0
M  V30 4629 H 423.28 -0.66861 -5.96364 0
M  V30 4630 H 424.35 -1.26367 -4.68145 0
M  V30 4631 N 425.693 1.55336 -0.266172 0
M  V30 4632 C 426.603 2.2583 0.635458 0
M  V30 4633 C 427.619 1.28106 1.17749 0
M  V30 4634 O 428.795 1.61024 1.20968 0
M  V30 4635 C 425.86 2.95879 1.80712 0
M  V30 4636 C 424.921 4.09059 1.30265 0
M  V30 4637 C 424.154 4.75759 2.41846 0
M  V30 4638 O 424.377 4.41622 3.61007 0
M  V30 4639 O 423.311 5.63888 2.1051 0
M  V30 4640 H 427.137 3.03631 0.0646693 0
M  V30 4641 H 424.722 1.49361 -0.0339177 0
M  V30 4642 H 426.604 3.39932 2.49047 0
M  V30 4643 H 425.279 2.21002 2.36516 0
M  V30 4644 H 424.186 3.69482 0.586019 0
M  V30 4645 H 425.519 4.85811 0.790458 0
M  V30 4646 N 427.171 -0.0066808 1.57599 0
M  V30 4647 C 428.396 -0.707738 1.94951 0
M  V30 4648 C 428.821 -1.66882 0.867868 0
M  V30 4649 O 428.179 -1.80457 -0.17458 0
M  V30 4650 C 428.227 -1.42162 3.31394 0
M  V30 4651 O 427.331 -2.53578 3.25226 0
M  V30 4652 H 426.672 -0.188752 0.636607 0
M  V30 4653 H 429.202 0.0445193 2.04552 0
M  V30 4654 H 429.212 -1.78655 3.66806 0
M  V30 4655 H 427.887 -0.716903 4.09675 0
M  V30 4656 H 426.464 -2.19463 3.01481 0
M  V30 4657 N 428.649 -1.55105 -0.279332 0
M  V30 4658 C 429.596 -1.8755 -1.34513 0
M  V30 4659 C 430.566 -0.726384 -1.49375 0
M  V30 4660 O 431.751 -0.977063 -1.63884 0
M  V30 4661 C 428.891 -2.14738 -2.70151 0
M  V30 4662 C 428.004 -3.42285 -2.63562 0
M  V30 4663 C 427.139 -3.59206 -3.91337 0
M  V30 4664 C 426.178 -4.80467 -3.79233 0
M  V30 4665 N 425.315 -4.94079 -4.98829 0
M  V30 4666 H 430.155 -2.78456 -1.06143 0
M  V30 4667 H 427.692 -1.37867 -0.512936 0
M  V30 4668 H 429.65 -2.28501 -3.49061 0
M  V30 4669 H 428.28 -1.27075 -2.96735 0
M  V30 4670 H 427.332 -3.37029 -1.76397 0
M  V30 4671 H 428.644 -4.31328 -2.50515 0
M  V30 4672 H 427.798 -3.72751 -4.78687 0
M  V30 4673 H 426.537 -2.68337 -4.07243 0
M  V30 4674 H 425.542 -4.66932 -2.90266 0
M  V30 4675 H 426.767 -5.72765 -3.64852 0
M  V30 4676 H 424.713 -4.06139 -5.15158 0
M  V30 4677 H 424.63 -5.77156 -4.8829 0
M  V30 4678 H 425.898 -5.12003 -5.8777 0
M  V30 4679 N 430.127 0.543554 -1.4793 0
M  V30 4680 C 431.037 1.67657 -1.64098 0
M  V30 4681 C 432.053 1.65934 -0.523622 0
M  V30 4682 O 433.229 1.85133 -0.792943 0
M  V30 4683 C 430.294 3.04146 -1.66421 0
M  V30 4684 C 429.355 3.16831 -2.89684 0
M  V30 4685 C 428.588 4.46809 -2.91886 0
M  V30 4686 O 428.811 5.33095 -2.02895 0
M  V30 4687 O 427.745 4.63573 -3.83906 0
M  V30 4688 H 431.571 1.56957 -2.59997 0
M  V30 4689 H 429.156 0.715116 -1.31173 0
M  V30 4690 H 431.038 3.85346 -1.70548 0
M  V30 4691 H 429.713 3.152 -0.736923 0
M  V30 4692 H 428.62 2.34977 -2.91095 0
M  V30 4693 H 429.953 3.10687 -3.81752 0
M  V30 4694 N 431.605 1.3629 0.791371 0
M  V30 4695 C 432.852 1.30412 1.54916 0
M  V30 4696 C 433.18 -0.117162 1.94147 0
M  V30 4697 O 432.435 -1.08599 1.62803 0
M  V30 4698 C 432.734 2.17068 2.8393 0
M  V30 4699 C 432.4 3.65645 2.63846 0
M  V30 4700 C 431.062 4.0614 2.58077 0
M  V30 4701 C 433.414 4.59855 2.45322 0
M  V30 4702 C 430.742 5.3899 2.31748 0
M  V30 4703 C 433.094 5.9292 2.2052 0
M  V30 4704 C 431.758 6.32542 2.13183 0
M  V30 4705 H 431.028 0.47721 0.566879 0
M  V30 4706 H 433.675 1.68325 0.913172 0
M  V30 4707 H 431.98 1.72085 3.51986 0
M  V30 4708 H 433.677 2.09846 3.4171 0
M  V30 4709 H 430.267 3.33518 2.69191 0
M  V30 4710 H 434.451 4.29443 2.48782 0
M  V30 4711 H 429.707 5.68672 2.24548 0
M  V30 4712 H 433.881 6.65487 2.05182 0
M  V30 4713 H 431.508 7.35412 1.92544 0
M  V30 4714 N 433.083 -1.0153 1.20538 0
M  V30 4715 C 434.046 -2.0826 0.957098 0
M  V30 4716 C 435.046 -1.60657 -0.0678655 0
M  V30 4717 O 436.236 -1.73385 0.168332 0
M  V30 4718 C 433.368 -3.38033 0.441188 0
M  V30 4719 H 434.561 -2.31719 1.90384 0
M  V30 4720 H 432.114 -1.1835 1.02093 0
M  V30 4721 H 432.849 -3.20249 -0.510961 0
M  V30 4722 H 432.634 -3.73911 1.18038 0
M  V30 4723 H 434.124 -4.16613 0.287009 0
M  V30 4724 N 434.561 -1.01147 -1.20859 0
M  V30 4725 C 435.838 -0.613136 -1.85742 0
M  V30 4726 C 436.218 0.909004 -1.90526 0
M  V30 4727 O 435.566 1.79862 -1.40932 0
M  V30 4728 C 435.776 -1.255 -3.25654 0
M  V30 4729 C 437.124 -1.3672 -4.01986 0
M  V30 4730 O 438.148 -1.21082 -3.34989 0
M  V30 4731 O 437.007 -1.6194 -5.21956 0
M  V30 4732 H 434.101 -0.210878 -0.799662 0
M  V30 4733 H 436.647 -1.10853 -1.2849 0
M  V30 4734 H 435.419 -2.29532 -3.16908 0
M  V30 4735 H 435.042 -0.746369 -3.90532 0
M  V30 4736 N 436.039 1.36541 -0.78704 0
M  V30 4737 C 436.969 2.32659 -0.197992 0
M  V30 4738 C 437.95 1.56533 0.665697 0
M  V30 4739 O 439.135 1.84698 0.60001 0
M  V30 4740 C 436.265 3.40778 0.669901 0
M  V30 4741 C 435.219 4.27897 -0.0937039 0
M  V30 4742 C 434.545 5.27163 0.894629 0
M  V30 4743 C 435.845 5.06334 -1.28154 0
M  V30 4744 H 437.539 2.82171 -1.00099 0
M  V30 4745 H 435.085 1.35665 -0.482793 0
M  V30 4746 H 437.038 4.07008 1.09191 0
M  V30 4747 H 435.762 2.89827 1.50558 0
M  V30 4748 H 434.421 3.6322 -0.49666 0
M  V30 4749 H 434.069 4.72486 1.72527 0
M  V30 4750 H 433.769 5.86317 0.388149 0
M  V30 4751 H 435.293 5.96266 1.31525 0
M  V30 4752 H 436.707 5.65617 -0.93541 0
M  V30 4753 H 435.104 5.74888 -1.72115 0
M  V30 4754 H 436.174 4.38114 -2.07807 0
M  V30 4755 N 437.518 0.538854 1.48102 0
M  V30 4756 C 438.465 -0.219042 2.29758 0
M  V30 4757 C 439.435 -0.925562 1.37922 0
M  V30 4758 O 440.62 -0.924855 1.66886 0
M  V30 4759 C 437.76 -1.25452 3.2149 0
M  V30 4760 C 436.873 -0.555943 4.28408 0
M  V30 4761 C 436.008 -1.57512 5.0731 0
M  V30 4762 C 435.047 -0.860498 6.06021 0
M  V30 4763 N 434.184 -1.82564 6.77949 0
M  V30 4764 H 439.024 0.483449 2.94052 0
M  V30 4765 H 436.561 0.250247 1.44956 0
M  V30 4766 H 438.519 -1.86727 3.7308 0
M  V30 4767 H 437.149 -1.92528 2.591 0
M  V30 4768 H 436.201 0.170938 3.80016 0
M  V30 4769 H 437.513 0.00474616 4.988 0
M  V30 4770 H 436.667 -2.26191 5.62959 0
M  V30 4771 H 435.406 -2.16972 4.36778 0
M  V30 4772 H 434.411 -0.159686 5.49568 0
M  V30 4773 H 435.636 -0.271897 6.78555 0
M  V30 4774 H 433.582 -2.40915 6.10161 0
M  V30 4775 H 433.499 -1.31662 7.44447 0
M  V30 4776 H 434.767 -2.50414 7.38182 0
M  V30 4777 N 438.996 -1.55193 0.274407 0
M  V30 4778 C 440.226 -2.03692 -0.345442 0
M  V30 4779 C 440.634 -1.15224 -1.50067 0
M  V30 4780 O 439.977 -0.164749 -1.8296 0
M  V30 4781 C 440.039 -3.48325 -0.88939 0
M  V30 4782 C 439.703 -4.56794 0.137115 0
M  V30 4783 C 440.7 -5.11028 0.956378 0
M  V30 4784 C 438.385 -5.01568 0.27115 0
M  V30 4785 C 440.379 -6.08552 1.89587 0
M  V30 4786 C 438.066 -5.98918 1.21412 0
M  V30 4787 C 439.064 -6.52291 2.02498 0
M  V30 4788 O 438.752 -7.47738 2.952 0
M  V30 4789 H 438.484 -0.670893 -0.0829332 0
M  V30 4790 H 441.038 -2.01387 0.404056 0
M  V30 4791 H 439.268 -3.47867 -1.68895 0
M  V30 4792 H 440.957 -3.80167 -1.42225 0
M  V30 4793 H 441.723 -4.7725 0.863559 0
M  V30 4794 H 437.602 -4.5967 -0.349987 0
M  V30 4795 H 441.146 -6.50137 2.52918 0
M  V30 4796 H 437.043 -6.32114 1.30776 0
M  V30 4797 H 437.811 -7.65451 2.89874 0
M  V30 4798 N 440.474 -0.00167713 -1.576 0
M  V30 4799 C 441.704 0.692754 -1.94639 0
M  V30 4800 C 442.112 1.67744 -0.87513 0
M  V30 4801 O 441.455 1.8305 0.154382 0
M  V30 4802 C 441.517 1.47881 -3.27676 0
M  V30 4803 C 441.181 0.655518 -4.52274 0
M  V30 4804 C 442.178 -0.0575214 -5.19868 0
M  V30 4805 C 439.863 0.600994 -4.98692 0
M  V30 4806 C 441.857 -0.814052 -6.3218 0
M  V30 4807 C 439.544 -0.15926 -6.10892 0
M  V30 4808 C 440.542 -0.865515 -6.77494 0
M  V30 4809 O 440.23 -1.61336 -7.87544 0
M  V30 4810 H 439.962 0.197792 -0.646417 0
M  V30 4811 H 442.516 -0.049423 -2.05341 0
M  V30 4812 H 440.746 2.2655 -3.13388 0
M  V30 4813 H 442.435 2.05874 -3.49816 0
M  V30 4814 H 443.201 -0.0245611 -4.84994 0
M  V30 4815 H 439.08 1.14025 -4.46676 0
M  V30 4816 H 442.624 -1.36584 -6.84098 0
M  V30 4817 H 438.521 -0.194035 -6.45208 0
M  V30 4818 H 439.289 -1.53025 -8.04068 0
M  V30 4819 N 441.952 1.55251 0.271103 0
M  V30 4820 C 442.9 1.89054 1.35504 0
M  V30 4821 C 443.894 0.767064 1.51038 0
M  V30 4822 O 445.1 0.951429 1.528 0
M  V30 4823 H 441.475 0.600072 0.45323 0
M  V30 4824 H 443.446 2.79598 1.04247 0
M  V30 4825 C 442.195 2.18068 2.70817 0
M  V30 4826 H 441.518 3.04005 2.59656 0
M  V30 4827 H 442.958 2.4564 3.45597 0
M  V30 4828 C 441.417 0.988901 3.2206 0
M  V30 4829 O 441.947 0.224501 4.01072 0
M  V30 4830 N 440.153 0.786085 2.79766 0
M  V30 4831 H 439.7 1.40937 2.15626 0
M  V30 4832 H 439.658 -0.00969349 3.14399 0
M  V30 4833 N 443.43 -0.535701 1.48216 0
M  V30 4834 C 444.66 -1.3148 1.59363 0
M  V30 4835 C 445.068 -1.8753 0.250844 0
M  V30 4836 O 444.411 -1.66821 -0.769174 0
M  V30 4837 C 444.473 -2.50731 2.57632 0
M  V30 4838 C 444.137 -2.15811 4.02833 0
M  V30 4839 C 445.134 -1.71822 4.90686 0
M  V30 4840 C 442.819 -2.26509 4.48329 0
M  V30 4841 C 444.813 -1.3899 6.22062 0
M  V30 4842 C 442.5 -1.93289 5.79726 0
M  V30 4843 C 443.498 -1.49599 6.66415 0
M  V30 4844 O 443.186 -1.16812 7.95368 0
M  V30 4845 H 442.918 -0.406315 0.540263 0
M  V30 4846 H 445.472 -0.653569 1.94725 0
M  V30 4847 H 443.702 -3.19817 2.1738 0
M  V30 4848 H 445.391 -3.12797 2.58675 0
M  V30 4849 H 446.157 -1.63031 4.56778 0
M  V30 4850 H 442.036 -2.59471 3.81045 0
M  V30 4851 H 445.58 -1.04816 6.89681 0
M  V30 4852 H 441.477 -2.01718 6.13172 0
M  V30 4853 H 442.245 -1.30259 8.08069 0
M  V30 4854 N 444.908 -1.36708 -0.784132 0
M  V30 4855 C 445.818 -1.3363 -1.92822 0
M  V30 4856 C 446.834 -0.237686 -1.72369 0
M  V30 4857 O 448.01 -0.470962 -1.95816 0
M  V30 4858 C 445.075 -1.13011 -3.27764 0
M  V30 4859 C 444.136 -2.32397 -3.60957 0
M  V30 4860 C 443.369 -2.12752 -4.89461 0
M  V30 4861 O 443.592 -1.10541 -5.59586 0
M  V30 4862 O 442.526 -3.00653 -5.21432 0
M  V30 4863 H 446.352 -2.29964 -1.98369 0
M  V30 4864 H 443.937 -1.1731 -0.925136 0
M  V30 4865 H 445.819 -1.03451 -4.08504 0
M  V30 4866 H 444.494 -0.19743 -3.23097 0
M  V30 4867 H 443.401 -2.47527 -2.80502 0
M  V30 4868 H 444.734 -3.2419 -3.70354 0
M  V30 4869 N 446.386 1.0089 -1.21074 0
M  V30 4870 C 447.334 2.11707 -0.963476 0
M  V30 4871 C 448.328 1.69172 0.0879032 0
M  V30 4872 O 449.534 1.79889 -0.0631415 0
M  V30 4873 H 445.909 0.692026 -0.294287 0
M  V30 4874 H 447.88 2.29743 -1.90422 0
M  V30 4875 C 446.629 3.43473 -0.540509 0
M  V30 4876 H 445.952 3.76634 -1.34114 0
M  V30 4877 H 447.392 4.22044 -0.406777 0
M  V30 4878 C 445.851 3.2849 0.748079 0
M  V30 4879 O 446.381 3.58883 1.8046 0
M  V30 4880 N 444.587 2.81715 0.713081 0
M  V30 4881 H 444.134 2.5718 -0.146973 0
M  V30 4882 H 444.092 2.72071 1.57558 0
M  V30 4883 N 447.864 1.01787 1.20321 0
M  V30 4884 C 448.814 0.559976 2.21016 0
M  V30 4885 C 449.798 -0.385366 1.56217 0
M  V30 4886 O 450.99 -0.208126 1.75772 0
M  V30 4887 C 448.119 -0.0990553 3.43157 0
M  V30 4888 C 447.205 0.86807 4.15121 0
M  V30 4889 N 447.596 2.0261 4.63447 0
M  V30 4890 C 445.894 0.689162 4.40643 0
M  V30 4891 C 446.595 2.63518 5.18588 0
M  V30 4892 N 445.571 1.91569 5.08726 0
M  V30 4893 H 449.373 1.44281 2.56048 0
M  V30 4894 H 446.887 0.883381 1.36272 0
M  V30 4895 H 448.884 -0.444643 4.14522 0
M  V30 4896 H 447.544 -0.977709 3.0963 0
M  V30 4897 H 448.555 2.40598 4.58621 0
M  V30 4898 H 445.232 -0.14133 4.17261 0
M  V30 4899 H 446.622 3.61527 5.66346 0
M  V30 4900 N 449.342 -1.36122 0.79427 0
M  V30 4901 C 450.567 -2.03891 0.379871 0
M  V30 4902 C 450.992 -1.59488 -0.997251 0
M  V30 4903 O 450.35 -0.765652 -1.64339 0
M  V30 4904 C 450.398 -3.57687 0.457442 0
M  V30 4905 O 449.502 -4.08931 -0.5338 0
M  V30 4906 H 448.843 -0.6443 0.160541 0
M  V30 4907 H 451.373 -1.73976 1.07673 0
M  V30 4908 H 451.383 -4.06721 0.322792 0
M  V30 4909 H 450.058 -3.89357 1.46199 0
M  V30 4910 H 448.635 -3.71154 -0.360409 0
M  V30 4911 N 450.82 -0.546701 -1.47814 0
M  V30 4912 C 451.783 0.196287 -2.28358 0
M  V30 4913 C 452.783 0.852437 -1.36346 0
M  V30 4914 O 453.973 0.709913 -1.59078 0
M  V30 4915 C 451.105 1.28579 -3.15722 0
M  V30 4916 H 452.298 -0.511086 -2.95513 0
M  V30 4917 H 449.851 -0.303248 -1.5333 0
M  V30 4918 H 450.586 2.0259 -2.53235 0
M  V30 4919 H 450.371 0.820229 -3.83425 0
M  V30 4920 H 451.861 1.80793 -3.76435 0
M  V30 4921 N 452.299 1.55045 -0.282633 0
M  V30 4922 C 453.262 2.21515 0.588539 0
M  V30 4923 C 454.262 1.19535 1.07554 0
M  V30 4924 O 455.452 1.44391 0.974514 0
M  V30 4925 C 452.584 2.88704 1.8128 0
M  V30 4926 H 453.777 2.99899 0.00806397 0
M  V30 4927 H 451.33 1.56265 -0.0333067 0
M  V30 4928 H 452.065 2.14352 2.43359 0
M  V30 4929 H 451.85 3.63443 1.47144 0
M  V30 4930 H 453.34 3.39465 2.43214 0
M  V30 4931 N 453.777 0.010035 1.57597 0
M  V30 4932 C 455.024 -0.6727 1.91 0
M  V30 4933 C 455.352 -1.73219 0.884614 0
M  V30 4934 O 454.607 -1.95395 -0.109215 0
M  V30 4935 C 454.906 -1.34434 3.31153 0
M  V30 4936 C 454.572 -0.417083 4.48967 0
M  V30 4937 C 453.234 -0.161809 4.80928 0
M  V30 4938 C 455.586 0.220753 5.20732 0
M  V30 4939 C 452.914 0.739426 5.82022 0
M  V30 4940 C 455.266 1.10993 6.22787 0
M  V30 4941 C 453.93 1.37428 6.532 0
M  V30 4942 H 453.2 -0.246158 0.698918 0
M  V30 4943 H 455.847 0.0677145 1.9138 0
M  V30 4944 H 454.152 -2.15905 3.26944 0
M  V30 4945 H 455.849 -1.87883 3.54261 0
M  V30 4946 H 452.439 -0.626217 4.24001 0
M  V30 4947 H 456.623 0.0365643 4.96287 0
M  V30 4948 H 451.879 0.952139 6.03941 0
M  V30 4949 H 456.053 1.61046 6.77523 0
M  V30 4950 H 453.68 2.0743 7.31353 0
M  V30 4951 N 455.255 -1.55392 -0.262866 0
M  V30 4952 C 456.202 -1.88966 -1.32516 0
M  V30 4953 C 457.172 -0.742187 -1.48596 0
M  V30 4954 O 458.357 -0.99439 -1.62839 0
M  V30 4955 C 455.497 -2.17592 -2.67858 0
M  V30 4956 C 454.61 -3.45061 -2.59917 0
M  V30 4957 C 453.745 -3.63336 -3.87505 0
M  V30 4958 C 452.784 -4.84462 -3.74116 0
M  V30 4959 N 451.921 -4.99342 -4.93561 0
M  V30 4960 H 456.761 -2.79566 -1.03184 0
M  V30 4961 H 454.298 -1.38404 -0.498285 0
M  V30 4962 H 456.256 -2.3219 -3.46617 0
M  V30 4963 H 454.886 -1.30215 -2.95371 0
M  V30 4964 H 453.938 -3.38881 -1.72812 0
M  V30 4965 H 455.25 -4.3396 -2.45926 0
M  V30 4966 H 454.404 -3.77807 -4.74707 0
M  V30 4967 H 453.143 -2.72641 -4.04374 0
M  V30 4968 H 452.148 -4.69985 -2.85297 0
M  V30 4969 H 453.373 -5.76603 -3.58757 0
M  V30 4970 H 451.319 -4.1158 -5.10821 0
M  V30 4971 H 451.236 -5.82303 -4.82141 0
M  V30 4972 H 452.504 -5.18208 -5.82306 0
M  V30 4973 N 456.733 0.527833 -1.48498 0
M  V30 4974 C 457.663 1.64136 -1.66077 0
M  V30 4975 C 458.644 1.62286 -0.509625 0
M  V30 4976 O 459.829 1.79449 -0.742413 0
M  V30 4977 C 456.959 3.02717 -1.70234 0
M  V30 4978 C 455.913 3.19426 -2.8487 0
M  V30 4979 C 455.239 4.5909 -2.74118 0
M  V30 4980 C 456.539 3.01993 -4.26142 0
M  V30 4981 H 458.233 1.4968 -2.593 0
M  V30 4982 H 455.779 0.718654 -1.24785 0
M  V30 4983 H 457.732 3.80491 -1.8112 0
M  V30 4984 H 456.456 3.18201 -0.735911 0
M  V30 4985 H 455.115 2.4407 -2.73542 0
M  V30 4986 H 454.763 4.71413 -1.7544 0
M  V30 4987 H 454.463 4.71214 -3.51042 0
M  V30 4988 H 455.987 5.3896 -2.86974 0
M  V30 4989 H 457.401 3.69558 -4.38292 0
M  V30 4990 H 455.798 3.2561 -5.04082 0
M  V30 4991 H 456.868 1.98396 -4.42456 0
M  V30 4992 N 458.211 1.37122 0.776871 0
M  V30 4993 C 459.622 1.28667 1.35284 0
M  V30 4994 C 459.973 -0.0680035 1.96082 0
M  V30 4995 O 459.098 -0.969743 1.93455 0
M  V30 4996 C 459.693 2.32997 2.45963 0
M  V30 4997 C 458.252 2.28191 2.99342 0
M  V30 4998 C 457.399 2.17101 1.72517 0
M  V30 4999 H 460.35 1.47819 0.577527 0
M  V30 5000 H 460.371 1.97366 3.2531 0
M  V30 5001 H 459.883 3.3158 2.01684 0
M  V30 5002 H 457.984 1.33115 3.4801 0
M  V30 5003 H 458.097 3.21397 3.55304 0
M  V30 5004 H 456.461 1.63562 1.95242 0
M  V30 5005 H 457.244 3.17591 1.30348 0
M  V30 5006 N 459.689 -1.00246 1.21608 0
M  V30 5007 C 460.652 -2.07233 0.979133 0
M  V30 5008 C 461.652 -1.6072 -0.0508219 0
M  V30 5009 O 462.842 -1.73196 0.186712 0
M  V30 5010 C 459.974 -3.37546 0.477016 0
M  V30 5011 H 461.167 -2.29687 1.92831 0
M  V30 5012 H 458.72 -1.17261 1.03342 0
M  V30 5013 H 459.455 -3.20773 -0.476966 0
M  V30 5014 H 459.24 -3.72638 1.21997 0
M  V30 5015 H 460.73 -4.16285 0.331181 0
M  V30 5016 N 461.167 -1.02423 -1.1978 0
M  V30 5017 C 462.414 -0.717988 -1.89344 0
M  V30 5018 C 462.742 0.753036 -1.79331 0
M  V30 5019 O 461.997 1.56355 -1.17692 0
M  V30 5020 C 462.296 -1.1088 -3.39765 0
M  V30 5021 C 461.962 -2.57731 -3.6998 0
M  V30 5022 C 460.624 -2.97854 -3.77937 0
M  V30 5023 C 462.976 -3.52763 -3.83677 0
M  V30 5024 C 460.304 -4.31931 -3.97054 0
M  V30 5025 C 462.656 -4.86538 -4.04306 0
M  V30 5026 C 461.32 -5.26356 -4.10494 0
M  V30 5027 H 460.59 -0.26273 -0.692859 0
M  V30 5028 H 463.237 -1.28623 -1.41875 0
M  V30 5029 H 461.542 -0.459094 -3.89101 0
M  V30 5030 H 463.239 -0.849432 -3.919 0
M  V30 5031 H 459.829 -2.25646 -3.64393 0
M  V30 5032 H 464.013 -3.2292 -3.76877 0
M  V30 5033 H 459.269 -4.62324 -4.00083 0
M  V30 5034 H 463.443 -5.60093 -4.13846 0
M  V30 5035 H 461.07 -6.3026 -4.2506 0
M  V30 5036 N 462.645 1.35699 -0.801477 0
M  V30 5037 C 463.575 2.32436 -0.222658 0
M  V30 5038 C 464.556 1.5723 0.649057 0
M  V30 5039 O 465.741 1.85324 0.580387 0
M  V30 5040 C 462.871 3.41469 0.633719 0
M  V30 5041 C 461.825 4.27774 -0.139083 0
M  V30 5042 C 461.151 5.28082 0.838666 0
M  V30 5043 C 462.451 5.04946 -1.33517 0
M  V30 5044 H 464.145 2.81094 -1.03086 0
M  V30 5045 H 461.691 1.35146 -0.497155 0
M  V30 5046 H 463.644 4.08143 1.04868 0
M  V30 5047 H 462.368 2.91408 1.47475 0
M  V30 5048 H 461.027 3.62673 -0.535156 0
M  V30 5049 H 460.675 4.7429 1.67506 0
M  V30 5050 H 460.375 5.86695 0.32594 0
M  V30 5051 H 461.899 5.97628 1.25194 0
M  V30 5052 H 463.313 5.64593 -0.995349 0
M  V30 5053 H 461.71 5.7303 -1.78202 0
M  V30 5054 H 462.78 4.35886 -2.12442 0
M  V30 5055 N 464.123 0.554532 1.47522 0
M  V30 5056 C 465.053 -0.182974 2.32782 0
M  V30 5057 C 466.034 -0.911377 1.43624 0
M  V30 5058 O 467.219 -0.892366 1.72483 0
M  V30 5059 C 464.349 -1.21513 3.25349 0
M  V30 5060 C 463.303 -0.603355 4.23726 0
M  V30 5061 C 462.629 -1.73995 5.05598 0
M  V30 5062 C 463.929 0.441121 5.20434 0
M  V30 5063 H 465.623 0.52882 2.94693 0
M  V30 5064 H 463.169 0.255759 1.41711 0
M  V30 5065 H 465.122 -1.73922 3.83835 0
M  V30 5066 H 463.846 -1.95683 2.61487 0
M  V30 5067 H 462.505 -0.10059 3.66462 0
M  V30 5068 H 462.153 -2.47063 4.38143 0
M  V30 5069 H 461.853 -1.3364 5.72201 0
M  V30 5070 H 463.377 -2.26735 5.66942 0
M  V30 5071 H 464.791 0.00319931 5.733 0
M  V30 5072 H 463.188 0.763402 5.95224 0
M  V30 5073 H 464.258 1.33799 4.66075 0
M  V30 5074 N 465.601 -1.54893 0.290851 0
M  V30 5075 C 466.548 -2.23138 -0.58974 0
M  V30 5076 C 467.518 -1.21036 -1.13752 0
M  V30 5077 O 468.703 -1.49626 -1.18392 0
M  V30 5078 C 465.843 -2.96811 -1.76061 0
M  V30 5079 C 464.956 -4.13665 -1.24519 0
M  V30 5080 C 464.091 -4.74944 -2.3791 0
M  V30 5081 C 463.13 -5.83963 -1.83451 0
M  V30 5082 N 462.267 -6.39239 -2.90376 0
M  V30 5083 H 467.107 -2.98 -0.00114915 0
M  V30 5084 H 464.644 -1.47096 0.0112006 0
M  V30 5085 H 466.602 -3.37751 -2.44909 0
M  V30 5086 H 465.232 -2.24344 -2.32098 0
M  V30 5087 H 464.284 -3.77737 -0.449288 0
M  V30 5088 H 465.596 -4.92238 -0.806424 0
M  V30 5089 H 464.75 -5.18684 -3.14724 0
M  V30 5090 H 463.489 -3.95682 -2.85109 0
M  V30 5091 H 462.494 -5.39657 -1.05122 0
M  V30 5092 H 463.719 -6.65103 -1.37169 0
M  V30 5093 H 461.665 -5.62864 -3.36927 0
M  V30 5094 H 461.582 -7.13129 -2.50965 0
M  V30 5095 H 462.85 -6.87637 -3.67118 0
M  V30 5096 N 467.08 -0.0183926 -1.57589 0
M  V30 5097 C 467.99 0.982943 -2.13015 0
M  V30 5098 C 469.006 1.36443 -1.07979 0
M  V30 5099 O 470.182 1.44802 -1.3998 0
M  V30 5100 C 467.247 2.25024 -2.63752 0
M  V30 5101 C 466.308 1.93018 -3.83461 0
M  V30 5102 C 465.541 3.13706 -4.31769 0
M  V30 5103 O 465.764 4.2601 -3.79305 0
M  V30 5104 O 464.698 2.96629 -5.23732 0
M  V30 5105 H 468.524 0.541709 -2.9883 0
M  V30 5106 H 466.109 0.201565 -1.48034 0
M  V30 5107 H 467.991 2.99441 -2.96502 0
M  V30 5108 H 466.666 2.68349 -1.81026 0
M  V30 5109 H 465.573 1.16019 -3.55655 0
M  V30 5110 H 466.906 1.54516 -4.67317 0
M  V30 5111 N 468.558 1.5553 0.254621 0
M  V30 5112 C 469.807 1.76202 0.981612 0
M  V30 5113 C 470.12 0.580883 1.86776 0
M  V30 5114 O 471.326 0.670448 2.63092 0
M  V30 5115 C 469.782 3.11921 1.79537 0
M  V30 5116 C 469.39 4.37659 0.956991 0
M  V30 5117 C 471.134 3.41936 2.51555 0
M  V30 5118 C 469.041 5.64411 1.76619 0
M  V30 5119 H 467.971 0.656841 0.370237 0
M  V30 5120 H 470.622 1.81969 0.236556 0
M  V30 5121 H 469.004 3.00241 2.58208 0
M  V30 5122 H 470.178 4.60307 0.21315 0
M  V30 5123 H 468.493 4.14922 0.350497 0
M  V30 5124 H 471.09 4.33849 3.12536 0
M  V30 5125 H 471.433 2.62905 3.22779 0
M  V30 5126 H 471.966 3.54797 1.799 0
M  V30 5127 H 468.705 6.46241 1.09783 0
M  V30 5128 H 468.225 5.45877 2.48551 0
M  V30 5129 H 469.904 6.03386 2.33527 0
M  V30 5130 N 470.036 -0.519951 1.48776 0
M  V30 5131 C 470.946 -1.65025 1.66745 0
M  V30 5132 C 471.962 -1.6508 0.549954 0
M  V30 5133 O 473.138 -1.83848 0.822295 0
M  V30 5134 C 470.203 -3.0146 1.71238 0
M  V30 5135 C 469.264 -3.12182 2.94688 0
M  V30 5136 C 468.497 -4.42109 2.98958 0
M  V30 5137 O 468.72 -5.29799 2.1135 0
M  V30 5138 O 467.654 -4.57406 3.91233 0
M  V30 5139 H 471.48 -1.52801 2.62461 0
M  V30 5140 H 469.065 -0.694157 1.32294 0
M  V30 5141 H 470.947 -3.82584 1.76657 0
M  V30 5142 H 469.622 -3.13988 0.786975 0
M  V30 5143 H 468.529 -2.30316 2.94797 0
M  V30 5144 H 469.862 -3.04574 3.86646 0
M  V30 5145 N 471.514 -1.37532 -0.769588 0
M  V30 5146 C 472.462 -1.33561 -1.90432 0
M  V30 5147 C 473.456 -0.224027 -1.67912 0
M  V30 5148 O 474.662 -0.392174 -1.75676 0
M  V30 5149 H 471.037 -0.416279 -0.626271 0
M  V30 5150 H 473.008 -2.29348 -1.90899 0
M  V30 5151 C 471.757 -1.16162 -3.27722 0
M  V30 5152 H 471.08 -2.00951 -3.45628 0
M  V30 5153 H 472.52 -1.17434 -4.07413 0
M  V30 5154 C 470.979 0.132583 -3.36639 0
M  V30 5155 O 471.509 1.11539 -3.85904 0
M  V30 5156 N 469.715 0.184013 -2.90017 0
M  V30 5157 H 469.262 -0.616415 -2.50116 0
M  V30 5158 H 469.22 1.04956 -2.96364 0
M  V30 5159 N 472.992 0.995999 -1.22138 0
M  V30 5160 C 474.241 1.72928 -1.03821 0
M  V30 5161 C 474.554 1.90872 0.427444 0
M  V30 5162 O 475.76 2.61496 0.730212 0
M  V30 5163 C 474.216 3.11124 -1.80913 0
M  V30 5164 C 473.824 3.01122 -3.31707 0
M  V30 5165 C 475.568 3.8852 -1.71035 0
M  V30 5166 C 473.475 4.34453 -4.01253 0
M  V30 5167 H 472.405 0.648376 -0.384869 0
M  V30 5168 H 475.056 1.11213 -1.45959 0
M  V30 5169 H 473.438 3.73503 -1.31573 0
M  V30 5170 H 474.612 2.47926 -3.88419 0
M  V30 5171 H 472.927 2.3721 -3.42228 0
M  V30 5172 H 475.524 4.872 -2.20318 0
M  V30 5173 H 475.867 4.1087 -0.670196 0
M  V30 5174 H 476.4 3.32812 -2.17902 0
M  V30 5175 H 473.139 4.17303 -5.05508 0
M  V30 5176 H 472.659 4.87574 -3.49331 0
M  V30 5177 H 474.338 5.03215 -4.06674 0
M  V30 5178 O 474.509 1.15683 1.12693 0
M  V30 5179 H 475.2 0.884984 1.72301 0
M  V30 END ATOM
M  V30 BEGIN BOND
M  V30 END BOND
M  V30 END CTAB
M  END
$$$$
