drugbank_target|Q16850 Lanosterol 14-alpha demethylase (DB01007; DB01167; DB05667; DB07705)
 OpenBabel12092119423D

  0  0  0     0  0            999 V3000
M  V30 BEGIN CTAB
M  V30 COUNTS 8050 8147 0 0 0
M  V30 BEGIN ATOM
M  V30 1 H -0.908 1.98254 -0.117106 0
M  V30 2 N 0 1.576 0 0
M  V30 3 C 0.933 2.03868 1.02534 0
M  V30 4 C 1.911 0.928543 1.3348 0
M  V30 5 O 3.095 1.19667 1.45644 0
M  V30 6 C 0.222 2.43627 2.35294 0
M  V30 7 C -0.732 3.65373 2.2001 0
M  V30 8 S 0.101 5.13292 1.52614 0
M  V30 9 C 1.257 5.56322 2.86805 0
M  V30 10 H 1.49 2.90518 0.631377 0
M  V30 11 H -0.977 1.52953 0.210867 0
M  V30 12 H 0.981 2.67203 3.11629 0
M  V30 13 H -0.358 1.57376 2.7183 0
M  V30 14 H -1.165 3.90944 3.18086 0
M  V30 15 H -1.563 3.418 1.51819 0
M  V30 16 H 0.729 5.58782 3.83104 0
M  V30 17 H 1.672 6.56266 2.65933 0
M  V30 18 H 2.08 4.83886 2.90714 0
M  V30 19 N 1.4781 -0.272755 1.55222 0
M  V30 20 C 2.4081 -1.34136 1.91127 0
M  V30 21 C 3.3891 -1.51513 0.773168 0
M  V30 22 O 4.5741 -1.64552 1.03132 0
M  V30 23 C 1.7041 -2.70083 2.1834 0
M  V30 24 C 0.6581 -2.67437 3.34158 0
M  V30 25 C -0.0159 -4.06938 3.46851 0
M  V30 26 C 1.2841 -2.26686 4.70543 0
M  V30 27 H 2.9781 -1.04333 2.80633 0
M  V30 28 H 0.5241 -0.500454 1.35024 0
M  V30 29 H 2.4771 -3.44952 2.42046 0
M  V30 30 H 1.2011 -3.01469 1.25634 0
M  V30 31 H -0.1399 -1.95026 3.1042 0
M  V30 32 H -0.4919 -4.35547 2.51611 0
M  V30 33 H -0.7919 -4.06062 4.2472 0
M  V30 34 H 0.7321 -4.83545 3.72849 0
M  V30 35 H 2.1461 -2.91277 4.93792 0
M  V30 36 H 0.5431 -2.36971 5.5133 0
M  V30 37 H 1.6131 -1.21818 4.69349 0
M  V30 38 N 2.9562 -1.48159 -0.537278 0
M  V30 39 C 3.8862 -1.65029 -1.6519 0
M  V30 40 C 4.8672 -0.499281 -1.62607 0
M  V30 41 O 6.0522 -0.730972 -1.79918 0
M  V30 42 C 3.1822 -1.68303 -3.03795 0
M  V30 43 C 2.1362 -2.8283 -3.21234 0
M  V30 44 C 1.4622 -2.71189 -4.60826 0
M  V30 45 C 2.7622 -4.24211 -3.04701 0
M  V30 46 H 4.4562 -2.58341 -1.51328 0
M  V30 47 H 2.0022 -1.24325 -0.726585 0
M  V30 48 H 3.9552 -1.78693 -3.81637 0
M  V30 49 H 2.6792 -0.715635 -3.18663 0
M  V30 50 H 1.3382 -2.71983 -2.45807 0
M  V30 51 H 0.9862 -1.72435 -4.7252 0
M  V30 52 H 0.6862 -3.48035 -4.7344 0
M  V30 53 H 2.2102 -2.83537 -5.40777 0
M  V30 54 H 3.6242 -4.3593 -3.72341 0
M  V30 55 H 2.0212 -5.01998 -3.28813 0
M  V30 56 H 3.0912 -4.41184 -2.01209 0
M  V30 57 N 4.4343 0.785586 -1.36625 0
M  V30 58 C 5.3643 1.91259 -1.33949 0
M  V30 59 C 6.3453 1.68795 -0.210325 0
M  V30 60 O 7.5303 1.89854 -0.408561 0
M  V30 61 C 4.6603 3.28339 -1.13186 0
M  V30 62 C 3.6143 3.65335 -2.22967 0
M  V30 63 C 2.9403 5.00806 -1.87342 0
M  V30 64 C 4.2403 3.7352 -3.65075 0
M  V30 65 H 5.9343 1.93755 -2.28253 0
M  V30 66 H 3.4803 0.930788 -1.09874 0
M  V30 67 H 5.4333 4.06804 -1.09948 0
M  V30 68 H 4.1573 3.2624 -0.153332 0
M  V30 69 H 2.8163 2.89169 -2.25337 0
M  V30 70 H 2.4643 4.95233 -0.880545 0
M  V30 71 H 2.1643 5.26529 -2.60846 0
M  V30 72 H 3.6883 5.81687 -1.85667 0
M  V30 73 H 5.1023 4.42168 -3.64911 0
M  V30 74 H 3.4993 4.10731 -4.37516 0
M  V30 75 H 4.5693 2.74527 -3.99703 0
M  V30 76 N 5.9124 1.20967 1.01018 0
M  V30 77 C 7.1604 1.02172 1.74371 0
M  V30 78 C 7.4814 -0.446414 1.89821 0
M  V30 79 O 6.7514 -1.32234 1.44537 0
M  V30 80 H 5.3314 0.375066 0.646014 0
M  V30 81 H 7.9934 1.52187 1.21758 0
M  V30 82 H 7.0894 1.48538 2.74487 0
M  V30 83 N 7.3905 -1.2043 1.01659 0
M  V30 84 C 8.3205 -2.25466 0.607226 0
M  V30 85 C 9.3015 -1.65853 -0.377716 0
M  V30 86 O 10.4865 -1.92409 -0.263149 0
M  V30 87 C 7.6165 -3.47256 -0.0552949 0
M  V30 88 C 6.5705 -4.19462 0.850632 0
M  V30 89 C 5.8965 -5.34673 0.0538859 0
M  V30 90 C 7.1965 -4.75603 2.15868 0
M  V30 91 H 8.8905 -2.59962 1.48526 0
M  V30 92 H 6.4365 -1.2496 0.715605 0
M  V30 93 H 8.3895 -4.19917 -0.353233 0
M  V30 94 H 7.1135 -3.11924 -0.968045 0
M  V30 95 H 5.7725 -3.48667 1.13257 0
M  V30 96 H 5.4205 -4.95585 -0.860514 0
M  V30 97 H 5.1205 -5.83913 0.657192 0
M  V30 98 H 6.6445 -6.10138 -0.237598 0
M  V30 99 H 8.0585 -5.40083 1.92311 0
M  V30 100 H 6.4555 -5.3528 2.71284 0
M  V30 101 H 7.5255 -3.94346 2.82169 0
M  V30 102 N 8.8686 -0.792821 -1.36206 0
M  V30 103 C 9.7986 -0.207853 -2.32573 0
M  V30 104 C 10.7796 0.659055 -1.56813 0
M  V30 105 O 11.9646 0.592176 -1.84951 0
M  V30 106 C 9.0946 0.655449 -3.41059 0
M  V30 107 C 8.0486 -0.111842 -4.27854 0
M  V30 108 C 7.3746 0.872274 -5.27537 0
M  V30 109 C 8.6746 -1.30299 -5.05786 0
M  V30 110 H 10.3686 -1.01294 -2.81744 0
M  V30 111 H 7.9146 -0.48854 -1.3546 0
M  V30 112 H 9.8676 1.07464 -4.07467 0
M  V30 113 H 8.5916 1.49328 -2.90463 0
M  V30 114 H 7.2506 -0.512053 -3.63006 0
M  V30 115 H 6.8986 1.70523 -4.73214 0
M  V30 116 H 6.5986 0.363291 -5.86476 0
M  V30 117 H 8.1226 1.28996 -5.96818 0
M  V30 118 H 9.5366 -0.959379 -5.65216 0
M  V30 119 H 7.9336 -1.7455 -5.74154 0
M  V30 120 H 9.0036 -2.09663 -4.37229 0
M  V30 121 N 10.3467 1.47872 -0.545128 0
M  V30 122 C 11.2787 2.27869 0.246621 0
M  V30 123 C 12.2917 1.36282 0.890561 0
M  V30 124 O 13.4807 1.61207 0.766449 0
M  V30 125 C 10.5807 3.10159 1.36582 0
M  V30 126 C 9.7537 4.29627 0.820954 0
M  V30 127 C 8.8127 4.93607 1.82314 0
M  V30 128 O 7.8387 5.52366 1.37406 0
M  V30 129 N 9.0407 4.87211 3.15603 0
M  V30 130 H 11.8057 2.96459 -0.439539 0
M  V30 131 H 9.3667 1.57367 -0.380421 0
M  V30 132 H 11.3587 3.49829 2.03474 0
M  V30 133 H 9.9287 2.43891 1.9554 0
M  V30 134 H 9.1487 3.94192 -0.0244032 0
M  V30 135 H 10.4367 5.06928 0.436063 0
M  V30 136 H 9.8347 4.40651 3.54744 0
M  V30 137 H 8.3917 5.30937 3.78087 0
M  V30 138 N 11.8248 0.280983 1.55075 0
M  V30 139 C 12.7878 -0.590896 2.21452 0
M  V30 140 C 13.7878 -1.07682 1.19421 0
M  V30 141 O 14.9778 -0.97605 1.44288 0
M  V30 142 C 12.1098 -1.81587 2.88511 0
M  V30 143 H 13.3028 -0.0112554 2.99898 0
M  V30 144 H 10.8558 0.0316438 1.56268 0
M  V30 145 H 11.5908 -2.43587 2.14093 0
M  V30 146 H 11.3758 -1.4753 3.63287 0
M  V30 147 H 12.8658 -2.43575 3.39206 0
M  V30 148 N 13.3029 -1.57598 0.00835791 0
M  V30 149 C 14.5509 -1.90551 -0.6734 0
M  V30 150 C 14.8719 -0.883301 -1.73847 0
M  V30 151 O 14.1419 0.0781442 -1.95744 0
M  V30 152 H 12.7219 -0.703312 -0.251717 0
M  V30 153 H 15.3839 -1.94833 0.0512592 0
M  V30 154 H 14.4799 -2.9056 -1.13935 0
M  V30 155 N 14.781 0.264519 -1.55364 0
M  V30 156 C 16.029 0.993021 -1.76021 0
M  V30 157 C 16.35 1.86511 -0.569099 0
M  V30 158 O 15.62 1.91438 0.415735 0
M  V30 159 H 14.2 0.369639 -0.649135 0
M  V30 160 H 16.862 0.286707 -1.9278 0
M  V30 161 H 15.958 1.62502 -2.66457 0
M  V30 162 N 16.2591 1.48442 0.529413 0
M  V30 163 C 17.4841 1.60406 1.31471 0
M  V30 164 C 17.9091 0.264738 1.86228 0
M  V30 165 O 17.2671 -0.763668 1.64432 0
M  V30 166 C 17.3151 2.65419 2.44101 0
M  V30 167 O 16.4191 2.22618 3.47153 0
M  V30 168 H 15.7601 0.537863 0.389357 0
M  V30 169 H 18.2901 1.94432 0.636965 0
M  V30 170 H 18.3001 2.86709 2.90279 0
M  V30 171 H 16.9751 3.62652 2.03608 0
M  V30 172 H 15.5521 2.11543 3.0709 0
M  V30 173 N 17.7372 -0.778329 1.37039 0
M  V30 174 C 18.9832 -1.53892 1.32079 0
M  V30 175 C 19.3162 -1.9396 -0.0965386 0
M  V30 176 O 18.5912 -1.63568 -1.05242 0
M  V30 177 C 18.8742 -2.80847 2.25382 0
M  V30 178 C 18.7272 -2.47076 3.75864 0
M  V30 179 C 20.0462 -3.82741 2.1725 0
M  V30 180 H 17.1652 -0.558303 0.48111 0
M  V30 181 H 19.8072 -0.893397 1.67685 0
M  V30 182 H 17.9572 -3.35931 1.95148 0
M  V30 183 H 19.6292 -1.97957 4.16666 0
M  V30 184 H 17.8722 -1.79863 3.94755 0
M  V30 185 H 18.5432 -3.37798 4.36574 0
M  V30 186 H 21.0192 -3.37133 2.43887 0
M  V30 187 H 19.8952 -4.69303 2.84686 0
M  V30 188 H 20.1562 -4.2652 1.16331 0
M  V30 189 N 19.2153 -1.21501 -1.00376 0
M  V30 190 C 20.1453 -0.999478 -2.11028 0
M  V30 191 C 21.1263 0.0759671 -1.6993 0
M  V30 192 O 22.3113 -0.0841106 -1.94018 0
M  V30 193 C 19.4413 -0.564709 -3.42678 0
M  V30 194 C 18.3953 -1.58486 -3.97576 0
M  V30 195 C 17.7213 -1.00628 -5.25146 0
M  V30 196 C 19.0213 -2.97204 -4.29496 0
M  V30 197 H 20.7153 -1.92495 -2.29317 0
M  V30 198 H 18.2613 -0.92693 -1.102 0
M  V30 199 H 20.2143 -0.401091 -4.19487 0
M  V30 200 H 18.9383 0.396411 -3.24185 0
M  V30 201 H 17.5973 -1.73606 -3.22888 0
M  V30 202 H 17.2453 -0.0368439 -5.02987 0
M  V30 203 H 16.9453 -1.68771 -5.62841 0
M  V30 204 H 18.4693 -0.854015 -6.04598 0
M  V30 205 H 19.8833 -2.8552 -4.97143 0
M  V30 206 H 18.2803 -3.62372 -4.78338 0
M  V30 207 H 19.3503 -3.47956 -3.3772 0
M  V30 208 N 20.6934 1.19889 -1.02296 0
M  V30 209 C 21.9414 1.89046 -0.714558 0
M  V30 210 C 22.2624 1.79636 0.758681 0
M  V30 211 O 21.5324 1.20292 1.54618 0
M  V30 212 H 20.1124 0.699802 -0.261317 0
M  V30 213 H 22.7744 1.45574 -1.29592 0
M  V30 214 H 21.8704 2.95524 -1.0036 0
M  V30 215 N 22.1715 0.800033 1.35784 0
M  V30 216 C 23.1035 0.163596 2.28615 0
M  V30 217 C 24.1165 -0.633317 1.49976 0
M  V30 218 O 25.3055 -0.466754 1.72289 0
M  V30 219 C 22.4055 -0.790958 3.29541 0
M  V30 220 C 21.5785 -0.0418255 4.3738 0
M  V30 221 C 20.6375 -0.91389 5.18203 0
M  V30 222 O 19.6635 -0.367234 5.68014 0
M  V30 223 N 20.8655 -2.23682 5.35674 0
M  V30 224 H 23.6305 0.96105 2.83873 0
M  V30 225 H 21.1915 0.654894 1.48063 0
M  V30 226 H 23.1835 -1.37844 3.80501 0
M  V30 227 H 21.7535 -1.48925 2.74846 0
M  V30 228 H 20.9735 0.726813 3.87442 0
M  V30 229 H 22.2615 0.474719 5.06581 0
M  V30 230 H 21.6595 -2.70497 4.96838 0
M  V30 231 H 20.2165 -2.77369 5.89839 0
M  V30 232 N 23.6496 -1.47581 0.552962 0
M  V30 233 C 24.6126 -2.28439 -0.186605 0
M  V30 234 C 25.6126 -1.36706 -0.84665 0
M  V30 235 O 26.8026 -1.59378 -0.703164 0
M  V30 236 C 23.9346 -3.16264 -1.2724 0
M  V30 237 H 25.1276 -2.95294 0.523609 0
M  V30 238 H 22.6806 -1.532 0.309745 0
M  V30 239 H 23.4156 -2.54091 -2.01514 0
M  V30 240 H 23.2006 -3.83769 -0.803968 0
M  V30 241 H 24.6906 -3.77198 -1.79196 0
M  V30 242 N 25.1277 -0.289203 -1.54924 0
M  V30 243 C 26.0607 0.633823 -2.19221 0
M  V30 244 C 27.0387 1.14174 -1.15772 0
M  V30 245 O 28.2227 1.21211 -1.44361 0
M  V30 246 C 25.3497 1.86592 -2.82668 0
M  V30 247 C 24.3957 1.49227 -3.99542 0
M  V30 248 S 25.2287 0.558312 -5.32582 0
M  V30 249 C 26.3847 1.79847 -5.99505 0
M  V30 250 H 26.6177 0.0875416 -2.97171 0
M  V30 251 H 24.1507 -0.0733899 -1.54225 0
M  V30 252 H 26.1087 2.57305 -3.19851 0
M  V30 253 H 24.7697 2.38335 -2.04585 0
M  V30 254 H 23.9627 2.40945 -4.42676 0
M  V30 255 H 23.5647 0.865193 -3.63855 0
M  V30 256 H 25.8567 2.7406 -6.19595 0
M  V30 257 H 26.7997 1.4099 -6.93922 0
M  V30 258 H 27.2077 1.96982 -5.29016 0
M  V30 259 N 26.6058 1.57591 -0.0167156 0
M  V30 260 C 27.5158 2.1291 0.98521 0
M  V30 261 C 28.5318 1.07834 1.36557 0
M  V30 262 O 29.7078 1.39826 1.44951 0
M  V30 263 C 26.7728 2.63512 2.25305 0
M  V30 264 C 25.8338 3.83256 1.93426 0
M  V30 265 C 25.0668 4.31435 3.14165 0
M  V30 266 O 25.2898 3.78851 4.26413 0
M  V30 267 O 24.2238 5.23416 2.97186 0
M  V30 268 H 28.0498 2.98772 0.544888 0
M  V30 269 H 25.6348 1.48012 0.203141 0
M  V30 270 H 27.5168 2.96183 2.99756 0
M  V30 271 H 26.1918 1.8074 2.68542 0
M  V30 272 H 25.0988 3.55531 1.16398 0
M  V30 273 H 26.4318 4.67153 1.55013 0
M  V30 274 N 28.0839 -0.256276 1.55502 0
M  V30 275 C 29.0309 -1.31714 1.89526 0
M  V30 276 C 30.0009 -1.4828 0.748479 0
M  V30 277 O 31.1859 -1.62416 1.00128 0
M  V30 278 C 28.3259 -2.66933 2.18725 0
M  V30 279 C 27.4389 -2.58452 3.4616 0
M  V30 280 C 26.5739 -3.85961 3.64976 0
M  V30 281 C 25.6129 -3.72059 4.86044 0
M  V30 282 N 24.7499 -4.9144 5.01429 0
M  V30 283 H 29.5899 -1.01998 2.80001 0
M  V30 284 H 27.1269 -0.492413 1.38613 0
M  V30 285 H 29.0849 -3.4563 2.33657 0
M  V30 286 H 27.7149 -2.94816 1.31466 0
M  V30 287 H 26.7669 -1.71374 3.3961 0
M  V30 288 H 28.0789 -2.44085 4.34999 0
M  V30 289 H 27.2329 -4.73101 3.79816 0
M  V30 290 H 25.9719 -4.03215 2.74353 0
M  V30 291 H 24.9769 -2.83302 4.7119 0
M  V30 292 H 26.2019 -3.56309 5.78118 0
M  V30 293 H 24.1479 -5.09072 4.13741 0
M  V30 294 H 24.0649 -4.79668 5.84341 0
M  V30 295 H 25.3329 -5.80104 5.20672 0
M  V30 296 N 29.562 -1.4872 -0.521534 0
M  V30 297 C 30.808 -1.574 -1.27879 0
M  V30 298 C 31.141 -0.250817 -1.92573 0
M  V30 299 O 30.416 0.743934 -1.79711 0
M  V30 300 C 30.699 -2.71843 -2.36164 0
M  V30 301 C 30.552 -4.13893 -1.76105 0
M  V30 302 C 31.871 -2.82008 -3.37875 0
M  V30 303 H 28.99 -0.572941 -0.463581 0
M  V30 304 H 31.632 -1.80927 -0.580119 0
M  V30 305 H 29.782 -2.51914 -2.95756 0
M  V30 306 H 31.454 -4.45284 -1.20499 0
M  V30 307 H 29.697 -4.20498 -1.06601 0
M  V30 308 H 30.368 -4.89804 -2.5455 0
M  V30 309 H 32.844 -3.00086 -2.88249 0
M  V30 310 H 31.72 -3.63796 -4.11028 0
M  V30 311 H 31.981 -1.90511 -3.98946 0
M  V30 312 N 31.0401 0.771051 -1.3745 0
M  V30 313 C 32.2681 1.56015 -1.35893 0
M  V30 314 C 32.6831 1.88718 0.0555523 0
M  V30 315 O 32.0401 1.51502 1.01752 0
M  V30 316 C 32.0911 2.87001 -2.19801 0
M  V30 317 O 31.8121 2.557 -3.55738 0
M  V30 318 C 33.3131 3.81228 -2.26231 0
M  V30 319 H 30.5331 0.483317 -0.465453 0
M  V30 320 H 33.0771 0.955611 -1.80799 0
M  V30 321 H 31.2321 3.43877 -1.78402 0
M  V30 322 H 31.6461 3.39584 -3.99729 0
M  V30 323 H 33.1201 4.70139 -2.89263 0
M  V30 324 H 33.5971 4.20409 -1.27093 0
M  V30 325 H 34.2031 3.30281 -2.67945 0
M  V30 326 N 32.5182 1.22032 0.997298 0
M  V30 327 C 33.7662 1.04016 1.73278 0
M  V30 328 C 34.0872 -0.426255 1.90284 0
M  V30 329 O 33.3572 -1.30694 1.45931 0
M  V30 330 H 31.9372 0.381897 0.642 0
M  V30 331 H 34.5992 1.5347 1.20137 0
M  V30 332 H 33.6952 1.51441 2.72896 0
M  V30 333 N 33.9963 -1.19345 1.0293 0
M  V30 334 C 35.2443 -1.88665 0.724574 0
M  V30 335 C 35.5653 -1.80036 -0.749144 0
M  V30 336 O 34.8353 -1.2111 -1.53978 0
M  V30 337 H 33.4153 -0.698406 0.265025 0
M  V30 338 H 36.0773 -1.44885 1.30362 0
M  V30 339 H 35.1733 -2.94987 1.01926 0
M  V30 340 N 35.4744 -0.807222 -1.35358 0
M  V30 341 C 36.4224 -0.20614 -2.31685 0
M  V30 342 C 37.4164 0.644445 -1.56663 0
M  V30 343 O 38.6224 0.537538 -1.71786 0
M  V30 344 H 34.9974 -0.0479006 -0.750473 0
M  V30 345 H 36.9684 -1.03369 -2.79924 0
M  V30 346 C 35.7174 0.630212 -3.41941 0
M  V30 347 H 35.0404 -0.0149558 -3.99797 0
M  V30 348 H 36.4804 1.01716 -4.11619 0
M  V30 349 C 34.9394 1.79601 -2.85035 0
M  V30 350 O 35.4694 2.89351 -2.78637 0
M  V30 351 N 33.6754 1.60774 -2.42074 0
M  V30 352 H 33.2224 0.715009 -2.47478 0
M  V30 353 H 33.1804 2.38933 -2.04349 0
M  V30 354 N 36.9525 1.47285 -0.560781 0
M  V30 355 C 37.8825 2.32857 0.173105 0
M  V30 356 C 38.8635 1.44009 0.905281 0
M  V30 357 O 40.0485 1.7286 0.885046 0
M  V30 358 C 37.1785 3.25861 1.20133 0
M  V30 359 C 36.1325 4.23978 0.585388 0
M  V30 360 C 35.4585 5.06332 1.7185 0
M  V30 361 C 36.7585 5.20242 -0.463178 0
M  V30 362 H 38.4525 2.94466 -0.541307 0
M  V30 363 H 35.9985 1.41601 -0.261764 0
M  V30 364 H 37.9515 3.84569 1.72293 0
M  V30 365 H 36.6755 2.62315 1.94573 0
M  V30 366 H 35.3345 3.66501 0.085054 0
M  V30 367 H 34.9825 4.39186 2.45203 0
M  V30 368 H 34.6825 5.72762 1.31213 0
M  V30 369 H 36.2065 5.67899 2.24329 0
M  V30 370 H 37.6205 5.73293 -0.027502 0
M  V30 371 H 36.0175 5.94896 -0.788627 0
M  V30 372 H 37.0875 4.65504 -1.35773 0
M  V30 373 N 38.4306 0.297415 1.54768 0
M  V30 374 C 39.3606 -0.573494 2.26348 0
M  V30 375 C 40.3416 -1.14085 1.26169 0
M  V30 376 O 41.5266 -1.17086 1.54934 0
M  V30 377 C 38.6566 -1.74716 3.00153 0
M  V30 378 C 37.6106 -1.31032 4.07449 0
M  V30 379 C 36.9366 -2.56887 4.68949 0
M  V30 380 C 38.2366 -0.444183 5.20408 0
M  V30 381 H 39.9306 0.0235131 2.99391 0
M  V30 382 H 37.4766 0.0127488 1.43994 0
M  V30 383 H 39.4296 -2.3625 3.48947 0
M  V30 384 H 38.1536 -2.37035 2.24682 0
M  V30 385 H 36.8126 -0.718066 3.59499 0
M  V30 386 H 36.4606 -3.17512 3.90122 0
M  V30 387 H 36.1606 -2.2836 5.41411 0
M  V30 388 H 37.6846 -3.19229 5.20505 0
M  V30 389 H 39.0986 -0.9651 5.65118 0
M  V30 390 H 37.4956 -0.252846 5.99567 0
M  V30 391 H 38.5656 0.531609 4.81977 0
M  V30 392 N 39.9087 -1.5758 0.0250728 0
M  V30 393 C 41.1337 -1.96337 -0.668317 0
M  V30 394 C 41.5587 -0.901314 -1.651 0
M  V30 395 O 40.9167 0.138187 -1.80773 0
M  V30 396 C 40.9647 -3.34191 -1.35457 0
M  V30 397 O 40.0687 -3.30269 -2.46974 0
M  V30 398 H 39.4097 -0.640281 -0.175887 0
M  V30 399 H 41.9397 -2.0442 0.0857224 0
M  V30 400 H 41.9497 -3.70331 -1.71228 0
M  V30 401 H 40.6247 -4.11036 -0.634218 0
M  V30 402 H 39.2017 -3.05841 -2.13344 0
M  V30 403 N 41.3868 0.248026 -1.55636 0
M  V30 404 C 42.3198 1.3334 -1.85191 0
M  V30 405 C 43.2978 1.46429 -0.706906 0
M  V30 406 O 44.4818 1.62662 -0.952544 0
M  V30 407 C 41.6088 2.70703 -2.03562 0
M  V30 408 C 40.6548 2.7477 -3.26196 0
M  V30 409 S 41.4878 2.31493 -4.82878 0
M  V30 410 C 42.6438 3.70783 -5.04253 0
M  V30 411 H 42.8768 1.08072 -2.76962 0
M  V30 412 H 40.4098 0.448952 -1.47729 0
M  V30 413 H 42.3678 3.49798 -2.1483 0
M  V30 414 H 41.0288 2.9321 -1.12635 0
M  V30 415 H 40.2218 3.75648 -3.36013 0
M  V30 416 H 39.8238 2.03719 -3.13647 0
M  V30 417 H 42.1158 4.6627 -4.91527 0
M  V30 418 H 43.0588 3.65901 -6.06236 0
M  V30 419 H 43.4668 3.63244 -4.32105 0
M  V30 420 N 42.8649 1.48995 0.513639 0
M  V30 421 C 43.7949 1.67636 1.62544 0
M  V30 422 C 44.7759 0.525087 1.61793 0
M  V30 423 O 45.9609 0.759502 1.78732 0
M  V30 424 C 43.0909 1.73114 3.01079 0
M  V30 425 C 42.0449 2.87905 3.16693 0
M  V30 426 C 41.3709 2.78486 4.56453 0
M  V30 427 C 42.6709 4.29005 2.97913 0
M  V30 428 H 44.3649 2.60716 1.47198 0
M  V30 429 H 41.9109 1.25465 0.706714 0
M  V30 430 H 43.8639 1.84742 3.78746 0
M  V30 431 H 42.5879 0.766241 3.17484 0
M  V30 432 H 41.2469 2.75859 2.41448 0
M  V30 433 H 40.8949 1.7993 4.69717 0
M  V30 434 H 40.5949 3.55523 4.67843 0
M  V30 435 H 42.1189 2.92104 5.36197 0
M  V30 436 H 43.5329 4.41798 3.65359 0
M  V30 437 H 41.9299 5.07166 3.20785 0
M  V30 438 H 42.9999 4.44329 1.94165 0
M  V30 439 N 44.343 -0.763751 1.37857 0
M  V30 440 C 45.273 -1.89103 1.36975 0
M  V30 441 C 46.254 -1.68439 0.237152 0
M  V30 442 O 47.439 -1.8918 0.438713 0
M  V30 443 C 44.569 -3.26496 1.18395 0
M  V30 444 C 43.523 -3.61741 2.28751 0
M  V30 445 C 42.849 -4.97762 1.95286 0
M  V30 446 C 44.149 -3.67665 3.70972 0
M  V30 447 H 45.843 -1.90099 2.31307 0
M  V30 448 H 43.389 -0.91319 1.11341 0
M  V30 449 H 45.342 -4.05003 1.16406 0
M  V30 450 H 44.066 -3.25955 0.205215 0
M  V30 451 H 42.725 -2.85547 2.29909 0
M  V30 452 H 42.373 -4.93769 0.959221 0
M  V30 453 H 42.073 -5.22313 2.69189 0
M  V30 454 H 43.597 -5.7866 1.94898 0
M  V30 455 H 45.011 -4.36307 3.719 0
M  V30 456 H 43.408 -4.03718 4.43995 0
M  V30 457 H 44.478 -2.68134 4.0402 0
M  V30 458 N 45.8211 -1.22559 -0.990812 0
M  V30 459 C 47.0701 -1.04553 -1.72486 0
M  V30 460 C 47.3831 0.419349 -1.91052 0
M  V30 461 O 48.5891 0.719121 -2.61803 0
M  V30 462 C 47.0451 -1.82231 -3.10355 0
M  V30 463 C 46.6531 -3.32981 -2.99713 0
M  V30 464 C 48.3971 -1.7268 -3.87791 0
M  V30 465 C 46.3041 -4.03091 -4.32748 0
M  V30 466 H 45.2341 -0.387614 -0.646739 0
M  V30 467 H 47.8851 -1.46429 -1.10593 0
M  V30 468 H 46.2671 -1.33155 -3.72942 0
M  V30 469 H 47.4411 -3.89466 -2.46278 0
M  V30 470 H 45.7561 -3.43231 -2.35758 0
M  V30 471 H 48.3531 -2.22381 -4.86262 0
M  V30 472 H 48.6961 -0.687607 -4.10582 0
M  V30 473 H 49.2291 -2.1931 -3.31885 0
M  V30 474 H 45.9681 -5.07273 -4.15156 0
M  V30 475 H 45.4881 -3.51394 -4.86089 0
M  V30 476 H 47.1671 -4.08804 -5.01486 0
M  V30 477 N 47.2992 1.18797 -1.03562 0
M  V30 478 C 48.2622 2.20464 -0.626769 0
M  V30 479 C 49.2622 1.57721 0.313173 0
M  V30 480 O 50.4522 1.73917 0.0992615 0
M  V30 481 C 47.5842 3.40802 0.0818498 0
M  V30 482 H 48.7772 2.58149 -1.5264 0
M  V30 483 H 46.3302 1.32593 -0.827578 0
M  V30 484 H 47.0652 3.08642 0.995518 0
M  V30 485 H 46.8502 3.8758 -0.593652 0
M  V30 486 H 48.3402 4.16092 0.354584 0
M  V30 487 N 48.7773 0.814389 1.34928 0
M  V30 488 C 50.0173 0.404165 2.00364 0
M  V30 489 C 50.3813 -1.01166 1.63185 0
M  V30 490 O 51.5823 -1.52431 2.21401 0
M  V30 491 C 49.8533 0.590718 3.52484 0
M  V30 492 S 51.4123 0.272075 4.37956 0
M  V30 493 H 48.2303 0.15311 0.694319 0
M  V30 494 H 50.8323 1.05834 1.64376 0
M  V30 495 H 49.5363 1.62099 3.77031 0
M  V30 496 H 49.0673 -0.0785013 3.93322 0
M  V30 497 H 51.0823 -0.917405 4.87645 0
M  V30 498 N 50.2554 -1.46986 0.568584 0
M  V30 499 C 51.2184 -2.28624 -0.162366 0
M  V30 500 C 52.2184 -1.37596 -0.832103 0
M  V30 501 O 53.4084 -1.60115 -0.68622 0
M  V30 502 C 50.5404 -3.17596 -1.23878 0
M  V30 503 H 51.7334 -2.94722 0.554899 0
M  V30 504 H 49.2864 -1.52863 0.325976 0
M  V30 505 H 50.0214 -2.56214 -1.98808 0
M  V30 506 H 49.8064 -3.846 -0.763219 0
M  V30 507 H 51.2964 -3.79078 -1.75185 0
M  V30 508 N 51.7335 -0.305618 -1.54608 0
M  V30 509 C 52.9805 0.302298 -2.00231 0
M  V30 510 C 53.3085 1.5354 -1.19398 0
M  V30 511 O 52.5635 1.93973 -0.259423 0
M  V30 512 C 52.8625 0.698983 -3.50498 0
M  V30 513 C 52.5285 -0.432903 -4.48817 0
M  V30 514 C 51.1905 -0.743622 -4.75419 0
M  V30 515 C 53.5425 -1.19409 -5.07337 0
M  V30 516 C 50.8705 -1.81857 -5.57804 0
M  V30 517 C 53.2225 -2.25899 -5.90891 0
M  V30 518 C 51.8865 -2.57572 -6.15803 0
M  V30 519 H 51.1565 0.110619 -0.732697 0
M  V30 520 H 53.8035 -0.425674 -1.86709 0
M  V30 521 H 52.1085 1.50711 -3.61654 0
M  V30 522 H 53.8055 1.1806 -3.83227 0
M  V30 523 H 50.3955 -0.18063 -4.28219 0
M  V30 524 H 54.5795 -0.967295 -4.86782 0
M  V30 525 H 49.8355 -2.06864 -5.75341 0
M  V30 526 H 54.0095 -2.85335 -6.35261 0
M  V30 527 H 51.6365 -3.40998 -6.7943 0
M  V30 528 N 53.2116 1.57565 -0.0334293 0
M  V30 529 C 54.4396 1.9628 0.654347 0
M  V30 530 C 54.8546 0.910138 1.65414 0
M  V30 531 O 54.2116 -0.107595 1.82183 0
M  V30 532 C 54.2626 3.35067 1.35693 0
M  V30 533 O 53.9836 4.36296 0.397191 0
M  V30 534 C 55.4846 3.88439 2.13613 0
M  V30 535 H 52.7046 0.646369 0.180132 0
M  V30 536 H 55.2486 2.04282 -0.0944721 0
M  V30 537 H 53.4036 3.2827 2.05712 0
M  V30 538 H 53.8176 5.1678 0.896597 0
M  V30 539 H 55.2916 4.8788 2.58219 0
M  V30 540 H 55.7686 3.22914 2.97696 0
M  V30 541 H 56.3746 3.98516 1.48543 0
M  V30 542 N 54.6897 -0.239769 1.55765 0
M  V30 543 C 55.6197 -1.30052 1.9393 0
M  V30 544 C 56.6007 -1.49839 0.805132 0
M  V30 545 O 57.7857 -1.62328 1.06599 0
M  V30 546 C 54.9157 -2.65391 2.2402 0
M  V30 547 C 53.8697 -2.60289 3.39755 0
M  V30 548 C 53.1957 -3.99489 3.55405 0
M  V30 549 C 54.4957 -2.16654 4.75246 0
M  V30 550 H 56.1897 -0.983573 2.82783 0
M  V30 551 H 53.7357 -0.471701 1.36055 0
M  V30 552 H 55.6887 -3.3974 2.49308 0
M  V30 553 H 54.4127 -2.98736 1.32 0
M  V30 554 H 53.0717 -1.88398 3.14487 0
M  V30 555 H 52.7197 -4.30112 2.60793 0
M  V30 556 H 52.4197 -3.96962 4.33238 0
M  V30 557 H 53.9437 -4.75528 3.83022 0
M  V30 558 H 55.3577 -2.80737 4.99859 0
M  V30 559 H 53.7547 -2.25223 5.56232 0
M  V30 560 H 54.8247 -1.11835 4.71827 0
M  V30 561 N 56.1678 -1.49265 -0.50573 0
M  V30 562 C 57.3928 -1.62478 -1.28902 0
M  V30 563 C 57.8178 -0.294332 -1.85783 0
M  V30 564 O 57.1758 0.737412 -1.65626 0
M  V30 565 C 57.2238 -2.69268 -2.39848 0
M  V30 566 O 56.3278 -2.28113 -3.43567 0
M  V30 567 H 55.6688 -0.54399 -0.380751 0
M  V30 568 H 58.1988 -1.95421 -0.605952 0
M  V30 569 H 58.2088 -2.91291 -2.85681 0
M  V30 570 H 56.8838 -3.65846 -1.97812 0
M  V30 571 H 55.4608 -2.16401 -3.03685 0
M  V30 572 N 57.6459 0.756429 -1.3826 0
M  V30 573 C 58.5759 1.88374 -1.37976 0
M  V30 574 C 59.5569 1.68311 -0.246082 0
M  V30 575 O 60.7419 1.88944 -0.44874 0
M  V30 576 C 57.8719 3.25864 -1.20125 0
M  V30 577 C 56.8259 3.60523 -2.30666 0
M  V30 578 C 56.1519 4.9672 -1.97923 0
M  V30 579 C 57.4519 3.65692 -3.72916 0
M  V30 580 H 59.1459 1.88869 -2.32312 0
M  V30 581 H 56.6919 0.907272 -1.11824 0
M  V30 582 H 58.6449 4.0438 -1.18552 0
M  V30 583 H 57.3689 3.25841 -0.222498 0
M  V30 584 H 56.0279 2.84324 -2.3142 0
M  V30 585 H 55.6759 4.93253 -0.985393 0
M  V30 586 H 55.3759 5.20878 -2.71955 0
M  V30 587 H 56.8999 5.77618 -1.97964 0
M  V30 588 H 58.3139 4.34328 -3.74208 0
M  V30 589 H 56.7109 4.01358 -4.4613 0
M  V30 590 H 57.7809 2.65987 -4.05436 0
M  V30 591 N 59.124 1.23083 0.984299 0
M  V30 592 C 60.37 1.06214 1.72761 0
M  V30 593 C 60.703 -0.400584 1.90024 0
M  V30 594 O 59.978 -1.29672 1.44967 0
M  V30 595 C 60.261 1.78375 3.12817 0
M  V30 596 C 60.114 3.32296 3.03149 0
M  V30 597 C 61.433 1.54309 4.12161 0
M  V30 598 H 58.552 0.387251 0.627061 0
M  V30 599 H 61.194 1.51536 1.14616 0
M  V30 600 H 59.344 1.39848 3.62457 0
M  V30 601 H 61.016 3.8032 2.61064 0
M  V30 602 H 59.259 3.6153 2.39747 0
M  V30 603 H 59.93 3.77972 4.02295 0
M  V30 604 H 62.406 1.87791 3.71314 0
M  V30 605 H 61.282 2.07281 5.08258 0
M  V30 606 H 61.543 0.477572 4.39513 0
M  V30 607 N 60.6021 -1.18246 1.0419 0
M  V30 608 C 61.8321 -1.91916 0.764961 0
M  V30 609 C 62.2401 -1.76485 -0.681898 0
M  V30 610 O 61.5831 -1.09275 -1.47664 0
M  V30 611 C 61.6451 -3.4373 1.05309 0
M  V30 612 C 61.3091 -3.8294 2.4941 0
M  V30 613 C 62.3061 -3.86621 3.47592 0
M  V30 614 C 59.9911 -4.142 2.84155 0
M  V30 615 C 61.9851 -4.21013 4.78568 0
M  V30 616 C 59.6721 -4.48262 4.15337 0
M  V30 617 C 60.6701 -4.51645 5.12353 0
M  V30 618 O 60.3581 -4.84911 6.41183 0
M  V30 619 H 60.0901 -0.61606 0.278292 0
M  V30 620 H 62.6441 -1.50947 1.39299 0
M  V30 621 H 60.8741 -3.84946 0.367933 0
M  V30 622 H 62.5631 -3.9865 0.763752 0
M  V30 623 H 63.3291 -3.62607 3.22089 0
M  V30 624 H 59.2081 -4.10743 2.09311 0
M  V30 625 H 62.7521 -4.23568 5.54289 0
M  V30 626 H 58.6491 -4.71737 4.40607 0
M  V30 627 H 59.4171 -5.02809 6.45852 0
M  V30 628 N 62.0802 -0.821533 -1.34494 0
M  V30 629 C 63.0102 -0.257138 -2.3208 0
M  V30 630 C 63.9912 0.625645 -1.58176 0
M  V30 631 O 65.1762 0.552811 -1.86166 0
M  V30 632 C 62.3062 0.582958 -3.42372 0
M  V30 633 C 61.2602 -0.202571 -4.2752 0
M  V30 634 C 60.5862 0.760179 -5.29269 0
M  V30 635 C 61.8862 -1.40998 -5.02908 0
M  V30 636 H 63.5802 -1.07247 -2.79532 0
M  V30 637 H 61.1262 -0.517163 -1.34393 0
M  V30 638 H 63.0792 0.987972 -4.09655 0
M  V30 639 H 61.8032 1.43133 -2.93565 0
M  V30 640 H 60.4622 -0.588936 -3.61838 0
M  V30 641 H 60.1102 1.60447 -4.76724 0
M  V30 642 H 59.8102 0.238809 -5.87115 0
M  V30 643 H 61.3342 1.16308 -5.9942 0
M  V30 644 H 62.7482 -1.07905 -5.63054 0
M  V30 645 H 61.1452 -1.86689 -5.70322 0
M  V30 646 H 62.2152 -2.1889 -4.32684 0
M  V30 647 N 63.5583 1.46682 -0.576371 0
M  V30 648 C 64.8073 2.01619 -0.0572825 0
M  V30 649 C 65.1203 1.45417 1.30818 0
M  V30 650 O 66.3263 1.92133 1.91825 0
M  V30 651 C 64.7823 3.59863 -0.0518371 0
M  V30 652 C 64.3903 4.25059 -1.41523 0
M  V30 653 C 66.1343 4.2248 0.413639 0
M  V30 654 C 64.0413 5.75364 -1.36785 0
M  V30 655 H 62.9713 0.753794 -0.0176448 0
M  V30 656 H 65.6223 1.68481 -0.727076 0
M  V30 657 H 64.0043 3.90048 0.683994 0
M  V30 658 H 65.1783 4.06491 -2.17029 0
M  V30 659 H 63.4933 3.7451 -1.8202 0
M  V30 660 H 66.0903 5.3265 0.467779 0
M  V30 661 H 66.4333 3.90976 1.42982 0
M  V30 662 H 66.9663 3.96897 -0.267929 0
M  V30 663 H 63.7053 6.11518 -2.36063 0
M  V30 664 H 63.2253 5.96214 -0.654895 0
M  V30 665 H 64.9043 6.37955 -1.07805 0
M  V30 666 N 65.0364 0.313813 1.54444 0
M  V30 667 C 66.4524 -0.0391619 1.59552 0
M  V30 668 C 66.6524 -1.51322 1.33056 0
M  V30 669 O 65.7084 -2.26782 1.11022 0
M  V30 670 C 67.0214 0.370302 2.98411 0
M  V30 671 C 68.5694 0.320139 3.11358 0
M  V30 672 C 69.0444 0.704617 4.52547 0
M  V30 673 N 70.5354 0.657645 4.58508 0
M  V30 674 C 71.2704 0.927453 5.6585 0
M  V30 675 N 70.7664 1.26389 6.81174 0
M  V30 676 N 72.5594 0.853662 5.5558 0
M  V30 677 H 64.7104 1.27433 1.69925 0
M  V30 678 H 66.9734 0.517511 0.794284 0
M  V30 679 H 66.6794 1.39694 3.22767 0
M  V30 680 H 66.5534 -0.269619 3.76235 0
M  V30 681 H 68.9404 -0.697275 2.86744 0
M  V30 682 H 69.0214 0.99486 2.35661 0
M  V30 683 H 68.6654 1.7199 4.77893 0
M  V30 684 H 68.5954 0.00768843 5.26599 0
M  V30 685 H 71.0864 0.409067 3.75679 0
M  V30 686 H 71.3994 1.4554 7.58972 0
M  V30 687 H 69.7444 1.30206 6.82694 0
M  V30 688 H 72.9354 0.590383 4.64362 0
M  V30 689 H 73.1084 1.0673 6.3915 0
M  V30 690 N 66.5145 -1.57545 0.0417849 0
M  V30 691 C 67.4445 -2.14009 -0.933929 0
M  V30 692 C 68.4255 -1.05938 -1.33083 0
M  V30 693 O 69.6105 -1.33833 -1.40721 0
M  V30 694 C 66.7405 -2.67747 -2.21199 0
M  V30 695 C 65.6945 -3.80718 -1.95544 0
M  V30 696 C 65.0205 -4.20935 -3.29724 0
M  V30 697 C 66.3205 -5.06258 -1.28452 0
M  V30 698 H 68.0145 -2.95788 -0.463645 0
M  V30 699 H 65.5605 -1.42285 -0.221573 0
M  V30 700 H 67.5135 -3.05886 -2.89848 0
M  V30 701 H 66.2375 -1.83147 -2.70416 0
M  V30 702 H 64.8965 -3.43037 -1.2931 0
M  V30 703 H 64.5445 -3.33298 -3.76724 0
M  V30 704 H 64.2445 -4.9707 -3.13361 0
M  V30 705 H 65.7685 -4.61666 -3.9962 0
M  V30 706 H 67.1825 -5.41903 -1.8712 0
M  V30 707 H 65.5795 -5.87475 -1.22445 0
M  V30 708 H 66.6495 -4.84207 -0.259219 0
M  V30 709 N 67.9926 0.231505 -1.5589 0
M  V30 710 C 68.9556 1.27028 -1.90779 0
M  V30 711 C 69.9556 1.40308 -0.785507 0
M  V30 712 O 71.1456 1.38744 -1.05336 0
M  V30 713 C 68.2776 2.64566 -2.14983 0
M  V30 714 H 69.4706 0.973017 -2.83677 0
M  V30 715 H 67.0236 0.471486 -1.49019 0
M  V30 716 H 67.7586 2.99406 -1.24604 0
M  V30 717 H 67.5436 2.56305 -2.96732 0
M  V30 718 H 69.0336 3.39543 -2.43105 0
M  V30 719 N 69.4707 1.49531 0.497807 0
M  V30 720 C 70.4337 1.65916 1.58128 0
M  V30 721 C 71.4337 0.530825 1.51786 0
M  V30 722 O 72.6237 0.797342 1.54881 0
M  V30 723 C 69.7557 1.65951 2.9778 0
M  V30 724 H 70.9487 2.62556 1.44929 0
M  V30 725 H 68.5017 1.38611 0.722275 0
M  V30 726 H 69.2367 0.709065 3.16453 0
M  V30 727 H 69.0217 2.47897 3.03792 0
M  V30 728 H 70.5117 1.80673 3.76493 0
M  V30 729 N 70.9488 -0.749086 1.3866 0
M  V30 730 C 72.1968 -1.50535 1.34847 0
M  V30 731 C 72.5178 -1.94909 -0.0595016 0
M  V30 732 O 71.7878 -1.67973 -1.00806 0
M  V30 733 H 70.3678 -0.558395 0.49619 0
M  V30 734 H 73.0298 -0.890165 1.73384 0
M  V30 735 H 72.1258 -2.39413 2.00219 0
M  V30 736 N 72.4269 -1.23603 -0.977757 0
M  V30 737 C 73.3769 -0.986664 -2.05545 0
M  V30 738 C 74.3609 0.0683009 -1.60755 0
M  V30 739 O 75.5529 -0.144162 -1.76412 0
M  V30 740 C 72.6819 -0.582623 -3.3832 0
M  V30 741 C 71.7679 -1.67313 -3.89701 0
M  V30 742 N 72.1589 -2.90394 -4.14132 0
M  V30 743 C 70.4569 -1.54832 -4.18262 0
M  V30 744 C 71.1579 -3.61017 -4.56116 0
M  V30 745 N 70.1339 -2.8854 -4.60701 0
M  V30 746 H 73.9359 -1.92139 -2.22396 0
M  V30 747 H 71.4499 -1.1358 -1.16074 0
M  V30 748 H 73.4469 -0.38524 -4.15116 0
M  V30 749 H 72.1069 0.34503 -3.22862 0
M  V30 750 H 73.1179 -3.26673 -4.01877 0
M  V30 751 H 69.7949 -0.687969 -4.11793 0
M  V30 752 H 71.1849 -4.66544 -4.83514 0
M  V30 753 N 73.905 1.17692 -1.04816 0
M  V30 754 C 74.835 2.23777 -0.666791 0
M  V30 755 C 75.816 1.66796 0.33361 0
M  V30 756 O 77.001 1.93039 0.212042 0
M  V30 757 C 74.131 3.47281 -0.0367933 0
M  V30 758 C 73.085 4.17059 -0.961546 0
M  V30 759 C 72.411 5.34342 -0.195626 0
M  V30 760 C 73.711 4.69713 -2.28402 0
M  V30 761 H 75.405 2.55933 -1.55367 0
M  V30 762 H 72.951 1.23019 -0.748484 0
M  V30 763 H 74.904 4.20706 0.241775 0
M  V30 764 H 73.628 3.14381 0.885004 0
M  V30 765 H 72.287 3.45541 -1.22462 0
M  V30 766 H 71.935 4.97692 0.728816 0
M  V30 767 H 71.635 5.81966 -0.811775 0
M  V30 768 H 73.159 6.10553 0.0757473 0
M  V30 769 H 74.573 5.34794 -2.06563 0
M  V30 770 H 72.97 5.279 -2.8538 0
M  V30 771 H 74.04 3.86726 -2.92525 0
M  V30 772 N 75.3831 0.828654 1.34056 0
M  V30 773 C 76.6291 0.42008 1.98402 0
M  V30 774 C 76.9621 -1.01564 1.65525 0
M  V30 775 O 76.2371 -1.70834 0.929831 0
M  V30 776 C 76.5201 0.62927 3.54559 0
M  V30 777 C 76.3731 2.11152 3.97159 0
M  V30 778 C 77.6921 0.0688756 4.40046 0
M  V30 779 H 74.8111 0.154104 0.720709 0
M  V30 780 H 77.4531 1.04228 1.5886 0
M  V30 781 H 75.6031 0.0996418 3.88372 0
M  V30 782 H 77.2751 2.70522 3.73651 0
M  V30 783 H 75.5181 2.59985 3.47261 0
M  V30 784 H 76.1891 2.20868 5.05887 0
M  V30 785 H 78.6651 0.521458 4.1282 0
M  V30 786 H 77.5411 0.245006 5.48353 0
M  V30 787 H 77.8021 -1.0266 4.30015 0
M  V30 788 N 76.8612 -1.46375 0.584142 0
M  V30 789 C 77.7932 -2.28443 -0.186119 0
M  V30 790 C 78.8062 -1.38596 -0.854115 0
M  V30 791 O 79.9952 -1.63183 -0.723438 0
M  V30 792 C 77.0952 -3.13671 -1.28311 0
M  V30 793 C 76.2682 -4.31652 -0.706758 0
M  V30 794 C 75.3272 -4.98267 -1.69163 0
M  V30 795 O 74.3532 -5.55815 -1.22712 0
M  V30 796 N 75.5552 -4.95408 -3.02575 0
M  V30 797 H 78.3202 -2.9519 0.517986 0
M  V30 798 H 75.8812 -1.56303 0.42201 0
M  V30 799 H 77.8732 -3.55101 -1.94128 0
M  V30 800 H 76.4432 -2.48989 -1.89005 0
M  V30 801 H 75.6632 -3.93989 0.128908 0
M  V30 802 H 76.9512 -5.07906 -0.301506 0
M  V30 803 H 76.3492 -4.49902 -3.42936 0
M  V30 804 H 74.9062 -5.40774 -3.63877 0
M  V30 805 N 78.3393 -0.321999 -1.54275 0
M  V30 806 C 79.2693 0.537411 -2.27231 0
M  V30 807 C 80.2503 1.12064 -1.27968 0
M  V30 808 O 81.4353 1.14606 -1.56777 0
M  V30 809 C 78.5653 1.69919 -3.02894 0
M  V30 810 C 77.5193 1.24534 -4.09482 0
M  V30 811 C 76.8453 2.49394 -4.72977 0
M  V30 812 C 78.1453 0.361335 -5.21049 0
M  V30 813 H 79.8393 -0.0711406 -2.99315 0
M  V30 814 H 77.3853 -0.0356555 -1.43956 0
M  V30 815 H 79.3383 2.30668 -3.52662 0
M  V30 816 H 78.0623 2.33431 -2.28424 0
M  V30 817 H 76.7213 0.660782 -3.60596 0
M  V30 818 H 76.3693 3.11265 -3.95124 0
M  V30 819 H 76.0693 2.19718 -5.44975 0
M  V30 820 H 77.5933 3.10908 -5.25517 0
M  V30 821 H 79.0073 0.875072 -5.66582 0
M  V30 822 H 77.4043 0.157428 -5.99893 0
M  V30 823 H 78.4743 -0.60822 -4.8107 0
M  V30 824 N 79.8174 1.5752 -0.0501392 0
M  V30 825 C 81.2284 1.80271 0.485705 0
M  V30 826 C 81.5794 0.96228 1.70981 0
M  V30 827 O 80.7044 0.178578 2.15662 0
M  V30 828 C 81.2994 3.26957 0.887938 0
M  V30 829 C 79.8584 3.5063 1.36877 0
M  V30 830 C 79.0054 2.75165 0.343468 0
M  V30 831 H 81.9564 1.56281 -0.276028 0
M  V30 832 H 81.9774 3.37821 1.75093 0
M  V30 833 H 81.4894 3.881 -0.0031809 0
M  V30 834 H 79.5904 2.94766 2.27911 0
M  V30 835 H 79.7034 4.59343 1.36164 0
M  V30 836 H 78.0674 2.4127 0.816128 0
M  V30 837 H 78.8504 3.39034 -0.539548 0
M  V30 838 N 81.2955 -0.223234 1.56011 0
M  V30 839 C 82.2585 -1.26014 1.9145 0
M  V30 840 C 83.2585 -1.3989 0.792937 0
M  V30 841 O 84.4485 -1.38184 1.0607 0
M  V30 842 C 81.5805 -2.63422 2.16383 0
M  V30 843 H 82.7735 -0.95796 2.84189 0
M  V30 844 H 80.3265 -0.463576 1.49267 0
M  V30 845 H 81.0615 -2.98741 1.2619 0
M  V30 846 H 80.8465 -2.54728 2.98088 0
M  V30 847 H 82.3365 -3.38249 2.44903 0
M  V30 848 N 82.7736 -1.49793 -0.48987 0
M  V30 849 C 84.0216 -1.59525 -1.24081 0
M  V30 850 C 84.3426 -0.288953 -1.92847 0
M  V30 851 O 83.6126 0.692436 -1.83254 0
M  V30 852 H 82.1926 -0.587796 -0.460983 0
M  V30 853 H 84.8546 -1.86477 -0.566778 0
M  V30 854 H 83.9506 -2.39696 -1.99881 0
M  V30 855 N 84.2517 0.741722 -1.39055 0
M  V30 856 C 85.4977 1.50336 -1.36113 0
M  V30 857 C 85.8307 1.94148 0.0450796 0
M  V30 858 O 85.1057 1.66301 1.00868 0
M  V30 859 C 85.3887 2.74773 -2.32749 0
M  V30 860 C 85.2417 2.37023 -3.82283 0
M  V30 861 C 86.5607 3.76846 -2.27322 0
M  V30 862 H 83.6797 0.545351 -0.495743 0
M  V30 863 H 86.3217 0.848624 -1.69995 0
M  V30 864 H 84.4717 3.30639 -2.03986 0
M  V30 865 H 86.1437 1.8684 -4.21768 0
M  V30 866 H 84.3867 1.69334 -3.99385 0
M  V30 867 H 85.0577 3.26104 -4.45376 0
M  V30 868 H 87.5337 3.30548 -2.5274 0
M  V30 869 H 86.4097 4.6159 -2.97028 0
M  V30 870 H 86.6707 4.23286 -1.27599 0
M  V30 871 N 85.7298 1.2412 0.971189 0
M  V30 872 C 86.6768 1.0305 2.06517 0
M  V30 873 C 87.6468 -0.0550666 1.66009 0
M  V30 874 O 88.8318 0.0988688 1.90544 0
M  V30 875 C 85.9718 0.637653 3.39158 0
M  V30 876 C 85.0848 1.79633 3.92882 0
M  V30 877 C 84.2198 1.34939 5.13775 0
M  V30 878 C 83.2588 2.47823 5.59687 0
M  V30 879 N 82.3958 2.04022 6.71803 0
M  V30 880 H 87.2358 1.96685 2.23873 0
M  V30 881 H 84.7728 0.979694 1.09729 0
M  V30 882 H 86.7308 0.390931 4.15364 0
M  V30 883 H 85.3608 -0.261693 3.21737 0
M  V30 884 H 84.4128 2.15681 3.13346 0
M  V30 885 H 85.7248 2.64466 4.22918 0
M  V30 886 H 84.8788 1.06134 5.97345 0
M  V30 887 H 83.6178 0.471557 4.85415 0
M  V30 888 H 82.6228 2.77392 4.74693 0
M  V30 889 H 83.8478 3.36158 5.90063 0
M  V30 890 H 81.7938 1.18632 6.45184 0
M  V30 891 H 81.7108 2.82409 7.01271 0
M  V30 892 H 82.9788 1.78347 7.58823 0
M  V30 893 N 87.2079 -1.17134 1.05439 0
M  V30 894 C 88.4329 -1.91913 0.786396 0
M  V30 895 C 88.8579 -1.7643 -0.652234 0
M  V30 896 O 88.2159 -1.08372 -1.45345 0
M  V30 897 C 88.2639 -3.40921 1.17497 0
M  V30 898 O 87.3679 -4.11244 0.308589 0
M  V30 899 H 86.7089 -0.598215 0.288158 0
M  V30 900 H 89.2389 -1.48457 1.4079 0
M  V30 901 H 89.2489 -3.91668 1.14281 0
M  V30 902 H 87.9239 -3.5151 2.22292 0
M  V30 903 H 86.5009 -3.70731 0.40157 0
M  V30 904 N 88.686 -0.835752 -1.33615 0
M  V30 905 C 90.097 -0.487099 -1.80234 0
M  V30 906 C 90.448 0.993627 -1.69179 0
M  V30 907 O 89.573 1.77403 -1.23924 0
M  V30 908 C 90.168 -0.877385 -3.27242 0
M  V30 909 C 88.727 -0.580915 -3.7189 0
M  V30 910 C 87.874 -1.0874 -2.5509 0
M  V30 911 H 90.825 -1.02474 -1.2118 0
M  V30 912 H 90.846 -0.186195 -3.80044 0
M  V30 913 H 90.358 -1.95512 -3.35256 0
M  V30 914 H 88.459 0.486881 -3.69405 0
M  V30 915 H 88.572 -1.13396 -4.65487 0
M  V30 916 H 86.936 -0.508392 -2.49575 0
M  V30 917 H 87.719 -2.17184 -2.65868 0
M  V30 918 N 90.1641 1.46063 -0.591896 0
M  V30 919 C 91.5751 1.85944 -0.167822 0
M  V30 920 C 91.9261 1.49429 1.27143 0
M  V30 921 O 91.0511 0.913515 1.96173 0
M  V30 922 C 91.6461 3.37489 -0.297794 0
M  V30 923 C 90.2051 3.76332 0.0714732 0
M  V30 924 C 89.3521 2.7006 -0.629509 0
M  V30 925 H 92.3031 1.37087 -0.799555 0
M  V30 926 H 92.3241 3.77532 0.474349 0
M  V30 927 H 91.8361 3.64034 -1.3454 0
M  V30 928 H 89.9371 3.55405 1.11886 0
M  V30 929 H 90.0501 4.78088 -0.311245 0
M  V30 930 H 88.4141 2.54607 -0.0687867 0
M  V30 931 H 89.1971 2.99444 -1.67894 0
M  V30 932 N 91.6422 0.330177 1.54103 0
M  V30 933 C 92.8722 -0.271784 2.04805 0
M  V30 934 C 93.2802 -1.45816 1.20559 0
M  V30 935 O 92.6232 -1.82247 0.2306 0
M  V30 936 C 92.6852 -0.763238 3.51305 0
M  V30 937 C 92.3492 0.301705 4.56003 0
M  V30 938 C 93.3462 1.13999 5.07248 0
M  V30 939 C 91.0312 0.451793 5.00264 0
M  V30 940 C 93.0252 2.11402 6.01322 0
M  V30 941 C 90.7122 1.42924 5.94151 0
M  V30 942 C 91.7102 2.25882 6.44567 0
M  V30 943 O 91.3982 3.21965 7.3661 0
M  V30 944 H 91.1302 -0.058693 0.673447 0
M  V30 945 H 93.6842 0.476395 1.99799 0
M  V30 946 H 91.9142 -1.56244 3.5373 0
M  V30 947 H 93.6032 -1.28427 3.85047 0
M  V30 948 H 94.3692 1.03505 4.73827 0
M  V30 949 H 90.2482 -0.184044 4.60632 0
M  V30 950 H 93.7922 2.76192 6.40596 0
M  V30 951 H 89.6892 1.53479 6.26988 0
M  V30 952 H 90.4572 3.17281 7.54503 0
M  V30 953 N 93.1203 -1.57491 0.0584922 0
M  V30 954 C 94.3693 -1.92155 -0.613146 0
M  V30 955 C 94.6823 -0.939334 -1.71569 0
M  V30 956 O 95.8883 -1.17829 -2.44599 0
M  V30 957 C 94.3443 -3.41303 -1.14195 0
M  V30 958 C 93.9523 -4.47944 -0.0711265 0
M  V30 959 C 95.6963 -3.84988 -1.78841 0
M  V30 960 C 93.6033 -5.88212 -0.613225 0
M  V30 961 H 92.5333 -0.717162 -0.232796 0
M  V30 962 H 95.1843 -1.83049 0.12857 0
M  V30 963 H 93.5663 -3.45437 -1.93621 0
M  V30 964 H 94.7403 -4.55408 0.702836 0
M  V30 965 H 93.0553 -4.13644 0.478313 0
M  V30 966 H 95.6523 -4.87159 -2.20408 0
M  V30 967 H 95.9953 -3.21632 -2.64308 0
M  V30 968 H 96.5283 -3.83401 -1.06059 0
M  V30 969 H 93.2673 -6.55183 0.203978 0
M  V30 970 H 92.7873 -5.84294 -1.35501 0
M  V30 971 H 94.4663 -6.37687 -1.09383 0
M  V30 972 N 94.5984 0.214957 -1.56127 0
M  V30 973 C 95.8454 0.938372 -1.79446 0
M  V30 974 C 96.1734 1.8407 -0.628378 0
M  V30 975 O 95.4284 1.91837 0.386925 0
M  V30 976 C 95.7274 1.80314 -3.0858 0
M  V30 977 C 95.3934 1.05349 -4.3842 0
M  V30 978 C 94.0554 0.846435 -4.73697 0
M  V30 979 C 96.4074 0.524588 -5.18553 0
M  V30 980 C 93.7354 0.098683 -5.86617 0
M  V30 981 C 96.0874 -0.209853 -6.32252 0
M  V30 982 C 94.7514 -0.428102 -6.66126 0
M  V30 983 H 94.0214 0.343375 -0.656639 0
M  V30 984 H 96.6684 0.206077 -1.90388 0
M  V30 985 H 94.9734 2.6035 -2.92789 0
M  V30 986 H 96.6704 2.36513 -3.23825 0
M  V30 987 H 93.2604 1.22486 -4.10725 0
M  V30 988 H 97.4444 0.672008 -4.91729 0
M  V30 989 H 92.7004 -0.0805753 -6.11347 0
M  V30 990 H 96.8744 -0.627157 -6.9357 0
M  V30 991 H 94.5014 -1.00944 -7.53468 0
M  V30 992 N 96.0765 1.50051 0.48192 0
M  V30 993 C 97.3015 1.64508 1.26301 0
M  V30 994 C 97.7265 0.323851 1.85291 0
M  V30 995 O 97.0845 -0.710969 1.66778 0
M  V30 996 C 97.1325 2.7305 2.35533 0
M  V30 997 O 96.2365 2.3355 3.39895 0
M  V30 998 H 95.5775 0.549978 0.372048 0
M  V30 999 H 98.1075 1.9636 0.574786 0
M  V30 1000 H 98.1175 2.95799 2.8101 0
M  V30 1001 H 96.7925 3.68946 1.91967 0
M  V30 1002 H 95.3695 2.21205 3.00204 0
M  V30 1003 N 97.5546 -0.734337 1.39446 0
M  V30 1004 C 98.9656 -1.31264 1.32766 0
M  V30 1005 C 99.3166 -1.96198 -0.00767497 0
M  V30 1006 O 98.4416 -1.96346 -0.909796 0
M  V30 1007 C 99.0366 -2.38682 2.4045 0
M  V30 1008 C 97.5956 -2.92184 2.37288 0
M  V30 1009 C 96.7426 -1.6576 2.22304 0
M  V30 1010 H 99.6936 -0.531799 1.49525 0
M  V30 1011 H 99.7146 -3.19087 2.07276 0
M  V30 1012 H 99.2266 -1.91392 3.37625 0
M  V30 1013 H 97.3276 -3.43752 1.43754 0
M  V30 1014 H 97.4406 -3.45253 3.3217 0
M  V30 1015 H 95.8046 -1.9012 1.69489 0
M  V30 1016 H 96.5876 -1.20521 3.21449 0
M  V30 1017 N 99.0327 -1.24633 -0.964593 0
M  V30 1018 C 100.282 -1.08188 -1.7023 0
M  V30 1019 C 100.595 0.37873 -1.91898 0
M  V30 1020 O 101.801 0.663427 -2.6327 0
M  V30 1021 C 100.257 -1.88773 -3.06419 0
M  V30 1022 C 99.8647 -3.39263 -2.92582 0
M  V30 1023 C 101.609 -1.80867 -3.84041 0
M  V30 1024 C 99.5157 -4.1218 -4.24101 0
M  V30 1025 H 98.4457 -0.401245 -0.638372 0
M  V30 1026 H 101.097 -1.48742 -1.07462 0
M  V30 1027 H 99.4787 -1.41035 -3.70034 0
M  V30 1028 H 100.653 -3.94603 -2.37961 0
M  V30 1029 H 98.9677 -3.48154 -2.28424 0
M  V30 1030 H 101.565 -2.32646 -4.81435 0
M  V30 1031 H 101.908 -0.774543 -4.09031 0
M  V30 1032 H 102.441 -2.26301 -3.27159 0
M  V30 1033 H 99.1797 -5.15965 -4.04303 0
M  V30 1034 H 98.6997 -3.61626 -4.78526 0
M  V30 1035 H 100.379 -4.19349 -4.92702 0
M  V30 1036 N 100.511 1.16574 -1.06058 0
M  V30 1037 C 101.922 1.68662 -0.800632 0
M  V30 1038 C 102.273 1.84184 0.67608 0
M  V30 1039 O 101.398 1.53568 1.52466 0
M  V30 1040 C 101.993 3.06356 -1.44676 0
M  V30 1041 C 100.552 3.55575 -1.23465 0
M  V30 1042 C 99.6988 2.31616 -1.52477 0
M  V30 1043 H 102.65 1.00969 -1.22438 0
M  V30 1044 H 102.671 3.70636 -0.860788 0
M  V30 1045 H 102.183 2.95027 -2.52152 0
M  V30 1046 H 100.284 3.72167 -0.179527 0
M  V30 1047 H 100.397 4.37812 -1.94571 0
M  V30 1048 H 98.7608 2.36512 -0.945209 0
M  V30 1049 H 99.5438 2.22887 -2.61106 0
M  V30 1050 N 101.989 0.842826 1.3317 0
M  V30 1051 C 103.236 0.440447 1.97652 0
M  V30 1052 C 103.564 -1.00123 1.6675 0
M  V30 1053 O 102.819 -1.7155 0.941761 0
M  V30 1054 C 103.118 0.612607 3.52111 0
M  V30 1055 C 102.784 2.02297 4.02972 0
M  V30 1056 C 101.446 2.40874 4.16573 0
M  V30 1057 C 103.798 2.94402 4.30089 0
M  V30 1058 C 101.126 3.70852 4.54627 0
M  V30 1059 C 103.478 4.23865 4.69597 0
M  V30 1060 C 102.142 4.62392 4.81404 0
M  V30 1061 H 101.412 0.161171 0.72326 0
M  V30 1062 H 104.059 1.07061 1.58777 0
M  V30 1063 H 102.364 -0.100849 3.9167 0
M  V30 1064 H 104.061 0.2815 4.00011 0
M  V30 1065 H 100.651 1.71338 3.92863 0
M  V30 1066 H 104.835 2.65835 4.19101 0
M  V30 1067 H 100.091 4.00501 4.61962 0
M  V30 1068 H 104.265 4.95306 4.89536 0
M  V30 1069 H 101.892 5.63154 5.10648 0
M  V30 1070 N 103.467 -1.45747 0.599634 0
M  V30 1071 C 104.397 -2.33235 -0.111306 0
M  V30 1072 C 105.378 -1.46359 -0.866781 0
M  V30 1073 O 106.563 -1.75146 -0.838904 0
M  V30 1074 C 103.693 -3.28932 -1.11451 0
M  V30 1075 C 102.647 -4.25381 -0.472772 0
M  V30 1076 C 101.973 -5.1071 -1.58365 0
M  V30 1077 C 103.273 -5.18831 0.600948 0
M  V30 1078 H 104.967 -2.92927 0.61919 0
M  V30 1079 H 102.513 -1.40857 0.299215 0
M  V30 1080 H 104.466 -3.89002 -1.62036 0
M  V30 1081 H 103.19 -2.67381 -1.8755 0
M  V30 1082 H 101.849 -3.66598 0.0121472 0
M  V30 1083 H 101.497 -4.45533 -2.33473 0
M  V30 1084 H 101.197 -5.7604 -1.15982 0
M  V30 1085 H 102.721 -5.73647 -2.09194 0
M  V30 1086 H 104.135 -5.73019 0.179491 0
M  V30 1087 H 102.532 -5.92595 0.946076 0
M  V30 1088 H 103.602 -4.6174 1.48068 0
M  V30 1089 N 104.945 -0.338344 -1.53925 0
M  V30 1090 C 106.193 0.259245 -2.0043 0
M  V30 1091 C 106.514 1.51484 -1.22791 0
M  V30 1092 O 105.784 1.93037 -0.33368 0
M  V30 1093 H 104.364 0.0987845 -0.740439 0
M  V30 1094 H 107.026 -0.458302 -1.89435 0
M  V30 1095 H 106.122 0.505334 -3.07982 0
M  V30 1096 N 106.423 1.57458 -0.0668435 0
M  V30 1097 C 107.373 2.0896 0.912119 0
M  V30 1098 C 108.357 0.998186 1.26195 0
M  V30 1099 O 109.549 1.26133 1.24175 0
M  V30 1100 C 106.678 2.6508 2.18145 0
M  V30 1101 C 105.764 3.81218 1.85832 0
M  V30 1102 N 106.155 4.90378 1.23948 0
M  V30 1103 C 104.453 3.9042 2.15612 0
M  V30 1104 C 105.154 5.71279 1.09616 0
M  V30 1105 N 104.13 5.19389 1.60423 0
M  V30 1106 H 107.932 2.90749 0.42924 0
M  V30 1107 H 105.446 1.6182 0.137184 0
M  V30 1108 H 107.443 3.0029 2.89192 0
M  V30 1109 H 106.103 1.84736 2.67025 0
M  V30 1110 H 107.114 5.09847 0.909731 0
M  V30 1111 H 103.791 3.21043 2.66903 0
M  V30 1112 H 105.181 6.69085 0.614425 0
M  V30 1113 N 107.901 -0.206675 1.56239 0
M  V30 1114 C 108.864 -1.23976 1.92776 0
M  V30 1115 C 109.864 -1.39041 0.807729 0
M  V30 1116 O 111.054 -1.37051 1.0753 0
M  V30 1117 C 108.186 -2.61112 2.19165 0
M  V30 1118 H 109.379 -0.927764 2.85189 0
M  V30 1119 H 106.932 -0.447718 1.4975 0
M  V30 1120 H 107.667 -2.97386 1.29352 0
M  V30 1121 H 107.452 -2.51552 3.00772 0
M  V30 1122 H 108.942 -3.35633 2.48476 0
M  V30 1123 N 109.379 -1.50304 -0.473955 0
M  V30 1124 C 110.628 -1.60392 -1.22301 0
M  V30 1125 C 110.941 -0.308411 -1.93153 0
M  V30 1126 O 112.147 -0.288156 -2.69966 0
M  V30 1127 C 110.603 -2.83109 -2.2221 0
M  V30 1128 C 110.211 -4.19524 -1.57173 0
M  V30 1129 C 111.955 -3.0254 -2.97775 0
M  V30 1130 C 109.862 -5.33431 -2.55353 0
M  V30 1131 H 108.792 -0.597286 -0.460179 0
M  V30 1132 H 111.443 -1.76731 -0.493803 0
M  V30 1133 H 109.825 -2.60322 -2.9841 0
M  V30 1134 H 110.999 -4.52554 -0.867824 0
M  V30 1135 H 109.314 -4.05674 -0.939002 0
M  V30 1136 H 111.911 -3.84811 -3.71248 0
M  V30 1137 H 112.254 -2.14154 -3.56992 0
M  V30 1138 H 112.787 -3.25494 -2.28688 0
M  V30 1139 H 109.526 -6.23962 -2.00878 0
M  V30 1140 H 109.046 -5.04823 -3.23904 0
M  V30 1141 H 110.725 -5.63887 -3.17239 0
M  V30 1142 N 110.857 0.726932 -1.39834 0
M  V30 1143 C 111.82 1.82269 -1.38962 0
M  V30 1144 C 112.82 1.58248 -0.285334 0
M  V30 1145 O 114.01 1.65499 -0.54366 0
M  V30 1146 C 111.142 3.20186 -1.17019 0
M  V30 1147 H 112.335 1.84443 -2.36476 0
M  V30 1148 H 109.888 0.931416 -1.25516 0
M  V30 1149 H 110.623 3.23669 -0.202204 0
M  V30 1150 H 110.408 3.3902 -1.96998 0
M  V30 1151 H 111.898 4.00235 -1.1917 0
M  V30 1152 N 112.336 1.25143 0.95797 0
M  V30 1153 C 113.583 1.09692 1.70217 0
M  V30 1154 C 113.911 -0.362654 1.91089 0
M  V30 1155 O 113.166 -1.28386 1.47701 0
M  V30 1156 C 113.465 1.79272 3.09187 0
M  V30 1157 C 113.131 3.29196 3.08125 0
M  V30 1158 C 111.793 3.70096 3.07543 0
M  V30 1159 C 114.145 4.24995 3.0171 0
M  V30 1160 C 111.473 5.05213 2.9829 0
M  V30 1161 C 113.825 5.60132 2.93999 0
M  V30 1162 C 112.489 6.00365 2.9175 0
M  V30 1163 H 111.759 0.401393 0.622868 0
M  V30 1164 H 114.406 1.55372 1.11945 0
M  V30 1165 H 112.711 1.26014 3.70982 0
M  V30 1166 H 114.408 1.64773 3.65583 0
M  V30 1167 H 110.998 2.96651 3.09348 0
M  V30 1168 H 115.182 3.9439 3.01281 0
M  V30 1169 H 110.438 5.35569 2.94916 0
M  V30 1170 H 114.612 6.3406 2.87996 0
M  V30 1171 H 112.239 7.05023 2.84336 0
M  V30 1172 N 113.814 -1.1601 1.06675 0
M  V30 1173 C 115.062 -1.86264 0.784229 0
M  V30 1174 C 115.383 -1.82328 -0.691488 0
M  V30 1175 O 114.653 -1.25947 -1.50047 0
M  V30 1176 H 113.233 -0.689621 0.28711 0
M  V30 1177 H 115.895 -1.40664 1.34906 0
M  V30 1178 H 114.991 -2.91595 1.11259 0
M  V30 1179 N 115.292 -0.849877 -1.32721 0
M  V30 1180 C 116.239 -0.289033 -2.28983 0
M  V30 1181 C 117.209 0.601324 -1.54833 0
M  V30 1182 O 118.394 0.537253 -1.8308 0
M  V30 1183 C 115.534 0.520623 -3.4115 0
M  V30 1184 C 114.647 -0.394989 -4.3019 0
M  V30 1185 C 113.782 0.426834 -5.29482 0
M  V30 1186 C 112.821 -0.486476 -6.10164 0
M  V30 1187 N 111.958 0.297879 -7.01468 0
M  V30 1188 H 116.798 -1.11519 -2.76347 0
M  V30 1189 H 114.335 -0.56138 -1.35967 0
M  V30 1190 H 116.293 1.00563 -4.04899 0
M  V30 1191 H 114.923 1.31165 -2.9495 0
M  V30 1192 H 113.975 -0.99836 -3.67065 0
M  V30 1193 H 115.287 -1.09612 -4.86607 0
M  V30 1194 H 114.441 0.975205 -5.98811 0
M  V30 1195 H 113.18 1.16136 -4.73671 0
M  V30 1196 H 112.185 -1.04677 -5.39743 0
M  V30 1197 H 113.41 -1.21953 -6.6806 0
M  V30 1198 H 111.356 1.01558 -6.48091 0
M  V30 1199 H 111.273 -0.344318 -7.55216 0
M  V30 1200 H 112.541 0.828131 -7.75089 0
M  V30 1201 N 116.77 1.45427 -0.607355 0
M  V30 1202 C 117.995 2.07124 -0.107006 0
M  V30 1203 C 118.42 1.44906 1.19933 0
M  V30 1204 O 117.778 0.541687 1.73019 0
M  V30 1205 C 117.826 3.60595 0.0194119 0
M  V30 1206 O 116.93 3.98285 1.0697 0
M  V30 1207 H 116.271 0.659868 -0.0739597 0
M  V30 1208 H 118.801 1.86683 -0.837297 0
M  V30 1209 H 118.811 4.07419 0.2177 0
M  V30 1210 H 117.486 4.05266 -0.934453 0
M  V30 1211 H 116.063 3.63133 0.847889 0
M  V30 1212 N 118.248 0.346503 1.53744 0
M  V30 1213 C 119.659 -0.136779 1.86198 0
M  V30 1214 C 120.01 -1.49749 1.26766 0
M  V30 1215 O 119.135 -2.08417 0.582355 0
M  V30 1216 C 119.73 -0.254966 3.37839 0
M  V30 1217 C 118.289 -0.682482 3.70161 0
M  V30 1218 C 117.436 0.181981 2.76702 0
M  V30 1219 H 120.387 0.565994 1.48264 0
M  V30 1220 H 120.408 -1.08195 3.64793 0
M  V30 1221 H 119.92 0.735526 3.81066 0
M  V30 1222 H 118.021 -1.68189 3.3248 0
M  V30 1223 H 118.134 -0.470326 4.76786 0
M  V30 1224 H 116.498 -0.34615 2.52337 0
M  V30 1225 H 117.281 1.16966 3.2276 0
M  V30 1226 N 119.726 -1.57421 0.075193 0
M  V30 1227 C 120.975 -1.92794 -0.592731 0
M  V30 1228 C 121.288 -0.957478 -1.70563 0
M  V30 1229 O 122.494 -1.20417 -2.43335 0
M  V30 1230 C 120.95 -3.42495 -1.10569 0
M  V30 1231 C 120.558 -4.47994 -0.0236121 0
M  V30 1232 C 122.302 -3.86864 -1.74748 0
M  V30 1233 C 120.209 -5.88829 -0.550803 0
M  V30 1234 H 119.139 -0.719591 -0.225177 0
M  V30 1235 H 121.79 -1.82902 0.147978 0
M  V30 1236 H 120.172 -3.47471 -1.89947 0
M  V30 1237 H 121.346 -4.54637 0.751099 0
M  V30 1238 H 119.661 -4.13113 0.522159 0
M  V30 1239 H 122.258 -4.8947 -2.15229 0
M  V30 1240 H 122.601 -3.24417 -2.60882 0
M  V30 1241 H 123.134 -3.84504 -1.01986 0
M  V30 1242 H 119.873 -6.54929 0.273457 0
M  V30 1243 H 119.393 -5.85698 -1.29296 0
M  V30 1244 H 121.072 -6.38811 -1.02613 0
M  V30 1245 N 121.204 0.198386 -1.56346 0
M  V30 1246 C 122.114 1.2664 -1.97483 0
M  V30 1247 C 123.13 1.49989 -0.882002 0
M  V30 1248 O 124.306 1.62668 -1.18748 0
M  V30 1249 C 121.371 2.59141 -2.30319 0
M  V30 1250 C 120.432 2.43892 -3.53292 0
M  V30 1251 C 119.665 3.70074 -3.84553 0
M  V30 1252 O 119.888 4.74101 -3.1715 0
M  V30 1253 O 118.822 3.658 -4.7799 0
M  V30 1254 H 122.648 0.947304 -2.88548 0
M  V30 1255 H 120.233 0.403123 -1.43859 0
M  V30 1256 H 122.115 3.37352 -2.5253 0
M  V30 1257 H 120.79 2.90684 -1.42423 0
M  V30 1258 H 119.697 1.63803 -3.36332 0
M  V30 1259 H 121.03 2.17282 -4.41644 0
M  V30 1260 N 122.682 1.50554 0.465978 0
M  V30 1261 C 123.929 1.61798 1.21768 0
M  V30 1262 C 124.257 0.320696 1.91838 0
M  V30 1263 O 123.512 -0.693724 1.82992 0
M  V30 1264 C 123.811 2.75152 2.28093 0
M  V30 1265 C 123.477 4.15454 1.75239 0
M  V30 1266 C 122.139 4.53628 1.60546 0
M  V30 1267 C 124.491 5.03121 1.36083 0
M  V30 1268 C 121.819 5.77204 1.05128 0
M  V30 1269 C 124.171 6.27249 0.821056 0
M  V30 1270 C 122.835 6.64221 0.660795 0
M  V30 1271 H 122.105 0.592063 0.445582 0
M  V30 1272 H 124.752 1.84503 0.512927 0
M  V30 1273 H 123.057 2.46556 3.04496 0
M  V30 1274 H 124.754 2.81055 2.86023 0
M  V30 1275 H 121.344 3.85341 1.87644 0
M  V30 1276 H 125.528 4.74257 1.46267 0
M  V30 1277 H 120.784 6.0452 0.91462 0
M  V30 1278 H 124.958 6.94537 0.509018 0
M  V30 1279 H 122.585 7.59854 0.229226 0
M  V30 1280 N 124.16 -0.719506 1.40217 0
M  V30 1281 C 125.09 -1.8465 1.42922 0
M  V30 1282 C 126.071 -1.67599 0.29062 0
M  V30 1283 O 127.256 -1.87688 0.498677 0
M  V30 1284 C 124.386 -3.22565 1.28722 0
M  V30 1285 C 123.34 -3.54281 2.40144 0
M  V30 1286 C 122.666 -4.91298 2.11023 0
M  V30 1287 C 123.966 -3.55676 3.82481 0
M  V30 1288 H 125.66 -1.82644 2.37237 0
M  V30 1289 H 123.206 -0.877305 1.1419 0
M  V30 1290 H 125.159 -4.01095 1.29232 0
M  V30 1291 H 123.883 -3.25137 0.308811 0
M  V30 1292 H 122.542 -2.78088 2.38877 0
M  V30 1293 H 122.19 -4.90468 1.11582 0
M  V30 1294 H 121.89 -5.13485 2.8567 0
M  V30 1295 H 123.414 -5.72166 2.13209 0
M  V30 1296 H 124.828 -4.24254 3.85592 0
M  V30 1297 H 123.225 -3.89388 4.56614 0
M  V30 1298 H 124.295 -2.55144 4.12346 0
M  V30 1299 N 125.638 -1.25649 -0.95132 0
M  V30 1300 C 126.548 -1.08073 -2.08224 0
M  V30 1301 C 127.564 -0.0169666 -1.73992 0
M  V30 1302 O 128.74 -0.218593 -2.0021 0
M  V30 1303 C 125.805 -0.704922 -3.39458 0
M  V30 1304 C 124.866 -1.84699 -3.87537 0
M  V30 1305 C 124.099 -1.48902 -5.12508 0
M  V30 1306 O 124.322 -0.386156 -5.69091 0
M  V30 1307 O 123.256 -2.32033 -5.55378 0
M  V30 1308 H 127.082 -2.02924 -2.25954 0
M  V30 1309 H 124.667 -1.04618 -1.06656 0
M  V30 1310 H 126.549 -0.507609 -4.18332 0
M  V30 1311 H 125.224 0.214291 -3.2299 0
M  V30 1312 H 124.131 -2.09919 -3.09653 0
M  V30 1313 H 125.464 -2.74557 -4.08509 0
M  V30 1314 N 127.117 1.15442 -1.07289 0
M  V30 1315 C 128.065 2.22225 -0.686952 0
M  V30 1316 C 129.059 1.66688 0.30193 0
M  V30 1317 O 130.265 1.79236 0.165712 0
M  V30 1318 H 126.64 0.723783 -0.204064 0
M  V30 1319 H 128.611 2.52056 -1.5972 0
M  V30 1320 C 127.36 3.47556 -0.100149 0
M  V30 1321 H 126.683 3.90612 -0.852211 0
M  V30 1322 H 128.123 4.23794 0.132235 0
M  V30 1323 C 126.582 3.16337 1.159 0
M  V30 1324 O 127.112 3.33074 2.24555 0
M  V30 1325 N 125.318 2.70385 1.06491 0
M  V30 1326 H 124.865 2.56966 0.180668 0
M  V30 1327 H 124.823 2.49871 1.90819 0
M  V30 1328 N 128.595 0.856903 1.32268 0
M  V30 1329 C 129.558 0.308171 2.27119 0
M  V30 1330 C 130.558 -0.533421 1.51695 0
M  V30 1331 O 131.748 -0.344607 1.70757 0
M  V30 1332 C 128.88 -0.563757 3.36206 0
M  V30 1333 H 130.073 1.14535 2.77167 0
M  V30 1334 H 127.626 0.631421 1.42978 0
M  V30 1335 H 128.361 -1.42266 2.91429 0
M  V30 1336 H 128.146 0.0386749 3.92081 0
M  V30 1337 H 129.636 -0.940386 4.06874 0
M  V30 1338 N 130.073 -1.45103 0.615059 0
M  V30 1339 C 131.303 -2.06254 0.119596 0
M  V30 1340 C 131.711 -1.4591 -1.20445 0
M  V30 1341 O 131.054 -0.570384 -1.7462 0
M  V30 1342 C 131.116 -3.59396 -0.0865591 0
M  V30 1343 C 130.78 -4.42116 1.15683 0
M  V30 1344 C 131.777 -4.7662 2.07676 0
M  V30 1345 C 129.462 -4.82749 1.38775 0
M  V30 1346 C 131.456 -5.50622 3.21082 0
M  V30 1347 C 129.143 -5.56504 2.52481 0
M  V30 1348 C 130.141 -5.90358 3.43463 0
M  V30 1349 O 129.829 -6.62615 4.55189 0
M  V30 1350 H 129.561 -0.672423 0.0694512 0
M  V30 1351 H 132.115 -1.87219 0.844885 0
M  V30 1352 H 130.345 -3.76859 -0.866823 0
M  V30 1353 H 132.034 -4.02365 -0.534555 0
M  V30 1354 H 132.8 -4.4578 1.91063 0
M  V30 1355 H 128.679 -4.55829 0.688545 0
M  V30 1356 H 132.223 -5.76965 3.92119 0
M  V30 1357 H 128.12 -5.86759 2.69043 0
M  V30 1358 H 128.888 -6.81071 4.53966 0
M  V30 1359 N 131.551 -0.354651 -1.53558 0
M  V30 1360 C 132.461 0.50515 -2.29097 0
M  V30 1361 C 133.477 1.10223 -1.34636 0
M  V30 1362 O 134.653 1.11553 -1.67684 0
M  V30 1363 C 131.718 1.63479 -3.05738 0
M  V30 1364 C 130.779 1.06636 -4.15845 0
M  V30 1365 C 130.012 2.14217 -4.88822 0
M  V30 1366 O 130.235 3.35137 -4.61562 0
M  V30 1367 O 129.169 1.77887 -5.75013 0
M  V30 1368 H 132.995 -0.109237 -3.03503 0
M  V30 1369 H 130.58 -0.119357 -1.48922 0
M  V30 1370 H 132.462 2.2918 -3.5363 0
M  V30 1371 H 131.137 2.23478 -2.34178 0
M  V30 1372 H 130.044 0.373565 -3.7223 0
M  V30 1373 H 131.377 0.511081 -4.89539 0
M  V30 1374 N 133.029 1.57378 -0.0835403 0
M  V30 1375 C 133.976 2.13384 0.879539 0
M  V30 1376 C 134.946 1.04936 1.28754 0
M  V30 1377 O 136.131 1.32662 1.37133 0
M  V30 1378 C 133.271 2.70932 2.13752 0
M  V30 1379 C 132.384 3.93575 1.7811 0
M  V30 1380 C 131.519 4.39326 2.98607 0
M  V30 1381 C 130.558 5.54587 2.59037 0
M  V30 1382 N 129.695 5.95243 3.72331 0
M  V30 1383 H 134.535 2.9537 0.395076 0
M  V30 1384 H 132.072 1.45953 0.183349 0
M  V30 1385 H 134.03 3.02411 2.87408 0
M  V30 1386 H 132.66 1.91693 2.59718 0
M  V30 1387 H 131.712 3.68483 0.94469 0
M  V30 1388 H 133.024 4.77258 1.45005 0
M  V30 1389 H 132.178 4.72528 3.80529 0
M  V30 1390 H 130.917 3.5452 3.34913 0
M  V30 1391 H 129.922 5.21024 1.75539 0
M  V30 1392 H 131.147 6.41133 2.23887 0
M  V30 1393 H 129.093 5.13385 4.08378 0
M  V30 1394 H 129.01 6.73694 3.43034 0
M  V30 1395 H 130.278 6.33072 4.54797 0
M  V30 1396 N 134.507 -0.190092 1.56449 0
M  V30 1397 C 135.737 -0.92443 1.84764 0
M  V30 1398 C 136.145 -1.77146 0.664529 0
M  V30 1399 O 135.488 -1.79812 -0.375957 0
M  V30 1400 C 135.55 -1.86651 3.07248 0
M  V30 1401 C 135.214 -1.20094 4.40938 0
M  V30 1402 C 136.211 -0.575445 5.16706 0
M  V30 1403 C 133.896 -1.2033 4.87674 0
M  V30 1404 C 135.89 0.0388111 6.37388 0
M  V30 1405 C 133.577 -0.585214 6.08291 0
M  V30 1406 C 134.575 0.0347578 6.82991 0
M  V30 1407 O 134.263 0.643147 8.01323 0
M  V30 1408 H 133.995 -0.274974 0.617548 0
M  V30 1409 H 136.549 -0.200788 2.04416 0
M  V30 1410 H 134.779 -2.62998 2.83494 0
M  V30 1411 H 136.468 -2.46907 3.22167 0
M  V30 1412 H 137.234 -0.565728 4.81689 0
M  V30 1413 H 133.113 -1.67526 4.29484 0
M  V30 1414 H 136.657 0.523329 6.95634 0
M  V30 1415 H 132.554 -0.592451 6.42775 0
M  V30 1416 H 133.322 0.540545 8.16713 0
M  V30 1417 N 135.985 -1.50799 -0.457987 0
M  V30 1418 C 137.233 -1.62121 -1.2067 0
M  V30 1419 C 137.554 -0.329793 -1.92191 0
M  V30 1420 O 136.824 0.653409 -1.84682 0
M  V30 1421 H 135.404 -0.597441 -0.448411 0
M  V30 1422 H 138.066 -1.87637 -0.527096 0
M  V30 1423 H 137.162 -2.43882 -1.94751 0
M  V30 1424 N 137.463 0.71206 -1.40597 0
M  V30 1425 C 138.874 1.29135 -1.34837 0
M  V30 1426 C 139.225 1.96186 -0.0235395 0
M  V30 1427 O 138.35 1.97768 0.878444 0
M  V30 1428 C 138.945 2.34827 -2.44217 0
M  V30 1429 C 137.504 2.88371 -2.41907 0
M  V30 1430 C 136.651 1.62202 -2.24913 0
M  V30 1431 H 139.602 0.507944 -1.50352 0
M  V30 1432 H 139.623 3.15749 -2.12327 0
M  V30 1433 H 139.135 1.85996 -3.40627 0
M  V30 1434 H 137.236 3.41422 -1.49204 0
M  V30 1435 H 137.349 3.39925 -3.37621 0
M  V30 1436 H 135.713 1.874 -1.72492 0
M  V30 1437 H 136.496 1.15391 -3.23326 0
M  V30 1438 N 138.941 1.26152 0.944643 0
M  V30 1439 C 140.187 1.11657 1.69294 0
M  V30 1440 C 140.52 -0.339926 1.91202 0
M  V30 1441 O 139.795 -1.24994 1.49019 0
M  V30 1442 C 140.078 1.88236 3.06984 0
M  V30 1443 C 139.931 3.41772 2.92424 0
M  V30 1444 C 141.25 1.67343 4.07043 0
M  V30 1445 H 138.369 0.407004 0.614424 0
M  V30 1446 H 141.011 1.55106 1.09737 0
M  V30 1447 H 139.161 1.51308 3.57824 0
M  V30 1448 H 140.833 3.88433 2.48832 0
M  V30 1449 H 139.076 3.68974 2.28124 0
M  V30 1450 H 139.747 3.90579 3.90067 0
M  V30 1451 H 142.223 1.99509 3.65151 0
M  V30 1452 H 141.099 2.23346 5.01406 0
M  V30 1453 H 141.36 0.617158 4.37771 0
M  V30 1454 N 140.419 -1.14872 1.07899 0
M  V30 1455 C 141.666 -1.85789 0.805532 0
M  V30 1456 C 141.994 -1.82649 -0.668561 0
M  V30 1457 O 141.249 -1.24858 -1.50695 0
M  V30 1458 C 141.548 -3.34223 1.26609 0
M  V30 1459 C 141.214 -3.57555 2.74709 0
M  V30 1460 C 139.876 -3.63631 3.1516 0
M  V30 1461 C 142.228 -3.66803 3.70277 0
M  V30 1462 C 139.556 -3.76473 4.49983 0
M  V30 1463 C 141.908 -3.8117 5.04869 0
M  V30 1464 C 140.572 -3.85494 5.44932 0
M  V30 1465 H 139.842 -0.679849 0.294765 0
M  V30 1466 H 142.489 -1.3572 1.35101 0
M  V30 1467 H 140.794 -3.86536 0.640103 0
M  V30 1468 H 142.491 -3.87511 1.03132 0
M  V30 1469 H 139.081 -3.5347 2.42398 0
M  V30 1470 H 143.265 -3.61404 3.40149 0
M  V30 1471 H 138.521 -3.7808 4.80484 0
M  V30 1472 H 142.695 -3.87268 5.78789 0
M  V30 1473 H 140.322 -3.95197 6.49403 0
M  V30 1474 N 141.898 -0.863906 -1.31812 0
M  V30 1475 C 143.123 -0.48527 -2.01643 0
M  V30 1476 C 143.548 0.913058 -1.64453 0
M  V30 1477 O 142.906 1.6014 -0.849985 0
M  V30 1478 C 142.954 -0.642625 -3.54828 0
M  V30 1479 O 142.058 0.320659 -4.11151 0
M  V30 1480 H 141.399 -0.193793 -0.635091 0
M  V30 1481 H 143.929 -1.16565 -1.68148 0
M  V30 1482 H 143.939 -0.533628 -4.04495 0
M  V30 1483 H 142.614 -1.66227 -3.81237 0
M  V30 1484 H 141.191 0.167126 -3.72525 0
M  V30 1485 N 143.376 1.44774 -0.622745 0
M  V30 1486 C 144.623 2.02121 -0.1239 0
M  V30 1487 C 144.951 1.48915 1.25118 0
M  V30 1488 O 144.206 0.660045 1.84233 0
M  V30 1489 C 144.505 3.57364 -0.0508323 0
M  V30 1490 C 144.171 4.29787 -1.36358 0
M  V30 1491 C 142.833 4.4929 -1.72314 0
M  V30 1492 C 145.185 4.71062 -2.23048 0
M  V30 1493 C 142.513 5.07325 -2.94682 0
M  V30 1494 C 144.865 5.30452 -3.44679 0
M  V30 1495 C 143.529 5.48175 -3.80868 0
M  V30 1496 H 142.799 0.739612 -0.0453381 0
M  V30 1497 H 145.446 1.73648 -0.807389 0
M  V30 1498 H 143.751 3.85202 0.715991 0
M  V30 1499 H 145.448 3.99456 0.351533 0
M  V30 1500 H 142.038 4.14932 -1.07375 0
M  V30 1501 H 146.222 4.55715 -1.96565 0
M  V30 1502 H 141.478 5.19235 -3.22809 0
M  V30 1503 H 145.652 5.61385 -4.12092 0
M  V30 1504 H 143.279 5.92912 -4.75773 0
M  V30 1505 N 144.854 0.36279 1.53368 0
M  V30 1506 C 146.082 -0.228613 2.05633 0
M  V30 1507 C 146.497 -1.42676 1.23649 0
M  V30 1508 O 145.854 -1.80394 0.27647 0
M  V30 1509 C 145.905 -0.624845 3.56059 0
M  V30 1510 O 145.626 0.525675 4.34935 0
M  V30 1511 C 147.127 -1.27493 4.24571 0
M  V30 1512 H 144.347 -0.0407183 0.669763 0
M  V30 1513 H 146.891 0.520352 1.97769 0
M  V30 1514 H 145.046 -1.32373 3.64083 0
M  V30 1515 H 145.46 0.205969 5.24095 0
M  V30 1516 H 146.934 -1.50277 5.31151 0
M  V30 1517 H 147.411 -2.23439 3.78116 0
M  V30 1518 H 148.017 -0.617558 4.20792 0
M  V30 1519 N 146.332 -1.57332 0.0918853 0
M  V30 1520 C 147.265 -2.09499 -0.904735 0
M  V30 1521 C 148.243 -1.00479 -1.27839 0
M  V30 1522 O 149.427 -1.27954 -1.38419 0
M  V30 1523 C 146.554 -2.56931 -2.2069 0
M  V30 1524 C 145.6 -3.77579 -1.98334 0
M  V30 1525 S 146.433 -5.21317 -1.22428 0
M  V30 1526 C 147.589 -5.72097 -2.53882 0
M  V30 1527 H 147.822 -2.93705 -0.460922 0
M  V30 1528 H 145.355 -1.53923 -0.121332 0
M  V30 1529 H 147.313 -2.84917 -2.95521 0
M  V30 1530 H 145.974 -1.72956 -2.62192 0
M  V30 1531 H 145.167 -4.08824 -2.94752 0
M  V30 1532 H 144.769 -3.5007 -1.31633 0
M  V30 1533 H 147.061 -5.80168 -3.49874 0
M  V30 1534 H 148.004 -6.70654 -2.27219 0
M  V30 1535 H 148.412 -5.00012 -2.62007 0
M  V30 1536 N 147.81 0.181792 -1.56548 0
M  V30 1537 C 149.056 0.901431 -1.81665 0
M  V30 1538 C 149.389 1.82347 -0.668075 0
M  V30 1539 O 148.664 1.91669 0.330615 0
M  V30 1540 C 148.947 1.70618 -3.17115 0
M  V30 1541 C 148.8 0.807964 -4.42484 0
M  V30 1542 C 150.119 2.67605 -3.49393 0
M  V30 1543 H 147.238 0.32627 -0.660846 0
M  V30 1544 H 149.88 0.168134 -1.89255 0
M  V30 1545 H 148.03 2.33133 -3.10775 0
M  V30 1546 H 149.702 0.19649 -4.60881 0
M  V30 1547 H 147.945 0.115411 -4.33646 0
M  V30 1548 H 148.616 1.40632 -5.33785 0
M  V30 1549 H 151.092 2.15218 -3.56118 0
M  V30 1550 H 149.968 3.20985 -4.45264 0
M  V30 1551 H 150.229 3.47298 -2.73563 0
M  V30 1552 N 149.288 1.51039 0.449983 0
M  V30 1553 C 150.536 1.62759 1.19808 0
M  V30 1554 C 150.857 0.339981 1.92013 0
M  V30 1555 O 150.127 -0.643606 1.85026 0
M  V30 1556 H 148.707 0.599811 0.445237 0
M  V30 1557 H 151.369 1.87914 0.517138 0
M  V30 1558 H 150.465 2.44911 1.93455 0
M  V30 1559 N 150.766 -0.704594 1.40972 0
M  V30 1560 C 151.713 -1.81862 1.42109 0
M  V30 1561 C 152.683 -1.63781 0.276593 0
M  V30 1562 O 153.868 -1.84759 0.4763 0
M  V30 1563 C 151.008 -3.19669 1.30022 0
M  V30 1564 C 150.121 -3.49246 2.54267 0
M  V30 1565 C 149.256 -4.76618 2.3454 0
M  V30 1566 C 148.295 -4.99133 3.54306 0
M  V30 1567 N 147.432 -6.17726 3.33706 0
M  V30 1568 H 152.272 -1.80226 2.37324 0
M  V30 1569 H 149.809 -0.880238 1.17857 0
M  V30 1570 H 151.767 -3.99263 1.21018 0
M  V30 1571 H 150.397 -3.20506 0.384192 0
M  V30 1572 H 149.449 -2.64125 2.73756 0
M  V30 1573 H 150.761 -3.61788 3.43381 0
M  V30 1574 H 149.915 -5.64249 2.22952 0
M  V30 1575 H 148.654 -4.66305 1.42867 0
M  V30 1576 H 147.659 -4.09953 3.66359 0
M  V30 1577 H 148.884 -5.11311 4.4692 0
M  V30 1578 H 146.83 -6.08642 2.44725 0
M  V30 1579 H 146.747 -6.30995 4.16391 0
M  V30 1580 H 148.015 -7.08115 3.25873 0
M  V30 1581 N 152.244 -1.26651 -0.937939 0
M  V30 1582 C 153.472 -1.15173 -1.7188 0
M  V30 1583 C 153.887 0.292668 -1.86518 0
M  V30 1584 O 153.244 1.20014 -1.37488 0
M  V30 1585 C 153.295 -1.81925 -3.12387 0
M  V30 1586 O 153.016 -3.2072 -2.98446 0
M  V30 1587 C 154.517 -1.76442 -4.06673 0
M  V30 1588 H 151.737 -0.400911 -0.538063 0
M  V30 1589 H 154.281 -1.67332 -1.1756 0
M  V30 1590 H 152.436 -1.33696 -3.63599 0
M  V30 1591 H 152.85 -3.53802 -3.872 0
M  V30 1592 H 154.324 -2.27781 -5.02812 0
M  V30 1593 H 154.801 -0.731608 -4.33064 0
M  V30 1594 H 155.407 -2.24238 -3.61382 0
M  V30 1595 N 153.722 1.14298 -1.08507 0
M  V30 1596 C 154.969 1.85359 -0.815373 0
M  V30 1597 C 155.297 1.83001 0.658865 0
M  V30 1598 O 154.552 1.25655 1.50031 0
M  V30 1599 C 154.851 3.33547 -1.28379 0
M  V30 1600 C 154.517 3.56093 -2.76602 0
M  V30 1601 C 153.179 3.61955 -3.17084 0
M  V30 1602 C 155.531 3.64834 -3.72217 0
M  V30 1603 C 152.859 3.74082 -4.51973 0
M  V30 1604 C 155.211 3.78487 -5.06883 0
M  V30 1605 C 153.875 3.82598 -5.46969 0
M  V30 1606 H 153.145 0.678276 -0.298366 0
M  V30 1607 H 155.792 1.35002 -1.35819 0
M  V30 1608 H 154.097 3.86191 -0.660593 0
M  V30 1609 H 155.794 3.86959 -1.05186 0
M  V30 1610 H 152.384 3.52179 -2.4427 0
M  V30 1611 H 156.568 3.59595 -3.42061 0
M  V30 1612 H 151.824 3.75527 -4.82483 0
M  V30 1613 H 155.998 3.84193 -5.80834 0
M  V30 1614 H 153.625 3.91747 -6.51489 0
M  V30 1615 N 155.201 0.870884 1.31352 0
M  V30 1616 C 156.429 0.49677 2.00848 0
M  V30 1617 C 156.844 -0.910998 1.65367 0
M  V30 1618 O 156.201 -1.59696 0.883374 0
M  V30 1619 C 156.252 0.645308 3.55694 0
M  V30 1620 O 155.973 1.99764 3.89905 0
M  V30 1621 C 157.474 0.272326 4.42463 0
M  V30 1622 H 154.694 0.193462 0.642506 0
M  V30 1623 H 157.238 1.1723 1.67563 0
M  V30 1624 H 155.393 0.0173176 3.87396 0
M  V30 1625 H 155.807 2.00607 4.84621 0
M  V30 1626 H 157.281 0.427208 5.50344 0
M  V30 1627 H 157.758 -0.788587 4.32062 0
M  V30 1628 H 158.364 0.876054 4.1618 0
M  V30 1629 N 156.679 -1.44442 0.630414 0
M  V30 1630 C 157.909 -2.06115 0.141465 0
M  V30 1631 C 158.317 -1.47179 -1.1889 0
M  V30 1632 O 157.66 -0.588873 -1.74006 0
M  V30 1633 C 157.722 -3.59467 -0.0484355 0
M  V30 1634 C 157.386 -4.40864 1.20366 0
M  V30 1635 C 158.383 -4.74391 2.12719 0
M  V30 1636 C 156.068 -4.8125 1.43887 0
M  V30 1637 C 158.062 -5.47186 3.26904 0
M  V30 1638 C 155.749 -5.53795 2.5837 0
M  V30 1639 C 156.747 -5.86682 3.49705 0
M  V30 1640 O 156.435 -6.57749 4.62191 0
M  V30 1641 H 156.167 -0.671648 0.0765792 0
M  V30 1642 H 158.721 -1.86312 0.864695 0
M  V30 1643 H 156.951 -3.77758 -0.826803 0
M  V30 1644 H 158.64 -4.02909 -0.491849 0
M  V30 1645 H 159.406 -4.43728 1.95781 0
M  V30 1646 H 155.285 -4.55073 0.736853 0
M  V30 1647 H 158.829 -5.72773 3.98217 0
M  V30 1648 H 154.726 -5.83872 2.75251 0
M  V30 1649 H 155.494 -6.76217 4.61164 0
M  V30 1650 N 158.157 -0.370918 -1.53173 0
M  V30 1651 C 159.087 0.464847 -2.28826 0
M  V30 1652 C 160.068 1.07936 -1.31468 0
M  V30 1653 O 161.253 1.0956 -1.60344 0
M  V30 1654 C 158.383 1.60196 -3.08147 0
M  V30 1655 C 157.337 1.11443 -4.13237 0
M  V30 1656 C 156.663 2.3422 -4.80672 0
M  V30 1657 C 157.963 0.195384 -5.21934 0
M  V30 1658 H 159.657 -0.166329 -2.98938 0
M  V30 1659 H 157.203 -0.0814359 -1.4377 0
M  V30 1660 H 159.156 2.19332 -3.59822 0
M  V30 1661 H 157.88 2.26045 -2.35735 0
M  V30 1662 H 156.539 0.545727 -3.62515 0
M  V30 1663 H 156.187 2.98537 -4.04827 0
M  V30 1664 H 155.887 2.02269 -5.51689 0
M  V30 1665 H 157.411 2.94032 -5.35143 0
M  V30 1666 H 158.825 0.694375 -5.69079 0
M  V30 1667 H 157.222 -0.0335027 -6.00091 0
M  V30 1668 H 158.292 -0.760961 -4.78892 0
M  V30 1669 N 159.635 1.57281 -0.100228 0
M  V30 1670 C 160.565 2.17328 0.853857 0
M  V30 1671 C 161.546 1.10804 1.2906 0
M  V30 1672 O 162.731 1.38963 1.35657 0
M  V30 1673 C 159.861 2.75772 2.11109 0
M  V30 1674 C 158.815 3.87713 1.81279 0
M  V30 1675 C 158.141 4.32882 3.13874 0
M  V30 1676 C 159.441 5.10677 1.09574 0
M  V30 1677 H 161.135 2.97305 0.353545 0
M  V30 1678 H 158.681 1.43009 0.168612 0
M  V30 1679 H 160.634 3.16433 2.78296 0
M  V30 1680 H 159.358 1.93057 2.63432 0
M  V30 1681 H 158.017 3.476 1.16489 0
M  V30 1682 H 157.665 3.47051 3.64095 0
M  V30 1683 H 157.365 5.08358 2.94696 0
M  V30 1684 H 158.889 4.7618 3.82211 0
M  V30 1685 H 160.303 5.48474 1.66879 0
M  V30 1686 H 158.7 5.91615 1.00557 0
M  V30 1687 H 159.77 4.84835 0.0793299 0
M  V30 1688 N 161.113 -0.173488 1.56642 0
M  V30 1689 C 162.361 -0.888706 1.81512 0
M  V30 1690 C 162.682 -1.82875 0.676872 0
M  V30 1691 O 161.952 -1.93536 -0.303414 0
M  V30 1692 H 160.532 -0.331164 0.669582 0
M  V30 1693 H 163.194 -0.173823 1.94123 0
M  V30 1694 H 162.29 -1.46691 2.75478 0
M  V30 1695 N 162.591 -1.51276 -0.441967 0
M  V30 1696 C 163.816 -1.67799 -1.21895 0
M  V30 1697 C 164.241 -0.372864 -1.84367 0
M  V30 1698 O 163.599 0.666501 -1.68604 0
M  V30 1699 C 163.647 -2.79199 -2.28211 0
M  V30 1700 O 162.751 -2.42479 -3.33583 0
M  V30 1701 H 162.092 -0.559649 -0.357336 0
M  V30 1702 H 164.622 -1.97815 -0.522522 0
M  V30 1703 H 164.632 -3.03146 -2.73069 0
M  V30 1704 H 163.307 -3.73906 -1.82118 0
M  V30 1705 H 161.884 -2.29087 -2.94234 0
M  V30 1706 N 164.069 0.697108 -1.41344 0
M  V30 1707 C 165.346 1.45154 -1.31109 0
M  V30 1708 C 165.726 2.11009 0.0620449 0
M  V30 1709 O 165.074 2.01571 1.07618 0
M  V30 1710 C 165.284 2.47223 -2.46337 0
M  V30 1711 C 166.632 3.1252 -2.87431 0
M  V30 1712 O 167.656 2.57547 -2.46065 0
M  V30 1713 O 166.515 4.12083 -3.58957 0
M  V30 1714 H 163.609 0.646365 -0.515889 0
M  V30 1715 H 166.155 0.727716 -1.53305 0
M  V30 1716 H 164.927 1.97204 -3.37974 0
M  V30 1717 H 164.55 3.27116 -2.2601 0
M  V30 1718 N 165.547 1.27147 0.931209 0
M  V30 1719 C 166.51 1.09615 2.01289 0
M  V30 1720 C 167.51 0.0412581 1.60747 0
M  V30 1721 O 168.7 0.285545 1.71844 0
M  V30 1722 C 165.832 0.669447 3.34262 0
M  V30 1723 H 167.025 2.05662 2.18273 0
M  V30 1724 H 164.578 1.09885 1.11153 0
M  V30 1725 H 165.313 -0.292572 3.22978 0
M  V30 1726 H 165.098 1.43127 3.65044 0
M  V30 1727 H 166.588 0.568921 4.13706 0
M  V30 1728 N 167.025 -1.13721 1.09112 0
M  V30 1729 C 167.988 -2.17222 0.731241 0
M  V30 1730 C 168.988 -1.59035 -0.237566 0
M  V30 1731 O 170.178 -1.74192 -0.0161704 0
M  V30 1732 C 167.31 -3.40804 0.0808443 0
M  V30 1733 H 168.503 -2.50573 1.64783 0
M  V30 1734 H 166.056 -1.28493 0.889897 0
M  V30 1735 H 166.791 -3.1304 -0.847127 0
M  V30 1736 H 166.576 -3.84306 0.777896 0
M  V30 1737 H 168.066 -4.1731 -0.155657 0
M  V30 1738 N 168.503 -0.877838 -1.30888 0
M  V30 1739 C 169.466 -0.344265 -2.266 0
M  V30 1740 C 170.466 0.50922 -1.52524 0
M  V30 1741 O 171.656 0.317398 -1.71284 0
M  V30 1742 C 168.788 0.510198 -3.37061 0
M  V30 1743 H 169.981 -1.1893 -2.7531 0
M  V30 1744 H 167.534 -0.654088 -1.41956 0
M  V30 1745 H 168.269 1.37612 -2.93655 0
M  V30 1746 H 168.054 -0.101047 -3.9197 0
M  V30 1747 H 169.544 0.875537 -4.08319 0
M  V30 1748 N 169.982 1.44106 -0.638065 0
M  V30 1749 C 170.912 2.33448 0.0494287 0
M  V30 1750 C 171.893 1.48606 0.827672 0
M  V30 1751 O 173.078 1.77308 0.792173 0
M  V30 1752 C 170.208 3.31771 1.02691 0
M  V30 1753 C 169.162 4.26485 0.359823 0
M  V30 1754 C 168.488 5.14729 1.44769 0
M  V30 1755 C 169.788 5.17056 -0.738296 0
M  V30 1756 H 171.482 2.91183 -0.696636 0
M  V30 1757 H 169.028 1.40014 -0.336456 0
M  V30 1758 H 170.981 3.93161 1.51666 0
M  V30 1759 H 169.705 2.7226 1.80395 0
M  V30 1760 H 168.364 3.66437 -0.10934 0
M  V30 1761 H 168.012 4.51566 2.21578 0
M  V30 1762 H 167.712 5.78913 1.00668 0
M  V30 1763 H 169.236 5.78991 1.93911 0
M  V30 1764 H 170.65 5.72342 -0.331354 0
M  V30 1765 H 169.047 5.89879 -1.10286 0
M  V30 1766 H 170.117 4.57652 -1.60258 0
M  V30 1767 N 171.46 0.379036 1.52974 0
M  V30 1768 C 172.39 -0.452706 2.29069 0
M  V30 1769 C 173.371 -1.07237 1.32039 0
M  V30 1770 O 174.556 -1.08708 1.60923 0
M  V30 1771 C 171.686 -1.5856 3.08992 0
M  V30 1772 C 170.64 -1.0925 4.13822 0
M  V30 1773 C 169.966 -2.31668 4.81907 0
M  V30 1774 C 171.266 -0.167702 5.22031 0
M  V30 1775 H 172.96 0.182181 2.98845 0
M  V30 1776 H 170.506 0.0890592 1.43724 0
M  V30 1777 H 172.459 -2.1742 3.6098 0
M  V30 1778 H 171.183 -2.24792 2.36931 0
M  V30 1779 H 169.842 -0.526494 3.628 0
M  V30 1780 H 169.49 -2.96386 4.06404 0
M  V30 1781 H 169.19 -1.9934 5.52754 0
M  V30 1782 H 170.714 -2.91189 5.36695 0
M  V30 1783 H 172.128 -0.664186 5.6944 0
M  V30 1784 H 170.525 0.0653265 6.00064 0
M  V30 1785 H 171.595 0.786347 4.78482 0
M  V30 1786 N 172.938 -1.57226 0.108567 0
M  V30 1787 C 174.185 -1.94833 -0.551943 0
M  V30 1788 C 174.513 -0.991204 -1.67348 0
M  V30 1789 O 173.768 -0.0131878 -1.95696 0
M  V30 1790 C 174.067 -3.38911 -1.13463 0
M  V30 1791 C 173.733 -4.50696 -0.135509 0
M  V30 1792 C 172.395 -4.80998 0.139252 0
M  V30 1793 C 174.747 -5.18333 0.545957 0
M  V30 1794 C 172.075 -5.76259 1.10194 0
M  V30 1795 C 174.427 -6.14627 1.49721 0
M  V30 1796 C 173.091 -6.43327 1.78006 0
M  V30 1797 H 172.361 -0.712944 -0.20197 0
M  V30 1798 H 175.008 -1.90582 0.18726 0
M  V30 1799 H 173.313 -3.39805 -1.95037 0
M  V30 1800 H 175.01 -3.65317 -1.65362 0
M  V30 1801 H 171.6 -4.27087 -0.359846 0
M  V30 1802 H 175.784 -4.95087 0.346842 0
M  V30 1803 H 171.04 -5.96804 1.32795 0
M  V30 1804 H 175.214 -6.66126 2.03099 0
M  V30 1805 H 172.841 -7.1695 2.52759 0
M  V30 1806 N 174.416 0.165178 -1.56732 0
M  V30 1807 C 175.364 1.22369 -1.97809 0
M  V30 1808 C 176.358 1.45488 -0.867741 0
M  V30 1809 O 177.564 1.45995 -1.05288 0
M  V30 1810 H 173.939 0.411486 -0.629431 0
M  V30 1811 H 175.91 0.850425 -2.86025 0
M  V30 1812 C 174.659 2.55403 -2.35934 0
M  V30 1813 H 173.982 2.38438 -3.20916 0
M  V30 1814 H 175.422 3.2814 -2.68514 0
M  V30 1815 C 173.881 3.14611 -1.20506 0
M  V30 1816 O 174.411 3.98626 -0.496016 0
M  V30 1817 N 172.617 2.7379 -0.97403 0
M  V30 1818 H 172.164 2.0557 -1.55238 0
M  V30 1819 H 172.122 3.1374 -0.203573 0
M  V30 1820 N 175.894 1.51508 0.433938 0
M  V30 1821 C 177.119 1.68443 1.21003 0
M  V30 1822 C 177.544 0.382636 1.84167 0
M  V30 1823 O 176.902 -0.65755 1.68956 0
M  V30 1824 C 176.95 2.80405 2.26727 0
M  V30 1825 O 176.054 2.44245 3.32292 0
M  V30 1826 H 175.395 0.561536 0.354363 0
M  V30 1827 H 177.925 1.9809 0.512024 0
M  V30 1828 H 177.935 3.0459 2.71457 0
M  V30 1829 H 176.61 3.74867 1.80132 0
M  V30 1830 H 175.187 2.30644 2.93015 0
M  V30 1831 N 177.372 -0.689602 1.41712 0
M  V30 1832 C 178.319 -1.80345 1.44029 0
M  V30 1833 C 179.289 -1.63478 0.293948 0
M  V30 1834 O 180.474 -1.84244 0.495869 0
M  V30 1835 C 177.614 -3.18272 1.33405 0
M  V30 1836 C 176.727 -3.46529 2.57956 0
M  V30 1837 C 175.862 -4.74103 2.39582 0
M  V30 1838 C 174.901 -4.95347 3.5958 0
M  V30 1839 N 174.038 -6.14151 3.40239 0
M  V30 1840 H 178.878 -1.77698 2.39222 0
M  V30 1841 H 176.415 -0.867688 1.18784 0
M  V30 1842 H 178.373 -3.97956 1.25246 0
M  V30 1843 H 177.003 -3.2008 0.418164 0
M  V30 1844 H 176.055 -2.61207 2.76542 0
M  V30 1845 H 177.367 -3.58126 3.47199 0
M  V30 1846 H 176.521 -5.61853 2.28924 0
M  V30 1847 H 175.26 -4.64763 1.47805 0
M  V30 1848 H 174.265 -4.06044 3.70686 0
M  V30 1849 H 175.49 -5.06542 4.52318 0
M  V30 1850 H 173.436 -6.06013 2.51167 0
M  V30 1851 H 173.353 -6.26543 4.23061 0
M  V30 1852 H 174.621 -7.04619 3.33365 0
M  V30 1853 N 178.85 -1.27639 -0.924453 0
M  V30 1854 C 179.798 -1.10485 -2.04685 0
M  V30 1855 C 180.792 -0.0270421 -1.69378 0
M  V30 1856 O 181.998 -0.185008 -1.79047 0
M  V30 1857 H 178.373 -0.340546 -0.670472 0
M  V30 1858 H 180.344 -2.05566 -2.16298 0
M  V30 1859 C 179.093 -0.772229 -3.39016 0
M  V30 1860 H 178.416 -1.59351 -3.66671 0
M  V30 1861 H 179.856 -0.692097 -4.18313 0
M  V30 1862 C 178.315 0.523554 -3.32807 0
M  V30 1863 O 178.845 1.55702 -3.70297 0
M  V30 1864 N 177.051 0.520363 -2.85903 0
M  V30 1865 H 176.598 -0.32107 -2.55591 0
M  V30 1866 H 176.556 1.38742 -2.82131 0
M  V30 1867 N 180.328 1.1314 -1.09713 0
M  V30 1868 C 181.238 2.22242 -0.751367 0
M  V30 1869 C 182.254 1.72224 0.247938 0
M  V30 1870 O 183.43 2.01205 0.0885463 0
M  V30 1871 C 180.495 3.46231 -0.180274 0
M  V30 1872 C 179.556 4.11125 -1.2359 0
M  V30 1873 C 178.789 5.29195 -0.691966 0
M  V30 1874 O 179.012 5.68342 0.48414 0
M  V30 1875 O 177.946 5.84214 -1.44838 0
M  V30 1876 H 181.772 2.54197 -1.66186 0
M  V30 1877 H 179.357 1.21331 -0.871735 0
M  V30 1878 H 181.239 4.21185 0.134739 0
M  V30 1879 H 179.914 3.1597 0.703185 0
M  V30 1880 H 178.821 3.37985 -1.60366 0
M  V30 1881 H 180.154 4.45524 -2.09211 0
M  V30 1882 N 181.806 0.884767 1.30421 0
M  V30 1883 C 183.083 0.423185 1.90967 0
M  V30 1884 C 183.463 -1.09605 1.80416 0
M  V30 1885 O 182.811 -1.93126 1.22125 0
M  V30 1886 C 183.021 0.921056 3.36627 0
M  V30 1887 C 184.369 0.955903 4.137 0
M  V30 1888 O 185.393 0.867706 3.4547 0
M  V30 1889 O 184.252 1.08614 5.35598 0
M  V30 1890 H 181.346 0.129369 0.816819 0
M  V30 1891 H 183.892 0.973653 1.3899 0
M  V30 1892 H 182.664 1.96489 3.3839 0
M  V30 1893 H 182.287 0.349741 3.96059 0
M  V30 1894 N 183.284 -1.43765 0.645699 0
M  V30 1895 C 184.214 -2.33471 -0.0370477 0
M  V30 1896 C 185.195 -1.49042 -0.819779 0
M  V30 1897 O 186.38 -1.77726 -0.782758 0
M  V30 1898 C 183.51 -3.32311 -1.0093 0
M  V30 1899 C 182.464 -4.2667 -0.337201 0
M  V30 1900 C 181.79 -5.1549 -1.42037 0
M  V30 1901 C 183.09 -5.16657 0.765706 0
M  V30 1902 H 184.784 -2.90809 0.712069 0
M  V30 1903 H 182.33 -1.39834 0.343876 0
M  V30 1904 H 184.283 -3.9396 -1.49578 0
M  V30 1905 H 183.007 -2.73213 -1.78948 0
M  V30 1906 H 181.666 -3.66374 0.128771 0
M  V30 1907 H 181.314 -4.52735 -2.1918 0
M  V30 1908 H 181.014 -5.79438 -0.975966 0
M  V30 1909 H 182.538 -5.80012 -1.90838 0
M  V30 1910 H 183.952 -5.72158 0.361702 0
M  V30 1911 H 182.349 -5.89286 1.13413 0
M  V30 1912 H 183.419 -4.56796 1.62683 0
M  V30 1913 N 184.763 -0.387143 -1.52771 0
M  V30 1914 C 185.711 0.463953 -2.27926 0
M  V30 1915 C 186.705 1.06493 -1.31741 0
M  V30 1916 O 187.911 1.00565 -1.49287 0
M  V30 1917 H 184.286 0.16837 -0.732909 0
M  V30 1918 H 186.257 -0.19141 -2.97785 0
M  V30 1919 C 185.006 1.5803 -3.09713 0
M  V30 1920 H 184.329 1.12718 -3.83581 0
M  V30 1921 H 185.769 2.15008 -3.65442 0
M  V30 1922 C 184.228 2.53509 -2.2189 0
M  V30 1923 O 184.758 3.56863 -1.84422 0
M  V30 1924 N 182.964 2.23199 -1.86093 0
M  V30 1925 H 182.511 1.39185 -2.16761 0
M  V30 1926 H 182.469 2.87333 -1.27621 0
M  V30 1927 N 186.241 1.57166 -0.116904 0
M  V30 1928 C 187.204 2.14039 0.819742 0
M  V30 1929 C 188.204 1.07477 1.19605 0
M  V30 1930 O 189.394 1.33263 1.1219 0
M  V30 1931 C 186.526 2.67891 2.10826 0
M  V30 1932 H 187.719 2.98128 0.325511 0
M  V30 1933 H 185.272 1.55739 0.132312 0
M  V30 1934 H 186.007 1.87384 2.64685 0
M  V30 1935 H 185.792 3.45823 1.84793 0
M  V30 1936 H 187.282 3.11809 2.77785 0
M  V30 1937 N 187.719 -0.156864 1.56817 0
M  V30 1938 C 188.629 -1.2136 2.00771 0
M  V30 1939 C 189.645 -1.47598 0.921459 0
M  V30 1940 O 190.821 -1.59462 1.2302 0
M  V30 1941 C 187.886 -2.52943 2.37109 0
M  V30 1942 C 186.947 -2.34439 3.59634 0
M  V30 1943 C 186.18 -3.59748 3.94229 0
M  V30 1944 O 186.403 -4.65526 3.29609 0
M  V30 1945 O 185.337 -3.52998 4.8752 0
M  V30 1946 H 189.163 -0.870468 2.90958 0
M  V30 1947 H 186.748 -0.36484 1.44877 0
M  V30 1948 H 188.63 -3.30538 2.61386 0
M  V30 1949 H 187.305 -2.86806 1.5008 0
M  V30 1950 H 186.212 -1.54828 3.40557 0
M  V30 1951 H 187.545 -2.05496 4.4725 0
M  V30 1952 N 189.197 -1.51736 -0.425897 0
M  V30 1953 C 190.474 -1.55519 -1.1863 0
M  V30 1954 C 190.854 -0.326219 -2.08564 0
M  V30 1955 O 190.202 0.688012 -2.17896 0
M  V30 1956 C 190.412 -2.87521 -1.9782 0
M  V30 1957 C 191.76 -3.39899 -2.54468 0
M  V30 1958 O 192.784 -2.89148 -2.08019 0
M  V30 1959 O 191.643 -4.2848 -3.39215 0
M  V30 1960 H 188.737 -0.625739 -0.540721 0
M  V30 1961 H 191.283 -1.64055 -0.434038 0
M  V30 1962 H 190.055 -3.68422 -1.31836 0
M  V30 1963 H 189.678 -2.822 -2.80088 0
M  V30 1964 N 190.675 0.682077 -1.42076 0
M  V30 1965 C 191.921 1.44428 -1.42367 0
M  V30 1966 C 192.254 1.94164 -0.0373056 0
M  V30 1967 O 191.529 1.70429 0.937239 0
M  V30 1968 C 191.812 2.64654 -2.44194 0
M  V30 1969 C 191.665 2.20596 -3.91991 0
M  V30 1970 C 192.984 3.66865 -2.431 0
M  V30 1971 H 190.103 0.523834 -0.518428 0
M  V30 1972 H 192.745 0.77576 -1.73442 0
M  V30 1973 H 190.895 3.2169 -2.17826 0
M  V30 1974 H 192.567 1.68783 -4.29313 0
M  V30 1975 H 190.81 1.52242 -4.06208 0
M  V30 1976 H 191.481 3.06921 -4.58807 0
M  V30 1977 H 193.957 3.19531 -2.66532 0
M  V30 1978 H 192.833 4.48577 -3.16339 0
M  V30 1979 H 193.094 4.17493 -1.45437 0
M  V30 1980 N 192.153 1.28127 0.917671 0
M  V30 1981 C 193.383 1.17722 1.6978 0
M  V30 1982 C 193.791 -0.267261 1.87303 0
M  V30 1983 O 193.134 -1.19286 1.39702 0
M  V30 1984 C 193.196 1.79958 3.11216 0
M  V30 1985 C 192.86 3.29187 3.16993 0
M  V30 1986 C 193.857 4.25679 2.98485 0
M  V30 1987 C 191.542 3.70075 3.39632 0
M  V30 1988 C 193.536 5.61035 3.02521 0
M  V30 1989 C 191.223 5.05557 3.433 0
M  V30 1990 C 192.221 6.00847 3.24764 0
M  V30 1991 O 191.909 7.33859 3.28187 0
M  V30 1992 H 191.641 0.409788 0.537634 0
M  V30 1993 H 194.195 1.69694 1.15728 0
M  V30 1994 H 192.425 1.22475 3.66793 0
M  V30 1995 H 194.114 1.64125 3.71238 0
M  V30 1996 H 194.88 3.95426 2.80826 0
M  V30 1997 H 190.759 2.96373 3.53106 0
M  V30 1998 H 194.303 6.35388 2.87971 0
M  V30 1999 H 190.2 5.35462 3.60486 0
M  V30 2000 H 190.968 7.42436 3.44575 0
M  V30 2001 N 193.631 -1.12557 1.10312 0
M  V30 2002 C 194.856 -1.88405 0.867085 0
M  V30 2003 C 195.281 -1.79038 -0.576817 0
M  V30 2004 O 194.639 -1.14439 -1.40618 0
M  V30 2005 C 194.687 -3.3563 1.31851 0
M  V30 2006 O 193.791 -4.09565 0.482734 0
M  V30 2007 H 193.132 -0.585455 0.313271 0
M  V30 2008 H 195.662 -1.42352 1.4696 0
M  V30 2009 H 195.672 -3.86469 1.3079 0
M  V30 2010 H 194.347 -3.41765 2.37001 0
M  V30 2011 H 192.924 -3.68695 0.558448 0
M  V30 2012 N 195.109 -0.891671 -1.2995 0
M  V30 2013 C 196.525 -0.58662 -1.48428 0
M  V30 2014 C 196.725 0.873951 -1.81561 0
M  V30 2015 O 195.781 1.65471 -1.90724 0
M  V30 2016 C 197.094 -1.50553 -2.60296 0
M  V30 2017 C 198.642 -1.50988 -2.74175 0
M  V30 2018 C 199.117 -2.41488 -3.89163 0
M  V30 2019 N 200.608 -2.39489 -3.96483 0
M  V30 2020 C 201.343 -3.06223 -4.84784 0
M  V30 2021 N 200.839 -3.82206 -5.77833 0
M  V30 2022 N 202.632 -2.95421 -4.78208 0
M  V30 2023 H 194.783 -1.83644 -1.06718 0
M  V30 2024 H 197.046 -0.786455 -0.529332 0
M  V30 2025 H 196.752 -2.54581 -2.42654 0
M  V30 2026 H 196.626 -1.22008 -3.56923 0
M  V30 2027 H 199.013 -0.47708 -2.91218 0
M  V30 2028 H 199.094 -1.83567 -1.78148 0
M  V30 2029 H 198.738 -3.44857 -3.72876 0
M  V30 2030 H 198.668 -2.06222 -4.84541 0
M  V30 2031 H 201.159 -1.84278 -3.29924 0
M  V30 2032 H 201.472 -4.302 -6.41988 0
M  V30 2033 H 199.817 -3.86313 -5.77743 0
M  V30 2034 H 203.008 -2.35581 -4.04499 0
M  V30 2035 H 203.181 -3.47704 -5.46814 0
M  V30 2036 N 196.587 1.43421 -0.653314 0
M  V30 2037 C 197.517 2.33487 0.0246656 0
M  V30 2038 C 198.498 1.49475 0.811863 0
M  V30 2039 O 199.683 1.78139 0.773322 0
M  V30 2040 C 196.813 3.32841 0.99166 0
M  V30 2041 C 195.767 4.26842 0.314568 0
M  V30 2042 C 195.093 5.16236 1.39302 0
M  V30 2043 C 196.393 5.16243 -0.793095 0
M  V30 2044 H 198.087 2.90427 -0.727481 0
M  V30 2045 H 195.633 1.39649 -0.351287 0
M  V30 2046 H 197.586 3.94747 1.47487 0
M  V30 2047 H 196.31 2.74158 1.77497 0
M  V30 2048 H 194.969 3.663 -0.148199 0
M  V30 2049 H 194.617 4.53891 2.16776 0
M  V30 2050 H 194.317 5.79948 0.945223 0
M  V30 2051 H 195.841 5.81015 1.87759 0
M  V30 2052 H 197.255 5.71958 -0.392039 0
M  V30 2053 H 195.652 5.88676 -1.16536 0
M  V30 2054 H 196.722 4.55927 -1.65103 0
M  V30 2055 N 198.065 0.39524 1.52563 0
M  V30 2056 C 199.293 -0.184943 2.06072 0
M  V30 2057 C 199.708 -1.40021 1.26647 0
M  V30 2058 O 199.065 -1.79767 0.314672 0
M  V30 2059 C 199.116 -0.549179 3.57304 0
M  V30 2060 O 198.837 0.617813 4.33722 0
M  V30 2061 C 200.338 -1.18459 4.2718 0
M  V30 2062 H 197.558 -0.0265025 0.670476 0
M  V30 2063 H 200.102 0.562184 1.96621 0
M  V30 2064 H 198.257 -1.2462 3.66809 0
M  V30 2065 H 198.671 0.317091 5.23541 0
M  V30 2066 H 200.145 -1.38976 5.34219 0
M  V30 2067 H 200.622 -2.15368 3.82771 0
M  V30 2068 H 201.228 -0.528163 4.22008 0
M  V30 2069 N 199.544 -1.57102 0.125237 0
M  V30 2070 C 200.772 -1.99761 -0.538797 0
M  V30 2071 C 201.187 -1.00503 -1.59827 0
M  V30 2072 O 200.544 0.00119474 -1.825 0
M  V30 2073 C 200.595 -3.42408 -1.15927 0
M  V30 2074 O 200.316 -4.37869 -0.142143 0
M  V30 2075 C 201.817 -4.00232 -1.90602 0
M  V30 2076 H 199.037 -0.655772 -0.14214 0
M  V30 2077 H 201.581 -2.03383 0.213413 0
M  V30 2078 H 199.736 -3.39706 -1.86223 0
M  V30 2079 H 200.15 -5.21128 -0.593775 0
M  V30 2080 H 201.624 -5.02105 -2.29335 0
M  V30 2081 H 202.101 -3.39721 -2.78363 0
M  V30 2082 H 202.707 -4.06499 -1.25055 0
M  V30 2083 N 201.022 0.148545 -1.56898 0
M  V30 2084 C 202.433 0.708766 -1.72723 0
M  V30 2085 C 202.784 1.81734 -0.739395 0
M  V30 2086 O 201.909 2.16194 0.0943169 0
M  V30 2087 C 202.504 1.29245 -3.13179 0
M  V30 2088 C 201.063 1.79925 -3.30611 0
M  V30 2089 C 200.21 0.687111 -2.68652 0
M  V30 2090 H 203.161 -0.0771063 -1.58513 0
M  V30 2091 H 203.182 2.16224 -3.13093 0
M  V30 2092 H 202.694 0.485382 -3.85053 0
M  V30 2093 H 200.795 2.63203 -2.63732 0
M  V30 2094 H 200.908 1.92903 -4.38549 0
M  V30 2095 H 199.272 1.11335 -2.29078 0
M  V30 2096 H 200.055 -0.108483 -3.43129 0
M  V30 2097 N 202.5 1.5196 0.417844 0
M  V30 2098 C 203.746 1.65836 1.16732 0
M  V30 2099 C 204.079 0.382881 1.90388 0
M  V30 2100 O 203.354 -0.618368 1.84408 0
M  V30 2101 C 203.637 2.87466 2.16876 0
M  V30 2102 C 203.49 4.25041 1.47174 0
M  V30 2103 C 204.809 3.04613 3.17646 0
M  V30 2104 H 201.928 0.603515 0.423011 0
M  V30 2105 H 204.57 1.84494 0.454105 0
M  V30 2106 H 202.72 2.71689 2.777 0
M  V30 2107 H 204.392 4.52527 0.895376 0
M  V30 2108 H 202.635 4.26843 0.773806 0
M  V30 2109 H 203.306 5.06176 2.20204 0
M  V30 2110 H 205.782 3.1923 2.66892 0
M  V30 2111 H 204.658 3.91247 3.8499 0
M  V30 2112 H 204.919 2.17541 3.84874 0
M  V30 2113 N 203.978 -0.674533 1.42435 0
M  V30 2114 C 205.225 -1.43459 1.42919 0
M  V30 2115 C 205.553 -1.94446 0.0457312 0
M  V30 2116 O 204.808 -1.7132 -0.94593 0
M  V30 2117 C 205.107 -2.64767 2.40069 0
M  V30 2118 C 204.773 -2.3232 3.86443 0
M  V30 2119 C 203.435 -2.23182 4.26314 0
M  V30 2120 C 205.787 -2.05977 4.78773 0
M  V30 2121 C 203.115 -1.85827 5.56494 0
M  V30 2122 C 205.467 -1.70125 6.09295 0
M  V30 2123 C 204.131 -1.59498 6.48164 0
M  V30 2124 H 203.401 -0.524952 0.522978 0
M  V30 2125 H 206.048 -0.769097 1.75377 0
M  V30 2126 H 204.353 -3.36349 2.00939 0
M  V30 2127 H 206.05 -3.22949 2.37707 0
M  V30 2128 H 202.64 -2.40334 3.54877 0
M  V30 2129 H 206.824 -2.11969 4.48757 0
M  V30 2130 H 202.08 -1.76168 5.8547 0
M  V30 2131 H 206.254 -1.48767 6.80324 0
M  V30 2132 H 203.881 -1.30322 7.48946 0
M  V30 2133 N 205.456 -1.28612 -0.910864 0
M  V30 2134 C 206.704 -1.15705 -1.65701 0
M  V30 2135 C 207.025 0.29416 -1.92769 0
M  V30 2136 O 206.295 1.20331 -1.54588 0
M  V30 2137 H 204.875 -0.425216 -0.614167 0
M  V30 2138 H 207.537 -1.61381 -1.0928 0
M  V30 2139 H 206.633 -1.6988 -2.61815 0
M  V30 2140 N 206.934 1.1197 -1.10907 0
M  V30 2141 C 207.881 2.17846 -0.762345 0
M  V30 2142 C 208.851 1.63995 0.263599 0
M  V30 2143 O 210.036 1.90273 0.141773 0
M  V30 2144 C 207.176 3.44487 -0.205651 0
M  V30 2145 C 206.289 4.12369 -1.28748 0
M  V30 2146 C 205.424 5.26674 -0.691919 0
M  V30 2147 C 204.463 5.86431 -1.75399 0
M  V30 2148 N 203.6 6.92142 -1.17833 0
M  V30 2149 H 208.44 2.46851 -1.6694 0
M  V30 2150 H 205.977 1.21188 -0.833776 0
M  V30 2151 H 207.935 4.16981 0.135037 0
M  V30 2152 H 206.565 3.15884 0.664613 0
M  V30 2153 H 205.617 3.38003 -1.74522 0
M  V30 2154 H 206.929 4.52844 -2.09125 0
M  V30 2155 H 206.083 6.05953 -0.300963 0
M  V30 2156 H 204.822 4.8749 0.143232 0
M  V30 2157 H 203.827 5.05835 -2.15432 0
M  V30 2158 H 205.052 6.27685 -2.59208 0
M  V30 2159 H 202.998 6.54985 -0.364725 0
M  V30 2160 H 202.915 7.31242 -1.91887 0
M  V30 2161 H 204.183 7.75237 -0.81408 0
M  V30 2162 N 208.412 0.89855 1.29475 0
M  V30 2163 C 209.66 0.522847 1.9522 0
M  V30 2164 C 209.981 -0.93371 1.71192 0
M  V30 2165 O 209.251 -1.65823 1.04305 0
M  V30 2166 H 207.831 0.190366 0.722336 0
M  V30 2167 H 210.493 1.14459 1.5775 0
M  V30 2168 H 209.589 0.704476 3.04045 0
M  V30 2169 N 209.89 -1.43072 0.660911 0
M  V30 2170 C 211.136 -2.0202 0.177708 0
M  V30 2171 C 211.469 -1.52066 -1.20787 0
M  V30 2172 O 210.744 -0.716987 -1.80802 0
M  V30 2173 C 211.027 -3.59561 0.197019 0
M  V30 2174 C 210.88 -4.19727 1.61706 0
M  V30 2175 C 212.199 -4.37664 -0.462396 0
M  V30 2176 H 209.318 -0.734034 0.0660494 0
M  V30 2177 H 211.96 -1.70272 0.843058 0
M  V30 2178 H 210.11 -3.86739 -0.369527 0
M  V30 2179 H 211.782 -4.03553 2.23479 0
M  V30 2180 H 210.025 -3.76084 2.16201 0
M  V30 2181 H 210.696 -5.28834 1.58237 0
M  V30 2182 H 213.172 -4.16095 0.0197215 0
M  V30 2183 H 212.048 -5.47305 -0.418188 0
M  V30 2184 H 212.309 -4.14493 -1.53778 0
M  V30 2185 N 211.368 -0.403325 -1.52352 0
M  V30 2186 C 212.331 0.413051 -2.25447 0
M  V30 2187 C 213.331 0.978513 -1.276 0
M  V30 2188 O 214.521 0.858305 -1.51587 0
M  V30 2189 C 211.653 1.58087 -3.02029 0
M  V30 2190 H 212.846 -0.227094 -2.99039 0
M  V30 2191 H 210.399 -0.155722 -1.55522 0
M  V30 2192 H 211.134 2.25804 -2.32772 0
M  V30 2193 H 210.919 1.18195 -3.73861 0
M  V30 2194 H 212.409 2.1585 -3.57489 0
M  V30 2195 N 212.846 1.57033 -0.133567 0
M  V30 2196 C 214.076 1.99754 0.527429 0
M  V30 2197 C 214.484 1.01245 1.59832 0
M  V30 2198 O 213.827 -0.000645496 1.837 0
M  V30 2199 C 213.889 3.38903 1.19939 0
M  V30 2200 C 213.553 4.56174 0.274709 0
M  V30 2201 C 214.55 5.17563 -0.492398 0
M  V30 2202 C 212.235 5.01972 0.18153 0
M  V30 2203 C 214.229 6.2315 -1.34027 0
M  V30 2204 C 211.916 6.07416 -0.669958 0
M  V30 2205 C 212.914 6.67874 -1.42947 0
M  V30 2206 O 212.602 7.71279 -2.2668 0
M  V30 2207 H 212.334 0.660702 0.142999 0
M  V30 2208 H 214.888 2.04207 -0.221099 0
M  V30 2209 H 213.118 3.31248 1.99528 0
M  V30 2210 H 214.807 3.65818 1.75875 0
M  V30 2211 H 215.573 4.83087 -0.430367 0
M  V30 2212 H 211.452 4.54652 0.762422 0
M  V30 2213 H 214.996 6.70268 -1.93357 0
M  V30 2214 H 210.893 6.41321 -0.73333 0
M  V30 2215 H 211.661 7.88441 -2.1978 0
M  V30 2216 N 214.325 -0.140222 1.56975 0
M  V30 2217 C 215.602 -0.880769 1.74648 0
M  V30 2218 C 215.982 -1.99036 0.703404 0
M  V30 2219 O 215.33 -2.26821 -0.27648 0
M  V30 2220 C 215.54 -1.417 3.18939 0
M  V30 2221 C 216.888 -1.87774 3.80823 0
M  V30 2222 O 217.912 -1.51427 3.2241 0
M  V30 2223 O 216.771 -2.54827 4.83452 0
M  V30 2224 H 213.865 -0.416713 0.714338 0
M  V30 2225 H 216.411 -0.125618 1.69234 0
M  V30 2226 H 215.183 -0.619902 3.86359 0
M  V30 2227 H 214.806 -2.23546 3.28805 0
M  V30 2228 N 215.803 -1.52179 -0.40978 0
M  V30 2229 C 217.049 -1.66453 -1.15851 0
M  V30 2230 C 217.382 -0.392972 -1.90182 0
M  V30 2231 O 216.657 0.608579 -1.84734 0
M  V30 2232 C 216.94 -2.88612 -2.15349 0
M  V30 2233 C 216.793 -4.25815 -1.44918 0
M  V30 2234 C 218.112 -3.06294 -3.16026 0
M  V30 2235 H 215.231 -0.60575 -0.419805 0
M  V30 2236 H 217.873 -1.84732 -0.444314 0
M  V30 2237 H 216.023 -2.73158 -2.76255 0
M  V30 2238 H 217.695 -4.52995 -0.871365 0
M  V30 2239 H 215.938 -4.27247 -0.751159 0
M  V30 2240 H 216.609 -5.07337 -2.17516 0
M  V30 2241 H 219.085 -3.20641 -2.65195 0
M  V30 2242 H 217.961 -3.93283 -3.8291 0
M  V30 2243 H 218.222 -2.19579 -3.83715 0
M  V30 2244 N 217.281 0.66697 -1.42791 0
M  V30 2245 C 218.692 1.2478 -1.38877 0
M  V30 2246 C 219.043 1.96012 -0.0859426 0
M  V30 2247 O 218.168 2.00463 0.815081 0
M  V30 2248 C 218.763 2.26938 -2.51564 0
M  V30 2249 C 217.322 2.80529 -2.50959 0
M  V30 2250 C 216.469 1.54965 -2.29959 0
M  V30 2251 H 219.42 0.459853 -1.51892 0
M  V30 2252 H 219.441 3.08834 -2.22265 0
M  V30 2253 H 218.953 1.75065 -3.46372 0
M  V30 2254 H 217.054 3.36502 -1.59991 0
M  V30 2255 H 217.167 3.29012 -3.48265 0
M  V30 2256 H 215.531 1.81817 -1.78366 0
M  V30 2257 H 216.314 1.05047 -3.26833 0
M  V30 2258 N 218.759 1.29093 0.90403 0
M  V30 2259 C 219.707 1.13727 2.02901 0
M  V30 2260 C 220.701 0.0539853 1.69314 0
M  V30 2261 O 221.907 0.213469 1.7873 0
M  V30 2262 H 218.282 0.35117 0.664969 0
M  V30 2263 H 220.253 2.08982 2.13001 0
M  V30 2264 C 219.002 0.826066 3.37745 0
M  V30 2265 H 218.325 1.65164 3.64089 0
M  V30 2266 H 219.765 0.758559 4.17159 0
M  V30 2267 C 218.224 -0.470541 3.33598 0
M  V30 2268 O 218.754 -1.49792 3.72727 0
M  V30 2269 N 216.96 -0.474812 2.86695 0
M  V30 2270 H 216.507 0.361692 2.55048 0
M  V30 2271 H 216.465 -1.34236 2.84303 0
M  V30 2272 N 220.237 -1.11381 1.11499 0
M  V30 2273 C 221.648 -1.6465 0.880191 0
M  V30 2274 C 221.999 -1.87199 -0.587434 0
M  V30 2275 O 221.124 -1.60667 -1.44966 0
M  V30 2276 C 221.719 -2.99105 1.59128 0
M  V30 2277 C 220.278 -3.49279 1.40289 0
M  V30 2278 C 219.425 -2.24077 1.63354 0
M  V30 2279 H 222.376 -0.950123 1.27116 0
M  V30 2280 H 222.397 -3.66107 1.03664 0
M  V30 2281 H 221.909 -2.82661 2.65941 0
M  V30 2282 H 220.01 -3.70887 0.356888 0
M  V30 2283 H 220.123 -4.2803 2.15238 0
M  V30 2284 H 218.487 -2.31733 1.05698 0
M  V30 2285 H 219.27 -2.10175 2.71443 0
M  V30 2286 N 221.715 -0.905404 -1.28997 0
M  V30 2287 C 222.961 -0.535039 -1.95615 0
M  V30 2288 C 223.294 0.917404 -1.71165 0
M  V30 2289 O 222.569 1.65123 -1.02785 0
M  V30 2290 C 222.852 -0.834918 -3.50287 0
M  V30 2291 C 222.705 -2.33948 -3.84172 0
M  V30 2292 C 224.024 -0.325318 -4.38896 0
M  V30 2293 H 221.143 -0.195861 -0.710498 0
M  V30 2294 H 223.785 -1.13313 -1.52513 0
M  V30 2295 H 221.935 -0.325904 -3.87131 0
M  V30 2296 H 223.607 -2.91847 -3.57243 0
M  V30 2297 H 221.85 -2.79789 -3.31513 0
M  V30 2298 H 222.521 -2.49987 -4.92149 0
M  V30 2299 H 224.997 -0.761256 -4.09077 0
M  V30 2300 H 223.873 -0.564295 -5.45992 0
M  V30 2301 H 224.134 0.774144 -4.35269 0
M  V30 2302 N 223.193 1.4272 -0.668489 0
M  V30 2303 C 224.44 2.01624 -0.18814 0
M  V30 2304 C 224.768 1.5282 1.20317 0
M  V30 2305 O 224.023 0.718323 1.8204 0
M  V30 2306 C 224.322 3.57021 -0.164499 0
M  V30 2307 C 223.988 4.25232 -1.49962 0
M  V30 2308 C 222.65 4.4358 -1.8652 0
M  V30 2309 C 225.002 4.63727 -2.37921 0
M  V30 2310 C 222.33 4.97694 -3.10674 0
M  V30 2311 C 224.682 5.19218 -3.6138 0
M  V30 2312 C 223.346 5.3578 -3.98115 0
M  V30 2313 H 222.616 0.737795 -0.0688454 0
M  V30 2314 H 225.263 1.70991 -0.862225 0
M  V30 2315 H 223.568 3.87285 0.593079 0
M  V30 2316 H 225.265 4.00372 0.224271 0
M  V30 2317 H 221.855 4.11306 -1.20522 0
M  V30 2318 H 226.039 4.4923 -2.10964 0
M  V30 2319 H 221.295 5.08702 -3.39164 0
M  V30 2320 H 225.469 5.4799 -4.29743 0
M  V30 2321 H 223.096 5.77475 -4.94395 0
M  V30 2322 N 224.671 0.411399 1.52136 0
M  V30 2323 C 225.601 -0.404015 2.29978 0
M  V30 2324 C 226.582 -1.04412 1.34284 0
M  V30 2325 O 227.767 -1.0527 1.63192 0
M  V30 2326 C 224.897 -1.5197 3.12286 0
M  V30 2327 C 223.851 -1.00448 4.16046 0
M  V30 2328 C 223.177 -2.21393 4.86712 0
M  V30 2329 C 224.477 -0.0569336 5.22269 0
M  V30 2330 H 226.171 0.245529 2.98392 0
M  V30 2331 H 223.717 0.119525 1.43503 0
M  V30 2332 H 225.67 -2.09715 3.6551 0
M  V30 2333 H 224.394 -2.19716 2.41646 0
M  V30 2334 H 223.053 -0.449421 3.63835 0
M  V30 2335 H 222.701 -2.87699 4.12599 0
M  V30 2336 H 222.401 -1.87571 5.56858 0
M  V30 2337 H 223.925 -2.7974 5.4275 0
M  V30 2338 H 225.339 -0.54325 5.7072 0
M  V30 2339 H 223.736 0.192594 5.99791 0
M  V30 2340 H 224.806 0.887663 4.76706 0
M  V30 2341 N 226.149 -1.5696 0.141893 0
M  V30 2342 C 227.059 -2.20066 -0.812905 0
M  V30 2343 C 228.075 -1.18344 -1.27557 0
M  V30 2344 O 229.251 -1.50902 -1.33381 0
M  V30 2345 C 226.316 -2.80583 -2.03652 0
M  V30 2346 C 225.377 -3.97414 -1.62359 0
M  V30 2347 C 224.61 -4.55036 -2.78887 0
M  V30 2348 O 224.833 -4.11538 -3.94959 0
M  V30 2349 O 223.767 -5.45376 -2.54653 0
M  V30 2350 H 227.593 -3.02157 -0.305746 0
M  V30 2351 H 225.178 -1.49159 -0.0848799 0
M  V30 2352 H 227.06 -3.19067 -2.75272 0
M  V30 2353 H 225.735 -2.01508 -2.5333 0
M  V30 2354 H 224.642 -3.63656 -0.877775 0
M  V30 2355 H 225.975 -4.77994 -1.17401 0
M  V30 2356 N 227.627 0.131896 -1.57047 0
M  V30 2357 C 228.559 1.1878 -1.9602 0
M  V30 2358 C 229.572 1.38363 -0.857875 0
M  V30 2359 O 230.761 1.37666 -1.13623 0
M  V30 2360 C 227.861 2.55008 -2.23213 0
M  V30 2361 C 227.034 2.56201 -3.54513 0
M  V30 2362 C 226.093 3.7408 -3.70069 0
M  V30 2363 O 225.119 3.58258 -4.42312 0
M  V30 2364 N 226.321 4.92137 -3.07866 0
M  V30 2365 H 229.086 0.85639 -2.87204 0
M  V30 2366 H 226.647 0.321309 -1.5868 0
M  V30 2367 H 228.639 3.32404 -2.30846 0
M  V30 2368 H 227.209 2.80382 -1.3822 0
M  V30 2369 H 226.429 1.64613 -3.58185 0
M  V30 2370 H 227.717 2.54043 -4.4084 0
M  V30 2371 H 227.115 5.07895 -2.49116 0
M  V30 2372 H 225.672 5.67254 -3.21039 0
M  V30 2373 N 229.106 1.52395 0.401703 0
M  V30 2374 C 230.053 1.76268 1.48991 0
M  V30 2375 C 231.023 0.605386 1.54675 0
M  V30 2376 O 232.208 0.843742 1.7113 0
M  V30 2377 C 229.348 1.92592 2.86361 0
M  V30 2378 C 228.461 3.20259 2.89928 0
M  V30 2379 C 227.596 3.26972 4.18644 0
M  V30 2380 C 226.635 4.48812 4.16214 0
M  V30 2381 N 225.772 4.52877 5.36514 0
M  V30 2382 H 230.612 2.6914 1.27935 0
M  V30 2383 H 228.149 1.33355 0.620871 0
M  V30 2384 H 230.107 2.0004 3.66115 0
M  V30 2385 H 228.737 1.03093 3.05895 0
M  V30 2386 H 227.789 3.21945 2.02621 0
M  V30 2387 H 229.101 4.10056 2.83999 0
M  V30 2388 H 228.255 3.33533 5.06794 0
M  V30 2389 H 226.994 2.35126 4.27278 0
M  V30 2390 H 225.999 4.4239 3.26453 0
M  V30 2391 H 227.224 5.41961 4.09213 0
M  V30 2392 H 225.17 3.63917 5.45802 0
M  V30 2393 H 225.087 5.36529 5.32609 0
M  V30 2394 H 226.355 4.63676 6.26597 0
M  V30 2395 N 230.584 -0.659388 1.43143 0
M  V30 2396 C 231.531 -1.77249 1.47822 0
M  V30 2397 C 232.501 -1.62818 0.328558 0
M  V30 2398 O 233.686 -1.83151 0.534838 0
M  V30 2399 C 230.826 -3.15371 1.40126 0
M  V30 2400 C 229.939 -3.4098 2.65249 0
M  V30 2401 C 229.074 -4.68915 2.49584 0
M  V30 2402 C 228.113 -4.87608 3.70006 0
M  V30 2403 N 227.25 -6.06796 3.53189 0
M  V30 2404 H 232.09 -1.72584 2.42938 0
M  V30 2405 H 229.627 -0.842297 1.20598 0
M  V30 2406 H 231.585 -3.9521 1.33659 0
M  V30 2407 H 230.215 -3.19121 0.485964 0
M  V30 2408 H 229.267 -2.55282 2.8202 0
M  V30 2409 H 230.579 -3.50681 3.54717 0
M  V30 2410 H 229.733 -5.56871 2.4079 0
M  V30 2411 H 228.472 -4.61524 1.5763 0
M  V30 2412 H 227.477 -3.9809 3.79215 0
M  V30 2413 H 228.702 -4.96834 4.62961 0
M  V30 2414 H 226.648 -6.00549 2.63965 0
M  V30 2415 H 226.565 -6.17428 4.36255 0
M  V30 2416 H 227.833 -6.9739 3.48236 0
M  V30 2417 N 232.062 -1.29571 -0.897171 0
M  V30 2418 C 232.995 -1.0924 -2.00354 0
M  V30 2419 C 233.973 -0.00354011 -1.626 0
M  V30 2420 O 235.157 -0.15473 -1.87864 0
M  V30 2421 C 232.284 -0.66352 -3.32137 0
M  V30 2422 C 231.33 -1.75146 -3.88878 0
M  V30 2423 S 232.163 -3.35124 -4.17674 0
M  V30 2424 C 233.319 -2.9411 -5.52494 0
M  V30 2425 H 233.552 -2.02907 -2.17292 0
M  V30 2426 H 231.085 -1.13746 -1.04408 0
M  V30 2427 H 233.043 -0.422791 -4.08317 0
M  V30 2428 H 231.704 0.253588 -3.13075 0
M  V30 2429 H 230.897 -1.40337 -4.84068 0
M  V30 2430 H 230.499 -1.94584 -3.19395 0
M  V30 2431 H 232.791 -2.41312 -6.33068 0
M  V30 2432 H 233.734 -3.88161 -5.9223 0
M  V30 2433 H 234.142 -2.32332 -5.14473 0
M  V30 2434 N 233.54 1.10788 -1.12088 0
M  V30 2435 C 234.47 2.19083 -0.807755 0
M  V30 2436 C 235.451 1.6858 0.226859 0
M  V30 2437 O 236.636 1.93997 0.0888475 0
M  V30 2438 C 233.766 3.46344 -0.257576 0
M  V30 2439 C 232.72 4.101 -1.22483 0
M  V30 2440 C 232.046 5.32016 -0.535052 0
M  V30 2441 C 233.346 4.54236 -2.57811 0
M  V30 2442 H 235.04 2.45534 -1.71328 0
M  V30 2443 H 232.586 1.1801 -0.825205 0
M  V30 2444 H 234.539 4.21392 -0.0262679 0
M  V30 2445 H 233.263 3.19373 0.683278 0
M  V30 2446 H 231.922 3.37054 -1.44189 0
M  V30 2447 H 231.57 5.01319 0.410827 0
M  V30 2448 H 231.27 5.75625 -1.18024 0
M  V30 2449 H 232.794 6.09799 -0.312695 0
M  V30 2450 H 234.208 5.20575 -2.40155 0
M  V30 2451 H 232.605 5.08682 -3.18375 0
M  V30 2452 H 233.675 3.6734 -3.16528 0
M  V30 2453 N 235.018 0.912232 1.28515 0
M  V30 2454 C 235.965 0.397954 2.27343 0
M  V30 2455 C 236.935 -0.526766 1.57526 0
M  V30 2456 O 238.12 -0.449292 1.85435 0
M  V30 2457 C 235.26 -0.357263 3.43246 0
M  V30 2458 C 234.373 0.599788 4.27816 0
M  V30 2459 C 233.508 -0.173725 5.30916 0
M  V30 2460 C 232.547 0.777039 6.07148 0
M  V30 2461 N 231.684 0.0371398 7.0209 0
M  V30 2462 H 236.524 1.24577 2.70711 0
M  V30 2463 H 234.061 0.625612 1.33133 0
M  V30 2464 H 236.019 -0.8113 4.09236 0
M  V30 2465 H 234.649 -1.16943 3.00872 0
M  V30 2466 H 233.701 1.17235 3.61884 0
M  V30 2467 H 235.013 1.32704 4.80823 0
M  V30 2468 H 234.167 -0.688394 6.02782 0
M  V30 2469 H 232.906 -0.934041 4.78672 0
M  V30 2470 H 231.911 1.3031 5.34134 0
M  V30 2471 H 233.136 1.53689 6.61481 0
M  V30 2472 H 231.082 -0.705213 6.52198 0
M  V30 2473 H 230.999 0.704249 7.52713 0
M  V30 2474 H 232.267 -0.457383 7.78157 0
M  V30 2475 N 236.496 -1.42363 0.676048 0
M  V30 2476 C 237.721 -2.06377 0.205705 0
M  V30 2477 C 238.146 -1.50463 -1.12883 0
M  V30 2478 O 237.504 -0.623619 -1.70237 0
M  V30 2479 C 237.552 -3.60277 0.152655 0
M  V30 2480 O 236.656 -4.02935 -0.87845 0
M  V30 2481 H 235.997 -0.655588 0.105359 0
M  V30 2482 H 238.527 -1.82475 0.925412 0
M  V30 2483 H 238.537 -4.07993 -0.0230675 0
M  V30 2484 H 237.212 -4.00346 1.12675 0
M  V30 2485 H 235.789 -3.66764 -0.673668 0
M  V30 2486 N 237.974 -0.419461 -1.51915 0
M  V30 2487 C 239.222 0.152637 -2.01523 0
M  V30 2488 C 239.543 1.44762 -1.30649 0
M  V30 2489 O 238.813 1.90997 -0.435535 0
M  V30 2490 H 237.393 0.0593966 -0.744635 0
M  V30 2491 H 240.055 -0.558073 -1.86739 0
M  V30 2492 H 239.151 0.341369 -3.10227 0
M  V30 2493 N 239.452 1.56882 -0.150215 0
M  V30 2494 C 240.382 2.19935 0.784284 0
M  V30 2495 C 241.363 1.14854 1.25469 0
M  V30 2496 O 242.548 1.43209 1.31168 0
M  V30 2497 C 239.678 2.82349 2.02229 0
M  V30 2498 C 238.632 3.93285 1.68853 0
M  V30 2499 C 237.958 4.42649 2.99944 0
M  V30 2500 C 239.258 5.13904 0.932714 0
M  V30 2501 H 240.952 2.9828 0.258781 0
M  V30 2502 H 238.498 1.43473 0.123029 0
M  V30 2503 H 240.451 3.25126 2.68088 0
M  V30 2504 H 239.175 2.0134 2.57157 0
M  V30 2505 H 237.834 3.5113 1.05371 0
M  V30 2506 H 237.482 3.58458 3.52869 0
M  V30 2507 H 237.182 5.17476 2.78374 0
M  V30 2508 H 238.706 4.88099 3.66868 0
M  V30 2509 H 240.12 5.53506 1.49345 0
M  V30 2510 H 238.517 5.94515 0.81684 0
M  V30 2511 H 239.587 4.84842 -0.0749568 0
M  V30 2512 N 240.93 -0.123565 1.57115 0
M  V30 2513 C 241.878 -1.17082 2.00984 0
M  V30 2514 C 242.872 -1.43136 0.906009 0
M  V30 2515 O 244.078 -1.43152 1.09121 0
M  V30 2516 H 240.453 -0.394653 0.64012 0
M  V30 2517 H 242.424 -0.774292 2.88179 0
M  V30 2518 C 241.173 -2.49057 2.42623 0
M  V30 2519 H 240.496 -2.29846 3.27125 0
M  V30 2520 H 241.936 -3.20906 2.7712 0
M  V30 2521 C 240.395 -3.11305 1.28805 0
M  V30 2522 O 240.925 -3.97171 0.60153 0
M  V30 2523 N 239.131 -2.71111 1.04628 0
M  V30 2524 H 238.678 -2.01382 1.60634 0
M  V30 2525 H 238.636 -3.1309 0.286685 0
M  V30 2526 N 242.408 -1.52605 -0.393616 0
M  V30 2527 C 243.657 -1.66649 -1.13627 0
M  V30 2528 C 243.97 -0.410364 -1.91247 0
M  V30 2529 O 245.176 -0.430854 -2.68059 0
M  V30 2530 C 243.632 -2.9449 -2.06891 0
M  V30 2531 C 243.24 -4.27266 -1.34714 0
M  V30 2532 C 244.984 -3.17899 -2.81319 0
M  V30 2533 C 242.891 -5.46217 -2.26717 0
M  V30 2534 H 241.821 -0.62084 -0.427871 0
M  V30 2535 H 244.472 -1.791 -0.399428 0
M  V30 2536 H 242.854 -2.75774 -2.84191 0
M  V30 2537 H 244.028 -4.56518 -0.626714 0
M  V30 2538 H 242.343 -4.10081 -0.722643 0
M  V30 2539 H 244.94 -4.03949 -3.50328 0
M  V30 2540 H 245.283 -2.32777 -3.45139 0
M  V30 2541 H 245.816 -3.37159 -2.11113 0
M  V30 2542 H 242.555 -6.33733 -1.67521 0
M  V30 2543 H 242.075 -5.21283 -2.96689 0
M  V30 2544 H 243.754 -5.7991 -2.86903 0
M  V30 2545 N 243.887 0.651787 -1.4349 0
M  V30 2546 C 244.85 1.74647 -1.48429 0
M  V30 2547 C 245.85 1.56513 -0.368817 0
M  V30 2548 O 247.04 1.62385 -0.630623 0
M  V30 2549 C 244.172 3.13533 -1.33827 0
M  V30 2550 H 245.365 1.71649 -2.4592 0
M  V30 2551 H 242.918 0.863573 -1.30277 0
M  V30 2552 H 243.653 3.22142 -0.37349 0
M  V30 2553 H 243.438 3.28101 -2.14691 0
M  V30 2554 H 244.928 3.93356 -1.40218 0
M  V30 2555 N 245.365 1.30045 0.890287 0
M  V30 2556 C 246.315 1.12592 1.9826 0
M  V30 2557 C 247.299 0.0426021 1.60844 0
M  V30 2558 O 248.491 0.265346 1.75 0
M  V30 2559 C 245.62 0.814301 3.33503 0
M  V30 2560 C 244.706 1.93761 3.7725 0
M  V30 2561 N 245.097 3.18232 3.93143 0
M  V30 2562 C 243.395 1.83277 4.06602 0
M  V30 2563 C 244.096 3.9158 4.30163 0
M  V30 2564 N 243.072 3.19591 4.3973 0
M  V30 2565 H 246.874 2.07003 2.08631 0
M  V30 2566 H 244.388 1.21307 1.07974 0
M  V30 2567 H 246.385 0.67029 4.11476 0
M  V30 2568 H 245.045 -0.121797 3.24471 0
M  V30 2569 H 246.056 3.53581 3.78419 0
M  V30 2570 H 242.733 0.97001 4.06075 0
M  V30 2571 H 244.123 4.98744 4.50226 0
M  V30 2572 N 246.843 -1.10192 1.12674 0
M  V30 2573 C 248.09 -1.82205 0.883606 0
M  V30 2574 C 248.418 -1.8532 -0.590492 0
M  V30 2575 O 247.673 -1.31137 -1.45264 0
M  V30 2576 C 247.972 -3.28552 1.4067 0
M  V30 2577 C 247.638 -3.45582 2.89627 0
M  V30 2578 C 246.3 -3.49937 3.30299 0
M  V30 2579 C 248.652 -3.50768 3.85501 0
M  V30 2580 C 245.98 -3.57049 4.65546 0
M  V30 2581 C 248.332 -3.59414 5.20581 0
M  V30 2582 C 246.996 -3.62034 5.60792 0
M  V30 2583 H 246.266 -0.666735 0.323334 0
M  V30 2584 H 248.913 -1.29868 1.40736 0
M  V30 2585 H 247.218 -3.83473 0.80347 0
M  V30 2586 H 248.915 -3.82788 1.19475 0
M  V30 2587 H 245.505 -3.42871 2.57172 0
M  V30 2588 H 249.689 -3.46651 3.55171 0
M  V30 2589 H 244.945 -3.57361 4.96088 0
M  V30 2590 H 249.119 -3.62371 5.94693 0
M  V30 2591 H 246.746 -3.67298 6.6558 0
M  V30 2592 N 248.321 -0.919034 -1.28029 0
M  V30 2593 C 249.268 -0.410005 -2.27129 0
M  V30 2594 C 250.238 0.518405 -1.57803 0
M  V30 2595 O 251.423 0.439451 -1.8567 0
M  V30 2596 C 248.563 0.339054 -3.4343 0
M  V30 2597 C 247.676 -0.622468 -4.27492 0
M  V30 2598 C 246.811 0.145567 -5.31001 0
M  V30 2599 C 245.85 -0.809226 -6.06727 0
M  V30 2600 N 244.987 -0.0743728 -7.02061 0
M  V30 2601 H 249.827 -1.26011 -2.70047 0
M  V30 2602 H 247.364 -0.632663 -1.328 0
M  V30 2603 H 249.322 0.789586 -4.0966 0
M  V30 2604 H 247.952 1.15346 -3.01488 0
M  V30 2605 H 247.004 -1.19153 -3.61257 0
M  V30 2606 H 248.316 -1.35252 -4.80113 0
M  V30 2607 H 247.47 0.656417 -6.03139 0
M  V30 2608 H 246.209 0.908643 -4.79161 0
M  V30 2609 H 245.214 -1.3314 -5.33436 0
M  V30 2610 H 246.439 -1.57194 -6.60656 0
M  V30 2611 H 244.385 0.670616 -6.52563 0
M  V30 2612 H 244.302 -0.744157 -7.52329 0
M  V30 2613 H 245.57 0.416109 -7.78389 0
M  V30 2614 N 249.799 1.42003 -0.683588 0
M  V30 2615 C 250.731 2.29183 0.0283068 0
M  V30 2616 C 251.744 1.4415 0.756611 0
M  V30 2617 O 252.933 1.67779 0.609306 0
M  V30 2618 C 250.033 3.21765 1.06398 0
M  V30 2619 C 249.206 4.35496 0.407723 0
M  V30 2620 C 248.265 5.08737 1.34437 0
M  V30 2621 O 247.291 5.62948 0.841318 0
M  V30 2622 N 248.493 5.15075 2.67728 0
M  V30 2623 H 251.258 2.9092 -0.720105 0
M  V30 2624 H 248.819 1.53025 -0.528682 0
M  V30 2625 H 250.811 3.6763 1.69204 0
M  V30 2626 H 249.381 2.61418 1.71404 0
M  V30 2627 H 248.601 3.92165 -0.400012 0
M  V30 2628 H 249.889 5.08776 -0.0490956 0
M  V30 2629 H 249.287 4.72457 3.11129 0
M  V30 2630 H 247.844 5.64556 3.2576 0
M  V30 2631 N 251.277 0.427512 1.51691 0
M  V30 2632 C 252.227 -0.406604 2.24345 0
M  V30 2633 C 253.211 -0.998276 1.26187 0
M  V30 2634 O 254.403 -0.918045 1.51331 0
M  V30 2635 C 251.532 -1.51266 3.08177 0
M  V30 2636 C 250.618 -0.930868 4.13758 0
M  V30 2637 N 251.009 -0.0773552 5.05741 0
M  V30 2638 C 249.307 -1.19948 4.29568 0
M  V30 2639 C 250.008 0.248344 5.8117 0
M  V30 2640 N 248.984 -0.365535 5.4237 0
M  V30 2641 H 252.786 0.251581 2.92821 0
M  V30 2642 H 250.3 0.239003 1.60632 0
M  V30 2643 H 252.297 -2.123 3.58796 0
M  V30 2644 H 250.957 -2.17328 2.41244 0
M  V30 2645 H 251.968 0.288351 5.17097 0
M  V30 2646 H 248.645 -1.85832 3.73862 0
M  V30 2647 H 250.035 0.942286 6.6526 0
M  V30 2648 N 252.755 -1.56801 0.158532 0
M  V30 2649 C 254.001 -1.96781 -0.490405 0
M  V30 2650 C 254.334 -1.04397 -1.63753 0
M  V30 2651 O 253.609 -0.0885805 -1.94298 0
M  V30 2652 C 253.892 -3.4635 -0.985594 0
M  V30 2653 C 253.745 -4.49512 0.160824 0
M  V30 2654 C 255.064 -3.98697 -1.86355 0
M  V30 2655 H 252.183 -0.715482 -0.176788 0
M  V30 2656 H 254.825 -1.88451 0.242088 0
M  V30 2657 H 252.975 -3.53579 -1.60978 0
M  V30 2658 H 254.647 -4.54353 0.797537 0
M  V30 2659 H 252.89 -4.26013 0.818256 0
M  V30 2660 H 253.561 -5.51531 -0.227569 0
M  V30 2661 H 256.037 -3.94019 -1.33746 0
M  V30 2662 H 254.913 -5.03792 -2.17909 0
M  V30 2663 H 255.174 -3.41744 -2.8047 0
M  V30 2664 N 254.233 0.115231 -1.57178 0
M  V30 2665 C 255.458 0.840354 -1.89612 0
M  V30 2666 C 255.883 1.72464 -0.750845 0
M  V30 2667 O 255.241 1.78826 0.298478 0
M  V30 2668 C 255.289 1.64654 -3.20814 0
M  V30 2669 O 254.393 2.7538 -3.06985 0
M  V30 2670 H 253.734 0.232158 -0.622092 0
M  V30 2671 H 256.264 0.0964977 -2.04372 0
M  V30 2672 H 256.274 2.03499 -3.53627 0
M  V30 2673 H 254.949 0.997416 -4.03763 0
M  V30 2674 H 253.526 2.3971 -2.85646 0
M  V30 2675 N 255.711 1.52812 0.385517 0
M  V30 2676 C 256.96 1.67249 1.12741 0
M  V30 2677 C 257.273 0.4205 1.91027 0
M  V30 2678 O 258.479 0.445064 2.67827 0
M  V30 2679 C 256.935 2.95583 2.05326 0
M  V30 2680 C 256.543 4.27974 1.32447 0
M  V30 2681 C 258.287 3.19386 2.7963 0
M  V30 2682 C 256.194 5.47412 2.23818 0
M  V30 2683 H 255.124 0.6231 0.424573 0
M  V30 2684 H 257.775 1.79309 0.389924 0
M  V30 2685 H 256.157 2.77277 2.82725 0
M  V30 2686 H 257.331 4.56844 0.602495 0
M  V30 2687 H 255.646 4.10459 0.700885 0
M  V30 2688 H 258.243 4.05801 3.48181 0
M  V30 2689 H 258.586 2.34604 3.43899 0
M  V30 2690 H 259.119 3.38274 2.09322 0
M  V30 2691 H 255.858 6.34612 1.64157 0
M  V30 2692 H 255.378 5.22849 2.93921 0
M  V30 2693 H 257.057 5.81423 2.83824 0
M  V30 2694 N 257.189 -0.644168 1.43834 0
M  V30 2695 C 258.438 -1.39985 1.45214 0
M  V30 2696 C 258.751 -1.95421 0.0835494 0
M  V30 2697 O 259.957 -2.71488 -0.0251748 0
M  V30 2698 C 258.413 -2.53384 2.55587 0
M  V30 2699 C 258.021 -2.04517 3.98594 0
M  V30 2700 C 259.765 -3.30685 2.66172 0
M  V30 2701 C 257.672 -3.1518 5.00416 0
M  V30 2702 H 256.602 -0.526005 0.540218 0
M  V30 2703 H 259.253 -0.694367 1.69855 0
M  V30 2704 H 257.635 -3.26446 2.24163 0
M  V30 2705 H 258.809 -1.38405 4.39523 0
M  V30 2706 H 257.124 -1.40068 3.92135 0
M  V30 2707 H 259.721 -4.13158 3.39418 0
M  V30 2708 H 260.064 -3.79312 1.71546 0
M  V30 2709 H 260.597 -2.64708 2.96942 0
M  V30 2710 H 257.336 -2.71511 5.96625 0
M  V30 2711 H 256.856 -3.79974 4.64091 0
M  V30 2712 H 258.535 -3.80166 5.23529 0
M  V30 2713 N 258.668 -1.30515 -0.883378 0
M  V30 2714 C 259.578 -1.18959 -2.02203 0
M  V30 2715 C 260.594 -0.109172 -1.73657 0
M  V30 2716 O 261.77 -0.324413 -1.9877 0
M  V30 2717 C 258.835 -0.883871 -3.35244 0
M  V30 2718 C 257.896 -2.04982 -3.77201 0
M  V30 2719 C 257.129 -1.75859 -5.03894 0
M  V30 2720 O 257.352 -0.687276 -5.66244 0
M  V30 2721 O 256.286 -2.61146 -5.42297 0
M  V30 2722 H 260.112 -2.14616 -2.1488 0
M  V30 2723 H 257.697 -1.10124 -1.0096 0
M  V30 2724 H 259.579 -0.728644 -4.15053 0
M  V30 2725 H 258.254 0.0427798 -3.23672 0
M  V30 2726 H 257.161 -2.26038 -2.9809 0
M  V30 2727 H 258.494 -2.95825 -3.93381 0
M  V30 2728 N 260.146 1.09593 -1.13257 0
M  V30 2729 C 261.093 2.1618 -0.808381 0
M  V30 2730 C 262.063 1.64517 0.228754 0
M  V30 2731 O 263.248 1.9053 0.101381 0
M  V30 2732 C 260.388 3.43973 -0.278675 0
M  V30 2733 C 259.501 4.09545 -1.37466 0
M  V30 2734 C 258.636 5.25088 -0.803479 0
M  V30 2735 C 257.675 5.82579 -1.87799 0
M  V30 2736 N 256.812 6.89486 -1.32488 0
M  V30 2737 H 261.652 2.43254 -1.72138 0
M  V30 2738 H 259.189 1.19392 -0.859294 0
M  V30 2739 H 261.147 4.17174 0.0465583 0
M  V30 2740 H 259.777 3.17223 0.597459 0
M  V30 2741 H 258.829 3.34226 -1.81652 0
M  V30 2742 H 260.141 4.48307 -2.18684 0
M  V30 2743 H 259.295 6.05178 -0.429427 0
M  V30 2744 H 258.034 4.87684 0.0397956 0
M  V30 2745 H 257.039 5.01152 -2.26113 0
M  V30 2746 H 258.264 6.22045 -2.72463 0
M  V30 2747 H 256.21 6.54064 -0.503575 0
M  V30 2748 H 256.127 7.27007 -2.07355 0
M  V30 2749 H 257.395 7.73336 -0.978336 0
M  V30 2750 N 261.624 0.925811 1.2754 0
M  V30 2751 C 262.534 0.428993 2.30644 0
M  V30 2752 C 263.55 -0.489387 1.66976 0
M  V30 2753 O 264.726 -0.372653 1.97922 0
M  V30 2754 C 261.791 -0.311967 3.45294 0
M  V30 2755 C 260.852 0.641098 4.24486 0
M  V30 2756 C 260.085 -0.0645955 5.33661 0
M  V30 2757 O 260.308 -1.28429 5.55754 0
M  V30 2758 O 259.242 0.606265 5.98839 0
M  V30 2759 H 263.068 1.28504 2.75173 0
M  V30 2760 H 260.653 0.691086 1.32455 0
M  V30 2761 H 262.535 -0.729972 4.15029 0
M  V30 2762 H 261.21 -1.14365 3.02824 0
M  V30 2763 H 260.117 1.10874 3.57292 0
M  V30 2764 H 261.45 1.43995 4.70666 0
M  V30 2765 N 263.102 -1.41638 0.69111 0
M  V30 2766 C 264.33 -2.05628 0.22909 0
M  V30 2767 C 264.745 -1.51992 -1.11999 0
M  V30 2768 O 264.102 -0.666322 -1.69901 0
M  V30 2769 C 264.153 -3.61084 0.173283 0
M  V30 2770 O 263.874 -4.12735 1.46907 0
M  V30 2771 C 265.375 -4.42213 -0.310266 0
M  V30 2772 H 262.595 -0.662327 0.107534 0
M  V30 2773 H 265.139 -1.81489 0.942438 0
M  V30 2774 H 263.294 -3.84278 -0.490858 0
M  V30 2775 H 263.708 -5.06743 1.35322 0
M  V30 2776 H 265.182 -5.51194 -0.298196 0
M  V30 2777 H 265.659 -4.1799 -1.34838 0
M  V30 2778 H 266.265 -4.24074 0.322716 0
M  V30 2779 N 264.58 -0.43555 -1.51462 0
M  V30 2780 C 265.527 0.376797 -2.27703 0
M  V30 2781 C 266.497 1.01838 -1.31219 0
M  V30 2782 O 267.682 1.03762 -1.60119 0
M  V30 2783 C 264.822 1.47301 -3.12084 0
M  V30 2784 C 263.935 0.849744 -4.2356 0
M  V30 2785 C 263.07 1.92086 -4.95254 0
M  V30 2786 C 262.109 1.27593 -5.98654 0
M  V30 2787 N 261.246 2.28833 -6.63762 0
M  V30 2788 H 266.086 -0.279734 -2.96684 0
M  V30 2789 H 263.623 -0.149795 -1.46335 0
M  V30 2790 H 265.581 2.11984 -3.59331 0
M  V30 2791 H 264.211 2.0992 -2.45221 0
M  V30 2792 H 263.263 0.0912529 -3.80291 0
M  V30 2793 H 264.575 0.338878 -4.97648 0
M  V30 2794 H 263.729 2.64435 -5.46039 0
M  V30 2795 H 262.468 2.46545 -4.20793 0
M  V30 2796 H 261.473 0.537893 -5.47162 0
M  V30 2797 H 262.698 0.738693 -6.7507 0
M  V30 2798 H 260.644 2.82375 -5.92115 0
M  V30 2799 H 260.561 1.82632 -7.33608 0
M  V30 2800 H 261.829 3.00671 -7.19178 0
M  V30 2801 N 266.058 1.56714 -0.166846 0
M  V30 2802 C 266.968 2.21331 0.777791 0
M  V30 2803 C 267.984 1.20358 1.25658 0
M  V30 2804 O 269.16 1.53005 1.30964 0
M  V30 2805 C 266.225 2.83787 1.99163 0
M  V30 2806 C 265.286 3.99947 1.56016 0
M  V30 2807 C 264.519 4.59415 2.71613 0
M  V30 2808 O 264.742 4.17769 3.88362 0
M  V30 2809 O 263.676 5.49359 2.45945 0
M  V30 2810 H 267.502 3.02605 0.257636 0
M  V30 2811 H 265.087 1.49275 0.0611393 0
M  V30 2812 H 266.969 3.23405 2.70161 0
M  V30 2813 H 265.644 2.05513 2.50092 0
M  V30 2814 H 264.551 3.65007 0.819809 0
M  V30 2815 H 265.884 4.79801 1.09782 0
M  V30 2816 N 267.536 -0.106894 1.57237 0
M  V30 2817 C 268.766 -0.825191 1.89405 0
M  V30 2818 C 269.174 -1.73374 0.757496 0
M  V30 2819 O 268.517 -1.81552 -0.280115 0
M  V30 2820 C 268.579 -1.70102 3.1671 0
M  V30 2821 C 268.243 -0.965523 4.46684 0
M  V30 2822 C 269.24 -0.300741 5.19029 0
M  V30 2823 C 266.925 -0.943105 4.93367 0
M  V30 2824 C 268.919 0.376622 6.36286 0
M  V30 2825 C 266.606 -0.261949 6.10538 0
M  V30 2826 C 267.604 0.396748 6.81847 0
M  V30 2827 O 267.292 1.06701 7.96787 0
M  V30 2828 H 267.024 -0.241852 0.631255 0
M  V30 2829 H 269.578 -0.0921491 2.05193 0
M  V30 2830 H 267.808 -2.47601 2.97036 0
M  V30 2831 H 269.497 -2.29483 3.34802 0
M  V30 2832 H 270.263 -0.309599 4.84011 0
M  V30 2833 H 266.142 -1.44524 4.3776 0
M  V30 2834 H 269.686 0.891334 6.91882 0
M  V30 2835 H 265.583 -0.250896 6.45012 0
M  V30 2836 H 266.351 0.972707 8.127 0
M  V30 2837 N 269.014 -1.53014 -0.377408 0
M  V30 2838 C 270.261 -1.68623 -1.12128 0
M  V30 2839 C 270.589 -0.431997 -1.89642 0
M  V30 2840 O 269.844 0.585855 -1.86725 0
M  V30 2841 C 270.143 -2.87982 -2.11663 0
M  V30 2842 C 269.809 -4.24964 -1.50719 0
M  V30 2843 C 268.471 -4.62217 -1.33825 0
M  V30 2844 C 270.823 -5.10199 -1.06519 0
M  V30 2845 C 268.151 -5.82352 -0.712963 0
M  V30 2846 C 270.503 -6.30969 -0.453955 0
M  V30 2847 C 269.167 -6.66944 -0.272411 0
M  V30 2848 H 268.437 -0.617034 -0.410305 0
M  V30 2849 H 271.084 -1.8718 -0.404484 0
M  V30 2850 H 269.389 -2.63889 -2.89603 0
M  V30 2851 H 271.086 -2.97253 -2.6915 0
M  V30 2852 H 267.676 -3.95626 -1.64858 0
M  V30 2853 H 271.86 -4.81978 -1.18368 0
M  V30 2854 H 267.116 -6.08824 -0.560611 0
M  V30 2855 H 271.29 -6.96324 -0.103217 0
M  V30 2856 H 268.917 -7.59898 0.214181 0
M  V30 2857 N 270.492 0.636531 -1.44174 0
M  V30 2858 C 271.402 1.77754 -1.53103 0
M  V30 2859 C 272.418 1.68928 -0.417034 0
M  V30 2860 O 273.594 1.89801 -0.6736 0
M  V30 2861 C 270.659 3.14115 -1.46741 0
M  V30 2862 C 269.72 3.34612 -2.68948 0
M  V30 2863 C 268.953 4.64467 -2.6288 0
M  V30 2864 O 269.176 5.44919 -1.68581 0
M  V30 2865 O 268.11 4.87049 -3.53648 0
M  V30 2866 H 271.936 1.73174 -2.49489 0
M  V30 2867 H 269.521 0.79709 -1.2636 0
M  V30 2868 H 271.403 3.95412 -1.45696 0
M  V30 2869 H 270.078 3.19249 -0.534975 0
M  V30 2870 H 268.985 2.53014 -2.75562 0
M  V30 2871 H 270.318 3.34336 -3.61221 0
M  V30 2872 N 271.97 1.30982 0.876444 0
M  V30 2873 C 273.195 1.23373 1.66715 0
M  V30 2874 C 273.62 -0.19885 1.87046 0
M  V30 2875 O 272.978 -1.1427 1.40756 0
M  V30 2876 C 273.026 1.97644 3.01611 0
M  V30 2877 O 272.13 1.30935 3.91062 0
M  V30 2878 H 271.471 0.426279 0.509099 0
M  V30 2879 H 274.001 1.72944 1.09323 0
M  V30 2880 H 274.011 2.06992 3.51594 0
M  V30 2881 H 272.686 3.01829 2.86133 0
M  V30 2882 H 271.263 1.29996 3.49507 0
M  V30 2883 N 273.449 -1.08991 1.13837 0
M  V30 2884 C 274.695 -1.81699 0.91417 0
M  V30 2885 C 275.05 -1.84264 -0.553594 0
M  V30 2886 O 274.343 -1.30313 -1.4046 0
M  V30 2887 C 274.537 -3.27042 1.44147 0
M  V30 2888 C 274.366 -3.38637 2.95897 0
M  V30 2889 C 273.136 -3.50177 3.64286 0
M  V30 2890 C 275.334 -3.30791 3.93804 0
M  V30 2891 N 273.316 -3.50501 5.04006 0
M  V30 2892 C 274.687 -3.38037 5.19741 0
M  V30 2893 C 276.742 -3.14488 3.86007 0
M  V30 2894 C 275.445 -3.30659 6.38793 0
M  V30 2895 C 277.471 -3.08438 5.04599 0
M  V30 2896 C 276.833 -3.1628 6.29402 0
M  V30 2897 H 272.932 -0.678967 0.387979 0
M  V30 2898 H 275.516 -1.30224 1.4474 0
M  V30 2899 H 273.687 -3.76976 0.935091 0
M  V30 2900 H 275.419 -3.87785 1.1578 0
M  V30 2901 H 272.174 -3.53815 3.1482 0
M  V30 2902 H 272.598 -3.54236 5.76928 0
M  V30 2903 H 277.24 -3.07291 2.90399 0
M  V30 2904 H 274.958 -3.36618 7.34652 0
M  V30 2905 H 278.544 -2.96952 5.0031 0
M  V30 2906 H 277.424 -3.1162 7.19627 0
M  V30 2907 N 274.927 -0.932562 -1.27047 0
M  V30 2908 C 276.175 -0.574422 -1.93765 0
M  V30 2909 C 276.496 0.887993 -1.73608 0
M  V30 2910 O 275.766 1.62999 -1.08665 0
M  V30 2911 H 274.346 -0.209451 -0.717035 0
M  V30 2912 H 277.008 -1.18601 -1.5466 0
M  V30 2913 H 276.104 -0.784841 -3.02071 0
M  V30 2914 N 276.405 1.4127 -0.698611 0
M  V30 2915 C 277.315 2.34573 -0.0357891 0
M  V30 2916 C 278.331 1.56393 0.762701 0
M  V30 2917 O 279.507 1.8886 0.699564 0
M  V30 2918 C 276.572 3.35159 0.887089 0
M  V30 2919 C 275.633 4.29225 0.0804634 0
M  V30 2920 C 274.866 5.25006 0.959387 0
M  V30 2921 O 275.089 5.26314 2.19886 0
M  V30 2922 O 274.023 6.00519 0.407439 0
M  V30 2923 H 277.849 2.92838 -0.804957 0
M  V30 2924 H 275.434 1.42175 -0.458966 0
M  V30 2925 H 277.316 3.9689 1.41621 0
M  V30 2926 H 275.991 2.79333 1.6357 0
M  V30 2927 H 274.898 3.70833 -0.493328 0
M  V30 2928 H 276.231 4.88157 -0.629547 0
M  V30 2929 N 277.883 0.443576 1.51229 0
M  V30 2930 C 279.108 -0.121648 2.07043 0
M  V30 2931 C 279.533 -1.35156 1.30823 0
M  V30 2932 O 278.891 -1.7793 0.347934 0
M  V30 2933 C 278.939 -0.41624 3.5819 0
M  V30 2934 O 278.043 -1.50163 3.8409 0
M  V30 2935 H 277.384 0.000871367 0.663999 0
M  V30 2936 H 279.914 0.626706 1.94765 0
M  V30 2937 H 279.924 -0.664867 4.02546 0
M  V30 2938 H 278.599 0.482653 4.1309 0
M  V30 2939 H 277.176 -1.24248 3.51592 0
M  V30 2940 N 279.361 -1.56624 0.175154 0
M  V30 2941 C 280.609 -1.96609 -0.467885 0
M  V30 2942 C 280.93 -1.06238 -1.63519 0
M  V30 2943 O 280.2 -0.129523 -1.95471 0
M  V30 2944 H 278.78 -0.726008 -0.175845 0
M  V30 2945 H 281.442 -1.93195 0.257234 0
M  V30 2946 H 280.538 -3.00989 -0.825342 0
M  V30 2947 N 280.839 0.0985539 -1.57292 0
M  V30 2948 C 281.749 1.13824 -2.05137 0
M  V30 2949 C 282.765 1.44076 -0.975604 0
M  V30 2950 O 283.941 1.54786 -1.28853 0
M  V30 2951 C 281.006 2.43969 -2.46333 0
M  V30 2952 C 280.067 2.2093 -3.68087 0
M  V30 2953 C 279.3 3.44869 -4.0731 0
M  V30 2954 O 279.523 4.52972 -3.46659 0
M  V30 2955 O 278.457 3.34661 -5.00285 0
M  V30 2956 H 282.283 0.761881 -2.93988 0
M  V30 2957 H 279.868 0.310818 -1.46131 0
M  V30 2958 H 281.75 3.20609 -2.73473 0
M  V30 2959 H 280.425 2.81038 -1.60621 0
M  V30 2960 H 279.332 1.42081 -3.46069 0
M  V30 2961 H 280.665 1.88755 -4.54568 0
M  V30 2962 N 282.317 1.53212 0.369288 0
M  V30 2963 C 283.264 1.79388 1.45219 0
M  V30 2964 C 284.234 0.638059 1.53356 0
M  V30 2965 O 285.419 0.879852 1.69302 0
M  V30 2966 C 282.559 1.98623 2.82211 0
M  V30 2967 C 281.672 3.26337 2.8307 0
M  V30 2968 C 280.807 3.35779 4.11614 0
M  V30 2969 C 279.846 4.5754 4.06601 0
M  V30 2970 N 278.983 4.64155 5.26787 0
M  V30 2971 H 283.823 2.71794 1.22198 0
M  V30 2972 H 281.36 1.34642 0.592444 0
M  V30 2973 H 283.318 2.07761 3.61789 0
M  V30 2974 H 281.948 1.09558 3.03639 0
M  V30 2975 H 281 3.26171 1.95747 0
M  V30 2976 H 282.312 4.15988 2.75237 0
M  V30 2977 H 281.466 3.44208 4.99606 0
M  V30 2978 H 280.205 2.44137 4.22195 0
M  V30 2979 H 279.21 4.49215 3.16996 0
M  V30 2980 H 280.435 5.50519 3.97625 0
M  V30 2981 H 278.381 3.75413 5.3796 0
M  V30 2982 H 278.298 5.47706 5.21109 0
M  V30 2983 H 279.566 4.76863 6.16621 0
M  V30 2984 N 283.795 -0.628877 1.44509 0
M  V30 2985 C 284.743 -1.76193 1.51852 0
M  V30 2986 C 285.737 -1.64849 0.390042 0
M  V30 2987 O 286.943 -1.709 0.565082 0
M  V30 2988 H 283.318 -0.581728 0.476547 0
M  V30 2989 H 285.289 -1.67123 2.47209 0
M  V30 2990 C 284.038 -3.14533 1.48204 0
M  V30 2991 H 283.361 -3.23911 2.34354 0
M  V30 2992 H 284.801 -3.93701 1.57402 0
M  V30 2993 C 283.26 -3.36287 0.203142 0
M  V30 2994 O 283.79 -3.9509 -0.725745 0
M  V30 2995 N 281.996 -2.90408 0.105563 0
M  V30 2996 H 281.543 -2.42739 0.862301 0
M  V30 2997 H 281.501 -3.05339 -0.749371 0
M  V30 2998 N 285.273 -1.31445 -0.869486 0
M  V30 2999 C 286.519 -1.21337 -1.62496 0
M  V30 3000 C 286.852 0.227872 -1.92858 0
M  V30 3001 O 286.127 1.16094 -1.56053 0
M  V30 3002 C 286.41 -2.05814 -2.95487 0
M  V30 3003 C 286.263 -3.5824 -2.72 0
M  V30 3004 C 287.582 -1.9079 -3.96594 0
M  V30 3005 H 284.701 -0.442135 -0.589649 0
M  V30 3006 H 287.343 -1.6124 -1.00507 0
M  V30 3007 H 285.493 -1.71913 -3.48394 0
M  V30 3008 H 287.165 -4.0228 -2.25762 0
M  V30 3009 H 285.408 -3.81647 -2.06224 0
M  V30 3010 H 286.079 -4.12657 -3.66631 0
M  V30 3011 H 288.555 -2.20459 -3.52898 0
M  V30 3012 H 287.431 -2.52199 -4.87531 0
M  V30 3013 H 287.692 -0.871341 -4.33428 0
M  V30 3014 N 286.751 1.08385 -1.14413 0
M  V30 3015 C 287.998 1.80776 -0.912482 0
M  V30 3016 C 288.326 1.86236 0.560934 0
M  V30 3017 O 287.581 1.33431 1.43159 0
M  V30 3018 C 287.88 3.26273 -1.45879 0
M  V30 3019 C 287.546 3.4093 -2.95089 0
M  V30 3020 C 286.208 3.44638 -3.35824 0
M  V30 3021 C 288.56 3.44591 -3.91033 0
M  V30 3022 C 285.888 3.49597 -4.71167 0
M  V30 3023 C 288.24 3.51086 -5.26233 0
M  V30 3024 C 286.904 3.53067 -5.6648 0
M  V30 3025 H 286.174 0.661507 -0.333901 0
M  V30 3026 H 288.821 1.27613 -1.42784 0
M  V30 3027 H 287.126 3.82146 -0.864376 0
M  V30 3028 H 288.823 3.80839 -1.2555 0
M  V30 3029 H 285.413 3.38736 -2.62594 0
M  V30 3030 H 289.597 3.40957 -3.60641 0
M  V30 3031 H 284.853 3.49424 -5.0171 0
M  V30 3032 H 289.027 3.52864 -6.00383 0
M  V30 3033 H 286.654 3.56662 -6.71339 0
M  V30 3034 N 288.23 0.939286 1.26551 0
M  V30 3035 C 289.14 0.453432 2.30176 0
M  V30 3036 C 290.156 -0.471649 1.67486 0
M  V30 3037 O 291.332 -0.35164 1.98306 0
M  V30 3038 C 288.397 -0.275326 3.45605 0
M  V30 3039 C 287.458 0.686084 4.23782 0
M  V30 3040 C 286.691 -0.00798994 5.33699 0
M  V30 3041 O 286.914 -1.22528 5.57085 0
M  V30 3042 O 285.848 0.669746 5.98162 0
M  V30 3043 H 289.674 1.31416 2.73795 0
M  V30 3044 H 287.259 0.705095 1.31715 0
M  V30 3045 H 289.141 -0.685911 4.1578 0
M  V30 3046 H 287.816 -1.11147 3.0402 0
M  V30 3047 H 286.723 1.14658 3.56096 0
M  V30 3048 H 288.056 1.48979 4.69112 0
M  V30 3049 N 289.708 -1.40897 0.706093 0
M  V30 3050 C 290.671 -2.29131 0.0562841 0
M  V30 3051 C 291.671 -1.44901 -0.697166 0
M  V30 3052 O 292.861 -1.65926 -0.530484 0
M  V30 3053 C 289.993 -3.27957 -0.93043 0
M  V30 3054 H 291.186 -2.88091 0.833284 0
M  V30 3055 H 288.739 -1.4906 0.470192 0
M  V30 3056 H 289.474 -2.73997 -1.73482 0
M  V30 3057 H 289.259 -3.90124 -0.393166 0
M  V30 3058 H 290.749 -3.94049 -1.38256 0
M  V30 3059 N 291.186 -0.45159 -1.50991 0
M  V30 3060 C 292.116 0.342898 -2.30969 0
M  V30 3061 C 293.097 1.00815 -1.37005 0
M  V30 3062 O 294.282 1.00907 -1.65926 0
M  V30 3063 C 291.412 1.43637 -3.16205 0
M  V30 3064 C 290.366 0.893818 -4.18563 0
M  V30 3065 C 289.692 2.08411 -4.92411 0
M  V30 3066 C 290.992 -0.0815568 -5.22236 0
M  V30 3067 H 292.686 -0.324556 -2.97636 0
M  V30 3068 H 290.232 -0.157531 -1.43136 0
M  V30 3069 H 292.185 1.9995 -3.70942 0
M  V30 3070 H 290.909 2.13232 -2.47386 0
M  V30 3071 H 289.568 0.352798 -3.64898 0
M  V30 3072 H 289.216 2.76658 -4.20082 0
M  V30 3073 H 288.916 1.72741 -5.61636 0
M  V30 3074 H 290.44 2.65251 -5.49976 0
M  V30 3075 H 291.854 0.391742 -5.7196 0
M  V30 3076 H 290.251 -0.351551 -5.99069 0
M  V30 3077 H 291.321 -1.01374 -4.74185 0
M  V30 3078 N 292.664 1.56529 -0.183458 0
M  V30 3079 C 293.889 2.02064 0.467428 0
M  V30 3080 C 294.314 1.06282 1.55196 0
M  V30 3081 O 293.672 0.0443565 1.81246 0
M  V30 3082 C 293.72 3.46122 1.01153 0
M  V30 3083 O 292.824 3.53437 2.12499 0
M  V30 3084 H 292.165 0.654726 0.110588 0
M  V30 3085 H 294.695 2.02521 -0.290917 0
M  V30 3086 H 294.705 3.85676 1.33108 0
M  V30 3087 H 293.38 4.15331 0.217533 0
M  V30 3088 H 291.957 3.2575 1.81497 0
M  V30 3089 N 294.142 -0.090211 1.57342 0
M  V30 3090 C 295.052 -1.12735 2.05738 0
M  V30 3091 C 296.068 -1.43557 0.983231 0
M  V30 3092 O 297.244 -1.54101 1.29672 0
M  V30 3093 C 294.309 -2.42659 2.47624 0
M  V30 3094 C 293.37 -2.18975 3.69254 0
M  V30 3095 C 292.603 -3.42704 4.09133 0
M  V30 3096 O 292.826 -4.51127 3.49057 0
M  V30 3097 O 291.76 -3.32003 5.02053 0
M  V30 3098 H 295.586 -0.746279 2.94388 0
M  V30 3099 H 293.171 -0.303064 1.46294 0
M  V30 3100 H 295.053 -3.19155 2.7517 0
M  V30 3101 H 293.728 -2.80182 1.62109 0
M  V30 3102 H 292.635 -1.40244 3.46818 0
M  V30 3103 H 293.968 -1.86342 4.55563 0
M  V30 3104 N 295.62 -1.53406 -0.361157 0
M  V30 3105 C 296.55 -1.83136 -1.44857 0
M  V30 3106 C 297.531 -0.685174 -1.5569 0
M  V30 3107 O 298.716 -0.93544 -1.70186 0
M  V30 3108 C 295.846 -2.02522 -2.82138 0
M  V30 3109 C 294.8 -3.18302 -2.86126 0
M  V30 3110 C 294.126 -3.22989 -4.26125 0
M  V30 3111 C 295.426 -4.56796 -2.53248 0
M  V30 3112 H 297.12 -2.74201 -1.20226 0
M  V30 3113 H 294.666 -1.31938 -0.576922 0
M  V30 3114 H 296.619 -2.21904 -3.58241 0
M  V30 3115 H 295.343 -1.08172 -3.08166 0
M  V30 3116 H 294.002 -2.98747 -2.12475 0
M  V30 3117 H 293.65 -2.26267 -4.49235 0
M  V30 3118 H 293.35 -4.00781 -4.29708 0
M  V30 3119 H 294.874 -3.44559 -5.04094 0
M  V30 3120 H 296.288 -4.7631 -3.19064 0
M  V30 3121 H 294.685 -5.36862 -2.68141 0
M  V30 3122 H 295.755 -4.61606 -1.48484 0
M  V30 3123 N 297.098 0.621204 -1.44841 0
M  V30 3124 C 298.347 1.37658 -1.47422 0
M  V30 3125 C 298.66 1.95264 -0.114629 0
M  V30 3126 O 299.866 2.71494 -0.0180199 0
M  V30 3127 C 298.322 2.49285 -2.59586 0
M  V30 3128 C 297.93 1.98149 -4.01797 0
M  V30 3129 C 299.674 3.26409 -2.71399 0
M  V30 3130 C 297.581 3.07178 -5.05367 0
M  V30 3131 H 296.511 0.517344 -0.548517 0
M  V30 3132 H 299.162 0.667257 -1.70938 0
M  V30 3133 H 297.544 3.22839 -2.29328 0
M  V30 3134 H 298.718 1.31395 -4.41669 0
M  V30 3135 H 297.033 1.33812 -3.94314 0
M  V30 3136 H 299.63 4.07706 -3.45948 0
M  V30 3137 H 299.973 3.76535 -1.77559 0
M  V30 3138 H 300.506 2.5995 -3.01116 0
M  V30 3139 H 297.245 2.61985 -6.00869 0
M  V30 3140 H 296.765 3.72542 -4.70077 0
M  V30 3141 H 298.444 3.71789 -5.29511 0
M  V30 3142 N 298.576 1.31904 0.862503 0
M  V30 3143 C 299.825 1.21373 1.61094 0
M  V30 3144 C 300.138 -0.22504 1.94301 0
M  V30 3145 O 301.344 -0.452121 2.67709 0
M  V30 3146 C 299.8 2.12525 2.9045 0
M  V30 3147 C 299.408 3.61441 2.64697 0
M  V30 3148 C 301.152 2.10813 3.68454 0
M  V30 3149 C 299.059 4.44578 3.90006 0
M  V30 3150 H 297.989 0.450705 0.604468 0
M  V30 3151 H 300.64 1.56811 0.953027 0
M  V30 3152 H 299.022 1.69994 3.57656 0
M  V30 3153 H 300.196 4.12264 2.05851 0
M  V30 3154 H 298.511 3.65205 2.00036 0
M  V30 3155 H 301.108 2.70167 4.61426 0
M  V30 3156 H 301.451 1.09713 4.01583 0
M  V30 3157 H 301.984 2.51583 3.08141 0
M  V30 3158 H 298.723 5.46461 3.62023 0
M  V30 3159 H 298.243 3.98508 4.48276 0
M  V30 3160 H 299.922 4.57176 4.5782 0
M  V30 3161 N 300.054 -1.07777 1.14986 0
M  V30 3162 C 300.984 -2.16865 0.865557 0
M  V30 3163 C 301.965 -1.69123 -0.182083 0
M  V30 3164 O 303.15 -1.94164 -0.0373815 0
M  V30 3165 C 300.28 -3.45539 0.349313 0
M  V30 3166 C 299.234 -4.06708 1.33313 0
M  V30 3167 C 298.56 -5.30411 0.675918 0
M  V30 3168 C 299.86 -4.47241 2.69764 0
M  V30 3169 H 301.554 -2.40905 1.77778 0
M  V30 3170 H 299.1 -1.15781 0.856203 0
M  V30 3171 H 301.053 -4.21174 0.137983 0
M  V30 3172 H 299.777 -3.21072 -0.598362 0
M  V30 3173 H 298.436 -3.33112 1.53075 0
M  V30 3174 H 298.084 -5.02232 -0.277767 0
M  V30 3175 H 297.784 -5.72293 1.33244 0
M  V30 3176 H 299.308 -6.08755 0.474262 0
M  V30 3177 H 300.722 -5.14025 2.53873 0
M  V30 3178 H 299.119 -5.00062 3.3175 0
M  V30 3179 H 300.189 -3.58818 3.26156 0
M  V30 3180 N 301.532 -0.945985 -1.26051 0
M  V30 3181 C 302.76 -0.613025 -1.9761 0
M  V30 3182 C 303.175 0.813035 -1.70397 0
M  V30 3183 O 302.532 1.54274 -0.974979 0
M  V30 3184 C 302.583 -0.85159 -3.51326 0
M  V30 3185 O 302.304 -2.22157 -3.77595 0
M  V30 3186 C 303.805 -0.529831 -4.40122 0
M  V30 3187 H 301.025 -0.230593 -0.630133 0
M  V30 3188 H 303.569 -1.268 -1.60443 0
M  V30 3189 H 301.724 -0.243151 -3.86636 0
M  V30 3190 H 302.138 -2.2852 -4.721 0
M  V30 3191 H 303.612 -0.747348 -5.46917 0
M  V30 3192 H 304.089 0.535341 -4.35925 0
M  V30 3193 H 304.695 -1.11721 -4.10364 0
M  V30 3194 N 303.011 1.40521 -0.713556 0
M  V30 3195 C 303.974 2.29098 -0.0684347 0
M  V30 3196 C 304.974 1.45268 0.689472 0
M  V30 3197 O 306.164 1.66205 0.521677 0
M  V30 3198 C 303.296 3.28446 0.913024 0
M  V30 3199 H 304.489 2.87645 -0.84855 0
M  V30 3200 H 302.042 1.48809 -0.47809 0
M  V30 3201 H 302.777 2.74913 1.72027 0
M  V30 3202 H 302.562 3.90327 0.372472 0
M  V30 3203 H 304.052 3.94777 1.36165 0
M  V30 3204 N 304.489 0.459591 1.5075 0
M  V30 3205 C 305.714 -0.0996819 2.0716 0
M  V30 3206 C 306.139 -1.33761 1.32249 0
M  V30 3207 O 305.497 -1.77551 0.366786 0
M  V30 3208 C 305.545 -0.378226 3.58611 0
M  V30 3209 O 304.649 -1.46081 3.85661 0
M  V30 3210 H 303.99 0.00791392 0.663953 0
M  V30 3211 H 306.52 0.647329 1.9409 0
M  V30 3212 H 306.53 -0.622135 4.03229 0
M  V30 3213 H 305.205 0.526439 4.12555 0
M  V30 3214 H 303.782 -1.20511 3.5289 0
M  V30 3215 N 305.967 -1.56429 0.191757 0
M  V30 3216 C 306.917 -2.15548 -0.743184 0
M  V30 3217 C 307.901 -1.09531 -1.17863 0
M  V30 3218 O 309.093 -1.35602 -1.13759 0
M  V30 3219 C 306.222 -2.81577 -1.96391 0
M  V30 3220 C 305.308 -3.9478 -1.54951 0
M  V30 3221 N 305.699 -4.98677 -0.845876 0
M  V30 3222 C 303.997 -4.06319 -1.83905 0
M  V30 3223 C 304.698 -5.78183 -0.638724 0
M  V30 3224 N 303.674 -5.30495 -1.18643 0
M  V30 3225 H 307.476 -2.9324 -0.196839 0
M  V30 3226 H 304.99 -1.62398 -0.0081603 0
M  V30 3227 H 306.987 -3.22321 -2.64415 0
M  V30 3228 H 305.647 -2.05371 -2.51501 0
M  V30 3229 H 306.658 -5.15464 -0.501704 0
M  V30 3230 H 303.335 -3.41238 -2.40548 0
M  V30 3231 H 304.725 -6.71851 -0.0807929 0
M  V30 3232 N 307.445 0.0818655 -1.57387 0
M  V30 3233 C 308.685 0.788375 -1.88584 0
M  V30 3234 C 309.049 1.75248 -0.784351 0
M  V30 3235 O 310.25 2.50334 -0.979105 0
M  V30 3236 C 308.521 1.48654 -3.25018 0
M  V30 3237 S 310.08 2.22951 -3.7794 0
M  V30 3238 H 306.898 0.262383 -0.660815 0
M  V30 3239 H 309.5 0.0448995 -1.95448 0
M  V30 3240 H 308.204 0.770919 -4.03094 0
M  V30 3241 H 307.735 2.26965 -3.21326 0
M  V30 3242 H 309.75 3.49309 -3.52417 0
M  V30 3243 N 308.923 1.53595 0.353017 0
M  V30 3244 C 309.853 1.83902 1.43883 0
M  V30 3245 C 310.834 0.693421 1.55324 0
M  V30 3246 O 312.019 0.944452 1.69687 0
M  V30 3247 C 309.149 2.04016 2.8106 0
M  V30 3248 C 308.103 3.19814 2.84434 0
M  V30 3249 C 307.429 3.25244 4.24406 0
M  V30 3250 C 308.729 4.58133 2.50822 0
M  V30 3251 H 310.423 2.74835 1.1877 0
M  V30 3252 H 307.969 1.32242 0.569917 0
M  V30 3253 H 309.922 2.238 3.57059 0
M  V30 3254 H 308.646 1.09804 3.07588 0
M  V30 3255 H 307.305 2.9987 2.10887 0
M  V30 3256 H 306.953 2.28646 4.48029 0
M  V30 3257 H 306.653 4.03054 4.27576 0
M  V30 3258 H 308.177 3.47228 5.0226 0
M  V30 3259 H 309.591 4.77995 3.16534 0
M  V30 3260 H 307.988 5.38276 2.6529 0
M  V30 3261 H 309.058 4.62387 1.46034 0
M  V30 3262 N 310.401 -0.613514 1.45168 0
M  V30 3263 C 311.351 -1.71871 1.49815 0
M  V30 3264 C 312.335 -1.56774 0.362021 0
M  V30 3265 O 313.527 -1.66212 0.608493 0
M  V30 3266 C 310.656 -3.1061 1.46207 0
M  V30 3267 C 309.742 -3.31114 2.64999 0
M  V30 3268 N 310.133 -3.21904 3.90143 0
M  V30 3269 C 308.431 -3.61966 2.6057 0
M  V30 3270 C 309.132 -3.43577 4.69393 0
M  V30 3271 N 308.108 -3.67287 4.00751 0
M  V30 3272 H 311.91 -1.63235 2.444 0
M  V30 3273 H 309.424 -0.816577 1.40377 0
M  V30 3274 H 311.421 -3.8989 1.4762 0
M  V30 3275 H 310.081 -3.20399 0.52673 0
M  V30 3276 H 311.092 -3.00436 4.21852 0
M  V30 3277 H 307.769 -3.78629 1.75916 0
M  V30 3278 H 309.159 -3.41901 5.78406 0
M  V30 3279 N 311.879 -1.3236 -0.855495 0
M  V30 3280 C 313.127 -1.22629 -1.60644 0
M  V30 3281 C 313.448 0.212136 -1.93843 0
M  V30 3282 O 312.718 1.13666 -1.59552 0
M  V30 3283 H 311.298 -0.450882 -0.595579 0
M  V30 3284 H 313.96 -1.65871 -1.02337 0
M  V30 3285 H 313.056 -1.80832 -2.54374 0
M  V30 3286 N 313.357 1.07166 -1.15556 0
M  V30 3287 C 314.304 2.14417 -0.854055 0
M  V30 3288 C 315.274 1.64965 0.193806 0
M  V30 3289 O 316.459 1.90703 0.0609443 0
M  V30 3290 C 313.599 3.43304 -0.351574 0
M  V30 3291 C 312.712 4.06537 -1.46123 0
M  V30 3292 C 311.847 5.23266 -0.914677 0
M  V30 3293 C 310.886 5.78464 -2.00114 0
M  V30 3294 N 310.023 6.86521 -1.47083 0
M  V30 3295 H 314.863 2.39548 -1.77259 0
M  V30 3296 H 312.4 1.17543 -0.884425 0
M  V30 3297 H 314.358 4.17179 -0.0419409 0
M  V30 3298 H 312.988 3.18419 0.530037 0
M  V30 3299 H 312.04 3.30297 -1.88701 0
M  V30 3300 H 313.352 4.43567 -2.28144 0
M  V30 3301 H 312.506 6.04131 -0.557698 0
M  V30 3302 H 311.245 4.87658 -0.0636583 0
M  V30 3303 H 310.25 4.96243 -2.36692 0
M  V30 3304 H 311.475 6.16126 -2.85597 0
M  V30 3305 H 309.421 6.52849 -0.642198 0
M  V30 3306 H 309.338 7.22446 -2.22729 0
M  V30 3307 H 310.606 7.71087 -1.14215 0
M  V30 3308 N 314.835 0.952656 1.25548 0
M  V30 3309 C 315.745 0.47782 2.29682 0
M  V30 3310 C 316.761 -0.453859 1.67977 0
M  V30 3311 O 317.937 -0.330587 1.98668 0
M  V30 3312 C 315.002 -0.238655 3.45878 0
M  V30 3313 C 314.063 0.730994 4.23031 0
M  V30 3314 C 313.296 0.0486165 5.33678 0
M  V30 3315 O 313.519 -1.16612 5.58353 0
M  V30 3316 O 312.453 0.733152 5.97418 0
M  V30 3317 H 316.279 1.34312 2.72386 0
M  V30 3318 H 313.864 0.719026 1.30959 0
M  V30 3319 H 315.746 -0.641774 4.16484 0
M  V30 3320 H 314.421 -1.07916 3.05181 0
M  V30 3321 H 313.328 1.18428 3.5486 0
M  V30 3322 H 314.661 1.53946 4.67506 0
M  V30 3323 N 316.313 -1.40141 0.720998 0
M  V30 3324 C 317.562 -2.0002 0.259804 0
M  V30 3325 C 317.875 -1.57839 -1.15526 0
M  V30 3326 O 319.081 -2.10455 -1.71525 0
M  V30 3327 C 317.537 -3.57516 0.413566 0
M  V30 3328 C 317.145 -4.08667 1.83562 0
M  V30 3329 C 318.889 -4.24498 0.0134387 0
M  V30 3330 C 316.796 -5.58686 1.93968 0
M  V30 3331 H 315.726 -0.748195 0.0933806 0
M  V30 3332 H 318.377 -1.60313 0.892866 0
M  V30 3333 H 316.759 -3.9495 -0.288169 0
M  V30 3334 H 317.933 -3.82598 2.56817 0
M  V30 3335 H 316.248 -3.543 2.1877 0
M  V30 3336 H 318.845 -5.34654 0.0703954 0
M  V30 3337 H 319.188 -4.03375 -1.02927 0
M  V30 3338 H 319.721 -3.92188 0.665815 0
M  V30 3339 H 316.46 -5.8467 2.96379 0
M  V30 3340 H 315.98 -5.86602 1.25131 0
M  V30 3341 H 317.659 -6.23875 1.71431 0
M  V30 3342 N 317.792 -0.46758 -1.50504 0
M  V30 3343 C 319.208 -0.121533 -1.59137 0
M  V30 3344 C 319.408 1.3717 -1.47603 0
M  V30 3345 O 318.464 2.14464 -1.33272 0
M  V30 3346 C 319.777 -0.6686 -2.93173 0
M  V30 3347 C 321.325 -0.631716 -3.06559 0
M  V30 3348 C 321.8 -1.15627 -4.43164 0
M  V30 3349 N 323.291 -1.11553 -4.49567 0
M  V30 3350 C 324.026 -1.49195 -5.5365 0
M  V30 3351 N 323.522 -1.94269 -6.65005 0
M  V30 3352 N 325.315 -1.4082 -5.44175 0
M  V30 3353 H 317.466 -1.4388 -1.56245 0
M  V30 3354 H 319.729 -0.594784 -0.738198 0
M  V30 3355 H 319.435 -1.71453 -3.07078 0
M  V30 3356 H 319.309 -0.11021 -3.77039 0
M  V30 3357 H 321.696 0.405297 -2.92304 0
M  V30 3358 H 321.777 -1.22687 -2.24458 0
M  V30 3359 H 321.421 -2.1919 -4.58168 0
M  V30 3360 H 321.351 -0.537365 -5.23851 0
M  V30 3361 H 323.842 -0.784895 -3.69659 0
M  V30 3362 H 324.155 -2.21148 -7.40482 0
M  V30 3363 H 322.5 -1.98219 -6.66134 0
M  V30 3364 H 325.691 -1.0545 -4.56068 0
M  V30 3365 H 325.864 -1.70481 -6.25172 0
M  V30 3366 N 319.27 1.56325 -0.20005 0
M  V30 3367 C 320.495 2.02548 0.44597 0
M  V30 3368 C 320.92 1.07922 1.5406 0
M  V30 3369 O 320.278 0.0635775 1.81188 0
M  V30 3370 C 320.326 3.47175 0.974761 0
M  V30 3371 O 319.43 3.55671 2.08739 0
M  V30 3372 H 318.771 0.655862 0.103638 0
M  V30 3373 H 321.301 2.02201 -0.312381 0
M  V30 3374 H 321.311 3.87067 1.2901 0
M  V30 3375 H 319.986 4.15538 0.17347 0
M  V30 3376 H 318.563 3.27657 1.78032 0
M  V30 3377 N 320.748 -0.0735177 1.57428 0
M  V30 3378 C 321.68 -1.11423 2.00294 0
M  V30 3379 C 322.693 -1.35084 0.908637 0
M  V30 3380 O 323.882 -1.33355 1.18654 0
M  V30 3381 C 320.982 -2.46548 2.32523 0
M  V30 3382 C 320.155 -2.42867 3.63778 0
M  V30 3383 C 319.214 -3.60087 3.83697 0
M  V30 3384 O 318.24 -3.41595 4.55304 0
M  V30 3385 N 319.442 -4.80372 3.25919 0
M  V30 3386 H 322.207 -0.749206 2.90184 0
M  V30 3387 H 319.768 -0.262195 1.59763 0
M  V30 3388 H 321.76 -3.23607 2.43024 0
M  V30 3389 H 320.33 -2.75059 1.48531 0
M  V30 3390 H 319.55 -1.51206 3.64047 0
M  V30 3391 H 320.838 -2.37506 4.49965 0
M  V30 3392 H 320.236 -4.983 2.67795 0
M  V30 3393 H 318.793 -5.54948 3.41871 0
M  V30 3394 N 322.226 -1.5378 -0.344866 0
M  V30 3395 C 323.156 -1.84662 -1.42906 0
M  V30 3396 C 324.137 -0.701648 -1.54955 0
M  V30 3397 O 325.322 -0.953438 -1.69184 0
M  V30 3398 C 322.452 -2.05503 -2.79974 0
M  V30 3399 C 321.406 -3.21318 -2.82734 0
M  V30 3400 C 320.732 -3.2749 -4.22675 0
M  V30 3401 C 322.032 -4.59456 -2.48389 0
M  V30 3402 H 323.726 -2.75461 -1.17311 0
M  V30 3403 H 321.272 -1.32542 -0.562896 0
M  V30 3404 H 323.225 -2.25691 -3.55867 0
M  V30 3405 H 321.949 -1.11434 -3.07002 0
M  V30 3406 H 320.608 -3.00984 -2.09294 0
M  V30 3407 H 320.256 -2.31019 -4.4681 0
M  V30 3408 H 319.956 -4.05316 -4.25433 0
M  V30 3409 H 321.48 -3.49887 -5.00412 0
M  V30 3410 H 322.894 -4.79667 -3.13995 0
M  V30 3411 H 321.291 -5.39675 -2.62432 0
M  V30 3412 H 322.361 -4.63155 -1.4358 0
M  V30 3413 N 323.704 0.605807 -1.45491 0
M  V30 3414 C 324.652 1.73754 -1.54636 0
M  V30 3415 C 325.646 1.64207 -0.416219 0
M  V30 3416 O 326.852 1.69979 -0.592199 0
M  V30 3417 H 323.227 0.574073 -0.485741 0
M  V30 3418 H 325.198 1.63169 -2.49837 0
M  V30 3419 C 323.947 3.12135 -1.53189 0
M  V30 3420 H 323.27 3.20141 -2.39478 0
M  V30 3421 H 324.71 3.91147 -1.63645 0
M  V30 3422 C 323.169 3.35921 -0.256616 0
M  V30 3423 O 323.699 3.96194 0.662798 0
M  V30 3424 N 321.905 2.90204 -0.151751 0
M  V30 3425 H 321.452 2.41336 -0.90081 0
M  V30 3426 H 321.41 3.06492 0.700699 0
M  V30 3427 N 325.182 1.32811 0.848464 0
M  V30 3428 C 326.092 1.24278 1.98978 0
M  V30 3429 C 327.108 0.155176 1.73307 0
M  V30 3430 O 328.284 0.376999 1.9784 0
M  V30 3431 C 325.349 0.972444 3.32783 0
M  V30 3432 C 324.41 2.14911 3.71634 0
M  V30 3433 C 323.643 1.89157 4.99054 0
M  V30 3434 O 323.866 0.837165 5.64223 0
M  V30 3435 O 322.8 2.75433 5.35183 0
M  V30 3436 H 326.626 2.20238 2.09115 0
M  V30 3437 H 324.211 1.12762 0.980052 0
M  V30 3438 H 326.093 0.838432 4.12975 0
M  V30 3439 H 324.768 0.043051 3.23671 0
M  V30 3440 H 323.675 2.33862 2.91992 0
M  V30 3441 H 325.008 3.06151 3.85399 0
M  V30 3442 N 326.66 -1.06551 1.16123 0
M  V30 3443 C 327.607 -2.13961 0.865414 0
M  V30 3444 C 328.577 -1.65066 -0.185055 0
M  V30 3445 O 329.762 -1.90732 -0.05083 0
M  V30 3446 C 326.902 -3.43113 0.369776 0
M  V30 3447 C 326.015 -4.05756 1.48276 0
M  V30 3448 C 325.15 -5.22773 0.942414 0
M  V30 3449 C 324.189 -5.77395 2.03179 0
M  V30 3450 N 323.326 -6.85731 1.50721 0
M  V30 3451 H 328.166 -2.38605 1.78527 0
M  V30 3452 H 325.703 -1.17072 0.890646 0
M  V30 3453 H 327.661 -4.17151 0.0640643 0
M  V30 3454 H 326.291 -3.18695 -0.513143 0
M  V30 3455 H 325.343 -3.29292 1.9045 0
M  V30 3456 H 326.655 -4.42351 2.30493 0
M  V30 3457 H 325.809 -6.03827 0.589729 0
M  V30 3458 H 324.548 -4.87618 0.0895191 0
M  V30 3459 H 323.553 -4.94981 2.3932 0
M  V30 3460 H 324.778 -6.14603 2.8886 0
M  V30 3461 H 322.724 -6.52499 0.676811 0
M  V30 3462 H 322.641 -7.21254 2.26557 0
M  V30 3463 H 323.909 -7.7047 1.18303 0
M  V30 3464 N 328.138 -0.959301 -1.25041 0
M  V30 3465 C 329.384 -0.617525 -1.9317 0
M  V30 3466 C 329.717 0.843981 -1.74902 0
M  V30 3467 O 328.992 1.60615 -1.09696 0
M  V30 3468 C 329.275 -0.982736 -3.46431 0
M  V30 3469 C 329.128 -2.50032 -3.73904 0
M  V30 3470 C 330.447 -0.511176 -4.37121 0
M  V30 3471 H 327.566 -0.22582 -0.701552 0
M  V30 3472 H 330.208 -1.19679 -1.4757 0
M  V30 3473 H 328.358 -0.489806 -3.854 0
M  V30 3474 H 330.03 -3.06737 -3.44544 0
M  V30 3475 H 328.273 -2.93598 -3.19348 0
M  V30 3476 H 328.944 -2.70635 -4.81103 0
M  V30 3477 H 331.42 -0.934075 -4.0548 0
M  V30 3478 H 330.296 -0.795361 -5.43107 0
M  V30 3479 H 330.557 0.588834 -4.38161 0
M  V30 3480 N 329.616 1.39756 -0.72842 0
M  V30 3481 C 330.579 2.29012 -0.0927297 0
M  V30 3482 C 331.579 1.45992 0.674025 0
M  V30 3483 O 332.769 1.66749 0.50402 0
M  V30 3484 C 329.901 3.29396 0.878137 0
M  V30 3485 H 331.094 2.86729 -0.879011 0
M  V30 3486 H 328.647 1.48293 -0.493847 0
M  V30 3487 H 329.382 2.76722 1.69101 0
M  V30 3488 H 329.167 3.907 0.331051 0
M  V30 3489 H 330.657 3.96199 1.3197 0
M  V30 3490 N 331.094 0.475555 1.50254 0
M  V30 3491 C 332.026 -0.352649 2.26471 0
M  V30 3492 C 333.039 -0.953165 1.3198 0
M  V30 3493 O 334.228 -0.840815 1.57457 0
M  V30 3494 C 331.328 -1.50902 3.0345 0
M  V30 3495 C 330.501 -1.02047 4.25329 0
M  V30 3496 C 329.56 -2.05142 4.84565 0
M  V30 3497 O 328.586 -1.63023 5.45355 0
M  V30 3498 N 329.788 -3.37987 4.71959 0
M  V30 3499 H 332.553 0.300767 2.98187 0
M  V30 3500 H 330.114 0.306598 1.5897 0
M  V30 3501 H 332.106 -2.19572 3.39956 0
M  V30 3502 H 330.676 -2.06705 2.34504 0
M  V30 3503 H 329.896 -0.159507 3.93877 0
M  V30 3504 H 331.184 -0.672061 5.04342 0
M  V30 3505 H 330.582 -3.74913 4.23623 0
M  V30 3506 H 329.139 -4.02443 5.12721 0
M  V30 3507 N 332.573 -1.56217 0.208337 0
M  V30 3508 C 333.503 -2.22694 -0.702116 0
M  V30 3509 C 334.484 -1.19432 -1.2112 0
M  V30 3510 O 335.669 -1.47978 -1.25762 0
M  V30 3511 C 332.799 -2.8966 -1.9161 0
M  V30 3512 C 331.753 -3.9928 -1.5414 0
M  V30 3513 C 331.079 -4.53476 -2.83308 0
M  V30 3514 C 332.379 -5.17012 -0.741339 0
M  V30 3515 H 334.073 -2.99034 -0.147898 0
M  V30 3516 H 331.619 -1.43831 -0.0696951 0
M  V30 3517 H 333.572 -3.34852 -2.55836 0
M  V30 3518 H 332.296 -2.10746 -2.49507 0
M  V30 3519 H 330.955 -3.54799 -0.922668 0
M  V30 3520 H 330.603 -3.71308 -3.39322 0
M  V30 3521 H 330.303 -5.27451 -2.58976 0
M  V30 3522 H 331.827 -5.01378 -3.485 0
M  V30 3523 H 333.241 -5.58667 -1.28699 0
M  V30 3524 H 331.638 -5.97137 -0.595627 0
M  V30 3525 H 332.708 -4.8423 0.254851 0
M  V30 3526 N 334.051 0.0651679 -1.57465 0
M  V30 3527 C 335.281 0.774683 -1.91526 0
M  V30 3528 C 335.689 1.71305 -0.803196 0
M  V30 3529 O 335.032 1.82231 0.231881 0
M  V30 3530 C 335.094 1.61645 -3.21109 0
M  V30 3531 C 334.758 0.846753 -4.49087 0
M  V30 3532 C 335.755 0.163024 -5.19644 0
M  V30 3533 C 333.44 0.811966 -4.95694 0
M  V30 3534 C 335.434 -0.54519 -6.35064 0
M  V30 3535 C 333.121 0.0999836 -6.11018 0
M  V30 3536 C 334.119 -0.577388 -6.80555 0
M  V30 3537 O 333.807 -1.27789 -7.93678 0
M  V30 3538 H 333.539 0.225031 -0.637446 0
M  V30 3539 H 336.093 0.0377134 -2.05365 0
M  V30 3540 H 334.323 2.39638 -3.03497 0
M  V30 3541 H 336.012 2.20525 -3.40769 0
M  V30 3542 H 336.778 0.181163 -4.84662 0
M  V30 3543 H 332.657 1.32867 -4.41438 0
M  V30 3544 H 336.201 -1.07446 -6.89276 0
M  V30 3545 H 332.098 0.0797945 -6.45451 0
M  V30 3546 H 332.866 -1.18784 -8.09835 0
M  V30 3547 N 335.529 1.53961 0.336706 0
M  V30 3548 C 336.492 1.81724 1.39675 0
M  V30 3549 C 337.492 0.688532 1.45313 0
M  V30 3550 O 338.682 0.956829 1.45569 0
M  V30 3551 C 335.814 1.96543 2.78538 0
M  V30 3552 H 337.007 2.76424 1.16318 0
M  V30 3553 H 334.56 1.45478 0.571474 0
M  V30 3554 H 335.295 1.0401 3.07168 0
M  V30 3555 H 335.08 2.78665 2.75841 0
M  V30 3556 H 336.57 2.19516 3.5525 0
M  V30 3557 N 337.007 -0.598083 1.45811 0
M  V30 3558 C 338.284 -1.35777 1.40797 0
M  V30 3559 C 338.664 -2.10935 0.083462 0
M  V30 3560 O 338.012 -2.08505 -0.934763 0
M  V30 3561 C 338.222 -2.29666 2.62783 0
M  V30 3562 C 339.57 -2.91977 3.08277 0
M  V30 3563 O 340.594 -2.39984 2.63223 0
M  V30 3564 O 339.453 -3.86376 3.86491 0
M  V30 3565 H 336.547 -0.609291 0.55919 0
M  V30 3566 H 339.093 -0.620379 1.57954 0
M  V30 3567 H 337.865 -1.73454 3.50756 0
M  V30 3568 H 337.488 -3.1077 2.48008 0
M  V30 3569 N 338.485 -1.33259 -0.841409 0
M  V30 3570 C 339.415 -1.25926 -1.96634 0
M  V30 3571 C 340.396 -0.140349 -1.6952 0
M  V30 3572 O 341.581 -0.329707 -1.91381 0
M  V30 3573 C 338.711 -0.99512 -3.32738 0
M  V30 3574 C 337.665 -2.0767 -3.74242 0
M  V30 3575 C 336.991 -1.66474 -5.08125 0
M  V30 3576 C 338.291 -3.49318 -3.88297 0
M  V30 3577 H 339.985 -2.20046 -2.03027 0
M  V30 3578 H 337.531 -1.05931 -0.975425 0
M  V30 3579 H 339.484 -0.930323 -4.11002 0
M  V30 3580 H 338.208 -0.0183004 -3.26595 0
M  V30 3581 H 336.867 -2.13187 -2.98239 0
M  V30 3582 H 336.515 -0.675012 -4.9845 0
M  V30 3583 H 336.215 -2.3885 -5.36865 0
M  V30 3584 H 337.739 -1.61455 -5.88867 0
M  V30 3585 H 339.153 -3.46316 -4.56879 0
M  V30 3586 H 337.55 -4.20158 -4.28471 0
M  V30 3587 H 338.62 -3.8801 -2.9082 0
M  V30 3588 N 339.963 1.05934 -1.16686 0
M  V30 3589 C 341.24 1.75643 -0.860747 0
M  V30 3590 C 341.62 2.01144 0.640641 0
M  V30 3591 O 340.968 1.64147 1.58959 0
M  V30 3592 C 341.178 3.05493 -1.68745 0
M  V30 3593 C 342.526 3.79581 -1.90271 0
M  V30 3594 O 343.55 3.15344 -1.65641 0
M  V30 3595 O 342.409 4.9499 -2.31618 0
M  V30 3596 H 339.503 0.763426 -0.317977 0
M  V30 3597 H 342.049 1.1217 -1.27342 0
M  V30 3598 H 340.821 2.8264 -2.70611 0
M  V30 3599 H 340.444 3.76702 -1.27206 0
M  V30 3600 N 341.441 0.965919 1.2453 0
M  V30 3601 C 342.689 0.625593 1.92174 0
M  V30 3602 C 343.01 -0.841652 1.75901 0
M  V30 3603 O 342.28 -1.60061 1.12948 0
M  V30 3604 H 340.86 0.228388 0.71123 0
M  V30 3605 H 343.522 1.2266 1.51461 0
M  V30 3606 H 342.618 0.864653 2.99884 0
M  V30 3607 N 342.919 -1.39368 0.735821 0
M  V30 3608 C 344.167 -2.00101 0.283562 0
M  V30 3609 C 344.488 -1.5868 -1.13338 0
M  V30 3610 O 343.758 -0.835423 -1.77193 0
M  V30 3611 H 342.338 -0.740024 0.101851 0
M  V30 3612 H 345 -1.70404 0.945962 0
M  V30 3613 H 344.096 -3.10323 0.332604 0
M  V30 3614 N 344.397 -0.483516 -1.5 0
M  V30 3615 C 345.644 0.0671597 -2.02389 0
M  V30 3616 C 345.972 1.38597 -1.36459 0
M  V30 3617 O 345.227 1.89634 -0.483458 0
M  V30 3618 C 345.526 0.286226 -3.56252 0
M  V30 3619 C 345.192 -0.952416 -4.40726 0
M  V30 3620 C 343.854 -1.29199 -4.63531 0
M  V30 3621 C 346.206 -1.77655 -4.89988 0
M  V30 3622 C 343.534 -2.45553 -5.32842 0
M  V30 3623 C 345.886 -2.93147 -5.60578 0
M  V30 3624 C 344.55 -3.27505 -5.81633 0
M  V30 3625 H 343.82 0.0245755 -0.740592 0
M  V30 3626 H 346.467 -0.640124 -1.80485 0
M  V30 3627 H 344.772 1.07587 -3.76739 0
M  V30 3628 H 346.469 0.726473 -3.94365 0
M  V30 3629 H 343.059 -0.677881 -4.23205 0
M  V30 3630 H 347.243 -1.52737 -4.72213 0
M  V30 3631 H 342.499 -2.72431 -5.47349 0
M  V30 3632 H 346.673 -3.57344 -5.97727 0
M  V30 3633 H 344.3 -4.1777 -6.35116 0
M  V30 3634 N 345.875 1.56104 -0.216619 0
M  V30 3635 C 347.1 2.0301 0.424462 0
M  V30 3636 C 347.525 1.0955 1.52907 0
M  V30 3637 O 346.883 0.0827914 1.81111 0
M  V30 3638 C 346.931 3.4819 0.937883 0
M  V30 3639 O 346.035 3.57865 2.04955 0
M  V30 3640 H 345.376 0.656925 0.0966755 0
M  V30 3641 H 347.906 2.01859 -0.33381 0
M  V30 3642 H 347.916 3.88413 1.24897 0
M  V30 3643 H 346.591 4.15699 0.129387 0
M  V30 3644 H 345.168 3.29527 1.74546 0
M  V30 3645 N 347.353 -0.0568162 1.57498 0
M  V30 3646 C 348.303 -1.07315 2.01166 0
M  V30 3647 C 349.287 -1.33632 0.896171 0
M  V30 3648 O 350.479 -1.33682 1.16009 0
M  V30 3649 C 347.608 -2.38257 2.47161 0
M  V30 3650 C 346.694 -2.1515 3.65474 0
M  V30 3651 N 347.085 -1.62014 4.7915 0
M  V30 3652 C 345.383 -2.45559 3.72313 0
M  V30 3653 C 346.084 -1.54069 5.60926 0
M  V30 3654 N 345.06 -2.00652 5.05213 0
M  V30 3655 H 348.862 -0.655878 2.86488 0
M  V30 3656 H 346.376 -0.263635 1.60246 0
M  V30 3657 H 348.373 -3.11845 2.76691 0
M  V30 3658 H 347.033 -2.80687 1.63232 0
M  V30 3659 H 348.044 -1.30667 5.01145 0
M  V30 3660 H 344.721 -2.91253 2.99129 0
M  V30 3661 H 346.111 -1.13712 6.62208 0
M  V30 3662 N 348.832 -1.54138 -0.328536 0
M  V30 3663 C 349.795 -1.82462 -1.38709 0
M  V30 3664 C 350.795 -0.696229 -1.44946 0
M  V30 3665 O 351.985 -0.964535 -1.4506 0
M  V30 3666 C 349.117 -1.98018 -2.77492 0
M  V30 3667 H 350.31 -2.77037 -1.14851 0
M  V30 3668 H 347.863 -1.45779 -0.563751 0
M  V30 3669 H 348.598 -1.05637 -3.06613 0
M  V30 3670 H 348.383 -2.80124 -2.74359 0
M  V30 3671 H 349.873 -2.21396 -3.54081 0
M  V30 3672 N 350.31 0.590341 -1.46126 0
M  V30 3673 C 351.273 1.68194 -1.55703 0
M  V30 3674 C 352.273 1.54808 -0.434868 0
M  V30 3675 O 353.463 1.59564 -0.698928 0
M  V30 3676 C 350.595 3.07575 -1.47005 0
M  V30 3677 H 351.788 1.61064 -2.52979 0
M  V30 3678 H 349.341 0.807541 -1.33823 0
M  V30 3679 H 350.076 3.20268 -0.509785 0
M  V30 3680 H 349.861 3.187 -2.28414 0
M  V30 3681 H 351.351 3.87055 -1.56776 0
M  V30 3682 N 351.788 1.33704 0.83433 0
M  V30 3683 C 353.034 1.26612 1.59188 0
M  V30 3684 C 353.389 -0.165439 1.91687 0
M  V30 3685 O 352.682 -1.10873 1.56262 0
M  V30 3686 C 352.876 2.07926 2.90692 0
M  V30 3687 C 352.705 3.58844 2.71038 0
M  V30 3688 C 351.475 4.28148 2.68361 0
M  V30 3689 C 353.673 4.53082 2.43353 0
M  V30 3690 N 351.655 5.64987 2.40132 0
M  V30 3691 C 353.026 5.77843 2.24716 0
M  V30 3692 C 355.081 4.42119 2.28987 0
M  V30 3693 C 353.784 6.92877 1.9317 0
M  V30 3694 C 355.81 5.56973 1.98835 0
M  V30 3695 C 355.172 6.80745 1.81012 0
M  V30 3696 H 351.271 0.518517 0.585375 0
M  V30 3697 H 353.855 1.68294 0.979044 0
M  V30 3698 H 352.026 1.68558 3.49918 0
M  V30 3699 H 353.758 1.92568 3.55949 0
M  V30 3700 H 350.513 3.80469 2.82029 0
M  V30 3701 H 350.937 6.37133 2.28889 0
M  V30 3702 H 355.579 3.47058 2.41477 0
M  V30 3703 H 353.297 7.87931 1.79418 0
M  V30 3704 H 356.883 5.50428 1.88468 0
M  V30 3705 H 355.763 7.68115 1.58017 0
M  V30 3706 N 353.266 -1.05314 1.17247 0
M  V30 3707 C 354.196 -2.1498 0.911362 0
M  V30 3708 C 355.177 -1.69471 -0.146169 0
M  V30 3709 O 356.362 -1.942 0.003812 0
M  V30 3710 C 353.492 -3.4472 0.422528 0
M  V30 3711 C 352.446 -4.03789 1.4191 0
M  V30 3712 C 351.772 -5.28858 0.788274 0
M  V30 3713 C 353.072 -4.41418 2.7919 0
M  V30 3714 H 354.766 -2.3708 1.82848 0
M  V30 3715 H 352.312 -1.13938 0.880569 0
M  V30 3716 H 354.265 -4.20787 0.227289 0
M  V30 3717 H 352.989 -3.22269 -0.530123 0
M  V30 3718 H 351.648 -3.2979 1.60106 0
M  V30 3719 H 351.296 -5.02709 -0.171173 0
M  V30 3720 H 350.996 -5.69338 1.45353 0
M  V30 3721 H 352.52 -6.07612 0.603282 0
M  V30 3722 H 353.934 -5.08524 2.64719 0
M  V30 3723 H 352.331 -4.92913 3.42282 0
M  V30 3724 H 353.401 -3.51819 3.33693 0
M  V30 3725 N 354.744 -0.972509 -1.24016 0
M  V30 3726 C 355.674 -0.525548 -2.27509 0
M  V30 3727 C 356.655 0.437262 -1.64384 0
M  V30 3728 O 357.84 0.332343 -1.91335 0
M  V30 3729 C 354.97 0.180448 -3.46831 0
M  V30 3730 C 353.924 -0.698859 -4.22256 0
M  V30 3731 C 353.25 0.138903 -5.3452 0
M  V30 3732 C 354.55 -1.98582 -4.83076 0
M  V30 3733 H 356.244 -1.39058 -2.65148 0
M  V30 3734 H 353.79 -0.67009 -1.27459 0
M  V30 3735 H 355.743 0.504387 -4.18371 0
M  V30 3736 H 354.467 1.07987 -3.08231 0
M  V30 3737 H 353.126 -1.00614 -3.52523 0
M  V30 3738 H 352.774 1.03862 -4.9216 0
M  V30 3739 H 352.474 -0.446259 -5.85903 0
M  V30 3740 H 353.998 0.457404 -6.08884 0
M  V30 3741 H 355.412 -1.72715 -5.46665 0
M  V30 3742 H 353.809 -2.5181 -5.44713 0
M  V30 3743 H 354.879 -2.67769 -4.04262 0
M  V30 3744 N 356.222 1.38976 -0.743202 0
M  V30 3745 C 357.633 1.83123 -0.363732 0
M  V30 3746 C 357.984 1.6205 1.10609 0
M  V30 3747 O 357.109 1.11606 1.854 0
M  V30 3748 C 357.704 3.32439 -0.653408 0
M  V30 3749 C 356.263 3.74974 -0.327338 0
M  V30 3750 C 355.41 2.61878 -0.911875 0
M  V30 3751 H 358.361 1.27852 -0.940191 0
M  V30 3752 H 358.382 3.80432 0.0720031 0
M  V30 3753 H 357.894 3.47745 -1.72323 0
M  V30 3754 H 355.995 3.65252 0.736314 0
M  V30 3755 H 356.108 4.72106 -0.815631 0
M  V30 3756 H 354.472 2.52448 -0.337944 0
M  V30 3757 H 355.255 2.79987 -1.98651 0
M  V30 3758 N 357.7 0.491464 1.49741 0
M  V30 3759 C 358.948 -0.0563141 2.02022 0
M  V30 3760 C 359.269 -1.38363 1.37407 0
M  V30 3761 O 358.539 -1.88702 0.526166 0
M  V30 3762 H 357.119 -0.0238014 0.746621 0
M  V30 3763 H 359.781 0.646533 1.83864 0
M  V30 3764 H 358.877 -0.192967 3.11503 0
M  V30 3765 N 359.178 -1.55987 0.224894 0
M  V30 3766 C 360.424 -1.99433 -0.39973 0
M  V30 3767 C 360.779 -1.11004 -1.57149 0
M  V30 3768 O 360.072 -0.160725 -1.90925 0
M  V30 3769 C 360.266 -3.46394 -0.880106 0
M  V30 3770 C 360.095 -4.4904 0.243565 0
M  V30 3771 C 358.865 -5.00272 0.711056 0
M  V30 3772 C 361.063 -5.03195 1.06299 0
M  V30 3773 N 359.045 -5.86628 1.80944 0
M  V30 3774 C 360.416 -5.86508 2.01017 0
M  V30 3775 C 362.471 -4.8555 1.10205 0
M  V30 3776 C 361.174 -6.54062 2.99324 0
M  V30 3777 C 363.2 -5.53866 2.07332 0
M  V30 3778 C 362.562 -6.3695 3.00789 0
M  V30 3779 H 358.661 -0.773815 -0.112847 0
M  V30 3780 H 361.245 -1.91754 0.337432 0
M  V30 3781 H 359.416 -3.54515 -1.58662 0
M  V30 3782 H 361.148 -3.76752 -1.47783 0
M  V30 3783 H 357.903 -4.72655 0.29906 0
M  V30 3784 H 358.327 -6.34507 2.36073 0
M  V30 3785 H 362.969 -4.20966 0.39343 0
M  V30 3786 H 360.687 -7.17827 3.71147 0
M  V30 3787 H 364.273 -5.42178 2.11032 0
M  V30 3788 H 363.153 -6.8888 3.74718 0
M  V30 3789 N 360.656 0.0484629 -1.57525 0
M  V30 3790 C 361.586 1.0549 -2.08313 0
M  V30 3791 C 362.567 1.38929 -0.981463 0
M  V30 3792 O 363.752 1.48151 -1.25558 0
M  V30 3793 C 360.882 2.36162 -2.54646 0
M  V30 3794 C 359.836 2.17016 -3.68901 0
M  V30 3795 C 359.162 3.53278 -4.01371 0
M  V30 3796 C 360.462 1.57219 -4.98076 0
M  V30 3797 H 362.156 0.632195 -2.92649 0
M  V30 3798 H 359.702 0.302654 -1.40784 0
M  V30 3799 H 361.655 3.06882 -2.88793 0
M  V30 3800 H 360.379 2.80456 -1.67368 0
M  V30 3801 H 359.038 1.48733 -3.35073 0
M  V30 3802 H 358.686 3.95185 -3.11188 0
M  V30 3803 H 358.386 3.41299 -4.78318 0
M  V30 3804 H 359.91 4.25391 -4.38035 0
M  V30 3805 H 361.324 2.17832 -5.30304 0
M  V30 3806 H 359.721 1.55871 -5.79503 0
M  V30 3807 H 360.791 0.535956 -4.81929 0
M  V30 3808 N 362.134 1.5431 0.320358 0
M  V30 3809 C 363.545 1.63872 0.894594 0
M  V30 3810 C 363.896 0.534847 1.88769 0
M  V30 3811 O 363.021 -0.331732 2.13842 0
M  V30 3812 C 363.616 2.97049 1.62934 0
M  V30 3813 C 362.175 3.08796 2.15226 0
M  V30 3814 C 361.322 2.59456 0.978671 0
M  V30 3815 H 364.273 1.58398 0.0978544 0
M  V30 3816 H 364.294 2.87388 2.49376 0
M  V30 3817 H 363.806 3.7737 0.906302 0
M  V30 3818 H 361.907 2.33156 2.90636 0
M  V30 3819 H 362.02 4.14649 2.40006 0
M  V30 3820 H 360.384 2.1543 1.35875 0
M  V30 3821 H 361.167 3.42237 0.269895 0
M  V30 3822 N 363.613 -0.582584 1.46437 0
M  V30 3823 C 364.543 -1.70187 1.59871 0
M  V30 3824 C 365.524 -1.64066 0.449042 0
M  V30 3825 O 366.709 -1.82081 0.6753 0
M  V30 3826 C 363.839 -3.08827 1.58881 0
M  V30 3827 C 362.793 -3.29779 2.72819 0
M  V30 3828 C 362.119 -4.68947 2.5689 0
M  V30 3829 C 363.419 -3.17601 4.1464 0
M  V30 3830 H 365.113 -1.592 2.53566 0
M  V30 3831 H 362.659 -0.764472 1.22032 0
M  V30 3832 H 364.612 -3.86951 1.66873 0
M  V30 3833 H 363.336 -3.20713 0.617306 0
M  V30 3834 H 361.995 -2.54054 2.64296 0
M  V30 3835 H 361.643 -4.77599 1.57823 0
M  V30 3836 H 361.343 -4.83919 3.33312 0
M  V30 3837 H 362.867 -5.4924 2.66773 0
M  V30 3838 H 364.281 -3.8557 4.24274 0
M  V30 3839 H 362.678 -3.44094 4.9165 0
M  V30 3840 H 363.748 -2.14681 4.34788 0
M  V30 3841 N 365.091 -1.34144 -0.827227 0
M  V30 3842 C 366.502 -1.23557 -1.39966 0
M  V30 3843 C 366.853 0.140731 -1.95695 0
M  V30 3844 O 365.978 1.04087 -1.89723 0
M  V30 3845 C 366.573 -2.23708 -2.54441 0
M  V30 3846 C 365.132 -2.16924 -3.07605 0
M  V30 3847 C 364.279 -2.10549 -1.80456 0
M  V30 3848 H 367.23 -1.45573 -0.631991 0
M  V30 3849 H 367.251 -1.85157 -3.32411 0
M  V30 3850 H 366.763 -3.23866 -2.13851 0
M  V30 3851 H 364.864 -1.20107 -3.52711 0
M  V30 3852 H 364.977 -3.07988 -3.66988 0
M  V30 3853 H 363.341 -1.56203 -2.01178 0
M  V30 3854 H 364.124 -3.12535 -1.42046 0
M  V30 3855 N 366.569 1.04691 -1.17803 0
M  V30 3856 C 367.794 1.81984 -0.994813 0
M  V30 3857 C 368.219 1.82586 0.452112 0
M  V30 3858 O 367.577 1.23854 1.324 0
M  V30 3859 C 367.625 3.2575 -1.54659 0
M  V30 3860 O 366.729 4.05267 -0.763728 0
M  V30 3861 H 366.07 0.562483 -0.352857 0
M  V30 3862 H 368.6 1.3189 -1.56417 0
M  V30 3863 H 368.61 3.76541 -1.57102 0
M  V30 3864 H 367.285 3.24627 -2.59981 0
M  V30 3865 H 365.862 3.63972 -0.811108 0
M  V30 3866 N 368.047 0.979072 1.23499 0
M  V30 3867 C 369.294 0.647219 1.91878 0
M  V30 3868 C 369.622 -0.819074 1.76413 0
M  V30 3869 O 368.877 -1.60616 1.11808 0
M  V30 3870 C 369.176 0.981932 3.43646 0
M  V30 3871 C 368.842 2.43822 3.79291 0
M  V30 3872 C 367.504 2.83622 3.88731 0
M  V30 3873 C 369.856 3.3828 3.96505 0
M  V30 3874 C 367.184 4.16897 4.12812 0
M  V30 3875 C 369.536 4.71197 4.22085 0
M  V30 3876 C 368.2 5.10758 4.29747 0
M  V30 3877 H 367.47 0.236834 0.702133 0
M  V30 3878 H 370.117 1.23268 1.46551 0
M  V30 3879 H 368.422 0.314365 3.90537 0
M  V30 3880 H 370.119 0.703395 3.94783 0
M  V30 3881 H 366.709 2.11966 3.72516 0
M  V30 3882 H 370.893 3.0871 3.88603 0
M  V30 3883 H 366.149 4.47157 4.16966 0
M  V30 3884 H 370.323 5.44348 4.34348 0
M  V30 3885 H 367.95 6.1405 4.48159 0
M  V30 3886 N 369.525 -1.3858 0.750561 0
M  V30 3887 C 370.941 -1.53759 0.427824 0
M  V30 3888 C 371.141 -1.71401 -1.05943 0
M  V30 3889 O 370.197 -1.72331 -1.84549 0
M  V30 3890 C 371.51 -2.74642 1.22443 0
M  V30 3891 C 373.058 -2.88489 1.2142 0
M  V30 3892 C 373.533 -4.12329 1.9937 0
M  V30 3893 N 375.024 -4.194 1.96616 0
M  V30 3894 C 375.759 -5.14209 2.53727 0
M  V30 3895 N 375.255 -6.14709 3.19539 0
M  V30 3896 N 377.048 -5.06537 2.43673 0
M  V30 3897 H 369.199 -1.25377 1.71447 0
M  V30 3898 H 371.462 -0.608844 0.726645 0
M  V30 3899 H 371.168 -2.68 2.27747 0
M  V30 3900 H 371.042 -3.67745 0.839273 0
M  V30 3901 H 373.429 -2.94614 0.169232 0
M  V30 3902 H 373.51 -1.96406 1.63885 0
M  V30 3903 H 373.154 -4.06966 3.03877 0
M  V30 3904 H 373.084 -5.03486 1.54302 0
M  V30 3905 H 375.575 -3.47421 1.48684 0
M  V30 3906 H 375.888 -6.8354 3.60545 0
M  V30 3907 H 374.233 -6.1505 3.23633 0
M  V30 3908 H 377.424 -4.26962 1.91889 0
M  V30 3909 H 377.597 -5.80245 2.88479 0
M  V30 3910 N 371.003 -0.499398 -1.49478 0
M  V30 3911 C 372.419 -0.155261 -1.58843 0
M  V30 3912 C 372.619 1.34008 -1.50479 0
M  V30 3913 O 371.675 2.11589 -1.37791 0
M  V30 3914 C 372.988 -0.730636 -2.91689 0
M  V30 3915 C 374.536 -0.696599 -3.0515 0
M  V30 3916 C 375.011 -1.25001 -4.40612 0
M  V30 3917 N 376.502 -1.21064 -4.47099 0
M  V30 3918 C 377.237 -1.60905 -5.50361 0
M  V30 3919 N 376.733 -2.08331 -6.60735 0
M  V30 3920 N 378.526 -1.52331 -5.41065 0
M  V30 3921 H 370.677 -1.47162 -1.53158 0
M  V30 3922 H 372.94 -0.610309 -0.725415 0
M  V30 3923 H 372.646 -1.77928 -3.03372 0
M  V30 3924 H 372.52 -0.190161 -3.7672 0
M  V30 3925 H 374.907 0.343204 -2.93097 0
M  V30 3926 H 374.988 -1.2742 -2.21806 0
M  V30 3927 H 374.632 -2.28859 -4.53416 0
M  V30 3928 H 374.562 -0.64836 -5.22593 0
M  V30 3929 H 377.053 -0.863128 -3.67911 0
M  V30 3930 H 377.366 -2.36805 -7.35624 0
M  V30 3931 H 375.711 -2.12304 -6.6178 0
M  V30 3932 H 378.902 -1.151 -4.53729 0
M  V30 3933 H 379.075 -1.83704 -6.21415 0
M  V30 3934 N 372.481 1.55866 -0.233164 0
M  V30 3935 C 373.897 1.59133 0.121988 0
M  V30 3936 C 374.097 1.25016 1.58029 0
M  V30 3937 O 373.153 0.990922 2.32243 0
M  V30 3938 C 374.466 2.99932 -0.214792 0
M  V30 3939 C 376.014 3.12601 -0.157971 0
M  V30 3940 C 376.489 4.55597 -0.46859 0
M  V30 3941 N 377.98 4.61305 -0.418585 0
M  V30 3942 C 378.715 5.69903 -0.63227 0
M  V30 3943 N 378.211 6.86819 -0.90835 0
M  V30 3944 N 380.004 5.59264 -0.563913 0
M  V30 3945 H 372.155 1.76315 -1.18434 0
M  V30 3946 H 374.418 0.820093 -0.475553 0
M  V30 3947 H 374.124 3.29588 -1.22739 0
M  V30 3948 H 373.998 3.74327 0.464691 0
M  V30 3949 H 376.385 2.82735 0.845283 0
M  V30 3950 H 376.466 2.40511 -0.871102 0
M  V30 3951 H 376.11 4.86182 -1.46934 0
M  V30 3952 H 376.04 5.25928 0.265865 0
M  V30 3953 H 378.531 3.77297 -0.213368 0
M  V30 3954 H 378.844 7.65507 -1.05919 0
M  V30 3955 H 377.189 6.88536 -0.945673 0
M  V30 3956 H 380.38 4.66802 -0.348372 0
M  V30 3957 H 380.553 6.43831 -0.733847 0
M  V30 3958 N 373.959 -0.0401083 1.57549 0
M  V30 3959 C 375.236 -0.767917 1.79896 0
M  V30 3960 C 375.616 -1.9416 0.82856 0
M  V30 3961 O 374.964 -2.2812 -0.131671 0
M  V30 3962 C 375.174 -1.2113 3.27305 0
M  V30 3963 C 376.522 -1.63175 3.91994 0
M  V30 3964 O 377.546 -1.30616 3.31388 0
M  V30 3965 O 376.405 -2.23565 4.98679 0
M  V30 3966 H 373.499 -0.370441 0.739393 0
M  V30 3967 H 376.045 -0.017737 1.69691 0
M  V30 3968 H 374.817 -0.372937 3.89519 0
M  V30 3969 H 374.44 -2.02183 3.42356 0
M  V30 3970 N 375.437 -1.54477 -0.31217 0
M  V30 3971 C 376.853 -1.45442 -0.657185 0
M  V30 3972 C 377.053 -0.63653 -1.91182 0
M  V30 3973 O 376.109 -0.139815 -2.52113 0
M  V30 3974 C 377.422 -2.89287 -0.82058 0
M  V30 3975 C 378.97 -2.9926 -0.917188 0
M  V30 3976 C 379.445 -4.44279 -1.11267 0
M  V30 3977 N 380.936 -4.4794 -1.17914 0
M  V30 3978 C 381.671 -5.57318 -1.34848 0
M  V30 3979 N 381.167 -6.76642 -1.48752 0
M  V30 3980 N 382.96 -5.44986 -1.37647 0
M  V30 3981 H 375.111 -2.06129 0.512313 0
M  V30 3982 H 377.374 -0.933088 0.167485 0
M  V30 3983 H 377.08 -3.51687 0.0302604 0
M  V30 3984 H 376.954 -3.36061 -1.71298 0
M  V30 3985 H 379.341 -2.36981 -1.75852 0
M  V30 3986 H 379.422 -2.558 -0.00101257 0
M  V30 3987 H 379.066 -5.07149 -0.27614 0
M  V30 3988 H 378.996 -4.85359 -2.04289 0
M  V30 3989 H 381.487 -3.61969 -1.08567 0
M  V30 3990 H 381.8 -7.55758 -1.61397 0
M  V30 3991 H 380.145 -6.79529 -1.45828 0
M  V30 3992 H 383.336 -4.50715 -1.26388 0
M  V30 3993 H 383.509 -6.3028 -1.50501 0
M  V30 3994 N 376.915 0.57481 -1.46744 0
M  V30 3995 C 377.878 1.66533 -1.57478 0
M  V30 3996 C 378.878 1.54338 -0.451263 0
M  V30 3997 O 380.068 1.58814 -0.715813 0
M  V30 3998 C 377.2 3.05999 -1.50259 0
M  V30 3999 H 378.393 1.58372 -2.54673 0
M  V30 4000 H 375.946 0.793301 -1.34672 0
M  V30 4001 H 376.681 3.19709 -0.543725 0
M  V30 4002 H 376.466 3.16259 -2.31781 0
M  V30 4003 H 377.956 3.8537 -1.60872 0
M  V30 4004 N 378.394 1.34581 0.820102 0
M  V30 4005 C 379.344 1.22943 1.92013 0
M  V30 4006 C 380.328 0.127802 1.60392 0
M  V30 4007 O 381.52 0.357737 1.73347 0
M  V30 4008 C 378.649 0.989938 3.28717 0
M  V30 4009 C 377.735 2.13486 3.66449 0
M  V30 4010 N 378.126 3.38625 3.75722 0
M  V30 4011 C 376.424 2.04573 3.96315 0
M  V30 4012 C 377.125 4.13832 4.08801 0
M  V30 4013 N 376.101 3.42451 4.22171 0
M  V30 4014 H 379.903 2.17771 1.97365 0
M  V30 4015 H 377.417 1.2686 1.01392 0
M  V30 4016 H 379.414 0.887462 4.07345 0
M  V30 4017 H 378.074 0.0503691 3.24661 0
M  V30 4018 H 379.085 3.73143 3.59144 0
M  V30 4019 H 375.762 1.1839 4.00362 0
M  V30 4020 H 377.152 5.21909 4.23156 0
M  V30 4021 N 379.872 -1.04064 1.18357 0
M  V30 4022 C 381.288 -1.2947 0.933258 0
M  V30 4023 C 381.488 -1.97466 -0.401169 0
M  V30 4024 O 380.544 -2.25528 -1.13549 0
M  V30 4025 C 381.857 -2.15337 2.09882 0
M  V30 4026 C 383.405 -2.28683 2.13712 0
M  V30 4027 C 383.88 -3.17917 3.29686 0
M  V30 4028 N 385.371 -3.25504 3.29547 0
M  V30 4029 C 386.106 -3.94706 4.15926 0
M  V30 4030 N 385.602 -4.66239 5.12439 0
M  V30 4031 N 387.395 -3.90986 4.0384 0
M  V30 4032 H 379.546 -0.583359 2.04232 0
M  V30 4033 H 381.809 -0.319921 0.892387 0
M  V30 4034 H 381.515 -1.72682 3.06389 0
M  V30 4035 H 381.389 -3.16015 2.05947 0
M  V30 4036 H 383.776 -2.70575 1.17784 0
M  V30 4037 H 383.857 -1.27596 2.21705 0
M  V30 4038 H 383.501 -2.76736 4.25887 0
M  V30 4039 H 383.431 -4.19036 3.1893 0
M  V30 4040 H 385.922 -2.74547 2.59677 0
M  V30 4041 H 386.235 -5.16638 5.74722 0
M  V30 4042 H 384.58 -4.65143 5.16398 0
M  V30 4043 H 387.771 -3.34234 3.27727 0
M  V30 4044 H 387.944 -4.44646 4.71375 0
M  V30 4045 N 381.35 -0.985608 -1.22978 0
M  V30 4046 C 382.26 -0.538548 -2.28335 0
M  V30 4047 C 383.276 0.409163 -1.69121 0
M  V30 4048 O 384.452 0.277797 -1.99475 0
M  V30 4049 C 381.517 0.146867 -3.46389 0
M  V30 4050 C 380.578 -0.842896 -4.20944 0
M  V30 4051 C 379.811 -0.190095 -5.33361 0
M  V30 4052 O 380.034 1.01767 -5.61248 0
M  V30 4053 O 378.968 -0.891289 -5.95264 0
M  V30 4054 H 382.794 -1.41487 -2.68729 0
M  V30 4055 H 380.379 -0.753495 -1.29007 0
M  V30 4056 H 382.261 0.531125 -4.1804 0
M  V30 4057 H 380.936 0.997871 -3.07935 0
M  V30 4058 H 379.843 -1.27795 -3.51595 0
M  V30 4059 H 381.176 -1.66287 -4.6326 0
M  V30 4060 N 382.828 1.3818 -0.7579 0
M  V30 4061 C 384.077 1.99261 -0.312744 0
M  V30 4062 C 384.39 1.60846 1.11301 0
M  V30 4063 O 385.596 2.14929 1.65885 0
M  V30 4064 C 384.052 3.56294 -0.50821 0
M  V30 4065 C 383.66 4.03657 -1.94333 0
M  V30 4066 C 385.404 4.24313 -0.125982 0
M  V30 4067 C 383.311 5.53347 -2.08712 0
M  V30 4068 H 382.241 0.745456 -0.113185 0
M  V30 4069 H 384.892 1.57889 -0.935056 0
M  V30 4070 H 383.274 3.95575 0.183353 0
M  V30 4071 H 384.448 3.75655 -2.66871 0
M  V30 4072 H 382.763 3.48376 -2.28086 0
M  V30 4073 H 385.36 5.34279 -0.212125 0
M  V30 4074 H 385.703 4.05962 0.921964 0
M  V30 4075 H 386.236 3.90285 -0.769563 0
M  V30 4076 H 382.975 5.76607 -3.11777 0
M  V30 4077 H 382.495 5.83078 -1.4064 0
M  V30 4078 H 384.174 6.19111 -1.87912 0
M  V30 4079 N 384.306 0.507319 1.49211 0
M  V30 4080 C 385.253 -0.267728 2.29242 0
M  V30 4081 C 386.223 -0.954609 1.35928 0
M  V30 4082 O 387.408 -0.960046 1.64887 0
M  V30 4083 C 384.548 -1.32243 3.18756 0
M  V30 4084 C 383.661 -0.64669 4.27132 0
M  V30 4085 C 382.796 -1.68238 5.03855 0
M  V30 4086 C 381.835 -0.98885 6.0406 0
M  V30 4087 N 380.972 -1.96903 6.73924 0
M  V30 4088 H 385.812 0.420968 2.95012 0
M  V30 4089 H 383.349 0.219443 1.45454 0
M  V30 4090 H 385.307 -1.94599 3.69036 0
M  V30 4091 H 383.937 -1.97981 2.54958 0
M  V30 4092 H 382.989 0.0902926 3.80293 0
M  V30 4093 H 384.301 -0.101058 4.98698 0
M  V30 4094 H 383.455 -2.38081 5.58034 0
M  V30 4095 H 382.194 -2.26187 4.32077 0
M  V30 4096 H 381.199 -0.276222 5.49106 0
M  V30 4097 H 382.424 -0.415767 6.77826 0
M  V30 4098 H 380.37 -2.53803 6.04913 0
M  V30 4099 H 380.287 -1.47423 7.41487 0
M  V30 4100 H 381.555 -2.66015 7.32705 0
M  V30 4101 N 385.784 -1.5574 0.241426 0
M  V30 4102 C 387.061 -1.90704 -0.434881 0
M  V30 4103 C 387.441 -1.16145 -1.76277 0
M  V30 4104 O 386.789 -0.277152 -2.26813 0
M  V30 4105 C 386.999 -3.43657 -0.608343 0
M  V30 4106 C 388.347 -4.14806 -0.906725 0
M  V30 4107 O 389.371 -3.49366 -0.694408 0
M  V30 4108 O 388.23 -5.30548 -1.31075 0
M  V30 4109 H 385.324 -0.793592 -0.23268 0
M  V30 4110 H 387.87 -1.67288 0.285086 0
M  V30 4111 H 386.642 -3.89927 0.327505 0
M  V30 4112 H 386.265 -3.72918 -1.37906 0
M  V30 4113 N 387.262 0.0317525 -1.57568 0
M  V30 4114 C 388.511 0.722131 -1.8833 0
M  V30 4115 C 388.824 1.76664 -0.839587 0
M  V30 4116 O 390.03 2.50942 -1.03635 0
M  V30 4117 C 388.486 1.33544 -3.34207 0
M  V30 4118 C 388.094 0.327415 -4.46802 0
M  V30 4119 C 389.838 2.00585 -3.7412 0
M  V30 4120 C 387.745 0.948915 -5.83738 0
M  V30 4121 H 386.675 0.273466 -0.702661 0
M  V30 4122 H 389.326 -0.0235811 -1.83485 0
M  V30 4123 H 387.708 2.13077 -3.33788 0
M  V30 4124 H 388.882 -0.441006 -4.58685 0
M  V30 4125 H 387.197 -0.240758 -4.15703 0
M  V30 4126 H 389.794 2.47932 -4.73744 0
M  V30 4127 H 390.137 2.82285 -3.05975 0
M  V30 4128 H 390.67 1.27831 -3.76702 0
M  V30 4129 H 387.409 0.171387 -6.55276 0
M  V30 4130 H 386.929 1.68724 -5.7558 0
M  V30 4131 H 388.608 1.45705 -6.3038 0
M  V30 4132 N 388.74 1.54641 0.303973 0
M  V30 4133 C 389.987 1.7378 1.03955 0
M  V30 4134 C 390.315 0.521986 1.87365 0
M  V30 4135 O 389.57 -0.496099 1.89308 0
M  V30 4136 C 389.869 2.97753 1.97681 0
M  V30 4137 C 389.535 4.31671 1.30271 0
M  V30 4138 C 388.197 4.68075 1.11619 0
M  V30 4139 C 390.549 5.147 0.82055 0
M  V30 4140 C 387.877 5.8509 0.434304 0
M  V30 4141 C 390.229 6.32416 0.152395 0
M  V30 4142 C 388.893 6.67484 -0.0461067 0
M  V30 4143 H 388.163 0.635908 0.380398 0
M  V30 4144 H 390.81 1.88896 0.314718 0
M  V30 4145 H 389.115 2.77406 2.76682 0
M  V30 4146 H 390.812 3.09756 2.54661 0
M  V30 4147 H 387.402 4.03041 1.45795 0
M  V30 4148 H 391.586 4.87077 0.952374 0
M  V30 4149 H 386.842 6.10806 0.269495 0
M  V30 4150 H 391.016 6.96023 -0.229126 0
M  V30 4151 H 388.643 7.58011 -0.576494 0
M  V30 4152 N 390.218 -0.567019 1.47046 0
M  V30 4153 C 391.448 -1.34831 1.56538 0
M  V30 4154 C 391.856 -1.8802 0.21101 0
M  V30 4155 O 391.199 -1.65152 -0.804387 0
M  V30 4156 C 391.261 -2.56139 2.52256 0
M  V30 4157 C 390.925 -2.24307 3.98165 0
M  V30 4158 C 391.922 -1.82192 4.86931 0
M  V30 4159 C 389.607 -2.35968 4.43423 0
M  V30 4160 C 391.601 -1.52153 6.18973 0
M  V30 4161 C 389.288 -2.05542 5.75496 0
M  V30 4162 C 390.286 -1.63701 6.63092 0
M  V30 4163 O 389.974 -1.33657 7.92711 0
M  V30 4164 H 389.706 -0.417683 0.531523 0
M  V30 4165 H 392.26 -0.694726 1.93294 0
M  V30 4166 H 390.49 -3.24356 2.10548 0
M  V30 4167 H 392.179 -3.18214 2.51982 0
M  V30 4168 H 392.945 -1.72684 4.53217 0
M  V30 4169 H 388.824 -2.67495 3.75456 0
M  V30 4170 H 392.368 -1.19421 6.87302 0
M  V30 4171 H 388.265 -2.14679 6.08755 0
M  V30 4172 H 389.033 -1.4737 8.05124 0
M  V30 4173 N 391.696 -1.35014 -0.812953 0
M  V30 4174 C 392.643 -1.27412 -1.92444 0
M  V30 4175 C 393.613 -0.14733 -1.65445 0
M  V30 4176 O 394.798 -0.329974 -1.87925 0
M  V30 4177 C 391.938 -1.04558 -3.28879 0
M  V30 4178 C 391.051 -2.26101 -3.68106 0
M  V30 4179 C 390.186 -1.96449 -4.9354 0
M  V30 4180 C 389.225 -3.14081 -5.25376 0
M  V30 4181 N 388.362 -2.84246 -6.41988 0
M  V30 4182 H 393.202 -2.22463 -1.98278 0
M  V30 4183 H 390.739 -1.10593 -0.969933 0
M  V30 4184 H 392.697 -0.893413 -4.07522 0
M  V30 4185 H 391.327 -0.131719 -3.22531 0
M  V30 4186 H 390.379 -2.52204 -2.84775 0
M  V30 4187 H 391.691 -3.13959 -3.87597 0
M  V30 4188 H 390.845 -1.78026 -5.79993 0
M  V30 4189 H 389.584 -1.05867 -4.76071 0
M  V30 4190 H 388.589 -3.33089 -4.37415 0
M  V30 4191 H 389.814 -4.05455 -5.44778 0
M  V30 4192 H 387.76 -1.96252 -6.25956 0
M  V30 4193 H 387.677 -3.65637 -6.61699 0
M  V30 4194 H 388.945 -2.6935 -7.31485 0
M  V30 4195 N 393.175 1.03435 -1.18907 0
M  V30 4196 C 394.138 2.09756 -0.923844 0
M  V30 4197 C 395.138 1.60528 0.093416 0
M  V30 4198 O 396.328 1.73631 -0.140727 0
M  V30 4199 C 393.46 3.38692 -0.387354 0
M  V30 4200 H 394.653 2.34719 -1.86674 0
M  V30 4201 H 392.206 1.19959 -1.00197 0
M  V30 4202 H 392.941 3.19396 0.561845 0
M  V30 4203 H 392.726 3.75742 -1.12074 0
M  V30 4204 H 394.216 4.17016 -0.220694 0
M  V30 4205 N 394.653 0.992116 1.22453 0
M  V30 4206 C 395.902 0.662992 1.90492 0
M  V30 4207 C 396.215 -0.808407 1.78113 0
M  V30 4208 O 397.421 -1.24908 2.41061 0
M  V30 4209 C 395.877 1.1353 3.41524 0
M  V30 4210 C 395.485 2.63187 3.62542 0
M  V30 4211 C 397.229 0.880465 4.15269 0
M  V30 4212 C 395.136 3.04024 5.0727 0
M  V30 4213 H 394.066 0.244278 0.713333 0
M  V30 4214 H 396.717 1.20157 1.38688 0
M  V30 4215 H 395.099 0.52485 3.92506 0
M  V30 4216 H 396.273 3.2957 3.22056 0
M  V30 4217 H 394.588 2.86543 3.02129 0
M  V30 4218 H 397.185 1.16128 5.21937 0
M  V30 4219 H 397.528 -0.183408 4.15896 0
M  V30 4220 H 398.061 1.45307 3.70312 0
M  V30 4221 H 394.8 4.09584 5.11782 0
M  V30 4222 H 394.32 2.42343 5.48662 0
M  V30 4223 H 395.999 2.95282 5.75689 0
M  V30 4224 N 396.131 -1.37776 0.765217 0
M  V30 4225 C 397.063 -2.28958 0.105361 0
M  V30 4226 C 398.076 -1.48316 -0.67128 0
M  V30 4227 O 399.265 -1.71046 -0.51045 0
M  V30 4228 C 396.365 -3.27421 -0.874569 0
M  V30 4229 C 395.538 -4.37132 -0.153123 0
M  V30 4230 C 394.597 -5.1571 -1.04547 0
M  V30 4231 O 393.623 -5.66896 -0.511672 0
M  V30 4232 N 394.825 -5.29808 -2.37243 0
M  V30 4233 H 397.59 -2.86227 0.888495 0
M  V30 4234 H 395.151 -1.49682 0.617 0
M  V30 4235 H 397.143 -3.7687 -1.47483 0
M  V30 4236 H 395.713 -2.70967 -1.55871 0
M  V30 4237 H 394.933 -3.89166 0.627975 0
M  V30 4238 H 396.221 -5.07625 0.345643 0
M  V30 4239 H 395.619 -4.89793 -2.83054 0
M  V30 4240 H 394.176 -5.82589 -2.9229 0
M  V30 4241 N 397.609 -0.515225 -1.4894 0
M  V30 4242 C 398.556 0.255567 -2.29381 0
M  V30 4243 C 399.526 0.947387 -1.36432 0
M  V30 4244 O 400.711 0.951288 -1.65394 0
M  V30 4245 C 397.851 1.30551 -3.19453 0
M  V30 4246 C 396.964 0.624029 -4.27469 0
M  V30 4247 C 396.099 1.65563 -5.0474 0
M  V30 4248 C 395.138 0.956802 -6.04576 0
M  V30 4249 N 394.275 1.93326 -6.74959 0
M  V30 4250 H 399.115 -0.436607 -2.94784 0
M  V30 4251 H 396.652 -0.227154 -1.45336 0
M  V30 4252 H 398.61 1.92639 -3.70062 0
M  V30 4253 H 397.24 1.96626 -2.56004 0
M  V30 4254 H 396.292 -0.110459 -3.8024 0
M  V30 4255 H 397.604 0.0746092 -4.98744 0
M  V30 4256 H 396.758 2.35119 -5.59289 0
M  V30 4257 H 395.497 2.23893 -4.3327 0
M  V30 4258 H 394.502 0.247097 -5.49244 0
M  V30 4259 H 395.727 0.379814 -6.78037 0
M  V30 4260 H 393.673 2.50591 -6.06251 0
M  V30 4261 H 393.59 1.43489 -7.42258 0
M  V30 4262 H 394.858 2.62126 -7.34105 0
M  V30 4263 N 399.087 1.5561 -0.249682 0
M  V30 4264 C 400.503 1.59254 0.105103 0
M  V30 4265 C 400.703 1.26685 1.56694 0
M  V30 4266 O 399.759 1.0155 2.31179 0
M  V30 4267 C 401.072 2.99687 -0.246592 0
M  V30 4268 C 402.62 3.12416 -0.191118 0
M  V30 4269 C 403.095 4.55074 -0.516885 0
M  V30 4270 N 404.586 4.60835 -0.467489 0
M  V30 4271 C 405.321 5.69201 -0.69268 0
M  V30 4272 N 404.817 6.85817 -0.981146 0
M  V30 4273 N 406.61 5.58635 -0.623198 0
M  V30 4274 H 398.761 1.75049 -1.20298 0
M  V30 4275 H 401.024 0.815003 -0.484225 0
M  V30 4276 H 400.73 3.28267 -1.26228 0
M  V30 4277 H 400.604 3.74798 0.424962 0
M  V30 4278 H 402.991 2.83615 0.815247 0
M  V30 4279 H 403.072 2.39573 -0.896563 0
M  V30 4280 H 402.716 4.84596 -1.52082 0
M  V30 4281 H 402.646 5.26181 0.210068 0
M  V30 4282 H 405.137 3.7705 -0.253373 0
M  V30 4283 H 405.45 7.64341 -1.14032 0
M  V30 4284 H 403.795 6.87494 -1.01865 0
M  V30 4285 H 406.986 4.66406 -0.397863 0
M  V30 4286 H 407.159 6.43017 -0.802093 0
M  V30 4287 N 400.565 -0.0233959 1.57583 0
M  V30 4288 C 401.981 -0.379134 1.55031 0
M  V30 4289 C 402.181 -1.76255 0.976548 0
M  V30 4290 O 401.237 -2.45266 0.600078 0
M  V30 4291 C 402.55 -0.275792 2.99433 0
M  V30 4292 C 404.098 -0.352458 3.11009 0
M  V30 4293 C 404.573 -0.278501 4.57152 0
M  V30 4294 N 406.064 -0.337123 4.61972 0
M  V30 4295 C 406.799 -0.302876 5.726 0
M  V30 4296 N 406.295 -0.220589 6.92449 0
M  V30 4297 N 408.088 -0.353023 5.6099 0
M  V30 4298 H 400.239 0.881869 1.93227 0
M  V30 4299 H 402.502 0.335867 0.886509 0
M  V30 4300 H 402.208 0.675108 3.4516 0
M  V30 4301 H 402.082 -1.06721 3.61788 0
M  V30 4302 H 404.469 -1.29379 2.65226 0
M  V30 4303 H 404.55 0.468409 2.51475 0
M  V30 4304 H 404.194 0.659189 5.03604 0
M  V30 4305 H 404.124 -1.11755 5.14605 0
M  V30 4306 H 406.615 -0.403002 3.75745 0
M  V30 4307 H 406.928 -0.199713 7.72542 0
M  V30 4308 H 405.273 -0.186555 6.9475 0
M  V30 4309 H 408.464 -0.415339 4.66254 0
M  V30 4310 H 408.637 -0.322866 6.47195 0
M  V30 4311 N 402.043 -1.548 -0.295768 0
M  V30 4312 C 402.975 -1.82492 -1.3867 0
M  V30 4313 C 403.988 -0.708134 -1.46592 0
M  V30 4314 O 405.177 -0.985686 -1.48817 0
M  V30 4315 C 402.277 -1.95256 -2.76999 0
M  V30 4316 C 401.45 -3.25709 -2.91946 0
M  V30 4317 C 400.509 -3.28824 -4.10806 0
M  V30 4318 O 399.535 -4.02328 -4.02643 0
M  V30 4319 N 400.737 -2.5459 -5.21694 0
M  V30 4320 H 403.502 -2.76646 -1.15269 0
M  V30 4321 H 401.063 -1.54438 -0.485849 0
M  V30 4322 H 403.055 -1.94736 -3.54768 0
M  V30 4323 H 401.625 -1.08072 -2.93324 0
M  V30 4324 H 400.845 -3.38959 -2.01247 0
M  V30 4325 H 402.133 -4.11786 -2.98847 0
M  V30 4326 H 401.531 -1.94512 -5.31208 0
M  V30 4327 H 400.088 -2.59818 -5.97778 0
M  V30 4328 N 403.521 0.559213 -1.47345 0
M  V30 4329 C 404.746 1.34676 -1.57725 0
M  V30 4330 C 405.171 1.86723 -0.227164 0
M  V30 4331 O 404.529 1.6286 0.796642 0
M  V30 4332 C 404.577 2.49399 -2.60447 0
M  V30 4333 O 403.681 3.51567 -2.15578 0
M  V30 4334 H 403.022 0.400115 -0.52991 0
M  V30 4335 H 405.552 0.676009 -1.93109 0
M  V30 4336 H 405.562 2.95996 -2.80803 0
M  V30 4337 H 404.237 2.10873 -3.58477 0
M  V30 4338 H 402.814 3.11289 -2.05313 0
M  V30 4339 N 404.999 1.35443 0.805782 0
M  V30 4340 C 405.931 1.24285 1.92577 0
M  V30 4341 C 406.944 0.165962 1.61952 0
M  V30 4342 O 408.133 0.419303 1.73505 0
M  V30 4343 C 405.233 0.891272 3.2697 0
M  V30 4344 C 404.406 2.06669 3.85495 0
M  V30 4345 C 403.465 1.69077 4.98297 0
M  V30 4346 O 402.491 2.4096 5.15681 0
M  V30 4347 N 403.693 0.614869 5.77234 0
M  V30 4348 H 406.458 2.20777 2.02676 0
M  V30 4349 H 404.019 1.28623 0.983243 0
M  V30 4350 H 406.011 0.621256 3.99903 0
M  V30 4351 H 404.581 0.016004 3.12596 0
M  V30 4352 H 403.801 2.50046 3.04747 0
M  V30 4353 H 405.089 2.85237 4.21328 0
M  V30 4354 H 404.487 0.017648 5.65697 0
M  V30 4355 H 403.044 0.404636 6.50543 0
M  V30 4356 N 406.477 -1.02803 1.19454 0
M  V30 4357 C 407.387 -2.14575 0.948408 0
M  V30 4358 C 408.403 -1.73757 -0.091871 0
M  V30 4359 O 409.579 -2.01185 0.0929654 0
M  V30 4360 C 406.644 -3.43202 0.491265 0
M  V30 4361 C 405.705 -3.98328 1.60103 0
M  V30 4362 C 404.938 -5.20816 1.16561 0
M  V30 4363 O 405.161 -5.70392 0.0295238 0
M  V30 4364 O 404.095 -5.68801 1.96849 0
M  V30 4365 H 407.921 -2.38202 1.88397 0
M  V30 4366 H 405.506 -1.12989 0.977433 0
M  V30 4367 H 407.388 -4.20687 0.245015 0
M  V30 4368 H 406.063 -3.21018 -0.415851 0
M  V30 4369 H 404.97 -3.22174 1.90144 0
M  V30 4370 H 406.303 -4.24879 2.48473 0
M  V30 4371 N 407.956 -0.998596 -1.21925 0
M  V30 4372 C 408.903 -0.553621 -2.24062 0
M  V30 4373 C 409.873 0.416999 -1.6078 0
M  V30 4374 O 411.058 0.320482 -1.88089 0
M  V30 4375 C 408.198 0.119959 -3.44891 0
M  V30 4376 C 407.311 -0.893077 -4.22668 0
M  V30 4377 C 406.446 -0.192424 -5.30851 0
M  V30 4378 C 405.485 -1.19344 -6.00353 0
M  V30 4379 N 404.622 -0.520707 -7.00166 0
M  V30 4380 H 409.462 -1.4293 -2.61486 0
M  V30 4381 H 406.999 -0.715838 -1.28507 0
M  V30 4382 H 408.957 0.527459 -4.13852 0
M  V30 4383 H 407.587 0.959389 -3.08214 0
M  V30 4384 H 406.639 -1.41886 -3.52948 0
M  V30 4385 H 407.951 -1.65512 -4.70539 0
M  V30 4386 H 407.105 0.271515 -6.06092 0
M  V30 4387 H 405.844 0.602075 -4.83969 0
M  V30 4388 H 404.849 -1.66795 -5.23889 0
M  V30 4389 H 406.074 -1.98891 -6.49322 0
M  V30 4390 H 404.02 0.254252 -6.55507 0
M  V30 4391 H 403.937 -1.2211 -7.46073 0
M  V30 4392 H 405.205 -0.0797596 -7.79459 0
M  V30 4393 N 409.434 1.37368 -0.772513 0
M  V30 4394 C 410.683 1.98918 -0.333861 0
M  V30 4395 C 410.996 1.62017 1.09589 0
M  V30 4396 O 412.202 2.16676 1.63596 0
M  V30 4397 C 410.658 3.55735 -0.545971 0
M  V30 4398 C 410.266 4.01573 -1.98603 0
M  V30 4399 C 412.01 4.24156 -0.170979 0
M  V30 4400 C 409.917 5.51102 -2.1457 0
M  V30 4401 H 408.847 0.744214 -0.121085 0
M  V30 4402 H 411.498 1.56888 -0.95175 0
M  V30 4403 H 409.88 3.95748 0.141387 0
M  V30 4404 H 411.054 3.72803 -2.7084 0
M  V30 4405 H 409.369 3.45937 -2.31769 0
M  V30 4406 H 411.966 5.34024 -0.26878 0
M  V30 4407 H 412.309 4.06917 0.878855 0
M  V30 4408 H 412.842 3.89447 -0.810914 0
M  V30 4409 H 409.581 5.73268 -3.17875 0
M  V30 4410 H 409.101 5.81554 -1.46817 0
M  V30 4411 H 410.78 6.17083 -1.94468 0
M  V30 4412 N 410.912 0.523116 1.48665 0
M  V30 4413 C 412.189 -0.0775449 1.95446 0
M  V30 4414 C 412.569 -1.5197 1.4652 0
M  V30 4415 O 411.917 -2.17876 0.688657 0
M  V30 4416 C 412.127 0.0326135 3.48985 0
M  V30 4417 C 413.475 -0.130141 4.24401 0
M  V30 4418 O 414.499 -0.0415142 3.56176 0
M  V30 4419 O 413.358 -0.31491 5.45592 0
M  V30 4420 H 410.452 -0.0831012 0.822814 0
M  V30 4421 H 412.998 0.587227 1.59216 0
M  V30 4422 H 411.77 1.03748 3.77296 0
M  V30 4423 H 411.393 -0.671317 3.91892 0
M  V30 4424 N 412.39 -1.55475 0.257931 0
M  V30 4425 C 413.667 -1.91155 -0.414629 0
M  V30 4426 C 414.047 -1.18008 -1.75035 0
M  V30 4427 O 413.395 -0.301193 -2.26506 0
M  V30 4428 C 413.605 -3.44283 -0.571859 0
M  V30 4429 C 414.953 -4.15744 -0.862678 0
M  V30 4430 O 415.977 -3.50083 -0.657314 0
M  V30 4431 O 414.836 -5.31909 -1.2544 0
M  V30 4432 H 411.93 -0.796016 -0.22425 0
M  V30 4433 H 414.476 -1.66976 0.302814 0
M  V30 4434 H 413.248 -3.89558 0.368844 0
M  V30 4435 H 412.871 -3.7436 -1.33943 0
M  V30 4436 N 413.868 0.0150385 -1.57593 0
M  V30 4437 C 415.117 0.702115 -1.89085 0
M  V30 4438 C 415.43 1.75764 -0.858277 0
M  V30 4439 O 416.636 2.49829 -1.0629 0
M  V30 4440 C 415.092 1.29992 -3.35604 0
M  V30 4441 C 414.7 0.280007 -4.47124 0
M  V30 4442 C 416.444 1.96606 -3.76227 0
M  V30 4443 C 414.351 0.886949 -5.84711 0
M  V30 4444 H 413.281 0.265997 -0.705522 0
M  V30 4445 H 415.932 -0.0430408 -1.8345 0
M  V30 4446 H 414.314 2.09525 -3.36029 0
M  V30 4447 H 415.488 -0.489631 -4.58191 0
M  V30 4448 H 413.803 -0.284835 -4.15425 0
M  V30 4449 H 416.4 2.42893 -4.76347 0
M  V30 4450 H 416.743 2.79024 -3.08952 0
M  V30 4451 H 417.276 1.23828 -3.78036 0
M  V30 4452 H 414.015 0.101876 -6.55421 0
M  V30 4453 H 413.535 1.6261 -5.77337 0
M  V30 4454 H 415.214 1.39011 -6.3189 0
M  V30 4455 N 415.346 1.54954 0.287554 0
M  V30 4456 C 416.276 1.89839 1.35954 0
M  V30 4457 C 417.257 0.758675 1.52244 0
M  V30 4458 O 418.442 1.01557 1.65529 0
M  V30 4459 C 415.572 2.15753 2.72154 0
M  V30 4460 C 414.526 3.3159 2.70614 0
M  V30 4461 C 413.852 3.42952 4.10229 0
M  V30 4462 C 415.152 4.68359 2.31165 0
M  V30 4463 H 416.846 2.79625 1.07007 0
M  V30 4464 H 414.392 1.3454 0.513316 0
M  V30 4465 H 416.345 2.38743 3.47246 0
M  V30 4466 H 415.069 1.22752 3.02654 0
M  V30 4467 H 413.728 3.08545 1.97979 0
M  V30 4468 H 413.376 2.47443 4.37928 0
M  V30 4469 H 413.076 4.20826 4.10097 0
M  V30 4470 H 414.6 3.68218 4.87081 0
M  V30 4471 H 416.014 4.9099 2.95976 0
M  V30 4472 H 414.411 5.49044 2.42221 0
M  V30 4473 H 415.481 4.68165 1.26291 0
M  V30 4474 N 416.824 -0.551391 1.4764 0
M  V30 4475 C 417.756 -1.67333 1.56628 0
M  V30 4476 C 418.769 -1.56398 0.452045 0
M  V30 4477 O 419.958 -1.6325 0.721926 0
M  V30 4478 C 417.058 -3.05841 1.45994 0
M  V30 4479 C 416.231 -3.42472 2.72088 0
M  V30 4480 C 415.29 -4.60168 2.55209 0
M  V30 4481 O 414.316 -4.64458 3.2904 0
M  V30 4482 N 415.518 -5.57024 1.63416 0
M  V30 4483 H 418.283 -1.60066 2.53375 0
M  V30 4484 H 415.844 -0.738169 1.44093 0
M  V30 4485 H 417.836 -3.8242 1.32428 0
M  V30 4486 H 416.406 -3.07302 0.573071 0
M  V30 4487 H 415.626 -2.55284 3.00373 0
M  V30 4488 H 416.914 -3.63723 3.55785 0
M  V30 4489 H 416.312 -5.56319 1.02594 0
M  V30 4490 H 414.869 -6.32906 1.558 0
M  V30 4491 N 418.302 -1.35869 -0.798587 0
M  V30 4492 C 419.53 -1.32722 -1.58722 0
M  V30 4493 C 419.945 0.0935631 -1.88568 0
M  V30 4494 O 419.302 1.04784 -1.49421 0
M  V30 4495 C 419.353 -2.13974 -2.91371 0
M  V30 4496 O 419.074 -3.50514 -2.62815 0
M  V30 4497 C 420.575 -2.18504 -3.85708 0
M  V30 4498 H 417.795 -0.45562 -0.492596 0
M  V30 4499 H 420.339 -1.78837 -0.991843 0
M  V30 4500 H 418.494 -1.71438 -3.47402 0
M  V30 4501 H 418.908 -3.92806 -3.47568 0
M  V30 4502 H 420.382 -2.79732 -4.75872 0
M  V30 4503 H 420.859 -1.18597 -4.22885 0
M  V30 4504 H 421.465 -2.61236 -3.35612 0
M  V30 4505 N 419.78 1.02168 -1.19998 0
M  V30 4506 C 420.71 2.12488 -0.96804 0
M  V30 4507 C 421.691 1.69799 0.101185 0
M  V30 4508 O 422.876 1.94121 -0.0552993 0
M  V30 4509 C 420.006 3.43479 -0.513776 0
M  V30 4510 C 418.96 3.99884 -1.52566 0
M  V30 4511 C 418.286 5.26582 -0.928214 0
M  V30 4512 C 419.586 4.33861 -2.90795 0
M  V30 4513 H 421.28 2.32149 -1.89069 0
M  V30 4514 H 418.826 1.11564 -0.910468 0
M  V30 4515 H 420.779 4.20036 -0.338774 0
M  V30 4516 H 419.503 3.23561 0.444493 0
M  V30 4517 H 418.162 3.25429 -1.68794 0
M  V30 4518 H 417.81 5.02986 0.0378289 0
M  V30 4519 H 417.51 5.65284 -1.60397 0
M  V30 4520 H 419.034 6.05799 -0.764167 0
M  V30 4521 H 420.448 5.01327 -2.78109 0
M  V30 4522 H 418.845 4.83664 -3.55231 0
M  V30 4523 H 419.915 3.42848 -3.42904 0
M  V30 4524 N 421.258 1.00505 1.21394 0
M  V30 4525 C 422.188 0.585684 2.26035 0
M  V30 4526 C 423.169 -0.393525 1.65485 0
M  V30 4527 O 424.354 -0.281497 1.92149 0
M  V30 4528 C 421.484 -0.0884283 3.47187 0
M  V30 4529 C 420.438 0.810567 4.20254 0
M  V30 4530 C 419.764 0.00286382 5.347 0
M  V30 4531 C 421.064 2.1132 4.77641 0
M  V30 4532 H 422.758 1.46039 2.61368 0
M  V30 4533 H 420.304 0.703648 1.25638 0
M  V30 4534 H 422.257 -0.393286 4.19561 0
M  V30 4535 H 420.981 -0.997766 3.10986 0
M  V30 4536 H 419.64 1.09925 3.49731 0
M  V30 4537 H 419.288 -0.907765 4.94741 0
M  V30 4538 H 418.988 0.601444 5.84514 0
M  V30 4539 H 420.512 -0.295808 6.09883 0
M  V30 4540 H 421.926 1.87148 5.41893 0
M  V30 4541 H 420.323 2.66164 5.37845 0
M  V30 4542 H 421.393 2.78393 3.9702 0
M  V30 4543 N 422.737 -1.36956 0.779787 0
M  V30 4544 C 424.014 -1.93697 0.272156 0
M  V30 4545 C 424.394 -1.71267 -1.23413 0
M  V30 4546 O 423.742 -1.06607 -2.02107 0
M  V30 4547 C 423.952 -3.42812 0.654291 0
M  V30 4548 C 425.3 -4.19921 0.628602 0
M  V30 4549 O 426.324 -3.51209 0.594172 0
M  V30 4550 O 425.183 -5.42465 0.662864 0
M  V30 4551 H 422.277 -0.824447 0.0649286 0
M  V30 4552 H 424.823 -1.46196 0.861682 0
M  V30 4553 H 423.595 -3.52754 1.69353 0
M  V30 4554 H 423.218 -3.97582 0.0381369 0
M  V30 4555 N 424.215 -0.530993 -1.48385 0
M  V30 4556 C 425.178 0.220497 -2.28137 0
M  V30 4557 C 426.178 0.866851 -1.35434 0
M  V30 4558 O 427.368 0.726746 -1.58316 0
M  V30 4559 C 424.5 1.31921 -3.1434 0
M  V30 4560 H 425.693 -0.479714 -2.96038 0
M  V30 4561 H 423.246 -0.286968 -1.53643 0
M  V30 4562 H 423.981 2.05264 -2.51072 0
M  V30 4563 H 423.766 0.86085 -3.82533 0
M  V30 4564 H 425.256 1.84776 -3.74497 0
M  V30 4565 N 425.693 1.55336 -0.266172 0
M  V30 4566 C 426.921 2.03801 0.356756 0
M  V30 4567 C 427.336 1.14485 1.50129 0
M  V30 4568 O 426.693 0.163121 1.8177 0
M  V30 4569 C 426.744 3.51455 0.846281 0
M  V30 4570 O 426.465 4.37371 -0.252663 0
M  V30 4571 C 427.966 4.15767 1.53794 0
M  V30 4572 H 425.186 0.665906 0.0825218 0
M  V30 4573 H 427.73 2.00636 -0.39566 0
M  V30 4574 H 425.885 3.55092 1.54881 0
M  V30 4575 H 426.299 5.24358 0.122173 0
M  V30 4576 H 427.773 5.20714 1.83198 0
M  V30 4577 H 428.25 3.63404 2.46646 0
M  V30 4578 H 428.856 4.16107 0.879488 0
M  V30 4579 N 427.171 -0.0066808 1.57599 0
M  V30 4580 C 428.401 -0.703066 1.94269 0
M  V30 4581 C 428.809 -1.68206 0.866222 0
M  V30 4582 O 428.152 -1.82966 -0.164087 0
M  V30 4583 C 428.214 -1.49616 3.26887 0
M  V30 4584 C 427.878 -0.679494 4.5192 0
M  V30 4585 C 428.875 0.0299508 5.19891 0
M  V30 4586 C 426.56 -0.627433 4.98366 0
M  V30 4587 C 428.554 0.780514 6.32603 0
M  V30 4588 C 426.241 0.126861 6.10968 0
M  V30 4589 C 427.239 0.829574 6.77943 0
M  V30 4590 O 426.927 1.57157 7.88389 0
M  V30 4591 H 426.659 -0.201217 0.645359 0
M  V30 4592 H 429.213 0.0385326 2.05364 0
M  V30 4593 H 427.443 -2.28209 3.12182 0
M  V30 4594 H 429.132 -2.07726 3.48719 0
M  V30 4595 H 429.898 -0.00115963 4.85 0
M  V30 4596 H 425.777 -1.16392 4.46065 0
M  V30 4597 H 429.321 1.32954 6.84813 0
M  V30 4598 H 425.218 0.159815 6.45302 0
M  V30 4599 H 425.986 1.48758 8.04868 0
M  V30 4600 N 428.649 -1.55105 -0.279332 0
M  V30 4601 C 429.596 -1.8755 -1.34513 0
M  V30 4602 C 430.566 -0.726384 -1.49375 0
M  V30 4603 O 431.751 -0.977063 -1.63884 0
M  V30 4604 C 428.891 -2.14738 -2.70151 0
M  V30 4605 C 428.004 -3.42285 -2.63562 0
M  V30 4606 C 427.139 -3.59206 -3.91337 0
M  V30 4607 C 426.178 -4.80467 -3.79233 0
M  V30 4608 N 425.315 -4.94079 -4.98829 0
M  V30 4609 H 430.155 -2.78456 -1.06143 0
M  V30 4610 H 427.692 -1.37867 -0.512936 0
M  V30 4611 H 429.65 -2.28501 -3.49061 0
M  V30 4612 H 428.28 -1.27075 -2.96735 0
M  V30 4613 H 427.332 -3.37029 -1.76397 0
M  V30 4614 H 428.644 -4.31328 -2.50515 0
M  V30 4615 H 427.798 -3.72751 -4.78687 0
M  V30 4616 H 426.537 -2.68337 -4.07243 0
M  V30 4617 H 425.542 -4.66932 -2.90266 0
M  V30 4618 H 426.767 -5.72765 -3.64852 0
M  V30 4619 H 424.713 -4.06139 -5.15158 0
M  V30 4620 H 424.63 -5.77156 -4.8829 0
M  V30 4621 H 425.898 -5.12003 -5.8777 0
M  V30 4622 N 430.127 0.543554 -1.4793 0
M  V30 4623 C 431.404 1.30458 -1.4574 0
M  V30 4624 C 431.784 2.1048 -0.161692 0
M  V30 4625 O 431.132 2.11831 0.856734 0
M  V30 4626 C 431.342 2.19754 -2.71126 0
M  V30 4627 C 432.69 2.80334 -3.18901 0
M  V30 4628 O 433.714 2.30049 -2.71948 0
M  V30 4629 O 432.573 3.71766 -4.00565 0
M  V30 4630 H 429.667 0.588117 -0.581418 0
M  V30 4631 H 432.213 0.561328 -1.60147 0
M  V30 4632 H 430.985 1.60316 -3.56952 0
M  V30 4633 H 430.608 3.01351 -2.59371 0
M  V30 4634 N 431.605 1.3629 0.791371 0
M  V30 4635 C 432.853 1.30154 1.5461 0
M  V30 4636 C 433.174 -0.119409 1.94634 0
M  V30 4637 O 432.444 -1.05924 1.64794 0
M  V30 4638 H 431.024 0.478784 0.573389 0
M  V30 4639 H 433.686 1.70565 0.94306 0
M  V30 4640 H 432.782 1.92762 2.45457 0
M  V30 4641 N 433.083 -1.0153 1.20538 0
M  V30 4642 C 434.499 -1.27461 0.96051 0
M  V30 4643 C 434.699 -1.98273 -0.359193 0
M  V30 4644 O 433.755 -2.27886 -1.0874 0
M  V30 4645 C 435.068 -2.10837 2.14402 0
M  V30 4646 C 436.616 -2.24099 2.18515 0
M  V30 4647 C 437.091 -3.10852 3.36355 0
M  V30 4648 N 438.582 -3.18441 3.36377 0
M  V30 4649 C 439.317 -3.85795 4.24205 0
M  V30 4650 N 438.813 -4.55264 5.22213 0
M  V30 4651 N 440.606 -3.82331 4.12043 0
M  V30 4652 H 432.757 -0.539907 2.05423 0
M  V30 4653 H 435.02 -0.30092 0.898972 0
M  V30 4654 H 434.726 -1.66144 3.09983 0
M  V30 4655 H 434.6 -3.11576 2.12604 0
M  V30 4656 H 436.987 -2.68016 1.23497 0
M  V30 4657 H 437.068 -1.22865 2.24361 0
M  V30 4658 H 436.712 -2.6764 4.31661 0
M  V30 4659 H 436.642 -4.12177 3.27746 0
M  V30 4660 H 439.133 -2.68978 2.65442 0
M  V30 4661 H 439.446 -5.04331 5.85551 0
M  V30 4662 H 437.791 -4.54085 5.26148 0
M  V30 4663 H 440.982 -3.27207 3.34743 0
M  V30 4664 H 441.155 -4.34547 4.807 0
M  V30 4665 N 434.561 -1.01147 -1.20859 0
M  V30 4666 C 435.972 -0.730205 -1.71828 0
M  V30 4667 C 436.323 0.751662 -1.8123 0
M  V30 4668 O 435.448 1.58686 -1.47132 0
M  V30 4669 C 436.043 -1.31885 -3.12077 0
M  V30 4670 C 434.602 -1.08656 -3.60376 0
M  V30 4671 C 433.749 -1.42769 -2.37723 0
M  V30 4672 H 436.7 -1.18158 -1.05945 0
M  V30 4673 H 436.721 -0.706793 -3.73878 0
M  V30 4674 H 436.233 -2.39737 -3.05201 0
M  V30 4675 H 434.334 -0.0254814 -3.72591 0
M  V30 4676 H 434.447 -1.76301 -4.45483 0
M  V30 4677 H 432.811 -0.846603 -2.40218 0
M  V30 4678 H 433.594 -2.51666 -2.33493 0
M  V30 4679 N 436.039 1.36541 -0.78704 0
M  V30 4680 C 436.969 2.32659 -0.197992 0
M  V30 4681 C 437.95 1.56533 0.665697 0
M  V30 4682 O 439.135 1.84698 0.60001 0
M  V30 4683 C 436.265 3.40778 0.669901 0
M  V30 4684 C 435.219 4.27897 -0.0937039 0
M  V30 4685 C 434.545 5.27163 0.894629 0
M  V30 4686 C 435.845 5.06334 -1.28154 0
M  V30 4687 H 437.539 2.82171 -1.00099 0
M  V30 4688 H 435.085 1.35665 -0.482793 0
M  V30 4689 H 437.038 4.07008 1.09191 0
M  V30 4690 H 435.762 2.89827 1.50558 0
M  V30 4691 H 434.421 3.6322 -0.49666 0
M  V30 4692 H 434.069 4.72486 1.72527 0
M  V30 4693 H 433.769 5.86317 0.388149 0
M  V30 4694 H 435.293 5.96266 1.31525 0
M  V30 4695 H 436.707 5.65617 -0.93541 0
M  V30 4696 H 435.104 5.74888 -1.72115 0
M  V30 4697 H 436.174 4.38114 -2.07807 0
M  V30 4698 N 437.518 0.538854 1.48102 0
M  V30 4699 C 438.746 0.0123136 2.06896 0
M  V30 4700 C 439.161 -1.27312 1.39417 0
M  V30 4701 O 438.518 -1.75949 0.484582 0
M  V30 4702 C 438.569 -0.206118 3.60912 0
M  V30 4703 O 438.29 1.0284 4.25859 0
M  V30 4704 C 439.791 -0.772033 4.36526 0
M  V30 4705 H 437.011 0.0375239 0.66995 0
M  V30 4706 H 439.555 0.747032 1.90367 0
M  V30 4707 H 437.71 -0.89091 3.77017 0
M  V30 4708 H 438.124 0.814654 5.18135 0
M  V30 4709 H 439.598 -0.874251 5.45033 0
M  V30 4710 H 440.075 -1.77904 4.01555 0
M  V30 4711 H 440.681 -0.123526 4.25121 0
M  V30 4712 N 438.996 -1.55193 0.274407 0
M  V30 4713 C 440.273 -1.91584 -0.394331 0
M  V30 4714 C 440.653 -1.19858 -1.73774 0
M  V30 4715 O 440.001 -0.3252 -2.26174 0
M  V30 4716 C 440.211 -3.4487 -0.535311 0
M  V30 4717 C 441.559 -4.16636 -0.818534 0
M  V30 4718 O 442.583 -3.5076 -0.620146 0
M  V30 4719 O 441.442 -5.33209 -1.19792 0
M  V30 4720 H 438.536 -0.798349 -0.215794 0
M  V30 4721 H 441.082 -1.66646 0.320507 0
M  V30 4722 H 439.854 -3.89145 0.410141 0
M  V30 4723 H 439.477 -3.75759 -1.29964 0
M  V30 4724 N 440.474 -0.00167713 -1.576 0
M  V30 4725 C 441.751 0.719951 -1.81868 0
M  V30 4726 C 442.131 1.91895 -0.879747 0
M  V30 4727 O 441.479 2.28389 0.0711423 0
M  V30 4728 C 441.689 1.12409 -3.30402 0
M  V30 4729 C 443.037 1.52724 -3.96182 0
M  V30 4730 O 444.061 1.21784 -3.34734 0
M  V30 4731 O 442.92 2.10265 -5.04431 0
M  V30 4732 H 440.014 0.350707 -0.748955 0
M  V30 4733 H 442.56 -0.0272597 -1.69678 0
M  V30 4734 H 441.332 0.269532 -3.90371 0
M  V30 4735 H 440.955 1.93035 -3.47596 0
M  V30 4736 N 441.952 1.55251 0.271103 0
M  V30 4737 C 442.862 1.9136 1.35714 0
M  V30 4738 C 443.878 0.811075 1.5394 0
M  V30 4739 O 445.054 1.11031 1.6803 0
M  V30 4740 C 442.119 2.1798 2.69603 0
M  V30 4741 C 441.18 3.4153 2.60107 0
M  V30 4742 C 440.413 3.66871 3.8761 0
M  V30 4743 O 440.636 2.94689 4.8838 0
M  V30 4744 O 439.57 4.60405 3.87699 0
M  V30 4745 H 443.396 2.83815 1.08088 0
M  V30 4746 H 440.981 1.41821 0.469792 0
M  V30 4747 H 442.863 2.36518 3.48765 0
M  V30 4748 H 441.538 1.28708 2.97012 0
M  V30 4749 H 440.445 3.28325 1.79314 0
M  V30 4750 H 441.778 4.31027 2.37647 0
M  V30 4751 N 443.43 -0.535701 1.48216 0
M  V30 4752 C 444.676 -1.29375 1.56173 0
M  V30 4753 C 445.009 -1.92804 0.232429 0
M  V30 4754 O 444.284 -1.78992 -0.761048 0
M  V30 4755 C 444.567 -2.38747 2.69577 0
M  V30 4756 C 444.42 -1.80046 4.12193 0
M  V30 4757 C 445.739 -3.40551 2.78771 0
M  V30 4758 H 442.858 -0.469027 0.568491 0
M  V30 4759 H 445.5 -0.597358 1.80365 0
M  V30 4760 H 443.65 -2.98147 2.4908 0
M  V30 4761 H 445.322 -1.24742 4.44114 0
M  V30 4762 H 443.565 -1.10609 4.19462 0
M  V30 4763 H 444.236 -2.59212 4.87353 0
M  V30 4764 H 446.712 -2.91099 2.97322 0
M  V30 4765 H 445.588 -4.1448 3.59857 0
M  V30 4766 H 445.849 -4.00746 1.86696 0
M  V30 4767 N 444.908 -1.36708 -0.784132 0
M  V30 4768 C 445.871 -1.31307 -1.87859 0
M  V30 4769 C 446.871 -0.219654 -1.59293 0
M  V30 4770 O 448.061 -0.47476 -1.67606 0
M  V30 4771 C 445.193 -1.03679 -3.24751 0
M  V30 4772 H 446.386 -2.28647 -1.94064 0
M  V30 4773 H 443.939 -1.21558 -0.98252 0
M  V30 4774 H 444.674 -0.0681936 -3.24228 0
M  V30 4775 H 444.459 -1.82811 -3.46876 0
M  V30 4776 H 445.949 -1.02518 -4.04821 0
M  V30 4777 N 446.386 1.0089 -1.21074 0
M  V30 4778 C 447.634 1.74262 -1.02358 0
M  V30 4779 C 447.955 1.89869 0.444393 0
M  V30 4780 O 447.225 1.44677 1.32081 0
M  V30 4781 H 445.805 0.645615 -0.375754 0
M  V30 4782 H 448.467 1.21596 -1.52317 0
M  V30 4783 H 447.563 2.74328 -1.4883 0
M  V30 4784 N 447.864 1.01787 1.20321 0
M  V30 4785 C 448.797 0.533882 2.21867 0
M  V30 4786 C 449.775 -0.419361 1.57099 0
M  V30 4787 O 450.959 -0.339062 1.85426 0
M  V30 4788 C 448.086 -0.222899 3.37966 0
M  V30 4789 C 447.132 0.680091 4.21043 0
M  V30 4790 S 447.965 2.14997 4.90445 0
M  V30 4791 C 449.121 1.40339 6.09964 0
M  V30 4792 H 449.354 1.39429 2.62577 0
M  V30 4793 H 446.887 0.826867 1.30393 0
M  V30 4794 H 448.845 -0.653425 4.05266 0
M  V30 4795 H 447.506 -1.0589 2.95713 0
M  V30 4796 H 446.699 0.0964704 5.03908 0
M  V30 4797 H 446.301 1.04845 3.59004 0
M  V30 4798 H 448.593 0.68407 6.74038 0
M  V30 4799 H 449.536 2.20823 6.72787 0
M  V30 4800 H 449.944 0.905716 5.57187 0
M  V30 4801 N 449.342 -1.36122 0.79427 0
M  V30 4802 C 450.272 -2.32551 0.210328 0
M  V30 4803 C 451.253 -1.56884 -0.657386 0
M  V30 4804 O 452.438 -1.85014 -0.590207 0
M  V30 4805 C 449.568 -3.41128 -0.651819 0
M  V30 4806 C 448.522 -4.27842 0.116395 0
M  V30 4807 C 447.848 -5.2763 -0.86666 0
M  V30 4808 C 449.148 -5.05647 1.30837 0
M  V30 4809 H 450.842 -2.81636 1.01594 0
M  V30 4810 H 448.388 -1.35407 0.489981 0
M  V30 4811 H 450.341 -4.07581 -1.07031 0
M  V30 4812 H 449.065 -2.90622 -1.49019 0
M  V30 4813 H 447.724 -3.62952 0.515915 0
M  V30 4814 H 447.372 -4.73395 -1.70019 0
M  V30 4815 H 447.072 -5.86514 -0.35705 0
M  V30 4816 H 448.596 -5.96955 -1.28361 0
M  V30 4817 H 450.01 -5.65113 0.965393 0
M  V30 4818 H 448.407 -5.73967 1.75161 0
M  V30 4819 H 449.477 -4.37006 2.10128 0
M  V30 4820 N 450.82 -0.546701 -1.47814 0
M  V30 4821 C 452.069 -0.0166497 -2.01693 0
M  V30 4822 C 452.382 1.33721 -1.42752 0
M  V30 4823 O 453.588 1.95658 -1.8823 0
M  V30 4824 C 452.044 0.0206769 -3.59894 0
M  V30 4825 C 451.652 -1.3293 -4.27824 0
M  V30 4826 C 453.396 0.498674 -4.21561 0
M  V30 4827 C 451.303 -1.25165 -5.78003 0
M  V30 4828 H 450.233 -0.0024541 -0.753996 0
M  V30 4829 H 452.884 -0.692984 -1.69912 0
M  V30 4830 H 451.266 0.76244 -3.88591 0
M  V30 4831 H 452.44 -2.08795 -4.10781 0
M  V30 4832 H 450.755 -1.74438 -3.78101 0
M  V30 4833 H 453.352 0.575 -5.31599 0
M  V30 4834 H 453.695 1.5083 -3.88016 0
M  V30 4835 H 454.228 -0.18791 -3.97356 0
M  V30 4836 H 450.967 -2.23695 -6.1615 0
M  V30 4837 H 450.487 -0.53464 -5.97412 0
M  V30 4838 H 452.166 -0.949299 -6.39998 0
M  V30 4839 N 452.299 1.55045 -0.282633 0
M  V30 4840 C 453.547 1.99365 0.331334 0
M  V30 4841 C 453.868 1.1725 1.55812 0
M  V30 4842 O 453.138 0.263871 1.94115 0
M  V30 4843 H 451.718 0.736397 0.125414 0
M  V30 4844 H 454.38 1.90964 -0.389711 0
M  V30 4845 H 453.476 3.0596 0.616036 0
M  V30 4846 N 453.777 0.010035 1.57597 0
M  V30 4847 C 454.707 -0.976857 2.12084 0
M  V30 4848 C 455.688 -1.35191 1.03235 0
M  V30 4849 O 456.873 -1.43389 1.3097 0
M  V30 4850 C 454.003 -2.26548 2.63236 0
M  V30 4851 C 452.957 -2.03175 3.76701 0
M  V30 4852 C 452.283 -3.38138 4.14206 0
M  V30 4853 C 453.583 -1.38625 5.03568 0
M  V30 4854 H 455.277 -0.523145 2.94794 0
M  V30 4855 H 452.823 -0.250195 1.4181 0
M  V30 4856 H 454.776 -2.95952 2.99984 0
M  V30 4857 H 453.5 -2.74051 1.77661 0
M  V30 4858 H 452.159 -1.36195 3.40362 0
M  V30 4859 H 451.807 -3.83363 3.25641 0
M  V30 4860 H 451.507 -3.23312 4.90656 0
M  V30 4861 H 453.031 -4.08841 4.53521 0
M  V30 4862 H 454.445 -1.98 5.38023 0
M  V30 4863 H 452.842 -1.34256 5.84889 0
M  V30 4864 H 453.912 -0.356722 4.83586 0
M  V30 4865 N 455.255 -1.55392 -0.262866 0
M  V30 4866 C 456.185 -1.91978 -1.32917 0
M  V30 4867 C 457.166 -0.7828 -1.51017 0
M  V30 4868 O 458.351 -1.04178 -1.63892 0
M  V30 4869 C 455.481 -2.20055 -2.68687 0
M  V30 4870 C 454.435 -3.35854 -2.65304 0
M  V30 4871 C 453.761 -3.49435 -4.04721 0
M  V30 4872 C 455.061 -4.71977 -2.23685 0
M  V30 4873 H 456.755 -2.81292 -1.02544 0
M  V30 4874 H 454.301 -1.3534 -0.491846 0
M  V30 4875 H 456.254 -2.44237 -3.43404 0
M  V30 4876 H 454.978 -1.27551 -3.00663 0
M  V30 4877 H 453.637 -3.11655 -1.93045 0
M  V30 4878 H 453.285 -2.54379 -4.33936 0
M  V30 4879 H 452.985 -4.27297 -4.0335 0
M  V30 4880 H 454.509 -3.7592 -4.81161 0
M  V30 4881 H 455.923 -4.95637 -2.88127 0
M  V30 4882 H 454.32 -5.52828 -2.33456 0
M  V30 4883 H 455.39 -4.70115 -1.18827 0
M  V30 4884 N 456.733 0.527833 -1.48498 0
M  V30 4885 C 457.663 1.64136 -1.66077 0
M  V30 4886 C 458.644 1.62286 -0.509625 0
M  V30 4887 O 459.829 1.79449 -0.742413 0
M  V30 4888 C 456.959 3.02717 -1.70234 0
M  V30 4889 C 455.913 3.19426 -2.8487 0
M  V30 4890 C 455.239 4.5909 -2.74118 0
M  V30 4891 C 456.539 3.01993 -4.26142 0
M  V30 4892 H 458.233 1.4968 -2.593 0
M  V30 4893 H 455.779 0.718654 -1.24785 0
M  V30 4894 H 457.732 3.80491 -1.8112 0
M  V30 4895 H 456.456 3.18201 -0.735911 0
M  V30 4896 H 455.115 2.4407 -2.73542 0
M  V30 4897 H 454.763 4.71413 -1.7544 0
M  V30 4898 H 454.463 4.71214 -3.51042 0
M  V30 4899 H 455.987 5.3896 -2.86974 0
M  V30 4900 H 457.401 3.69558 -4.38292 0
M  V30 4901 H 455.798 3.2561 -5.04082 0
M  V30 4902 H 456.868 1.98396 -4.42456 0
M  V30 4903 N 458.211 1.37122 0.776871 0
M  V30 4904 C 459.174 1.32301 1.8716 0
M  V30 4905 C 460.174 0.228099 1.59174 0
M  V30 4906 O 461.364 0.483642 1.67352 0
M  V30 4907 C 458.496 1.054 3.24197 0
M  V30 4908 H 459.689 2.29673 1.92848 0
M  V30 4909 H 457.242 1.22077 0.97606 0
M  V30 4910 H 457.977 0.0853872 3.24188 0
M  V30 4911 H 457.762 1.84648 3.45901 0
M  V30 4912 H 459.252 1.04664 4.04271 0
M  V30 4913 N 459.689 -1.00246 1.21608 0
M  V30 4914 C 460.937 -1.73717 1.0328 0
M  V30 4915 C 461.258 -1.90102 -0.434318 0
M  V30 4916 O 460.528 -1.45376 -1.31311 0
M  V30 4917 H 459.108 -0.643613 0.379172 0
M  V30 4918 H 461.77 -1.20787 1.52959 0
M  V30 4919 H 460.866 -2.73535 1.50283 0
M  V30 4920 N 461.167 -1.02423 -1.1978 0
M  V30 4921 C 462.099 -0.559152 -2.22275 0
M  V30 4922 C 463.112 0.36251 -1.58713 0
M  V30 4923 O 464.301 0.159641 -1.77785 0
M  V30 4924 C 461.401 0.205094 -3.38279 0
M  V30 4925 C 460.574 -0.720361 -4.31427 0
M  V30 4926 C 459.633 -0.00234368 -5.262 0
M  V30 4927 O 458.659 -0.627378 -5.65732 0
M  V30 4928 N 459.861 1.26996 -5.66438 0
M  V30 4929 H 462.626 -1.44064 -2.62804 0
M  V30 4930 H 460.187 -0.902692 -1.34399 0
M  V30 4931 H 462.179 0.694868 -3.9869 0
M  V30 4932 H 460.749 0.987947 -2.96578 0
M  V30 4933 H 459.969 -1.39031 -3.68869 0
M  V30 4934 H 461.257 -1.3495 -4.90577 0
M  V30 4935 H 460.655 1.79858 -5.36347 0
M  V30 4936 H 459.212 1.70432 -6.29123 0
M  V30 4937 N 462.645 1.35699 -0.801477 0
M  V30 4938 C 463.595 2.2728 -0.181073 0
M  V30 4939 C 464.579 1.47533 0.642098 0
M  V30 4940 O 465.771 1.69785 0.500193 0
M  V30 4941 C 462.9 3.36626 0.673612 0
M  V30 4942 C 461.986 4.23802 -0.159008 0
M  V30 4943 N 462.377 4.90879 -1.2195 0
M  V30 4944 C 460.675 4.45959 0.0602005 0
M  V30 4945 C 461.376 5.5546 -1.72738 0
M  V30 4946 N 460.352 5.33663 -1.03465 0
M  V30 4947 H 464.154 2.76632 -0.992582 0
M  V30 4948 H 461.668 1.49166 -0.642127 0
M  V30 4949 H 463.665 4.01179 1.13408 0
M  V30 4950 H 462.325 2.88828 1.48353 0
M  V30 4951 H 463.336 4.92497 -1.60209 0
M  V30 4952 H 460.013 4.08969 0.839664 0
M  V30 4953 H 461.403 6.18991 -2.61342 0
M  V30 4954 N 464.123 0.554532 1.47522 0
M  V30 4955 C 465.351 0.034257 2.06872 0
M  V30 4956 C 465.766 -1.25826 1.40759 0
M  V30 4957 O 465.123 -1.75425 0.503217 0
M  V30 4958 C 465.174 -0.167827 3.6111 0
M  V30 4959 O 464.895 1.07351 4.24744 0
M  V30 4960 C 466.396 -0.72569 4.3732 0
M  V30 4961 H 463.616 0.0446275 0.669514 0
M  V30 4962 H 466.16 0.767181 1.89564 0
M  V30 4963 H 464.315 -0.850872 3.7794 0
M  V30 4964 H 464.729 0.869563 5.17242 0
M  V30 4965 H 466.203 -0.816394 5.45929 0
M  V30 4966 H 466.68 -1.73635 4.0342 0
M  V30 4967 H 467.286 -0.0784292 4.25228 0
M  V30 4968 N 465.601 -1.54893 0.290851 0
M  V30 4969 C 466.826 -2.04804 -0.32712 0
M  V30 4970 C 467.251 -1.16721 -1.47506 0
M  V30 4971 O 466.609 -0.169107 -1.8051 0
M  V30 4972 C 466.657 -3.52268 -0.770689 0
M  V30 4973 O 465.761 -3.67236 -1.87647 0
M  V30 4974 H 465.102 -0.660789 -0.0652227 0
M  V30 4975 H 467.632 -2.00036 0.429739 0
M  V30 4976 H 467.642 -3.9393 -1.06223 0
M  V30 4977 H 466.317 -4.15843 0.069096 0
M  V30 4978 H 464.894 -3.37479 -1.58626 0
M  V30 4979 N 467.08 -0.0183926 -1.57589 0
M  V30 4980 C 468.305 0.676634 -1.96052 0
M  V30 4981 C 468.73 1.6548 -0.894307 0
M  V30 4982 O 468.088 1.80712 0.145849 0
M  V30 4983 C 468.136 1.36872 -3.33614 0
M  V30 4984 O 467.24 2.48372 -3.29219 0
M  V30 4985 H 466.581 0.1786 -0.63953 0
M  V30 4986 H 469.111 -0.077056 -2.04455 0
M  V30 4987 H 469.121 1.72797 -3.69601 0
M  V30 4988 H 467.796 0.651636 -4.10763 0
M  V30 4989 H 466.373 2.14639 -3.04934 0
M  V30 4990 N 468.558 1.5553 0.254621 0
M  V30 4991 C 469.786 1.81046 1.00149 0
M  V30 4992 C 470.201 0.593047 1.79244 0
M  V30 4993 O 469.558 -0.438196 1.77161 0
M  V30 4994 C 469.609 3.04684 1.94551 0
M  V30 4995 O 469.33 4.21725 1.18658 0
M  V30 4996 C 470.831 3.42943 2.80901 0
M  V30 4997 H 468.051 0.602653 0.295044 0
M  V30 4998 H 470.595 2.02576 0.279842 0
M  V30 4999 H 468.75 2.85226 2.62154 0
M  V30 5000 H 469.164 4.91746 1.82445 0
M  V30 5001 H 470.638 4.32576 3.42902 0
M  V30 5002 H 471.115 2.63176 3.51617 0
M  V30 5003 H 471.721 3.64724 2.18762 0
M  V30 5004 N 470.036 -0.519951 1.48776 0
M  V30 5005 C 471.264 -1.29971 1.60982 0
M  V30 5006 C 471.679 -1.86803 0.273885 0
M  V30 5007 O 471.036 -1.66904 -0.738193 0
M  V30 5008 C 471.087 -2.44346 2.66415 0
M  V30 5009 O 470.808 -1.89855 3.94825 0
M  V30 5010 C 472.309 -3.36014 2.89153 0
M  V30 5011 H 469.529 -0.394891 0.542496 0
M  V30 5012 H 472.073 -0.626214 1.94676 0
M  V30 5013 H 470.228 -3.07562 2.35552 0
M  V30 5014 H 470.642 -2.64798 4.5275 0
M  V30 5015 H 472.116 -4.12593 3.66703 0
M  V30 5016 H 472.593 -3.91859 1.98351 0
M  V30 5017 H 473.199 -2.78582 3.21359 0
M  V30 5018 N 471.514 -1.37532 -0.769588 0
M  V30 5019 C 472.739 -1.36231 -1.56384 0
M  V30 5020 C 473.164 0.0495849 -1.88035 0
M  V30 5021 O 472.522 1.02723 -1.49391 0
M  V30 5022 C 472.57 -2.20986 -2.84952 0
M  V30 5023 O 471.674 -1.61597 -3.79421 0
M  V30 5024 H 471.015 -0.465387 -0.473615 0
M  V30 5025 H 473.545 -1.81085 -0.952342 0
M  V30 5026 H 473.555 -2.34277 -3.34034 0
M  V30 5027 H 472.23 -3.23612 -2.61243 0
M  V30 5028 H 470.807 -1.57359 -3.38072 0
M  V30 5029 N 472.992 0.995999 -1.22138 0
M  V30 5030 C 473.955 2.06711 -0.990109 0
M  V30 5031 C 474.955 1.60744 0.0422978 0
M  V30 5032 O 476.145 1.73095 -0.195895 0
M  V30 5033 C 473.277 3.37288 -0.49491 0
M  V30 5034 H 474.47 2.28661 -1.94047 0
M  V30 5035 H 472.023 1.16711 -1.03963 0
M  V30 5036 H 472.758 3.21022 0.459948 0
M  V30 5037 H 472.543 3.71986 -1.23971 0
M  V30 5038 H 474.033 4.16103 -0.353253 0
M  V30 5039 N 474.47 1.03057 1.19235 0
M  V30 5040 C 475.716 0.738841 1.89506 0
M  V30 5041 C 476.071 -0.724807 1.78225 0
M  V30 5042 O 475.364 -1.52118 1.16494 0
M  V30 5043 C 475.558 1.1268 3.39172 0
M  V30 5044 C 475.387 2.62662 3.65019 0
M  V30 5045 C 474.157 3.29658 3.82954 0
M  V30 5046 C 476.355 3.60873 3.66436 0
M  V30 5047 N 474.337 4.68726 3.96446 0
M  V30 5048 C 475.708 4.85566 3.8552 0
M  V30 5049 C 477.763 3.54647 3.49471 0
M  V30 5050 C 476.466 6.04783 3.89397 0
M  V30 5051 C 478.492 4.73281 3.54625 0
M  V30 5052 C 477.854 5.96789 3.74196 0
M  V30 5053 H 473.953 0.322256 0.712513 0
M  V30 5054 H 476.537 1.31822 1.43287 0
M  V30 5055 H 474.708 0.575612 3.84111 0
M  V30 5056 H 476.44 0.787145 3.96971 0
M  V30 5057 H 473.195 2.8007 3.81913 0
M  V30 5058 H 473.619 5.40971 4.07037 0
M  V30 5059 H 478.261 2.60143 3.33295 0
M  V30 5060 H 475.979 6.99654 4.04364 0
M  V30 5061 H 479.565 4.70094 3.42787 0
M  V30 5062 H 478.445 6.87051 3.78061 0
M  V30 5063 N 475.948 -1.35272 0.808662 0
M  V30 5064 C 476.881 -2.27595 0.165994 0
M  V30 5065 C 477.859 -1.48189 -0.669241 0
M  V30 5066 O 479.043 -1.77444 -0.636073 0
M  V30 5067 C 476.17 -3.29843 -0.769505 0
M  V30 5068 C 475.216 -4.26498 -0.0136267 0
M  V30 5069 S 476.049 -5.18878 1.32384 0
M  V30 5070 C 477.205 -6.24666 0.392838 0
M  V30 5071 H 477.438 -2.81755 0.948756 0
M  V30 5072 H 474.971 -1.42103 0.603828 0
M  V30 5073 H 476.929 -3.89247 -1.30374 0
M  V30 5074 H 475.59 -2.74558 -1.52567 0
M  V30 5075 H 474.783 -4.98769 -0.724227 0
M  V30 5076 H 474.385 -3.71274 0.450713 0
M  V30 5077 H 476.677 -6.7619 -0.4211 0
M  V30 5078 H 477.62 -6.99741 1.0848 0
M  V30 5079 H 478.028 -5.64499 -0.0123908 0
M  V30 5080 N 477.426 -0.562348 -1.47226 0
M  V30 5081 C 478.674 -0.0401371 -2.0206 0
M  V30 5082 C 478.995 1.3165 -1.43852 0
M  V30 5083 O 478.265 1.85976 -0.615599 0
M  V30 5084 H 476.845 -0.0118479 -0.746906 0
M  V30 5085 H 479.507 -0.73352 -1.8057 0
M  V30 5086 H 478.603 0.0441254 -3.12069 0
M  V30 5087 N 478.904 1.54736 -0.299062 0
M  V30 5088 C 480.151 2.00101 0.310784 0
M  V30 5089 C 480.479 1.18746 1.54045 0
M  V30 5090 O 479.734 0.251198 1.94081 0
M  V30 5091 C 480.033 3.50199 0.713835 0
M  V30 5092 C 479.699 4.48997 -0.413873 0
M  V30 5093 C 478.361 4.7573 -0.723462 0
M  V30 5094 C 480.713 5.07839 -1.17257 0
M  V30 5095 C 478.041 5.5857 -1.79491 0
M  V30 5096 C 480.393 5.91844 -2.23392 0
M  V30 5097 C 479.057 6.16889 -2.54959 0
M  V30 5098 H 478.327 0.732221 0.113724 0
M  V30 5099 H 480.974 1.86888 -0.417756 0
M  V30 5100 H 479.279 3.61012 1.52243 0
M  V30 5101 H 480.976 3.82723 1.19684 0
M  V30 5102 H 477.566 4.28292 -0.162476 0
M  V30 5103 H 481.75 4.87188 -0.946651 0
M  V30 5104 H 477.006 5.76213 -2.04423 0
M  V30 5105 H 481.18 6.36465 -2.8264 0
M  V30 5106 H 478.807 6.80869 -3.38114 0
M  V30 5107 N 480.382 0.0267497 1.57577 0
M  V30 5108 C 481.629 -0.652404 1.91703 0
M  V30 5109 C 481.957 -1.72271 0.902936 0
M  V30 5110 O 481.212 -1.955 -0.0884843 0
M  V30 5111 C 481.511 -1.30914 3.3256 0
M  V30 5112 C 481.177 -0.369441 4.49384 0
M  V30 5113 C 479.839 -0.110791 4.81072 0
M  V30 5114 C 482.191 0.275971 5.20469 0
M  V30 5115 C 479.519 0.801116 5.81205 0
M  V30 5116 C 481.871 1.17592 6.21575 0
M  V30 5117 C 480.535 1.44348 6.51705 0
M  V30 5118 H 479.805 -0.238732 0.70149 0
M  V30 5119 H 482.452 0.0880091 1.91298 0
M  V30 5120 H 480.757 -2.12425 3.29216 0
M  V30 5121 H 482.454 -1.84115 3.56234 0
M  V30 5122 H 479.044 -0.581211 4.24641 0
M  V30 5123 H 483.228 0.0892 4.9622 0
M  V30 5124 H 478.484 1.01614 6.02897 0
M  V30 5125 H 482.658 1.68223 6.75777 0
M  V30 5126 H 480.285 2.15176 7.29111 0
M  V30 5127 N 481.861 -1.55662 -0.24637 0
M  V30 5128 C 482.791 -1.93377 -1.30873 0
M  V30 5129 C 483.772 -0.798773 -1.50179 0
M  V30 5130 O 484.957 -1.0591 -1.62778 0
M  V30 5131 C 482.087 -2.22893 -2.66338 0
M  V30 5132 C 481.041 -3.38649 -2.61727 0
M  V30 5133 C 480.367 -3.53708 -4.00992 0
M  V30 5134 C 481.667 -4.74323 -2.18666 0
M  V30 5135 H 483.361 -2.82363 -0.995552 0
M  V30 5136 H 480.907 -1.35854 -0.477464 0
M  V30 5137 H 482.86 -2.47866 -3.40794 0
M  V30 5138 H 481.584 -1.30733 -2.99293 0
M  V30 5139 H 480.243 -3.13685 -1.89729 0
M  V30 5140 H 479.891 -2.58967 -4.31214 0
M  V30 5141 H 479.591 -4.31551 -3.98795 0
M  V30 5142 H 481.115 -3.81003 -4.77147 0
M  V30 5143 H 482.529 -4.98665 -2.82854 0
M  V30 5144 H 480.926 -5.55273 -2.27579 0
M  V30 5145 H 481.996 -4.71349 -1.13834 0
M  V30 5146 N 483.339 0.512053 -1.4905 0
M  V30 5147 C 484.302 1.59704 -1.64399 0
M  V30 5148 C 485.302 1.52285 -0.516317 0
M  V30 5149 O 486.492 1.55635 -0.782527 0
M  V30 5150 C 483.624 2.9935 -1.63102 0
M  V30 5151 H 484.817 1.47428 -2.61161 0
M  V30 5152 H 482.37 0.735469 -1.37915 0
M  V30 5153 H 483.105 3.17116 -0.678836 0
M  V30 5154 H 482.89 3.06144 -2.44986 0
M  V30 5155 H 484.38 3.782 -1.77072 0
M  V30 5156 N 484.817 1.37938 0.762283 0
M  V30 5157 C 486.233 1.18945 1.06415 0
M  V30 5158 C 486.433 0.0321163 2.01474 0
M  V30 5159 O 485.489 -0.624844 2.44647 0
M  V30 5160 C 486.802 2.51218 1.65258 0
M  V30 5161 C 488.35 2.57824 1.7747 0
M  V30 5162 C 488.825 3.90251 2.39725 0
M  V30 5163 N 490.316 3.91744 2.47166 0
M  V30 5164 C 491.051 4.90966 2.96209 0
M  V30 5165 N 490.547 6.00585 3.45354 0
M  V30 5166 N 492.34 4.78363 2.9517 0
M  V30 5167 H 484.491 2.11994 0.131301 0
M  V30 5168 H 486.754 0.940262 0.120879 0
M  V30 5169 H 486.46 3.36317 1.02878 0
M  V30 5170 H 486.334 2.68989 2.64433 0
M  V30 5171 H 488.721 1.73126 2.3898 0
M  V30 5172 H 488.802 2.43928 0.770241 0
M  V30 5173 H 488.446 4.75368 1.78852 0
M  V30 5174 H 488.376 4.01454 3.40796 0
M  V30 5175 H 490.867 3.12563 2.12397 0
M  V30 5176 H 491.18 6.72236 3.81207 0
M  V30 5177 H 489.525 6.04217 3.43434 0
M  V30 5178 H 492.716 3.91841 2.56082 0
M  V30 5179 H 492.889 5.55843 3.33081 0
M  V30 5180 N 486.295 -0.989507 1.22664 0
M  V30 5181 C 487.572 -1.70326 0.961688 0
M  V30 5182 C 487.952 -2.04537 -0.522279 0
M  V30 5183 O 487.3 -1.73136 -1.49118 0
M  V30 5184 C 487.51 -2.95135 1.86269 0
M  V30 5185 C 488.858 -3.67842 2.12078 0
M  V30 5186 O 489.882 -3.0515 1.83745 0
M  V30 5187 O 488.741 -4.80644 2.60083 0
M  V30 5188 H 485.835 -0.743589 0.361946 0
M  V30 5189 H 488.381 -1.04555 1.33665 0
M  V30 5190 H 487.153 -2.66382 2.8663 0
M  V30 5191 H 486.776 -3.68645 1.48952 0
M  V30 5192 N 487.773 -1.03688 -1.18687 0
M  V30 5193 C 488.72 -0.624624 -2.22187 0
M  V30 5194 C 489.69 0.365636 -1.62026 0
M  V30 5195 O 490.875 0.260481 -1.89014 0
M  V30 5196 C 488.015 0.0101738 -3.45099 0
M  V30 5197 C 487.128 -1.02709 -4.19613 0
M  V30 5198 C 486.263 -0.361213 -5.2997 0
M  V30 5199 C 485.302 -1.38384 -5.96252 0
M  V30 5200 N 484.439 -0.743196 -6.98155 0
M  V30 5201 H 489.279 -1.51176 -2.56807 0
M  V30 5202 H 486.816 -0.75636 -1.26165 0
M  V30 5203 H 488.774 0.395528 -4.15321 0
M  V30 5204 H 487.404 0.860848 -3.1111 0
M  V30 5205 H 486.456 -1.53043 -3.48256 0
M  V30 5206 H 487.768 -1.80398 -4.65036 0
M  V30 5207 H 486.922 0.0785537 -6.06649 0
M  V30 5208 H 485.661 0.447799 -4.8564 0
M  V30 5209 H 484.666 -1.83378 -5.18317 0
M  V30 5210 H 485.891 -2.19448 -6.42666 0
M  V30 5211 H 483.837 0.0455789 -6.55984 0
M  V30 5212 H 483.754 -1.45784 -7.41811 0
M  V30 5213 H 485.022 -0.327698 -7.78811 0
M  V30 5214 N 489.251 1.34841 -0.815825 0
M  V30 5215 C 490.479 2.0273 -0.413294 0
M  V30 5216 C 490.894 1.61459 0.978599 0
M  V30 5217 O 490.251 0.816584 1.63212 0
M  V30 5218 C 490.302 3.58058 -0.497676 0
M  V30 5219 O 490.023 3.97832 -1.8347 0
M  V30 5220 C 491.524 4.4321 -0.0891339 0
M  V30 5221 H 488.744 0.649956 -0.166728 0
M  V30 5222 H 491.288 1.72267 -1.10201 0
M  V30 5223 H 489.443 3.87136 0.142886 0
M  V30 5224 H 489.857 4.92501 -1.80396 0
M  V30 5225 H 491.331 5.5164 -0.199274 0
M  V30 5226 H 491.808 4.28432 0.966571 0
M  V30 5227 H 492.414 4.19446 -0.703214 0
M  V30 5228 N 490.729 0.570148 1.46925 0
M  V30 5229 C 491.659 -0.158274 2.32963 0
M  V30 5230 C 492.64 -0.896093 1.44583 0
M  V30 5231 O 493.825 -0.874022 1.7342 0
M  V30 5232 C 490.955 -1.18055 3.26619 0
M  V30 5233 C 489.909 -0.558379 4.24342 0
M  V30 5234 C 489.235 -1.68623 5.07415 0
M  V30 5235 C 490.535 0.496295 5.19937 0
M  V30 5236 H 492.229 0.560046 2.94115 0
M  V30 5237 H 489.775 0.270775 1.41431 0
M  V30 5238 H 491.728 -1.69841 3.85658 0
M  V30 5239 H 490.452 -1.92899 2.63548 0
M  V30 5240 H 489.111 -0.0617157 3.66548 0
M  V30 5241 H 488.759 -2.42402 4.40738 0
M  V30 5242 H 488.459 -1.27564 5.73586 0
M  V30 5243 H 489.983 -2.20709 5.69315 0
M  V30 5244 H 491.397 0.0640052 5.73264 0
M  V30 5245 H 489.794 0.82649 5.94381 0
M  V30 5246 H 490.864 1.38735 4.6463 0
M  V30 5247 N 492.207 -1.54576 0.307264 0
M  V30 5248 C 493.139 -2.21212 -0.599807 0
M  V30 5249 C 494.152 -1.20685 -1.09266 0
M  V30 5250 O 495.341 -1.47244 -1.00903 0
M  V30 5251 C 492.441 -2.84994 -1.83389 0
M  V30 5252 C 491.614 -4.11511 -1.48248 0
M  V30 5253 C 490.673 -4.59038 -2.57237 0
M  V30 5254 O 489.699 -5.24095 -2.22065 0
M  V30 5255 N 490.901 -4.31884 -3.87887 0
M  V30 5256 H 493.666 -2.99686 -0.0293075 0
M  V30 5257 H 491.227 -1.61379 0.129738 0
M  V30 5258 H 493.219 -3.1372 -2.5566 0
M  V30 5259 H 491.789 -2.10324 -2.31263 0
M  V30 5260 H 491.009 -3.89728 -0.592122 0
M  V30 5261 H 492.297 -4.93879 -1.22316 0
M  V30 5262 H 491.695 -3.79778 -4.19268 0
M  V30 5263 H 490.252 -4.65304 -4.56438 0
M  V30 5264 N 493.685 -0.035106 -1.57561 0
M  V30 5265 C 494.632 0.94474 -2.10578 0
M  V30 5266 C 495.602 1.3192 -1.00927 0
M  V30 5267 O 496.787 1.41147 -1.28382 0
M  V30 5268 C 493.927 2.21982 -2.64231 0
M  V30 5269 C 493.04 1.90128 -3.87911 0
M  V30 5270 C 492.175 3.11975 -4.29936 0
M  V30 5271 C 491.214 2.75968 -5.46359 0
M  V30 5272 N 490.351 3.90459 -5.83512 0
M  V30 5273 H 495.191 0.485717 -2.94015 0
M  V30 5274 H 492.728 0.228143 -1.4532 0
M  V30 5275 H 494.686 2.96572 -2.9343 0
M  V30 5276 H 493.316 2.6549 -1.83616 0
M  V30 5277 H 492.368 1.05755 -3.65404 0
M  V30 5278 H 493.68 1.59613 -4.72573 0
M  V30 5279 H 492.834 3.9488 -4.60603 0
M  V30 5280 H 491.573 3.45657 -3.44053 0
M  V30 5281 H 490.578 1.91478 -5.1538 0
M  V30 5282 H 491.803 2.43497 -6.33945 0
M  V30 5283 H 489.749 4.23971 -5.00584 0
M  V30 5284 H 489.666 3.63588 -6.62827 0
M  V30 5285 H 490.934 4.7405 -6.18787 0
M  V30 5286 N 495.163 1.55791 0.238111 0
M  V30 5287 C 496.11 1.9105 1.29493 0
M  V30 5288 C 497.08 0.765733 1.47397 0
M  V30 5289 O 498.265 1.02017 1.61236 0
M  V30 5290 C 495.405 2.21826 2.64362 0
M  V30 5291 C 494.518 3.49153 2.54394 0
M  V30 5292 C 493.653 3.69455 3.81676 0
M  V30 5293 C 492.692 4.90353 3.66361 0
M  V30 5294 N 491.829 5.07131 4.85554 0
M  V30 5295 H 496.669 2.81172 0.987233 0
M  V30 5296 H 494.206 1.39179 0.476203 0
M  V30 5297 H 496.164 2.37675 3.4288 0
M  V30 5298 H 494.794 1.34897 2.93262 0
M  V30 5299 H 493.846 3.41587 1.67399 0
M  V30 5300 H 495.158 4.37818 2.38991 0
M  V30 5301 H 494.312 3.85311 4.68636 0
M  V30 5302 H 493.051 2.7904 3.99985 0
M  V30 5303 H 492.056 4.74464 2.77784 0
M  V30 5304 H 493.281 5.82237 3.49538 0
M  V30 5305 H 491.227 4.19654 5.04209 0
M  V30 5306 H 491.144 5.89899 4.72816 0
M  V30 5307 H 492.412 5.27407 5.73988 0
M  V30 5308 N 496.642 -0.504142 1.49319 0
M  V30 5309 C 497.882 -1.26867 1.60263 0
M  V30 5310 C 498.246 -1.89924 0.281578 0
M  V30 5311 O 499.447 -2.67479 0.266176 0
M  V30 5312 C 497.718 -2.30956 2.72753 0
M  V30 5313 S 499.277 -3.1679 3.03628 0
M  V30 5314 H 496.095 -0.431198 0.565322 0
M  V30 5315 H 498.697 -0.571407 1.86963 0
M  V30 5316 H 497.401 -1.83156 3.67263 0
M  V30 5317 H 496.932 -3.05356 2.48035 0
M  V30 5318 H 498.947 -4.31549 2.44908 0
M  V30 5319 N 498.12 -1.38341 -0.754957 0
M  V30 5320 C 499.35 -1.37504 -1.54195 0
M  V30 5321 C 499.758 0.0373787 -1.89163 0
M  V30 5322 O 499.101 1.01402 -1.53178 0
M  V30 5323 C 499.163 -2.16488 -2.87008 0
M  V30 5324 C 498.827 -3.65311 -2.74585 0
M  V30 5325 C 499.824 -4.58834 -2.44474 0
M  V30 5326 C 497.509 -4.08649 -2.9208 0
M  V30 5327 C 499.503 -5.93675 -2.32011 0
M  V30 5328 C 497.19 -5.43571 -2.79237 0
M  V30 5329 C 498.188 -6.35898 -2.49245 0
M  V30 5330 O 497.876 -7.68338 -2.36458 0
M  V30 5331 H 497.608 -0.472159 -0.483779 0
M  V30 5332 H 500.162 -1.82515 -0.94221 0
M  V30 5333 H 498.392 -1.66194 -3.49166 0
M  V30 5334 H 500.081 -2.08076 -3.4851 0
M  V30 5335 H 500.847 -4.26657 -2.30627 0
M  V30 5336 H 496.726 -3.37134 -3.14422 0
M  V30 5337 H 500.27 -6.65706 -2.08522 0
M  V30 5338 H 496.167 -5.75345 -2.92657 0
M  V30 5339 H 496.935 -7.78845 -2.5168 0
M  V30 5340 N 499.598 0.982988 -1.23187 0
M  V30 5341 C 500.528 2.09301 -1.03515 0
M  V30 5342 C 501.509 1.70035 0.0471136 0
M  V30 5343 O 502.694 1.93847 -0.117029 0
M  V30 5344 C 499.824 3.4167 -0.622791 0
M  V30 5345 C 498.778 3.94828 -1.65211 0
M  V30 5346 C 498.104 5.23362 -1.09527 0
M  V30 5347 C 499.404 4.2439 -3.04451 0
M  V30 5348 H 501.098 2.26016 -1.96359 0
M  V30 5349 H 498.644 1.08611 -0.945501 0
M  V30 5350 H 500.597 4.18746 -0.472233 0
M  V30 5351 H 499.321 3.24811 0.341329 0
M  V30 5352 H 497.98 3.19895 -1.79061 0
M  V30 5353 H 497.628 5.02852 -0.122211 0
M  V30 5354 H 497.328 5.59895 -1.783 0
M  V30 5355 H 498.852 6.03062 -0.956511 0
M  V30 5356 H 500.266 4.92225 -2.93917 0
M  V30 5357 H 498.663 4.72118 -3.70438 0
M  V30 5358 H 499.733 3.31765 -3.53638 0
M  V30 5359 N 501.076 1.04316 1.18135 0
M  V30 5360 C 501.986 0.646876 2.25505 0
M  V30 5361 C 503.002 -0.328008 1.7088 0
M  V30 5362 O 504.178 -0.182309 2.00573 0
M  V30 5363 C 501.243 0.0185664 3.46695 0
M  V30 5364 C 500.304 1.04277 4.16443 0
M  V30 5365 C 499.537 0.444352 5.31847 0
M  V30 5366 O 499.76 -0.748735 5.65465 0
M  V30 5367 O 498.694 1.17428 5.90334 0
M  V30 5368 H 502.52 1.54147 2.61672 0
M  V30 5369 H 500.105 0.814188 1.25265 0
M  V30 5370 H 501.987 -0.331068 4.20097 0
M  V30 5371 H 500.662 -0.849814 3.12346 0
M  V30 5372 H 499.569 1.44425 3.45098 0
M  V30 5373 H 500.902 1.882 4.54798 0
M  V30 5374 N 502.554 -1.34406 0.822964 0
M  V30 5375 C 503.486 -2.28305 0.202375 0
M  V30 5376 C 504.499 -1.5103 -0.60777 0
M  V30 5377 O 505.688 -1.73057 -0.437444 0
M  V30 5378 C 502.788 -3.30836 -0.734911 0
M  V30 5379 C 501.961 -4.37388 0.0324177 0
M  V30 5380 C 501.02 -5.1968 -0.825803 0
M  V30 5381 O 500.046 -5.68556 -0.270771 0
M  V30 5382 N 501.248 -5.39393 -2.14558 0
M  V30 5383 H 504.013 -2.82201 1.00909 0
M  V30 5384 H 501.574 -1.4693 0.67993 0
M  V30 5385 H 503.566 -3.82786 -1.31365 0
M  V30 5386 H 502.136 -2.77334 -1.44238 0
M  V30 5387 H 501.356 -3.86152 0.792469 0
M  V30 5388 H 502.644 -5.05702 0.560633 0
M  V30 5389 H 502.042 -5.01357 -2.62025 0
M  V30 5390 H 500.599 -5.94461 -2.67318 0
M  V30 5391 N 504.032 -0.577932 -1.46621 0
M  V30 5392 C 504.979 0.158048 -2.30258 0
M  V30 5393 C 505.949 0.888669 -1.40328 0
M  V30 5394 O 507.134 0.880283 -1.6928 0
M  V30 5395 C 504.274 1.16884 -3.24703 0
M  V30 5396 C 503.387 0.442163 -4.29731 0
M  V30 5397 C 502.522 1.44007 -5.11308 0
M  V30 5398 C 501.561 0.69952 -6.0809 0
M  V30 5399 N 500.698 1.64525 -6.82551 0
M  V30 5400 H 505.538 -0.561242 -2.92667 0
M  V30 5401 H 503.075 -0.288591 -1.44241 0
M  V30 5402 H 505.033 1.7677 -3.779 0
M  V30 5403 H 503.663 1.85591 -2.64113 0
M  V30 5404 H 502.715 -0.271632 -3.79429 0
M  V30 5405 H 504.027 -0.136992 -4.98612 0
M  V30 5406 H 503.181 2.11186 -5.68758 0
M  V30 5407 H 501.92 2.05315 -4.42377 0
M  V30 5408 H 500.925 0.0139217 -5.49798 0
M  V30 5409 H 502.15 0.091894 -6.79038 0
M  V30 5410 H 500.096 2.24653 -6.16334 0
M  V30 5411 H 500.013 1.11878 -7.47676 0
M  V30 5412 H 501.281 2.30754 -7.44562 0
M  V30 5413 N 505.51 1.54411 -0.315457 0
M  V30 5414 C 506.738 2.04833 0.291738 0
M  V30 5415 C 507.153 1.19203 1.46411 0
M  V30 5416 O 506.51 0.220867 1.81159 0
M  V30 5417 C 506.561 3.53969 0.73404 0
M  V30 5418 O 506.282 4.36346 -0.391682 0
M  V30 5419 C 507.783 4.2045 1.40489 0
M  V30 5420 H 505.003 0.668195 0.0612947 0
M  V30 5421 H 507.547 1.99276 -0.45929 0
M  V30 5422 H 505.702 3.5984 1.43506 0
M  V30 5423 H 506.116 5.24481 -0.0447088 0
M  V30 5424 H 507.59 5.26278 1.66539 0
M  V30 5425 H 508.067 3.71067 2.3496 0
M  V30 5426 H 508.673 4.18694 0.746662 0
M  V30 5427 N 506.988 0.0434614 1.5754 0
M  V30 5428 C 508.234 -0.632971 1.92669 0
M  V30 5429 C 508.567 -1.70947 0.921446 0
M  V30 5430 O 507.842 -1.94426 -0.0537202 0
M  V30 5431 C 508.125 -1.23619 3.38216 0
M  V30 5432 C 507.978 -0.168274 4.49485 0
M  V30 5433 C 509.297 -2.15008 3.84005 0
M  V30 5434 H 506.416 -0.228629 0.700641 0
M  V30 5435 H 509.058 0.103651 1.89717 0
M  V30 5436 H 507.208 -1.864 3.40863 0
M  V30 5437 H 508.88 0.463196 4.58969 0
M  V30 5438 H 507.123 0.504581 4.30855 0
M  V30 5439 H 507.794 -0.630218 5.48391 0
M  V30 5440 H 510.27 -1.62198 3.83185 0
M  V30 5441 H 509.146 -2.54161 4.86511 0
M  V30 5442 H 509.407 -3.04707 3.20322 0
M  V30 5443 N 508.466 -1.55915 -0.229846 0
M  V30 5444 C 509.706 -1.80314 -0.962614 0
M  V30 5445 C 510.07 -0.61568 -1.81861 0
M  V30 5446 O 511.271 -0.738795 -2.58448 0
M  V30 5447 C 509.542 -3.0956 -1.78627 0
M  V30 5448 S 511.101 -3.55243 -2.57581 0
M  V30 5449 H 507.919 -0.633142 -0.323499 0
M  V30 5450 H 510.521 -1.94155 -0.228919 0
M  V30 5451 H 509.225 -3.94033 -1.14742 0
M  V30 5452 H 508.756 -2.98503 -2.56241 0
M  V30 5453 H 510.771 -3.17924 -3.80971 0
M  V30 5454 N 509.944 0.496216 -1.49584 0
M  V30 5455 C 511.192 1.24756 -1.58998 0
M  V30 5456 C 511.513 1.92968 -0.280775 0
M  V30 5457 O 510.783 1.82959 0.700198 0
M  V30 5458 H 509.363 0.463471 -0.585836 0
M  V30 5459 H 512.025 0.574678 -1.86235 0
M  V30 5460 H 511.121 2.00895 -2.38847 0
M  V30 5461 N 511.423 1.38739 0.74761 0
M  V30 5462 C 512.333 1.38696 1.89211 0
M  V30 5463 C 513.349 0.283303 1.71678 0
M  V30 5464 O 514.525 0.522713 1.94498 0
M  V30 5465 C 511.59 1.21662 3.24653 0
M  V30 5466 C 510.651 2.41886 3.54669 0
M  V30 5467 C 509.884 2.25655 4.83648 0
M  V30 5468 O 510.107 1.25339 5.56459 0
M  V30 5469 O 509.041 3.14372 5.13277 0
M  V30 5470 H 512.867 2.35143 1.92202 0
M  V30 5471 H 510.452 1.19721 0.893708 0
M  V30 5472 H 512.334 1.14246 4.05618 0
M  V30 5473 H 511.009 0.283024 3.2246 0
M  V30 5474 H 509.916 2.54877 2.73841 0
M  V30 5475 H 511.249 3.33895 3.61628 0
M  V30 5476 N 512.901 -0.976442 1.23707 0
M  V30 5477 C 513.849 -2.09078 1.01927 0
M  V30 5478 C 514.843 -1.69345 -0.0430193 0
M  V30 5479 O 516.049 -1.79659 0.110814 0
M  V30 5480 H 512.424 -0.68398 0.312531 0
M  V30 5481 H 514.395 -2.24614 1.96447 0
M  V30 5482 C 513.144 -3.41919 0.631385 0
M  V30 5483 H 512.467 -3.72946 1.44053 0
M  V30 5484 H 513.907 -4.20817 0.518532 0
M  V30 5485 C 512.366 -3.30357 -0.660723 0
M  V30 5486 O 512.896 -3.63542 -1.70881 0
M  V30 5487 N 511.102 -2.83507 -0.638139 0
M  V30 5488 H 510.649 -2.567 0.215108 0
M  V30 5489 H 510.607 -2.76153 -1.50289 0
M  V30 5490 N 514.379 -1.04941 -1.1758 0
M  V30 5491 C 515.309 -0.669172 -2.23706 0
M  V30 5492 C 516.29 0.331835 -1.66832 0
M  V30 5493 O 517.475 0.209988 -1.93061 0
M  V30 5494 C 514.605 -0.0404889 -3.47276 0
M  V30 5495 C 513.559 -0.965983 -4.16957 0
M  V30 5496 C 512.885 -0.201312 -5.34321 0
M  V30 5497 C 514.185 -2.28902 -4.69469 0
M  V30 5498 H 515.879 -1.55639 -2.55767 0
M  V30 5499 H 513.425 -0.749793 -1.22939 0
M  V30 5500 H 515.378 0.237298 -4.20731 0
M  V30 5501 H 514.102 0.881658 -3.14475 0
M  V30 5502 H 512.761 -1.22829 -3.45411 0
M  V30 5503 H 512.409 0.723519 -4.97769 0
M  V30 5504 H 512.109 -0.817968 -5.81879 0
M  V30 5505 H 513.633 0.0692499 -6.10561 0
M  V30 5506 H 515.047 -2.07132 -5.34574 0
M  V30 5507 H 513.444 -2.85942 -5.27596 0
M  V30 5508 H 514.514 -2.92937 -3.86414 0
M  V30 5509 N 515.857 1.33968 -0.830081 0
M  V30 5510 C 517.268 1.80439 -0.479455 0
M  V30 5511 C 517.619 1.68756 1.00079 0
M  V30 5512 O 516.744 1.23171 1.77927 0
M  V30 5513 C 517.339 3.27611 -0.863505 0
M  V30 5514 C 515.898 3.72133 -0.565145 0
M  V30 5515 C 515.045 2.55549 -1.07657 0
M  V30 5516 H 517.996 1.21614 -1.0196 0
M  V30 5517 H 518.017 3.8012 -0.170083 0
M  V30 5518 H 517.529 3.36082 -1.94089 0
M  V30 5519 H 515.63 3.69196 0.502536 0
M  V30 5520 H 515.743 4.65963 -1.11422 0
M  V30 5521 H 514.107 2.49788 -0.497807 0
M  V30 5522 H 514.89 2.66786 -2.16055 0
M  V30 5523 N 517.335 0.585699 1.46312 0
M  V30 5524 C 518.746 0.159938 1.86014 0
M  V30 5525 C 519.097 -1.27775 1.48889 0
M  V30 5526 O 518.222 -1.96559 0.90519 0
M  V30 5527 C 518.817 0.283485 3.37612 0
M  V30 5528 C 517.376 -0.0874256 3.76298 0
M  V30 5529 C 516.523 0.618055 2.70325 0
M  V30 5530 H 519.474 0.793737 1.37425 0
M  V30 5531 H 519.495 -0.490348 3.77327 0
M  V30 5532 H 519.007 1.32995 3.64601 0
M  V30 5533 H 517.108 -1.13391 3.54927 0
M  V30 5534 H 517.221 0.290975 4.78216 0
M  V30 5535 H 515.585 0.057993 2.54634 0
M  V30 5536 H 516.368 1.66623 3.00153 0
M  V30 5537 N 518.813 -1.54241 0.323641 0
M  V30 5538 C 519.743 -2.27289 -0.534993 0
M  V30 5539 C 520.724 -1.28087 -1.11927 0
M  V30 5540 O 521.909 -1.56899 -1.14439 0
M  V30 5541 C 519.039 -3.03075 -1.69596 0
M  V30 5542 C 517.993 -4.09614 -1.24098 0
M  V30 5543 C 517.319 -4.73242 -2.4889 0
M  V30 5544 C 518.619 -5.21087 -0.355789 0
M  V30 5545 H 520.313 -2.99308 0.0743257 0
M  V30 5546 H 517.859 -1.43952 0.0371874 0
M  V30 5547 H 519.812 -3.52907 -2.30293 0
M  V30 5548 H 518.536 -2.28673 -2.33187 0
M  V30 5549 H 517.195 -3.60666 -0.656945 0
M  V30 5550 H 516.843 -3.95455 -3.10845 0
M  V30 5551 H 516.543 -5.45209 -2.19138 0
M  V30 5552 H 518.067 -5.25848 -3.10348 0
M  V30 5553 H 519.481 -5.66675 -0.869042 0
M  V30 5554 H 517.878 -5.9991 -0.151045 0
M  V30 5555 H 518.948 -4.81005 0.613339 0
M  V30 5556 N 520.291 -0.0518155 -1.57515 0
M  V30 5557 C 521.519 0.631395 -1.9703 0
M  V30 5558 C 521.934 1.64341 -0.92938 0
M  V30 5559 O 521.291 1.82296 0.0863266 0
M  V30 5560 C 521.342 1.31774 -3.36627 0
M  V30 5561 O 521.063 0.346247 -4.3673 0
M  V30 5562 C 522.564 2.09065 -3.90905 0
M  V30 5563 H 519.784 0.172576 -0.648428 0
M  V30 5564 H 522.328 -0.118306 -2.04158 0
M  V30 5565 H 520.483 2.01867 -3.30649 0
M  V30 5566 H 520.897 0.836226 -5.17791 0
M  V30 5567 H 522.371 2.52508 -4.9086 0
M  V30 5568 H 522.848 2.93908 -3.26366 0
M  V30 5569 H 523.454 1.43882 -4.00223 0
M  V30 5570 N 521.769 1.56035 0.221574 0
M  V30 5571 C 522.999 1.82864 0.961468 0
M  V30 5572 C 523.407 0.628703 1.78449 0
M  V30 5573 O 522.75 -0.412109 1.79018 0
M  V30 5574 C 522.812 3.03425 1.92804 0
M  V30 5575 C 522.476 4.38429 1.28954 0
M  V30 5576 C 523.473 5.15441 0.679431 0
M  V30 5577 C 521.158 4.85151 1.30131 0
M  V30 5578 C 523.152 6.37337 0.0896148 0
M  V30 5579 C 520.839 6.06989 0.707651 0
M  V30 5580 C 521.837 6.82923 0.102855 0
M  V30 5581 O 521.525 8.02456 -0.48157 0
M  V30 5582 H 521.257 0.611883 0.28736 0
M  V30 5583 H 523.811 2.0397 0.241932 0
M  V30 5584 H 522.041 2.78138 2.68656 0
M  V30 5585 H 523.73 3.17127 2.53348 0
M  V30 5586 H 524.496 4.80452 0.662661 0
M  V30 5587 H 520.375 4.26021 1.76145 0
M  V30 5588 H 523.919 6.96547 -0.383069 0
M  V30 5589 H 519.816 6.41451 0.721834 0
M  V30 5590 H 520.584 8.17636 -0.375887 0
M  V30 5591 N 523.247 -0.488276 1.49845 0
M  V30 5592 C 524.524 -1.24959 1.50481 0
M  V30 5593 C 524.904 -2.09735 0.239698 0
M  V30 5594 O 524.252 -2.14865 -0.777524 0
M  V30 5595 C 524.462 -2.0954 2.79095 0
M  V30 5596 C 525.81 -2.68305 3.29086 0
M  V30 5597 O 526.834 -2.19797 2.80299 0
M  V30 5598 O 525.693 -3.56643 4.14087 0
M  V30 5599 H 522.787 -0.566133 0.602845 0
M  V30 5600 H 525.333 -0.501504 1.6212 0
M  V30 5601 H 524.105 -1.46958 3.62656 0
M  V30 5602 H 523.728 -2.91517 2.70377 0
M  V30 5603 N 524.725 -1.39134 -0.740242 0
M  V30 5604 C 525.657 -1.33332 -1.86428 0
M  V30 5605 C 526.67 -0.243042 -1.60976 0
M  V30 5606 O 527.859 -0.501608 -1.71307 0
M  V30 5607 C 524.959 -1.04626 -3.22346 0
M  V30 5608 C 524.132 -2.24826 -3.75196 0
M  V30 5609 C 523.191 -1.92659 -4.89662 0
M  V30 5610 O 522.217 -2.6529 -5.03597 0
M  V30 5611 N 523.419 -0.889575 -5.73643 0
M  V30 5612 H 526.184 -2.30196 -1.91911 0
M  V30 5613 H 523.745 -1.33168 -0.920756 0
M  V30 5614 H 525.737 -0.811347 -3.96484 0
M  V30 5615 H 524.307 -0.165129 -3.12164 0
M  V30 5616 H 523.527 -2.64301 -2.9247 0
M  V30 5617 H 524.815 -3.05015 -4.07239 0
M  V30 5618 H 524.213 -0.287529 -5.64969 0
M  V30 5619 H 522.77 -0.714557 -6.47871 0
M  V30 5620 N 526.204 0.969867 -1.24223 0
M  V30 5621 C 527.134 2.08191 -1.05729 0
M  V30 5622 C 528.115 1.70075 0.0290765 0
M  V30 5623 O 529.3 1.93712 -0.137583 0
M  V30 5624 C 526.43 3.40991 -0.658995 0
M  V30 5625 C 525.384 3.93054 -1.69389 0
M  V30 5626 C 524.71 5.22171 -1.15072 0
M  V30 5627 C 526.01 4.21137 -3.08935 0
M  V30 5628 H 527.704 2.23921 -1.98746 0
M  V30 5629 H 525.25 1.07602 -0.956967 0
M  V30 5630 H 527.203 4.18221 -0.51662 0
M  V30 5631 H 525.927 3.25155 0.30686 0
M  V30 5632 H 524.586 3.17977 -1.82444 0
M  V30 5633 H 524.234 5.02694 -0.175539 0
M  V30 5634 H 523.934 5.57973 -1.84229 0
M  V30 5635 H 525.458 6.02013 -1.02042 0
M  V30 5636 H 526.872 4.8908 -2.99121 0
M  V30 5637 H 525.269 4.68163 -3.75425 0
M  V30 5638 H 526.339 3.27996 -3.57137 0
M  V30 5639 N 527.682 1.05563 1.17022 0
M  V30 5640 C 528.629 0.659893 2.21165 0
M  V30 5641 C 529.599 -0.339813 1.62587 0
M  V30 5642 O 530.784 -0.230378 1.89404 0
M  V30 5643 C 527.924 0.0447297 3.45071 0
M  V30 5644 C 527.037 1.09372 4.17926 0
M  V30 5645 C 526.172 0.445481 5.29329 0
M  V30 5646 C 525.211 1.47852 5.93975 0
M  V30 5647 N 524.348 0.854172 6.96885 0
M  V30 5648 H 529.188 1.55243 2.54369 0
M  V30 5649 H 526.725 0.776336 1.24946 0
M  V30 5650 H 528.683 -0.329404 4.15898 0
M  V30 5651 H 527.313 -0.811244 3.1244 0
M  V30 5652 H 526.365 1.58564 3.45777 0
M  V30 5653 H 527.677 1.87773 4.62107 0
M  V30 5654 H 526.831 0.0179688 6.06697 0
M  V30 5655 H 525.57 -0.370481 4.86291 0
M  V30 5656 H 524.575 1.91601 5.15334 0
M  V30 5657 H 525.8 2.29645 6.39093 0
M  V30 5658 H 523.746 0.0587882 6.55974 0
M  V30 5659 H 523.663 1.57567 7.39397 0
M  V30 5660 H 524.931 0.451559 7.78191 0
M  V30 5661 N 529.16 -1.33526 0.837174 0
M  V30 5662 C 530.437 -1.92369 0.354065 0
M  V30 5663 C 530.817 -1.76348 -1.16038 0
M  V30 5664 O 530.165 -1.15083 -1.97403 0
M  V30 5665 C 530.375 -3.39728 0.799101 0
M  V30 5666 C 531.723 -4.16877 0.806139 0
M  V30 5667 O 532.747 -3.48373 0.742597 0
M  V30 5668 O 531.606 -5.39166 0.892345 0
M  V30 5669 H 528.7 -0.820952 0.0998378 0
M  V30 5670 H 531.246 -1.42409 0.922913 0
M  V30 5671 H 530.018 -3.45254 1.84162 0
M  V30 5672 H 529.641 -3.97062 0.206731 0
M  V30 5673 N 530.638 -0.59345 -1.46 0
M  V30 5674 C 531.568 0.121192 -2.33185 0
M  V30 5675 C 532.549 0.872977 -1.4599 0
M  V30 5676 O 533.734 0.846321 -1.74789 0
M  V30 5677 C 530.864 1.12844 -3.28456 0
M  V30 5678 C 529.818 0.4908 -4.25177 0
M  V30 5679 C 529.144 1.60529 -5.10034 0
M  V30 5680 C 530.444 -0.578949 -5.19081 0
M  V30 5681 H 532.138 -0.606767 -2.93187 0
M  V30 5682 H 529.684 -0.293242 -1.40983 0
M  V30 5683 H 531.637 1.63684 -3.88311 0
M  V30 5684 H 530.361 1.88681 -2.66584 0
M  V30 5685 H 529.02 0.00339328 -3.666 0
M  V30 5686 H 528.668 2.35359 -4.44539 0
M  V30 5687 H 528.368 1.18422 -5.75543 0
M  V30 5688 H 529.892 2.11623 -5.72755 0
M  V30 5689 H 531.306 -0.155199 -5.7309 0
M  V30 5690 H 529.703 -0.920947 -5.92991 0
M  V30 5691 H 530.773 -1.46109 -4.62364 0
M  V30 5692 N 532.116 1.54067 -0.331816 0
M  V30 5693 C 533.064 2.26105 0.54582 0
M  V30 5694 C 534.058 1.27816 1.11173 0
M  V30 5695 O 535.264 1.45565 1.05882 0
M  V30 5696 H 531.639 0.726363 0.194683 0
M  V30 5697 H 533.61 2.98282 -0.083931 0
M  V30 5698 C 532.359 3.03814 1.69092 0
M  V30 5699 H 531.682 3.79269 1.26473 0
M  V30 5700 H 533.122 3.57453 2.28043 0
M  V30 5701 C 531.581 2.12606 2.61343 0
M  V30 5702 O 532.111 1.71437 3.6328 0
M  V30 5703 N 530.317 1.77925 2.29763 0
M  V30 5704 H 529.864 2.11602 1.46909 0
M  V30 5705 H 529.822 1.1718 2.91747 0
M  V30 5706 N 533.594 0.0601682 1.57485 0
M  V30 5707 C 534.524 -0.90889 2.15085 0
M  V30 5708 C 535.505 -1.31838 1.07484 0
M  V30 5709 O 536.69 -1.3915 1.35466 0
M  V30 5710 C 533.82 -2.18059 2.7031 0
M  V30 5711 C 532.774 -1.91088 3.82974 0
M  V30 5712 C 532.1 -3.24789 4.24754 0
M  V30 5713 C 533.4 -1.22535 5.07723 0
M  V30 5714 H 535.094 -0.429093 2.96309 0
M  V30 5715 H 532.64 -0.204952 1.42534 0
M  V30 5716 H 534.593 -2.86258 3.09248 0
M  V30 5717 H 533.317 -2.6826 1.8629 0
M  V30 5718 H 531.976 -1.25297 3.44523 0
M  V30 5719 H 531.624 -3.72809 3.37672 0
M  V30 5720 H 531.324 -3.07538 5.00694 0
M  V30 5721 H 532.848 -3.94205 4.66299 0
M  V30 5722 H 534.262 -1.80783 5.4405 0
M  V30 5723 H 532.659 -1.1558 5.88864 0
M  V30 5724 H 533.729 -0.202692 4.84476 0
M  V30 5725 N 535.072 -1.5615 -0.213296 0
M  V30 5726 C 536.002 -1.96109 -1.26742 0
M  V30 5727 C 536.983 -0.830448 -1.48451 0
M  V30 5728 O 538.168 -1.09339 -1.60495 0
M  V30 5729 C 535.298 -2.28492 -2.61551 0
M  V30 5730 C 534.252 -3.44124 -2.54485 0
M  V30 5731 C 533.578 -3.62134 -3.93399 0
M  V30 5732 C 534.878 -4.78855 -2.08556 0
M  V30 5733 H 536.572 -2.84412 -0.935434 0
M  V30 5734 H 534.118 -1.36836 -0.44854 0
M  V30 5735 H 536.071 -2.55039 -3.3546 0
M  V30 5736 H 534.795 -1.37052 -2.96453 0
M  V30 5737 H 533.454 -3.17639 -1.83033 0
M  V30 5738 H 533.102 -2.68055 -4.25623 0
M  V30 5739 H 532.802 -4.39913 -3.89551 0
M  V30 5740 H 534.326 -3.91038 -4.68958 0
M  V30 5741 H 535.74 -5.04552 -2.72213 0
M  V30 5742 H 534.137 -5.59975 -2.1575 0
M  V30 5743 H 535.207 -4.73657 -1.03811 0
M  V30 5744 N 536.55 0.480323 -1.50102 0
M  V30 5745 C 537.827 1.24159 -1.51142 0
M  V30 5746 C 538.207 2.09605 -0.250818 0
M  V30 5747 O 537.555 2.15274 0.766118 0
M  V30 5748 C 537.765 2.08057 -2.80202 0
M  V30 5749 C 539.113 2.66556 -3.30504 0
M  V30 5750 O 540.137 2.18308 -2.81461 0
M  V30 5751 O 538.996 3.54442 -4.15973 0
M  V30 5752 H 536.09 0.562928 -0.605839 0
M  V30 5753 H 538.636 0.492899 -1.62384 0
M  V30 5754 H 537.408 1.45032 -3.6343 0
M  V30 5755 H 537.031 2.90079 -2.71919 0
M  V30 5756 N 538.028 1.39524 0.732853 0
M  V30 5757 C 539.444 1.21176 1.03868 0
M  V30 5758 C 539.644 0.0748448 2.01361 0
M  V30 5759 O 538.7 -0.57281 2.45917 0
M  V30 5760 C 540.013 2.54667 1.59892 0
M  V30 5761 C 541.561 2.6153 1.71962 0
M  V30 5762 C 542.036 3.95248 2.31394 0
M  V30 5763 N 543.527 3.96899 2.38801 0
M  V30 5764 C 544.262 4.97138 2.85729 0
M  V30 5765 N 543.758 6.07775 3.32537 0
M  V30 5766 N 545.551 4.84516 2.84957 0
M  V30 5767 H 537.702 2.12225 0.086304 0
M  V30 5768 H 539.965 0.942614 0.100907 0
M  V30 5769 H 539.671 3.38423 0.95721 0
M  V30 5770 H 539.545 2.74538 2.58668 0
M  V30 5771 H 541.932 1.78156 2.35254 0
M  V30 5772 H 542.013 2.45507 0.718327 0
M  V30 5773 H 541.657 4.79054 1.68729 0
M  V30 5774 H 541.587 4.08593 3.32204 0
M  V30 5775 H 544.078 3.16998 2.05719 0
M  V30 5776 H 544.391 6.8017 3.66862 0
M  V30 5777 H 542.736 6.11366 3.30541 0
M  V30 5778 H 545.927 3.97185 2.47713 0
M  V30 5779 H 546.1 5.62783 3.21215 0
M  V30 5780 N 539.506 -0.963266 1.24736 0
M  V30 5781 C 540.746 -1.72172 1.10165 0
M  V30 5782 C 541.11 -1.88731 -0.352784 0
M  V30 5783 O 542.311 -2.61549 -0.620107 0
M  V30 5784 C 540.582 -3.0724 1.82589 0
M  V30 5785 S 542.141 -3.98449 1.83803 0
M  V30 5786 H 538.959 -0.591901 0.393922 0
M  V30 5787 H 541.561 -1.14955 1.58132 0
M  V30 5788 H 540.265 -2.92851 2.87518 0
M  V30 5789 H 539.796 -3.69521 1.34973 0
M  V30 5790 H 541.811 -4.87805 0.908883 0
M  V30 5791 N 540.985 -1.06182 -1.16461 0
M  V30 5792 C 542.234 -0.772927 -1.86303 0
M  V30 5793 C 542.547 0.703187 -1.82523 0
M  V30 5794 O 543.753 1.10641 -2.47933 0
M  V30 5795 C 542.209 -1.33249 -3.34324 0
M  V30 5796 C 541.817 -2.83876 -3.46581 0
M  V30 5797 C 543.561 -1.12108 -4.09429 0
M  V30 5798 C 541.468 -3.33082 -4.88682 0
M  V30 5799 H 540.398 -0.285452 -0.697878 0
M  V30 5800 H 543.049 -1.28039 -1.31447 0
M  V30 5801 H 541.431 -0.7528 -3.88779 0
M  V30 5802 H 542.605 -3.47786 -3.02293 0
M  V30 5803 H 540.92 -3.03671 -2.84909 0
M  V30 5804 H 543.517 -1.46361 -5.14279 0
M  V30 5805 H 543.86 -0.0593832 -4.16258 0
M  V30 5806 H 544.393 -1.6665 -3.6121 0
M  V30 5807 H 541.132 -4.38726 -4.87032 0
M  V30 5808 H 540.652 -2.73919 -5.33599 0
M  V30 5809 H 542.331 -3.28344 -5.57494 0
M  V30 5810 N 542.463 1.3308 -0.844243 0
M  V30 5811 C 543.41 2.29104 -0.279323 0
M  V30 5812 C 544.38 1.54577 0.607882 0
M  V30 5813 O 545.565 1.8285 0.545009 0
M  V30 5814 C 542.705 3.40927 0.53508 0
M  V30 5815 C 541.818 4.30354 -0.376749 0
M  V30 5816 C 540.953 5.29297 0.449276 0
M  V30 5817 C 539.992 6.10365 -0.460606 0
M  V30 5818 N 539.129 7.01335 0.327612 0
M  V30 5819 H 543.969 2.76817 -1.10346 0
M  V30 5820 H 541.506 1.36203 -0.555611 0
M  V30 5821 H 543.464 4.04469 1.02278 0
M  V30 5822 H 542.094 2.94391 1.32414 0
M  V30 5823 H 541.146 3.67485 -0.982791 0
M  V30 5824 H 542.458 4.87067 -1.07549 0
M  V30 5825 H 541.612 5.98392 1.00058 0
M  V30 5826 H 540.351 4.73174 1.18143 0
M  V30 5827 H 539.356 5.40182 -1.02388 0
M  V30 5828 H 540.581 6.68571 -1.1912 0
M  V30 5829 H 538.527 6.47655 1.04305 0
M  V30 5830 H 538.444 7.55355 -0.3123 0
M  V30 5831 H 539.712 7.74731 0.86098 0
M  V30 5832 N 543.941 0.601185 1.45683 0
M  V30 5833 C 544.851 -0.123395 2.34275 0
M  V30 5834 C 545.867 -0.86702 1.5086 0
M  V30 5835 O 547.043 -0.826049 1.8368 0
M  V30 5836 C 544.108 -1.11237 3.2837 0
M  V30 5837 C 543.169 -0.371405 4.2769 0
M  V30 5838 C 542.402 -1.31327 5.1729 0
M  V30 5839 O 542.625 -2.55078 5.10188 0
M  V30 5840 O 541.559 -0.813811 5.96373 0
M  V30 5841 H 545.385 0.604483 2.97623 0
M  V30 5842 H 542.97 0.361477 1.44961 0
M  V30 5843 H 544.852 -1.68214 3.8637 0
M  V30 5844 H 543.527 -1.82139 2.67595 0
M  V30 5845 H 542.434 0.24067 3.73325 0
M  V30 5846 H 543.767 0.296998 4.91303 0
M  V30 5847 N 545.419 -1.53889 0.339982 0
M  V30 5848 C 546.647 -2.05271 -0.259114 0
M  V30 5849 C 547.062 -1.21517 -1.44496 0
M  V30 5850 O 546.419 -0.24966 -1.80784 0
M  V30 5851 C 546.47 -3.55092 -0.677634 0
M  V30 5852 O 546.191 -4.35667 0.461051 0
M  V30 5853 C 547.692 -4.22631 -1.33782 0
M  V30 5854 H 544.912 -0.669085 -0.0506566 0
M  V30 5855 H 547.456 -1.9852 0.490935 0
M  V30 5856 H 545.611 -3.62077 -1.37763 0
M  V30 5857 H 546.025 -5.24343 0.128144 0
M  V30 5858 H 547.499 -5.28861 -1.58145 0
M  V30 5859 H 547.976 -3.74758 -2.29027 0
M  V30 5860 H 548.582 -4.19829 -0.679957 0
M  V30 5861 N 546.897 -0.0685191 -1.57451 0
M  V30 5862 C 547.827 0.89747 -2.15564 0
M  V30 5863 C 548.808 1.31266 -1.08181 0
M  V30 5864 O 549.993 1.38429 -1.36202 0
M  V30 5865 C 547.123 2.16623 -2.71463 0
M  V30 5866 C 546.077 1.89054 -3.83982 0
M  V30 5867 C 545.403 3.22532 -4.26471 0
M  V30 5868 C 546.703 1.1984 -5.08366 0
M  V30 5869 H 548.397 0.413373 -2.96533 0
M  V30 5870 H 545.943 0.197391 -1.42641 0
M  V30 5871 H 547.896 2.84614 -3.10761 0
M  V30 5872 H 546.62 2.67269 -1.8771 0
M  V30 5873 H 545.279 1.23469 -3.45183 0
M  V30 5874 H 544.927 3.71013 -3.39644 0
M  V30 5875 H 544.627 3.04879 -5.02317 0
M  V30 5876 H 546.151 3.91727 -4.68383 0
M  V30 5877 H 547.565 1.77896 -5.45001 0
M  V30 5878 H 545.962 1.12456 -5.89469 0
M  V30 5879 H 547.032 0.176996 -4.84577 0
M  V30 5880 N 548.375 1.56261 0.205012 0
M  V30 5881 C 549.791 1.49623 0.555433 0
M  V30 5882 C 549.991 0.766719 1.86343 0
M  V30 5883 O 549.047 0.313158 2.50551 0
M  V30 5884 C 550.36 2.94253 0.619347 0
M  V30 5885 C 551.908 3.04868 0.708855 0
M  V30 5886 C 552.383 4.50888 0.803969 0
M  V30 5887 N 553.874 4.54999 0.867758 0
M  V30 5888 C 554.609 5.65284 0.96135 0
M  V30 5889 N 554.105 6.85282 1.01786 0
M  V30 5890 N 555.898 5.53174 0.997771 0
M  V30 5891 H 548.049 2.0211 -0.653094 0
M  V30 5892 H 550.312 0.919333 -0.231366 0
M  V30 5893 H 550.018 3.50643 -0.272458 0
M  V30 5894 H 549.892 3.47063 1.47741 0
M  V30 5895 H 552.279 2.48532 1.5911 0
M  V30 5896 H 552.36 2.55199 -0.175205 0
M  V30 5897 H 552.004 5.07846 -0.0738798 0
M  V30 5898 H 551.934 4.98279 1.70369 0
M  V30 5899 H 554.425 3.68588 0.833735 0
M  V30 5900 H 554.738 7.65081 1.08951 0
M  V30 5901 H 553.083 6.8796 0.986706 0
M  V30 5902 H 556.274 4.5835 0.950392 0
M  V30 5903 H 556.447 6.39151 1.06725 0
M  V30 5904 N 549.853 -0.472356 1.50355 0
M  V30 5905 C 550.783 -1.57859 1.72055 0
M  V30 5906 C 551.764 -1.60283 0.569505 0
M  V30 5907 O 552.949 -1.7657 0.808503 0
M  V30 5908 C 550.079 -2.96191 1.81351 0
M  V30 5909 C 549.033 -3.08633 2.96529 0
M  V30 5910 C 548.359 -4.486 2.90968 0
M  V30 5911 C 549.659 -2.85969 4.37057 0
M  V30 5912 H 551.353 -1.39953 2.64676 0
M  V30 5913 H 548.899 -0.671846 1.27367 0
M  V30 5914 H 550.852 -3.73507 1.95117 0
M  V30 5915 H 549.576 -3.15251 0.853502 0
M  V30 5916 H 548.235 -2.33749 2.82413 0
M  V30 5917 H 547.883 -4.64577 1.92815 0
M  V30 5918 H 547.583 -4.57861 3.68289 0
M  V30 5919 H 549.107 -5.27938 3.0678 0
M  V30 5920 H 550.521 -3.53036 4.51706 0
M  V30 5921 H 548.918 -3.06677 5.15819 0
M  V30 5922 H 549.988 -1.81838 4.49514 0
M  V30 5923 N 551.331 -1.39911 -0.725443 0
M  V30 5924 C 552.747 -1.21725 -1.03224 0
M  V30 5925 C 552.947 -0.0855224 -2.01318 0
M  V30 5926 O 552.003 0.55976 -2.46217 0
M  V30 5927 C 553.316 -2.55511 -1.58539 0
M  V30 5928 C 554.864 -2.62439 -1.70572 0
M  V30 5929 C 555.339 -3.9647 -2.29294 0
M  V30 5930 N 556.83 -3.98159 -2.36692 0
M  V30 5931 C 557.565 -4.98647 -2.83088 0
M  V30 5932 N 557.061 -6.0953 -3.2931 0
M  V30 5933 N 558.854 -4.8602 -2.82384 0
M  V30 5934 H 551.005 -2.12267 -0.075048 0
M  V30 5935 H 553.268 -0.943136 -0.0959066 0
M  V30 5936 H 552.974 -3.38926 -0.939249 0
M  V30 5937 H 552.848 -2.75905 -2.57208 0
M  V30 5938 H 555.235 -1.79401 -2.34306 0
M  V30 5939 H 555.316 -2.45885 -0.705297 0
M  V30 5940 H 554.96 -4.79942 -1.66186 0
M  V30 5941 H 554.89 -4.10349 -3.30032 0
M  V30 5942 H 557.381 -3.18085 -2.04035 0
M  V30 5943 H 557.694 -6.82106 -3.6325 0
M  V30 5944 H 556.039 -6.1311 -3.27294 0
M  V30 5945 H 559.23 -3.98493 -2.45603 0
M  V30 5946 H 559.403 -5.64478 -3.18226 0
M  V30 5947 N 552.809 0.956637 -1.25245 0
M  V30 5948 C 554.22 1.51569 -1.09012 0
M  V30 5949 C 554.571 1.93322 0.334813 0
M  V30 5950 O 553.696 1.78421 1.22454 0
M  V30 5951 C 554.291 2.75444 -1.97271 0
M  V30 5952 C 552.85 3.27669 -1.8523 0
M  V30 5953 C 551.997 2.00517 -1.91542 0
M  V30 5954 H 554.948 0.773746 -1.3856 0
M  V30 5955 H 554.969 3.4919 -1.51151 0
M  V30 5956 H 554.481 2.45024 -3.00973 0
M  V30 5957 H 552.582 3.62914 -0.844045 0
M  V30 5958 H 552.695 3.9582 -2.69932 0
M  V30 5959 H 551.059 2.15727 -1.35404 0
M  V30 5960 H 551.842 1.72448 -2.96844 0
M  V30 5961 N 554.287 1.06798 1.15896 0
M  V30 5962 C 555.698 0.811355 1.68149 0
M  V30 5963 C 556.049 -0.664339 1.8461 0
M  V30 5964 O 555.174 -1.51485 1.54535 0
M  V30 5965 C 555.769 1.46624 3.05429 0
M  V30 5966 C 554.328 1.25726 3.54781 0
M  V30 5967 C 553.475 1.53949 2.3064 0
M  V30 5968 H 556.426 1.23078 1.00187 0
M  V30 5969 H 556.447 0.88437 3.7008 0
M  V30 5970 H 555.959 2.54025 2.93416 0
M  V30 5971 H 554.06 0.20322 3.72045 0
M  V30 5972 H 554.173 1.97354 4.36564 0
M  V30 5973 H 552.537 0.96025 2.35905 0
M  V30 5974 H 553.32 2.6252 2.2122 0
M  V30 5975 N 555.766 -1.3263 0.851289 0
M  V30 5976 C 557.015 -1.96633 0.449267 0
M  V30 5977 C 557.328 -1.68131 -0.999562 0
M  V30 5978 O 558.534 -2.25845 -1.50685 0
M  V30 5979 C 556.99 -3.51946 0.752446 0
M  V30 5980 C 556.598 -3.89311 2.21678 0
M  V30 5981 C 558.342 -4.22437 0.417983 0
M  V30 5982 C 556.249 -5.37655 2.46336 0
M  V30 5983 H 555.179 -0.735888 0.164269 0
M  V30 5984 H 557.83 -1.51073 1.0416 0
M  V30 5985 H 556.212 -3.95899 0.0895858 0
M  V30 5986 H 557.386 -3.56378 2.92115 0
M  V30 5987 H 555.701 -3.31836 2.51543 0
M  V30 5988 H 558.298 -5.31549 0.579674 0
M  V30 5989 H 558.641 -4.11349 -0.640115 0
M  V30 5990 H 559.174 -3.84057 1.03659 0
M  V30 5991 H 555.913 -5.5376 3.50757 0
M  V30 5992 H 555.433 -5.72005 1.80473 0
M  V30 5993 H 557.112 -6.04695 2.30115 0
M  V30 5994 N 557.244 -0.608902 -1.45362 0
M  V30 5995 C 558.177 0.158059 -2.27652 0
M  V30 5996 C 559.155 0.872397 -1.37215 0
M  V30 5997 O 560.339 0.881002 -1.66645 0
M  V30 5998 C 557.466 1.22896 -3.15617 0
M  V30 5999 C 556.512 0.617607 -4.22005 0
M  V30 6000 S 557.345 -0.575518 -5.32398 0
M  V30 6001 C 558.501 0.495938 -6.23932 0
M  V30 6002 H 558.734 -0.540095 -2.92353 0
M  V30 6003 H 556.267 -0.396456 -1.49223 0
M  V30 6004 H 558.225 1.84195 -3.66855 0
M  V30 6005 H 556.886 1.89919 -2.50179 0
M  V30 6006 H 556.079 1.42341 -4.83482 0
M  V30 6007 H 555.681 0.0797273 -3.73915 0
M  V30 6008 H 557.973 1.37465 -6.63408 0
M  V30 6009 H 558.916 -0.0827108 -7.08052 0
M  V30 6010 H 559.324 0.811856 -5.58631 0
M  V30 6011 N 558.722 1.53707 -0.348139 0
M  V30 6012 C 559.971 2.0017 0.247992 0
M  V30 6013 C 560.284 1.23983 1.51286 0
M  V30 6014 O 561.49 1.60946 2.18652 0
M  V30 6015 C 559.946 3.56515 0.492459 0
M  V30 6016 C 559.554 4.41562 -0.756777 0
M  V30 6017 C 561.298 4.11381 1.0472 0
M  V30 6018 C 559.205 5.89426 -0.482856 0
M  V30 6019 H 558.135 0.747806 0.0964452 0
M  V30 6020 H 560.786 1.77532 -0.464179 0
M  V30 6021 H 559.168 3.75236 1.26545 0
M  V30 6022 H 560.342 4.34615 -1.53122 0
M  V30 6023 H 558.657 3.97711 -1.23348 0
M  V30 6024 H 561.254 5.19468 1.26717 0
M  V30 6025 H 561.597 3.64885 2.00411 0
M  V30 6026 H 562.13 3.96389 0.334801 0
M  V30 6027 H 558.869 6.40164 -1.40962 0
M  V30 6028 H 558.389 5.99264 0.253416 0
M  V30 6029 H 560.068 6.4692 -0.101816 0
M  V30 6030 N 560.2 0.0768682 1.57412 0
M  V30 6031 C 561.133 -0.924685 2.08626 0
M  V30 6032 C 562.111 -1.28792 0.992542 0
M  V30 6033 O 563.295 -1.39634 1.26628 0
M  V30 6034 C 560.422 -2.23131 2.54814 0
M  V30 6035 C 559.468 -2.01928 3.75669 0
M  V30 6036 S 560.301 -1.27397 5.20125 0
M  V30 6037 C 561.457 -2.59329 5.69648 0
M  V30 6038 H 561.69 -0.488928 2.93252 0
M  V30 6039 H 559.223 -0.136014 1.538 0
M  V30 6040 H 561.181 -2.98226 2.82084 0
M  V30 6041 H 559.842 -2.63831 1.70447 0
M  V30 6042 H 559.035 -2.98639 4.05993 0
M  V30 6043 H 558.637 -1.34967 3.48798 0
M  V30 6044 H 560.929 -3.55394 5.76803 0
M  V30 6045 H 561.872 -2.33608 6.68456 0
M  V30 6046 H 562.28 -2.66767 4.9749 0
M  V30 6047 N 561.678 -1.56367 -0.196722 0
M  V30 6048 C 562.611 -1.89475 -1.2718 0
M  V30 6049 C 563.589 -0.754667 -1.44026 0
M  V30 6050 O 564.773 -1.00551 -1.59442 0
M  V30 6051 C 561.9 -2.12352 -2.63864 0
M  V30 6052 C 560.946 -3.35053 -2.63897 0
M  V30 6053 S 561.779 -4.90228 -2.15492 0
M  V30 6054 C 562.935 -5.16171 -3.54004 0
M  V30 6055 H 563.168 -2.80365 -0.989075 0
M  V30 6056 H 560.701 -1.49125 -0.40014 0
M  V30 6057 H 562.659 -2.26214 -3.42545 0
M  V30 6058 H 561.32 -1.22214 -2.89349 0
M  V30 6059 H 560.513 -3.48182 -3.64397 0
M  V30 6060 H 560.115 -3.20176 -1.93296 0
M  V30 6061 H 562.407 -5.06591 -4.49857 0
M  V30 6062 H 563.35 -6.17938 -3.45771 0
M  V30 6063 H 563.758 -4.43814 -3.48841 0
M  V30 6064 N 563.156 0.464375 -1.50603 0
M  V30 6065 C 564.572 0.798684 -1.38178 0
M  V30 6066 C 564.772 1.96568 -0.44308 0
M  V30 6067 O 563.828 2.52252 0.111814 0
M  V30 6068 C 565.141 1.10444 -2.79683 0
M  V30 6069 C 566.689 1.2105 -2.88645 0
M  V30 6070 C 567.164 1.54934 -4.30998 0
M  V30 6071 N 568.655 1.61913 -4.3398 0
M  V30 6072 C 569.39 1.8965 -5.41129 0
M  V30 6073 N 568.886 2.15361 -6.58477 0
M  V30 6074 N 570.679 1.91207 -5.28579 0
M  V30 6075 H 562.83 -0.304603 -2.10204 0
M  V30 6076 H 565.093 -0.0737804 -0.945125 0
M  V30 6077 H 564.799 0.319934 -3.50242 0
M  V30 6078 H 564.673 2.03896 -3.17342 0
M  V30 6079 H 567.06 1.98567 -2.18301 0
M  V30 6080 H 567.141 0.255613 -2.5452 0
M  V30 6081 H 566.785 0.779549 -5.01882 0
M  V30 6082 H 566.715 2.51584 -4.62615 0
M  V30 6083 H 569.206 1.44055 -3.49366 0
M  V30 6084 H 569.519 2.35818 -7.35941 0
M  V30 6085 H 567.864 2.1274 -6.6164 0
M  V30 6086 H 571.055 1.70622 -4.35897 0
M  V30 6087 H 571.228 2.12488 -6.12171 0
M  V30 6088 N 564.634 1.40294 0.718013 0
M  V30 6089 C 565.567 1.34767 1.84155 0
M  V30 6090 C 566.545 0.218455 1.61126 0
M  V30 6091 O 567.729 0.401716 1.8417 0
M  V30 6092 C 564.856 1.09676 3.20451 0
M  V30 6093 C 563.902 2.25016 3.62312 0
M  V30 6094 S 564.735 3.87397 3.69707 0
M  V30 6095 C 565.891 3.64565 5.08766 0
M  V30 6096 H 566.124 2.29851 1.88562 0
M  V30 6097 H 563.657 1.2655 0.884555 0
M  V30 6098 H 565.615 0.95885 3.99144 0
M  V30 6099 H 564.276 0.162502 3.13679 0
M  V30 6100 H 563.469 2.03097 4.61268 0
M  V30 6101 H 563.071 2.35098 2.90869 0
M  V30 6102 H 565.363 3.22882 5.95612 0
M  V30 6103 H 566.306 4.63043 5.35721 0
M  V30 6104 H 566.714 2.98303 4.79245 0
M  V30 6105 N 566.112 -0.949982 1.2575 0
M  V30 6106 C 567.075 -2.02894 1.06615 0
M  V30 6107 C 568.075 -1.60791 0.0173905 0
M  V30 6108 O 569.265 -1.72249 0.260003 0
M  V30 6109 C 566.397 -3.35219 0.619751 0
M  V30 6110 H 567.59 -2.21302 2.02399 0
M  V30 6111 H 565.143 -1.12772 1.08223 0
M  V30 6112 H 565.878 -3.22508 -0.340486 0
M  V30 6113 H 565.663 -3.67129 1.37692 0
M  V30 6114 H 567.153 -4.14505 0.507443 0
M  V30 6115 N 567.59 -1.07411 -1.15328 0
M  V30 6116 C 569.006 -0.799759 -1.38116 0
M  V30 6117 C 569.206 0.59572 -1.92493 0
M  V30 6118 O 568.262 1.35433 -2.13106 0
M  V30 6119 C 569.575 -1.87407 -2.35158 0
M  V30 6120 C 571.123 -1.89889 -2.48819 0
M  V30 6121 C 571.598 -2.96406 -3.49153 0
M  V30 6122 N 573.089 -2.95512 -3.56689 0
M  V30 6123 C 573.824 -3.74575 -4.34144 0
M  V30 6124 N 573.32 -4.63488 -5.14928 0
M  V30 6125 N 575.113 -3.62919 -4.29239 0
M  V30 6126 H 567.264 -1.97411 -0.78374 0
M  V30 6127 H 569.527 -0.856113 -0.407154 0
M  V30 6128 H 569.233 -2.8768 -2.0232 0
M  V30 6129 H 569.107 -1.73471 -3.34944 0
M  V30 6130 H 571.494 -0.902677 -2.80955 0
M  V30 6131 H 571.575 -2.07904 -1.49029 0
M  V30 6132 H 571.219 -3.96227 -3.17752 0
M  V30 6133 H 571.149 -2.75638 -4.48699 0
M  V30 6134 H 573.64 -2.31061 -2.99031 0
M  V30 6135 H 573.953 -5.20445 -5.71276 0
M  V30 6136 H 572.298 -4.67537 -5.14232 0
M  V30 6137 H 575.489 -2.92833 -3.65194 0
M  V30 6138 H 575.662 -4.24777 -4.89355 0
M  V30 6139 N 569.068 1.32177 -0.85831 0
M  V30 6140 C 570.296 2.01313 -0.477582 0
M  V30 6141 C 570.711 1.6449 0.926736 0
M  V30 6142 O 570.068 0.868096 1.60531 0
M  V30 6143 C 570.119 3.56293 -0.611337 0
M  V30 6144 O 569.84 3.91794 -1.96034 0
M  V30 6145 C 571.341 4.42702 -0.230093 0
M  V30 6146 H 568.561 0.644323 -0.187322 0
M  V30 6147 H 571.105 1.68674 -1.15626 0
M  V30 6148 H 569.26 3.87395 0.0196494 0
M  V30 6149 H 569.674 4.86513 -1.95973 0
M  V30 6150 H 571.148 5.50727 -0.374674 0
M  V30 6151 H 571.625 4.3129 0.829779 0
M  V30 6152 H 572.231 4.16997 -0.836302 0
M  V30 6153 N 570.547 0.616602 1.45037 0
M  V30 6154 C 571.958 0.199359 1.85633 0
M  V30 6155 C 572.309 -1.24588 1.51566 0
M  V30 6156 O 571.434 -1.94594 0.94668 0
M  V30 6157 C 572.029 0.355033 3.36935 0
M  V30 6158 C 570.588 -0.00758748 3.76399 0
M  V30 6159 C 569.735 0.675256 2.68953 0
M  V30 6160 H 572.686 0.822708 1.3571 0
M  V30 6161 H 572.707 -0.410201 3.78282 0
M  V30 6162 H 572.219 1.40699 3.61698 0
M  V30 6163 H 570.32 -1.05837 3.57252 0
M  V30 6164 H 570.433 0.392346 4.77491 0
M  V30 6165 H 568.797 0.111992 2.54454 0
M  V30 6166 H 569.58 1.72952 2.96551 0
M  V30 6167 N 572.025 -1.5352 0.356285 0
M  V30 6168 C 572.957 -2.23009 -0.529127 0
M  V30 6169 C 573.97 -1.241 -1.05371 0
M  V30 6170 O 575.159 -1.50379 -0.961679 0
M  V30 6171 C 572.259 -2.90685 -1.74229 0
M  V30 6172 C 571.432 -4.16019 -1.35081 0
M  V30 6173 C 570.491 -4.66989 -2.42502 0
M  V30 6174 O 569.517 -5.30895 -2.05279 0
M  V30 6175 N 570.719 -4.44006 -3.7395 0
M  V30 6176 H 573.484 -2.99627 0.0660501 0
M  V30 6177 H 571.045 -1.60885 0.181014 0
M  V30 6178 H 573.037 -3.21695 -2.4555 0
M  V30 6179 H 571.607 -2.17575 -2.24454 0
M  V30 6180 H 570.827 -3.91414 -0.467833 0
M  V30 6181 H 572.115 -4.9752 -1.06542 0
M  V30 6182 H 571.513 -3.92924 -4.06973 0
M  V30 6183 H 570.07 -4.7959 -4.41403 0
M  V30 6184 N 573.503 -0.0852151 -1.57369 0
M  V30 6185 C 574.731 0.58946 -1.98325 0
M  V30 6186 C 575.146 1.62333 -0.96403 0
M  V30 6187 O 574.503 1.82438 0.0476395 0
M  V30 6188 C 574.554 1.24604 -3.39347 0
M  V30 6189 O 574.275 0.253532 -4.37366 0
M  V30 6190 C 575.776 2.00726 -3.95252 0
M  V30 6191 H 572.996 0.158783 -0.651942 0
M  V30 6192 H 575.54 -0.161584 -2.03861 0
M  V30 6193 H 573.695 1.94808 -3.34856 0
M  V30 6194 H 574.109 0.726207 -5.19448 0
M  V30 6195 H 575.583 2.42039 -4.96106 0
M  V30 6196 H 576.06 2.86919 -3.32527 0
M  V30 6197 H 576.666 1.3536 -4.03185 0
M  V30 6198 N 574.981 1.5647 0.188427 0
M  V30 6199 C 576.227 1.81281 0.909124 0
M  V30 6200 C 576.56 0.66034 1.82628 0
M  V30 6201 O 575.835 -0.338737 1.91528 0
M  V30 6202 C 576.118 3.16388 1.7196 0
M  V30 6203 C 575.971 4.42137 0.826714 0
M  V30 6204 C 577.29 3.48256 2.69083 0
M  V30 6205 H 574.409 0.659457 0.329068 0
M  V30 6206 H 577.051 1.89182 0.176156 0
M  V30 6207 H 575.201 3.09784 2.34448 0
M  V30 6208 H 576.873 4.60794 0.216025 0
M  V30 6209 H 575.116 4.33594 0.133792 0
M  V30 6210 H 575.787 5.33184 1.42893 0
M  V30 6211 H 578.263 3.55203 2.16726 0
M  V30 6212 H 577.139 4.43899 3.2287 0
M  V30 6213 H 577.4 2.72088 3.48455 0
M  V30 6214 N 576.459 -0.456382 1.50847 0
M  V30 6215 C 577.422 -1.53493 1.70213 0
M  V30 6216 C 578.422 -1.50264 0.572481 0
M  V30 6217 O 579.612 -1.52623 0.839751 0
M  V30 6218 C 576.744 -2.93091 1.741 0
M  V30 6219 H 577.937 -1.37633 2.66453 0
M  V30 6220 H 575.49 -0.683776 1.4055 0
M  V30 6221 H 576.225 -3.14378 0.796063 0
M  V30 6222 H 576.01 -2.9684 2.5618 0
M  V30 6223 H 577.5 -3.71368 1.90987 0
M  V30 6224 N 577.937 -1.40673 -0.710563 0
M  V30 6225 C 579.185 -1.38947 -1.46759 0
M  V30 6226 C 579.506 0.00572879 -1.94999 0
M  V30 6227 O 578.776 0.961358 -1.70689 0
M  V30 6228 H 577.356 -0.5114 -0.544499 0
M  V30 6229 H 580.018 -1.75773 -0.842012 0
M  V30 6230 H 579.114 -2.06745 -2.33801 0
M  V30 6231 N 579.415 0.9433 -1.26252 0
M  V30 6232 C 580.645 1.72117 -1.14277 0
M  V30 6233 C 581.053 1.86726 0.304944 0
M  V30 6234 O 580.396 1.3727 1.22076 0
M  V30 6235 C 580.458 3.14778 -1.73651 0
M  V30 6236 C 580.122 3.23561 -3.22734 0
M  V30 6237 C 581.119 3.07001 -4.19579 0
M  V30 6238 C 578.804 3.47019 -3.63157 0
M  V30 6239 C 580.798 3.13763 -5.54826 0
M  V30 6240 C 578.485 3.53416 -4.98538 0
M  V30 6241 C 579.483 3.36804 -5.94182 0
M  V30 6242 O 579.171 3.42906 -7.27098 0
M  V30 6243 H 578.903 0.545781 -0.398873 0
M  V30 6244 H 581.457 1.19123 -1.67328 0
M  V30 6245 H 579.687 3.69186 -1.1506 0
M  V30 6246 H 581.376 3.74469 -1.56613 0
M  V30 6247 H 582.142 2.88736 -3.89688 0
M  V30 6248 H 578.021 3.59006 -2.89199 0
M  V30 6249 H 581.565 3.00714 -6.29458 0
M  V30 6250 H 577.462 3.71201 -5.28091 0
M  V30 6251 H 578.23 3.59463 -7.35342 0
M  V30 6252 N 580.893 1.08022 1.14757 0
M  V30 6253 C 582.121 0.828847 1.89572 0
M  V30 6254 C 582.536 -0.618621 1.78377 0
M  V30 6255 O 581.893 -1.42482 1.1404 0
M  V30 6256 C 581.944 1.23677 3.39685 0
M  V30 6257 O 581.665 2.62746 3.50566 0
M  V30 6258 C 583.166 1.01569 4.31507 0
M  V30 6259 H 580.386 0.299196 0.600602 0
M  V30 6260 H 582.93 1.43846 1.45357 0
M  V30 6261 H 581.085 0.671347 3.81539 0
M  V30 6262 H 581.499 2.79573 4.43778 0
M  V30 6263 H 582.973 1.35055 5.35223 0
M  V30 6264 H 583.45 -0.0475433 4.39174 0
M  V30 6265 H 584.056 1.56636 3.95405 0
M  V30 6266 N 582.371 -1.3172 0.865308 0
M  V30 6267 C 583.62 -1.96145 0.470098 0
M  V30 6268 C 583.933 -1.69182 -0.981674 0
M  V30 6269 O 585.139 -2.27431 -1.48281 0
M  V30 6270 C 583.595 -3.51129 0.789732 0
M  V30 6271 C 583.203 -3.86938 2.25795 0
M  V30 6272 C 584.947 -4.2197 0.462765 0
M  V30 6273 C 582.854 -5.35012 2.52024 0
M  V30 6274 H 581.784 -0.734105 0.172065 0
M  V30 6275 H 584.435 -1.49959 1.05757 0
M  V30 6276 H 582.817 -3.95781 0.131571 0
M  V30 6277 H 583.991 -3.5326 2.95879 0
M  V30 6278 H 582.306 -3.29149 2.55049 0
M  V30 6279 H 584.903 -5.30904 0.636019 0
M  V30 6280 H 585.246 -4.12005 -0.59645 0
M  V30 6281 H 585.779 -3.82936 1.07727 0
M  V30 6282 H 582.518 -5.50008 3.56611 0
M  V30 6283 H 582.038 -5.70058 1.8653 0
M  V30 6284 H 583.717 -6.0222 2.36515 0
M  V30 6285 N 583.85 -0.624285 -1.44708 0
M  V30 6286 C 585.26 -0.2092 -1.85524 0
M  V30 6287 C 585.611 1.23783 -1.52225 0
M  V30 6288 O 584.736 1.94089 -0.956986 0
M  V30 6289 C 585.332 -0.372897 -3.36742 0
M  V30 6290 C 583.891 -0.012374 -3.76398 0
M  V30 6291 C 583.038 -0.68951 -2.68591 0
M  V30 6292 H 585.989 -0.829894 -1.35272 0
M  V30 6293 H 586.01 0.390134 -3.78495 0
M  V30 6294 H 585.522 -1.42615 -3.60947 0
M  V30 6295 H 583.623 1.03941 -3.57809 0
M  V30 6296 H 583.736 -0.417663 -4.77276 0
M  V30 6297 H 582.1 -0.125484 -2.54391 0
M  V30 6298 H 582.883 -1.74522 -2.9563 0
M  V30 6299 N 585.328 1.53329 -0.364422 0
M  V30 6300 C 586.739 1.86345 0.115039 0
M  V30 6301 C 587.09 1.28505 1.4826 0
M  V30 6302 O 586.215 0.606639 2.07723 0
M  V30 6303 C 586.81 3.38114 0.215522 0
M  V30 6304 C 585.369 3.70932 0.639237 0
M  V30 6305 C 584.516 2.76471 -0.214261 0
M  V30 6306 H 587.467 1.47593 -0.583258 0
M  V30 6307 H 587.488 3.66031 1.0393 0
M  V30 6308 H 587 3.80182 -0.779948 0
M  V30 6309 H 585.101 3.3442 1.64298 0
M  V30 6310 H 585.214 4.77302 0.41465 0
M  V30 6311 H 583.578 2.52724 0.316678 0
M  V30 6312 H 584.361 3.21373 -1.20725 0
M  V30 6313 N 586.806 0.0935595 1.57322 0
M  V30 6314 C 588.054 -0.569383 1.93913 0
M  V30 6315 C 588.375 -1.68817 0.976009 0
M  V30 6316 O 587.645 -1.9588 0.0278099 0
M  V30 6317 H 586.225 -0.21332 0.715894 0
M  V30 6318 H 588.887 0.156531 1.9427 0
M  V30 6319 H 587.983 -0.980577 2.96296 0
M  V30 6320 N 588.284 -1.56567 -0.180126 0
M  V30 6321 C 589.234 -1.92132 -1.22756 0
M  V30 6322 C 590.218 -0.788639 -1.40247 0
M  V30 6323 O 591.41 -1.05171 -1.42366 0
M  V30 6324 C 588.539 -2.27719 -2.56902 0
M  V30 6325 C 587.625 -3.47481 -2.43142 0
M  V30 6326 N 588.016 -4.64973 -1.99082 0
M  V30 6327 C 586.314 -3.51914 -2.73994 0
M  V30 6328 C 587.015 -5.47119 -1.97574 0
M  V30 6329 N 585.991 -4.87925 -2.39645 0
M  V30 6330 H 589.793 -2.80464 -0.878478 0
M  V30 6331 H 587.307 -1.57686 -0.388463 0
M  V30 6332 H 589.304 -2.51389 -3.32579 0
M  V30 6333 H 587.964 -1.40722 -2.92621 0
M  V30 6334 H 588.975 -4.89358 -1.69557 0
M  V30 6335 H 585.652 -2.75372 -3.13809 0
M  V30 6336 H 587.042 -6.51254 -1.65282 0
M  V30 6337 N 589.762 0.448376 -1.51087 0
M  V30 6338 C 590.694 1.56146 -1.67783 0
M  V30 6339 C 591.707 1.52913 -0.55871 0
M  V30 6340 O 592.896 1.57889 -0.83267 0
M  V30 6341 C 589.996 2.95057 -1.66716 0
M  V30 6342 C 589.169 3.22915 -2.95033 0
M  V30 6343 C 588.228 4.41495 -2.86302 0
M  V30 6344 O 587.254 4.40688 -3.60254 0
M  V30 6345 N 588.456 5.44443 -2.014 0
M  V30 6346 H 591.221 1.42232 -2.638 0
M  V30 6347 H 588.782 0.637153 -1.48835 0
M  V30 6348 H 590.774 3.72388 -1.58458 0
M  V30 6349 H 589.344 3.02624 -0.783403 0
M  V30 6350 H 588.564 2.33985 -3.17245 0
M  V30 6351 H 589.852 3.38349 -3.79996 0
M  V30 6352 H 589.25 5.4793 -1.40674 0
M  V30 6353 H 587.807 6.2067 -1.99029 0
M  V30 6354 N 591.24 1.41047 0.703093 0
M  V30 6355 C 592.486 1.40207 1.46526 0
M  V30 6356 C 592.819 0.00847763 1.94198 0
M  V30 6357 O 592.094 -0.962437 1.69019 0
M  V30 6358 C 592.377 2.40238 2.6825 0
M  V30 6359 C 592.23 3.88674 2.26391 0
M  V30 6360 C 593.549 2.37627 3.70434 0
M  V30 6361 H 590.668 0.510594 0.531472 0
M  V30 6362 H 593.31 1.72271 0.801422 0
M  V30 6363 H 591.46 2.13026 3.24888 0
M  V30 6364 H 593.132 4.2676 1.75138 0
M  V30 6365 H 591.375 4.03903 1.58255 0
M  V30 6366 H 592.046 4.542 3.13698 0
M  V30 6367 H 594.522 2.61759 3.23452 0
M  V30 6368 H 593.398 3.09645 4.53223 0
M  V30 6369 H 593.659 1.39223 4.19606 0
M  V30 6370 N 592.718 -0.936591 1.26751 0
M  V30 6371 C 593.958 -1.69796 1.13792 0
M  V30 6372 C 594.322 -1.89437 -0.312671 0
M  V30 6373 O 595.523 -2.62806 -0.564489 0
M  V30 6374 C 593.794 -3.03297 1.89065 0
M  V30 6375 S 595.353 -3.94461 1.92214 0
M  V30 6376 H 592.171 -0.583412 0.406389 0
M  V30 6377 H 594.773 -1.11575 1.60535 0
M  V30 6378 H 593.477 -2.86687 2.93665 0
M  V30 6379 H 593.008 -3.66575 1.42781 0
M  V30 6380 H 595.023 -4.85767 1.01215 0
M  V30 6381 N 594.196 -1.08629 -1.14182 0
M  V30 6382 C 595.442 -0.818556 -1.85546 0
M  V30 6383 C 595.775 0.654076 -1.82854 0
M  V30 6384 O 595.05 1.48099 -1.26083 0
M  V30 6385 C 595.333 -1.34397 -3.3408 0
M  V30 6386 C 595.186 -2.8821 -3.45333 0
M  V30 6387 C 596.505 -0.971069 -4.29253 0
M  V30 6388 H 593.624 -0.298821 -0.673702 0
M  V30 6389 H 596.266 -1.34629 -1.34071 0
M  V30 6390 H 594.416 -0.895064 -3.78049 0
M  V30 6391 H 596.088 -3.41488 -3.10134 0
M  V30 6392 H 594.331 -3.25756 -2.86471 0
M  V30 6393 H 595.002 -3.20047 -4.49749 0
M  V30 6394 H 597.478 -1.35809 -3.93313 0
M  V30 6395 H 596.354 -1.36586 -5.31635 0
M  V30 6396 H 596.615 0.121659 -4.41933 0
M  V30 6397 N 595.674 1.31259 -0.872281 0
M  V30 6398 C 596.899 2.0133 -0.498099 0
M  V30 6399 C 597.324 1.65031 0.902568 0
M  V30 6400 O 596.682 0.860164 1.59596 0
M  V30 6401 C 596.73 3.54411 -0.665205 0
M  V30 6402 O 595.834 4.11347 0.294473 0
M  V30 6403 H 595.175 0.633844 -0.197832 0
M  V30 6404 H 597.705 1.67402 -1.17633 0
M  V30 6405 H 597.715 4.04147 -0.559373 0
M  V30 6406 H 596.39 3.80171 -1.68651 0
M  V30 6407 H 594.967 3.72624 0.143403 0
M  V30 6408 N 597.152 0.631951 1.44375 0
M  V30 6409 C 598.563 0.219036 1.85411 0
M  V30 6410 C 598.914 -1.22974 1.52879 0
M  V30 6411 O 598.039 -1.93579 0.967266 0
M  V30 6412 C 598.634 0.39075 3.36539 0
M  V30 6413 C 597.193 0.0323351 3.76386 0
M  V30 6414 C 596.34 0.703744 2.68221 0
M  V30 6415 H 599.291 0.837056 1.3483 0
M  V30 6416 H 599.312 -0.370056 3.78696 0
M  V30 6417 H 598.824 1.44527 3.60185 0
M  V30 6418 H 596.925 -1.02042 3.58355 0
M  V30 6419 H 597.038 0.442969 4.77048 0
M  V30 6420 H 595.402 0.138974 2.54321 0
M  V30 6421 H 596.185 1.76088 2.947 0
M  V30 6422 N 598.631 -1.53133 0.372548 0
M  V30 6423 C 599.859 -2.05774 -0.215515 0
M  V30 6424 C 600.274 -1.24555 -1.41886 0
M  V30 6425 O 599.631 -0.287951 -1.80214 0
M  V30 6426 C 599.682 -3.5645 -0.602161 0
M  V30 6427 O 599.403 -4.34591 0.553359 0
M  V30 6428 C 600.904 -4.25374 -1.24787 0
M  V30 6429 H 598.124 -0.670009 -0.0364529 0
M  V30 6430 H 600.668 -1.97434 0.532934 0
M  V30 6431 H 598.823 -3.64918 -1.30052 0
M  V30 6432 H 599.237 -5.23954 0.239336 0
M  V30 6433 H 600.711 -5.32097 -1.46891 0
M  V30 6434 H 601.188 -3.79531 -2.21026 0
M  V30 6435 H 601.794 -4.21177 -0.590752 0
M  V30 6436 N 600.109 -0.101901 -1.5727 0
M  V30 6437 C 601.355 0.561027 -1.94885 0
M  V30 6438 C 601.688 1.6741 -0.984258 0
M  V30 6439 O 600.963 1.94491 -0.0184767 0
M  V30 6440 C 601.246 1.10982 -3.42571 0
M  V30 6441 C 601.099 0.00133418 -4.498 0
M  V30 6442 C 602.418 2.00608 -3.9172 0
M  V30 6443 H 599.537 0.202467 -0.708644 0
M  V30 6444 H 602.179 -0.173992 -1.89202 0
M  V30 6445 H 600.329 1.73621 -3.47546 0
M  V30 6446 H 602.001 -0.63322 -4.56933 0
M  V30 6447 H 600.244 -0.664143 -4.28686 0
M  V30 6448 H 600.915 0.426253 -5.50352 0
M  V30 6449 H 603.391 1.47864 -3.88941 0
M  V30 6450 H 602.267 2.3593 -4.95609 0
M  V30 6451 H 602.528 2.92608 -3.3141 0
M  V30 6452 N 601.587 1.56661 0.17182 0
M  V30 6453 C 602.535 1.97289 1.23207 0
M  V30 6454 C 603.529 0.861566 1.45854 0
M  V30 6455 O 604.735 1.04668 1.4644 0
M  V30 6456 H 601.11 0.627681 0.41415 0
M  V30 6457 H 603.081 2.85662 0.862542 0
M  V30 6458 C 601.83 2.34849 2.564 0
M  V30 6459 H 601.153 3.19903 2.39797 0
M  V30 6460 H 602.593 2.67121 3.29276 0
M  V30 6461 C 601.052 1.19172 3.15119 0
M  V30 6462 O 601.582 0.479113 3.98833 0
M  V30 6463 N 599.788 0.962415 2.74201 0
M  V30 6464 H 599.335 1.54365 2.06226 0
M  V30 6465 H 599.293 0.190272 3.13824 0
M  V30 6466 N 603.065 -0.440357 1.51323 0
M  V30 6467 C 603.997 -1.55254 1.68609 0
M  V30 6468 C 605.01 -1.52614 0.566812 0
M  V30 6469 O 606.199 -1.57445 0.841032 0
M  V30 6470 C 603.299 -2.94169 1.68279 0
M  V30 6471 C 602.472 -3.21346 2.96742 0
M  V30 6472 C 601.531 -4.3997 2.8864 0
M  V30 6473 O 600.557 -4.38771 3.62586 0
M  V30 6474 N 601.759 -5.43367 2.04285 0
M  V30 6475 H 604.524 -1.40831 2.6455 0
M  V30 6476 H 602.085 -0.629251 1.49171 0
M  V30 6477 H 604.077 -3.71543 1.60431 0
M  V30 6478 H 602.647 -3.02205 0.799441 0
M  V30 6479 H 601.867 -2.32299 3.18482 0
M  V30 6480 H 603.155 -3.3633 3.81785 0
M  V30 6481 H 602.553 -5.47176 1.43578 0
M  V30 6482 H 601.11 -6.19605 2.02318 0
M  V30 6483 N 604.543 -1.41418 -0.695603 0
M  V30 6484 C 605.959 -1.23887 -1.00619 0
M  V30 6485 C 606.159 -0.128206 -2.01092 0
M  V30 6486 O 605.215 0.507408 -2.47349 0
M  V30 6487 C 606.528 -2.58816 -1.53083 0
M  V30 6488 C 608.076 -2.65998 -1.64967 0
M  V30 6489 C 608.551 -4.01244 -2.20833 0
M  V30 6490 N 610.042 -4.0309 -2.28194 0
M  V30 6491 C 610.777 -5.04539 -2.72448 0
M  V30 6492 N 610.273 -6.16378 -3.16306 0
M  V30 6493 N 612.066 -4.91901 -2.72011 0
M  V30 6494 H 604.217 -2.12379 -0.0300061 0
M  V30 6495 H 606.48 -0.944958 -0.0758797 0
M  V30 6496 H 606.186 -3.40842 -0.867147 0
M  V30 6497 H 606.06 -2.81299 -2.51298 0
M  V30 6498 H 608.447 -1.84331 -2.30448 0
M  V30 6499 H 608.528 -2.47325 -0.652982 0
M  V30 6500 H 608.172 -4.83359 -1.55968 0
M  V30 6501 H 608.102 -4.17257 -3.21254 0
M  V30 6502 H 610.593 -3.22341 -1.97242 0
M  V30 6503 H 610.906 -6.89658 -3.487 0
M  V30 6504 H 609.251 -6.19914 -3.14215 0
M  V30 6505 H 612.442 -4.03613 -2.37095 0
M  V30 6506 H 612.615 -5.71102 -3.06181 0
M  V30 6507 N 606.021 0.929856 -1.27246 0
M  V30 6508 C 606.951 2.04722 -1.12299 0
M  V30 6509 C 607.932 1.70082 -0.0250464 0
M  V30 6510 O 609.117 1.93176 -0.199141 0
M  V30 6511 C 606.247 3.38721 -0.767145 0
M  V30 6512 C 605.201 3.87466 -1.81808 0
M  V30 6513 C 604.527 5.18246 -1.31626 0
M  V30 6514 C 605.827 4.11095 -3.22177 0
M  V30 6515 H 607.521 2.17485 -2.05769 0
M  V30 6516 H 605.067 1.04503 -0.990715 0
M  V30 6517 H 607.02 4.16366 -0.649413 0
M  V30 6518 H 605.744 3.25967 0.203259 0
M  V30 6519 H 604.403 3.12012 -1.92468 0
M  V30 6520 H 604.051 5.01881 -0.335378 0
M  V30 6521 H 603.751 5.51829 -2.01887 0
M  V30 6522 H 605.275 5.98462 -1.21143 0
M  V30 6523 H 606.689 4.79316 -3.1453 0
M  V30 6524 H 605.086 4.55982 -3.90129 0
M  V30 6525 H 606.156 3.16468 -3.67391 0
M  V30 6526 N 607.499 1.09233 1.13605 0
M  V30 6527 C 608.446 0.729921 2.18954 0
M  V30 6528 C 609.416 -0.287916 1.63586 0
M  V30 6529 O 610.601 -0.170003 1.90041 0
M  V30 6530 C 607.741 0.154489 3.44754 0
M  V30 6531 C 606.854 1.22613 4.14234 0
M  V30 6532 C 605.989 0.613657 5.27644 0
M  V30 6533 C 605.028 1.66674 5.8897 0
M  V30 6534 N 604.165 1.07545 6.93814 0
M  V30 6535 H 609.005 1.63257 2.49302 0
M  V30 6536 H 606.542 0.815693 1.22413 0
M  V30 6537 H 608.5 -0.196923 4.16735 0
M  V30 6538 H 607.13 -0.711433 3.14863 0
M  V30 6539 H 606.182 1.69485 3.40557 0
M  V30 6540 H 607.494 2.0238 4.55899 0
M  V30 6541 H 606.648 0.210976 6.06333 0
M  V30 6542 H 605.387 -0.215584 4.87223 0
M  V30 6543 H 604.392 2.07899 5.08978 0
M  V30 6544 H 605.617 2.49861 6.31464 0
M  V30 6545 H 603.563 0.267451 6.55455 0
M  V30 6546 H 603.48 1.81011 7.3401 0
M  V30 6547 H 604.748 0.698906 7.7636 0
M  V30 6548 N 608.977 -1.30795 0.87923 0
M  V30 6549 C 610.254 -1.91145 0.415086 0
M  V30 6550 C 610.634 -1.7995 -1.10368 0
M  V30 6551 O 609.982 -1.21305 -1.93642 0
M  V30 6552 C 610.192 -3.37014 0.906778 0
M  V30 6553 C 611.54 -4.14101 0.938358 0
M  V30 6554 O 612.564 -3.45834 0.853053 0
M  V30 6555 O 611.423 -5.36054 1.06342 0
M  V30 6556 H 608.517 -0.81736 0.125905 0
M  V30 6557 H 611.063 -1.39401 0.967753 0
M  V30 6558 H 609.835 -3.3922 1.95053 0
M  V30 6559 H 609.458 -3.96204 0.332948 0
M  V30 6560 N 610.455 -0.639598 -1.44038 0
M  V30 6561 C 611.68 -0.153117 -2.06834 0
M  V30 6562 C 612.105 1.16676 -1.47541 0
M  V30 6563 O 611.463 1.71769 -0.580093 0
M  V30 6564 C 611.511 -0.0609169 -3.60549 0
M  V30 6565 O 610.615 0.98071 -4.00569 0
M  V30 6566 H 609.956 -0.0886402 -0.658057 0
M  V30 6567 H 612.486 -0.878674 -1.84771 0
M  V30 6568 H 612.496 0.126892 -4.07803 0
M  V30 6569 H 611.171 -1.0245 -4.03084 0
M  V30 6570 H 609.748 0.766789 -3.64931 0
M  V30 6571 N 611.933 1.52934 -0.380664 0
M  V30 6572 C 613.179 2.02443 0.197089 0
M  V30 6573 C 613.534 1.26249 1.45186 0
M  V30 6574 O 612.827 0.351964 1.8834 0
M  V30 6575 C 613.021 3.5349 0.527199 0
M  V30 6576 C 612.85 4.44312 -0.694027 0
M  V30 6577 C 611.62 4.90582 -1.21068 0
M  V30 6578 C 613.818 4.8995 -1.56377 0
M  V30 6579 N 611.8 5.65451 -2.39036 0
M  V30 6580 C 613.171 5.63313 -2.58995 0
M  V30 6581 C 615.226 4.72002 -1.58488 0
M  V30 6582 C 613.929 6.20635 -3.63599 0
M  V30 6583 C 615.955 5.30201 -2.61995 0
M  V30 6584 C 615.317 6.03463 -3.63335 0
M  V30 6585 H 611.416 0.781241 0.0344357 0
M  V30 6586 H 614 1.87387 -0.528609 0
M  V30 6587 H 612.171 3.68677 1.22196 0
M  V30 6588 H 613.903 3.89707 1.09135 0
M  V30 6589 H 610.658 4.67249 -0.772995 0
M  V30 6590 H 611.082 6.07541 -2.98701 0
M  V30 6591 H 615.724 4.14873 -0.814891 0
M  V30 6592 H 613.442 6.76852 -4.41472 0
M  V30 6593 H 617.028 5.182 -2.645 0
M  V30 6594 H 615.908 6.47693 -4.42113 0
M  V30 6595 N 613.412 0.11024 1.57214 0
M  V30 6596 C 614.658 -0.550684 1.9518 0
M  V30 6597 C 614.991 -1.66885 0.993122 0
M  V30 6598 O 614.266 -1.94479 0.0287907 0
M  V30 6599 C 614.549 -1.09163 3.43155 0
M  V30 6600 C 614.402 0.0225198 4.49794 0
M  V30 6601 C 615.721 -1.98527 3.92778 0
M  V30 6602 H 612.84 -0.198706 0.709708 0
M  V30 6603 H 615.482 0.184024 1.89107 0
M  V30 6604 H 613.632 -1.71775 3.48462 0
M  V30 6605 H 615.304 0.657443 4.56591 0
M  V30 6606 H 613.547 0.686868 4.28328 0
M  V30 6607 H 614.218 -0.39706 5.5057 0
M  V30 6608 H 616.694 -1.458 3.8972 0
M  V30 6609 H 615.57 -2.33298 4.96853 0
M  V30 6610 H 615.831 -2.90846 3.32958 0
M  V30 6611 N 614.89 -1.56749 -0.16351 0
M  V30 6612 C 615.8 -2.00255 -1.2221 0
M  V30 6613 C 616.816 -0.915194 -1.47987 0
M  V30 6614 O 617.992 -1.22342 -1.59982 0
M  V30 6615 C 615.057 -2.36035 -2.53946 0
M  V30 6616 C 614.118 -3.58637 -2.35962 0
M  V30 6617 C 613.351 -3.92701 -3.61416 0
M  V30 6618 O 613.574 -3.27632 -4.66919 0
M  V30 6619 O 612.508 -4.86019 -3.55062 0
M  V30 6620 H 616.334 -2.90586 -0.882794 0
M  V30 6621 H 613.919 -1.44721 -0.370978 0
M  V30 6622 H 615.801 -2.59982 -3.31643 0
M  V30 6623 H 614.476 -1.48863 -2.8744 0
M  V30 6624 H 613.383 -3.39898 -1.5627 0
M  V30 6625 H 614.716 -4.46374 -2.0739 0
M  V30 6626 N 616.368 0.432326 -1.51554 0
M  V30 6627 C 617.784 0.769195 -1.39841 0
M  V30 6628 C 617.984 1.95584 -0.484675 0
M  V30 6629 O 617.04 2.52433 0.0582829 0
M  V30 6630 C 618.353 1.04487 -2.81963 0
M  V30 6631 C 619.901 1.149 -2.91148 0
M  V30 6632 C 620.376 1.45758 -4.34187 0
M  V30 6633 N 621.867 1.52671 -4.37317 0
M  V30 6634 C 622.602 1.78129 -5.4503 0
M  V30 6635 N 622.098 2.01345 -6.62897 0
M  V30 6636 N 623.891 1.79953 -5.32516 0
M  V30 6637 H 616.042 -0.349122 -2.09511 0
M  V30 6638 H 618.305 -0.0938113 -0.943347 0
M  V30 6639 H 618.011 0.24557 -3.50842 0
M  V30 6640 H 617.885 1.97119 -3.21596 0
M  V30 6641 H 620.272 1.93891 -2.22464 0
M  V30 6642 H 620.353 0.201568 -2.55005 0
M  V30 6643 H 619.997 0.672917 -5.03423 0
M  V30 6644 H 619.927 2.41715 -4.67848 0
M  V30 6645 H 622.418 1.36612 -3.52343 0
M  V30 6646 H 622.731 2.20155 -7.40778 0
M  V30 6647 H 621.076 1.98657 -6.66003 0
M  V30 6648 H 624.267 1.61337 -4.39418 0
M  V30 6649 H 624.44 1.99455 -6.1654 0
M  V30 6650 N 617.846 1.41785 0.688094 0
M  V30 6651 C 618.776 1.47 1.8142 0
M  V30 6652 C 619.757 0.327881 1.6691 0
M  V30 6653 O 620.942 0.540362 1.86531 0
M  V30 6654 C 618.072 1.35876 3.19617 0
M  V30 6655 C 617.026 2.47976 3.48844 0
M  V30 6656 C 616.352 2.21915 4.86475 0
M  V30 6657 C 617.652 3.90309 3.47068 0
M  V30 6658 H 619.346 2.41247 1.77314 0
M  V30 6659 H 616.892 1.16116 0.851651 0
M  V30 6660 H 618.845 1.38134 3.98117 0
M  V30 6661 H 617.569 0.38116 3.24368 0
M  V30 6662 H 616.228 2.45013 2.72698 0
M  V30 6663 H 615.876 1.2248 4.8786 0
M  V30 6664 H 615.576 2.97037 5.06994 0
M  V30 6665 H 617.1 2.25901 5.67275 0
M  V30 6666 H 618.514 3.94947 4.1556 0
M  V30 6667 H 616.911 4.65175 3.7912 0
M  V30 6668 H 617.981 4.17927 2.45896 0
M  V30 6669 N 619.324 -0.923095 1.27737 0
M  V30 6670 C 620.601 -1.64989 1.05062 0
M  V30 6671 C 620.981 -2.07018 -0.413124 0
M  V30 6672 O 620.329 -1.80797 -1.39731 0
M  V30 6673 C 620.539 -2.84847 2.01652 0
M  V30 6674 C 621.887 -3.56083 2.31279 0
M  V30 6675 O 622.911 -2.94981 1.99662 0
M  V30 6676 O 621.77 -4.66182 2.85196 0
M  V30 6677 H 618.864 -0.723357 0.400853 0
M  V30 6678 H 621.41 -0.973224 1.3902 0
M  V30 6679 H 620.182 -2.50814 3.00347 0
M  V30 6680 H 619.805 -3.60231 1.68284 0
M  V30 6681 N 620.802 -1.09834 -1.13024 0
M  V30 6682 C 622.049 -0.83695 -1.84395 0
M  V30 6683 C 622.377 0.637463 -1.83757 0
M  V30 6684 O 621.632 1.48554 -1.27398 0
M  V30 6685 C 621.931 -1.32263 -3.32026 0
M  V30 6686 C 621.597 -2.80739 -3.52841 0
M  V30 6687 C 620.259 -3.21286 -3.5823 0
M  V30 6688 C 622.611 -3.76449 -3.60466 0
M  V30 6689 C 619.939 -4.56308 -3.68781 0
M  V30 6690 C 622.291 -5.11266 -3.72546 0
M  V30 6691 C 620.955 -5.51397 -3.76189 0
M  V30 6692 H 620.225 -0.306262 -0.674748 0
M  V30 6693 H 622.872 -1.37385 -1.33408 0
M  V30 6694 H 621.177 -0.705618 -3.85394 0
M  V30 6695 H 622.874 -1.09695 -3.85705 0
M  V30 6696 H 619.464 -2.48363 -3.49305 0
M  V30 6697 H 623.648 -3.46234 -3.55578 0
M  V30 6698 H 618.904 -4.86832 -3.69871 0
M  V30 6699 H 623.078 -5.85279 -3.77388 0
M  V30 6700 H 620.705 -6.56017 -3.84117 0
M  V30 6701 N 622.28 1.30327 -0.886154 0
M  V30 6702 C 623.228 2.30052 -0.343317 0
M  V30 6703 C 624.222 1.60212 0.550305 0
M  V30 6704 O 625.428 1.74674 0.434609 0
M  V30 6705 H 621.803 0.746306 -0.0923681 0
M  V30 6706 H 623.774 2.73294 -1.19804 0
M  V30 6707 C 622.523 3.45079 0.426107 0
M  V30 6708 H 621.846 3.99003 -0.25227 0
M  V30 6709 H 623.286 4.16931 0.771009 0
M  V30 6710 C 621.745 2.95195 1.62363 0
M  V30 6711 O 622.275 2.95323 2.723 0
M  V30 6712 N 620.481 2.51192 1.4612 0
M  V30 6713 H 620.028 2.51286 0.566832 0
M  V30 6714 H 619.986 2.18173 2.2638 0
M  V30 6715 N 623.758 0.647228 1.43697 0
M  V30 6716 C 625.169 0.238689 1.85168 0
M  V30 6717 C 625.52 -1.21345 1.54175 0
M  V30 6718 O 624.645 -1.92542 0.987743 0
M  V30 6719 C 625.24 0.426422 3.36106 0
M  V30 6720 C 623.799 0.0722541 3.76331 0
M  V30 6721 C 622.946 0.732153 2.6746 0
M  V30 6722 H 625.897 0.851309 1.33934 0
M  V30 6723 H 625.918 -0.32987 3.79067 0
M  V30 6724 H 625.43 1.48339 3.58632 0
M  V30 6725 H 623.531 -0.982355 3.59417 0
M  V30 6726 H 623.644 0.493541 4.76551 0
M  V30 6727 H 622.008 0.16594 2.54159 0
M  V30 6728 H 622.791 1.79204 2.92816 0
M  V30 6729 N 625.236 -1.5273 0.388769 0
M  V30 6730 C 626.513 -1.93981 -0.251133 0
M  V30 6731 C 626.893 -1.32418 -1.64404 0
M  V30 6732 O 626.241 -0.492074 -2.23139 0
M  V30 6733 C 626.451 -3.47891 -0.27802 0
M  V30 6734 C 627.799 -4.21559 -0.507229 0
M  V30 6735 O 628.823 -3.54394 -0.358252 0
M  V30 6736 O 627.682 -5.40626 -0.799094 0
M  V30 6737 H 624.776 -0.812157 -0.15598 0
M  V30 6738 H 627.322 -1.63809 0.443237 0
M  V30 6739 H 626.094 -3.8503 0.697669 0
M  V30 6740 H 625.717 -3.84364 -1.01733 0
M  V30 6741 N 626.714 -0.118576 -1.57153 0
M  V30 6742 C 628.13 0.238014 -1.57815 0
M  V30 6743 C 628.33 1.66747 -1.13127 0
M  V30 6744 O 627.386 2.38867 -0.818462 0
M  V30 6745 C 628.699 0.00508207 -3.007 0
M  V30 6746 C 630.247 0.0710139 -3.12919 0
M  V30 6747 C 630.722 -0.13422 -4.57803 0
M  V30 6748 N 632.213 -0.0801755 -4.63131 0
M  V30 6749 C 632.948 -0.213885 -5.73001 0
M  V30 6750 N 632.444 -0.403742 -6.91623 0
M  V30 6751 N 634.237 -0.15349 -5.6189 0
M  V30 6752 H 626.388 -1.05226 -1.84503 0
M  V30 6753 H 628.651 -0.414318 -0.852669 0
M  V30 6754 H 628.357 -0.983125 -3.3768 0
M  V30 6755 H 628.231 0.73714 -3.69927 0
M  V30 6756 H 630.618 1.04975 -2.75798 0
M  V30 6757 H 630.699 -0.692918 -2.46236 0
M  V30 6758 H 630.343 -1.10992 -4.95624 0
M  V30 6759 H 630.273 0.649692 -5.22577 0
M  V30 6760 H 632.764 0.0630689 -3.77847 0
M  V30 6761 H 633.077 -0.496645 -7.71202 0
M  V30 6762 H 631.422 -0.43971 -6.93608 0
M  V30 6763 H 634.613 -0.00613174 -4.681 0
M  V30 6764 H 634.786 -0.261138 -6.47474 0
M  V30 6765 N 628.193 1.56834 0.155195 0
M  V30 6766 C 629.423 1.86778 0.883044 0
M  V30 6767 C 629.831 0.703824 1.75622 0
M  V30 6768 O 629.174 -0.33581 1.80605 0
M  V30 6769 C 629.236 3.1133 1.79761 0
M  V30 6770 C 628.9 4.43504 1.10242 0
M  V30 6771 C 629.897 5.17859 0.460204 0
M  V30 6772 C 627.582 4.90233 1.09437 0
M  V30 6773 C 629.576 6.37144 -0.180782 0
M  V30 6774 C 627.263 6.09444 0.449569 0
M  V30 6775 C 628.261 6.82744 -0.186888 0
M  V30 6776 O 627.949 7.99692 -0.821486 0
M  V30 6777 H 627.681 0.62352 0.261149 0
M  V30 6778 H 630.235 2.04813 0.155204 0
M  V30 6779 H 628.465 2.89282 2.56618 0
M  V30 6780 H 630.154 3.27587 2.39669 0
M  V30 6781 H 630.92 4.8283 0.458289 0
M  V30 6782 H 626.799 4.33109 1.57917 0
M  V30 6783 H 630.343 6.94296 -0.678154 0
M  V30 6784 H 626.24 6.43936 0.449123 0
M  V30 6785 H 627.008 8.15306 -0.722337 0
M  V30 6786 N 629.671 -0.424282 1.51781 0
M  V30 6787 C 630.601 -1.52305 1.7699 0
M  V30 6788 C 631.582 -1.5839 0.620209 0
M  V30 6789 O 632.767 -1.73908 0.864268 0
M  V30 6790 C 629.897 -2.90271 1.90683 0
M  V30 6791 C 628.851 -2.99043 3.06198 0
M  V30 6792 C 628.177 -4.39116 3.05092 0
M  V30 6793 C 629.477 -2.7192 4.45934 0
M  V30 6794 H 631.171 -1.31461 2.68995 0
M  V30 6795 H 628.717 -0.630985 1.29439 0
M  V30 6796 H 630.67 -3.6711 2.06901 0
M  V30 6797 H 629.394 -3.12376 0.953365 0
M  V30 6798 H 628.053 -2.24646 2.89706 0
M  V30 6799 H 627.701 -4.58207 2.07498 0
M  V30 6800 H 627.401 -4.45912 3.82669 0
M  V30 6801 H 628.925 -5.17911 3.2342 0
M  V30 6802 H 630.339 -3.38487 4.62709 0
M  V30 6803 H 628.736 -2.90111 5.25315 0
M  V30 6804 H 629.806 -1.67445 4.55072 0
M  V30 6805 N 631.149 -1.42148 -0.680565 0
M  V30 6806 C 632.081 -1.41119 -1.80605 0
M  V30 6807 C 633.094 -0.311099 -1.598 0
M  V30 6808 O 634.283 -0.573813 -1.69026 0
M  V30 6809 C 631.383 -1.18204 -3.17618 0
M  V30 6810 C 630.556 -2.40537 -3.65322 0
M  V30 6811 C 629.615 -2.13254 -4.8105 0
M  V30 6812 O 628.641 -2.8641 -4.91892 0
M  V30 6813 N 629.843 -1.13208 -5.69354 0
M  V30 6814 H 632.608 -2.38128 -1.81975 0
M  V30 6815 H 630.169 -1.36953 -0.863446 0
M  V30 6816 H 632.161 -0.97878 -3.92686 0
M  V30 6817 H 630.731 -0.29738 -3.11182 0
M  V30 6818 H 629.951 -2.76468 -2.80996 0
M  V30 6819 H 631.239 -3.22012 -3.93936 0
M  V30 6820 H 630.637 -0.526893 -5.63241 0
M  V30 6821 H 629.194 -0.988699 -6.44258 0
M  V30 6822 N 632.627 0.916307 -1.28225 0
M  V30 6823 C 633.904 1.64429 -1.05936 0
M  V30 6824 C 634.284 2.07234 0.402139 0
M  V30 6825 O 633.632 1.81535 1.3877 0
M  V30 6826 C 633.842 2.83773 -2.03159 0
M  V30 6827 C 635.19 3.54852 -2.33164 0
M  V30 6828 O 636.214 2.93918 -2.01223 0
M  V30 6829 O 635.073 4.64663 -2.87664 0
M  V30 6830 H 632.167 0.721221 -0.404683 0
M  V30 6831 H 634.713 0.965838 -1.39534 0
M  V30 6832 H 633.485 2.49217 -3.01673 0
M  V30 6833 H 633.108 3.59333 -1.70192 0
M  V30 6834 N 634.105 1.10431 1.1244 0
M  V30 6835 C 635.053 0.747974 2.20246 0
M  V30 6836 C 636.047 -0.255848 1.67457 0
M  V30 6837 O 637.253 -0.116221 1.79624 0
M  V30 6838 H 633.628 0.223946 0.71788 0
M  V30 6839 H 635.599 1.6661 2.47556 0
M  V30 6840 C 634.348 0.195957 3.47147 0
M  V30 6841 H 633.671 0.959606 3.88113 0
M  V30 6842 H 635.111 -0.0153154 4.23997 0
M  V30 6843 C 633.57 -1.07132 3.19413 0
M  V30 6844 O 634.1 -2.15284 3.3914 0
M  V30 6845 N 632.306 -0.98994 2.73219 0
M  V30 6846 H 631.853 -0.109736 2.57366 0
M  V30 6847 H 631.811 -1.83856 2.55038 0
M  V30 6848 N 635.583 -1.29855 0.893053 0
M  V30 6849 C 636.994 -1.77946 0.564998 0
M  V30 6850 C 637.345 -1.73339 -0.919134 0
M  V30 6851 O 636.47 -1.3152 -1.71847 0
M  V30 6852 C 637.065 -3.23118 1.01883 0
M  V30 6853 C 635.624 -3.69013 0.742051 0
M  V30 6854 C 634.771 -2.50121 1.19727 0
M  V30 6855 H 637.722 -1.16611 1.07646 0
M  V30 6856 H 637.743 -3.78875 0.351249 0
M  V30 6857 H 637.255 -3.26439 2.09903 0
M  V30 6858 H 635.356 -3.71173 -0.325816 0
M  V30 6859 H 635.469 -4.60117 1.33527 0
M  V30 6860 H 633.833 -2.47128 0.616418 0
M  V30 6861 H 634.616 -2.56174 2.28538 0
M  V30 6862 N 637.061 -0.65484 -1.43351 0
M  V30 6863 C 638.024 0.0263562 -2.29185 0
M  V30 6864 C 639.024 0.748951 -1.42293 0
M  V30 6865 O 640.214 0.589957 -1.63906 0
M  V30 6866 C 637.346 1.04806 -3.2439 0
M  V30 6867 H 638.539 -0.728883 -2.90908 0
M  V30 6868 H 636.092 -0.416149 -1.50658 0
M  V30 6869 H 636.827 1.83247 -2.67565 0
M  V30 6870 H 636.612 0.533554 -3.88453 0
M  V30 6871 H 638.102 1.52372 -3.88809 0
M  V30 6872 N 638.539 1.52521 -0.396863 0
M  V30 6873 C 639.764 2.06571 0.185258 0
M  V30 6874 C 640.189 1.26605 1.39115 0
M  V30 6875 O 639.547 0.293055 1.78916 0
M  V30 6876 C 639.595 3.5674 0.526189 0
M  V30 6877 O 638.699 3.7929 1.61903 0
M  V30 6878 H 638.04 0.663712 0.0195474 0
M  V30 6879 H 640.57 1.966 -0.566519 0
M  V30 6880 H 640.58 4.00311 0.788338 0
M  V30 6881 H 639.255 4.14379 -0.355397 0
M  V30 6882 H 637.832 3.47605 1.35 0
M  V30 6883 N 640.017 0.126909 1.57088 0
M  V30 6884 C 641.265 -0.528123 1.95078 0
M  V30 6885 C 641.586 -1.66708 1.0116 0
M  V30 6886 O 640.856 -1.95777 0.0693527 0
M  V30 6887 H 639.436 -0.198087 0.720257 0
M  V30 6888 H 642.098 0.197703 1.93895 0
M  V30 6889 H 641.194 -0.917507 2.98309 0
M  V30 6890 N 641.495 -1.56914 -0.146875 0
M  V30 6891 C 642.405 -2.0154 -1.20079 0
M  V30 6892 C 643.421 -0.930838 -1.47008 0
M  V30 6893 O 644.597 -1.24032 -1.58676 0
M  V30 6894 C 641.662 -2.38715 -2.51428 0
M  V30 6895 C 640.723 -3.6112 -2.32145 0
M  V30 6896 C 639.956 -3.96512 -3.57231 0
M  V30 6897 O 640.179 -3.32566 -4.63418 0
M  V30 6898 O 639.113 -4.89758 -3.49887 0
M  V30 6899 H 642.939 -2.91506 -0.851924 0
M  V30 6900 H 640.524 -1.45106 -0.355607 0
M  V30 6901 H 642.406 -2.63485 -3.28867 0
M  V30 6902 H 641.081 -1.51903 -2.85845 0
M  V30 6903 H 639.988 -3.41536 -1.52656 0
M  V30 6904 H 641.321 -4.48549 -2.02644 0
M  V30 6905 N 642.974 0.416227 -1.52004 0
M  V30 6906 C 643.921 1.50666 -1.74838 0
M  V30 6907 C 644.891 1.55245 -0.590599 0
M  V30 6908 O 646.076 1.71928 -0.827374 0
M  V30 6909 C 643.216 2.88185 -1.89851 0
M  V30 6910 C 642.329 2.92971 -3.17478 0
M  V30 6911 C 641.464 4.21745 -3.22962 0
M  V30 6912 C 640.503 4.20478 -4.4482 0
M  V30 6913 N 639.64 5.40811 -4.47736 0
M  V30 6914 H 644.48 1.30498 -2.67907 0
M  V30 6915 H 642.017 0.633568 -1.32757 0
M  V30 6916 H 643.975 3.68007 -1.96537 0
M  V30 6917 H 642.605 3.06865 -1.00169 0
M  V30 6918 H 641.657 2.05684 -3.19997 0
M  V30 6919 H 642.969 2.87899 -4.07328 0
M  V30 6920 H 642.123 5.09954 -3.28682 0
M  V30 6921 H 640.862 4.29503 -2.31038 0
M  V30 6922 H 639.867 3.30659 -4.39254 0
M  V30 6923 H 641.092 4.14366 -5.38031 0
M  V30 6924 H 639.038 5.4925 -3.58692 0
M  V30 6925 H 638.955 5.37705 -5.31422 0
M  V30 6926 H 640.223 6.30993 -4.57676 0
M  V30 6927 N 644.452 1.42507 0.673017 0
M  V30 6928 C 645.699 1.43072 1.43306 0
M  V30 6929 C 646.027 0.0478004 1.94441 0
M  V30 6930 O 645.282 -0.944106 1.71421 0
M  V30 6931 C 645.581 2.40351 2.64511 0
M  V30 6932 C 645.247 3.8669 2.31908 0
M  V30 6933 C 643.909 4.26551 2.22728 0
M  V30 6934 C 646.261 4.78991 2.05467 0
M  V30 6935 C 643.589 5.56691 1.85234 0
M  V30 6936 C 645.941 6.09476 1.69477 0
M  V30 6937 C 644.605 6.48334 1.58808 0
M  V30 6938 H 643.875 0.523536 0.524395 0
M  V30 6939 H 646.522 1.75459 0.76723 0
M  V30 6940 H 644.827 2.01297 3.36135 0
M  V30 6941 H 646.524 2.38051 3.22696 0
M  V30 6942 H 643.114 3.55132 2.39956 0
M  V30 6943 H 647.298 4.48982 2.11492 0
M  V30 6944 H 642.554 5.85657 1.75545 0
M  V30 6945 H 646.728 6.80482 1.48043 0
M  V30 6946 H 644.355 7.49084 1.29525 0
M  V30 6947 N 645.93 -0.909495 1.28709 0
M  V30 6948 C 646.893 -1.99399 1.13016 0
M  V30 6949 C 647.893 -1.60654 0.068536 0
M  V30 6950 O 649.083 -1.71334 0.314671 0
M  V30 6951 C 646.215 -3.33078 0.726085 0
M  V30 6952 H 647.408 -2.14751 2.09338 0
M  V30 6953 H 644.961 -1.09272 1.11756 0
M  V30 6954 H 645.696 -3.23428 -0.23771 0
M  V30 6955 H 645.481 -3.62562 1.49302 0
M  V30 6956 H 646.971 -4.12681 0.639058 0
M  V30 6957 N 647.408 -1.11026 -1.11852 0
M  V30 6958 C 648.638 -0.877544 -1.87037 0
M  V30 6959 C 649.046 0.575925 -1.80221 0
M  V30 6960 O 648.389 1.40916 -1.17849 0
M  V30 6961 C 648.451 -1.25529 -3.36872 0
M  V30 6962 C 648.115 -2.71704 -3.67459 0
M  V30 6963 C 649.112 -3.69931 -3.65304 0
M  V30 6964 C 646.797 -3.08243 -3.966 0
M  V30 6965 C 648.791 -5.02717 -3.9186 0
M  V30 6966 C 646.478 -4.41215 -4.22815 0
M  V30 6967 C 647.476 -5.38262 -4.20432 0
M  V30 6968 O 647.164 -6.68839 -4.45992 0
M  V30 6969 H 646.896 -0.314374 -0.598452 0
M  V30 6970 H 649.45 -1.48015 -1.42411 0
M  V30 6971 H 647.68 -0.595808 -3.82082 0
M  V30 6972 H 649.369 -0.999064 -3.93413 0
M  V30 6973 H 650.135 -3.43047 -3.42846 0
M  V30 6974 H 646.014 -2.33326 -3.97593 0
M  V30 6975 H 649.558 -5.78456 -3.89916 0
M  V30 6976 H 645.455 -4.67835 -4.44748 0
M  V30 6977 H 646.223 -6.74563 -4.63581 0
M  V30 6978 N 648.886 1.2938 -0.899927 0
M  V30 6979 C 650.132 1.9584 -0.526742 0
M  V30 6980 C 650.465 1.70774 0.924651 0
M  V30 6981 O 649.74 1.02084 1.65557 0
M  V30 6982 C 650.023 3.50638 -0.820062 0
M  V30 6983 C 649.876 3.85161 -2.32317 0
M  V30 6984 C 651.195 4.3903 -0.30671 0
M  V30 6985 H 648.314 0.711322 -0.192848 0
M  V30 6986 H 650.956 1.52992 -1.12665 0
M  V30 6987 H 649.106 3.87265 -0.309491 0
M  V30 6988 H 650.778 3.58477 -2.9033 0
M  V30 6989 H 649.021 3.32696 -2.78381 0
M  V30 6990 H 649.692 4.93204 -2.47898 0
M  V30 6991 H 652.168 4.09396 -0.743908 0
M  V30 6992 H 651.044 5.46226 -0.541144 0
M  V30 6993 H 651.305 4.34937 0.792588 0
M  V30 6994 N 650.364 0.662433 1.43002 0
M  V30 6995 C 651.775 0.258315 1.84904 0
M  V30 6996 C 652.126 -1.19703 1.55453 0
M  V30 6997 O 651.251 -1.91484 1.00811 0
M  V30 6998 C 651.846 0.462047 3.35635 0
M  V30 6999 C 650.405 0.112165 3.76233 0
M  V30 7000 C 649.552 0.760479 2.66668 0
M  V30 7001 H 652.503 0.865467 1.33024 0
M  V30 7002 H 652.524 -0.289646 3.79396 0
M  V30 7003 H 652.036 1.52135 3.57039 0
M  V30 7004 H 650.137 -0.944179 3.60439 0
M  V30 7005 H 650.25 0.544058 4.76001 0
M  V30 7006 H 648.614 0.192887 2.53969 0
M  V30 7007 H 649.397 1.82299 2.90898 0
M  V30 7008 N 651.842 -1.52309 0.404946 0
M  V30 7009 C 653.089 -2.01767 -0.1722 0
M  V30 7010 C 653.417 -1.29075 -1.45498 0
M  V30 7011 O 652.672 -0.3843 -1.9189 0
M  V30 7012 C 652.971 -3.54284 -0.470895 0
M  V30 7013 C 652.637 -4.45079 0.722194 0
M  V30 7014 C 651.299 -4.69617 1.04946 0
M  V30 7015 C 653.651 -4.98555 1.51962 0
M  V30 7016 C 650.979 -5.44878 2.17543 0
M  V30 7017 C 653.331 -5.75049 2.63632 0
M  V30 7018 C 651.995 -5.9786 2.9685 0
M  V30 7019 H 651.265 -0.738316 -0.0630125 0
M  V30 7020 H 653.912 -1.83566 0.545506 0
M  V30 7021 H 652.217 -3.70642 -1.27012 0
M  V30 7022 H 653.914 -3.90058 -0.930346 0
M  V30 7023 H 650.504 -4.26155 0.457131 0
M  V30 7024 H 654.688 -4.79509 1.28002 0
M  V30 7025 H 649.944 -5.60762 2.43631 0
M  V30 7026 H 654.118 -6.15483 3.25813 0
M  V30 7027 H 651.745 -6.5596 3.84215 0
M  V30 7028 N 653.32 -0.135238 -1.57019 0
M  V30 7029 C 654.568 0.51777 -1.95355 0
M  V30 7030 C 654.889 1.6617 -1.02042 0
M  V30 7031 O 654.159 1.95738 -0.0797343 0
M  V30 7032 H 652.739 0.194264 -0.721298 0
M  V30 7033 H 655.401 -0.207983 -1.93787 0
M  V30 7034 H 654.497 0.901675 -2.98791 0
M  V30 7035 N 654.798 1.5699 0.138552 0
M  V30 7036 C 655.761 1.97984 1.15478 0
M  V30 7037 C 656.761 0.867416 1.35398 0
M  V30 7038 O 657.951 1.13387 1.32246 0
M  V30 7039 C 655.083 2.3031 2.51337 0
M  V30 7040 H 656.276 2.88953 0.802896 0
M  V30 7041 H 653.829 1.51555 0.382189 0
M  V30 7042 H 654.564 1.42159 2.91481 0
M  V30 7043 H 654.349 3.11425 2.38237 0
M  V30 7044 H 655.839 2.62834 3.24512 0
M  V30 7045 N 656.276 -0.40816 1.52223 0
M  V30 7046 C 657.524 -1.15274 1.66001 0
M  V30 7047 C 657.845 -1.91003 0.392803 0
M  V30 7048 O 657.115 -1.8673 -0.592336 0
M  V30 7049 H 655.695 -0.428526 0.611861 0
M  V30 7050 H 658.357 -0.46512 1.89269 0
M  V30 7051 H 657.453 -1.86628 2.50153 0
M  V30 7052 N 657.755 -1.42862 -0.66545 0
M  V30 7053 C 659.171 -1.25993 -0.979687 0
M  V30 7054 C 659.371 -0.170831 -2.00775 0
M  V30 7055 O 658.427 0.454827 -2.4837 0
M  V30 7056 C 659.74 -2.62005 -1.47559 0
M  V30 7057 C 661.288 -2.69437 -1.59288 0
M  V30 7058 C 661.763 -4.05838 -2.12272 0
M  V30 7059 N 663.254 -4.0784 -2.19592 0
M  V30 7060 C 663.989 -5.10205 -2.61684 0
M  V30 7061 N 663.485 -6.22949 -3.03161 0
M  V30 7062 N 665.278 -4.9756 -2.61516 0
M  V30 7063 H 657.429 -2.12395 0.0150493 0
M  V30 7064 H 659.692 -0.946355 -0.0558187 0
M  V30 7065 H 659.398 -3.42605 -0.794654 0
M  V30 7066 H 659.272 -2.86566 -2.45275 0
M  V30 7067 H 661.659 -1.89178 -2.26486 0
M  V30 7068 H 661.74 -2.48655 -0.600374 0
M  V30 7069 H 661.384 -4.86559 -1.4568 0
M  V30 7070 H 661.314 -4.23977 -3.12331 0
M  V30 7071 H 663.805 -3.26452 -1.90361 0
M  V30 7072 H 664.118 -6.96899 -3.33993 0
M  V30 7073 H 662.463 -6.2644 -3.00995 0
M  V30 7074 H 665.654 -4.08551 -2.28481 0
M  V30 7075 H 665.827 -5.77468 -2.93999 0
M  V30 7076 N 659.233 0.902656 -1.29189 0
M  V30 7077 C 660.183 1.99326 -1.10695 0
M  V30 7078 C 661.167 1.60877 -0.0272521 0
M  V30 7079 O 662.359 1.75245 -0.248635 0
M  V30 7080 C 659.488 3.34265 -0.78244 0
M  V30 7081 C 658.574 3.79081 -1.90153 0
M  V30 7082 N 658.965 3.96162 -3.14466 0
M  V30 7083 C 657.263 4.08333 -1.79389 0
M  V30 7084 C 657.964 4.3388 -3.87458 0
M  V30 7085 N 656.94 4.42759 -3.15381 0
M  V30 7086 H 660.742 2.10597 -2.05003 0
M  V30 7087 H 658.256 1.09127 -1.20271 0
M  V30 7088 H 660.253 4.12097 -0.630996 0
M  V30 7089 H 658.913 3.2434 0.152754 0
M  V30 7090 H 659.924 3.81775 -3.49954 0
M  V30 7091 H 656.601 4.06982 -0.931217 0
M  V30 7092 H 657.991 4.54965 -4.94425 0
M  V30 7093 N 660.711 1.11618 1.11262 0
M  V30 7094 C 662.127 0.850468 1.35053 0
M  V30 7095 C 662.327 -0.523868 1.94571 0
M  V30 7096 O 661.383 -1.2743 2.17986 0
M  V30 7097 C 662.696 1.96005 2.28041 0
M  V30 7098 C 664.244 1.98993 2.416 0
M  V30 7099 C 664.719 3.0916 3.37911 0
M  V30 7100 N 666.21 3.08547 3.45475 0
M  V30 7101 C 666.945 3.9043 4.19943 0
M  V30 7102 N 666.441 4.8228 4.97371 0
M  V30 7103 N 668.234 3.786 4.15474 0
M  V30 7104 H 660.385 2.00184 0.709932 0
M  V30 7105 H 662.648 0.870635 0.375099 0
M  V30 7106 H 662.354 2.9499 1.91503 0
M  V30 7107 H 662.228 1.85782 3.28275 0
M  V30 7108 H 664.615 1.00633 2.77411 0
M  V30 7109 H 664.696 2.13292 1.4121 0
M  V30 7110 H 664.34 4.07748 3.02827 0
M  V30 7111 H 664.27 2.92102 4.3816 0
M  V30 7112 H 666.761 2.42 2.90249 0
M  V30 7113 H 667.074 5.41289 5.51567 0
M  V30 7114 H 665.419 4.863 4.96525 0
M  V30 7115 H 668.61 3.06185 3.54074 0
M  V30 7116 H 668.783 4.42647 4.73253 0
M  V30 7117 N 662.189 -1.289 0.906776 0
M  V30 7118 C 663.429 -1.97046 0.543329 0
M  V30 7119 C 663.793 -1.69862 -0.895034 0
M  V30 7120 O 664.994 -2.31521 -1.36571 0
M  V30 7121 C 663.265 -3.47489 0.835833 0
M  V30 7122 S 664.824 -4.3498 0.577756 0
M  V30 7123 H 661.642 -0.681908 0.201302 0
M  V30 7124 H 664.244 -1.5657 1.17073 0
M  V30 7125 H 662.948 -3.64768 1.88075 0
M  V30 7126 H 662.479 -3.92907 0.196817 0
M  V30 7127 H 664.494 -4.92868 -0.574052 0
M  V30 7128 N 663.667 -0.670007 -1.42649 0
M  V30 7129 C 664.916 -0.187526 -2.00826 0
M  V30 7130 C 665.229 1.21142 -1.53571 0
M  V30 7131 O 666.435 1.79001 -2.04134 0
M  V30 7132 C 664.891 -0.284409 -3.58774 0
M  V30 7133 C 664.499 -1.6871 -4.15019 0
M  V30 7134 C 666.243 0.139605 -4.2427 0
M  V30 7135 C 664.15 -1.73701 -5.65316 0
M  V30 7136 H 663.08 -0.0663468 -0.751075 0
M  V30 7137 H 665.731 -0.834492 -1.63427 0
M  V30 7138 H 664.113 0.430364 -3.93655 0
M  V30 7139 H 665.287 -2.42857 -3.91608 0
M  V30 7140 H 663.602 -2.05855 -3.61957 0
M  V30 7141 H 666.199 0.122398 -5.3456 0
M  V30 7142 H 666.542 1.17403 -3.99402 0
M  V30 7143 H 667.075 -0.523995 -3.94334 0
M  V30 7144 H 663.814 -2.75109 -5.94975 0
M  V30 7145 H 663.334 -1.03903 -5.90732 0
M  V30 7146 H 665.013 -1.48829 -6.2965 0
M  V30 7147 N 665.145 1.52092 -0.413018 0
M  V30 7148 C 666.393 2.01456 0.161178 0
M  V30 7149 C 666.714 1.30034 1.45314 0
M  V30 7150 O 665.984 0.427435 1.9118 0
M  V30 7151 H 664.564 0.744376 0.0625526 0
M  V30 7152 H 667.226 1.86974 -0.550151 0
M  V30 7153 H 666.322 3.1008 0.354517 0
M  V30 7154 N 666.623 0.143563 1.56945 0
M  V30 7155 C 667.533 -0.810562 2.20152 0
M  V30 7156 C 668.549 -1.27431 1.1848 0
M  V30 7157 O 669.725 -1.33221 1.51044 0
M  V30 7158 C 666.79 -2.03353 2.80799 0
M  V30 7159 C 665.851 -1.61936 3.97587 0
M  V30 7160 C 665.084 -2.78403 4.55332 0
M  V30 7161 O 665.307 -3.94521 4.11958 0
M  V30 7162 O 664.241 -2.54073 5.45647 0
M  V30 7163 H 668.067 -0.30253 3.02189 0
M  V30 7164 H 665.652 -0.0832925 1.49168 0
M  V30 7165 H 667.534 -2.74932 3.19359 0
M  V30 7166 H 666.209 -2.53116 2.01777 0
M  V30 7167 H 665.116 -0.873904 3.6375 0
M  V30 7168 H 666.449 -1.16892 4.78118 0
M  V30 7169 N 668.101 -1.57061 -0.130224 0
M  V30 7170 C 669.049 -2.00486 -1.17933 0
M  V30 7171 C 670.043 -0.899933 -1.43519 0
M  V30 7172 O 671.249 -1.08514 -1.43613 0
M  V30 7173 H 667.624 -0.638441 -0.397363 0
M  V30 7174 H 669.595 -2.87848 -0.786501 0
M  V30 7175 C 668.344 -2.41565 -2.50084 0
M  V30 7176 H 667.667 -3.26148 -2.31231 0
M  V30 7177 H 669.107 -2.75757 -3.22078 0
M  V30 7178 C 667.566 -1.27485 -3.11848 0
M  V30 7179 O 668.096 -0.584688 -3.97422 0
M  V30 7180 N 666.302 -1.03478 -2.71552 0
M  V30 7181 H 665.849 -1.59779 -2.02061 0
M  V30 7182 H 665.807 -0.27341 -3.13209 0
M  V30 7183 N 669.579 0.400081 -1.52437 0
M  V30 7184 C 670.826 1.14619 -1.6694 0
M  V30 7185 C 671.154 1.90262 -0.403797 0
M  V30 7186 O 670.409 1.85835 0.61351 0
M  V30 7187 C 670.708 2.15914 -2.84808 0
M  V30 7188 C 670.374 1.57011 -4.2268 0
M  V30 7189 C 669.036 1.40672 -4.60179 0
M  V30 7190 C 671.388 1.14081 -5.08562 0
M  V30 7191 C 668.716 0.799335 -5.81229 0
M  V30 7192 C 671.068 0.547573 -6.30226 0
M  V30 7193 C 669.732 0.371389 -6.66466 0
M  V30 7194 H 669.002 0.419419 -0.610875 0
M  V30 7195 H 671.649 0.432227 -1.86558 0
M  V30 7196 H 669.954 2.93488 -2.59561 0
M  V30 7197 H 671.651 2.73533 -2.93225 0
M  V30 7198 H 668.241 1.70713 -3.93135 0
M  V30 7199 H 672.425 1.2551 -4.80168 0
M  V30 7200 H 667.681 0.65093 -6.07925 0
M  V30 7201 H 671.855 0.206575 -6.96094 0
M  V30 7202 H 669.482 -0.10135 -7.60132 0
M  V30 7203 N 671.057 1.43213 0.657864 0
M  V30 7204 C 672.02 1.47687 1.75275 0
M  V30 7205 C 673.02 0.362179 1.56668 0
M  V30 7206 O 674.21 0.623734 1.62651 0
M  V30 7207 C 671.342 1.32497 3.14098 0
M  V30 7208 H 672.535 2.4519 1.7269 0
M  V30 7209 H 670.088 1.2991 0.869087 0
M  V30 7210 H 670.823 0.359831 3.22298 0
M  V30 7211 H 670.608 2.13299 3.29008 0
M  V30 7212 H 672.098 1.38549 3.93946 0
M  V30 7213 N 672.536 -0.895792 1.29666 0
M  V30 7214 C 673.766 -1.67757 1.20586 0
M  V30 7215 C 674.174 -1.87729 -0.235432 0
M  V30 7216 O 673.517 -1.41706 -1.16898 0
M  V30 7217 C 673.579 -3.08117 1.85215 0
M  V30 7218 C 673.243 -3.1136 3.3452 0
M  V30 7219 C 674.24 -2.91217 4.30684 0
M  V30 7220 C 671.925 -3.33302 3.75786 0
M  V30 7221 C 673.919 -2.92955 5.66089 0
M  V30 7222 C 671.606 -3.3467 5.11311 0
M  V30 7223 C 672.604 -3.14519 6.06273 0
M  V30 7224 O 672.292 -3.15684 7.39323 0
M  V30 7225 H 672.024 -0.530601 0.418854 0
M  V30 7226 H 674.578 -1.12831 1.71634 0
M  V30 7227 H 672.808 -3.64661 1.28683 0
M  V30 7228 H 674.497 -3.68399 1.70403 0
M  V30 7229 H 675.263 -2.74074 4.00136 0
M  V30 7230 H 671.142 -3.48025 3.02324 0
M  V30 7231 H 674.686 -2.77145 6.40185 0
M  V30 7232 H 670.583 -3.51346 5.41504 0
M  V30 7233 H 671.351 -3.31924 7.48177 0
M  V30 7234 N 674.014 -1.12206 -1.10668 0
M  V30 7235 C 675.26 -0.877172 -1.82848 0
M  V30 7236 C 675.593 0.595571 -1.84842 0
M  V30 7237 O 674.868 1.44013 -1.30731 0
M  V30 7238 C 675.151 -1.44957 -3.29635 0
M  V30 7239 C 675.004 -2.99051 -3.35989 0
M  V30 7240 C 676.323 -1.10714 -4.25946 0
M  V30 7241 H 673.442 -0.320103 -0.663854 0
M  V30 7242 H 676.084 -1.38827 -1.2972 0
M  V30 7243 H 674.234 -1.01488 -3.7501 0
M  V30 7244 H 675.906 -3.51182 -2.99113 0
M  V30 7245 H 674.149 -3.34705 -2.75962 0
M  V30 7246 H 674.82 -3.34194 -4.39339 0
M  V30 7247 H 677.296 -1.48254 -3.88793 0
M  V30 7248 H 676.172 -1.5343 -5.2702 0
M  V30 7249 H 676.433 -0.019 -4.42096 0
M  V30 7250 N 675.492 1.28418 -0.913599 0
M  V30 7251 C 676.424 2.26368 -0.359169 0
M  V30 7252 C 677.437 1.54858 0.502285 0
M  V30 7253 O 678.626 1.75659 0.31719 0
M  V30 7254 C 675.726 3.35112 0.50526 0
M  V30 7255 C 674.899 4.36126 -0.333648 0
M  V30 7256 C 673.958 5.24134 0.465845 0
M  V30 7257 O 672.984 5.6907 -0.121538 0
M  V30 7258 N 674.186 5.52892 1.76891 0
M  V30 7259 H 676.951 2.74579 -1.2011 0
M  V30 7260 H 674.512 1.41898 -0.779532 0
M  V30 7261 H 676.504 3.90926 1.04684 0
M  V30 7262 H 675.074 2.86611 1.2479 0
M  V30 7263 H 674.294 3.79776 -1.0566 0
M  V30 7264 H 675.582 5.00638 -0.907669 0
M  V30 7265 H 674.98 5.18217 2.26865 0
M  V30 7266 H 673.537 6.11464 2.25732 0
M  V30 7267 N 676.97 0.677563 1.42291 0
M  V30 7268 C 678.219 0.198173 2.00724 0
M  V30 7269 C 678.532 -1.20325 1.54211 0
M  V30 7270 O 679.738 -1.77916 2.05081 0
M  V30 7271 C 678.194 0.303432 3.58619 0
M  V30 7272 C 677.802 1.70909 4.14119 0
M  V30 7273 C 679.546 -0.117103 4.24338 0
M  V30 7274 C 677.453 1.76696 5.64387 0
M  V30 7275 H 676.383 0.070329 0.750713 0
M  V30 7276 H 679.034 0.843147 1.62982 0
M  V30 7277 H 677.416 -0.409482 3.93877 0
M  V30 7278 H 678.59 2.44931 3.90315 0
M  V30 7279 H 676.905 2.07771 3.6086 0
M  V30 7280 H 679.502 -0.0940471 5.34617 0
M  V30 7281 H 679.845 -1.15283 4.00019 0
M  V30 7282 H 680.378 0.5449 3.9405 0
M  V30 7283 H 677.117 2.7826 5.93508 0
M  V30 7284 H 676.637 1.07034 5.90173 0
M  V30 7285 H 678.316 1.52166 6.28852 0
M  V30 7286 N 678.448 -1.51871 0.421078 0
M  V30 7287 C 679.395 -2.27334 -0.398508 0
M  V30 7288 C 680.365 -1.30241 -1.03085 0
M  V30 7289 O 681.55 -1.59121 -1.05285 0
M  V30 7290 C 678.69 -3.10664 -1.50272 0
M  V30 7291 C 677.803 -4.2273 -0.890122 0
M  V30 7292 C 676.938 -4.93399 -1.96803 0
M  V30 7293 C 675.977 -5.97409 -1.333 0
M  V30 7294 N 675.114 -6.61548 -2.35156 0
M  V30 7295 H 679.954 -2.96938 0.251411 0
M  V30 7296 H 677.491 -1.46472 0.135825 0
M  V30 7297 H 679.449 -3.57292 -2.15403 0
M  V30 7298 H 678.079 -2.43207 -2.1225 0
M  V30 7299 H 677.131 -3.80186 -0.127537 0
M  V30 7300 H 678.443 -4.97302 -0.386349 0
M  V30 7301 H 677.597 -5.43491 -2.69633 0
M  V30 7302 H 676.336 -4.18421 -2.50549 0
M  V30 7303 H 675.341 -5.46624 -0.59008 0
M  V30 7304 H 676.566 -6.74335 -0.803076 0
M  V30 7305 H 674.512 -5.89394 -2.88012 0
M  V30 7306 H 674.429 -7.31832 -1.89624 0
M  V30 7307 H 675.697 -7.16276 -3.0752 0
M  V30 7308 N 679.926 -0.151884 -1.56866 0
M  V30 7309 C 681.154 0.504813 -2.00647 0
M  V30 7310 C 681.569 1.58098 -1.03201 0
M  V30 7311 O 680.926 1.82476 -0.0297814 0
M  V30 7312 C 680.977 1.10099 -3.44326 0
M  V30 7313 O 680.698 0.0678021 -4.38048 0
M  V30 7314 C 682.199 1.83782 -4.03409 0
M  V30 7315 H 679.419 0.130989 -0.65809 0
M  V30 7316 H 681.963 -0.247903 -2.02992 0
M  V30 7317 H 680.118 1.8043 -3.42817 0
M  V30 7318 H 680.532 0.505237 -5.22061 0
M  V30 7319 H 682.006 2.2078 -5.05925 0
M  V30 7320 H 682.483 2.72557 -3.44397 0
M  V30 7321 H 683.089 1.18138 -4.08563 0
M  V30 7322 N 681.404 1.57128 0.121893 0
M  V30 7323 C 682.653 1.83888 0.828748 0
M  V30 7324 C 682.966 0.737087 1.81181 0
M  V30 7325 O 684.172 0.891007 2.56463 0
M  V30 7326 C 682.628 3.26014 1.52455 0
M  V30 7327 C 682.236 4.44195 0.58263 0
M  V30 7328 C 683.98 3.62025 2.21671 0
M  V30 7329 C 681.887 5.77349 1.28149 0
M  V30 7330 H 680.817 0.685856 0.313238 0
M  V30 7331 H 683.468 1.83319 0.0814851 0
M  V30 7332 H 681.85 3.21044 2.31834 0
M  V30 7333 H 683.024 4.60457 -0.177729 0
M  V30 7334 H 681.339 4.164 -0.00241228 0
M  V30 7335 H 683.936 4.58776 2.74643 0
M  V30 7336 H 684.279 2.89315 2.99337 0
M  V30 7337 H 684.812 3.68767 1.49184 0
M  V30 7338 H 681.551 6.53221 0.546189 0
M  V30 7339 H 681.071 5.64978 2.01394 0
M  V30 7340 H 682.75 6.21006 1.81549 0
M  V30 7341 N 682.882 -0.391992 1.52647 0
M  V30 7342 C 684.128 -1.13563 1.68745 0
M  V30 7343 C 684.483 -1.87745 0.420685 0
M  V30 7344 O 683.776 -1.82434 -0.585529 0
M  V30 7345 C 683.97 -2.14401 2.85949 0
M  V30 7346 C 683.799 -1.50124 4.23902 0
M  V30 7347 C 682.569 -1.2666 4.89168 0
M  V30 7348 C 684.767 -0.952933 5.05395 0
M  V30 7349 N 682.749 -0.584555 6.11111 0
M  V30 7350 C 684.12 -0.398784 6.18716 0
M  V30 7351 C 686.175 -0.849053 4.90607 0
M  V30 7352 C 684.878 0.249084 7.18869 0
M  V30 7353 C 686.904 -0.215011 5.91009 0
M  V30 7354 C 686.266 0.328382 7.03634 0
M  V30 7355 H 682.365 -0.401628 0.670984 0
M  V30 7356 H 684.949 -0.425585 1.89992 0
M  V30 7357 H 683.12 -2.82746 2.66288 0
M  V30 7358 H 684.852 -2.8125 2.90999 0
M  V30 7359 H 681.607 -1.54078 4.47836 0
M  V30 7360 H 682.031 -0.259663 6.76502 0
M  V30 7361 H 686.673 -1.25497 4.03745 0
M  V30 7362 H 684.391 0.667019 8.05342 0
M  V30 7363 H 687.977 -0.135921 5.81641 0
M  V30 7364 H 686.857 0.811257 7.79992 0
M  V30 7365 N 684.36 -1.4356 -0.65026 0
M  V30 7366 C 685.585 -1.48995 -1.44275 0
M  V30 7367 C 686.01 -0.109954 -1.87778 0
M  V30 7368 O 685.368 0.896926 -1.57559 0
M  V30 7369 C 685.416 -2.44341 -2.65198 0
M  V30 7370 O 684.52 -1.93172 -3.6436 0
M  V30 7371 H 683.861 -0.503852 -0.432469 0
M  V30 7372 H 686.391 -1.88504 -0.795446 0
M  V30 7373 H 686.401 -2.61743 -3.12977 0
M  V30 7374 H 685.076 -3.44588 -2.32877 0
M  V30 7375 H 683.653 -1.85445 -3.23519 0
M  V30 7376 N 685.838 0.888903 -1.30139 0
M  V30 7377 C 687.066 1.67358 -1.21651 0
M  V30 7378 C 687.481 1.87499 0.221246 0
M  V30 7379 O 686.838 1.41969 1.14677 0
M  V30 7380 C 686.889 3.05213 -1.93719 0
M  V30 7381 O 686.61 2.85984 -3.31881 0
M  V30 7382 C 688.111 3.9964 -1.9184 0
M  V30 7383 H 685.331 0.522365 -0.42116 0
M  V30 7384 H 687.875 1.11086 -1.71698 0
M  V30 7385 H 686.03 3.5823 -1.4748 0
M  V30 7386 H 686.444 3.73411 -3.68327 0
M  V30 7387 H 687.918 4.93749 -2.46811 0
M  V30 7388 H 688.395 4.29955 -0.896409 0
M  V30 7389 H 689.001 3.52558 -2.37872 0
M  V30 7390 N 687.317 1.12792 1.10072 0
M  V30 7391 C 688.25 0.742921 2.15768 0
M  V30 7392 C 689.228 -0.267714 1.60381 0
M  V30 7393 O 690.412 -0.160782 1.87813 0
M  V30 7394 C 687.539 0.100244 3.38552 0
M  V30 7395 C 686.585 1.07831 4.12644 0
M  V30 7396 S 687.418 2.60765 4.6772 0
M  V30 7397 C 688.574 1.97838 5.9381 0
M  V30 7398 H 688.807 1.63822 2.48092 0
M  V30 7399 H 686.34 0.947385 1.21918 0
M  V30 7400 H 688.298 -0.264175 4.09649 0
M  V30 7401 H 686.959 -0.772223 3.04459 0
M  V30 7402 H 686.152 0.576325 5.00694 0
M  V30 7403 H 685.754 1.38586 3.47376 0
M  V30 7404 H 688.046 1.32341 6.64449 0
M  V30 7405 H 688.989 2.83943 6.48677 0
M  V30 7406 H 689.397 1.43267 5.46017 0
M  V30 7407 N 688.795 -1.27931 0.920396 0
M  V30 7408 C 689.725 -2.29487 0.431024 0
M  V30 7409 C 690.706 -1.62435 -0.504861 0
M  V30 7410 O 691.891 -1.89797 -0.411176 0
M  V30 7411 C 689.021 -3.45788 -0.323709 0
M  V30 7412 C 687.975 -4.24784 0.523658 0
M  V30 7413 C 687.301 -5.33488 -0.359809 0
M  V30 7414 C 688.601 -4.90874 1.78437 0
M  V30 7415 H 690.295 -2.70671 1.27975 0
M  V30 7416 H 687.841 -1.30121 0.616813 0
M  V30 7417 H 689.794 -4.15927 -0.676952 0
M  V30 7418 H 688.518 -3.03502 -1.2064 0
M  V30 7419 H 687.177 -3.56382 0.85951 0
M  V30 7420 H 686.825 -4.87445 -1.24124 0
M  V30 7421 H 686.525 -5.87247 0.203605 0
M  V30 7422 H 688.049 -6.06472 -0.708787 0
M  V30 7423 H 689.463 -5.53339 1.49963 0
M  V30 7424 H 687.86 -5.54659 2.29071 0
M  V30 7425 H 688.93 -4.14988 2.50824 0
M  V30 7426 N 690.273 -0.685099 -1.4193 0
M  V30 7427 C 691.689 -0.355632 -1.55587 0
M  V30 7428 C 691.889 1.13823 -1.66273 0
M  V30 7429 O 690.945 1.92387 -1.63534 0
M  V30 7430 C 692.258 -1.09498 -2.80055 0
M  V30 7431 C 693.806 -1.07831 -2.93839 0
M  V30 7432 C 694.281 -1.79919 -4.21181 0
M  V30 7433 N 695.772 -1.76837 -4.28115 0
M  V30 7434 C 696.507 -2.29463 -5.25485 0
M  V30 7435 N 696.003 -2.90516 -6.28945 0
M  V30 7436 N 697.796 -2.19779 -5.17353 0
M  V30 7437 H 689.947 -1.65412 -1.33239 0
M  V30 7438 H 692.21 -0.697453 -0.642078 0
M  V30 7439 H 691.916 -2.14997 -2.78333 0
M  V30 7440 H 691.79 -0.666813 -3.71259 0
M  V30 7441 H 694.177 -0.0316152 -2.95083 0
M  V30 7442 H 694.258 -1.54545 -2.03837 0
M  V30 7443 H 693.902 -2.84562 -4.20698 0
M  V30 7444 H 693.832 -1.30647 -5.10136 0
M  V30 7445 H 696.323 -1.32315 -3.53979 0
M  V30 7446 H 696.636 -3.28266 -6.99615 0
M  V30 7447 H 694.981 -2.94589 -6.29478 0
M  V30 7448 H 698.172 -1.71763 -4.35448 0
M  V30 7449 H 698.345 -2.61097 -5.9307 0
M  V30 7450 N 691.751 1.51645 -0.429126 0
M  V30 7451 C 692.681 2.30434 0.377148 0
M  V30 7452 C 693.662 1.35493 1.02838 0
M  V30 7453 O 694.847 1.6441 1.03359 0
M  V30 7454 C 691.977 3.14038 1.48315 0
M  V30 7455 C 690.931 4.1719 0.955855 0
M  V30 7456 C 690.257 4.89263 2.15698 0
M  V30 7457 C 691.557 5.223 -0.00402136 0
M  V30 7458 H 693.251 2.98085 -0.280336 0
M  V30 7459 H 690.797 1.43354 -0.136265 0
M  V30 7460 H 692.75 3.67933 2.05435 0
M  V30 7461 H 691.474 2.44193 2.16881 0
M  V30 7462 H 690.133 3.64335 0.406929 0
M  V30 7463 H 689.781 4.15929 2.82864 0
M  V30 7464 H 689.481 5.59009 1.81059 0
M  V30 7465 H 691.005 5.45978 2.73387 0
M  V30 7466 H 692.419 5.71315 0.476607 0
M  V30 7467 H 690.816 5.99525 -0.26258 0
M  V30 7468 H 691.886 4.75638 -0.943236 0
M  V30 7469 N 693.229 0.160201 1.56784 0
M  V30 7470 C 694.459 -0.493449 2.00621 0
M  V30 7471 C 694.867 -1.5809 1.03943 0
M  V30 7472 O 694.21 -1.83675 0.0305343 0
M  V30 7473 C 694.272 -1.14169 3.4089 0
M  V30 7474 C 693.936 -0.197243 4.56574 0
M  V30 7475 C 694.933 0.580174 5.16653 0
M  V30 7476 C 692.618 -0.0963038 5.02208 0
M  V30 7477 C 694.612 1.44584 6.20785 0
M  V30 7478 C 692.299 0.772959 6.06192 0
M  V30 7479 C 693.297 1.54263 6.65351 0
M  V30 7480 O 692.985 2.39738 7.67321 0
M  V30 7481 H 692.717 -0.131764 0.663034 0
M  V30 7482 H 695.271 0.255728 2.03802 0
M  V30 7483 H 693.501 -1.93877 3.34587 0
M  V30 7484 H 695.19 -1.69641 3.6875 0
M  V30 7485 H 695.956 0.5123 4.82287 0
M  V30 7486 H 691.835 -0.685143 4.5588 0
M  V30 7487 H 695.379 2.04706 6.66889 0
M  V30 7488 H 691.276 0.842077 6.39984 0
M  V30 7489 H 692.044 2.33131 7.84597 0
M  V30 7490 N 694.707 -1.5719 -0.113559 0
M  V30 7491 C 695.617 -2.04041 -1.15777 0
M  V30 7492 C 696.633 -0.961812 -1.45001 0
M  V30 7493 O 697.809 -1.2737 -1.56009 0
M  V30 7494 C 694.874 -2.43994 -2.46308 0
M  V30 7495 C 693.935 -3.65962 -2.24433 0
M  V30 7496 C 693.168 -4.04 -3.4874 0
M  V30 7497 O 693.391 -3.42321 -4.56259 0
M  V30 7498 O 692.325 -4.97069 -3.3942 0
M  V30 7499 H 696.151 -2.93248 -0.789899 0
M  V30 7500 H 693.736 -1.45828 -0.324748 0
M  V30 7501 H 695.618 -2.70401 -3.23204 0
M  V30 7502 H 694.293 -1.57932 -2.82558 0
M  V30 7503 H 693.2 -3.44697 -1.45377 0
M  V30 7504 H 694.533 -4.52746 -1.93084 0
M  V30 7505 N 696.185 0.383891 -1.52853 0
M  V30 7506 C 697.432 1.12842 -1.68146 0
M  V30 7507 C 697.76 1.89823 -0.423954 0
M  V30 7508 O 697.015 1.86475 0.593765 0
M  V30 7509 C 697.314 2.12881 -2.87082 0
M  V30 7510 C 696.98 1.52519 -4.24322 0
M  V30 7511 C 695.642 1.35783 -4.61645 0
M  V30 7512 C 697.994 1.0868 -5.09743 0
M  V30 7513 C 695.322 0.737643 -5.82044 0
M  V30 7514 C 697.674 0.480699 -6.30771 0
M  V30 7515 C 696.338 0.300681 -6.66822 0
M  V30 7516 H 695.608 0.412917 -0.615289 0
M  V30 7517 H 698.255 0.412416 -1.87006 0
M  V30 7518 H 696.56 2.90719 -2.62659 0
M  V30 7519 H 698.257 2.70408 -2.96109 0
M  V30 7520 H 694.847 1.66534 -3.94923 0
M  V30 7521 H 699.031 1.2041 -4.81472 0
M  V30 7522 H 694.287 0.586415 -6.08581 0
M  V30 7523 H 698.461 0.132733 -6.96273 0
M  V30 7524 H 696.088 -0.181966 -7.59982 0
M  V30 7525 N 697.663 1.43903 0.642637 0
M  V30 7526 C 698.94 1.36556 1.40043 0
M  V30 7527 C 699.32 0.0185588 2.11092 0
M  V30 7528 O 698.668 -0.998438 2.05532 0
M  V30 7529 C 698.878 2.55596 2.37638 0
M  V30 7530 C 700.226 2.99153 3.01318 0
M  V30 7531 O 701.25 2.55719 2.47965 0
M  V30 7532 O 700.109 3.74427 3.98078 0
M  V30 7533 H 697.203 0.540189 0.626198 0
M  V30 7534 H 699.749 1.55971 0.668657 0
M  V30 7535 H 698.521 3.45256 1.84158 0
M  V30 7536 H 698.144 2.38334 3.18249 0
M  V30 7537 N 699.141 -0.881989 1.30609 0
M  V30 7538 C 700.071 -2.00413 1.1982 0
M  V30 7539 C 701.052 -1.69871 0.0881538 0
M  V30 7540 O 702.237 -1.92304 0.2707 0
M  V30 7541 C 699.367 -3.35641 0.89233 0
M  V30 7542 C 698.321 -3.80451 1.96064 0
M  V30 7543 C 697.647 -5.13003 1.5077 0
M  V30 7544 C 698.947 -3.98855 3.37213 0
M  V30 7545 H 700.641 -2.09698 2.13699 0
M  V30 7546 H 698.187 -1.00754 1.02882 0
M  V30 7547 H 700.14 -4.13669 0.803497 0
M  V30 7548 H 698.864 -3.26497 -0.0821381 0
M  V30 7549 H 697.523 -3.04654 2.03916 0
M  V30 7550 H 697.171 -5.0029 0.521417 0
M  V30 7551 H 696.871 -5.43956 2.22229 0
M  V30 7552 H 698.395 -5.93554 1.43271 0
M  V30 7553 H 699.809 -4.67312 3.32103 0
M  V30 7554 H 698.206 -4.41188 4.06784 0
M  V30 7555 H 699.276 -3.02614 3.78883 0
M  V30 7556 N 700.619 -1.13374 -1.09472 0
M  V30 7557 C 701.868 -0.889844 -1.8101 0
M  V30 7558 C 702.181 0.585686 -1.86625 0
M  V30 7559 O 703.387 0.946497 -2.54467 0
M  V30 7560 C 701.843 -1.54241 -3.25174 0
M  V30 7561 C 701.451 -3.05343 -3.27826 0
M  V30 7562 C 703.195 -1.37919 -4.0147 0
M  V30 7563 C 701.102 -3.63486 -4.6651 0
M  V30 7564 H 700.032 -0.329256 -0.678311 0
M  V30 7565 H 702.683 -1.36139 -1.23038 0
M  V30 7566 H 701.065 -0.998525 -3.83204 0
M  V30 7567 H 702.239 -3.66307 -2.79563 0
M  V30 7568 H 700.554 -3.21175 -2.65019 0
M  V30 7569 H 703.151 -1.78771 -5.03929 0
M  V30 7570 H 703.494 -0.323987 -4.15037 0
M  V30 7571 H 704.027 -1.89284 -3.49881 0
M  V30 7572 H 700.766 -4.68811 -4.58145 0
M  V30 7573 H 700.286 -3.073 -5.15099 0
M  V30 7574 H 701.965 -3.63134 -5.35484 0
M  V30 7575 N 702.098 1.27442 -0.927168 0
M  V30 7576 C 703.375 1.89473 -0.485742 0
M  V30 7577 C 703.755 1.83922 1.03614 0
M  V30 7578 O 703.103 1.28409 1.89007 0
M  V30 7579 C 703.313 3.33417 -1.03123 0
M  V30 7580 C 704.661 4.10333 -1.0914 0
M  V30 7581 O 705.685 3.4243 -0.98082 0
M  V30 7582 O 704.544 5.31737 -1.26165 0
M  V30 7583 H 701.638 0.812124 -0.156154 0
M  V30 7584 H 704.184 1.35713 -1.01882 0
M  V30 7585 H 702.956 3.31747 -2.07508 0
M  V30 7586 H 702.579 3.94695 -0.479767 0
M  V30 7587 N 703.576 0.692616 1.41565 0
M  V30 7588 C 704.824 0.221896 2.00878 0
M  V30 7589 C 705.145 -1.18164 1.5512 0
M  V30 7590 O 704.415 -1.79679 0.78054 0
M  V30 7591 H 702.995 0.0790463 0.742806 0
M  V30 7592 H 705.657 0.893115 1.73232 0
M  V30 7593 H 704.753 0.23702 3.11199 0
M  V30 7594 N 705.054 -1.51416 0.437162 0
M  V30 7595 C 706.284 -2.06204 -0.127859 0
M  V30 7596 C 706.692 -1.30463 -1.37026 0
M  V30 7597 O 706.035 -0.357516 -1.80187 0
M  V30 7598 C 706.097 -3.55783 -0.515632 0
M  V30 7599 C 705.761 -4.52776 0.619937 0
M  V30 7600 C 706.758 -4.98031 1.49201 0
M  V30 7601 C 704.443 -4.95878 0.800618 0
M  V30 7602 C 706.437 -5.85061 2.52947 0
M  V30 7603 C 704.124 -5.82699 1.84135 0
M  V30 7604 C 705.122 -6.27188 2.70416 0
M  V30 7605 O 704.81 -7.12284 3.72702 0
M  V30 7606 H 704.542 -0.675903 -0.011442 0
M  V30 7607 H 707.096 -1.95977 0.614986 0
M  V30 7608 H 705.326 -3.63793 -1.31118 0
M  V30 7609 H 707.015 -3.93087 -1.01179 0
M  V30 7610 H 707.781 -4.65426 1.36395 0
M  V30 7611 H 703.66 -4.60792 0.138617 0
M  V30 7612 H 707.204 -6.19708 3.20325 0
M  V30 7613 H 703.101 -6.14717 1.9696 0
M  V30 7614 H 703.869 -7.30462 3.69281 0
M  V30 7615 N 706.532 -0.168513 -1.56696 0
M  V30 7616 C 707.779 0.477158 -1.96798 0
M  V30 7617 C 708.107 1.63442 -1.05437 0
M  V30 7618 O 707.362 1.95503 -0.0878903 0
M  V30 7619 C 707.661 1.00441 -3.42996 0
M  V30 7620 C 707.327 -0.0366556 -4.50885 0
M  V30 7621 C 705.989 -0.322785 -4.80116 0
M  V30 7622 C 708.341 -0.743447 -5.1587 0
M  V30 7623 C 705.669 -1.32114 -5.71632 0
M  V30 7624 C 708.021 -1.73077 -6.08463 0
M  V30 7625 C 706.685 -2.02437 -6.36062 0
M  V30 7626 H 705.955 0.174604 -0.720135 0
M  V30 7627 H 708.602 -0.259884 -1.89728 0
M  V30 7628 H 706.907 1.81922 -3.47004 0
M  V30 7629 H 708.604 1.51294 -3.71364 0
M  V30 7630 H 705.194 0.196532 -4.28149 0
M  V30 7631 H 709.378 -0.535602 -4.93401 0
M  V30 7632 H 704.634 -1.55482 -5.913 0
M  V30 7633 H 708.808 -2.28382 -6.57886 0
M  V30 7634 H 706.435 -2.79946 -7.06777 0
M  V30 7635 N 708.01 1.57248 0.105221 0
M  V30 7636 C 709.421 1.74612 0.660865 0
M  V30 7637 C 709.772 0.789231 1.79626 0
M  V30 7638 O 708.897 -0.0346611 2.16372 0
M  V30 7639 C 709.492 3.16624 1.20559 0
M  V30 7640 C 708.051 3.35447 1.7074 0
M  V30 7641 C 707.198 2.70445 0.612764 0
M  V30 7642 H 710.149 1.5824 -0.12079 0
M  V30 7643 H 710.17 3.18937 2.07508 0
M  V30 7644 H 709.682 3.86245 0.379012 0
M  V30 7645 H 707.783 2.7089 2.5583 0
M  V30 7646 H 707.896 4.43702 1.80736 0
M  V30 7647 H 706.26 2.32061 1.04975 0
M  V30 7648 H 707.043 3.42699 -0.203066 0
M  V30 7649 N 709.488 -0.375779 1.53054 0
M  V30 7650 C 710.716 -1.14036 1.72637 0
M  V30 7651 C 711.131 -1.83342 0.450687 0
M  V30 7652 O 710.488 -1.7318 -0.575749 0
M  V30 7653 C 710.539 -2.17841 2.88492 0
M  V30 7654 O 710.26 -1.51358 4.11123 0
M  V30 7655 C 711.761 -3.06924 3.19863 0
M  V30 7656 H 708.981 -0.341386 0.577665 0
M  V30 7657 H 711.525 -0.437809 1.99759 0
M  V30 7658 H 709.68 -2.8371 2.63794 0
M  V30 7659 H 710.094 -2.20439 4.75928 0
M  V30 7660 H 711.568 -3.75763 4.04359 0
M  V30 7661 H 712.045 -3.71169 2.34798 0
M  V30 7662 H 712.651 -2.46684 3.46449 0
M  V30 7663 N 710.966 -1.44241 -0.634997 0
M  V30 7664 C 712.212 -1.47038 -1.39669 0
M  V30 7665 C 712.545 -0.101122 -1.93937 0
M  V30 7666 O 711.82 0.880699 -1.73418 0
M  V30 7667 C 712.103 -2.52763 -2.56482 0
M  V30 7668 C 711.956 -3.99032 -2.07589 0
M  V30 7669 C 713.275 -2.55031 -3.58674 0
M  V30 7670 H 710.394 -0.53537 -0.506506 0
M  V30 7671 H 713.036 -1.75898 -0.718317 0
M  V30 7672 H 711.186 -2.28284 -3.14354 0
M  V30 7673 H 712.858 -4.3463 -1.54577 0
M  V30 7674 H 711.101 -4.10994 -1.38804 0
M  V30 7675 H 711.772 -4.68649 -2.91671 0
M  V30 7676 H 714.248 -2.76893 -3.10595 0
M  V30 7677 H 713.124 -3.30916 -4.37934 0
M  V30 7678 H 713.385 -1.59085 -4.12486 0
M  V30 7679 N 712.444 0.87505 -1.31075 0
M  V30 7680 C 713.392 2.00317 -1.18219 0
M  V30 7681 C 714.386 1.69152 -0.0916872 0
M  V30 7682 O 715.592 1.7821 -0.253229 0
M  V30 7683 H 711.967 0.656981 -0.365895 0
M  V30 7684 H 713.938 2.08293 -2.13674 0
M  V30 7685 C 712.687 3.35821 -0.901095 0
M  V30 7686 H 712.01 3.6032 -1.73233 0
M  V30 7687 H 713.45 4.15366 -0.851295 0
M  V30 7688 C 711.909 3.34563 0.396114 0
M  V30 7689 O 712.439 3.75971 1.41452 0
M  V30 7690 N 710.645 2.87681 0.410832 0
M  V30 7691 H 710.192 2.54179 -0.418415 0
M  V30 7692 H 710.15 2.87223 1.27869 0
M  V30 7693 N 713.922 1.13953 1.08869 0
M  V30 7694 C 715.152 0.926825 1.84644 0
M  V30 7695 C 715.56 -0.527941 1.81685 0
M  V30 7696 O 714.903 -1.37742 1.21543 0
M  V30 7697 C 714.965 1.34416 3.33426 0
M  V30 7698 C 714.629 2.81351 3.60126 0
M  V30 7699 C 715.626 3.79486 3.55368 0
M  V30 7700 C 713.311 3.1865 3.88288 0
M  V30 7701 C 715.305 5.1293 3.78393 0
M  V30 7702 C 712.992 4.5227 4.10968 0
M  V30 7703 C 713.99 5.4922 4.06013 0
M  V30 7704 O 713.678 6.80429 4.28102 0
M  V30 7705 H 713.41 0.33013 0.589907 0
M  V30 7706 H 715.964 1.51738 1.38436 0
M  V30 7707 H 714.194 0.696901 3.80368 0
M  V30 7708 H 715.883 1.10302 3.90626 0
M  V30 7709 H 716.649 3.52017 3.3363 0
M  V30 7710 H 712.528 2.43785 3.91267 0
M  V30 7711 H 716.072 5.88591 3.74442 0
M  V30 7712 H 711.969 4.79462 4.32188 0
M  V30 7713 H 712.737 6.86617 4.45533 0
M  V30 7714 N 715.4 -1.26948 0.933913 0
M  V30 7715 C 716.628 -1.98186 0.59414 0
M  V30 7716 C 717.043 -1.69614 -0.829257 0
M  V30 7717 O 716.4 -0.960213 -1.55197 0
M  V30 7718 C 716.451 -3.52123 0.818026 0
M  V30 7719 O 716.172 -3.79698 2.18543 0
M  V30 7720 C 717.673 -4.40608 0.48781 0
M  V30 7721 H 714.893 -0.632305 0.224569 0
M  V30 7722 H 717.437 -1.61646 1.25263 0
M  V30 7723 H 715.592 -3.86851 0.206246 0
M  V30 7724 H 716.006 -4.7426 2.24005 0
M  V30 7725 H 717.48 -5.47606 0.695126 0
M  V30 7726 H 717.957 -4.35394 -0.576913 0
M  V30 7727 H 718.563 -4.11411 1.078 0
M  V30 7728 N 716.879 -0.700114 -1.41195 0
M  V30 7729 C 718.107 -0.242179 -2.05478 0
M  V30 7730 C 718.522 1.11029 -1.52702 0
M  V30 7731 O 717.879 1.69473 -0.677127 0
M  V30 7732 C 717.93 -0.196271 -3.60967 0
M  V30 7733 O 717.651 -1.49532 -4.11791 0
M  V30 7734 C 719.152 0.282102 -4.42401 0
M  V30 7735 H 716.372 -0.111749 -0.661629 0
M  V30 7736 H 718.916 -0.953975 -1.80885 0
M  V30 7737 H 717.071 0.46638 -3.84582 0
M  V30 7738 H 717.485 -1.38545 -5.05871 0
M  V30 7739 H 718.959 0.263093 -5.51373 0
M  V30 7740 H 719.436 1.32174 -4.1884 0
M  V30 7741 H 720.042 -0.349712 -4.2386 0
M  V30 7742 N 718.357 1.51182 -0.445186 0
M  V30 7743 C 719.29 2.24528 0.4077 0
M  V30 7744 C 720.268 1.26778 1.01814 0
M  V30 7745 O 721.452 1.55934 1.05909 0
M  V30 7746 C 718.579 3.00171 1.56892 0
M  V30 7747 C 717.625 4.12641 1.0784 0
M  V30 7748 S 718.458 5.35498 0.014049 0
M  V30 7749 C 719.614 6.14681 1.17975 0
M  V30 7750 H 719.847 2.96522 -0.214987 0
M  V30 7751 H 717.38 1.52681 -0.229781 0
M  V30 7752 H 719.338 3.44349 2.23459 0
M  V30 7753 H 717.999 2.27752 2.16304 0
M  V30 7754 H 717.192 4.64875 1.94698 0
M  V30 7755 H 716.794 3.70765 0.490852 0
M  V30 7756 H 719.086 6.44244 2.09658 0
M  V30 7757 H 720.029 7.04659 0.697222 0
M  V30 7758 H 720.437 5.46299 1.42187 0
M  V30 7759 N 719.835 0.176821 1.56605 0
M  V30 7760 C 721.084 -0.466833 1.96223 0
M  V30 7761 C 721.397 -1.64015 1.06576 0
M  V30 7762 O 722.603 -2.3504 1.35898 0
M  V30 7763 C 721.059 -0.881921 3.48927 0
M  V30 7764 C 720.667 0.266102 4.47209 0
M  V30 7765 C 722.411 -1.49368 3.97353 0
M  V30 7766 C 720.318 -0.168923 5.91159 0
M  V30 7767 H 719.248 -0.178178 0.732645 0
M  V30 7768 H 721.899 0.265929 1.81563 0
M  V30 7769 H 720.281 -1.67082 3.59026 0
M  V30 7770 H 721.455 1.04349 4.4883 0
M  V30 7771 H 719.77 0.788178 4.08872 0
M  V30 7772 H 722.367 -1.8313 5.02362 0
M  V30 7773 H 722.71 -2.3936 3.40606 0
M  V30 7774 H 723.243 -0.769114 3.90294 0
M  V30 7775 H 719.982 0.696351 6.51791 0
M  V30 7776 H 719.502 -0.911552 5.92833 0
M  V30 7777 H 721.181 -0.610938 6.44109 0
M  V30 7778 N 721.313 -1.57302 -0.09688 0
M  V30 7779 C 722.263 -1.98369 -1.12399 0
M  V30 7780 C 723.247 -0.861872 -1.3587 0
M  V30 7781 O 724.439 -1.1257 -1.36591 0
M  V30 7782 C 721.568 -2.41017 -2.4447 0
M  V30 7783 C 720.654 -3.59881 -2.24381 0
M  V30 7784 N 721.045 -4.74872 -1.74155 0
M  V30 7785 C 719.343 -3.65943 -2.54954 0
M  V30 7786 C 720.044 -5.56823 -1.68294 0
M  V30 7787 N 719.02 -4.99942 -2.13444 0
M  V30 7788 H 722.822 -2.84726 -0.728575 0
M  V30 7789 H 720.336 -1.59523 -0.304332 0
M  V30 7790 H 722.333 -2.68665 -3.18786 0
M  V30 7791 H 720.993 -1.56036 -2.84751 0
M  V30 7792 H 722.004 -4.97657 -1.43379 0
M  V30 7793 H 718.681 -2.9162 -2.98771 0
M  V30 7794 H 720.071 -6.59099 -1.30528 0
M  V30 7795 N 722.791 0.367657 -1.53252 0
M  V30 7796 C 724.019 1.13119 -1.73239 0
M  V30 7797 C 724.434 1.831 -0.460404 0
M  V30 7798 O 723.791 1.73483 0.566557 0
M  V30 7799 C 723.842 2.16308 -2.89643 0
M  V30 7800 O 723.563 1.49175 -4.1192 0
M  V30 7801 C 725.064 3.05224 -3.21486 0
M  V30 7802 H 722.284 0.338318 -0.579467 0
M  V30 7803 H 724.828 0.42721 -1.99988 0
M  V30 7804 H 722.983 2.82307 -2.65295 0
M  V30 7805 H 723.397 2.17912 -4.7709 0
M  V30 7806 H 724.871 3.73613 -4.06346 0
M  V30 7807 H 725.348 3.69919 -2.36763 0
M  V30 7808 H 725.954 2.44843 -3.47753 0
M  V30 7809 N 724.269 1.44576 0.627338 0
M  V30 7810 C 725.68 1.42266 1.20902 0
M  V30 7811 C 726.031 0.139964 1.957 0
M  V30 7812 O 725.156 -0.759489 2.02634 0
M  V30 7813 C 725.751 2.57727 2.19914 0
M  V30 7814 C 724.31 2.58599 2.73502 0
M  V30 7815 C 723.457 2.34145 1.48564 0
M  V30 7816 H 726.408 1.53102 0.417791 0
M  V30 7817 H 726.429 2.30697 3.02588 0
M  V30 7818 H 725.941 3.51068 1.65447 0
M  V30 7819 H 724.042 1.6921 3.31962 0
M  V30 7820 H 724.155 3.57205 3.19282 0
M  V30 7821 H 722.519 1.83313 1.76829 0
M  V30 7822 H 723.302 3.29606 0.959935 0
M  V30 7823 N 725.747 -0.868086 1.31537 0
M  V30 7824 C 726.657 -2.00801 1.21311 0
M  V30 7825 C 727.673 -1.73518 0.129431 0
M  V30 7826 O 728.849 -1.98378 0.347588 0
M  V30 7827 C 725.914 -3.3419 0.922935 0
M  V30 7828 C 724.975 -3.74783 2.0937 0
M  V30 7829 C 724.208 -5.01807 1.81728 0
M  V30 7830 O 724.431 -5.65404 0.753313 0
M  V30 7831 O 723.365 -5.39213 2.67457 0
M  V30 7832 H 727.191 -2.12361 2.17109 0
M  V30 7833 H 724.776 -0.996684 1.11295 0
M  V30 7834 H 726.658 -4.14174 0.777033 0
M  V30 7835 H 725.333 -3.237 -0.00500301 0
M  V30 7836 H 724.24 -2.95432 2.29501 0
M  V30 7837 H 725.573 -3.89902 3.00396 0
M  V30 7838 N 727.225 -1.14528 -1.08264 0
M  V30 7839 C 728.173 -0.829201 -2.17318 0
M  V30 7840 C 729.167 0.193521 -1.68291 0
M  V30 7841 O 730.373 0.0494744 -1.79932 0
M  V30 7842 H 726.748 -0.250435 -0.709074 0
M  V30 7843 H 728.719 -1.75683 -2.41201 0
M  V30 7844 C 727.468 -0.324663 -3.46181 0
M  V30 7845 H 726.791 -1.10299 -3.84284 0
M  V30 7846 H 728.231 -0.142059 -4.23762 0
M  V30 7847 C 726.69 0.952033 -3.23169 0
M  V30 7848 O 727.22 2.02549 -3.46896 0
M  V30 7849 N 725.426 0.887854 -2.76705 0
M  V30 7850 H 724.973 0.0141402 -2.57596 0
M  V30 7851 H 724.931 1.74263 -2.61686 0
M  V30 7852 N 728.703 1.26451 -0.940633 0
M  V30 7853 C 730.114 1.75726 -0.630653 0
M  V30 7854 C 730.465 1.76631 0.854167 0
M  V30 7855 O 729.59 1.37807 1.66848 0
M  V30 7856 C 730.185 3.19114 -1.13805 0
M  V30 7857 C 728.744 3.66005 -0.878497 0
M  V30 7858 C 727.891 2.45505 -1.28928 0
M  V30 7859 H 730.842 1.12535 -1.119 0
M  V30 7860 H 730.863 3.77311 -0.491625 0
M  V30 7861 H 730.375 3.18424 -2.21874 0
M  V30 7862 H 728.476 3.72126 0.187833 0
M  V30 7863 H 728.589 4.54844 -1.50512 0
M  V30 7864 H 726.953 2.4467 -0.707713 0
M  V30 7865 H 727.736 2.47516 -2.37888 0
M  V30 7866 N 730.181 0.707592 1.40822 0
M  V30 7867 C 731.427 0.244031 2.01326 0
M  V30 7868 C 731.76 -1.15722 1.55955 0
M  V30 7869 O 731.035 -1.78347 0.776044 0
M  V30 7870 C 731.318 0.315128 3.58718 0
M  V30 7871 C 731.171 1.75419 4.14184 0
M  V30 7872 C 732.49 -0.318251 4.38948 0
M  V30 7873 H 729.609 0.0901471 0.731466 0
M  V30 7874 H 732.251 0.898584 1.67408 0
M  V30 7875 H 730.401 -0.242176 3.87744 0
M  V30 7876 H 732.073 2.36626 3.95987 0
M  V30 7877 H 730.316 2.28449 3.68773 0
M  V30 7878 H 730.987 1.75538 5.23345 0
M  V30 7879 H 733.463 0.156514 4.15806 0
M  V30 7880 H 732.339 -0.238019 5.48384 0
M  V30 7881 H 732.6 -1.40067 4.19325 0
M  V30 7882 N 731.66 -1.50943 0.453197 0
M  V30 7883 C 732.909 -2.01402 -0.10951 0
M  V30 7884 C 733.222 -1.3411 -1.42386 0
M  V30 7885 O 734.428 -1.75626 -2.07045 0
M  V30 7886 C 732.884 -3.5906 -0.245693 0
M  V30 7887 C 732.492 -4.353 1.05916 0
M  V30 7888 C 734.236 -4.17617 -0.761318 0
M  V30 7889 C 732.143 -5.84699 0.887752 0
M  V30 7890 H 731.073 -0.752674 -0.0447013 0
M  V30 7891 H 733.724 -1.73913 0.585375 0
M  V30 7892 H 732.106 -3.83062 -1.00395 0
M  V30 7893 H 733.28 -4.23034 1.82698 0
M  V30 7894 H 731.595 -3.88269 1.50452 0
M  V30 7895 H 734.192 -5.26963 -0.906306 0
M  V30 7896 H 734.535 -3.77824 -1.74799 0
M  V30 7897 H 735.068 -3.97753 -0.0609416 0
M  V30 7898 H 731.807 -6.28933 1.84726 0
M  V30 7899 H 731.327 -5.99587 0.160006 0
M  V30 7900 H 733.006 -6.44682 0.547223 0
M  V30 7901 N 733.138 -0.185124 -1.56509 0
M  V30 7902 C 734.554 0.170865 -1.58683 0
M  V30 7903 C 734.754 1.61799 -1.20098 0
M  V30 7904 O 733.81 2.35181 -0.919038 0
M  V30 7905 C 735.123 -0.122459 -3.00451 0
M  V30 7906 C 736.671 -0.0617699 -3.12939 0
M  V30 7907 C 737.146 -0.328269 -4.56822 0
M  V30 7908 N 738.637 -0.276533 -4.62374 0
M  V30 7909 C 739.372 -0.456722 -5.71578 0
M  V30 7910 N 738.868 -0.69672 -6.89288 0
M  V30 7911 N 740.661 -0.391669 -5.60734 0
M  V30 7912 H 732.812 -1.12956 -1.79874 0
M  V30 7913 H 735.075 -0.45011 -0.834329 0
M  V30 7914 H 734.781 -1.12546 -3.33206 0
M  V30 7915 H 734.655 0.579578 -3.72721 0
M  V30 7916 H 737.042 0.931826 -2.80002 0
M  V30 7917 H 737.123 -0.796732 -2.43076 0
M  V30 7918 H 736.767 -1.31914 -4.9047 0
M  V30 7919 H 736.697 0.427465 -5.24862 0
M  V30 7920 H 739.188 -0.0972458 -3.77775 0
M  V30 7921 H 739.501 -0.823291 -7.68402 0
M  V30 7922 H 737.846 -0.733497 -6.91119 0
M  V30 7923 H 741.037 -0.204663 -4.67652 0
M  V30 7924 H 741.21 -0.535518 -6.45783 0
M  V30 7925 N 734.616 1.57351 0.0885366 0
M  V30 7926 C 735.846 1.90355 0.80303 0
M  V30 7927 C 736.254 0.777678 1.72478 0
M  V30 7928 O 735.597 -0.258908 1.81866 0
M  V30 7929 C 735.659 3.18674 1.66395 0
M  V30 7930 C 735.323 4.4778 0.913327 0
M  V30 7931 C 736.32 5.19345 0.240148 0
M  V30 7932 C 734.005 4.94434 0.885462 0
M  V30 7933 C 735.999 6.35803 -0.450854 0
M  V30 7934 C 733.686 6.10802 0.190679 0
M  V30 7935 C 734.684 6.81337 -0.476295 0
M  V30 7936 O 734.372 7.95488 -1.15992 0
M  V30 7937 H 734.104 0.634035 0.234469 0
M  V30 7938 H 736.658 2.05287 0.0681959 0
M  V30 7939 H 734.888 2.99906 2.44117 0
M  V30 7940 H 736.577 3.37458 2.2556 0
M  V30 7941 H 737.343 4.84339 0.253092 0
M  V30 7942 H 733.222 4.39417 1.39406 0
M  V30 7943 H 736.766 6.90795 -0.972019 0
M  V30 7944 H 732.663 6.45261 0.175603 0
M  V30 7945 H 733.431 8.11509 -1.06749 0
M  V30 7946 N 736.094 -0.359525 1.53444 0
M  V30 7947 C 737.041 -1.44073 1.8031 0
M  V30 7948 C 738.011 -1.52946 0.647811 0
M  V30 7949 O 739.196 -1.68739 0.890614 0
M  V30 7950 C 736.336 -2.80941 2.00416 0
M  V30 7951 C 735.449 -2.80986 3.28132 0
M  V30 7952 C 734.584 -4.09468 3.38393 0
M  V30 7953 C 733.623 -4.03679 4.60119 0
M  V30 7954 N 732.76 -5.23821 4.675 0
M  V30 7955 H 737.6 -1.20464 2.72566 0
M  V30 7956 H 735.137 -0.583859 1.35017 0
M  V30 7957 H 737.095 -3.60459 2.1006 0
M  V30 7958 H 735.725 -3.02936 1.11489 0
M  V30 7959 H 734.777 -1.93666 3.27411 0
M  V30 7960 H 736.089 -2.72583 4.17732 0
M  V30 7961 H 735.243 -4.97404 3.47382 0
M  V30 7962 H 733.982 -4.20632 2.4682 0
M  V30 7963 H 732.987 -3.14129 4.51224 0
M  V30 7964 H 734.212 -3.94112 5.5304 0
M  V30 7965 H 732.158 -5.35559 3.7883 0
M  V30 7966 H 732.075 -5.17611 5.51013 0
M  V30 7967 H 733.343 -6.13572 4.8078 0
M  V30 7968 N 737.572 -1.44907 -0.619662 0
M  V30 7969 C 738.988 -1.29046 -0.939107 0
M  V30 7970 C 739.188 -0.23462 -2.00129 0
M  V30 7971 O 738.244 0.37558 -2.49691 0
M  V30 7972 C 739.557 -2.66567 -1.39149 0
M  V30 7973 C 741.105 -2.74368 -1.50635 0
M  V30 7974 C 741.58 -4.12386 -1.99253 0
M  V30 7975 N 743.071 -4.1462 -2.06506 0
M  V30 7976 C 743.806 -5.18272 -2.4532 0
M  V30 7977 N 743.302 -6.32278 -2.83189 0
M  V30 7978 N 745.095 -5.05628 -2.45554 0
M  V30 7979 H 737.246 -2.12239 0.0826135 0
M  V30 7980 H 739.509 -0.947652 -0.0256829 0
M  V30 7981 H 739.215 -3.4496 -0.685254 0
M  V30 7982 H 739.089 -2.94224 -2.36034 0
M  V30 7983 H 741.476 -1.96287 -2.20353 0
M  V30 7984 H 741.557 -2.50439 -0.520963 0
M  V30 7985 H 741.201 -4.90947 -1.30127 0
M  V30 7986 H 741.131 -4.33699 -2.98684 0
M  V30 7987 H 743.622 -3.32343 -1.79878 0
M  V30 7988 H 743.935 -7.07172 -3.11652 0
M  V30 7989 H 742.28 -6.35699 -2.80913 0
M  V30 7990 H 745.471 -4.15613 -2.15367 0
M  V30 7991 H 745.644 -5.86529 -2.75478 0
M  V30 7992 N 739.05 0.861098 -1.31996 0
M  V30 7993 C 740.466 1.14827 -1.10846 0
M  V30 7994 C 740.666 2.0117 0.11528 0
M  V30 7995 O 739.722 2.39423 0.802048 0
M  V30 7996 C 741.035 1.83183 -2.38462 0
M  V30 7997 C 742.583 1.95847 -2.44158 0
M  V30 7998 C 743.058 2.67617 -3.71679 0
M  V30 7999 N 744.549 2.75147 -3.72624 0
M  V30 8000 C 745.284 3.31314 -4.67994 0
M  V30 8001 N 744.78 3.88343 -5.73726 0
M  V30 8002 N 746.573 3.29356 -4.55501 0
M  V30 8003 H 738.724 0.285951 -2.10466 0
M  V30 8004 H 740.987 0.189303 -0.928907 0
M  V30 8005 H 740.693 1.27193 -3.27895 0
M  V30 8006 H 740.567 2.83393 -2.48935 0
M  V30 8007 H 742.954 2.50999 -1.55189 0
M  V30 8008 H 743.035 0.94653 -2.37644 0
M  V30 8009 H 742.679 2.13131 -4.61018 0
M  V30 8010 H 742.609 3.69237 -3.75462 0
M  V30 8011 H 745.1 2.34682 -2.96197 0
M  V30 8012 H 745.413 4.29338 -6.42564 0
M  V30 8013 H 743.758 3.86693 -5.77489 0
M  V30 8014 H 746.949 2.84047 -3.72069 0
M  V30 8015 H 747.122 3.7283 -5.30001 0
M  V30 8016 N 740.528 1.15101 1.07655 0
M  V30 8017 C 741.753 0.948177 1.84457 0
M  V30 8018 C 742.178 -0.498432 1.81376 0
M  V30 8019 O 741.536 -1.35509 1.20445 0
M  V30 8020 C 741.584 1.46318 3.29581 0
M  V30 8021 O 740.688 0.660342 4.07079 0
M  V30 8022 H 740.029 0.338428 0.571281 0
M  V30 8023 H 742.559 1.5301 1.35828 0
M  V30 8024 H 742.569 1.47468 3.80417 0
M  V30 8025 H 741.244 2.51635 3.31138 0
M  V30 8026 H 739.821 0.718216 3.65918 0
M  V30 8027 N 742.006 -1.2595 0.947325 0
M  V30 8028 C 742.953 -2.26159 0.460497 0
M  V30 8029 C 743.923 -1.58919 -0.483125 0
M  V30 8030 O 745.108 -1.86603 -0.397983 0
M  V30 8031 C 742.248 -3.441 -0.26247 0
M  V30 8032 C 741.361 -4.25999 0.717539 0
M  V30 8033 C 740.496 -5.31193 -0.0272486 0
M  V30 8034 C 739.535 -6.04774 0.944177 0
M  V30 8035 N 738.672 -7.01721 0.230741 0
M  V30 8036 H 743.512 -2.67173 1.31995 0
M  V30 8037 H 741.049 -1.31358 0.662088 0
M  V30 8038 H 743.007 -4.11317 -0.698137 0
M  V30 8039 H 741.637 -3.03983 -1.08602 0
M  V30 8040 H 740.689 -3.58513 1.27171 0
M  V30 8041 H 742.001 -4.76981 1.45913 0
M  V30 8042 H 741.155 -6.04451 -0.521903 0
M  V30 8043 H 739.894 -4.81066 -0.801682 0
M  V30 8044 H 738.899 -5.30338 1.4499 0
M  V30 8045 H 740.124 -6.56991 1.71872 0
M  V30 8046 H 738.07 -6.53895 -0.525088 0
M  V30 8047 H 737.987 -7.50484 0.911556 0
M  V30 8048 H 739.255 -7.79122 -0.242616 0
M  V30 8049 O 743.523 -0.8533 -1.37117 0
M  V30 8050 H 744.214 -0.44662 -1.88481 0
M  V30 END ATOM
M  V30 BEGIN BOND
M  V30 END BOND
M  V30 END CTAB
M  END
$$$$
