6037
  -OEChem-10051719083D

 51 53  0     1  0  0  0  0  0999 V2000
    7.8639    2.1057   -1.3673 O   0  0  0  0  0  0  0  0  0  0  0  0
    4.2499    1.4582    2.0864 O   0  0  0  0  0  0  0  0  0  0  0  0
    5.8603    1.7886   -2.3845 O   0  0  0  0  0  0  0  0  0  0  0  0
    7.4689   -3.5749   -0.9839 O   0  0  0  0  0  0  0  0  0  0  0  0
    8.2061   -2.6225    0.9389 O   0  0  0  0  0  0  0  0  0  0  0  0
   -6.5890    2.3275    0.4909 O   0  0  0  0  0  0  0  0  0  0  0  0
    4.7078    0.9130   -0.1208 N   0  0  0  0  0  0  0  0  0  0  0  0
   -1.6391    0.0022    0.1226 N   0  0  0  0  0  0  0  0  0  0  0  0
   -4.7597    0.3856    0.6113 N   0  0  0  0  0  0  0  0  0  0  0  0
   -7.6696   -1.2894   -0.8254 N   0  0  0  0  0  0  0  0  0  0  0  0
   -5.4931   -2.1638   -0.3085 N   0  0  0  0  0  0  0  0  0  0  0  0
   -8.2238    0.9915   -0.4182 N   0  0  0  0  0  0  0  0  0  0  0  0
   -9.7672   -0.5139   -1.3412 N   0  0  0  0  0  0  0  0  0  0  0  0
    6.1315    1.1265   -0.0566 C   0  0  1  0  0  0  0  0  0  0  0  0
    6.8998   -0.1291    0.3732 C   0  0  0  0  0  0  0  0  0  0  0  0
    6.7887   -1.3355   -0.5679 C   0  0  0  0  0  0  0  0  0  0  0  0
    3.8743    1.0998    0.9732 C   0  0  0  0  0  0  0  0  0  0  0  0
    2.4338    0.8124    0.7510 C   0  0  0  0  0  0  0  0  0  0  0  0
    6.5722    1.6850   -1.3940 C   0  0  0  0  0  0  0  0  0  0  0  0
   -0.2712    0.2734    0.3336 C   0  0  0  0  0  0  0  0  0  0  0  0
   -2.5216   -0.4032    1.1725 C   0  0  0  0  0  0  0  0  0  0  0  0
    1.6279    0.4195    1.8196 C   0  0  0  0  0  0  0  0  0  0  0  0
    1.8871    0.9359   -0.5263 C   0  0  0  0  0  0  0  0  0  0  0  0
    0.2754    0.1500    1.6110 C   0  0  0  0  0  0  0  0  0  0  0  0
    0.5345    0.6664   -0.7350 C   0  0  0  0  0  0  0  0  0  0  0  0
   -3.9031   -0.6520    0.6336 C   0  0  0  0  0  0  0  0  0  0  0  0
    7.5540   -2.5519   -0.0934 C   0  0  0  0  0  0  0  0  0  0  0  0
   -5.9855    0.1140    0.1195 C   0  0  0  0  0  0  0  0  0  0  0  0
   -6.3680   -1.1359   -0.3393 C   0  0  0  0  0  0  0  0  0  0  0  0
   -4.2629   -1.9028    0.1822 C   0  0  0  0  0  0  0  0  0  0  0  0
   -6.9554    1.2310    0.0796 C   0  0  0  0  0  0  0  0  0  0  0  0
   -8.5271   -0.2112   -0.8368 C   0  0  0  0  0  0  0  0  0  0  0  0
    6.3098    1.9158    0.6850 H   0  0  0  0  0  0  0  0  0  0  0  0
    6.5545   -0.4325    1.3705 H   0  0  0  0  0  0  0  0  0  0  0  0
    7.9622    0.1236    0.4871 H   0  0  0  0  0  0  0  0  0  0  0  0
    5.7378   -1.6277   -0.6703 H   0  0  0  0  0  0  0  0  0  0  0  0
    7.1768   -1.0655   -1.5563 H   0  0  0  0  0  0  0  0  0  0  0  0
    4.3379    0.5365   -0.9875 H   0  0  0  0  0  0  0  0  0  0  0  0
   -2.5901    0.3770    1.9411 H   0  0  0  0  0  0  0  0  0  0  0  0
   -2.1646   -1.3173    1.6634 H   0  0  0  0  0  0  0  0  0  0  0  0
    2.0367    0.3140    2.8212 H   0  0  0  0  0  0  0  0  0  0  0  0
    2.4712    1.2692   -1.3789 H   0  0  0  0  0  0  0  0  0  0  0  0
   -1.9920    0.1134   -0.8219 H   0  0  0  0  0  0  0  0  0  0  0  0
   -0.3154   -0.1518    2.4706 H   0  0  0  0  0  0  0  0  0  0  0  0
    0.1186    0.7730   -1.7336 H   0  0  0  0  0  0  0  0  0  0  0  0
   -3.5795   -2.7440    0.1943 H   0  0  0  0  0  0  0  0  0  0  0  0
    8.1435    2.4821   -2.2289 H   0  0  0  0  0  0  0  0  0  0  0  0
   -7.9479   -2.2032   -1.1600 H   0  0  0  0  0  0  0  0  0  0  0  0
    7.9783   -4.3595   -0.6888 H   0  0  0  0  0  0  0  0  0  0  0  0
   -9.9938   -1.4485   -1.6629 H   0  0  0  0  0  0  0  0  0  0  0  0
  -10.4937    0.1908   -1.4054 H   0  0  0  0  0  0  0  0  0  0  0  0
  1 19  1  0  0  0  0
  1 47  1  0  0  0  0
  2 17  2  0  0  0  0
  3 19  2  0  0  0  0
  4 27  1  0  0  0  0
  4 49  1  0  0  0  0
  5 27  2  0  0  0  0
  6 31  2  0  0  0  0
  7 14  1  0  0  0  0
  7 17  1  0  0  0  0
  7 38  1  0  0  0  0
  8 20  1  0  0  0  0
  8 21  1  0  0  0  0
  8 43  1  0  0  0  0
  9 26  1  0  0  0  0
  9 28  2  0  0  0  0
 10 29  1  0  0  0  0
 10 32  1  0  0  0  0
 10 48  1  0  0  0  0
 11 29  2  0  0  0  0
 11 30  1  0  0  0  0
 12 31  1  0  0  0  0
 12 32  2  0  0  0  0
 13 32  1  0  0  0  0
 13 50  1  0  0  0  0
 13 51  1  0  0  0  0
 14 15  1  0  0  0  0
 14 19  1  0  0  0  0
 14 33  1  0  0  0  0
 15 16  1  0  0  0  0
 15 34  1  0  0  0  0
 15 35  1  0  0  0  0
 16 27  1  0  0  0  0
 16 36  1  0  0  0  0
 16 37  1  0  0  0  0
 17 18  1  0  0  0  0
 18 22  2  0  0  0  0
 18 23  1  0  0  0  0
 20 24  2  0  0  0  0
 20 25  1  0  0  0  0
 21 26  1  0  0  0  0
 21 39  1  0  0  0  0
 21 40  1  0  0  0  0
 22 24  1  0  0  0  0
 22 41  1  0  0  0  0
 23 25  2  0  0  0  0
 23 42  1  0  0  0  0
 24 44  1  0  0  0  0
 25 45  1  0  0  0  0
 26 30  2  0  0  0  0
 28 29  1  0  0  0  0
 28 31  1  0  0  0  0
 30 46  1  0  0  0  0
M  END
> <DATABASE_ID>
DB00158

> <DATABASE_NAME>
drugbank

> <ORIGINAL_SOURCE>
PUBCHEM

> <ORIGINAL_SOURCE_URL>
https://pubchem.ncbi.nlm.nih.gov/rest/pug/compound/inchikey/OVBPIULPVIDEAO-LBPRGKRZSA-N/SDF?record_type=3d

> <SMILES>
NC1=NC(=O)C2=NC(CNC3=CC=C(C=C3)C(=O)N[C@@H](CCC(O)=O)C(O)=O)=CN=C2N1

> <INCHI_IDENTIFIER>
InChI=1S/C19H19N7O6/c20-19-25-15-14(17(30)26-19)23-11(8-22-15)7-21-10-3-1-9(2-4-10)16(29)24-12(18(31)32)5-6-13(27)28/h1-4,8,12,21H,5-7H2,(H,24,29)(H,27,28)(H,31,32)(H3,20,22,25,26,30)/t12-/m0/s1

> <INCHI_KEY>
OVBPIULPVIDEAO-LBPRGKRZSA-N

> <FORMULA>
C19H19N7O6

> <MOLECULAR_WEIGHT>
441.3975

> <EXACT_MASS>
441.139681375

> <JCHEM_ACCEPTOR_COUNT>
12

> <JCHEM_AVERAGE_POLARIZABILITY>
42.05656599350642

> <JCHEM_BIOAVAILABILITY>
0

> <JCHEM_DONOR_COUNT>
6

> <JCHEM_FORMAL_CHARGE>
0

> <JCHEM_GHOSE_FILTER>
0

> <JCHEM_IUPAC>
(2S)-2-[(4-{[(2-amino-4-oxo-1,4-dihydropteridin-6-yl)methyl]amino}phenyl)formamido]pentanedioic acid

> <ALOGPS_LOGP>
-0.04

> <JCHEM_LOGP>
-0.6822492521481692

> <ALOGPS_LOGS>
-3.76

> <JCHEM_MDDR_LIKE_RULE>
1

> <JCHEM_NUMBER_OF_RINGS>
3

> <JCHEM_PHYSIOLOGICAL_CHARGE>
-2

> <JCHEM_PKA>
4.173203635301818

> <JCHEM_PKA_STRONGEST_ACIDIC>
3.3738733533368284

> <JCHEM_PKA_STRONGEST_BASIC>
2.0868651603506487

> <JCHEM_POLAR_SURFACE_AREA>
208.99000000000004

> <JCHEM_REFRACTIVITY>
111.01120000000002

> <JCHEM_ROTATABLE_BOND_COUNT>
9

> <JCHEM_RULE_OF_FIVE>
0

> <ALOGPS_SOLUBILITY>
7.61e-02 g/l

> <JCHEM_TRADITIONAL_IUPAC>
folate

> <JCHEM_VEBER_RULE>
0

> <DRUGBANK_ID>
DB00158

> <SECONDARY_ACCESSION_NUMBERS>
NUTR00025

> <DRUG_GROUPS>
approved; nutraceutical; vet_approved

> <GENERIC_NAME>
Folic acid

> <SYNONYMS>
Acide folique; ácido fólico; Acidum folicum; Folacin; Folate; Folic acid; Folsäure; N-[(4-{[(2-amino-4-oxo-1,4-dihydropteridin-6-yl)methyl]amino}phenyl)carbonyl]-L-glutamic acid; N-pteroyl-L-glutamic acid; PGA; PteGlu; Pteroyl-L-glutamate; Pteroyl-L-glutamic acid; Pteroyl-L-monoglutamic acid; Pteroylglutamic acid; Vitamin B9; Vitamin Bc; Vitamin M

> <PRODUCTS>
24 Multivitamins + Minerals; 50 Plus; 50 Plus Multiple Vitamins & Minerals; A.R.T.H. Away Formula; A/o-26 - Caplet; Acide Folique 5 Tab; Acti-folic + Dibencozide Caplets; Active FE; Active OB; Adult Formula 50+; Adult Infuvite Multiple Vitamins; Advanced AM PM; Advanced B & T Formula; Alkadrenergy Tablets; Am Caps; Amerix Multivitamin; Animal Shapes; Animal Shapes w/Iron Chewtabs; Animi-3; Animi-3 with Vitamin D; Av-VITE FB; Av-VITE FB Forte; Avon Nutrivance Vitamin E Plus; Avon Vitadvance Multi-kids Complete; AxiFol; AzesChew; Azesco; B 50 Capsules; B Complex 25mg Vitamin Supplement; B Complex 50 Vitamin Cap; B Complex 50+ Caplet; B Complex Tablets; B Compound 50mg Tab; B Stress C + Iron & Vite; B-100 Caps; B-100 Complex Tablets; B-100 Hi Potency B Vitamins Tab; B-100 Vitamin Supplement; B-50 Complex; B-50 Complex Tab; B-50 Hi Potency B Vitamins Tab; B-Nexa; B-Serene Rx; B-complex; B-complex 100; B-complex 50; B-complex Tab; B-complex Tablets; B-complex With Vitamin C, Biotin, Folic Acid; B-complex-50 Tab; B-plex; B.E.T. Complex; B50 B Complex Tab; B6, B12 & Folic Acid; B6, B12 & Folic Acid Multi-vitamin Tablets; BP Vit 3; Bacmin; Bal-Care DHA; Bal-Care DHA Essential; Balanced B 125 Srt; Balanced B-100 B-complex Vitamins Tab; Balanced B-100 Timed Release; Balanced B-50 B-complex Vitamins Tab; Balanced B-50 B-complex Vitamins, Timed Rele; Balanced B-50 Complex; Balanced B-complex Vit + Vit C&e Tab; Balanced B100; Balanced B50 Complex; Bear Essentials; Bev 29 Tab; Bev B-150; BiferaRx; Bio-b12; Bio-fen; BioFerr 90; Body Rox; Bseltzer; Bugs Bunny Chew Multi Vit Plus Iron; Bugs Bunny and Friends Multiple Vitamins; C-B Complex; C-Nate DHA; C. Vit-min Formula; C.R.D.-force; Calcium Folic Acid Plus D Chewable; Calcium PNV; Carbassist Tablets; Cardiotek-RX; Cavan Alpha; Cavan Folate DHA; Cavan Folate OB; Cavan Heme OB; Cavan One; Cavan Prenatal; Cavan X; Cavan-EC SOD DHA; Cda-21 Vitamins With Non-medicinal Probiotic Complex; Cedevita Plus Vitamin Supplement; Cedevita Sugar-free Vitamin Supplement; Central-vite 18 Essential; Centratex; Century Complete; Chela Iron Plus C,b Complex; Chela Potassium Plus; Chew.multiple Vits.with Extra C for Children; Chewable Adult Multivitamins With Minerals; Chewable Children's Complete Multivitamins With Essential Minerals; Chewable Multiple Vit Plus Iron for Children; Chewable Multiple Vitamins Plus Extra C; Chewable Multiple Vitamins for Children; Chewable Multivitamins; Chewable Multivitamins Plus Iron; Children's Chewable Multi Vit W Iron; Children's Chewable Multi Vitamins; Children's Chewable Multi Vitamins With Iron Tablets; Children's Chewable Multi-vitamin; Children's Chewable Multi-vitamin Complete With Minerals; Children's Chewable Multiple Vit.plus Iron; Children's Chewable Multiple Vitamins (chewable Tablets); Children's Chewable Multiple Vitamins - Tab; Children's Chewable Multiple Vitamins With Extra Vitamin C (chewable Tablets); Children's Chewable Multiple Vitamins With Iron Tablets (chewable Tablets); Children's Chewable Multivitamin Complete With Minerals; Children's Chewable Multivitamin and Multimineral; Children's Chewable Multivitamins With Minerals; Children's Chewable Multivitamins and Minerals; Children's Chewable Tab; Children's Chewable Vit and Min Tab; Children's Vitamins Chewable; Children's Vitamins W Iron Chewable; Childrens Chew Multi Vitamin Tab; Childrens Chewab Vitamin W Chel Minerals; Childrens Chewable Multiple Vitamins; Childrens Chewable Multiple Vitamins Plus Fe; Childrens Chewable Multiple Vitamins Tab; Childrens Chewable Multiple Vitamins W.iron; Childrens Chewable Tab; Childrens Chewable Vitamins; Choice OB DHA; Cholecal DF; Chromagen; Ciferex; Cifrazol; CitraNatal 90 DHA; CitraNatal Assure; CitraNatal B-Calm; CitraNatal Bloom; CitraNatal Bloom DHA; CitraNatal DHA; CitraNatal Essence; CitraNatal Harmony; CitraNatal Harmony 3.0; CitraNatal Medley; CitraNatal Rx; Citranatal B-calm; Classic Swiss One 10 Multivitamin and Mineral Tab; Co-Balamin; Co-Veratrol; Complete Mega B; Complete Multivitamins and Minerals Tablets Timed Release; Complete Multivitamins and Minerals for Children; Complete Natal DHA; Complete-RF Prenatal; CompleteNate Chewable; Complex-75; Complexe B 75mg; Complexe B Compose 75; Complexe B-75; Concept DHA; Concept OB; Cool B; Corvita; Corvita 150; Corvite; Corvite 150; Corvite FE; Corvite Free; CyFolex; DaVITE; Daily Balance Tab; Daily Energy Brand B-complex; Daily Supplement Packs; Daily-Vite; Dalivit; Derma-force; DermaNIC; DermacinRx FoliPlus D; DermacinRx PureFolix; Dexifol; Dexivite; Dia-vite; Dialyvite; Dialyvite 3000; Dialyvite 5000; Dialyvite Supreme D; Dialyvite with Zinc; Diaplex; Divista; Docosavit; Doctor's Choice Brand for Men; Dothelle DHA; Duet DHA; Duet DHA 400; Duet DHA 400 ec; Duet DHA Balanced; DuetDHA Balanced; DuetDHA Complete; Durachol; E.S.T. Complex; Earthpals Children's Chewables Multi-vitamin & Mineral Tablets; Edge OB; Efferlife Multivitamins and Minerals; Elite OB Prenatal Multivitamin; EnBrace HR; EnLyte; Energy 80 Prolonged Release Tab; Enrich Core Pack - Children Vitamin and Mineral Supplement; Envirocomplex; Escavite; Escavite D; Essential B Tablets; Essential Vitamins and Minerals; Extra Once A Day; Extra P.N. Vitamin-mineral Drink Mix; Extra-Virt Plus DHA; Ez-flex; FE C Tab Plus; FaBB; Falessa; FeRiva; FeRiva 21 7; FeRiva FA; FeRivaFA; Fem - Control; Fem - Protect; Fem Time Tab; Feminex 300 Tab; Feminique W Iron and Calcium Tab; Femitab Tab; Feonyx; Ferotrin; FerraPlus 90; Ferralet 90; Ferrex 150 Forte; Ferrex 150 Forte Plus; Ferrex 28; FerroGels Forte; Fib-C Melts; Fibrik; Fizz Multivitamins for Kids W C Loz; Flinstones Multiple Plus Iron; Flintstones Multiple Vitamins; Flintstones Multiple Vitamins Plus Iron; Flintstones Multiple Vitamins Tab; Flintstones W Extra C Tab; Floradix Formula Liq; Floriva; Focalgin 90 DHA; Focalgin B; Focalgin CA; Focalgin DSS; Folastin; Folbic; Folcal DHA; Folcaps; Folcaps Care One; Folcaps Omega-3; Folet DHA; Folet One; Folgard; Folic Acid; Folic Acid & Vitamin C; Folic Acid (1mg Tablet); Folic Acid 0.4 Mg Tablet; Folic Acid 0.4mg; Folic Acid 0.4mg Dietary Supplement; Folic Acid 0.8mg; Folic Acid 1 Mg - Tablet; Folic Acid 1 mg; Folic Acid 1mg; Folic Acid 1mg With C 20mg; Folic Acid 1mg With Vitamin C; Folic Acid 400mcg Tab; Folic Acid 800mcg Tab; Folic Acid Capsules 1mg; Folic Acid Ctr Srt 800mcg; Folic Acid Inj 5mg/ml USP; Folic Acid Injection USP; Folic Acid Injection, USP; Folic Acid Plus; Folic Acid Tab 0.4mg USP; Folic Acid Tab 1mg; Folic Acid Tab 1mg USP Chewable; Folic Acid Tab 25mg; Folic Acid Tab 5mg; Folic Acid Tablets 0.8mg; Folic Acid Tablets 5mg; Folic Acid With Vitamin B12 and Vitamin C; Folic Acid-b12 Tab; Folic D3; Folic acid; Folic-K; Folica BE; Folica-V; Folika-D; Folika-MG; Folika-NC; Folika-T; Folika-V; Folinex; Folite; Folivane-F; Folivane-OB; Folivane-PRx DHA; Folivane-Plus with Ascorbic Acid Precursors; Folixapure; Folplex; Foltabs 800; Foltabs Prenatal; Foltabs Prenatal Plus DHA; Foltrate; Foltrexyl; Foltx; Folvik-D; Folvite; Folvite Inj 5mg/ml; Folvite Tab 5mg; Folvite-D; Folvite-FE; For Kids Only Chewable Multivit. Plus Iron; For Kids Only Chewable Multivitamins; For Kids Only Chewable Multivitamins - Tab; For Men; For-2; Formula Ch. Les.; Formula Cn; Formula Cp Cap; Formula D.S.; Formula F L W; Formula Gly; Formula Hh; Formula Inf; Formula Int; Formula L.G.I.; Formula O-care Vitamin and Mineral Supplement; Formula O.C.; Formula U - Tab; Fortamines 10 Capsules; Fortamines-10 Comprimes; G.A.S. Complex; Genicin Vita-D; Genicin Vita-Q; Genicin Vita-S; Gestamine Comprimes; Gesticare DHA; Globucel - Methode; Grand Master Formula Tab; Great Day/am Formula Tab; Harvest Of Values All B Complex Tab; Hematogen FA; Hematogen Forte; HemeNatal OB; HemeNatal OB plus DHA; Hemetab; Hemocyte F; Hemocyte Plus; Hi Potency B Complex W Chelated Minerals; Hi Potency B52 B Complex Tab; Hi Potency Balanced B-100 Complex - Tab; Hi Potency Multi Tab; Hi Potency Stress B Tension With C; High Potency Multivitamins & Minerals Caplets; Hill.vite; Homosismin; Homosistrol Capsules; Homosistrox Capsules; Hsn Formula; Hylavite; Hylazinc; Hypnosom; Hypo Vites Tab; INATAL Ultra; Iferex 150 Forte; Inatal Advance; Infuvite Adult Multiple Vitamins; Innersource Tab; Integra F; Integra Plus; Iron; Iron 25mg With Vit B-cmplx, Vit C, Cu & Mo; Iron Aspartate Glycinate and Polysaccharide Complex, Ascorbic Calcium, Vitamin B12, Folic Acid, Calcium Threonate and Succinic Acid; Iron Fumarate and Aspartate, Glycinate, Ascorbic Calcium, Vitamin B12, Folic Acid, Calcium Threonate and Succinic Acid; Iron Plus Manganese, B12, Folic Acid & C; Iron Plus Tab; Iron Polysaccharides Folic Acid DHA; Iron Vitamins B6,b12,c,folic Acid Tab; Iron With Vitamins Tab; Iron, Vit & Min Supp; Irospan 24/6; Isotonix Advanced B-complex Vitamins With Potassium and Magnesium; Isotonix Multitech Vitamin Mineral Supplemen; Isotonix Vitamin B-folic Acid-mineral Supple; Jamp-folic Acid; Jenliva; K.L. Vitamin-mineral; Kanga-V Multivitamins & Minerals; Kanga-kid Multi-vitamin & Mineral; Kid's Choice Children's Chewable Vitamins - Tab; Kids Stuff Tablets; Kids Stuff With Iron Tablets; Kimchi Vitamin chewable multivitamin; Kindervites; L.C. Supplement; L.I.P. Complex; Leritone Antistress; Lexazin; Lipo-B-C Tab; Liqui B Complex; Liqui B Complex Plus; Liqui Vita; Liquid B Complex 50; Lorid; Low Potency B Complex Tab; Luna Vitamin and Mineral Bar for Women; M-Natal Plus; M.V.I. 12; M.V.I. Adult; M.V.I. Paediatric; M.V.I. Pediatric; M.V.I.-12; MVC-Fluoride; MYNEPHROCAPS DIALYSIS/STRESS Vitamin Supplement; Macuvex; Macuzin; Mag-A-folic Tab; MagneBind 400 Rx; Magnum-75 Vitamin and Mineral Supplement; Maintain Multiple Vitamin & Minerals; Marnatal F; Master Key Multi Vitamin Multi Mineral Formula 2; Materna; Materna - Tab; Materna-tab; MaxFe; Maxi 10 Tab; Maximum Once A Day; Maxine Vitamin and Mineral Supplement; Mebolic; Mega 13 Multivitamin Formula; Mega Balance; Mega Capsules; Mega Plex III - Pck; Mega Plex IV - Pck; Mega Vitaminerals; Mega-vim 75 With Beta-carotene - Tablets; Megavite Rx; Men's; Men's 50+; Men's Biomultiple Vitamin and Mineral Supplement; Men's Multi Master Formula; Methaver; Methazel; Mi-Omega NF; Milltrium Senior Vitamin and Mineral Supplement; Mini-B Tab; Mnps Formula Supplement; Moms Choice Rx; Mr. Tumee Multi-vitamin; Multi #2; Multi 12 Injection; Multi B; Multi Enfants Tab; Multi II IV Vi Tab; Multi Plex I - Tab; Multi Plex II - Tab; Multi Pro; Multi Tabs; Multi Vitamin & Minerals; Multi Vitamin - Mineral; Multi Vitamin Plus Iron; Multi Vitamin and Mineral vitamin; Multi Vitamin with Fluoride; Multi Vitamin-mineral Formula; Multi Vitamines - Liq; Multi Vitamins & Minerals; Multi-11; Multi-12 Pediatric; Multi-12/k1 Pediatric; Multi-Nate 30; Multi-Vitamin; Multi-Vitamin With Fluoride; Multi-actin; Multi-force for Women Tab; Multi-kid; Multi-phyto Capsules; Multi-vitamin Dietary Supplement; Multi-vitamins; Multi-vitamins With Minerals; MultiVitamin with Fluoride; MultiVitamin with Fluoride Chewable; Multicaps; Multinate DHA; Multinate DHA Extra; Multipack II; Multiple Vit Plus Iron Tab; Multiple Vitamins; Multiple Vitamins & Minerals Tablets; Multiple Vitamins - Tablet; Multiple Vitamins Plus Iron - Tab; Multiple Vitamins Plus Iron Tab; Multiple Vitamins Plus Iron for Women; Multiple Vitamins Tab; Multiple Vitamins With Iron; Multiple Vitamins With Iron Tablets; Multiple Vitamins and Minerals; Multiple Vitamins and Minerals Capsules; Multitabs; Multivit with Fluoride; Multivitamin; Multivitamin & Minerals (iron Free); Multivitamin & Multimineral; Multivitamin with Fluoride; Multivitamin with fluoride; Multivitamine; Multivitamines Et Mineraux Junior Regulier; Multivitamines Et Mineraux Reguliers / Regular Multivitamins and Minerals; Multivitamines Plus Fer Pour Enfants (chewable Tablets); Multivitamines Pour Enfants (chewable Tablets); Multivitamins and Minerals - Complete; Multivitamins and Minerals Tablets; Multivitamins and Minerals With Betacarotene Tablets; Multivitamins and Minerals for Men; Multivitamins and Minerals for Women; Multivitamins and Minerals for Young Men; Multivitamins and Minerals for Young Women; Multivitamins and Multiminerals Formula Regular Tablet; Multivitamins for Children; Multra Plex; Multra With Iron; Mvc; Mvc 9 Plus 3 Inj; Mvc 9+4 Inj; Myferon 150 Forte; Myhephron Dialysis and Stress Supplement; N.E.U. Complex; N.U.T. Complex; NEONATAL Complete; NESTABS ABC Prenatal Multi-vitamin/Mineral Supplement with DHA/EPA; NESTABS DHA Prenatal Multi-vitamin/Mineral Supplement with DHA/EPA; NESTABS Prenatal Multi-vitamin/Mineral Supplement; Nata Komplete; NataChew; NataFort; Natafolik; Natal-V RX Multi-vitamin/Multi-mineral; Natalvirt 90dha; Natalvirt Ca; Natalvirt FLT; Natavite; Natelle One; Natural Source Spectrum With Beta Carotene; Neomultivite; Neonatal DHA; Neonatal Fe; Neonatal Plus Vitamin; Neonatal Vitamin; Neonatal19; NephPlex Rx; Nephrocaps; Nephrocaps-QT; Nephron FA; Nestabs ONE; Neutral C + Coenzyme Q10 Plus Vitamins & Minerals; New Chapter's D'adamo 4 Your Type Multiple for Type O; Nexa Plus; Nexa Select; Nexa Select Rx Prenatal Vitamin with Plant-Based DHA; Niaacinamide Azelaic AC TURMER FA B6 Zinc Ox Copper; NicAzel; NicAzel Doxy Kit; NicAzelFORTE; Nicadan; Nicadan ZX; Nicaprin; Nicazyme; Nicomide; Nicotinamide Zcf; Niferex; Nioxin Recharging Complex; Niron Komplete; Niva-Fol; Niva-Plus; NovaFerrum; Novo-folacid 5mg; Noxifol-D; Nu-folic; NuFera; Nutra Boost; Nutra-clear; Nutri-Tab OB; Nutri-Tab OB plus DHA; Nutria; Nutrifer Plus Tablets; Nutrilite Double X; Nutrol-B-complex; O-Cal FA multivitamin; O-Cal Prenatal Vitamin; OB Complete 400; OB Complete DHA; OB Complete Gold; OB Complete Petite; OB Complete Prenatal; Ocuvel; Olympian Multi Vit Plus Minerals Tab; Omega-3 Rx Complete; Omniquin; Omnivex; Onccor; Oncovite; One A Day Advance Adults; One A Day Advance Adults 50+; One A Day Advance Fem; One A Day Multiple Vit W Minerals; One A Day Tab; One Daily Vitamin and Mineral Dietary Supplement; One Per Day Vitamin and Mineral Dietary Supplement; One Tablet Daily Mens Formula; One-A-day Advance Fem - Tablets; One-A-day Advance Men's; Only One - Tablet; Orange Flavored Crystal Chews Tab; Orifer F; Ortho D; Ortho DF; Ortho Folic; Orti B; Osteo Formula; Osteo-force; Oveeza; P.N. Vitamin-mineral Drink; P.N.P. Vitamin Drink; P.R.O. Complex; PM Caps; PNV Ferrous Fumarate Docusate Folic Acid; PNV Prenatal Plus Multivitamin; PNV Prenatal Vitamin; PNV Prenatal Vitamin Plus Vitamin A; PNV Tabs 29-1; PNV-First; PNV-Omega; PNV-Select; PR Natal 400; PR Natal 400 ec; PR Natal 430; PR Natal 430 ec; PRENATE Enhance; PRENATE Restore; Paire OB Plus DHA; Palm Springs Multvit and Min Tab; Paramettes Adults; Pediatric Infuvite Multiple Vitamins; Pediatric Infuvite Multiple Vitamins for Infusion; Phytopure; Phytovim Cap; Ply Vi Sol Chewable Tab; Pnv Ob DHA; Pnv-OB-dha; Pnv-VP-U; Pnv-dha; Poly Vi Flor Chewable Tab; Polymine Avec Zinc Et Cuivre; Potassium W Folic Acid Tab; PramLyte; Pre-Tabs DHA Prenatal Multi-vitamin/Mineral Supplement with DHA/EPA; PreFol-DHA; PreGen DHA; PreGenna; PreNatal 19; PreNatal Vitamins Plus; PreNexa; PreNexa premier; PrePLUS; PreQue 10; PreTAB; Prefera OB plus DHA; PreferaOB; PreferaOB ONE; PreferaOB One; PreferaOB plus DHA; Pregvit; Pregvit Folic 4; Pregvit Folic 5; Premium Prenatal; Premium Prenatal - Tablets; Prena1; Prena1 Chew; Prena1 Plus; Prenaissance; Prenaissance Plus; Prenara; Prenatabs FA; Prenatal; Prenatal Formula Tab; Prenatal Mega Antioxidant; Prenatal Plus; Prenatal Plus Iron; Prenatal Plus Multivitamin Plus DHA MiniCaps; Prenatal Supplement - Tab; Prenatal Vi-min; Prenatal Vitamin No 53 Iron Fum Folic Acid Docusate CA DHA; Prenatal Vitamin and Mineral Supplement; Prenatal Vitamin and Mineral Supplement -tab; Prenatal Vitamin and Mineral Supplement Tab; Prenatal Vitamins Plus; Prenatal Vitamins Plus Low Iron; Prenatal Vitamins and Minerals Tablets; Prenatal and Post Partum Supplement; Prenatal, DHA; Prenate AM; Prenate Chewable; Prenate DHA; Prenate Elite; Prenate Essential; Prenate Mini; Prenate Pixie; Prenate Star; Prenatrix; Prenatryl; Prenatvite; Prenatvite Complete; Prenatvite Plus; Prenavite Forte; Prenavite Forte Tablets; Prenavite Tablets; Preplus; Prim - Royal P.M.T.; PrimaCare; Pro Hers Vanilla; Pro His Mint; Pro Pcos Citrus; Puralor; PureFe OB Plus; PureFe Plus; PureVit DualFe Plus; Q.T. #4 Vitamin and Mineral Dietary Supplement; Q.T. Vitamin and Mineral Drink Mix; Quflora Gummies; Quflora Pediatric; RE FAC-x; RE Nata; RE Nata OB; RE Prenatal Multivitamin with Iron; Re Kar C Plus; Re Ob 90 DHA; Reaphirm Plant Source DHA; Recal D; RediChew; Reebok; Reliv So Sense Daily Vitamin Supplement; Relnate DHA; Remedient; Renal Caps Dialysis/Stress Vitamin Supplement; Renate; Renate DHA; Reno Caps; Replavite; Revesta; Revit Multi-vitamins and Minerals; Revit Plus Cap; Revitalize Multi-vitamin and Mineral Complex; Right Choice A.M. Multi Formula - Caplet; Rogenic; Roxifol-D; Rulavite DHA; Sandoz Folic Acid; Se-Care Chewable; Se-Care Conceive; Se-Natal; Se-Natal 19; Se-Natal 19 Chewable; Se-Natal One; Se-Plete DHA; Se-Tan DHA; Se-Tan PLUS; Se-Vate 21/7; Select OB; Select-OB Plus DHA Prenatal Supplement Plus DHA; Senior Multi One; SetonET; SetonET-EC; Shen Min Vitamin and Mineral Supplement; Sodium Polysulthionate and Folic Acid; Sodium polysulthionate and folic acid; Somavit Brand Vitamins and Minerals Complex; Sopalamine 3b Plus; Sopalamine/3b Plus C; Spd Tab; Spectrum 2 Cap; Spectrum Performa Multivitamins and Minerals Tablets; Stress B & C Caplet; Stress B Capsules With Vitamin C; Stress B Complex With C and E Tab; Stress B Complex With C, E & Iron; Stress B Complex With C, E and Iron Tab; Stress B Complex With C,e, Zinc and Copper; Stress B With 1000 Mg Vitamin C; Stress B&c Tab; Stress B-complex Plus Iron With Vitamins C&e; Stress Complex 600 Avec Vit E Cuivre Zinc; Stress Ctr Srt; Stress Formula; Stress Formula + Iron; Stress Formula B-comp + 500mg Vit C Tab; Stress Formula Multi-B Comp + 500mg Vit C Cap; Stress Formula Multivitamin Tablets USP; Stress Formula Tab; Stress Formula Vit B With C Complex; Stress Forte Plus Lipotropic Factors; Stress Tab With Iron and Vitamin E; Stress Tab With Zinc, Copper and Vitamin E; Stress Vitamin B With C Complex Tablets; Stressmates; Stresstabs + Zinc-copper; Strovite Forte Caplet; Strovite One Caplets; Sulfzix; Sun-rype Vitaburst; Super B Compound W 500mg Vit C; Super B12 + Folic Acid; Super Charged Energy; Super Daily No 2; Super Kids Chewable Multivitamin Multimineral (chewable Tablets); Super Multi; Super Pantoplex; Super Stress Capsules; Super Stress Mega B Plus 1000mg Vit C Tab; Super Vita Vim Multivitamins and Minerals; Super Vita-vim With Beta-carotene - Tab; Supplement De Multivitamines Infusion Arome Fruits Rouges; Supplement De Vitamines Et Mineraux; Supravite Stress Avec Vit E; Supravite Stress Avec Vit E Cuivre Et Zinc; Supravite Stress Avec Vit E Et Fer; Surbex-500 With Iron; Sveets; Swical-energy 3e Age; Swiss One; Swiss One Multi Vit & Chel Min Tab; Swiss One Multivitamin and Mineral Caplet; Swiss One Timed Release Tab; Swiss Total One; T.R.I. B-plex Src; TL Gard Rx; TL-Care DHA; TL-Fluorivite; TL-Fol 500; TL-Folate; TL-Icon; TL-Select; TL-Select DHA; TRONVite; Taliment; Taliva; Tandem - F; Tandem DHA; Tandem OB; Tandem Plus; Tar-end; Taron BC; Taron Forte; Taron-C DHA; Taron-prex Prenatal; Thrivite 19; Thrivite Rx; Tianshi Vital Powder I; Tianshi Vital Powder III; Time Release B 100 Compound - Tablet; Timed Release B Complex 100 Srt; Timed Release B-complex 100; Timed Release B-complex 50; Timed Release Vita-vim Srt; Tl-hem 150; Tobakient; Total Living Concepts Formula One - Tab; Totalvit Plus; Tozal; Tri-Zel; TriAdvance; TriStart DHA; TriStart ONE; Tricare Prenatal; Tricare Prenatal Compleat; Tricare Prenatal DHA One; Tricare Prenatal DHA One Rx Multivitamin; Tricon; Trigels-F Forte; Trinatal GT; Trinatal Rx 1; Trinatal Ultra; Trinaz; TriphroCaps; Triveen-Duo DHA; Triveen-PRx RNF; Udamin Sp; Ultimate OB DHA; UltimateCare ONE; UltimateCare ONE NF; Ultra Hr; Usana Megavitamin Tablets - Tab; V & M Vitamin and Mineral Supplement; V-Natal; VIL-Rx; VITAFOL Gummies; VP CH Plus; VP CH Ultra; VP-HEME One; VP-Iron-C Plus; VP-Vite Rx; Vasculine; Vc II; Vege 1 Daily Tab; Vege Swiss One Multivitamin W Chel Mins Tab; VemaVite-PRx 2 with Fish-Based DHA; Vena-Bal DHA; Vigo Multivitamins Drops/lozenge; Vimeral Tab; Vinacal; Vinate AZ; Vinate Care; Virt Nate; Virt Vite GT; Virt-Advance; Virt-Bal DHA Plus; Virt-C DHA; Virt-Caps; Virt-Care One; Virt-Gard; Virt-Nate; Virt-Nate DHA; Virt-PN; Virt-PN DHA; Virt-PN Plus; Virt-Select PRENATAL/POSTNATAL; Virt-Tabs; Virt-Vite; Virt-Vite Forte; Virt-Vite Plus; VirtPrex; Vit B Complex Ctr; Vit-HA Multi Vitamin and Zinc Supplement; Vita B Complex Tab; Vita Balance 2000; Vita Day Tab; Vita Plex Tab; Vita Vim Multivitamins and Minerals Tab; Vita Vim With Beta Carotene-caplet; Vita-B; Vita-B-75 Cap; Vita-Rx Diabetic Vitamin; Vita-folic-B Caps; Vita-vim - Tab; Vita-vim With Beta-carotene - Tab; Vita-worth B-complex Tablets; VitaPhil Aide; VitaXyme; Vitabanks Vitamin Tab; Vitachrom Gc; Vitaflex Dietary Suplement; Vitafol; Vitafol Caplet; Vitafol Fe Plus; Vitafol Nano; Vitafol OB Caplet; Vitafol One; Vitafol Plus; Vitafol Ultra; Vitafol-OB Plus DHA Prenatal Supplement Plus DHA; Vital Be-100; Vital-D Rx; Vitalife - Capsule; Vitamin & Mineral Formula 1 Dietary Supplement; Vitamin B + C Cap; Vitamin B Complex 100 Tab; Vitamin B Complex 50; Vitamin B Complex Suppl; Vitamin B Complex Tab; Vitamin B Complex W C Tab; Vitamin B Compound Tab; Vitamin B Compound W C Tab 500mg; Vitamin B Compound W Vit C 250mg Tab; Vitamin B Tablets; Vitamin B-12 With Folic Acid Tablets; Vitamin B12 Plus Tablets W Folic Acid; Vitamin B12-folic Acid; Vitamin B6 & B12 With Folic Acid; Vitaphil 90 DHA; Vitaphil DHA; Vitaplex; Vitasure; Vitazyme; Vitogen B Stress C Vit E Zinc & Cop; Vitrexate; Vitrexate FE; Vitrexyl; Vitrexyl plus Iron; Viva CT Prenatal; Viva Kids - Tab; Vol-Care Rx; Vol-Nate; Vol-Plus; Vol-Tab Rx; Vp-CH-pnv; Vp-ggr-B6; Vp-heme Ob; Vp-heme Ob DHA; Vp-pnv-dha; Vp-zel; Vtb Vitamin and Mineral Supplement; Vyo Cylate - Pwr; Vyqua; Wellness Formula; WesTab Mini; WesTab Plus; WestGel DHA; Women's Biomultiple Vitamin and Mineral Supplement; Women's Change Formula; Women's Formula; Xvite; Xyzbac; Xyzbac G; Xyzmune; Zalvit; Zatean-CH; Zatean-Pn; Zatean-Pn DHA; Zatean-Pn Plus; Zavara; Zavitrol; Zingiber; Zolate; Zoo Chews; Zoo Chews Plus Iron; Zyvit; ahoSAN; bioJET; healthy mamaBE WELL ROUNDED BE WELL ROUNDED; hormaSAN forte; natelle COMPLETE; tensioSAN; vitaMedMD One Rx; vitaMedMD Rx Plus

> <INTERNATIONAL_BRANDS>
Acfol; Fefol

> <SALTS>
Folate sodium

$$$$