drugbank_target|P14207 Folate receptor beta (DB00158; DB05168)
 OpenBabel12092119283D

  0  0  0     0  0            999 V3000
M  V30 BEGIN CTAB
M  V30 COUNTS 3998 4062 0 0 0
M  V30 BEGIN ATOM
M  V30 1 H -0.908 1.98254 -0.117106 0
M  V30 2 N 0 1.576 0 0
M  V30 3 C 0.933 2.03868 1.02534 0
M  V30 4 C 1.911 0.928543 1.3348 0
M  V30 5 O 3.095 1.19667 1.45644 0
M  V30 6 C 0.222 2.43627 2.35294 0
M  V30 7 C -0.732 3.65373 2.2001 0
M  V30 8 S 0.101 5.13292 1.52614 0
M  V30 9 C 1.257 5.56322 2.86805 0
M  V30 10 H 1.49 2.90518 0.631377 0
M  V30 11 H -0.977 1.52953 0.210867 0
M  V30 12 H 0.981 2.67203 3.11629 0
M  V30 13 H -0.358 1.57376 2.7183 0
M  V30 14 H -1.165 3.90944 3.18086 0
M  V30 15 H -1.563 3.418 1.51819 0
M  V30 16 H 0.729 5.58782 3.83104 0
M  V30 17 H 1.672 6.56266 2.65933 0
M  V30 18 H 2.08 4.83886 2.90714 0
M  V30 19 N 1.4781 -0.272755 1.55222 0
M  V30 20 C 2.7241 -1.00581 1.761 0
M  V30 21 C 3.0571 -1.85932 0.560625 0
M  V30 22 O 2.3321 -1.89416 -0.441801 0
M  V30 23 C 2.6151 -1.88816 3.06628 0
M  V30 24 C 2.4681 -1.06457 4.37021 0
M  V30 25 C 3.7871 -2.8752 3.33197 0
M  V30 26 H 0.9061 -0.364244 0.640699 0
M  V30 27 H 3.5481 -0.278189 1.87952 0
M  V30 28 H 1.6981 -2.50856 2.96654 0
M  V30 29 H 3.3701 -0.464863 4.58952 0
M  V30 30 H 1.6131 -0.368043 4.32236 0
M  V30 31 H 2.2841 -1.71514 5.24678 0
M  V30 32 H 4.7601 -2.35615 3.42965 0
M  V30 33 H 3.6361 -3.46399 4.25792 0
M  V30 34 H 3.8971 -3.62657 2.52849 0
M  V30 35 N 2.9562 -1.48159 -0.537278 0
M  V30 36 C 4.2022 -1.57015 -1.29297 0
M  V30 37 C 4.5572 -0.237791 -1.90925 0
M  V30 38 O 3.8502 0.758621 -1.75942 0
M  V30 39 C 4.0442 -2.63956 -2.40961 0
M  V30 40 C 3.8732 -4.07461 -1.90278 0
M  V30 41 C 2.6432 -4.74685 -1.73213 0
M  V30 42 C 4.8412 -4.93858 -1.43556 0
M  V30 43 N 2.8232 -6.02633 -1.17078 0
M  V30 44 C 4.1942 -6.11993 -0.993204 0
M  V30 45 C 6.2492 -4.80141 -1.31792 0
M  V30 46 C 4.9522 -7.17923 -0.444872 0
M  V30 47 C 6.9782 -5.86186 -0.783585 0
M  V30 48 C 6.3402 -7.03524 -0.351261 0
M  V30 49 H 2.4392 -0.629154 -0.464423 0
M  V30 50 H 5.0232 -1.85006 -0.606705 0
M  V30 51 H 3.1942 -2.378 -3.07093 0
M  V30 52 H 4.9262 -2.62539 -3.07986 0
M  V30 53 H 1.6812 -4.30902 -1.9652 0
M  V30 54 H 2.1052 -6.7085 -0.910421 0
M  V30 55 H 6.7472 -3.89772 -1.63823 0
M  V30 56 H 4.4652 -8.08022 -0.11222 0
M  V30 57 H 8.0512 -5.77624 -0.695835 0
M  V30 58 H 6.9312 -7.8418 0.055777 0
M  V30 59 N 4.4343 0.785586 -1.36625 0
M  V30 60 C 5.3813 1.89838 -1.31264 0
M  V30 61 C 6.3513 1.65115 -0.180633 0
M  V30 62 O 7.5363 1.87222 -0.36777 0
M  V30 63 C 4.6763 3.26706 -1.11163 0
M  V30 64 C 3.7893 3.63476 -2.33472 0
M  V30 65 C 2.9243 4.89481 -2.06353 0
M  V30 66 C 1.9633 5.18941 -3.24602 0
M  V30 67 N 1.1003 6.36131 -2.97123 0
M  V30 68 H 5.9403 1.93756 -2.26413 0
M  V30 69 H 3.4773 0.947454 -1.12524 0
M  V30 70 H 5.4353 4.05639 -0.975337 0
M  V30 71 H 4.0653 3.222 -0.196674 0
M  V30 72 H 3.1173 2.79636 -2.57891 0
M  V30 73 H 4.4293 3.81193 -3.21704 0
M  V30 74 H 3.5833 5.76288 -1.89675 0
M  V30 75 H 2.3223 4.73841 -1.15437 0
M  V30 76 H 1.3273 4.30615 -3.41834 0
M  V30 77 H 2.5523 5.36498 -4.16349 0
M  V30 78 H 0.4983 6.21875 -2.08823 0
M  V30 79 H 0.4153 6.54198 -3.78894 0
M  V30 80 H 1.6833 7.2591 -2.84033 0
M  V30 81 N 5.9124 1.20967 1.01018 0
M  V30 82 C 7.1584 1.0353 1.7508 0
M  V30 83 C 7.5134 -0.42734 1.87594 0
M  V30 84 O 6.8064 -1.31298 1.3954 0
M  V30 85 C 7.0004 1.65997 3.16512 0
M  V30 86 C 6.8294 3.18184 3.17788 0
M  V30 87 C 5.5994 3.87198 3.24662 0
M  V30 88 C 7.7974 4.15334 3.03319 0
M  V30 89 N 5.7794 5.26618 3.15509 0
M  V30 90 C 7.1504 5.41472 3.02007 0
M  V30 91 C 9.2054 4.06449 2.87583 0
M  V30 92 C 7.9084 6.5975 2.86571 0
M  V30 93 C 9.9344 5.24357 2.73503 0
M  V30 94 C 9.2964 6.49404 2.72862 0
M  V30 95 H 5.3954 0.433137 0.651089 0
M  V30 96 H 7.9794 1.5324 1.20107 0
M  V30 97 H 6.1504 1.18863 3.69765 0
M  V30 98 H 7.8824 1.41816 3.79039 0
M  V30 99 H 4.6374 3.38093 3.31648 0
M  V30 100 H 5.0614 5.99626 3.14289 0
M  V30 101 H 9.7034 3.10573 2.86887 0
M  V30 102 H 7.4214 7.55792 2.86015 0
M  V30 103 H 11.0074 5.19299 2.62334 0
M  V30 104 H 9.8874 7.39105 2.62093 0
M  V30 105 N 7.3905 -1.2043 1.01659 0
M  V30 106 C 8.3235 -2.21924 0.531521 0
M  V30 107 C 9.3015 -1.57054 -0.421032 0
M  V30 108 O 10.4855 -1.85389 -0.341035 0
M  V30 109 C 7.6125 -3.37942 -0.226496 0
M  V30 110 C 6.6585 -4.21115 0.67561 0
M  V30 111 S 7.4915 -4.90674 2.14475 0
M  V30 112 C 8.6475 -6.10113 1.3969 0
M  V30 113 H 8.8805 -2.62725 1.3915 0
M  V30 114 H 6.4135 -1.30481 0.825479 0
M  V30 115 H 8.3715 -4.05196 -0.657738 0
M  V30 116 H 7.0325 -2.956 -1.06205 0
M  V30 117 H 6.2255 -5.03918 0.091108 0
M  V30 118 H 5.8275 -3.59115 1.04463 0
M  V30 119 H 8.1195 -6.7411 0.676897 0
M  V30 120 H 9.0625 -6.73022 2.20107 0
M  V30 121 H 9.4705 -5.57283 0.899786 0
M  V30 122 N 8.8686 -0.792821 -1.36206 0
M  V30 123 C 10.2796 -0.429513 -1.81692 0
M  V30 124 C 10.6306 1.04695 -1.65932 0
M  V30 125 O 9.7556 1.81256 -1.18218 0
M  V30 126 C 10.3506 -0.772831 -3.29868 0
M  V30 127 C 8.9096 -0.462307 -3.7355 0
M  V30 128 C 8.0566 -1.00569 -2.5842 0
M  V30 129 H 11.0076 -0.985672 -1.24379 0
M  V30 130 H 11.0286 -0.0651928 -3.80444 0
M  V30 131 H 10.5406 -1.84747 -3.41307 0
M  V30 132 H 8.6416 0.604158 -3.67669 0
M  V30 133 H 8.7546 -0.985299 -4.68859 0
M  V30 134 H 7.1186 -0.428734 -2.51066 0
M  V30 135 H 7.9016 -2.08616 -2.72643 0
M  V30 136 N 10.3467 1.47872 -0.545128 0
M  V30 137 C 11.2767 2.32661 0.197793 0
M  V30 138 C 12.2577 1.43041 0.920504 0
M  V30 139 O 13.4427 1.71912 0.90333 0
M  V30 140 C 10.5727 3.24569 1.23582 0
M  V30 141 C 9.5267 4.23333 0.630323 0
M  V30 142 C 8.8527 5.0448 1.77211 0
M  V30 143 C 10.1527 5.20704 -0.407974 0
M  V30 144 H 11.8467 2.95024 -0.510045 0
M  V30 145 H 9.3927 1.4187 -0.246731 0
M  V30 146 H 11.3457 3.8272 1.76362 0
M  V30 147 H 10.0697 2.60236 1.97344 0
M  V30 148 H 8.7287 3.6639 0.123922 0
M  V30 149 H 8.3767 4.36561 2.49847 0
M  V30 150 H 8.0767 5.71339 1.37281 0
M  V30 151 H 9.6007 5.65487 2.3034 0
M  V30 152 H 11.0147 5.7329 0.033305 0
M  V30 153 H 9.4117 5.95699 -0.725486 0
M  V30 154 H 10.4817 4.66917 -1.30828 0
M  V30 155 N 11.8248 0.280983 1.55075 0
M  V30 156 C 12.7548 -0.597469 2.25727 0
M  V30 157 C 13.7358 -1.15417 1.24952 0
M  V30 158 O 14.9208 -1.18722 1.53684 0
M  V30 159 C 12.0508 -1.7789 2.98283 0
M  V30 160 C 11.0048 -1.35347 4.06036 0
M  V30 161 C 10.3308 -2.61846 4.66198 0
M  V30 162 C 11.6308 -0.499354 5.19907 0
M  V30 163 H 13.3248 -0.00824265 2.99399 0
M  V30 164 H 10.8708 -0.0025244 1.44 0
M  V30 165 H 12.8238 -2.39937 3.46422 0
M  V30 166 H 11.5478 -2.39405 2.22155 0
M  V30 167 H 10.2068 -0.756156 3.58717 0
M  V30 168 H 9.8548 -3.21632 3.86732 0
M  V30 169 H 9.5548 -2.3409 5.38958 0
M  V30 170 H 11.0788 -3.24732 5.1709 0
M  V30 171 H 12.4928 -1.02498 5.64063 0
M  V30 172 H 10.8898 -0.316424 5.99265 0
M  V30 173 H 11.9598 0.480459 4.82514 0
M  V30 174 N 13.3029 -1.57598 0.00835791 0
M  V30 175 C 14.2329 -2.1198 -0.979113 0
M  V30 176 C 15.2139 -1.03091 -1.35301 0
M  V30 177 O 16.3989 -1.30818 -1.43528 0
M  V30 178 C 13.5289 -2.62995 -2.26828 0
M  V30 179 C 12.4829 -3.76485 -2.03576 0
M  V30 180 C 11.8089 -4.13846 -3.38579 0
M  V30 181 C 13.1089 -5.0342 -1.39161 0
M  V30 182 H 14.8029 -2.94738 -0.526281 0
M  V30 183 H 12.3489 -1.41783 -0.251704 0
M  V30 184 H 14.3019 -2.99669 -2.96271 0
M  V30 185 H 13.0259 -1.7737 -2.7424 0
M  V30 186 H 11.6849 -3.40217 -1.36557 0
M  V30 187 H 11.3329 -3.25232 -3.83709 0
M  V30 188 H 11.0329 -4.90312 -3.23834 0
M  V30 189 H 12.5569 -4.53086 -4.09323 0
M  V30 190 H 13.9709 -5.37812 -1.98573 0
M  V30 191 H 12.3679 -5.84746 -1.34878 0
M  V30 192 H 13.4379 -4.83548 -0.361868 0
M  V30 193 N 14.781 0.264519 -1.55364 0
M  V30 194 C 15.711 1.33121 -1.91836 0
M  V30 195 C 16.692 1.51101 -0.781192 0
M  V30 196 O 17.877 1.64003 -1.04003 0
M  V30 197 C 15.007 2.68921 -2.19769 0
M  V30 198 C 13.961 2.65661 -3.35571 0
M  V30 199 C 13.287 4.05093 -3.49004 0
M  V30 200 C 14.587 2.24187 -4.71739 0
M  V30 201 H 16.281 1.02844 -2.81182 0
M  V30 202 H 13.827 0.493286 -1.35287 0
M  V30 203 H 15.78 3.43663 -2.43872 0
M  V30 204 H 14.504 3.00799 -1.27231 0
M  V30 205 H 13.163 1.93377 -3.1145 0
M  V30 206 H 12.811 4.34206 -2.53917 0
M  V30 207 H 12.511 4.03804 -4.26868 0
M  V30 208 H 14.035 4.81561 -3.75408 0
M  V30 209 H 15.449 2.88654 -4.9533 0
M  V30 210 H 13.846 2.34044 -5.52579 0
M  V30 211 H 14.916 1.19327 -4.69988 0
M  V30 212 N 16.2591 1.48442 0.529413 0
M  V30 213 C 17.1891 1.65902 1.64313 0
M  V30 214 C 18.1701 0.507897 1.6234 0
M  V30 215 O 19.3551 0.740503 1.79528 0
M  V30 216 C 16.4851 1.69911 3.02898 0
M  V30 217 C 15.4391 2.8453 3.19729 0
M  V30 218 C 14.7651 2.73629 4.59381 0
M  V30 219 C 16.0651 4.25821 3.02447 0
M  V30 220 H 17.7591 2.5914 1.49955 0
M  V30 221 H 15.3051 1.24709 0.719982 0
M  V30 222 H 17.2581 1.80715 3.80684 0
M  V30 223 H 15.9821 0.732524 3.18279 0
M  V30 224 H 14.6411 2.73283 2.44361 0
M  V30 225 H 14.2891 1.74938 4.71599 0
M  V30 226 H 13.9891 3.50541 4.71588 0
M  V30 227 H 15.5131 2.86401 5.39265 0
M  V30 228 H 16.9271 4.37898 3.70024 0
M  V30 229 H 15.3241 5.03735 3.26146 0
M  V30 230 H 16.3941 4.42244 1.98867 0
M  V30 231 N 17.7372 -0.778329 1.37039 0
M  V30 232 C 18.9832 -1.53892 1.32079 0
M  V30 233 C 19.3162 -1.9396 -0.0965386 0
M  V30 234 O 18.5912 -1.63568 -1.05242 0
M  V30 235 C 18.8742 -2.80847 2.25382 0
M  V30 236 C 18.7272 -2.47076 3.75864 0
M  V30 237 C 20.0462 -3.82741 2.1725 0
M  V30 238 H 17.1652 -0.558303 0.48111 0
M  V30 239 H 19.8072 -0.893397 1.67685 0
M  V30 240 H 17.9572 -3.35931 1.95148 0
M  V30 241 H 19.6292 -1.97957 4.16666 0
M  V30 242 H 17.8722 -1.79863 3.94755 0
M  V30 243 H 18.5432 -3.37798 4.36574 0
M  V30 244 H 21.0192 -3.37133 2.43887 0
M  V30 245 H 19.8952 -4.69303 2.84686 0
M  V30 246 H 20.1562 -4.2652 1.16331 0
M  V30 247 N 19.2153 -1.21501 -1.00376 0
M  V30 248 C 20.4553 -1.04444 -1.75701 0
M  V30 249 C 20.8193 0.414644 -1.87469 0
M  V30 250 O 22.0203 0.705763 -2.59369 0
M  V30 251 C 20.2913 -1.72389 -3.13077 0
M  V30 252 S 21.8503 -1.70604 -4.04277 0
M  V30 253 H 18.6683 -0.374249 -0.604532 0
M  V30 254 H 21.2703 -1.54267 -1.20091 0
M  V30 255 H 19.9743 -2.77734 -3.02146 0
M  V30 256 H 19.5053 -1.22751 -3.73759 0
M  V30 257 H 21.5203 -0.748012 -4.9053 0
M  V30 258 N 20.6934 1.19889 -1.02296 0
M  V30 259 C 21.9394 1.89701 -0.717033 0
M  V30 260 C 22.2724 1.7905 0.751989 0
M  V30 261 O 21.5474 1.17891 1.547 0
M  V30 262 C 21.8304 3.40858 -1.16136 0
M  V30 263 C 21.6834 3.60411 -2.69117 0
M  V30 264 C 23.0024 4.33876 -0.737549 0
M  V30 265 H 20.1214 0.688874 -0.261957 0
M  V30 266 H 22.7634 1.41154 -1.27183 0
M  V30 267 H 20.9134 3.82335 -0.689342 0
M  V30 268 H 22.5854 3.28145 -3.2422 0
M  V30 269 H 20.8284 3.03665 -3.0979 0
M  V30 270 H 21.4994 4.66396 -2.95261 0
M  V30 271 H 23.9754 4.00081 -1.14344 0
M  V30 272 H 22.8514 5.38242 -1.0764 0
M  V30 273 H 23.1124 4.40628 0.360436 0
M  V30 274 N 22.1715 0.800033 1.35784 0
M  V30 275 C 23.1345 0.211565 2.28221 0
M  V30 276 C 24.1345 -0.59728 1.49296 0
M  V30 277 O 25.3245 -0.416721 1.69142 0
M  V30 278 C 22.4565 -0.705846 3.33513 0
M  V30 279 H 23.6495 1.02677 2.81776 0
M  V30 280 H 21.2025 0.570211 1.45528 0
M  V30 281 H 21.9375 -1.54498 2.85133 0
M  V30 282 H 21.7225 -0.127655 3.91892 0
M  V30 283 H 23.2125 -1.11211 4.02519 0
M  V30 284 N 23.6496 -1.47581 0.552962 0
M  V30 285 C 24.8776 -2.06875 0.0320556 0
M  V30 286 C 25.2926 -1.40625 -1.25976 0
M  V30 287 O 24.6496 -0.501349 -1.75479 0
M  V30 288 C 24.7006 -3.61092 -0.17167 0
M  V30 289 O 24.4216 -4.24858 1.06899 0
M  V30 290 C 25.9226 -4.37242 -0.730344 0
M  V30 291 H 23.1426 -0.669561 0.043915 0
M  V30 292 H 25.6866 -1.89646 0.765163 0
M  V30 293 H 23.8416 -3.7785 -0.854894 0
M  V30 294 H 24.2556 -5.17334 0.864059 0
M  V30 295 H 25.7296 -5.45842 -0.822203 0
M  V30 296 H 26.2066 -4.03235 -1.74064 0
M  V30 297 H 26.8126 -4.25219 -0.0829543 0
M  V30 298 N 25.1277 -0.289203 -1.54924 0
M  V30 299 C 26.0607 0.633823 -2.19221 0
M  V30 300 C 27.0387 1.14174 -1.15772 0
M  V30 301 O 28.2227 1.21211 -1.44361 0
M  V30 302 C 25.3497 1.86592 -2.82668 0
M  V30 303 C 24.3957 1.49227 -3.99542 0
M  V30 304 S 25.2287 0.558312 -5.32582 0
M  V30 305 C 26.3847 1.79847 -5.99505 0
M  V30 306 H 26.6177 0.0875416 -2.97171 0
M  V30 307 H 24.1507 -0.0733899 -1.54225 0
M  V30 308 H 26.1087 2.57305 -3.19851 0
M  V30 309 H 24.7697 2.38335 -2.04585 0
M  V30 310 H 23.9627 2.40945 -4.42676 0
M  V30 311 H 23.5647 0.865193 -3.63855 0
M  V30 312 H 25.8567 2.7406 -6.19595 0
M  V30 313 H 26.7997 1.4099 -6.93922 0
M  V30 314 H 27.2077 1.96982 -5.29016 0
M  V30 315 N 26.6058 1.57591 -0.0167156 0
M  V30 316 C 27.8458 1.93145 0.668902 0
M  V30 317 C 28.2098 0.892406 1.7 0
M  V30 318 O 29.4108 1.13373 2.43721 0
M  V30 319 C 27.6818 3.33678 1.28039 0
M  V30 320 S 29.2408 3.91142 1.9888 0
M  V30 321 H 26.0588 0.67593 0.220545 0
M  V30 322 H 28.6608 1.95347 -0.0774105 0
M  V30 323 H 27.3648 4.07126 0.517339 0
M  V30 324 H 26.8958 3.3489 2.06427 0
M  V30 325 H 28.9108 3.73571 3.26587 0
M  V30 326 N 28.0839 -0.256276 1.55502 0
M  V30 327 C 29.3089 -1.00766 1.81276 0
M  V30 328 C 29.7339 -1.78524 0.59252 0
M  V30 329 O 29.0919 -1.75413 -0.45827 0
M  V30 330 C 29.1399 -1.92869 3.04687 0
M  V30 331 O 28.2439 -3.019 2.80945 0
M  V30 332 H 27.5849 -0.287224 0.598664 0
M  V30 333 H 30.1149 -0.280109 2.02674 0
M  V30 334 H 30.1249 -2.34511 3.33869 0
M  V30 335 H 28.7999 -1.35689 3.93143 0
M  V30 336 H 27.3769 -2.64454 2.62904 0
M  V30 337 N 29.562 -1.4872 -0.521534 0
M  V30 338 C 30.525 -1.63379 -1.60748 0
M  V30 339 C 31.525 -0.50661 -1.52611 0
M  V30 340 O 32.715 -0.772601 -1.5613 0
M  V30 341 C 29.847 -1.61192 -3.00383 0
M  V30 342 H 31.04 -2.60217 -1.49087 0
M  V30 343 H 28.593 -1.37444 -0.744235 0
M  V30 344 H 29.328 -0.65863 -3.17541 0
M  V30 345 H 29.113 -2.43032 -3.07698 0
M  V30 346 H 30.603 -1.7466 -3.7932 0
M  V30 347 N 31.0401 0.771051 -1.3745 0
M  V30 348 C 31.9721 1.89352 -1.29146 0
M  V30 349 C 32.9851 1.61477 -0.207124 0
M  V30 350 O 34.1741 1.72382 -0.463324 0
M  V30 351 C 31.2741 3.24596 -0.974195 0
M  V30 352 C 30.4471 3.80111 -2.16413 0
M  V30 353 C 29.5061 4.93832 -1.81703 0
M  V30 354 O 28.5321 5.09382 -2.54006 0
M  V30 355 N 29.7341 5.75483 -0.761573 0
M  V30 356 H 32.4991 1.96991 -2.25864 0
M  V30 357 H 30.0601 0.950191 -1.31084 0
M  V30 358 H 32.0521 3.98193 -0.722828 0
M  V30 359 H 30.6221 3.12454 -0.0955527 0
M  V30 360 H 29.8421 2.98284 -2.57721 0
M  V30 361 H 31.1301 4.13932 -2.95867 0
M  V30 362 H 30.5281 5.65469 -0.161609 0
M  V30 363 H 29.0851 6.49302 -0.570064 0
M  V30 364 N 32.5182 1.22032 0.997298 0
M  V30 365 C 33.7952 0.950823 1.70935 0
M  V30 366 C 34.1752 -0.535292 2.042 0
M  V30 367 O 33.5232 -1.50217 1.72183 0
M  V30 368 C 33.7332 1.84386 2.96315 0
M  V30 369 C 35.0812 2.09732 3.69185 0
M  V30 370 O 36.1052 1.81798 3.06314 0
M  V30 371 O 34.9642 2.57018 4.82291 0
M  V30 372 H 32.0582 0.357204 0.745878 0
M  V30 373 H 34.6042 1.32997 1.05404 0
M  V30 374 H 33.3762 2.84928 2.68201 0
M  V30 375 H 32.9992 1.46602 3.69586 0
M  V30 376 N 33.9963 -1.19345 1.0293 0
M  V30 377 C 35.4123 -1.41069 0.746446 0
M  V30 378 C 35.6123 -1.90078 -0.668776 0
M  V30 379 O 34.6683 -2.0778 -1.4347 0
M  V30 380 C 35.9813 -2.42141 1.78292 0
M  V30 381 C 37.5293 -2.55887 1.80252 0
M  V30 382 C 38.0043 -3.60214 2.8286 0
M  V30 383 N 39.4953 -3.67711 2.81679 0
M  V30 384 C 40.2303 -4.48128 3.57727 0
M  V30 385 N 39.7263 -5.32248 4.43491 0
M  V30 386 N 41.5193 -4.42782 3.46267 0
M  V30 387 H 33.6703 -0.858536 1.94275 0
M  V30 388 H 35.9333 -0.439541 0.839945 0
M  V30 389 H 35.6393 -2.13155 2.79746 0
M  V30 390 H 35.5133 -3.41323 1.60557 0
M  V30 391 H 37.9003 -2.84196 0.794757 0
M  V30 392 H 37.9813 -1.56858 2.02062 0
M  V30 393 H 37.6253 -3.32647 3.83807 0
M  V30 394 H 37.5553 -4.58895 2.58307 0
M  V30 395 H 40.0463 -3.07634 2.19476 0
M  V30 396 H 40.3593 -5.90729 4.98256 0
M  V30 397 H 38.7043 -5.31707 4.47564 0
M  V30 398 H 41.8953 -3.76107 2.78677 0
M  V30 399 H 42.0683 -5.05215 4.05785 0
M  V30 400 N 35.4744 -0.807222 -1.35358 0
M  V30 401 C 36.7024 -0.400377 -2.02989 0
M  V30 402 C 37.1174 0.988859 -1.60832 0
M  V30 403 O 36.4744 1.63729 -0.806175 0
M  V30 404 C 36.5254 -0.474867 -3.58368 0
M  V30 405 O 36.2464 -1.80933 -3.98992 0
M  V30 406 C 37.7474 -0.0609112 -4.43258 0
M  V30 407 H 34.9674 -0.162587 -0.651004 0
M  V30 408 H 37.5114 -1.09102 -1.72965 0
M  V30 409 H 35.6664 0.167534 -3.87038 0
M  V30 410 H 36.0804 -1.77256 -4.9364 0
M  V30 411 H 37.5544 -0.164145 -5.51756 0
M  V30 412 H 38.0314 0.993831 -4.27808 0
M  V30 413 H 38.6374 -0.676492 -4.19885 0
M  V30 414 N 36.9525 1.47285 -0.560781 0
M  V30 415 C 38.2295 1.9558 0.0277798 0
M  V30 416 C 38.6095 1.5034 1.48192 0
M  V30 417 O 37.9575 0.743882 2.16052 0
M  V30 418 C 38.1675 3.48789 -0.121418 0
M  V30 419 C 39.5155 4.24594 0.0220912 0
M  V30 420 O 40.5395 3.56166 -0.0491439 0
M  V30 421 O 39.3985 5.46217 0.175958 0
M  V30 422 H 36.4925 0.824663 0.0621342 0
M  V30 423 H 39.0385 1.5767 -0.627556 0
M  V30 424 H 37.8105 3.74533 -1.13316 0
M  V30 425 H 37.4335 3.93473 0.571366 0
M  V30 426 N 38.4306 0.297415 1.54768 0
M  V30 427 C 39.3606 -0.573494 2.26348 0
M  V30 428 C 40.3416 -1.14085 1.26169 0
M  V30 429 O 41.5266 -1.17086 1.54934 0
M  V30 430 C 38.6566 -1.74716 3.00153 0
M  V30 431 C 37.6106 -1.31032 4.07449 0
M  V30 432 C 36.9366 -2.56887 4.68949 0
M  V30 433 C 38.2366 -0.444183 5.20408 0
M  V30 434 H 39.9306 0.0235131 2.99391 0
M  V30 435 H 37.4766 0.0127488 1.43994 0
M  V30 436 H 39.4296 -2.3625 3.48947 0
M  V30 437 H 38.1536 -2.37035 2.24682 0
M  V30 438 H 36.8126 -0.718066 3.59499 0
M  V30 439 H 36.4606 -3.17512 3.90122 0
M  V30 440 H 36.1606 -2.2836 5.41411 0
M  V30 441 H 37.6846 -3.19229 5.20505 0
M  V30 442 H 39.0986 -0.9651 5.65118 0
M  V30 443 H 37.4956 -0.252846 5.99567 0
M  V30 444 H 38.5656 0.531609 4.81977 0
M  V30 445 N 39.9087 -1.5758 0.0250728 0
M  V30 446 C 40.8387 -2.13007 -0.956575 0
M  V30 447 C 41.8197 -1.0452 -1.342 0
M  V30 448 O 43.0047 -1.32332 -1.42133 0
M  V30 449 C 40.1347 -2.65386 -2.24026 0
M  V30 450 C 39.0887 -3.78623 -1.99571 0
M  V30 451 C 38.4147 -4.17414 -3.3417 0
M  V30 452 C 39.7147 -5.04867 -1.33814 0
M  V30 453 H 41.4087 -2.9528 -0.494991 0
M  V30 454 H 38.9547 -1.42042 -0.236651 0
M  V30 455 H 40.9077 -3.02794 -2.93076 0
M  V30 456 H 39.6317 -1.80268 -2.72343 0
M  V30 457 H 38.2907 -3.41646 -1.32941 0
M  V30 458 H 37.9387 -3.29284 -3.80238 0
M  V30 459 H 37.6387 -4.93719 -3.18615 0
M  V30 460 H 39.1627 -4.57402 -4.04495 0
M  V30 461 H 40.5767 -5.39888 -1.92857 0
M  V30 462 H 38.9737 -5.86144 -1.28669 0
M  V30 463 H 40.0437 -4.83904 -0.310561 0
M  V30 464 N 41.3868 0.248026 -1.55636 0
M  V30 465 C 42.3348 1.32683 -1.91045 0
M  V30 466 C 43.3288 1.49883 -0.789401 0
M  V30 467 O 44.5348 1.51371 -0.974007 0
M  V30 468 H 40.9098 0.444272 -0.606734 0
M  V30 469 H 42.8808 1.00085 -2.81115 0
M  V30 470 C 41.6298 2.6755 -2.22064 0
M  V30 471 H 40.9528 2.55114 -3.07826 0
M  V30 472 H 42.3928 3.41912 -2.50743 0
M  V30 473 C 40.8518 3.20556 -1.0366 0
M  V30 474 O 41.3818 4.00695 -0.284016 0
M  V30 475 N 39.5878 2.78568 -0.82753 0
M  V30 476 H 39.1348 2.1351 -1.44123 0
M  V30 477 H 39.0928 3.14378 -0.0369803 0
M  V30 478 N 42.8649 1.48995 0.513639 0
M  V30 479 C 44.1109 1.58076 1.27042 0
M  V30 480 C 44.4439 0.261026 1.92438 0
M  V30 481 O 43.7189 -0.734393 1.80103 0
M  V30 482 C 44.0019 2.73091 2.34719 0
M  V30 483 C 43.8549 4.14821 1.73907 0
M  V30 484 C 45.1739 2.83796 3.36375 0
M  V30 485 H 42.2929 0.575391 0.460536 0
M  V30 486 H 44.9349 1.81232 0.570516 0
M  V30 487 H 43.0849 2.53479 2.94416 0
M  V30 488 H 44.7569 4.45917 1.18135 0
M  V30 489 H 42.9999 4.21058 1.0437 0
M  V30 490 H 43.6709 4.91147 2.51949 0
M  V30 491 H 46.1469 3.01611 2.86653 0
M  V30 492 H 45.0229 3.65971 4.09093 0
M  V30 493 H 45.2839 1.92624 3.9793 0
M  V30 494 N 44.343 -0.763751 1.37857 0
M  V30 495 C 45.583 -1.53551 1.34913 0
M  V30 496 C 45.947 -1.91895 -0.0635882 0
M  V30 497 O 47.148 -2.67916 -0.217825 0
M  V30 498 C 45.419 -2.76126 2.26912 0
M  V30 499 S 46.978 -3.66105 2.41893 0
M  V30 500 H 43.796 -0.52559 0.478828 0
M  V30 501 H 46.398 -0.897435 1.73685 0
M  V30 502 H 45.102 -2.4605 3.28463 0
M  V30 503 H 44.633 -3.44887 1.89253 0
M  V30 504 H 46.648 -4.68473 1.63545 0
M  V30 505 N 45.8211 -1.22559 -0.990812 0
M  V30 506 C 46.7541 -0.940773 -2.07905 0
M  V30 507 C 47.7321 0.117082 -1.62178 0
M  V30 508 O 48.9161 -0.0149506 -1.88494 0
M  V30 509 C 46.0431 -0.415321 -3.36144 0
M  V30 510 C 45.0891 -1.45818 -4.00799 0
M  V30 511 S 45.9221 -3.03219 -4.41382 0
M  V30 512 C 47.0781 -2.52317 -5.72789 0
M  V30 513 H 47.3111 -1.8623 -2.31745 0
M  V30 514 H 44.8441 -1.05688 -1.12558 0
M  V30 515 H 46.8021 -0.118747 -4.10328 0
M  V30 516 H 45.4631 0.485121 -3.10331 0
M  V30 517 H 44.6561 -1.04044 -4.93144 0
M  V30 518 H 44.2581 -1.70356 -3.32949 0
M  V30 519 H 46.5501 -1.93688 -6.49224 0
M  V30 520 H 47.4931 -3.43161 -6.19392 0
M  V30 521 H 47.9011 -1.93529 -5.30289 0
M  V30 522 N 47.2992 1.18797 -1.03562 0
M  V30 523 C 48.5762 1.84469 -0.650434 0
M  V30 524 C 48.9562 1.92319 0.870433 0
M  V30 525 O 48.3042 1.44528 1.76986 0
M  V30 526 C 48.5142 3.2306 -1.32036 0
M  V30 527 C 49.8622 3.9915 -1.44792 0
M  V30 528 O 50.8862 3.32481 -1.27806 0
M  V30 529 O 49.7452 5.18587 -1.72423 0
M  V30 530 H 46.8392 0.795251 -0.226946 0
M  V30 531 H 49.3852 1.26231 -1.13419 0
M  V30 532 H 48.1572 3.1222 -2.3587 0
M  V30 533 H 47.7802 3.88949 -0.8249 0
M  V30 534 N 48.7773 0.814389 1.34928 0
M  V30 535 C 49.7403 0.235759 2.27984 0
M  V30 536 C 50.7403 -0.581412 1.49921 0
M  V30 537 O 51.9303 -0.398758 1.69575 0
M  V30 538 C 49.0623 -0.670433 3.34242 0
M  V30 539 H 50.2553 1.05659 2.80671 0
M  V30 540 H 47.8083 0.585614 1.44915 0
M  V30 541 H 48.5433 -1.51466 2.86755 0
M  V30 542 H 48.3283 -0.0860822 3.92005 0
M  V30 543 H 49.8183 -1.06935 4.03676 0
M  V30 544 N 50.2554 -1.46986 0.568584 0
M  V30 545 C 51.2024 -2.30153 -0.172707 0
M  V30 546 C 52.1724 -1.39759 -0.897586 0
M  V30 547 O 53.3574 -1.68716 -0.891044 0
M  V30 548 C 50.4974 -3.23952 -1.1895 0
M  V30 549 C 49.6104 -4.29441 -0.469517 0
M  V30 550 C 48.7454 -5.1038 -1.47259 0
M  V30 551 C 47.7844 -6.07632 -0.738225 0
M  V30 552 N 46.9214 -6.8149 -1.68868 0
M  V30 553 H 51.7614 -2.93019 0.542596 0
M  V30 554 H 49.2984 -1.44422 0.279401 0
M  V30 555 H 51.2564 -3.76767 -1.79173 0
M  V30 556 H 49.8864 -2.62926 -1.87269 0
M  V30 557 H 48.9384 -3.79594 0.247467 0
M  V30 558 H 50.2504 -4.98689 0.105241 0
M  V30 559 H 49.4044 -5.67402 -2.14803 0
M  V30 560 H 48.1434 -4.4106 -2.08128 0
M  V30 561 H 47.1484 -5.49778 -0.0489293 0
M  V30 562 H 48.3734 -6.78966 -0.135129 0
M  V30 563 H 46.3194 -6.14891 -2.28573 0
M  V30 564 H 46.2364 -7.46948 -1.16636 0
M  V30 565 H 47.5044 -7.43078 -2.3549 0
M  V30 566 N 51.7335 -0.305618 -1.54608 0
M  V30 567 C 52.6835 0.583595 -2.20405 0
M  V30 568 C 53.6675 1.09539 -1.17856 0
M  V30 569 O 54.8595 1.0354 -1.43557 0
M  V30 570 C 51.9885 1.75277 -2.95183 0
M  V30 571 C 51.0745 1.25672 -4.05052 0
M  V30 572 N 51.4655 0.478998 -5.03527 0
M  V30 573 C 49.7635 1.53704 -4.18678 0
M  V30 574 C 50.4645 0.214269 -5.81305 0
M  V30 575 N 49.4405 0.795374 -5.3775 0
M  V30 576 H 53.2425 -0.0180946 -2.93894 0
M  V30 577 H 50.7565 -0.110601 -1.62023 0
M  V30 578 H 52.7535 2.4014 -3.40791 0
M  V30 579 H 51.4135 2.35812 -2.23211 0
M  V30 580 H 52.4245 0.123473 -5.17753 0
M  V30 581 H 49.1015 2.14954 -3.57912 0
M  V30 582 H 50.4915 -0.410656 -6.70644 0
M  V30 583 N 53.2116 1.57565 -0.0334293 0
M  V30 584 C 54.1616 2.06978 0.956237 0
M  V30 585 C 55.1456 0.971193 1.28283 0
M  V30 586 O 56.3376 1.23471 1.26822 0
M  V30 587 C 53.4666 2.60393 2.23719 0
M  V30 588 C 52.5526 3.7719 1.93877 0
M  V30 589 N 52.9436 4.87639 1.34321 0
M  V30 590 C 51.2416 3.85758 2.23845 0
M  V30 591 C 51.9426 5.68825 1.21709 0
M  V30 592 N 50.9186 5.1587 1.71404 0
M  V30 593 H 54.7206 2.89773 0.490815 0
M  V30 594 H 52.2346 1.61492 0.171478 0
M  V30 595 H 54.2316 2.94088 2.95496 0
M  V30 596 H 52.8916 1.79031 2.70884 0
M  V30 597 H 53.9026 5.07803 1.01767 0
M  V30 598 H 50.5796 3.1531 2.73653 0
M  V30 599 H 51.9696 6.67631 0.75621 0
M  V30 600 N 54.6897 -0.239769 1.55765 0
M  V30 601 C 55.6367 -1.29696 1.90913 0
M  V30 602 C 56.6067 -1.47478 0.764164 0
M  V30 603 O 57.7917 -1.61345 1.01845 0
M  V30 604 C 54.9317 -2.64598 2.21544 0
M  V30 605 C 54.0447 -2.54765 3.48882 0
M  V30 606 C 53.1797 -3.82069 3.69049 0
M  V30 607 C 52.2187 -3.66883 4.89963 0
M  V30 608 N 51.3557 -4.86094 5.06614 0
M  V30 609 H 56.1957 -0.990224 2.81067 0
M  V30 610 H 53.7327 -0.477684 1.39128 0
M  V30 611 H 55.6907 -3.43132 2.3731 0
M  V30 612 H 54.3207 -2.93405 1.34585 0
M  V30 613 H 53.3727 -1.67763 3.41409 0
M  V30 614 H 54.6847 -2.39457 4.37563 0
M  V30 615 H 53.8387 -4.69046 3.84812 0
M  V30 616 H 52.5777 -4.00282 2.78614 0
M  V30 617 H 51.5827 -2.78289 4.74168 0
M  V30 618 H 52.8077 -3.50157 5.81865 0
M  V30 619 H 50.7537 -5.04655 4.19117 0
M  V30 620 H 50.6707 -4.73443 5.89396 0
M  V30 621 H 51.9387 -5.74549 5.26795 0
M  V30 622 N 56.1678 -1.49265 -0.50573 0
M  V30 623 C 57.3958 -1.62215 -1.28429 0
M  V30 624 C 57.8108 -0.291697 -1.86533 0
M  V30 625 O 57.1678 0.722233 -1.67601 0
M  V30 626 C 57.2188 -2.68735 -2.41793 0
M  V30 627 O 56.9398 -3.96619 -1.86078 0
M  V30 628 C 58.4408 -2.92346 -3.3324 0
M  V30 629 H 55.6608 -0.546239 -0.389697 0
M  V30 630 H 58.2048 -1.95265 -0.607609 0
M  V30 631 H 56.3598 -2.38476 -3.053 0
M  V30 632 H 56.7738 -4.55256 -2.60465 0
M  V30 633 H 58.2478 -3.70623 -4.09075 0
M  V30 634 H 58.7248 -2.02081 -3.89948 0
M  V30 635 H 59.3308 -3.24003 -2.75503 0
M  V30 636 N 57.6459 0.756429 -1.3826 0
M  V30 637 C 58.5929 1.87011 -1.35261 0
M  V30 638 C 59.5629 1.64695 -0.215616 0
M  V30 639 O 60.7479 1.864 -0.407399 0
M  V30 640 C 57.8879 3.24275 -1.18068 0
M  V30 641 C 57.0009 3.58442 -2.41129 0
M  V30 642 C 56.1359 4.84994 -2.16689 0
M  V30 643 C 55.1749 5.11939 -3.35537 0
M  V30 644 N 54.3119 6.29685 -3.10549 0
M  V30 645 H 59.1519 1.8891 -2.30472 0
M  V30 646 H 56.6889 0.923373 -1.14509 0
M  V30 647 H 58.6469 4.03479 -1.06116 0
M  V30 648 H 57.2769 3.21711 -0.264973 0
M  V30 649 H 56.3289 2.74103 -2.63764 0
M  V30 650 H 57.6409 3.74283 -3.29717 0
M  V30 651 H 56.7949 5.72135 -2.01857 0
M  V30 652 H 55.5339 4.71286 -1.25462 0
M  V30 653 H 54.5389 4.23268 -3.50891 0
M  V30 654 H 55.7639 5.27546 -4.27635 0
M  V30 655 H 53.7099 6.17306 -2.21967 0
M  V30 656 H 53.6269 6.46014 -3.92686 0
M  V30 657 H 54.8949 7.19722 -2.99367 0
M  V30 658 N 59.124 1.23083 0.984299 0
M  V30 659 C 60.535 1.05609 1.5396 0
M  V30 660 C 60.886 -0.377793 1.92528 0
M  V30 661 O 60.011 -1.26398 1.75649 0
M  V30 662 C 60.606 1.91087 2.7977 0
M  V30 663 C 59.165 1.77885 3.31713 0
M  V30 664 C 58.312 1.87028 2.04733 0
M  V30 665 H 61.263 1.36802 0.804419 0
M  V30 666 H 61.284 1.43336 3.5247 0
M  V30 667 H 60.796 2.9544 2.51668 0
M  V30 668 H 58.897 0.762995 3.64704 0
M  V30 669 H 59.01 2.61047 4.01735 0
M  V30 670 H 57.374 1.30565 2.18689 0
M  V30 671 H 58.157 2.92929 1.79017 0
M  V30 672 N 60.6021 -1.18246 1.0419 0
M  V30 673 C 61.8501 -1.87886 0.744543 0
M  V30 674 C 62.1711 -1.8082 -0.730006 0
M  V30 675 O 61.4411 -1.22736 -1.52685 0
M  V30 676 H 60.0211 -0.695556 0.272417 0
M  V30 677 H 62.6831 -1.43494 1.31892 0
M  V30 678 H 61.7791 -2.9389 1.05049 0
M  V30 679 N 62.0802 -0.821533 -1.34494 0
M  V30 680 C 63.4912 -0.467956 -1.8074 0
M  V30 681 C 63.8422 1.01151 -1.68116 0
M  V30 682 O 62.9672 1.78707 -1.22036 0
M  V30 683 C 63.5622 -0.842627 -3.28154 0
M  V30 684 C 62.1212 -0.541439 -3.72485 0
M  V30 685 C 61.2682 -1.06028 -2.56229 0
M  V30 686 H 64.2192 -1.01183 -1.22261 0
M  V30 687 H 64.2402 -0.145876 -3.8022 0
M  V30 688 H 63.7522 -1.91945 -3.37311 0
M  V30 689 H 61.8532 0.526034 -3.68868 0
M  V30 690 H 61.9662 -1.08453 -4.66663 0
M  V30 691 H 60.3302 -0.481892 -2.501 0
M  V30 692 H 61.1132 -2.14352 -2.68157 0
M  V30 693 N 63.5583 1.46682 -0.576371 0
M  V30 694 C 64.4683 2.34032 0.163141 0
M  V30 695 C 65.4843 1.49367 0.892501 0
M  V30 696 O 66.6603 1.82252 0.857106 0
M  V30 697 C 63.7253 3.26435 1.16795 0
M  V30 698 C 62.7863 4.26998 0.443944 0
M  V30 699 C 62.0193 5.14986 1.40088 0
M  V30 700 O 62.2423 5.05785 2.637 0
M  V30 701 O 61.1763 5.94906 0.914917 0
M  V30 702 H 65.0023 2.98607 -0.55388 0
M  V30 703 H 62.5873 1.45554 -0.336821 0
M  V30 704 H 64.4693 3.83459 1.74748 0
M  V30 705 H 63.1443 2.64465 1.86655 0
M  V30 706 H 62.0513 3.7368 -0.177271 0
M  V30 707 H 63.3843 4.91736 -0.213566 0
M  V30 708 N 65.0364 0.313813 1.54444 0
M  V30 709 C 66.3134 -0.345447 1.92525 0
M  V30 710 C 66.6934 -1.70667 1.24242 0
M  V30 711 O 66.0414 -2.25273 0.382654 0
M  V30 712 C 66.2514 -0.44737 3.46121 0
M  V30 713 C 67.5994 -0.712238 4.18584 0
M  V30 714 O 68.6234 -0.530678 3.52225 0
M  V30 715 O 67.4824 -1.06183 5.36085 0
M  V30 716 H 64.5764 -0.195407 0.803583 0
M  V30 717 H 67.1224 0.362813 1.65776 0
M  V30 718 H 65.8944 0.509043 3.87975 0
M  V30 719 H 65.5174 -1.20359 3.78945 0
M  V30 720 N 66.5145 -1.57545 0.0417849 0
M  V30 721 C 67.4615 -2.10977 -0.935805 0
M  V30 722 C 68.4315 -1.01486 -1.31491 0
M  V30 723 O 69.6165 -1.2898 -1.40602 0
M  V30 724 C 66.7565 -2.65169 -2.2086 0
M  V30 725 C 65.8695 -3.88714 -1.88482 0
M  V30 726 C 65.0045 -4.31254 -3.1015 0
M  V30 727 C 64.0435 -5.47524 -2.7365 0
M  V30 728 N 63.1805 -5.85162 -3.87982 0
M  V30 729 H 68.0205 -2.94218 -0.473249 0
M  V30 730 H 65.5575 -1.45415 -0.221981 0
M  V30 731 H 67.5155 -2.94685 -2.95325 0
M  V30 732 H 66.1455 -1.8474 -2.64709 0
M  V30 733 H 65.1975 -3.65849 -1.04205 0
M  V30 734 H 66.5095 -4.73245 -1.57608 0
M  V30 735 H 65.6635 -4.62273 -3.92923 0
M  V30 736 H 64.4025 -3.45516 -3.44195 0
M  V30 737 H 63.4075 -5.16187 -1.89291 0
M  V30 738 H 64.6325 -6.34971 -2.40807 0
M  V30 739 H 62.5785 -5.02377 -4.21846 0
M  V30 740 H 62.4955 -6.64362 -3.60775 0
M  V30 741 H 63.7635 -6.20791 -4.71422 0
M  V30 742 N 67.9926 0.231505 -1.5589 0
M  V30 743 C 68.9226 1.29022 -1.94617 0
M  V30 744 C 69.9036 1.4941 -0.813067 0
M  V30 745 O 71.0886 1.6176 -1.07459 0
M  V30 746 C 68.2186 2.64199 -2.25424 0
M  V30 747 C 67.1726 2.58484 -3.41131 0
M  V30 748 C 66.4986 3.97599 -3.57518 0
M  V30 749 C 67.7986 2.1413 -4.76388 0
M  V30 750 H 69.4926 0.968563 -2.83301 0
M  V30 751 H 67.0386 0.464479 -1.36303 0
M  V30 752 H 68.9916 3.38413 -2.51107 0
M  V30 753 H 67.7156 2.98032 -1.33583 0
M  V30 754 H 66.3746 1.86727 -3.15481 0
M  V30 755 H 66.0226 4.28723 -2.6307 0
M  V30 756 H 65.7226 3.94659 -4.35337 0
M  V30 757 H 67.2466 4.7349 -3.85538 0
M  V30 758 H 68.6606 2.78083 -5.01341 0
M  V30 759 H 67.0576 2.2227 -5.57419 0
M  V30 760 H 68.1276 1.09331 -4.72414 0
M  V30 761 N 69.4707 1.49531 0.497807 0
M  V30 762 C 70.4207 1.62829 1.59596 0
M  V30 763 C 71.4047 0.483824 1.53453 0
M  V30 764 O 72.5967 0.736937 1.60929 0
M  V30 765 C 69.7257 1.7011 2.98191 0
M  V30 766 C 68.8117 2.90144 3.09317 0
M  V30 767 N 69.2027 4.1418 2.90324 0
M  V30 768 C 67.5007 2.88148 3.40422 0
M  V30 769 C 68.2017 4.94886 3.05717 0
M  V30 770 N 67.1777 4.28314 3.34736 0
M  V30 771 H 70.9797 2.56446 1.4357 0
M  V30 772 H 68.4937 1.46347 0.704001 0
M  V30 773 H 70.4907 1.77735 3.77115 0
M  V30 774 H 69.1507 0.776315 3.15283 0
M  V30 775 H 70.1617 4.44109 2.66436 0
M  V30 776 H 66.8387 2.05061 3.63671 0
M  V30 777 H 68.2287 6.03432 2.95499 0
M  V30 778 N 70.9488 -0.749086 1.3866 0
M  V30 779 C 72.2258 -1.4992 1.25632 0
M  V30 780 C 72.6058 -2.10633 -0.140317 0
M  V30 781 O 71.9538 -1.97437 -1.15025 0
M  V30 782 C 72.1638 -2.56195 2.36992 0
M  V30 783 C 73.5118 -3.22972 2.75634 0
M  V30 784 O 74.5358 -2.66502 2.36337 0
M  V30 785 O 73.3948 -4.25122 3.43415 0
M  V30 786 H 70.4888 -0.665067 0.491544 0
M  V30 787 H 73.0348 -0.784113 1.50498 0
M  V30 788 H 71.8068 -2.09612 3.30422 0
M  V30 789 H 71.4298 -3.35279 2.13714 0
M  V30 790 N 72.4269 -1.23603 -0.977757 0
M  V30 791 C 73.3589 -0.977369 -2.07317 0
M  V30 792 C 74.3719 0.0495845 -1.62724 0
M  V30 793 O 75.5609 -0.186261 -1.77526 0
M  V30 794 C 72.6609 -0.451216 -3.35883 0
M  V30 795 C 71.8339 -1.53896 -4.09432 0
M  V30 796 C 70.8929 -1.01721 -5.16274 0
M  V30 797 O 69.9189 -1.70676 -5.43009 0
M  V30 798 N 71.1209 0.153594 -5.80297 0
M  V30 799 H 73.8859 -1.92047 -2.30082 0
M  V30 800 H 71.4469 -1.14497 -1.14465 0
M  V30 801 H 73.4389 -0.0871574 -4.04606 0
M  V30 802 H 72.0089 0.397368 -3.10064 0
M  V30 803 H 71.2289 -2.07566 -3.35127 0
M  V30 804 H 72.5169 -2.27037 -4.55337 0
M  V30 805 H 71.9149 0.730323 -5.60966 0
M  V30 806 H 70.4719 0.458892 -6.50183 0
M  V30 807 N 73.905 1.17692 -1.04816 0
M  V30 808 C 75.145 1.89545 -0.764979 0
M  V30 809 C 75.509 1.78979 0.695028 0
M  V30 810 O 76.71 2.45613 1.09215 0
M  V30 811 C 74.981 3.35659 -1.22751 0
M  V30 812 S 76.54 4.25526 -1.07112 0
M  V30 813 H 73.358 0.654432 -0.27792 0
M  V30 814 H 75.96 1.42163 -1.34201 0
M  V30 815 H 74.664 3.40882 -2.28533 0
M  V30 816 H 74.195 3.88083 -0.644594 0
M  V30 817 H 76.21 4.962 0.00697508 0
M  V30 818 N 75.3831 0.828654 1.34056 0
M  V30 819 C 76.6081 0.431637 2.02859 0
M  V30 820 C 77.0331 -0.956339 1.61975 0
M  V30 821 O 76.3911 -1.62338 0.807228 0
M  V30 822 C 76.4391 0.548323 3.56407 0
M  V30 823 O 75.5431 -0.429556 4.10157 0
M  V30 824 H 74.8841 0.176886 0.640006 0
M  V30 825 H 77.4141 1.12066 1.71179 0
M  V30 826 H 77.4241 0.426196 4.05768 0
M  V30 827 H 76.0991 1.5606 3.8551 0
M  V30 828 H 74.6761 -0.265836 3.71951 0
M  V30 829 N 76.8612 -1.46375 0.584142 0
M  V30 830 C 78.2722 -1.86031 0.157959 0
M  V30 831 C 78.6232 -1.48753 -1.27933 0
M  V30 832 O 77.7482 -0.903098 -1.96655 0
M  V30 833 C 78.3432 -3.37642 0.279892 0
M  V30 834 C 76.9022 -3.76289 -0.09143 0
M  V30 835 C 76.0492 -2.7039 0.615178 0
M  V30 836 H 79.0002 -1.37509 0.792274 0
M  V30 837 H 79.0212 -3.77275 -0.494364 0
M  V30 838 H 78.5332 -3.64742 1.32607 0
M  V30 839 H 76.6342 -3.54806 -1.13769 0
M  V30 840 H 76.7472 -4.78246 0.285886 0
M  V30 841 H 75.1112 -2.5464 0.0552833 0
M  V30 842 H 75.8942 -3.0033 1.66303 0
M  V30 843 N 78.3393 -0.321999 -1.54275 0
M  V30 844 C 79.5853 0.274234 -2.01543 0
M  V30 845 C 79.9403 1.499 -1.20614 0
M  V30 846 O 79.2333 1.89546 -0.279804 0
M  V30 847 C 79.4273 0.661769 -3.5122 0
M  V30 848 C 79.2563 -0.523892 -4.46638 0
M  V30 849 C 78.0263 -1.02251 -4.94846 0
M  V30 850 C 80.2243 -1.37558 -4.95563 0
M  V30 851 N 78.2063 -2.17274 -5.74165 0
M  V30 852 C 79.5773 -2.37301 -5.7279 0
M  V30 853 C 81.6323 -1.40353 -4.77709 0
M  V30 854 C 80.3353 -3.3964 -6.34064 0
M  V30 855 C 82.3613 -2.41562 -5.39817 0
M  V30 856 C 81.7233 -3.40031 -6.16894 0
M  V30 857 H 77.8223 0.0642367 -0.779357 0
M  V30 858 H 80.4063 -0.456683 -1.89268 0
M  V30 859 H 78.5773 1.36182 -3.63743 0
M  V30 860 H 80.3093 1.23934 -3.85256 0
M  V30 861 H 77.0643 -0.594046 -4.6986 0
M  V30 862 H 77.4883 -2.75289 -6.18502 0
M  V30 863 H 82.1303 -0.655907 -4.17681 0
M  V30 864 H 79.8483 -4.15309 -6.93213 0
M  V30 865 H 83.4343 -2.44524 -5.2792 0
M  V30 866 H 82.3143 -4.17063 -6.64099 0
M  V30 867 N 79.8174 1.5752 -0.0501392 0
M  V30 868 C 80.7644 2.1147 0.924603 0
M  V30 869 C 81.7344 1.02182 1.30951 0
M  V30 870 O 82.9194 1.29723 1.39916 0
M  V30 871 C 80.0594 2.66337 2.19451 0
M  V30 872 C 79.1724 3.89708 1.86418 0
M  V30 873 C 78.3074 4.32893 3.07859 0
M  V30 874 C 77.3464 5.48967 2.70742 0
M  V30 875 N 76.4834 5.87211 3.84874 0
M  V30 876 H 81.3234 2.94465 0.457639 0
M  V30 877 H 78.8604 1.45531 0.214266 0
M  V30 878 H 80.8184 2.96247 2.93758 0
M  V30 879 H 79.4484 1.86141 2.63726 0
M  V30 880 H 78.5004 3.66396 1.02264 0
M  V30 881 H 79.8124 4.74074 1.55096 0
M  V30 882 H 78.9664 4.6435 3.90466 0
M  V30 883 H 77.7054 3.47336 3.42358 0
M  V30 884 H 76.7104 5.17183 1.86551 0
M  V30 885 H 77.9354 6.3624 2.37436 0
M  V30 886 H 75.8814 5.04607 4.19175 0
M  V30 887 H 75.7984 6.66266 3.57247 0
M  V30 888 H 77.0664 6.23282 4.68123 0
M  V30 889 N 81.2955 -0.223234 1.56011 0
M  V30 890 C 82.2425 -1.27664 1.92277 0
M  V30 891 C 83.2125 -1.46659 0.779763 0
M  V30 892 O 84.3975 -1.60256 1.03551 0
M  V30 893 C 81.5375 -2.62234 2.24338 0
M  V30 894 C 80.6505 -2.51051 3.51564 0
M  V30 895 C 79.7855 -3.78133 3.7308 0
M  V30 896 C 78.8245 -3.61665 4.93827 0
M  V30 897 N 77.9615 -4.80693 5.11741 0
M  V30 898 H 82.8015 -0.960358 2.82101 0
M  V30 899 H 80.3385 -0.462901 1.39627 0
M  V30 900 H 82.2965 -3.40596 2.40936 0
M  V30 901 H 80.9265 -2.91961 1.3769 0
M  V30 902 H 79.9785 -1.64132 3.43169 0
M  V30 903 H 81.2905 -2.34803 4.40079 0
M  V30 904 H 80.4445 -4.64938 3.89766 0
M  V30 905 H 79.1835 -3.97304 2.82844 0
M  V30 906 H 78.1885 -2.73244 4.77093 0
M  V30 907 H 79.4135 -3.43966 5.85546 0
M  V30 908 H 77.3595 -5.00181 4.24446 0
M  V30 909 H 77.2765 -4.67165 5.94384 0
M  V30 910 H 78.5445 -5.6893 5.3286 0
M  V30 911 N 82.7736 -1.49793 -0.48987 0
M  V30 912 C 83.7216 -1.67783 -1.61095 0
M  V30 913 C 84.7156 -0.543683 -1.60438 0
M  V30 914 O 85.9216 -0.723647 -1.64813 0
M  V30 915 H 82.2966 -0.529255 -0.534222 0
M  V30 916 H 84.2676 -2.61861 -1.43078 0
M  V30 917 C 83.0166 -1.77191 -2.99164 0
M  V30 918 H 82.3396 -2.63841 -3.0038 0
M  V30 919 H 83.7796 -1.93809 -3.77113 0
M  V30 920 C 82.2386 -0.519203 -3.32875 0
M  V30 921 O 82.7686 0.350124 -4.00171 0
M  V30 922 N 80.9746 -0.378816 -2.8812 0
M  V30 923 H 80.5216 -1.08725 -2.33531 0
M  V30 924 H 80.4796 0.458239 -3.11043 0
M  V30 925 N 84.2517 0.741722 -1.39055 0
M  V30 926 C 85.2147 1.83733 -1.37021 0
M  V30 927 C 86.2147 1.58542 -0.268534 0
M  V30 928 O 87.4047 1.66067 -0.526076 0
M  V30 929 C 84.5367 3.2141 -1.13617 0
M  V30 930 H 85.7297 1.86941 -2.34506 0
M  V30 931 H 83.2827 0.944676 -1.24521 0
M  V30 932 H 84.0177 3.23865 -0.167863 0
M  V30 933 H 83.8027 3.4109 -1.93391 0
M  V30 934 H 85.2927 4.01477 -1.14918 0
M  V30 935 N 85.7298 1.2412 0.971189 0
M  V30 936 C 86.9698 1.09066 1.7287 0
M  V30 937 C 87.3338 -0.364794 1.88503 0
M  V30 938 O 88.5348 -0.636748 2.61149 0
M  V30 939 C 86.8058 1.80629 3.08396 0
M  V30 940 S 88.3648 1.81263 3.99611 0
M  V30 941 H 85.1828 0.390145 0.594397 0
M  V30 942 H 87.7848 1.57397 1.15959 0
M  V30 943 H 86.4888 2.85647 2.94676 0
M  V30 944 H 86.0198 1.32617 3.70373 0
M  V30 945 H 88.0348 0.877804 4.88374 0
M  V30 946 N 87.2079 -1.17134 1.05439 0
M  V30 947 C 88.4479 -1.89137 0.77502 0
M  V30 948 C 88.8119 -1.79345 -0.685526 0
M  V30 949 O 90.0129 -2.46188 -1.0791 0
M  V30 950 C 88.2839 -3.35003 1.2453 0
M  V30 951 S 89.8429 -4.24952 1.09367 0
M  V30 952 H 86.6609 -0.652949 0.281387 0
M  V30 953 H 89.2629 -1.4145 1.34953 0
M  V30 954 H 87.9669 -3.39666 2.30338 0
M  V30 955 H 87.4979 -3.87736 0.665166 0
M  V30 956 H 89.5129 -4.96196 0.0193397 0
M  V30 957 N 88.686 -0.835752 -1.33615 0
M  V30 958 C 89.914 -0.443344 -2.02094 0
M  V30 959 C 90.329 0.954522 -1.62894 0
M  V30 960 O 89.686 1.61982 -0.840723 0
M  V30 961 C 89.737 -0.550775 -3.5728 0
M  V30 962 O 89.458 -1.89356 -3.95065 0
M  V30 963 C 90.959 -0.154919 -4.43029 0
M  V30 964 H 88.179 -0.176359 -0.647409 0
M  V30 965 H 90.723 -1.12746 -1.70612 0
M  V30 966 H 88.878 0.0853997 -3.87306 0
M  V30 967 H 89.292 -1.87687 -4.89769 0
M  V30 968 H 90.766 -0.281144 -5.51284 0
M  V30 969 H 91.243 0.902863 -4.2982 0
M  V30 970 H 91.849 -0.765404 -4.18356 0
M  V30 971 N 90.1641 1.46063 -0.591896 0
M  V30 972 C 91.1271 2.28854 0.125973 0
M  V30 973 C 92.1271 1.38903 0.810107 0
M  V30 974 O 93.3171 1.61186 0.66066 0
M  V30 975 C 90.4491 3.19526 1.1881 0
M  V30 976 H 91.6421 2.93802 -0.601717 0
M  V30 977 H 89.1951 1.52325 -0.350254 0
M  V30 978 H 89.9301 2.59345 1.94707 0
M  V30 979 H 89.7151 3.85766 0.701936 0
M  V30 980 H 91.2051 3.81817 1.69132 0
M  V30 981 N 91.6422 0.330177 1.54103 0
M  V30 982 C 92.8672 -0.274893 2.0557 0
M  V30 983 C 93.2922 -1.44487 1.20437 0
M  V30 984 O 92.6502 -1.80021 0.214991 0
M  V30 985 C 92.6982 -0.68079 3.54115 0
M  V30 986 O 91.8022 -1.7824 3.71893 0
M  V30 987 H 91.1432 -0.0483849 0.662235 0
M  V30 988 H 93.6732 0.480508 1.98878 0
M  V30 989 H 93.6832 -0.961635 3.96505 0
M  V30 990 H 92.3582 0.174903 4.15532 0
M  V30 991 H 90.9352 -1.49985 3.41407 0
M  V30 992 N 93.1203 -1.57491 0.0584922 0
M  V30 993 C 94.3483 -1.97296 -0.623037 0
M  V30 994 C 94.7633 -0.936338 -1.63946 0
M  V30 995 O 94.1203 0.0785981 -1.82331 0
M  V30 996 C 94.1713 -3.37183 -1.30345 0
M  V30 997 O 93.8923 -4.36872 -0.32773 0
M  V30 998 C 95.3933 -3.91788 -2.07406 0
M  V30 999 H 92.6133 -0.649153 -0.169826 0
M  V30 1000 H 95.1573 -2.04106 0.12696 0
M  V30 1001 H 93.3123 -3.31502 -2.00463 0
M  V30 1002 H 93.7263 -5.18141 -0.814269 0
M  V30 1003 H 95.2003 -4.91926 -2.50425 0
M  V30 1004 H 95.6773 -3.27609 -2.92521 0
M  V30 1005 H 96.2833 -4.00829 -1.42184 0
M  V30 1006 N 94.5984 0.214957 -1.56127 0
M  V30 1007 C 95.8234 0.95924 -1.83884 0
M  V30 1008 C 96.2484 1.7689 -0.639644 0
M  V30 1009 O 95.6064 1.76566 0.411601 0
M  V30 1010 C 95.6544 1.84723 -3.09693 0
M  V30 1011 O 94.7584 2.94346 -2.8885 0
M  V30 1012 H 94.0994 0.27125 -0.606069 0
M  V30 1013 H 96.6294 0.226276 -2.03345 0
M  V30 1014 H 96.6394 2.25576 -3.39969 0
M  V30 1015 H 95.3144 1.25218 -3.96602 0
M  V30 1016 H 93.8914 2.57391 -2.69823 0
M  V30 1017 N 96.0765 1.50051 0.48192 0
M  V30 1018 C 97.0085 1.64263 1.59844 0
M  V30 1019 C 98.0215 0.52451 1.54119 0
M  V30 1020 O 99.2105 0.797293 1.59704 0
M  V30 1021 C 96.3105 1.60102 2.98698 0
M  V30 1022 C 95.4835 2.87767 3.29407 0
M  V30 1023 C 94.5425 2.76397 4.47762 0
M  V30 1024 O 93.5685 3.50348 4.48603 0
M  V30 1025 N 94.7705 1.89222 5.48794 0
M  V30 1026 H 97.5355 2.60566 1.48073 0
M  V30 1027 H 95.0965 1.47379 0.670149 0
M  V30 1028 H 97.0885 1.50123 3.75826 0
M  V30 1029 H 95.6585 0.715798 3.04294 0
M  V30 1030 H 94.8785 3.11954 2.40994 0
M  V30 1031 H 96.1665 3.72365 3.4673 0
M  V30 1032 H 95.5645 1.28434 5.50928 0
M  V30 1033 H 94.1215 1.85154 6.24949 0
M  V30 1034 N 97.5546 -0.734337 1.39446 0
M  V30 1035 C 98.4646 -1.87879 1.40495 0
M  V30 1036 C 99.4806 -1.714 0.299672 0
M  V30 1037 O 100.657 -1.93991 0.541249 0
M  V30 1038 C 97.7216 -3.23477 1.24754 0
M  V30 1039 C 96.7826 -3.52344 2.45259 0
M  V30 1040 C 96.0156 -4.81473 2.30259 0
M  V30 1041 O 96.2386 -5.55237 1.30643 0
M  V30 1042 O 95.1726 -5.10254 3.19256 0
M  V30 1043 H 98.9986 -1.89949 2.36966 0
M  V30 1044 H 96.5836 -0.882243 1.20569 0
M  V30 1045 H 98.4656 -4.04509 1.18111 0
M  V30 1046 H 97.1406 -3.22176 0.313781 0
M  V30 1047 H 96.0476 -2.71396 2.57478 0
M  V30 1048 H 97.3806 -3.58426 3.37331 0
M  V30 1049 N 99.0327 -1.24633 -0.964593 0
M  V30 1050 C 99.9627 -1.06611 -2.07741 0
M  V30 1051 C 100.944 0.0218666 -1.70086 0
M  V30 1052 O 102.129 -0.145793 -1.93652 0
M  V30 1053 C 99.2587 -0.673444 -3.40708 0
M  V30 1054 C 98.2127 -1.71054 -3.92332 0
M  V30 1055 C 97.5387 -1.17285 -5.21678 0
M  V30 1056 C 98.8387 -3.10718 -4.19824 0
M  V30 1057 H 100.533 -1.99693 -2.23076 0
M  V30 1058 H 98.0787 -0.96152 -1.07195 0
M  V30 1059 H 100.032 -0.534345 -4.17998 0
M  V30 1060 H 98.7557 0.293073 -3.25282 0
M  V30 1061 H 97.4147 -1.83791 -3.17201 0
M  V30 1062 H 97.0627 -0.196847 -5.02615 0
M  V30 1063 H 96.7627 -1.86592 -5.57187 0
M  V30 1064 H 98.2867 -1.04593 -6.01575 0
M  V30 1065 H 99.7007 -3.01192 -4.87808 0
M  V30 1066 H 98.0977 -3.77406 -4.66567 0
M  V30 1067 H 99.1677 -3.58524 -3.26479 0
M  V30 1068 N 100.511 1.16574 -1.06058 0
M  V30 1069 C 101.461 2.18854 -0.63929 0
M  V30 1070 C 102.445 1.57505 0.328798 0
M  V30 1071 O 103.637 1.76408 0.144623 0
M  V30 1072 C 100.766 3.43291 -0.0247203 0
M  V30 1073 C 99.8518 4.11722 -1.01716 0
M  V30 1074 N 100.243 4.55841 -2.19186 0
M  V30 1075 C 98.5408 4.37872 -0.847569 0
M  V30 1076 C 99.2418 5.08751 -2.82042 0
M  V30 1077 N 98.2178 5.01489 -2.09784 0
M  V30 1078 H 102.02 2.5068 -1.53417 0
M  V30 1079 H 99.5338 1.32999 -0.931935 0
M  V30 1080 H 101.531 4.15856 0.294915 0
M  V30 1081 H 100.191 3.12954 0.865448 0
M  V30 1082 H 101.202 4.49649 -2.56975 0
M  V30 1083 H 97.8788 4.17499 -0.00918848 0
M  V30 1084 H 99.2688 5.52944 -3.81709 0
M  V30 1085 N 101.989 0.842826 1.3317 0
M  V30 1086 C 102.936 0.276885 2.29133 0
M  V30 1087 C 103.906 -0.609527 1.54512 0
M  V30 1088 O 105.091 -0.546955 1.82792 0
M  V30 1089 C 102.231 -0.538707 3.40869 0
M  V30 1090 C 101.344 0.372169 4.30394 0
M  V30 1091 C 100.479 -0.454908 5.29249 0
M  V30 1092 C 99.5179 0.45411 6.10413 0
M  V30 1093 N 98.6549 -0.335075 7.013 0
M  V30 1094 H 103.495 1.10052 2.76934 0
M  V30 1095 H 101.032 0.554161 1.36262 0
M  V30 1096 H 102.99 -1.02709 4.0436 0
M  V30 1097 H 101.62 -1.32727 2.9425 0
M  V30 1098 H 100.672 0.97888 3.6759 0
M  V30 1099 H 101.984 1.0703 4.87182 0
M  V30 1100 H 101.138 -1.00695 5.98285 0
M  V30 1101 H 99.8769 -1.18646 4.73048 0
M  V30 1102 H 98.8819 1.01813 5.40291 0
M  V30 1103 H 100.107 1.18409 6.68697 0
M  V30 1104 H 98.0529 -1.04994 6.47543 0
M  V30 1105 H 97.9699 0.304262 7.55387 0
M  V30 1106 H 99.2379 -0.869224 7.74638 0
M  V30 1107 N 103.467 -1.45747 0.599634 0
M  V30 1108 C 104.744 -1.95585 0.0240846 0
M  V30 1109 C 105.124 -1.54217 -1.44154 0
M  V30 1110 O 104.472 -0.800903 -2.14004 0
M  V30 1111 C 104.682 -3.48344 0.21385 0
M  V30 1112 C 106.03 -4.24504 0.0904902 0
M  V30 1113 O 107.054 -3.55911 0.143558 0
M  V30 1114 O 105.913 -5.46491 -0.0310766 0
M  V30 1115 H 103.007 -0.82602 -0.0402478 0
M  V30 1116 H 105.553 -1.55951 0.669139 0
M  V30 1117 H 104.325 -3.71397 1.23206 0
M  V30 1118 H 103.948 -3.9485 -0.466842 0
M  V30 1119 N 104.945 -0.338344 -1.53925 0
M  V30 1120 C 106.173 0.261298 -2.05243 0
M  V30 1121 C 106.588 1.44625 -1.21363 0
M  V30 1122 O 105.945 1.80811 -0.247736 0
M  V30 1123 C 105.996 0.681412 -3.5502 0
M  V30 1124 O 105.717 -0.456414 -4.35716 0
M  V30 1125 C 107.218 1.34232 -4.22489 0
M  V30 1126 H 104.438 0.0513685 -0.669031 0
M  V30 1127 H 106.982 -0.488822 -1.98572 0
M  V30 1128 H 105.137 1.38148 -3.61931 0
M  V30 1129 H 105.551 -0.122564 -5.24357 0
M  V30 1130 H 107.025 1.58708 -5.28693 0
M  V30 1131 H 107.502 2.29426 -3.74514 0
M  V30 1132 H 108.108 0.684424 -4.19757 0
M  V30 1133 N 106.423 1.57458 -0.0668435 0
M  V30 1134 C 107.648 1.9804 0.616027 0
M  V30 1135 C 108.073 0.944771 1.62652 0
M  V30 1136 O 107.431 -0.0902094 1.81075 0
M  V30 1137 C 107.479 3.37665 1.26549 0
M  V30 1138 O 106.583 3.36701 2.38131 0
M  V30 1139 H 105.924 0.644719 0.158849 0
M  V30 1140 H 108.454 2.04121 -0.139891 0
M  V30 1141 H 108.464 3.7474 1.6135 0
M  V30 1142 H 107.139 4.12573 0.525016 0
M  V30 1143 H 105.716 3.1139 2.0516 0
M  V30 1144 N 107.901 -0.206675 1.56239 0
M  V30 1145 C 109.317 -0.557025 1.49564 0
M  V30 1146 C 109.517 -1.86424 0.764735 0
M  V30 1147 O 108.573 -2.50584 0.310491 0
M  V30 1148 C 109.886 -0.622478 2.94186 0
M  V30 1149 C 111.434 -0.712099 3.04792 0
M  V30 1150 C 111.909 -0.808767 4.50803 0
M  V30 1151 N 113.4 -0.8726 4.54907 0
M  V30 1152 C 114.135 -0.967365 5.65181 0
M  V30 1153 N 113.631 -1.02515 6.85173 0
M  V30 1154 N 115.424 -1.00366 5.53067 0
M  V30 1155 H 107.575 0.650943 2.02179 0
M  V30 1156 H 109.838 0.230387 0.919579 0
M  V30 1157 H 109.544 0.268727 3.50672 0
M  V30 1158 H 109.418 -1.4811 3.46905 0
M  V30 1159 H 111.805 -1.59374 2.48363 0
M  V30 1160 H 111.886 0.172489 2.55218 0
M  V30 1161 H 111.53 0.0684754 5.07854 0
M  V30 1162 H 111.46 -1.70899 4.98098 0
M  V30 1163 H 113.951 -0.837657 3.68499 0
M  V30 1164 H 114.264 -1.09765 7.64965 0
M  V30 1165 H 112.609 -0.994026 6.87855 0
M  V30 1166 H 115.8 -0.95527 4.58249 0
M  V30 1167 H 115.973 -1.07405 6.39037 0
M  V30 1168 N 109.379 -1.50304 -0.473955 0
M  V30 1169 C 110.309 -1.71886 -1.58042 0
M  V30 1170 C 111.29 -0.567799 -1.60344 0
M  V30 1171 O 112.475 -0.806623 -1.76656 0
M  V30 1172 C 109.605 -1.81036 -2.96384 0
M  V30 1173 C 108.559 -2.962 -3.08949 0
M  V30 1174 C 107.885 -2.9049 -4.48909 0
M  V30 1175 C 109.185 -4.36752 -2.86434 0
M  V30 1176 H 110.879 -2.64527 -1.40234 0
M  V30 1177 H 108.425 -1.27295 -0.673201 0
M  V30 1178 H 110.378 -1.94719 -3.73714 0
M  V30 1179 H 109.102 -0.850147 -3.15341 0
M  V30 1180 H 107.761 -2.82164 -2.3405 0
M  V30 1181 H 107.409 -1.92321 -4.64781 0
M  V30 1182 H 107.109 -3.67802 -4.58253 0
M  V30 1183 H 108.633 -3.06218 -5.28264 0
M  V30 1184 H 110.047 -4.5133 -3.53517 0
M  V30 1185 H 108.444 -5.15493 -3.07225 0
M  V30 1186 H 109.514 -4.49321 -1.82316 0
M  V30 1187 N 110.857 0.726932 -1.39834 0
M  V30 1188 C 112.087 1.51393 -1.40583 0
M  V30 1189 C 112.495 1.892 -0.000740625 0
M  V30 1190 O 111.838 1.55189 0.982951 0
M  V30 1191 C 111.9 2.82588 -2.22226 0
M  V30 1192 C 111.564 2.67169 -3.70769 0
M  V30 1193 C 112.561 2.3518 -4.63666 0
M  V30 1194 C 110.246 2.83788 -4.14451 0
M  V30 1195 C 112.24 2.20002 -5.98229 0
M  V30 1196 C 109.927 2.68229 -5.49087 0
M  V30 1197 C 110.925 2.36382 -6.4079 0
M  V30 1198 O 110.613 2.2093 -7.72946 0
M  V30 1199 H 110.345 0.474168 -0.48181 0
M  V30 1200 H 112.899 0.905247 -1.84376 0
M  V30 1201 H 111.129 3.45746 -1.73195 0
M  V30 1202 H 112.818 3.44247 -2.15055 0
M  V30 1203 H 113.584 2.21984 -4.31217 0
M  V30 1204 H 109.463 3.07566 -3.43401 0
M  V30 1205 H 113.007 1.95067 -6.69772 0
M  V30 1206 H 108.904 2.81006 -5.81125 0
M  V30 1207 H 109.672 2.35937 -7.83757 0
M  V30 1208 N 112.336 1.25143 0.95797 0
M  V30 1209 C 113.284 1.05019 2.07542 0
M  V30 1210 C 114.278 -0.0178751 1.69391 0
M  V30 1211 O 115.484 0.137472 1.79474 0
M  V30 1212 H 111.859 0.32265 0.679265 0
M  V30 1213 H 113.83 1.99759 2.21673 0
M  V30 1214 C 112.579 0.682074 3.40944 0
M  V30 1215 H 111.902 1.49573 3.70767 0
M  V30 1216 H 113.342 0.580945 4.20001 0
M  V30 1217 C 111.801 -0.611608 3.31302 0
M  V30 1218 O 112.331 -1.65465 3.66038 0
M  V30 1219 N 110.537 -0.595982 2.84423 0
M  V30 1220 H 110.084 0.253192 2.56353 0
M  V30 1221 H 110.042 -1.46173 2.78354 0
M  V30 1222 N 113.814 -1.1601 1.06675 0
M  V30 1223 C 115.061 -1.86633 0.785781 0
M  V30 1224 C 115.389 -1.81929 -0.687896 0
M  V30 1225 O 114.644 -1.23253 -1.52011 0
M  V30 1226 C 114.943 -3.35547 1.23057 0
M  V30 1227 C 114.609 -3.60448 2.70902 0
M  V30 1228 C 113.271 -3.66954 3.11285 0
M  V30 1229 C 115.623 -3.7071 3.66365 0
M  V30 1230 C 112.951 -3.81225 4.45965 0
M  V30 1231 C 115.303 -3.86503 5.00797 0
M  V30 1232 C 113.967 -3.91252 5.40813 0
M  V30 1233 H 113.237 -0.682937 0.287538 0
M  V30 1234 H 115.884 -1.37146 1.33654 0
M  V30 1235 H 114.189 -3.87193 0.59907 0
M  V30 1236 H 115.886 -3.88583 0.990163 0
M  V30 1237 H 112.476 -3.56021 2.38636 0
M  V30 1238 H 116.66 -3.64991 3.36296 0
M  V30 1239 H 111.916 -3.83155 4.76447 0
M  V30 1240 H 116.09 -3.93385 5.74649 0
M  V30 1241 H 113.717 -4.02062 6.45174 0
M  V30 1242 N 115.292 -0.849877 -1.32721 0
M  V30 1243 C 116.24 -0.279745 -2.30912 0
M  V30 1244 C 117.234 0.594278 -1.58634 0
M  V30 1245 O 118.44 0.482613 -1.73409 0
M  V30 1246 H 114.815 -0.0717521 -0.748569 0
M  V30 1247 H 116.786 -1.12222 -2.76494 0
M  V30 1248 C 115.535 0.521108 -3.43773 0
M  V30 1249 H 114.858 -0.142141 -3.99547 0
M  V30 1250 H 116.298 0.885693 -4.14646 0
M  V30 1251 C 114.757 1.70442 -2.90605 0
M  V30 1252 O 115.287 2.8034 -2.87702 0
M  V30 1253 N 113.493 1.52991 -2.47067 0
M  V30 1254 H 113.04 0.635914 -2.49628 0
M  V30 1255 H 112.998 2.32311 -2.11847 0
M  V30 1256 N 116.77 1.45427 -0.607355 0
M  V30 1257 C 118.016 2.03097 -0.111035 0
M  V30 1258 C 118.371 1.46735 1.24445 0
M  V30 1259 O 117.664 0.632478 1.8086 0
M  V30 1260 C 117.858 3.57398 -0.0129263 0
M  V30 1261 C 117.687 4.28726 -1.35735 0
M  V30 1262 C 116.457 4.66659 -1.93798 0
M  V30 1263 C 118.655 4.60699 -2.28607 0
M  V30 1264 N 116.637 5.22845 -3.21723 0
M  V30 1265 C 118.008 5.17716 -3.41131 0
M  V30 1266 C 120.063 4.42638 -2.27982 0
M  V30 1267 C 118.766 5.58576 -4.53194 0
M  V30 1268 C 120.792 4.84531 -3.39093 0
M  V30 1269 C 120.154 5.4164 -4.50339 0
M  V30 1270 H 116.253 0.777476 -0.083994 0
M  V30 1271 H 118.837 1.77249 -0.805655 0
M  V30 1272 H 117.008 3.82907 0.650914 0
M  V30 1273 H 118.74 4.01722 0.490033 0
M  V30 1274 H 115.495 4.50207 -1.47007 0
M  V30 1275 H 115.919 5.55438 -3.87063 0
M  V30 1276 H 120.561 3.97798 -1.43235 0
M  V30 1277 H 118.279 6.02382 -5.38667 0
M  V30 1278 H 121.865 4.72289 -3.39757 0
M  V30 1279 H 120.745 5.73461 -5.34895 0
M  V30 1280 N 118.248 0.346503 1.53744 0
M  V30 1281 C 119.525 -0.304532 1.93215 0
M  V30 1282 C 119.905 -1.67993 1.27834 0
M  V30 1283 O 119.253 -2.24411 0.430352 0
M  V30 1284 C 119.463 -0.373852 3.46992 0
M  V30 1285 C 120.811 -0.62329 4.2 0
M  V30 1286 O 121.835 -0.455847 3.53271 0
M  V30 1287 O 120.694 -0.947879 5.38217 0
M  V30 1288 H 117.788 -0.178318 0.807547 0
M  V30 1289 H 120.334 0.397895 1.64969 0
M  V30 1290 H 119.106 0.591224 3.86808 0
M  V30 1291 H 118.729 -1.12294 3.81413 0
M  V30 1292 N 119.726 -1.57421 0.075193 0
M  V30 1293 C 120.676 -2.09441 -0.901025 0
M  V30 1294 C 121.66 -1.00486 -1.25663 0
M  V30 1295 O 122.852 -1.2679 -1.23504 0
M  V30 1296 C 119.981 -2.66233 -2.16737 0
M  V30 1297 C 119.067 -3.82198 -1.83808 0
M  V30 1298 N 119.458 -4.91028 -1.21345 0
M  V30 1299 C 117.756 -3.91558 -2.13538 0
M  V30 1300 C 118.457 -5.71852 -1.06585 0
M  V30 1301 N 117.433 -5.20233 -1.57667 0
M  V30 1302 H 121.235 -2.90972 -0.413815 0
M  V30 1303 H 118.749 -1.6189 -0.128601 0
M  V30 1304 H 120.746 -3.01819 -2.87595 0
M  V30 1305 H 119.406 -1.8615 -2.66042 0
M  V30 1306 H 120.417 -5.10323 -0.88268 0
M  V30 1307 H 117.094 -3.22454 -2.65197 0
M  V30 1308 H 118.484 -6.69401 -0.578933 0
M  V30 1309 N 121.204 0.198386 -1.56346 0
M  V30 1310 C 122.444 0.92609 -1.82217 0
M  V30 1311 C 122.808 1.80584 -0.652195 0
M  V30 1312 O 124.009 2.56907 -0.790716 0
M  V30 1313 C 122.28 1.72354 -3.13096 0
M  V30 1314 S 123.839 2.50371 -3.6036 0
M  V30 1315 H 120.657 0.310677 -0.639532 0
M  V30 1316 H 123.259 0.189755 -1.94577 0
M  V30 1317 H 121.963 1.0678 -3.96265 0
M  V30 1318 H 121.494 2.50175 -3.03605 0
M  V30 1319 H 123.509 3.74488 -3.25535 0
M  V30 1320 N 122.682 1.50554 0.465978 0
M  V30 1321 C 123.93 1.61479 1.21528 0
M  V30 1322 C 124.251 0.319596 1.92363 0
M  V30 1323 O 123.521 -0.663194 1.84333 0
M  V30 1324 H 122.101 0.595055 0.451573 0
M  V30 1325 H 124.763 1.87355 0.53704 0
M  V30 1326 H 123.859 2.42846 1.96042 0
M  V30 1327 N 124.16 -0.719506 1.40217 0
M  V30 1328 C 125.107 -1.83359 1.40172 0
M  V30 1329 C 126.077 -1.64065 0.259206 0
M  V30 1330 O 127.262 -1.85254 0.456677 0
M  V30 1331 C 124.402 -3.2103 1.26624 0
M  V30 1332 C 123.515 -3.51923 2.50548 0
M  V30 1333 C 122.65 -4.79079 2.29471 0
M  V30 1334 C 121.689 -5.02863 3.48992 0
M  V30 1335 N 120.826 -6.2123 3.27135 0
M  V30 1336 H 125.666 -1.82733 2.35399 0
M  V30 1337 H 123.203 -0.892688 1.16917 0
M  V30 1338 H 125.161 -4.00524 1.16776 0
M  V30 1339 H 123.791 -3.20895 0.350176 0
M  V30 1340 H 122.843 -2.67014 2.70939 0
M  V30 1341 H 124.155 -3.6541 3.39525 0
M  V30 1342 H 123.309 -5.66582 2.16955 0
M  V30 1343 H 122.048 -4.67794 1.37913 0
M  V30 1344 H 121.053 -4.13816 3.6199 0
M  V30 1345 H 122.278 -5.16023 4.41472 0
M  V30 1346 H 120.224 -6.11204 2.38256 0
M  V30 1347 H 120.141 -6.35375 4.09675 0
M  V30 1348 H 121.409 -7.11532 3.18344 0
M  V30 1349 N 125.638 -1.25649 -0.95132 0
M  V30 1350 C 126.571 -1.00644 -2.04807 0
M  V30 1351 C 127.549 0.0654271 -1.62468 0
M  V30 1352 O 128.733 -0.074911 -1.88351 0
M  V30 1353 C 125.86 -0.522052 -3.34653 0
M  V30 1354 C 124.906 -1.58495 -3.95957 0
M  V30 1355 S 125.739 -3.17108 -4.31512 0
M  V30 1356 C 126.895 -2.70412 -5.64471 0
M  V30 1357 H 127.128 -1.93508 -2.25703 0
M  V30 1358 H 124.661 -1.09216 -1.09139 0
M  V30 1359 H 126.619 -0.24923 -4.09743 0
M  V30 1360 H 125.28 0.386146 -3.11717 0
M  V30 1361 H 124.473 -1.1968 -4.89584 0
M  V30 1362 H 124.075 -1.80862 -3.2736 0
M  V30 1363 H 126.367 -2.14245 -6.42733 0
M  V30 1364 H 127.31 -3.62693 -6.08161 0
M  V30 1365 H 127.718 -2.10302 -5.23864 0
M  V30 1366 N 127.117 1.15442 -1.07289 0
M  V30 1367 C 128.027 2.23786 -0.704057 0
M  V30 1368 C 129.043 1.7166 0.284413 0
M  V30 1369 O 130.219 2.00972 0.131205 0
M  V30 1370 C 127.284 3.46535 -0.106792 0
M  V30 1371 C 126.345 4.13654 -1.14842 0
M  V30 1372 C 125.578 5.30544 -0.57956 0
M  V30 1373 O 125.801 5.67187 0.604585 0
M  V30 1374 O 124.735 5.87154 -1.32414 0
M  V30 1375 H 128.561 2.57664 -1.60757 0
M  V30 1376 H 126.146 1.23152 -0.845803 0
M  V30 1377 H 128.028 4.20804 0.224048 0
M  V30 1378 H 126.703 3.14407 0.770049 0
M  V30 1379 H 125.61 3.4131 -1.5316 0
M  V30 1380 H 126.943 4.49861 -1.99714 0
M  V30 1381 N 128.595 0.856903 1.32268 0
M  V30 1382 C 130.006 0.515711 1.79436 0
M  V30 1383 C 130.357 -0.966586 1.70738 0
M  V30 1384 O 129.482 -1.75409 1.26731 0
M  V30 1385 C 130.077 0.929335 3.25805 0
M  V30 1386 C 128.636 0.640006 3.70919 0
M  V30 1387 C 127.783 1.12784 2.53328 0
M  V30 1388 H 130.734 1.04389 1.19535 0
M  V30 1389 H 130.755 0.246633 3.797 0
M  V30 1390 H 130.267 2.00821 3.32103 0
M  V30 1391 H 128.368 -0.428051 3.70133 0
M  V30 1392 H 128.481 1.20788 4.63624 0
M  V30 1393 H 126.845 0.548033 2.48734 0
M  V30 1394 H 127.628 2.21387 2.62379 0
M  V30 1395 N 130.073 -1.45103 0.615059 0
M  V30 1396 C 131.036 -2.29025 -0.0895485 0
M  V30 1397 C 132.036 -1.40174 -0.787906 0
M  V30 1398 O 133.226 -1.62217 -0.634933 0
M  V30 1399 C 130.358 -3.21376 -1.13711 0
M  V30 1400 H 131.551 -2.92807 0.648382 0
M  V30 1401 H 129.104 -1.51749 0.374444 0
M  V30 1402 H 129.839 -2.6241 -1.90556 0
M  V30 1403 H 129.624 -3.86834 -0.640475 0
M  V30 1404 H 131.114 -3.84459 -1.63036 0
M  V30 1405 N 131.551 -0.354651 -1.53558 0
M  V30 1406 C 132.791 0.238651 -2.03002 0
M  V30 1407 C 133.155 1.46878 -1.23656 0
M  V30 1408 O 134.356 2.13699 -1.63053 0
M  V30 1409 C 132.627 0.534175 -3.53386 0
M  V30 1410 S 134.186 1.10271 -4.24719 0
M  V30 1411 H 131.004 0.0702908 -0.707517 0
M  V30 1412 H 133.606 -0.494987 -1.8913 0
M  V30 1413 H 132.31 -0.368765 -4.0874 0
M  V30 1414 H 131.841 1.29718 -3.71398 0
M  V30 1415 H 133.856 2.38772 -4.34974 0
M  V30 1416 N 133.029 1.57378 -0.0835403 0
M  V30 1417 C 133.976 2.13384 0.879539 0
M  V30 1418 C 134.946 1.04936 1.28754 0
M  V30 1419 O 136.131 1.32662 1.37133 0
M  V30 1420 C 133.271 2.70932 2.13752 0
M  V30 1421 C 132.384 3.93575 1.7811 0
M  V30 1422 C 131.519 4.39326 2.98607 0
M  V30 1423 C 130.558 5.54587 2.59037 0
M  V30 1424 N 129.695 5.95243 3.72331 0
M  V30 1425 H 134.535 2.9537 0.395076 0
M  V30 1426 H 132.072 1.45953 0.183349 0
M  V30 1427 H 134.03 3.02411 2.87408 0
M  V30 1428 H 132.66 1.91693 2.59718 0
M  V30 1429 H 131.712 3.68483 0.94469 0
M  V30 1430 H 133.024 4.77258 1.45005 0
M  V30 1431 H 132.178 4.72528 3.80529 0
M  V30 1432 H 130.917 3.5452 3.34913 0
M  V30 1433 H 129.922 5.21024 1.75539 0
M  V30 1434 H 131.147 6.41133 2.23887 0
M  V30 1435 H 129.093 5.13385 4.08378 0
M  V30 1436 H 129.01 6.73694 3.43034 0
M  V30 1437 H 130.278 6.33072 4.54797 0
M  V30 1438 N 134.507 -0.190092 1.56449 0
M  V30 1439 C 135.923 -0.54113 1.50146 0
M  V30 1440 C 136.123 -1.85603 0.784465 0
M  V30 1441 O 135.179 -2.5024 0.337051 0
M  V30 1442 C 136.492 -0.591241 2.9483 0
M  V30 1443 C 138.04 -0.679732 3.0553 0
M  V30 1444 C 138.515 -0.760908 4.51635 0
M  V30 1445 N 140.006 -0.824302 4.55806 0
M  V30 1446 C 140.741 -0.907365 5.66175 0
M  V30 1447 N 140.237 -0.952422 6.86222 0
M  V30 1448 N 142.03 -0.94494 5.541 0
M  V30 1449 H 134.181 0.67235 2.01478 0
M  V30 1450 H 136.444 0.240127 0.917084 0
M  V30 1451 H 136.15 0.305905 3.50367 0
M  V30 1452 H 136.024 -1.44422 3.48457 0
M  V30 1453 H 138.411 -1.56731 2.50039 0
M  V30 1454 H 138.492 0.199549 2.5502 0
M  V30 1455 H 138.136 0.122336 5.07753 0
M  V30 1456 H 138.066 -1.65606 4.99882 0
M  V30 1457 H 140.557 -0.798526 3.69367 0
M  V30 1458 H 140.87 -1.01645 7.66086 0
M  V30 1459 H 139.215 -0.921014 6.8887 0
M  V30 1460 H 142.406 -0.906612 4.59236 0
M  V30 1461 H 142.579 -1.00622 6.4014 0
M  V30 1462 N 135.985 -1.50799 -0.457987 0
M  V30 1463 C 136.935 -1.67003 -1.55222 0
M  V30 1464 C 137.919 -0.52434 -1.52117 0
M  V30 1465 O 139.111 -0.779345 -1.58919 0
M  V30 1466 C 136.24 -1.77956 -2.93576 0
M  V30 1467 C 135.326 -2.98243 -3.01516 0
M  V30 1468 N 135.717 -4.21732 -2.79241 0
M  V30 1469 C 134.015 -2.97072 -3.32662 0
M  V30 1470 C 134.716 -5.02817 -2.92489 0
M  V30 1471 N 133.692 -4.37038 -3.23262 0
M  V30 1472 H 137.494 -2.60163 -1.36721 0
M  V30 1473 H 135.008 -1.48163 -0.664952 0
M  V30 1474 H 137.005 -1.87671 -3.72271 0
M  V30 1475 H 135.665 -0.859634 -3.13114 0
M  V30 1476 H 136.676 -4.51016 -2.54567 0
M  V30 1477 H 133.353 -2.14631 -3.58106 0
M  V30 1478 H 134.743 -6.11054 -2.79396 0
M  V30 1479 N 137.463 0.71206 -1.40597 0
M  V30 1480 C 138.71 1.47197 -1.39065 0
M  V30 1481 C 139.038 1.94499 0.00583891 0
M  V30 1482 O 138.293 1.68752 0.99102 0
M  V30 1483 C 138.592 2.71039 -2.32965 0
M  V30 1484 C 138.258 2.42484 -3.80148 0
M  V30 1485 C 136.92 2.34406 -4.20247 0
M  V30 1486 C 139.272 2.18598 -4.73143 0
M  V30 1487 C 136.6 2.00516 -5.51371 0
M  V30 1488 C 138.952 1.8622 -6.0457 0
M  V30 1489 C 137.616 1.76626 -6.43708 0
M  V30 1490 H 136.886 0.538634 -0.508876 0
M  V30 1491 H 139.533 0.815325 -1.73276 0
M  V30 1492 H 137.838 3.41558 -1.91951 0
M  V30 1493 H 139.535 3.29138 -2.29061 0
M  V30 1494 H 136.125 2.49659 -3.4838 0
M  V30 1495 H 140.309 2.23793 -4.42979 0
M  V30 1496 H 135.565 1.91628 -5.80593 0
M  V30 1497 H 139.739 1.66752 -6.76141 0
M  V30 1498 H 137.366 1.50133 -7.45228 0
M  V30 1499 N 138.941 1.26152 0.944643 0
M  V30 1500 C 140.19 1.10883 1.68487 0
M  V30 1501 C 140.503 -0.348153 1.92477 0
M  V30 1502 O 141.709 -0.621459 2.64292 0
M  V30 1503 C 140.165 1.93624 3.03377 0
M  V30 1504 C 139.773 3.43875 2.87148 0
M  V30 1505 C 141.517 1.86954 3.81115 0
M  V30 1506 C 139.424 4.18875 4.1749 0
M  V30 1507 H 138.354 0.41135 0.631907 0
M  V30 1508 H 141.005 1.50433 1.05082 0
M  V30 1509 H 139.387 1.46904 3.67743 0
M  V30 1510 H 140.561 3.98338 2.31653 0
M  V30 1511 H 138.876 3.51744 2.22856 0
M  V30 1512 H 141.473 2.40275 4.77673 0
M  V30 1513 H 141.816 0.839518 4.07747 0
M  V30 1514 H 142.349 2.31477 3.23517 0
M  V30 1515 H 139.088 5.22332 3.96043 0
M  V30 1516 H 138.608 3.69193 4.72712 0
M  V30 1517 H 140.287 4.27134 4.85968 0
M  V30 1518 N 140.419 -1.14872 1.07899 0
M  V30 1519 C 141.351 -2.19425 0.662231 0
M  V30 1520 C 142.364 -1.60231 -0.288079 0
M  V30 1521 O 143.553 -1.78336 -0.076534 0
M  V30 1522 C 140.653 -3.38867 -0.0470695 0
M  V30 1523 C 139.826 -4.27597 0.920831 0
M  V30 1524 C 138.885 -5.25616 0.247805 0
M  V30 1525 O 137.911 -5.62189 0.890599 0
M  V30 1526 N 139.113 -5.71746 -1.00435 0
M  V30 1527 H 141.878 -2.55797 1.56166 0
M  V30 1528 H 139.439 -1.30042 0.964404 0
M  V30 1529 H 141.431 -4.01497 -0.50813 0
M  V30 1530 H 140.001 -3.00864 -0.848523 0
M  V30 1531 H 139.221 -3.61982 1.56087 0
M  V30 1532 H 140.509 -4.83748 1.57688 0
M  V30 1533 H 139.907 -5.44153 -1.54642 0
M  V30 1534 H 138.464 -6.36389 -1.40899 0
M  V30 1535 N 141.898 -0.863906 -1.31812 0
M  V30 1536 C 143.175 -0.39275 -1.91616 0
M  V30 1537 C 143.555 1.12461 -1.7865 0
M  V30 1538 O 142.903 1.95045 -1.19037 0
M  V30 1539 C 143.113 -0.867385 -3.38049 0
M  V30 1540 C 144.461 -0.889966 -4.15168 0
M  V30 1541 O 145.485 -0.812635 -3.46806 0
M  V30 1542 O 144.344 -1.00079 -5.37258 0
M  V30 1543 H 141.438 -0.116358 -0.818773 0
M  V30 1544 H 143.984 -0.951418 -1.40521 0
M  V30 1545 H 142.756 -1.91081 -3.41473 0
M  V30 1546 H 142.379 -0.286687 -3.96565 0
M  V30 1547 N 143.376 1.44774 -0.622745 0
M  V30 1548 C 144.604 2.06487 -0.130722 0
M  V30 1549 C 145.019 1.46476 1.19123 0
M  V30 1550 O 144.376 0.584502 1.72887 0
M  V30 1551 C 144.427 3.615 -0.000807207 0
M  V30 1552 O 144.148 4.19274 -1.27048 0
M  V30 1553 C 145.649 4.40229 0.520898 0
M  V30 1554 H 142.869 0.666704 -0.0758106 0
M  V30 1555 H 145.413 1.85779 -0.854774 0
M  V30 1556 H 143.568 3.81498 0.673643 0
M  V30 1557 H 143.982 5.12622 -1.1099 0
M  V30 1558 H 145.456 5.49144 0.560838 0
M  V30 1559 H 145.933 4.1108 1.54627 0
M  V30 1560 H 146.539 4.25131 -0.120018 0
M  V30 1561 N 144.854 0.36279 1.53368 0
M  V30 1562 C 146.094 -0.227882 2.03126 0
M  V30 1563 C 146.458 -1.4622 1.24434 0
M  V30 1564 O 147.659 -2.12831 1.64184 0
M  V30 1565 C 145.93 -0.515427 3.53664 0
M  V30 1566 S 147.489 -1.08017 4.25297 0
M  V30 1567 H 144.307 -0.0665377 0.70788 0
M  V30 1568 H 146.909 0.50501 1.88865 0
M  V30 1569 H 145.613 0.390436 4.08539 0
M  V30 1570 H 145.144 -1.27747 3.72081 0
M  V30 1571 H 147.159 -2.36462 4.36234 0
M  V30 1572 N 146.332 -1.57332 0.0918853 0
M  V30 1573 C 147.262 -2.16872 -0.865371 0
M  V30 1574 C 148.243 -1.10118 -1.29646 0
M  V30 1575 O 149.428 -1.38242 -1.36392 0
M  V30 1576 C 146.558 -2.74649 -2.12569 0
M  V30 1577 C 145.512 -3.86747 -1.83333 0
M  V30 1578 C 144.838 -4.31212 -3.16166 0
M  V30 1579 C 146.138 -5.10089 -1.1228 0
M  V30 1580 H 147.832 -2.97114 -0.369307 0
M  V30 1581 H 145.378 -1.42918 -0.176194 0
M  V30 1582 H 147.331 -3.14952 -2.7997 0
M  V30 1583 H 146.055 -1.91657 -2.64452 0
M  V30 1584 H 144.714 -3.46978 -1.18331 0
M  V30 1585 H 144.362 -3.45115 -3.6593 0
M  V30 1586 H 144.062 -5.06788 -2.97388 0
M  V30 1587 H 145.586 -4.74146 -3.84731 0
M  V30 1588 H 147 -5.47582 -1.69785 0
M  V30 1589 H 145.397 -5.91073 -1.03693 0
M  V30 1590 H 146.467 -4.84786 -0.105041 0
M  V30 1591 N 147.81 0.181792 -1.56548 0
M  V30 1592 C 149.04 0.914618 -1.85252 0
M  V30 1593 C 149.448 1.76791 -0.673914 0
M  V30 1594 O 148.791 1.80009 0.366416 0
M  V30 1595 C 148.853 1.85019 -3.08234 0
M  V30 1596 C 148.517 1.17754 -4.41569 0
M  V30 1597 C 149.514 0.548035 -5.17003 0
M  V30 1598 C 147.199 1.17742 -4.88305 0
M  V30 1599 C 149.193 -0.0726128 -6.37359 0
M  V30 1600 C 146.88 0.552946 -6.08593 0
M  V30 1601 C 147.878 -0.070978 -6.82963 0
M  V30 1602 O 147.566 -0.685635 -8.00971 0
M  V30 1603 H 147.298 0.271695 -0.618998 0
M  V30 1604 H 149.852 0.189944 -2.0452 0
M  V30 1605 H 148.082 2.61491 -2.84885 0
M  V30 1606 H 149.771 2.45195 -3.23472 0
M  V30 1607 H 150.537 0.540174 -4.81982 0
M  V30 1608 H 146.416 1.65246 -4.30366 0
M  V30 1609 H 149.96 -0.560213 -6.95347 0
M  V30 1610 H 145.857 0.558354 -6.43081 0
M  V30 1611 H 146.625 -0.58385 -8.16415 0
M  V30 1612 N 149.288 1.51039 0.449983 0
M  V30 1613 C 150.198 1.74261 1.57067 0
M  V30 1614 C 151.214 0.626363 1.62335 0
M  V30 1615 O 152.39 0.907162 1.79812 0
M  V30 1616 C 149.455 1.85114 2.93144 0
M  V30 1617 C 148.516 3.0893 2.98095 0
M  V30 1618 C 147.749 3.19256 4.27681 0
M  V30 1619 O 147.972 2.35835 5.19363 0
M  V30 1620 O 146.906 4.12144 4.38658 0
M  V30 1621 H 150.732 2.69303 1.40391 0
M  V30 1622 H 148.317 1.35389 0.631688 0
M  V30 1623 H 150.199 1.94311 3.73926 0
M  V30 1624 H 148.874 0.932588 3.09975 0
M  V30 1625 H 147.781 3.0522 2.16314 0
M  V30 1626 H 149.114 4.00433 2.86206 0
M  V30 1627 N 150.766 -0.704594 1.40972 0
M  V30 1628 C 152.006 -1.47691 1.41304 0
M  V30 1629 C 152.37 -1.91992 0.0178582 0
M  V30 1630 O 153.571 -2.68599 -0.103996 0
M  V30 1631 C 151.842 -2.66254 2.38419 0
M  V30 1632 S 153.401 -3.55516 2.57204 0
M  V30 1633 H 150.219 -0.504808 0.500689 0
M  V30 1634 H 152.821 -0.822962 1.77335 0
M  V30 1635 H 151.525 -2.31897 3.38603 0
M  V30 1636 H 151.056 -3.3655 2.03711 0
M  V30 1637 H 153.071 -4.61115 1.83268 0
M  V30 1638 N 152.244 -1.26651 -0.937939 0
M  V30 1639 C 153.469 -1.15279 -1.72411 0
M  V30 1640 C 153.894 0.287866 -1.85884 0
M  V30 1641 O 153.252 1.20855 -1.35143 0
M  V30 1642 C 153.3 -1.83028 -3.10698 0
M  V30 1643 O 152.404 -1.12128 -3.96864 0
M  V30 1644 H 151.745 -0.401504 -0.528858 0
M  V30 1645 H 154.275 -1.67531 -1.1745 0
M  V30 1646 H 154.285 -1.89981 -3.6107 0
M  V30 1647 H 152.96 -2.87833 -3.00208 0
M  V30 1648 H 151.537 -1.13173 -3.55312 0
M  V30 1649 N 153.722 1.14298 -1.08507 0
M  V30 1650 C 155.133 1.66926 -0.836227 0
M  V30 1651 C 155.484 1.85576 0.63686 0
M  V30 1652 O 154.609 1.56767 1.49175 0
M  V30 1653 C 155.204 3.03219 -1.51142 0
M  V30 1654 C 153.763 3.52876 -1.30979 0
M  V30 1655 C 152.91 2.2833 -1.57356 0
M  V30 1656 H 155.861 0.983491 -1.24552 0
M  V30 1657 H 155.882 3.68726 -0.939211 0
M  V30 1658 H 155.394 2.89612 -2.58353 0
M  V30 1659 H 153.495 3.71703 -0.258429 0
M  V30 1660 H 153.608 4.33586 -2.03814 0
M  V30 1661 H 151.972 2.34454 -0.995164 0
M  V30 1662 H 152.755 2.17298 -2.65775 0
M  V30 1663 N 155.201 0.870884 1.31352 0
M  V30 1664 C 156.149 0.316445 2.30437 0
M  V30 1665 C 157.143 -0.568965 1.59559 0
M  V30 1666 O 158.349 -0.454964 1.74155 0
M  V30 1667 H 154.724 0.0836521 0.747333 0
M  V30 1668 H 156.695 1.16606 2.74673 0
M  V30 1669 C 155.444 -0.46635 3.44558 0
M  V30 1670 H 154.767 0.205687 3.99271 0
M  V30 1671 H 156.207 -0.819614 4.16003 0
M  V30 1672 C 154.666 -1.65797 2.9328 0
M  V30 1673 O 155.196 -2.75728 2.92125 0
M  V30 1674 N 153.402 -1.49041 2.4947 0
M  V30 1675 H 152.949 -0.59612 2.50608 0
M  V30 1676 H 152.907 -2.28911 2.15516 0
M  V30 1677 N 156.679 -1.44442 0.630414 0
M  V30 1678 C 157.609 -2.33418 -0.0618083 0
M  V30 1679 C 158.59 -1.48165 -0.835541 0
M  V30 1680 O 159.775 -1.76886 -0.801564 0
M  V30 1681 C 156.905 -3.31222 -1.04449 0
M  V30 1682 C 155.859 -4.26288 -0.382436 0
M  V30 1683 C 155.185 -5.13954 -1.47497 0
M  V30 1684 C 156.485 -5.1744 0.710865 0
M  V30 1685 H 158.179 -2.91548 0.681184 0
M  V30 1686 H 155.725 -1.40191 0.329026 0
M  V30 1687 H 157.678 -3.92351 -1.53748 0
M  V30 1688 H 156.402 -2.71299 -1.81836 0
M  V30 1689 H 155.061 -3.6649 0.0899054 0
M  V30 1690 H 154.709 -4.50385 -2.2397 0
M  V30 1691 H 154.409 -5.7837 -1.03737 0
M  V30 1692 H 155.933 -5.77955 -1.96979 0
M  V30 1693 H 157.347 -5.72509 0.300996 0
M  V30 1694 H 155.744 -5.90455 1.07156 0
M  V30 1695 H 156.814 -4.58496 1.57829 0
M  V30 1696 N 158.157 -0.370918 -1.53173 0
M  V30 1697 C 159.405 0.216673 -2.00935 0
M  V30 1698 C 159.726 1.48845 -1.25977 0
M  V30 1699 O 158.996 1.92286 -0.374551 0
M  V30 1700 H 157.576 0.0830565 -0.742368 0
M  V30 1701 H 160.238 -0.49838 -1.8842 0
M  V30 1702 H 159.334 0.439893 -3.08984 0
M  V30 1703 N 159.635 1.57281 -0.100228 0
M  V30 1704 C 161.046 1.81725 0.428107 0
M  V30 1705 C 161.397 1.01619 1.67833 0
M  V30 1706 O 160.522 0.247098 2.14985 0
M  V30 1707 C 161.117 3.29617 0.78347 0
M  V30 1708 C 159.676 3.54808 1.25653 0
M  V30 1709 C 158.823 2.76118 0.255752 0
M  V30 1710 H 161.774 1.55324 -0.325608 0
M  V30 1711 H 161.795 3.4322 1.64256 0
M  V30 1712 H 161.307 3.87893 -0.12665 0
M  V30 1713 H 159.408 3.01868 2.18418 0
M  V30 1714 H 159.521 4.63443 1.21482 0
M  V30 1715 H 157.885 2.43745 0.738956 0
M  V30 1716 H 158.668 3.37145 -0.647136 0
M  V30 1717 N 161.113 -0.173488 1.56642 0
M  V30 1718 C 162.359 -0.887108 1.83035 0
M  V30 1719 C 162.714 -1.79965 0.680461 0
M  V30 1720 O 162.007 -1.88854 -0.323225 0
M  V30 1721 C 162.201 -1.72069 3.13252 0
M  V30 1722 C 162.03 -0.89035 4.40798 0
M  V30 1723 C 160.8 -0.566282 5.02117 0
M  V30 1724 C 162.998 -0.232921 5.13772 0
M  V30 1725 N 160.98 0.280427 6.13259 0
M  V30 1726 C 162.351 0.475046 6.18177 0
M  V30 1727 C 164.406 -0.150863 4.97671 0
M  V30 1728 C 163.109 1.25729 7.08227 0
M  V30 1729 C 165.135 0.618039 5.88162 0
M  V30 1730 C 164.497 1.31438 6.92029 0
M  V30 1731 H 160.596 -0.303303 0.720785 0
M  V30 1732 H 163.18 -0.154244 1.94088 0
M  V30 1733 H 161.351 -2.42499 3.03395 0
M  V30 1734 H 163.083 -2.37545 3.2765 0
M  V30 1735 H 159.838 -0.895852 4.6505 0
M  V30 1736 H 160.262 0.694027 6.73433 0
M  V30 1737 H 164.904 -0.674868 4.17379 0
M  V30 1738 H 162.622 1.79265 7.87966 0
M  V30 1739 H 166.208 0.683173 5.77775 0
M  V30 1740 H 165.088 1.89981 7.6084 0
M  V30 1741 N 162.591 -1.51276 -0.441967 0
M  V30 1742 C 163.84 -1.6295 -1.18871 0
M  V30 1743 C 164.153 -0.349312 -1.92456 0
M  V30 1744 O 165.359 -0.345355 -2.69295 0
M  V30 1745 C 163.815 -2.87759 -2.16155 0
M  V30 1746 C 163.423 -4.22764 -1.48239 0
M  V30 1747 C 165.167 -3.08788 -2.91291 0
M  V30 1748 C 163.074 -5.38728 -2.4398 0
M  V30 1749 H 162.004 -0.606913 -0.447406 0
M  V30 1750 H 164.655 -1.77739 -0.456205 0
M  V30 1751 H 163.037 -2.66593 -2.92821 0
M  V30 1752 H 164.211 -4.54293 -0.771635 0
M  V30 1753 H 162.526 -4.07575 -0.852741 0
M  V30 1754 H 165.123 -3.92599 -3.63002 0
M  V30 1755 H 165.466 -2.21679 -3.5237 0
M  V30 1756 H 165.999 -3.30272 -2.21733 0
M  V30 1757 H 162.738 -6.28082 -1.87598 0
M  V30 1758 H 162.258 -5.1158 -3.13123 0
M  V30 1759 H 163.937 -5.70489 -3.05207 0
M  V30 1760 N 164.069 0.697108 -1.41344 0
M  V30 1761 C 165.001 1.8224 -1.39001 0
M  V30 1762 C 166.014 1.60152 -0.292428 0
M  V30 1763 O 167.203 1.69684 -0.554048 0
M  V30 1764 C 164.303 3.18976 -1.14489 0
M  V30 1765 C 163.476 3.68105 -2.36258 0
M  V30 1766 C 162.535 4.83506 -2.07625 0
M  V30 1767 O 161.561 4.95201 -2.8065 0
M  V30 1768 N 162.763 5.70637 -1.06555 0
M  V30 1769 H 165.528 1.84742 -2.35988 0
M  V30 1770 H 163.089 0.87937 -1.35936 0
M  V30 1771 H 165.081 3.93801 -0.932885 0
M  V30 1772 H 163.651 3.11508 -0.261043 0
M  V30 1773 H 162.871 2.84204 -2.7317 0
M  V30 1774 H 164.159 3.97667 -3.17393 0
M  V30 1775 H 163.557 5.63817 -0.461125 0
M  V30 1776 H 162.114 6.45368 -0.913444 0
M  V30 1777 N 165.547 1.27147 0.931209 0
M  V30 1778 C 166.479 1.05364 2.03546 0
M  V30 1779 C 167.492 0.0108438 1.62796 0
M  V30 1780 O 168.681 0.25202 1.76712 0
M  V30 1781 C 165.781 0.575566 3.33977 0
M  V30 1782 C 164.954 1.68985 4.03439 0
M  V30 1783 C 164.013 1.20813 5.12143 0
M  V30 1784 O 163.039 1.90712 5.363 0
M  V30 1785 N 164.241 0.0618851 5.80467 0
M  V30 1786 H 167.006 2.00454 2.22796 0
M  V30 1787 H 164.567 1.18666 1.10136 0
M  V30 1788 H 166.559 0.237264 4.04004 0
M  V30 1789 H 165.129 -0.282016 3.11325 0
M  V30 1790 H 164.349 2.19861 3.27192 0
M  V30 1791 H 165.637 2.4378 4.46597 0
M  V30 1792 H 165.035 -0.521621 5.6329 0
M  V30 1793 H 163.592 -0.217264 6.51438 0
M  V30 1794 N 167.025 -1.13721 1.09112 0
M  V30 1795 C 168.271 -1.85198 0.826414 0
M  V30 1796 C 168.604 -1.83129 -0.646319 0
M  V30 1797 O 167.879 -1.2671 -1.47563 0
M  V30 1798 C 168.162 -3.33507 1.35812 0
M  V30 1799 C 168.015 -3.44108 2.89672 0
M  V30 1800 C 169.334 -4.28838 0.989256 0
M  V30 1801 H 166.453 -0.67243 0.301675 0
M  V30 1802 H 169.095 -1.33499 1.35197 0
M  V30 1803 H 167.245 -3.77666 0.911082 0
M  V30 1804 H 168.917 -3.08684 3.428 0
M  V30 1805 H 167.16 -2.85087 3.26967 0
M  V30 1806 H 167.831 -4.48388 3.21951 0
M  V30 1807 H 170.307 -3.92734 1.37475 0
M  V30 1808 H 169.183 -5.31051 1.38838 0
M  V30 1809 H 169.444 -4.4198 -0.102924 0
M  V30 1810 N 168.503 -0.877838 -1.30888 0
M  V30 1811 C 169.451 -0.328662 -2.30266 0
M  V30 1812 C 170.445 0.560496 -1.59859 0
M  V30 1813 O 171.651 0.445722 -1.74394 0
M  V30 1814 H 168.026 -0.0876142 -0.746879 0
M  V30 1815 H 169.997 -1.18061 -2.74051 0
M  V30 1816 C 168.746 0.448071 -3.44801 0
M  V30 1817 H 168.069 -0.226859 -3.99156 0
M  V30 1818 H 169.509 0.797541 -4.16432 0
M  V30 1819 C 167.968 1.64239 -2.94155 0
M  V30 1820 O 168.498 2.74175 -2.93583 0
M  V30 1821 N 166.704 1.47716 -2.50256 0
M  V30 1822 H 166.251 0.582821 -2.5092 0
M  V30 1823 H 166.209 2.27765 -2.16727 0
M  V30 1824 N 169.982 1.44106 -0.638065 0
M  V30 1825 C 170.914 2.28976 0.101205 0
M  V30 1826 C 171.927 1.4167 0.802088 0
M  V30 1827 O 173.116 1.65755 0.662375 0
M  V30 1828 C 170.216 3.18217 1.16581 0
M  V30 1829 C 169.389 4.33978 0.546066 0
M  V30 1830 C 168.448 5.04202 1.50554 0
M  V30 1831 O 167.474 5.59986 1.01999 0
M  V30 1832 N 168.676 5.06296 2.8398 0
M  V30 1833 H 171.441 2.93064 -0.627186 0
M  V30 1834 H 169.002 1.54629 -0.479731 0
M  V30 1835 H 170.994 3.62061 1.80815 0
M  V30 1836 H 169.564 2.55833 1.79634 0
M  V30 1837 H 168.784 3.93239 -0.275046 0
M  V30 1838 H 170.072 5.08675 0.112793 0
M  V30 1839 H 169.47 4.62319 3.26002 0
M  V30 1840 H 168.027 5.53907 3.43556 0
M  V30 1841 N 171.46 0.379036 1.52974 0
M  V30 1842 C 172.685 -0.209353 2.06341 0
M  V30 1843 C 173.11 -1.40583 1.24972 0
M  V30 1844 O 172.468 -1.79246 0.272155 0
M  V30 1845 C 172.516 -0.567786 3.56102 0
M  V30 1846 O 171.62 -1.66318 3.77375 0
M  V30 1847 H 170.961 -0.0272919 0.663439 0
M  V30 1848 H 173.491 0.543536 1.97248 0
M  V30 1849 H 173.501 -0.835003 3.99364 0
M  V30 1850 H 172.176 0.307013 4.14765 0
M  V30 1851 H 170.753 -1.39048 3.46006 0
M  V30 1852 N 172.938 -1.57226 0.108567 0
M  V30 1853 C 174.184 -1.95919 -0.546564 0
M  V30 1854 C 174.539 -0.990417 -1.6495 0
M  V30 1855 O 173.832 -0.0186593 -1.91591 0
M  V30 1856 C 174.026 -3.38911 -1.13463 0
M  V30 1857 C 173.855 -4.4961 -0.0901926 0
M  V30 1858 C 172.625 -5.04168 0.338008 0
M  V30 1859 C 174.823 -5.09693 0.686808 0
M  V30 1860 N 172.805 -5.98434 1.36931 0
M  V30 1861 C 174.176 -5.99804 1.56958 0
M  V30 1862 C 176.231 -4.92388 0.738846 0
M  V30 1863 C 174.934 -6.74463 2.49983 0
M  V30 1864 C 176.96 -5.67719 1.65676 0
M  V30 1865 C 176.322 -6.57507 2.52713 0
M  V30 1866 H 172.421 -0.763312 -0.169936 0
M  V30 1867 H 175.005 -1.93728 0.194264 0
M  V30 1868 H 173.176 -3.41769 -1.84522 0
M  V30 1869 H 174.908 -3.64752 -1.75322 0
M  V30 1870 H 171.663 -4.73571 -0.0523673 0
M  V30 1871 H 172.087 -6.5027 1.88356 0
M  V30 1872 H 176.729 -4.22724 0.080084 0
M  V30 1873 H 174.447 -7.4338 3.16878 0
M  V30 1874 H 178.033 -5.56338 1.70233 0
M  V30 1875 H 176.913 -7.14778 3.22586 0
M  V30 1876 N 174.416 0.165178 -1.56732 0
M  V30 1877 C 175.832 0.517174 -1.50988 0
M  V30 1878 C 176.032 1.84331 -0.813894 0
M  V30 1879 O 175.088 2.49672 -0.37682 0
M  V30 1880 C 176.401 0.544261 -2.95733 0
M  V30 1881 C 177.949 0.631039 -3.06573 0
M  V30 1882 C 178.424 0.68896 -4.52788 0
M  V30 1883 N 179.915 0.751683 -4.5706 0
M  V30 1884 C 180.65 0.817177 -5.67547 0
M  V30 1885 N 180.146 0.843129 -6.8765 0
M  V30 1886 N 181.939 0.856668 -5.55534 0
M  V30 1887 H 174.09 -0.704318 -2.00382 0
M  V30 1888 H 176.353 -0.254687 -0.913148 0
M  V30 1889 H 176.059 -0.361607 -3.49836 0
M  V30 1890 H 175.933 1.3886 -3.5071 0
M  V30 1891 H 178.32 1.52733 -2.52501 0
M  V30 1892 H 178.401 -0.240095 -2.54671 0
M  V30 1893 H 178.045 -0.2031 -5.07494 0
M  V30 1894 H 177.975 1.57633 -5.02454 0
M  V30 1895 H 180.466 0.739661 -3.70591 0
M  V30 1896 H 180.779 0.894448 -7.67606 0
M  V30 1897 H 179.124 0.811304 -6.90248 0
M  V30 1898 H 182.315 0.833437 -4.60621 0
M  V30 1899 H 182.488 0.904247 -6.4166 0
M  V30 1900 N 175.894 1.51508 0.433938 0
M  V30 1901 C 176.841 1.73068 1.52696 0
M  V30 1902 C 177.811 0.572441 1.55924 0
M  V30 1903 O 178.996 0.807253 1.72882 0
M  V30 1904 C 176.136 1.86474 2.90381 0
M  V30 1905 C 175.249 3.14037 2.96656 0
M  V30 1906 C 174.384 3.18019 4.25485 0
M  V30 1907 C 173.423 4.39882 4.2564 0
M  V30 1908 N 172.56 4.41394 5.45999 0
M  V30 1909 H 177.4 2.66366 1.33615 0
M  V30 1910 H 174.937 1.32008 0.649018 0
M  V30 1911 H 176.895 1.92229 3.70275 0
M  V30 1912 H 175.525 0.965809 3.08013 0
M  V30 1913 H 174.577 3.17575 2.09404 0
M  V30 1914 H 175.889 4.0394 2.92633 0
M  V30 1915 H 175.043 3.22708 5.13755 0
M  V30 1916 H 173.782 2.2601 4.3217 0
M  V30 1917 H 172.787 4.35366 3.35763 0
M  V30 1918 H 174.012 5.33159 4.20617 0
M  V30 1919 H 171.958 3.52258 5.53399 0
M  V30 1920 H 171.875 5.25111 5.4387 0
M  V30 1921 H 173.143 4.50281 6.36292 0
M  V30 1922 N 177.372 -0.689602 1.41712 0
M  V30 1923 C 178.282 -1.83314 1.46401 0
M  V30 1924 C 179.298 -1.7036 0.35405 0
M  V30 1925 O 180.474 -1.92171 0.602692 0
M  V30 1926 C 177.539 -3.19344 1.34982 0
M  V30 1927 C 176.6 -3.44363 2.56344 0
M  V30 1928 C 175.833 -4.73904 2.45461 0
M  V30 1929 O 176.056 -5.508 1.48241 0
M  V30 1930 O 174.99 -4.99839 3.35328 0
M  V30 1931 H 178.816 -1.82314 2.42889 0
M  V30 1932 H 176.401 -0.843438 1.23315 0
M  V30 1933 H 178.283 -4.00547 1.3092 0
M  V30 1934 H 176.958 -3.21014 0.41612 0
M  V30 1935 H 175.865 -2.63067 2.65982 0
M  V30 1936 H 177.198 -3.47512 3.48563 0
M  V30 1937 N 178.85 -1.27639 -0.924453 0
M  V30 1938 C 180.266 -1.05113 -1.20097 0
M  V30 1939 C 180.466 0.213262 -2.00368 0
M  V30 1940 O 179.522 0.91787 -2.35226 0
M  V30 1941 C 180.835 -2.29244 -1.94596 0
M  V30 1942 C 182.383 -2.34315 -2.07522 0
M  V30 1943 C 182.858 -3.58183 -2.85427 0
M  V30 1944 N 184.349 -3.5876 -2.92994 0
M  V30 1945 C 185.084 -4.51277 -3.53746 0
M  V30 1946 N 184.58 -5.54102 -4.15863 0
M  V30 1947 N 186.373 -4.38894 -3.51181 0
M  V30 1948 H 178.524 -2.08821 -0.388264 0
M  V30 1949 H 180.787 -0.918568 -0.234385 0
M  V30 1950 H 180.493 -3.21301 -1.43034 0
M  V30 1951 H 180.367 -2.34816 -2.95197 0
M  V30 1952 H 182.754 -1.42762 -2.58269 0
M  V30 1953 H 182.835 -2.32744 -1.06131 0
M  V30 1954 H 182.479 -4.50074 -2.35363 0
M  V30 1955 H 182.409 -3.57006 -3.8711 0
M  V30 1956 H 184.9 -2.84398 -2.4885 0
M  V30 1957 H 185.213 -6.20859 -4.60168 0
M  V30 1958 H 183.558 -5.57941 -4.144 0
M  V30 1959 H 186.749 -3.57772 -3.01856 0
M  V30 1960 H 186.922 -5.11186 -3.98237 0
M  V30 1961 N 180.328 1.1314 -1.09713 0
M  V30 1962 C 181.575 1.84484 -0.834987 0
M  V30 1963 C 181.903 1.83689 0.639418 0
M  V30 1964 O 181.158 1.2724 1.4869 0
M  V30 1965 C 181.457 3.32167 -1.3191 0
M  V30 1966 C 181.123 3.53139 -2.80363 0
M  V30 1967 C 179.785 3.58571 -3.20905 0
M  V30 1968 C 182.137 3.60866 -3.76065 0
M  V30 1969 C 179.465 3.69267 -4.55916 0
M  V30 1970 C 181.817 3.73089 -5.10869 0
M  V30 1971 C 180.481 3.76775 -5.50996 0
M  V30 1972 H 179.751 0.675073 -0.305544 0
M  V30 1973 H 182.398 1.33554 -1.37243 0
M  V30 1974 H 180.703 3.85469 -0.701517 0
M  V30 1975 H 182.4 3.85821 -1.09284 0
M  V30 1976 H 178.99 3.49569 -2.47991 0
M  V30 1977 H 183.174 3.55946 -3.45855 0
M  V30 1978 H 178.43 3.70388 -4.86438 0
M  V30 1979 H 182.604 3.78011 -5.84877 0
M  V30 1980 H 180.231 3.84815 -6.55608 0
M  V30 1981 N 181.806 0.884767 1.30421 0
M  V30 1982 C 182.736 0.367574 2.30589 0
M  V30 1983 C 183.717 -0.549464 1.60981 0
M  V30 1984 O 184.902 -0.46336 1.88591 0
M  V30 1985 C 182.032 -0.418944 3.44764 0
M  V30 1986 C 180.986 0.406316 4.26067 0
M  V30 1987 C 180.312 -0.506793 5.32293 0
M  V30 1988 C 181.612 1.64832 4.95608 0
M  V30 1989 H 183.306 1.20462 2.74097 0
M  V30 1990 H 180.852 0.580695 1.31772 0
M  V30 1991 H 182.805 -0.791395 4.13902 0
M  V30 1992 H 181.529 -1.28964 3.0006 0
M  V30 1993 H 180.188 0.760903 3.58617 0
M  V30 1994 H 179.836 -1.37519 4.83836 0
M  V30 1995 H 179.536 0.0415828 5.87585 0
M  V30 1996 H 181.06 -0.875764 6.04287 0
M  V30 1997 H 182.474 1.34646 5.57264 0
M  V30 1998 H 180.871 2.13688 5.60765 0
M  V30 1999 H 181.941 2.39284 4.21748 0
M  V30 2000 N 183.284 -1.43765 0.645699 0
M  V30 2001 C 184.561 -1.9541 0.0862963 0
M  V30 2002 C 184.941 -1.58725 -1.39175 0
M  V30 2003 O 184.289 -0.868581 -2.11348 0
M  V30 2004 C 184.499 -3.47488 0.324565 0
M  V30 2005 C 185.847 -4.24001 0.225497 0
M  V30 2006 O 186.871 -3.55274 0.256715 0
M  V30 2007 O 185.73 -5.46313 0.142801 0
M  V30 2008 H 182.824 -0.826882 -0.0139483 0
M  V30 2009 H 185.37 -1.53743 0.718415 0
M  V30 2010 H 184.142 -3.67289 1.3496 0
M  V30 2011 H 183.765 -3.96135 -0.340987 0
M  V30 2012 N 184.763 -0.387143 -1.52771 0
M  V30 2013 C 186.009 0.196025 -2.0185 0
M  V30 2014 C 186.342 1.46641 -1.27319 0
M  V30 2015 O 185.617 1.90889 -0.373032 0
M  V30 2016 C 185.9 0.466136 -3.5707 0
M  V30 2017 C 185.753 -0.819385 -4.42274 0
M  V30 2018 C 187.072 1.25768 -4.21747 0
M  V30 2019 H 184.191 0.0697708 -0.73369 0
M  V30 2020 H 186.833 -0.516286 -1.82851 0
M  V30 2021 H 184.983 1.07293 -3.7339 0
M  V30 2022 H 186.655 -1.4563 -4.37709 0
M  V30 2023 H 184.898 -1.43517 -4.09372 0
M  V30 2024 H 185.569 -0.585065 -5.48891 0
M  V30 2025 H 188.045 0.744167 -4.09391 0
M  V30 2026 H 186.921 1.41541 -5.30337 0
M  V30 2027 H 187.182 2.27228 -3.79236 0
M  V30 2028 N 186.241 1.57166 -0.116904 0
M  V30 2029 C 187.652 1.82169 0.408809 0
M  V30 2030 C 188.003 1.03393 1.66746 0
M  V30 2031 O 187.128 0.269886 2.1471 0
M  V30 2032 C 187.723 3.30429 0.748466 0
M  V30 2033 C 186.282 3.5612 1.21882 0
M  V30 2034 C 185.429 2.76374 0.226452 0
M  V30 2035 H 188.38 1.5497 -0.342063 0
M  V30 2036 H 188.401 3.44943 1.60607 0
M  V30 2037 H 187.913 3.87737 -0.167784 0
M  V30 2038 H 186.014 3.04168 2.15204 0
M  V30 2039 H 186.127 4.64705 1.16559 0
M  V30 2040 H 184.491 2.44515 0.713063 0
M  V30 2041 H 185.274 3.3644 -0.682859 0
M  V30 2042 N 187.719 -0.156864 1.56817 0
M  V30 2043 C 188.649 -1.19589 2.00551 0
M  V30 2044 C 189.63 -1.4536 0.883426 0
M  V30 2045 O 190.815 -1.56449 1.15054 0
M  V30 2046 C 187.945 -2.53143 2.37773 0
M  V30 2047 C 186.899 -2.41913 3.53075 0
M  V30 2048 C 186.225 -3.80088 3.76081 0
M  V30 2049 C 187.525 -1.91157 4.86062 0
M  V30 2050 H 189.219 -0.832293 2.87599 0
M  V30 2051 H 186.765 -0.398918 1.38364 0
M  V30 2052 H 188.718 -3.26047 2.66967 0
M  V30 2053 H 187.442 -2.91319 1.4765 0
M  V30 2054 H 186.101 -1.71462 3.24031 0
M  V30 2055 H 185.749 -4.15683 2.83225 0
M  V30 2056 H 185.449 -3.73439 4.53671 0
M  V30 2057 H 186.973 -4.54556 4.0769 0
M  V30 2058 H 188.387 -2.53846 5.14038 0
M  V30 2059 H 186.784 -1.95422 5.67389 0
M  V30 2060 H 187.854 -0.866673 4.77092 0
M  V30 2061 N 189.197 -1.51736 -0.425897 0
M  V30 2062 C 190.437 -1.66636 -1.18371 0
M  V30 2063 C 190.801 -0.379854 -1.88205 0
M  V30 2064 O 192.002 -0.404758 -2.65735 0
M  V30 2065 C 190.273 -2.84382 -2.16476 0
M  V30 2066 S 191.832 -3.19673 -3.0059 0
M  V30 2067 H 188.65 -0.586957 -0.40125 0
M  V30 2068 H 191.252 -1.89679 -0.473518 0
M  V30 2069 H 189.956 -3.76281 -1.63831 0
M  V30 2070 H 189.487 -2.63562 -2.92059 0
M  V30 2071 H 191.502 -2.66994 -4.18245 0
M  V30 2072 N 190.675 0.682077 -1.42076 0
M  V30 2073 C 191.622 1.79578 -1.44984 0
M  V30 2074 C 192.592 1.6332 -0.302614 0
M  V30 2075 O 193.777 1.83978 -0.505633 0
M  V30 2076 C 190.917 3.1756 -1.35091 0
M  V30 2077 C 190.03 3.45156 -2.59791 0
M  V30 2078 C 189.165 4.72826 -2.42093 0
M  V30 2079 C 188.204 4.93433 -3.62202 0
M  V30 2080 N 187.341 6.12338 -3.43491 0
M  V30 2081 H 192.181 1.76427 -2.40161 0
M  V30 2082 H 189.718 0.861376 -1.19242 0
M  V30 2083 H 191.676 3.97287 -1.27354 0
M  V30 2084 H 190.306 3.19854 -0.435133 0
M  V30 2085 H 189.358 2.59736 -2.77923 0
M  V30 2086 H 190.67 3.5628 -3.49094 0
M  V30 2087 H 189.824 5.60631 -2.319 0
M  V30 2088 H 188.563 4.63973 -1.50268 0
M  V30 2089 H 187.568 4.04073 -3.72834 0
M  V30 2090 H 188.793 5.04136 -4.54998 0
M  V30 2091 H 186.739 6.04672 -2.54377 0
M  V30 2092 H 186.656 6.2429 -4.26377 0
M  V30 2093 H 187.924 7.02841 -3.37097 0
M  V30 2094 N 192.153 1.28127 0.917671 0
M  V30 2095 C 193.063 1.13556 2.05286 0
M  V30 2096 C 194.079 0.0630914 1.73886 0
M  V30 2097 O 195.255 0.271598 1.9956 0
M  V30 2098 C 192.32 0.794676 3.3747 0
M  V30 2099 C 191.381 1.94909 3.82504 0
M  V30 2100 C 190.614 1.62437 5.0838 0
M  V30 2101 O 190.837 0.536905 5.67867 0
M  V30 2102 O 189.771 2.46677 5.4903 0
M  V30 2103 H 193.597 2.08844 2.20495 0
M  V30 2104 H 191.182 1.07409 1.03845 0
M  V30 2105 H 193.064 0.618344 4.16839 0
M  V30 2106 H 191.739 -0.128581 3.23445 0
M  V30 2107 H 190.646 2.18055 3.03978 0
M  V30 2108 H 191.979 2.85291 4.01086 0
M  V30 2109 N 193.631 -1.12557 1.10312 0
M  V30 2110 C 194.908 -1.80363 0.756878 0
M  V30 2111 C 195.288 -1.97067 -0.756824 0
M  V30 2112 O 194.636 -1.54601 -1.68259 0
M  V30 2113 C 194.846 -3.14812 1.50647 0
M  V30 2114 C 196.194 -3.90029 1.67817 0
M  V30 2115 O 197.218 -3.24464 1.46974 0
M  V30 2116 O 196.077 -5.07652 2.02365 0
M  V30 2117 H 193.171 -0.780667 0.272926 0
M  V30 2118 H 195.717 -1.19404 1.20586 0
M  V30 2119 H 194.489 -2.97936 2.53672 0
M  V30 2120 H 194.112 -3.83478 1.05026 0
M  V30 2121 N 195.109 -0.891671 -1.2995 0
M  V30 2122 C 196.349 -0.520296 -1.97667 0
M  V30 2123 C 196.713 0.914797 -1.68806 0
M  V30 2124 O 197.914 1.39263 -2.29911 0
M  V30 2125 C 196.185 -0.795222 -3.48441 0
M  V30 2126 S 197.744 -0.526953 -4.35624 0
M  V30 2127 H 194.562 -0.19333 -0.684211 0
M  V30 2128 H 197.164 -1.15238 -1.57926 0
M  V30 2129 H 195.868 -1.83805 -3.66938 0
M  V30 2130 H 195.399 -0.15095 -3.9311 0
M  V30 2131 H 197.414 0.631533 -4.92165 0
M  V30 2132 N 196.587 1.43421 -0.653314 0
M  V30 2133 C 197.519 2.29071 0.0769134 0
M  V30 2134 C 198.532 1.42513 0.787017 0
M  V30 2135 O 199.721 1.66449 0.644757 0
M  V30 2136 C 196.821 3.19436 1.13199 0
M  V30 2137 C 195.994 4.34533 0.500006 0
M  V30 2138 C 195.053 5.05771 1.45198 0
M  V30 2139 O 194.079 5.61037 0.960538 0
M  V30 2140 N 195.281 5.0928 2.78594 0
M  V30 2141 H 198.046 2.92382 -0.658235 0
M  V30 2142 H 195.607 1.54112 -0.496104 0
M  V30 2143 H 197.599 3.63958 1.76964 0
M  V30 2144 H 196.169 2.57724 1.7691 0
M  V30 2145 H 195.389 3.92925 -0.316738 0
M  V30 2146 H 196.677 5.08766 0.0588345 0
M  V30 2147 H 196.075 4.65751 3.2108 0
M  V30 2148 H 194.632 5.57519 3.37662 0
M  V30 2149 N 198.065 0.39524 1.52563 0
M  V30 2150 C 199.481 0.0454682 1.59535 0
M  V30 2151 C 199.681 -1.44056 1.4089 0
M  V30 2152 O 198.737 -2.20579 1.22888 0
M  V30 2153 C 200.05 0.527963 2.96029 0
M  V30 2154 C 201.598 0.484733 3.09224 0
M  V30 2155 C 202.073 0.943512 4.48176 0
M  V30 2156 N 203.564 0.899765 4.54377 0
M  V30 2157 C 204.299 1.22609 5.60138 0
M  V30 2158 N 203.795 1.62319 6.73516 0
M  V30 2159 N 205.588 1.14696 5.50274 0
M  V30 2160 H 197.739 1.36261 1.62931 0
M  V30 2161 H 200.002 0.558887 0.765735 0
M  V30 2162 H 199.708 1.56607 3.14908 0
M  V30 2163 H 199.582 -0.0698056 3.77135 0
M  V30 2164 H 201.969 -0.544298 2.90037 0
M  V30 2165 H 202.05 1.11838 2.30056 0
M  V30 2166 H 201.694 1.9708 4.68104 0
M  V30 2167 H 201.624 0.286817 5.25818 0
M  V30 2168 H 204.115 0.607632 3.72983 0
M  V30 2169 H 204.428 1.85567 7.5019 0
M  V30 2170 H 202.773 1.66211 6.74833 0
M  V30 2171 H 205.964 0.835701 4.6058 0
M  V30 2172 H 206.137 1.40459 6.32594 0
M  V30 2173 N 199.544 -1.57102 0.125237 0
M  V30 2174 C 200.79 -1.96488 -0.525753 0
M  V30 2175 C 201.145 -1.00786 -1.6389 0
M  V30 2176 O 200.438 -0.038979 -1.9156 0
M  V30 2177 C 200.632 -3.40096 -1.09862 0
M  V30 2178 C 200.461 -4.4968 -0.0425004 0
M  V30 2179 C 199.231 -5.03781 0.391463 0
M  V30 2180 C 201.429 -5.08936 0.740829 0
M  V30 2181 N 199.411 -5.96948 1.4327 0
M  V30 2182 C 200.782 -5.98105 1.6331 0
M  V30 2183 C 202.837 -4.91576 0.791029 0
M  V30 2184 C 201.54 -6.71774 2.57122 0
M  V30 2185 C 203.566 -5.6593 1.71688 0
M  V30 2186 C 202.928 -6.5479 2.59672 0
M  V30 2187 H 199.027 -0.765072 -0.161831 0
M  V30 2188 H 201.611 -1.93511 0.214801 0
M  V30 2189 H 199.782 -3.43707 -1.80887 0
M  V30 2190 H 201.514 -3.66591 -1.71444 0
M  V30 2191 H 198.269 -4.736 -0.00213584 0
M  V30 2192 H 198.693 -6.48236 1.95243 0
M  V30 2193 H 203.335 -4.22615 0.124915 0
M  V30 2194 H 201.053 -7.39977 3.24744 0
M  V30 2195 H 204.639 -5.54501 1.76125 0
M  V30 2196 H 203.519 -7.11316 3.30149 0
M  V30 2197 N 201.022 0.148545 -1.56898 0
M  V30 2198 C 202.268 0.857877 -1.84424 0
M  V30 2199 C 202.623 1.7886 -0.709006 0
M  V30 2200 O 201.916 1.89344 0.293139 0
M  V30 2201 C 202.11 1.67064 -3.1595 0
M  V30 2202 C 201.939 0.82011 -4.42159 0
M  V30 2203 C 200.709 0.486328 -5.02954 0
M  V30 2204 C 202.907 0.151155 -5.14078 0
M  V30 2205 N 200.889 -0.377956 -6.12735 0
M  V30 2206 C 202.26 -0.573333 -6.17343 0
M  V30 2207 C 204.315 0.0716685 -4.97848 0
M  V30 2208 C 203.018 -1.3698 -7.06137 0
M  V30 2209 C 205.044 -0.711532 -5.87104 0
M  V30 2210 C 204.406 -1.42431 -6.8985 0
M  V30 2211 H 200.505 0.291798 -0.725519 0
M  V30 2212 H 203.089 0.123347 -1.94309 0
M  V30 2213 H 201.26 2.37642 -3.07215 0
M  V30 2214 H 202.992 2.32302 -3.31388 0
M  V30 2215 H 199.747 0.821753 -4.66416 0
M  V30 2216 H 200.171 -0.801077 -6.72244 0
M  V30 2217 H 204.813 0.608381 -4.184 0
M  V30 2218 H 202.531 -1.91778 -7.85014 0
M  V30 2219 H 206.117 -0.775005 -5.76615 0
M  V30 2220 H 204.997 -2.02061 -7.57721 0
M  V30 2221 N 202.5 1.5196 0.417844 0
M  V30 2222 C 203.41 1.77554 1.53336 0
M  V30 2223 C 204.426 0.660655 1.6097 0
M  V30 2224 O 205.602 0.945099 1.77848 0
M  V30 2225 C 202.667 1.91291 2.89152 0
M  V30 2226 C 201.728 3.15183 2.91475 0
M  V30 2227 C 200.961 3.28256 4.20813 0
M  V30 2228 O 201.184 2.46798 5.14244 0
M  V30 2229 O 200.118 4.21356 4.29817 0
M  V30 2230 H 203.944 2.7222 1.34647 0
M  V30 2231 H 201.529 1.36698 0.602828 0
M  V30 2232 H 203.411 2.02199 3.69721 0
M  V30 2233 H 202.086 0.998129 3.07927 0
M  V30 2234 H 200.993 3.09739 2.09791 0
M  V30 2235 H 202.326 4.06414 2.77648 0
M  V30 2236 N 203.978 -0.674533 1.42435 0
M  V30 2237 C 205.255 -1.4305 1.33402 0
M  V30 2238 C 205.635 -2.11081 -0.0284674 0
M  V30 2239 O 204.983 -2.03257 -1.04397 0
M  V30 2240 C 205.193 -2.43272 2.50239 0
M  V30 2241 C 206.541 -3.07907 2.92367 0
M  V30 2242 O 207.565 -2.53599 2.50132 0
M  V30 2243 O 206.424 -4.0632 3.65467 0
M  V30 2244 H 203.518 -0.638076 0.526106 0
M  V30 2245 H 206.064 -0.703235 1.54443 0
M  V30 2246 H 204.836 -1.91803 3.41068 0
M  V30 2247 H 204.459 -3.23479 2.31186 0
M  V30 2248 N 205.456 -1.28612 -0.910864 0
M  V30 2249 C 206.696 -1.1719 -1.67469 0
M  V30 2250 C 207.06 0.274441 -1.90028 0
M  V30 2251 O 208.261 0.511425 -2.6389 0
M  V30 2252 C 206.532 -1.95137 -2.99427 0
M  V30 2253 S 208.091 -2.00122 -3.90508 0
M  V30 2254 H 204.909 -0.41806 -0.575106 0
M  V30 2255 H 207.511 -1.6275 -1.08317 0
M  V30 2256 H 206.215 -2.99381 -2.80712 0
M  V30 2257 H 205.746 -1.50137 -3.63624 0
M  V30 2258 H 207.761 -1.10981 -4.8363 0
M  V30 2259 N 206.934 1.1197 -1.10907 0
M  V30 2260 C 207.884 2.15946 -0.731538 0
M  V30 2261 C 208.868 1.58758 0.261699 0
M  V30 2262 O 210.06 1.76863 0.0696722 0
M  V30 2263 C 207.189 3.42877 -0.170299 0
M  V30 2264 C 206.275 4.07037 -1.19087 0
M  V30 2265 N 206.666 4.46135 -2.38322 0
M  V30 2266 C 204.964 4.33884 -1.03252 0
M  V30 2267 C 205.665 4.96331 -3.03366 0
M  V30 2268 N 204.641 4.9214 -2.30865 0
M  V30 2269 H 208.443 2.43947 -1.63912 0
M  V30 2270 H 205.957 1.28927 -0.987505 0
M  V30 2271 H 207.954 4.16732 0.118271 0
M  V30 2272 H 206.614 3.16343 0.731935 0
M  V30 2273 H 207.625 4.38345 -2.75815 0
M  V30 2274 H 204.302 4.17084 -0.186256 0
M  V30 2275 H 205.692 5.36257 -4.04818 0
M  V30 2276 N 208.412 0.89855 1.29475 0
M  V30 2277 C 209.64 0.539261 1.99749 0
M  V30 2278 C 210.055 -0.875716 1.67262 0
M  V30 2279 O 209.412 -1.57786 0.917049 0
M  V30 2280 C 209.463 0.72061 3.54245 0
M  V30 2281 O 209.184 2.07989 3.8558 0
M  V30 2282 C 210.685 0.366118 4.41786 0
M  V30 2283 H 207.905 0.207047 0.638258 0
M  V30 2284 H 210.449 1.20758 1.65039 0
M  V30 2285 H 208.604 0.0994862 3.87272 0
M  V30 2286 H 209.018 2.10841 4.80257 0
M  V30 2287 H 210.492 0.543848 5.49314 0
M  V30 2288 H 210.969 -0.696763 4.33638 0
M  V30 2289 H 211.575 0.964135 4.14228 0
M  V30 2290 N 209.89 -1.43072 0.660911 0
M  V30 2291 C 211.115 -2.06584 0.183805 0
M  V30 2292 C 211.54 -1.49257 -1.14472 0
M  V30 2293 O 210.898 -0.605528 -1.70889 0
M  V30 2294 C 210.946 -3.60418 0.114434 0
M  V30 2295 O 210.05 -4.01981 -0.921137 0
M  V30 2296 H 209.391 -0.656669 0.0983994 0
M  V30 2297 H 211.921 -1.83447 0.906006 0
M  V30 2298 H 211.931 -4.07946 -0.0663394 0
M  V30 2299 H 210.606 -4.01519 1.08422 0
M  V30 2300 H 209.183 -3.66029 -0.71253 0
M  V30 2301 N 211.368 -0.403325 -1.52352 0
M  V30 2302 C 212.318 0.442244 -2.2367 0
M  V30 2303 C 213.302 1.01823 -1.24583 0
M  V30 2304 O 214.494 0.942005 -1.49851 0
M  V30 2305 C 211.623 1.5615 -3.05732 0
M  V30 2306 C 210.709 0.996575 -4.12225 0
M  V30 2307 N 211.1 0.157804 -5.05554 0
M  V30 2308 C 209.398 1.26767 -4.27605 0
M  V30 2309 C 210.099 -0.155853 -5.81491 0
M  V30 2310 N 209.075 0.451775 -5.41719 0
M  V30 2311 H 212.877 -0.204964 -2.93184 0
M  V30 2312 H 210.391 -0.213418 -1.60992 0
M  V30 2313 H 212.388 2.17981 -3.55373 0
M  V30 2314 H 211.048 2.21139 -2.37755 0
M  V30 2315 H 212.059 -0.206049 -5.1749 0
M  V30 2316 H 208.736 1.91757 -3.70858 0
M  V30 2317 H 210.126 -0.836329 -6.66675 0
M  V30 2318 N 212.846 1.57033 -0.133567 0
M  V30 2319 C 214.074 2.00044 0.528195 0
M  V30 2320 C 214.489 1.01349 1.59291 0
M  V30 2321 O 213.846 0.00848369 1.82498 0
M  V30 2322 C 213.897 3.43018 1.1411 0
M  V30 2323 O 213.618 4.37939 0.11892 0
M  V30 2324 C 215.119 4.01237 1.88477 0
M  V30 2325 H 212.339 0.656517 0.138661 0
M  V30 2326 H 214.883 2.03267 -0.224196 0
M  V30 2327 H 213.038 3.40688 1.84418 0
M  V30 2328 H 213.452 5.21436 0.56613 0
M  V30 2329 H 214.926 5.03314 2.26669 0
M  V30 2330 H 215.403 3.41193 2.76558 0
M  V30 2331 H 216.009 4.07156 1.22898 0
M  V30 2332 N 214.325 -0.140222 1.56975 0
M  V30 2333 C 215.565 -0.857823 1.85528 0
M  V30 2334 C 215.929 -1.78039 0.718768 0
M  V30 2335 O 217.13 -2.53795 0.885521 0
M  V30 2336 C 215.401 -1.60615 3.19277 0
M  V30 2337 S 216.96 -2.36824 3.69405 0
M  V30 2338 H 213.778 -0.286727 0.650622 0
M  V30 2339 H 216.38 -0.117408 1.95147 0
M  V30 2340 H 215.084 -0.919994 3.99955 0
M  V30 2341 H 214.615 -2.38735 3.12681 0
M  V30 2342 H 216.63 -3.62148 3.3921 0
M  V30 2343 N 215.803 -1.52179 -0.40978 0
M  V30 2344 C 216.75 -1.75475 -1.49924 0
M  V30 2345 C 217.72 -0.597175 -1.54994 0
M  V30 2346 O 218.905 -0.834655 -1.71575 0
M  V30 2347 C 216.045 -1.9107 -2.87378 0
M  V30 2348 C 215.158 -3.18717 -2.91622 0
M  V30 2349 C 214.293 -3.24747 -4.20372 0
M  V30 2350 C 213.332 -4.46598 -4.18588 0
M  V30 2351 N 212.469 -4.50025 -5.38908 0
M  V30 2352 H 217.309 -2.68458 -1.29361 0
M  V30 2353 H 214.846 -1.33024 -0.627934 0
M  V30 2354 H 216.804 -1.98096 -3.6717 0
M  V30 2355 H 215.434 -1.01469 -3.06437 0
M  V30 2356 H 214.486 -3.20866 -2.04326 0
M  V30 2357 H 215.798 -4.08544 -2.86169 0
M  V30 2358 H 214.952 -3.30841 -5.08556 0
M  V30 2359 H 213.691 -2.32857 -4.28519 0
M  V30 2360 H 212.696 -4.40652 -3.28794 0
M  V30 2361 H 213.921 -5.39783 -4.12081 0
M  V30 2362 H 211.867 -3.61017 -5.47725 0
M  V30 2363 H 211.784 -5.33697 -5.35447 0
M  V30 2364 H 213.052 -4.60347 -6.29048 0
M  V30 2365 N 217.281 0.66697 -1.42791 0
M  V30 2366 C 218.506 1.46004 -1.47301 0
M  V30 2367 C 218.931 1.87894 -0.0880317 0
M  V30 2368 O 218.289 1.56502 0.915253 0
M  V30 2369 C 218.337 2.68031 -2.41229 0
M  V30 2370 O 217.441 3.6659 -1.88906 0
M  V30 2371 H 216.782 0.43832 -0.49877 0
M  V30 2372 H 219.312 0.817391 -1.87563 0
M  V30 2373 H 219.322 3.1601 -2.58073 0
M  V30 2374 H 217.997 2.36883 -3.41847 0
M  V30 2375 H 216.574 3.25661 -1.81656 0
M  V30 2376 N 218.759 1.29093 0.90403 0
M  V30 2377 C 219.707 1.13727 2.02901 0
M  V30 2378 C 220.701 0.0539853 1.69314 0
M  V30 2379 O 221.907 0.213469 1.7873 0
M  V30 2380 H 218.282 0.35117 0.664969 0
M  V30 2381 H 220.253 2.08982 2.13001 0
M  V30 2382 C 219.002 0.826066 3.37745 0
M  V30 2383 H 218.325 1.65164 3.64089 0
M  V30 2384 H 219.765 0.758559 4.17159 0
M  V30 2385 C 218.224 -0.470541 3.33598 0
M  V30 2386 O 218.754 -1.49792 3.72727 0
M  V30 2387 N 216.96 -0.474812 2.86695 0
M  V30 2388 H 216.507 0.361692 2.55048 0
M  V30 2389 H 216.465 -1.34236 2.84303 0
M  V30 2390 N 220.237 -1.11381 1.11499 0
M  V30 2391 C 221.483 -1.83597 0.875423 0
M  V30 2392 C 221.838 -1.83048 -0.592555 0
M  V30 2393 O 221.131 -1.27304 -1.43193 0
M  V30 2394 C 221.325 -3.30026 1.37177 0
M  V30 2395 C 221.154 -3.44837 2.88647 0
M  V30 2396 C 219.924 -3.57825 3.56776 0
M  V30 2397 C 222.122 -3.3907 3.86699 0
M  V30 2398 N 220.104 -3.61113 4.96458 0
M  V30 2399 C 221.475 -3.48986 5.12454 0
M  V30 2400 C 223.53 -3.22605 3.7925 0
M  V30 2401 C 222.233 -3.44135 6.31636 0
M  V30 2402 C 224.259 -3.19072 4.97943 0
M  V30 2403 C 223.621 -3.29559 6.22551 0
M  V30 2404 H 219.72 -0.687044 0.37349 0
M  V30 2405 H 222.304 -1.33265 1.41946 0
M  V30 2406 H 220.475 -3.78874 0.854919 0
M  V30 2407 H 222.207 -3.90153 1.07529 0
M  V30 2408 H 218.962 -3.60414 3.07244 0
M  V30 2409 H 219.386 -3.66394 5.69284 0
M  V30 2410 H 224.028 -3.13382 2.83816 0
M  V30 2411 H 221.746 -3.52126 7.27347 0
M  V30 2412 H 225.332 -3.07498 4.93899 0
M  V30 2413 H 224.212 -3.26815 7.12855 0
M  V30 2414 N 221.715 -0.905404 -1.28997 0
M  V30 2415 C 222.665 -0.358713 -2.25161 0
M  V30 2416 C 223.649 0.524449 -1.52113 0
M  V30 2417 O 224.841 0.365534 -1.73184 0
M  V30 2418 C 221.97 0.407609 -3.40872 0
M  V30 2419 C 221.056 -0.490797 -4.21251 0
M  V30 2420 N 221.447 -1.60061 -4.79806 0
M  V30 2421 C 219.745 -0.289636 -4.45059 0
M  V30 2422 C 220.446 -2.15757 -5.40207 0
M  V30 2423 N 219.422 -1.44988 -5.23908 0
M  V30 2424 H 223.224 -1.20642 -2.67998 0
M  V30 2425 H 220.738 -0.757103 -1.43672 0
M  V30 2426 H 222.735 0.816046 -4.08835 0
M  V30 2427 H 221.395 1.25251 -2.9957 0
M  V30 2428 H 222.406 -1.98329 -4.7842 0
M  V30 2429 H 219.083 0.51643 -4.14294 0
M  V30 2430 H 220.473 -3.09069 -5.96595 0
M  V30 2431 N 223.193 1.4272 -0.668489 0
M  V30 2432 C 224.609 1.55992 -0.33745 0
M  V30 2433 C 224.809 1.64933 1.15756 0
M  V30 2434 O 223.865 1.61278 1.94282 0
M  V30 2435 C 225.178 2.81314 -1.06222 0
M  V30 2436 C 226.726 2.95078 -1.04394 0
M  V30 2437 C 227.201 4.23252 -1.74991 0
M  V30 2438 N 228.692 4.3015 -1.71829 0
M  V30 2439 C 229.427 5.28127 -2.23315 0
M  V30 2440 N 228.923 6.32293 -2.83156 0
M  V30 2441 N 230.716 5.19882 -2.13726 0
M  V30 2442 H 222.867 1.3516 -1.63846 0
M  V30 2443 H 225.13 0.650174 -0.689912 0
M  V30 2444 H 224.836 2.80823 -2.11734 0
M  V30 2445 H 224.71 3.72012 -0.62344 0
M  V30 2446 H 227.097 2.951 0.0028244 0
M  V30 2447 H 227.178 2.05627 -1.52155 0
M  V30 2448 H 226.822 4.2399 -2.79633 0
M  V30 2449 H 226.752 5.11626 -1.24685 0
M  V30 2450 H 229.243 3.55499 -1.28175 0
M  V30 2451 H 229.556 7.03398 -3.20079 0
M  V30 2452 H 227.901 6.32873 -2.87223 0
M  V30 2453 H 231.092 4.37423 -1.66669 0
M  V30 2454 H 231.265 5.96077 -2.54158 0
M  V30 2455 N 224.671 0.411399 1.52136 0
M  V30 2456 C 225.919 -0.163322 2.01439 0
M  V30 2457 C 226.24 -1.45453 1.29879 0
M  V30 2458 O 225.51 -1.91225 0.4254 0
M  V30 2459 H 224.09 -0.0633447 0.744309 0
M  V30 2460 H 226.752 0.548161 1.87033 0
M  V30 2461 H 225.848 -0.357817 3.10042 0
M  V30 2462 N 226.149 -1.5696 0.141893 0
M  V30 2463 C 227.395 -1.97034 -0.504884 0
M  V30 2464 C 227.75 -1.02518 -1.62812 0
M  V30 2465 O 227.043 -0.0592943 -1.91508 0
M  V30 2466 C 227.237 -3.41242 -1.06249 0
M  V30 2467 C 227.066 -4.497 0.00519653 0
M  V30 2468 C 225.836 -5.03338 0.444873 0
M  V30 2469 C 228.034 -5.08122 0.794767 0
M  V30 2470 N 226.016 -5.95395 1.49593 0
M  V30 2471 C 227.387 -5.96339 1.69645 0
M  V30 2472 C 229.442 -4.9071 0.843122 0
M  V30 2473 C 228.145 -6.69009 2.64233 0
M  V30 2474 C 230.171 -5.64077 1.77681 0
M  V30 2475 C 229.533 -6.51999 2.66603 0
M  V30 2476 H 225.632 -0.766745 -0.153707 0
M  V30 2477 H 228.216 -1.93273 0.235313 0
M  V30 2478 H 226.387 -3.45606 -1.77231 0
M  V30 2479 H 228.119 -3.68389 -1.67546 0
M  V30 2480 H 224.874 -4.73576 0.0480959 0
M  V30 2481 H 225.298 -6.46128 2.02107 0
M  V30 2482 H 229.94 -4.22459 0.169732 0
M  V30 2483 H 227.658 -7.36492 3.32575 0
M  V30 2484 H 231.244 -5.52602 1.81996 0
M  V30 2485 H 230.124 -7.07775 3.37675 0
M  V30 2486 N 227.627 0.131896 -1.57047 0
M  V30 2487 C 228.904 0.871495 -1.75112 0
M  V30 2488 C 229.284 1.9866 -0.713949 0
M  V30 2489 O 228.632 2.26965 0.264447 0
M  V30 2490 C 228.842 1.40007 -3.19686 0
M  V30 2491 C 230.19 1.85752 -3.81813 0
M  V30 2492 O 231.214 1.49715 -3.23209 0
M  V30 2493 O 230.073 2.5226 -4.84796 0
M  V30 2494 H 227.167 0.412919 -0.716538 0
M  V30 2495 H 229.713 0.116641 -1.69299 0
M  V30 2496 H 228.485 0.599404 -3.86682 0
M  V30 2497 H 228.108 2.218 -3.29986 0
M  V30 2498 N 229.106 1.52395 0.401703 0
M  V30 2499 C 230.352 1.68019 1.14635 0
M  V30 2500 C 230.707 0.408722 1.88009 0
M  V30 2501 O 230 -0.597133 1.82057 0
M  V30 2502 C 230.194 2.84578 2.16217 0
M  V30 2503 C 230.023 4.22938 1.5282 0
M  V30 2504 C 228.793 4.88352 1.29772 0
M  V30 2505 C 230.991 5.04778 0.985094 0
M  V30 2506 N 228.973 6.10726 0.623455 0
M  V30 2507 C 230.344 6.1845 0.438172 0
M  V30 2508 C 232.399 4.90057 0.880275 0
M  V30 2509 C 231.102 7.19013 -0.203306 0
M  V30 2510 C 233.128 5.9086 0.252639 0
M  V30 2511 C 232.49 7.03829 -0.283573 0
M  V30 2512 H 228.589 0.668413 0.405892 0
M  V30 2513 H 231.173 1.89717 0.437674 0
M  V30 2514 H 229.344 2.64483 2.84435 0
M  V30 2515 H 231.076 2.89202 2.83098 0
M  V30 2516 H 227.831 4.46846 1.56926 0
M  V30 2517 H 228.255 6.76323 0.302733 0
M  V30 2518 H 232.897 4.02938 1.28065 0
M  V30 2519 H 230.615 8.05751 -0.615726 0
M  V30 2520 H 234.201 5.81543 0.172954 0
M  V30 2521 H 233.081 7.80493 -0.761575 0
M  V30 2522 N 230.584 -0.659388 1.43143 0
M  V30 2523 C 231.812 -1.44723 1.47861 0
M  V30 2524 C 232.227 -1.88563 0.0945886 0
M  V30 2525 O 231.584 -1.59108 -0.893915 0
M  V30 2526 C 231.635 -2.68627 2.41913 0
M  V30 2527 O 231.356 -2.26623 3.74932 0
M  V30 2528 C 232.857 -3.62045 2.55809 0
M  V30 2529 H 230.077 -0.444801 0.502387 0
M  V30 2530 H 232.621 -0.808916 1.87821 0
M  V30 2531 H 230.776 -3.28613 2.05164 0
M  V30 2532 H 231.19 -3.06745 4.2545 0
M  V30 2533 H 232.664 -4.45666 3.25708 0
M  V30 2534 H 233.141 -4.08981 1.60099 0
M  V30 2535 H 233.747 -3.07944 2.93344 0
M  V30 2536 N 232.062 -1.29571 -0.897171 0
M  V30 2537 C 233.287 -1.20705 -1.68656 0
M  V30 2538 C 233.712 0.228582 -1.86706 0
M  V30 2539 O 233.07 1.16494 -1.3892 0
M  V30 2540 C 233.118 -1.9282 -3.04717 0
M  V30 2541 O 232.222 -1.24697 -3.93096 0
M  V30 2542 H 231.563 -0.418126 -0.515816 0
M  V30 2543 H 234.093 -1.71183 -1.12061 0
M  V30 2544 H 234.103 -2.01372 -3.54843 0
M  V30 2545 H 232.778 -2.97239 -2.90899 0
M  V30 2546 H 231.355 -1.2442 -3.51531 0
M  V30 2547 N 233.54 1.10788 -1.12088 0
M  V30 2548 C 234.788 1.8231 -0.872205 0
M  V30 2549 C 235.109 1.85419 0.603709 0
M  V30 2550 O 234.379 1.32963 1.43867 0
M  V30 2551 H 232.959 0.675137 -0.319686 0
M  V30 2552 H 235.621 1.34068 -1.41463 0
M  V30 2553 H 234.717 2.85955 -1.25045 0
M  V30 2554 N 235.018 0.912232 1.28515 0
M  V30 2555 C 236.264 0.545405 1.95328 0
M  V30 2556 C 236.597 -0.908313 1.71649 0
M  V30 2557 O 235.872 -1.64575 1.03659 0
M  V30 2558 C 236.155 0.853483 3.4984 0
M  V30 2559 C 236.008 2.35982 3.82926 0
M  V30 2560 C 237.327 0.348589 4.38717 0
M  V30 2561 H 234.446 0.199626 0.709449 0
M  V30 2562 H 237.088 1.1412 1.5191 0
M  V30 2563 H 235.238 0.34643 3.86952 0
M  V30 2564 H 236.91 2.93738 3.55691 0
M  V30 2565 H 235.153 2.81543 3.30024 0
M  V30 2566 H 235.824 2.52593 4.90816 0
M  V30 2567 H 238.3 0.78294 4.08668 0
M  V30 2568 H 237.176 0.593242 5.45685 0
M  V30 2569 H 237.437 -0.751049 4.35674 0
M  V30 2570 N 236.496 -1.42363 0.676048 0
M  V30 2571 C 237.444 -2.32596 -0.0131507 0
M  V30 2572 C 238.438 -1.49891 -0.789238 0
M  V30 2573 O 239.644 -1.65955 -0.697061 0
M  V30 2574 H 236.019 -0.751647 -0.0230481 0
M  V30 2575 H 237.99 -2.88421 0.765243 0
M  V30 2576 C 236.739 -3.34479 -0.949702 0
M  V30 2577 H 236.062 -3.98158 -0.361938 0
M  V30 2578 H 237.502 -4.00199 -1.4006 0
M  V30 2579 C 235.961 -2.66838 -2.05667 0
M  V30 2580 O 236.491 -2.50124 -3.14326 0
M  V30 2581 N 234.697 -2.25843 -1.82875 0
M  V30 2582 H 234.244 -2.39637 -0.945085 0
M  V30 2583 H 234.202 -1.80918 -2.5713 0
M  V30 2584 N 237.974 -0.419461 -1.51915 0
M  V30 2585 C 238.921 0.400927 -2.27291 0
M  V30 2586 C 239.891 1.03224 -1.30131 0
M  V30 2587 O 241.076 1.05455 -1.59009 0
M  V30 2588 C 238.216 1.50603 -3.10504 0
M  V30 2589 C 237.329 0.89462 -4.22635 0
M  V30 2590 C 236.464 1.97328 -4.93189 0
M  V30 2591 C 235.503 1.33935 -5.97267 0
M  V30 2592 N 234.64 2.3586 -6.61298 0
M  V30 2593 H 239.48 -0.248251 -2.96964 0
M  V30 2594 H 237.017 -0.134266 -1.46486 0
M  V30 2595 H 238.975 2.15783 -3.57062 0
M  V30 2596 H 237.605 2.12509 -2.42981 0
M  V30 2597 H 236.657 0.131583 -3.80172 0
M  V30 2598 H 237.969 0.391641 -4.9726 0
M  V30 2599 H 237.123 2.70211 -5.43204 0
M  V30 2600 H 235.862 2.50994 -4.18155 0
M  V30 2601 H 234.867 0.595896 -5.46561 0
M  V30 2602 H 236.092 0.810252 -6.74249 0
M  V30 2603 H 234.038 2.88639 -5.89087 0
M  V30 2604 H 233.955 1.90403 -7.3163 0
M  V30 2605 H 235.223 3.08282 -7.15949 0
M  V30 2606 N 239.452 1.56882 -0.150215 0
M  V30 2607 C 240.692 1.98119 0.502804 0
M  V30 2608 C 241.056 1.03327 1.61826 0
M  V30 2609 O 242.257 1.33621 2.33236 0
M  V30 2610 C 240.528 3.43329 0.992988 0
M  V30 2611 S 242.087 4.0659 1.65015 0
M  V30 2612 H 238.905 0.692189 0.162467 0
M  V30 2613 H 241.507 1.93988 -0.242689 0
M  V30 2614 H 240.211 4.10046 0.170436 0
M  V30 2615 H 239.742 3.5118 1.77303 0
M  V30 2616 H 241.757 3.99906 2.93752 0
M  V30 2617 N 240.93 -0.123565 1.57115 0
M  V30 2618 C 242.341 -0.681198 1.73829 0
M  V30 2619 C 242.692 -1.80535 0.768214 0
M  V30 2620 O 241.817 -2.16317 -0.0599103 0
M  V30 2621 C 242.412 -1.24246 3.15196 0
M  V30 2622 C 240.971 -1.74643 3.33432 0
M  V30 2623 C 240.118 -0.644284 2.69711 0
M  V30 2624 H 243.069 0.102315 1.5837 0
M  V30 2625 H 243.09 -2.11216 3.16493 0
M  V30 2626 H 242.602 -0.424062 3.85776 0
M  V30 2627 H 240.703 -2.58974 2.67886 0
M  V30 2628 H 240.816 -1.85902 4.41562 0
M  V30 2629 H 239.18 -1.07676 2.3082 0
M  V30 2630 H 239.963 0.163058 3.42913 0
M  V30 2631 N 242.408 -1.52605 -0.393616 0
M  V30 2632 C 243.371 -1.76415 -1.46323 0
M  V30 2633 C 244.371 -0.634126 -1.47768 0
M  V30 2634 O 245.561 -0.902142 -1.4902 0
M  V30 2635 C 242.693 -1.8607 -2.85641 0
M  V30 2636 H 243.886 -2.71916 -1.26498 0
M  V30 2637 H 241.439 -1.43257 -0.625073 0
M  V30 2638 H 242.174 -0.925378 -3.10817 0
M  V30 2639 H 241.959 -2.68235 -2.85993 0
M  V30 2640 H 243.449 -2.06179 -3.63153 0
M  V30 2641 N 243.887 0.651787 -1.4349 0
M  V30 2642 C 245.135 1.40888 -1.44897 0
M  V30 2643 C 245.456 1.94856 -0.0749086 0
M  V30 2644 O 244.726 1.74518 0.889956 0
M  V30 2645 H 243.306 0.522887 -0.533478 0
M  V30 2646 H 245.968 0.768609 -1.79104 0
M  V30 2647 H 245.064 2.25052 -2.16236 0
M  V30 2648 N 245.365 1.30045 0.890287 0
M  V30 2649 C 246.328 1.15963 1.977 0
M  V30 2650 C 247.328 0.0923777 1.60534 0
M  V30 2651 O 248.518 0.340071 1.70848 0
M  V30 2652 C 245.65 0.775451 3.31963 0
M  V30 2653 H 246.843 2.12502 2.11619 0
M  V30 2654 H 244.396 1.13366 1.07601 0
M  V30 2655 H 245.131 -0.189671 3.23745 0
M  V30 2656 H 244.916 1.54668 3.60306 0
M  V30 2657 H 246.406 0.700251 4.11687 0
M  V30 2658 N 246.843 -1.10192 1.12674 0
M  V30 2659 C 247.773 -2.18652 0.819362 0
M  V30 2660 C 248.754 -1.68698 -0.217915 0
M  V30 2661 O 249.939 -1.94041 -0.0785581 0
M  V30 2662 C 247.069 -3.46202 0.27594 0
M  V30 2663 C 246.023 -4.09444 1.24656 0
M  V30 2664 C 245.349 -5.31725 0.563258 0
M  V30 2665 C 246.649 -4.52863 2.60217 0
M  V30 2666 H 248.343 -2.44622 1.72628 0
M  V30 2667 H 245.889 -1.17571 0.831451 0
M  V30 2668 H 247.842 -4.21372 0.0486149 0
M  V30 2669 H 246.566 -3.1973 -0.666331 0
M  V30 2670 H 245.225 -3.36284 1.45974 0
M  V30 2671 H 244.873 -5.0153 -0.384235 0
M  V30 2672 H 244.573 -5.74991 1.21075 0
M  V30 2673 H 246.097 -6.09624 0.34503 0
M  V30 2674 H 247.511 -5.19294 2.42913 0
M  V30 2675 H 245.908 -5.06986 3.21068 0
M  V30 2676 H 246.978 -3.65656 3.18471 0
M  V30 2677 N 248.321 -0.919034 -1.28029 0
M  V30 2678 C 249.561 -0.562107 -1.96519 0
M  V30 2679 C 249.925 0.878784 -1.70708 0
M  V30 2680 O 251.126 1.34355 -2.32813 0
M  V30 2681 C 249.397 -0.868953 -3.46676 0
M  V30 2682 S 250.956 -0.619237 -4.34409 0
M  V30 2683 H 247.774 -0.2078 -0.679956 0
M  V30 2684 H 250.376 -1.18562 -1.55446 0
M  V30 2685 H 249.08 -1.91547 -3.62957 0
M  V30 2686 H 248.611 -0.234301 -3.92702 0
M  V30 2687 H 250.626 0.526995 -4.93394 0
M  V30 2688 N 249.799 1.42003 -0.683588 0
M  V30 2689 C 251.215 1.55625 -0.353976 0
M  V30 2690 C 251.415 1.66151 1.14 0
M  V30 2691 O 250.471 1.63329 1.92561 0
M  V30 2692 C 251.784 2.80171 -1.092 0
M  V30 2693 C 253.332 2.93954 -1.07518 0
M  V30 2694 C 253.807 4.21372 -1.79471 0
M  V30 2695 N 255.298 4.28303 -1.76381 0
M  V30 2696 C 256.033 5.25729 -2.28904 0
M  V30 2697 N 255.529 6.29254 -2.89846 0
M  V30 2698 N 257.322 5.17586 -2.19228 0
M  V30 2699 H 249.473 1.33415 -1.6527 0
M  V30 2700 H 251.736 0.64282 -0.696769 0
M  V30 2701 H 251.442 2.78561 -2.14701 0
M  V30 2702 H 251.316 3.7133 -0.662862 0
M  V30 2703 H 253.703 2.95086 -0.028475 0
M  V30 2704 H 253.784 2.04002 -1.54328 0
M  V30 2705 H 253.428 4.21001 -2.84114 0
M  V30 2706 H 253.358 5.10275 -1.30104 0
M  V30 2707 H 255.849 3.54119 -1.31939 0
M  V30 2708 H 256.162 6.99964 -3.27522 0
M  V30 2709 H 254.507 6.29791 -2.93919 0
M  V30 2710 H 257.698 4.35631 -1.71299 0
M  V30 2711 H 257.871 5.93348 -2.60466 0
M  V30 2712 N 251.277 0.427512 1.51691 0
M  V30 2713 C 252.505 -0.141191 2.06418 0
M  V30 2714 C 252.92 -1.37303 1.29589 0
M  V30 2715 O 252.277 -1.79059 0.352732 0
M  V30 2716 C 252.328 -0.473266 3.58389 0
M  V30 2717 O 252.049 0.709673 4.32314 0
M  V30 2718 C 253.55 -1.09371 4.29596 0
M  V30 2719 H 250.77 -0.0122747 0.670888 0
M  V30 2720 H 253.314 0.603764 1.95384 0
M  V30 2721 H 251.469 -1.16812 3.69369 0
M  V30 2722 H 251.883 0.42807 5.2275 0
M  V30 2723 H 253.357 -1.27613 5.37046 0
M  V30 2724 H 253.834 -2.072 3.87253 0
M  V30 2725 H 254.44 -0.43853 4.23033 0
M  V30 2726 N 252.755 -1.56801 0.158532 0
M  V30 2727 C 254.002 -1.9649 -0.489679 0
M  V30 2728 C 254.33 -1.04394 -1.6411 0
M  V30 2729 O 253.585 -0.0754401 -1.95555 0
M  V30 2730 C 253.884 -3.4235 -1.02623 0
M  V30 2731 C 253.55 -4.50899 0.00794526 0
M  V30 2732 C 252.212 -4.80312 0.292207 0
M  V30 2733 C 254.564 -5.16333 0.710584 0
M  V30 2734 C 251.892 -5.72461 1.28472 0
M  V30 2735 C 254.244 -6.09553 1.69199 0
M  V30 2736 C 252.908 -6.37339 1.98383 0
M  V30 2737 H 252.178 -0.719009 -0.179186 0
M  V30 2738 H 254.825 -1.8989 0.247798 0
M  V30 2739 H 253.13 -3.45838 -1.84128 0
M  V30 2740 H 254.827 -3.70393 -1.53656 0
M  V30 2741 H 251.417 -4.28015 -0.22379 0
M  V30 2742 H 255.601 -4.93732 0.504174 0
M  V30 2743 H 250.857 -5.92278 1.51714 0
M  V30 2744 H 255.031 -6.59327 2.24189 0
M  V30 2745 H 252.658 -7.08546 2.7544 0
M  V30 2746 N 254.233 0.115231 -1.57178 0
M  V30 2747 C 255.143 1.15994 -2.03918 0
M  V30 2748 C 256.159 1.45103 -0.960268 0
M  V30 2749 O 257.335 1.56144 -1.27204 0
M  V30 2750 C 254.4 2.46568 -2.43732 0
M  V30 2751 C 253.461 2.24822 -3.65723 0
M  V30 2752 C 252.694 3.4917 -4.03629 0
M  V30 2753 O 252.917 4.56623 -3.41835 0
M  V30 2754 O 251.851 3.39949 -4.96708 0
M  V30 2755 H 255.677 0.793019 -2.93164 0
M  V30 2756 H 253.262 0.3263 -1.45793 0
M  V30 2757 H 255.144 3.23492 -2.70057 0
M  V30 2758 H 253.819 2.82726 -1.57631 0
M  V30 2759 H 252.726 1.45744 -3.44542 0
M  V30 2760 H 254.059 1.93566 -4.52541 0
M  V30 2761 N 255.711 1.52812 0.385517 0
M  V30 2762 C 256.936 1.72207 1.15583 0
M  V30 2763 C 257.361 0.441034 1.82857 0
M  V30 2764 O 256.719 -0.603465 1.70962 0
M  V30 2765 C 256.767 2.87476 2.17692 0
M  V30 2766 O 255.871 2.54693 3.24354 0
M  V30 2767 H 255.212 0.572526 0.336319 0
M  V30 2768 H 257.742 1.99618 0.448744 0
M  V30 2769 H 257.752 3.13072 2.6163 0
M  V30 2770 H 256.427 3.80408 1.68115 0
M  V30 2771 H 255.004 2.3985 2.85529 0
M  V30 2772 N 257.189 -0.644168 1.43834 0
M  V30 2773 C 258.419 -1.42939 1.49171 0
M  V30 2774 C 258.827 -1.88874 0.111048 0
M  V30 2775 O 258.17 -1.60656 -0.8908 0
M  V30 2776 C 258.232 -2.69151 2.38324 0
M  V30 2777 C 257.896 -2.45097 3.85715 0
M  V30 2778 C 258.893 -2.07747 4.76589 0
M  V30 2779 C 256.578 -2.59141 4.30292 0
M  V30 2780 C 258.572 -1.8475 6.10038 0
M  V30 2781 C 256.259 -2.35759 5.63792 0
M  V30 2782 C 257.257 -1.9862 6.53482 0
M  V30 2783 O 256.945 -1.75489 7.84512 0
M  V30 2784 H 256.677 -0.445271 0.508635 0
M  V30 2785 H 259.231 -0.79621 1.8934 0
M  V30 2786 H 257.461 -3.3506 1.93058 0
M  V30 2787 H 259.15 -3.31123 2.3476 0
M  V30 2788 H 259.916 -1.96465 4.43426 0
M  V30 2789 H 255.795 -2.87022 3.60749 0
M  V30 2790 H 259.339 -1.55686 6.80006 0
M  V30 2791 H 255.236 -2.46646 5.9652 0
M  V30 2792 H 256.004 -1.89841 7.9618 0
M  V30 2793 N 258.668 -1.30515 -0.883378 0
M  V30 2794 C 259.915 -1.1943 -1.63532 0
M  V30 2795 C 260.243 0.250627 -1.92878 0
M  V30 2796 O 259.498 1.19556 -1.54935 0
M  V30 2797 C 259.797 -1.96994 -2.98209 0
M  V30 2798 C 259.463 -3.466 -2.88408 0
M  V30 2799 C 258.125 -3.87397 -2.85442 0
M  V30 2800 C 260.477 -4.41863 -2.76418 0
M  V30 2801 C 257.805 -5.21745 -2.68327 0
M  V30 2802 C 260.157 -5.7632 -2.60841 0
M  V30 2803 C 258.821 -6.16354 -2.56251 0
M  V30 2804 H 258.091 -0.437025 -0.598406 0
M  V30 2805 H 260.738 -1.61635 -1.02696 0
M  V30 2806 H 259.043 -1.47429 -3.63004 0
M  V30 2807 H 260.74 -1.85808 -3.55354 0
M  V30 2808 H 257.33 -3.14182 -2.91527 0
M  V30 2809 H 261.514 -4.11285 -2.77775 0
M  V30 2810 H 256.77 -5.51853 -2.63189 0
M  V30 2811 H 260.944 -6.49772 -2.50538 0
M  V30 2812 H 258.571 -7.20401 -2.42748 0
M  V30 2813 N 260.146 1.09593 -1.13257 0
M  V30 2814 C 261.557 1.63229 -0.906274 0
M  V30 2815 C 261.908 1.8811 0.557578 0
M  V30 2816 O 261.033 1.62953 1.42391 0
M  V30 2817 C 261.628 2.96535 -1.63867 0
M  V30 2818 C 260.187 3.47003 -1.45828 0
M  V30 2819 C 259.334 2.2145 -1.66898 0
M  V30 2820 H 262.285 0.92978 -1.28611 0
M  V30 2821 H 262.306 3.64411 -1.09476 0
M  V30 2822 H 261.818 2.78394 -2.70404 0
M  V30 2823 H 259.919 3.70272 -0.415848 0
M  V30 2824 H 260.032 4.24551 -2.2202 0
M  V30 2825 H 258.396 2.30022 -1.09371 0
M  V30 2826 H 259.179 2.0583 -2.74752 0
M  V30 2827 N 261.624 0.925811 1.2754 0
M  V30 2828 C 262.852 0.581509 1.9856 0
M  V30 2829 C 263.267 -0.840041 1.69082 0
M  V30 2830 O 262.624 -1.55805 0.950312 0
M  V30 2831 C 262.675 0.795589 3.52637 0
M  V30 2832 O 262.396 2.16121 3.81082 0
M  V30 2833 C 263.897 0.459744 4.4091 0
M  V30 2834 H 261.117 0.220538 0.633722 0
M  V30 2835 H 263.661 1.24232 1.6244 0
M  V30 2836 H 261.816 0.18161 3.86974 0
M  V30 2837 H 262.23 2.2098 4.75676 0
M  V30 2838 H 263.704 0.660244 5.48037 0
M  V30 2839 H 264.181 -0.604625 4.35018 0
M  V30 2840 H 264.787 1.05178 4.12089 0
M  V30 2841 N 263.102 -1.41638 0.69111 0
M  V30 2842 C 264.513 -1.84346 0.295517 0
M  V30 2843 C 264.864 -1.57833 -1.16547 0
M  V30 2844 O 263.989 -1.04648 -1.89414 0
M  V30 2845 C 264.584 -3.34636 0.529575 0
M  V30 2846 C 263.143 -3.7593 0.187944 0
M  V30 2847 C 262.29 -2.65082 0.814052 0
M  V30 2848 H 265.241 -1.31253 0.892092 0
M  V30 2849 H 265.262 -3.79903 -0.213148 0
M  V30 2850 H 264.774 -3.53901 1.59297 0
M  V30 2851 H 262.875 -3.62268 -0.871367 0
M  V30 2852 H 262.988 -4.74808 0.63985 0
M  V30 2853 H 261.352 -2.53528 0.244017 0
M  V30 2854 H 262.135 -2.87167 1.88123 0
M  V30 2855 N 264.58 -0.43555 -1.51462 0
M  V30 2856 C 265.543 0.365137 -2.26273 0
M  V30 2857 C 266.543 0.951227 -1.29647 0
M  V30 2858 O 267.733 0.825958 -1.53374 0
M  V30 2859 C 264.865 1.51645 -3.05314 0
M  V30 2860 H 266.058 -0.290474 -2.9849 0
M  V30 2861 H 263.611 -0.188676 -1.55157 0
M  V30 2862 H 264.346 2.20816 -2.3751 0
M  V30 2863 H 264.131 1.10238 -3.76284 0
M  V30 2864 H 265.621 2.08218 -3.61987 0
M  V30 2865 N 266.058 1.56714 -0.166846 0
M  V30 2866 C 267.021 2.16539 0.751232 0
M  V30 2867 C 268.021 1.11228 1.16125 0
M  V30 2868 O 269.211 1.36765 1.07894 0
M  V30 2869 C 266.343 2.74462 2.02196 0
M  V30 2870 H 267.536 2.99013 0.230499 0
M  V30 2871 H 265.089 1.56081 0.0826982 0
M  V30 2872 H 265.824 1.95709 2.58589 0
M  V30 2873 H 265.609 3.51527 1.73698 0
M  V30 2874 H 267.099 3.20489 2.67725 0
M  V30 2875 N 267.536 -0.106894 1.57237 0
M  V30 2876 C 268.466 -1.13148 2.04254 0
M  V30 2877 C 269.447 -1.42476 0.929224 0
M  V30 2878 O 270.632 -1.52709 1.19973 0
M  V30 2879 C 267.762 -2.4545 2.45706 0
M  V30 2880 C 266.716 -2.30558 3.60592 0
M  V30 2881 C 266.042 -3.67931 3.87983 0
M  V30 2882 C 267.342 -1.75597 4.91897 0
M  V30 2883 H 269.036 -0.740374 2.90101 0
M  V30 2884 H 266.582 -0.354696 1.39563 0
M  V30 2885 H 268.535 -3.17389 2.77205 0
M  V30 2886 H 267.259 -2.86475 1.56843 0
M  V30 2887 H 265.918 -1.61067 3.29322 0
M  V30 2888 H 265.566 -4.06462 2.96306 0
M  V30 2889 H 265.266 -3.58817 4.65322 0
M  V30 2890 H 266.79 -4.41356 4.21945 0
M  V30 2891 H 268.204 -2.37364 5.21854 0
M  V30 2892 H 266.601 -1.77272 5.73319 0
M  V30 2893 H 267.671 -0.714451 4.79608 0
M  V30 2894 N 269.014 -1.53014 -0.377408 0
M  V30 2895 C 270.254 -1.70318 -1.1301 0
M  V30 2896 C 270.618 -0.439538 -1.86901 0
M  V30 2897 O 271.819 -0.489095 -2.64313 0
M  V30 2898 C 270.09 -2.91125 -2.07319 0
M  V30 2899 S 271.649 -3.29075 -2.90268 0
M  V30 2900 H 268.467 -0.599426 -0.382374 0
M  V30 2901 H 271.069 -1.91089 -0.412933 0
M  V30 2902 H 269.773 -3.81303 -1.51777 0
M  V30 2903 H 269.304 -2.7272 -2.83526 0
M  V30 2904 H 271.319 -2.80165 -4.09539 0
M  V30 2905 N 270.492 0.636531 -1.44174 0
M  V30 2906 C 271.402 1.77754 -1.53103 0
M  V30 2907 C 272.418 1.68928 -0.417034 0
M  V30 2908 O 273.594 1.89801 -0.6736 0
M  V30 2909 C 270.659 3.14115 -1.46741 0
M  V30 2910 C 269.72 3.34612 -2.68948 0
M  V30 2911 C 268.953 4.64467 -2.6288 0
M  V30 2912 O 269.176 5.44919 -1.68581 0
M  V30 2913 O 268.11 4.87049 -3.53648 0
M  V30 2914 H 271.936 1.73174 -2.49489 0
M  V30 2915 H 269.521 0.79709 -1.2636 0
M  V30 2916 H 271.403 3.95412 -1.45696 0
M  V30 2917 H 270.078 3.19249 -0.534975 0
M  V30 2918 H 268.985 2.53014 -2.75562 0
M  V30 2919 H 270.318 3.34336 -3.61221 0
M  V30 2920 N 271.97 1.30982 0.876444 0
M  V30 2921 C 273.218 1.20058 1.62575 0
M  V30 2922 C 273.539 -0.242947 1.93481 0
M  V30 2923 O 272.809 -1.1619 1.57724 0
M  V30 2924 H 271.389 0.44135 0.602677 0
M  V30 2925 H 274.051 1.64222 1.04962 0
M  V30 2926 H 273.147 1.76762 2.57219 0
M  V30 2927 N 273.449 -1.08991 1.13837 0
M  V30 2928 C 274.379 -2.17771 0.842507 0
M  V30 2929 C 275.36 -1.6892 -0.20001 0
M  V30 2930 O 276.545 -1.94113 -0.0579731 0
M  V30 2931 C 273.675 -3.4589 0.312644 0
M  V30 2932 C 272.629 -4.08099 1.28992 0
M  V30 2933 C 271.955 -5.31098 0.619623 0
M  V30 2934 C 273.255 -4.50077 2.65005 0
M  V30 2935 H 274.949 -2.42777 1.75213 0
M  V30 2936 H 272.495 -1.16682 0.843875 0
M  V30 2937 H 274.448 -4.21297 0.0933043 0
M  V30 2938 H 273.172 -3.20419 -0.632382 0
M  V30 2939 H 271.831 -3.34717 1.49533 0
M  V30 2940 H 271.479 -5.0191 -0.33102 0
M  V30 2941 H 271.179 -5.73674 1.27167 0
M  V30 2942 H 272.703 -6.09224 0.409669 0
M  V30 2943 H 274.117 -5.16688 2.48407 0
M  V30 2944 H 272.514 -5.03553 3.26427 0
M  V30 2945 H 273.584 -3.62257 3.22332 0
M  V30 2946 N 274.927 -0.932562 -1.27047 0
M  V30 2947 C 276.173 -0.585913 -1.94778 0
M  V30 2948 C 276.528 0.864142 -1.71902 0
M  V30 2949 O 275.821 1.60894 -1.04037 0
M  V30 2950 C 276.015 -0.853713 -3.47054 0
M  V30 2951 C 275.844 -2.32825 -3.84737 0
M  V30 2952 C 274.614 -2.98184 -4.07939 0
M  V30 2953 C 276.812 -3.30612 -3.93954 0
M  V30 2954 N 274.794 -4.3574 -4.3244 0
M  V30 2955 C 276.165 -4.53395 -4.22887 0
M  V30 2956 C 278.22 -3.25755 -3.76548 0
M  V30 2957 C 276.923 -5.71927 -4.36224 0
M  V30 2958 C 278.949 -4.43604 -3.91113 0
M  V30 2959 C 278.311 -5.65166 -4.20437 0
M  V30 2960 H 274.41 -0.264617 -0.735868 0
M  V30 2961 H 276.994 -1.20019 -1.53309 0
M  V30 2962 H 275.165 -0.268557 -3.8747 0
M  V30 2963 H 276.897 -0.469202 -4.01971 0
M  V30 2964 H 273.652 -2.48835 -4.02961 0
M  V30 2965 H 274.076 -5.06915 -4.48738 0
M  V30 2966 H 278.718 -2.32835 -3.52913 0
M  V30 2967 H 276.436 -6.65308 -4.58683 0
M  V30 2968 H 280.022 -4.41368 -3.79059 0
M  V30 2969 H 278.902 -6.54836 -4.31462 0
M  V30 2970 N 276.405 1.4127 -0.698611 0
M  V30 2971 C 277.63 2.06024 -0.238512 0
M  V30 2972 C 278.055 1.5224 1.10475 0
M  V30 2973 O 277.413 0.650623 1.69223 0
M  V30 2974 C 277.461 3.59988 -0.209952 0
M  V30 2975 O 276.565 4.04282 0.814235 0
M  V30 2976 H 275.906 0.653829 -0.115775 0
M  V30 2977 H 278.436 1.8098 -0.954326 0
M  V30 2978 H 278.446 4.07979 -0.0418436 0
M  V30 2979 H 277.121 3.98503 -1.1903 0
M  V30 2980 H 275.698 3.6779 0.615234 0
M  V30 2981 N 277.883 0.443576 1.51229 0
M  V30 2982 C 278.833 -0.382787 2.24764 0
M  V30 2983 C 279.817 -0.984836 1.27239 0
M  V30 2984 O 281.009 -0.901943 1.52296 0
M  V30 2985 C 278.138 -1.47989 3.09765 0
M  V30 2986 C 277.224 -0.886931 4.14722 0
M  V30 2987 N 277.615 -0.0237103 5.05794 0
M  V30 2988 C 275.913 -1.15385 4.30816 0
M  V30 2989 C 276.614 0.309971 5.80874 0
M  V30 2990 N 275.59 -0.307989 5.42727 0
M  V30 2991 H 279.392 0.282624 2.92538 0
M  V30 2992 H 276.906 0.256027 1.60369 0
M  V30 2993 H 278.903 -2.08482 3.61027 0
M  V30 2994 H 277.563 -2.14758 2.43535 0
M  V30 2995 H 278.574 0.34318 5.16762 0
M  V30 2996 H 275.251 -1.81857 3.75812 0
M  V30 2997 H 276.641 1.01279 6.64223 0
M  V30 2998 N 279.361 -1.56624 0.175154 0
M  V30 2999 C 280.586 -2.01813 -0.478137 0
M  V30 3000 C 281.011 -1.05457 -1.55757 0
M  V30 3001 O 280.369 -0.0347439 -1.81267 0
M  V30 3002 C 280.417 -3.45581 -1.02987 0
M  V30 3003 O 279.521 -3.52305 -2.14371 0
M  V30 3004 H 278.862 -0.65413 -0.114059 0
M  V30 3005 H 281.392 -2.02673 0.280173 0
M  V30 3006 H 281.402 -3.84965 -1.35151 0
M  V30 3007 H 280.077 -4.1521 -0.239556 0
M  V30 3008 H 278.654 -3.24783 -1.83222 0
M  V30 3009 N 280.839 0.0985539 -1.57292 0
M  V30 3010 C 282.069 0.815135 -1.8984 0
M  V30 3011 C 282.477 1.7297 -0.766679 0
M  V30 3012 O 281.82 1.81698 0.270483 0
M  V30 3013 C 281.882 1.6842 -3.17608 0
M  V30 3014 C 281.546 0.94182 -4.4719 0
M  V30 3015 C 282.543 0.273212 -5.19182 0
M  V30 3016 C 280.228 0.916927 -4.9386 0
M  V30 3017 C 282.222 -0.410361 -6.36078 0
M  V30 3018 C 279.909 0.229567 -6.10669 0
M  V30 3019 C 280.907 -0.432902 -6.81627 0
M  V30 3020 O 280.595 -1.10925 -7.9621 0
M  V30 3021 H 280.327 0.238501 -0.632529 0
M  V30 3022 H 282.881 0.0812659 -2.05239 0
M  V30 3023 H 281.111 2.46022 -2.98345 0
M  V30 3024 H 282.8 2.27704 -3.36015 0
M  V30 3025 H 283.566 0.283927 -4.84168 0
M  V30 3026 H 279.445 1.42201 -4.3852 0
M  V30 3027 H 282.989 -0.928013 -6.914 0
M  V30 3028 H 278.886 0.216686 -6.45136 0
M  V30 3029 H 279.654 -1.01579 -8.12172 0
M  V30 3030 N 282.317 1.53212 0.369288 0
M  V30 3031 C 283.264 1.79388 1.45219 0
M  V30 3032 C 284.234 0.638059 1.53356 0
M  V30 3033 O 285.419 0.879852 1.69302 0
M  V30 3034 C 282.559 1.98623 2.82211 0
M  V30 3035 C 281.672 3.26337 2.8307 0
M  V30 3036 C 280.807 3.35779 4.11614 0
M  V30 3037 C 279.846 4.5754 4.06601 0
M  V30 3038 N 278.983 4.64155 5.26787 0
M  V30 3039 H 283.823 2.71794 1.22198 0
M  V30 3040 H 281.36 1.34642 0.592444 0
M  V30 3041 H 283.318 2.07761 3.61789 0
M  V30 3042 H 281.948 1.09558 3.03639 0
M  V30 3043 H 281 3.26171 1.95747 0
M  V30 3044 H 282.312 4.15988 2.75237 0
M  V30 3045 H 281.466 3.44208 4.99606 0
M  V30 3046 H 280.205 2.44137 4.22195 0
M  V30 3047 H 279.21 4.49215 3.16996 0
M  V30 3048 H 280.435 5.50519 3.97625 0
M  V30 3049 H 278.381 3.75413 5.3796 0
M  V30 3050 H 278.298 5.47706 5.21109 0
M  V30 3051 H 279.566 4.76863 6.16621 0
M  V30 3052 N 283.795 -0.628877 1.44509 0
M  V30 3053 C 285.041 -1.39045 1.47629 0
M  V30 3054 C 285.374 -1.93892 0.109343 0
M  V30 3055 O 284.649 -1.7379 -0.87334 0
M  V30 3056 C 284.932 -2.55408 2.53848 0
M  V30 3057 C 284.785 -2.05896 3.99909 0
M  V30 3058 C 286.104 -3.5759 2.56549 0
M  V30 3059 H 283.223 -0.504232 0.537512 0
M  V30 3060 H 285.865 -0.710854 1.76201 0
M  V30 3061 H 284.015 -3.13384 2.29615 0
M  V30 3062 H 285.687 -1.52734 4.35282 0
M  V30 3063 H 283.93 -1.37061 4.11578 0
M  V30 3064 H 284.601 -2.89681 4.69882 0
M  V30 3065 H 287.077 -3.09419 2.78207 0
M  V30 3066 H 285.953 -4.36527 3.32769 0
M  V30 3067 H 286.214 -4.11808 1.60832 0
M  V30 3068 N 285.273 -1.31445 -0.869486 0
M  V30 3069 C 286.498 -1.24256 -1.66058 0
M  V30 3070 C 286.923 0.188928 -1.87149 0
M  V30 3071 O 286.281 1.13522 -1.4136 0
M  V30 3072 C 286.329 -1.9924 -3.00559 0
M  V30 3073 O 285.433 -1.33007 -3.90362 0
M  V30 3074 H 284.774 -0.428973 -0.506831 0
M  V30 3075 H 287.304 -1.73521 -1.08404 0
M  V30 3076 H 287.314 -2.08854 -3.50491 0
M  V30 3077 H 285.989 -3.03342 -2.84528 0
M  V30 3078 H 284.566 -1.31848 -3.48813 0
M  V30 3079 N 286.751 1.08385 -1.14413 0
M  V30 3080 C 287.699 2.17406 -0.826888 0
M  V30 3081 C 288.693 1.6827 0.195312 0
M  V30 3082 O 289.899 1.79927 0.0513892 0
M  V30 3083 H 286.274 0.70934 -0.249681 0
M  V30 3084 H 288.245 2.41388 -1.75426 0
M  V30 3085 C 286.994 3.46215 -0.320979 0
M  V30 3086 H 286.317 3.84401 -1.0989 0
M  V30 3087 H 287.757 4.23777 -0.137549 0
M  V30 3088 C 286.216 3.23067 0.955472 0
M  V30 3089 O 286.746 3.4668 2.02918 0
M  V30 3090 N 284.952 2.7661 0.890798 0
M  V30 3091 H 284.499 2.57594 0.0168815 0
M  V30 3092 H 284.457 2.61501 1.74542 0
M  V30 3093 N 288.23 0.939286 1.26551 0
M  V30 3094 C 289.46 0.601663 1.97645 0
M  V30 3095 C 289.868 -0.827206 1.70159 0
M  V30 3096 O 289.211 -1.56291 0.965338 0
M  V30 3097 C 289.273 0.761725 3.51337 0
M  V30 3098 C 288.937 2.16487 4.0247 0
M  V30 3099 C 289.934 3.14016 4.14355 0
M  V30 3100 C 287.619 2.48494 4.36527 0
M  V30 3101 C 289.613 4.41654 4.59587 0
M  V30 3102 C 287.3 3.76364 4.81449 0
M  V30 3103 C 288.298 4.72758 4.92939 0
M  V30 3104 O 287.986 5.98352 5.36871 0
M  V30 3105 H 287.718 0.225758 0.637189 0
M  V30 3106 H 290.272 1.26178 1.62075 0
M  V30 3107 H 288.502 0.0444808 3.86674 0
M  V30 3108 H 290.191 0.427442 4.03643 0
M  V30 3109 H 290.957 2.90613 3.8829 0
M  V30 3110 H 286.836 1.74202 4.26819 0
M  V30 3111 H 290.38 5.16896 4.68471 0
M  V30 3112 H 286.277 3.99582 5.06956 0
M  V30 3113 H 287.045 6.01507 5.55096 0
M  V30 3114 N 289.708 -1.40897 0.706093 0
M  V30 3115 C 290.933 -2.05895 0.249435 0
M  V30 3116 C 291.358 -1.52823 -1.09666 0
M  V30 3117 O 290.716 -0.659589 -1.68876 0
M  V30 3118 C 290.764 -3.59872 0.22904 0
M  V30 3119 O 289.868 -4.04708 -0.792784 0
M  V30 3120 H 289.209 -0.653206 0.119241 0
M  V30 3121 H 291.739 -1.80471 0.96391 0
M  V30 3122 H 291.749 -4.07951 0.0634791 0
M  V30 3123 H 290.424 -3.97866 1.21141 0
M  V30 3124 H 289.001 -3.68111 -0.59572 0
M  V30 3125 N 291.186 -0.45159 -1.50991 0
M  V30 3126 C 292.602 -0.104647 -1.59257 0
M  V30 3127 C 292.802 1.38728 -1.4614 0
M  V30 3128 O 291.858 2.15866 -1.30989 0
M  V30 3129 C 293.171 -0.637468 -2.93865 0
M  V30 3130 C 294.719 -0.599166 -3.07212 0
M  V30 3131 C 295.194 -1.1092 -4.44366 0
M  V30 3132 N 296.685 -1.06778 -4.50725 0
M  V30 3133 C 297.42 -1.43314 -5.55201 0
M  V30 3134 N 296.916 -1.87204 -6.67028 0
M  V30 3135 N 298.709 -1.3504 -5.45638 0
M  V30 3136 H 290.86 -1.42214 -1.57762 0
M  V30 3137 H 293.123 -0.586921 -0.744465 0
M  V30 3138 H 292.829 -1.68187 -3.08879 0
M  V30 3139 H 292.703 -0.0702139 -3.77135 0
M  V30 3140 H 295.09 0.436277 -2.91857 0
M  V30 3141 H 295.171 -1.20299 -2.25747 0
M  V30 3142 H 294.815 -2.14318 -4.60467 0
M  V30 3143 H 294.745 -0.481773 -5.24392 0
M  V30 3144 H 297.236 -0.745643 -3.70471 0
M  V30 3145 H 297.549 -2.13282 -7.42786 0
M  V30 3146 H 295.894 -1.91142 -6.68199 0
M  V30 3147 H 299.085 -1.00607 -4.57161 0
M  V30 3148 H 299.258 -1.63841 -6.26945 0
M  V30 3149 N 292.664 1.56529 -0.183458 0
M  V30 3150 C 293.912 1.96855 0.457452 0
M  V30 3151 C 294.233 1.07104 1.62953 0
M  V30 3152 O 293.503 0.139887 1.954 0
M  V30 3153 H 292.083 0.72693 0.171992 0
M  V30 3154 H 294.745 1.93056 -0.267476 0
M  V30 3155 H 293.841 3.01423 0.809368 0
M  V30 3156 N 294.142 -0.090211 1.57342 0
M  V30 3157 C 295.367 -0.810082 1.90925 0
M  V30 3158 C 295.792 -1.71248 0.778187 0
M  V30 3159 O 295.15 -1.79278 -0.269991 0
M  V30 3160 C 295.198 -1.59529 3.23393 0
M  V30 3161 O 294.302 -2.70461 3.11327 0
M  V30 3162 H 293.643 -0.222231 0.625707 0
M  V30 3163 H 296.173 -0.0639716 2.045 0
M  V30 3164 H 296.183 -1.97847 3.5682 0
M  V30 3165 H 294.858 -0.933055 4.05299 0
M  V30 3166 H 293.435 -2.35135 2.89423 0
M  V30 3167 N 295.62 -1.53406 -0.361157 0
M  V30 3168 C 296.868 -1.69467 -1.10115 0
M  V30 3169 C 297.189 -0.451352 -1.89705 0
M  V30 3170 O 296.459 0.534636 -1.88463 0
M  V30 3171 H 295.039 -0.624749 -0.409508 0
M  V30 3172 H 297.701 -1.90609 -0.406699 0
M  V30 3173 H 296.797 -2.55774 -1.78847 0
M  V30 3174 N 297.098 0.621204 -1.44841 0
M  V30 3175 C 298.514 0.94048 -1.28946 0
M  V30 3176 C 298.714 2.00154 -0.23249 0
M  V30 3177 O 297.77 2.49651 0.378237 0
M  V30 3178 C 299.083 1.39433 -2.66419 0
M  V30 3179 C 300.631 1.50927 -2.74208 0
M  V30 3180 C 301.106 1.99692 -4.12174 0
M  V30 3181 N 302.597 2.06947 -4.144 0
M  V30 3182 C 303.332 2.45871 -5.1801 0
M  V30 3183 N 302.828 2.83862 -6.31977 0
M  V30 3184 N 304.621 2.46092 -5.05366 0
M  V30 3185 H 296.772 -0.0803548 -2.12248 0
M  V30 3186 H 299.035 0.0266913 -0.947624 0
M  V30 3187 H 298.741 0.688925 -3.44887 0
M  V30 3188 H 298.615 2.36347 -2.93973 0
M  V30 3189 H 301.002 2.20561 -1.96053 0
M  V30 3190 H 301.083 0.523627 -2.50383 0
M  V30 3191 H 300.727 1.30649 -4.90809 0
M  V30 3192 H 300.657 2.99146 -4.33381 0
M  V30 3193 H 303.148 1.80232 -3.32152 0
M  V30 3194 H 303.461 3.12405 -7.0684 0
M  V30 3195 H 301.806 2.8159 -6.35399 0
M  V30 3196 H 304.997 2.1581 -4.15384 0
M  V30 3197 H 305.17 2.76102 -5.86235 0
M  V30 3198 N 298.576 1.31904 0.862503 0
M  V30 3199 C 299.816 1.23324 1.63004 0
M  V30 3200 C 300.18 -0.203724 1.90916 0
M  V30 3201 O 301.381 -0.413132 2.65606 0
M  V30 3202 C 299.652 2.06116 2.91978 0
M  V30 3203 S 301.211 2.14478 3.82812 0
M  V30 3204 H 298.029 0.439117 0.559193 0
M  V30 3205 H 300.631 1.66658 1.02202 0
M  V30 3206 H 299.335 3.09593 2.69407 0
M  V30 3207 H 298.866 1.6353 3.57801 0
M  V30 3208 H 300.881 1.28855 4.79177 0
M  V30 3209 N 300.054 -1.07777 1.14986 0
M  V30 3210 C 301.303 -1.79669 0.916617 0
M  V30 3211 C 301.616 -1.87474 -0.557917 0
M  V30 3212 O 302.822 -2.55845 -0.908617 0
M  V30 3213 C 301.278 -3.22848 1.59051 0
M  V30 3214 C 300.886 -3.23257 3.10176 0
M  V30 3215 C 302.63 -3.99379 1.43864 0
M  V30 3216 C 300.537 -4.61063 3.70372 0
M  V30 3217 H 299.467 -0.673349 0.33929 0
M  V30 3218 H 302.118 -1.21003 1.37951 0
M  V30 3219 H 300.5 -3.8168 1.0553 0
M  V30 3220 H 301.674 -2.74095 3.70417 0
M  V30 3221 H 299.989 -2.60222 3.25074 0
M  V30 3222 H 302.586 -5.0122 1.86232 0
M  V30 3223 H 302.929 -4.14511 0.385564 0
M  V30 3224 H 303.462 -3.47032 1.94457 0
M  V30 3225 H 300.201 -4.51135 4.7556 0
M  V30 3226 H 299.721 -5.1048 3.14913 0
M  V30 3227 H 301.4 -5.30034 3.71043 0
M  V30 3228 N 301.532 -0.945985 -1.26051 0
M  V30 3229 C 302.464 -0.416662 -2.25381 0
M  V30 3230 C 303.477 0.462712 -1.56086 0
M  V30 3231 O 304.666 0.272383 -1.7641 0
M  V30 3232 C 301.766 0.419812 -3.3629 0
M  V30 3233 C 300.939 -0.444531 -4.35135 0
M  V30 3234 C 299.998 0.332305 -5.2515 0
M  V30 3235 O 299.024 -0.266324 -5.68577 0
M  V30 3236 N 300.226 1.62763 -5.57215 0
M  V30 3237 H 302.991 -1.27059 -2.71433 0
M  V30 3238 H 300.552 -0.815392 -1.39868 0
M  V30 3239 H 302.544 0.947013 -3.93464 0
M  V30 3240 H 301.114 1.17456 -2.89694 0
M  V30 3241 H 300.334 -1.15291 -3.76964 0
M  V30 3242 H 301.622 -1.03478 -4.98166 0
M  V30 3243 H 301.02 2.13603 -5.23823 0
M  V30 3244 H 299.577 2.10097 -6.17011 0
M  V30 3245 N 303.011 1.40521 -0.713556 0
M  V30 3246 C 303.944 2.28198 -0.00881422 0
M  V30 3247 C 304.922 1.43227 0.769735 0
M  V30 3248 O 306.106 1.72641 0.756799 0
M  V30 3249 C 303.233 3.23758 0.994899 0
M  V30 3250 C 302.279 4.25391 0.3074 0
M  V30 3251 S 303.112 5.26765 -0.963247 0
M  V30 3252 C 304.268 6.25888 0.0384143 0
M  V30 3253 H 304.501 2.87622 -0.752407 0
M  V30 3254 H 302.034 1.45925 -0.504502 0
M  V30 3255 H 303.992 3.79341 1.56879 0
M  V30 3256 H 302.653 2.63396 1.71118 0
M  V30 3257 H 301.846 4.92596 1.0661 0
M  V30 3258 H 301.448 3.73497 -0.193879 0
M  V30 3259 H 303.74 6.71683 0.885912 0
M  V30 3260 H 304.683 7.05552 -0.60019 0
M  V30 3261 H 305.091 5.63072 0.401233 0
M  V30 3262 N 304.489 0.459591 1.5075 0
M  V30 3263 C 305.735 -0.091664 2.03193 0
M  V30 3264 C 306.09 -1.38432 1.3362 0
M  V30 3265 O 305.383 -1.86257 0.449322 0
M  V30 3266 C 305.577 -0.342866 3.55752 0
M  V30 3267 C 305.406 0.923888 4.40107 0
M  V30 3268 C 304.176 1.46388 4.83631 0
M  V30 3269 C 306.374 1.81617 4.81165 0
M  V30 3270 N 304.356 2.68086 5.52271 0
M  V30 3271 C 305.727 2.87907 5.49099 0
M  V30 3272 C 307.782 1.82793 4.63132 0
M  V30 3273 C 306.485 3.95347 6.0091 0
M  V30 3274 C 308.511 2.89182 5.15876 0
M  V30 3275 C 307.873 3.94191 5.83774 0
M  V30 3276 H 303.972 0.00619247 0.781975 0
M  V30 3277 H 306.556 0.625233 1.84388 0
M  V30 3278 H 304.727 -1.0288 3.74527 0
M  V30 3279 H 306.459 -0.887445 3.9485 0
M  V30 3280 H 303.214 1.01466 4.62603 0
M  V30 3281 H 303.638 3.29857 5.91205 0
M  V30 3282 H 308.28 1.0293 4.1008 0
M  V30 3283 H 305.998 4.76035 6.53006 0
M  V30 3284 H 309.584 2.91061 5.0376 0
M  V30 3285 H 308.464 4.75161 6.23853 0
M  V30 3286 N 305.967 -1.56429 0.191757 0
M  V30 3287 C 307.214 -1.97485 -0.447891 0
M  V30 3288 C 307.542 -1.07852 -1.61859 0
M  V30 3289 O 306.797 -0.116903 -1.95351 0
M  V30 3290 C 307.096 -3.44449 -0.953384 0
M  V30 3291 C 306.762 -4.50781 0.103586 0
M  V30 3292 C 305.424 -4.79584 0.394023 0
M  V30 3293 C 307.776 -5.1471 0.819946 0
M  V30 3294 C 305.104 -5.69607 1.40585 0
M  V30 3295 C 307.456 -6.05827 1.8209 0
M  V30 3296 C 306.12 -6.32987 2.11857 0
M  V30 3297 H 305.39 -0.722648 -0.163895 0
M  V30 3298 H 308.037 -1.89322 0.28802 0
M  V30 3299 H 306.342 -3.49666 -1.76751 0
M  V30 3300 H 308.039 -3.73569 -1.45765 0
M  V30 3301 H 304.629 -4.28394 -0.132951 0
M  V30 3302 H 308.813 -4.92552 0.608789 0
M  V30 3303 H 304.069 -5.88926 1.64243 0
M  V30 3304 H 308.243 -6.54424 2.38123 0
M  V30 3305 H 305.87 -7.02544 2.90407 0
M  V30 3306 N 307.445 0.0818655 -1.57387 0
M  V30 3307 C 308.722 0.815343 -1.77796 0
M  V30 3308 C 309.102 1.96289 -0.77679 0
M  V30 3309 O 308.45 2.27691 0.192106 0
M  V30 3310 C 308.66 1.29765 -3.23978 0
M  V30 3311 C 310.008 1.7351 -3.8753 0
M  V30 3312 O 311.032 1.39356 -3.27808 0
M  V30 3313 O 309.891 2.36708 -4.92576 0
M  V30 3314 H 306.985 0.389914 -0.729312 0
M  V30 3315 H 309.531 0.0627213 -1.69584 0
M  V30 3316 H 308.303 0.47608 -3.88393 0
M  V30 3317 H 307.926 2.11189 -3.36875 0
M  V30 3318 N 308.923 1.53595 0.353017 0
M  V30 3319 C 310.148 1.7462 1.11904 0
M  V30 3320 C 310.573 0.479721 1.8188 0
M  V30 3321 O 309.931 -0.567066 1.72204 0
M  V30 3322 C 309.979 2.92029 2.11545 0
M  V30 3323 O 309.083 2.61516 3.18878 0
M  V30 3324 H 308.424 0.579531 0.324099 0
M  V30 3325 H 310.954 2.00525 0.406301 0
M  V30 3326 H 310.964 3.18551 2.5493 0
M  V30 3327 H 309.639 3.83888 1.60008 0
M  V30 3328 H 308.216 2.45852 2.80377 0
M  V30 3329 N 310.401 -0.613514 1.45168 0
M  V30 3330 C 311.364 -1.7065 1.53007 0
M  V30 3331 C 312.364 -1.5548 0.410184 0
M  V30 3332 O 313.554 -1.60656 0.673455 0
M  V30 3333 C 310.686 -3.09875 1.42093 0
M  V30 3334 H 311.879 -1.65068 2.50385 0
M  V30 3335 H 309.432 -0.828728 1.32521 0
M  V30 3336 H 310.167 -3.21039 0.458769 0
M  V30 3337 H 309.952 -3.22293 2.23315 0
M  V30 3338 H 311.442 -3.895 1.50598 0
M  V30 3339 N 311.879 -1.3236 -0.855495 0
M  V30 3340 C 312.811 -1.17052 -1.97057 0
M  V30 3341 C 313.824 -0.10574 -1.62456 0
M  V30 3342 O 315.013 -0.354619 -1.74942 0
M  V30 3343 C 312.113 -0.769305 -3.30053 0
M  V30 3344 C 311.286 -1.9222 -3.929 0
M  V30 3345 C 310.345 -1.50466 -5.04228 0
M  V30 3346 O 309.371 -2.21655 -5.24269 0
M  V30 3347 N 310.573 -0.400209 -5.79119 0
M  V30 3348 H 313.338 -2.13103 -2.1073 0
M  V30 3349 H 310.899 -1.24885 -1.0303 0
M  V30 3350 H 312.891 -0.472407 -4.01933 0
M  V30 3351 H 311.461 0.100025 -3.1244 0
M  V30 3352 H 310.681 -2.38563 -3.13817 0
M  V30 3353 H 311.969 -2.69403 -4.31624 0
M  V30 3354 H 311.367 0.192319 -5.65373 0
M  V30 3355 H 309.924 -0.162912 -6.51596 0
M  V30 3356 N 313.357 1.07166 -1.15556 0
M  V30 3357 C 314.605 1.79443 -0.929764 0
M  V30 3358 C 314.926 1.87246 0.544414 0
M  V30 3359 O 314.196 1.37473 1.39564 0
M  V30 3360 H 312.776 0.664625 -0.341003 0
M  V30 3361 H 315.438 1.29499 -1.45657 0
M  V30 3362 H 314.534 2.81832 -1.34079 0
M  V30 3363 N 314.835 0.952656 1.25548 0
M  V30 3364 C 315.783 0.462354 2.27958 0
M  V30 3365 C 316.777 -0.46634 1.62855 0
M  V30 3366 O 317.983 -0.343287 1.76696 0
M  V30 3367 H 314.358 0.13101 0.7405 0
M  V30 3368 H 316.329 1.33839 2.66702 0
M  V30 3369 C 315.078 -0.24628 3.46827 0
M  V30 3370 H 314.401 0.459192 3.97154 0
M  V30 3371 H 315.841 -0.553393 4.20373 0
M  V30 3372 C 314.3 -1.4681 3.0323 0
M  V30 3373 O 314.83 -2.56591 3.09069 0
M  V30 3374 N 313.036 -1.32874 2.58443 0
M  V30 3375 H 312.583 -0.435536 2.53891 0
M  V30 3376 H 312.541 -2.14742 2.29637 0
M  V30 3377 N 316.313 -1.40141 0.720998 0
M  V30 3378 C 317.724 -1.83678 0.334553 0
M  V30 3379 C 318.075 -1.6027 -1.13173 0
M  V30 3380 O 317.2 -1.08643 -1.87152 0
M  V30 3381 C 317.795 -3.33437 0.600437 0
M  V30 3382 C 316.354 -3.75447 0.267642 0
M  V30 3383 C 315.501 -2.63296 0.870097 0
M  V30 3384 H 318.452 -1.29331 0.919732 0
M  V30 3385 H 318.473 -3.80269 -0.132517 0
M  V30 3386 H 317.985 -3.50442 1.66768 0
M  V30 3387 H 316.086 -3.64035 -0.794329 0
M  V30 3388 H 316.199 -4.73344 0.74042 0
M  V30 3389 H 314.563 -2.52954 0.297739 0
M  V30 3390 H 315.346 -2.83112 1.94172 0
M  V30 3391 N 317.792 -0.46758 -1.50504 0
M  V30 3392 C 318.74 0.342482 -2.30065 0
M  V30 3393 C 319.734 0.993596 -1.37201 0
M  V30 3394 O 320.94 0.925102 -1.54408 0
M  V30 3395 H 317.315 0.129283 -0.740803 0
M  V30 3396 H 319.286 -0.34899 -2.96352 0
M  V30 3397 C 318.035 1.4139 -3.17654 0
M  V30 3398 H 317.358 0.922264 -3.89017 0
M  V30 3399 H 318.798 1.95335 -3.76325 0
M  V30 3400 C 317.257 2.4139 -2.35016 0
M  V30 3401 O 317.787 3.46586 -2.03079 0
M  V30 3402 N 315.993 2.13021 -1.97662 0
M  V30 3403 H 315.54 1.27499 -2.23834 0
M  V30 3404 H 315.498 2.80164 -1.42673 0
M  V30 3405 N 319.27 1.56325 -0.20005 0
M  V30 3406 C 320.18 2.22931 0.730668 0
M  V30 3407 C 321.196 1.22997 1.23076 0
M  V30 3408 O 322.372 1.55748 1.27689 0
M  V30 3409 C 319.437 2.87948 1.93098 0
M  V30 3410 C 318.498 4.03166 1.47497 0
M  V30 3411 C 317.731 4.65073 2.61807 0
M  V30 3412 O 317.954 4.25913 3.79413 0
M  V30 3413 O 316.888 5.54452 2.34237 0
M  V30 3414 H 320.714 3.03084 0.193391 0
M  V30 3415 H 318.299 1.49371 0.0294621 0
M  V30 3416 H 320.181 3.29063 2.6324 0
M  V30 3417 H 318.856 2.10771 2.45677 0
M  V30 3418 H 317.763 3.66664 0.742201 0
M  V30 3419 H 319.096 4.82022 0.995796 0
M  V30 3420 N 320.748 -0.0735177 1.57428 0
M  V30 3421 C 321.658 -1.10547 2.06922 0
M  V30 3422 C 322.674 -1.42506 0.998402 0
M  V30 3423 O 323.85 -1.52717 1.31299 0
M  V30 3424 C 320.915 -2.40019 2.50184 0
M  V30 3425 C 319.976 -2.15046 3.71556 0
M  V30 3426 C 319.209 -3.38345 4.12745 0
M  V30 3427 O 319.432 -4.47399 3.53822 0
M  V30 3428 O 318.366 -3.2666 5.05546 0
M  V30 3429 H 322.192 -0.715013 2.95163 0
M  V30 3430 H 319.777 -0.287531 1.46607 0
M  V30 3431 H 321.659 -3.16218 2.78539 0
M  V30 3432 H 320.334 -2.78447 1.65072 0
M  V30 3433 H 319.241 -1.36558 3.48285 0
M  V30 3434 H 320.574 -1.81499 4.57514 0
M  V30 3435 N 322.226 -1.5378 -0.344866 0
M  V30 3436 C 323.472 -1.71216 -1.08687 0
M  V30 3437 C 323.805 -0.473281 -1.88345 0
M  V30 3438 O 323.08 0.52968 -1.87149 0
M  V30 3439 C 323.363 -2.97486 -2.02914 0
M  V30 3440 C 323.216 -4.31579 -1.26727 0
M  V30 3441 C 324.535 -3.19422 -3.0275 0
M  V30 3442 H 321.654 -0.62301 -0.393735 0
M  V30 3443 H 324.296 -1.8645 -0.365563 0
M  V30 3444 H 322.446 -2.84629 -2.64421 0
M  V30 3445 H 324.118 -4.56284 -0.67845 0
M  V30 3446 H 322.361 -4.30049 -0.569273 0
M  V30 3447 H 323.032 -5.16106 -1.95803 0
M  V30 3448 H 325.508 -3.316 -2.51357 0
M  V30 3449 H 324.384 -4.09169 -3.65885 0
M  V30 3450 H 324.645 -2.35656 -3.74057 0
M  V30 3451 N 323.704 0.605807 -1.45491 0
M  V30 3452 C 324.667 1.69836 -1.5391 0
M  V30 3453 C 325.667 1.55261 -0.418424 0
M  V30 3454 O 326.857 1.60296 -0.681965 0
M  V30 3455 C 323.989 3.09117 -1.43734 0
M  V30 3456 H 325.182 1.63738 -2.51257 0
M  V30 3457 H 322.735 0.821689 -1.32959 0
M  V30 3458 H 323.47 3.20791 -0.475788 0
M  V30 3459 H 323.255 3.21104 -2.25021 0
M  V30 3460 H 324.745 3.88696 -1.52661 0
M  V30 3461 N 325.182 1.32811 0.848464 0
M  V30 3462 C 326.598 1.11937 1.13764 0
M  V30 3463 C 326.798 -0.0960789 2.01271 0
M  V30 3464 O 325.854 -0.779165 2.40178 0
M  V30 3465 C 327.167 2.402 1.809 0
M  V30 3466 C 328.715 2.46016 1.93508 0
M  V30 3467 C 329.19 3.74215 2.64059 0
M  V30 3468 N 330.681 3.75232 2.71579 0
M  V30 3469 C 331.416 4.71134 3.26833 0
M  V30 3470 N 330.912 5.77406 3.8285 0
M  V30 3471 N 332.705 4.58623 3.24995 0
M  V30 3472 H 324.856 2.1073 0.265855 0
M  V30 3473 H 327.119 0.930671 0.180431 0
M  V30 3474 H 326.825 3.29093 1.24058 0
M  V30 3475 H 326.699 2.51628 2.81004 0
M  V30 3476 H 329.086 1.57577 2.49506 0
M  V30 3477 H 329.167 2.38536 0.923811 0
M  V30 3478 H 328.811 4.63031 2.08722 0
M  V30 3479 H 328.741 3.78968 3.65637 0
M  V30 3480 H 331.232 2.98423 2.31845 0
M  V30 3481 H 331.545 6.46632 4.23187 0
M  V30 3482 H 329.89 5.81152 3.81165 0
M  V30 3483 H 333.081 3.74762 2.80484 0
M  V30 3484 H 333.254 5.33535 3.67756 0
M  V30 3485 N 326.66 -1.06551 1.16123 0
M  V30 3486 C 327.907 -1.79302 0.941126 0
M  V30 3487 C 328.235 -1.87105 -0.531235 0
M  V30 3488 O 327.49 -1.35692 -1.41018 0
M  V30 3489 C 327.789 -3.23911 1.51052 0
M  V30 3490 C 327.455 -3.36193 3.00475 0
M  V30 3491 C 326.117 -3.39252 3.41265 0
M  V30 3492 C 328.469 -3.38326 3.96465 0
M  V30 3493 C 325.797 -3.42057 4.76669 0
M  V30 3494 C 328.149 -3.4267 5.31752 0
M  V30 3495 C 326.813 -3.4401 5.72026 0
M  V30 3496 H 326.083 -0.656111 0.344382 0
M  V30 3497 H 328.73 -1.25325 1.44796 0
M  V30 3498 H 327.035 -3.80723 0.925063 0
M  V30 3499 H 328.732 -3.78793 1.31593 0
M  V30 3500 H 325.322 -3.34516 2.6795 0
M  V30 3501 H 329.506 -3.35176 3.6602 0
M  V30 3502 H 324.762 -3.41398 5.07206 0
M  V30 3503 H 328.936 -3.43268 6.05921 0
M  V30 3504 H 326.563 -3.45937 6.76928 0
M  V30 3505 N 328.138 -0.959301 -1.25041 0
M  V30 3506 C 329.368 -0.63303 -1.96663 0
M  V30 3507 C 329.776 0.800031 -1.71453 0
M  V30 3508 O 329.119 1.54736 -0.99008 0
M  V30 3509 C 329.181 -0.817523 -3.50081 0
M  V30 3510 C 328.845 -2.22863 -3.98975 0
M  V30 3511 C 329.842 -3.20569 -4.09306 0
M  V30 3512 C 327.527 -2.55407 -4.32519 0
M  V30 3513 C 329.521 -4.4891 -4.52503 0
M  V30 3514 C 327.208 -3.83976 -4.754 0
M  V30 3515 C 328.206 -4.8054 -4.85356 0
M  V30 3516 O 327.894 -6.06817 -5.27284 0
M  V30 3517 H 327.626 -0.235866 -0.633516 0
M  V30 3518 H 330.18 -1.2874 -1.60047 0
M  V30 3519 H 328.41 -0.105992 -3.86555 0
M  V30 3520 H 330.099 -0.491604 -4.02912 0
M  V30 3521 H 330.865 -2.96753 -3.83618 0
M  V30 3522 H 326.744 -1.8097 -4.23994 0
M  V30 3523 H 330.288 -5.24283 -4.60188 0
M  V30 3524 H 326.185 -4.07596 -5.00535 0
M  V30 3525 H 326.953 -6.10262 -5.45457 0
M  V30 3526 N 329.616 1.39756 -0.72842 0
M  V30 3527 C 330.579 2.29012 -0.0927297 0
M  V30 3528 C 331.579 1.45992 0.674025 0
M  V30 3529 O 332.769 1.66749 0.50402 0
M  V30 3530 C 329.901 3.29396 0.878137 0
M  V30 3531 H 331.094 2.86729 -0.879011 0
M  V30 3532 H 328.647 1.48293 -0.493847 0
M  V30 3533 H 329.382 2.76722 1.69101 0
M  V30 3534 H 329.167 3.907 0.331051 0
M  V30 3535 H 330.657 3.96199 1.3197 0
M  V30 3536 N 331.094 0.475555 1.50254 0
M  V30 3537 C 332.057 -0.305016 2.27161 0
M  V30 3538 C 333.057 -0.916519 1.32123 0
M  V30 3539 O 334.247 -0.785003 1.5551 0
M  V30 3540 C 331.379 -1.43496 3.09227 0
M  V30 3541 H 332.572 0.369511 2.97615 0
M  V30 3542 H 330.125 0.229747 1.54602 0
M  V30 3543 H 330.86 -2.14441 2.43281 0
M  V30 3544 H 330.645 -1.00223 3.79075 0
M  V30 3545 H 332.135 -1.98548 3.67381 0
M  V30 3546 N 332.573 -1.56217 0.208337 0
M  V30 3547 C 333.536 -2.18455 -0.693557 0
M  V30 3548 C 334.536 -1.14268 -1.13135 0
M  V30 3549 O 335.726 -1.39577 -1.0423 0
M  V30 3550 C 332.858 -2.79727 -1.94848 0
M  V30 3551 H 334.051 -2.99519 -0.15114 0
M  V30 3552 H 331.604 -1.56245 -0.041287 0
M  V30 3553 H 332.339 -2.02497 -2.53309 0
M  V30 3554 H 332.124 -3.56009 -1.64316 0
M  V30 3555 H 333.614 -3.27475 -2.59133 0
M  V30 3556 N 334.051 0.0651679 -1.57465 0
M  V30 3557 C 334.984 1.10876 -1.99453 0
M  V30 3558 C 335.962 1.37205 -0.872555 0
M  V30 3559 O 337.146 1.50468 -1.13542 0
M  V30 3560 C 334.273 2.45167 -2.3369 0
M  V30 3561 C 333.319 2.3493 -3.55964 0
M  V30 3562 S 334.152 1.73708 -5.06543 0
M  V30 3563 C 335.308 3.09563 -5.43987 0
M  V30 3564 H 335.541 0.750967 -2.87659 0
M  V30 3565 H 333.074 0.273933 -1.51951 0
M  V30 3566 H 335.032 3.22412 -2.54088 0
M  V30 3567 H 333.693 2.78105 -1.46001 0
M  V30 3568 H 332.886 3.3398 -3.77457 0
M  V30 3569 H 332.488 1.65823 -3.3523 0
M  V30 3570 H 334.78 4.05882 -5.42463 0
M  V30 3571 H 335.723 2.92843 -6.44708 0
M  V30 3572 H 336.131 3.10474 -4.71451 0
M  V30 3573 N 335.529 1.53961 0.336706 0
M  V30 3574 C 336.479 1.7881 1.41461 0
M  V30 3575 C 337.463 0.643561 1.47469 0
M  V30 3576 O 338.655 0.903166 1.52223 0
M  V30 3577 C 335.784 2.00722 2.78506 0
M  V30 3578 C 334.87 3.2126 2.76862 0
M  V30 3579 N 335.261 4.42588 2.44845 0
M  V30 3580 C 333.559 3.22568 3.08004 0
M  V30 3581 C 334.26 5.2447 2.51607 0
M  V30 3582 N 333.236 4.61344 2.87511 0
M  V30 3583 H 337.038 2.70205 1.15615 0
M  V30 3584 H 334.552 1.52978 0.545112 0
M  V30 3585 H 336.549 2.1666 3.5618 0
M  V30 3586 H 335.209 1.10573 3.05293 0
M  V30 3587 H 336.22 4.69819 2.17922 0
M  V30 3588 H 332.897 2.42409 3.39918 0
M  V30 3589 H 334.287 6.31324 2.29955 0
M  V30 3590 N 337.007 -0.598083 1.45811 0
M  V30 3591 C 338.253 -1.35882 1.50545 0
M  V30 3592 C 338.586 -1.93616 0.150445 0
M  V30 3593 O 337.861 -1.75604 -0.83628 0
M  V30 3594 C 338.144 -2.49966 2.59208 0
M  V30 3595 C 337.997 -1.97367 4.04186 0
M  V30 3596 C 339.316 -3.52068 2.64076 0
M  V30 3597 H 336.435 -0.492717 0.548087 0
M  V30 3598 H 339.077 -0.673319 1.77669 0
M  V30 3599 H 337.227 -3.08443 2.3621 0
M  V30 3600 H 338.899 -1.43466 4.38423 0
M  V30 3601 H 337.142 -1.283 4.14393 0
M  V30 3602 H 337.813 -2.79649 4.75921 0
M  V30 3603 H 340.289 -3.03448 2.84708 0
M  V30 3604 H 339.165 -4.2937 3.41954 0
M  V30 3605 H 339.426 -4.08304 1.69531 0
M  V30 3606 N 338.485 -1.33259 -0.841409 0
M  V30 3607 C 339.433 -1.23279 -1.97244 0
M  V30 3608 C 340.427 -0.134706 -1.68864 0
M  V30 3609 O 341.633 -0.298501 -1.77508 0
M  V30 3610 H 338.008 -0.382497 -0.647457 0
M  V30 3611 H 339.979 -2.18906 -2.02787 0
M  V30 3612 C 338.728 -0.986268 -3.33419 0
M  V30 3613 H 338.051 -1.82347 -3.55794 0
M  V30 3614 H 339.491 -0.956728 -4.13065 0
M  V30 3615 C 337.95 0.310842 -3.35463 0
M  V30 3616 O 338.48 1.31838 -3.79449 0
M  V30 3617 N 336.686 0.337485 -2.88634 0
M  V30 3618 H 336.233 -0.482967 -2.53032 0
M  V30 3619 H 336.191 1.20518 -2.90384 0
M  V30 3620 N 339.963 1.05934 -1.16686 0
M  V30 3621 C 340.926 2.11669 -0.879144 0
M  V30 3622 C 341.926 1.60294 0.127445 0
M  V30 3623 O 343.116 1.7389 -0.103865 0
M  V30 3624 C 340.248 3.39438 -0.315425 0
M  V30 3625 H 341.441 2.38626 -1.81653 0
M  V30 3626 H 338.994 1.22058 -0.976299 0
M  V30 3627 H 339.729 3.18132 0.629468 0
M  V30 3628 H 339.514 3.78034 -1.04079 0
M  V30 3629 H 341.004 4.17391 -0.132189 0
M  V30 3630 N 341.441 0.965919 1.2453 0
M  V30 3631 C 342.689 0.625593 1.92174 0
M  V30 3632 C 343.01 -0.841652 1.75901 0
M  V30 3633 O 342.28 -1.60061 1.12948 0
M  V30 3634 H 340.86 0.228388 0.71123 0
M  V30 3635 H 343.522 1.2266 1.51461 0
M  V30 3636 H 342.618 0.864653 2.99884 0
M  V30 3637 N 342.919 -1.39368 0.735821 0
M  V30 3638 C 343.829 -2.34395 0.0979693 0
M  V30 3639 C 344.845 -1.58361 -0.720968 0
M  V30 3640 O 346.021 -1.90648 -0.649245 0
M  V30 3641 C 343.086 -3.37393 -0.797916 0
M  V30 3642 C 342.147 -4.29287 0.0333662 0
M  V30 3643 C 341.38 -5.27365 -0.819854 0
M  V30 3644 O 341.603 -5.31959 -2.05855 0
M  V30 3645 O 340.537 -6.01389 -0.248079 0
M  V30 3646 H 344.363 -2.90601 0.882315 0
M  V30 3647 H 341.948 -1.40909 0.4965 0
M  V30 3648 H 343.83 -4.00505 -1.31048 0
M  V30 3649 H 342.505 -2.83571 -1.56106 0
M  V30 3650 H 341.412 -3.69395 0.591475 0
M  V30 3651 H 342.745 -4.86317 0.758752 0
M  V30 3652 N 344.397 -0.483516 -1.5 0
M  V30 3653 C 345.33 0.350427 -2.25493 0
M  V30 3654 C 346.308 0.985549 -1.29328 0
M  V30 3655 O 347.492 1.01906 -1.58579 0
M  V30 3656 C 344.619 1.49202 -3.04066 0
M  V30 3657 C 343.665 0.973036 -4.15252 0
M  V30 3658 S 344.498 -0.122237 -5.3536 0
M  V30 3659 C 345.654 1.02294 -6.17484 0
M  V30 3660 H 345.887 -0.290381 -2.95878 0
M  V30 3661 H 343.42 -0.268562 -1.52046 0
M  V30 3662 H 345.378 2.14623 -3.49925 0
M  V30 3663 H 344.039 2.10438 -2.33183 0
M  V30 3664 H 343.232 1.82804 -4.69679 0
M  V30 3665 H 342.834 0.396335 -3.71894 0
M  V30 3666 H 345.126 1.93195 -6.49371 0
M  V30 3667 H 346.069 0.517664 -7.06205 0
M  V30 3668 H 346.477 1.28238 -5.49741 0
M  V30 3669 N 345.875 1.56104 -0.216619 0
M  V30 3670 C 346.805 2.23063 0.690296 0
M  V30 3671 C 347.786 1.20072 1.20485 0
M  V30 3672 O 348.971 1.48643 1.24976 0
M  V30 3673 C 346.101 2.90672 1.90072 0
M  V30 3674 C 345.055 4.00092 1.5202 0
M  V30 3675 C 344.381 4.54972 2.80899 0
M  V30 3676 C 345.681 5.17398 0.71391 0
M  V30 3677 H 347.375 2.99109 0.132038 0
M  V30 3678 H 344.921 1.43866 0.0620664 0
M  V30 3679 H 346.874 3.36204 2.54057 0
M  V30 3680 H 345.598 2.12066 2.48386 0
M  V30 3681 H 344.257 3.55283 0.903839 0
M  V30 3682 H 343.905 3.73102 3.37348 0
M  V30 3683 H 343.605 5.28817 2.56176 0
M  V30 3684 H 345.129 5.0322 3.45836 0
M  V30 3685 H 346.543 5.59342 1.25735 0
M  V30 3686 H 344.94 5.97444 0.563951 0
M  V30 3687 H 346.01 4.84088 -0.280527 0
M  V30 3688 N 347.353 -0.0568162 1.57498 0
M  V30 3689 C 348.303 -1.07315 2.01166 0
M  V30 3690 C 349.287 -1.33632 0.896171 0
M  V30 3691 O 350.479 -1.33682 1.16009 0
M  V30 3692 C 347.608 -2.38257 2.47161 0
M  V30 3693 C 346.694 -2.1515 3.65474 0
M  V30 3694 N 347.085 -1.62014 4.7915 0
M  V30 3695 C 345.383 -2.45559 3.72313 0
M  V30 3696 C 346.084 -1.54069 5.60926 0
M  V30 3697 N 345.06 -2.00652 5.05213 0
M  V30 3698 H 348.862 -0.655878 2.86488 0
M  V30 3699 H 346.376 -0.263635 1.60246 0
M  V30 3700 H 348.373 -3.11845 2.76691 0
M  V30 3701 H 347.033 -2.80687 1.63232 0
M  V30 3702 H 348.044 -1.30667 5.01145 0
M  V30 3703 H 344.721 -2.91253 2.99129 0
M  V30 3704 H 346.111 -1.13712 6.62208 0
M  V30 3705 N 348.832 -1.54138 -0.328536 0
M  V30 3706 C 350.08 -1.71765 -1.06496 0
M  V30 3707 C 350.401 -0.49149 -1.88704 0
M  V30 3708 O 349.671 0.494539 -1.89555 0
M  V30 3709 H 348.251 -0.633295 -0.396164 0
M  V30 3710 H 350.913 -1.91429 -0.366176 0
M  V30 3711 H 350.009 -2.5951 -1.73381 0
M  V30 3712 N 350.31 0.590341 -1.46126 0
M  V30 3713 C 351.538 1.37504 -1.54597 0
M  V30 3714 C 351.953 1.87897 -0.184447 0
M  V30 3715 O 351.31 1.63192 0.816984 0
M  V30 3716 C 351.361 2.56779 -2.54454 0
M  V30 3717 O 351.082 2.08476 -3.85317 0
M  V30 3718 C 352.583 3.49427 -2.72792 0
M  V30 3719 H 349.803 0.420325 -0.523037 0
M  V30 3720 H 352.347 0.718383 -1.91467 0
M  V30 3721 H 350.502 3.1845 -2.20609 0
M  V30 3722 H 350.916 2.86097 -4.396 0
M  V30 3723 H 352.39 4.29619 -3.466 0
M  V30 3724 H 352.867 4.00876 -1.79429 0
M  V30 3725 H 353.473 2.93598 -3.07702 0
M  V30 3726 N 351.788 1.33704 0.83433 0
M  V30 3727 C 353.036 1.25169 1.58673 0
M  V30 3728 C 353.357 -0.18127 1.94156 0
M  V30 3729 O 352.627 -1.11113 1.6134 0
M  V30 3730 H 351.207 0.4603 0.58833 0
M  V30 3731 H 353.869 1.67478 0.996847 0
M  V30 3732 H 352.965 1.84856 2.51465 0
M  V30 3733 N 353.266 -1.05314 1.17247 0
M  V30 3734 C 354.514 -1.77941 0.958194 0
M  V30 3735 C 354.835 -1.88089 -0.514556 0
M  V30 3736 O 354.105 -1.39676 -1.37359 0
M  V30 3737 H 352.685 -0.659116 0.351533 0
M  V30 3738 H 355.347 -1.27166 1.47699 0
M  V30 3739 H 354.443 -2.79663 1.38546 0
M  V30 3740 N 354.744 -0.972509 -1.24016 0
M  V30 3741 C 355.674 -0.525548 -2.27509 0
M  V30 3742 C 356.655 0.437262 -1.64384 0
M  V30 3743 O 357.84 0.332343 -1.91335 0
M  V30 3744 C 354.97 0.180448 -3.46831 0
M  V30 3745 C 353.924 -0.698859 -4.22256 0
M  V30 3746 C 353.25 0.138903 -5.3452 0
M  V30 3747 C 354.55 -1.98582 -4.83076 0
M  V30 3748 H 356.244 -1.39058 -2.65148 0
M  V30 3749 H 353.79 -0.67009 -1.27459 0
M  V30 3750 H 355.743 0.504387 -4.18371 0
M  V30 3751 H 354.467 1.07987 -3.08231 0
M  V30 3752 H 353.126 -1.00614 -3.52523 0
M  V30 3753 H 352.774 1.03862 -4.9216 0
M  V30 3754 H 352.474 -0.446259 -5.85903 0
M  V30 3755 H 353.998 0.457404 -6.08884 0
M  V30 3756 H 355.412 -1.72715 -5.46665 0
M  V30 3757 H 353.809 -2.5181 -5.44713 0
M  V30 3758 H 354.879 -2.67769 -4.04262 0
M  V30 3759 N 356.222 1.38976 -0.743202 0
M  V30 3760 C 357.152 2.33171 -0.123873 0
M  V30 3761 C 358.133 1.54336 0.71516 0
M  V30 3762 O 359.318 1.82696 0.658467 0
M  V30 3763 C 356.448 3.38474 0.777978 0
M  V30 3764 C 355.402 4.27979 0.0424758 0
M  V30 3765 C 354.728 5.2405 1.06189 0
M  V30 3766 C 356.028 5.10155 -1.1198 0
M  V30 3767 H 357.722 2.85213 -0.910709 0
M  V30 3768 H 355.268 1.37133 -0.439388 0
M  V30 3769 H 357.221 4.03328 1.22084 0
M  V30 3770 H 355.945 2.84891 1.59702 0
M  V30 3771 H 354.604 3.64616 -0.380853 0
M  V30 3772 H 354.252 4.66758 1.87472 0
M  V30 3773 H 353.952 5.84785 0.574485 0
M  V30 3774 H 355.476 5.9178 1.50428 0
M  V30 3775 H 356.89 5.68307 -0.75499 0
M  V30 3776 H 355.287 5.80073 -1.53738 0
M  V30 3777 H 356.357 4.44504 -1.93764 0
M  V30 3778 N 357.7 0.491464 1.49741 0
M  V30 3779 C 358.63 -0.28154 2.31796 0
M  V30 3780 C 359.611 -0.971473 1.3963 0
M  V30 3781 O 360.796 -0.964719 1.68543 0
M  V30 3782 C 357.926 -1.35203 3.19902 0
M  V30 3783 C 356.88 -0.782529 4.20786 0
M  V30 3784 C 356.206 -1.95283 4.97764 0
M  V30 3785 C 357.506 0.21999 5.21837 0
M  V30 3786 H 359.2 0.403355 2.96671 0
M  V30 3787 H 356.746 0.195425 1.42668 0
M  V30 3788 H 358.699 -1.90045 3.76113 0
M  V30 3789 H 357.423 -2.06598 2.52953 0
M  V30 3790 H 356.082 -0.255928 3.65706 0
M  V30 3791 H 355.73 -2.65423 4.2727 0
M  V30 3792 H 355.43 -1.57789 5.66018 0
M  V30 3793 H 356.954 -2.50577 5.56816 0
M  V30 3794 H 358.368 -0.23996 5.72798 0
M  V30 3795 H 356.765 0.51026 5.97927 0
M  V30 3796 H 357.835 1.13911 4.7133 0
M  V30 3797 N 359.178 -1.55987 0.224894 0
M  V30 3798 C 360.403 -2.03232 -0.41369 0
M  V30 3799 C 360.828 -1.10359 -1.52323 0
M  V30 3800 O 360.186 -0.092395 -1.81064 0
M  V30 3801 C 360.234 -3.48682 -0.919405 0
M  V30 3802 O 359.338 -3.58947 -2.03054 0
M  V30 3803 H 358.679 -0.657428 -0.0931903 0
M  V30 3804 H 361.209 -2.01679 0.34451 0
M  V30 3805 H 361.219 -3.8907 -1.22835 0
M  V30 3806 H 359.894 -4.15761 -0.107339 0
M  V30 3807 H 358.471 -3.30448 -1.72796 0
M  V30 3808 N 360.656 0.0484629 -1.57525 0
M  V30 3809 C 361.586 1.0549 -2.08313 0
M  V30 3810 C 362.567 1.38929 -0.981463 0
M  V30 3811 O 363.752 1.48151 -1.25558 0
M  V30 3812 C 360.882 2.36162 -2.54646 0
M  V30 3813 C 359.836 2.17016 -3.68901 0
M  V30 3814 C 359.162 3.53278 -4.01371 0
M  V30 3815 C 360.462 1.57219 -4.98076 0
M  V30 3816 H 362.156 0.632195 -2.92649 0
M  V30 3817 H 359.702 0.302654 -1.40784 0
M  V30 3818 H 361.655 3.06882 -2.88793 0
M  V30 3819 H 360.379 2.80456 -1.67368 0
M  V30 3820 H 359.038 1.48733 -3.35073 0
M  V30 3821 H 358.686 3.95185 -3.11188 0
M  V30 3822 H 358.386 3.41299 -4.78318 0
M  V30 3823 H 359.91 4.25391 -4.38035 0
M  V30 3824 H 361.324 2.17832 -5.30304 0
M  V30 3825 H 359.721 1.55871 -5.79503 0
M  V30 3826 H 360.791 0.535956 -4.81929 0
M  V30 3827 N 362.134 1.5431 0.320358 0
M  V30 3828 C 363.097 1.83195 1.3774 0
M  V30 3829 C 364.097 0.703906 1.44575 0
M  V30 3830 O 365.287 0.972214 1.44546 0
M  V30 3831 C 362.419 1.99487 2.76438 0
M  V30 3832 H 363.612 2.77642 1.1338 0
M  V30 3833 H 361.165 1.46076 0.556012 0
M  V30 3834 H 361.9 1.07262 3.06048 0
M  V30 3835 H 361.685 2.81575 2.7287 0
M  V30 3836 H 363.175 2.23271 3.52902 0
M  V30 3837 N 363.613 -0.582584 1.46437 0
M  V30 3838 C 364.543 -1.70187 1.59871 0
M  V30 3839 C 365.524 -1.64066 0.449042 0
M  V30 3840 O 366.709 -1.82081 0.6753 0
M  V30 3841 C 363.839 -3.08827 1.58881 0
M  V30 3842 C 362.793 -3.29779 2.72819 0
M  V30 3843 C 362.119 -4.68947 2.5689 0
M  V30 3844 C 363.419 -3.17601 4.1464 0
M  V30 3845 H 365.113 -1.592 2.53566 0
M  V30 3846 H 362.659 -0.764472 1.22032 0
M  V30 3847 H 364.612 -3.86951 1.66873 0
M  V30 3848 H 363.336 -3.20713 0.617306 0
M  V30 3849 H 361.995 -2.54054 2.64296 0
M  V30 3850 H 361.643 -4.77599 1.57823 0
M  V30 3851 H 361.343 -4.83919 3.33312 0
M  V30 3852 H 362.867 -5.4924 2.66773 0
M  V30 3853 H 364.281 -3.8557 4.24274 0
M  V30 3854 H 362.678 -3.44094 4.9165 0
M  V30 3855 H 363.748 -2.14681 4.34788 0
M  V30 3856 N 365.091 -1.34144 -0.827227 0
M  V30 3857 C 366.024 -1.19707 -1.94282 0
M  V30 3858 C 367.002 -0.0897256 -1.62352 0
M  V30 3859 O 368.186 -0.254095 -1.8678 0
M  V30 3860 C 365.313 -0.838646 -3.28153 0
M  V30 3861 C 364.359 -1.95514 -3.79047 0
M  V30 3862 S 365.192 -3.56793 -3.99323 0
M  V30 3863 C 366.348 -3.22983 -5.36127 0
M  V30 3864 H 366.581 -2.1414 -2.06231 0
M  V30 3865 H 364.114 -1.19121 -0.982321 0
M  V30 3866 H 366.072 -0.638637 -4.05502 0
M  V30 3867 H 364.733 0.0872776 -3.13979 0
M  V30 3868 H 363.926 -1.658 -4.75948 0
M  V30 3869 H 363.528 -2.11241 -3.08631 0
M  V30 3870 H 365.82 -2.74531 -6.19386 0
M  V30 3871 H 366.763 -4.19008 -5.70822 0
M  V30 3872 H 367.171 -2.59276 -5.01434 0
M  V30 3873 N 366.569 1.04691 -1.17803 0
M  V30 3874 C 367.499 2.14494 -0.92275 0
M  V30 3875 C 368.48 1.69546 0.137179 0
M  V30 3876 O 369.665 1.94195 -0.0141108 0
M  V30 3877 C 366.795 3.44491 -0.440803 0
M  V30 3878 C 365.749 4.03031 -1.4405 0
M  V30 3879 C 365.075 5.28432 -0.81631 0
M  V30 3880 C 366.375 4.39932 -2.81527 0
M  V30 3881 H 368.069 2.36107 -1.84103 0
M  V30 3882 H 365.615 1.1347 -0.886599 0
M  V30 3883 H 367.568 4.2066 -0.249602 0
M  V30 3884 H 366.292 3.22546 0.513025 0
M  V30 3885 H 364.951 3.28937 -1.61853 0
M  V30 3886 H 364.599 5.02792 0.144511 0
M  V30 3887 H 364.299 5.68559 -1.48371 0
M  V30 3888 H 365.823 6.07284 -0.635496 0
M  V30 3889 H 367.237 5.07113 -2.67412 0
M  V30 3890 H 365.634 4.9109 -3.44892 0
M  V30 3891 H 366.704 3.50045 -3.35554 0
M  V30 3892 N 368.047 0.979072 1.23499 0
M  V30 3893 C 368.979 0.476271 2.24197 0
M  V30 3894 C 369.992 -0.421166 1.57258 0
M  V30 3895 O 371.181 -0.225515 1.7707 0
M  V30 3896 C 368.281 -0.330503 3.37285 0
M  V30 3897 C 367.454 0.559744 4.33804 0
M  V30 3898 C 366.513 -0.192954 5.25846 0
M  V30 3899 O 365.539 0.416978 5.67671 0
M  V30 3900 N 366.741 -1.47932 5.61334 0
M  V30 3901 H 369.506 1.34211 2.67969 0
M  V30 3902 H 367.067 0.852189 1.37657 0
M  V30 3903 H 369.059 -0.842361 3.95836 0
M  V30 3904 H 367.629 -1.09734 2.92707 0
M  V30 3905 H 366.849 1.25245 3.73775 0
M  V30 3906 H 368.137 1.1665 4.95248 0
M  V30 3907 H 367.535 -1.9964 5.29302 0
M  V30 3908 H 366.092 -1.93664 6.22364 0
M  V30 3909 N 369.525 -1.3858 0.750561 0
M  V30 3910 C 370.455 -2.33102 0.136237 0
M  V30 3911 C 371.436 -1.54713 -0.706965 0
M  V30 3912 O 372.621 -1.83043 -0.648769 0
M  V30 3913 C 369.751 -3.38882 -0.760017 0
M  V30 3914 C 368.705 -4.27995 -0.0197785 0
M  V30 3915 C 368.031 -5.24605 -1.03408 0
M  V30 3916 C 369.331 -5.09554 1.14684 0
M  V30 3917 H 371.025 -2.84726 0.925822 0
M  V30 3918 H 368.571 -1.36898 0.446654 0
M  V30 3919 H 370.524 -4.0397 -1.19943 0
M  V30 3920 H 369.248 -2.85734 -1.58189 0
M  V30 3921 H 367.907 -3.64409 0.400184 0
M  V30 3922 H 367.555 -4.67746 -1.84994 0
M  V30 3923 H 367.255 -5.85081 -0.543464 0
M  V30 3924 H 368.779 -5.9257 -1.47288 0
M  V30 3925 H 370.193 -5.67899 0.785118 0
M  V30 3926 H 368.59 -5.7925 1.56812 0
M  V30 3927 H 369.66 -4.4347 1.96118 0
M  V30 3928 N 371.003 -0.499398 -1.49478 0
M  V30 3929 C 372.249 0.0377587 -2.03365 0
M  V30 3930 C 372.604 1.3484 -1.37244 0
M  V30 3931 O 371.897 1.85 -0.498547 0
M  V30 3932 C 372.091 0.248424 -3.56536 0
M  V30 3933 C 371.92 -1.04025 -4.37503 0
M  V30 3934 C 370.69 -1.59159 -4.79579 0
M  V30 3935 C 372.888 -1.9431 -4.76181 0
M  V30 3936 N 370.87 -2.82634 -5.44969 0
M  V30 3937 C 372.241 -3.02364 -5.41272 0
M  V30 3938 C 374.296 -1.95008 -4.58123 0
M  V30 3939 C 372.999 -4.1114 -5.90217 0
M  V30 3940 C 375.025 -3.02758 -5.08027 0
M  V30 3941 C 374.387 -4.09531 -5.73118 0
M  V30 3942 H 370.486 -0.026923 -0.781536 0
M  V30 3943 H 373.07 -0.673901 -1.82665 0
M  V30 3944 H 371.241 0.929139 -3.77123 0
M  V30 3945 H 372.973 0.782445 -3.97064 0
M  V30 3946 H 369.728 -1.13696 -4.5975 0
M  V30 3947 H 370.152 -3.45416 -5.82252 0
M  V30 3948 H 374.794 -1.13766 -4.07207 0
M  V30 3949 H 372.512 -4.93181 -6.40155 0
M  V30 3950 H 376.098 -3.04315 -4.95866 0
M  V30 3951 H 374.978 -4.91534 -6.11035 0
M  V30 3952 N 372.481 1.55866 -0.233164 0
M  V30 3953 C 373.411 2.23783 0.666599 0
M  V30 3954 C 374.392 1.21343 1.19205 0
M  V30 3955 O 375.577 1.4996 1.23392 0
M  V30 3956 C 372.707 2.92671 1.86978 0
M  V30 3957 C 371.661 4.01682 1.47768 0
M  V30 3958 C 370.987 4.57926 2.76058 0
M  V30 3959 C 372.287 5.18126 0.658993 0
M  V30 3960 H 373.981 2.99232 0.100306 0
M  V30 3961 H 371.527 1.43924 0.046804 0
M  V30 3962 H 373.48 3.3888 2.50476 0
M  V30 3963 H 372.204 2.14688 2.46123 0
M  V30 3964 H 370.863 3.56222 0.866106 0
M  V30 3965 H 370.511 3.76659 3.33372 0
M  V30 3966 H 370.211 5.31505 2.50552 0
M  V30 3967 H 371.735 5.06859 3.40479 0
M  V30 3968 H 373.149 5.60644 1.19795 0
M  V30 3969 H 371.546 5.98009 0.500552 0
M  V30 3970 H 372.616 4.83763 -0.331856 0
M  V30 3971 N 373.959 -0.0401083 1.57549 0
M  V30 3972 C 374.889 -1.04384 2.08869 0
M  V30 3973 C 375.87 -1.38407 0.988817 0
M  V30 3974 O 377.055 -1.47483 1.26342 0
M  V30 3975 C 374.185 -2.34808 2.55895 0
M  V30 3976 C 373.139 -2.15057 3.70047 0
M  V30 3977 C 372.465 -3.51145 4.03239 0
M  V30 3978 C 373.765 -1.54576 4.98902 0
M  V30 3979 H 375.459 -0.616666 2.92981 0
M  V30 3980 H 373.005 -0.295184 1.40942 0
M  V30 3981 H 374.958 -3.05346 2.90417 0
M  V30 3982 H 373.682 -2.79565 1.68853 0
M  V30 3983 H 372.341 -1.46954 3.35857 0
M  V30 3984 H 371.989 -3.93529 3.13279 0
M  V30 3985 H 371.689 -3.38758 4.80122 0
M  V30 3986 H 373.213 -4.23062 4.40285 0
M  V30 3987 H 374.627 -2.15017 5.31451 0
M  V30 3988 H 373.024 -1.52796 5.80322 0
M  V30 3989 H 374.094 -0.51039 4.82206 0
M  V30 3990 N 375.437 -1.54477 -0.31217 0
M  V30 3991 C 376.685 -1.72884 -1.04668 0
M  V30 3992 C 377.006 -0.511477 -1.88173 0
M  V30 3993 O 376.276 0.474407 -1.90069 0
M  V30 3994 H 374.856 -0.637461 -0.389425 0
M  V30 3995 H 377.518 -1.91807 -0.345852 0
M  V30 3996 H 376.614 -2.61334 -1.70619 0
M  V30 3997 O 376.954 0.458097 -1.54867 0
M  V30 3998 H 377.645 1.11218 -1.58588 0
M  V30 END ATOM
M  V30 BEGIN BOND
M  V30 END BOND
M  V30 END CTAB
M  END
$$$$
