drugbank_target|P26664 Genome polyprotein (DB05868; DB06058; DB07582; DB11779)
 OpenBabel12092120323D

  0  0  0     0  0            999 V3000
M  V30 BEGIN CTAB
M  V30 COUNTS 45953 46559 0 0 0
M  V30 BEGIN ATOM
M  V30 1 H -0.908 1.98254 -0.117106 0
M  V30 2 N 0 1.576 0 0
M  V30 3 C 0.933 2.03868 1.02534 0
M  V30 4 C 1.911 0.928543 1.3348 0
M  V30 5 O 3.095 1.19667 1.45644 0
M  V30 6 C 0.222 2.43627 2.35294 0
M  V30 7 C -0.732 3.65373 2.2001 0
M  V30 8 S 0.101 5.13292 1.52614 0
M  V30 9 C 1.257 5.56322 2.86805 0
M  V30 10 H 1.49 2.90518 0.631377 0
M  V30 11 H -0.977 1.52953 0.210867 0
M  V30 12 H 0.981 2.67203 3.11629 0
M  V30 13 H -0.358 1.57376 2.7183 0
M  V30 14 H -1.165 3.90944 3.18086 0
M  V30 15 H -1.563 3.418 1.51819 0
M  V30 16 H 0.729 5.58782 3.83104 0
M  V30 17 H 1.672 6.56266 2.65933 0
M  V30 18 H 2.08 4.83886 2.90714 0
M  V30 19 N 1.4781 -0.272755 1.55222 0
M  V30 20 C 2.7031 -1.02683 1.80197 0
M  V30 21 C 3.1281 -1.79142 0.573551 0
M  V30 22 O 2.4861 -1.74917 -0.476849 0
M  V30 23 C 2.5341 -1.9609 3.02624 0
M  V30 24 O 1.6381 -3.04863 2.77727 0
M  V30 25 H 0.9791 -0.293557 0.595584 0
M  V30 26 H 3.5091 -0.30159 2.02365 0
M  V30 27 H 3.5191 -2.38039 3.31363 0
M  V30 28 H 2.1941 -1.39851 3.91682 0
M  V30 29 H 0.7711 -2.67228 2.60084 0
M  V30 30 N 2.9562 -1.48159 -0.537278 0
M  V30 31 C 4.1842 -1.59454 -1.31841 0
M  V30 32 C 4.5992 -0.252065 -1.8711 0
M  V30 33 O 3.9562 0.757621 -1.66031 0
M  V30 34 C 4.0072 -2.63546 -2.47439 0
M  V30 35 O 3.7282 -3.92583 -1.94449 0
M  V30 36 C 5.2292 -2.85212 -3.39366 0
M  V30 37 H 2.4492 -0.53785 -0.401196 0
M  V30 38 H 4.9932 -1.93932 -0.648891 0
M  V30 39 H 3.1482 -2.31946 -3.1029 0
M  V30 40 H 3.5622 -4.49629 -2.70063 0
M  V30 41 H 5.0362 -3.61863 -4.16844 0
M  V30 42 H 5.5132 -1.93765 -3.94147 0
M  V30 43 H 6.1192 -3.18086 -2.82314 0
M  V30 44 N 4.4343 0.785586 -1.36625 0
M  V30 45 C 5.3823 1.91978 -1.31329 0
M  V30 46 C 6.3763 1.68162 -0.204416 0
M  V30 47 O 7.5823 1.76122 -0.371645 0
M  V30 48 H 3.9573 0.631087 -0.408942 0
M  V30 49 H 5.9283 1.93562 -2.27104 0
M  V30 50 C 4.6773 3.29055 -1.12329 0
M  V30 51 H 4.0003 3.4795 -1.96903 0
M  V30 52 H 5.4403 4.08756 -1.12671 0
M  V30 53 C 3.8993 3.36461 0.171861 0
M  V30 54 O 4.4293 3.84576 1.16035 0
M  V30 55 N 2.6353 2.89782 0.217846 0
M  V30 56 H 2.1823 2.50819 -0.587183 0
M  V30 57 H 2.1403 2.95119 1.08408 0
M  V30 58 N 5.9124 1.20967 1.01018 0
M  V30 59 C 7.3234 1.02319 1.56165 0
M  V30 60 C 7.6744 -0.418546 1.91684 0
M  V30 61 O 6.7994 -1.30096 1.72928 0
M  V30 62 C 7.3944 1.85109 2.8376 0
M  V30 63 C 5.9534 1.70809 3.35412 0
M  V30 64 C 5.1004 1.82643 2.08655 0
M  V30 65 H 8.0514 1.35065 0.833255 0
M  V30 66 H 8.0724 1.35827 3.55431 0
M  V30 67 H 7.5844 2.90035 2.57878 0
M  V30 68 H 5.6854 0.685464 3.66241 0
M  V30 69 H 5.7984 2.52467 4.07182 0
M  V30 70 H 4.1624 1.25896 2.21409 0
M  V30 71 H 4.9454 2.89066 1.85191 0
M  V30 72 N 7.3905 -1.2043 1.01659 0
M  V30 73 C 8.3375 -2.23215 0.586822 0
M  V30 74 C 9.3075 -1.61382 -0.393085 0
M  V30 75 O 10.4925 -1.88544 -0.292525 0
M  V30 76 C 7.6325 -3.45032 -0.0687464 0
M  V30 77 C 6.7455 -4.21296 0.955724 0
M  V30 78 C 5.8805 -5.30507 0.271208 0
M  V30 79 C 4.9195 -5.98515 1.28244 0
M  V30 80 N 4.0565 -6.99316 0.62459 0
M  V30 81 H 8.8965 -2.59336 1.46796 0
M  V30 82 H 6.4335 -1.27431 0.734836 0
M  V30 83 H 8.3915 -4.1459 -0.465965 0
M  V30 84 H 7.0215 -3.09604 -0.913529 0
M  V30 85 H 6.0735 -3.50803 1.4711 0
M  V30 86 H 7.3855 -4.6803 1.72479 0
M  V30 87 H 6.5395 -6.06428 -0.18151 0
M  V30 88 H 5.2785 -4.8481 -0.530163 0
M  V30 89 H 4.2835 -5.21355 1.74554 0
M  V30 90 H 5.5085 -6.46298 2.08509 0
M  V30 91 H 3.4545 -6.55812 -0.156914 0
M  V30 92 H 3.3715 -7.44178 1.33172 0
M  V30 93 H 4.6395 -7.79255 0.195462 0
M  V30 94 N 8.8686 -0.792821 -1.36206 0
M  V30 95 C 10.2796 -0.429513 -1.81692 0
M  V30 96 C 10.6306 1.04695 -1.65932 0
M  V30 97 O 9.7556 1.81256 -1.18218 0
M  V30 98 C 10.3506 -0.772831 -3.29868 0
M  V30 99 C 8.9096 -0.462307 -3.7355 0
M  V30 100 C 8.0566 -1.00569 -2.5842 0
M  V30 101 H 11.0076 -0.985672 -1.24379 0
M  V30 102 H 11.0286 -0.0651928 -3.80444 0
M  V30 103 H 10.5406 -1.84747 -3.41307 0
M  V30 104 H 8.6416 0.604158 -3.67669 0
M  V30 105 H 8.7546 -0.985299 -4.68859 0
M  V30 106 H 7.1186 -0.428734 -2.51066 0
M  V30 107 H 7.9016 -2.08616 -2.72643 0
M  V30 108 N 10.3467 1.47872 -0.545128 0
M  V30 109 C 11.2787 2.27869 0.246621 0
M  V30 110 C 12.2917 1.36282 0.890561 0
M  V30 111 O 13.4807 1.61207 0.766449 0
M  V30 112 C 10.5807 3.10159 1.36582 0
M  V30 113 C 9.7537 4.29627 0.820954 0
M  V30 114 C 8.8127 4.93607 1.82314 0
M  V30 115 O 7.8387 5.52366 1.37406 0
M  V30 116 N 9.0407 4.87211 3.15603 0
M  V30 117 H 11.8057 2.96459 -0.439539 0
M  V30 118 H 9.3667 1.57367 -0.380421 0
M  V30 119 H 11.3587 3.49829 2.03474 0
M  V30 120 H 9.9287 2.43891 1.9554 0
M  V30 121 H 9.1487 3.94192 -0.0244032 0
M  V30 122 H 10.4367 5.06928 0.436063 0
M  V30 123 H 9.8347 4.40651 3.54744 0
M  V30 124 H 8.3917 5.30937 3.78087 0
M  V30 125 N 11.8248 0.280983 1.55075 0
M  V30 126 C 12.7718 -0.603937 2.22758 0
M  V30 127 C 13.7418 -1.1452 1.20309 0
M  V30 128 O 14.9268 -1.19343 1.48869 0
M  V30 129 C 12.0668 -1.77947 2.95684 0
M  V30 130 C 11.1798 -1.2715 4.12864 0
M  V30 131 C 10.3148 -2.4093 4.7342 0
M  V30 132 C 9.3538 -1.87165 5.82783 0
M  V30 133 N 8.4908 -2.94441 6.37377 0
M  V30 134 H 13.3308 -0.020124 2.97993 0
M  V30 135 H 10.8678 0.00183425 1.471 0
M  V30 136 H 12.8258 -2.47055 3.36184 0
M  V30 137 H 11.4558 -2.33522 2.22861 0
M  V30 138 H 10.5078 -0.473331 3.77444 0
M  V30 139 H 11.8198 -0.837751 4.91715 0
M  V30 140 H 10.9738 -3.18021 5.1667 0
M  V30 141 H 9.7128 -2.87623 3.93859 0
M  V30 142 H 8.7178 -1.08556 5.38976 0
M  V30 143 H 9.9428 -1.41401 6.64216 0
M  V30 144 H 7.8888 -3.40505 5.60707 0
M  V30 145 H 7.8058 -2.55501 7.11516 0
M  V30 146 H 9.0738 -3.71489 6.85285 0
M  V30 147 N 13.3029 -1.57598 0.00835791 0
M  V30 148 C 14.2499 -2.08945 -0.980346 0
M  V30 149 C 15.2199 -0.986738 -1.33614 0
M  V30 150 O 16.4049 -1.25968 -1.43306 0
M  V30 151 C 13.5449 -2.60425 -2.26435 0
M  V30 152 C 12.6579 -3.84628 -1.96685 0
M  V30 153 C 11.7929 -4.24579 -3.19228 0
M  V30 154 C 10.8319 -5.41596 -2.85202 0
M  V30 155 N 9.9689 -5.768 -4.00307 0
M  V30 156 H 14.8089 -2.93148 -0.535551 0
M  V30 157 H 12.3459 -1.44912 -0.252776 0
M  V30 158 H 14.3039 -2.88354 -3.01509 0
M  V30 159 H 12.9339 -1.79083 -2.68568 0
M  V30 160 H 11.9859 -3.63556 -1.11942 0
M  V30 161 H 13.2979 -4.69796 -1.67611 0
M  V30 162 H 12.4519 -4.53834 -4.02641 0
M  V30 163 H 11.1909 -3.38137 -3.51447 0
M  V30 164 H 10.1959 -5.12056 -2.00198 0
M  V30 165 H 11.4209 -6.29721 -2.54222 0
M  V30 166 H 9.3669 -4.93316 -4.32407 0
M  V30 167 H 9.2839 -6.5656 -3.74786 0
M  V30 168 H 10.5519 -6.10652 -4.84484 0
M  V30 169 N 14.781 0.264519 -1.55364 0
M  V30 170 C 15.729 1.34702 -1.89626 0
M  V30 171 C 16.723 1.50712 -0.773459 0
M  V30 172 O 17.929 1.52395 -0.957897 0
M  V30 173 H 14.304 0.450682 -0.601988 0
M  V30 174 H 16.275 1.0306 -2.80038 0
M  V30 175 C 15.024 2.6989 -2.19214 0
M  V30 176 H 14.347 2.58365 -3.05103 0
M  V30 177 H 15.787 3.44553 -2.47102 0
M  V30 178 C 14.246 3.21637 -1.00254 0
M  V30 179 O 14.776 4.00973 -0.241501 0
M  V30 180 N 12.982 2.7943 -0.797938 0
M  V30 181 H 12.529 2.15026 -1.4185 0
M  V30 182 H 12.487 3.144 -0.00363422 0
M  V30 183 N 16.2591 1.48442 0.529413 0
M  V30 184 C 17.2061 1.63007 1.63394 0
M  V30 185 C 18.1761 0.47212 1.59249 0
M  V30 186 O 19.3611 0.695673 1.77666 0
M  V30 187 C 16.5011 1.6763 3.01653 0
M  V30 188 C 15.6141 2.94535 3.16027 0
M  V30 189 C 14.7491 2.90316 4.44849 0
M  V30 190 C 13.7881 4.11923 4.52754 0
M  V30 191 N 12.9251 4.05777 5.72965 0
M  V30 192 H 17.7651 2.5733 1.50285 0
M  V30 193 H 15.3021 1.27613 0.731656 0
M  V30 194 H 17.2601 1.68292 3.81751 0
M  V30 195 H 15.8901 0.76797 3.13532 0
M  V30 196 H 14.9421 3.03615 2.29177 0
M  V30 197 H 16.2541 3.84512 3.17729 0
M  V30 198 H 15.4081 2.89382 5.33238 0
M  V30 199 H 14.1471 1.98068 4.45668 0
M  V30 200 H 13.1521 4.13131 3.62771 0
M  V30 201 H 14.3771 5.0533 4.53672 0
M  V30 202 H 12.3231 3.16351 5.74681 0
M  V30 203 H 12.2401 4.8946 5.76164 0
M  V30 204 H 13.5081 4.08904 6.6364 0
M  V30 205 N 17.7372 -0.778329 1.37039 0
M  V30 206 C 19.1532 -1.07796 1.17695 0
M  V30 207 C 19.3532 -2.01498 0.00860115 0
M  V30 208 O 18.4092 -2.43901 -0.653352 0
M  V30 209 C 19.7222 -1.68178 2.49272 0
M  V30 210 C 21.2702 -1.80467 2.55735 0
M  V30 211 C 21.7452 -2.44263 3.87427 0
M  V30 212 N 23.2362 -2.51721 3.88833 0
M  V30 213 C 23.9712 -3.01919 4.87476 0
M  V30 214 N 23.4672 -3.5234 5.96513 0
M  V30 215 N 25.2602 -3.00733 4.74885 0
M  V30 216 H 17.4112 -0.156032 2.11826 0
M  V30 217 H 19.6742 -0.131844 0.938787 0
M  V30 218 H 19.3802 -1.06796 3.35093 0
M  V30 219 H 19.2542 -2.67554 2.65885 0
M  V30 220 H 21.6412 -2.40984 1.70325 0
M  V30 221 H 21.7222 -0.798656 2.43013 0
M  V30 222 H 21.3662 -1.84388 4.73248 0
M  V30 223 H 21.2962 -3.45458 3.9745 0
M  V30 224 H 23.7872 -2.1603 3.10063 0
M  V30 225 H 24.1002 -3.89027 6.67741 0
M  V30 226 H 22.4452 -3.50462 6.00168 0
M  V30 227 H 25.6362 -2.60638 3.88826 0
M  V30 228 H 25.8092 -3.39545 5.51918 0
M  V30 229 N 19.2153 -1.21501 -1.00376 0
M  V30 230 C 20.1633 -0.972442 -2.11297 0
M  V30 231 C 21.1573 0.080731 -1.69208 0
M  V30 232 O 22.3633 -0.0707666 -1.79861 0
M  V30 233 H 18.7383 -0.297218 -0.690772 0
M  V30 234 H 20.7093 -1.91394 -2.28934 0
M  V30 235 C 19.4583 -0.555065 -3.43241 0
M  V30 236 H 18.7813 -1.35709 -3.76062 0
M  V30 237 H 20.2213 -0.424664 -4.21868 0
M  V30 238 C 18.6803 0.734147 -3.28804 0
M  V30 239 O 19.2103 1.78937 -3.59645 0
M  V30 240 N 17.4163 0.701133 -2.82015 0
M  V30 241 H 16.9633 -0.157874 -2.57116 0
M  V30 242 H 16.9213 1.56403 -2.72737 0
M  V30 243 N 20.6934 1.19889 -1.02296 0
M  V30 244 C 21.9214 1.9339 -0.735399 0
M  V30 245 C 22.3364 1.75148 0.704887 0
M  V30 246 O 21.6934 1.06954 1.47875 0
M  V30 247 C 21.7444 3.45313 -1.06962 0
M  V30 248 O 21.4654 3.62964 -2.45334 0
M  V30 249 C 22.9664 4.35948 -0.804021 0
M  V30 250 H 20.1864 0.61448 -0.269546 0
M  V30 251 H 22.7304 1.522 -1.36585 0
M  V30 252 H 20.8854 3.84359 -0.484455 0
M  V30 253 H 21.2994 4.56886 -2.57595 0
M  V30 254 H 22.7734 5.41174 -1.0879 0
M  V30 255 H 23.2504 4.3842 0.261691 0
M  V30 256 H 23.8564 4.02574 -1.37164 0
M  V30 257 N 22.1715 0.800033 1.35784 0
M  V30 258 C 23.1195 0.193851 2.31791 0
M  V30 259 C 24.1135 -0.652744 1.56319 0
M  V30 260 O 25.3195 -0.546641 1.71499 0
M  V30 261 H 21.6945 0.04392 0.750716 0
M  V30 262 H 23.6655 1.01883 2.80468 0
M  V30 263 C 22.4145 -0.648338 3.41602 0
M  V30 264 H 21.7375 -0.00624665 3.998 0
M  V30 265 H 23.1775 -1.03898 4.11073 0
M  V30 266 C 21.6365 -1.8111 2.84079 0
M  V30 267 O 22.1665 -2.90825 2.77099 0
M  V30 268 N 20.3725 -1.62056 2.41218 0
M  V30 269 H 19.9195 -0.728123 2.47095 0
M  V30 270 H 19.8775 -2.40013 2.03079 0
M  V30 271 N 23.6496 -1.47581 0.552962 0
M  V30 272 C 25.0656 -1.5818 0.212424 0
M  V30 273 C 25.2656 -1.55213 -1.28496 0
M  V30 274 O 24.3216 -1.45329 -2.06484 0
M  V30 275 C 25.6346 -2.88865 0.835318 0
M  V30 276 C 27.1826 -3.0244 0.806156 0
M  V30 277 C 27.6576 -4.35819 1.40804 0
M  V30 278 N 29.1486 -4.42444 1.37103 0
M  V30 279 C 29.8836 -5.44202 1.80641 0
M  V30 280 N 29.3796 -6.52795 2.32015 0
M  V30 281 N 31.1726 -5.35222 1.71738 0
M  V30 282 H 23.3236 -1.47753 1.52587 0
M  V30 283 H 25.5866 -0.702941 0.636064 0
M  V30 284 H 25.2926 -2.9676 1.88749 0
M  V30 285 H 25.1666 -3.7579 0.325848 0
M  V30 286 H 27.5536 -2.94144 -0.237317 0
M  V30 287 H 27.6346 -2.17068 1.35334 0
M  V30 288 H 27.2786 -4.44871 2.45056 0
M  V30 289 H 27.2086 -5.19916 0.836338 0
M  V30 290 H 29.6996 -3.6456 0.995202 0
M  V30 291 H 30.0126 -7.26609 2.63171 0
M  V30 292 H 28.3576 -6.53696 2.36023 0
M  V30 293 H 31.5486 -4.49284 1.31382 0
M  V30 294 H 31.7216 -6.14389 2.05987 0
M  V30 295 N 25.1277 -0.289203 -1.54924 0
M  V30 296 C 26.5437 0.0645403 -1.59469 0
M  V30 297 C 26.7437 1.53419 -1.30632 0
M  V30 298 O 25.7997 2.2852 -1.074 0
M  V30 299 C 27.1127 -0.32278 -2.98963 0
M  V30 300 C 28.6607 -0.270564 -3.11828 0
M  V30 301 C 29.1357 -0.632532 -4.53611 0
M  V30 302 N 30.6267 -0.584617 -4.59496 0
M  V30 303 C 31.3617 -0.837314 -5.67254 0
M  V30 304 N 30.8577 -1.15536 -6.83098 0
M  V30 305 N 32.6507 -0.765166 -5.56868 0
M  V30 306 H 24.8017 -1.24714 -1.71931 0
M  V30 307 H 27.0647 -0.504809 -0.802416 0
M  V30 308 H 26.7707 -1.34541 -3.24948 0
M  V30 309 H 26.6447 0.32944 -3.75759 0
M  V30 310 H 29.0317 0.742805 -2.85598 0
M  V30 311 H 29.1127 -0.957242 -2.37214 0
M  V30 312 H 28.7567 -1.64365 -4.80569 0
M  V30 313 H 28.6867 0.07609 -5.26545 0
M  V30 314 H 31.1777 -0.349248 -3.76283 0
M  V30 315 H 31.4907 -1.33447 -7.61191 0
M  V30 316 H 29.8357 -1.19328 -6.84679 0
M  V30 317 H 33.0267 -0.516432 -4.65243 0
M  V30 318 H 33.1997 -0.965477 -6.40767 0
M  V30 319 N 26.6058 1.57591 -0.0167156 0
M  V30 320 C 28.0168 1.79201 0.523834 0
M  V30 321 C 28.3678 0.925796 1.72984 0
M  V30 322 O 27.4928 0.132792 2.15992 0
M  V30 323 C 28.0878 3.25 0.957091 0
M  V30 324 C 26.6468 3.47648 1.44283 0
M  V30 325 C 25.7938 2.74374 0.401757 0
M  V30 326 H 28.7448 1.56831 -0.242816 0
M  V30 327 H 28.7658 3.34031 1.82219 0
M  V30 328 H 28.2778 3.88019 0.0791415 0
M  V30 329 H 26.3788 2.89866 2.34113 0
M  V30 330 H 26.4918 4.56352 1.45877 0
M  V30 331 H 24.8558 2.39485 0.867121 0
M  V30 332 H 25.6388 3.40102 -0.467513 0
M  V30 333 N 28.0839 -0.256276 1.55502 0
M  V30 334 C 29.0159 -1.33981 1.85962 0
M  V30 335 C 30.0289 -1.44743 0.745212 0
M  V30 336 O 31.2179 -1.4626 1.02324 0
M  V30 337 C 28.3179 -2.7194 2.02242 0
M  V30 338 C 27.4909 -2.83562 3.33033 0
M  V30 339 C 26.5499 -4.02304 3.39172 0
M  V30 340 O 25.5759 -3.92273 4.12444 0
M  V30 341 N 26.7779 -5.15045 2.67784 0
M  V30 342 H 29.5429 -1.08191 2.7949 0
M  V30 343 H 27.1039 -0.446388 1.55624 0
M  V30 344 H 29.0959 -3.49697 2.03701 0
M  V30 345 H 27.6659 -2.90479 1.15502 0
M  V30 346 H 26.8859 -1.92555 3.43971 0
M  V30 347 H 28.1739 -2.88271 4.19258 0
M  V30 348 H 27.5719 -5.26085 2.07968 0
M  V30 349 H 26.1289 -5.90972 2.74947 0
M  V30 350 N 29.562 -1.4872 -0.521534 0
M  V30 351 C 30.839 -1.4766 -1.2828 0
M  V30 352 C 31.219 -0.19292 -2.10217 0
M  V30 353 O 30.567 0.825193 -2.13079 0
M  V30 354 C 30.777 -2.74358 -2.15705 0
M  V30 355 C 32.125 -3.23028 -2.75569 0
M  V30 356 O 33.149 -2.75333 -2.25987 0
M  V30 357 O 32.008 -4.0604 -3.65778 0
M  V30 358 H 29.102 -0.590085 -0.579421 0
M  V30 359 H 31.648 -1.60963 -0.537492 0
M  V30 360 H 30.42 -3.59292 -1.54999 0
M  V30 361 H 30.043 -2.63816 -2.97467 0
M  V30 362 N 31.0401 0.771051 -1.3745 0
M  V30 363 C 32.2861 1.5319 -1.32894 0
M  V30 364 C 32.6191 1.94008 0.0862511 0
M  V30 365 O 31.8941 1.64124 1.04373 0
M  V30 366 C 32.1771 2.79648 -2.26868 0
M  V30 367 C 32.0301 2.45079 -3.77169 0
M  V30 368 C 33.3491 3.81583 -2.19277 0
M  V30 369 H 30.4681 0.555744 -0.484064 0
M  V30 370 H 33.1101 0.884492 -1.68157 0
M  V30 371 H 31.2601 3.34891 -1.96926 0
M  V30 372 H 32.9321 1.95745 -4.1771 0
M  V30 373 H 31.1751 1.77767 -3.95704 0
M  V30 374 H 31.8461 3.35478 -4.38359 0
M  V30 375 H 34.3221 3.35835 -2.45671 0
M  V30 376 H 33.1981 4.67787 -2.87171 0
M  V30 377 H 33.4591 4.25897 -1.18592 0
M  V30 378 N 32.5182 1.22032 0.997298 0
M  V30 379 C 33.4652 0.986467 2.08656 0
M  V30 380 C 34.4352 -0.0902671 1.65855 0
M  V30 381 O 35.6202 0.0584294 1.90711 0
M  V30 382 C 32.7602 0.565569 3.40434 0
M  V30 383 C 31.8732 1.71259 3.96604 0
M  V30 384 C 31.0082 1.24011 5.16522 0
M  V30 385 C 30.0472 2.35896 5.64818 0
M  V30 386 N 29.1842 1.89726 6.7598 0
M  V30 387 H 34.0242 1.91892 2.27994 0
M  V30 388 H 31.5612 0.956199 1.11782 0
M  V30 389 H 33.5192 0.302738 4.161 0
M  V30 390 H 32.1492 -0.329879 3.2111 0
M  V30 391 H 31.2012 2.08986 3.17851 0
M  V30 392 H 32.5132 2.55436 4.28432 0
M  V30 393 H 31.6672 0.934395 5.99461 0
M  V30 394 H 30.4062 0.368487 4.86306 0
M  V30 395 H 29.4112 2.67261 4.8047 0
M  V30 396 H 30.6362 3.23567 5.97061 0
M  V30 397 H 28.5822 1.0492 6.47555 0
M  V30 398 H 28.4992 2.67471 7.07103 0
M  V30 399 H 29.7672 1.62211 7.62435 0
M  V30 400 N 33.9963 -1.19345 1.0293 0
M  V30 401 C 35.2433 -1.89038 0.726008 0
M  V30 402 C 35.5713 -1.79649 -0.745427 0
M  V30 403 O 34.8263 -1.18354 -1.55855 0
M  V30 404 C 35.1253 -3.39292 1.12319 0
M  V30 405 C 34.7913 -3.68885 2.59297 0
M  V30 406 C 33.4533 -3.76671 2.99453 0
M  V30 407 C 35.8053 -3.82178 3.54386 0
M  V30 408 C 33.1333 -3.9522 4.33611 0
M  V30 409 C 35.4853 -4.0224 4.88248 0
M  V30 410 C 34.1493 -4.08259 5.28092 0
M  V30 411 H 33.4193 -0.691739 0.265665 0
M  V30 412 H 36.0663 -1.41328 1.29223 0
M  V30 413 H 34.3713 -3.88903 0.475584 0
M  V30 414 H 36.0683 -3.91536 0.866037 0
M  V30 415 H 32.6583 -3.63433 2.27189 0
M  V30 416 H 36.8423 -3.75505 3.24514 0
M  V30 417 H 32.0983 -3.98119 4.64016 0
M  V30 418 H 36.2723 -4.11468 5.61843 0
M  V30 419 H 33.8993 -4.22384 6.32057 0
M  V30 420 N 35.4744 -0.807222 -1.35358 0
M  V30 421 C 36.8854 -0.44876 -1.81226 0
M  V30 422 C 37.2364 1.02929 -1.67033 0
M  V30 423 O 36.3614 1.79991 -1.20133 0
M  V30 424 C 36.9564 -0.807774 -3.2903 0
M  V30 425 C 35.5154 -0.501901 -3.73039 0
M  V30 426 C 34.6624 -1.03304 -2.57339 0
M  V30 427 H 37.6134 -0.998808 -1.23327 0
M  V30 428 H 37.6344 -0.10554 -3.80354 0
M  V30 429 H 37.1464 -1.88357 -3.39328 0
M  V30 430 H 35.2474 0.565128 -3.68289 0
M  V30 431 H 35.3604 -1.03497 -4.67787 0
M  V30 432 H 33.7244 -0.455339 -2.50597 0
M  V30 433 H 34.5074 -2.11496 -2.70415 0
M  V30 434 N 36.9525 1.47285 -0.560781 0
M  V30 435 C 38.2005 2.02064 -0.0379868 0
M  V30 436 C 38.5215 1.43711 1.31803 0
M  V30 437 O 37.7915 0.61362 1.86042 0
M  V30 438 H 36.3715 0.746918 -0.0110531 0
M  V30 439 H 39.0335 1.80648 -0.731598 0
M  V30 440 H 38.1295 3.12064 0.0474463 0
M  V30 441 N 38.4306 0.297415 1.54768 0
M  V30 442 C 39.6786 -0.312295 1.99673 0
M  V30 443 C 39.9996 -1.54686 1.18732 0
M  V30 444 O 39.2696 -1.93854 0.282382 0
M  V30 445 H 37.8496 -0.118381 0.73756 0
M  V30 446 H 40.5116 0.407915 1.90583 0
M  V30 447 H 39.6076 -0.586813 3.06534 0
M  V30 448 N 39.9087 -1.5758 0.0250728 0
M  V30 449 C 41.1567 -1.91255 -0.653151 0
M  V30 450 C 41.4777 -0.901691 -1.729 0
M  V30 451 O 40.7477 0.0573785 -1.95816 0
M  V30 452 H 39.3277 -0.705942 -0.244243 0
M  V30 453 H 41.9897 -1.94767 0.0719209 0
M  V30 454 H 41.0857 -2.91752 -1.10847 0
M  V30 455 N 41.3868 0.248026 -1.55636 0
M  V30 456 C 42.3188 1.32993 -1.8667 0
M  V30 457 C 43.3318 1.44345 -0.752877 0
M  V30 458 O 44.5208 1.45715 -1.03098 0
M  V30 459 C 41.6208 2.70863 -2.03682 0
M  V30 460 C 40.7938 2.81792 -3.34532 0
M  V30 461 C 39.8528 4.005 -3.41301 0
M  V30 462 O 38.8788 3.9008 -4.14519 0
M  V30 463 N 40.0808 5.13618 -2.70512 0
M  V30 464 H 42.8458 1.06707 -2.8006 0
M  V30 465 H 40.4068 0.438129 -1.55859 0
M  V30 466 H 42.3988 3.48612 -2.05553 0
M  V30 467 H 40.9688 2.89862 -1.17041 0
M  V30 468 H 40.1888 1.90729 -3.44987 0
M  V30 469 H 41.4768 2.86043 -4.20781 0
M  V30 470 H 40.8748 5.24975 -2.10755 0
M  V30 471 H 39.4318 5.89505 -2.78077 0
M  V30 472 N 42.8649 1.48995 0.513639 0
M  V30 473 C 44.1139 1.57093 1.2651 0
M  V30 474 C 44.4269 0.257091 1.93903 0
M  V30 475 O 45.6329 0.216478 2.70636 0
M  V30 476 C 44.0889 2.77118 2.29638 0
M  V30 477 C 43.6969 4.15209 1.68241 0
M  V30 478 C 45.4409 2.94538 3.05692 0
M  V30 479 C 43.3479 5.26474 2.69406 0
M  V30 480 H 42.2779 0.584876 0.475854 0
M  V30 481 H 44.9289 1.7536 0.540487 0
M  V30 482 H 43.3109 2.52319 3.05207 0
M  V30 483 H 44.4849 4.50094 0.987505 0
M  V30 484 H 42.7999 4.03042 1.04623 0
M  V30 485 H 45.3969 3.74832 3.8132 0
M  V30 486 H 45.7399 2.04614 3.62545 0
M  V30 487 H 46.2729 3.19316 2.37238 0
M  V30 488 H 43.0119 6.18417 2.17351 0
M  V30 489 H 42.5319 4.96058 3.37175 0
M  V30 490 H 44.2109 5.55277 3.32078 0
M  V30 491 N 44.343 -0.763751 1.37857 0
M  V30 492 C 45.589 -1.52483 1.33704 0
M  V30 493 C 45.922 -1.94051 -0.0759612 0
M  V30 494 O 45.197 -1.64675 -1.03501 0
M  V30 495 C 45.48 -2.78441 2.28348 0
M  V30 496 C 45.333 -2.43075 3.78463 0
M  V30 497 C 46.652 -3.80415 2.21298 0
M  V30 498 H 43.771 -0.553169 0.487005 0
M  V30 499 H 46.413 -0.875562 1.68624 0
M  V30 500 H 44.563 -3.33842 1.987 0
M  V30 501 H 46.235 -1.93527 4.18742 0
M  V30 502 H 44.478 -1.75666 3.96641 0
M  V30 503 H 45.149 -3.33149 4.40132 0
M  V30 504 H 47.625 -3.34527 2.47449 0
M  V30 505 H 46.501 -4.66257 2.89647 0
M  V30 506 H 46.762 -4.25262 1.20849 0
M  V30 507 N 45.8211 -1.22559 -0.990812 0
M  V30 508 C 47.0691 -1.04933 -1.72724 0
M  V30 509 C 47.3901 0.416158 -1.90508 0
M  V30 510 O 46.6601 1.29918 -1.46622 0
M  V30 511 H 45.2401 -0.385296 -0.639965 0
M  V30 512 H 47.9021 -1.54105 -1.19322 0
M  V30 513 H 46.9981 -1.52886 -2.72089 0
M  V30 514 N 47.2992 1.18797 -1.03562 0
M  V30 515 C 48.5472 1.88278 -0.734569 0
M  V30 516 C 48.8682 1.8043 0.739586 0
M  V30 517 O 48.1382 1.21925 1.53333 0
M  V30 518 H 46.7182 0.696991 -0.268725 0
M  V30 519 H 49.3802 1.44192 -1.31129 0
M  V30 520 H 48.4762 2.94443 -1.03489 0
M  V30 521 N 48.7773 0.814389 1.34928 0
M  V30 522 C 50.0233 0.399013 1.98836 0
M  V30 523 C 50.3563 -1.03314 1.64438 0
M  V30 524 O 49.6313 -1.71811 0.911659 0
M  V30 525 C 49.9143 0.591629 3.55207 0
M  V30 526 C 49.7673 2.06928 3.99376 0
M  V30 527 C 51.0863 0.022199 4.40094 0
M  V30 528 H 48.2053 0.146451 0.722303 0
M  V30 529 H 50.8473 1.02537 1.59957 0
M  V30 530 H 48.9973 0.0584441 3.88456 0
M  V30 531 H 50.6693 2.66544 3.76499 0
M  V30 532 H 48.9123 2.56287 3.49999 0
M  V30 533 H 49.5833 2.1549 5.08201 0
M  V30 534 H 52.0593 0.477643 4.13349 0
M  V30 535 H 50.9353 0.186832 5.48582 0
M  V30 536 H 51.1963 -1.07215 4.28902 0
M  V30 537 N 50.2554 -1.46986 0.568584 0
M  V30 538 C 51.4854 -2.0653 0.0539173 0
M  V30 539 C 51.8934 -1.42004 -1.25026 0
M  V30 540 O 51.2364 -0.514541 -1.76347 0
M  V30 541 C 51.2984 -3.58938 -0.200854 0
M  V30 542 C 50.9624 -4.45572 1.01559 0
M  V30 543 C 51.9594 -4.82986 1.92407 0
M  V30 544 C 49.6444 -4.8692 1.23346 0
M  V30 545 C 51.6384 -5.60559 3.03402 0
M  V30 546 C 49.3254 -5.64255 2.34649 0
M  V30 547 C 50.3234 -6.00986 3.24507 0
M  V30 548 O 50.0114 -6.76761 4.33878 0
M  V30 549 H 49.7434 -0.674292 0.0480234 0
M  V30 550 H 52.2974 -1.89812 0.784896 0
M  V30 551 H 50.5274 -3.73911 -0.986279 0
M  V30 552 H 52.2164 -4.0046 -0.662294 0
M  V30 553 H 52.9824 -4.51633 1.76785 0
M  V30 554 H 48.8614 -4.57789 0.543178 0
M  V30 555 H 52.4054 -5.89147 3.73565 0
M  V30 556 H 48.3024 -5.95021 2.5024 0
M  V30 557 H 49.0704 -6.95168 4.32068 0
M  V30 558 N 51.7335 -0.305618 -1.54608 0
M  V30 559 C 52.6635 0.561482 -2.26649 0
M  V30 560 C 53.6445 1.13415 -1.26772 0
M  V30 561 O 54.8295 1.16262 -1.55553 0
M  V30 562 C 51.9595 1.73122 -3.01075 0
M  V30 563 C 50.9135 1.2887 -4.08138 0
M  V30 564 C 50.2395 2.54396 -4.70305 0
M  V30 565 C 51.5395 0.416578 -5.20636 0
M  V30 566 H 53.2335 -0.0393902 -2.99374 0
M  V30 567 H 50.7795 -0.020385 -1.43986 0
M  V30 568 H 52.7325 2.34396 -3.50195 0
M  V30 569 H 51.4565 2.3584 -2.25936 0
M  V30 570 H 50.1155 0.698991 -3.59875 0
M  V30 571 H 49.7635 3.15439 -3.918 0
M  V30 572 H 49.4635 2.25486 -5.42614 0
M  V30 573 H 50.9875 3.16464 -5.2219 0
M  V30 574 H 52.4015 0.935116 -5.65622 0
M  V30 575 H 50.7985 0.221046 -5.99693 0
M  V30 576 H 51.8685 -0.557162 -4.81688 0
M  V30 577 N 53.2116 1.57565 -0.0334293 0
M  V30 578 C 54.1416 2.13511 0.945265 0
M  V30 579 C 55.1226 1.05231 1.33643 0
M  V30 580 O 56.3076 1.33084 1.41429 0
M  V30 581 C 53.4376 2.6657 2.22616 0
M  V30 582 C 52.3916 3.79676 1.97561 0
M  V30 583 C 51.7176 4.1918 3.31952 0
M  V30 584 C 53.0176 5.0557 1.31135 0
M  V30 585 H 54.7116 2.95538 0.479325 0
M  V30 586 H 52.2576 1.42166 0.229115 0
M  V30 587 H 54.2106 3.04344 2.91466 0
M  V30 588 H 52.9346 1.8171 2.71384 0
M  V30 589 H 51.5936 3.42347 1.31127 0
M  V30 590 H 51.2416 3.31296 3.78487 0
M  V30 591 H 50.9416 4.95402 3.15992 0
M  V30 592 H 52.4656 4.59541 4.02063 0
M  V30 593 H 53.8796 5.40903 1.89992 0
M  V30 594 H 52.2766 5.86818 1.25559 0
M  V30 595 H 53.3466 4.84062 0.284894 0
M  V30 596 N 54.6897 -0.239769 1.55765 0
M  V30 597 C 56.1007 -0.808263 1.68297 0
M  V30 598 C 56.4517 -1.85736 0.632181 0
M  V30 599 O 55.5767 -2.15277 -0.220204 0
M  V30 600 C 56.1717 -1.47284 3.05111 0
M  V30 601 C 54.7307 -1.98895 3.19559 0
M  V30 602 C 53.8777 -0.842575 2.64189 0
M  V30 603 H 56.8287 -0.0154422 1.58692 0
M  V30 604 H 56.8497 -2.34111 2.99954 0
M  V30 605 H 56.3617 -0.709053 3.81568 0
M  V30 606 H 54.4627 -2.78132 2.47938 0
M  V30 607 H 54.5757 -2.18143 4.26556 0
M  V30 608 H 52.9397 -1.24501 2.22197 0
M  V30 609 H 53.7227 -0.0917552 3.43177 0
M  V30 610 N 56.1678 -1.49265 -0.50573 0
M  V30 611 C 57.5838 -1.35923 -0.836486 0
M  V30 612 C 57.7838 -0.388704 -1.97715 0
M  V30 613 O 56.8398 0.181336 -2.51848 0
M  V30 614 C 58.1528 -2.76531 -1.18115 0
M  V30 615 C 59.7008 -2.85197 -1.28964 0
M  V30 616 C 60.1758 -4.26561 -1.66761 0
M  V30 617 N 61.6668 -4.2935 -1.73819 0
M  V30 618 C 62.4018 -5.35693 -2.045 0
M  V30 619 N 61.8978 -6.52287 -2.33438 0
M  V30 620 N 63.6908 -5.23105 -2.05711 0
M  V30 621 H 55.8418 -2.10965 0.246519 0
M  V30 622 H 58.1048 -0.9468 0.0476887 0
M  V30 623 H 57.8108 -3.49226 -0.416398 0
M  V30 624 H 57.6848 -3.11599 -2.1257 0
M  V30 625 H 60.0718 -2.12742 -2.04511 0
M  V30 626 H 60.1528 -2.53718 -0.325704 0
M  V30 627 H 59.7968 -4.99541 -0.917656 0
M  V30 628 H 59.7268 -4.55502 -2.64246 0
M  V30 629 H 62.2178 -3.4526 -1.53635 0
M  V30 630 H 62.5308 -7.29158 -2.56024 0
M  V30 631 H 60.8758 -6.55521 -2.30905 0
M  V30 632 H 64.0668 -4.31026 -1.82577 0
M  V30 633 H 64.2398 -6.06078 -2.29289 0
M  V30 634 N 57.6459 0.756429 -1.3826 0
M  V30 635 C 59.0619 1.0591 -1.19395 0
M  V30 636 C 59.2619 2.01459 -0.0406567 0
M  V30 637 O 58.3179 2.44909 0.614467 0
M  V30 638 C 59.6309 1.64191 -2.51916 0
M  V30 639 C 61.1789 1.76376 -2.58574 0
M  V30 640 C 61.6539 2.38069 -3.91264 0
M  V30 641 N 63.1449 2.45503 -3.92788 0
M  V30 642 C 63.8799 2.94126 -4.92217 0
M  V30 643 N 63.3759 3.42805 -6.02043 0
M  V30 644 N 65.1689 2.9314 -4.7961 0
M  V30 645 H 57.3199 0.122313 -2.12048 0
M  V30 646 H 59.5829 0.116892 -0.940766 0
M  V30 647 H 59.2889 1.01451 -3.3675 0
M  V30 648 H 59.1629 2.6329 -2.70108 0
M  V30 649 H 61.5499 2.38244 -1.74137 0
M  V30 650 H 61.6309 0.759894 -2.44252 0
M  V30 651 H 61.2749 1.76835 -4.76121 0
M  V30 652 H 61.2049 3.39091 -4.02895 0
M  V30 653 H 63.6959 2.1107 -3.13461 0
M  V30 654 H 64.0089 3.78354 -6.73846 0
M  V30 655 H 62.3539 3.4087 -6.05667 0
M  V30 656 H 65.5449 2.54419 -3.92923 0
M  V30 657 H 65.7179 3.30721 -5.5725 0
M  V30 658 N 59.124 1.23083 0.984299 0
M  V30 659 C 60.372 1.05848 1.72165 0
M  V30 660 C 60.693 -0.406049 1.90726 0
M  V30 661 O 59.963 -1.29139 1.47309 0
M  V30 662 H 58.543 0.388685 0.637913 0
M  V30 663 H 61.205 1.54736 1.18503 0
M  V30 664 H 60.301 1.54327 2.71274 0
M  V30 665 N 60.6021 -1.18246 1.0419 0
M  V30 666 C 62.0131 -1.69914 0.773698 0
M  V30 667 C 62.3641 -1.83085 -0.705297 0
M  V30 668 O 61.4891 -1.51123 -1.5489 0
M  V30 669 C 62.0841 -3.08619 1.39784 0
M  V30 670 C 60.6431 -3.57494 1.17792 0
M  V30 671 C 59.7901 -2.34013 1.48773 0
M  V30 672 H 62.7411 -1.02904 1.20816 0
M  V30 673 H 62.7621 -3.71958 0.801714 0
M  V30 674 H 62.2741 -2.99001 2.47426 0
M  V30 675 H 60.3751 -3.72406 0.120295 0
M  V30 676 H 60.4881 -4.40852 1.87581 0
M  V30 677 H 58.8521 -2.37986 0.907463 0
M  V30 678 H 59.6351 -2.27013 2.57527 0
M  V30 679 N 62.0802 -0.821533 -1.34494 0
M  V30 680 C 63.4962 -0.507117 -1.51329 0
M  V30 681 C 63.6962 0.968964 -1.76673 0
M  V30 682 O 62.7522 1.75348 -1.81685 0
M  V30 683 C 64.0652 -1.36544 -2.67911 0
M  V30 684 C 65.6132 -1.36242 -2.81793 0
M  V30 685 C 66.0882 -2.2052 -4.01416 0
M  V30 686 N 67.5792 -2.18136 -4.08621 0
M  V30 687 C 68.3142 -2.80095 -5.00334 0
M  V30 688 N 67.8102 -3.51039 -5.9728 0
M  V30 689 N 69.6032 -2.69656 -4.93196 0
M  V30 690 H 61.7542 -1.77729 -1.16302 0
M  V30 691 H 64.0172 -0.757291 -0.570276 0
M  V30 692 H 63.7232 -2.41361 -2.55808 0
M  V30 693 H 63.5972 -1.02917 -3.62888 0
M  V30 694 H 65.9842 -0.322041 -2.93338 0
M  V30 695 H 66.0652 -1.73866 -1.87628 0
M  V30 696 H 65.7092 -3.24607 -3.90631 0
M  V30 697 H 65.6392 -1.80247 -4.94791 0
M  V30 698 H 68.1302 -1.6653 -3.39229 0
M  V30 699 H 68.4432 -3.95565 -6.63889 0
M  V30 700 H 66.7882 -3.55145 -5.97409 0
M  V30 701 H 69.9792 -2.13808 -4.16418 0
M  V30 702 H 70.1522 -3.1823 -5.64476 0
M  V30 703 N 63.5583 1.46682 -0.576371 0
M  V30 704 C 64.4883 2.33028 0.148397 0
M  V30 705 C 65.4693 1.44961 0.889956 0
M  V30 706 O 66.6543 1.73789 0.866662 0
M  V30 707 C 63.7843 3.27117 1.1667 0
M  V30 708 C 62.7383 4.24575 0.540386 0
M  V30 709 C 62.0643 5.08126 1.6647 0
M  V30 710 C 63.3643 5.19722 -0.518331 0
M  V30 711 H 65.0583 2.93875 -0.572509 0
M  V30 712 H 62.6043 1.41315 -0.276768 0
M  V30 713 H 64.5573 3.86374 1.68204 0
M  V30 714 H 63.2813 2.64364 1.9178 0
M  V30 715 H 61.9403 3.66571 0.0461769 0
M  V30 716 H 61.5883 4.41762 2.40531 0
M  V30 717 H 61.2883 5.74122 1.25131 0
M  V30 718 H 62.8123 5.70246 2.18293 0
M  V30 719 H 64.2263 5.73232 -0.0883058 0
M  V30 720 H 62.6233 5.94026 -0.851679 0
M  V30 721 H 63.6933 4.64037 -1.40703 0
M  V30 722 N 65.0364 0.313813 1.54444 0
M  V30 723 C 66.2844 -0.291099 1.99993 0
M  V30 724 C 66.6054 -1.53418 1.20366 0
M  V30 725 O 65.8754 -1.93544 0.302927 0
M  V30 726 H 64.4554 -0.110552 0.738774 0
M  V30 727 H 67.1174 0.428106 1.9014 0
M  V30 728 H 66.2134 -0.554268 3.07139 0
M  V30 729 N 66.5145 -1.57545 0.0417849 0
M  V30 730 C 67.7605 -1.92601 -0.635021 0
M  V30 731 C 68.0935 -0.919627 -1.71045 0
M  V30 732 O 67.3685 0.0557892 -1.9442 0
M  V30 733 C 67.6515 -3.38085 -1.23979 0
M  V30 734 C 67.5045 -4.49467 -0.173057 0
M  V30 735 C 68.8235 -3.83776 -2.15416 0
M  V30 736 H 65.9425 -0.700397 -0.229374 0
M  V30 737 H 68.5845 -1.89728 0.101633 0
M  V30 738 H 66.7345 -3.40664 -1.86762 0
M  V30 739 H 68.4065 -4.59018 0.458312 0
M  V30 740 H 66.6495 -4.30909 0.499996 0
M  V30 741 H 67.3205 -5.48323 -0.636054 0
M  V30 742 H 69.7965 -3.83013 -1.62605 0
M  V30 743 H 68.6725 -4.8624 -2.54679 0
M  V30 744 H 68.9335 -3.19998 -3.05047 0
M  V30 745 N 67.9926 0.231505 -1.5589 0
M  V30 746 C 69.4086 0.580748 -1.48659 0
M  V30 747 C 69.6086 1.87617 -0.73498 0
M  V30 748 O 68.6646 2.51046 -0.270586 0
M  V30 749 C 69.9776 0.669202 -2.93159 0
M  V30 750 C 71.5256 0.760499 -3.03621 0
M  V30 751 C 72.0006 0.880383 -4.49459 0
M  V30 752 N 73.4916 0.944861 -4.53461 0
M  V30 753 C 74.2266 1.05716 -5.63571 0
M  V30 754 N 73.7226 1.13403 -6.83456 0
M  V30 755 N 75.5156 1.09152 -5.514 0
M  V30 756 H 67.6666 -0.618695 -2.03189 0
M  V30 757 H 69.9296 -0.215728 -0.923128 0
M  V30 758 H 69.6356 -0.212904 -3.51055 0
M  V30 759 H 69.5096 1.5361 -3.44505 0
M  V30 760 H 71.8966 1.63305 -2.45796 0
M  V30 761 H 71.9776 -0.131864 -2.5546 0
M  V30 762 H 71.6216 0.0123284 -5.07899 0
M  V30 763 H 71.5516 1.78802 -4.95316 0
M  V30 764 H 74.0426 0.896176 -3.6712 0
M  V30 765 H 74.3556 1.21921 -7.63122 0
M  V30 766 H 72.7006 1.10333 -6.86186 0
M  V30 767 H 75.8916 1.02805 -4.56671 0
M  V30 768 H 76.0646 1.17558 -6.37247 0
M  V30 769 N 69.4707 1.49531 0.497807 0
M  V30 770 C 70.4337 1.65916 1.58128 0
M  V30 771 C 71.4337 0.530825 1.51786 0
M  V30 772 O 72.6237 0.797342 1.54881 0
M  V30 773 C 69.7557 1.65951 2.9778 0
M  V30 774 H 70.9487 2.62556 1.44929 0
M  V30 775 H 68.5017 1.38611 0.722275 0
M  V30 776 H 69.2367 0.709065 3.16453 0
M  V30 777 H 69.0217 2.47897 3.03792 0
M  V30 778 H 70.5117 1.80673 3.76493 0
M  V30 779 N 70.9488 -0.749086 1.3866 0
M  V30 780 C 72.1768 -1.53834 1.38358 0
M  V30 781 C 72.5918 -1.88783 -0.0255219 0
M  V30 782 O 71.9488 -1.53101 -0.993292 0
M  V30 783 C 71.9998 -2.83468 2.2434 0
M  V30 784 O 71.7208 -2.50008 3.5976 0
M  V30 785 C 73.2218 -3.7758 2.32267 0
M  V30 786 H 70.4418 -0.47585 0.473083 0
M  V30 787 H 72.9858 -0.926726 1.82297 0
M  V30 788 H 71.1408 -3.40995 1.83851 0
M  V30 789 H 71.5548 -3.33182 4.05081 0
M  V30 790 H 73.0288 -4.65478 2.96706 0
M  V30 791 H 73.5058 -4.18334 1.33765 0
M  V30 792 H 74.1118 -3.25976 2.73166 0
M  V30 793 N 72.4269 -1.23603 -0.977757 0
M  V30 794 C 73.8429 -0.999251 -1.24447 0
M  V30 795 C 74.0429 0.298053 -1.99283 0
M  V30 796 O 73.0989 1.01681 -2.31122 0
M  V30 797 C 74.4119 -2.20784 -2.04144 0
M  V30 798 C 75.9599 -2.25303 -2.17273 0
M  V30 799 C 76.4349 -3.45755 -3.00362 0
M  V30 800 N 77.9259 -3.4601 -3.07947 0
M  V30 801 C 78.6609 -4.35868 -3.72568 0
M  V30 802 N 78.1569 -5.35966 -4.38991 0
M  V30 803 N 79.9499 -4.23605 -3.6948 0
M  V30 804 H 72.1009 -2.06986 -0.476483 0
M  V30 805 H 74.3639 -0.907801 -0.273134 0
M  V30 806 H 74.0699 -3.14945 -1.56533 0
M  V30 807 H 73.9439 -2.22085 -3.04891 0
M  V30 808 H 76.3309 -1.3168 -2.64092 0
M  V30 809 H 76.4119 -2.28033 -1.15907 0
M  V30 810 H 76.0559 -4.39687 -2.5424 0
M  V30 811 H 75.9859 -3.40266 -4.01904 0
M  V30 812 H 78.4769 -2.73588 -2.60688 0
M  V30 813 H 78.7899 -6.00783 -4.86086 0
M  V30 814 H 77.1349 -5.39863 -4.37691 0
M  V30 815 H 80.3259 -3.44647 -3.16759 0
M  V30 816 H 80.4989 -4.93836 -4.1956 0
M  V30 817 N 73.905 1.17692 -1.04816 0
M  V30 818 C 74.852 2.21581 -0.645797 0
M  V30 819 C 75.822 1.62367 0.350159 0
M  V30 820 O 77.007 1.89254 0.242433 0
M  V30 821 C 74.147 3.45092 -0.0227568 0
M  V30 822 C 73.26 4.18613 -1.06709 0
M  V30 823 C 72.395 5.29602 -0.411767 0
M  V30 824 C 71.434 5.94904 -1.44067 0
M  V30 825 N 70.571 6.97414 -0.809781 0
M  V30 826 H 75.411 2.55353 -1.5362 0
M  V30 827 H 72.948 1.25438 -0.768364 0
M  V30 828 H 74.906 4.15679 0.35588 0
M  V30 829 H 73.536 3.11917 0.831122 0
M  V30 830 H 72.588 3.46779 -1.5636 0
M  V30 831 H 73.9 4.63293 -1.84827 0
M  V30 832 H 73.054 6.06696 0.0206623 0
M  V30 833 H 71.793 4.86045 0.401438 0
M  V30 834 H 70.798 5.16544 -1.88316 0
M  V30 835 H 72.023 6.40542 -2.25571 0
M  V30 836 H 69.969 6.55998 -0.0170186 0
M  V30 837 H 69.886 7.40386 -1.52856 0
M  V30 838 H 71.154 7.78463 -0.401999 0
M  V30 839 N 75.3831 0.828654 1.34056 0
M  V30 840 C 76.6111 0.43262 2.02326 0
M  V30 841 C 77.0261 -0.963147 1.62385 0
M  V30 842 O 76.3831 -1.62425 0.832121 0
M  V30 843 C 76.4341 0.53182 3.57567 0
M  V30 844 O 76.1551 1.87258 3.96063 0
M  V30 845 C 77.6561 0.131422 4.43105 0
M  V30 846 H 74.8761 0.172923 0.648335 0
M  V30 847 H 77.4201 1.1184 1.71208 0
M  V30 848 H 75.5751 -0.105938 3.87255 0
M  V30 849 H 75.9891 1.85087 4.90758 0
M  V30 850 H 77.4631 0.251904 5.51425 0
M  V30 851 H 77.9401 -0.925645 4.29335 0
M  V30 852 H 78.5461 0.743207 4.18756 0
M  V30 853 N 76.8612 -1.46375 0.584142 0
M  V30 854 C 78.0862 -2.07268 0.0740405 0
M  V30 855 C 78.5112 -1.42979 -1.22223 0
M  V30 856 O 77.8692 -0.514092 -1.73859 0
M  V30 857 C 77.9172 -3.60518 -0.0767769 0
M  V30 858 O 77.0212 -3.96533 -1.13292 0
M  V30 859 H 76.3622 -0.660961 0.0634524 0
M  V30 860 H 78.8922 -1.87991 0.807492 0
M  V30 861 H 78.9022 -4.07021 -0.282489 0
M  V30 862 H 77.5772 -4.06702 0.86986 0
M  V30 863 H 76.1542 -3.61738 -0.905553 0
M  V30 864 N 78.3393 -0.321999 -1.54275 0
M  V30 865 C 79.2493 0.553631 -2.27974 0
M  V30 866 C 80.2653 1.13054 -1.32268 0
M  V30 867 O 81.4413 1.15084 -1.6528 0
M  V30 868 C 78.5063 1.69927 -3.02201 0
M  V30 869 C 77.5673 1.15433 -4.1349 0
M  V30 870 C 76.8003 2.24537 -4.84168 0
M  V30 871 O 77.0233 3.44852 -4.5435 0
M  V30 872 O 75.9573 1.90044 -5.7111 0
M  V30 873 H 79.7833 -0.0448345 -3.03667 0
M  V30 874 H 77.3683 -0.0877418 -1.49142 0
M  V30 875 H 79.2503 2.3663 -3.48689 0
M  V30 876 H 77.9253 2.28395 -2.29385 0
M  V30 877 H 76.8323 0.452436 -3.71354 0
M  V30 878 H 78.1653 0.614805 -4.88345 0
M  V30 879 N 79.8174 1.5752 -0.0501392 0
M  V30 880 C 81.2334 1.56631 0.306402 0
M  V30 881 C 81.4334 1.0577 1.71508 0
M  V30 882 O 80.4894 0.713837 2.422 0
M  V30 883 C 81.8024 3.00393 0.135811 0
M  V30 884 C 83.3504 3.12315 0.206993 0
M  V30 885 C 83.8254 4.57954 0.064944 0
M  V30 886 N 85.3164 4.63041 0.121254 0
M  V30 887 C 86.0514 5.73389 0.0354381 0
M  V30 888 N 85.5474 6.92724 -0.102666 0
M  V30 889 N 87.3404 5.62026 0.090946 0
M  V30 890 H 79.4914 1.88903 -0.971046 0
M  V30 891 H 81.7544 0.869876 -0.376855 0
M  V30 892 H 81.4604 3.41635 -0.835384 0
M  V30 893 H 81.3344 3.66373 0.897275 0
M  V30 894 H 83.7214 2.70973 1.16866 0
M  V30 895 H 83.8024 2.49016 -0.585208 0
M  V30 896 H 83.4464 4.99981 -0.893394 0
M  V30 897 H 83.3764 5.19258 0.876277 0
M  V30 898 H 85.8674 3.77216 0.227284 0
M  V30 899 H 86.1804 7.72633 -0.160882 0
M  V30 900 H 84.5254 6.94864 -0.137737 0
M  V30 901 H 87.7164 4.67684 0.197388 0
M  V30 902 H 87.8894 6.47997 0.0206089 0
M  V30 903 N 81.2955 -0.223234 1.56011 0
M  V30 904 C 82.5205 -0.968978 1.83373 0
M  V30 905 C 82.9455 -1.77227 0.630254 0
M  V30 906 O 82.3035 -1.76345 -0.420959 0
M  V30 907 C 82.3515 -1.86363 3.08709 0
M  V30 908 O 81.4555 -2.95873 2.87285 0
M  V30 909 H 80.7965 -0.274461 0.604622 0
M  V30 910 H 83.3265 -0.237056 2.03222 0
M  V30 911 H 83.3365 -2.27376 3.38768 0
M  V30 912 H 82.0115 -1.27319 3.95933 0
M  V30 913 H 80.5885 -2.58818 2.68454 0
M  V30 914 N 82.7736 -1.49793 -0.48987 0
M  V30 915 C 83.7056 -1.63413 -1.60713 0
M  V30 916 C 84.7186 -0.516329 -1.54395 0
M  V30 917 O 85.9076 -0.788812 -1.60125 0
M  V30 918 C 83.0076 -1.58516 -2.99543 0
M  V30 919 C 82.1806 -2.86016 -3.30928 0
M  V30 920 C 81.2396 -2.74018 -4.49222 0
M  V30 921 O 80.2656 -3.47964 -4.50455 0
M  V30 922 N 81.4676 -1.86309 -5.4979 0
M  V30 923 H 84.2326 -2.59777 -1.49452 0
M  V30 924 H 81.7936 -1.47022 -0.677955 0
M  V30 925 H 83.7856 -1.48128 -3.76617 0
M  V30 926 H 82.3556 -0.69965 -3.0467 0
M  V30 927 H 81.5756 -3.10672 -2.42645 0
M  V30 928 H 82.8636 -3.70521 -3.487 0
M  V30 929 H 82.2616 -1.2551 -5.51601 0
M  V30 930 H 80.8186 -1.81837 -6.25922 0
M  V30 931 N 84.2517 0.741722 -1.39055 0
M  V30 932 C 85.6627 1.31966 -1.32068 0
M  V30 933 C 86.0137 1.96192 0.0180797 0
M  V30 934 O 85.1387 1.95861 0.920196 0
M  V30 935 C 85.7337 2.39954 -2.39181 0
M  V30 936 C 84.2927 2.93438 -2.35735 0
M  V30 937 C 83.4397 1.66936 -2.21422 0
M  V30 938 H 86.3907 0.539721 -1.4924 0
M  V30 939 H 86.4117 3.20182 -2.05581 0
M  V30 940 H 85.9237 1.9318 -3.36605 0
M  V30 941 H 84.0247 3.4451 -1.41929 0
M  V30 942 H 84.1377 3.4701 -3.30335 0
M  V30 943 H 82.5017 1.91016 -1.68478 0
M  V30 944 H 83.2847 1.22224 -3.20806 0
M  V30 945 N 85.7298 1.2412 0.971189 0
M  V30 946 C 87.1458 1.00584 1.23916 0
M  V30 947 C 87.3458 -0.287481 1.99439 0
M  V30 948 O 86.4018 -1.00454 2.31658 0
M  V30 949 C 87.7148 2.21864 2.0297 0
M  V30 950 C 89.2628 2.26452 2.16076 0
M  V30 951 C 89.7378 3.47343 2.98524 0
M  V30 952 N 91.2288 3.47639 3.06107 0
M  V30 953 C 91.9638 4.37837 3.70251 0
M  V30 954 N 91.4598 5.38286 4.36142 0
M  V30 955 N 93.2528 4.25558 3.67228 0
M  V30 956 H 85.4038 2.07236 0.465499 0
M  V30 957 H 87.6668 0.909236 0.268315 0
M  V30 958 H 87.3728 3.15771 1.54861 0
M  V30 959 H 87.2468 2.23698 3.03709 0
M  V30 960 H 89.6338 1.33078 2.6339 0
M  V30 961 H 89.7148 2.28645 1.14696 0
M  V30 962 H 89.3588 4.41029 2.51905 0
M  V30 963 H 89.2888 3.42393 4.00093 0
M  V30 964 H 91.7798 2.74966 2.59233 0
M  V30 965 H 92.0928 6.03352 4.82894 0
M  V30 966 H 90.4378 5.42176 4.34822 0
M  V30 967 H 93.6288 3.46322 3.14927 0
M  V30 968 H 93.8018 4.96054 4.16935 0
M  V30 969 N 87.2079 -1.17134 1.05439 0
M  V30 970 C 88.4559 -1.87085 0.764429 0
M  V30 971 C 88.7769 -1.81584 -0.710787 0
M  V30 972 O 88.0469 -1.24349 -1.51374 0
M  V30 973 H 86.6269 -0.692627 0.279779 0
M  V30 974 H 89.2889 -1.42087 1.33406 0
M  V30 975 H 88.3849 -2.92759 1.0816 0
M  V30 976 N 88.686 -0.835752 -1.33615 0
M  V30 977 C 90.102 -0.523139 -1.50783 0
M  V30 978 C 90.302 0.950171 -1.77691 0
M  V30 979 O 89.358 1.73411 -1.83534 0
M  V30 980 C 90.671 -1.39378 -2.66448 0
M  V30 981 C 92.219 -1.39223 -2.80332 0
M  V30 982 C 92.694 -2.24765 -3.99055 0
M  V30 983 N 94.185 -2.22458 -4.06284 0
M  V30 984 C 94.92 -2.85386 -4.97336 0
M  V30 985 N 94.416 -3.57354 -5.93523 0
M  V30 986 N 96.209 -2.74872 -4.90308 0
M  V30 987 H 88.36 -1.78952 -1.14411 0
M  V30 988 H 90.623 -0.763297 -0.562212 0
M  V30 989 H 90.329 -2.44061 -2.53234 0
M  V30 990 H 90.203 -1.0676 -3.61776 0
M  V30 991 H 92.59 -0.353136 -2.92979 0
M  V30 992 H 92.671 -1.75846 -1.85773 0
M  V30 993 H 92.315 -3.28732 -3.87167 0
M  V30 994 H 92.245 -1.85485 -4.92852 0
M  V30 995 H 94.736 -1.70119 -3.37443 0
M  V30 996 H 95.049 -4.02584 -6.59656 0
M  V30 997 H 93.394 -3.61461 -5.93608 0
M  V30 998 H 96.585 -2.18213 -4.14126 0
M  V30 999 H 96.758 -3.24199 -5.61069 0
M  V30 1000 N 90.1641 1.46063 -0.591896 0
M  V30 1001 C 91.5801 1.57561 -0.254288 0
M  V30 1002 C 91.7801 1.58565 1.24336 0
M  V30 1003 O 90.8361 1.50753 2.02558 0
M  V30 1004 C 92.1491 2.86549 -0.911611 0
M  V30 1005 C 93.6971 3.00197 -0.886059 0
M  V30 1006 C 94.1721 4.31933 -1.5231 0
M  V30 1007 N 95.6631 4.38654 -1.48786 0
M  V30 1008 C 96.3981 5.39222 -1.95006 0
M  V30 1009 N 95.8941 6.46414 -2.49241 0
M  V30 1010 N 97.6871 5.3048 -1.85868 0
M  V30 1011 H 89.8381 1.43655 -1.56451 0
M  V30 1012 H 92.1011 0.68583 -0.654478 0
M  V30 1013 H 91.8071 2.91651 -1.96551 0
M  V30 1014 H 91.6811 3.74794 -0.425368 0
M  V30 1015 H 94.0681 2.9467 0.159246 0
M  V30 1016 H 94.1491 2.13403 -1.41041 0
M  V30 1017 H 93.7931 4.38217 -2.56765 0
M  V30 1018 H 93.7231 5.17516 -0.973891 0
M  V30 1019 H 96.2141 3.61793 -1.09151 0
M  V30 1020 H 96.5271 7.19376 -2.82344 0
M  V30 1021 H 94.8721 6.47208 -2.53272 0
M  V30 1022 H 98.0631 4.45643 -1.43248 0
M  V30 1023 H 98.2361 6.08711 -2.22204 0
M  V30 1024 N 91.6422 0.330177 1.54103 0
M  V30 1025 C 92.5742 -0.566902 2.22079 0
M  V30 1026 C 93.5872 -1.07462 1.22294 0
M  V30 1027 O 94.7762 -0.987065 1.48726 0
M  V30 1028 C 91.8762 -1.79138 2.87685 0
M  V30 1029 C 91.0492 -1.42123 4.13666 0
M  V30 1030 C 90.1082 -2.50394 4.62806 0
M  V30 1031 O 89.1342 -2.14261 5.27334 0
M  V30 1032 N 90.3362 -3.81433 4.37595 0
M  V30 1033 H 93.1012 0.0151844 2.99696 0
M  V30 1034 H 90.6622 0.153681 1.61169 0
M  V30 1035 H 92.6542 -2.50975 3.1748 0
M  V30 1036 H 91.2242 -2.28115 2.13734 0
M  V30 1037 H 90.4442 -0.534201 3.90564 0
M  V30 1038 H 91.7322 -1.14971 4.9564 0
M  V30 1039 H 91.1302 -4.13584 3.8596 0
M  V30 1040 H 89.6872 -4.4948 4.72029 0
M  V30 1041 N 93.1203 -1.57491 0.0584922 0
M  V30 1042 C 94.5313 -1.80526 -0.476138 0
M  V30 1043 C 94.8823 -0.971334 -1.70469 0
M  V30 1044 O 94.0073 -0.190012 -2.15564 0
M  V30 1045 C 94.6023 -3.27424 -0.870587 0
M  V30 1046 C 93.1613 -3.51351 -1.35015 0
M  V30 1047 C 92.3083 -2.75343 -0.32887 0
M  V30 1048 H 95.2593 -1.56133 0.284312 0
M  V30 1049 H 95.2803 -3.38745 -1.73299 0
M  V30 1050 H 94.7923 -3.88093 0.0237627 0
M  V30 1051 H 92.8933 -2.95971 -2.26345 0
M  V30 1052 H 93.0063 -4.60059 -1.33726 0
M  V30 1053 H 91.3703 -2.417 -0.803321 0
M  V30 1054 H 92.1533 -3.38743 0.557521 0
M  V30 1055 N 94.5984 0.214957 -1.56127 0
M  V30 1056 C 95.8474 0.936451 -1.78643 0
M  V30 1057 C 96.1604 1.85237 -0.628229 0
M  V30 1058 O 97.3664 2.613 -0.737186 0
M  V30 1059 C 95.8224 1.7154 -3.16389 0
M  V30 1060 C 95.4304 0.845299 -4.39953 0
M  V30 1061 C 97.1744 2.42772 -3.48227 0
M  V30 1062 C 95.0814 1.62198 -5.68723 0
M  V30 1063 H 94.0114 0.353401 -0.666051 0
M  V30 1064 H 96.6624 0.190169 -1.82512 0
M  V30 1065 H 95.0444 2.50484 -3.06715 0
M  V30 1066 H 96.2184 0.0959353 -4.607 0
M  V30 1067 H 94.5334 0.244789 -4.1568 0
M  V30 1068 H 97.1304 3.01394 -4.41663 0
M  V30 1069 H 97.4734 3.15984 -2.71035 0
M  V30 1070 H 98.0064 1.70813 -3.5926 0
M  V30 1071 H 94.7454 0.933011 -6.48826 0
M  V30 1072 H 94.2654 2.34579 -5.52026 0
M  V30 1073 H 95.9444 2.18095 -6.09133 0
M  V30 1074 N 96.0765 1.50051 0.48192 0
M  V30 1075 C 97.4875 1.5348 1.06305 0
M  V30 1076 C 97.8385 0.331997 1.93371 0
M  V30 1077 O 96.9635 -0.556256 2.09129 0
M  V30 1078 C 97.5585 2.7813 1.93466 0
M  V30 1079 C 96.1175 2.84275 2.46707 0
M  V30 1080 C 95.2645 2.47637 1.24785 0
M  V30 1081 H 98.2155 1.56472 0.264995 0
M  V30 1082 H 98.2365 2.59372 2.78399 0
M  V30 1083 H 97.7485 3.65654 1.30072 0
M  V30 1084 H 95.8495 2.01077 3.13686 0
M  V30 1085 H 95.9625 3.8691 2.82555 0
M  V30 1086 H 94.3265 1.99835 1.57918 0
M  V30 1087 H 95.1095 3.37457 0.630694 0
M  V30 1088 N 97.5546 -0.734337 1.39446 0
M  V30 1089 C 98.5016 -1.84835 1.38219 0
M  V30 1090 C 99.4716 -1.64331 0.24179 0
M  V30 1091 O 100.657 -1.85728 0.437002 0
M  V30 1092 C 97.7966 -3.22355 1.23212 0
M  V30 1093 C 96.9096 -3.5456 2.46801 0
M  V30 1094 C 96.0446 -4.81485 2.24377 0
M  V30 1095 C 95.0836 -5.06536 3.43639 0
M  V30 1096 N 94.2206 -6.24665 3.20528 0
M  V30 1097 H 99.0606 -1.85219 2.33448 0
M  V30 1098 H 96.5976 -0.905039 1.15963 0
M  V30 1099 H 98.5556 -4.0174 1.12522 0
M  V30 1100 H 97.1856 -3.21248 0.316121 0
M  V30 1101 H 96.2376 -2.69872 2.68092 0
M  V30 1102 H 97.5496 -3.6899 3.3563 0
M  V30 1103 H 96.7036 -5.68852 2.10933 0
M  V30 1104 H 95.4426 -4.6923 1.32944 0
M  V30 1105 H 94.4476 -4.17632 3.5758 0
M  V30 1106 H 95.6726 -5.20676 4.35974 0
M  V30 1107 H 93.6186 -6.13696 2.3176 0
M  V30 1108 H 93.5356 -6.39685 4.02913 0
M  V30 1109 H 94.8036 -7.14868 3.10779 0
M  V30 1110 N 99.0327 -1.24633 -0.964593 0
M  V30 1111 C 99.9957 -1.0424 -2.04124 0
M  V30 1112 C 100.996 0.00137563 -1.608 0
M  V30 1113 O 102.186 -0.239883 -1.7254 0
M  V30 1114 C 99.3177 -0.580588 -3.3592 0
M  V30 1115 H 100.511 -1.99803 -2.23649 0
M  V30 1116 H 98.0637 -1.06899 -1.14027 0
M  V30 1117 H 98.7987 0.3781 -3.22088 0
M  V30 1118 H 98.5837 -1.33398 -3.6871 0
M  V30 1119 H 100.074 -0.459034 -4.15069 0
M  V30 1120 N 100.511 1.16574 -1.06058 0
M  V30 1121 C 101.927 1.3904 -0.783585 0
M  V30 1122 C 102.127 1.91784 0.618145 0
M  V30 1123 O 101.183 2.11511 1.37911 0
M  V30 1124 C 102.496 2.37329 -1.84649 0
M  V30 1125 C 104.044 2.51018 -1.86973 0
M  V30 1126 C 104.519 3.52588 -2.92311 0
M  V30 1127 N 106.01 3.60113 -2.91329 0
M  V30 1128 C 106.745 4.38486 -3.69482 0
M  V30 1129 N 106.241 5.20302 -4.57447 0
M  V30 1130 N 108.034 4.33446 -3.57885 0
M  V30 1131 H 100.185 0.806725 -1.96483 0
M  V30 1132 H 102.448 0.417117 -0.851303 0
M  V30 1133 H 102.154 2.05663 -2.85299 0
M  V30 1134 H 102.028 3.36946 -1.6955 0
M  V30 1135 H 104.415 2.81989 -0.869827 0
M  V30 1136 H 104.496 1.51445 -2.0615 0
M  V30 1137 H 104.14 3.22354 -3.92492 0
M  V30 1138 H 104.07 4.51886 -2.70383 0
M  V30 1139 H 106.561 3.01707 -2.27555 0
M  V30 1140 H 106.874 5.77311 -5.13743 0
M  V30 1141 H 105.219 5.19653 -4.61503 0
M  V30 1142 H 108.41 3.68586 -2.88551 0
M  V30 1143 H 108.583 4.94279 -4.19037 0
M  V30 1144 N 101.989 0.842826 1.3317 0
M  V30 1145 C 103.405 0.531128 1.50503 0
M  V30 1146 C 103.605 -0.940734 1.78192 0
M  V30 1147 O 102.661 -1.72436 1.84451 0
M  V30 1148 C 103.974 1.40789 2.65705 0
M  V30 1149 C 105.522 1.40708 2.79589 0
M  V30 1150 C 105.997 2.26878 3.97857 0
M  V30 1151 N 107.488 2.24609 4.05099 0
M  V30 1152 C 108.223 2.88019 4.95815 0
M  V30 1153 N 107.719 3.60496 5.9162 0
M  V30 1154 N 109.512 2.77469 4.88843 0
M  V30 1155 H 101.663 1.79557 1.1346 0
M  V30 1156 H 103.926 0.766267 0.558156 0
M  V30 1157 H 103.632 2.454 2.51936 0
M  V30 1158 H 103.506 1.08677 3.61205 0
M  V30 1159 H 105.893 0.368668 2.92788 0
M  V30 1160 H 105.974 1.76829 1.84838 0
M  V30 1161 H 105.618 3.3078 3.85418 0
M  V30 1162 H 105.548 1.88096 4.91861 0
M  V30 1163 H 108.039 1.71906 3.36536 0
M  V30 1164 H 108.352 4.06076 6.57512 0
M  V30 1165 H 106.697 3.64604 5.91683 0
M  V30 1166 H 109.888 2.20406 4.12963 0
M  V30 1167 H 110.061 3.2717 5.59342 0
M  V30 1168 N 103.467 -1.45747 0.599634 0
M  V30 1169 C 104.878 -1.85853 0.177681 0
M  V30 1170 C 105.229 -1.50102 -1.26348 0
M  V30 1171 O 104.354 -0.923905 -1.95686 0
M  V30 1172 C 104.949 -3.37326 0.315688 0
M  V30 1173 C 103.508 -3.76365 -0.0515144 0
M  V30 1174 C 102.655 -2.69722 0.643822 0
M  V30 1175 H 105.606 -1.36661 0.806814 0
M  V30 1176 H 105.627 -3.77778 -0.454321 0
M  V30 1177 H 105.139 -3.63315 1.36468 0
M  V30 1178 H 103.24 -3.55993 -1.09999 0
M  V30 1179 H 103.353 -4.77916 0.336594 0
M  V30 1180 H 101.717 -2.54567 0.0822881 0
M  V30 1181 H 102.5 -2.98549 1.6948 0
M  V30 1182 N 104.945 -0.338344 -1.53925 0
M  V30 1183 C 105.855 0.529421 -2.28548 0
M  V30 1184 C 106.871 1.11645 -1.3346 0
M  V30 1185 O 108.047 1.13325 -1.66492 0
M  V30 1186 C 105.112 1.66713 -3.03987 0
M  V30 1187 C 104.173 1.11041 -4.14691 0
M  V30 1188 C 103.406 2.19389 -4.86522 0
M  V30 1189 O 103.629 3.40013 -4.57982 0
M  V30 1190 O 102.563 1.83976 -5.73094 0
M  V30 1191 H 106.389 -0.0770399 -3.03602 0
M  V30 1192 H 103.974 -0.103555 -1.49041 0
M  V30 1193 H 105.856 2.32918 -3.5118 0
M  V30 1194 H 104.531 2.25949 -2.31794 0
M  V30 1195 H 103.438 0.413024 -3.71813 0
M  V30 1196 H 104.771 0.562975 -4.8897 0
M  V30 1197 N 106.423 1.57458 -0.0668435 0
M  V30 1198 C 107.671 1.92919 0.602214 0
M  V30 1199 C 107.992 0.947215 1.70449 0
M  V30 1200 O 107.262 -0.00544117 1.95899 0
M  V30 1201 H 105.842 0.71217 0.22544 0
M  V30 1202 H 108.504 1.94508 -0.123535 0
M  V30 1203 H 107.6 2.94589 1.03073 0
M  V30 1204 N 107.901 -0.206675 1.56239 0
M  V30 1205 C 109.317 -0.557025 1.49564 0
M  V30 1206 C 109.517 -1.86424 0.764735 0
M  V30 1207 O 108.573 -2.50584 0.310491 0
M  V30 1208 C 109.886 -0.622478 2.94186 0
M  V30 1209 C 111.434 -0.712099 3.04792 0
M  V30 1210 C 111.909 -0.808767 4.50803 0
M  V30 1211 N 113.4 -0.8726 4.54907 0
M  V30 1212 C 114.135 -0.967365 5.65181 0
M  V30 1213 N 113.631 -1.02515 6.85173 0
M  V30 1214 N 115.424 -1.00366 5.53067 0
M  V30 1215 H 107.575 0.650943 2.02179 0
M  V30 1216 H 109.838 0.230387 0.919579 0
M  V30 1217 H 109.544 0.268727 3.50672 0
M  V30 1218 H 109.418 -1.4811 3.46905 0
M  V30 1219 H 111.805 -1.59374 2.48363 0
M  V30 1220 H 111.886 0.172489 2.55218 0
M  V30 1221 H 111.53 0.0684754 5.07854 0
M  V30 1222 H 111.46 -1.70899 4.98098 0
M  V30 1223 H 113.951 -0.837657 3.68499 0
M  V30 1224 H 114.264 -1.09765 7.64965 0
M  V30 1225 H 112.609 -0.994026 6.87855 0
M  V30 1226 H 115.8 -0.95527 4.58249 0
M  V30 1227 H 115.973 -1.07405 6.39037 0
M  V30 1228 N 109.379 -1.50304 -0.473955 0
M  V30 1229 C 110.607 -1.64902 -1.24959 0
M  V30 1230 C 111.022 -0.331198 -1.85872 0
M  V30 1231 O 110.379 0.68652 -1.69095 0
M  V30 1232 C 110.43 -2.73803 -2.36038 0
M  V30 1233 O 110.151 -4.00477 -1.77624 0
M  V30 1234 C 111.652 -2.99349 -3.26964 0
M  V30 1235 H 108.872 -0.554383 -0.378022 0
M  V30 1236 H 111.416 -1.9651 -0.566054 0
M  V30 1237 H 109.571 -2.44898 -3.00173 0
M  V30 1238 H 109.985 -4.60678 -2.5075 0
M  V30 1239 H 111.459 -3.79217 -4.01121 0
M  V30 1240 H 111.936 -2.10307 -3.85574 0
M  V30 1241 H 112.542 -3.29774 -2.68569 0
M  V30 1242 N 110.857 0.726932 -1.39834 0
M  V30 1243 C 112.103 1.48771 -1.38704 0
M  V30 1244 C 112.458 1.92394 0.0146387 0
M  V30 1245 O 111.751 1.64474 0.982797 0
M  V30 1246 C 111.945 2.73495 -2.30077 0
M  V30 1247 C 111.774 2.42068 -3.78989 0
M  V30 1248 C 110.544 2.33966 -4.4787 0
M  V30 1249 C 112.742 2.0708 -4.70768 0
M  V30 1250 N 110.724 1.95095 -5.82075 0
M  V30 1251 C 112.095 1.78719 -5.93683 0
M  V30 1252 C 114.15 1.93618 -4.58712 0
M  V30 1253 C 112.853 1.3825 -7.05889 0
M  V30 1254 C 114.879 1.54553 -5.70848 0
M  V30 1255 C 114.241 1.27082 -6.92842 0
M  V30 1256 H 110.34 0.542919 -0.562817 0
M  V30 1257 H 112.924 0.84408 -1.75452 0
M  V30 1258 H 111.095 3.35625 -1.95474 0
M  V30 1259 H 112.827 3.39755 -2.19883 0
M  V30 1260 H 109.582 2.51331 -4.0141 0
M  V30 1261 H 110.006 1.7823 -6.53118 0
M  V30 1262 H 114.648 2.13522 -3.64922 0
M  V30 1263 H 112.366 1.17088 -7.99572 0
M  V30 1264 H 115.952 1.44731 -5.6351 0
M  V30 1265 H 114.832 0.973069 -7.78139 0
M  V30 1266 N 112.336 1.25143 0.95797 0
M  V30 1267 C 113.299 1.05321 2.03569 0
M  V30 1268 C 114.299 0.007152 1.60798 0
M  V30 1269 O 115.489 0.24903 1.72411 0
M  V30 1270 C 112.621 0.598394 3.35607 0
M  V30 1271 H 113.814 2.00986 2.22586 0
M  V30 1272 H 111.367 1.07502 1.13459 0
M  V30 1273 H 112.102 -0.361014 3.22284 0
M  V30 1274 H 111.887 1.35351 3.67998 0
M  V30 1275 H 113.377 0.48104 4.1482 0
M  V30 1276 N 113.814 -1.1601 1.06675 0
M  V30 1277 C 114.746 -2.20115 0.638921 0
M  V30 1278 C 115.759 -1.59916 -0.305057 0
M  V30 1279 O 116.948 -1.78245 -0.0954446 0
M  V30 1280 C 114.048 -3.38798 -0.0830083 0
M  V30 1281 C 113.221 -4.2855 0.875426 0
M  V30 1282 C 112.28 -5.25849 0.192042 0
M  V30 1283 O 111.306 -5.63102 0.830921 0
M  V30 1284 N 112.508 -5.70648 -1.06493 0
M  V30 1285 H 115.273 -2.57439 1.53444 0
M  V30 1286 H 112.834 -1.31057 0.950557 0
M  V30 1287 H 114.826 -4.00936 -0.550685 0
M  V30 1288 H 113.396 -2.99947 -0.880386 0
M  V30 1289 H 112.616 -3.63617 1.52238 0
M  V30 1290 H 113.904 -4.85393 1.52548 0
M  V30 1291 H 113.302 -5.42482 -1.60405 0
M  V30 1292 H 111.859 -6.34859 -1.47641 0
M  V30 1293 N 115.292 -0.849877 -1.32721 0
M  V30 1294 C 116.703 -0.506188 -1.79707 0
M  V30 1295 C 117.054 0.975627 -1.70223 0
M  V30 1296 O 116.179 1.76078 -1.25799 0
M  V30 1297 C 116.774 -0.912044 -3.26293 0
M  V30 1298 C 115.333 -0.620326 -3.71253 0
M  V30 1299 C 114.48 -1.11439 -2.53922 0
M  V30 1300 H 117.431 -1.03754 -1.20087 0
M  V30 1301 H 117.452 -0.226493 -3.79825 0
M  V30 1302 H 116.964 -1.99057 -3.33164 0
M  V30 1303 H 115.065 0.447674 -3.69901 0
M  V30 1304 H 115.178 -1.18327 -4.64258 0
M  V30 1305 H 113.542 -0.534834 -2.49021 0
M  V30 1306 H 114.325 -2.19992 -2.6355 0
M  V30 1307 N 116.77 1.45427 -0.607355 0
M  V30 1308 C 118.018 2.01841 -0.102253 0
M  V30 1309 C 118.339 1.47832 1.27164 0
M  V30 1310 O 117.609 0.672497 1.83995 0
M  V30 1311 H 116.189 0.746188 -0.0348101 0
M  V30 1312 H 118.851 1.78229 -0.7887 0
M  V30 1313 H 117.947 3.12057 -0.0518585 0
M  V30 1314 N 118.248 0.346503 1.53744 0
M  V30 1315 C 119.478 -0.250047 2.05081 0
M  V30 1316 C 119.886 -1.44529 1.22098 0
M  V30 1317 O 119.229 -1.81992 0.249917 0
M  V30 1318 C 119.291 -0.725934 3.52094 0
M  V30 1319 C 118.955 0.350053 4.55657 0
M  V30 1320 C 119.952 1.19372 5.0601 0
M  V30 1321 C 117.637 0.504827 4.99757 0
M  V30 1322 C 119.631 2.17768 5.99046 0
M  V30 1323 C 117.318 1.49218 5.92602 0
M  V30 1324 C 118.316 2.32706 6.42135 0
M  V30 1325 O 118.004 3.2976 7.33153 0
M  V30 1326 H 117.736 -0.0515469 0.674032 0
M  V30 1327 H 120.29 0.497559 1.99282 0
M  V30 1328 H 118.52 -1.52483 3.55367 0
M  V30 1329 H 120.209 -1.24336 3.86388 0
M  V30 1330 H 120.975 1.08525 4.72702 0
M  V30 1331 H 116.854 -0.135178 4.60802 0
M  V30 1332 H 120.398 2.82971 6.37631 0
M  V30 1333 H 116.295 1.6012 6.25325 0
M  V30 1334 H 117.063 3.25265 7.51096 0
M  V30 1335 N 119.726 -1.57421 0.075193 0
M  V30 1336 C 121.137 -1.81021 -0.456964 0
M  V30 1337 C 121.488 -0.98936 -1.69429 0
M  V30 1338 O 120.613 -0.212865 -2.15351 0
M  V30 1339 C 121.208 -3.28329 -0.83581 0
M  V30 1340 C 119.767 -3.52764 -1.31281 0
M  V30 1341 C 118.914 -2.75676 -0.299648 0
M  V30 1342 H 121.865 -1.55822 0.300856 0
M  V30 1343 H 121.886 -3.40564 -1.69696 0
M  V30 1344 H 121.398 -3.88046 0.0649238 0
M  V30 1345 H 119.499 -2.98355 -2.23193 0
M  V30 1346 H 119.612 -4.61451 -1.28839 0
M  V30 1347 H 117.976 -2.42538 -0.777641 0
M  V30 1348 H 118.759 -3.38132 0.593417 0
M  V30 1349 N 121.204 0.198386 -1.56346 0
M  V30 1350 C 122.45 0.916115 -1.81601 0
M  V30 1351 C 122.805 1.81025 -0.651744 0
M  V30 1352 O 122.098 1.88316 0.353229 0
M  V30 1353 C 122.292 1.77031 -3.10475 0
M  V30 1354 C 122.121 0.960365 -4.39326 0
M  V30 1355 C 120.891 0.646093 -5.01152 0
M  V30 1356 C 123.089 0.314628 -5.13337 0
M  V30 1357 N 121.071 -0.182828 -6.13628 0
M  V30 1358 C 122.442 -0.37664 -6.18855 0
M  V30 1359 C 124.497 0.230019 -4.97368 0
M  V30 1360 C 123.2 -1.14445 -7.10137 0
M  V30 1361 C 125.226 -0.524389 -5.89071 0
M  V30 1362 C 124.588 -1.20412 -6.94032 0
M  V30 1363 H 120.687 0.314732 -0.715868 0
M  V30 1364 H 123.271 0.185102 -1.93818 0
M  V30 1365 H 121.442 2.47295 -2.99499 0
M  V30 1366 H 123.174 2.42727 -3.2383 0
M  V30 1367 H 119.929 0.969724 -4.63566 0
M  V30 1368 H 120.353 -0.586802 -6.74452 0
M  V30 1369 H 124.995 0.741184 -4.16253 0
M  V30 1370 H 122.713 -1.66706 -7.90718 0
M  V30 1371 H 126.299 -0.591167 -5.78789 0
M  V30 1372 H 125.179 -1.77853 -7.63766 0
M  V30 1373 N 122.682 1.50554 0.465978 0
M  V30 1374 C 124.093 1.54599 1.04671 0
M  V30 1375 C 124.444 0.352488 1.93008 0
M  V30 1376 O 123.569 -0.534044 2.09707 0
M  V30 1377 C 124.164 2.80166 1.90505 0
M  V30 1378 C 122.723 2.86876 2.43678 0
M  V30 1379 C 121.87 2.48947 1.22151 0
M  V30 1380 H 124.821 1.56744 0.248384 0
M  V30 1381 H 124.842 2.62311 2.75633 0
M  V30 1382 H 124.354 3.67013 1.26186 0
M  V30 1383 H 122.455 2.04393 3.11536 0
M  V30 1384 H 122.568 3.89885 2.78436 0
M  V30 1385 H 120.932 2.01498 1.5579 0
M  V30 1386 H 121.715 3.38107 0.594866 0
M  V30 1387 N 124.16 -0.719506 1.40217 0
M  V30 1388 C 125.09 -1.8465 1.42922 0
M  V30 1389 C 126.071 -1.67599 0.29062 0
M  V30 1390 O 127.256 -1.87688 0.498677 0
M  V30 1391 C 124.386 -3.22565 1.28722 0
M  V30 1392 C 123.34 -3.54281 2.40144 0
M  V30 1393 C 122.666 -4.91298 2.11023 0
M  V30 1394 C 123.966 -3.55676 3.82481 0
M  V30 1395 H 125.66 -1.82644 2.37237 0
M  V30 1396 H 123.206 -0.877305 1.1419 0
M  V30 1397 H 125.159 -4.01095 1.29232 0
M  V30 1398 H 123.883 -3.25137 0.308811 0
M  V30 1399 H 122.542 -2.78088 2.38877 0
M  V30 1400 H 122.19 -4.90468 1.11582 0
M  V30 1401 H 121.89 -5.13485 2.8567 0
M  V30 1402 H 123.414 -5.72166 2.13209 0
M  V30 1403 H 124.828 -4.24254 3.85592 0
M  V30 1404 H 123.225 -3.89388 4.56614 0
M  V30 1405 H 124.295 -2.55144 4.12346 0
M  V30 1406 N 125.638 -1.25649 -0.95132 0
M  V30 1407 C 126.868 -1.13179 -1.72841 0
M  V30 1408 C 127.276 0.316827 -1.86528 0
M  V30 1409 O 126.619 1.22948 -1.3649 0
M  V30 1410 C 126.681 -1.71644 -3.15878 0
M  V30 1411 C 126.345 -3.20667 -3.25609 0
M  V30 1412 C 127.342 -4.17616 -3.09666 0
M  V30 1413 C 125.027 -3.6094 -3.49324 0
M  V30 1414 C 127.021 -5.52817 -3.17289 0
M  V30 1415 C 124.708 -4.96278 -3.56584 0
M  V30 1416 C 125.706 -5.92025 -3.40581 0
M  V30 1417 O 125.394 -7.24899 -3.47528 0
M  V30 1418 H 125.126 -0.395389 -0.54831 0
M  V30 1419 H 127.68 -1.66566 -1.20187 0
M  V30 1420 H 125.91 -1.12707 -3.69911 0
M  V30 1421 H 127.599 -1.54225 -3.75459 0
M  V30 1422 H 128.365 -3.87842 -2.91211 0
M  V30 1423 H 124.244 -2.86907 -3.6084 0
M  V30 1424 H 127.788 -6.2753 -3.04716 0
M  V30 1425 H 123.685 -5.25716 -3.74556 0
M  V30 1426 H 124.453 -7.33039 -3.64138 0
M  V30 1427 N 127.117 1.15442 -1.07289 0
M  V30 1428 C 128.365 1.85845 -0.794096 0
M  V30 1429 C 128.686 1.82692 0.681809 0
M  V30 1430 O 127.956 1.26741 1.49377 0
M  V30 1431 H 126.536 0.688089 -0.290763 0
M  V30 1432 H 129.198 1.39947 -1.3565 0
M  V30 1433 H 128.294 2.91001 -1.12804 0
M  V30 1434 N 128.595 0.856903 1.32268 0
M  V30 1435 C 129.543 0.291987 2.3076 0
M  V30 1436 C 130.537 -0.585857 1.58947 0
M  V30 1437 O 131.743 -0.47341 1.73663 0
M  V30 1438 H 128.118 0.075721 0.748178 0
M  V30 1439 H 130.089 1.13687 2.75895 0
M  V30 1440 C 128.838 -0.502869 3.44044 0
M  V30 1441 H 128.161 0.163328 3.99466 0
M  V30 1442 H 129.601 -0.863691 4.1511 0
M  V30 1443 C 128.06 -1.68898 2.91505 0
M  V30 1444 O 128.59 -2.78811 2.89184 0
M  V30 1445 N 126.796 -1.51679 2.47875 0
M  V30 1446 H 126.343 -0.622666 2.49961 0
M  V30 1447 H 126.301 -2.31184 2.13076 0
M  V30 1448 N 130.073 -1.45103 0.615059 0
M  V30 1449 C 130.983 -2.34382 -0.101034 0
M  V30 1450 C 131.999 -1.51681 -0.852585 0
M  V30 1451 O 133.175 -1.8446 -0.808484 0
M  V30 1452 C 130.24 -3.29417 -1.08099 0
M  V30 1453 C 129.301 -4.28025 -0.330577 0
M  V30 1454 C 128.534 -5.1852 -1.26385 0
M  V30 1455 O 128.757 -5.12598 -2.50198 0
M  V30 1456 O 127.691 -5.97122 -0.756866 0
M  V30 1457 H 131.517 -2.97033 0.632855 0
M  V30 1458 H 129.102 -1.4461 0.375293 0
M  V30 1459 H 130.984 -3.87958 -1.6452 0
M  V30 1460 H 129.659 -2.69321 -1.79577 0
M  V30 1461 H 128.566 -3.73078 0.276283 0
M  V30 1462 H 129.899 -4.90997 0.343866 0
M  V30 1463 N 131.551 -0.354651 -1.53558 0
M  V30 1464 C 132.799 0.237972 -2.00694 0
M  V30 1465 C 133.12 1.50173 -1.24391 0
M  V30 1466 O 132.39 1.92673 -0.354135 0
M  V30 1467 H 130.97 0.0909256 -0.741446 0
M  V30 1468 H 133.632 -0.478368 -1.88938 0
M  V30 1469 H 132.728 0.47264 -3.085 0
M  V30 1470 N 133.029 1.57378 -0.0835403 0
M  V30 1471 C 134.269 1.95808 0.586381 0
M  V30 1472 C 134.633 0.963706 1.66062 0
M  V30 1473 O 135.834 1.23608 2.38693 0
M  V30 1474 C 134.105 3.38808 1.13771 0
M  V30 1475 S 135.664 3.99225 1.82112 0
M  V30 1476 H 132.482 0.684675 0.191679 0
M  V30 1477 H 135.084 1.94843 -0.160194 0
M  V30 1478 H 133.788 4.08954 0.344197 0
M  V30 1479 H 133.319 3.43344 1.92038 0
M  V30 1480 H 135.334 3.87087 3.10449 0
M  V30 1481 N 134.507 -0.190092 1.56449 0
M  V30 1482 C 135.755 -0.907908 1.80559 0
M  V30 1483 C 136.076 -1.83583 0.657438 0
M  V30 1484 O 135.346 -1.93203 -0.323924 0
M  V30 1485 H 133.926 -0.338247 0.666032 0
M  V30 1486 H 136.588 -0.194403 1.93928 0
M  V30 1487 H 135.684 -1.49604 2.73907 0
M  V30 1488 N 135.985 -1.50799 -0.457987 0
M  V30 1489 C 137.231 -1.63648 -1.20792 0
M  V30 1490 C 137.586 -0.338662 -1.89396 0
M  V30 1491 O 136.879 0.664291 -1.79716 0
M  V30 1492 C 137.073 -2.76358 -2.2663 0
M  V30 1493 C 136.902 -4.16974 -1.68411 0
M  V30 1494 C 135.672 -4.83199 -1.47807 0
M  V30 1495 C 137.87 -5.00774 -1.17176 0
M  V30 1496 N 135.852 -6.07991 -0.849692 0
M  V30 1497 C 137.223 -6.16397 -0.667403 0
M  V30 1498 C 139.278 -4.86452 -1.06155 0
M  V30 1499 C 137.981 -7.19272 -0.0636908 0
M  V30 1500 C 140.007 -5.89515 -0.471759 0
M  V30 1501 C 139.369 -7.04397 0.0221557 0
M  V30 1502 H 135.468 -0.652888 -0.43042 0
M  V30 1503 H 138.052 -1.87962 -0.507785 0
M  V30 1504 H 136.223 -2.53744 -2.94056 0
M  V30 1505 H 137.955 -2.78496 -2.93636 0
M  V30 1506 H 134.71 -4.40714 -1.73403 0
M  V30 1507 H 135.134 -6.74733 -0.553537 0
M  V30 1508 H 139.776 -3.97907 -1.42932 0
M  V30 1509 H 137.494 -8.07481 0.316253 0
M  V30 1510 H 141.08 -5.805 -0.388671 0
M  V30 1511 H 139.96 -7.82782 0.471375 0
M  V30 1512 N 137.463 0.71206 -1.40597 0
M  V30 1513 C 138.426 1.80785 -1.40888 0
M  V30 1514 C 139.426 1.57937 -0.302103 0
M  V30 1515 O 140.616 1.64913 -0.561182 0
M  V30 1516 C 137.748 3.18927 -1.20409 0
M  V30 1517 H 138.941 1.81924 -2.38419 0
M  V30 1518 H 136.494 0.91805 -1.26497 0
M  V30 1519 H 137.229 3.23436 -0.236522 0
M  V30 1520 H 137.014 3.36911 -2.00582 0
M  V30 1521 H 138.504 3.98949 -1.23408 0
M  V30 1522 N 138.941 1.26152 0.944643 0
M  V30 1523 C 140.189 1.11271 1.6871 0
M  V30 1524 C 140.51 -0.345166 1.91921 0
M  V30 1525 O 139.78 -1.24387 1.51343 0
M  V30 1526 H 138.36 0.408783 0.625224 0
M  V30 1527 H 141.022 1.58427 1.1352 0
M  V30 1528 H 140.118 1.62879 2.66227 0
M  V30 1529 N 140.419 -1.14872 1.07899 0
M  V30 1530 C 141.665 -1.86289 0.81657 0
M  V30 1531 C 142.02 -1.8107 -0.65049 0
M  V30 1532 O 141.313 -1.22684 -1.47171 0
M  V30 1533 C 141.507 -3.34223 1.26609 0
M  V30 1534 C 141.336 -3.53846 2.77531 0
M  V30 1535 C 140.106 -3.68995 3.45212 0
M  V30 1536 C 142.304 -3.51201 3.75716 0
M  V30 1537 N 140.286 -3.76725 4.84718 0
M  V30 1538 C 141.657 -3.65112 5.01092 0
M  V30 1539 C 143.712 -3.34507 3.68794 0
M  V30 1540 C 142.415 -3.64056 6.20368 0
M  V30 1541 C 144.441 -3.34752 4.8754 0
M  V30 1542 C 143.803 -3.49199 6.11751 0
M  V30 1543 H 139.902 -0.698579 0.351443 0
M  V30 1544 H 142.486 -1.37713 1.37634 0
M  V30 1545 H 140.657 -3.81402 0.73395 0
M  V30 1546 H 142.389 -3.93377 0.95062 0
M  V30 1547 H 139.144 -3.70006 2.95622 0
M  V30 1548 H 139.568 -3.8432 5.5734 0
M  V30 1549 H 144.21 -3.22253 2.73702 0
M  V30 1550 H 141.928 -3.75087 7.15776 0
M  V30 1551 H 145.514 -3.23055 4.83866 0
M  V30 1552 H 144.394 -3.49328 7.02097 0
M  V30 1553 N 141.898 -0.863906 -1.31812 0
M  V30 1554 C 142.828 -0.330843 -2.31144 0
M  V30 1555 C 143.809 0.575005 -1.60087 0
M  V30 1556 O 144.994 0.493304 -1.8783 0
M  V30 1557 C 142.124 0.47374 -3.44054 0
M  V30 1558 C 141.078 -0.338481 -4.26659 0
M  V30 1559 C 140.404 0.591412 -5.31419 0
M  V30 1560 C 141.704 -1.56926 -4.98168 0
M  V30 1561 H 143.398 -1.16086 -2.75979 0
M  V30 1562 H 140.944 -0.559657 -1.32679 0
M  V30 1563 H 142.897 0.857143 -4.12591 0
M  V30 1564 H 141.621 1.33721 -2.9797 0
M  V30 1565 H 140.28 -0.703754 -3.59782 0
M  V30 1566 H 139.928 1.45199 -4.81587 0
M  V30 1567 H 139.628 0.0519022 -5.87577 0
M  V30 1568 H 141.152 0.97179 -6.02817 0
M  V30 1569 H 142.566 -1.25764 -5.59336 0
M  V30 1570 H 140.963 -2.04739 -5.64094 0
M  V30 1571 H 142.033 -2.32544 -4.25501 0
M  V30 1572 N 143.376 1.44774 -0.622745 0
M  V30 1573 C 144.306 2.33382 0.0741861 0
M  V30 1574 C 145.287 1.47719 0.843387 0
M  V30 1575 O 146.472 1.76458 0.810934 0
M  V30 1576 C 143.602 3.30663 1.06204 0
M  V30 1577 C 142.556 4.26079 0.405037 0
M  V30 1578 C 141.882 5.13165 1.5022 0
M  V30 1579 C 143.182 5.1781 -0.683414 0
M  V30 1580 H 144.876 2.91905 -0.665713 0
M  V30 1581 H 142.422 1.40363 -0.321587 0
M  V30 1582 H 144.375 3.9153 1.55827 0
M  V30 1583 H 143.099 2.70331 1.83272 0
M  V30 1584 H 141.758 3.66532 -0.0704683 0
M  V30 1585 H 141.406 4.49191 2.26355 0
M  V30 1586 H 141.106 5.77812 1.06803 0
M  V30 1587 H 142.63 5.76902 2.00041 0
M  V30 1588 H 144.044 5.72661 -0.270631 0
M  V30 1589 H 142.441 5.91015 -1.04023 0
M  V30 1590 H 143.511 4.59326 -1.55395 0
M  V30 1591 N 144.854 0.36279 1.53368 0
M  V30 1592 C 146.079 -0.231226 2.06107 0
M  V30 1593 C 146.504 -1.419 1.23474 0
M  V30 1594 O 145.862 -1.79524 0.253128 0
M  V30 1595 C 145.91 -0.605523 3.5548 0
M  V30 1596 O 145.014 -1.70312 3.7559 0
M  V30 1597 H 144.355 -0.034327 0.663112 0
M  V30 1598 H 146.885 0.522584 1.97814 0
M  V30 1599 H 146.895 -0.877314 3.98456 0
M  V30 1600 H 145.57 0.263004 4.15068 0
M  V30 1601 H 144.147 -1.4271 3.44512 0
M  V30 1602 N 146.332 -1.57332 0.0918853 0
M  V30 1603 C 147.743 -1.81496 -0.437739 0
M  V30 1604 C 148.094 -1.00727 -1.6837 0
M  V30 1605 O 147.219 -0.235694 -2.15113 0
M  V30 1606 C 147.814 -3.29197 -0.800939 0
M  V30 1607 C 146.373 -3.54136 -1.27532 0
M  V30 1608 C 145.52 -2.75979 -0.270392 0
M  V30 1609 H 148.471 -1.55494 0.317366 0
M  V30 1610 H 148.492 -3.42344 -1.66074 0
M  V30 1611 H 148.004 -3.87955 0.106078 0
M  V30 1612 H 146.105 -3.00705 -2.20016 0
M  V30 1613 H 146.218 -4.62792 -1.23938 0
M  V30 1614 H 144.582 -2.43349 -0.751872 0
M  V30 1615 H 145.365 -3.37484 0.629248 0
M  V30 1616 N 147.81 0.181792 -1.56548 0
M  V30 1617 C 149.226 0.53316 -1.50431 0
M  V30 1618 C 149.426 1.85184 -0.794297 0
M  V30 1619 O 148.482 2.50058 -0.350318 0
M  V30 1620 C 149.795 0.575597 -2.9514 0
M  V30 1621 C 151.343 0.663519 -3.05886 0
M  V30 1622 C 151.818 0.736946 -4.52032 0
M  V30 1623 N 153.309 0.800118 -4.56237 0
M  V30 1624 C 154.044 0.877327 -5.66649 0
M  V30 1625 N 153.54 0.916016 -6.86718 0
M  V30 1626 N 155.333 0.915542 -5.54594 0
M  V30 1627 H 147.484 -0.683025 -2.01118 0
M  V30 1628 H 149.747 -0.244988 -0.915797 0
M  V30 1629 H 149.453 -0.324482 -3.502 0
M  V30 1630 H 149.327 1.42572 -3.49218 0
M  V30 1631 H 151.714 1.55403 -2.50867 0
M  V30 1632 H 151.795 -0.21307 -2.54911 0
M  V30 1633 H 151.439 -0.149262 -5.07681 0
M  V30 1634 H 151.369 1.62953 -5.00753 0
M  V30 1635 H 153.86 0.778926 -3.69785 0
M  V30 1636 H 154.173 0.975813 -7.66614 0
M  V30 1637 H 152.518 0.884469 -6.89349 0
M  V30 1638 H 155.709 0.882245 -4.59711 0
M  V30 1639 H 155.882 0.972253 -6.40665 0
M  V30 1640 N 149.288 1.51039 0.449983 0
M  V30 1641 C 150.536 1.62759 1.19808 0
M  V30 1642 C 150.857 0.339981 1.92013 0
M  V30 1643 O 150.127 -0.643606 1.85026 0
M  V30 1644 H 148.707 0.599811 0.445237 0
M  V30 1645 H 151.369 1.87914 0.517138 0
M  V30 1646 H 150.465 2.44911 1.93455 0
M  V30 1647 N 150.766 -0.704594 1.40972 0
M  V30 1648 C 151.991 -1.49858 1.43378 0
M  V30 1649 C 152.416 -1.88061 0.038184 0
M  V30 1650 O 151.774 -1.5402 -0.956425 0
M  V30 1651 C 151.822 -2.74333 2.34038 0
M  V30 1652 O 150.926 -3.7147 1.7912 0
M  V30 1653 H 150.267 -0.45139 0.486974 0
M  V30 1654 H 152.797 -0.866832 1.8533 0
M  V30 1655 H 152.807 -3.22741 2.49604 0
M  V30 1656 H 151.482 -2.45863 3.35446 0
M  V30 1657 H 150.059 -3.30363 1.72958 0
M  V30 1658 N 152.244 -1.26651 -0.937939 0
M  V30 1659 C 153.66 -1.03834 -1.21205 0
M  V30 1660 C 153.86 0.234502 -2.00131 0
M  V30 1661 O 152.916 0.942767 -2.3424 0
M  V30 1662 C 154.229 -2.27167 -1.97017 0
M  V30 1663 C 155.777 -2.32101 -2.09996 0
M  V30 1664 C 156.252 -3.55136 -2.8921 0
M  V30 1665 N 157.743 -3.55632 -2.96783 0
M  V30 1666 C 158.478 -4.475 -3.58512 0
M  V30 1667 N 157.974 -5.4966 -4.21717 0
M  V30 1668 N 159.767 -4.35145 -3.55816 0
M  V30 1669 H 151.918 -2.08398 -0.410391 0
M  V30 1670 H 154.181 -0.916031 -0.244114 0
M  V30 1671 H 153.887 -3.19765 -1.46434 0
M  V30 1672 H 153.761 -2.31672 -2.97671 0
M  V30 1673 H 156.148 -1.40015 -2.59769 0
M  V30 1674 H 156.229 -2.31605 -1.08594 0
M  V30 1675 H 155.873 -4.47553 -2.40123 0
M  V30 1676 H 155.803 -3.5288 -3.90875 0
M  V30 1677 H 158.294 -2.81743 -2.51852 0
M  V30 1678 H 158.607 -6.15943 -4.66727 0
M  V30 1679 H 156.952 -5.53514 -4.20294 0
M  V30 1680 H 160.143 -3.5455 -3.05634 0
M  V30 1681 H 160.316 -5.06934 -4.03636 0
M  V30 1682 N 153.722 1.14298 -1.08507 0
M  V30 1683 C 155.133 1.66926 -0.836227 0
M  V30 1684 C 155.484 1.85576 0.63686 0
M  V30 1685 O 154.609 1.56767 1.49175 0
M  V30 1686 C 155.204 3.03219 -1.51142 0
M  V30 1687 C 153.763 3.52876 -1.30979 0
M  V30 1688 C 152.91 2.2833 -1.57356 0
M  V30 1689 H 155.861 0.983491 -1.24552 0
M  V30 1690 H 155.882 3.68726 -0.939211 0
M  V30 1691 H 155.394 2.89612 -2.58353 0
M  V30 1692 H 153.495 3.71703 -0.258429 0
M  V30 1693 H 153.608 4.33586 -2.03814 0
M  V30 1694 H 151.972 2.34454 -0.995164 0
M  V30 1695 H 152.755 2.17298 -2.65775 0
M  V30 1696 N 155.201 0.870884 1.31352 0
M  V30 1697 C 156.426 0.495957 2.01383 0
M  V30 1698 C 156.851 -0.904324 1.64935 0
M  V30 1699 O 156.209 -1.59687 0.858466 0
M  V30 1700 C 156.257 0.661433 3.54482 0
M  V30 1701 O 155.361 -0.298851 4.11316 0
M  V30 1702 H 154.702 0.197158 0.634054 0
M  V30 1703 H 157.232 1.17455 1.67527 0
M  V30 1704 H 157.242 0.555072 4.04207 0
M  V30 1705 H 155.917 1.68246 3.8035 0
M  V30 1706 H 154.494 -0.147368 3.72609 0
M  V30 1707 N 156.679 -1.44442 0.630414 0
M  V30 1708 C 157.925 -2.02894 0.143332 0
M  V30 1709 C 158.28 -1.48697 -1.22094 0
M  V30 1710 O 157.573 -0.661171 -1.79831 0
M  V30 1711 C 157.767 -3.57332 0.0697835 0
M  V30 1712 C 157.596 -4.26512 1.42539 0
M  V30 1713 C 156.366 -4.63516 2.01198 0
M  V30 1714 C 158.564 -4.57004 2.35907 0
M  V30 1715 N 156.546 -5.17661 3.30001 0
M  V30 1716 C 157.917 -5.12223 3.49324 0
M  V30 1717 C 159.972 -4.38955 2.34995 0
M  V30 1718 C 158.675 -5.51295 4.62024 0
M  V30 1719 C 160.701 -4.79075 3.46758 0
M  V30 1720 C 160.063 -5.34407 4.58899 0
M  V30 1721 H 156.162 -0.776041 0.0963523 0
M  V30 1722 H 158.746 -1.75945 0.833752 0
M  V30 1723 H 156.917 -3.83894 -0.589915 0
M  V30 1724 H 158.649 -4.02451 -0.42606 0
M  V30 1725 H 155.404 -4.47811 1.54151 0
M  V30 1726 H 155.828 -5.4921 3.95851 0
M  V30 1727 H 160.47 -3.95469 1.49545 0
M  V30 1728 H 158.188 -5.93736 5.48182 0
M  V30 1729 H 161.774 -4.66824 3.47227 0
M  V30 1730 H 160.654 -5.64878 5.4395 0
M  V30 1731 N 158.157 -0.370918 -1.53173 0
M  V30 1732 C 159.405 0.216673 -2.00935 0
M  V30 1733 C 159.726 1.48845 -1.25977 0
M  V30 1734 O 158.996 1.92286 -0.374551 0
M  V30 1735 H 157.576 0.0830565 -0.742368 0
M  V30 1736 H 160.238 -0.49838 -1.8842 0
M  V30 1737 H 159.334 0.439893 -3.08984 0
M  V30 1738 N 159.635 1.57281 -0.100228 0
M  V30 1739 C 161.046 1.81725 0.428107 0
M  V30 1740 C 161.397 1.01619 1.67833 0
M  V30 1741 O 160.522 0.247098 2.14985 0
M  V30 1742 C 161.117 3.29617 0.78347 0
M  V30 1743 C 159.676 3.54808 1.25653 0
M  V30 1744 C 158.823 2.76118 0.255752 0
M  V30 1745 H 161.774 1.55324 -0.325608 0
M  V30 1746 H 161.795 3.4322 1.64256 0
M  V30 1747 H 161.307 3.87893 -0.12665 0
M  V30 1748 H 159.408 3.01868 2.18418 0
M  V30 1749 H 159.521 4.63443 1.21482 0
M  V30 1750 H 157.885 2.43745 0.738956 0
M  V30 1751 H 158.668 3.37145 -0.647136 0
M  V30 1752 N 161.113 -0.173488 1.56642 0
M  V30 1753 C 162.341 -0.906095 1.86004 0
M  V30 1754 C 162.756 -1.75921 0.685355 0
M  V30 1755 O 162.113 -1.79198 -0.345578 0
M  V30 1756 C 162.164 -1.78462 3.14378 0
M  V30 1757 O 161.885 -0.965914 4.27319 0
M  V30 1758 C 163.386 -2.62707 3.57071 0
M  V30 1759 H 160.606 -0.263341 0.617165 0
M  V30 1760 H 163.15 -0.174236 2.03756 0
M  V30 1761 H 161.305 -2.46984 2.98459 0
M  V30 1762 H 161.719 -1.56655 5.00559 0
M  V30 1763 H 163.193 -3.19969 4.49804 0
M  V30 1764 H 163.67 -3.37472 2.81086 0
M  V30 1765 H 164.276 -1.99521 3.75595 0
M  V30 1766 N 162.591 -1.51276 -0.441967 0
M  V30 1767 C 163.868 -1.54252 -1.20273 0
M  V30 1768 C 164.248 -0.30408 -2.08898 0
M  V30 1769 O 163.596 0.711084 -2.17154 0
M  V30 1770 C 163.806 -2.85406 -2.00859 0
M  V30 1771 C 165.154 -3.37181 -2.58059 0
M  V30 1772 O 166.178 -2.86925 -2.11074 0
M  V30 1773 O 165.037 -4.24858 -3.43741 0
M  V30 1774 H 162.131 -0.619969 -0.547328 0
M  V30 1775 H 164.677 -1.63586 -0.451413 0
M  V30 1776 H 163.449 -3.67003 -1.35736 0
M  V30 1777 H 163.072 -2.79213 -2.83065 0
M  V30 1778 N 164.069 0.697108 -1.41344 0
M  V30 1779 C 165.48 1.27697 -1.36199 0
M  V30 1780 C 165.831 1.9615 -0.0443463 0
M  V30 1781 O 164.956 1.98689 0.857419 0
M  V30 1782 C 165.551 2.32223 -2.46694 0
M  V30 1783 C 164.11 2.8579 -2.44952 0
M  V30 1784 C 163.257 1.59807 -2.26621 0
M  V30 1785 H 166.208 0.491968 -1.50882 0
M  V30 1786 H 166.229 3.1348 -2.15664 0
M  V30 1787 H 165.741 1.82373 -3.42581 0
M  V30 1788 H 163.842 3.3982 -1.52817 0
M  V30 1789 H 163.955 3.36325 -3.41207 0
M  V30 1790 H 162.319 1.8556 -1.7447 0
M  V30 1791 H 163.102 1.11956 -3.24532 0
M  V30 1792 N 165.547 1.27147 0.931209 0
M  V30 1793 C 166.963 1.04475 1.20653 0
M  V30 1794 C 167.163 -0.223885 2.00252 0
M  V30 1795 O 166.219 -0.930332 2.34736 0
M  V30 1796 C 167.532 2.28209 1.95809 0
M  V30 1797 C 169.08 2.33211 2.08762 0
M  V30 1798 C 169.555 3.56665 2.87323 0
M  V30 1799 N 171.046 3.57201 2.94892 0
M  V30 1800 C 171.781 4.49395 3.56134 0
M  V30 1801 N 171.277 5.51889 4.18796 0
M  V30 1802 N 173.07 4.37026 3.53504 0
M  V30 1803 H 165.221 2.08612 0.399333 0
M  V30 1804 H 167.484 0.917312 0.239253 0
M  V30 1805 H 167.19 3.20538 1.44736 0
M  V30 1806 H 167.064 2.33247 2.96438 0
M  V30 1807 H 169.451 1.41391 2.59023 0
M  V30 1808 H 169.532 2.32178 1.07364 0
M  V30 1809 H 169.176 4.4882 2.37746 0
M  V30 1810 H 169.106 3.54948 3.88998 0
M  V30 1811 H 171.597 2.83074 2.50354 0
M  V30 1812 H 171.91 6.18409 4.63454 0
M  V30 1813 H 170.255 5.55735 4.17353 0
M  V30 1814 H 173.446 3.56166 3.03749 0
M  V30 1815 H 173.619 5.09067 4.00942 0
M  V30 1816 N 167.025 -1.13721 1.09112 0
M  V30 1817 C 168.441 -1.36914 0.820174 0
M  V30 1818 C 168.641 -1.93356 -0.567079 0
M  V30 1819 O 167.697 -2.15093 -1.32255 0
M  V30 1820 C 169.01 -2.3235 1.90877 0
M  V30 1821 C 170.558 -2.45973 1.93562 0
M  V30 1822 C 171.033 -3.44714 3.01556 0
M  V30 1823 N 172.524 -3.52263 3.00775 0
M  V30 1824 C 173.259 -4.28536 3.80978 0
M  V30 1825 N 172.755 -5.07991 4.71081 0
M  V30 1826 N 174.548 -4.23804 3.69251 0
M  V30 1827 H 166.699 -0.754348 1.98553 0
M  V30 1828 H 168.962 -0.3944 0.862063 0
M  V30 1829 H 168.668 -1.98027 2.90651 0
M  V30 1830 H 168.542 -3.32332 1.78424 0
M  V30 1831 H 170.929 -2.79584 0.944286 0
M  V30 1832 H 171.01 -1.45926 2.10093 0
M  V30 1833 H 170.654 -3.11835 4.00901 0
M  V30 1834 H 170.584 -4.44558 2.82269 0
M  V30 1835 H 173.075 -2.95567 2.35475 0
M  V30 1836 H 173.388 -5.63487 5.28869 0
M  V30 1837 H 171.733 -5.07235 4.75119 0
M  V30 1838 H 174.924 -3.60806 2.98222 0
M  V30 1839 H 175.097 -4.82995 4.31995 0
M  V30 1840 N 168.503 -0.877838 -1.30888 0
M  V30 1841 C 169.919 -0.570844 -1.49042 0
M  V30 1842 C 170.119 0.893159 -1.80624 0
M  V30 1843 O 169.175 1.67485 -1.88958 0
M  V30 1844 C 170.488 -1.47784 -2.61878 0
M  V30 1845 C 172.036 -1.48071 -2.75761 0
M  V30 1846 C 172.511 -2.37347 -3.91702 0
M  V30 1847 N 174.002 -2.35271 -3.99001 0
M  V30 1848 C 174.737 -3.01063 -4.88004 0
M  V30 1849 N 174.233 -3.76055 -5.81854 0
M  V30 1850 N 176.026 -2.90332 -4.81315 0
M  V30 1851 H 168.177 -1.82502 -1.0866 0
M  V30 1852 H 170.44 -0.780797 -0.537644 0
M  V30 1853 H 170.146 -2.51993 -2.45341 0
M  V30 1854 H 170.02 -1.18215 -3.58197 0
M  V30 1855 H 172.407 -0.446166 -2.91708 0
M  V30 1856 H 172.488 -1.81668 -1.80085 0
M  V30 1857 H 172.132 -3.40883 -3.76512 0
M  V30 1858 H 172.062 -2.01071 -4.86701 0
M  V30 1859 H 174.553 -1.80768 -3.3186 0
M  V30 1860 H 174.866 -4.23366 -6.46514 0
M  V30 1861 H 173.211 -3.80163 -5.81808 0
M  V30 1862 H 176.402 -2.31278 -4.06974 0
M  V30 1863 H 176.575 -3.41885 -5.50471 0
M  V30 1864 N 169.982 1.44106 -0.638065 0
M  V30 1865 C 171.207 2.0685 -0.150916 0
M  V30 1866 C 171.632 1.47417 1.16833 0
M  V30 1867 O 170.99 0.578264 1.71831 0
M  V30 1868 C 171.038 3.60555 -0.05708 0
M  V30 1869 O 170.142 4.00465 0.984972 0
M  V30 1870 H 169.483 0.658151 -0.0879399 0
M  V30 1871 H 172.013 1.84865 -0.876707 0
M  V30 1872 H 172.023 4.07789 0.131232 0
M  V30 1873 H 170.698 4.03193 -1.02021 0
M  V30 1874 H 169.275 3.64849 0.770672 0
M  V30 1875 N 171.46 0.379036 1.52974 0
M  V30 1876 C 172.876 0.0285448 1.59574 0
M  V30 1877 C 173.076 -1.45542 1.39355 0
M  V30 1878 O 172.132 -2.2187 1.20541 0
M  V30 1879 C 173.445 0.496535 2.96572 0
M  V30 1880 C 174.993 0.451909 3.0972 0
M  V30 1881 C 175.468 0.895924 4.49152 0
M  V30 1882 N 176.959 0.851522 4.55306 0
M  V30 1883 C 177.694 1.16661 5.61407 0
M  V30 1884 N 177.19 1.55166 6.752 0
M  V30 1885 N 178.983 1.08853 5.51459 0
M  V30 1886 H 171.134 1.34525 1.64367 0
M  V30 1887 H 173.397 0.550733 0.771619 0
M  V30 1888 H 173.103 1.53258 3.16552 0
M  V30 1889 H 172.977 -0.109802 3.7704 0
M  V30 1890 H 175.364 -0.575029 2.89443 0
M  V30 1891 H 175.445 1.09392 2.3123 0
M  V30 1892 H 175.089 1.92104 4.70168 0
M  V30 1893 H 175.019 0.23103 5.26093 0
M  V30 1894 H 177.51 0.568038 3.73606 0
M  V30 1895 H 177.823 1.776 7.52116 0
M  V30 1896 H 176.168 1.59044 6.76557 0
M  V30 1897 H 179.359 0.786803 4.6144 0
M  V30 1898 H 179.532 1.33742 6.34048 0
M  V30 1899 N 172.938 -1.57226 0.108567 0
M  V30 1900 C 173.886 -2.16002 -0.862885 0
M  V30 1901 C 174.88 -1.10644 -1.28274 0
M  V30 1902 O 176.086 -1.28966 -1.2557 0
M  V30 1903 H 172.461 -0.691148 -0.296342 0
M  V30 1904 H 174.432 -2.96427 -0.342575 0
M  V30 1905 C 173.181 -2.76576 -2.10716 0
M  V30 1906 H 172.504 -3.5734 -1.793 0
M  V30 1907 H 173.944 -3.21253 -2.76717 0
M  V30 1908 C 172.403 -1.73137 -2.89007 0
M  V30 1909 O 172.933 -1.17842 -3.84026 0
M  V30 1910 N 171.139 -1.43317 -2.52801 0
M  V30 1911 H 170.686 -1.88473 -1.75601 0
M  V30 1912 H 170.644 -0.743485 -3.05483 0
M  V30 1913 N 174.416 0.165178 -1.56732 0
M  V30 1914 C 175.346 1.20651 -1.99914 0
M  V30 1915 C 176.327 1.45827 -0.875705 0
M  V30 1916 O 177.512 1.57057 -1.14223 0
M  V30 1917 C 174.642 2.54401 -2.36427 0
M  V30 1918 C 173.596 2.43782 -3.51787 0
M  V30 1919 C 172.922 3.82078 -3.7406 0
M  V30 1920 C 174.222 1.93732 -4.85041 0
M  V30 1921 H 175.916 0.847534 -2.87154 0
M  V30 1922 H 173.462 0.40625 -1.38151 0
M  V30 1923 H 175.415 3.27458 -2.65234 0
M  V30 1924 H 174.139 2.92098 -1.46103 0
M  V30 1925 H 172.798 1.73178 -3.23117 0
M  V30 1926 H 172.446 4.17179 -2.81017 0
M  V30 1927 H 172.146 3.7584 -4.51684 0
M  V30 1928 H 173.67 4.56712 -4.05274 0
M  V30 1929 H 175.084 2.56569 -5.12684 0
M  V30 1930 H 173.481 1.98428 -5.66345 0
M  V30 1931 H 174.551 0.891962 -4.76626 0
M  V30 1932 N 175.894 1.51508 0.433938 0
M  V30 1933 C 177.142 1.6402 1.18075 0
M  V30 1934 C 177.463 0.360328 1.91642 0
M  V30 1935 O 176.733 -0.623945 1.85698 0
M  V30 1936 H 175.313 0.6045 0.43885 0
M  V30 1937 H 177.975 1.88452 0.497178 0
M  V30 1938 H 177.071 2.46949 1.90847 0
M  V30 1939 N 177.372 -0.689602 1.41712 0
M  V30 1940 C 178.319 -1.80345 1.44029 0
M  V30 1941 C 179.289 -1.63478 0.293948 0
M  V30 1942 O 180.474 -1.84244 0.495869 0
M  V30 1943 C 177.614 -3.18272 1.33405 0
M  V30 1944 C 176.727 -3.46529 2.57956 0
M  V30 1945 C 175.862 -4.74103 2.39582 0
M  V30 1946 C 174.901 -4.95347 3.5958 0
M  V30 1947 N 174.038 -6.14151 3.40239 0
M  V30 1948 H 178.878 -1.77698 2.39222 0
M  V30 1949 H 176.415 -0.867688 1.18784 0
M  V30 1950 H 178.373 -3.97956 1.25246 0
M  V30 1951 H 177.003 -3.2008 0.418164 0
M  V30 1952 H 176.055 -2.61207 2.76542 0
M  V30 1953 H 177.367 -3.58126 3.47199 0
M  V30 1954 H 176.521 -5.61853 2.28924 0
M  V30 1955 H 175.26 -4.64763 1.47805 0
M  V30 1956 H 174.265 -4.06044 3.70686 0
M  V30 1957 H 175.49 -5.06542 4.52318 0
M  V30 1958 H 173.436 -6.06013 2.51167 0
M  V30 1959 H 173.353 -6.26543 4.23061 0
M  V30 1960 H 174.621 -7.04619 3.33365 0
M  V30 1961 N 178.85 -1.27639 -0.924453 0
M  V30 1962 C 180.096 -1.14336 -1.67497 0
M  V30 1963 C 180.429 0.309465 -1.91718 0
M  V30 1964 O 179.704 1.22608 -1.50989 0
M  V30 1965 C 179.987 -1.93096 -3.0395 0
M  V30 1966 C 179.84 -3.46381 -2.8695 0
M  V30 1967 C 181.159 -1.73798 -4.0433 0
M  V30 1968 H 178.278 -0.416728 -0.607871 0
M  V30 1969 H 180.92 -1.56832 -1.07256 0
M  V30 1970 H 179.07 -1.56982 -3.55372 0
M  V30 1971 H 180.742 -3.92343 -2.42621 0
M  V30 1972 H 178.985 -3.72557 -2.22225 0
M  V30 1973 H 179.656 -3.96735 -3.83804 0
M  V30 1974 H 182.132 -2.05293 -3.61931 0
M  V30 1975 H 181.008 -2.31294 -4.97789 0
M  V30 1976 H 181.269 -0.686725 -4.36734 0
M  V30 1977 N 180.328 1.1314 -1.09713 0
M  V30 1978 C 181.577 1.83838 -0.829851 0
M  V30 1979 C 181.89 1.84599 0.646728 0
M  V30 1980 O 183.096 2.51218 1.02965 0
M  V30 1981 C 181.552 3.30069 -1.43466 0
M  V30 1982 C 181.16 3.37688 -2.94399 0
M  V30 1983 C 182.904 4.05788 -1.24645 0
M  V30 1984 C 180.811 4.78209 -3.47952 0
M  V30 1985 H 179.741 0.68877 -0.306777 0
M  V30 1986 H 182.392 1.27448 -1.3202 0
M  V30 1987 H 180.774 3.8628 -0.871996 0
M  V30 1988 H 181.948 2.91456 -3.56918 0
M  V30 1989 H 180.263 2.75436 -3.12289 0
M  V30 1990 H 182.86 5.09535 -1.62107 0
M  V30 1991 H 183.203 4.15878 -0.187357 0
M  V30 1992 H 183.736 3.55915 -1.77678 0
M  V30 1993 H 180.475 4.73311 -4.53495 0
M  V30 1994 H 179.995 5.24924 -2.90198 0
M  V30 1995 H 181.674 5.47133 -3.45332 0
M  V30 1996 N 181.806 0.884767 1.30421 0
M  V30 1997 C 183.083 0.423185 1.90967 0
M  V30 1998 C 183.463 -1.09605 1.80416 0
M  V30 1999 O 182.811 -1.93126 1.22125 0
M  V30 2000 C 183.021 0.921056 3.36627 0
M  V30 2001 C 184.369 0.955903 4.137 0
M  V30 2002 O 185.393 0.867706 3.4547 0
M  V30 2003 O 184.252 1.08614 5.35598 0
M  V30 2004 H 181.346 0.129369 0.816819 0
M  V30 2005 H 183.892 0.973653 1.3899 0
M  V30 2006 H 182.664 1.96489 3.3839 0
M  V30 2007 H 182.287 0.349741 3.96059 0
M  V30 2008 N 183.284 -1.43765 0.645699 0
M  V30 2009 C 184.512 -2.06253 0.163556 0
M  V30 2010 C 184.927 -1.48352 -1.16778 0
M  V30 2011 O 184.284 -0.611932 -1.71935 0
M  V30 2012 C 184.335 -3.61453 0.0583186 0
M  V30 2013 O 184.056 -4.172 1.33702 0
M  V30 2014 C 185.557 -4.41002 -0.450795 0
M  V30 2015 H 182.777 -0.665413 0.0864077 0
M  V30 2016 H 185.321 -1.84396 0.884222 0
M  V30 2017 H 183.476 -3.82522 -0.612865 0
M  V30 2018 H 183.89 -5.10791 1.19131 0
M  V30 2019 H 185.364 -5.49966 -0.473403 0
M  V30 2020 H 185.841 -4.13488 -1.48068 0
M  V30 2021 H 186.447 -4.24886 0.187637 0
M  V30 2022 N 184.763 -0.387143 -1.52771 0
M  V30 2023 C 185.693 0.440551 -2.29306 0
M  V30 2024 C 186.674 1.06535 -1.32606 0
M  V30 2025 O 187.859 1.07853 -1.61497 0
M  V30 2026 C 184.989 1.56919 -3.09829 0
M  V30 2027 C 183.943 1.07054 -4.14395 0
M  V30 2028 C 183.269 2.29109 -4.83129 0
M  V30 2029 C 184.569 0.140015 -5.22112 0
M  V30 2030 H 186.263 -0.198026 -2.98744 0
M  V30 2031 H 183.809 -0.09668 -1.43675 0
M  V30 2032 H 185.762 2.15503 -3.62128 0
M  V30 2033 H 184.486 2.23532 -2.3812 0
M  V30 2034 H 183.145 0.507247 -3.63074 0
M  V30 2035 H 182.793 2.94227 -4.0797 0
M  V30 2036 H 182.493 1.96406 -5.53804 0
M  V30 2037 H 184.017 2.88339 -5.38231 0
M  V30 2038 H 185.431 0.633978 -5.69784 0
M  V30 2039 H 183.828 -0.0971485 -6.00021 0
M  V30 2040 H 184.898 -0.811711 -4.78058 0
M  V30 2041 N 186.241 1.57166 -0.116904 0
M  V30 2042 C 187.469 1.99473 0.549383 0
M  V30 2043 C 187.884 0.996541 1.60357 0
M  V30 2044 O 187.241 -0.0108731 1.82497 0
M  V30 2045 C 187.292 3.41788 1.17741 0
M  V30 2046 O 187.013 4.37788 0.165362 0
M  V30 2047 C 188.514 3.99216 1.92722 0
M  V30 2048 H 185.734 0.655009 0.145616 0
M  V30 2049 H 188.278 2.03494 -0.202625 0
M  V30 2050 H 186.433 3.38713 1.88021 0
M  V30 2051 H 186.847 5.20806 0.621403 0
M  V30 2052 H 188.321 5.00882 2.31995 0
M  V30 2053 H 188.798 3.3824 2.80161 0
M  V30 2054 H 189.404 4.0583 1.27209 0
M  V30 2055 N 187.719 -0.156864 1.56817 0
M  V30 2056 C 188.959 -0.877453 1.84608 0
M  V30 2057 C 189.323 -1.78791 0.699845 0
M  V30 2058 O 190.524 -2.5472 0.858553 0
M  V30 2059 C 188.795 -1.63992 3.17555 0
M  V30 2060 S 190.354 -2.40729 3.66872 0
M  V30 2061 H 187.172 -0.293612 0.647544 0
M  V30 2062 H 189.774 -0.138099 1.95012 0
M  V30 2063 H 188.478 -0.962363 3.98957 0
M  V30 2064 H 188.009 -2.42038 3.10131 0
M  V30 2065 H 190.024 -3.65725 3.3535 0
M  V30 2066 N 189.197 -1.51736 -0.425897 0
M  V30 2067 C 190.445 -1.64644 -1.17204 0
M  V30 2068 C 190.766 -0.370486 -1.91448 0
M  V30 2069 O 190.036 0.614088 -1.86026 0
M  V30 2070 H 188.616 -0.606819 -0.435638 0
M  V30 2071 H 191.278 -1.88713 -0.487177 0
M  V30 2072 H 190.374 -2.47958 -1.89534 0
M  V30 2073 N 190.675 0.682077 -1.42076 0
M  V30 2074 C 191.922 1.44215 -1.42156 0
M  V30 2075 C 192.25 1.94468 -0.0354186 0
M  V30 2076 O 191.505 1.70816 0.955002 0
M  V30 2077 C 191.804 2.66036 -2.38662 0
M  V30 2078 C 191.47 2.34366 -3.85206 0
M  V30 2079 C 190.132 2.25439 -4.25124 0
M  V30 2080 C 192.484 2.08513 -4.77673 0
M  V30 2081 C 189.812 1.88775 -5.55501 0
M  V30 2082 C 192.164 1.73354 -6.08384 0
M  V30 2083 C 190.828 1.62933 -6.47309 0
M  V30 2084 H 190.098 0.527718 -0.520187 0
M  V30 2085 H 192.745 0.778387 -1.74967 0
M  V30 2086 H 191.05 3.3741 -1.99152 0
M  V30 2087 H 192.747 3.24205 -2.35991 0
M  V30 2088 H 189.337 2.42213 -3.53597 0
M  V30 2089 H 193.521 2.14346 -4.47626 0
M  V30 2090 H 188.777 1.7927 -5.84527 0
M  V30 2091 H 192.951 1.52373 -6.79526 0
M  V30 2092 H 190.578 1.34292 -7.48244 0
M  V30 2093 N 192.153 1.28127 0.917671 0
M  V30 2094 C 193.116 1.11744 2.00115 0
M  V30 2095 C 194.116 0.0583052 1.60694 0
M  V30 2096 O 195.306 0.303755 1.71531 0
M  V30 2097 C 192.438 0.704862 3.33533 0
M  V30 2098 H 193.631 2.07966 2.16079 0
M  V30 2099 H 191.184 1.11058 1.09981 0
M  V30 2100 H 191.919 -0.258299 3.2327 0
M  V30 2101 H 191.704 1.4699 3.63505 0
M  V30 2102 H 193.194 0.612768 4.1308 0
M  V30 2103 N 193.631 -1.12557 1.10312 0
M  V30 2104 C 194.908 -1.80363 0.756878 0
M  V30 2105 C 195.288 -1.97067 -0.756824 0
M  V30 2106 O 194.636 -1.54601 -1.68259 0
M  V30 2107 C 194.846 -3.14812 1.50647 0
M  V30 2108 C 196.194 -3.90029 1.67817 0
M  V30 2109 O 197.218 -3.24464 1.46974 0
M  V30 2110 O 196.077 -5.07652 2.02365 0
M  V30 2111 H 193.171 -0.780667 0.272926 0
M  V30 2112 H 195.717 -1.19404 1.20586 0
M  V30 2113 H 194.489 -2.97936 2.53672 0
M  V30 2114 H 194.112 -3.83478 1.05026 0
M  V30 2115 N 195.109 -0.891671 -1.2995 0
M  V30 2116 C 196.039 -0.379797 -2.30391 0
M  V30 2117 C 197.02 0.540919 -1.6127 0
M  V30 2118 O 198.205 0.453352 -1.88834 0
M  V30 2119 C 195.335 0.400654 -3.44981 0
M  V30 2120 C 194.289 -0.428905 -4.25846 0
M  V30 2121 C 193.615 0.478557 -5.32554 0
M  V30 2122 C 194.915 -1.67458 -4.94727 0
M  V30 2123 H 196.609 -1.21914 -2.73454 0
M  V30 2124 H 194.155 -0.587675 -1.31462 0
M  V30 2125 H 196.108 0.769434 -4.14316 0
M  V30 2126 H 194.832 1.27371 -3.0074 0
M  V30 2127 H 193.491 -0.779911 -3.58208 0
M  V30 2128 H 193.139 1.34951 -4.84559 0
M  V30 2129 H 192.839 -0.0727433 -5.87555 0
M  V30 2130 H 194.363 0.843705 -6.04743 0
M  V30 2131 H 195.777 -1.376 -5.56542 0
M  V30 2132 H 194.174 -2.16659 -5.59624 0
M  V30 2133 H 195.244 -2.41518 -4.20473 0
M  V30 2134 N 196.587 1.43421 -0.653314 0
M  V30 2135 C 197.52 2.2803 0.0879804 0
M  V30 2136 C 198.498 1.39833 0.82979 0
M  V30 2137 O 199.682 1.69275 0.829341 0
M  V30 2138 C 196.809 3.19247 1.13132 0
M  V30 2139 C 195.855 4.23704 0.487546 0
M  V30 2140 S 196.688 5.30377 -0.738961 0
M  V30 2141 C 197.844 6.25162 0.30384 0
M  V30 2142 H 198.077 2.90554 -0.629739 0
M  V30 2143 H 195.61 1.47934 -0.442156 0
M  V30 2144 H 197.568 3.72346 1.72827 0
M  V30 2145 H 196.229 2.55901 1.82136 0
M  V30 2146 H 195.422 4.87631 1.27407 0
M  V30 2147 H 195.024 3.73983 -0.0352915 0
M  V30 2148 H 197.316 6.67321 1.17 0
M  V30 2149 H 198.259 7.07463 -0.300402 0
M  V30 2150 H 198.667 5.60864 0.63969 0
M  V30 2151 N 198.065 0.39524 1.52563 0
M  V30 2152 C 199.313 -0.184678 2.01254 0
M  V30 2153 C 199.634 -1.46822 1.28329 0
M  V30 2154 O 198.904 -1.91666 0.405094 0
M  V30 2155 H 197.484 -0.0712355 0.743596 0
M  V30 2156 H 200.146 0.528293 1.87603 0
M  V30 2157 H 199.242 -0.390681 3.09645 0
M  V30 2158 N 199.544 -1.57102 0.125237 0
M  V30 2159 C 200.774 -1.99472 -0.538015 0
M  V30 2160 C 201.182 -1.00395 -1.60366 0
M  V30 2161 O 200.525 0.0103875 -1.83697 0
M  V30 2162 C 200.587 -3.38262 -1.21734 0
M  V30 2163 C 200.251 -4.56021 -0.298897 0
M  V30 2164 C 201.248 -5.17817 0.464943 0
M  V30 2165 C 198.933 -5.01869 -0.208149 0
M  V30 2166 C 200.927 -6.23852 1.3072 0
M  V30 2167 C 198.614 -6.07763 0.637736 0
M  V30 2168 C 199.612 -6.68622 1.39403 0
M  V30 2169 O 199.3 -7.7247 2.22586 0
M  V30 2170 H 199.032 -0.659934 -0.146501 0
M  V30 2171 H 201.586 -2.04321 0.210267 0
M  V30 2172 H 199.816 -3.30185 -2.01282 0
M  V30 2173 H 201.505 -3.6488 -1.77813 0
M  V30 2174 H 202.271 -4.83308 0.404741 0
M  V30 2175 H 198.15 -4.54241 -0.786522 0
M  V30 2176 H 201.694 -6.71284 1.898 0
M  V30 2177 H 197.591 -6.41701 0.699309 0
M  V30 2178 H 198.359 -7.89595 2.15596 0
M  V30 2179 N 201.022 0.148545 -1.56898 0
M  V30 2180 C 202.271 0.85984 -1.82454 0
M  V30 2181 C 202.584 1.82406 -0.706229 0
M  V30 2182 O 203.79 2.57938 -0.847349 0
M  V30 2183 C 202.246 1.57967 -3.2338 0
M  V30 2184 C 201.854 0.65794 -4.43142 0
M  V30 2185 C 203.598 2.27784 -3.58211 0
M  V30 2186 C 201.505 1.3793 -5.75091 0
M  V30 2187 H 200.435 0.324834 -0.68044 0
M  V30 2188 H 203.086 0.112588 -1.83154 0
M  V30 2189 H 201.468 2.37249 -3.17063 0
M  V30 2190 H 202.642 -0.0995497 -4.60692 0
M  V30 2191 H 200.957 0.0682643 -4.16344 0
M  V30 2192 H 203.554 2.8239 -4.54048 0
M  V30 2193 H 203.897 3.04204 -2.84193 0
M  V30 2194 H 204.43 1.55421 -3.66182 0
M  V30 2195 H 201.169 0.656982 -6.52199 0
M  V30 2196 H 200.689 2.10954 -5.61479 0
M  V30 2197 H 202.368 1.92063 -6.17835 0
M  V30 2198 N 202.5 1.5196 0.417844 0
M  V30 2199 C 203.911 1.57851 0.997 0
M  V30 2200 C 204.262 0.413714 1.91789 0
M  V30 2201 O 203.387 -0.467057 2.113 0
M  V30 2202 C 203.982 2.86085 1.81496 0
M  V30 2203 C 202.541 2.94483 2.34428 0
M  V30 2204 C 201.688 2.52707 1.14169 0
M  V30 2205 H 204.639 1.57455 0.198392 0
M  V30 2206 H 204.66 2.70947 2.67148 0
M  V30 2207 H 204.172 3.70842 1.14446 0
M  V30 2208 H 202.273 2.142 3.04875 0
M  V30 2209 H 202.386 3.98546 2.65891 0
M  V30 2210 H 200.75 2.06353 1.49301 0
M  V30 2211 H 201.533 3.39828 0.486999 0
M  V30 2212 N 203.978 -0.674533 1.42435 0
M  V30 2213 C 204.908 -1.80009 1.48724 0
M  V30 2214 C 205.889 -1.6659 0.343793 0
M  V30 2215 O 207.074 -1.86007 0.558137 0
M  V30 2216 C 204.204 -3.18306 1.38919 0
M  V30 2217 C 203.158 -3.46461 2.51294 0
M  V30 2218 C 202.484 -4.84335 2.26547 0
M  V30 2219 C 203.784 -3.43328 3.93603 0
M  V30 2220 H 205.478 -1.75004 2.42928 0
M  V30 2221 H 203.024 -0.840533 1.16923 0
M  V30 2222 H 204.977 -3.9678 1.41927 0
M  V30 2223 H 203.701 -3.2399 0.412094 0
M  V30 2224 H 202.36 -2.70348 2.47604 0
M  V30 2225 H 202.008 -4.86669 1.2713 0
M  V30 2226 H 201.708 -5.04136 3.01861 0
M  V30 2227 H 203.232 -5.65094 2.31304 0
M  V30 2228 H 204.646 -4.11772 3.98894 0
M  V30 2229 H 203.043 -3.74664 4.68771 0
M  V30 2230 H 204.113 -2.41897 4.20255 0
M  V30 2231 N 205.456 -1.28612 -0.910864 0
M  V30 2232 C 206.702 -1.16106 -1.66274 0
M  V30 2233 C 207.035 0.289113 -1.92036 0
M  V30 2234 O 206.31 1.21 -1.52281 0
M  V30 2235 C 206.593 -1.96309 -3.01885 0
M  V30 2236 C 206.446 -3.49405 -2.8326 0
M  V30 2237 C 207.765 -1.78076 -4.02463 0
M  V30 2238 H 204.884 -0.423152 -0.603417 0
M  V30 2239 H 207.526 -1.57961 -1.05586 0
M  V30 2240 H 205.676 -1.60742 -3.53687 0
M  V30 2241 H 207.348 -3.94894 -2.38446 0
M  V30 2242 H 205.591 -3.74893 -2.18261 0
M  V30 2243 H 206.262 -4.00784 -3.79574 0
M  V30 2244 H 208.738 -2.0912 -3.59733 0
M  V30 2245 H 207.614 -2.36561 -4.95308 0
M  V30 2246 H 207.875 -0.733008 -4.35981 0
M  V30 2247 N 206.934 1.1197 -1.10907 0
M  V30 2248 C 208.182 1.83225 -0.852819 0
M  V30 2249 C 208.503 1.84769 0.623341 0
M  V30 2250 O 207.773 1.3143 1.45269 0
M  V30 2251 H 206.353 0.67849 -0.312507 0
M  V30 2252 H 209.015 1.3556 -1.40033 0
M  V30 2253 H 208.111 2.87265 -1.22005 0
M  V30 2254 N 208.412 0.89855 1.29475 0
M  V30 2255 C 209.375 0.380272 2.26023 0
M  V30 2256 C 210.375 -0.484891 1.53315 0
M  V30 2257 O 211.565 -0.290108 1.71767 0
M  V30 2258 C 208.697 -0.45651 3.3783 0
M  V30 2259 H 209.89 1.23295 2.73383 0
M  V30 2260 H 207.443 0.676589 1.40897 0
M  V30 2261 H 208.178 -1.32922 2.95808 0
M  V30 2262 H 207.963 0.163393 3.91759 0
M  V30 2263 H 209.453 -0.810466 4.0966 0
M  V30 2264 N 209.89 -1.43072 0.660911 0
M  V30 2265 C 211.301 -1.84932 0.256348 0
M  V30 2266 C 211.652 -1.55325 -1.19868 0
M  V30 2267 O 210.777 -1.00607 -1.91591 0
M  V30 2268 C 211.372 -3.35684 0.458475 0
M  V30 2269 C 209.931 -3.76245 0.108161 0
M  V30 2270 C 209.078 -2.66749 0.757641 0
M  V30 2271 H 212.029 -1.33116 0.864051 0
M  V30 2272 H 212.05 -3.79365 -0.293683 0
M  V30 2273 H 211.562 -3.572 1.51755 0
M  V30 2274 H 209.663 -3.60338 -0.948014 0
M  V30 2275 H 209.776 -4.76058 0.538992 0
M  V30 2276 H 208.14 -2.53989 0.190185 0
M  V30 2277 H 208.923 -2.91092 1.81989 0
M  V30 2278 N 211.368 -0.403325 -1.52352 0
M  V30 2279 C 212.298 0.416205 -2.29761 0
M  V30 2280 C 213.279 1.05123 -1.33728 0
M  V30 2281 O 214.464 1.06134 -1.62632 0
M  V30 2282 C 211.594 1.53624 -3.11475 0
M  V30 2283 C 210.548 1.02653 -4.15507 0
M  V30 2284 C 209.874 2.23971 -4.85532 0
M  V30 2285 C 211.174 0.08463 -5.22231 0
M  V30 2286 H 212.868 -0.229701 -2.98518 0
M  V30 2287 H 210.414 -0.111913 -1.43564 0
M  V30 2288 H 212.367 2.1165 -3.64393 0
M  V30 2289 H 211.091 2.20994 -2.40477 0
M  V30 2290 H 209.75 0.46871 -3.63591 0
M  V30 2291 H 209.398 2.89883 -4.11068 0
M  V30 2292 H 209.098 1.90521 -5.55856 0
M  V30 2293 H 210.622 2.82614 -5.41259 0
M  V30 2294 H 212.036 0.573509 -5.70424 0
M  V30 2295 H 210.433 -0.160783 -5.99885 0
M  V30 2296 H 211.503 -0.86237 -4.7717 0
M  V30 2297 N 212.846 1.57033 -0.133567 0
M  V30 2298 C 214.094 1.953 0.519848 0
M  V30 2299 C 214.415 1.01866 1.66278 0
M  V30 2300 O 213.685 0.0776513 1.95746 0
M  V30 2301 H 212.265 0.721091 0.195032 0
M  V30 2302 H 214.927 1.93809 -0.205921 0
M  V30 2303 H 214.023 2.98695 0.904854 0
M  V30 2304 N 214.325 -0.140222 1.56975 0
M  V30 2305 C 215.573 -0.850005 1.83356 0
M  V30 2306 C 215.894 -1.81399 0.71551 0
M  V30 2307 O 215.164 -1.94136 -0.262294 0
M  V30 2308 H 213.744 -0.316886 0.676456 0
M  V30 2309 H 216.406 -0.132608 1.94448 0
M  V30 2310 H 215.502 -1.40814 2.78528 0
M  V30 2311 N 215.803 -1.52179 -0.40978 0
M  V30 2312 C 216.766 -1.74853 -1.48186 0
M  V30 2313 C 217.766 -0.618417 -1.48433 0
M  V30 2314 O 218.956 -0.886286 -1.49969 0
M  V30 2315 C 216.088 -1.8303 -2.87598 0
M  V30 2316 H 217.281 -2.70559 -1.29374 0
M  V30 2317 H 214.834 -1.42586 -0.640233 0
M  V30 2318 H 215.569 -0.89236 -3.11781 0
M  V30 2319 H 215.354 -2.65187 -2.88822 0
M  V30 2320 H 216.844 -2.02316 -3.65319 0
M  V30 2321 N 217.281 0.66697 -1.42791 0
M  V30 2322 C 218.244 1.76211 -1.46568 0
M  V30 2323 C 219.244 1.56896 -0.352196 0
M  V30 2324 O 220.434 1.63044 -0.613364 0
M  V30 2325 C 217.566 3.14935 -1.30494 0
M  V30 2326 H 218.759 1.74247 -2.44086 0
M  V30 2327 H 216.312 0.877342 -1.29354 0
M  V30 2328 H 217.047 3.2252 -0.339301 0
M  V30 2329 H 216.832 3.30359 -2.11199 0
M  V30 2330 H 218.322 3.94821 -1.36038 0
M  V30 2331 N 218.759 1.29093 0.90403 0
M  V30 2332 C 220.175 1.07011 1.1841 0
M  V30 2333 C 220.375 -0.181358 2.00682 0
M  V30 2334 O 219.431 -0.880331 2.36657 0
M  V30 2335 C 220.744 2.32311 1.90924 0
M  V30 2336 C 222.292 2.37587 2.03768 0
M  V30 2337 C 222.767 3.62679 2.79693 0
M  V30 2338 N 224.258 3.63376 2.87249 0
M  V30 2339 C 224.993 4.56848 3.46522 0
M  V30 2340 N 224.489 5.60648 4.06996 0
M  V30 2341 N 226.282 4.44426 3.44154 0
M  V30 2342 H 218.433 2.09412 0.354993 0
M  V30 2343 H 220.696 0.922181 0.219742 0
M  V30 2344 H 220.402 3.23536 1.37905 0
M  V30 2345 H 220.276 2.39483 2.91424 0
M  V30 2346 H 222.663 1.46853 2.55965 0
M  V30 2347 H 222.744 2.34403 1.02415 0
M  V30 2348 H 222.388 4.53762 2.28173 0
M  V30 2349 H 222.318 3.63119 3.81381 0
M  V30 2350 H 224.809 2.88321 2.44293 0
M  V30 2351 H 225.122 6.28101 4.50232 0
M  V30 2352 H 223.467 5.64463 4.05471 0
M  V30 2353 H 226.658 3.62529 2.96126 0
M  V30 2354 H 226.831 5.17457 3.90054 0
M  V30 2355 N 220.237 -1.11381 1.11499 0
M  V30 2356 C 221.2 -2.15622 0.777153 0
M  V30 2357 C 222.2 -1.59504 -0.203779 0
M  V30 2358 O 223.39 -1.74188 0.020782 0
M  V30 2359 C 220.522 -3.40556 0.153116 0
M  V30 2360 H 221.715 -2.47021 1.70061 0
M  V30 2361 H 219.268 -1.26577 0.916952 0
M  V30 2362 H 220.003 -3.14767 -0.780536 0
M  V30 2363 H 219.788 -3.8257 0.859238 0
M  V30 2364 H 221.278 -4.17546 -0.0671044 0
M  V30 2365 N 221.715 -0.905404 -1.28997 0
M  V30 2366 C 222.645 -0.404212 -2.29975 0
M  V30 2367 C 223.626 0.523784 -1.61835 0
M  V30 2368 O 224.811 0.433298 -1.89304 0
M  V30 2369 C 221.941 0.364042 -3.45387 0
M  V30 2370 C 220.895 -0.474048 -4.25367 0
M  V30 2371 C 220.221 0.422045 -5.33032 0
M  V30 2372 C 221.521 -1.72696 -4.92923 0
M  V30 2373 H 223.215 -1.24807 -2.72146 0
M  V30 2374 H 220.761 -0.601585 -1.30832 0
M  V30 2375 H 222.714 0.725447 -4.15109 0
M  V30 2376 H 221.438 1.24174 -3.02074 0
M  V30 2377 H 220.097 -0.81786 -3.57361 0
M  V30 2378 H 219.745 1.29804 -4.85963 0
M  V30 2379 H 219.445 -0.135057 -5.87445 0
M  V30 2380 H 220.969 0.779517 -6.05604 0
M  V30 2381 H 222.383 -1.43495 -5.55051 0
M  V30 2382 H 220.78 -2.22582 -5.57295 0
M  V30 2383 H 221.85 -2.45964 -4.17887 0
M  V30 2384 N 223.193 1.4272 -0.668489 0
M  V30 2385 C 224.156 2.292 0.00448567 0
M  V30 2386 C 225.156 1.43001 0.735339 0
M  V30 2387 O 226.346 1.64461 0.57429 0
M  V30 2388 C 223.478 3.25375 1.01705 0
M  V30 2389 H 224.671 2.90199 -0.756608 0
M  V30 2390 H 222.224 1.50254 -0.430506 0
M  V30 2391 H 222.959 2.69301 1.80686 0
M  V30 2392 H 222.744 3.88944 0.496463 0
M  V30 2393 H 224.234 3.90245 1.48655 0
M  V30 2394 N 224.671 0.411399 1.52136 0
M  V30 2395 C 225.621 -0.430376 2.23901 0
M  V30 2396 C 226.605 -1.0116 1.25121 0
M  V30 2397 O 227.797 -0.934044 1.50348 0
M  V30 2398 C 224.926 -1.54527 3.06556 0
M  V30 2399 C 224.012 -0.9747 4.12747 0
M  V30 2400 N 224.403 -0.130991 5.0563 0
M  V30 2401 C 222.701 -1.24497 4.28271 0
M  V30 2402 C 223.402 0.186689 5.814 0
M  V30 2403 N 222.378 -0.42304 5.41951 0
M  V30 2404 H 226.18 0.220509 2.93072 0
M  V30 2405 H 223.694 0.221952 1.60876 0
M  V30 2406 H 225.691 -2.16093 3.56524 0
M  V30 2407 H 224.351 -2.19875 2.38925 0
M  V30 2408 H 225.362 0.23349 5.17373 0
M  V30 2409 H 222.039 -1.89787 3.7187 0
M  V30 2410 H 223.429 0.871673 6.66222 0
M  V30 2411 N 226.149 -1.5696 0.141893 0
M  V30 2412 C 227.397 -1.95573 -0.509484 0
M  V30 2413 C 227.718 -1.02746 -1.65736 0
M  V30 2414 O 226.988 -0.0880311 -1.95702 0
M  V30 2415 H 225.568 -0.722115 -0.191205 0
M  V30 2416 H 228.23 -1.93697 0.216196 0
M  V30 2417 H 227.326 -2.99171 -0.889 0
M  V30 2418 N 227.627 0.131896 -1.57047 0
M  V30 2419 C 228.873 0.843179 -1.84441 0
M  V30 2420 C 229.206 1.80129 -0.725749 0
M  V30 2421 O 228.481 1.92624 0.269469 0
M  V30 2422 C 228.764 1.60442 -3.22382 0
M  V30 2423 C 228.617 0.666782 -4.4483 0
M  V30 2424 C 229.936 2.56354 -3.5773 0
M  V30 2425 H 227.055 0.305081 -0.670891 0
M  V30 2426 H 229.697 0.107839 -1.89694 0
M  V30 2427 H 227.847 2.23128 -3.18035 0
M  V30 2428 H 229.519 0.0497646 -4.61273 0
M  V30 2429 H 227.762 -0.022609 -4.33794 0
M  V30 2430 H 228.433 1.23579 -5.37989 0
M  V30 2431 H 230.909 2.0378 -3.62785 0
M  V30 2432 H 229.785 3.06657 -4.5525 0
M  V30 2433 H 230.046 3.38419 -2.84473 0
M  V30 2434 N 229.106 1.52395 0.401703 0
M  V30 2435 C 230.522 1.41363 0.740864 0
M  V30 2436 C 230.722 0.523982 1.94568 0
M  V30 2437 O 229.778 -0.00741204 2.52499 0
M  V30 2438 C 231.091 2.84011 0.987847 0
M  V30 2439 C 232.639 2.93404 1.09011 0
M  V30 2440 C 233.114 4.37036 1.3698 0
M  V30 2441 N 234.605 4.40304 1.43829 0
M  V30 2442 C 235.34 5.48508 1.67112 0
M  V30 2443 N 234.836 6.66819 1.87949 0
M  V30 2444 N 236.629 5.36034 1.69187 0
M  V30 2445 H 228.78 2.08765 -0.391262 0
M  V30 2446 H 231.043 0.941265 -0.112798 0
M  V30 2447 H 230.749 3.51265 0.174835 0
M  V30 2448 H 230.623 3.25502 1.906 0
M  V30 2449 H 233.01 2.26325 1.8937 0
M  V30 2450 H 233.091 2.55359 0.15015 0
M  V30 2451 H 232.735 5.04676 0.571353 0
M  V30 2452 H 232.665 4.72623 2.3224 0
M  V30 2453 H 235.156 3.55024 1.29486 0
M  V30 2454 H 235.469 7.45063 2.05185 0
M  V30 2455 H 233.814 6.6987 1.85199 0
M  V30 2456 H 237.005 4.42579 1.52451 0
M  V30 2457 H 237.178 6.20434 1.86993 0
M  V30 2458 N 230.584 -0.659388 1.43143 0
M  V30 2459 C 231.83 -1.42145 1.44647 0
M  V30 2460 C 232.163 -1.9408 0.0681907 0
M  V30 2461 O 231.438 -1.71899 -0.910007 0
M  V30 2462 C 231.721 -2.60735 2.48373 0
M  V30 2463 C 231.574 -2.14332 3.95451 0
M  V30 2464 C 232.893 -3.62951 2.48906 0
M  V30 2465 H 230.012 -0.51552 0.526696 0
M  V30 2466 H 232.654 -0.748069 1.74654 0
M  V30 2467 H 230.804 -3.18184 2.22916 0
M  V30 2468 H 232.476 -1.61932 4.31944 0
M  V30 2469 H 230.719 -1.4576 4.08578 0
M  V30 2470 H 231.39 -2.99583 4.63631 0
M  V30 2471 H 233.866 -3.1525 2.71582 0
M  V30 2472 H 232.742 -4.43487 3.23435 0
M  V30 2473 H 233.003 -4.15126 1.52061 0
M  V30 2474 N 232.062 -1.29571 -0.897171 0
M  V30 2475 C 232.992 -1.17473 -2.01798 0
M  V30 2476 C 233.973 -0.068323 -1.69963 0
M  V30 2477 O 235.158 -0.248239 -1.92607 0
M  V30 2478 C 232.288 -0.853099 -3.36659 0
M  V30 2479 C 231.242 -1.9161 -3.82713 0
M  V30 2480 C 230.568 -1.44773 -5.14728 0
M  V30 2481 C 231.868 -3.32535 -4.02763 0
M  V30 2482 H 233.562 -2.11237 -2.12177 0
M  V30 2483 H 231.108 -1.01699 -1.01948 0
M  V30 2484 H 233.061 -0.755165 -4.14578 0
M  V30 2485 H 231.785 0.120236 -3.26379 0
M  V30 2486 H 230.444 -2.00346 -3.07013 0
M  V30 2487 H 230.092 -0.462995 -5.00865 0
M  V30 2488 H 229.792 -2.15865 -5.46513 0
M  V30 2489 H 231.316 -1.36334 -5.95185 0
M  V30 2490 H 232.73 -3.26626 -4.71156 0
M  V30 2491 H 231.127 -4.01607 -4.45905 0
M  V30 2492 H 232.197 -3.75326 -3.07016 0
M  V30 2493 N 233.54 1.10788 -1.12088 0
M  V30 2494 C 234.45 2.20599 -0.798338 0
M  V30 2495 C 235.466 1.72712 0.21135 0
M  V30 2496 O 236.642 2.01348 0.0458477 0
M  V30 2497 C 233.707 3.45771 -0.253674 0
M  V30 2498 C 232.768 4.08411 -1.32283 0
M  V30 2499 C 232.001 5.27608 -0.80406 0
M  V30 2500 O 232.224 5.69241 0.363478 0
M  V30 2501 O 231.158 5.8101 -1.57198 0
M  V30 2502 H 234.984 2.50614 -1.7154 0
M  V30 2503 H 232.569 1.19454 -0.897275 0
M  V30 2504 H 234.451 4.21376 0.0453691 0
M  V30 2505 H 233.126 3.1739 0.636005 0
M  V30 2506 H 232.033 3.34507 -1.67499 0
M  V30 2507 H 233.366 4.40986 -2.18614 0
M  V30 2508 N 235.018 0.912232 1.28515 0
M  V30 2509 C 236.295 0.463597 1.90027 0
M  V30 2510 C 236.675 -1.05753 1.82701 0
M  V30 2511 O 236.023 -1.90492 1.26194 0
M  V30 2512 C 236.233 0.992253 3.34597 0
M  V30 2513 C 237.581 1.04344 4.11579 0
M  V30 2514 O 238.605 0.94079 3.43551 0
M  V30 2515 O 237.464 1.1995 5.33174 0
M  V30 2516 H 234.558 0.146666 0.813891 0
M  V30 2517 H 237.104 1.00292 1.36893 0
M  V30 2518 H 235.876 2.03623 3.34146 0
M  V30 2519 H 235.499 0.433672 3.95228 0
M  V30 2520 N 236.496 -1.42363 0.676048 0
M  V30 2521 C 237.744 -2.01123 0.198437 0
M  V30 2522 C 238.065 -1.53731 -1.19966 0
M  V30 2523 O 237.335 -0.759518 -1.80577 0
M  V30 2524 H 235.915 -0.743678 0.0703721 0
M  V30 2525 H 238.577 -1.74263 0.872837 0
M  V30 2526 H 237.673 -3.11454 0.200686 0
M  V30 2527 N 237.974 -0.419461 -1.51915 0
M  V30 2528 C 239.22 0.153166 -2.02221 0
M  V30 2529 C 239.553 1.43907 -1.30401 0
M  V30 2530 O 238.828 1.90055 -0.413438 0
M  V30 2531 C 239.111 0.390291 -3.57979 0
M  V30 2532 C 238.964 -0.913014 -4.40436 0
M  V30 2533 C 240.283 1.16794 -4.2432 0
M  V30 2534 H 237.402 0.0541924 -0.735005 0
M  V30 2535 H 240.044 -0.554955 -1.81715 0
M  V30 2536 H 238.194 0.993491 -3.75582 0
M  V30 2537 H 239.866 -1.54882 -4.34522 0
M  V30 2538 H 238.109 -1.52168 -4.06236 0
M  V30 2539 H 238.78 -0.701361 -5.47526 0
M  V30 2540 H 241.256 0.657161 -4.10878 0
M  V30 2541 H 240.132 1.3026 -5.3322 0
M  V30 2542 H 240.393 2.19132 -3.83971 0
M  V30 2543 N 239.452 1.56882 -0.150215 0
M  V30 2544 C 240.4 2.18214 0.805313 0
M  V30 2545 C 241.394 1.14006 1.25296 0
M  V30 2546 O 242.6 1.3225 1.22107 0
M  V30 2547 H 238.975 0.698762 0.277913 0
M  V30 2548 H 240.946 2.97231 0.263862 0
M  V30 2549 C 239.695 2.82065 2.03309 0
M  V30 2550 H 239.018 3.61968 1.69763 0
M  V30 2551 H 240.458 3.28477 2.68103 0
M  V30 2552 C 238.917 1.80739 2.84315 0
M  V30 2553 O 239.447 1.27983 3.80767 0
M  V30 2554 N 237.653 1.4997 2.48913 0
M  V30 2555 H 237.2 1.93062 1.70542 0
M  V30 2556 H 237.158 0.824217 3.03404 0
M  V30 2557 N 240.93 -0.123565 1.57115 0
M  V30 2558 C 242.16 -0.845233 1.88519 0
M  V30 2559 C 242.568 -1.74168 0.739064 0
M  V30 2560 O 241.911 -1.81244 -0.299355 0
M  V30 2561 C 241.973 -1.73452 3.14888 0
M  V30 2562 C 241.637 -1.01285 4.45635 0
M  V30 2563 C 242.634 -0.355774 5.18681 0
M  V30 2564 C 240.319 -0.99538 4.92339 0
M  V30 2565 C 242.313 0.309114 6.3665 0
M  V30 2566 C 240 -0.32669 6.10226 0
M  V30 2567 C 240.998 0.324406 6.82229 0
M  V30 2568 O 240.686 0.982437 7.97874 0
M  V30 2569 H 240.418 -0.248534 0.628655 0
M  V30 2570 H 242.972 -0.113907 2.05084 0
M  V30 2571 H 241.202 -2.50737 2.94394 0
M  V30 2572 H 242.891 -2.33021 3.32349 0
M  V30 2573 H 243.657 -0.360918 4.83655 0
M  V30 2574 H 239.536 -1.49159 4.36202 0
M  V30 2575 H 243.08 0.8179 6.92789 0
M  V30 2576 H 238.977 -0.319294 6.4471 0
M  V30 2577 H 239.745 0.886454 8.13686 0
M  V30 2578 N 242.408 -1.52605 -0.393616 0
M  V30 2579 C 243.371 -1.76415 -1.46323 0
M  V30 2580 C 244.371 -0.634126 -1.47768 0
M  V30 2581 O 245.561 -0.902142 -1.4902 0
M  V30 2582 C 242.693 -1.8607 -2.85641 0
M  V30 2583 H 243.886 -2.71916 -1.26498 0
M  V30 2584 H 241.439 -1.43257 -0.625073 0
M  V30 2585 H 242.174 -0.925378 -3.10817 0
M  V30 2586 H 241.959 -2.68235 -2.85993 0
M  V30 2587 H 243.449 -2.06179 -3.63153 0
M  V30 2588 N 243.887 0.651787 -1.4349 0
M  V30 2589 C 245.115 1.43937 -1.48626 0
M  V30 2590 C 245.53 1.8851 -0.104587 0
M  V30 2591 O 244.887 1.5958 0.885464 0
M  V30 2592 C 244.938 2.6734 -2.43334 0
M  V30 2593 O 244.659 2.24631 -3.76128 0
M  V30 2594 C 246.16 3.60683 -2.57726 0
M  V30 2595 H 243.38 0.44213 -0.504739 0
M  V30 2596 H 245.924 0.798944 -1.88248 0
M  V30 2597 H 244.079 3.2752 -2.06904 0
M  V30 2598 H 244.493 3.04485 -4.2707 0
M  V30 2599 H 245.967 4.43933 -3.28067 0
M  V30 2600 H 246.444 4.08126 -1.62265 0
M  V30 2601 H 247.05 3.06384 -2.94973 0
M  V30 2602 N 245.365 1.30045 0.890287 0
M  V30 2603 C 246.613 1.18327 1.63839 0
M  V30 2604 C 246.934 -0.263455 1.93212 0
M  V30 2605 O 246.204 -1.17856 1.56482 0
M  V30 2606 H 244.784 0.434933 0.607324 0
M  V30 2607 H 247.446 1.631 1.06698 0
M  V30 2608 H 246.542 1.74024 2.59079 0
M  V30 2609 N 246.843 -1.10192 1.12674 0
M  V30 2610 C 247.791 -2.18694 0.792196 0
M  V30 2611 C 248.785 -1.67938 -0.222058 0
M  V30 2612 O 249.991 -1.79822 -0.0800074 0
M  V30 2613 H 246.366 -0.713223 0.238364 0
M  V30 2614 H 248.337 -2.44149 1.71564 0
M  V30 2615 C 247.086 -3.46682 0.265859 0
M  V30 2616 H 246.409 -3.86101 1.03761 0
M  V30 2617 H 247.849 -4.23942 0.0701128 0
M  V30 2618 C 246.308 -3.21506 -1.00675 0
M  V30 2619 O 246.838 -3.43408 -2.08408 0
M  V30 2620 N 245.044 -2.75158 -0.934692 0
M  V30 2621 H 244.591 -2.57535 -0.0578604 0
M  V30 2622 H 244.549 -2.58691 -1.7868 0
M  V30 2623 N 248.321 -0.919034 -1.28029 0
M  V30 2624 C 249.251 -0.428581 -2.29533 0
M  V30 2625 C 250.232 0.50659 -1.62381 0
M  V30 2626 O 251.417 0.413195 -1.89753 0
M  V30 2627 C 248.547 0.327388 -3.45753 0
M  V30 2628 C 247.501 -0.519137 -4.2484 0
M  V30 2629 C 246.827 0.365486 -5.33449 0
M  V30 2630 C 248.127 -1.77914 -4.91064 0
M  V30 2631 H 249.821 -1.27687 -2.70807 0
M  V30 2632 H 247.367 -0.615428 -1.30186 0
M  V30 2633 H 249.32 0.681378 -4.15855 0
M  V30 2634 H 248.044 1.20963 -3.03374 0
M  V30 2635 H 246.703 -0.855717 -3.56473 0
M  V30 2636 H 246.351 1.24642 -4.87312 0
M  V30 2637 H 246.051 -0.197356 -5.87268 0
M  V30 2638 H 247.575 0.715241 -6.06396 0
M  V30 2639 H 248.989 -1.49374 -5.53498 0
M  V30 2640 H 247.386 -2.2848 -5.54903 0
M  V30 2641 H 248.456 -2.50382 -4.15255 0
M  V30 2642 N 249.799 1.42003 -0.683588 0
M  V30 2643 C 251.21 1.84501 -0.285736 0
M  V30 2644 C 251.561 1.57213 1.17382 0
M  V30 2645 O 250.686 1.03642 1.89966 0
M  V30 2646 C 251.281 3.34912 -0.511821 0
M  V30 2647 C 249.84 3.76025 -0.168005 0
M  V30 2648 C 248.987 2.6551 -0.799983 0
M  V30 2649 H 251.938 1.31724 -0.885119 0
M  V30 2650 H 251.959 3.79784 0.233292 0
M  V30 2651 H 251.471 3.54741 -1.57418 0
M  V30 2652 H 249.572 3.61801 0.890567 0
M  V30 2653 H 249.685 4.75141 -0.614661 0
M  V30 2654 H 248.049 2.53654 -0.230568 0
M  V30 2655 H 248.832 2.8816 -1.86597 0
M  V30 2656 N 251.277 0.427512 1.51691 0
M  V30 2657 C 252.525 -0.141948 2.01601 0
M  V30 2658 C 252.846 -1.44067 1.31414 0
M  V30 2659 O 252.116 -1.90763 0.445658 0
M  V30 2660 H 250.696 -0.0554468 0.744939 0
M  V30 2661 H 253.358 0.567968 1.86441 0
M  V30 2662 H 252.454 -0.324913 3.10404 0
M  V30 2663 N 252.755 -1.56801 0.158532 0
M  V30 2664 C 253.995 -1.98383 -0.49229 0
M  V30 2665 C 254.359 -1.04184 -1.61275 0
M  V30 2666 O 255.56 -1.34856 -2.32524 0
M  V30 2667 C 253.831 -3.4385 -0.974766 0
M  V30 2668 S 255.39 -4.07459 -1.62857 0
M  V30 2669 H 252.208 -0.693041 -0.158794 0
M  V30 2670 H 254.81 -1.93856 0.252974 0
M  V30 2671 H 253.514 -4.10131 -0.148688 0
M  V30 2672 H 253.045 -3.52115 -1.75438 0
M  V30 2673 H 255.06 -4.01458 -2.91627 0
M  V30 2674 N 254.233 0.115231 -1.57178 0
M  V30 2675 C 255.458 0.840354 -1.89612 0
M  V30 2676 C 255.883 1.72464 -0.750845 0
M  V30 2677 O 255.241 1.78826 0.298478 0
M  V30 2678 C 255.289 1.64654 -3.20814 0
M  V30 2679 O 254.393 2.7538 -3.06985 0
M  V30 2680 H 253.734 0.232158 -0.622092 0
M  V30 2681 H 256.264 0.0964977 -2.04372 0
M  V30 2682 H 256.274 2.03499 -3.53627 0
M  V30 2683 H 254.949 0.997416 -4.03763 0
M  V30 2684 H 253.526 2.3971 -2.85646 0
M  V30 2685 N 255.711 1.52812 0.385517 0
M  V30 2686 C 256.958 1.68026 1.1302 0
M  V30 2687 C 257.286 0.421934 1.89868 0
M  V30 2688 O 256.541 -0.595749 1.86412 0
M  V30 2689 C 256.84 2.86856 2.13187 0
M  V30 2690 C 256.506 4.24159 1.5297 0
M  V30 2691 C 255.168 4.61501 1.36274 0
M  V30 2692 C 257.52 5.09627 1.09223 0
M  V30 2693 C 254.848 5.81966 0.743837 0
M  V30 2694 C 257.2 6.30719 0.487411 0
M  V30 2695 C 255.864 6.6679 0.307777 0
M  V30 2696 H 255.134 0.614849 0.413571 0
M  V30 2697 H 257.781 1.86962 0.414405 0
M  V30 2698 H 256.086 2.6235 2.90998 0
M  V30 2699 H 257.783 2.95821 2.70722 0
M  V30 2700 H 254.373 3.94746 1.66954 0
M  V30 2701 H 258.557 4.81343 1.20922 0
M  V30 2702 H 253.813 6.08519 0.592891 0
M  V30 2703 H 257.987 6.96259 0.140143 0
M  V30 2704 H 255.614 7.60001 -0.173879 0
M  V30 2705 N 257.189 -0.644168 1.43834 0
M  V30 2706 C 258.414 -1.43642 1.49605 0
M  V30 2707 C 258.839 -1.8773 0.117913 0
M  V30 2708 O 258.197 -1.57938 -0.890239 0
M  V30 2709 C 258.245 -2.6416 2.45463 0
M  V30 2710 O 257.349 -3.63538 1.94714 0
M  V30 2711 H 256.69 -0.430329 0.50568 0
M  V30 2712 H 259.22 -0.787448 1.8884 0
M  V30 2713 H 259.23 -3.11864 2.63068 0
M  V30 2714 H 257.905 -2.31414 3.45572 0
M  V30 2715 H 256.482 -3.2273 1.86814 0
M  V30 2716 N 258.668 -1.30515 -0.883378 0
M  V30 2717 C 259.917 -1.18795 -1.63005 0
M  V30 2718 C 260.23 0.255923 -1.93919 0
M  V30 2719 O 261.436 0.494654 -2.66956 0
M  V30 2720 C 259.892 -2.07878 -2.93794 0
M  V30 2721 C 259.5 -3.57184 -2.70414 0
M  V30 2722 C 261.244 -2.04924 -3.71761 0
M  V30 2723 C 259.151 -4.38317 -3.97029 0
M  V30 2724 H 258.081 -0.441031 -0.611562 0
M  V30 2725 H 260.732 -1.55275 -0.977854 0
M  V30 2726 H 259.114 -1.64283 -3.60315 0
M  V30 2727 H 260.288 -4.08937 -2.12384 0
M  V30 2728 H 258.603 -3.61976 -2.0582 0
M  V30 2729 H 261.2 -2.62792 -4.65665 0
M  V30 2730 H 261.543 -1.0331 -4.03277 0
M  V30 2731 H 262.076 -2.46649 -3.12104 0
M  V30 2732 H 258.815 -5.40632 -3.70671 0
M  V30 2733 H 258.335 -3.91326 -4.54559 0
M  V30 2734 H 260.014 -4.49834 -4.65036 0
M  V30 2735 N 260.146 1.09593 -1.13257 0
M  V30 2736 C 261.393 1.81734 -0.893257 0
M  V30 2737 C 261.721 1.8563 0.580656 0
M  V30 2738 O 260.976 1.31906 1.44566 0
M  V30 2739 C 261.275 3.27802 -1.42411 0
M  V30 2740 C 260.941 3.44041 -2.91456 0
M  V30 2741 C 259.603 3.48181 -3.3215 0
M  V30 2742 C 261.955 3.48719 -3.87356 0
M  V30 2743 C 259.283 3.54575 -4.67433 0
M  V30 2744 C 261.635 3.56648 -5.2248 0
M  V30 2745 C 260.299 3.59055 -5.62704 0
M  V30 2746 H 259.569 0.665011 -0.326866 0
M  V30 2747 H 262.216 1.2912 -1.41422 0
M  V30 2748 H 260.521 3.83042 -0.823795 0
M  V30 2749 H 262.218 3.82149 -1.21503 0
M  V30 2750 H 258.808 3.41502 -2.58987 0
M  V30 2751 H 262.992 3.44763 -3.57004 0
M  V30 2752 H 258.248 3.54725 -4.97976 0
M  V30 2753 H 262.422 3.59212 -5.96607 0
M  V30 2754 H 260.049 3.63763 -6.67518 0
M  V30 2755 N 261.624 0.925811 1.2754 0
M  V30 2756 C 262.554 0.440748 2.29303 0
M  V30 2757 C 263.535 -0.497971 1.62648 0
M  V30 2758 O 264.72 -0.403126 1.8997 0
M  V30 2759 C 261.85 -0.309048 3.45922 0
M  V30 2760 C 260.804 0.54166 4.24559 0
M  V30 2761 C 260.13 -0.337191 5.33636 0
M  V30 2762 C 261.43 1.80516 4.90114 0
M  V30 2763 H 263.124 1.29121 2.70126 0
M  V30 2764 H 260.67 0.622323 1.29858 0
M  V30 2765 H 262.623 -0.659315 4.1621 0
M  V30 2766 H 261.347 -1.19352 3.04011 0
M  V30 2767 H 260.006 0.874609 3.56014 0
M  V30 2768 H 259.654 -1.22056 4.87966 0
M  V30 2769 H 259.354 0.228497 5.87156 0
M  V30 2770 H 260.878 -0.683072 6.06767 0
M  V30 2771 H 262.292 1.52307 5.52698 0
M  V30 2772 H 260.689 2.3142 5.53683 0
M  V30 2773 H 261.759 2.52581 4.13921 0
M  V30 2774 N 263.102 -1.41638 0.69111 0
M  V30 2775 C 264.032 -2.3347 0.037248 0
M  V30 2776 C 265.013 -1.51575 -0.771947 0
M  V30 2777 O 266.198 -1.80126 -0.72582 0
M  V30 2778 C 263.328 -3.35354 -0.903064 0
M  V30 2779 C 262.282 -4.27526 -0.201288 0
M  V30 2780 C 261.608 -5.19747 -1.25565 0
M  V30 2781 C 262.908 -5.13959 0.929689 0
M  V30 2782 H 264.602 -2.88397 0.804227 0
M  V30 2783 H 262.148 -1.38669 0.388189 0
M  V30 2784 H 264.101 -3.98519 -1.36969 0
M  V30 2785 H 262.825 -2.78767 -1.70166 0
M  V30 2786 H 261.484 -3.65779 0.245265 0
M  V30 2787 H 261.132 -4.59479 -2.04666 0
M  V30 2788 H 260.832 -5.8225 -0.791128 0
M  V30 2789 H 262.356 -5.85789 -1.72288 0
M  V30 2790 H 263.77 -5.70718 0.543546 0
M  V30 2791 H 262.167 -5.85379 1.32103 0
M  V30 2792 H 263.237 -4.51389 1.77133 0
M  V30 2793 N 264.58 -0.43555 -1.51462 0
M  V30 2794 C 265.543 0.365137 -2.26273 0
M  V30 2795 C 266.543 0.951227 -1.29647 0
M  V30 2796 O 267.733 0.825958 -1.53374 0
M  V30 2797 C 264.865 1.51645 -3.05314 0
M  V30 2798 H 266.058 -0.290474 -2.9849 0
M  V30 2799 H 263.611 -0.188676 -1.55157 0
M  V30 2800 H 264.346 2.20816 -2.3751 0
M  V30 2801 H 264.131 1.10238 -3.76284 0
M  V30 2802 H 265.621 2.08218 -3.61987 0
M  V30 2803 N 266.058 1.56714 -0.166846 0
M  V30 2804 C 266.988 2.20754 0.760913 0
M  V30 2805 C 267.969 1.16178 1.24244 0
M  V30 2806 O 269.154 1.44592 1.29641 0
M  V30 2807 C 266.284 2.84478 1.99223 0
M  V30 2808 C 265.238 3.95053 1.64672 0
M  V30 2809 C 264.564 4.45805 2.95232 0
M  V30 2810 C 265.864 5.14865 0.878155 0
M  V30 2811 H 267.558 2.98537 0.22713 0
M  V30 2812 H 265.104 1.43596 0.107805 0
M  V30 2813 H 267.057 3.27951 2.64624 0
M  V30 2814 H 265.781 2.04056 2.55007 0
M  V30 2815 H 264.44 3.52228 1.01641 0
M  V30 2816 H 264.088 3.62181 3.49047 0
M  V30 2817 H 263.788 5.204 2.7287 0
M  V30 2818 H 265.312 4.91962 3.6167 0
M  V30 2819 H 266.726 5.55059 1.43466 0
M  V30 2820 H 265.123 5.95348 0.753738 0
M  V30 2821 H 266.193 4.84735 -0.126377 0
M  V30 2822 N 267.536 -0.106894 1.57237 0
M  V30 2823 C 268.466 -1.13148 2.04254 0
M  V30 2824 C 269.447 -1.42476 0.929224 0
M  V30 2825 O 270.632 -1.52709 1.19973 0
M  V30 2826 C 267.762 -2.4545 2.45706 0
M  V30 2827 C 266.716 -2.30558 3.60592 0
M  V30 2828 C 266.042 -3.67931 3.87983 0
M  V30 2829 C 267.342 -1.75597 4.91897 0
M  V30 2830 H 269.036 -0.740374 2.90101 0
M  V30 2831 H 266.582 -0.354696 1.39563 0
M  V30 2832 H 268.535 -3.17389 2.77205 0
M  V30 2833 H 267.259 -2.86475 1.56843 0
M  V30 2834 H 265.918 -1.61067 3.29322 0
M  V30 2835 H 265.566 -4.06462 2.96306 0
M  V30 2836 H 265.266 -3.58817 4.65322 0
M  V30 2837 H 266.79 -4.41356 4.21945 0
M  V30 2838 H 268.204 -2.37364 5.21854 0
M  V30 2839 H 266.601 -1.77272 5.73319 0
M  V30 2840 H 267.671 -0.714451 4.79608 0
M  V30 2841 N 269.014 -1.53014 -0.377408 0
M  V30 2842 C 270.239 -1.72818 -1.14668 0
M  V30 2843 C 270.664 -0.450725 -1.8262 0
M  V30 2844 O 270.022 0.59439 -1.7128 0
M  V30 2845 C 270.07 -2.88627 -2.16164 0
M  V30 2846 O 269.174 -2.56409 -3.22998 0
M  V30 2847 H 268.515 -0.574301 -0.333278 0
M  V30 2848 H 271.045 -1.99853 -0.438152 0
M  V30 2849 H 271.055 -3.14455 -2.59966 0
M  V30 2850 H 269.73 -3.81294 -1.66095 0
M  V30 2851 H 268.307 -2.4136 -2.84253 0
M  V30 2852 N 270.492 0.636531 -1.44174 0
M  V30 2853 C 271.732 1.40781 -1.48189 0
M  V30 2854 C 272.096 1.91688 -0.10944 0
M  V30 2855 O 273.297 2.68789 -0.0242741 0
M  V30 2856 C 271.568 2.54575 -2.50851 0
M  V30 2857 S 273.127 3.4284 -2.73873 0
M  V30 2858 H 269.945 0.480345 -0.524204 0
M  V30 2859 H 272.547 0.737416 -1.81059 0
M  V30 2860 H 271.251 2.15478 -3.49281 0
M  V30 2861 H 270.782 3.26447 -2.19536 0
M  V30 2862 H 272.797 4.51846 -2.05059 0
M  V30 2863 N 271.97 1.30982 0.876444 0
M  V30 2864 C 272.9 1.20668 1.99903 0
M  V30 2865 C 273.881 0.095354 1.69833 0
M  V30 2866 O 275.066 0.27885 1.92188 0
M  V30 2867 C 272.196 0.90655 3.3526 0
M  V30 2868 C 271.15 1.97675 3.79617 0
M  V30 2869 C 270.476 1.52943 5.1236 0
M  V30 2870 C 271.776 3.389 3.97422 0
M  V30 2871 H 273.47 2.14586 2.0879 0
M  V30 2872 H 271.016 1.03308 1.00317 0
M  V30 2873 H 272.969 0.821025 4.13324 0
M  V30 2874 H 271.693 -0.0682969 3.26529 0
M  V30 2875 H 270.352 2.05205 3.03787 0
M  V30 2876 H 270 0.54262 5.00065 0
M  V30 2877 H 269.7 2.24532 5.43009 0
M  V30 2878 H 271.224 1.45786 5.92941 0
M  V30 2879 H 272.638 3.34081 4.659 0
M  V30 2880 H 271.035 4.0865 4.3946 0
M  V30 2881 H 272.105 3.80163 3.01006 0
M  V30 2882 N 273.449 -1.08991 1.13837 0
M  V30 2883 C 274.677 -1.85011 0.926202 0
M  V30 2884 C 275.092 -1.8135 -0.525127 0
M  V30 2885 O 274.449 -1.21287 -1.36366 0
M  V30 2886 C 274.5 -3.32802 1.41155 0
M  V30 2887 O 274.221 -3.36444 2.80601 0
M  V30 2888 C 275.722 -4.25649 1.23847 0
M  V30 2889 H 272.942 -0.584249 0.32999 0
M  V30 2890 H 275.486 -1.37688 1.51202 0
M  V30 2891 H 273.641 -3.77536 0.868631 0
M  V30 2892 H 274.055 -4.28657 3.02248 0
M  V30 2893 H 275.529 -5.27485 1.62675 0
M  V30 2894 H 276.006 -4.38828 0.18065 0
M  V30 2895 H 276.612 -3.86735 1.76964 0
M  V30 2896 N 274.927 -0.932562 -1.27047 0
M  V30 2897 C 276.173 -0.576412 -1.94436 0
M  V30 2898 C 276.506 0.880891 -1.73072 0
M  V30 2899 O 275.781 1.62905 -1.06264 0
M  V30 2900 C 276.064 -0.909031 -3.48437 0
M  V30 2901 C 275.917 -2.42044 -3.79123 0
M  V30 2902 C 277.236 -0.418341 -4.38107 0
M  V30 2903 H 274.355 -0.210888 -0.706184 0
M  V30 2904 H 276.997 -1.16522 -1.50075 0
M  V30 2905 H 275.147 -0.407947 -3.86352 0
M  V30 2906 H 276.819 -2.99359 -3.50973 0
M  V30 2907 H 275.062 -2.86758 -3.25503 0
M  V30 2908 H 275.733 -2.6037 -4.86736 0
M  V30 2909 H 278.209 -0.847856 -4.0737 0
M  V30 2910 H 277.085 -0.679981 -5.44672 0
M  V30 2911 H 277.346 0.681642 -4.36814 0
M  V30 2912 N 276.405 1.4127 -0.698611 0
M  V30 2913 C 277.816 1.84187 -0.305289 0
M  V30 2914 C 278.167 1.58449 1.15708 0
M  V30 2915 O 277.292 1.05651 1.88856 0
M  V30 2916 C 277.887 3.3435 -0.547314 0
M  V30 2917 C 276.446 3.75826 -0.207878 0
M  V30 2918 C 275.593 2.64647 -0.828099 0
M  V30 2919 H 278.544 1.30778 -0.89904 0
M  V30 2920 H 278.565 3.8001 0.192998 0
M  V30 2921 H 278.077 3.53051 -1.61172 0
M  V30 2922 H 276.178 3.62725 0.852143 0
M  V30 2923 H 276.291 4.74462 -0.665021 0
M  V30 2924 H 274.655 2.53395 -0.257458 0
M  V30 2925 H 275.438 2.86165 -1.89643 0
M  V30 2926 N 277.883 0.443576 1.51229 0
M  V30 2927 C 278.846 -0.353132 2.26463 0
M  V30 2928 C 279.846 -0.944338 1.3015 0
M  V30 2929 O 281.036 -0.817813 1.5381 0
M  V30 2930 C 278.168 -1.50023 3.06114 0
M  V30 2931 H 279.361 0.3063 2.98332 0
M  V30 2932 H 276.914 0.196902 1.55055 0
M  V30 2933 H 277.649 -2.19553 2.38677 0
M  V30 2934 H 277.434 -1.08241 3.76864 0
M  V30 2935 H 278.924 -2.06296 3.63087 0
M  V30 2936 N 279.361 -1.56624 0.175154 0
M  V30 2937 C 280.586 -2.01813 -0.478137 0
M  V30 2938 C 281.011 -1.05457 -1.55757 0
M  V30 2939 O 280.369 -0.0347439 -1.81267 0
M  V30 2940 C 280.417 -3.45581 -1.02987 0
M  V30 2941 O 279.521 -3.52305 -2.14371 0
M  V30 2942 H 278.862 -0.65413 -0.114059 0
M  V30 2943 H 281.392 -2.02673 0.280173 0
M  V30 2944 H 281.402 -3.84965 -1.35151 0
M  V30 2945 H 280.077 -4.1521 -0.239556 0
M  V30 2946 H 278.654 -3.24783 -1.83222 0
M  V30 2947 N 280.839 0.0985539 -1.57292 0
M  V30 2948 C 281.802 1.10402 -2.00858 0
M  V30 2949 C 282.802 1.33146 -0.901593 0
M  V30 2950 O 283.992 1.29318 -1.16716 0
M  V30 2951 C 281.124 2.45394 -2.36632 0
M  V30 2952 H 282.317 0.729099 -2.90902 0
M  V30 2953 H 279.87 0.343495 -1.52479 0
M  V30 2954 H 280.605 2.87769 -1.49531 0
M  V30 2955 H 280.39 2.30235 -3.17387 0
M  V30 2956 H 281.88 3.17718 -2.71007 0
M  V30 2957 N 282.317 1.53212 0.369288 0
M  V30 2958 C 283.547 1.72868 1.13139 0
M  V30 2959 C 283.955 0.455754 1.83629 0
M  V30 2960 O 283.298 -0.580861 1.74275 0
M  V30 2961 C 283.36 2.83667 2.20847 0
M  V30 2962 C 283.024 4.24142 1.70155 0
M  V30 2963 C 284.021 5.06619 1.16763 0
M  V30 2964 C 281.706 4.70539 1.7578 0
M  V30 2965 C 283.7 6.33581 0.696678 0
M  V30 2966 C 281.387 5.97481 1.28297 0
M  V30 2967 C 282.385 6.78833 0.753307 0
M  V30 2968 O 282.073 8.03393 0.285475 0
M  V30 2969 H 281.805 0.581707 0.344373 0
M  V30 2970 H 284.359 2.00736 0.435243 0
M  V30 2971 H 282.589 2.51265 2.93944 0
M  V30 2972 H 284.278 2.91536 2.82421 0
M  V30 2973 H 285.044 4.71948 1.11758 0
M  V30 2974 H 280.923 4.07293 2.15949 0
M  V30 2975 H 284.467 6.97027 0.282581 0
M  V30 2976 H 280.364 6.31651 1.32994 0
M  V30 2977 H 281.132 8.17497 0.405145 0
M  V30 2978 N 283.795 -0.628877 1.44509 0
M  V30 2979 C 284.727 -1.754 1.47538 0
M  V30 2980 C 285.74 -1.58575 0.368506 0
M  V30 2981 O 286.929 -1.66847 0.634376 0
M  V30 2982 C 284.029 -3.1315 1.29577 0
M  V30 2983 C 283.202 -3.56413 2.53551 0
M  V30 2984 C 282.261 -4.7305 2.30457 0
M  V30 2985 O 281.287 -4.81247 3.03957 0
M  V30 2986 N 282.489 -5.64903 1.3366 0
M  V30 2987 H 285.254 -1.73272 2.44534 0
M  V30 2988 H 282.815 -0.813512 1.39977 0
M  V30 2989 H 284.807 -3.88902 1.11971 0
M  V30 2990 H 283.377 -3.09908 0.409371 0
M  V30 2991 H 282.597 -2.70847 2.86419 0
M  V30 2992 H 283.885 -3.82071 3.36005 0
M  V30 2993 H 283.283 -5.60975 0.729604 0
M  V30 2994 H 281.84 -6.40275 1.22032 0
M  V30 2995 N 285.273 -1.31445 -0.869486 0
M  V30 2996 C 286.519 -1.21337 -1.62496 0
M  V30 2997 C 286.852 0.227872 -1.92858 0
M  V30 2998 O 286.127 1.16094 -1.56053 0
M  V30 2999 C 286.41 -2.05814 -2.95487 0
M  V30 3000 C 286.263 -3.5824 -2.72 0
M  V30 3001 C 287.582 -1.9079 -3.96594 0
M  V30 3002 H 284.701 -0.442135 -0.589649 0
M  V30 3003 H 287.343 -1.6124 -1.00507 0
M  V30 3004 H 285.493 -1.71913 -3.48394 0
M  V30 3005 H 287.165 -4.0228 -2.25762 0
M  V30 3006 H 285.408 -3.81647 -2.06224 0
M  V30 3007 H 286.079 -4.12657 -3.66631 0
M  V30 3008 H 288.555 -2.20459 -3.52898 0
M  V30 3009 H 287.431 -2.52199 -4.87531 0
M  V30 3010 H 287.692 -0.871341 -4.33428 0
M  V30 3011 N 286.751 1.08385 -1.14413 0
M  V30 3012 C 288.167 1.32844 -0.884563 0
M  V30 3013 C 288.367 1.95841 0.474181 0
M  V30 3014 O 287.423 2.21158 1.21842 0
M  V30 3015 C 288.736 2.22978 -2.01745 0
M  V30 3016 C 290.284 2.36458 -2.05077 0
M  V30 3017 C 290.759 3.29934 -3.1766 0
M  V30 3018 N 292.25 3.37511 -3.17239 0
M  V30 3019 C 292.985 4.09871 -4.0099 0
M  V30 3020 N 292.481 4.84936 -4.94781 0
M  V30 3021 N 294.274 4.05704 -3.89051 0
M  V30 3022 H 286.425 0.658756 -2.01926 0
M  V30 3023 H 288.688 0.352821 -0.879899 0
M  V30 3024 H 288.394 1.83934 -2.99769 0
M  V30 3025 H 288.268 3.23441 -1.94077 0
M  V30 3026 H 290.655 2.7476 -1.0766 0
M  V30 3027 H 290.736 1.35736 -2.16816 0
M  V30 3028 H 290.38 2.92352 -4.15322 0
M  V30 3029 H 290.31 4.30584 -3.03158 0
M  V30 3030 H 292.801 2.83996 -2.49308 0
M  V30 3031 H 293.114 5.37612 -5.55151 0
M  V30 3032 H 291.459 4.83988 -4.98779 0
M  V30 3033 H 294.65 3.46167 -3.15097 0
M  V30 3034 H 294.823 4.61834 -4.54547 0
M  V30 3035 N 288.23 0.939286 1.26551 0
M  V30 3036 C 289.178 0.43815 2.28436 0
M  V30 3037 C 290.172 -0.483587 1.62351 0
M  V30 3038 O 291.378 -0.362009 1.76322 0
M  V30 3039 H 287.753 0.123149 0.741848 0
M  V30 3040 H 289.724 1.31002 2.68106 0
M  V30 3041 C 288.473 -0.283052 3.46546 0
M  V30 3042 H 287.796 0.417043 3.97619 0
M  V30 3043 H 289.236 -0.597948 4.19763 0
M  V30 3044 C 287.695 -1.50018 3.01656 0
M  V30 3045 O 288.225 -2.59855 3.0633 0
M  V30 3046 N 286.431 -1.35608 2.57019 0
M  V30 3047 H 285.978 -0.46244 2.53415 0
M  V30 3048 H 285.936 -2.17165 2.27347 0
M  V30 3049 N 289.708 -1.40897 0.706093 0
M  V30 3050 C 290.933 -2.05895 0.249435 0
M  V30 3051 C 291.358 -1.52823 -1.09666 0
M  V30 3052 O 290.716 -0.659589 -1.68876 0
M  V30 3053 C 290.764 -3.59872 0.22904 0
M  V30 3054 O 289.868 -4.04708 -0.792784 0
M  V30 3055 H 289.209 -0.653206 0.119241 0
M  V30 3056 H 291.739 -1.80471 0.96391 0
M  V30 3057 H 291.749 -4.07951 0.0634791 0
M  V30 3058 H 290.424 -3.97866 1.21141 0
M  V30 3059 H 289.001 -3.68111 -0.59572 0
M  V30 3060 N 291.186 -0.45159 -1.50991 0
M  V30 3061 C 292.414 0.108334 -2.06616 0
M  V30 3062 C 292.829 1.35224 -1.31757 0
M  V30 3063 O 292.186 1.78475 -0.381174 0
M  V30 3064 C 292.237 0.41619 -3.59096 0
M  V30 3065 O 291.958 -0.778361 -4.3113 0
M  V30 3066 C 293.459 1.02523 -4.31282 0
M  V30 3067 H 290.679 0.00159995 -0.670998 0
M  V30 3068 H 293.223 -0.634771 -1.94399 0
M  V30 3069 H 291.378 1.10921 -3.71181 0
M  V30 3070 H 291.792 -0.511181 -5.22003 0
M  V30 3071 H 293.266 1.19053 -5.39009 0
M  V30 3072 H 293.743 2.01013 -3.905 0
M  V30 3073 H 294.349 0.371173 -4.23677 0
M  V30 3074 N 292.664 1.56529 -0.183458 0
M  V30 3075 C 293.912 1.96855 0.457452 0
M  V30 3076 C 294.233 1.07104 1.62953 0
M  V30 3077 O 293.503 0.139887 1.954 0
M  V30 3078 H 292.083 0.72693 0.171992 0
M  V30 3079 H 294.745 1.93056 -0.267476 0
M  V30 3080 H 293.841 3.01423 0.809368 0
M  V30 3081 N 294.142 -0.090211 1.57342 0
M  V30 3082 C 295.072 -1.10976 2.05443 0
M  V30 3083 C 296.053 -1.41482 0.944284 0
M  V30 3084 O 297.238 -1.51428 1.21586 0
M  V30 3085 C 294.368 -2.42831 2.48295 0
M  V30 3086 C 293.322 -2.26721 3.63018 0
M  V30 3087 C 292.648 -3.63796 3.91863 0
M  V30 3088 C 293.948 -1.7037 4.93732 0
M  V30 3089 H 295.642 -0.709564 2.9087 0
M  V30 3090 H 293.188 -0.339874 1.39932 0
M  V30 3091 H 295.141 -3.14431 2.80555 0
M  V30 3092 H 293.865 -2.84795 1.59873 0
M  V30 3093 H 292.524 -1.57565 3.31012 0
M  V30 3094 H 292.172 -4.03297 3.00601 0
M  V30 3095 H 291.872 -3.53861 4.69101 0
M  V30 3096 H 293.396 -4.36855 4.26603 0
M  V30 3097 H 294.81 -2.31816 5.24342 0
M  V30 3098 H 293.207 -1.71181 5.75167 0
M  V30 3099 H 294.277 -0.663542 4.80339 0
M  V30 3100 N 295.62 -1.53406 -0.361157 0
M  V30 3101 C 296.85 -1.73465 -1.1222 0
M  V30 3102 C 297.258 -0.465486 -1.83384 0
M  V30 3103 O 296.601 0.571611 -1.7458 0
M  V30 3104 C 296.663 -2.84834 -2.19339 0
M  V30 3105 C 296.327 -4.25038 -1.67903 0
M  V30 3106 C 297.324 -5.07231 -1.14074 0
M  V30 3107 C 295.009 -4.71464 -1.73282 0
M  V30 3108 C 297.003 -6.33942 -0.663068 0
M  V30 3109 C 294.69 -5.98153 -1.25127 0
M  V30 3110 C 295.688 -6.79223 -0.717296 0
M  V30 3111 O 295.376 -8.03533 -0.242865 0
M  V30 3112 H 295.108 -0.583526 -0.341283 0
M  V30 3113 H 297.662 -2.00964 -0.424591 0
M  V30 3114 H 295.892 -2.5282 -2.92607 0
M  V30 3115 H 297.581 -2.9303 -2.80871 0
M  V30 3116 H 298.347 -4.72534 -1.09254 0
M  V30 3117 H 294.226 -4.08432 -2.13786 0
M  V30 3118 H 297.77 -6.97167 -0.245612 0
M  V30 3119 H 293.667 -6.32347 -1.29642 0
M  V30 3120 H 294.435 -8.177 -0.361786 0
M  V30 3121 N 297.098 0.621204 -1.44841 0
M  V30 3122 C 298.048 1.72663 -1.48901 0
M  V30 3123 C 299.032 1.56964 -0.353702 0
M  V30 3124 O 300.224 1.66532 -0.599669 0
M  V30 3125 C 297.353 3.11381 -1.44557 0
M  V30 3126 C 296.439 3.32514 -2.6324 0
M  V30 3127 N 296.83 3.23969 -3.8843 0
M  V30 3128 C 295.128 3.63343 -2.58647 0
M  V30 3129 C 295.829 3.46062 -4.67564 0
M  V30 3130 N 294.805 3.69407 -3.98797 0
M  V30 3131 H 298.607 1.64529 -2.43531 0
M  V30 3132 H 296.121 0.82401 -1.39942 0
M  V30 3133 H 298.118 3.90667 -1.4555 0
M  V30 3134 H 296.778 3.20674 -0.509731 0
M  V30 3135 H 297.789 3.02669 -4.20252 0
M  V30 3136 H 294.466 3.79556 -1.73906 0
M  V30 3137 H 295.856 3.44963 -5.76585 0
M  V30 3138 N 298.576 1.31904 0.862503 0
M  V30 3139 C 299.822 1.22197 1.61851 0
M  V30 3140 C 300.155 -0.217641 1.92977 0
M  V30 3141 O 299.43 -1.15264 1.56666 0
M  V30 3142 C 299.713 2.07378 2.94391 0
M  V30 3143 C 299.566 3.59678 2.70096 0
M  V30 3144 C 300.885 1.92891 3.95577 0
M  V30 3145 H 298.004 0.445255 0.587296 0
M  V30 3146 H 300.646 1.6177 0.99651 0
M  V30 3147 H 298.796 1.73758 3.47477 0
M  V30 3148 H 300.468 4.03472 2.23625 0
M  V30 3149 H 298.711 3.82735 2.04197 0
M  V30 3150 H 299.382 4.14595 3.64438 0
M  V30 3151 H 301.858 2.22327 3.51724 0
M  V30 3152 H 300.734 2.54781 4.86187 0
M  V30 3153 H 300.995 0.894315 4.3296 0
M  V30 3154 N 300.054 -1.07777 1.14986 0
M  V30 3155 C 301.282 -1.84018 0.945773 0
M  V30 3156 C 301.697 -1.81897 -0.505863 0
M  V30 3157 O 301.054 -1.22726 -1.35072 0
M  V30 3158 C 301.105 -3.31287 1.44677 0
M  V30 3159 O 300.826 -3.33449 2.84154 0
M  V30 3160 C 302.327 -4.24311 1.28355 0
M  V30 3161 H 299.547 -0.580716 0.336169 0
M  V30 3162 H 302.091 -1.36077 1.52654 0
M  V30 3163 H 300.246 -3.76594 0.908625 0
M  V30 3164 H 300.66 -4.25427 3.06777 0
M  V30 3165 H 302.134 -5.2573 1.68261 0
M  V30 3166 H 302.611 -4.38612 0.227184 0
M  V30 3167 H 303.217 -3.84836 1.81056 0
M  V30 3168 N 301.532 -0.945985 -1.26051 0
M  V30 3169 C 302.48 -0.450259 -2.282 0
M  V30 3170 C 303.474 0.47497 -1.62605 0
M  V30 3171 O 304.68 0.352653 -1.76512 0
M  V30 3172 H 301.055 -0.127081 -0.741184 0
M  V30 3173 H 303.026 -1.32422 -2.67408 0
M  V30 3174 C 301.775 0.26467 -3.46691 0
M  V30 3175 H 301.098 -0.438123 -3.97392 0
M  V30 3176 H 302.538 0.575678 -4.20074 0
M  V30 3177 C 300.997 1.48416 -3.02447 0
M  V30 3178 O 301.527 2.58227 -3.07704 0
M  V30 3179 N 299.733 1.34243 -2.57735 0
M  V30 3180 H 299.28 0.448994 -2.53657 0
M  V30 3181 H 299.238 2.15957 -2.28495 0
M  V30 3182 N 303.011 1.40521 -0.713556 0
M  V30 3183 C 304.288 1.94775 -0.17943 0
M  V30 3184 C 304.668 1.65184 1.31444 0
M  V30 3185 O 304.016 0.968429 2.06963 0
M  V30 3186 C 304.226 3.45543 -0.489986 0
M  V30 3187 C 305.574 4.22442 -0.427536 0
M  V30 3188 O 306.598 3.53644 -0.425929 0
M  V30 3189 O 305.457 5.4501 -0.403292 0
M  V30 3190 H 302.551 0.826606 -0.0255192 0
M  V30 3191 H 305.097 1.5014 -0.790949 0
M  V30 3192 H 303.869 3.60432 -1.5233 0
M  V30 3193 H 303.492 3.97311 0.151598 0
M  V30 3194 N 304.489 0.459591 1.5075 0
M  V30 3195 C 305.729 -0.09824 2.04164 0
M  V30 3196 C 306.093 -1.3801 1.33481 0
M  V30 3197 O 307.294 -2.01959 1.77387 0
M  V30 3198 C 305.565 -0.289467 3.56226 0
M  V30 3199 S 307.124 -0.807507 4.31306 0
M  V30 3200 H 303.942 -0.0213845 0.710678 0
M  V30 3201 H 306.544 0.624098 1.85271 0
M  V30 3202 H 305.248 0.649461 4.05229 0
M  V30 3203 H 304.779 -1.03825 3.79452 0
M  V30 3204 H 306.794 -2.0824 4.50389 0
M  V30 3205 N 305.967 -1.56429 0.191757 0
M  V30 3206 C 307.378 -1.83912 -0.321428 0
M  V30 3207 C 307.729 -1.11231 -1.61623 0
M  V30 3208 O 306.854 -0.37202 -2.13178 0
M  V30 3209 C 307.449 -3.33624 -0.589961 0
M  V30 3210 C 306.008 -3.6153 -1.04753 0
M  V30 3211 C 305.155 -2.7714 -0.0943327 0
M  V30 3212 H 308.106 -1.53161 0.415612 0
M  V30 3213 H 308.127 -3.52213 -1.43966 0
M  V30 3214 H 307.639 -3.86495 0.352588 0
M  V30 3215 H 305.74 -3.14089 -2.00447 0
M  V30 3216 H 305.853 -4.69737 -0.942549 0
M  V30 3217 H 304.217 -2.47638 -0.595589 0
M  V30 3218 H 305 -3.32799 0.842601 0
M  V30 3219 N 307.445 0.0818655 -1.57387 0
M  V30 3220 C 308.393 1.11712 -2.04018 0
M  V30 3221 C 309.387 1.40683 -0.94364 0
M  V30 3222 O 310.593 1.40209 -1.12878 0
M  V30 3223 H 306.968 0.377542 -0.650358 0
M  V30 3224 H 308.939 0.697614 -2.90131 0
M  V30 3225 C 307.688 2.42537 -2.49141 0
M  V30 3226 H 307.011 2.21092 -3.33104 0
M  V30 3227 H 308.451 3.13446 -2.85531 0
M  V30 3228 C 306.91 3.0778 -1.37014 0
M  V30 3229 O 307.44 3.95436 -0.706621 0
M  V30 3230 N 305.646 2.68242 -1.11779 0
M  V30 3231 H 305.193 1.97052 -1.65917 0
M  V30 3232 H 305.151 3.1222 -0.369594 0
M  V30 3233 N 308.923 1.53595 0.353017 0
M  V30 3234 C 310.148 1.7462 1.11904 0
M  V30 3235 C 310.573 0.479721 1.8188 0
M  V30 3236 O 309.931 -0.567066 1.72204 0
M  V30 3237 C 309.979 2.92029 2.11545 0
M  V30 3238 O 309.083 2.61516 3.18878 0
M  V30 3239 H 308.424 0.579531 0.324099 0
M  V30 3240 H 310.954 2.00525 0.406301 0
M  V30 3241 H 310.964 3.18551 2.5493 0
M  V30 3242 H 309.639 3.83888 1.60008 0
M  V30 3243 H 308.216 2.45852 2.80377 0
M  V30 3244 N 310.401 -0.613514 1.45168 0
M  V30 3245 C 311.626 -1.40437 1.52618 0
M  V30 3246 C 312.051 -1.87438 0.157707 0
M  V30 3247 O 311.409 -1.59791 -0.856537 0
M  V30 3248 C 311.457 -2.58894 2.51011 0
M  V30 3249 O 310.561 -3.59326 2.02382 0
M  V30 3250 H 309.902 -0.419506 0.514695 0
M  V30 3251 H 312.432 -0.747215 1.90467 0
M  V30 3252 H 312.442 -3.06214 2.69624 0
M  V30 3253 H 311.117 -2.24032 3.50403 0
M  V30 3254 H 309.694 -3.18695 1.93618 0
M  V30 3255 N 311.879 -1.3236 -0.855495 0
M  V30 3256 C 313.128 -1.22226 -1.60448 0
M  V30 3257 C 313.441 0.214733 -1.94418 0
M  V30 3258 O 314.647 0.437917 -2.67945 0
M  V30 3259 C 313.103 -2.14063 -2.89318 0
M  V30 3260 C 312.711 -3.62839 -2.62777 0
M  V30 3261 C 314.455 -2.12764 -3.67331 0
M  V30 3262 C 312.362 -4.4664 -3.87643 0
M  V30 3263 H 311.292 -0.453904 -0.602069 0
M  V30 3264 H 313.943 -1.57314 -0.944698 0
M  V30 3265 H 312.325 -1.71889 -3.5675 0
M  V30 3266 H 313.499 -4.1335 -2.03662 0
M  V30 3267 H 311.814 -3.66261 -1.98096 0
M  V30 3268 H 314.411 -2.72611 -4.59987 0
M  V30 3269 H 314.754 -1.11841 -4.00995 0
M  V30 3270 H 315.287 -2.53214 -3.06802 0
M  V30 3271 H 312.026 -5.48373 -3.5912 0
M  V30 3272 H 311.546 -4.0088 -4.46156 0
M  V30 3273 H 313.225 -4.59597 -4.55389 0
M  V30 3274 N 313.357 1.07166 -1.15556 0
M  V30 3275 C 314.603 1.80065 -0.932984 0
M  V30 3276 C 314.936 1.86586 0.53845 0
M  V30 3277 O 314.211 1.35098 1.39924 0
M  V30 3278 C 314.494 3.25022 -1.55025 0
M  V30 3279 C 314.347 3.26634 -3.09242 0
M  V30 3280 C 315.666 4.22341 -1.2376 0
M  V30 3281 H 312.785 0.653697 -0.340366 0
M  V30 3282 H 315.427 1.25389 -1.4275 0
M  V30 3283 H 313.577 3.71712 -1.12972 0
M  V30 3284 H 315.249 2.88173 -3.60214 0
M  V30 3285 H 313.492 2.65539 -3.43033 0
M  V30 3286 H 314.163 4.28854 -3.47546 0
M  V30 3287 H 316.639 3.8405 -1.60139 0
M  V30 3288 H 315.515 5.22053 -1.69564 0
M  V30 3289 H 315.776 4.41828 -0.154938 0
M  V30 3290 N 314.835 0.952656 1.25548 0
M  V30 3291 C 316.065 0.622592 1.96996 0
M  V30 3292 C 316.473 -0.809112 1.71026 0
M  V30 3293 O 315.816 -1.55258 0.981861 0
M  V30 3294 C 315.878 0.798946 3.5051 0
M  V30 3295 C 315.542 2.20744 4.00151 0
M  V30 3296 C 316.539 3.18394 4.11001 0
M  V30 3297 C 314.224 2.5311 4.33867 0
M  V30 3298 C 316.218 4.46504 4.54877 0
M  V30 3299 C 313.905 3.8145 4.7743 0
M  V30 3300 C 314.903 4.77959 4.87897 0
M  V30 3301 O 314.591 6.04012 5.30494 0
M  V30 3302 H 314.323 0.232503 0.634758 0
M  V30 3303 H 316.877 1.2789 1.60728 0
M  V30 3304 H 315.107 0.0854903 3.86605 0
M  V30 3305 H 316.796 0.47023 4.03167 0
M  V30 3306 H 317.562 2.94715 3.85186 0
M  V30 3307 H 313.441 1.78719 4.24948 0
M  V30 3308 H 316.985 5.21835 4.62962 0
M  V30 3309 H 312.882 4.04936 5.0269 0
M  V30 3310 H 313.65 6.0736 5.48685 0
M  V30 3311 N 316.313 -1.40141 0.720998 0
M  V30 3312 C 317.223 -2.34486 0.0731031 0
M  V30 3313 C 318.239 -1.57587 -0.737723 0
M  V30 3314 O 319.415 -1.89949 -0.669429 0
M  V30 3315 C 316.48 -3.36528 -0.833656 0
M  V30 3316 C 315.541 -4.29298 -0.0121673 0
M  V30 3317 C 314.774 -5.26466 -0.875742 0
M  V30 3318 O 314.997 -5.29745 -2.11485 0
M  V30 3319 O 313.931 -6.01092 -0.31185 0
M  V30 3320 H 317.757 -2.9152 0.851444 0
M  V30 3321 H 315.342 -1.41427 0.481527 0
M  V30 3322 H 317.224 -3.99093 -1.35289 0
M  V30 3323 H 315.899 -2.81899 -1.59105 0
M  V30 3324 H 314.806 -3.70001 0.552262 0
M  V30 3325 H 316.139 -4.87094 0.707129 0
M  V30 3326 N 317.792 -0.46758 -1.50504 0
M  V30 3327 C 318.755 0.317059 -2.26996 0
M  V30 3328 C 319.755 0.923513 -1.31635 0
M  V30 3329 O 320.945 0.793239 -1.55091 0
M  V30 3330 C 318.077 1.45134 -3.08462 0
M  V30 3331 H 319.27 -0.353723 -2.97807 0
M  V30 3332 H 316.823 -0.221545 -1.54722 0
M  V30 3333 H 317.558 2.15728 -2.4214 0
M  V30 3334 H 317.343 1.02232 -3.78538 0
M  V30 3335 H 318.833 2.00493 -3.66323 0
M  V30 3336 N 319.27 1.56325 -0.20005 0
M  V30 3337 C 320.233 2.18084 0.705132 0
M  V30 3338 C 321.233 1.13666 1.1374 0
M  V30 3339 O 322.423 1.39023 1.04968 0
M  V30 3340 C 319.555 2.78689 1.96329 0
M  V30 3341 H 320.748 2.99435 0.167023 0
M  V30 3342 H 318.301 1.56221 0.0495725 0
M  V30 3343 H 319.036 2.0115 2.5438 0
M  V30 3344 H 318.821 3.55133 1.66202 0
M  V30 3345 H 320.311 3.26096 2.60866 0
M  V30 3346 N 320.748 -0.0735177 1.57428 0
M  V30 3347 C 322.025 -0.805903 1.78226 0
M  V30 3348 C 322.405 -1.95874 0.787189 0
M  V30 3349 O 321.753 -2.2779 -0.180029 0
M  V30 3350 C 321.963 -1.28045 3.24662 0
M  V30 3351 C 323.311 -1.71453 3.88444 0
M  V30 3352 O 324.335 -1.37616 3.28543 0
M  V30 3353 O 323.194 -2.34093 4.93825 0
M  V30 3354 H 320.288 -0.386041 0.73137 0
M  V30 3355 H 322.834 -0.0537269 1.69615 0
M  V30 3356 H 321.606 -0.455476 3.8864 0
M  V30 3357 H 321.229 -2.094 3.37991 0
M  V30 3358 N 322.226 -1.5378 -0.344866 0
M  V30 3359 C 323.189 -1.80981 -1.40637 0
M  V30 3360 C 324.189 -0.680816 -1.45676 0
M  V30 3361 O 325.379 -0.949095 -1.46075 0
M  V30 3362 C 322.511 -1.95063 -2.79577 0
M  V30 3363 H 323.704 -2.75803 -1.17783 0
M  V30 3364 H 321.257 -1.45173 -0.579181 0
M  V30 3365 H 321.992 -1.02379 -3.07716 0
M  V30 3366 H 321.777 -2.77198 -2.77315 0
M  V30 3367 H 323.267 -2.17629 -3.56409 0
M  V30 3368 N 323.704 0.605807 -1.45491 0
M  V30 3369 C 324.953 1.36086 -1.48874 0
M  V30 3370 C 325.266 1.95131 -0.135333 0
M  V30 3371 O 326.472 2.7146 -0.0468144 0
M  V30 3372 C 324.928 2.46518 -2.62215 0
M  V30 3373 C 324.536 1.93877 -4.03876 0
M  V30 3374 C 326.28 3.23512 -2.74846 0
M  V30 3375 C 324.187 3.01801 -5.08596 0
M  V30 3376 H 323.117 0.511497 -0.553974 0
M  V30 3377 H 325.768 0.649089 -1.71636 0
M  V30 3378 H 324.15 3.20388 -2.32739 0
M  V30 3379 H 325.324 1.26704 -4.43038 0
M  V30 3380 H 323.639 1.29622 -3.95711 0
M  V30 3381 H 326.236 4.04013 -3.50253 0
M  V30 3382 H 326.579 3.74631 -1.81542 0
M  V30 3383 H 327.112 2.56742 -3.03856 0
M  V30 3384 H 323.851 2.55597 -6.03614 0
M  V30 3385 H 323.371 3.67535 -4.74002 0
M  V30 3386 H 325.05 3.66152 -5.33424 0
M  V30 3387 N 325.182 1.32811 0.848464 0
M  V30 3388 C 326.112 1.24882 1.97299 0
M  V30 3389 C 327.093 0.131357 1.69592 0
M  V30 3390 O 328.278 0.319553 1.91553 0
M  V30 3391 C 325.408 0.97746 3.33261 0
M  V30 3392 C 324.362 2.05682 3.75338 0
M  V30 3393 C 323.688 1.63777 5.09 0
M  V30 3394 C 324.988 3.47254 3.90144 0
M  V30 3395 H 326.682 2.18966 2.04191 0
M  V30 3396 H 324.228 1.05413 0.981029 0
M  V30 3397 H 326.181 0.908513 4.1149 0
M  V30 3398 H 324.905 0.000980011 3.266 0
M  V30 3399 H 323.564 2.11603 2.99366 0
M  V30 3400 H 323.212 0.648569 4.98801 0
M  V30 3401 H 322.912 2.36 5.38124 0
M  V30 3402 H 324.436 1.5833 5.89715 0
M  V30 3403 H 325.85 3.43888 4.58709 0
M  V30 3404 H 324.247 4.1788 4.30693 0
M  V30 3405 H 325.317 3.86462 2.92874 0
M  V30 3406 N 326.66 -1.06551 1.16123 0
M  V30 3407 C 327.61 -2.12209 0.833736 0
M  V30 3408 C 328.594 -1.59825 -0.185656 0
M  V30 3409 O 329.786 -1.76994 0.0147906 0
M  V30 3410 C 326.915 -3.41674 0.333697 0
M  V30 3411 C 326.001 -4.00892 1.38372 0
M  V30 3412 N 326.392 -4.34256 2.59337 0
M  V30 3413 C 324.69 -4.28463 1.23836 0
M  V30 3414 C 325.391 -4.81291 3.26701 0
M  V30 3415 N 324.367 -4.80565 2.54083 0
M  V30 3416 H 328.169 -2.35849 1.75364 0
M  V30 3417 H 325.683 -1.24068 1.04789 0
M  V30 3418 H 327.68 -4.16822 0.0806918 0
M  V30 3419 H 326.34 -3.19475 -0.58017 0
M  V30 3420 H 327.351 -4.24687 2.96415 0
M  V30 3421 H 324.028 -4.15721 0.38504 0
M  V30 3422 H 325.418 -5.16332 4.29943 0
M  V30 3423 N 328.138 -0.959301 -1.25041 0
M  V30 3424 C 329.366 -0.633949 -1.96948 0
M  V30 3425 C 329.781 0.794916 -1.7125 0
M  V30 3426 O 329.138 1.53231 -0.991287 0
M  V30 3427 C 329.189 -0.888805 -3.50403 0
M  V30 3428 O 328.91 -2.26149 -3.75218 0
M  V30 3429 C 330.411 -0.576482 -4.39536 0
M  V30 3430 H 327.631 -0.237263 -0.627652 0
M  V30 3431 H 330.175 -1.28495 -1.59089 0
M  V30 3432 H 328.33 -0.284145 -3.86357 0
M  V30 3433 H 328.744 -2.33514 -4.6965 0
M  V30 3434 H 330.218 -0.805314 -5.46094 0
M  V30 3435 H 330.695 0.489075 -4.36468 0
M  V30 3436 H 331.301 -1.16067 -4.09156 0
M  V30 3437 N 329.616 1.39756 -0.72842 0
M  V30 3438 C 331.027 1.83498 -0.344289 0
M  V30 3439 C 331.378 1.60868 1.12321 0
M  V30 3440 O 330.503 1.09634 1.86573 0
M  V30 3441 C 331.098 3.33114 -0.618112 0
M  V30 3442 C 329.657 3.753 -0.287549 0
M  V30 3443 C 328.804 2.62831 -0.884048 0
M  V30 3444 H 331.755 1.28842 -0.926578 0
M  V30 3445 H 331.776 3.80334 0.112349 0
M  V30 3446 H 331.288 3.49553 -1.68625 0
M  V30 3447 H 329.389 3.64451 0.775012 0
M  V30 3448 H 329.502 4.72945 -0.765512 0
M  V30 3449 H 327.866 2.52792 -0.311149 0
M  V30 3450 H 328.649 2.82078 -1.95671 0
M  V30 3451 N 331.094 0.475555 1.50254 0
M  V30 3452 C 332.342 -0.077738 2.0195 0
M  V30 3453 C 332.663 -1.39813 1.35931 0
M  V30 3454 O 331.933 -1.89249 0.506123 0
M  V30 3455 H 330.513 -0.031719 0.746326 0
M  V30 3456 H 333.175 0.626995 1.84539 0
M  V30 3457 H 332.271 -0.225995 3.11281 0
M  V30 3458 N 332.573 -1.56217 0.208337 0
M  V30 3459 C 333.813 -1.99849 -0.428927 0
M  V30 3460 C 334.177 -1.09262 -1.57879 0
M  V30 3461 O 335.378 -1.42185 -2.28116 0
M  V30 3462 C 333.649 -3.46777 -0.864879 0
M  V30 3463 S 335.208 -4.12434 -1.49811 0
M  V30 3464 H 332.026 -0.697742 -0.136665 0
M  V30 3465 H 334.628 -1.92953 0.314519 0
M  V30 3466 H 333.332 -4.10396 -0.0181326 0
M  V30 3467 H 332.863 -3.57518 -1.64147 0
M  V30 3468 H 334.878 -4.10532 -2.78707 0
M  V30 3469 N 334.051 0.0651679 -1.57465 0
M  V30 3470 C 335.297 0.764193 -1.87851 0
M  V30 3471 C 335.63 1.76889 -0.801495 0
M  V30 3472 O 334.905 1.93594 0.187528 0
M  V30 3473 C 335.188 1.46625 -3.28897 0
M  V30 3474 C 335.041 0.477515 -4.47258 0
M  V30 3475 C 336.36 2.4095 -3.68281 0
M  V30 3476 H 333.479 0.276351 -0.683227 0
M  V30 3477 H 336.121 0.0272868 -1.8998 0
M  V30 3478 H 334.271 2.09438 -3.27212 0
M  V30 3479 H 335.943 -0.145922 -4.61069 0
M  V30 3480 H 334.186 -0.206576 -4.33308 0
M  V30 3481 H 334.857 1.0065 -5.42746 0
M  V30 3482 H 337.333 1.88209 -3.71102 0
M  V30 3483 H 336.209 2.87072 -4.67847 0
M  V30 3484 H 336.47 3.26049 -2.98571 0
M  V30 3485 N 335.529 1.53961 0.336706 0
M  V30 3486 C 336.94 1.62914 0.911925 0
M  V30 3487 C 337.291 0.514795 1.89326 0
M  V30 3488 O 336.416 -0.354395 2.13478 0
M  V30 3489 C 337.011 2.95304 1.66076 0
M  V30 3490 C 335.57 3.06496 2.18489 0
M  V30 3491 C 334.717 2.58403 1.00613 0
M  V30 3492 H 337.668 1.58285 0.114649 0
M  V30 3493 H 337.689 2.84727 2.5241 0
M  V30 3494 H 337.201 3.76387 0.946276 0
M  V30 3495 H 335.302 2.3006 2.93092 0
M  V30 3496 H 335.415 4.1208 2.44391 0
M  V30 3497 H 333.779 2.13977 1.38152 0
M  V30 3498 H 334.562 3.41932 0.306179 0
M  V30 3499 N 337.007 -0.598083 1.45811 0
M  V30 3500 C 338.247 -1.36802 1.5187 0
M  V30 3501 C 338.611 -1.9133 0.160224 0
M  V30 3502 O 339.812 -2.6863 0.0955302 0
M  V30 3503 C 338.083 -2.47835 2.57513 0
M  V30 3504 S 339.642 -3.35458 2.82866 0
M  V30 3505 H 336.46 -0.466278 0.536755 0
M  V30 3506 H 339.062 -0.689152 1.82951 0
M  V30 3507 H 337.766 -2.06141 3.54872 0
M  V30 3508 H 337.297 -3.20512 2.28114 0
M  V30 3509 H 339.312 -4.46251 2.16967 0
M  V30 3510 N 338.485 -1.33259 -0.841409 0
M  V30 3511 C 339.731 -1.24757 -1.59886 0
M  V30 3512 C 340.064 0.186913 -1.93298 0
M  V30 3513 O 339.339 1.12757 -1.5848 0
M  V30 3514 C 339.622 -2.12036 -2.91055 0
M  V30 3515 C 339.475 -3.63929 -2.6434 0
M  V30 3516 C 340.794 -1.9916 -3.92458 0
M  V30 3517 H 337.913 -0.454542 -0.580138 0
M  V30 3518 H 340.555 -1.63335 -0.970647 0
M  V30 3519 H 338.705 -1.79265 -3.44669 0
M  V30 3520 H 340.377 -4.06978 -2.17178 0
M  V30 3521 H 338.62 -3.85935 -1.98082 0
M  V30 3522 H 339.291 -4.20341 -3.57796 0
M  V30 3523 H 341.767 -2.27895 -3.48143 0
M  V30 3524 H 340.643 -2.62484 -4.82072 0
M  V30 3525 H 340.904 -0.963082 -4.31482 0
M  V30 3526 N 339.963 1.05934 -1.16686 0
M  V30 3527 C 341.379 1.30938 -0.912542 0
M  V30 3528 C 341.579 1.96803 0.432533 0
M  V30 3529 O 340.635 2.23693 1.17123 0
M  V30 3530 C 341.948 2.18649 -2.06429 0
M  V30 3531 C 343.496 2.32055 -2.10047 0
M  V30 3532 C 343.971 3.23122 -3.24586 0
M  V30 3533 N 345.462 3.30706 -3.24327 0
M  V30 3534 C 346.197 4.01273 -4.09594 0
M  V30 3535 N 345.693 4.74332 -5.04956 0
M  V30 3536 N 347.486 3.97361 -3.97569 0
M  V30 3537 H 339.637 0.615777 -2.03278 0
M  V30 3538 H 341.9 0.334077 -0.887185 0
M  V30 3539 H 341.606 1.77534 -3.03603 0
M  V30 3540 H 341.48 3.19252 -2.00894 0
M  V30 3541 H 343.867 2.72415 -1.13464 0
M  V30 3542 H 343.948 1.31107 -2.19647 0
M  V30 3543 H 343.592 2.83477 -4.2143 0
M  V30 3544 H 343.522 4.24057 -3.12223 0
M  V30 3545 H 346.013 2.78644 -2.55276 0
M  V30 3546 H 346.326 5.25716 -5.6643 0
M  V30 3547 H 344.671 4.733 -5.08933 0
M  V30 3548 H 347.862 3.39405 -3.22369 0
M  V30 3549 H 348.035 4.52089 -4.64241 0
M  V30 3550 N 341.441 0.965919 1.2453 0
M  V30 3551 C 342.351 0.502154 2.29163 0
M  V30 3552 C 343.367 -0.436017 1.68448 0
M  V30 3553 O 344.543 -0.309497 1.99008 0
M  V30 3554 C 341.608 -0.201956 3.46111 0
M  V30 3555 C 340.669 0.775821 4.22232 0
M  V30 3556 C 339.902 0.105217 5.33596 0
M  V30 3557 O 340.125 -1.10683 5.59558 0
M  V30 3558 O 339.059 0.796475 5.96607 0
M  V30 3559 H 342.885 1.37194 2.70946 0
M  V30 3560 H 340.47 0.732875 1.30189 0
M  V30 3561 H 342.352 -0.597564 4.17142 0
M  V30 3562 H 341.027 -1.04673 3.06309 0
M  V30 3563 H 339.934 1.22185 3.53584 0
M  V30 3564 H 341.267 1.58896 4.65846 0
M  V30 3565 N 342.919 -1.39368 0.735821 0
M  V30 3566 C 344.167 -2.00101 0.283562 0
M  V30 3567 C 344.488 -1.5868 -1.13338 0
M  V30 3568 O 343.758 -0.835423 -1.77193 0
M  V30 3569 H 342.338 -0.740024 0.101851 0
M  V30 3570 H 345 -1.70404 0.945962 0
M  V30 3571 H 344.096 -3.10323 0.332604 0
M  V30 3572 N 344.397 -0.483516 -1.5 0
M  V30 3573 C 345.345 0.318061 -2.30415 0
M  V30 3574 C 346.339 0.978988 -1.38247 0
M  V30 3575 O 347.545 0.908673 -1.55381 0
M  V30 3576 H 343.92 0.121419 -0.742133 0
M  V30 3577 H 345.891 -0.380403 -2.95965 0
M  V30 3578 C 344.64 1.38013 -3.19136 0
M  V30 3579 H 343.963 0.880952 -3.89973 0
M  V30 3580 H 345.403 1.91332 -3.78375 0
M  V30 3581 C 343.862 2.38884 -2.37563 0
M  V30 3582 O 344.392 3.44412 -2.06744 0
M  V30 3583 N 342.598 2.10912 -1.99911 0
M  V30 3584 H 342.145 1.25118 -2.25174 0
M  V30 3585 H 342.103 2.78635 -1.45636 0
M  V30 3586 N 345.875 1.56104 -0.216619 0
M  V30 3587 C 346.838 2.18819 0.681962 0
M  V30 3588 C 347.838 1.14866 1.12528 0
M  V30 3589 O 349.028 1.40128 1.03488 0
M  V30 3590 C 346.16 2.80756 1.93362 0
M  V30 3591 H 347.353 2.99595 0.135254 0
M  V30 3592 H 344.906 1.56265 0.0330003 0
M  V30 3593 H 345.641 2.03837 2.52232 0
M  V30 3594 H 345.426 3.56876 1.62426 0
M  V30 3595 H 346.916 3.28844 2.57393 0
M  V30 3596 N 347.353 -0.0568162 1.57498 0
M  V30 3597 C 348.578 -0.769402 1.92601 0
M  V30 3598 C 349.003 -1.69559 0.814336 0
M  V30 3599 O 348.361 -1.79811 -0.231903 0
M  V30 3600 C 348.409 -1.52634 3.26704 0
M  V30 3601 O 347.513 -2.63797 3.16994 0
M  V30 3602 H 346.854 -0.208909 0.63028 0
M  V30 3603 H 349.384 -0.0205798 2.0459 0
M  V30 3604 H 349.394 -1.90234 3.60936 0
M  V30 3605 H 348.069 -0.846875 4.07186 0
M  V30 3606 H 346.646 -2.28943 2.94346 0
M  V30 3607 N 348.832 -1.54138 -0.328536 0
M  V30 3608 C 350.248 -1.44736 -0.672574 0
M  V30 3609 C 350.448 -0.616217 -1.91846 0
M  V30 3610 O 349.504 -0.113067 -2.52247 0
M  V30 3611 C 350.817 -2.884 -0.851217 0
M  V30 3612 C 352.365 -2.98271 -0.948877 0
M  V30 3613 C 352.84 -4.43074 -1.15973 0
M  V30 3614 N 354.331 -4.46665 -1.22658 0
M  V30 3615 C 355.066 -5.55857 -1.40751 0
M  V30 3616 N 354.562 -6.75026 -1.5592 0
M  V30 3617 N 356.355 -5.43495 -1.4342 0
M  V30 3618 H 348.506 -2.06661 0.490421 0
M  V30 3619 H 350.769 -0.934812 0.157579 0
M  V30 3620 H 350.475 -3.51699 -0.00704236 0
M  V30 3621 H 350.349 -3.34225 -1.74853 0
M  V30 3622 H 352.736 -2.35102 -1.78356 0
M  V30 3623 H 352.817 -2.55785 -0.0281435 0
M  V30 3624 H 352.461 -5.06827 -0.329915 0
M  V30 3625 H 352.391 -4.83165 -2.09426 0
M  V30 3626 H 354.882 -3.60797 -1.124 0
M  V30 3627 H 355.195 -7.54004 -1.69404 0
M  V30 3628 H 353.54 -6.77944 -1.53027 0
M  V30 3629 H 356.731 -4.49349 -1.31162 0
M  V30 3630 H 356.904 -6.28649 -1.57178 0
M  V30 3631 N 350.31 0.590341 -1.46126 0
M  V30 3632 C 351.55 1.35995 -1.52593 0
M  V30 3633 C 351.914 1.91243 -0.170368 0
M  V30 3634 O 353.115 2.68576 -0.109775 0
M  V30 3635 C 351.386 2.46465 -2.58823 0
M  V30 3636 S 352.945 3.33953 -2.84641 0
M  V30 3637 H 349.763 0.463425 -0.53922 0
M  V30 3638 H 352.365 0.67944 -1.83314 0
M  V30 3639 H 351.069 2.04256 -3.5596 0
M  V30 3640 H 350.6 3.19297 -2.2981 0
M  V30 3641 H 352.615 4.45094 -2.19331 0
M  V30 3642 N 351.788 1.33704 0.83433 0
M  V30 3643 C 353.034 1.26612 1.59188 0
M  V30 3644 C 353.389 -0.165439 1.91687 0
M  V30 3645 O 352.682 -1.10873 1.56262 0
M  V30 3646 C 352.876 2.07926 2.90692 0
M  V30 3647 C 352.705 3.58844 2.71038 0
M  V30 3648 C 351.475 4.28148 2.68361 0
M  V30 3649 C 353.673 4.53082 2.43353 0
M  V30 3650 N 351.655 5.64987 2.40132 0
M  V30 3651 C 353.026 5.77843 2.24716 0
M  V30 3652 C 355.081 4.42119 2.28987 0
M  V30 3653 C 353.784 6.92877 1.9317 0
M  V30 3654 C 355.81 5.56973 1.98835 0
M  V30 3655 C 355.172 6.80745 1.81012 0
M  V30 3656 H 351.271 0.518517 0.585375 0
M  V30 3657 H 353.855 1.68294 0.979044 0
M  V30 3658 H 352.026 1.68558 3.49918 0
M  V30 3659 H 353.758 1.92568 3.55949 0
M  V30 3660 H 350.513 3.80469 2.82029 0
M  V30 3661 H 350.937 6.37133 2.28889 0
M  V30 3662 H 355.579 3.47058 2.41477 0
M  V30 3663 H 353.297 7.87931 1.79418 0
M  V30 3664 H 356.883 5.50428 1.88468 0
M  V30 3665 H 355.763 7.68115 1.58017 0
M  V30 3666 N 353.266 -1.05314 1.17247 0
M  V30 3667 C 354.512 -1.78557 0.961513 0
M  V30 3668 C 354.845 -1.87419 -0.508697 0
M  V30 3669 O 354.12 -1.37307 -1.37757 0
M  V30 3670 C 354.403 -3.22514 1.60176 0
M  V30 3671 C 354.256 -3.21673 3.14399 0
M  V30 3672 C 355.575 -4.20318 1.30463 0
M  V30 3673 H 352.694 -0.6482 0.350723 0
M  V30 3674 H 355.336 -1.23102 1.44727 0
M  V30 3675 H 353.486 -3.69867 1.18871 0
M  V30 3676 H 355.158 -2.82405 3.64753 0
M  V30 3677 H 353.401 -2.60048 3.47214 0
M  V30 3678 H 354.072 -4.23271 3.54324 0
M  V30 3679 H 356.548 -3.81454 1.66229 0
M  V30 3680 H 355.424 -5.19289 1.77848 0
M  V30 3681 H 355.685 -4.41526 0.22521 0
M  V30 3682 N 354.744 -0.972509 -1.24016 0
M  V30 3683 C 355.707 -0.511403 -2.23422 0
M  V30 3684 C 356.707 0.394679 -1.55881 0
M  V30 3685 O 357.897 0.189469 -1.73167 0
M  V30 3686 C 355.029 0.258769 -3.39916 0
M  V30 3687 H 356.222 -1.39024 -2.6573 0
M  V30 3688 H 353.775 -0.757585 -1.36713 0
M  V30 3689 H 354.51 1.1545 -3.03054 0
M  V30 3690 H 354.295 -0.391522 -3.9014 0
M  V30 3691 H 355.785 0.570244 -4.13688 0
M  V30 3692 N 356.222 1.38976 -0.743202 0
M  V30 3693 C 357.155 2.28128 -0.0572165 0
M  V30 3694 C 358.133 1.44827 0.739182 0
M  V30 3695 O 359.317 1.74207 0.720009 0
M  V30 3696 C 356.444 3.25796 0.926001 0
M  V30 3697 C 355.49 4.25947 0.217099 0
M  V30 3698 S 356.323 5.24604 -1.07477 0
M  V30 3699 C 357.479 6.25829 -0.0943545 0
M  V30 3700 H 357.712 2.85961 -0.813246 0
M  V30 3701 H 355.245 1.44822 -0.535341 0
M  V30 3702 H 357.203 3.82583 1.48797 0
M  V30 3703 H 355.864 2.66966 1.65493 0
M  V30 3704 H 355.057 4.94746 0.961372 0
M  V30 3705 H 354.659 3.73002 -0.273059 0
M  V30 3706 H 356.951 6.73411 0.743239 0
M  V30 3707 H 357.894 7.0412 -0.749713 0
M  V30 3708 H 358.302 5.63797 0.281706 0
M  V30 3709 N 357.7 0.491464 1.49741 0
M  V30 3710 C 358.928 -0.0535151 2.06831 0
M  V30 3711 C 359.343 -1.31683 1.35296 0
M  V30 3712 O 358.7 -1.77402 0.42836 0
M  V30 3713 C 358.751 -0.320835 3.60073 0
M  V30 3714 O 358.472 0.892394 4.28915 0
M  V30 3715 C 359.973 -0.910519 4.33848 0
M  V30 3716 H 357.193 0.0161909 0.670805 0
M  V30 3717 H 359.737 0.68609 1.92647 0
M  V30 3718 H 357.892 -1.0104 3.73991 0
M  V30 3719 H 358.306 0.649401 5.20464 0
M  V30 3720 H 359.78 -1.04721 5.41976 0
M  V30 3721 H 360.257 -1.90589 3.95692 0
M  V30 3722 H 360.863 -0.258712 4.24512 0
M  V30 3723 N 359.178 -1.55987 0.224894 0
M  V30 3724 C 360.589 -1.84553 -0.282345 0
M  V30 3725 C 360.94 -1.14634 -1.59227 0
M  V30 3726 O 360.065 -0.417155 -2.12341 0
M  V30 3727 C 360.66 -3.348 -0.519062 0
M  V30 3728 C 359.219 -3.63671 -0.970604 0
M  V30 3729 C 358.366 -2.77277 -0.0355261 0
M  V30 3730 H 361.317 -1.52245 0.448006 0
M  V30 3731 H 361.338 -3.55187 -1.36463 0
M  V30 3732 H 360.85 -3.8566 0.43449 0
M  V30 3733 H 358.951 -3.1827 -1.9374 0
M  V30 3734 H 359.064 -4.71631 -0.842698 0
M  V30 3735 H 357.428 -2.48846 -0.542927 0
M  V30 3736 H 358.211 -3.30937 0.913003 0
M  V30 3737 N 360.656 0.0484629 -1.57525 0
M  V30 3738 C 361.884 0.755421 -1.92616 0
M  V30 3739 C 362.299 1.69919 -0.822984 0
M  V30 3740 O 361.656 1.81378 0.202085 0
M  V30 3741 C 361.707 1.52915 -3.27566 0
M  V30 3742 O 361.428 0.62329 -4.33644 0
M  V30 3743 C 362.929 2.33502 -3.76818 0
M  V30 3744 H 360.149 0.213465 -0.63614 0
M  V30 3745 H 362.693 0.0117698 -2.04497 0
M  V30 3746 H 360.848 2.22486 -3.17142 0
M  V30 3747 H 361.262 1.16383 -5.11425 0
M  V30 3748 H 362.736 2.83214 -4.73808 0
M  V30 3749 H 363.213 3.14068 -3.07014 0
M  V30 3750 H 363.819 1.69043 -3.90262 0
M  V30 3751 N 362.134 1.5431 0.320358 0
M  V30 3752 C 363.38 1.72924 1.05949 0
M  V30 3753 C 363.713 0.503185 1.87568 0
M  V30 3754 O 362.988 -0.499839 1.87968 0
M  V30 3755 C 363.271 3.00676 1.98156 0
M  V30 3756 C 363.124 4.3354 1.19845 0
M  V30 3757 C 364.443 3.24198 2.9763 0
M  V30 3758 H 361.562 0.629195 0.383774 0
M  V30 3759 H 364.204 1.87008 0.335854 0
M  V30 3760 H 362.354 2.888 2.59859 0
M  V30 3761 H 364.026 4.57305 0.605773 0
M  V30 3762 H 362.269 4.309 0.500784 0
M  V30 3763 H 362.94 5.19156 1.87567 0
M  V30 3764 H 365.416 3.35557 2.4605 0
M  V30 3765 H 364.292 4.14938 3.59329 0
M  V30 3766 H 364.553 2.41577 3.7026 0
M  V30 3767 N 363.613 -0.582584 1.46437 0
M  V30 3768 C 364.576 -1.67366 1.56592 0
M  V30 3769 C 365.576 -1.54575 0.443072 0
M  V30 3770 O 366.766 -1.59191 0.707381 0
M  V30 3771 C 363.898 -3.06791 1.48634 0
M  V30 3772 H 365.091 -1.5972 2.5383 0
M  V30 3773 H 362.644 -0.800432 1.34249 0
M  V30 3774 H 363.379 -3.19993 0.526763 0
M  V30 3775 H 363.164 -3.17484 2.30101 0
M  V30 3776 H 364.654 -3.86218 1.58826 0
M  V30 3777 N 365.091 -1.34144 -0.827227 0
M  V30 3778 C 366.319 -1.29325 -1.61501 0
M  V30 3779 C 366.734 0.13354 -1.88327 0
M  V30 3780 O 366.091 1.0793 -1.47164 0
M  V30 3781 C 366.142 -2.07746 -2.95844 0
M  V30 3782 O 365.863 -3.4486 -2.70191 0
M  V30 3783 C 367.364 -2.10273 -3.90256 0
M  V30 3784 H 364.584 -0.445069 -0.50215 0
M  V30 3785 H 367.128 -1.76693 -1.02955 0
M  V30 3786 H 365.283 -1.6403 -3.5096 0
M  V30 3787 H 365.697 -3.85345 -3.55822 0
M  V30 3788 H 367.171 -2.69575 -4.81698 0
M  V30 3789 H 367.648 -1.096 -4.25305 0
M  V30 3790 H 368.254 -2.54059 -3.41078 0
M  V30 3791 N 366.569 1.04691 -1.17803 0
M  V30 3792 C 367.985 1.29963 -0.926379 0
M  V30 3793 C 368.185 1.97251 0.411635 0
M  V30 3794 O 367.241 2.24922 1.14744 0
M  V30 3795 C 368.554 2.16447 -2.08737 0
M  V30 3796 C 370.102 2.29814 -2.12496 0
M  V30 3797 C 370.577 3.19661 -3.27995 0
M  V30 3798 N 372.068 3.27247 -3.27816 0
M  V30 3799 C 372.803 3.96906 -4.13827 0
M  V30 3800 N 372.299 4.6895 -5.09959 0
M  V30 3801 N 374.092 3.93122 -4.01761 0
M  V30 3802 H 366.243 0.594182 -2.0392 0
M  V30 3803 H 368.506 0.324649 -0.890678 0
M  V30 3804 H 368.212 1.74304 -3.05469 0
M  V30 3805 H 368.086 3.17103 -2.04268 0
M  V30 3806 H 370.473 2.71196 -1.16347 0
M  V30 3807 H 370.554 1.2877 -2.21025 0
M  V30 3808 H 370.198 2.78991 -4.24413 0
M  V30 3809 H 370.128 4.20722 -3.16703 0
M  V30 3810 H 372.619 2.75921 -2.58217 0
M  V30 3811 H 372.932 5.19679 -5.71974 0
M  V30 3812 H 371.277 4.67875 -5.13924 0
M  V30 3813 H 374.468 3.35967 -3.2595 0
M  V30 3814 H 374.641 4.47139 -4.6901 0
M  V30 3815 N 368.047 0.979072 1.23499 0
M  V30 3816 C 369.324 0.563674 1.87302 0
M  V30 3817 C 369.704 -0.959199 1.88049 0
M  V30 3818 O 369.052 -1.83535 1.36114 0
M  V30 3819 C 369.262 1.16822 3.28867 0
M  V30 3820 C 370.61 1.26014 4.0547 0
M  V30 3821 O 371.634 1.12158 3.38082 0
M  V30 3822 O 370.493 1.48044 5.26066 0
M  V30 3823 H 367.587 0.189602 0.804972 0
M  V30 3824 H 370.133 1.07407 1.31384 0
M  V30 3825 H 368.905 2.21049 3.22883 0
M  V30 3826 H 368.528 0.642564 3.92373 0
M  V30 3827 N 369.525 -1.3858 0.750561 0
M  V30 3828 C 370.773 -1.99789 0.30477 0
M  V30 3829 C 371.094 -1.59874 -1.11649 0
M  V30 3830 O 370.364 -0.85417 -1.76297 0
M  V30 3831 H 368.944 -0.738902 0.109694 0
M  V30 3832 H 371.606 -1.69391 0.963983 0
M  V30 3833 H 370.702 -3.09952 0.365499 0
M  V30 3834 N 371.003 -0.499398 -1.49478 0
M  V30 3835 C 371.95 0.279881 -2.29097 0
M  V30 3836 C 372.92 0.961805 -1.3542 0
M  V30 3837 O 374.105 0.968777 -1.64376 0
M  V30 3838 C 371.245 1.33932 -3.18051 0
M  V30 3839 C 370.358 0.669333 -4.26783 0
M  V30 3840 C 369.493 1.70907 -5.02955 0
M  V30 3841 C 368.532 1.02087 -6.03527 0
M  V30 3842 N 367.669 2.00474 -6.7287 0
M  V30 3843 H 372.509 -0.405317 -2.95231 0
M  V30 3844 H 370.046 -0.211726 -1.45568 0
M  V30 3845 H 372.004 1.96553 -3.67998 0
M  V30 3846 H 370.634 1.9933 -2.53904 0
M  V30 3847 H 369.686 -0.0701234 -3.80335 0
M  V30 3848 H 370.998 0.127503 -4.98637 0
M  V30 3849 H 370.152 2.41037 -5.56764 0
M  V30 3850 H 368.891 2.28476 -4.30871 0
M  V30 3851 H 367.896 0.305338 -5.48951 0
M  V30 3852 H 369.121 0.451708 -6.77596 0
M  V30 3853 H 367.067 2.57007 -6.03559 0
M  V30 3854 H 366.984 1.51353 -7.40694 0
M  V30 3855 H 368.252 2.69897 -7.31284 0
M  V30 3856 N 372.481 1.55866 -0.233164 0
M  V30 3857 C 373.411 2.23783 0.666599 0
M  V30 3858 C 374.392 1.21343 1.19205 0
M  V30 3859 O 375.577 1.4996 1.23392 0
M  V30 3860 C 372.707 2.92671 1.86978 0
M  V30 3861 C 371.661 4.01682 1.47768 0
M  V30 3862 C 370.987 4.57926 2.76058 0
M  V30 3863 C 372.287 5.18126 0.658993 0
M  V30 3864 H 373.981 2.99232 0.100306 0
M  V30 3865 H 371.527 1.43924 0.046804 0
M  V30 3866 H 373.48 3.3888 2.50476 0
M  V30 3867 H 372.204 2.14688 2.46123 0
M  V30 3868 H 370.863 3.56222 0.866106 0
M  V30 3869 H 370.511 3.76659 3.33372 0
M  V30 3870 H 370.211 5.31505 2.50552 0
M  V30 3871 H 371.735 5.06859 3.40479 0
M  V30 3872 H 373.149 5.60644 1.19795 0
M  V30 3873 H 371.546 5.98009 0.500552 0
M  V30 3874 H 372.616 4.83763 -0.331856 0
M  V30 3875 N 373.959 -0.0401083 1.57549 0
M  V30 3876 C 375.37 -0.588097 1.77196 0
M  V30 3877 C 375.721 -1.76209 0.862832 0
M  V30 3878 O 374.846 -2.16331 0.0548389 0
M  V30 3879 C 375.441 -1.07363 3.21339 0
M  V30 3880 C 374 -1.56723 3.42221 0
M  V30 3881 C 373.147 -0.50041 2.72747 0
M  V30 3882 H 376.098 0.186119 1.57605 0
M  V30 3883 H 376.119 -1.94143 3.27244 0
M  V30 3884 H 375.631 -0.218975 3.87482 0
M  V30 3885 H 373.732 -2.4441 2.81237 0
M  V30 3886 H 373.845 -1.62234 4.50796 0
M  V30 3887 H 372.209 -0.952894 2.36203 0
M  V30 3888 H 372.992 0.344599 3.41566 0
M  V30 3889 N 375.437 -1.54477 -0.31217 0
M  V30 3890 C 376.4 -1.83923 -1.36766 0
M  V30 3891 C 377.4 -0.711563 -1.44199 0
M  V30 3892 O 378.59 -0.979866 -1.44029 0
M  V30 3893 C 375.722 -2.0095 -2.75376 0
M  V30 3894 H 376.915 -2.78239 -1.11906 0
M  V30 3895 H 374.468 -1.46369 -0.548257 0
M  V30 3896 H 375.203 -1.08883 -3.05475 0
M  V30 3897 H 374.988 -2.83018 -2.71373 0
M  V30 3898 H 376.478 -2.2514 -3.51713 0
M  V30 3899 N 376.915 0.57481 -1.46744 0
M  V30 3900 C 378.143 1.35856 -1.56047 0
M  V30 3901 C 378.558 1.87691 -0.204365 0
M  V30 3902 O 377.915 1.64049 0.79963 0
M  V30 3903 C 377.966 2.54066 -2.57163 0
M  V30 3904 O 377.687 2.04377 -3.87507 0
M  V30 3905 C 379.188 3.46514 -2.76483 0
M  V30 3906 H 376.408 0.414754 -0.527466 0
M  V30 3907 H 378.952 0.698035 -1.92218 0
M  V30 3908 H 377.107 3.16092 -2.23974 0
M  V30 3909 H 377.521 2.81419 -4.4261 0
M  V30 3910 H 378.995 4.25919 -3.51137 0
M  V30 3911 H 379.472 3.98951 -1.83671 0
M  V30 3912 H 380.078 2.90318 -3.10799 0
M  V30 3913 N 378.394 1.34581 0.820102 0
M  V30 3914 C 379.326 1.22236 1.93884 0
M  V30 3915 C 380.339 0.148776 1.62119 0
M  V30 3916 O 381.528 0.400877 1.7394 0
M  V30 3917 C 378.628 0.856542 3.27897 0
M  V30 3918 C 377.801 2.02569 3.87666 0
M  V30 3919 C 376.86 1.63782 5.00062 0
M  V30 3920 O 375.886 2.35477 5.18208 0
M  V30 3921 N 377.088 0.553611 5.77854 0
M  V30 3922 H 379.853 2.18615 2.05006 0
M  V30 3923 H 377.414 1.27573 0.99683 0
M  V30 3924 H 379.406 0.578806 4.0054 0
M  V30 3925 H 377.976 -0.0171518 3.12595 0
M  V30 3926 H 377.196 2.468 3.07382 0
M  V30 3927 H 378.484 2.80752 4.24329 0
M  V30 3928 H 377.882 -0.0423528 5.65684 0
M  V30 3929 H 376.439 0.335614 6.50935 0
M  V30 3930 N 379.872 -1.04064 1.18357 0
M  V30 3931 C 380.802 -2.14001 0.934113 0
M  V30 3932 C 381.783 -1.69616 -0.128186 0
M  V30 3933 O 382.968 -1.94185 0.0244093 0
M  V30 3934 C 380.098 -3.44253 0.459066 0
M  V30 3935 C 379.052 -4.02261 1.46185 0
M  V30 3936 C 378.378 -5.27992 0.844322 0
M  V30 3937 C 379.678 -4.38432 2.83856 0
M  V30 3938 H 381.372 -2.35127 1.85352 0
M  V30 3939 H 378.918 -1.12998 0.892604 0
M  V30 3940 H 380.871 -4.20522 0.271907 0
M  V30 3941 H 379.595 -3.22813 -0.495912 0
M  V30 3942 H 378.254 -3.28074 1.63595 0
M  V30 3943 H 377.902 -5.02862 -0.117845 0
M  V30 3944 H 377.602 -5.67765 1.51384 0
M  V30 3945 H 379.126 -6.06938 0.667693 0
M  V30 3946 H 380.54 -5.05688 2.70098 0
M  V30 3947 H 378.937 -4.89254 3.47491 0
M  V30 3948 H 380.007 -3.4826 3.37406 0
M  V30 3949 N 381.35 -0.985608 -1.22978 0
M  V30 3950 C 382.766 -0.695104 -1.43668 0
M  V30 3951 C 382.966 0.736866 -1.87543 0
M  V30 3952 O 382.022 1.50868 -2.02473 0
M  V30 3953 C 383.335 -1.69447 -2.48412 0
M  V30 3954 C 384.883 -1.70909 -2.62219 0
M  V30 3955 C 385.358 -2.6969 -3.70178 0
M  V30 3956 N 386.849 -2.6824 -3.77626 0
M  V30 3957 C 387.584 -3.41339 -4.60733 0
M  V30 3958 N 387.08 -4.24015 -5.4789 0
M  V30 3959 N 388.873 -3.30079 -4.54977 0
M  V30 3960 H 381.024 -1.91054 -0.928016 0
M  V30 3961 H 383.287 -0.823553 -0.469536 0
M  V30 3962 H 382.993 -2.7188 -2.23102 0
M  V30 3963 H 382.867 -1.48147 -3.46889 0
M  V30 3964 H 385.254 -0.691785 -2.86877 0
M  V30 3965 H 385.335 -1.96276 -1.6404 0
M  V30 3966 H 384.979 -3.71566 -3.46268 0
M  V30 3967 H 384.909 -2.41595 -4.67909 0
M  V30 3968 H 387.4 -2.08243 -3.15346 0
M  V30 3969 H 387.713 -4.76636 -6.08308 0
M  V30 3970 H 386.058 -4.28104 -5.47496 0
M  V30 3971 H 389.249 -2.64937 -3.85909 0
M  V30 3972 H 389.422 -3.87308 -5.19516 0
M  V30 3973 N 382.828 1.3818 -0.7579 0
M  V30 3974 C 384.244 1.5353 -0.435972 0
M  V30 3975 C 384.444 1.71961 1.05032 0
M  V30 3976 O 383.5 1.73307 1.83633 0
M  V30 3977 C 384.813 2.73989 -1.23898 0
M  V30 3978 C 386.361 2.87841 -1.22949 0
M  V30 3979 C 386.836 4.11266 -2.01554 0
M  V30 3980 N 388.327 4.18352 -1.98837 0
M  V30 3981 C 389.062 5.12856 -2.5645 0
M  V30 3982 N 388.558 6.13005 -3.22794 0
M  V30 3983 N 390.351 5.05238 -2.46356 0
M  V30 3984 H 382.502 1.24467 -1.7211 0
M  V30 3985 H 384.765 0.604982 -0.729864 0
M  V30 3986 H 384.471 2.66789 -2.29165 0
M  V30 3987 H 384.345 3.67294 -0.858764 0
M  V30 3988 H 386.732 2.9452 -0.184854 0
M  V30 3989 H 386.813 1.95534 -1.64924 0
M  V30 3990 H 386.457 4.05349 -3.06031 0
M  V30 3991 H 386.387 5.02661 -1.5697 0
M  V30 3992 H 388.878 3.46628 -1.50524 0
M  V30 3993 H 389.191 6.81619 -3.64165 0
M  V30 3994 H 387.536 6.13325 -3.2689 0
M  V30 3995 H 390.727 4.25938 -1.9415 0
M  V30 3996 H 390.9 5.78707 -2.91552 0
M  V30 3997 N 384.306 0.507319 1.49211 0
M  V30 3998 C 385.256 -0.287112 2.26185 0
M  V30 3999 C 386.24 -0.929983 1.31302 0
M  V30 4000 O 387.432 -0.836538 1.55984 0
M  V30 4001 C 384.561 -1.34718 3.15763 0
M  V30 4002 C 383.647 -0.710235 4.18111 0
M  V30 4003 N 384.038 0.190836 5.0544 0
M  V30 4004 C 382.336 -0.97009 4.35322 0
M  V30 4005 C 383.037 0.55606 5.79036 0
M  V30 4006 N 382.013 -0.0775232 5.43545 0
M  V30 4007 H 385.815 0.406445 2.91076 0
M  V30 4008 H 383.329 0.323814 1.59139 0
M  V30 4009 H 385.326 -1.92982 3.69545 0
M  V30 4010 H 383.986 -2.04235 2.52424 0
M  V30 4011 H 384.997 0.562047 5.14841 0
M  V30 4012 H 381.674 -1.65753 3.83187 0
M  V30 4013 H 383.064 1.2936 6.5933 0
M  V30 4014 N 385.784 -1.5574 0.241426 0
M  V30 4015 C 387.033 -1.97986 -0.385295 0
M  V30 4016 C 387.346 -1.13267 -1.59468 0
M  V30 4017 O 388.552 -1.45501 -2.2922 0
M  V30 4018 C 387.008 -3.52275 -0.736884 0
M  V30 4019 C 386.616 -4.45726 0.450796 0
M  V30 4020 C 388.36 -4.03189 -1.3281 0
M  V30 4021 C 386.267 -5.91352 0.0756662 0
M  V30 4022 H 385.197 -0.739386 -0.147731 0
M  V30 4023 H 387.848 -1.80308 0.340779 0
M  V30 4024 H 386.23 -3.65628 -1.52094 0
M  V30 4025 H 387.404 -4.44131 1.22819 0
M  V30 4026 H 385.719 -4.05264 0.956573 0
M  V30 4027 H 388.316 -5.09505 -1.62201 0
M  V30 4028 H 388.659 -3.50212 -2.25071 0
M  V30 4029 H 389.192 -3.93141 -0.607069 0
M  V30 4030 H 385.931 -6.48354 0.965272 0
M  V30 4031 H 385.451 -5.96095 -0.665635 0
M  V30 4032 H 387.13 -6.46084 -0.344075 0
M  V30 4033 N 387.262 0.0317525 -1.57568 0
M  V30 4034 C 388.539 0.758366 -1.803 0
M  V30 4035 C 388.919 1.93718 -0.838845 0
M  V30 4036 O 388.267 2.28187 0.119571 0
M  V30 4037 C 388.477 1.19392 -3.27943 0
M  V30 4038 C 389.825 1.61094 -3.92854 0
M  V30 4039 O 390.849 1.28857 -3.32076 0
M  V30 4040 O 389.708 2.20918 -4.99858 0
M  V30 4041 H 386.802 0.366514 -0.741348 0
M  V30 4042 H 389.348 0.00873765 -1.69698 0
M  V30 4043 H 388.12 0.352275 -3.89711 0
M  V30 4044 H 387.743 2.00365 -3.43424 0
M  V30 4045 N 388.74 1.54641 0.303973 0
M  V30 4046 C 389.67 1.88386 1.3796 0
M  V30 4047 C 390.651 0.742485 1.5304 0
M  V30 4048 O 391.836 0.997959 1.66597 0
M  V30 4049 C 388.966 2.12854 2.74427 0
M  V30 4050 C 387.92 3.28702 2.74115 0
M  V30 4051 C 387.246 3.38582 4.13844 0
M  V30 4052 C 388.546 4.65881 2.3612 0
M  V30 4053 H 390.24 2.78474 1.09966 0
M  V30 4054 H 387.786 1.33988 0.527556 0
M  V30 4055 H 389.739 2.35047 3.49758 0
M  V30 4056 H 388.463 1.19535 3.03939 0
M  V30 4057 H 387.122 3.06428 2.0124 0
M  V30 4058 H 386.77 2.42784 4.40528 0
M  V30 4059 H 386.47 4.16453 4.14537 0
M  V30 4060 H 387.994 3.63031 4.90959 0
M  V30 4061 H 389.408 4.87823 3.01167 0
M  V30 4062 H 387.805 5.46444 2.48031 0
M  V30 4063 H 388.875 4.66799 1.3125 0
M  V30 4064 N 390.218 -0.567019 1.47046 0
M  V30 4065 C 391.148 -1.68482 1.61667 0
M  V30 4066 C 392.129 -1.6358 0.466418 0
M  V30 4067 O 393.314 -1.81354 0.694574 0
M  V30 4068 C 390.444 -3.07124 1.62148 0
M  V30 4069 C 389.398 -3.26867 2.76301 0
M  V30 4070 C 388.724 -4.66196 2.61849 0
M  V30 4071 C 390.024 -3.13186 4.17986 0
M  V30 4072 H 391.718 -1.56502 2.5524 0
M  V30 4073 H 389.264 -0.751486 1.22836 0
M  V30 4074 H 391.217 -3.8516 1.70968 0
M  V30 4075 H 389.941 -3.2004 0.651287 0
M  V30 4076 H 388.6 -2.51237 2.66975 0
M  V30 4077 H 388.248 -4.75898 1.62879 0
M  V30 4078 H 387.948 -4.80356 3.38425 0
M  V30 4079 H 389.472 -5.46379 2.72584 0
M  V30 4080 H 390.886 -3.81049 4.2834 0
M  V30 4081 H 389.283 -3.3886 4.95272 0
M  V30 4082 H 390.353 -2.10057 4.3704 0
M  V30 4083 N 391.696 -1.35014 -0.812953 0
M  V30 4084 C 392.942 -1.2812 -1.57204 0
M  V30 4085 C 393.275 0.145869 -1.93651 0
M  V30 4086 O 392.55 1.0937 -1.60836 0
M  V30 4087 C 392.833 -2.18162 -2.86492 0
M  V30 4088 C 392.686 -3.69454 -2.56561 0
M  V30 4089 C 394.005 -2.07439 -3.88145 0
M  V30 4090 H 391.124 -0.466746 -0.570366 0
M  V30 4091 H 393.766 -1.65357 -0.935783 0
M  V30 4092 H 391.916 -1.86535 -3.40789 0
M  V30 4093 H 393.588 -4.11493 -2.08497 0
M  V30 4094 H 391.831 -3.9005 -1.89851 0
M  V30 4095 H 392.502 -4.27835 -3.48799 0
M  V30 4096 H 394.978 -2.35228 -3.4323 0
M  V30 4097 H 393.854 -2.7265 -4.76396 0
M  V30 4098 H 394.115 -1.05439 -4.29343 0
M  V30 4099 N 393.175 1.03435 -1.18907 0
M  V30 4100 C 394.423 1.76394 -0.986382 0
M  V30 4101 C 394.744 1.88883 0.484567 0
M  V30 4102 O 394.014 1.41843 1.3512 0
M  V30 4103 H 392.594 0.65344 -0.361975 0
M  V30 4104 H 395.256 1.248 -1.49703 0
M  V30 4105 H 394.352 2.77424 -1.42978 0
M  V30 4106 N 394.653 0.992116 1.22453 0
M  V30 4107 C 395.878 0.685644 1.95739 0
M  V30 4108 C 396.303 -0.743 1.72804 0
M  V30 4109 O 395.661 -1.50778 1.00676 0
M  V30 4110 C 395.709 0.996293 3.46564 0
M  V30 4111 O 394.813 0.0945512 4.12292 0
M  V30 4112 H 394.154 0.256694 0.612376 0
M  V30 4113 H 396.684 1.32888 1.5557 0
M  V30 4114 H 396.694 0.93781 3.97076 0
M  V30 4115 H 395.369 2.03733 3.62582 0
M  V30 4116 H 393.946 0.208451 3.72317 0
M  V30 4117 N 396.131 -1.37776 0.765217 0
M  V30 4118 C 397.094 -2.28686 0.153416 0
M  V30 4119 C 398.094 -1.47727 -0.635081 0
M  V30 4120 O 399.284 -1.68027 -0.459632 0
M  V30 4121 C 396.416 -3.31608 -0.790495 0
M  V30 4122 H 397.609 -2.84297 0.954723 0
M  V30 4123 H 395.162 -1.46932 0.53299 0
M  V30 4124 H 395.897 -2.81109 -1.61705 0
M  V30 4125 H 395.682 -3.9144 -0.227348 0
M  V30 4126 H 397.172 -3.99559 -1.21419 0
M  V30 4127 N 397.609 -0.515225 -1.4894 0
M  V30 4128 C 398.837 0.0206034 -2.0689 0
M  V30 4129 C 399.252 1.29514 -1.37374 0
M  V30 4130 O 398.609 1.76698 -0.456529 0
M  V30 4131 C 398.66 0.26351 -3.60538 0
M  V30 4132 O 398.381 -0.960517 -4.27441 0
M  V30 4133 C 399.882 0.841383 -4.35242 0
M  V30 4134 H 397.102 -0.0268608 -0.670462 0
M  V30 4135 H 399.646 -0.716651 -1.91532 0
M  V30 4136 H 397.801 0.950777 -3.75552 0
M  V30 4137 H 398.215 -0.73212 -5.19365 0
M  V30 4138 H 399.689 0.96085 -5.43573 0
M  V30 4139 H 400.166 1.8427 -3.98674 0
M  V30 4140 H 400.772 0.191143 -4.2487 0
M  V30 4141 N 399.087 1.5561 -0.249682 0
M  V30 4142 C 400.017 2.24477 0.642826 0
M  V30 4143 C 400.998 1.22601 1.17911 0
M  V30 4144 O 402.183 1.5126 1.21795 0
M  V30 4145 C 399.313 2.94638 1.83863 0
M  V30 4146 C 398.267 4.03227 1.435 0
M  V30 4147 C 397.593 4.60828 2.71186 0
M  V30 4148 C 398.893 5.18796 0.604002 0
M  V30 4149 H 400.587 2.99321 0.0685625 0
M  V30 4150 H 398.133 1.43965 0.0315363 0
M  V30 4151 H 400.086 3.41517 2.46868 0
M  V30 4152 H 398.81 2.17287 2.43832 0
M  V30 4153 H 397.469 3.57121 0.828275 0
M  V30 4154 H 397.117 3.80174 3.29358 0
M  V30 4155 H 396.817 5.34132 2.44901 0
M  V30 4156 H 398.341 5.10442 3.35084 0
M  V30 4157 H 399.755 5.61883 1.13842 0
M  V30 4158 H 398.152 5.98506 0.437097 0
M  V30 4159 H 399.222 4.83384 -0.383147 0
M  V30 4160 N 400.565 -0.0233959 1.57583 0
M  V30 4161 C 401.805 -0.71784 1.9138 0
M  V30 4162 C 402.169 -1.72216 0.848853 0
M  V30 4163 O 403.37 -2.46527 1.07134 0
M  V30 4164 C 401.641 -1.36489 3.30311 0
M  V30 4165 S 403.2 -2.0877 3.85954 0
M  V30 4166 H 400.018 -0.237676 0.670098 0
M  V30 4167 H 402.62 0.0276709 1.9548 0
M  V30 4168 H 401.324 -0.620782 4.05678 0
M  V30 4169 H 400.855 -2.14883 3.29528 0
M  V30 4170 H 402.87 -3.35988 3.65139 0
M  V30 4171 N 402.043 -1.548 -0.295768 0
M  V30 4172 C 403.268 -1.78653 -1.05346 0
M  V30 4173 C 403.693 -0.546894 -1.79974 0
M  V30 4174 O 403.051 0.502763 -1.7419 0
M  V30 4175 C 403.099 -2.99679 -2.00561 0
M  V30 4176 O 402.203 -2.7317 -3.08953 0
M  V30 4177 H 401.544 -0.59116 -0.302367 0
M  V30 4178 H 404.074 -2.01895 -0.331598 0
M  V30 4179 H 404.084 -3.27793 -2.42932 0
M  V30 4180 H 402.759 -3.89562 -1.4565 0
M  V30 4181 H 401.336 -2.56089 -2.71059 0
M  V30 4182 N 403.521 0.559213 -1.47345 0
M  V30 4183 C 404.484 1.64854 -1.59235 0
M  V30 4184 C 405.484 1.53851 -0.467607 0
M  V30 4185 O 406.674 1.58045 -0.732617 0
M  V30 4186 C 403.806 3.04388 -1.53496 0
M  V30 4187 H 404.999 1.55662 -2.56339 0
M  V30 4188 H 402.552 0.778973 -1.35505 0
M  V30 4189 H 403.287 3.19115 -0.577604 0
M  V30 4190 H 403.072 3.13783 -2.35123 0
M  V30 4191 H 404.562 3.83642 -1.6495 0
M  V30 4192 N 404.999 1.35443 0.805782 0
M  V30 4193 C 405.929 1.31095 1.93226 0
M  V30 4194 C 406.91 0.185244 1.69088 0
M  V30 4195 O 408.095 0.380332 1.90439 0
M  V30 4196 C 405.225 1.08299 3.29983 0
M  V30 4197 C 404.179 2.17519 3.68605 0
M  V30 4198 C 403.505 1.79887 5.03532 0
M  V30 4199 C 404.805 3.5949 3.78898 0
M  V30 4200 H 406.499 2.25352 1.97122 0
M  V30 4201 H 404.045 1.0848 0.946996 0
M  V30 4202 H 405.998 1.03897 4.08391 0
M  V30 4203 H 404.722 0.104885 3.26432 0
M  V30 4204 H 403.381 2.2102 2.92482 0
M  V30 4205 H 403.029 0.80693 4.96485 0
M  V30 4206 H 402.729 2.53001 5.30344 0
M  V30 4207 H 404.253 1.77011 5.84379 0
M  V30 4208 H 405.667 3.58307 4.47536 0
M  V30 4209 H 404.064 4.31371 4.1718 0
M  V30 4210 H 405.134 3.95584 2.80431 0
M  V30 4211 N 406.477 -1.02803 1.19454 0
M  V30 4212 C 407.707 -1.79581 1.02149 0
M  V30 4213 C 408.115 -1.84182 -0.432851 0
M  V30 4214 O 407.458 -1.28534 -1.31243 0
M  V30 4215 C 407.52 -3.25993 1.51554 0
M  V30 4216 C 407.184 -3.45025 2.99678 0
M  V30 4217 C 408.181 -3.35175 3.97434 0
M  V30 4218 C 405.866 -3.71212 3.38389 0
M  V30 4219 C 407.86 -3.51238 5.31893 0
M  V30 4220 C 405.547 -3.8692 4.73008 0
M  V30 4221 C 406.545 -3.76936 5.69569 0
M  V30 4222 O 406.233 -3.92179 7.01748 0
M  V30 4223 H 405.965 -0.571962 0.360327 0
M  V30 4224 H 408.519 -1.30367 1.58725 0
M  V30 4225 H 406.749 -3.76235 0.893543 0
M  V30 4226 H 408.438 -3.84368 1.30444 0
M  V30 4227 H 409.204 -3.14895 3.68872 0
M  V30 4228 H 405.083 -3.78075 2.6378 0
M  V30 4229 H 408.627 -3.43362 6.07247 0
M  V30 4230 H 404.524 -4.06699 5.01265 0
M  V30 4231 H 405.292 -4.09265 7.08833 0
M  V30 4232 N 407.956 -0.998596 -1.21925 0
M  V30 4233 C 409.202 -0.678667 -1.91107 0
M  V30 4234 C 409.535 0.78791 -1.77498 0
M  V30 4235 O 408.81 1.57043 -1.1475 0
M  V30 4236 C 409.093 -1.09245 -3.43129 0
M  V30 4237 C 408.946 -2.61801 -3.6576 0
M  V30 4238 C 410.265 -0.649984 -4.35274 0
M  V30 4239 H 407.384 -0.248025 -0.694012 0
M  V30 4240 H 410.026 -1.24314 -1.43688 0
M  V30 4241 H 408.176 -0.612171 -3.83647 0
M  V30 4242 H 409.848 -3.17543 -3.34611 0
M  V30 4243 H 408.091 -3.03609 -3.09845 0
M  V30 4244 H 408.762 -2.85804 -4.7225 0
M  V30 4245 H 411.238 -1.0626 -4.02303 0
M  V30 4246 H 410.114 -0.967743 -5.40302 0
M  V30 4247 H 410.375 0.449139 -4.39813 0
M  V30 4248 N 409.434 1.37368 -0.772513 0
M  V30 4249 C 410.682 1.99279 -0.336516 0
M  V30 4250 C 411.003 1.6163 1.09091 0
M  V30 4251 O 410.273 0.882109 1.74916 0
M  V30 4252 H 408.853 0.737063 -0.121435 0
M  V30 4253 H 411.515 1.67836 -0.990809 0
M  V30 4254 H 410.611 3.09332 -0.414763 0
M  V30 4255 N 410.912 0.523116 1.48665 0
M  V30 4256 C 412.189 -0.0775449 1.95446 0
M  V30 4257 C 412.569 -1.5197 1.4652 0
M  V30 4258 O 411.917 -2.17876 0.688657 0
M  V30 4259 C 412.127 0.0326135 3.48985 0
M  V30 4260 C 413.475 -0.130141 4.24401 0
M  V30 4261 O 414.499 -0.0415142 3.56176 0
M  V30 4262 O 413.358 -0.31491 5.45592 0
M  V30 4263 H 410.452 -0.0831012 0.822814 0
M  V30 4264 H 412.998 0.587227 1.59216 0
M  V30 4265 H 411.77 1.03748 3.77296 0
M  V30 4266 H 411.393 -0.671317 3.91892 0
M  V30 4267 N 412.39 -1.55475 0.257931 0
M  V30 4268 C 413.32 -2.24815 -0.630912 0
M  V30 4269 C 414.301 -1.23224 -1.17259 0
M  V30 4270 O 415.486 -1.51904 -1.20991 0
M  V30 4271 C 412.616 -2.95609 -1.82298 0
M  V30 4272 C 411.57 -4.03982 -1.41359 0
M  V30 4273 C 410.896 -4.6226 -2.68738 0
M  V30 4274 C 412.196 -5.19109 -0.57648 0
M  V30 4275 H 413.89 -2.99354 -0.0526878 0
M  V30 4276 H 411.436 -1.4398 -0.023901 0
M  V30 4277 H 413.389 -3.42822 -2.45054 0
M  V30 4278 H 412.113 -2.18577 -2.42676 0
M  V30 4279 H 410.772 -3.57555 -0.809324 0
M  V30 4280 H 410.42 -3.81915 -3.27338 0
M  V30 4281 H 410.12 -5.35424 -2.42065 0
M  V30 4282 H 411.644 -5.12212 -3.32372 0
M  V30 4283 H 413.058 -5.62479 -1.10861 0
M  V30 4284 H 411.455 -5.98729 -0.405351 0
M  V30 4285 H 412.525 -4.83174 0.408776 0
M  V30 4286 N 413.868 0.0150385 -1.57593 0
M  V30 4287 C 415.108 0.70768 -1.91758 0
M  V30 4288 C 415.472 1.71764 -0.857974 0
M  V30 4289 O 416.673 2.45956 -1.0844 0
M  V30 4290 C 414.944 1.34736 -3.3103 0
M  V30 4291 S 416.503 2.06721 -3.87056 0
M  V30 4292 H 413.321 0.234119 -0.671349 0
M  V30 4293 H 415.923 -0.0380373 -1.95463 0
M  V30 4294 H 414.627 0.59926 -4.06001 0
M  V30 4295 H 414.158 2.13133 -3.30663 0
M  V30 4296 H 416.173 3.34047 -3.66915 0
M  V30 4297 N 415.346 1.54954 0.287554 0
M  V30 4298 C 416.594 1.74528 1.01904 0
M  V30 4299 C 416.915 0.541349 1.87335 0
M  V30 4300 O 416.185 -0.444108 1.908 0
M  V30 4301 H 414.765 0.643576 0.379235 0
M  V30 4302 H 417.427 1.92333 0.315294 0
M  V30 4303 H 416.523 2.64015 1.6644 0
M  V30 4304 N 416.824 -0.551391 1.4764 0
M  V30 4305 C 418.049 -1.33837 1.58437 0
M  V30 4306 C 418.474 -1.866 0.237063 0
M  V30 4307 O 417.832 -1.6328 -0.787994 0
M  V30 4308 C 417.88 -2.48014 2.61766 0
M  V30 4309 O 416.984 -3.50419 2.1744 0
M  V30 4310 H 416.325 -0.397299 0.532024 0
M  V30 4311 H 418.855 -0.665759 1.93465 0
M  V30 4312 H 418.865 -2.94503 2.82369 0
M  V30 4313 H 417.54 -2.08969 3.5959 0
M  V30 4314 H 416.117 -3.10196 2.06961 0
M  V30 4315 N 418.302 -1.35869 -0.798587 0
M  V30 4316 C 419.548 -1.2978 -1.55836 0
M  V30 4317 C 419.881 0.125322 -1.93795 0
M  V30 4318 O 419.156 1.07658 -1.61987 0
M  V30 4319 C 419.439 -2.21188 -2.84162 0
M  V30 4320 C 419.292 -3.72155 -2.52628 0
M  V30 4321 C 420.611 -2.11545 -3.85923 0
M  V30 4322 H 417.73 -0.472769 -0.565383 0
M  V30 4323 H 420.372 -1.66341 -0.918192 0
M  V30 4324 H 418.522 -1.90139 -3.38791 0
M  V30 4325 H 420.194 -4.13682 -2.04121 0
M  V30 4326 H 418.437 -3.92042 -1.85704 0
M  V30 4327 H 419.108 -4.31511 -3.44242 0
M  V30 4328 H 421.584 -2.38855 -3.40716 0
M  V30 4329 H 420.46 -2.77688 -4.73477 0
M  V30 4330 H 420.721 -1.09987 -4.282 0
M  V30 4331 N 419.78 1.02168 -1.19998 0
M  V30 4332 C 421.027 1.75685 -1.00702 0
M  V30 4333 C 421.355 1.88947 0.461426 0
M  V30 4334 O 420.61 1.40832 1.35885 0
M  V30 4335 C 420.909 3.18081 -1.62969 0
M  V30 4336 C 420.575 3.24809 -3.12746 0
M  V30 4337 C 419.237 3.26352 -3.53621 0
M  V30 4338 C 421.589 3.23379 -4.08749 0
M  V30 4339 C 418.917 3.2413 -4.89036 0
M  V30 4340 C 421.269 3.22698 -5.44104 0
M  V30 4341 C 419.933 3.22542 -5.84399 0
M  V30 4342 H 419.203 0.642877 -0.368496 0
M  V30 4343 H 421.85 1.19865 -1.49348 0
M  V30 4344 H 420.155 3.77027 -1.06573 0
M  V30 4345 H 421.852 3.73648 -1.45561 0
M  V30 4346 H 418.442 3.2434 -2.80181 0
M  V30 4347 H 422.626 3.21361 -3.78207 0
M  V30 4348 H 417.882 3.22338 -5.19527 0
M  V30 4349 H 422.056 3.20543 -6.18244 0
M  V30 4350 H 419.683 3.20575 -6.89301 0
M  V30 4351 N 421.258 1.00505 1.21394 0
M  V30 4352 C 422.188 0.585684 2.26035 0
M  V30 4353 C 423.169 -0.393525 1.65485 0
M  V30 4354 O 424.354 -0.281497 1.92149 0
M  V30 4355 C 421.484 -0.0884283 3.47187 0
M  V30 4356 C 420.438 0.810567 4.20254 0
M  V30 4357 C 419.764 0.00286382 5.347 0
M  V30 4358 C 421.064 2.1132 4.77641 0
M  V30 4359 H 422.758 1.46039 2.61368 0
M  V30 4360 H 420.304 0.703648 1.25638 0
M  V30 4361 H 422.257 -0.393286 4.19561 0
M  V30 4362 H 420.981 -0.997766 3.10986 0
M  V30 4363 H 419.64 1.09925 3.49731 0
M  V30 4364 H 419.288 -0.907765 4.94741 0
M  V30 4365 H 418.988 0.601444 5.84514 0
M  V30 4366 H 420.512 -0.295808 6.09883 0
M  V30 4367 H 421.926 1.87148 5.41893 0
M  V30 4368 H 420.323 2.66164 5.37845 0
M  V30 4369 H 421.393 2.78393 3.9702 0
M  V30 4370 N 422.737 -1.36956 0.779787 0
M  V30 4371 C 423.983 -1.99787 0.348281 0
M  V30 4372 C 424.316 -1.61756 -1.07465 0
M  V30 4373 O 423.591 -0.867639 -1.74075 0
M  V30 4374 C 423.874 -3.56597 0.50104 0
M  V30 4375 C 423.727 -4.04513 1.96697 0
M  V30 4376 C 425.046 -4.40008 -0.0898097 0
M  V30 4377 H 422.165 -0.725796 0.128022 0
M  V30 4378 H 424.807 -1.62514 0.984331 0
M  V30 4379 H 422.957 -3.88479 -0.0404347 0
M  V30 4380 H 424.629 -3.83161 2.56876 0
M  V30 4381 H 422.872 -3.56408 2.47297 0
M  V30 4382 H 423.543 -5.1352 2.02486 0
M  V30 4383 H 426.019 -4.14431 0.372293 0
M  V30 4384 H 424.895 -5.4888 0.0471605 0
M  V30 4385 H 425.156 -4.26035 -1.18096 0
M  V30 4386 N 424.215 -0.530993 -1.48385 0
M  V30 4387 C 425.463 0.00273189 -2.021 0
M  V30 4388 C 425.784 1.34672 -1.41027 0
M  V30 4389 O 425.054 1.8724 -0.576012 0
M  V30 4390 H 423.634 0.00399774 -0.746989 0
M  V30 4391 H 426.296 -0.695054 -1.82085 0
M  V30 4392 H 425.392 0.11031 -3.11905 0
M  V30 4393 N 425.693 1.55336 -0.266172 0
M  V30 4394 C 426.625 2.19544 0.658247 0
M  V30 4395 C 427.638 1.17746 1.12427 0
M  V30 4396 O 428.827 1.44517 1.04772 0
M  V30 4397 C 425.927 2.80032 1.9088 0
M  V30 4398 C 425.1 4.07436 1.59106 0
M  V30 4399 C 424.159 4.52056 2.69317 0
M  V30 4400 O 423.185 5.18023 2.35883 0
M  V30 4401 N 424.387 4.21448 3.99201 0
M  V30 4402 H 427.152 2.99503 0.108754 0
M  V30 4403 H 424.713 1.61667 -0.0869059 0
M  V30 4404 H 426.705 3.06831 2.63888 0
M  V30 4405 H 425.275 2.04119 2.36758 0
M  V30 4406 H 424.495 3.88021 0.695243 0
M  V30 4407 H 425.783 4.90462 1.35367 0
M  V30 4408 H 425.181 3.68528 4.29189 0
M  V30 4409 H 423.738 4.53039 4.68614 0
M  V30 4410 N 427.171 -0.0066808 1.57599 0
M  V30 4411 C 428.101 -0.999296 2.11036 0
M  V30 4412 C 429.082 -1.36278 1.01795 0
M  V30 4413 O 430.267 -1.4477 1.29442 0
M  V30 4414 C 427.397 -2.29328 2.60818 0
M  V30 4415 C 426.351 -2.07159 3.74525 0
M  V30 4416 C 425.677 -3.42512 4.10596 0
M  V30 4417 C 426.977 -1.43959 5.02069 0
M  V30 4418 H 428.671 -0.554382 2.94223 0
M  V30 4419 H 426.217 -0.265221 1.41536 0
M  V30 4420 H 428.17 -2.99117 2.96828 0
M  V30 4421 H 426.894 -2.7592 1.74745 0
M  V30 4422 H 425.553 -1.39797 3.38899 0
M  V30 4423 H 425.201 -3.86795 3.21556 0
M  V30 4424 H 424.901 -3.28498 4.87199 0
M  V30 4425 H 426.425 -4.13628 4.4916 0
M  V30 4426 H 427.839 -2.03696 5.35893 0
M  V30 4427 H 426.236 -1.40452 5.83432 0
M  V30 4428 H 427.306 -0.407992 4.83181 0
M  V30 4429 N 428.649 -1.55105 -0.279332 0
M  V30 4430 C 429.896 -1.75412 -1.01177 0
M  V30 4431 C 430.224 -0.551728 -1.86511 0
M  V30 4432 O 429.479 0.465919 -1.90073 0
M  V30 4433 C 429.778 -3.0086 -1.92919 0
M  V30 4434 C 429.444 -4.33689 -1.23387 0
M  V30 4435 C 428.106 -4.69792 -1.04159 0
M  V30 4436 C 430.458 -5.15941 -0.738562 0
M  V30 4437 C 427.786 -5.85707 -0.341166 0
M  V30 4438 C 430.138 -6.32579 -0.0517636 0
M  V30 4439 C 428.802 -6.67326 0.152292 0
M  V30 4440 H 428.072 -0.641879 -0.370233 0
M  V30 4441 H 430.719 -1.89373 -0.284627 0
M  V30 4442 H 429.024 -2.81773 -2.72234 0
M  V30 4443 H 430.721 -3.13768 -2.49701 0
M  V30 4444 H 427.311 -4.05309 -1.39364 0
M  V30 4445 H 431.495 -4.8853 -0.874764 0
M  V30 4446 H 426.751 -6.11157 -0.172287 0
M  V30 4447 H 430.925 -6.9557 0.339828 0
M  V30 4448 H 428.552 -7.56998 0.697014 0
M  V30 4449 N 430.127 0.543554 -1.4793 0
M  V30 4450 C 431.355 1.32516 -1.58894 0
M  V30 4451 C 431.77 1.87215 -0.244131 0
M  V30 4452 O 431.127 1.65709 0.764652 0
M  V30 4453 C 431.178 2.48554 -2.62494 0
M  V30 4454 O 430.899 1.96112 -3.91755 0
M  V30 4455 C 432.4 3.40572 -2.8377 0
M  V30 4456 H 429.62 0.403472 -0.536145 0
M  V30 4457 H 432.164 0.657106 -1.93655 0
M  V30 4458 H 430.319 3.1127 -2.30629 0
M  V30 4459 H 430.733 2.71967 -4.4848 0
M  V30 4460 H 432.207 4.18375 -3.60093 0
M  V30 4461 H 432.684 3.94965 -1.92092 0
M  V30 4462 H 433.29 2.8366 -3.16887 0
M  V30 4463 N 431.605 1.3629 0.791371 0
M  V30 4464 C 432.852 1.30412 1.54916 0
M  V30 4465 C 433.18 -0.117162 1.94147 0
M  V30 4466 O 432.435 -1.08599 1.62803 0
M  V30 4467 C 432.734 2.17068 2.8393 0
M  V30 4468 C 432.4 3.65645 2.63846 0
M  V30 4469 C 431.062 4.0614 2.58077 0
M  V30 4470 C 433.414 4.59855 2.45322 0
M  V30 4471 C 430.742 5.3899 2.31748 0
M  V30 4472 C 433.094 5.9292 2.2052 0
M  V30 4473 C 431.758 6.32542 2.13183 0
M  V30 4474 H 431.028 0.47721 0.566879 0
M  V30 4475 H 433.675 1.68325 0.913172 0
M  V30 4476 H 431.98 1.72085 3.51986 0
M  V30 4477 H 433.677 2.09846 3.4171 0
M  V30 4478 H 430.267 3.33518 2.69191 0
M  V30 4479 H 434.451 4.29443 2.48782 0
M  V30 4480 H 429.707 5.68672 2.24548 0
M  V30 4481 H 433.881 6.65487 2.05182 0
M  V30 4482 H 431.508 7.35412 1.92544 0
M  V30 4483 N 433.083 -1.0153 1.20538 0
M  V30 4484 C 434.308 -1.79283 1.04271 0
M  V30 4485 C 434.733 -1.8372 -0.403544 0
M  V30 4486 O 434.091 -1.27321 -1.2907 0
M  V30 4487 C 434.139 -3.21535 1.63241 0
M  V30 4488 O 433.243 -4.03099 0.870908 0
M  V30 4489 H 432.584 -0.55293 0.367647 0
M  V30 4490 H 435.114 -1.27696 1.59859 0
M  V30 4491 H 435.124 -3.72243 1.6703 0
M  V30 4492 H 433.799 -3.1762 2.68497 0
M  V30 4493 H 432.376 -3.61693 0.907323 0
M  V30 4494 N 434.561 -1.01147 -1.20859 0
M  V30 4495 C 435.972 -0.730205 -1.71828 0
M  V30 4496 C 436.323 0.751662 -1.8123 0
M  V30 4497 O 435.448 1.58686 -1.47132 0
M  V30 4498 C 436.043 -1.31885 -3.12077 0
M  V30 4499 C 434.602 -1.08656 -3.60376 0
M  V30 4500 C 433.749 -1.42769 -2.37723 0
M  V30 4501 H 436.7 -1.18158 -1.05945 0
M  V30 4502 H 436.721 -0.706793 -3.73878 0
M  V30 4503 H 436.233 -2.39737 -3.05201 0
M  V30 4504 H 434.334 -0.0254814 -3.72591 0
M  V30 4505 H 434.447 -1.76301 -4.45483 0
M  V30 4506 H 432.811 -0.846603 -2.40218 0
M  V30 4507 H 433.594 -2.51666 -2.33493 0
M  V30 4508 N 436.039 1.36541 -0.78704 0
M  V30 4509 C 437.455 1.52571 -0.46844 0
M  V30 4510 C 437.655 1.7415 1.01361 0
M  V30 4511 O 436.711 1.77163 1.79915 0
M  V30 4512 C 438.024 2.71299 -1.29682 0
M  V30 4513 C 439.572 2.85169 -1.29027 0
M  V30 4514 C 440.047 4.06898 -2.10233 0
M  V30 4515 N 441.538 4.1404 -2.07666 0
M  V30 4516 C 442.273 5.07301 -2.67271 0
M  V30 4517 N 441.769 6.06021 -3.35724 0
M  V30 4518 N 443.562 4.99898 -2.57018 0
M  V30 4519 H 435.713 1.20788 -1.74711 0
M  V30 4520 H 437.976 0.589364 -0.742532 0
M  V30 4521 H 437.682 2.61868 -2.34773 0
M  V30 4522 H 437.556 3.6539 -0.936479 0
M  V30 4523 H 439.943 2.94062 -0.247284 0
M  V30 4524 H 440.024 1.91992 -1.69035 0
M  V30 4525 H 439.668 3.98766 -3.1456 0
M  V30 4526 H 439.598 4.99218 -1.67597 0
M  V30 4527 H 442.089 3.43357 -1.57843 0
M  V30 4528 H 442.402 6.73741 -3.78541 0
M  V30 4529 H 440.747 6.06253 -3.39826 0
M  V30 4530 H 443.938 4.21724 -2.03142 0
M  V30 4531 H 444.111 5.72392 -3.03761 0
M  V30 4532 N 437.518 0.538854 1.48102 0
M  V30 4533 C 438.934 0.19732 1.58376 0
M  V30 4534 C 439.134 -1.29971 1.5398 0
M  V30 4535 O 438.19 -2.07861 1.43352 0
M  V30 4536 C 439.503 0.807716 2.89649 0
M  V30 4537 C 441.051 0.77726 3.03196 0
M  V30 4538 C 441.526 1.36639 4.37143 0
M  V30 4539 N 443.017 1.32875 4.43732 0
M  V30 4540 C 443.752 1.7544 5.45901 0
M  V30 4541 N 443.248 2.25776 6.54979 0
M  V30 4542 N 445.041 1.66623 5.36836 0
M  V30 4543 H 437.192 1.5117 1.49202 0
M  V30 4544 H 439.455 0.629327 0.708979 0
M  V30 4545 H 439.161 1.85909 2.98548 0
M  V30 4546 H 439.035 0.289975 3.76084 0
M  V30 4547 H 441.422 -0.265374 2.93904 0
M  V30 4548 H 441.503 1.33256 2.18349 0
M  V30 4549 H 441.147 2.408 4.47189 0
M  V30 4550 H 441.077 0.786689 5.20691 0
M  V30 4551 H 443.568 0.96037 3.65493 0
M  V30 4552 H 443.881 2.56226 7.29087 0
M  V30 4553 H 442.226 2.29775 6.55918 0
M  V30 4554 H 445.417 1.27089 4.50517 0
M  V30 4555 H 445.59 2.00115 6.16326 0
M  V30 4556 N 438.996 -1.55193 0.274407 0
M  V30 4557 C 439.946 -2.19184 -0.627882 0
M  V30 4558 C 440.93 -1.15625 -1.11892 0
M  V30 4559 O 442.122 -1.41441 -1.06411 0
M  V30 4560 C 439.251 -2.91591 -1.81189 0
M  V30 4561 C 438.337 -4.02438 -1.33807 0
M  V30 4562 N 438.728 -5.0246 -0.580349 0
M  V30 4563 C 437.026 -4.15496 -1.62109 0
M  V30 4564 C 437.727 -5.80756 -0.331344 0
M  V30 4565 N 436.703 -5.36038 -0.903556 0
M  V30 4566 H 440.505 -2.93871 -0.0411216 0
M  V30 4567 H 438.019 -1.62213 0.0779348 0
M  V30 4568 H 440.016 -3.35883 -2.46957 0
M  V30 4569 H 438.676 -2.18414 -2.40261 0
M  V30 4570 H 439.687 -5.17399 -0.227762 0
M  V30 4571 H 436.364 -3.53509 -2.22121 0
M  V30 4572 H 437.754 -6.71335 0.275454 0
M  V30 4573 N 440.474 -0.00167713 -1.576 0
M  V30 4574 C 441.72 0.67819 -1.91761 0
M  V30 4575 C 442.075 1.71288 -0.876256 0
M  V30 4576 O 441.368 1.91276 0.111333 0
M  V30 4577 C 441.562 1.36189 -3.30435 0
M  V30 4578 C 441.391 0.394938 -4.47962 0
M  V30 4579 C 440.161 0.00472875 -5.053 0
M  V30 4580 C 442.359 -0.339521 -5.13178 0
M  V30 4581 N 440.341 -0.960257 -6.06343 0
M  V30 4582 C 441.712 -1.15914 -6.09068 0
M  V30 4583 C 443.767 -0.403177 -4.96265 0
M  V30 4584 C 442.47 -2.03661 -6.89866 0
M  V30 4585 C 444.496 -1.26788 -5.77649 0
M  V30 4586 C 443.858 -2.07535 -6.73134 0
M  V30 4587 H 439.957 0.221317 -0.750028 0
M  V30 4588 H 442.541 -0.0624182 -1.946 0
M  V30 4589 H 440.712 2.07278 -3.28467 0
M  V30 4590 H 442.444 1.99658 -3.52021 0
M  V30 4591 H 439.199 0.373452 -4.72125 0
M  V30 4592 H 439.623 -1.43817 -6.61548 0
M  V30 4593 H 444.265 0.206818 -4.22294 0
M  V30 4594 H 441.983 -2.65727 -7.63161 0
M  V30 4595 H 445.569 -1.32107 -5.66603 0
M  V30 4596 H 444.449 -2.73363 -7.35012 0
M  V30 4597 N 441.952 1.55251 0.271103 0
M  V30 4598 C 443.18 1.79974 1.02064 0
M  V30 4599 C 443.595 0.574003 1.79863 0
M  V30 4600 O 442.952 -0.456962 1.76686 0
M  V30 4601 C 443.003 3.02603 1.97772 0
M  V30 4602 O 442.724 4.20443 1.23124 0
M  V30 4603 C 444.225 3.39944 2.84522 0
M  V30 4604 H 441.445 0.599489 0.301419 0
M  V30 4605 H 443.989 2.02268 0.301313 0
M  V30 4606 H 442.144 2.8243 2.65165 0
M  V30 4607 H 442.558 4.89783 1.87651 0
M  V30 4608 H 444.032 4.28915 3.47471 0
M  V30 4609 H 444.509 2.59432 3.54389 0
M  V30 4610 H 445.115 3.62383 2.22618 0
M  V30 4611 N 443.43 -0.535701 1.48216 0
M  V30 4612 C 444.658 -1.31671 1.59594 0
M  V30 4613 C 445.073 -1.87083 0.254056 0
M  V30 4614 O 444.43 -1.66112 -0.755854 0
M  V30 4615 C 444.481 -2.47158 2.63809 0
M  V30 4616 O 444.202 -1.94032 3.92789 0
M  V30 4617 C 445.703 -3.39062 2.85573 0
M  V30 4618 H 442.923 -0.400623 0.538277 0
M  V30 4619 H 445.467 -0.646827 1.94001 0
M  V30 4620 H 443.622 -3.10043 2.32276 0
M  V30 4621 H 444.036 -2.69585 4.49916 0
M  V30 4622 H 445.51 -4.16459 3.62306 0
M  V30 4623 H 445.987 -3.93941 1.94184 0
M  V30 4624 H 446.593 -2.81975 3.18387 0
M  V30 4625 N 444.908 -1.36708 -0.784132 0
M  V30 4626 C 445.84 -1.27333 -1.90575 0
M  V30 4627 C 446.853 -0.191706 -1.61667 0
M  V30 4628 O 448.042 -0.446854 -1.72816 0
M  V30 4629 C 445.142 -0.943177 -3.25511 0
M  V30 4630 C 444.315 -2.12776 -3.82158 0
M  V30 4631 C 443.374 -1.76983 -4.95544 0
M  V30 4632 O 442.4 -2.49134 -5.11782 0
M  V30 4633 N 443.602 -0.706624 -5.76183 0
M  V30 4634 H 446.367 -2.23974 -1.99138 0
M  V30 4635 H 443.928 -1.30171 -0.962656 0
M  V30 4636 H 445.92 -0.684799 -3.98864 0
M  V30 4637 H 444.49 -0.0657333 -3.12531 0
M  V30 4638 H 443.71 -2.54863 -3.0073 0
M  V30 4639 H 444.998 -2.91904 -4.16737 0
M  V30 4640 H 444.396 -0.107643 -5.65598 0
M  V30 4641 H 442.953 -0.50808 -6.49817 0
M  V30 4642 N 446.386 1.0089 -1.21074 0
M  V30 4643 C 447.634 1.74262 -1.02358 0
M  V30 4644 C 447.955 1.89869 0.444393 0
M  V30 4645 O 447.225 1.44677 1.32081 0
M  V30 4646 H 445.805 0.645615 -0.375754 0
M  V30 4647 H 448.467 1.21596 -1.52317 0
M  V30 4648 H 447.563 2.74328 -1.4883 0
M  V30 4649 N 447.864 1.01787 1.20321 0
M  V30 4650 C 449.104 0.716493 1.91431 0
M  V30 4651 C 449.468 -0.740352 1.77152 0
M  V30 4652 O 450.669 -1.1543 2.42754 0
M  V30 4653 C 448.94 1.14169 3.38674 0
M  V30 4654 S 450.499 0.962482 4.28114 0
M  V30 4655 H 447.317 0.261175 0.661293 0
M  V30 4656 H 449.919 1.30539 1.45533 0
M  V30 4657 H 448.623 2.19784 3.46588 0
M  V30 4658 H 448.154 0.545621 3.89598 0
M  V30 4659 H 450.169 -0.133253 4.96021 0
M  V30 4660 N 449.342 -1.36122 0.79427 0
M  V30 4661 C 450.29 -2.31871 0.184023 0
M  V30 4662 C 451.284 -1.56041 -0.659365 0
M  V30 4663 O 452.49 -1.71266 -0.553906 0
M  V30 4664 H 448.865 -0.750896 0.0407373 0
M  V30 4665 H 450.836 -2.80898 1.00693 0
M  V30 4666 C 449.585 -3.41324 -0.662813 0
M  V30 4667 H 448.908 -3.99793 -0.0231944 0
M  V30 4668 H 450.348 -4.10629 -1.05639 0
M  V30 4669 C 448.807 -2.83308 -1.82313 0
M  V30 4670 O 449.337 -2.75863 -2.91997 0
M  V30 4671 N 447.543 -2.40529 -1.63077 0
M  V30 4672 H 447.09 -2.46785 -0.738591 0
M  V30 4673 H 447.048 -2.02059 -2.40872 0
M  V30 4674 N 450.82 -0.546701 -1.47814 0
M  V30 4675 C 452.06 -0.0209604 -2.04389 0
M  V30 4676 C 452.424 1.29993 -1.413 0
M  V30 4677 O 453.625 1.91273 -1.8886 0
M  V30 4678 C 451.896 0.0812844 -3.57308 0
M  V30 4679 S 453.455 0.55467 -4.3528 0
M  V30 4680 H 450.273 -0.0200865 -0.710716 0
M  V30 4681 H 452.875 -0.731055 -1.81317 0
M  V30 4682 H 451.579 -0.884616 -4.00753 0
M  V30 4683 H 451.11 0.815253 -3.8486 0
M  V30 4684 H 453.125 1.81627 -4.61764 0
M  V30 4685 N 452.299 1.55045 -0.282633 0
M  V30 4686 C 453.524 2.04628 0.337977 0
M  V30 4687 C 453.949 1.15937 1.48123 0
M  V30 4688 O 453.307 0.159532 1.80597 0
M  V30 4689 C 453.355 3.51854 0.78936 0
M  V30 4690 O 452.459 3.66236 1.89592 0
M  V30 4691 H 451.8 0.660434 0.0687261 0
M  V30 4692 H 454.33 2.00261 -0.419124 0
M  V30 4693 H 454.34 3.93361 1.08311 0
M  V30 4694 H 453.015 4.15873 -0.0470419 0
M  V30 4695 H 451.592 3.36633 1.60413 0
M  V30 4696 N 453.777 0.010035 1.57597 0
M  V30 4697 C 455.026 -0.671945 1.90178 0
M  V30 4698 C 455.339 -1.74376 0.886131 0
M  V30 4699 O 456.545 -2.48107 1.10252 0
M  V30 4700 C 455.001 -1.24636 3.3763 0
M  V30 4701 C 454.609 -0.208838 4.47513 0
M  V30 4702 C 456.353 -1.90595 3.79307 0
M  V30 4703 C 454.26 -0.793814 5.86048 0
M  V30 4704 H 453.19 -0.25474 0.709665 0
M  V30 4705 H 455.841 0.0722206 1.83358 0
M  V30 4706 H 454.223 -2.04152 3.3932 0
M  V30 4707 H 455.397 0.562463 4.57354 0
M  V30 4708 H 453.712 0.350889 4.14919 0
M  V30 4709 H 456.309 -2.35284 4.80151 0
M  V30 4710 H 456.652 -2.74074 3.13352 0
M  V30 4711 H 457.185 -1.17798 3.79958 0
M  V30 4712 H 453.924 0.00240855 6.555 0
M  V30 4713 H 453.444 -1.53404 5.79851 0
M  V30 4714 H 455.123 -1.2894 6.34022 0
M  V30 4715 N 455.255 -1.55392 -0.262866 0
M  V30 4716 C 456.485 -1.80251 -1.00961 0
M  V30 4717 C 456.893 -0.58117 -1.80053 0
M  V30 4718 O 456.236 0.459427 -1.77862 0
M  V30 4719 C 456.298 -2.98207 -2.00781 0
M  V30 4720 C 455.962 -4.34856 -1.40533 0
M  V30 4721 C 456.959 -5.13459 -0.815853 0
M  V30 4722 C 454.644 -4.8153 -1.42948 0
M  V30 4723 C 456.638 -6.36875 -0.258562 0
M  V30 4724 C 454.325 -6.04899 -0.868334 0
M  V30 4725 C 455.323 -6.8241 -0.283884 0
M  V30 4726 O 455.011 -8.03451 0.268644 0
M  V30 4727 H 454.743 -0.604049 -0.303482 0
M  V30 4728 H 457.297 -2.03257 -0.295926 0
M  V30 4729 H 455.527 -2.70917 -2.75936 0
M  V30 4730 H 457.216 -3.10299 -2.61667 0
M  V30 4731 H 457.982 -4.78526 -0.789812 0
M  V30 4732 H 453.861 -4.21201 -1.87378 0
M  V30 4733 H 457.405 -6.97318 0.198257 0
M  V30 4734 H 453.302 -6.39312 -0.891649 0
M  V30 4735 H 454.07 -8.18346 0.158974 0
M  V30 4736 N 456.733 0.527833 -1.48498 0
M  V30 4737 C 458.144 1.10975 -1.50138 0
M  V30 4738 C 458.495 1.943 -0.272378 0
M  V30 4739 O 457.62 2.07319 0.620301 0
M  V30 4740 C 458.215 2.01927 -2.72049 0
M  V30 4741 C 456.774 2.55332 -2.76554 0
M  V30 4742 C 455.921 1.32341 -2.43683 0
M  V30 4743 H 458.872 0.312986 -1.55583 0
M  V30 4744 H 458.893 2.86244 -2.50689 0
M  V30 4745 H 458.405 1.41254 -3.61481 0
M  V30 4746 H 456.506 3.19721 -1.91336 0
M  V30 4747 H 456.619 2.94319 -3.78038 0
M  V30 4748 H 454.983 1.63989 -1.94884 0
M  V30 4749 H 455.766 0.734165 -3.35358 0
M  V30 4750 N 458.211 1.37122 0.776871 0
M  V30 4751 C 459.459 1.31787 1.53221 0
M  V30 4752 C 459.78 -0.0987589 1.9475 0
M  V30 4753 O 459.05 -1.0417 1.65908 0
M  V30 4754 H 457.63 0.484839 0.568278 0
M  V30 4755 H 460.292 1.71556 0.924917 0
M  V30 4756 H 459.388 1.95355 2.43398 0
M  V30 4757 N 459.689 -1.00246 1.21608 0
M  V30 4758 C 460.639 -2.07492 0.945051 0
M  V30 4759 C 461.623 -1.60585 -0.100675 0
M  V30 4760 O 462.815 -1.76667 0.10859 0
M  V30 4761 C 459.944 -3.39425 0.514342 0
M  V30 4762 C 459.03 -3.92993 1.59428 0
M  V30 4763 N 459.421 -4.19898 2.81991 0
M  V30 4764 C 457.719 -4.21297 1.46374 0
M  V30 4765 C 458.42 -4.63297 3.51754 0
M  V30 4766 N 457.396 -4.66421 2.79199 0
M  V30 4767 H 461.198 -2.26222 1.87619 0
M  V30 4768 H 458.712 -1.18339 1.11219 0
M  V30 4769 H 460.709 -4.15808 0.301527 0
M  V30 4770 H 459.369 -3.22101 -0.410008 0
M  V30 4771 H 460.38 -4.08377 3.1851 0
M  V30 4772 H 457.057 -4.13095 0.604863 0
M  V30 4773 H 458.447 -4.92816 4.56708 0
M  V30 4774 N 461.167 -1.02423 -1.1978 0
M  V30 4775 C 462.416 -0.713265 -1.88667 0
M  V30 4776 C 462.729 0.7609 -1.80193 0
M  V30 4777 O 463.935 1.18473 -2.44288 0
M  V30 4778 C 462.391 -1.22545 -3.38394 0
M  V30 4779 C 461.999 -2.72706 -3.55437 0
M  V30 4780 C 463.743 -0.990257 -4.12788 0
M  V30 4781 C 461.65 -3.17367 -4.99031 0
M  V30 4782 H 460.58 -0.263105 -0.706606 0
M  V30 4783 H 463.231 -1.23792 -1.35454 0
M  V30 4784 H 461.613 -0.628732 -3.90977 0
M  V30 4785 H 462.787 -3.37993 -3.13205 0
M  V30 4786 H 461.102 -2.94453 -2.94425 0
M  V30 4787 H 463.699 -1.29926 -5.18675 0
M  V30 4788 H 464.042 0.0730761 -4.16236 0
M  V30 4789 H 464.575 -1.55074 -3.66329 0
M  V30 4790 H 461.314 -4.23009 -5.00743 0
M  V30 4791 H 460.834 -2.56805 -5.42044 0
M  V30 4792 H 462.513 -3.10441 -5.67658 0
M  V30 4793 N 462.645 1.35699 -0.801477 0
M  V30 4794 C 463.873 2.03157 -0.391768 0
M  V30 4795 C 464.288 1.60412 0.995668 0
M  V30 4796 O 463.645 0.799228 1.64069 0
M  V30 4797 C 463.696 3.58566 -0.459671 0
M  V30 4798 O 463.417 3.99756 -1.7924 0
M  V30 4799 C 464.918 4.4328 -0.0421205 0
M  V30 4800 H 462.138 0.651688 -0.159825 0
M  V30 4801 H 464.682 1.73426 -1.08368 0
M  V30 4802 H 462.837 3.86963 0.183939 0
M  V30 4803 H 463.251 4.94387 -1.75162 0
M  V30 4804 H 464.725 5.51821 -0.140754 0
M  V30 4805 H 465.202 4.27383 1.01196 0
M  V30 4806 H 465.808 4.20168 -0.658687 0
M  V30 4807 N 464.123 0.554532 1.47522 0
M  V30 4808 C 465.371 0.0294208 2.02079 0
M  V30 4809 C 465.692 -1.32411 1.43151 0
M  V30 4810 O 464.962 -1.863 0.605728 0
M  V30 4811 H 463.542 0.00788672 0.746958 0
M  V30 4812 H 466.204 0.723934 1.80956 0
M  V30 4813 H 465.3 -0.0606745 3.12041 0
M  V30 4814 N 465.601 -1.54893 0.290851 0
M  V30 4815 C 466.551 -2.19838 -0.604599 0
M  V30 4816 C 467.535 -1.16805 -1.10659 0
M  V30 4817 O 468.727 -1.42562 -1.04905 0
M  V30 4818 C 465.856 -2.93497 -1.78086 0
M  V30 4819 C 464.942 -4.03835 -1.29531 0
M  V30 4820 N 465.333 -5.03047 -0.527024 0
M  V30 4821 C 463.631 -4.17192 -1.57693 0
M  V30 4822 C 464.332 -5.81074 -0.269728 0
M  V30 4823 N 463.308 -5.36966 -0.846651 0
M  V30 4824 H 467.11 -2.93898 -0.00995032 0
M  V30 4825 H 464.624 -1.62121 0.0951353 0
M  V30 4826 H 466.621 -3.38484 -2.43381 0
M  V30 4827 H 465.281 -2.2095 -2.37931 0
M  V30 4828 H 466.292 -5.17611 -0.172872 0
M  V30 4829 H 462.969 -3.55845 -2.18359 0
M  V30 4830 H 464.359 -6.71005 0.346643 0
M  V30 4831 N 467.08 -0.0183926 -1.57589 0
M  V30 4832 C 468.496 0.337897 -1.55982 0
M  V30 4833 C 468.696 1.73604 -1.02294 0
M  V30 4834 O 467.752 2.43589 -0.664895 0
M  V30 4835 C 469.065 0.196305 -3.00059 0
M  V30 4836 C 470.613 0.269875 -3.11834 0
M  V30 4837 C 471.088 0.157197 -4.5773 0
M  V30 4838 N 472.579 0.214521 -4.62703 0
M  V30 4839 C 473.314 0.150955 -5.73201 0
M  V30 4840 N 472.81 0.0369212 -6.9279 0
M  V30 4841 N 474.603 0.204162 -5.61729 0
M  V30 4842 H 466.754 -0.93279 -1.90821 0
M  V30 4843 H 469.017 -0.359253 -0.877292 0
M  V30 4844 H 468.723 -0.766383 -3.43248 0
M  V30 4845 H 468.597 0.970908 -3.6449 0
M  V30 4846 H 470.984 1.22302 -2.68563 0
M  V30 4847 H 471.065 -0.534918 -2.50144 0
M  V30 4848 H 470.709 -0.792479 -5.01679 0
M  V30 4849 H 470.639 0.980717 -5.17387 0
M  V30 4850 H 473.13 0.303238 -3.76681 0
M  V30 4851 H 473.443 -0.00518321 -7.728 0
M  V30 4852 H 471.788 0.0022886 -6.95 0
M  V30 4853 H 474.979 0.291575 -4.67191 0
M  V30 4854 H 475.152 0.15116 -6.47824 0
M  V30 4855 N 468.558 1.5553 0.254621 0
M  V30 4856 C 469.491 1.84624 1.34124 0
M  V30 4857 C 470.469 0.700693 1.46728 0
M  V30 4858 O 471.653 0.94564 1.63064 0
M  V30 4859 C 468.78 2.02412 2.71564 0
M  V30 4860 C 467.826 3.25028 2.7615 0
M  V30 4861 S 468.659 4.81893 2.33538 0
M  V30 4862 C 469.815 5.02677 3.72917 0
M  V30 4863 H 470.048 2.76501 1.09245 0
M  V30 4864 H 467.581 1.47537 0.455211 0
M  V30 4865 H 469.539 2.13345 3.50705 0
M  V30 4866 H 468.2 1.11391 2.93685 0
M  V30 4867 H 467.393 3.34418 3.77069 0
M  V30 4868 H 466.995 3.12781 2.05046 0
M  V30 4869 H 469.287 4.89546 4.68349 0
M  V30 4870 H 470.23 6.0468 3.68467 0
M  V30 4871 H 470.638 4.30561 3.65072 0
M  V30 4872 N 470.036 -0.519951 1.48776 0
M  V30 4873 C 470.999 -1.60574 1.6355 0
M  V30 4874 C 471.999 -1.52557 0.508234 0
M  V30 4875 O 473.189 -1.56047 0.774262 0
M  V30 4876 C 470.321 -3.00211 1.61512 0
M  V30 4877 H 471.514 -1.4881 2.60376 0
M  V30 4878 H 469.067 -0.742772 1.37523 0
M  V30 4879 H 469.802 -3.17471 0.662009 0
M  V30 4880 H 469.587 -3.07439 2.43359 0
M  V30 4881 H 471.077 -3.79134 1.75064 0
M  V30 4882 N 471.514 -1.37532 -0.769588 0
M  V30 4883 C 472.76 -1.34063 -1.52966 0
M  V30 4884 C 473.115 0.0737942 -1.92258 0
M  V30 4885 O 472.408 1.03291 -1.61374 0
M  V30 4886 C 472.602 -2.21558 -2.8044 0
M  V30 4887 C 472.431 -3.71367 -2.53608 0
M  V30 4888 C 471.201 -4.40464 -2.47628 0
M  V30 4889 C 473.399 -4.64177 -2.21459 0
M  V30 4890 N 471.381 -5.758 -2.12902 0
M  V30 4891 C 472.752 -5.87907 -1.9689 0
M  V30 4892 C 474.807 -4.52541 -2.07633 0
M  V30 4893 C 473.51 -7.01304 -1.59892 0
M  V30 4894 C 475.536 -5.65825 -1.72034 0
M  V30 4895 C 474.898 -6.88606 -1.48327 0
M  V30 4896 H 470.997 -0.545856 -0.559969 0
M  V30 4897 H 473.581 -1.72773 -0.897634 0
M  V30 4898 H 471.752 -1.85061 -3.41478 0
M  V30 4899 H 473.484 -2.09332 -3.46356 0
M  V30 4900 H 470.239 -3.93491 -2.63556 0
M  V30 4901 H 470.663 -6.47328 -1.9823 0
M  V30 4902 H 475.305 -3.58183 -2.24643 0
M  V30 4903 H 473.023 -7.95594 -1.4162 0
M  V30 4904 H 476.609 -5.58793 -1.61991 0
M  V30 4905 H 475.489 -7.74779 -1.21189 0
M  V30 4906 N 472.992 0.995999 -1.22138 0
M  V30 4907 C 474.269 1.70834 -0.952642 0
M  V30 4908 C 474.649 2.04257 0.533119 0
M  V30 4909 O 473.997 1.72343 1.50034 0
M  V30 4910 C 474.207 2.96119 -1.84701 0
M  V30 4911 C 475.555 3.68962 -2.10124 0
M  V30 4912 O 476.579 3.0612 -1.82124 0
M  V30 4913 O 475.438 4.82017 -2.57531 0
M  V30 4914 H 472.532 0.745498 -0.357997 0
M  V30 4915 H 475.078 1.05262 -1.33109 0
M  V30 4916 H 473.85 2.67898 -2.85213 0
M  V30 4917 H 473.473 3.6943 -1.46995 0
M  V30 4918 N 474.47 1.03057 1.19235 0
M  V30 4919 C 475.403 0.557384 2.21288 0
M  V30 4920 C 476.381 -0.402675 1.57535 0
M  V30 4921 O 477.565 -0.319376 1.85775 0
M  V30 4922 C 474.692 -0.187041 3.38183 0
M  V30 4923 C 473.738 0.72471 4.20298 0
M  V30 4924 S 474.571 2.20187 4.88137 0
M  V30 4925 C 475.727 1.46801 6.08441 0
M  V30 4926 H 475.96 1.42207 2.61083 0
M  V30 4927 H 473.493 0.840651 1.29508 0
M  V30 4928 H 475.451 -0.610405 4.05936 0
M  V30 4929 H 474.112 -1.02748 2.96819 0
M  V30 4930 H 473.305 0.149911 5.03777 0
M  V30 4931 H 472.907 1.08647 3.57871 0
M  V30 4932 H 475.199 0.755522 6.73274 0
M  V30 4933 H 476.142 2.27946 6.70407 0
M  V30 4934 H 476.55 0.964762 5.56195 0
M  V30 4935 N 475.948 -1.35272 0.808662 0
M  V30 4936 C 476.881 -2.27595 0.165994 0
M  V30 4937 C 477.859 -1.48189 -0.669241 0
M  V30 4938 O 479.043 -1.77444 -0.636073 0
M  V30 4939 C 476.17 -3.29843 -0.769505 0
M  V30 4940 C 475.216 -4.26498 -0.0136267 0
M  V30 4941 S 476.049 -5.18878 1.32384 0
M  V30 4942 C 477.205 -6.24666 0.392838 0
M  V30 4943 H 477.438 -2.81755 0.948756 0
M  V30 4944 H 474.971 -1.42103 0.603828 0
M  V30 4945 H 476.929 -3.89247 -1.30374 0
M  V30 4946 H 475.59 -2.74558 -1.52567 0
M  V30 4947 H 474.783 -4.98769 -0.724227 0
M  V30 4948 H 474.385 -3.71274 0.450713 0
M  V30 4949 H 476.677 -6.7619 -0.4211 0
M  V30 4950 H 477.62 -6.99741 1.0848 0
M  V30 4951 H 478.028 -5.64499 -0.0123908 0
M  V30 4952 N 477.426 -0.562348 -1.47226 0
M  V30 4953 C 478.359 0.230405 -2.27034 0
M  V30 4954 C 479.337 0.915609 -1.3437 0
M  V30 4955 O 480.521 0.933573 -1.63758 0
M  V30 4956 C 477.648 1.32874 -3.11548 0
M  V30 4957 C 476.694 0.751552 -4.19826 0
M  V30 4958 S 477.527 -0.405848 -5.3396 0
M  V30 4959 C 478.683 0.694186 -6.22038 0
M  V30 4960 H 478.916 -0.446811 -2.93923 0
M  V30 4961 H 476.449 -0.348781 -1.50409 0
M  V30 4962 H 478.407 1.95773 -3.60809 0
M  V30 4963 H 477.068 1.97782 -2.44011 0
M  V30 4964 H 476.261 1.57651 -4.78709 0
M  V30 4965 H 475.863 0.198645 -3.73472 0
M  V30 4966 H 478.155 1.58501 -6.58698 0
M  V30 4967 H 479.098 0.142592 -7.07956 0
M  V30 4968 H 479.506 0.989169 -5.55766 0
M  V30 4969 N 478.904 1.54736 -0.299062 0
M  V30 4970 C 479.852 2.24897 0.593658 0
M  V30 4971 C 480.846 1.25429 1.13859 0
M  V30 4972 O 482.052 1.43286 1.08945 0
M  V30 4973 H 478.427 0.72207 0.210046 0
M  V30 4974 H 480.398 2.98393 -0.0206421 0
M  V30 4975 C 479.147 3.00159 1.75499 0
M  V30 4976 H 478.47 3.76501 1.34489 0
M  V30 4977 H 479.91 3.52535 2.35574 0
M  V30 4978 C 478.369 2.07015 2.65794 0
M  V30 4979 O 478.899 1.63692 3.66835 0
M  V30 4980 N 477.105 1.73012 2.33485 0
M  V30 4981 H 476.652 2.08439 1.51364 0
M  V30 4982 H 476.61 1.10965 2.94167 0
M  V30 4983 N 480.382 0.0267497 1.57577 0
M  V30 4984 C 481.628 -0.647596 1.92815 0
M  V30 4985 C 481.983 -1.69872 0.903396 0
M  V30 4986 O 481.276 -1.91429 -0.0808881 0
M  V30 4987 C 481.47 -1.30914 3.3256 0
M  V30 4988 C 481.299 -0.323621 4.48534 0
M  V30 4989 C 480.069 0.0756607 5.05243 0
M  V30 4990 C 482.267 0.42112 5.12573 0
M  V30 4991 N 480.249 1.0566 6.04739 0
M  V30 4992 C 481.62 1.25589 6.07147 0
M  V30 4993 C 483.675 0.482077 4.95561 0
M  V30 4994 C 482.378 2.1461 6.86538 0
M  V30 4995 C 484.404 1.35962 5.75559 0
M  V30 4996 C 483.766 2.18217 6.69747 0
M  V30 4997 H 479.865 -0.209357 0.753454 0
M  V30 4998 H 482.449 0.0933695 1.94476 0
M  V30 4999 H 480.62 -2.02026 3.31723 0
M  V30 5000 H 482.352 -1.94033 3.55153 0
M  V30 5001 H 479.107 -0.298294 4.7266 0
M  V30 5002 H 479.531 1.54324 6.59176 0
M  V30 5003 H 484.173 -0.139609 4.22569 0
M  V30 5004 H 481.891 2.77835 7.58837 0
M  V30 5005 H 485.477 1.41105 5.6443 0
M  V30 5006 H 484.357 2.85022 7.3057 0
M  V30 5007 N 481.861 -1.55662 -0.24637 0
M  V30 5008 C 483.086 -1.81914 -0.996093 0
M  V30 5009 C 483.511 -0.603875 -1.78143 0
M  V30 5010 O 482.869 0.447091 -1.75701 0
M  V30 5011 C 482.917 -3.05908 -1.90925 0
M  V30 5012 O 482.021 -2.82861 -3.00105 0
M  V30 5013 H 481.362 -0.600481 -0.283406 0
M  V30 5014 H 483.892 -2.02848 -0.267199 0
M  V30 5015 H 483.902 -3.35356 -2.3238 0
M  V30 5016 H 482.577 -3.93999 -1.33183 0
M  V30 5017 H 481.154 -2.64583 -2.62775 0
M  V30 5018 N 483.339 0.512053 -1.4905 0
M  V30 5019 C 484.75 1.09376 -1.51307 0
M  V30 5020 C 485.101 1.94 -0.292971 0
M  V30 5021 O 484.226 2.07965 0.598277 0
M  V30 5022 C 484.821 1.99031 -2.74176 0
M  V30 5023 C 483.38 2.52385 -2.79247 0
M  V30 5024 C 482.527 1.29749 -2.45073 0
M  V30 5025 H 485.478 0.296467 -1.55906 0
M  V30 5026 H 485.499 2.83569 -2.53711 0
M  V30 5027 H 485.011 1.37412 -3.62959 0
M  V30 5028 H 483.112 3.17673 -1.94716 0
M  V30 5029 H 483.225 2.90293 -3.81139 0
M  V30 5030 H 481.589 1.61912 -1.96612 0
M  V30 5031 H 482.372 0.698555 -3.36118 0
M  V30 5032 N 484.817 1.37938 0.762283 0
M  V30 5033 C 486.045 1.36883 1.55147 0
M  V30 5034 C 486.46 -0.0435348 1.8875 0
M  V30 5035 O 485.817 -1.00786 1.52146 0
M  V30 5036 C 485.868 2.21624 2.85596 0
M  V30 5037 O 485.589 3.57358 2.5343 0
M  V30 5038 C 487.09 2.28653 3.7978 0
M  V30 5039 H 484.31 0.468521 0.480343 0
M  V30 5040 H 486.854 1.81404 0.944079 0
M  V30 5041 H 485.009 1.80588 3.42734 0
M  V30 5042 H 485.423 4.01883 3.37032 0
M  V30 5043 H 486.897 2.9225 4.68288 0
M  V30 5044 H 487.374 1.29767 4.19592 0
M  V30 5045 H 487.98 2.70043 3.28568 0
M  V30 5046 N 486.295 -0.989507 1.22664 0
M  V30 5047 C 487.523 -1.76496 1.07967 0
M  V30 5048 C 487.938 -1.85148 -0.369543 0
M  V30 5049 O 487.295 -1.32408 -1.25596 0
M  V30 5050 C 487.346 -3.19642 1.68853 0
M  V30 5051 O 487.067 -3.11453 3.08105 0
M  V30 5052 C 488.568 -4.13621 1.59475 0
M  V30 5053 H 485.788 -0.55418 0.378319 0
M  V30 5054 H 488.332 -1.24378 1.62328 0
M  V30 5055 H 486.487 -3.68816 1.18547 0
M  V30 5056 H 486.901 -4.01499 3.37489 0
M  V30 5057 H 488.375 -5.11801 2.06795 0
M  V30 5058 H 488.852 -4.35718 0.55191 0
M  V30 5059 H 489.458 -3.70346 2.09103 0
M  V30 5060 N 487.773 -1.03688 -1.18687 0
M  V30 5061 C 488.736 -0.629115 -2.20397 0
M  V30 5062 C 489.736 0.311495 -1.57754 0
M  V30 5063 O 490.926 0.0974107 -1.73927 0
M  V30 5064 C 488.058 0.0782231 -3.4081 0
M  V30 5065 H 489.251 -1.52915 -2.57987 0
M  V30 5066 H 486.804 -0.828988 -1.32505 0
M  V30 5067 H 487.539 0.992233 -3.08748 0
M  V30 5068 H 487.324 -0.597776 -3.87517 0
M  V30 5069 H 488.814 0.350156 -4.16129 0
M  V30 5070 N 489.251 1.34841 -0.815825 0
M  V30 5071 C 490.181 2.32187 -0.247298 0
M  V30 5072 C 491.162 1.5791 0.632344 0
M  V30 5073 O 492.347 1.8593 0.560698 0
M  V30 5074 C 489.477 3.42122 0.597466 0
M  V30 5075 C 488.431 4.27602 -0.184446 0
M  V30 5076 C 487.757 5.28942 0.782609 0
M  V30 5077 C 489.057 5.03502 -1.38865 0
M  V30 5078 H 490.751 2.79985 -1.06061 0
M  V30 5079 H 488.297 1.34611 -0.511461 0
M  V30 5080 H 490.25 4.09232 1.00533 0
M  V30 5081 H 488.974 2.92956 1.44376 0
M  V30 5082 H 487.633 3.62085 -0.573592 0
M  V30 5083 H 487.281 4.7604 1.62466 0
M  V30 5084 H 486.981 5.87008 0.263695 0
M  V30 5085 H 488.505 5.98922 1.18848 0
M  V30 5086 H 489.919 5.63506 -1.05518 0
M  V30 5087 H 488.316 5.71108 -1.8427 0
M  V30 5088 H 489.386 4.33608 -2.17054 0
M  V30 5089 N 490.729 0.570148 1.46925 0
M  V30 5090 C 491.975 0.0510284 2.02736 0
M  V30 5091 C 492.308 -1.3006 1.44215 0
M  V30 5092 O 491.583 -1.84932 0.602521 0
M  V30 5093 C 491.866 -0.028215 3.60089 0
M  V30 5094 C 491.719 1.35142 4.29018 0
M  V30 5095 C 493.038 -0.735181 4.33916 0
M  V30 5096 H 490.157 0.0200178 0.736728 0
M  V30 5097 H 492.799 0.73493 1.75211 0
M  V30 5098 H 490.949 -0.610648 3.83671 0
M  V30 5099 H 492.621 1.97806 4.16738 0
M  V30 5100 H 490.864 1.9226 3.88868 0
M  V30 5101 H 491.535 1.24857 5.37694 0
M  V30 5102 H 494.011 -0.240519 4.15404 0
M  V30 5103 H 492.887 -0.759622 5.43618 0
M  V30 5104 H 493.148 -1.79397 4.04066 0
M  V30 5105 N 492.207 -1.54576 0.307264 0
M  V30 5106 C 493.14 -2.19946 -0.608195 0
M  V30 5107 C 494.118 -1.17096 -1.12815 0
M  V30 5108 O 495.302 -1.45766 -1.19518 0
M  V30 5109 C 492.429 -2.84826 -1.8328 0
M  V30 5110 C 491.475 -4.01256 -1.44554 0
M  V30 5111 S 492.308 -5.33197 -0.49612 0
M  V30 5112 C 493.464 -6.01563 -1.72838 0
M  V30 5113 H 493.697 -2.97253 -0.0528544 0
M  V30 5114 H 491.23 -1.54129 0.0913837 0
M  V30 5115 H 493.188 -3.22832 -2.53554 0
M  V30 5116 H 491.849 -2.07353 -2.35931 0
M  V30 5117 H 491.042 -4.45457 -2.35762 0
M  V30 5118 H 490.644 -3.6484 -0.822671 0
M  V30 5119 H 492.936 -6.22751 -2.6681 0
M  V30 5120 H 493.879 -6.9552 -1.32882 0
M  V30 5121 H 494.287 -5.31279 -1.90795 0
M  V30 5122 N 493.685 -0.035106 -1.57561 0
M  V30 5123 C 494.648 0.929819 -2.09492 0
M  V30 5124 C 495.648 1.25026 -1.01119 0
M  V30 5125 O 496.838 1.18961 -1.27255 0
M  V30 5126 C 493.97 2.24457 -2.56577 0
M  V30 5127 H 495.163 0.479935 -2.96035 0
M  V30 5128 H 492.716 0.213033 -1.54841 0
M  V30 5129 H 493.451 2.74061 -1.73382 0
M  V30 5130 H 493.236 2.02508 -3.35757 0
M  V30 5131 H 494.726 2.93607 -2.96959 0
M  V30 5132 N 495.163 1.55791 0.238111 0
M  V30 5133 C 496.095 1.87513 1.31802 0
M  V30 5134 C 497.108 0.762053 1.43863 0
M  V30 5135 O 498.297 1.04024 1.45056 0
M  V30 5136 C 495.397 2.05402 2.69561 0
M  V30 5137 C 494.57 3.3632 2.79656 0
M  V30 5138 C 493.629 3.43844 3.98319 0
M  V30 5139 O 492.655 4.16994 3.87433 0
M  V30 5140 N 493.857 2.73777 5.11885 0
M  V30 5141 H 496.622 2.80734 1.04922 0
M  V30 5142 H 494.183 1.56135 0.428196 0
M  V30 5143 H 496.175 2.07769 3.47296 0
M  V30 5144 H 494.745 1.18884 2.89111 0
M  V30 5145 H 493.965 3.46195 1.88528 0
M  V30 5146 H 495.253 4.22594 2.83358 0
M  V30 5147 H 494.651 2.14094 5.23622 0
M  V30 5148 H 493.208 2.81825 5.87723 0
M  V30 5149 N 496.642 -0.504142 1.49319 0
M  V30 5150 C 497.572 -1.61473 1.68667 0
M  V30 5151 C 498.553 -1.61455 0.535378 0
M  V30 5152 O 499.738 -1.78245 0.770868 0
M  V30 5153 C 496.868 -2.99971 1.75028 0
M  V30 5154 C 495.822 -3.14854 2.89916 0
M  V30 5155 C 495.148 -4.54671 2.81387 0
M  V30 5156 C 496.448 -2.95176 4.30893 0
M  V30 5157 H 498.142 -1.45535 2.61648 0
M  V30 5158 H 495.688 -0.698711 1.25913 0
M  V30 5159 H 497.641 -3.77562 1.8715 0
M  V30 5160 H 496.365 -3.1699 0.786441 0
M  V30 5161 H 495.024 -2.39687 2.77391 0
M  V30 5162 H 494.672 -4.68562 1.82917 0
M  V30 5163 H 494.372 -4.6557 3.58494 0
M  V30 5164 H 495.896 -5.34327 2.95512 0
M  V30 5165 H 497.31 -3.62538 4.44116 0
M  V30 5166 H 495.707 -3.17549 5.09198 0
M  V30 5167 H 496.777 -1.91332 4.45556 0
M  V30 5168 N 498.12 -1.38341 -0.754957 0
M  V30 5169 C 499.05 -1.38176 -1.88227 0
M  V30 5170 C 500.031 -0.247873 -1.68284 0
M  V30 5171 O 501.216 -0.45075 -1.88896 0
M  V30 5172 C 498.346 -1.20471 -3.25736 0
M  V30 5173 C 497.3 -2.3105 -3.60278 0
M  V30 5174 C 496.626 -1.98452 -4.96509 0
M  V30 5175 C 497.926 -3.73305 -3.65295 0
M  V30 5176 H 499.62 -2.32512 -1.88622 0
M  V30 5177 H 497.166 -1.1192 -0.906082 0
M  V30 5178 H 499.119 -1.18982 -4.04254 0
M  V30 5179 H 497.843 -0.225965 -3.25817 0
M  V30 5180 H 496.502 -2.31723 -2.84078 0
M  V30 5181 H 496.15 -0.990641 -4.93148 0
M  V30 5182 H 495.85 -2.7251 -5.20588 0
M  V30 5183 H 497.374 -1.98578 -5.77407 0
M  V30 5184 H 498.788 -3.7467 -4.3393 0
M  V30 5185 H 497.185 -4.46557 -4.00883 0
M  V30 5186 H 498.255 -4.05719 -2.65556 0
M  V30 5187 N 499.598 0.982988 -1.23187 0
M  V30 5188 C 501.014 1.2487 -0.993967 0
M  V30 5189 C 501.214 1.99155 0.306498 0
M  V30 5190 O 500.27 2.30688 1.0266 0
M  V30 5191 C 501.583 2.05078 -2.19917 0
M  V30 5192 C 503.131 2.18227 -2.2438 0
M  V30 5193 C 503.606 3.01825 -3.44479 0
M  V30 5194 N 505.097 3.09411 -3.44702 0
M  V30 5195 C 505.832 3.74412 -4.34285 0
M  V30 5196 N 505.328 4.41259 -5.341 0
M  V30 5197 N 507.121 3.71273 -4.22035 0
M  V30 5198 H 499.272 0.485253 -2.06783 0
M  V30 5199 H 501.535 0.276979 -0.906635 0
M  V30 5200 H 501.241 1.57867 -3.14279 0
M  V30 5201 H 501.115 3.05829 -2.2079 0
M  V30 5202 H 503.502 2.64648 -1.30559 0
M  V30 5203 H 503.583 1.16873 -2.2754 0
M  V30 5204 H 503.227 2.56102 -4.38605 0
M  V30 5205 H 503.157 4.03342 -3.38559 0
M  V30 5206 H 505.648 2.61845 -2.7248 0
M  V30 5207 H 505.961 4.88629 -5.98717 0
M  V30 5208 H 504.306 4.39975 -5.38002 0
M  V30 5209 H 507.497 3.18217 -3.43301 0
M  V30 5210 H 507.67 4.21649 -4.92053 0
M  V30 5211 N 501.076 1.04316 1.18135 0
M  V30 5212 C 502.325 0.74319 1.87509 0
M  V30 5213 C 502.638 -0.732136 1.81381 0
M  V30 5214 O 503.844 -1.14572 2.46141 0
M  V30 5215 C 502.3 1.27913 3.36402 0
M  V30 5216 C 501.908 2.78326 3.51053 0
M  V30 5217 C 503.652 1.0558 4.11161 0
M  V30 5218 C 501.559 3.25266 4.93919 0
M  V30 5219 H 500.489 0.274313 0.702331 0
M  V30 5220 H 503.14 1.25931 1.33467 0
M  V30 5221 H 501.522 0.690853 3.89927 0
M  V30 5222 H 502.696 3.42933 3.07788 0
M  V30 5223 H 501.011 2.991 2.89704 0
M  V30 5224 H 503.608 1.38161 5.16542 0
M  V30 5225 H 503.951 -0.00684729 4.16299 0
M  V30 5226 H 504.484 1.60882 3.63816 0
M  V30 5227 H 501.223 4.30922 4.9395 0
M  V30 5228 H 500.743 2.65396 5.3789 0
M  V30 5229 H 502.422 3.19433 5.62647 0
M  V30 5230 N 502.554 -1.34406 0.822964 0
M  V30 5231 C 503.965 -1.8069 0.469879 0
M  V30 5232 C 504.316 -1.68223 -1.00972 0
M  V30 5233 O 503.441 -1.22226 -1.78577 0
M  V30 5234 C 504.036 -3.28064 0.846118 0
M  V30 5235 C 502.595 -3.72428 0.545402 0
M  V30 5236 C 501.742 -2.56116 1.06301 0
M  V30 5237 H 504.693 -1.22153 1.01313 0
M  V30 5238 H 504.714 -3.80205 0.149922 0
M  V30 5239 H 504.226 -3.37107 1.92304 0
M  V30 5240 H 502.327 -3.68924 -0.522109 0
M  V30 5241 H 502.44 -4.66548 1.0895 0
M  V30 5242 H 500.804 -2.50048 0.484554 0
M  V30 5243 H 501.587 -2.67928 2.14638 0
M  V30 5244 N 504.032 -0.577932 -1.46621 0
M  V30 5245 C 504.964 0.195801 -2.28362 0
M  V30 5246 C 505.977 0.859983 -1.38232 0
M  V30 5247 O 507.166 0.730349 -1.62875 0
M  V30 5248 C 504.266 1.29639 -3.13124 0
M  V30 5249 C 503.439 0.725049 -4.31349 0
M  V30 5250 C 502.498 1.71274 -4.97546 0
M  V30 5251 O 501.524 1.25067 -5.5529 0
M  V30 5252 N 502.726 3.04672 -4.94121 0
M  V30 5253 H 505.491 -0.505468 -2.95407 0
M  V30 5254 H 503.052 -0.415381 -1.56481 0
M  V30 5255 H 505.044 1.95631 -3.54275 0
M  V30 5256 H 503.614 1.90059 -2.48186 0
M  V30 5257 H 502.834 -0.112205 -3.9404 0
M  V30 5258 H 504.122 0.323034 -5.07774 0
M  V30 5259 H 503.52 3.4484 -4.48444 0
M  V30 5260 H 502.077 3.66166 -5.39227 0
M  V30 5261 N 505.51 1.54411 -0.315457 0
M  V30 5262 C 506.473 2.22713 0.54142 0
M  V30 5263 C 507.473 1.2179 1.04995 0
M  V30 5264 O 508.663 1.46426 0.943667 0
M  V30 5265 C 505.795 2.92485 1.75116 0
M  V30 5266 H 506.988 2.99849 -0.0555508 0
M  V30 5267 H 504.541 1.56159 -0.0664453 0
M  V30 5268 H 505.276 2.19466 2.38758 0
M  V30 5269 H 505.061 3.66483 1.39401 0
M  V30 5270 H 506.551 3.44548 2.35959 0
M  V30 5271 N 506.988 0.0434614 1.5754 0
M  V30 5272 C 508.237 -0.631454 1.91561 0
M  V30 5273 C 508.55 -1.72457 0.92292 0
M  V30 5274 O 509.756 -2.45712 1.15489 0
M  V30 5275 C 508.212 -1.17447 3.40197 0
M  V30 5276 C 507.82 -0.113867 4.47855 0
M  V30 5277 C 509.564 -1.82507 3.83264 0
M  V30 5278 C 507.471 -0.669326 5.876 0
M  V30 5279 H 506.401 -0.239629 0.714908 0
M  V30 5280 H 509.052 0.111097 1.83163 0
M  V30 5281 H 507.434 -1.96909 3.43574 0
M  V30 5282 H 508.608 0.659348 4.56058 0
M  V30 5283 H 506.923 0.438821 4.14081 0
M  V30 5284 H 509.52 -2.25047 4.85034 0
M  V30 5285 H 509.863 -2.67365 3.19095 0
M  V30 5286 H 510.396 -1.09712 3.82372 0
M  V30 5287 H 507.135 0.141449 6.55347 0
M  V30 5288 H 506.655 -1.4107 5.82974 0
M  V30 5289 H 508.334 -1.15463 6.36614 0
M  V30 5290 N 508.466 -1.55915 -0.229846 0
M  V30 5291 C 509.396 -1.94754 -1.28815 0
M  V30 5292 C 510.377 -0.814657 -1.49323 0
M  V30 5293 O 511.562 -1.07631 -1.61645 0
M  V30 5294 C 508.692 -2.25705 -2.63959 0
M  V30 5295 C 507.646 -3.41406 -2.5812 0
M  V30 5296 C 506.972 -3.57941 -3.97218 0
M  V30 5297 C 508.272 -4.76616 -2.13623 0
M  V30 5298 H 509.966 -2.83404 -0.965547 0
M  V30 5299 H 507.512 -1.36353 -0.463028 0
M  V30 5300 H 509.465 -2.51467 -3.38146 0
M  V30 5301 H 508.189 -1.339 -2.9789 0
M  V30 5302 H 506.848 -3.1568 -1.86391 0
M  V30 5303 H 506.496 -2.63526 -4.28443 0
M  V30 5304 H 506.196 -4.35757 -3.94195 0
M  V30 5305 H 507.72 -3.86042 -4.73079 0
M  V30 5306 H 509.134 -5.01637 -2.77549 0
M  V30 5307 H 507.531 -5.57655 -2.21677 0
M  V30 5308 H 508.601 -4.7253 -1.08829 0
M  V30 5309 N 509.944 0.496216 -1.49584 0
M  V30 5310 C 511.221 1.25755 -1.49816 0
M  V30 5311 C 511.601 2.09859 -0.228572 0
M  V30 5312 O 510.949 2.14449 0.788908 0
M  V30 5313 C 511.159 2.11017 -2.7798 0
M  V30 5314 C 512.507 2.70047 -3.27658 0
M  V30 5315 O 513.531 2.21281 -2.79129 0
M  V30 5316 O 512.39 3.58834 -4.1219 0
M  V30 5317 H 509.484 0.569322 -0.599834 0
M  V30 5318 H 512.03 0.510094 -1.61852 0
M  V30 5319 H 510.802 1.48879 -3.61871 0
M  V30 5320 H 510.425 2.92947 -2.68827 0
M  V30 5321 N 511.423 1.38739 0.74761 0
M  V30 5322 C 512.356 1.3083 1.86972 0
M  V30 5323 C 513.334 0.184229 1.61553 0
M  V30 5324 O 514.518 0.36256 1.8498 0
M  V30 5325 C 511.645 1.02854 3.22705 0
M  V30 5326 C 510.691 2.17281 3.67003 0
M  V30 5327 S 511.524 3.79468 3.77842 0
M  V30 5328 C 512.68 3.53692 5.16385 0
M  V30 5329 H 512.913 2.258 1.93395 0
M  V30 5330 H 510.446 1.24646 0.911199 0
M  V30 5331 H 512.404 0.87397 4.01089 0
M  V30 5332 H 511.065 0.0959295 3.13953 0
M  V30 5333 H 510.258 1.93267 4.65472 0
M  V30 5334 H 509.86 2.28876 2.9579 0
M  V30 5335 H 512.152 3.10176 6.02327 0
M  V30 5336 H 513.095 4.51576 5.45422 0
M  V30 5337 H 513.503 2.8807 4.85464 0
M  V30 5338 N 512.901 -0.976442 1.23707 0
M  V30 5339 C 514.15 -1.71254 1.06559 0
M  V30 5340 C 514.463 -1.91528 -0.397024 0
M  V30 5341 O 515.669 -2.62625 -0.688518 0
M  V30 5342 C 514.125 -3.08207 1.8584 0
M  V30 5343 C 513.733 -2.95806 3.36456 0
M  V30 5344 C 515.477 -3.85749 1.77194 0
M  V30 5345 C 513.384 -4.28015 4.08114 0
M  V30 5346 H 512.314 -0.642171 0.395136 0
M  V30 5347 H 514.965 -1.08877 1.4771 0
M  V30 5348 H 513.347 -3.71363 1.37498 0
M  V30 5349 H 514.521 -2.41716 3.92314 0
M  V30 5350 H 512.836 -2.31736 3.45959 0
M  V30 5351 H 515.433 -4.83633 2.28041 0
M  V30 5352 H 515.776 -4.09752 0.735477 0
M  V30 5353 H 516.309 -3.29303 2.23169 0
M  V30 5354 H 513.048 -4.09208 5.12083 0
M  V30 5355 H 512.568 -4.81955 3.57043 0
M  V30 5356 H 514.247 -4.96681 4.14629 0
M  V30 5357 N 514.379 -1.04941 -1.1758 0
M  V30 5358 C 515.342 -0.652456 -2.19717 0
M  V30 5359 C 516.342 0.294745 -1.58076 0
M  V30 5360 O 517.532 0.0789579 -1.74021 0
M  V30 5361 C 514.664 0.0420712 -3.40874 0
M  V30 5362 H 515.857 -1.55642 -2.5635 0
M  V30 5363 H 513.41 -0.842995 -1.31618 0
M  V30 5364 H 514.145 0.95943 -3.09783 0
M  V30 5365 H 513.93 -0.638844 -3.86861 0
M  V30 5366 H 515.42 0.306 -4.16477 0
M  V30 5367 N 515.857 1.33968 -0.830081 0
M  V30 5368 C 517.105 1.97672 -0.420734 0
M  V30 5369 C 517.426 1.66111 1.02138 0
M  V30 5370 O 516.696 0.955503 1.71017 0
M  V30 5371 H 515.276 0.73125 -0.152587 0
M  V30 5372 H 517.938 1.63483 -1.0611 0
M  V30 5373 H 517.034 3.07294 -0.545588 0
M  V30 5374 N 517.335 0.585699 1.46312 0
M  V30 5375 C 518.298 -0.135673 2.28798 0
M  V30 5376 C 519.298 -0.815988 1.38558 0
M  V30 5377 O 520.488 -0.667487 1.60904 0
M  V30 5378 C 517.62 -1.20163 3.1902 0
M  V30 5379 H 518.813 0.589257 2.94054 0
M  V30 5380 H 516.366 0.343794 1.52472 0
M  V30 5381 H 517.101 -1.95804 2.58517 0
M  V30 5382 H 516.886 -0.718282 3.85465 0
M  V30 5383 H 518.376 -1.70749 3.81096 0
M  V30 5384 N 518.813 -1.54241 0.323641 0
M  V30 5385 C 519.763 -2.21071 -0.557833 0
M  V30 5386 C 520.747 -1.19126 -1.08157 0
M  V30 5387 O 521.939 -1.44755 -1.01857 0
M  V30 5388 C 519.068 -2.97208 -1.71821 0
M  V30 5389 C 518.154 -4.06491 -1.20936 0
M  V30 5390 N 518.545 -5.04052 -0.420202 0
M  V30 5391 C 516.843 -4.20443 -1.48808 0
M  V30 5392 C 517.544 -5.81516 -0.146413 0
M  V30 5393 N 516.52 -5.38641 -0.732562 0
M  V30 5394 H 520.322 -2.93853 0.0523921 0
M  V30 5395 H 517.836 -1.61883 0.129502 0
M  V30 5396 H 519.833 -3.4357 -2.36146 0
M  V30 5397 H 518.493 -2.25947 -2.33191 0
M  V30 5398 H 519.504 -5.17862 -0.0630401 0
M  V30 5399 H 516.181 -3.60396 -2.10762 0
M  V30 5400 H 517.571 -6.70119 0.488895 0
M  V30 5401 N 520.291 -0.0518155 -1.57515 0
M  V30 5402 C 521.537 0.616839 -1.93821 0
M  V30 5403 C 521.892 1.68413 -0.930307 0
M  V30 5404 O 521.185 1.91534 0.0504231 0
M  V30 5405 C 521.379 1.25607 -3.34601 0
M  V30 5406 C 521.208 0.252222 -4.48992 0
M  V30 5407 C 519.978 -0.156031 -5.05059 0
M  V30 5408 C 522.176 -0.502613 -5.11838 0
M  V30 5409 N 520.158 -1.15267 -6.02981 0
M  V30 5410 C 521.529 -1.35232 -6.05072 0
M  V30 5411 C 523.584 -0.560855 -4.94731 0
M  V30 5412 C 522.287 -2.25505 -6.83037 0
M  V30 5413 C 524.313 -1.45102 -5.73323 0
M  V30 5414 C 523.675 -2.28845 -6.6619 0
M  V30 5415 H 519.774 0.197344 -0.75669 0
M  V30 5416 H 522.358 -0.124297 -1.94303 0
M  V30 5417 H 520.529 1.96723 -3.34895 0
M  V30 5418 H 522.261 1.88358 -3.58195 0
M  V30 5419 H 519.016 0.22306 -4.73074 0
M  V30 5420 H 519.44 -1.64791 -6.56638 0
M  V30 5421 H 524.082 0.0723639 -4.22738 0
M  V30 5422 H 521.8 -2.89872 -7.54321 0
M  V30 5423 H 525.386 -1.50066 -5.62113 0
M  V30 5424 H 524.266 -2.96608 -7.25943 0
M  V30 5425 N 521.769 1.56035 0.221574 0
M  V30 5426 C 523.017 1.78693 0.944102 0
M  V30 5427 C 523.338 0.620317 1.8487 0
M  V30 5428 O 522.608 -0.362784 1.92512 0
M  V30 5429 H 521.188 0.659082 0.351597 0
M  V30 5430 H 523.85 1.93497 0.233435 0
M  V30 5431 H 522.946 2.70837 1.55093 0
M  V30 5432 N 523.247 -0.488276 1.49845 0
M  V30 5433 C 524.493 -1.24341 1.6021 0
M  V30 5434 C 524.826 -1.91967 0.293651 0
M  V30 5435 O 524.101 -1.81323 -0.703718 0
M  V30 5436 C 524.384 -2.3005 2.77036 0
M  V30 5437 C 524.237 -1.66842 4.17713 0
M  V30 5438 C 525.556 -3.31509 2.89464 0
M  V30 5439 H 522.675 -0.450704 0.583125 0
M  V30 5440 H 525.317 -0.539673 1.82174 0
M  V30 5441 H 523.467 -2.90071 2.58439 0
M  V30 5442 H 525.139 -1.1055 4.47858 0
M  V30 5443 H 523.382 -0.972079 4.22768 0
M  V30 5444 H 524.053 -2.43576 4.95353 0
M  V30 5445 H 526.529 -2.81493 3.06433 0
M  V30 5446 H 525.405 -4.02822 3.72861 0
M  V30 5447 H 525.666 -3.94603 1.99351 0
M  V30 5448 N 524.725 -1.39134 -0.740242 0
M  V30 5449 C 525.655 -1.40165 -1.86751 0
M  V30 5450 C 526.636 -0.265708 -1.68012 0
M  V30 5451 O 527.821 -0.47076 -1.88408 0
M  V30 5452 C 524.951 -1.2392 -3.2444 0
M  V30 5453 C 523.905 -2.34858 -3.57807 0
M  V30 5454 C 523.231 -2.03707 -4.94376 0
M  V30 5455 C 524.531 -3.77159 -3.61315 0
M  V30 5456 H 526.225 -2.345 -1.86145 0
M  V30 5457 H 523.771 -1.12875 -0.89416 0
M  V30 5458 H 525.724 -1.23263 -4.02969 0
M  V30 5459 H 524.448 -0.26051 -3.25559 0
M  V30 5460 H 523.107 -2.34723 -2.81604 0
M  V30 5461 H 522.755 -1.04289 -4.9207 0
M  V30 5462 H 522.455 -2.78016 -5.17669 0
M  V30 5463 H 523.979 -2.04691 -5.75268 0
M  V30 5464 H 525.393 -3.79252 -4.29931 0
M  V30 5465 H 523.79 -4.50784 -3.96124 0
M  V30 5466 H 524.86 -4.08513 -2.61238 0
M  V30 5467 N 526.204 0.969867 -1.24223 0
M  V30 5468 C 527.167 2.04564 -1.03373 0
M  V30 5469 C 528.167 1.60798 0.00819206 0
M  V30 5470 O 529.357 1.72641 -0.232567 0
M  V30 5471 C 526.489 3.36163 -0.566343 0
M  V30 5472 H 527.682 2.24494 -1.98853 0
M  V30 5473 H 525.235 1.1448 -1.06415 0
M  V30 5474 H 525.97 3.21925 0.391751 0
M  V30 5475 H 525.755 3.69273 -1.31834 0
M  V30 5476 H 527.245 4.1526 -0.441435 0
M  V30 5477 N 527.682 1.05563 1.17022 0
M  V30 5478 C 528.93 0.76642 1.87004 0
M  V30 5479 C 529.251 -0.708854 1.8166 0
M  V30 5480 O 528.521 -1.51242 1.2451 0
M  V30 5481 H 527.101 0.280516 0.692329 0
M  V30 5482 H 529.763 1.33557 1.41945 0
M  V30 5483 H 528.859 1.08472 2.92644 0
M  V30 5484 N 529.16 -1.33526 0.837174 0
M  V30 5485 C 530.409 -1.97098 0.428387 0
M  V30 5486 C 530.722 -1.67062 -1.01734 0
M  V30 5487 O 531.928 -2.24235 -1.53072 0
M  V30 5488 C 530.384 -3.52725 0.715075 0
M  V30 5489 C 529.992 -3.9164 2.17537 0
M  V30 5490 C 531.736 -4.22857 0.373154 0
M  V30 5491 C 529.643 -5.40237 2.40619 0
M  V30 5492 H 528.573 -0.737589 0.156455 0
M  V30 5493 H 531.224 -1.52169 1.02552 0
M  V30 5494 H 529.606 -3.95971 0.0475904 0
M  V30 5495 H 530.78 -3.59456 2.88319 0
M  V30 5496 H 529.095 -3.34485 2.4801 0
M  V30 5497 H 531.692 -5.32133 0.523264 0
M  V30 5498 H 532.035 -4.10647 -0.683708 0
M  V30 5499 H 532.568 -3.85135 0.995801 0
M  V30 5500 H 529.307 -5.57449 3.44864 0
M  V30 5501 H 528.827 -5.73887 1.74396 0
M  V30 5502 H 530.506 -6.07102 2.23688 0
M  V30 5503 N 530.638 -0.59345 -1.46 0
M  V30 5504 C 531.601 0.123538 -2.28867 0
M  V30 5505 C 532.601 0.808628 -1.38989 0
M  V30 5506 O 533.791 0.658945 -1.61256 0
M  V30 5507 C 530.923 1.1847 -3.19653 0
M  V30 5508 H 532.116 -0.604843 -2.93737 0
M  V30 5509 H 529.669 -0.351875 -1.52288 0
M  V30 5510 H 530.404 1.94431 -2.59552 0
M  V30 5511 H 530.189 0.69783 -3.8584 0
M  V30 5512 H 531.679 1.68726 -3.81997 0
M  V30 5513 N 532.116 1.54067 -0.331816 0
M  V30 5514 C 533.346 2.04833 0.269605 0
M  V30 5515 C 533.754 1.20714 1.45687 0
M  V30 5516 O 533.097 0.232539 1.82222 0
M  V30 5517 C 533.159 3.51386 0.759499 0
M  V30 5518 C 532.823 4.55971 -0.306557 0
M  V30 5519 C 533.82 5.07126 -1.14538 0
M  V30 5520 C 531.505 5.00216 -0.457116 0
M  V30 5521 C 533.499 6.01096 -2.12042 0
M  V30 5522 C 531.186 5.93999 -1.43556 0
M  V30 5523 C 532.184 6.44326 -2.26568 0
M  V30 5524 O 531.872 7.36267 -3.22749 0
M  V30 5525 H 531.604 0.673509 0.0579763 0
M  V30 5526 H 534.158 1.99748 -0.478521 0
M  V30 5527 H 532.388 3.53896 1.55867 0
M  V30 5528 H 534.077 3.85184 1.28017 0
M  V30 5529 H 534.843 4.73716 -1.04009 0
M  V30 5530 H 530.722 4.60652 0.179142 0
M  V30 5531 H 534.266 6.40302 -2.76873 0
M  V30 5532 H 530.163 6.26825 -1.54146 0
M  V30 5533 H 530.931 7.54165 -3.18083 0
M  V30 5534 N 533.594 0.0601682 1.57485 0
M  V30 5535 C 534.841 -0.611594 1.93043 0
M  V30 5536 C 535.169 -1.70317 0.939274 0
M  V30 5537 O 534.424 -1.95644 -0.046996 0
M  V30 5538 C 534.723 -1.23831 3.35262 0
M  V30 5539 C 534.389 -0.274037 4.50066 0
M  V30 5540 C 533.051 -0.00872394 4.81199 0
M  V30 5541 C 535.403 0.386308 5.19766 0
M  V30 5542 C 532.731 0.924218 5.79375 0
M  V30 5543 C 535.083 1.3075 6.1894 0
M  V30 5544 C 533.747 1.58139 6.48497 0
M  V30 5545 H 533.017 -0.223798 0.706396 0
M  V30 5546 H 535.664 0.128566 1.91068 0
M  V30 5547 H 533.969 -2.05394 3.33647 0
M  V30 5548 H 535.666 -1.76517 3.60059 0
M  V30 5549 H 532.256 -0.491008 4.25778 0
M  V30 5550 H 536.44 0.194436 4.95919 0
M  V30 5551 H 531.696 1.1438 6.00606 0
M  V30 5552 H 535.87 1.82519 6.72056 0
M  V30 5553 H 533.497 2.30593 7.24383 0
M  V30 5554 N 535.072 -1.5615 -0.213296 0
M  V30 5555 C 536.297 -1.83986 -0.957282 0
M  V30 5556 C 536.722 -0.641526 -1.76822 0
M  V30 5557 O 536.08 0.409722 -1.7661 0
M  V30 5558 C 536.128 -3.09889 -1.84393 0
M  V30 5559 O 535.232 -2.89163 -2.94038 0
M  V30 5560 H 534.573 -0.606357 -0.270605 0
M  V30 5561 H 537.103 -2.03369 -0.224111 0
M  V30 5562 H 537.113 -3.40209 -2.25215 0
M  V30 5563 H 535.788 -3.96735 -1.24795 0
M  V30 5564 H 534.365 -2.70097 -2.57103 0
M  V30 5565 N 536.55 0.480323 -1.50102 0
M  V30 5566 C 537.483 1.59789 -1.62919 0
M  V30 5567 C 538.461 1.55429 -0.477557 0
M  V30 5568 O 539.645 1.75186 -0.695851 0
M  V30 5569 C 536.772 2.98351 -1.60325 0
M  V30 5570 C 535.818 3.20899 -2.80938 0
M  V30 5571 S 536.651 3.01791 -4.4236 0
M  V30 5572 C 537.807 4.42712 -4.42444 0
M  V30 5573 H 538.04 1.48676 -2.57454 0
M  V30 5574 H 535.573 0.666996 -1.3925 0
M  V30 5575 H 537.531 3.7824 -1.59514 0
M  V30 5576 H 536.192 3.06862 -0.670419 0
M  V30 5577 H 535.385 4.22102 -2.75401 0
M  V30 5578 H 534.987 2.48768 -2.79268 0
M  V30 5579 H 537.279 5.3518 -4.15438 0
M  V30 5580 H 538.222 4.53294 -5.43995 0
M  V30 5581 H 538.63 4.24359 -3.72263 0
M  V30 5582 N 538.028 1.39524 0.732853 0
M  V30 5583 C 539.274 1.37068 1.49467 0
M  V30 5584 C 539.607 -0.0327166 1.94172 0
M  V30 5585 O 538.882 -0.998071 1.66939 0
M  V30 5586 C 539.165 2.34494 2.73285 0
M  V30 5587 C 539.018 3.83784 2.34585 0
M  V30 5588 C 540.337 2.29717 3.75391 0
M  V30 5589 H 537.456 0.499206 0.542183 0
M  V30 5590 H 540.098 1.70532 0.837783 0
M  V30 5591 H 538.248 2.06087 3.29333 0
M  V30 5592 H 539.92 4.22949 1.84151 0
M  V30 5593 H 538.163 4.00455 1.66787 0
M  V30 5594 H 538.834 4.47444 3.23262 0
M  V30 5595 H 541.31 2.54839 3.28932 0
M  V30 5596 H 540.186 2.99962 4.59689 0
M  V30 5597 H 540.447 1.30291 4.22465 0
M  V30 5598 N 539.506 -0.963266 1.24736 0
M  V30 5599 C 540.754 -1.70343 1.08755 0
M  V30 5600 C 541.075 -1.91387 -0.373619 0
M  V30 5601 O 540.345 -1.4948 -1.2662 0
M  V30 5602 H 538.925 -0.631224 0.399456 0
M  V30 5603 H 541.587 -1.15859 1.56725 0
M  V30 5604 H 540.683 -2.68616 1.58909 0
M  V30 5605 N 540.985 -1.06182 -1.16461 0
M  V30 5606 C 541.933 -0.665716 -2.2287 0
M  V30 5607 C 542.927 0.317822 -1.66392 0
M  V30 5608 O 544.133 0.182807 -1.79069 0
M  V30 5609 H 540.508 -0.197148 -0.725697 0
M  V30 5610 H 542.479 -1.57307 -2.53569 0
M  V30 5611 C 541.228 -0.0669803 -3.47635 0
M  V30 5612 H 540.551 -0.814899 -3.91407 0
M  V30 5613 H 541.991 0.172669 -4.23648 0
M  V30 5614 C 540.45 1.18913 -3.15216 0
M  V30 5615 O 540.98 2.27723 -3.30916 0
M  V30 5616 N 539.186 1.09066 -2.69357 0
M  V30 5617 H 538.733 0.20518 -2.56782 0
M  V30 5618 H 538.691 1.93195 -2.48039 0
M  V30 5619 N 542.463 1.3308 -0.844243 0
M  V30 5620 C 543.709 1.98304 -0.452453 0
M  V30 5621 C 544.064 1.65645 0.978746 0
M  V30 5622 O 543.357 0.928849 1.6758 0
M  V30 5623 C 543.551 3.52045 -0.616354 0
M  V30 5624 C 543.38 3.99643 -2.06193 0
M  V30 5625 C 542.15 4.27224 -2.69829 0
M  V30 5626 C 544.348 4.15471 -3.03131 0
M  V30 5627 N 542.33 4.60998 -4.05406 0
M  V30 5628 C 543.701 4.52665 -4.23668 0
M  V30 5629 C 545.756 3.97776 -2.99465 0
M  V30 5630 C 544.459 4.74011 -5.41023 0
M  V30 5631 C 546.485 4.20301 -4.16055 0
M  V30 5632 C 545.847 4.57801 -5.35348 0
M  V30 5633 H 541.946 0.752122 -0.214096 0
M  V30 5634 H 544.53 1.61096 -1.09344 0
M  V30 5635 H 542.701 3.884 -0.00513205 0
M  V30 5636 H 544.433 4.04228 -0.19548 0
M  V30 5637 H 541.188 4.18911 -2.20931 0
M  V30 5638 H 541.612 4.82087 -4.75312 0
M  V30 5639 H 546.254 3.67893 -2.08362 0
M  V30 5640 H 543.972 5.02753 -6.32665 0
M  V30 5641 H 547.558 4.08122 -4.14641 0
M  V30 5642 H 546.438 4.74884 -6.24063 0
M  V30 5643 N 543.941 0.601185 1.45683 0
M  V30 5644 C 544.904 -0.111398 2.28929 0
M  V30 5645 C 545.904 -0.801246 1.39416 0
M  V30 5646 O 547.094 -0.650383 1.61603 0
M  V30 5647 C 544.226 -1.16773 3.20276 0
M  V30 5648 H 545.419 0.620412 2.93413 0
M  V30 5649 H 542.972 0.359946 1.52099 0
M  V30 5650 H 543.707 -1.93051 2.60579 0
M  V30 5651 H 543.492 -0.677358 3.86205 0
M  V30 5652 H 544.982 -1.66698 3.82886 0
M  V30 5653 N 545.419 -1.53889 0.339982 0
M  V30 5654 C 546.366 -2.24902 -0.518452 0
M  V30 5655 C 547.336 -1.24593 -1.09844 0
M  V30 5656 O 548.521 -1.53317 -1.13572 0
M  V30 5657 C 545.661 -3.02262 -1.66529 0
M  V30 5658 C 544.774 -4.17418 -1.11295 0
M  V30 5659 C 543.909 -4.82273 -2.2268 0
M  V30 5660 C 542.948 -5.89503 -1.6478 0
M  V30 5661 N 542.085 -6.48153 -2.69893 0
M  V30 5662 H 546.925 -2.97853 0.0936579 0
M  V30 5663 H 544.462 -1.46986 0.0579924 0
M  V30 5664 H 546.42 -3.45371 -2.3404 0
M  V30 5665 H 545.05 -2.31614 -2.24844 0
M  V30 5666 H 544.102 -3.78976 -0.328886 0
M  V30 5667 H 545.414 -4.94554 -0.649414 0
M  V30 5668 H 544.568 -5.28435 -2.98063 0
M  V30 5669 H 543.307 -4.04552 -2.72376 0
M  V30 5670 H 542.312 -5.42728 -0.879004 0
M  V30 5671 H 543.537 -6.6913 -1.1594 0
M  V30 5672 H 541.483 -5.73298 -3.1885 0
M  V30 5673 H 541.4 -7.20752 -2.28151 0
M  V30 5674 H 542.668 -6.98968 -3.45056 0
M  V30 5675 N 546.897 -0.0685191 -1.57451 0
M  V30 5676 C 548.143 0.602239 -1.93652 0
M  V30 5677 C 548.476 1.6946 -0.948526 0
M  V30 5678 O 547.751 1.94487 0.022782 0
M  V30 5679 C 548.034 1.18223 -3.4014 0
M  V30 5680 C 547.887 0.0967431 -4.49696 0
M  V30 5681 C 549.206 2.08872 -3.87377 0
M  V30 5682 H 546.325 0.217453 -0.70419 0
M  V30 5683 H 548.967 -0.133821 -1.89528 0
M  V30 5684 H 547.117 1.80953 -3.43785 0
M  V30 5685 H 548.789 -0.536155 -4.58174 0
M  V30 5686 H 547.032 -0.573063 -4.29998 0
M  V30 5687 H 547.703 0.542894 -5.49324 0
M  V30 5688 H 550.179 1.56081 -3.85717 0
M  V30 5689 H 549.055 2.46389 -4.90493 0
M  V30 5690 H 549.316 2.99572 -3.25129 0
M  V30 5691 N 548.375 1.56261 0.205012 0
M  V30 5692 C 549.305 1.96779 1.257 0
M  V30 5693 C 550.286 0.838309 1.48008 0
M  V30 5694 O 551.471 1.10189 1.59913 0
M  V30 5695 C 548.601 2.29876 2.60335 0
M  V30 5696 C 547.555 3.45469 2.52656 0
M  V30 5697 C 546.881 3.64215 3.91473 0
M  V30 5698 C 548.181 4.79954 2.06014 0
M  V30 5699 H 549.875 2.84904 0.920338 0
M  V30 5700 H 547.421 1.37072 0.441277 0
M  V30 5701 H 549.374 2.56814 3.34102 0
M  V30 5702 H 548.098 1.38622 2.95722 0
M  V30 5703 H 546.757 3.18605 1.81345 0
M  V30 5704 H 546.405 2.70309 4.24196 0
M  V30 5705 H 546.105 4.41973 3.87213 0
M  V30 5706 H 547.629 3.93519 4.66878 0
M  V30 5707 H 549.043 5.05989 2.69533 0
M  V30 5708 H 547.44 5.61111 2.12777 0
M  V30 5709 H 548.51 4.74201 1.01297 0
M  V30 5710 N 549.853 -0.472356 1.50355 0
M  V30 5711 C 551.099 -1.22634 1.6152 0
M  V30 5712 C 551.432 -1.91645 0.313995 0
M  V30 5713 O 550.707 -1.82059 -0.684446 0
M  V30 5714 C 550.99 -2.27099 2.7946 0
M  V30 5715 C 550.843 -1.62402 4.19459 0
M  V30 5716 C 552.162 -3.28421 2.92964 0
M  V30 5717 H 549.281 -0.444494 0.587873 0
M  V30 5718 H 551.923 -0.520321 1.82737 0
M  V30 5719 H 550.073 -2.87314 2.61501 0
M  V30 5720 H 551.745 -1.05793 4.49005 0
M  V30 5721 H 549.988 -0.927184 4.23776 0
M  V30 5722 H 550.659 -2.38309 4.97909 0
M  V30 5723 H 553.135 -2.78227 3.09401 0
M  V30 5724 H 552.011 -3.98845 3.77113 0
M  V30 5725 H 552.272 -3.92467 2.03525 0
M  V30 5726 N 551.331 -1.39911 -0.725443 0
M  V30 5727 C 552.577 -1.37858 -1.48738 0
M  V30 5728 C 552.91 0.0224187 -1.94187 0
M  V30 5729 O 552.185 0.989204 -1.67466 0
M  V30 5730 C 552.468 -2.3594 -2.72038 0
M  V30 5731 C 552.321 -3.85023 -2.32546 0
M  V30 5732 C 553.64 -2.31704 -3.74167 0
M  V30 5733 H 550.759 -0.502074 -0.539528 0
M  V30 5734 H 553.401 -1.70974 -0.828728 0
M  V30 5735 H 551.551 -2.0783 -3.28236 0
M  V30 5736 H 553.223 -4.2392 -1.81905 0
M  V30 5737 H 551.466 -4.01334 -1.64661 0
M  V30 5738 H 552.137 -4.49152 -3.20884 0
M  V30 5739 H 554.613 -2.5658 -3.27576 0
M  V30 5740 H 553.489 -3.02395 -4.58092 0
M  V30 5741 H 553.75 -1.3253 -4.21768 0
M  V30 5742 N 552.809 0.956637 -1.25245 0
M  V30 5743 C 553.739 2.07058 -1.07931 0
M  V30 5744 C 554.72 1.70096 0.0110361 0
M  V30 5745 O 555.905 1.93555 -0.158121 0
M  V30 5746 C 553.035 3.40272 -0.695124 0
M  V30 5747 C 551.989 3.91235 -1.73549 0
M  V30 5748 C 551.315 5.20921 -1.20604 0
M  V30 5749 C 552.615 4.17837 -3.13385 0
M  V30 5750 H 554.309 2.218 -2.01109 0
M  V30 5751 H 551.855 1.06581 -0.968326 0
M  V30 5752 H 553.808 4.1765 -0.560949 0
M  V30 5753 H 552.532 3.25462 0.272355 0
M  V30 5754 H 551.191 3.16025 -1.85807 0
M  V30 5755 H 550.839 5.02479 -0.228846 0
M  V30 5756 H 550.539 5.55987 -1.90136 0
M  V30 5757 H 552.063 6.00897 -1.08421 0
M  V30 5758 H 553.477 4.8588 -3.04292 0
M  V30 5759 H 551.874 4.64154 -3.80369 0
M  V30 5760 H 552.944 3.2419 -3.60595 0
M  V30 5761 N 554.287 1.06798 1.15896 0
M  V30 5762 C 555.217 0.704677 2.22613 0
M  V30 5763 C 556.198 -0.305252 1.67339 0
M  V30 5764 O 557.383 -0.179247 1.93371 0
M  V30 5765 C 554.513 0.0957325 3.47168 0
M  V30 5766 C 553.467 1.0322 4.15367 0
M  V30 5767 C 552.793 0.286293 5.33933 0
M  V30 5768 C 554.093 2.36341 4.65768 0
M  V30 5769 H 555.787 1.59688 2.53259 0
M  V30 5770 H 553.333 0.769257 1.21731 0
M  V30 5771 H 555.286 -0.170333 4.21056 0
M  V30 5772 H 554.01 -0.831516 3.15838 0
M  V30 5773 H 552.669 1.28309 3.43413 0
M  V30 5774 H 552.317 -0.644237 4.98857 0
M  V30 5775 H 552.017 0.910436 5.80504 0
M  V30 5776 H 553.541 0.0278938 6.10594 0
M  V30 5777 H 554.955 2.1561 5.31211 0
M  V30 5778 H 553.352 2.94299 5.2298 0
M  V30 5779 H 554.422 2.99047 3.81705 0
M  V30 5780 N 555.766 -1.3263 0.851289 0
M  V30 5781 C 556.696 -2.31449 0.308771 0
M  V30 5782 C 557.677 -1.59531 -0.590255 0
M  V30 5783 O 558.862 -1.87351 -0.511205 0
M  V30 5784 C 555.992 -3.43586 -0.506548 0
M  V30 5785 C 554.946 -4.26963 0.297753 0
M  V30 5786 C 554.272 -5.30831 -0.642094 0
M  V30 5787 C 555.572 -4.99643 1.52166 0
M  V30 5788 H 557.266 -2.77074 1.13447 0
M  V30 5789 H 554.812 -1.33207 0.546971 0
M  V30 5790 H 556.765 -4.11754 -0.896474 0
M  V30 5791 H 555.489 -2.96681 -1.36558 0
M  V30 5792 H 554.148 -3.60437 0.669391 0
M  V30 5793 H 553.796 -4.8018 -1.49788 0
M  V30 5794 H 553.496 -5.87501 -0.107968 0
M  V30 5795 H 555.02 -6.01862 -1.02927 0
M  V30 5796 H 556.434 -5.6051 1.20421 0
M  V30 5797 H 554.831 -5.66022 1.99347 0
M  V30 5798 H 555.901 -4.27701 2.28474 0
M  V30 5799 N 557.244 -0.608902 -1.45362 0
M  V30 5800 C 558.491 -0.104607 -2.0223 0
M  V30 5801 C 558.819 1.26534 -1.47714 0
M  V30 5802 O 558.074 1.84855 -0.642435 0
M  V30 5803 C 558.373 -0.0167296 -3.57396 0
M  V30 5804 C 558.039 -1.32251 -4.31069 0
M  V30 5805 C 556.701 -1.68019 -4.50914 0
M  V30 5806 C 559.053 -2.18542 -4.73169 0
M  V30 5807 C 556.381 -2.89828 -5.10114 0
M  V30 5808 C 558.733 -3.39602 -5.33717 0
M  V30 5809 C 557.397 -3.7562 -5.51784 0
M  V30 5810 H 556.667 -0.0382785 -0.740011 0
M  V30 5811 H 559.314 -0.790782 -1.7441 0
M  V30 5812 H 557.619 0.752715 -3.84502 0
M  V30 5813 H 559.316 0.389634 -3.99103 0
M  V30 5814 H 555.906 -1.03411 -4.15938 0
M  V30 5815 H 560.09 -1.92208 -4.5757 0
M  V30 5816 H 555.346 -3.17839 -5.22291 0
M  V30 5817 H 559.52 -4.06716 -5.65292 0
M  V30 5818 H 557.147 -4.70093 -5.97425 0
M  V30 5819 N 558.722 1.53707 -0.348139 0
M  V30 5820 C 559.685 2.23812 0.494058 0
M  V30 5821 C 560.685 1.23989 1.02388 0
M  V30 5822 O 561.875 1.48395 0.912396 0
M  V30 5823 C 559.007 2.96133 1.68872 0
M  V30 5824 H 560.2 2.99663 -0.119141 0
M  V30 5825 H 557.753 1.55983 -0.0995539 0
M  V30 5826 H 558.488 2.24481 2.34049 0
M  V30 5827 H 558.273 3.69357 1.31596 0
M  V30 5828 H 559.763 3.49475 2.28597 0
M  V30 5829 N 560.2 0.0768682 1.57412 0
M  V30 5830 C 561.448 -0.589918 1.93299 0
M  V30 5831 C 561.769 -1.69842 0.958049 0
M  V30 5832 O 561.039 -1.95899 0.00703261 0
M  V30 5833 H 559.619 -0.220901 0.713591 0
M  V30 5834 H 562.281 0.135917 1.94425 0
M  V30 5835 H 561.377 -1.01195 2.95239 0
M  V30 5836 N 561.678 -1.56367 -0.196722 0
M  V30 5837 C 562.924 -1.80796 -0.918725 0
M  V30 5838 C 563.257 -0.650645 -1.82976 0
M  V30 5839 O 562.532 0.348889 -1.91345 0
M  V30 5840 C 562.815 -3.15472 -1.73636 0
M  V30 5841 C 562.668 -4.41693 -0.85015 0
M  V30 5842 C 563.987 -3.46824 -2.70927 0
M  V30 5843 H 561.106 -0.657702 -0.332561 0
M  V30 5844 H 563.748 -1.89086 -0.186186 0
M  V30 5845 H 561.898 -3.08536 -2.36088 0
M  V30 5846 H 563.57 -4.60673 -0.240459 0
M  V30 5847 H 561.813 -4.33517 -0.156785 0
M  V30 5848 H 562.484 -5.32419 -1.45719 0
M  V30 5849 H 564.96 -3.54049 -2.18607 0
M  V30 5850 H 563.836 -4.4218 -3.25219 0
M  V30 5851 H 564.097 -2.70236 -3.49893 0
M  V30 5852 N 563.156 0.464375 -1.50603 0
M  V30 5853 C 564.433 1.22549 -1.5245 0
M  V30 5854 C 564.813 2.09327 -0.273035 0
M  V30 5855 O 564.161 2.16074 0.743242 0
M  V30 5856 C 564.371 2.05074 -2.82393 0
M  V30 5857 C 565.719 2.63036 -3.33313 0
M  V30 5858 O 566.743 2.1531 -2.8376 0
M  V30 5859 O 565.602 3.5001 -4.19709 0
M  V30 5860 H 562.696 0.556471 -0.611775 0
M  V30 5861 H 565.242 0.475648 -1.62898 0
M  V30 5862 H 564.014 1.41169 -3.64948 0
M  V30 5863 H 563.637 2.87179 -2.7498 0
M  V30 5864 N 564.634 1.40294 0.718013 0
M  V30 5865 C 565.597 1.4012 1.81381 0
M  V30 5866 C 566.597 0.295405 1.58063 0
M  V30 5867 O 567.787 0.554187 1.6515 0
M  V30 5868 C 564.919 1.19056 3.19435 0
M  V30 5869 H 566.112 2.37645 1.82933 0
M  V30 5870 H 563.665 1.26107 0.923405 0
M  V30 5871 H 564.4 0.222809 3.23534 0
M  V30 5872 H 564.185 1.99152 3.37758 0
M  V30 5873 H 565.675 1.21716 3.99468 0
M  V30 5874 N 566.112 -0.949982 1.2575 0
M  V30 5875 C 567.022 -2.08109 1.08295 0
M  V30 5876 C 568.038 -1.7399 0.0188181 0
M  V30 5877 O 569.214 -2.00187 0.220724 0
M  V30 5878 C 566.279 -3.39383 0.708534 0
M  V30 5879 C 565.34 -3.8734 1.85111 0
M  V30 5880 C 564.573 -5.12349 1.49447 0
M  V30 5881 O 564.796 -5.6905 0.392212 0
M  V30 5882 O 563.73 -5.5513 2.32624 0
M  V30 5883 H 567.556 -2.25738 2.03165 0
M  V30 5884 H 565.141 -1.06545 1.04731 0
M  V30 5885 H 567.023 -4.18277 0.512061 0
M  V30 5886 H 565.698 -3.23013 -0.210854 0
M  V30 5887 H 564.605 -3.09429 2.10248 0
M  V30 5888 H 565.938 -4.08216 2.74991 0
M  V30 5889 N 567.59 -1.07411 -1.15328 0
M  V30 5890 C 568.818 -0.818782 -1.90009 0
M  V30 5891 C 569.233 0.628072 -1.78047 0
M  V30 5892 O 568.59 1.43085 -1.13282 0
M  V30 5893 C 568.641 -1.21874 -3.40337 0
M  V30 5894 O 568.362 -2.60883 -3.51954 0
M  V30 5895 C 569.863 -0.992796 -4.3204 0
M  V30 5896 H 567.083 -0.296007 -0.60218 0
M  V30 5897 H 569.627 -1.43073 -1.46117 0
M  V30 5898 H 567.782 -0.651103 -3.81889 0
M  V30 5899 H 568.196 -2.77216 -4.45255 0
M  V30 5900 H 569.67 -1.32215 -5.35932 0
M  V30 5901 H 570.147 0.0708331 -4.39143 0
M  V30 5902 H 570.753 -1.54537 -3.9623 0
M  V30 5903 N 569.068 1.32177 -0.85831 0
M  V30 5904 C 570.018 2.26307 -0.277307 0
M  V30 5905 C 571.002 1.50123 0.578946 0
M  V30 5906 O 572.194 1.71754 0.427731 0
M  V30 5907 C 569.323 3.39181 0.530232 0
M  V30 5908 C 568.409 4.22746 -0.338613 0
M  V30 5909 N 568.8 4.85265 -1.4266 0
M  V30 5910 C 567.098 4.45813 -0.129 0
M  V30 5911 C 567.799 5.47634 -1.96142 0
M  V30 5912 N 566.775 5.28794 -1.26007 0
M  V30 5913 H 570.577 2.72173 -1.10902 0
M  V30 5914 H 568.091 1.46308 -0.704816 0
M  V30 5915 H 570.088 4.05628 0.962904 0
M  V30 5916 H 568.748 2.9486 1.35969 0
M  V30 5917 H 569.759 4.85259 -1.80953 0
M  V30 5918 H 566.436 4.12163 0.665451 0
M  V30 5919 H 567.826 6.0735 -2.8736 0
M  V30 5920 N 570.547 0.616602 1.45037 0
M  V30 5921 C 571.793 0.115501 2.02471 0
M  V30 5922 C 572.126 -1.25406 1.4828 0
M  V30 5923 O 571.401 -1.82922 0.661051 0
M  V30 5924 C 571.684 0.0863588 3.59996 0
M  V30 5925 C 571.537 1.48723 4.24501 0
M  V30 5926 C 572.856 -0.596762 4.36035 0
M  V30 5927 H 569.975 0.0434461 0.735718 0
M  V30 5928 H 572.617 0.7903 1.72784 0
M  V30 5929 H 570.767 -0.488277 3.85419 0
M  V30 5930 H 572.439 2.10964 4.10234 0
M  V30 5931 H 570.682 2.04534 3.82555 0
M  V30 5932 H 571.353 1.419 5.3345 0
M  V30 5933 H 573.829 -0.10824 4.15959 0
M  V30 5934 H 572.705 -0.586289 5.4576 0
M  V30 5935 H 572.966 -1.66451 4.09569 0
M  V30 5936 N 572.025 -1.5352 0.356285 0
M  V30 5937 C 573.253 -2.05534 -0.237328 0
M  V30 5938 C 573.668 -1.23043 -1.43199 0
M  V30 5939 O 573.025 -0.268821 -1.80509 0
M  V30 5940 C 573.076 -3.55791 -0.639933 0
M  V30 5941 O 572.797 -4.35154 0.507233 0
M  V30 5942 C 574.298 -4.24027 -1.29292 0
M  V30 5943 H 571.518 -0.669585 -0.0435572 0
M  V30 5944 H 574.062 -1.97988 0.511963 0
M  V30 5945 H 572.217 -3.63518 -1.33915 0
M  V30 5946 H 572.631 -5.24178 0.18375 0
M  V30 5947 H 574.105 -5.30509 -1.52527 0
M  V30 5948 H 574.582 -3.77166 -2.25039 0
M  V30 5949 H 575.188 -4.20527 -0.63539 0
M  V30 5950 N 573.503 -0.0852151 -1.57369 0
M  V30 5951 C 574.751 0.579658 -1.93609 0
M  V30 5952 C 575.072 1.69332 -0.967043 0
M  V30 5953 O 574.342 1.95892 -0.0174215 0
M  V30 5954 H 572.922 0.217113 -0.714752 0
M  V30 5955 H 575.584 -0.146226 -1.94351 0
M  V30 5956 H 574.68 0.996276 -2.95771 0
M  V30 5957 N 574.981 1.5647 0.188427 0
M  V30 5958 C 576.229 1.80655 0.905986 0
M  V30 5959 C 576.55 0.659391 1.83513 0
M  V30 5960 O 575.82 -0.321868 1.93238 0
M  V30 5961 H 574.4 0.666391 0.337538 0
M  V30 5962 H 577.062 1.93949 0.192339 0
M  V30 5963 H 576.158 2.74066 1.49313 0
M  V30 5964 N 576.459 -0.456382 1.50847 0
M  V30 5965 C 577.684 -1.2349 1.66628 0
M  V30 5966 C 578.109 -1.84715 0.355254 0
M  V30 5967 O 577.467 -1.67961 -0.682559 0
M  V30 5968 C 577.515 -2.30865 2.77009 0
M  V30 5969 O 576.619 -3.35882 2.39285 0
M  V30 5970 H 575.96 -0.36266 0.556214 0
M  V30 5971 H 578.49 -0.541374 1.97308 0
M  V30 5972 H 578.5 -2.75949 3.00526 0
M  V30 5973 H 577.175 -1.85677 3.72152 0
M  V30 5974 H 575.752 -2.96406 2.26269 0
M  V30 5975 N 577.937 -1.40673 -0.710563 0
M  V30 5976 C 578.9 -1.4108 -1.80635 0
M  V30 5977 C 579.9 -0.303783 -1.57904 0
M  V30 5978 O 581.09 -0.562937 -1.64853 0
M  V30 5979 C 578.222 -1.20748 -3.18799 0
M  V30 5980 H 579.415 -2.38612 -1.81671 0
M  V30 5981 H 576.968 -1.26595 -0.916704 0
M  V30 5982 H 577.703 -0.239964 -3.23411 0
M  V30 5983 H 577.488 -2.00941 -3.36698 0
M  V30 5984 H 578.978 -1.23833 -3.98817 0
M  V30 5985 N 579.415 0.9433 -1.26252 0
M  V30 5986 C 580.663 1.68592 -1.11451 0
M  V30 5987 C 580.984 1.91957 0.343123 0
M  V30 5988 O 580.254 1.51475 1.24226 0
M  V30 5989 H 578.834 0.624789 -0.409448 0
M  V30 5990 H 581.496 1.13351 -1.58548 0
M  V30 5991 H 580.592 2.66054 -1.63162 0
M  V30 5992 N 580.893 1.08022 1.14757 0
M  V30 5993 C 581.843 0.676345 2.17737 0
M  V30 5994 C 582.827 -0.302018 1.5804 0
M  V30 5995 O 584.019 -0.11466 1.76628 0
M  V30 5996 C 581.148 0.082984 3.432 0
M  V30 5997 C 580.234 1.0869 4.09936 0
M  V30 5998 N 580.625 2.26891 4.52055 0
M  V30 5999 C 578.923 0.921768 4.36371 0
M  V30 6000 C 579.624 2.90636 5.0389 0
M  V30 6001 N 578.6 2.18266 4.97856 0
M  V30 6002 H 582.402 1.5765 2.4804 0
M  V30 6003 H 579.916 0.954374 1.31398 0
M  V30 6004 H 581.913 -0.224289 4.16296 0
M  V30 6005 H 580.573 -0.812206 3.14378 0
M  V30 6006 H 581.584 2.6457 4.45223 0
M  V30 6007 H 578.261 0.0800499 4.17423 0
M  V30 6008 H 579.651 3.9104 5.46386 0
M  V30 6009 N 582.371 -1.3172 0.865308 0
M  V30 6010 C 583.599 -2.01057 0.488251 0
M  V30 6011 C 584.014 -1.64979 -0.918 0
M  V30 6012 O 583.371 -0.876597 -1.60069 0
M  V30 6013 C 583.422 -3.55964 0.630224 0
M  V30 6014 O 583.143 -3.90749 1.98109 0
M  V30 6015 C 584.644 -4.42574 0.253567 0
M  V30 6016 H 581.864 -0.64332 0.190736 0
M  V30 6017 H 584.408 -1.68058 1.16519 0
M  V30 6018 H 582.563 -3.874 0.000895422 0
M  V30 6019 H 582.977 -4.85467 1.9855 0
M  V30 6020 H 584.451 -5.50521 0.403875 0
M  V30 6021 H 584.928 -4.31724 -0.806895 0
M  V30 6022 H 585.534 -4.16547 0.858404 0
M  V30 6023 N 583.85 -0.624285 -1.44708 0
M  V30 6024 C 585.096 -0.126237 -2.02407 0
M  V30 6025 C 585.428 1.24618 -1.48943 0
M  V30 6026 O 584.704 1.82569 -0.670742 0
M  V30 6027 C 584.986 -0.105449 -3.59946 0
M  V30 6028 C 584.84 -1.50972 -4.23707 0
M  V30 6029 C 586.159 0.573629 -4.36346 0
M  V30 6030 H 583.278 -0.0473472 -0.735478 0
M  V30 6031 H 585.92 -0.799452 -1.72362 0
M  V30 6032 H 584.07 0.46783 -3.85673 0
M  V30 6033 H 585.742 -2.13136 -4.0911 0
M  V30 6034 H 583.985 -2.0656 -3.81465 0
M  V30 6035 H 584.656 -1.44727 -5.32689 0
M  V30 6036 H 587.132 0.0861787 -4.16011 0
M  V30 6037 H 586.008 0.557338 -5.46063 0
M  V30 6038 H 586.269 1.64276 -4.10446 0
M  V30 6039 N 585.328 1.53329 -0.364422 0
M  V30 6040 C 586.553 2.06132 0.229033 0
M  V30 6041 C 586.978 1.23625 1.41769 0
M  V30 6042 O 586.336 0.255038 1.79497 0
M  V30 6043 C 586.384 3.55544 0.60174 0
M  V30 6044 O 585.488 3.75771 1.69912 0
M  V30 6045 H 584.829 0.663148 0.0336213 0
M  V30 6046 H 587.359 1.97758 -0.524689 0
M  V30 6047 H 587.369 3.98549 0.873073 0
M  V30 6048 H 586.044 4.15039 -0.267421 0
M  V30 6049 H 584.621 3.44663 1.42343 0
M  V30 6050 N 586.806 0.0935595 1.57322 0
M  V30 6051 C 588.054 -0.569383 1.93913 0
M  V30 6052 C 588.375 -1.68817 0.976009 0
M  V30 6053 O 587.645 -1.9588 0.0278099 0
M  V30 6054 H 586.225 -0.21332 0.715894 0
M  V30 6055 H 588.887 0.156531 1.9427 0
M  V30 6056 H 587.983 -0.980577 2.96296 0
M  V30 6057 N 588.284 -1.56567 -0.180126 0
M  V30 6058 C 589.531 -1.81492 -0.898167 0
M  V30 6059 C 589.859 -0.669225 -1.82624 0
M  V30 6060 O 589.114 0.344096 -1.92651 0
M  V30 6061 C 589.413 -3.1252 -1.73395 0
M  V30 6062 C 589.079 -4.40658 -0.955567 0
M  V30 6063 C 587.741 -4.75465 -0.740707 0
M  V30 6064 C 590.093 -5.19593 -0.408948 0
M  V30 6065 C 587.421 -5.86691 0.0320128 0
M  V30 6066 C 589.773 -6.31627 0.350638 0
M  V30 6067 C 588.437 -6.65007 0.576378 0
M  V30 6068 H 587.707 -0.664125 -0.328662 0
M  V30 6069 H 590.354 -1.908 -0.163616 0
M  V30 6070 H 588.659 -2.98515 -2.53763 0
M  V30 6071 H 590.356 -3.29013 -2.29241 0
M  V30 6072 H 586.946 -4.13352 -1.13306 0
M  V30 6073 H 591.13 -4.93104 -0.562307 0
M  V30 6074 H 586.386 -6.11016 0.216735 0
M  V30 6075 H 590.56 -6.92001 0.781497 0
M  V30 6076 H 588.187 -7.51033 1.17703 0
M  V30 6077 N 589.762 0.448376 -1.51087 0
M  V30 6078 C 591.008 1.20049 -1.6345 0
M  V30 6079 C 591.341 1.91121 -0.344444 0
M  V30 6080 O 590.616 1.83125 0.655396 0
M  V30 6081 C 590.899 2.22624 -2.83038 0
M  V30 6082 C 590.752 1.55708 -4.21989 0
M  V30 6083 C 592.071 3.23718 -2.98152 0
M  V30 6084 H 589.19 0.435085 -0.59487 0
M  V30 6085 H 591.832 0.491183 -1.83541 0
M  V30 6086 H 589.982 2.83117 -2.66039 0
M  V30 6087 H 591.654 0.986367 -4.50631 0
M  V30 6088 H 589.897 0.859647 -4.25197 0
M  V30 6089 H 590.568 2.30357 -5.01637 0
M  V30 6090 H 593.044 2.73269 -3.13788 0
M  V30 6091 H 591.92 3.92795 -3.83411 0
M  V30 6092 H 592.181 3.89179 -2.09743 0
M  V30 6093 N 591.24 1.41047 0.703093 0
M  V30 6094 C 592.465 1.43537 1.49706 0
M  V30 6095 C 592.89 0.0401853 1.88057 0
M  V30 6096 O 592.248 -0.954785 1.54122 0
M  V30 6097 C 592.296 2.3433 2.74084 0
M  V30 6098 O 591.4 1.79515 3.71279 0
M  V30 6099 H 590.741 0.487454 0.450871 0
M  V30 6100 H 593.271 1.85422 0.86486 0
M  V30 6101 H 593.281 2.49947 3.22476 0
M  V30 6102 H 591.956 3.35708 2.45506 0
M  V30 6103 H 590.533 1.7331 3.30179 0
M  V30 6104 N 592.718 -0.936591 1.26751 0
M  V30 6105 C 593.648 -2.05315 1.11212 0
M  V30 6106 C 594.629 -1.70092 0.0160262 0
M  V30 6107 O 595.814 -1.93279 0.188894 0
M  V30 6108 C 592.944 -3.39123 0.749171 0
M  V30 6109 C 591.898 -3.88425 1.79751 0
M  V30 6110 C 591.224 -5.18936 1.28876 0
M  V30 6111 C 592.524 -4.12798 3.19992 0
M  V30 6112 H 594.218 -2.18573 2.04613 0
M  V30 6113 H 591.764 -1.05027 0.985159 0
M  V30 6114 H 593.717 -4.16704 0.627323 0
M  V30 6115 H 592.441 -3.25855 -0.220543 0
M  V30 6116 H 591.1 -3.13028 1.90811 0
M  V30 6117 H 590.748 -5.02051 0.308757 0
M  V30 6118 H 590.448 -5.52892 1.98958 0
M  V30 6119 H 591.972 -5.99096 1.17967 0
M  V30 6120 H 593.386 -4.80977 3.11983 0
M  V30 6121 H 591.783 -4.58044 3.87705 0
M  V30 6122 H 592.853 -3.18412 3.65707 0
M  V30 6123 N 594.196 -1.08629 -1.14182 0
M  V30 6124 C 595.126 -0.740003 -2.21464 0
M  V30 6125 C 596.107 0.278591 -1.67803 0
M  V30 6126 O 597.292 0.148461 -1.93632 0
M  V30 6127 C 594.422 -0.150952 -3.46972 0
M  V30 6128 C 593.376 -1.09815 -4.13672 0
M  V30 6129 C 592.702 -0.3712 -5.3341 0
M  V30 6130 C 594.002 -2.43722 -4.61949 0
M  V30 6131 H 595.696 -1.63697 -2.50686 0
M  V30 6132 H 593.242 -0.788526 -1.20492 0
M  V30 6133 H 595.195 0.103325 -4.21273 0
M  V30 6134 H 593.919 0.781164 -3.1712 0
M  V30 6135 H 592.578 -1.33756 -3.41328 0
M  V30 6136 H 592.226 0.564792 -4.99819 0
M  V30 6137 H 591.926 -1.00267 -5.78982 0
M  V30 6138 H 593.45 -0.12503 -6.10472 0
M  V30 6139 H 594.864 -2.24034 -5.27714 0
M  V30 6140 H 593.261 -3.02582 -5.18232 0
M  V30 6141 H 594.331 -3.05082 -3.76899 0
M  V30 6142 N 595.674 1.31259 -0.872281 0
M  V30 6143 C 596.637 2.26744 -0.334656 0
M  V30 6144 C 597.637 1.52307 0.515681 0
M  V30 6145 O 598.827 1.71148 0.324656 0
M  V30 6146 C 595.959 3.36841 0.524482 0
M  V30 6147 H 597.152 2.75812 -1.17762 0
M  V30 6148 H 594.705 1.42232 -0.648064 0
M  V30 6149 H 595.44 2.93069 1.38855 0
M  V30 6150 H 595.225 3.92009 -0.0844299 0
M  V30 6151 H 596.715 4.07944 0.892838 0
M  V30 6152 N 597.152 0.631951 1.44375 0
M  V30 6153 C 598.563 0.219036 1.85411 0
M  V30 6154 C 598.914 -1.22974 1.52879 0
M  V30 6155 O 598.039 -1.93579 0.967266 0
M  V30 6156 C 598.634 0.39075 3.36539 0
M  V30 6157 C 597.193 0.0323351 3.76386 0
M  V30 6158 C 596.34 0.703744 2.68221 0
M  V30 6159 H 599.291 0.837056 1.3483 0
M  V30 6160 H 599.312 -0.370056 3.78696 0
M  V30 6161 H 598.824 1.44527 3.60185 0
M  V30 6162 H 596.925 -1.02042 3.58355 0
M  V30 6163 H 597.038 0.442969 4.77048 0
M  V30 6164 H 595.402 0.138974 2.54321 0
M  V30 6165 H 596.185 1.76088 2.947 0
M  V30 6166 N 598.631 -1.53133 0.372548 0
M  V30 6167 C 599.879 -2.00958 -0.214534 0
M  V30 6168 C 600.2 -1.26135 -1.48711 0
M  V30 6169 O 599.47 -0.376597 -1.92246 0
M  V30 6170 H 598.05 -0.742456 -0.0822664 0
M  V30 6171 H 600.712 -1.88367 0.500385 0
M  V30 6172 H 599.808 -3.09031 -0.436605 0
M  V30 6173 N 600.109 -0.101901 -1.5727 0
M  V30 6174 C 601.072 0.840129 -2.13247 0
M  V30 6175 C 602.072 1.20625 -1.06331 0
M  V30 6176 O 603.262 1.13456 -1.32186 0
M  V30 6177 C 600.394 2.13372 -2.65867 0
M  V30 6178 H 601.587 0.353945 -2.97804 0
M  V30 6179 H 599.14 0.147167 -1.55606 0
M  V30 6180 H 599.875 2.66461 -1.84849 0
M  V30 6181 H 599.66 1.88085 -3.44044 0
M  V30 6182 H 601.15 2.80748 -3.09145 0
M  V30 6183 N 601.587 1.56661 0.17182 0
M  V30 6184 C 602.534 1.96371 1.21273 0
M  V30 6185 C 603.504 0.82756 1.44016 0
M  V30 6186 O 604.689 1.08764 1.56764 0
M  V30 6187 C 601.829 2.32838 2.54716 0
M  V30 6188 C 600.942 3.59628 2.39356 0
M  V30 6189 C 600.077 3.85311 3.65662 0
M  V30 6190 C 599.116 5.0545 3.45234 0
M  V30 6191 N 598.253 5.27268 4.63608 0
M  V30 6192 H 603.093 2.85106 0.86709 0
M  V30 6193 H 600.63 1.41073 0.416744 0
M  V30 6194 H 602.588 2.52004 3.3249 0
M  V30 6195 H 601.218 1.47214 2.87277 0
M  V30 6196 H 600.27 3.4838 1.52761 0
M  V30 6197 H 601.582 4.4756 2.20207 0
M  V30 6198 H 600.736 4.04841 4.51872 0
M  V30 6199 H 599.475 2.95753 3.8779 0
M  V30 6200 H 598.48 4.85819 2.5741 0
M  V30 6201 H 599.705 5.96538 3.24529 0
M  V30 6202 H 597.651 4.40662 4.85956 0
M  V30 6203 H 597.568 6.09422 4.4737 0
M  V30 6204 H 598.836 5.51277 5.51103 0
M  V30 6205 N 603.065 -0.440357 1.51323 0
M  V30 6206 C 603.997 -1.55254 1.68609 0
M  V30 6207 C 605.01 -1.52614 0.566812 0
M  V30 6208 O 606.199 -1.57445 0.841032 0
M  V30 6209 C 603.299 -2.94169 1.68279 0
M  V30 6210 C 602.472 -3.21346 2.96742 0
M  V30 6211 C 601.531 -4.3997 2.8864 0
M  V30 6212 O 600.557 -4.38771 3.62586 0
M  V30 6213 N 601.759 -5.43367 2.04285 0
M  V30 6214 H 604.524 -1.40831 2.6455 0
M  V30 6215 H 602.085 -0.629251 1.49171 0
M  V30 6216 H 604.077 -3.71543 1.60431 0
M  V30 6217 H 602.647 -3.02205 0.799441 0
M  V30 6218 H 601.867 -2.32299 3.18482 0
M  V30 6219 H 603.155 -3.3633 3.81785 0
M  V30 6220 H 602.553 -5.47176 1.43578 0
M  V30 6221 H 601.11 -6.19605 2.02318 0
M  V30 6222 N 604.543 -1.41418 -0.695603 0
M  V30 6223 C 605.491 -1.43467 -1.83084 0
M  V30 6224 C 606.485 -0.312719 -1.66489 0
M  V30 6225 O 607.691 -0.484744 -1.7335 0
M  V30 6226 H 604.066 -0.448891 -0.603325 0
M  V30 6227 H 606.037 -2.39144 -1.78473 0
M  V30 6228 C 604.786 -1.3337 -3.21104 0
M  V30 6229 H 604.109 -2.18989 -3.3449 0
M  V30 6230 H 605.549 -1.38865 -4.00615 0
M  V30 6231 C 604.008 -0.0460484 -3.36869 0
M  V30 6232 O 604.538 0.909258 -3.91274 0
M  V30 6233 N 602.744 0.0300222 -2.90584 0
M  V30 6234 H 602.291 -0.748129 -2.46497 0
M  V30 6235 H 602.249 0.890991 -3.01511 0
M  V30 6236 N 606.021 0.929856 -1.27246 0
M  V30 6237 C 607.267 1.6798 -1.13625 0
M  V30 6238 C 607.6 1.91586 0.317589 0
M  V30 6239 O 606.875 1.50467 1.23247 0
M  V30 6240 C 607.158 3.04766 -1.91806 0
M  V30 6241 C 607.011 2.88415 -3.45162 0
M  V30 6242 C 608.33 4.05063 -1.72082 0
M  V30 6243 H 605.449 0.609632 -0.414147 0
M  V30 6244 H 608.091 1.0792 -1.56376 0
M  V30 6245 H 606.241 3.56034 -1.55474 0
M  V30 6246 H 607.913 2.44282 -3.91311 0
M  V30 6247 H 606.156 2.23802 -3.71611 0
M  V30 6248 H 606.827 3.85482 -3.95105 0
M  V30 6249 H 609.303 3.62798 -2.03757 0
M  V30 6250 H 608.179 4.98765 -2.29182 0
M  V30 6251 H 608.44 4.37021 -0.668206 0
M  V30 6252 N 607.499 1.09233 1.13605 0
M  V30 6253 C 608.431 0.687794 2.18637 0
M  V30 6254 C 609.444 -0.26936 1.60556 0
M  V30 6255 O 610.633 -0.0557162 1.78413 0
M  V30 6256 C 607.733 -0.00751901 3.38899 0
M  V30 6257 C 606.906 0.97067 4.26494 0
M  V30 6258 C 605.965 0.309129 5.25291 0
M  V30 6259 O 604.991 0.956149 5.61112 0
M  V30 6260 N 606.193 -0.937555 5.72879 0
M  V30 6261 H 608.958 1.59141 2.53957 0
M  V30 6262 H 606.519 0.979515 1.28907 0
M  V30 6263 H 608.511 -0.461238 4.02063 0
M  V30 6264 H 607.081 -0.813353 3.01833 0
M  V30 6265 H 606.301 1.603 3.60135 0
M  V30 6266 H 607.589 1.63323 4.81875 0
M  V30 6267 H 606.987 -1.48281 5.4592 0
M  V30 6268 H 605.544 -1.33463 6.3799 0
M  V30 6269 N 608.977 -1.30795 0.87923 0
M  V30 6270 C 609.907 -2.30742 0.357796 0
M  V30 6271 C 610.888 -1.60747 -0.556283 0
M  V30 6272 O 612.073 -1.88393 -0.47135 0
M  V30 6273 C 609.203 -3.44583 -0.433555 0
M  V30 6274 C 608.157 -4.26235 0.388251 0
M  V30 6275 C 607.483 -5.32073 -0.529352 0
M  V30 6276 C 608.783 -4.96303 1.62729 0
M  V30 6277 H 610.477 -2.74605 1.19299 0
M  V30 6278 H 608.023 -1.32017 0.575104 0
M  V30 6279 H 609.976 -4.13563 -0.808934 0
M  V30 6280 H 608.7 -2.99511 -1.30234 0
M  V30 6281 H 607.359 -3.58936 0.745695 0
M  V30 6282 H 607.007 -4.83249 -1.39569 0
M  V30 6283 H 606.707 -5.87598 0.0166741 0
M  V30 6284 H 608.231 -6.0391 -0.901373 0
M  V30 6285 H 609.645 -5.5783 1.32283 0
M  V30 6286 H 608.042 -5.61666 2.11309 0
M  V30 6287 H 609.112 -4.22758 2.37494 0
M  V30 6288 N 610.455 -0.639598 -1.44038 0
M  V30 6289 C 611.704 -0.144885 -2.01179 0
M  V30 6290 C 612.017 1.24372 -1.50967 0
M  V30 6291 O 613.223 1.83291 -2.00292 0
M  V30 6292 C 611.679 -0.208244 -3.59297 0
M  V30 6293 C 611.287 -1.59869 -4.18504 0
M  V30 6294 C 613.031 0.229568 -4.23879 0
M  V30 6295 C 610.938 -1.61671 -5.68873 0
M  V30 6296 H 609.868 -0.0504005 -0.752314 0
M  V30 6297 H 612.519 -0.799639 -1.65161 0
M  V30 6298 H 610.901 0.513767 -3.92653 0
M  V30 6299 H 612.075 -2.34496 -3.96671 0
M  V30 6300 H 610.39 -1.98131 -3.66242 0
M  V30 6301 H 612.987 0.235758 -5.3418 0
M  V30 6302 H 613.33 1.25848 -3.96822 0
M  V30 6303 H 613.863 -0.440233 -3.95357 0
M  V30 6304 H 610.602 -2.62427 -6.00677 0
M  V30 6305 H 610.122 -0.913489 -5.92803 0
M  V30 6306 H 611.801 -1.35439 -6.32665 0
M  V30 6307 N 611.933 1.52934 -0.380664 0
M  V30 6308 C 612.881 2.27727 0.47361 0
M  V30 6309 C 613.875 1.31288 1.0705 0
M  V30 6310 O 615.081 1.4886 1.01197 0
M  V30 6311 H 611.456 0.732189 0.171475 0
M  V30 6312 H 613.427 2.97864 -0.178785 0
M  V30 6313 C 612.176 3.0904 1.59341 0
M  V30 6314 H 611.499 3.831 1.14343 0
M  V30 6315 H 612.939 3.64527 2.16555 0
M  V30 6316 C 611.398 2.20813 2.54447 0
M  V30 6317 O 611.928 1.82907 3.57642 0
M  V30 6318 N 610.134 1.85145 2.23986 0
M  V30 6319 H 609.681 2.16169 1.40103 0
M  V30 6320 H 609.639 1.26402 2.87871 0
M  V30 6321 N 613.412 0.11024 1.57214 0
M  V30 6322 C 614.64 -0.557834 1.99238 0
M  V30 6323 C 615.055 -1.60778 0.989734 0
M  V30 6324 O 614.412 -1.82491 -0.0186092 0
M  V30 6325 C 614.463 -1.19189 3.41286 0
M  V30 6326 O 614.184 -0.183919 4.37714 0
M  V30 6327 C 615.685 -1.94413 3.98395 0
M  V30 6328 H 612.905 -0.148392 0.654386 0
M  V30 6329 H 615.449 0.193996 2.03578 0
M  V30 6330 H 613.604 -1.89456 3.37913 0
M  V30 6331 H 614.018 -0.643475 5.20538 0
M  V30 6332 H 615.492 -2.34116 4.99894 0
M  V30 6333 H 615.969 -2.81592 3.3705 0
M  V30 6334 H 616.575 -1.28928 4.05287 0
M  V30 6335 N 614.89 -1.56749 -0.16351 0
M  V30 6336 C 615.838 -1.97939 -1.22159 0
M  V30 6337 C 616.832 -0.869288 -1.45395 0
M  V30 6338 O 618.038 -1.05443 -1.45883 0
M  V30 6339 H 614.413 -0.629869 -0.410815 0
M  V30 6340 H 616.384 -2.86115 -0.847381 0
M  V30 6341 C 615.133 -2.36206 -2.55151 0
M  V30 6342 H 614.456 -3.2117 -2.38097 0
M  V30 6343 H 615.896 -2.68863 -3.27854 0
M  V30 6344 C 614.355 -1.20841 -3.14482 0
M  V30 6345 O 614.885 -0.500258 -3.98573 0
M  V30 6346 N 613.091 -0.976943 -2.73686 0
M  V30 6347 H 612.638 -1.55457 -2.05404 0
M  V30 6348 H 612.596 -0.206912 -3.13718 0
M  V30 6349 N 616.368 0.432326 -1.51554 0
M  V30 6350 C 617.616 1.17901 -1.64146 0
M  V30 6351 C 617.937 1.91604 -0.362367 0
M  V30 6352 O 617.207 1.85764 0.621968 0
M  V30 6353 H 615.787 0.438206 -0.604966 0
M  V30 6354 H 618.449 0.495172 -1.88505 0
M  V30 6355 H 617.545 1.90584 -2.47152 0
M  V30 6356 N 617.846 1.41785 0.688094 0
M  V30 6357 C 619.071 1.45117 1.48175 0
M  V30 6358 C 619.496 0.060129 1.88004 0
M  V30 6359 O 618.854 -0.938385 1.55126 0
M  V30 6360 C 618.902 2.37224 2.71583 0
M  V30 6361 O 618.006 1.83443 3.69354 0
M  V30 6362 H 617.347 0.492208 0.445676 0
M  V30 6363 H 619.877 1.86329 0.845145 0
M  V30 6364 H 619.887 2.53353 3.19806 0
M  V30 6365 H 618.562 3.38293 2.41931 0
M  V30 6366 H 617.139 1.76802 3.28322 0
M  V30 6367 N 619.324 -0.923095 1.27737 0
M  V30 6368 C 620.57 -1.67409 1.15524 0
M  V30 6369 C 620.925 -1.90124 -0.295072 0
M  V30 6370 O 620.218 -1.48382 -1.21216 0
M  V30 6371 C 620.412 -3.04125 1.8773 0
M  V30 6372 C 620.241 -2.94752 3.39634 0
M  V30 6373 C 619.011 -2.96783 4.0896 0
M  V30 6374 C 621.209 -2.73524 4.35533 0
M  V30 6375 N 619.191 -2.779 5.47398 0
M  V30 6376 C 620.562 -2.63391 5.61271 0
M  V30 6377 C 622.617 -2.58447 4.2557 0
M  V30 6378 C 621.32 -2.3972 6.78179 0
M  V30 6379 C 623.346 -2.36154 5.42204 0
M  V30 6380 C 622.708 -2.26768 6.669 0
M  V30 6381 H 618.807 -0.619196 0.477619 0
M  V30 6382 H 621.391 -1.09094 1.61266 0
M  V30 6383 H 619.562 -3.60545 1.44436 0
M  V30 6384 H 621.294 -3.6819 1.67982 0
M  V30 6385 H 618.049 -3.07186 3.60463 0
M  V30 6386 H 618.473 -2.71576 6.20141 0
M  V30 6387 H 623.115 -2.6446 3.2988 0
M  V30 6388 H 620.833 -2.32447 7.73947 0
M  V30 6389 H 624.419 -2.25367 5.36378 0
M  V30 6390 H 623.299 -2.09751 7.55628 0
M  V30 6391 N 620.802 -1.09834 -1.13024 0
M  V30 6392 C 621.752 -0.710899 -2.16634 0
M  V30 6393 C 622.736 0.276836 -1.58501 0
M  V30 6394 O 623.928 0.0865457 -1.76788 0
M  V30 6395 C 621.057 -0.137574 -3.43024 0
M  V30 6396 C 620.143 -1.15198 -4.08155 0
M  V30 6397 N 620.534 -2.34054 -4.48388 0
M  V30 6398 C 618.832 -0.991074 -4.34849 0
M  V30 6399 C 619.533 -2.98616 -4.99203 0
M  V30 6400 N 618.509 -2.26159 -4.94321 0
M  V30 6401 H 622.311 -1.61576 -2.455 0
M  V30 6402 H 619.825 -0.975158 -1.29863 0
M  V30 6403 H 621.822 0.158031 -4.166 0
M  V30 6404 H 620.482 0.762088 -3.1563 0
M  V30 6405 H 621.493 -2.7162 -4.40957 0
M  V30 6406 H 618.17 -0.146448 -4.17243 0
M  V30 6407 H 619.56 -3.99683 -5.40096 0
M  V30 6408 N 622.28 1.30327 -0.886154 0
M  V30 6409 C 623.21 2.30549 -0.370028 0
M  V30 6410 C 624.191 1.61039 0.547751 0
M  V30 6411 O 625.376 1.8864 0.461353 0
M  V30 6412 C 622.506 3.44808 0.415275 0
M  V30 6413 C 621.46 4.26024 -0.41085 0
M  V30 6414 C 620.786 5.32347 0.501128 0
M  V30 6415 C 622.086 4.95433 -1.65359 0
M  V30 6416 H 623.78 2.73969 -1.20754 0
M  V30 6417 H 621.326 1.3171 -0.582097 0
M  V30 6418 H 623.279 4.13986 0.78699 0
M  V30 6419 H 622.003 3.00197 1.28644 0
M  V30 6420 H 620.662 3.58535 -0.764719 0
M  V30 6421 H 620.31 4.83982 1.37004 0
M  V30 6422 H 620.01 5.87581 -0.0478356 0
M  V30 6423 H 621.534 6.0438 0.869333 0
M  V30 6424 H 622.948 5.5712 -1.35239 0
M  V30 6425 H 621.345 5.60537 -2.14284 0
M  V30 6426 H 622.415 4.21493 -2.39733 0
M  V30 6427 N 623.758 0.647228 1.43697 0
M  V30 6428 C 624.706 -0.0600105 2.32523 0
M  V30 6429 C 625.7 -0.819277 1.48271 0
M  V30 6430 O 626.906 -0.730356 1.64517 0
M  V30 6431 H 623.281 -0.0381872 0.75103 0
M  V30 6432 H 625.252 0.706978 2.89904 0
M  V30 6433 C 624.001 -1.0169 3.32497 0
M  V30 6434 H 623.324 -0.442083 3.97348 0
M  V30 6435 H 624.764 -1.48095 3.97296 0
M  V30 6436 C 623.223 -2.11002 2.6264 0
M  V30 6437 O 623.753 -3.19302 2.4374 0
M  V30 6438 N 621.959 -1.87388 2.22113 0
M  V30 6439 H 621.506 -0.993174 2.37684 0
M  V30 6440 H 621.464 -2.60723 1.75701 0
M  V30 6441 N 625.236 -1.5273 0.388769 0
M  V30 6442 C 626.461 -2.0647 -0.19621 0
M  V30 6443 C 626.886 -1.25865 -1.39784 0
M  V30 6444 O 626.244 -0.283562 -1.79069 0
M  V30 6445 C 626.292 -3.56456 -0.5451 0
M  V30 6446 O 625.396 -3.78426 -1.63912 0
M  V30 6447 H 624.737 -0.663599 -0.023067 0
M  V30 6448 H 627.267 -1.96898 0.556084 0
M  V30 6449 H 627.277 -3.99888 -0.809557 0
M  V30 6450 H 625.952 -4.14561 0.333417 0
M  V30 6451 H 624.529 -3.46884 -1.36842 0
M  V30 6452 N 626.714 -0.118576 -1.57153 0
M  V30 6453 C 627.942 0.54726 -1.99531 0
M  V30 6454 C 628.357 1.60251 -0.998246 0
M  V30 6455 O 627.714 1.82498 0.00893106 0
M  V30 6456 C 627.765 1.17378 -3.41913 0
M  V30 6457 O 627.486 0.160703 -4.37805 0
M  V30 6458 C 628.987 1.92297 -3.9942 0
M  V30 6459 H 626.207 0.144919 -0.655164 0
M  V30 6460 H 628.751 -0.20479 -2.03472 0
M  V30 6461 H 626.906 1.87661 -3.38913 0
M  V30 6462 H 627.32 0.61586 -5.20872 0
M  V30 6463 H 628.794 2.31462 -5.01128 0
M  V30 6464 H 629.271 2.79801 -3.38538 0
M  V30 6465 H 629.877 1.26777 -4.05965 0
M  V30 6466 N 628.193 1.56834 0.155195 0
M  V30 6467 C 629.156 1.96748 1.17571 0
M  V30 6468 C 630.156 0.853006 1.3631 0
M  V30 6469 O 631.346 1.11978 1.33441 0
M  V30 6470 C 628.478 2.27631 2.53765 0
M  V30 6471 H 629.671 2.88085 0.833498 0
M  V30 6472 H 627.224 1.51141 0.398242 0
M  V30 6473 H 627.959 1.39059 2.92973 0
M  V30 6474 H 627.744 3.0888 2.41527 0
M  V30 6475 H 629.234 2.59377 3.27282 0
M  V30 6476 N 629.671 -0.424282 1.51781 0
M  V30 6477 C 630.601 -1.52305 1.7699 0
M  V30 6478 C 631.582 -1.5839 0.620209 0
M  V30 6479 O 632.767 -1.73908 0.864268 0
M  V30 6480 C 629.897 -2.90271 1.90683 0
M  V30 6481 C 628.851 -2.99043 3.06198 0
M  V30 6482 C 628.177 -4.39116 3.05092 0
M  V30 6483 C 629.477 -2.7192 4.45934 0
M  V30 6484 H 631.171 -1.31461 2.68995 0
M  V30 6485 H 628.717 -0.630985 1.29439 0
M  V30 6486 H 630.67 -3.6711 2.06901 0
M  V30 6487 H 629.394 -3.12376 0.953365 0
M  V30 6488 H 628.053 -2.24646 2.89706 0
M  V30 6489 H 627.701 -4.58207 2.07498 0
M  V30 6490 H 627.401 -4.45912 3.82669 0
M  V30 6491 H 628.925 -5.17911 3.2342 0
M  V30 6492 H 630.339 -3.38487 4.62709 0
M  V30 6493 H 628.736 -2.90111 5.25315 0
M  V30 6494 H 629.806 -1.67445 4.55072 0
M  V30 6495 N 631.149 -1.42148 -0.680565 0
M  V30 6496 C 632.097 -1.45401 -1.81552 0
M  V30 6497 C 633.091 -0.33036 -1.66147 0
M  V30 6498 O 634.297 -0.503103 -1.72826 0
M  V30 6499 H 630.672 -0.455265 -0.59853 0
M  V30 6500 H 632.643 -2.41024 -1.75926 0
M  V30 6501 C 631.392 -1.36769 -3.19671 0
M  V30 6502 H 630.715 -2.22525 -3.32149 0
M  V30 6503 H 632.155 -1.43106 -3.9912 0
M  V30 6504 C 630.614 -0.0817752 -3.36801 0
M  V30 6505 O 631.144 0.867707 -3.92216 0
M  V30 6506 N 629.35 -0.000799811 -2.906 0
M  V30 6507 H 628.897 -0.774231 -2.4569 0
M  V30 6508 H 628.855 0.858961 -3.02439 0
M  V30 6509 N 632.627 0.916307 -1.28225 0
M  V30 6510 C 633.867 1.67964 -1.16479 0
M  V30 6511 C 634.231 1.8991 0.282494 0
M  V30 6512 O 635.432 2.63671 0.522607 0
M  V30 6513 C 633.703 3.00251 -1.93866 0
M  V30 6514 S 635.262 3.91353 -1.98465 0
M  V30 6515 H 632.08 0.576873 -0.415619 0
M  V30 6516 H 634.682 1.09006 -1.62289 0
M  V30 6517 H 633.386 2.81978 -2.98189 0
M  V30 6518 H 632.917 3.64257 -1.48595 0
M  V30 6519 H 634.932 4.84096 -1.0893 0
M  V30 6520 N 634.105 1.10431 1.1244 0
M  V30 6521 C 635.053 0.747974 2.20246 0
M  V30 6522 C 636.047 -0.255848 1.67457 0
M  V30 6523 O 637.253 -0.116221 1.79624 0
M  V30 6524 H 633.628 0.223946 0.71788 0
M  V30 6525 H 635.599 1.6661 2.47556 0
M  V30 6526 C 634.348 0.195957 3.47147 0
M  V30 6527 H 633.671 0.959606 3.88113 0
M  V30 6528 H 635.111 -0.0153154 4.23997 0
M  V30 6529 C 633.57 -1.07132 3.19413 0
M  V30 6530 O 634.1 -2.15284 3.3914 0
M  V30 6531 N 632.306 -0.98994 2.73219 0
M  V30 6532 H 631.853 -0.109736 2.57366 0
M  V30 6533 H 631.811 -1.83856 2.55038 0
M  V30 6534 N 635.583 -1.29855 0.893053 0
M  V30 6535 C 636.86 -1.90694 0.435336 0
M  V30 6536 C 637.24 -1.8111 -1.08454 0
M  V30 6537 O 636.588 -1.23352 -1.92345 0
M  V30 6538 C 636.798 -3.36033 0.942472 0
M  V30 6539 C 638.146 -4.13083 0.982226 0
M  V30 6540 O 639.17 -3.4491 0.889686 0
M  V30 6541 O 638.029 -5.34896 1.12022 0
M  V30 6542 H 635.123 -0.815978 0.134567 0
M  V30 6543 H 637.669 -1.38367 0.982484 0
M  V30 6544 H 636.441 -3.37132 1.9864 0
M  V30 6545 H 636.064 -3.95828 0.374952 0
M  V30 6546 N 637.061 -0.65484 -1.43351 0
M  V30 6547 C 638.286 -0.175046 -2.0666 0
M  V30 6548 C 638.711 1.15104 -1.4877 0
M  V30 6549 O 638.069 1.71144 -0.598279 0
M  V30 6550 C 638.117 -0.0991544 -3.60464 0
M  V30 6551 O 637.221 0.938169 -4.01587 0
M  V30 6552 H 636.562 -0.0956148 -0.65708 0
M  V30 6553 H 639.092 -0.898222 -1.83829 0
M  V30 6554 H 639.102 0.083632 -4.07914 0
M  V30 6555 H 637.777 -1.06719 -4.01975 0
M  V30 6556 H 636.354 0.72804 -3.65724 0
M  V30 6557 N 638.539 1.52521 -0.396863 0
M  V30 6558 C 639.469 2.29582 0.425941 0
M  V30 6559 C 640.45 1.33281 1.05689 0
M  V30 6560 O 641.635 1.62181 1.06823 0
M  V30 6561 C 638.765 3.10821 1.54943 0
M  V30 6562 C 637.719 4.15069 1.04413 0
M  V30 6563 C 637.045 4.84578 2.26028 0
M  V30 6564 C 638.345 5.22191 0.106767 0
M  V30 6565 H 640.039 2.98612 -0.217045 0
M  V30 6566 H 637.585 1.43611 -0.105826 0
M  V30 6567 H 639.538 3.63492 2.13193 0
M  V30 6568 H 638.262 2.39538 2.22011 0
M  V30 6569 H 636.921 3.63389 0.484118 0
M  V30 6570 H 636.569 4.09835 2.91623 0
M  V30 6571 H 636.269 5.55043 1.92876 0
M  V30 6572 H 637.793 5.40056 2.84906 0
M  V30 6573 H 639.207 5.70176 0.597685 0
M  V30 6574 H 637.604 5.99947 -0.135352 0
M  V30 6575 H 638.674 4.77531 -0.842134 0
M  V30 6576 N 640.017 0.126909 1.57088 0
M  V30 6577 C 640.965 -0.837618 2.16995 0
M  V30 6578 C 641.959 -1.26974 1.12133 0
M  V30 6579 O 643.165 -1.24056 1.30423 0
M  V30 6580 H 639.54 -0.288256 0.694559 0
M  V30 6581 H 641.511 -0.307957 2.96807 0
M  V30 6582 C 640.26 -2.07474 2.79016 0
M  V30 6583 H 639.583 -1.75117 3.59408 0
M  V30 6584 H 641.023 -2.72949 3.24461 0
M  V30 6585 C 639.482 -2.86967 1.76498 0
M  V30 6586 O 640.012 -3.82625 1.22316 0
M  V30 6587 N 638.218 -2.51111 1.46258 0
M  V30 6588 H 637.765 -1.73389 1.90509 0
M  V30 6589 H 637.723 -3.04594 0.779085 0
M  V30 6590 N 641.495 -1.56914 -0.146875 0
M  V30 6591 C 642.723 -1.87515 -0.874394 0
M  V30 6592 C 643.138 -0.715116 -1.74733 0
M  V30 6593 O 642.495 0.315113 -1.79759 0
M  V30 6594 C 642.546 -3.17362 -1.731 0
M  V30 6595 O 642.267 -4.28897 -0.893245 0
M  V30 6596 C 643.768 -3.61479 -2.56609 0
M  V30 6597 H 640.988 -0.621546 -0.252827 0
M  V30 6598 H 643.532 -2.04023 -0.139627 0
M  V30 6599 H 641.687 -3.02608 -2.41883 0
M  V30 6600 H 642.101 -5.03146 -1.48137 0
M  V30 6601 H 643.575 -4.5517 -3.12289 0
M  V30 6602 H 644.052 -2.86773 -3.32653 0
M  V30 6603 H 644.658 -3.78927 -1.93117 0
M  V30 6604 N 642.974 0.416227 -1.52004 0
M  V30 6605 C 644.222 1.16153 -1.65387 0
M  V30 6606 C 644.543 1.91208 -0.382669 0
M  V30 6607 O 643.813 1.86413 0.602231 0
M  V30 6608 H 642.393 0.431765 -0.60958 0
M  V30 6609 H 645.055 0.475151 -1.89019 0
M  V30 6610 H 644.151 1.87952 -2.4916 0
M  V30 6611 N 644.452 1.42507 0.673017 0
M  V30 6612 C 645.698 1.44282 1.43367 0
M  V30 6613 C 646.053 0.0588239 1.9231 0
M  V30 6614 O 645.346 -0.919288 1.68106 0
M  V30 6615 C 645.54 2.40351 2.64511 0
M  V30 6616 C 645.369 3.87955 2.27423 0
M  V30 6617 C 644.139 4.56476 2.16697 0
M  V30 6618 C 646.337 4.7833 1.88957 0
M  V30 6619 N 644.319 5.89099 1.72731 0
M  V30 6620 C 645.69 6.00073 1.55923 0
M  V30 6621 C 647.745 4.65769 1.75965 0
M  V30 6622 C 646.448 7.10652 1.112 0
M  V30 6623 C 648.474 5.76332 1.32647 0
M  V30 6624 C 647.836 6.97188 1.00538 0
M  V30 6625 H 643.935 0.583134 0.521036 0
M  V30 6626 H 646.519 1.78547 0.776481 0
M  V30 6627 H 644.69 2.08145 3.27918 0
M  V30 6628 H 646.422 2.32694 3.31113 0
M  V30 6629 H 643.177 4.10712 2.35823 0
M  V30 6630 H 643.601 6.59446 1.53166 0
M  V30 6631 H 648.243 3.72808 1.99435 0
M  V30 6632 H 645.961 8.0346 0.864768 0
M  V30 6633 H 649.547 5.68625 1.23112 0
M  V30 6634 H 648.427 7.81287 0.675283 0
M  V30 6635 N 645.93 -0.909495 1.28709 0
M  V30 6636 C 646.86 -2.0291 1.15542 0
M  V30 6637 C 647.841 -1.7002 0.0521017 0
M  V30 6638 O 649.026 -1.92835 0.229849 0
M  V30 6639 C 646.156 -3.37458 0.820935 0
M  V30 6640 C 645.11 -3.84524 1.87949 0
M  V30 6641 C 644.436 -5.16086 1.39854 0
M  V30 6642 C 645.736 -4.05918 3.28676 0
M  V30 6643 H 647.43 -2.14183 2.09203 0
M  V30 6644 H 644.976 -1.02913 1.00722 0
M  V30 6645 H 646.929 -4.1528 0.715571 0
M  V30 6646 H 645.653 -3.26249 -0.151374 0
M  V30 6647 H 644.312 -3.08911 1.97408 0
M  V30 6648 H 643.96 -5.01284 0.41518 0
M  V30 6649 H 643.66 -5.48547 2.1064 0
M  V30 6650 H 645.184 -5.96459 1.30649 0
M  V30 6651 H 646.598 -4.74252 3.22115 0
M  V30 6652 H 644.995 -4.49717 3.97334 0
M  V30 6653 H 646.065 -3.10583 3.72379 0
M  V30 6654 N 647.408 -1.11026 -1.11852 0
M  V30 6655 C 648.371 -0.768006 -2.1595 0
M  V30 6656 C 649.371 0.210538 -1.59416 0
M  V30 6657 O 650.561 -0.0133978 -1.74195 0
M  V30 6658 C 647.693 -0.138678 -3.40618 0
M  V30 6659 H 648.886 -1.69012 -2.4774 0
M  V30 6660 H 646.439 -0.911578 -1.26964 0
M  V30 6661 H 647.174 0.793872 -3.14433 0
M  V30 6662 H 646.959 -0.843012 -3.8293 0
M  V30 6663 H 648.449 0.0848039 -4.17514 0
M  V30 6664 N 648.886 1.2938 -0.899927 0
M  V30 6665 C 650.134 1.95164 -0.524924 0
M  V30 6666 C 650.455 1.71292 0.931888 0
M  V30 6667 O 649.725 1.04481 1.65712 0
M  V30 6668 H 648.305 0.722133 -0.191135 0
M  V30 6669 H 650.967 1.57628 -1.14627 0
M  V30 6670 H 650.063 3.0397 -0.707711 0
M  V30 6671 N 650.364 0.662433 1.43002 0
M  V30 6672 C 651.294 -0.00979809 2.33498 0
M  V30 6673 C 652.275 -0.802329 1.49989 0
M  V30 6674 O 653.46 -0.761964 1.78627 0
M  V30 6675 C 650.59 -0.970446 3.33466 0
M  V30 6676 C 649.544 -0.287383 4.27034 0
M  V30 6677 C 648.87 -1.36012 5.17112 0
M  V30 6678 C 650.17 0.82595 5.15728 0
M  V30 6679 H 651.864 0.745959 2.89958 0
M  V30 6680 H 649.41 0.360172 1.39423 0
M  V30 6681 H 651.363 -1.44971 3.95679 0
M  V30 6682 H 650.087 -1.75748 2.75282 0
M  V30 6683 H 648.746 0.17152 3.66199 0
M  V30 6684 H 648.394 -2.13882 4.55262 0
M  V30 6685 H 648.094 -0.908276 5.80538 0
M  V30 6686 H 649.618 -1.84056 5.82199 0
M  V30 6687 H 651.032 0.42845 5.71697 0
M  V30 6688 H 649.429 1.20282 5.87922 0
M  V30 6689 H 650.499 1.68003 4.54866 0
M  V30 6690 N 651.842 -1.52309 0.404946 0
M  V30 6691 C 653.089 -2.01767 -0.1722 0
M  V30 6692 C 653.417 -1.29075 -1.45498 0
M  V30 6693 O 652.672 -0.3843 -1.9189 0
M  V30 6694 C 652.971 -3.54284 -0.470895 0
M  V30 6695 C 652.637 -4.45079 0.722194 0
M  V30 6696 C 651.299 -4.69617 1.04946 0
M  V30 6697 C 653.651 -4.98555 1.51962 0
M  V30 6698 C 650.979 -5.44878 2.17543 0
M  V30 6699 C 653.331 -5.75049 2.63632 0
M  V30 6700 C 651.995 -5.9786 2.9685 0
M  V30 6701 H 651.265 -0.738316 -0.0630125 0
M  V30 6702 H 653.912 -1.83566 0.545506 0
M  V30 6703 H 652.217 -3.70642 -1.27012 0
M  V30 6704 H 653.914 -3.90058 -0.930346 0
M  V30 6705 H 650.504 -4.26155 0.457131 0
M  V30 6706 H 654.688 -4.79509 1.28002 0
M  V30 6707 H 649.944 -5.60762 2.43631 0
M  V30 6708 H 654.118 -6.15483 3.25813 0
M  V30 6709 H 651.745 -6.5596 3.84215 0
M  V30 6710 N 653.32 -0.135238 -1.57019 0
M  V30 6711 C 654.55 0.525303 -1.9981 0
M  V30 6712 C 654.958 1.59724 -1.01415 0
M  V30 6713 O 654.301 1.837 -0.00130938 0
M  V30 6714 C 654.363 1.19578 -3.3903 0
M  V30 6715 C 654.027 0.269855 -4.56203 0
M  V30 6716 C 655.024 -0.497905 -5.1751 0
M  V30 6717 C 652.709 0.176188 -5.01991 0
M  V30 6718 C 654.703 -1.3469 -6.23007 0
M  V30 6719 C 652.39 -0.676422 -6.07345 0
M  V30 6720 C 653.388 -1.43658 -6.67721 0
M  V30 6721 O 653.076 -2.27501 -7.71037 0
M  V30 6722 H 652.808 0.142296 -0.660854 0
M  V30 6723 H 655.362 -0.223272 -2.04183 0
M  V30 6724 H 653.592 1.99176 -3.3146 0
M  V30 6725 H 655.281 1.75486 -3.66005 0
M  V30 6726 H 656.047 -0.435507 -4.83041 0
M  V30 6727 H 651.926 0.757583 -4.54733 0
M  V30 6728 H 655.47 -1.9407 -6.70062 0
M  V30 6729 H 651.367 -0.740154 -6.41243 0
M  V30 6730 H 652.135 -2.20619 -7.88206 0
M  V30 6731 N 654.798 1.5699 0.138552 0
M  V30 6732 C 655.748 1.9532 1.17619 0
M  V30 6733 C 656.732 0.825545 1.38107 0
M  V30 6734 O 657.924 1.08908 1.39528 0
M  V30 6735 C 655.053 2.34451 2.50774 0
M  V30 6736 C 654.139 3.53805 2.33844 0
M  V30 6737 N 654.53 4.70088 1.86685 0
M  V30 6738 C 652.828 3.59055 2.64567 0
M  V30 6739 C 653.529 5.52165 1.82998 0
M  V30 6740 N 652.505 4.94108 2.26624 0
M  V30 6741 H 656.307 2.82694 0.803809 0
M  V30 6742 H 653.821 1.5866 0.346519 0
M  V30 6743 H 655.818 2.60119 3.25797 0
M  V30 6744 H 654.478 1.48431 2.88788 0
M  V30 6745 H 655.489 4.93681 1.56523 0
M  V30 6746 H 652.166 2.83596 3.06398 0
M  V30 6747 H 653.556 6.55407 1.47957 0
M  V30 6748 N 656.276 -0.40816 1.52223 0
M  V30 6749 C 657.226 -1.49648 1.72016 0
M  V30 6750 C 658.21 -1.50311 0.574069 0
M  V30 6751 O 659.402 -1.56271 0.831173 0
M  V30 6752 C 656.531 -2.87566 1.87512 0
M  V30 6753 C 655.617 -2.91547 3.07995 0
M  V30 6754 N 656.008 -2.65225 4.30685 0
M  V30 6755 C 654.306 -3.22715 3.07849 0
M  V30 6756 C 655.007 -2.75799 5.12162 0
M  V30 6757 N 653.983 -3.08719 4.4743 0
M  V30 6758 H 657.785 -1.28093 2.64517 0
M  V30 6759 H 655.299 -0.61588 1.50269 0
M  V30 6760 H 657.296 -3.65899 1.99809 0
M  V30 6761 H 655.956 -3.10118 0.962114 0
M  V30 6762 H 656.967 -2.39601 4.59142 0
M  V30 6763 H 653.644 -3.50856 2.26289 0
M  V30 6764 H 655.034 -2.59155 6.1991 0
M  V30 6765 N 657.755 -1.42862 -0.66545 0
M  V30 6766 C 658.702 -1.4707 -1.77874 0
M  V30 6767 C 659.672 -0.321654 -1.62956 0
M  V30 6768 O 660.857 -0.52707 -1.83376 0
M  V30 6769 C 657.997 -1.38788 -3.15962 0
M  V30 6770 C 657.11 -2.63801 -3.42101 0
M  V30 6771 C 656.245 -2.47594 -4.69969 0
M  V30 6772 C 655.284 -3.67936 -4.89172 0
M  V30 6773 N 654.421 -3.50614 -6.08288 0
M  V30 6774 H 659.261 -2.42204 -1.73613 0
M  V30 6775 H 656.798 -1.20239 -0.847401 0
M  V30 6776 H 658.756 -1.31982 -3.95773 0
M  V30 6777 H 657.386 -0.472431 -3.19324 0
M  V30 6778 H 656.438 -2.80935 -2.56475 0
M  V30 6779 H 657.75 -3.53228 -3.52181 0
M  V30 6780 H 656.904 -2.38427 -5.57886 0
M  V30 6781 H 655.643 -1.55672 -4.62188 0
M  V30 6782 H 654.648 -3.77525 -3.99694 0
M  V30 6783 H 655.873 -4.60851 -4.98792 0
M  V30 6784 H 653.819 -2.61417 -6.01662 0
M  V30 6785 H 653.736 -4.33634 -6.19272 0
M  V30 6786 H 655.004 -3.45276 -6.98859 0
M  V30 6787 N 659.233 0.902656 -1.29189 0
M  V30 6788 C 660.48 1.65287 -1.16989 0
M  V30 6789 C 660.808 1.92485 0.279232 0
M  V30 6790 O 660.063 1.53143 1.21843 0
M  V30 6791 C 660.362 3.011 -1.92545 0
M  V30 6792 C 660.028 2.93521 -3.42281 0
M  V30 6793 C 658.69 2.91161 -3.83117 0
M  V30 6794 C 661.042 2.82947 -4.3771 0
M  V30 6795 C 658.37 2.76043 -5.17704 0
M  V30 6796 C 660.722 2.69368 -5.72384 0
M  V30 6797 C 659.386 2.65373 -6.12482 0
M  V30 6798 H 658.656 0.604828 -0.428094 0
M  V30 6799 H 661.303 1.05084 -1.60092 0
M  V30 6800 H 659.608 3.65153 -1.42024 0
M  V30 6801 H 661.305 3.58073 -1.80512 0
M  V30 6802 H 657.895 2.96158 -3.09819 0
M  V30 6803 H 662.079 2.83849 -4.07116 0
M  V30 6804 H 657.335 2.71352 -5.47885 0
M  V30 6805 H 661.509 2.60156 -6.45981 0
M  V30 6806 H 659.136 2.53415 -7.16718 0
M  V30 6807 N 660.711 1.11618 1.11262 0
M  V30 6808 C 661.659 0.771291 2.1944 0
M  V30 6809 C 662.653 -0.238073 1.67719 0
M  V30 6810 O 663.859 -0.0971628 1.79738 0
M  V30 6811 H 660.234 0.231548 0.715465 0
M  V30 6812 H 662.205 1.69226 2.45775 0
M  V30 6813 C 660.954 0.232765 3.4692 0
M  V30 6814 H 660.277 1.00072 3.87073 0
M  V30 6815 H 661.717 0.0296561 4.2399 0
M  V30 6816 C 660.176 -1.03738 3.20531 0
M  V30 6817 O 660.706 -2.11675 3.41404 0
M  V30 6818 N 658.912 -0.960906 2.74253 0
M  V30 6819 H 658.459 -0.0824323 2.57468 0
M  V30 6820 H 658.417 -1.8114 2.56974 0
M  V30 6821 N 662.189 -1.289 0.906776 0
M  V30 6822 C 663.414 -1.99939 0.551303 0
M  V30 6823 C 663.839 -1.67366 -0.858496 0
M  V30 6824 O 663.197 -0.902176 -1.57259 0
M  V30 6825 C 663.245 -3.52523 0.758937 0
M  V30 6826 O 662.349 -4.11983 -0.185308 0
M  V30 6827 H 661.69 -0.628376 0.214568 0
M  V30 6828 H 664.22 -1.64225 1.2203 0
M  V30 6829 H 664.23 -4.02522 0.666329 0
M  V30 6830 H 662.905 -3.75566 1.78671 0
M  V30 6831 H 661.482 -3.72873 -0.0445577 0
M  V30 6832 N 663.667 -0.670007 -1.42649 0
M  V30 6833 C 664.892 -0.196955 -2.06463 0
M  V30 6834 C 665.317 1.1352 -1.49983 0
M  V30 6835 O 664.675 1.705 -0.616397 0
M  V30 6836 C 664.723 -0.137381 -3.60338 0
M  V30 6837 O 663.827 0.895523 -4.02559 0
M  V30 6838 H 663.168 -0.102579 -0.656029 0
M  V30 6839 H 665.698 -0.917669 -1.82866 0
M  V30 6840 H 665.708 0.0403625 -4.0798 0
M  V30 6841 H 664.383 -1.10977 -4.0082 0
M  V30 6842 H 662.96 0.689209 -3.66476 0
M  V30 6843 N 665.145 1.52092 -0.413018 0
M  V30 6844 C 666.393 2.01456 0.161178 0
M  V30 6845 C 666.714 1.30034 1.45314 0
M  V30 6846 O 665.984 0.427435 1.9118 0
M  V30 6847 H 664.564 0.744376 0.0625526 0
M  V30 6848 H 667.226 1.86974 -0.550151 0
M  V30 6849 H 666.322 3.1008 0.354517 0
M  V30 6850 N 666.623 0.143563 1.56945 0
M  V30 6851 C 667.863 -0.511198 1.97904 0
M  V30 6852 C 668.227 -1.62262 1.0264 0
M  V30 6853 O 669.428 -2.338 1.32631 0
M  V30 6854 C 667.699 -1.00753 3.42905 0
M  V30 6855 S 669.258 -1.66737 4.05887 0
M  V30 6856 H 666.076 -0.165399 0.691494 0
M  V30 6857 H 668.678 0.234464 1.94089 0
M  V30 6858 H 667.382 -0.187817 4.0997 0
M  V30 6859 H 666.913 -1.7879 3.50425 0
M  V30 6860 H 668.928 -2.95444 3.98657 0
M  V30 6861 N 668.101 -1.57061 -0.130224 0
M  V30 6862 C 669.512 -1.73539 -0.68856 0
M  V30 6863 C 669.863 -0.760554 -1.80859 0
M  V30 6864 O 668.988 0.0690796 -2.1629 0
M  V30 6865 C 669.583 -3.14666 -1.25581 0
M  V30 6866 C 668.142 -3.32689 -1.76055 0
M  V30 6867 C 667.289 -2.69436 -0.655712 0
M  V30 6868 H 670.24 -1.58412 0.0956002 0
M  V30 6869 H 670.261 -3.15595 -2.12556 0
M  V30 6870 H 669.773 -3.85593 -0.440412 0
M  V30 6871 H 667.874 -2.66786 -2.60108 0
M  V30 6872 H 667.987 -4.4077 -1.87772 0
M  V30 6873 H 666.351 -2.30362 -1.08654 0
M  V30 6874 H 667.134 -3.42979 0.14852 0
M  V30 6875 N 669.579 0.400081 -1.52437 0
M  V30 6876 C 670.489 1.51253 -1.79331 0
M  V30 6877 C 671.505 1.60188 -0.679396 0
M  V30 6878 O 672.681 1.76733 -0.965791 0
M  V30 6879 C 669.746 2.869 -1.94652 0
M  V30 6880 C 668.807 2.87777 -3.18564 0
M  V30 6881 C 668.04 4.16954 -3.33145 0
M  V30 6882 O 668.263 5.11329 -2.52783 0
M  V30 6883 O 667.197 4.2487 -4.26343 0
M  V30 6884 H 671.023 1.31461 -2.73773 0
M  V30 6885 H 668.608 0.586834 -1.37392 0
M  V30 6886 H 670.49 3.67336 -2.065 0
M  V30 6887 H 669.165 3.06741 -1.034 0
M  V30 6888 H 668.072 2.06162 -3.12167 0
M  V30 6889 H 669.405 2.72886 -4.09627 0
M  V30 6890 N 671.057 1.43213 0.657864 0
M  V30 6891 C 672.473 1.26511 0.972992 0
M  V30 6892 C 672.673 0.181477 2.00681 0
M  V30 6893 O 671.729 -0.441649 2.48608 0
M  V30 6894 C 673.042 2.62784 1.46168 0
M  V30 6895 C 674.59 2.70278 1.57857 0
M  V30 6896 C 675.065 4.06958 2.10117 0
M  V30 6897 N 676.556 4.08999 2.17426 0
M  V30 6898 C 677.291 5.11585 2.58975 0
M  V30 6899 N 676.787 6.24548 2.99853 0
M  V30 6900 N 678.58 4.9894 2.58873 0
M  V30 6901 H 670.731 2.12384 -0.0263129 0
M  V30 6902 H 672.994 0.946638 0.0507992 0
M  V30 6903 H 672.7 3.43022 0.776474 0
M  V30 6904 H 672.574 2.87863 2.43751 0
M  V30 6905 H 674.961 1.90376 2.25479 0
M  V30 6906 H 675.042 2.4897 0.587179 0
M  V30 6907 H 674.686 4.87325 1.43098 0
M  V30 6908 H 674.616 4.25628 3.10078 0
M  V30 6909 H 677.107 3.27457 1.88627 0
M  V30 6910 H 677.42 6.98661 3.30292 0
M  V30 6911 H 675.765 6.28027 2.97669 0
M  V30 6912 H 678.956 4.09757 2.26311 0
M  V30 6913 H 679.129 5.79019 2.90932 0
M  V30 6914 N 672.536 -0.895792 1.29666 0
M  V30 6915 C 673.466 -2.01673 1.17688 0
M  V30 6916 C 674.447 -1.69955 0.0701317 0
M  V30 6917 O 675.632 -1.9258 0.250289 0
M  V30 6918 C 672.762 -3.36568 0.856681 0
M  V30 6919 C 671.716 -3.82509 1.92017 0
M  V30 6920 C 671.042 -5.14574 1.4532 0
M  V30 6921 C 672.342 -4.02409 3.32963 0
M  V30 6922 H 674.036 -2.11953 2.11463 0
M  V30 6923 H 671.582 -1.01839 1.01807 0
M  V30 6924 H 673.535 -4.14498 0.759577 0
M  V30 6925 H 672.259 -3.26391 -0.116763 0
M  V30 6926 H 670.918 -3.068 2.00673 0
M  V30 6927 H 670.566 -5.00815 0.468325 0
M  V30 6928 H 670.266 -5.46283 2.16447 0
M  V30 6929 H 671.79 -5.9504 1.36968 0
M  V30 6930 H 673.204 -4.70808 3.27127 0
M  V30 6931 H 671.601 -4.45478 4.02082 0
M  V30 6932 H 672.671 -3.06616 3.75652 0
M  V30 6933 N 674.014 -1.12206 -1.10668 0
M  V30 6934 C 674.977 -0.790867 -2.15123 0
M  V30 6935 C 675.977 0.193618 -1.5963 0
M  V30 6936 O 677.167 -0.0318728 -1.74171 0
M  V30 6937 C 674.299 -0.174797 -3.40452 0
M  V30 6938 H 675.492 -1.7163 -2.45933 0
M  V30 6939 H 673.045 -0.924993 -1.2599 0
M  V30 6940 H 673.78 0.760478 -3.15257 0
M  V30 6941 H 673.565 -0.88358 -3.82015 0
M  V30 6942 H 675.055 0.0405162 -4.1758 0
M  V30 6943 N 675.492 1.28418 -0.913599 0
M  V30 6944 C 676.717 1.99643 -0.561899 0
M  V30 6945 C 677.142 1.67819 0.849608 0
M  V30 6946 O 676.5 0.910503 1.56779 0
M  V30 6947 C 676.548 3.52116 -0.777622 0
M  V30 6948 O 675.652 4.12076 0.163457 0
M  V30 6949 H 674.993 0.627229 -0.217898 0
M  V30 6950 H 677.523 1.63575 -1.229 0
M  V30 6951 H 677.533 4.02163 -0.687666 0
M  V30 6952 H 676.208 3.74613 -1.8066 0
M  V30 6953 H 674.785 3.72892 0.0247827 0
M  V30 6954 N 676.97 0.677563 1.42291 0
M  V30 6955 C 678.21 0.204894 2.0337 0
M  V30 6956 C 678.574 -1.16744 1.5243 0
M  V30 6957 O 679.775 -1.73492 2.05314 0
M  V30 6958 C 678.046 0.240742 3.56588 0
M  V30 6959 S 679.605 -0.16052 4.38506 0
M  V30 6960 H 676.423 0.0839932 0.706021 0
M  V30 6961 H 679.025 0.891332 1.73999 0
M  V30 6962 H 677.729 1.24184 3.91161 0
M  V30 6963 H 677.26 -0.465439 3.90637 0
M  V30 6964 H 679.275 -1.39315 4.76241 0
M  V30 6965 N 678.448 -1.51871 0.421078 0
M  V30 6966 C 679.864 -1.59435 0.0725398 0
M  V30 6967 C 680.064 -1.43315 -1.41644 0
M  V30 6968 O 679.12 -1.26614 -2.18461 0
M  V30 6969 C 680.433 -2.9509 0.578132 0
M  V30 6970 C 681.981 -3.08356 0.537149 0
M  V30 6971 C 682.456 -4.4651 1.01945 0
M  V30 6972 N 683.947 -4.52784 0.976758 0
M  V30 6973 C 684.682 -5.57976 1.32099 0
M  V30 6974 N 684.178 -6.70664 1.73727 0
M  V30 6975 N 685.971 -5.48248 1.2402 0
M  V30 6976 H 678.122 -1.60595 1.39007 0
M  V30 6977 H 680.385 -0.756138 0.571803 0
M  V30 6978 H 680.091 -3.12205 1.61929 0
M  V30 6979 H 679.965 -3.772 -0.00578374 0
M  V30 6980 H 682.352 -2.90919 -0.494991 0
M  V30 6981 H 682.433 -2.28125 1.15727 0
M  V30 6982 H 682.077 -4.64692 2.04997 0
M  V30 6983 H 682.007 -5.25256 0.376023 0
M  V30 6984 H 684.498 -3.71898 0.670851 0
M  V30 6985 H 684.811 -7.46932 1.98274 0
M  V30 6986 H 683.156 -6.71914 1.77641 0
M  V30 6987 H 686.347 -4.59095 0.913756 0
M  V30 6988 H 686.52 -6.30119 1.51176 0
M  V30 6989 N 679.926 -0.151884 -1.56866 0
M  V30 6990 C 681.337 0.368128 -1.83035 0
M  V30 6991 C 681.688 1.64402 -1.07082 0
M  V30 6992 O 680.813 2.14056 -0.317647 0
M  V30 6993 C 681.408 0.674676 -3.32014 0
M  V30 6994 C 679.967 1.13919 -3.58747 0
M  V30 6995 C 679.114 0.164833 -2.7681 0
M  V30 6996 H 682.065 -0.376499 -1.54169 0
M  V30 6997 H 682.086 1.52883 -3.48435 0
M  V30 6998 H 681.598 -0.254113 -3.87267 0
M  V30 6999 H 679.699 2.08375 -3.08886 0
M  V30 7000 H 679.812 1.06179 -4.67186 0
M  V30 7001 H 678.176 0.658419 -2.46043 0
M  V30 7002 H 678.959 -0.757633 -3.34836 0
M  V30 7003 N 681.404 1.57128 0.121893 0
M  V30 7004 C 682.334 2.03165 1.15092 0
M  V30 7005 C 683.315 0.915587 1.43356 0
M  V30 7006 O 684.5 1.1851 1.53847 0
M  V30 7007 C 681.63 2.43352 2.47784 0
M  V30 7008 C 680.584 3.58376 2.33989 0
M  V30 7009 C 679.91 3.84454 3.71617 0
M  V30 7010 C 681.21 4.90199 1.80283 0
M  V30 7011 H 682.904 2.89382 0.768023 0
M  V30 7012 H 680.45 1.39218 0.367998 0
M  V30 7013 H 682.403 2.74163 3.20019 0
M  V30 7014 H 681.127 1.54103 2.87958 0
M  V30 7015 H 679.786 3.2777 1.64202 0
M  V30 7016 H 679.434 2.92414 4.09271 0
M  V30 7017 H 679.134 4.61877 3.6324 0
M  V30 7018 H 680.658 4.17714 4.45362 0
M  V30 7019 H 682.072 5.19565 2.42333 0
M  V30 7020 H 680.469 5.71601 1.82735 0
M  V30 7021 H 681.539 4.78904 0.760184 0
M  V30 7022 N 682.882 -0.391992 1.52647 0
M  V30 7023 C 684.11 -1.1586 1.71418 0
M  V30 7024 C 684.525 -1.8381 0.431216 0
M  V30 7025 O 683.882 -1.7256 -0.594085 0
M  V30 7026 C 683.933 -2.20888 2.86165 0
M  V30 7027 O 683.654 -1.5571 4.09495 0
M  V30 7028 C 685.155 -3.103 3.1659 0
M  V30 7029 H 682.375 -0.347494 0.574011 0
M  V30 7030 H 684.919 -0.458972 1.99283 0
M  V30 7031 H 683.074 -2.86492 2.6077 0
M  V30 7032 H 683.488 -2.25474 4.73563 0
M  V30 7033 H 684.962 -3.8003 4.00351 0
M  V30 7034 H 685.439 -3.73639 2.30848 0
M  V30 7035 H 686.045 -2.50345 3.43813 0
M  V30 7036 N 684.36 -1.4356 -0.65026 0
M  V30 7037 C 685.637 -1.35811 -1.40765 0
M  V30 7038 C 686.017 -0.00736379 -2.11099 0
M  V30 7039 O 685.365 1.00932 -2.05 0
M  V30 7040 C 685.575 -2.54332 -2.3899 0
M  V30 7041 C 686.923 -2.97551 -3.02901 0
M  V30 7042 O 687.947 -2.544 -2.49317 0
M  V30 7043 O 686.806 -3.72311 -4.00059 0
M  V30 7044 H 683.9 -0.536861 -0.629054 0
M  V30 7045 H 686.446 -1.55615 -0.676919 0
M  V30 7046 H 685.218 -3.44274 -1.85986 0
M  V30 7047 H 684.841 -2.36643 -3.19509 0
M  V30 7048 N 685.838 0.888903 -1.30139 0
M  V30 7049 C 687.085 1.64037 -1.18736 0
M  V30 7050 C 687.413 1.92771 0.258801 0
M  V30 7051 O 686.668 1.54427 1.20212 0
M  V30 7052 C 686.967 2.99041 -1.95728 0
M  V30 7053 C 686.633 2.89874 -3.45375 0
M  V30 7054 C 685.295 2.87082 -3.86183 0
M  V30 7055 C 687.647 2.78289 -4.40687 0
M  V30 7056 C 684.975 2.70536 -5.20603 0
M  V30 7057 C 687.327 2.63282 -5.75209 0
M  V30 7058 C 685.991 2.58861 -6.15262 0
M  V30 7059 H 685.261 0.600253 -0.434485 0
M  V30 7060 H 687.908 1.0338 -1.61198 0
M  V30 7061 H 686.213 3.63626 -1.45888 0
M  V30 7062 H 687.91 3.56139 -1.843 0
M  V30 7063 H 684.5 2.92856 -3.12943 0
M  V30 7064 H 688.684 2.79516 -4.10103 0
M  V30 7065 H 683.94 2.65526 -5.50732 0
M  V30 7066 H 688.114 2.5329 -6.48704 0
M  V30 7067 H 685.741 2.45799 -7.19366 0
M  V30 7068 N 687.317 1.12792 1.10072 0
M  V30 7069 C 688.594 0.796867 1.78632 0
M  V30 7070 C 688.974 -0.712739 1.98704 0
M  V30 7071 O 688.322 -1.64773 1.5831 0
M  V30 7072 C 688.532 1.57622 3.11378 0
M  V30 7073 C 689.88 1.76463 3.86194 0
M  V30 7074 O 690.904 1.54165 3.2111 0
M  V30 7075 O 689.763 2.13623 5.03018 0
M  V30 7076 H 686.857 0.290248 0.774394 0
M  V30 7077 H 689.403 1.23215 1.16688 0
M  V30 7078 H 688.175 2.60246 2.92212 0
M  V30 7079 H 687.798 1.13543 3.81043 0
M  V30 7080 N 688.795 -1.27931 0.920396 0
M  V30 7081 C 689.727 -2.26175 0.371169 0
M  V30 7082 C 690.74 -1.55122 -0.494065 0
M  V30 7083 O 691.929 -1.75825 -0.30787 0
M  V30 7084 C 689.029 -3.35376 -0.487481 0
M  V30 7085 C 688.202 -4.35943 0.356772 0
M  V30 7086 C 687.261 -5.24374 -0.438042 0
M  V30 7087 O 686.287 -5.68998 0.151715 0
M  V30 7088 N 687.489 -5.53823 -1.73956 0
M  V30 7089 H 690.254 -2.73938 1.21564 0
M  V30 7090 H 687.815 -1.41482 0.787047 0
M  V30 7091 H 689.807 -3.91476 -1.02609 0
M  V30 7092 H 688.377 -2.87269 -1.23269 0
M  V30 7093 H 687.597 -3.7921 1.07672 0
M  V30 7094 H 688.885 -5.0015 0.934206 0
M  V30 7095 H 688.283 -5.19413 -2.24114 0
M  V30 7096 H 686.84 -6.12653 -2.22486 0
M  V30 7097 N 690.273 -0.685099 -1.4193 0
M  V30 7098 C 691.521 -0.21124 -2.00993 0
M  V30 7099 C 691.842 1.18985 -1.54491 0
M  V30 7100 O 691.112 1.8009 -0.771 0
M  V30 7101 H 689.692 -0.0751059 -0.743215 0
M  V30 7102 H 692.354 -0.883915 -1.73704 0
M  V30 7103 H 691.45 -0.220513 -3.1132 0
M  V30 7104 N 691.751 1.51645 -0.429126 0
M  V30 7105 C 692.997 2.02967 0.132584 0
M  V30 7106 C 693.352 1.30804 1.41096 0
M  V30 7107 O 692.645 0.411705 1.87124 0
M  V30 7108 C 692.839 3.54989 0.414472 0
M  V30 7109 C 692.668 4.41879 -0.83503 0
M  V30 7110 C 691.438 4.86482 -1.36614 0
M  V30 7111 C 693.636 4.84727 -1.71886 0
M  V30 7112 N 691.618 5.5756 -2.56904 0
M  V30 7113 C 692.989 5.54788 -2.76786 0
M  V30 7114 C 695.044 4.66721 -1.73425 0
M  V30 7115 C 693.747 6.08753 -3.8316 0
M  V30 7116 C 695.773 5.21597 -2.7873 0
M  V30 7117 C 695.135 5.91598 -3.8235 0
M  V30 7118 H 691.234 0.781942 0.00956367 0
M  V30 7119 H 693.818 1.8561 -0.587957 0
M  V30 7120 H 691.989 3.72378 1.10405 0
M  V30 7121 H 693.721 3.92982 0.966817 0
M  V30 7122 H 690.476 4.64553 -0.921255 0
M  V30 7123 H 690.9 5.97731 -3.17879 0
M  V30 7124 H 695.542 4.1207 -0.946467 0
M  V30 7125 H 693.26 6.62464 -4.62782 0
M  V30 7126 H 696.846 5.09522 -2.80853 0
M  V30 7127 H 695.726 6.33299 -4.62495 0
M  V30 7128 N 693.229 0.160201 1.56784 0
M  V30 7129 C 694.477 -0.486625 1.96154 0
M  V30 7130 C 694.798 -1.64525 1.04673 0
M  V30 7131 O 694.068 -1.95586 0.110864 0
M  V30 7132 H 692.648 -0.182764 0.724297 0
M  V30 7133 H 695.31 0.238787 1.93432 0
M  V30 7134 H 694.406 -0.854025 3.00188 0
M  V30 7135 N 694.707 -1.5719 -0.113559 0
M  V30 7136 C 696.118 -1.74259 -0.670116 0
M  V30 7137 C 696.469 -0.779694 -1.80042 0
M  V30 7138 O 695.594 0.0461353 -2.16351 0
M  V30 7139 C 696.189 -3.15981 -1.22236 0
M  V30 7140 C 694.748 -3.34537 -1.72516 0
M  V30 7141 C 693.895 -2.70116 -0.627098 0
M  V30 7142 H 696.846 -1.58301 0.112396 0
M  V30 7143 H 696.867 -3.17832 -2.09197 0
M  V30 7144 H 696.379 -3.86038 -0.39949 0
M  V30 7145 H 694.48 -2.6953 -2.57263 0
M  V30 7146 H 694.593 -4.42737 -1.83086 0
M  V30 7147 H 692.957 -2.31501 -1.06204 0
M  V30 7148 H 693.74 -3.42802 0.184889 0
M  V30 7149 N 696.185 0.383891 -1.52853 0
M  V30 7150 C 697.434 1.12563 -1.67369 0
M  V30 7151 C 697.747 1.90982 -0.422533 0
M  V30 7152 O 698.953 2.6778 -0.447914 0
M  V30 7153 C 697.409 2.05011 -2.95801 0
M  V30 7154 C 697.017 1.31991 -4.28115 0
M  V30 7155 C 698.761 2.79289 -3.19684 0
M  V30 7156 C 696.668 2.23235 -5.4765 0
M  V30 7157 H 695.598 0.42391 -0.623552 0
M  V30 7158 H 698.249 0.388016 -1.79351 0
M  V30 7159 H 696.631 2.82429 -2.77578 0
M  V30 7160 H 697.805 0.597633 -4.56908 0
M  V30 7161 H 696.12 0.696517 -4.10533 0
M  V30 7162 H 698.717 3.47749 -4.06171 0
M  V30 7163 H 699.06 3.43649 -2.3497 0
M  V30 7164 H 699.593 2.08962 -3.38496 0
M  V30 7165 H 696.332 1.63482 -6.34786 0
M  V30 7166 H 695.852 2.93364 -5.23161 0
M  V30 7167 H 697.531 2.83205 -5.81725 0
M  V30 7168 N 697.663 1.43903 0.642637 0
M  V30 7169 C 698.888 1.49758 1.43483 0
M  V30 7170 C 699.313 0.119911 1.87717 0
M  V30 7171 O 698.671 -0.888558 1.58033 0
M  V30 7172 C 698.719 2.45744 2.63898 0
M  V30 7173 O 697.823 1.95101 3.63331 0
M  V30 7174 H 697.164 0.506138 0.429791 0
M  V30 7175 H 699.694 1.88923 0.785438 0
M  V30 7176 H 699.704 2.63399 3.11584 0
M  V30 7177 H 698.379 3.45818 2.31046 0
M  V30 7178 H 696.956 1.87158 3.22531 0
M  V30 7179 N 699.141 -0.881989 1.30609 0
M  V30 7180 C 700.371 -1.66469 1.22359 0
M  V30 7181 C 700.779 -1.87969 -0.215507 0
M  V30 7182 O 700.122 -1.42938 -1.15388 0
M  V30 7183 C 700.184 -3.06135 1.88472 0
M  V30 7184 C 699.848 -3.07795 3.37804 0
M  V30 7185 C 700.845 -2.86633 4.33749 0
M  V30 7186 C 698.53 -3.29297 3.793 0
M  V30 7187 C 700.524 -2.86934 5.69164 0
M  V30 7188 C 698.211 -3.29228 5.14832 0
M  V30 7189 C 699.209 -3.08071 6.09574 0
M  V30 7190 O 698.897 -3.07824 7.4263 0
M  V30 7191 H 698.629 -0.526129 0.424458 0
M  V30 7192 H 701.183 -1.11004 1.72821 0
M  V30 7193 H 699.413 -3.63276 1.32543 0
M  V30 7194 H 701.102 -3.66571 1.74301 0
M  V30 7195 H 701.868 -2.69814 4.0302 0
M  V30 7196 H 697.747 -3.44799 3.05998 0
M  V30 7197 H 701.291 -2.70339 6.43088 0
M  V30 7198 H 697.188 -3.45583 5.452 0
M  V30 7199 H 697.956 -3.2397 7.51656 0
M  V30 7200 N 700.619 -1.13374 -1.09472 0
M  V30 7201 C 701.582 -0.813639 -2.14272 0
M  V30 7202 C 702.582 0.176677 -1.59826 0
M  V30 7203 O 703.772 -0.0503441 -1.74127 0
M  V30 7204 C 700.904 -0.210897 -3.40247 0
M  V30 7205 H 702.097 -1.74229 -2.44099 0
M  V30 7206 H 699.65 -0.938304 -1.25002 0
M  V30 7207 H 700.385 0.726998 -3.16046 0
M  V30 7208 H 700.17 -0.924048 -3.81056 0
M  V30 7209 H 701.66 -0.00377603 -4.176 0
M  V30 7210 N 702.098 1.27442 -0.927168 0
M  V30 7211 C 703.046 2.28844 -0.416333 0
M  V30 7212 C 704.04 1.61882 0.499057 0
M  V30 7213 O 705.246 1.75969 0.378817 0
M  V30 7214 H 701.621 0.742989 -0.116065 0
M  V30 7215 H 703.592 2.69344 -1.28438 0
M  V30 7216 C 702.341 3.4626 0.316107 0
M  V30 7217 H 701.664 3.97999 -0.379082 0
M  V30 7218 H 703.104 4.19173 0.637975 0
M  V30 7219 C 701.563 3.00211 1.5289 0
M  V30 7220 O 702.093 3.03837 2.62766 0
M  V30 7221 N 700.299 2.55713 1.38054 0
M  V30 7222 H 699.846 2.52962 0.4866 0
M  V30 7223 H 699.804 2.25264 2.19325 0
M  V30 7224 N 703.576 0.692616 1.41565 0
M  V30 7225 C 704.824 0.221896 2.00878 0
M  V30 7226 C 705.145 -1.18164 1.5512 0
M  V30 7227 O 704.415 -1.79679 0.78054 0
M  V30 7228 H 702.995 0.0790463 0.742806 0
M  V30 7229 H 705.657 0.893115 1.73232 0
M  V30 7230 H 704.753 0.23702 3.11199 0
M  V30 7231 N 705.054 -1.51416 0.437162 0
M  V30 7232 C 706.279 -2.0699 -0.130424 0
M  V30 7233 C 706.704 -1.30249 -1.35709 0
M  V30 7234 O 706.062 -0.340388 -1.78076 0
M  V30 7235 C 706.11 -3.5801 -0.43142 0
M  V30 7236 O 705.214 -3.8345 -1.5179 0
M  V30 7237 H 704.555 -0.663997 -0.00194339 0
M  V30 7238 H 707.085 -1.95029 0.618445 0
M  V30 7239 H 707.095 -4.02261 -0.681926 0
M  V30 7240 H 705.77 -4.13291 0.465137 0
M  V30 7241 H 704.347 -3.51062 -1.25737 0
M  V30 7242 N 706.532 -0.168513 -1.56696 0
M  V30 7243 C 707.78 0.476216 -1.96409 0
M  V30 7244 C 708.101 1.63968 -1.05544 0
M  V30 7245 O 707.371 1.95525 -0.121235 0
M  V30 7246 H 705.951 0.178921 -0.725256 0
M  V30 7247 H 708.613 -0.249042 -1.93302 0
M  V30 7248 H 707.709 0.838094 -3.00637 0
M  V30 7249 N 708.01 1.57248 0.105221 0
M  V30 7250 C 709.421 1.74612 0.660865 0
M  V30 7251 C 709.772 0.789231 1.79626 0
M  V30 7252 O 708.897 -0.0346611 2.16372 0
M  V30 7253 C 709.492 3.16624 1.20559 0
M  V30 7254 C 708.051 3.35447 1.7074 0
M  V30 7255 C 707.198 2.70445 0.612764 0
M  V30 7256 H 710.149 1.5824 -0.12079 0
M  V30 7257 H 710.17 3.18937 2.07508 0
M  V30 7258 H 709.682 3.86245 0.379012 0
M  V30 7259 H 707.783 2.7089 2.5583 0
M  V30 7260 H 707.896 4.43702 1.80736 0
M  V30 7261 H 706.26 2.32061 1.04975 0
M  V30 7262 H 707.043 3.42699 -0.203066 0
M  V30 7263 N 709.488 -0.375779 1.53054 0
M  V30 7264 C 710.765 -1.13453 1.59336 0
M  V30 7265 C 711.145 -2.07379 0.394614 0
M  V30 7266 O 710.493 -2.2004 -0.616 0
M  V30 7267 C 710.703 -1.8826 2.93869 0
M  V30 7268 C 712.051 -2.43155 3.48081 0
M  V30 7269 O 713.075 -1.984 2.95831 0
M  V30 7270 O 711.934 -3.24944 4.39401 0
M  V30 7271 H 709.028 -0.519856 0.643179 0
M  V30 7272 H 711.574 -0.379865 1.65394 0
M  V30 7273 H 710.346 -1.19652 3.72558 0
M  V30 7274 H 709.969 -2.70658 2.91256 0
M  V30 7275 N 710.966 -1.44241 -0.634997 0
M  V30 7276 C 711.898 -1.46793 -1.76024 0
M  V30 7277 C 712.911 -0.361781 -1.58729 0
M  V30 7278 O 714.1 -0.627297 -1.67114 0
M  V30 7279 C 711.2 -1.28248 -3.13697 0
M  V30 7280 C 710.373 -2.52038 -3.57485 0
M  V30 7281 C 709.432 -2.2845 -4.74022 0
M  V30 7282 O 708.458 -3.01915 -4.82531 0
M  V30 7283 N 709.66 -1.31264 -5.65464 0
M  V30 7284 H 712.425 -2.43797 -1.74307 0
M  V30 7285 H 709.986 -1.39631 -0.819438 0
M  V30 7286 H 711.978 -1.10321 -3.89373 0
M  V30 7287 H 710.548 -0.39623 -3.10079 0
M  V30 7288 H 709.768 -2.85268 -2.72059 0
M  V30 7289 H 711.056 -3.34382 -3.83492 0
M  V30 7290 H 710.454 -0.705817 -5.6128 0
M  V30 7291 H 709.011 -1.19316 -6.40786 0
M  V30 7292 N 712.444 0.87505 -1.31075 0
M  V30 7293 C 713.86 1.15997 -1.09622 0
M  V30 7294 C 714.06 2.01036 0.136611 0
M  V30 7295 O 713.116 2.38559 0.827397 0
M  V30 7296 C 714.429 1.85702 -2.36506 0
M  V30 7297 C 715.977 1.98425 -2.42067 0
M  V30 7298 C 716.452 2.71544 -3.68819 0
M  V30 7299 N 717.943 2.79084 -3.69684 0
M  V30 7300 C 718.678 3.36259 -4.64454 0
M  V30 7301 N 718.174 3.94406 -5.69575 0
M  V30 7302 N 719.967 3.34169 -4.51982 0
M  V30 7303 H 712.118 0.308258 -2.10151 0
M  V30 7304 H 714.381 0.199145 -0.926847 0
M  V30 7305 H 714.087 1.30663 -3.26527 0
M  V30 7306 H 713.961 2.86017 -2.45915 0
M  V30 7307 H 716.348 2.5263 -1.52518 0
M  V30 7308 H 716.429 0.971682 -2.36626 0
M  V30 7309 H 716.073 2.18008 -4.58732 0
M  V30 7310 H 716.003 3.73198 -3.71525 0
M  V30 7311 H 718.494 2.3781 -2.93691 0
M  V30 7312 H 718.807 4.36129 -6.37974 0
M  V30 7313 H 717.152 3.92797 -5.73355 0
M  V30 7314 H 720.343 2.87977 -3.69035 0
M  V30 7315 H 720.516 3.78431 -5.26017 0
M  V30 7316 N 713.922 1.13953 1.08869 0
M  V30 7317 C 715.333 0.916649 1.62648 0
M  V30 7318 C 715.684 -0.545589 1.88462 0
M  V30 7319 O 714.809 -1.41351 1.63856 0
M  V30 7320 C 715.404 1.65751 2.95486 0
M  V30 7321 C 713.963 1.48034 3.46068 0
M  V30 7322 C 713.11 1.68305 2.20383 0
M  V30 7323 H 716.061 1.292 0.921572 0
M  V30 7324 H 716.082 1.11794 3.63707 0
M  V30 7325 H 715.594 2.72171 2.76667 0
M  V30 7326 H 713.695 0.439416 3.7 0
M  V30 7327 H 713.808 2.24719 4.23129 0
M  V30 7328 H 712.172 1.10833 2.29321 0
M  V30 7329 H 712.955 2.76057 2.04077 0
M  V30 7330 N 715.4 -1.26948 0.933913 0
M  V30 7331 C 716.63 -1.97898 0.593279 0
M  V30 7332 C 717.038 -1.69806 -0.834412 0
M  V30 7333 O 716.381 -0.958704 -1.56699 0
M  V30 7334 C 716.443 -3.51657 0.746825 0
M  V30 7335 C 716.107 -4.03384 2.14779 0
M  V30 7336 C 717.104 -4.15682 3.12257 0
M  V30 7337 C 714.789 -4.37577 2.46641 0
M  V30 7338 C 716.783 -4.61455 4.39702 0
M  V30 7339 C 714.47 -4.8304 3.7432 0
M  V30 7340 C 715.468 -4.94939 4.70664 0
M  V30 7341 O 715.156 -5.39403 5.96071 0
M  V30 7342 H 714.888 -0.63814 0.223055 0
M  V30 7343 H 717.442 -1.62608 1.2549 0
M  V30 7344 H 715.672 -3.8669 0.0280889 0
M  V30 7345 H 717.361 -4.03821 0.410328 0
M  V30 7346 H 718.127 -3.89519 2.88964 0
M  V30 7347 H 714.006 -4.27554 1.72391 0
M  V30 7348 H 717.55 -4.70658 5.14905 0
M  V30 7349 H 713.447 -5.08646 3.97429 0
M  V30 7350 H 714.215 -5.57641 5.99148 0
M  V30 7351 N 716.879 -0.700114 -1.41195 0
M  V30 7352 C 718.119 -0.237223 -2.03019 0
M  V30 7353 C 718.483 1.14304 -1.54268 0
M  V30 7354 O 719.684 1.70204 -2.08048 0
M  V30 7355 C 717.955 -0.297442 -3.5616 0
M  V30 7356 S 719.514 0.0907367 -4.38706 0
M  V30 7357 H 716.332 -0.0952147 -0.704596 0
M  V30 7358 H 718.934 -0.918901 -1.72559 0
M  V30 7359 H 717.638 -1.30391 -3.89135 0
M  V30 7360 H 717.169 0.403233 -3.91328 0
M  V30 7361 H 719.184 1.31721 -4.78397 0
M  V30 7362 N 718.357 1.51182 -0.445186 0
M  V30 7363 C 719.603 2.03097 0.111049 0
M  V30 7364 C 719.958 1.32293 1.397 0
M  V30 7365 O 719.251 0.431529 1.86677 0
M  V30 7366 C 719.445 3.55408 0.376797 0
M  V30 7367 C 719.274 4.40969 -0.88185 0
M  V30 7368 C 718.044 4.85006 -1.41766 0
M  V30 7369 C 720.242 4.82876 -1.77017 0
M  V30 7370 N 718.224 5.54804 -2.62803 0
M  V30 7371 C 719.595 5.51821 -2.82654 0
M  V30 7372 C 721.65 4.64855 -1.78365 0
M  V30 7373 C 720.353 6.04655 -3.89595 0
M  V30 7374 C 722.379 5.18612 -2.84246 0
M  V30 7375 C 721.741 5.87509 -3.88603 0
M  V30 7376 H 717.84 0.781999 0.0012696 0
M  V30 7377 H 720.424 1.84976 -0.60761 0
M  V30 7378 H 718.595 3.73528 1.06449 0
M  V30 7379 H 720.327 3.93985 0.925082 0
M  V30 7380 H 717.082 4.6355 -0.970476 0
M  V30 7381 H 717.506 5.94326 -3.24201 0
M  V30 7382 H 722.148 4.11043 -0.990119 0
M  V30 7383 H 719.866 6.57518 -4.69782 0
M  V30 7384 H 723.452 5.06515 -2.86241 0
M  V30 7385 H 722.332 6.28358 -4.69186 0
M  V30 7386 N 719.835 0.176821 1.56605 0
M  V30 7387 C 720.785 -0.763718 2.14829 0
M  V30 7388 C 721.769 -1.18903 1.08401 0
M  V30 7389 O 722.961 -1.15048 1.3451 0
M  V30 7390 C 720.09 -1.99069 2.7969 0
M  V30 7391 C 719.176 -1.58711 3.93283 0
M  V30 7392 N 719.567 -0.893423 4.97847 0
M  V30 7393 C 717.865 -1.87774 4.04545 0
M  V30 7394 C 718.566 -0.693866 5.77547 0
M  V30 7395 N 717.542 -1.23699 5.29339 0
M  V30 7396 H 721.344 -0.224811 2.93039 0
M  V30 7397 H 718.858 -0.0236563 1.62383 0
M  V30 7398 H 720.855 -2.67478 3.19783 0
M  V30 7399 H 719.515 -2.53449 2.02962 0
M  V30 7400 H 720.526 -0.550868 5.14962 0
M  V30 7401 H 717.203 -2.43793 3.38927 0
M  V30 7402 H 718.593 -0.144899 6.71744 0
M  V30 7403 N 721.313 -1.57302 -0.09688 0
M  V30 7404 C 722.543 -1.89926 -0.813114 0
M  V30 7405 C 722.951 -0.76852 -1.72888 0
M  V30 7406 O 722.294 0.268549 -1.81726 0
M  V30 7407 C 722.356 -3.17787 -1.68082 0
M  V30 7408 C 722.02 -4.4729 -0.937061 0
M  V30 7409 C 723.017 -5.1921 -0.267687 0
M  V30 7410 C 720.702 -4.93957 -0.911671 0
M  V30 7411 C 722.696 -6.36034 0.417129 0
M  V30 7412 C 720.383 -6.10693 -0.223068 0
M  V30 7413 C 721.381 -6.8158 0.440155 0
M  V30 7414 O 721.069 -7.96092 1.11772 0
M  V30 7415 H 720.801 -0.632783 -0.237828 0
M  V30 7416 H 723.355 -2.05248 -0.0790818 0
M  V30 7417 H 721.585 -2.98607 -2.45705 0
M  V30 7418 H 723.274 -3.36257 -2.27346 0
M  V30 7419 H 724.04 -4.84198 -0.278774 0
M  V30 7420 H 719.919 -4.38671 -1.41734 0
M  V30 7421 H 723.463 -6.91301 0.93537 0
M  V30 7422 H 719.36 -6.45159 -0.209821 0
M  V30 7423 H 720.128 -8.12064 1.02443 0
M  V30 7424 N 722.791 0.367657 -1.53252 0
M  V30 7425 C 724.202 0.944563 -1.61043 0
M  V30 7426 C 724.553 1.90325 -0.476546 0
M  V30 7427 O 723.678 2.12721 0.397333 0
M  V30 7428 C 724.273 1.71992 -2.91898 0
M  V30 7429 C 722.832 2.2462 -3.02031 0
M  V30 7430 C 721.979 1.05799 -2.56324 0
M  V30 7431 H 724.93 0.146516 -1.58022 0
M  V30 7432 H 724.951 2.58095 -2.79584 0
M  V30 7433 H 724.463 1.02192 -3.74404 0
M  V30 7434 H 722.564 2.97668 -2.24108 0
M  V30 7435 H 722.677 2.52644 -4.07073 0
M  V30 7436 H 721.041 1.42435 -2.1115 0
M  V30 7437 H 721.824 0.375008 -3.41246 0
M  V30 7438 N 724.269 1.44576 0.627338 0
M  V30 7439 C 725.68 1.42266 1.20902 0
M  V30 7440 C 726.031 0.139964 1.957 0
M  V30 7441 O 725.156 -0.759489 2.02634 0
M  V30 7442 C 725.751 2.57727 2.19914 0
M  V30 7443 C 724.31 2.58599 2.73502 0
M  V30 7444 C 723.457 2.34145 1.48564 0
M  V30 7445 H 726.408 1.53102 0.417791 0
M  V30 7446 H 726.429 2.30697 3.02588 0
M  V30 7447 H 725.941 3.51068 1.65447 0
M  V30 7448 H 724.042 1.6921 3.31962 0
M  V30 7449 H 724.155 3.57205 3.19282 0
M  V30 7450 H 722.519 1.83313 1.76829 0
M  V30 7451 H 723.302 3.29606 0.959935 0
M  V30 7452 N 725.747 -0.868086 1.31537 0
M  V30 7453 C 726.694 -1.97548 1.19346 0
M  V30 7454 C 727.664 -1.65913 0.0787922 0
M  V30 7455 O 728.849 -1.89129 0.251985 0
M  V30 7456 C 725.989 -3.32922 0.908692 0
M  V30 7457 C 725.102 -3.77141 2.10687 0
M  V30 7458 C 724.237 -5.01241 1.75873 0
M  V30 7459 C 723.276 -5.37914 2.92088 0
M  V30 7460 N 722.413 -6.53192 2.57457 0
M  V30 7461 H 727.253 -2.07307 2.14074 0
M  V30 7462 H 724.79 -1.01483 1.06487 0
M  V30 7463 H 726.748 -4.10867 0.724138 0
M  V30 7464 H 725.378 -3.228 -0.0017611 0
M  V30 7465 H 724.43 -2.94961 2.40213 0
M  V30 7466 H 725.742 -4.00248 2.97663 0
M  V30 7467 H 724.896 -5.86858 1.53891 0
M  V30 7468 H 723.635 -4.80041 0.86091 0
M  V30 7469 H 722.64 -4.50814 3.14717 0
M  V30 7470 H 723.865 -5.61077 3.82582 0
M  V30 7471 H 721.811 -6.33536 1.702 0
M  V30 7472 H 721.728 -6.76252 3.37963 0
M  V30 7473 H 722.996 -7.41997 2.38873 0
M  V30 7474 N 727.225 -1.14528 -1.08264 0
M  V30 7475 C 728.636 -0.925261 -1.6216 0
M  V30 7476 C 728.987 0.535587 -1.88748 0
M  V30 7477 O 728.112 1.4048 -1.64604 0
M  V30 7478 C 728.707 -1.67316 -2.94603 0
M  V30 7479 C 727.266 -1.49868 -3.45278 0
M  V30 7480 C 726.413 -1.69471 -2.19487 0
M  V30 7481 H 729.364 -1.29687 -0.914707 0
M  V30 7482 H 729.385 -1.13721 -3.63109 0
M  V30 7483 H 728.897 -2.73635 -2.75219 0
M  V30 7484 H 726.998 -0.459032 -3.69762 0
M  V30 7485 H 727.111 -2.2696 -4.21931 0
M  V30 7486 H 725.475 -1.12048 -2.2873 0
M  V30 7487 H 726.258 -2.77136 -2.0261 0
M  V30 7488 N 728.703 1.26451 -0.940633 0
M  V30 7489 C 729.943 1.95537 -0.595381 0
M  V30 7490 C 730.307 1.72175 0.849683 0
M  V30 7491 O 731.508 2.3506 1.30384 0
M  V30 7492 C 729.779 3.45151 -0.927669 0
M  V30 7493 S 731.338 4.33295 -0.69288 0
M  V30 7494 H 728.156 0.676331 -0.219311 0
M  V30 7495 H 730.758 1.53411 -1.21183 0
M  V30 7496 H 729.462 3.59654 -1.9768 0
M  V30 7497 H 728.993 3.92247 -0.300921 0
M  V30 7498 H 731.008 4.94217 0.443175 0
M  V30 7499 N 730.181 0.707592 1.40822 0
M  V30 7500 C 731.429 0.243189 2.00632 0
M  V30 7501 C 731.75 -1.16512 1.56365 0
M  V30 7502 O 731.02 -1.78841 0.799553 0
M  V30 7503 H 729.6 0.0869203 0.741926 0
M  V30 7504 H 732.262 0.911438 1.72275 0
M  V30 7505 H 731.358 0.270014 3.1093 0
M  V30 7506 N 731.66 -1.50943 0.453197 0
M  V30 7507 C 732.909 -2.01402 -0.10951 0
M  V30 7508 C 733.222 -1.3411 -1.42386 0
M  V30 7509 O 734.428 -1.75626 -2.07045 0
M  V30 7510 C 732.884 -3.5906 -0.245693 0
M  V30 7511 C 732.492 -4.353 1.05916 0
M  V30 7512 C 734.236 -4.17617 -0.761318 0
M  V30 7513 C 732.143 -5.84699 0.887752 0
M  V30 7514 H 731.073 -0.752674 -0.0447013 0
M  V30 7515 H 733.724 -1.73913 0.585375 0
M  V30 7516 H 732.106 -3.83062 -1.00395 0
M  V30 7517 H 733.28 -4.23034 1.82698 0
M  V30 7518 H 731.595 -3.88269 1.50452 0
M  V30 7519 H 734.192 -5.26963 -0.906306 0
M  V30 7520 H 734.535 -3.77824 -1.74799 0
M  V30 7521 H 735.068 -3.97753 -0.0609416 0
M  V30 7522 H 731.807 -6.28933 1.84726 0
M  V30 7523 H 731.327 -5.99587 0.160006 0
M  V30 7524 H 733.006 -6.44682 0.547223 0
M  V30 7525 N 733.138 -0.185124 -1.56509 0
M  V30 7526 C 734.384 0.456934 -1.97585 0
M  V30 7527 C 734.717 1.61957 -1.07161 0
M  V30 7528 O 733.992 1.9412 -0.121546 0
M  V30 7529 C 734.275 0.926666 -3.47973 0
M  V30 7530 C 734.128 -0.237097 -4.49175 0
M  V30 7531 C 735.447 1.79561 -4.01803 0
M  V30 7532 H 732.566 0.164619 -0.71838 0
M  V30 7533 H 735.208 -0.274039 -1.88013 0
M  V30 7534 H 733.358 1.54954 -3.56261 0
M  V30 7535 H 735.03 -0.87454 -4.52934 0
M  V30 7536 H 733.273 -0.890446 -4.24563 0
M  V30 7537 H 733.944 0.133924 -5.51838 0
M  V30 7538 H 736.42 1.27039 -3.96232 0
M  V30 7539 H 735.296 2.09327 -5.07418 0
M  V30 7540 H 735.557 2.74629 -3.46455 0
M  V30 7541 N 734.616 1.57351 0.0885366 0
M  V30 7542 C 736.027 1.75303 0.642308 0
M  V30 7543 C 736.378 0.808238 1.78779 0
M  V30 7544 O 735.503 -0.01171 2.16397 0
M  V30 7545 C 736.098 3.17885 1.17194 0
M  V30 7546 C 734.657 3.37239 1.67172 0
M  V30 7547 C 733.804 2.7108 0.584045 0
M  V30 7548 H 736.755 1.58103 -0.137567 0
M  V30 7549 H 736.776 3.2112 2.04114 0
M  V30 7550 H 736.288 3.86625 0.338024 0
M  V30 7551 H 734.389 2.73588 2.52943 0
M  V30 7552 H 734.502 4.45594 1.76019 0
M  V30 7553 H 732.866 2.33161 1.02508 0
M  V30 7554 H 733.649 3.42464 -0.239403 0
M  V30 7555 N 736.094 -0.359525 1.53444 0
M  V30 7556 C 737.057 -1.42357 1.7963 0
M  V30 7557 C 738.057 -1.46319 0.666884 0
M  V30 7558 O 739.247 -1.46974 0.935113 0
M  V30 7559 C 736.379 -2.81425 1.92387 0
M  V30 7560 H 737.572 -1.20409 2.74666 0
M  V30 7561 H 735.125 -0.593007 1.44614 0
M  V30 7562 H 735.86 -3.08679 0.994384 0
M  V30 7563 H 735.645 -2.79947 2.74539 0
M  V30 7564 H 737.135 -3.5847 2.14218 0
M  V30 7565 N 737.572 -1.44907 -0.619662 0
M  V30 7566 C 738.519 -1.52654 -1.73105 0
M  V30 7567 C 739.489 -0.373334 -1.6185 0
M  V30 7568 O 740.674 -0.585143 -1.81606 0
M  V30 7569 C 737.814 -1.48769 -3.11387 0
M  V30 7570 C 736.927 -2.74551 -3.33535 0
M  V30 7571 C 736.062 -2.62421 -4.61854 0
M  V30 7572 C 735.101 -3.83312 -4.77219 0
M  V30 7573 N 734.238 -3.69789 -5.96826 0
M  V30 7574 H 739.078 -2.47605 -1.65819 0
M  V30 7575 H 736.615 -1.22875 -0.808719 0
M  V30 7576 H 738.573 -1.44507 -3.91374 0
M  V30 7577 H 737.203 -0.573783 -3.1766 0
M  V30 7578 H 736.255 -2.88953 -2.47408 0
M  V30 7579 H 737.567 -3.64253 -3.40765 0
M  V30 7580 H 736.721 -2.56056 -5.50019 0
M  V30 7581 H 735.46 -1.70298 -4.57001 0
M  V30 7582 H 734.465 -3.90049 -3.87481 0
M  V30 7583 H 735.69 -4.76486 -4.83878 0
M  V30 7584 H 733.636 -2.80426 -5.93041 0
M  V30 7585 H 733.553 -4.53116 -6.05163 0
M  V30 7586 H 734.821 -3.67335 -6.87521 0
M  V30 7587 N 739.05 0.861098 -1.31996 0
M  V30 7588 C 740.275 1.65264 -1.2531 0
M  V30 7589 C 740.7 1.87265 0.177007 0
M  V30 7590 O 740.058 1.4208 1.12619 0
M  V30 7591 C 740.106 2.99284 -2.0115 0
M  V30 7592 O 739.21 3.89508 -1.3549 0
M  V30 7593 H 738.551 0.50409 -0.432192 0
M  V30 7594 H 741.081 1.07297 -1.74208 0
M  V30 7595 H 741.091 3.49154 -2.11081 0
M  V30 7596 H 739.766 2.82591 -3.05148 0
M  V30 7597 H 738.343 3.47966 -1.34066 0
M  V30 7598 N 740.528 1.15101 1.07655 0
M  V30 7599 C 741.774 0.925343 1.80458 0
M  V30 7600 C 742.107 -0.546354 1.86356 0
M  V30 7601 O 741.382 -1.40496 1.34503 0
M  V30 7602 C 741.665 1.53646 3.25676 0
M  V30 7603 C 741.518 3.07854 3.27942 0
M  V30 7604 C 742.837 1.21968 4.22861 0
M  V30 7605 H 739.956 0.337592 0.655134 0
M  V30 7606 H 742.598 1.42217 1.25993 0
M  V30 7607 H 740.748 1.11395 3.72187 0
M  V30 7608 H 742.42 3.58989 2.89697 0
M  V30 7609 H 740.663 3.41904 2.66991 0
M  V30 7610 H 741.334 3.45725 4.30324 0
M  V30 7611 H 743.81 1.5851 3.84726 0
M  V30 7612 H 742.686 1.67349 5.22767 0
M  V30 7613 H 742.947 0.136207 4.4189 0
M  V30 7614 N 742.006 -1.2595 0.947325 0
M  V30 7615 C 743.246 -1.95218 0.605743 0
M  V30 7616 C 743.61 -1.72624 -0.84054 0
M  V30 7617 O 744.811 -2.35748 -1.29136 0
M  V30 7618 C 743.082 -3.44654 0.94596 0
M  V30 7619 S 744.641 -4.32922 0.715849 0
M  V30 7620 H 741.459 -0.675159 0.222894 0
M  V30 7621 H 744.061 -1.52766 1.21995 0
M  V30 7622 H 742.765 -3.586 1.99585 0
M  V30 7623 H 742.296 -3.92082 0.321718 0
M  V30 7624 H 744.311 -4.94445 -0.416959 0
M  V30 7625 N 743.484 -0.715051 -1.40445 0
M  V30 7626 C 744.732 -0.253826 -2.005 0
M  V30 7627 C 745.053 1.15681 -1.5698 0
M  V30 7628 O 744.323 1.78414 -0.809027 0
M  V30 7629 H 742.903 -0.0908537 -0.741454 0
M  V30 7630 H 745.565 -0.920561 -1.7179 0
M  V30 7631 H 744.661 -0.286499 -3.10782 0
M  V30 7632 N 744.962 1.50701 -0.461195 0
M  V30 7633 C 746.373 1.867 -0.00370227 0
M  V30 7634 C 746.724 1.37673 1.39787 0
M  V30 7635 O 745.849 0.737515 2.03445 0
M  V30 7636 C 746.444 3.388 5.75786e-05 0
M  V30 7637 C 745.003 3.74247 0.402044 0
M  V30 7638 C 744.15 2.74549 -0.389652 0
M  V30 7639 H 747.101 1.43585 -0.675942 0
M  V30 7640 H 747.122 3.719 0.804414 0
M  V30 7641 H 746.634 3.74452 -1.02015 0
M  V30 7642 H 744.735 3.44192 1.42697 0
M  V30 7643 H 744.848 4.78973 0.110265 0
M  V30 7644 H 743.212 2.54226 0.155314 0
M  V30 7645 H 743.995 3.13044 -1.40919 0
M  V30 7646 N 746.441 0.193421 1.56409 0
M  V30 7647 C 747.687 -0.446449 1.97825 0
M  V30 7648 C 748.02 -1.61386 1.08019 0
M  V30 7649 O 747.295 -1.94053 0.131839 0
M  V30 7650 C 747.578 -0.908199 3.48459 0
M  V30 7651 C 747.431 0.260914 4.49043 0
M  V30 7652 C 748.75 -1.77428 4.0275 0
M  V30 7653 H 745.869 -0.160807 0.719243 0
M  V30 7654 H 748.511 0.284006 1.87865 0
M  V30 7655 H 746.661 -1.53062 3.57077 0
M  V30 7656 H 748.333 0.898548 4.52464 0
M  V30 7657 H 746.576 0.912949 4.24085 0
M  V30 7658 H 747.247 -0.104657 5.51901 0
M  V30 7659 H 749.723 -1.24936 3.96901 0
M  V30 7660 H 748.599 -2.06633 5.08521 0
M  V30 7661 H 748.86 -2.72788 3.47907 0
M  V30 7662 N 747.919 -1.57396 -0.0801906 0
M  V30 7663 C 749.149 -1.90778 -0.792924 0
M  V30 7664 C 749.557 -0.786814 -1.72064 0
M  V30 7665 O 748.9 0.249259 -1.82001 0
M  V30 7666 C 748.962 -3.19552 -1.64702 0
M  V30 7667 C 748.626 -4.48259 -0.889567 0
M  V30 7668 C 749.623 -5.19465 -0.212602 0
M  V30 7669 C 747.308 -4.94896 -0.859229 0
M  V30 7670 C 749.302 -6.35555 0.484566 0
M  V30 7671 C 746.989 -6.10895 -0.158284 0
M  V30 7672 C 747.987 -6.81075 0.512421 0
M  V30 7673 O 747.675 -7.94862 1.20209 0
M  V30 7674 H 747.407 -0.63527 -0.231103 0
M  V30 7675 H 749.961 -2.0532 -0.0573081 0
M  V30 7676 H 748.191 -3.01196 -2.42524 0
M  V30 7677 H 749.88 -3.38649 -2.23767 0
M  V30 7678 H 750.646 -4.84467 -0.227403 0
M  V30 7679 H 746.525 -4.4015 -1.37073 0
M  V30 7680 H 750.069 -6.9027 1.00864 0
M  V30 7681 H 745.966 -6.45345 -0.141381 0
M  V30 7682 H 746.734 -8.10932 1.11051 0
M  V30 7683 N 749.397 0.351382 -1.53633 0
M  V30 7684 C 750.637 1.10102 -1.72212 0
M  V30 7685 C 751.001 1.86128 -0.471198 0
M  V30 7686 O 752.202 2.63445 -0.533887 0
M  V30 7687 C 750.473 2.02348 -2.94602 0
M  V30 7688 S 752.032 2.84641 -3.33954 0
M  V30 7689 H 748.85 0.372145 -0.60583 0
M  V30 7690 H 751.452 0.38044 -1.91763 0
M  V30 7691 H 750.156 1.45283 -3.83824 0
M  V30 7692 H 749.687 2.78856 -2.77493 0
M  V30 7693 H 751.702 4.04724 -2.87076 0
M  V30 7694 N 750.875 1.45233 0.611969 0
M  V30 7695 C 752.122 1.49021 1.37109 0
M  V30 7696 C 752.45 0.130227 1.94064 0
M  V30 7697 O 751.705 -0.870551 1.75271 0
M  V30 7698 C 752.004 2.51353 2.54079 0
M  V30 7699 C 751.67 3.96178 2.15299 0
M  V30 7700 C 750.332 4.35614 2.04436 0
M  V30 7701 C 752.684 4.87275 1.84966 0
M  V30 7702 C 750.012 5.64047 1.61456 0
M  V30 7703 C 752.364 6.16115 1.43474 0
M  V30 7704 C 751.028 6.54486 1.31167 0
M  V30 7705 H 750.298 0.545307 0.501719 0
M  V30 7706 H 752.945 1.78555 0.692122 0
M  V30 7707 H 751.25 2.15372 3.27295 0
M  V30 7708 H 752.947 2.51523 3.12309 0
M  V30 7709 H 749.537 3.6499 2.24678 0
M  V30 7710 H 753.721 4.57548 1.92258 0
M  V30 7711 H 748.977 5.92575 1.50547 0
M  V30 7712 H 753.151 6.86149 1.19048 0
M  V30 7713 H 750.778 7.53904 0.97637 0
M  V30 7714 N 752.353 -0.854086 1.3245 0
M  V30 7715 C 753.581 -1.64074 1.26045 0
M  V30 7716 C 753.996 -1.8802 -0.171456 0
M  V30 7717 O 753.353 -1.4496 -1.10873 0
M  V30 7718 C 753.404 -2.9997 2.01743 0
M  V30 7719 O 753.125 -2.77084 3.39346 0
M  V30 7720 C 754.626 -3.94414 2.02368 0
M  V30 7721 H 751.846 -0.511015 0.434862 0
M  V30 7722 H 754.39 -1.06494 1.74583 0
M  V30 7723 H 752.545 -3.54193 1.56926 0
M  V30 7724 H 752.959 -3.63514 3.78098 0
M  V30 7725 H 754.433 -4.87032 2.59815 0
M  V30 7726 H 754.91 -4.27427 1.01009 0
M  V30 7727 H 755.516 -3.46127 2.47135 0
M  V30 7728 N 753.831 -1.1567 -1.07043 0
M  V30 7729 C 755.242 -0.942408 -1.61169 0
M  V30 7730 C 755.593 0.515537 -1.89306 0
M  V30 7731 O 754.718 1.38726 -1.66084 0
M  V30 7732 C 755.313 -1.70431 -2.92812 0
M  V30 7733 C 753.872 -1.53521 -3.43669 0
M  V30 7734 C 753.019 -1.7179 -2.17678 0
M  V30 7735 H 755.97 -1.3065 -0.9009 0
M  V30 7736 H 755.991 -1.17566 -3.61882 0
M  V30 7737 H 755.503 -2.76538 -2.72302 0
M  V30 7738 H 753.604 -0.498224 -3.69254 0
M  V30 7739 H 753.717 -2.31422 -4.19501 0
M  V30 7740 H 752.081 -1.14468 -2.27529 0
M  V30 7741 H 752.864 -2.79269 -1.99659 0
M  V30 7742 N 755.309 1.25446 -0.953992 0
M  V30 7743 C 756.534 1.97755 -0.625129 0
M  V30 7744 C 756.959 1.70437 0.795787 0
M  V30 7745 O 756.317 0.95992 1.53803 0
M  V30 7746 C 756.365 3.49463 -0.889251 0
M  V30 7747 O 755.469 4.12387 0.0322757 0
M  V30 7748 H 754.81 0.61998 -0.237742 0
M  V30 7749 H 757.34 1.59582 -1.28041 0
M  V30 7750 H 757.35 3.99772 -0.815263 0
M  V30 7751 H 756.025 3.68676 -1.92487 0
M  V30 7752 H 754.602 3.72782 -0.0938625 0
M  V30 7753 N 756.787 0.722489 1.40064 0
M  V30 7754 C 758.198 0.336507 1.83642 0
M  V30 7755 C 758.549 -1.13002 1.6039 0
M  V30 7756 O 757.674 -1.87036 1.08842 0
M  V30 7757 C 758.269 0.603985 3.33373 0
M  V30 7758 C 756.828 0.271637 3.75419 0
M  V30 7759 C 755.975 0.872898 2.63203 0
M  V30 7760 H 758.926 0.921108 1.29233 0
M  V30 7761 H 758.947 -0.128471 3.80283 0
M  V30 7762 H 758.459 1.67141 3.50265 0
M  V30 7763 H 756.56 -0.790455 3.64119 0
M  V30 7764 H 756.673 0.745457 4.73265 0
M  V30 7765 H 755.037 0.300431 2.52922 0
M  V30 7766 H 755.82 1.94473 2.82905 0
M  V30 7767 N 758.265 -1.50454 0.469181 0
M  V30 7768 C 759.511 -2.02615 -0.0865971 0
M  V30 7769 C 759.844 -1.35062 -1.39542 0
M  V30 7770 O 759.119 -0.475701 -1.88593 0
M  V30 7771 C 759.402 -3.59068 -0.272385 0
M  V30 7772 C 759.255 -4.37196 1.05733 0
M  V30 7773 C 760.574 -4.2793 -1.0278 0
M  V30 7774 H 757.693 -0.736389 -0.0299977 0
M  V30 7775 H 760.335 -1.79792 0.614399 0
M  V30 7776 H 758.485 -3.78646 -0.869471 0
M  V30 7777 H 760.157 -4.29195 1.69084 0
M  V30 7778 H 758.4 -4.01013 1.65442 0
M  V30 7779 H 759.071 -5.44924 0.880997 0
M  V30 7780 H 761.547 -4.12816 -0.521718 0
M  V30 7781 H 760.423 -5.37214 -1.12659 0
M  V30 7782 H 760.684 -3.90968 -2.0639 0
M  V30 7783 N 759.743 -0.201713 -1.56304 0
M  V30 7784 C 760.989 0.435952 -1.98059 0
M  V30 7785 C 761.322 1.60811 -1.08873 0
M  V30 7786 O 760.597 1.9398 -0.142128 0
M  V30 7787 C 760.88 0.889706 -3.48936 0
M  V30 7788 C 760.733 -0.284725 -4.48898 0
M  V30 7789 C 762.052 1.7529 -4.03685 0
M  V30 7790 H 759.171 0.15699 -0.720085 0
M  V30 7791 H 761.813 -0.293965 -1.87712 0
M  V30 7792 H 759.963 1.51166 -3.57884 0
M  V30 7793 H 761.635 -0.922531 -4.51981 0
M  V30 7794 H 759.878 -0.935427 -4.23594 0
M  V30 7795 H 760.549 0.0753865 -5.51949 0
M  V30 7796 H 763.025 1.2283 -3.97558 0
M  V30 7797 H 761.901 2.03933 -5.0961 0
M  V30 7798 H 762.162 2.70939 -3.49348 0
M  V30 7799 N 761.222 1.57436 0.0718424 0
M  V30 7800 C 762.468 1.87525 0.772149 0
M  V30 7801 C 762.801 0.79399 1.77227 0
M  V30 7802 O 762.076 -0.195733 1.93513 0
M  V30 7803 C 762.359 3.28272 1.48018 0
M  V30 7804 C 762.212 4.47052 0.49647 0
M  V30 7805 C 763.531 3.67256 2.42509 0
M  V30 7806 H 760.65 0.682049 0.279245 0
M  V30 7807 H 763.292 1.89967 0.03534 0
M  V30 7808 H 761.442 3.26321 2.10824 0
M  V30 7809 H 763.114 4.61127 -0.126375 0
M  V30 7810 H 761.357 4.33392 -0.188205 0
M  V30 7811 H 762.028 5.42315 1.02949 0
M  V30 7812 H 764.504 3.70301 1.89781 0
M  V30 7813 H 763.38 4.66626 2.89053 0
M  V30 7814 H 763.641 2.97186 3.27312 0
M  V30 7815 N 762.7 -0.34323 1.53817 0
M  V30 7816 C 763.948 -1.0813 1.70741 0
M  V30 7817 C 764.269 -1.89165 0.473461 0
M  V30 7818 O 763.539 -1.89075 -0.512605 0
M  V30 7819 H 762.119 -0.40219 0.629486 0
M  V30 7820 H 764.781 -0.384426 1.91071 0
M  V30 7821 H 763.877 -1.7585 2.57843 0
M  V30 7822 N 764.178 -1.45556 -0.604258 0
M  V30 7823 C 765.406 -1.53278 -1.38973 0
M  V30 7824 C 765.821 -0.166509 -1.88064 0
M  V30 7825 O 765.178 0.832519 -1.62405 0
M  V30 7826 C 765.229 -2.51992 -2.59195 0
M  V30 7827 O 764.95 -3.8331 -2.12143 0
M  V30 7828 C 766.451 -2.69445 -3.52015 0
M  V30 7829 H 763.671 -0.519003 -0.425297 0
M  V30 7830 H 766.215 -1.90773 -0.736621 0
M  V30 7831 H 764.37 -2.17561 -3.2054 0
M  V30 7832 H 764.784 -4.3685 -2.90279 0
M  V30 7833 H 766.258 -3.42485 -4.32907 0
M  V30 7834 H 766.735 -1.75596 -4.0257 0
M  V30 7835 H 767.341 -3.04886 -2.9652 0
M  V30 7836 N 765.656 0.84705 -1.32902 0
M  V30 7837 C 766.884 1.63403 -1.26913 0
M  V30 7838 C 767.299 1.88108 0.161483 0
M  V30 7839 O 766.656 1.45546 1.10103 0
M  V30 7840 C 766.707 2.98896 -2.03331 0
M  V30 7841 O 766.428 2.75281 -3.40811 0
M  V30 7842 C 767.929 3.93335 -2.04457 0
M  V30 7843 H 765.149 0.508701 -0.437566 0
M  V30 7844 H 767.693 1.05567 -1.75145 0
M  V30 7845 H 765.848 3.53356 -1.58802 0
M  V30 7846 H 766.262 3.61504 -3.8002 0
M  V30 7847 H 767.736 4.85647 -2.62394 0
M  V30 7848 H 768.213 4.26885 -1.03274 0
M  V30 7849 H 768.819 3.44812 -2.48967 0
M  V30 7850 N 767.134 1.16236 1.06428 0
M  V30 7851 C 768.411 0.853294 1.76006 0
M  V30 7852 C 768.791 -0.649162 2.00871 0
M  V30 7853 O 768.139 -1.59653 1.63472 0
M  V30 7854 C 768.349 1.67448 3.06206 0
M  V30 7855 C 769.697 1.8866 3.80385 0
M  V30 7856 O 770.721 1.64303 3.16043 0
M  V30 7857 O 769.58 2.29518 4.95968 0
M  V30 7858 H 766.674 0.314737 0.764767 0
M  V30 7859 H 769.22 1.26865 1.12709 0
M  V30 7860 H 767.992 2.69411 2.83784 0
M  V30 7861 H 767.615 1.25608 3.77238 0
M  V30 7862 N 768.612 -1.24939 0.960631 0
M  V30 7863 C 770.028 -1.45039 0.666018 0
M  V30 7864 C 770.228 -1.86021 -0.774501 0
M  V30 7865 O 769.284 -1.99392 -1.54916 0
M  V30 7866 C 770.597 -2.51775 1.64408 0
M  V30 7867 C 772.145 -2.6561 1.65592 0
M  V30 7868 C 772.62 -3.75536 2.62177 0
M  V30 7869 N 774.111 -3.82954 2.60577 0
M  V30 7870 C 774.846 -4.67517 3.31987 0
M  V30 7871 N 774.342 -5.56321 4.1289 0
M  V30 7872 N 776.135 -4.61535 3.20845 0
M  V30 7873 H 768.286 -0.96632 1.89145 0
M  V30 7874 H 770.549 -0.486034 0.813926 0
M  V30 7875 H 770.255 -2.28534 2.67329 0
M  V30 7876 H 770.129 -3.49804 1.41128 0
M  V30 7877 H 772.516 -2.88212 0.633846 0
M  V30 7878 H 772.597 -1.67962 1.92931 0
M  V30 7879 H 772.241 -3.53684 3.64514 0
M  V30 7880 H 772.171 -4.72682 2.32119 0
M  V30 7881 H 774.662 -3.19478 2.01847 0
M  V30 7882 H 774.975 -6.17787 4.64283 0
M  V30 7883 H 773.32 -5.5601 4.16987 0
M  V30 7884 H 776.511 -3.91169 2.57108 0
M  V30 7885 H 776.684 -5.27214 3.76762 0
M  V30 7886 N 770.09 -0.729906 -1.39679 0
M  V30 7887 C 771.315 -0.284345 -2.05442 0
M  V30 7888 C 771.74 1.07056 -1.54663 0
M  V30 7889 O 771.098 1.67732 -0.688157 0
M  V30 7890 C 771.146 -0.290089 -3.59431 0
M  V30 7891 O 770.25 0.723978 -4.05995 0
M  V30 7892 H 769.591 -0.130311 -0.651088 0
M  V30 7893 H 772.121 -0.994403 -1.78809 0
M  V30 7894 H 772.131 -0.132712 -4.07784 0
M  V30 7895 H 770.806 -1.27877 -3.95753 0
M  V30 7896 H 769.383 0.533154 -3.69069 0
M  V30 7897 N 771.568 1.50203 -0.477153 0
M  V30 7898 C 772.816 2.01959 0.0755889 0
M  V30 7899 C 773.137 1.3608 1.39668 0
M  V30 7900 O 772.407 0.508136 1.89195 0
M  V30 7901 H 770.987 0.74636 0.0309248 0
M  V30 7902 H 773.649 1.84473 -0.628959 0
M  V30 7903 H 772.745 3.11305 0.222683 0
M  V30 7904 N 773.046 0.209999 1.56195 0
M  V30 7905 C 774.009 -0.691232 2.18528 0
M  V30 7906 C 775.009 -1.13013 1.14388 0
M  V30 7907 O 776.199 -1.04081 1.39688 0
M  V30 7908 C 773.331 -1.94551 2.79934 0
M  V30 7909 H 774.524 -0.147953 2.99535 0
M  V30 7910 H 772.077 -0.0396243 1.5625 0
M  V30 7911 H 772.812 -2.53094 2.02766 0
M  V30 7912 H 772.597 -1.63938 3.56184 0
M  V30 7913 H 774.087 -2.58785 3.2775 0
M  V30 7914 N 774.524 -1.57472 -0.0634922 0
M  V30 7915 C 775.935 -1.76303 -0.614337 0
M  V30 7916 C 776.286 -0.836578 -1.77471 0
M  V30 7917 O 775.411 -0.0227184 -2.16388 0
M  V30 7918 C 776.006 -3.19709 -1.12122 0
M  V30 7919 C 774.565 -3.39856 -1.61786 0
M  V30 7920 C 773.712 -2.71975 -0.540845 0
M  V30 7921 H 776.663 -1.57864 0.162702 0
M  V30 7922 H 776.684 -3.24326 -1.98979 0
M  V30 7923 H 776.196 -3.87114 -0.276472 0
M  V30 7924 H 774.297 -2.77578 -2.48558 0
M  V30 7925 H 774.41 -4.48338 -1.68908 0
M  V30 7926 H 772.774 -2.34763 -0.987854 0
M  V30 7927 H 773.557 -3.4204 0.293856 0
M  V30 7928 N 776.003 0.335068 -1.53997 0
M  V30 7929 C 777.231 1.09418 -1.756 0
M  V30 7930 C 777.646 1.82083 -0.499138 0
M  V30 7931 O 777.003 1.74646 0.529631 0
M  V30 7932 C 777.054 2.10115 -2.94166 0
M  V30 7933 O 776.775 1.40404 -4.14992 0
M  V30 7934 C 778.276 2.98336 -3.27888 0
M  V30 7935 H 775.496 0.32595 -0.586513 0
M  V30 7936 H 778.04 0.384693 -2.00849 0
M  V30 7937 H 776.195 2.76616 -2.71224 0
M  V30 7938 H 776.609 2.07743 -4.81605 0
M  V30 7939 H 778.083 3.6491 -4.1418 0
M  V30 7940 H 778.56 3.64814 -2.44556 0
M  V30 7941 H 779.166 2.37412 -3.52868 0
M  V30 7942 N 777.481 1.45874 0.596531 0
M  V30 7943 C 778.711 1.5379 1.37958 0
M  V30 7944 C 779.119 0.173086 1.88407 0
M  V30 7945 O 778.462 -0.837498 1.63498 0
M  V30 7946 C 778.524 2.47044 2.61169 0
M  V30 7947 C 778.188 3.93565 2.32283 0
M  V30 7948 C 779.185 4.83162 1.91965 0
M  V30 7949 C 776.87 4.38579 2.44854 0
M  V30 7950 C 778.864 6.15782 1.64593 0
M  V30 7951 C 776.551 5.71238 2.17095 0
M  V30 7952 C 777.549 6.59659 1.77028 0
M  V30 7953 O 777.237 7.89857 1.49601 0
M  V30 7954 H 776.969 0.523 0.428307 0
M  V30 7955 H 779.523 1.91855 0.733529 0
M  V30 7956 H 777.753 2.0397 3.28532 0
M  V30 7957 H 779.442 2.4552 3.23226 0
M  V30 7958 H 780.208 4.49646 1.8178 0
M  V30 7959 H 776.087 3.6999 2.75006 0
M  V30 7960 H 779.631 6.84757 1.33245 0
M  V30 7961 H 775.528 6.04306 2.26901 0
M  V30 7962 H 776.296 8.01991 1.63561 0
M  V30 7963 N 778.959 -0.83999 1.33349 0
M  V30 7964 C 780.184 -1.63249 1.27924 0
M  V30 7965 C 780.609 -1.87523 -0.147193 0
M  V30 7966 O 779.967 -1.43853 -1.10345 0
M  V30 7967 C 780.015 -2.96046 2.05886 0
M  V30 7968 O 779.119 -3.87303 1.4167 0
M  V30 7969 H 778.46 -0.49715 0.440157 0
M  V30 7970 H 780.99 -1.04512 1.75893 0
M  V30 7971 H 781 -3.45752 2.16609 0
M  V30 7972 H 779.675 -2.77701 3.09605 0
M  V30 7973 H 778.252 -3.45789 1.39585 0
M  V30 7974 N 780.437 -1.16799 -1.0581 0
M  V30 7975 C 781.683 -0.963929 -1.79109 0
M  V30 7976 C 782.038 0.502569 -1.8572 0
M  V30 7977 O 781.331 1.36813 -1.34137 0
M  V30 7978 C 781.525 -1.53111 -3.22942 0
M  V30 7979 C 781.354 -3.05123 -3.30348 0
M  V30 7980 C 780.124 -3.73804 -3.39998 0
M  V30 7981 C 782.322 -4.02777 -3.19805 0
M  V30 7982 N 780.304 -5.1348 -3.36469 0
M  V30 7983 C 781.675 -5.28866 -3.23576 0
M  V30 7984 C 783.73 -3.94533 -3.03724 0
M  V30 7985 C 782.433 -6.47669 -3.12918 0
M  V30 7986 C 784.459 -5.12913 -2.94405 0
M  V30 7987 C 783.821 -6.37884 -2.98803 0
M  V30 7988 H 779.92 -0.406555 -0.66801 0
M  V30 7989 H 782.504 -1.48277 -1.26183 0
M  V30 7990 H 780.675 -1.03869 -3.74254 0
M  V30 7991 H 782.407 -1.2643 -3.84444 0
M  V30 7992 H 779.162 -3.24457 -3.44999 0
M  V30 7993 H 779.586 -5.86477 -3.38191 0
M  V30 7994 H 784.228 -2.98763 -2.99166 0
M  V30 7995 H 781.946 -7.43656 -3.16231 0
M  V30 7996 H 785.532 -5.08309 -2.83042 0
M  V30 7997 H 784.412 -7.27946 -2.91657 0
M  V30 7998 N 781.915 1.24427 -0.967243 0
M  V30 7999 C 783.163 1.92107 -0.627638 0
M  V30 8000 C 783.484 1.75991 0.83978 0
M  V30 8001 O 782.754 1.13118 1.59941 0
M  V30 8002 H 781.334 0.710986 -0.229145 0
M  V30 8003 H 783.996 1.51331 -1.22821 0
M  V30 8004 H 783.092 2.99791 -0.867844 0
M  V30 8005 N 783.393 0.737304 1.3929 0
M  V30 8006 C 784.303 0.100464 2.34385 0
M  V30 8007 C 785.319 -0.719282 1.58437 0
M  V30 8008 O 786.495 -0.647216 1.90717 0
M  V30 8009 C 783.56 -0.794325 3.37478 0
M  V30 8010 C 782.621 0.0379345 4.29283 0
M  V30 8011 C 781.854 -0.814241 5.27452 0
M  V30 8012 O 782.077 -2.05288 5.32177 0
M  V30 8013 O 781.011 -0.241679 6.01415 0
M  V30 8014 H 784.837 0.885407 2.90507 0
M  V30 8015 H 782.422 0.497999 1.40856 0
M  V30 8016 H 784.304 -1.30622 4.00644 0
M  V30 8017 H 782.979 -1.55804 2.83737 0
M  V30 8018 H 781.886 0.595405 3.69331 0
M  V30 8019 H 783.219 0.763926 4.86236 0
M  V30 8020 N 784.871 -1.49948 0.485112 0
M  V30 8021 C 785.819 -2.30449 -0.315609 0
M  V30 8022 C 786.813 -1.38351 -0.977516 0
M  V30 8023 O 788.019 -1.55477 -0.907019 0
M  V30 8024 H 784.394 -0.742262 -0.120629 0
M  V30 8025 H 786.365 -2.95925 0.383552 0
M  V30 8026 C 785.114 -3.19283 -1.37673 0
M  V30 8027 H 784.437 -3.90067 -0.876801 0
M  V30 8028 H 785.877 -3.78579 -1.90929 0
M  V30 8029 C 784.336 -2.37817 -2.38631 0
M  V30 8030 O 784.866 -2.0711 -3.44192 0
M  V30 8031 N 783.072 -2.00135 -2.107 0
M  V30 8032 H 782.619 -2.25307 -1.24878 0
M  V30 8033 H 782.577 -1.45933 -2.7848 0
M  V30 8034 N 786.349 -0.21828 -1.56081 0
M  V30 8035 C 787.626 0.463143 -1.90038 0
M  V30 8036 C 788.006 1.77982 -1.13515 0
M  V30 8037 O 787.354 2.27199 -0.24345 0
M  V30 8038 C 787.564 0.659292 -3.42716 0
M  V30 8039 C 788.912 0.968203 -4.13414 0
M  V30 8040 O 789.936 0.746195 -3.48296 0
M  V30 8041 O 788.795 1.38936 -5.28544 0
M  V30 8042 H 785.889 0.244435 -0.790051 0
M  V30 8043 H 788.435 -0.260221 -1.67693 0
M  V30 8044 H 787.207 -0.269584 -3.9037 0
M  V30 8045 H 786.83 1.43426 -3.7083 0
M  V30 8046 N 787.827 1.57504 0.0551401 0
M  V30 8047 C 789.055 1.92294 0.76358 0
M  V30 8048 C 789.47 0.815774 1.70266 0
M  V30 8049 O 788.827 -0.209772 1.8129 0
M  V30 8050 C 788.878 3.26914 1.54302 0
M  V30 8051 O 788.599 4.33375 0.641666 0
M  V30 8052 C 790.1 3.75825 2.35097 0
M  V30 8053 H 787.32 0.635229 0.216159 0
M  V30 8054 H 789.864 2.0449 0.0204385 0
M  V30 8055 H 788.019 3.16196 2.23828 0
M  V30 8056 H 788.433 5.10927 1.1855 0
M  V30 8057 H 789.907 4.72603 2.8522 0
M  V30 8058 H 790.384 3.0568 3.15367 0
M  V30 8059 H 790.99 3.89542 1.70696 0
M  V30 8060 N 789.305 -0.326896 1.54172 0
M  V30 8061 C 790.582 -1.08326 1.62864 0
M  V30 8062 C 790.962 -2.06018 0.46039 0
M  V30 8063 O 790.31 -2.21889 -0.545685 0
M  V30 8064 C 790.52 -1.78816 2.9971 0
M  V30 8065 C 791.868 -2.31958 3.55641 0
M  V30 8066 O 792.892 -1.88888 3.01993 0
M  V30 8067 O 791.751 -3.10801 4.49517 0
M  V30 8068 H 788.845 -0.499131 0.659392 0
M  V30 8069 H 791.391 -0.327054 1.66519 0
M  V30 8070 H 790.163 -1.07739 3.76176 0
M  V30 8071 H 789.786 -2.61255 2.99719 0
M  V30 8072 N 790.784 -1.46188 -0.588786 0
M  V30 8073 C 792.03 -1.51407 -1.34921 0
M  V30 8074 C 792.363 -0.162771 -1.93517 0
M  V30 8075 O 791.638 0.825082 -1.76132 0
M  V30 8076 C 791.921 -2.60795 -2.48311 0
M  V30 8077 C 791.774 -4.05435 -1.94789 0
M  V30 8078 C 793.093 -2.66313 -3.50379 0
M  V30 8079 H 790.212 -0.551213 -0.489217 0
M  V30 8080 H 792.854 -1.78095 -0.661993 0
M  V30 8081 H 791.004 -2.3817 -3.06932 0
M  V30 8082 H 792.676 -4.39328 -1.40672 0
M  V30 8083 H 790.919 -4.15202 -1.25659 0
M  V30 8084 H 791.59 -4.77691 -2.76613 0
M  V30 8085 H 794.066 -2.86634 -3.01629 0
M  V30 8086 H 792.942 -3.44681 -4.27184 0
M  V30 8087 H 793.203 -1.72127 -4.07216 0
M  V30 8088 N 792.262 0.832906 -1.33792 0
M  V30 8089 C 793.509 1.58853 -1.25586 0
M  V30 8090 C 793.837 1.93695 0.176807 0
M  V30 8091 O 793.092 1.59386 1.13554 0
M  V30 8092 C 793.391 2.9047 -2.08235 0
M  V30 8093 C 793.057 2.74965 -3.57358 0
M  V30 8094 C 791.719 2.70444 -3.98012 0
M  V30 8095 C 794.071 2.59347 -4.52093 0
M  V30 8096 C 791.399 2.48212 -5.31608 0
M  V30 8097 C 793.751 2.38649 -5.85858 0
M  V30 8098 C 792.415 2.32533 -6.25687 0
M  V30 8099 H 791.685 0.581285 -0.459553 0
M  V30 8100 H 794.332 0.964501 -1.65438 0
M  V30 8101 H 792.637 3.57111 -1.6118 0
M  V30 8102 H 794.334 3.48001 -1.99239 0
M  V30 8103 H 790.924 2.79319 -3.25083 0
M  V30 8104 H 795.108 2.6187 -4.2159 0
M  V30 8105 H 790.364 2.41929 -5.61498 0
M  V30 8106 H 794.538 2.25549 -6.58863 0
M  V30 8107 H 792.165 2.15067 -7.29143 0
M  V30 8108 N 793.74 1.17359 1.05189 0
M  V30 8109 C 794.986 0.963413 1.78455 0
M  V30 8110 C 795.319 -0.506703 1.87473 0
M  V30 8111 O 794.594 -1.37611 1.37453 0
M  V30 8112 C 794.877 1.60519 3.22344 0
M  V30 8113 C 794.73 3.14741 3.21338 0
M  V30 8114 C 796.049 1.3091 4.20179 0
M  V30 8115 H 793.168 0.351412 0.647826 0
M  V30 8116 H 795.81 1.44858 1.22948 0
M  V30 8117 H 793.96 1.19265 3.69741 0
M  V30 8118 H 795.632 3.65053 2.82017 0
M  V30 8119 H 793.875 3.4749 2.59679 0
M  V30 8120 H 794.546 3.54775 4.22894 0
M  V30 8121 H 797.022 1.66635 3.81277 0
M  V30 8122 H 795.898 1.784 5.191 0
M  V30 8123 H 796.159 0.229908 4.41502 0
M  V30 8124 N 795.218 -1.23913 0.973828 0
M  V30 8125 C 796.148 -2.27453 0.527969 0
M  V30 8126 C 797.129 -1.6443 -0.435513 0
M  V30 8127 O 798.314 -1.9137 -0.330306 0
M  V30 8128 C 795.444 -3.4685 -0.176757 0
M  V30 8129 C 794.398 -4.22181 0.703352 0
M  V30 8130 C 793.724 -5.34534 -0.133215 0
M  V30 8131 C 795.024 -4.82865 1.99096 0
M  V30 8132 H 796.718 -2.65 1.3934 0
M  V30 8133 H 794.264 -1.27388 0.671446 0
M  V30 8134 H 796.217 -4.18424 -0.499934 0
M  V30 8135 H 794.941 -3.08346 -1.07659 0
M  V30 8136 H 793.6 -3.52416 1.00989 0
M  V30 8137 H 793.248 -4.92271 -1.03338 0
M  V30 8138 H 792.948 -5.85855 0.452494 0
M  V30 8139 H 794.472 -6.08933 -0.450924 0
M  V30 8140 H 795.886 -5.46481 1.73297 0
M  V30 8141 H 794.283 -5.44444 2.52389 0
M  V30 8142 H 795.353 -4.03977 2.68199 0
M  V30 8143 N 796.696 -0.74468 -1.38897 0
M  V30 8144 C 797.644 -0.100312 -2.32384 0
M  V30 8145 C 798.638 0.715191 -1.53562 0
M  V30 8146 O 799.844 0.615288 -1.69157 0
M  V30 8147 H 796.219 -0.0136403 -0.751876 0
M  V30 8148 H 798.19 -0.905007 -2.84345 0
M  V30 8149 C 796.939 0.785432 -3.38713 0
M  V30 8150 H 796.262 0.167308 -3.9945 0
M  V30 8151 H 797.702 1.20374 -4.06554 0
M  V30 8152 C 796.161 1.92408 -2.76552 0
M  V30 8153 O 796.691 3.01752 -2.65157 0
M  V30 8154 N 794.897 1.71642 -2.34494 0
M  V30 8155 H 794.444 0.827079 -2.43961 0
M  V30 8156 H 794.402 2.48 -1.93244 0
M  V30 8157 N 798.174 1.49689 -0.493057 0
M  V30 8158 C 799.122 2.30613 0.303383 0
M  V30 8159 C 800.116 1.38867 0.970165 0
M  V30 8160 O 801.322 1.55956 0.898761 0
M  V30 8161 H 797.697 0.742891 0.116691 0
M  V30 8162 H 799.668 2.95717 -0.39924 0
M  V30 8163 C 798.417 3.20008 1.35978 0
M  V30 8164 H 797.74 3.90526 0.856103 0
M  V30 8165 H 799.18 3.79586 1.88919 0
M  V30 8166 C 797.639 2.39079 2.37367 0
M  V30 8167 O 798.169 2.08933 3.43089 0
M  V30 8168 N 796.375 2.0125 2.09635 0
M  V30 8169 H 795.922 2.25966 1.23682 0
M  V30 8170 H 795.88 1.47408 2.77702 0
M  V30 8171 N 799.652 0.226554 1.55963 0
M  V30 8172 C 800.88 -0.408507 2.02827 0
M  V30 8173 C 801.295 -1.52994 1.10627 0
M  V30 8174 O 800.652 -1.82126 0.116809 0
M  V30 8175 C 800.703 -0.93545 3.49187 0
M  V30 8176 O 800.424 0.141273 4.37872 0
M  V30 8177 C 801.925 -1.64325 4.11719 0
M  V30 8178 H 799.145 -0.099442 0.66359 0
M  V30 8179 H 801.689 0.344471 2.01578 0
M  V30 8180 H 799.844 -1.63868 3.51036 0
M  V30 8181 H 800.258 -0.25558 5.23877 0
M  V30 8182 H 801.732 -1.9639 5.15883 0
M  V30 8183 H 802.209 -2.55815 3.57009 0
M  V30 8184 H 802.815 -0.9851 4.13734 0
M  V30 8185 N 801.13 -1.57531 -0.0467866 0
M  V30 8186 C 802.546 -1.54451 -0.402107 0
M  V30 8187 C 802.746 -0.950275 -1.77685 0
M  V30 8188 O 801.802 -0.563602 -2.4613 0
M  V30 8189 C 803.115 -2.9899 -0.320212 0
M  V30 8190 C 804.663 -3.10452 -0.398588 0
M  V30 8191 C 805.138 -4.56689 -0.346335 0
M  V30 8192 N 806.629 -4.6142 -0.405666 0
M  V30 8193 C 807.364 -5.72087 -0.387845 0
M  V30 8194 N 806.86 -6.92045 -0.32336 0
M  V30 8195 N 808.653 -5.60404 -0.436263 0
M  V30 8196 H 800.804 -1.94515 0.853087 0
M  V30 8197 H 803.067 -0.891397 0.322669 0
M  V30 8198 H 802.773 -3.46124 0.623794 0
M  V30 8199 H 802.647 -3.60164 -1.1208 0
M  V30 8200 H 805.034 -2.63276 -1.33302 0
M  V30 8201 H 805.115 -2.52142 0.431026 0
M  V30 8202 H 804.759 -5.04527 0.584356 0
M  V30 8203 H 804.689 -5.12889 -1.19382 0
M  V30 8204 H 807.18 -3.75105 -0.458737 0
M  V30 8205 H 807.493 -7.7216 -0.314375 0
M  V30 8206 H 805.838 -6.94396 -0.28967 0
M  V30 8207 H 809.029 -4.65586 -0.48451 0
M  V30 8208 H 809.202 -6.46645 -0.418907 0
M  V30 8209 N 802.608 0.318715 -1.54344 0
M  V30 8210 C 804.019 0.89285 -1.63967 0
M  V30 8211 C 804.37 1.88712 -0.536855 0
M  V30 8212 O 803.495 2.13877 0.329457 0
M  V30 8213 C 804.09 1.62618 -2.97222 0
M  V30 8214 C 802.649 2.14897 -3.09025 0
M  V30 8215 C 801.796 0.975909 -2.5956 0
M  V30 8216 H 804.747 0.0961687 -1.58408 0
M  V30 8217 H 804.768 2.4907 -2.87653 0
M  V30 8218 H 804.28 0.902286 -3.77466 0
M  V30 8219 H 802.381 2.90387 -2.33465 0
M  V30 8220 H 802.494 2.39565 -4.14904 0
M  V30 8221 H 800.858 1.35646 -2.15574 0
M  V30 8222 H 801.641 0.266253 -3.42266 0
M  V30 8223 N 804.086 1.46499 0.581025 0
M  V30 8224 C 805.497 1.4604 1.16315 0
M  V30 8225 C 805.848 0.202154 1.95156 0
M  V30 8226 O 804.973 -0.694638 2.04948 0
M  V30 8227 C 805.568 2.64593 2.11604 0
M  V30 8228 C 804.127 2.6717 2.65136 0
M  V30 8229 C 803.274 2.38753 1.4104 0
M  V30 8230 H 806.225 1.54354 0.368871 0
M  V30 8231 H 806.246 2.40207 2.95095 0
M  V30 8232 H 805.758 3.56154 1.54194 0
M  V30 8233 H 803.859 1.79685 3.26411 0
M  V30 8234 H 803.972 3.67182 3.07757 0
M  V30 8235 H 802.336 1.88845 1.70908 0
M  V30 8236 H 803.119 3.32493 0.854588 0
M  V30 8237 N 805.565 -0.825799 1.34232 0
M  V30 8238 C 806.495 -1.95151 1.28212 0
M  V30 8239 C 807.476 -1.69345 0.160123 0
M  V30 8240 O 808.661 -1.90983 0.352019 0
M  V30 8241 C 805.791 -3.31554 1.03388 0
M  V30 8242 C 804.745 -3.71793 2.12023 0
M  V30 8243 C 804.071 -5.06147 1.72392 0
M  V30 8244 C 805.371 -3.84193 3.53826 0
M  V30 8245 H 807.065 -2.00445 2.22401 0
M  V30 8246 H 804.611 -0.962996 1.07063 0
M  V30 8247 H 806.564 -4.09889 0.978225 0
M  V30 8248 H 805.288 -3.26551 0.0564142 0
M  V30 8249 H 803.947 -2.95731 2.16654 0
M  V30 8250 H 803.595 -4.97628 0.733137 0
M  V30 8251 H 803.295 -5.34041 2.451 0
M  V30 8252 H 804.819 -5.86943 1.68317 0
M  V30 8253 H 806.233 -4.52806 3.51624 0
M  V30 8254 H 804.63 -4.23538 4.2513 0
M  V30 8255 H 805.7 -2.86272 3.91377 0
M  V30 8256 N 807.043 -1.17915 -1.04565 0
M  V30 8257 C 808.291 -0.969505 -1.77327 0
M  V30 8258 C 808.612 0.502569 -1.88412 0
M  V30 8259 O 807.882 1.36467 -1.40547 0
M  V30 8260 H 806.462 -0.355723 -0.656864 0
M  V30 8261 H 809.124 -1.48506 -1.26223 0
M  V30 8262 H 808.22 -1.40324 -2.78775 0
M  V30 8263 N 808.521 1.23394 -0.980386 0
M  V30 8264 C 809.469 2.26872 -0.513018 0
M  V30 8265 C 810.463 1.63853 0.429948 0
M  V30 8266 O 811.669 1.77417 0.303842 0
M  V30 8267 H 808.044 0.737398 -0.147473 0
M  V30 8268 H 810.015 2.63654 -1.39746 0
M  V30 8269 C 808.764 3.47289 0.168962 0
M  V30 8270 H 808.087 3.96033 -0.547546 0
M  V30 8271 H 809.527 4.21502 0.459616 0
M  V30 8272 C 807.986 3.06425 1.40019 0
M  V30 8273 O 808.516 3.14708 2.49643 0
M  V30 8274 N 806.722 2.61339 1.27084 0
M  V30 8275 H 806.269 2.54799 0.378872 0
M  V30 8276 H 806.227 2.34364 2.09573 0
M  V30 8277 N 809.999 0.752036 1.385 0
M  V30 8278 C 811.245 0.316909 2.00916 0
M  V30 8279 C 811.6 -1.08884 1.58625 0
M  V30 8280 O 810.893 -1.73494 0.813047 0
M  V30 8281 C 811.087 0.376155 3.55415 0
M  V30 8282 C 810.916 1.78612 4.12708 0
M  V30 8283 C 809.686 2.4023 4.44542 0
M  V30 8284 C 811.884 2.74253 4.35075 0
M  V30 8285 N 809.866 3.73204 4.87434 0
M  V30 8286 C 811.237 3.9199 4.80358 0
M  V30 8287 C 813.292 2.71795 4.17171 0
M  V30 8288 C 811.995 5.07627 5.09615 0
M  V30 8289 C 814.021 3.86589 4.47552 0
M  V30 8290 C 813.383 5.03064 4.93058 0
M  V30 8291 H 809.482 0.16259 0.764911 0
M  V30 8292 H 812.066 0.981657 1.68142 0
M  V30 8293 H 810.237 -0.258317 3.8754 0
M  V30 8294 H 811.969 -0.0791421 4.04623 0
M  V30 8295 H 808.724 1.92009 4.32931 0
M  V30 8296 H 809.148 4.41519 5.13215 0
M  V30 8297 H 813.79 1.82929 3.81178 0
M  V30 8298 H 811.508 5.97109 5.44506 0
M  V30 8299 H 815.094 3.86005 4.35306 0
M  V30 8300 H 813.974 5.90417 5.16118 0
M  V30 8301 N 811.477 -1.49425 0.500989 0
M  V30 8302 C 812.724 -2.02453 -0.0435355 0
M  V30 8303 C 813.052 -1.38067 -1.36995 0
M  V30 8304 O 812.307 -0.505557 -1.89057 0
M  V30 8305 C 812.606 -3.56562 -0.24463 0
M  V30 8306 C 812.272 -4.39585 1.00379 0
M  V30 8307 C 810.934 -4.61992 1.346 0
M  V30 8308 C 813.286 -4.87881 1.83361 0
M  V30 8309 C 810.614 -5.2994 2.51755 0
M  V30 8310 C 812.966 -5.57119 2.99669 0
M  V30 8311 C 811.63 -5.77771 3.3427 0
M  V30 8312 H 810.9 -0.740829 -0.0159308 0
M  V30 8313 H 813.547 -1.79725 0.661143 0
M  V30 8314 H 811.852 -3.77969 -1.03183 0
M  V30 8315 H 813.549 -3.95185 -0.6804 0
M  V30 8316 H 810.139 -4.22385 0.727225 0
M  V30 8317 H 814.323 -4.70398 1.58237 0
M  V30 8318 H 809.579 -5.44133 2.788 0
M  V30 8319 H 813.753 -5.93516 3.64296 0
M  V30 8320 H 811.38 -6.30197 4.25154 0
M  V30 8321 N 812.955 -0.234822 -1.55841 0
M  V30 8322 C 814.203 0.392483 -1.98252 0
M  V30 8323 C 814.524 1.59344 -1.12404 0
M  V30 8324 O 813.794 1.94834 -0.204055 0
M  V30 8325 H 812.374 0.147999 -0.732192 0
M  V30 8326 H 815.036 -0.330804 -1.92072 0
M  V30 8327 H 814.132 0.709829 -3.03921 0
M  V30 8328 N 814.433 1.57553 0.0384317 0
M  V30 8329 C 815.673 1.90687 0.736069 0
M  V30 8330 C 816.037 0.832381 1.73019 0
M  V30 8331 O 817.238 1.04777 2.47538 0
M  V30 8332 C 815.509 3.28994 1.39635 0
M  V30 8333 S 817.068 3.83944 2.12444 0
M  V30 8334 H 813.886 0.667799 0.244059 0
M  V30 8335 H 816.488 1.95498 -0.00901643 0
M  V30 8336 H 815.192 4.05067 0.659465 0
M  V30 8337 H 814.723 3.27463 2.18018 0
M  V30 8338 H 816.738 3.61916 3.39457 0
M  V30 8339 N 815.911 -0.310526 1.54511 0
M  V30 8340 C 817.139 -1.06611 1.77318 0
M  V30 8341 C 817.554 -1.81265 0.528043 0
M  V30 8342 O 816.911 -1.75466 -0.50178 0
M  V30 8343 C 816.962 -2.05409 2.97472 0
M  V30 8344 O 816.683 -1.33785 4.17173 0
M  V30 8345 C 818.184 -2.93082 3.32593 0
M  V30 8346 H 815.404 -0.316578 0.591624 0
M  V30 8347 H 817.948 -0.352691 2.01436 0
M  V30 8348 H 816.103 -2.72266 2.7559 0
M  V30 8349 H 816.517 -2.00055 4.84849 0
M  V30 8350 H 817.991 -3.58274 4.19933 0
M  V30 8351 H 818.468 -3.60877 2.50329 0
M  V30 8352 H 819.074 -2.31768 3.566 0
M  V30 8353 N 817.389 -1.46805 -0.573248 0
M  V30 8354 C 818.635 -1.53816 -1.33088 0
M  V30 8355 C 818.99 -0.191162 -1.91448 0
M  V30 8356 O 818.283 0.801299 -1.7404 0
M  V30 8357 C 818.477 -2.58001 -2.47326 0
M  V30 8358 C 818.306 -4.027 -2.00157 0
M  V30 8359 C 817.076 -4.70319 -1.84737 0
M  V30 8360 C 819.274 -4.90211 -1.55557 0
M  V30 8361 N 817.256 -5.99598 -1.31739 0
M  V30 8362 C 818.627 -6.09389 -1.14215 0
M  V30 8363 C 820.682 -4.76784 -1.43461 0
M  V30 8364 C 819.385 -7.16625 -0.619809 0
M  V30 8365 C 821.411 -5.84101 -0.926297 0
M  V30 8366 C 820.773 -7.02458 -0.522715 0
M  V30 8367 H 816.872 -0.617642 -0.479627 0
M  V30 8368 H 819.456 -1.83471 -0.65164 0
M  V30 8369 H 817.627 -2.3024 -3.128 0
M  V30 8370 H 819.359 -2.54951 -3.14296 0
M  V30 8371 H 816.114 -4.25982 -2.06969 0
M  V30 8372 H 816.538 -6.68431 -1.07374 0
M  V30 8373 H 821.18 -3.85661 -1.73279 0
M  V30 8374 H 818.898 -8.07508 -0.309228 0
M  V30 8375 H 822.484 -5.75755 -0.836485 0
M  V30 8376 H 821.364 -7.84083 -0.135467 0
M  V30 8377 N 818.867 0.818669 -1.34668 0
M  V30 8378 C 819.8 1.93516 -1.20941 0
M  V30 8379 C 820.778 1.62292 -0.100061 0
M  V30 8380 O 821.962 1.86614 -0.265983 0
M  V30 8381 C 819.089 3.27612 -0.859524 0
M  V30 8382 C 818.135 3.77794 -1.97923 0
M  V30 8383 S 818.968 3.97043 -3.59329 0
M  V30 8384 C 820.124 5.3406 -3.2639 0
M  V30 8385 H 820.357 2.04864 -2.15449 0
M  V30 8386 H 817.89 0.974716 -1.19744 0
M  V30 8387 H 819.848 4.05087 -0.664444 0
M  V30 8388 H 818.509 3.14028 0.0672835 0
M  V30 8389 H 817.702 4.74883 -1.68827 0
M  V30 8390 H 817.304 3.0728 -2.13202 0
M  V30 8391 H 819.596 6.17626 -2.78469 0
M  V30 8392 H 820.539 5.68143 -4.22634 0
M  V30 8393 H 820.947 4.99773 -2.62464 0
M  V30 8394 N 820.346 1.18468 1.03938 0
M  V30 8395 C 821.294 0.909286 2.14091 0
M  V30 8396 C 822.288 -0.130928 1.68893 0
M  V30 8397 O 823.494 0.0173403 1.79992 0
M  V30 8398 H 819.869 0.27658 0.699291 0
M  V30 8399 H 821.84 1.84514 2.34515 0
M  V30 8400 C 820.589 0.452922 3.44737 0
M  V30 8401 H 819.912 1.24485 3.79926 0
M  V30 8402 H 821.352 0.299238 4.22943 0
M  V30 8403 C 819.811 -0.831435 3.26479 0
M  V30 8404 O 820.341 -1.89535 3.54174 0
M  V30 8405 N 818.547 -0.784545 2.79809 0
M  V30 8406 H 818.094 0.0814746 2.57471 0
M  V30 8407 H 818.052 -1.64431 2.67973 0
M  V30 8408 N 821.824 -1.22873 0.986916 0
M  V30 8409 C 823.049 -1.96028 0.677341 0
M  V30 8410 C 823.474 -1.72487 -0.750319 0
M  V30 8411 O 822.832 -1.00036 -1.51203 0
M  V30 8412 C 822.88 -3.46983 0.981593 0
M  V30 8413 O 821.984 -4.12328 0.0770729 0
M  V30 8414 H 821.325 -0.613458 0.254096 0
M  V30 8415 H 823.855 -1.56132 1.32227 0
M  V30 8416 H 823.865 -3.9747 0.920969 0
M  V30 8417 H 822.54 -3.63442 2.02194 0
M  V30 8418 H 821.117 -3.72402 0.192666 0
M  V30 8419 N 823.302 -0.75937 -1.38099 0
M  V30 8420 C 824.53 -0.329111 -2.04266 0
M  V30 8421 C 824.945 1.04453 -1.57274 0
M  V30 8422 O 824.302 1.66449 -0.748397 0
M  V30 8423 C 824.353 -0.349192 -3.5981 0
M  V30 8424 O 824.074 -1.66863 -4.05078 0
M  V30 8425 C 825.575 0.0942106 -4.432 0
M  V30 8426 H 822.795 -0.13971 -0.656294 0
M  V30 8427 H 825.339 -1.02984 -1.76677 0
M  V30 8428 H 823.494 0.302846 -3.86214 0
M  V30 8429 H 823.908 -1.59877 -4.9954 0
M  V30 8430 H 825.382 0.0290004 -5.51992 0
M  V30 8431 H 825.859 1.1429 -4.24069 0
M  V30 8432 H 826.465 -0.529171 -4.21995 0
M  V30 8433 N 824.78 1.49157 -0.508906 0
M  V30 8434 C 826.028 2.02073 0.0327335 0
M  V30 8435 C 826.349 1.39012 1.3675 0
M  V30 8436 O 825.619 0.548153 1.88075 0
M  V30 8437 H 824.199 0.746848 0.0150864 0
M  V30 8438 H 826.861 1.83097 -0.667946 0
M  V30 8439 H 825.957 3.11707 0.1566 0
M  V30 8440 N 826.258 0.243083 1.55714 0
M  V30 8441 C 827.505 -0.38272 1.9885 0
M  V30 8442 C 827.833 -1.58225 1.13115 0
M  V30 8443 O 827.088 -1.94861 0.181067 0
M  V30 8444 C 827.387 -0.839621 3.47398 0
M  V30 8445 C 827.053 0.251737 4.50197 0
M  V30 8446 C 825.715 0.551487 4.78029 0
M  V30 8447 C 828.067 0.988728 5.11736 0
M  V30 8448 C 825.395 1.59237 5.64677 0
M  V30 8449 C 827.747 2.0191 5.99512 0
M  V30 8450 C 826.411 2.32554 6.2568 0
M  V30 8451 H 825.681 -0.140047 0.727645 0
M  V30 8452 H 828.328 0.35011 1.88272 0
M  V30 8453 H 826.633 -1.65159 3.55288 0
M  V30 8454 H 828.33 -1.33404 3.78159 0
M  V30 8455 H 824.92 0.00796741 4.28599 0
M  V30 8456 H 829.104 0.7704 4.90284 0
M  V30 8457 H 824.36 1.83517 5.83208 0
M  V30 8458 H 828.534 2.59511 6.46241 0
M  V30 8459 H 826.161 3.13349 6.92616 0
M  V30 8460 N 827.736 -1.57571 -0.0300757 0
M  V30 8461 C 828.964 -1.93485 -0.732891 0
M  V30 8462 C 829.379 -0.842758 -1.68947 0
M  V30 8463 O 828.736 0.180904 -1.81601 0
M  V30 8464 C 828.787 -3.29328 -1.49082 0
M  V30 8465 O 828.508 -4.34341 -0.572639 0
M  V30 8466 C 830.009 -3.79517 -2.29088 0
M  V30 8467 H 827.229 -0.638588 -0.206026 0
M  V30 8468 H 829.773 -2.04496 0.0120966 0
M  V30 8469 H 827.928 -3.19716 -2.1877 0
M  V30 8470 H 828.342 -5.12748 -1.10406 0
M  V30 8471 H 829.816 -4.77081 -2.77665 0
M  V30 8472 H 830.293 -3.10659 -3.10464 0
M  V30 8473 H 830.899 -3.92208 -1.64477 0
M  V30 8474 N 829.214 0.302327 -1.54673 0
M  V30 8475 C 830.161 1.37282 -1.85532 0
M  V30 8476 C 831.131 1.50437 -0.704129 0
M  V30 8477 O 832.316 1.65317 -0.952627 0
M  V30 8478 C 829.456 2.73309 -2.10704 0
M  V30 8479 C 828.569 2.68614 -3.38335 0
M  V30 8480 C 827.704 3.96626 -3.53357 0
M  V30 8481 C 826.743 3.86324 -4.74784 0
M  V30 8482 N 825.88 5.06109 -4.86619 0
M  V30 8483 H 830.72 1.10265 -2.76849 0
M  V30 8484 H 828.257 0.533346 -1.37091 0
M  V30 8485 H 830.215 3.52414 -2.23294 0
M  V30 8486 H 828.845 2.98589 -1.22656 0
M  V30 8487 H 827.897 1.81381 -3.34373 0
M  V30 8488 H 829.209 2.56891 -4.27561 0
M  V30 8489 H 828.363 4.84168 -3.65604 0
M  V30 8490 H 827.102 4.11182 -2.62261 0
M  V30 8491 H 826.107 2.97166 -4.62572 0
M  V30 8492 H 827.332 3.73315 -5.67286 0
M  V30 8493 H 825.278 5.2113 -3.98446 0
M  V30 8494 H 825.195 4.96804 -5.69844 0
M  V30 8495 H 826.463 5.95306 -5.03221 0
M  V30 8496 N 830.692 1.47107 0.565454 0
M  V30 8497 C 831.938 1.53535 1.32495 0
M  V30 8498 C 832.271 0.193537 1.93233 0
M  V30 8499 O 831.546 -0.796956 1.77423 0
M  V30 8500 C 831.829 2.64712 2.4413 0
M  V30 8501 C 831.682 4.08482 1.88314 0
M  V30 8502 C 833.001 2.71853 3.46098 0
M  V30 8503 H 830.12 0.558926 0.480386 0
M  V30 8504 H 832.762 1.79125 0.633575 0
M  V30 8505 H 830.912 2.43023 3.03104 0
M  V30 8506 H 832.584 4.4151 1.33665 0
M  V30 8507 H 830.827 4.17148 1.19037 0
M  V30 8508 H 831.498 4.82032 2.68978 0
M  V30 8509 H 833.974 2.91397 2.97031 0
M  V30 8510 H 832.85 3.51433 4.21646 0
M  V30 8511 H 833.111 1.78584 4.04426 0
M  V30 8512 N 832.17 -0.811516 1.35101 0
M  V30 8513 C 833.41 -1.58177 1.29458 0
M  V30 8514 C 833.774 -1.91555 -0.130688 0
M  V30 8515 O 834.975 -2.6699 -0.311428 0
M  V30 8516 C 833.246 -2.83896 2.17112 0
M  V30 8517 S 834.805 -3.74344 2.28936 0
M  V30 8518 H 831.623 -0.542021 0.460146 0
M  V30 8519 H 834.225 -0.957653 1.70438 0
M  V30 8520 H 832.929 -2.57391 3.19653 0
M  V30 8521 H 832.46 -3.51297 1.7707 0
M  V30 8522 H 834.475 -4.73909 1.47054 0
M  V30 8523 N 833.648 -1.19017 -1.03309 0
M  V30 8524 C 834.896 -0.988258 -1.76289 0
M  V30 8525 C 835.217 0.482557 -1.88935 0
M  V30 8526 O 834.487 1.34969 -1.41987 0
M  V30 8527 H 833.067 -0.36267 -0.653054 0
M  V30 8528 H 835.729 -1.49836 -1.2464 0
M  V30 8529 H 834.825 -1.43273 -2.77271 0
M  V30 8530 N 835.127 1.22348 -0.993418 0
M  V30 8531 C 836.09 2.22522 -0.549251 0
M  V30 8532 C 837.09 1.56529 0.368164 0
M  V30 8533 O 838.28 1.73463 0.16005 0
M  V30 8534 C 835.412 3.40307 0.201037 0
M  V30 8535 H 836.605 2.63332 -1.43515 0
M  V30 8536 H 834.158 1.35407 -0.78068 0
M  V30 8537 H 834.893 3.0497 1.10289 0
M  V30 8538 H 834.678 3.8942 -0.457685 0
M  V30 8539 H 836.168 4.14597 0.499946 0
M  V30 8540 N 836.605 0.766683 1.37694 0
M  V30 8541 C 838.016 0.394761 1.82479 0
M  V30 8542 C 838.367 -1.07842 1.63904 0
M  V30 8543 O 837.492 -1.83479 1.14737 0
M  V30 8544 C 838.087 0.70974 3.31283 0
M  V30 8545 C 836.646 0.390936 3.74364 0
M  V30 8546 C 835.793 0.956192 2.60293 0
M  V30 8547 H 838.744 0.961756 1.26238 0
M  V30 8548 H 838.765 -0.00742144 3.80499 0
M  V30 8549 H 838.277 1.782 3.4477 0
M  V30 8550 H 836.378 -0.674213 3.66449 0
M  V30 8551 H 836.491 0.895645 4.70654 0
M  V30 8552 H 834.855 0.380744 2.51838 0
M  V30 8553 H 835.638 2.03375 2.76575 0
M  V30 8554 N 838.083 -1.48885 0.516809 0
M  V30 8555 C 839.494 -1.86557 0.0729921 0
M  V30 8556 C 839.845 -1.42767 -1.34581 0
M  V30 8557 O 838.97 -0.812514 -2.00567 0
M  V30 8558 C 839.565 -3.38567 0.125686 0
M  V30 8559 C 838.124 -3.75481 -0.262867 0
M  V30 8560 C 837.271 -2.72913 0.491281 0
M  V30 8561 H 840.222 -1.40978 0.728767 0
M  V30 8562 H 840.243 -3.74629 -0.665831 0
M  V30 8563 H 839.755 -3.70408 1.15842 0
M  V30 8564 H 837.856 -3.49251 -1.29824 0
M  V30 8565 H 837.969 -4.79052 0.067579 0
M  V30 8566 H 836.333 -2.54627 -0.0608525 0
M  V30 8567 H 837.116 -3.07599 1.5244 0
M  V30 8568 N 839.561 -0.251338 -1.55583 0
M  V30 8569 C 840.801 0.373651 -2.00956 0
M  V30 8570 C 841.165 1.54806 -1.13574 0
M  V30 8571 O 842.366 2.24108 -1.48422 0
M  V30 8572 C 840.637 0.768919 -3.49031 0
M  V30 8573 S 842.196 1.38381 -4.16409 0
M  V30 8574 H 839.014 0.117371 -0.701245 0
M  V30 8575 H 841.616 -0.367611 -1.92013 0
M  V30 8576 H 840.32 -0.0950492 -4.1029 0
M  V30 8577 H 839.851 1.54225 -3.61909 0
M  V30 8578 H 841.866 2.6728 -4.18062 0
M  V30 8579 N 841.039 1.57585 0.0217189 0
M  V30 8580 C 842.285 1.89887 0.712099 0
M  V30 8581 C 842.618 0.849971 1.74611 0
M  V30 8582 O 841.893 -0.13407 1.94037 0
M  V30 8583 C 842.176 3.32815 1.37499 0
M  V30 8584 C 842.029 4.48405 0.353993 0
M  V30 8585 C 843.348 3.74786 2.30703 0
M  V30 8586 H 840.467 0.690588 0.257405 0
M  V30 8587 H 843.109 1.89983 -0.0251145 0
M  V30 8588 H 841.259 3.32863 2.00335 0
M  V30 8589 H 842.931 4.60491 -0.273015 0
M  V30 8590 H 841.174 4.32573 -0.32599 0
M  V30 8591 H 841.845 5.45316 0.85644 0
M  V30 8592 H 844.321 3.76151 1.77904 0
M  V30 8593 H 843.197 4.75585 2.74061 0
M  V30 8594 H 843.458 3.07449 3.17691 0
M  V30 8595 N 842.517 -0.29412 1.54831 0
M  V30 8596 C 843.766 -1.02614 1.73647 0
M  V30 8597 C 844.079 -1.88193 0.533162 0
M  V30 8598 O 845.285 -2.64713 0.603275 0
M  V30 8599 C 843.741 -1.87417 3.07251 0
M  V30 8600 C 843.349 -1.06806 4.35082 0
M  V30 8601 C 845.093 -2.60176 3.35423 0
M  V30 8602 C 843 -1.90926 5.59733 0
M  V30 8603 H 841.93 -0.386834 0.647206 0
M  V30 8604 H 844.581 -0.282789 1.81308 0
M  V30 8605 H 842.963 -2.65765 2.93572 0
M  V30 8606 H 844.137 -0.330226 4.59615 0
M  V30 8607 H 842.452 -0.455979 4.13896 0
M  V30 8608 H 845.049 -3.23476 4.25755 0
M  V30 8609 H 845.392 -3.29365 2.54606 0
M  V30 8610 H 845.925 -1.88871 3.50103 0
M  V30 8611 H 842.664 -1.26194 6.43238 0
M  V30 8612 H 842.184 -2.62363 5.39375 0
M  V30 8613 H 843.863 -2.48807 5.97247 0
M  V30 8614 N 843.995 -1.47404 -0.557645 0
M  V30 8615 C 845.243 -1.53703 -1.31224 0
M  V30 8616 C 845.564 -0.200742 -1.93964 0
M  V30 8617 O 844.834 0.775253 -1.79907 0
M  V30 8618 H 843.414 -0.566171 -0.487299 0
M  V30 8619 H 846.076 -1.83699 -0.651195 0
M  V30 8620 H 845.172 -2.30335 -2.10599 0
M  V30 8621 N 845.473 0.80434 -1.35529 0
M  V30 8622 C 846.721 1.55845 -1.28673 0
M  V30 8623 C 847.042 1.94511 0.137976 0
M  V30 8624 O 846.312 1.63775 1.07492 0
M  V30 8625 H 844.892 0.577931 -0.473291 0
M  V30 8626 H 847.554 0.959293 -1.69657 0
M  V30 8627 H 846.65 2.47285 -1.90411 0
M  V30 8628 N 846.951 1.19563 1.02676 0
M  V30 8629 C 847.914 0.937182 2.09164 0
M  V30 8630 C 848.914 -0.0831927 1.60585 0
M  V30 8631 O 850.104 0.15178 1.73538 0
M  V30 8632 C 847.236 0.408912 3.38439 0
M  V30 8633 H 848.429 1.88164 2.33526 0
M  V30 8634 H 845.982 1.00959 1.19319 0
M  V30 8635 H 846.717 -0.541497 3.19747 0
M  V30 8636 H 846.502 1.14464 3.7502 0
M  V30 8637 H 847.992 0.247242 4.16867 0
M  V30 8638 N 848.429 -1.21819 0.999893 0
M  V30 8639 C 849.677 -1.90375 0.678351 0
M  V30 8640 C 849.998 -1.78155 -0.792824 0
M  V30 8641 O 849.268 -1.17319 -1.56885 0
M  V30 8642 H 847.848 -0.704661 0.247915 0
M  V30 8643 H 850.51 -1.48021 1.2679 0
M  V30 8644 H 849.606 -2.97385 0.947023 0
M  V30 8645 N 849.908 -0.773975 -1.37286 0
M  V30 8646 C 850.856 -0.149581 -2.32119 0
M  V30 8647 C 851.85 0.682457 -1.55045 0
M  V30 8648 O 853.056 0.579269 -1.70424 0
M  V30 8649 H 849.431 -0.0295857 -0.751418 0
M  V30 8650 H 851.402 -0.965117 -2.82362 0
M  V30 8651 C 850.151 0.713409 -3.40302 0
M  V30 8652 H 849.474 0.0825416 -3.99715 0
M  V30 8653 H 850.914 1.11723 -4.09016 0
M  V30 8654 C 849.373 1.86498 -2.80571 0
M  V30 8655 O 849.903 2.9606 -2.71498 0
M  V30 8656 N 848.109 1.66629 -2.38082 0
M  V30 8657 H 847.656 0.775145 -2.45661 0
M  V30 8658 H 847.614 2.43845 -1.98461 0
M  V30 8659 N 851.386 1.48609 -0.524698 0
M  V30 8660 C 852.334 2.31205 0.254398 0
M  V30 8661 C 853.328 1.40894 0.940491 0
M  V30 8662 O 854.534 1.57827 0.865478 0
M  V30 8663 H 850.909 0.745199 0.100907 0
M  V30 8664 H 852.88 2.94804 -0.461876 0
M  V30 8665 C 851.629 3.2282 1.2916 0
M  V30 8666 H 850.952 3.92255 0.773074 0
M  V30 8667 H 852.392 3.83508 1.80825 0
M  V30 8668 C 850.851 2.4406 2.32242 0
M  V30 8669 O 851.381 2.16163 3.3858 0
M  V30 8670 N 849.587 2.05651 2.05319 0
M  V30 8671 H 849.134 2.28539 1.18861 0
M  V30 8672 H 849.092 1.53265 2.74513 0
M  V30 8673 N 852.864 0.259585 1.55447 0
M  V30 8674 C 854.092 -0.365392 2.03648 0
M  V30 8675 C 854.507 -1.50613 1.13847 0
M  V30 8676 O 853.864 -1.81837 0.155414 0
M  V30 8677 C 853.915 -0.861172 3.51093 0
M  V30 8678 O 853.636 0.234121 4.37474 0
M  V30 8679 C 855.137 -1.55555 4.15111 0
M  V30 8680 H 852.357 -0.0853439 0.66555 0
M  V30 8681 H 854.901 0.387151 2.00802 0
M  V30 8682 H 853.056 -1.56385 3.54433 0
M  V30 8683 H 853.47 -0.1444 5.24301 0
M  V30 8684 H 854.944 -1.85403 5.19932 0
M  V30 8685 H 855.421 -2.48185 3.62355 0
M  V30 8686 H 856.027 -0.89712 4.15731 0
M  V30 8687 N 854.342 -1.57594 -0.0133615 0
M  V30 8688 C 855.272 -2.10611 -1.00823 0
M  V30 8689 C 856.253 -1.01217 -1.36708 0
M  V30 8690 O 857.438 -1.28827 -1.45318 0
M  V30 8691 C 854.568 -2.59844 -2.30431 0
M  V30 8692 C 853.522 -3.73644 -2.08745 0
M  V30 8693 C 852.848 -4.09141 -3.4425 0
M  V30 8694 C 854.148 -5.01454 -1.46086 0
M  V30 8695 H 855.842 -2.93985 -0.566849 0
M  V30 8696 H 853.388 -1.41423 -0.271219 0
M  V30 8697 H 855.341 -2.95557 -3.00373 0
M  V30 8698 H 854.065 -1.73573 -2.76658 0
M  V30 8699 H 852.724 -3.38303 -1.41232 0
M  V30 8700 H 852.372 -3.19914 -3.88155 0
M  V30 8701 H 852.072 -4.85802 -3.3056 0
M  V30 8702 H 853.596 -4.47402 -4.15528 0
M  V30 8703 H 855.01 -5.35024 -2.05966 0
M  V30 8704 H 853.407 -5.82832 -1.42924 0
M  V30 8705 H 854.477 -4.83003 -0.428471 0
M  V30 8706 N 855.82 0.285905 -1.54985 0
M  V30 8707 C 856.77 1.35505 -1.83364 0
M  V30 8708 C 857.754 1.45273 -0.691698 0
M  V30 8709 O 858.946 1.49172 -0.952725 0
M  V30 8710 C 856.075 2.71756 -2.0977 0
M  V30 8711 C 855.161 2.6615 -3.30189 0
M  V30 8712 N 855.552 2.30161 -4.50399 0
M  V30 8713 C 853.85 2.97232 -3.3252 0
M  V30 8714 C 854.551 2.34228 -5.32459 0
M  V30 8715 N 853.527 2.72187 -4.70548 0
M  V30 8716 H 857.329 1.06668 -2.7386 0
M  V30 8717 H 854.843 0.494521 -1.54688 0
M  V30 8718 H 856.84 3.48864 -2.28253 0
M  V30 8719 H 855.5 3.01492 -1.20551 0
M  V30 8720 H 856.511 2.02358 -4.7673 0
M  V30 8721 H 853.188 3.31764 -2.53454 0
M  V30 8722 H 854.578 2.09074 -6.38543 0
M  V30 8723 N 857.298 1.47698 0.54982 0
M  V30 8724 C 858.538 1.56286 1.31735 0
M  V30 8725 C 858.902 0.223042 1.907 0
M  V30 8726 O 860.103 0.183798 2.68171 0
M  V30 8727 C 858.374 2.65522 2.39234 0
M  V30 8728 S 859.933 2.93742 3.25977 0
M  V30 8729 H 856.751 0.551795 0.448378 0
M  V30 8730 H 859.353 1.85118 0.628629 0
M  V30 8731 H 858.057 3.61457 1.94362 0
M  V30 8732 H 857.588 2.38528 3.12838 0
M  V30 8733 H 859.603 2.31522 4.38876 0
M  V30 8734 N 858.776 -0.797141 1.35954 0
M  V30 8735 C 860.187 -1.37179 1.26644 0
M  V30 8736 C 860.538 -1.9596 -0.0971046 0
M  V30 8737 O 859.663 -1.91994 -0.998355 0
M  V30 8738 C 860.258 -2.49395 2.2932 0
M  V30 8739 C 858.817 -3.02697 2.23722 0
M  V30 8740 C 857.964 -1.75721 2.14517 0
M  V30 8741 H 860.915 -0.599407 1.46945 0
M  V30 8742 H 860.936 -3.28204 1.92515 0
M  V30 8743 H 860.448 -2.06584 3.2855 0
M  V30 8744 H 858.549 -3.49948 1.27934 0
M  V30 8745 H 858.662 -3.60036 3.16087 0
M  V30 8746 H 857.026 -1.97649 1.60646 0
M  V30 8747 H 857.809 -1.35049 3.15621 0
M  V30 8748 N 860.254 -1.20106 -1.0204 0
M  V30 8749 C 861.482 -1.0344 -1.79186 0
M  V30 8750 C 861.897 0.416542 -1.84148 0
M  V30 8751 O 861.254 1.28925 -1.29168 0
M  V30 8752 C 861.305 -1.60663 -3.23836 0
M  V30 8753 O 861.026 -3.00079 -3.19193 0
M  V30 8754 C 862.527 -1.48897 -4.17546 0
M  V30 8755 H 859.747 -0.364093 -0.563629 0
M  V30 8756 H 862.291 -1.5911 -1.28469 0
M  V30 8757 H 860.446 -1.09122 -3.71714 0
M  V30 8758 H 860.86 -3.27162 -4.09958 0
M  V30 8759 H 862.334 -1.93703 -5.16898 0
M  V30 8760 H 862.811 -0.440843 -4.36982 0
M  V30 8761 H 863.417 -1.9961 -3.75547 0
M  V30 8762 N 861.732 1.21287 -1.00634 0
M  V30 8763 C 863.009 1.86 -0.605257 0
M  V30 8764 C 863.389 1.90139 0.917072 0
M  V30 8765 O 862.737 1.40169 1.80458 0
M  V30 8766 C 862.947 3.26183 -1.24119 0
M  V30 8767 C 864.295 4.02562 -1.35015 0
M  V30 8768 O 865.319 3.35499 -1.19661 0
M  V30 8769 O 864.178 5.22638 -1.59726 0
M  V30 8770 H 861.272 0.800549 -0.207486 0
M  V30 8771 H 863.818 1.28959 -1.10307 0
M  V30 8772 H 862.59 3.17878 -2.28186 0
M  V30 8773 H 862.213 3.90845 -0.729807 0
M  V30 8774 N 863.21 0.781244 1.36873 0
M  V30 8775 C 864.45 0.355185 2.0129 0
M  V30 8776 C 864.814 -1.05115 1.6067 0
M  V30 8777 O 866.015 -1.57785 2.17618 0
M  V30 8778 C 864.286 0.504587 3.5382 0
M  V30 8779 S 865.845 0.165196 4.38489 0
M  V30 8780 H 862.663 0.136133 0.697846 0
M  V30 8781 H 865.265 1.01794 1.66908 0
M  V30 8782 H 863.969 1.52857 3.80871 0
M  V30 8783 H 863.5 -0.174392 3.93013 0
M  V30 8784 H 865.515 -1.03605 4.85263 0
M  V30 8785 N 864.689 -1.48329 0.532571 0
M  V30 8786 C 865.936 -2.025 -0.000582356 0
M  V30 8787 C 866.264 -1.40942 -1.34036 0
M  V30 8788 O 865.519 -0.545545 -1.87942 0
M  V30 8789 C 865.818 -3.57 -0.168943 0
M  V30 8790 C 865.484 -4.37357 1.0968 0
M  V30 8791 C 864.146 -4.59033 1.44369 0
M  V30 8792 C 866.498 -4.83882 1.93669 0
M  V30 8793 C 863.826 -5.24481 2.62939 0
M  V30 8794 C 866.178 -5.50637 3.11419 0
M  V30 8795 C 864.842 -5.70551 3.46451 0
M  V30 8796 H 864.112 -0.741 -0.000213099 0
M  V30 8797 H 866.759 -1.78282 0.699117 0
M  V30 8798 H 865.064 -3.80072 -0.951429 0
M  V30 8799 H 866.761 -3.9654 -0.596422 0
M  V30 8800 H 863.351 -4.20748 0.816655 0
M  V30 8801 H 867.535 -4.66936 1.6818 0
M  V30 8802 H 862.791 -5.38096 2.9028 0
M  V30 8803 H 866.965 -5.85655 3.76803 0
M  V30 8804 H 864.592 -6.21037 4.38425 0
M  V30 8805 N 866.167 -0.267825 -1.55308 0
M  V30 8806 C 867.583 0.0865107 -1.59365 0
M  V30 8807 C 867.783 1.55205 -1.28505 0
M  V30 8808 O 866.839 2.29978 -1.04241 0
M  V30 8809 C 868.152 -0.28155 -2.99379 0
M  V30 8810 C 869.7 -0.227565 -3.12172 0
M  V30 8811 C 870.175 -0.569959 -4.5444 0
M  V30 8812 N 871.666 -0.521238 -4.60258 0
M  V30 8813 C 872.401 -0.759061 -5.68354 0
M  V30 8814 N 871.897 -1.06112 -6.84626 0
M  V30 8815 N 873.69 -0.688351 -5.57869 0
M  V30 8816 H 865.841 -1.22332 -1.73633 0
M  V30 8817 H 868.104 -0.493703 -0.809297 0
M  V30 8818 H 867.81 -1.3005 -3.26772 0
M  V30 8819 H 867.684 0.381192 -3.75269 0
M  V30 8820 H 870.071 0.782093 -2.84548 0
M  V30 8821 H 870.152 -0.924461 -2.38511 0
M  V30 8822 H 869.796 -1.57727 -4.82788 0
M  V30 8823 H 869.726 0.148646 -5.2639 0
M  V30 8824 H 872.217 -0.297359 -3.76728 0
M  V30 8825 H 872.53 -1.22945 -7.62958 0
M  V30 8826 H 870.875 -1.09881 -6.86259 0
M  V30 8827 H 874.066 -0.452268 -4.6591 0
M  V30 8828 H 874.239 -0.877081 -6.42037 0
M  V30 8829 N 867.645 1.57599 0.00500368 0
M  V30 8830 C 868.592 2.08106 0.998025 0
M  V30 8831 C 869.562 0.975374 1.34446 0
M  V30 8832 O 870.747 1.24749 1.44369 0
M  V30 8833 C 867.887 2.58496 2.28635 0
M  V30 8834 C 867 3.82947 1.99939 0
M  V30 8835 C 866.135 4.21857 3.22816 0
M  V30 8836 C 865.174 5.39159 2.89783 0
M  V30 8837 N 864.311 5.73386 4.05183 0
M  V30 8838 H 869.151 2.92684 0.560385 0
M  V30 8839 H 866.688 1.44692 0.265053 0
M  V30 8840 H 868.646 2.85787 3.03943 0
M  V30 8841 H 867.276 1.768 2.70077 0
M  V30 8842 H 866.328 3.62594 1.1502 0
M  V30 8843 H 867.64 4.68358 1.71588 0
M  V30 8844 H 866.794 4.50404 4.06474 0
M  V30 8845 H 865.533 3.35145 3.54301 0
M  V30 8846 H 864.538 5.1034 2.04532 0
M  V30 8847 H 865.763 6.27543 2.59551 0
M  V30 8848 H 863.709 4.89632 4.36574 0
M  V30 8849 H 863.626 6.53359 3.80339 0
M  V30 8850 H 864.894 6.06522 4.89644 0
M  V30 8851 N 869.123 -0.277682 1.55134 0
M  V30 8852 C 870.073 -1.34531 1.8408 0
M  V30 8853 C 871.057 -1.44904 0.699393 0
M  V30 8854 O 872.249 -1.48664 0.960623 0
M  V30 8855 C 869.378 -2.7064 2.11208 0
M  V30 8856 C 868.464 -2.64396 3.31596 0
M  V30 8857 N 868.855 -2.2777 4.51613 0
M  V30 8858 C 867.153 -2.95464 3.34091 0
M  V30 8859 C 867.854 -2.31401 5.33693 0
M  V30 8860 N 866.83 -2.69688 4.71984 0
M  V30 8861 H 870.632 -1.05214 2.74421 0
M  V30 8862 H 868.146 -0.486311 1.54948 0
M  V30 8863 H 870.143 -3.47649 2.301 0
M  V30 8864 H 868.803 -3.00849 1.22148 0
M  V30 8865 H 869.814 -1.99827 4.77797 0
M  V30 8866 H 866.491 -3.30415 2.5521 0
M  V30 8867 H 867.881 -2.05685 6.39643 0
M  V30 8868 N 870.601 -1.47988 -0.541979 0
M  V30 8869 C 872.012 -1.49073 -1.12402 0
M  V30 8870 C 872.363 -0.253825 -1.94551 0
M  V30 8871 O 871.488 0.640056 -2.06718 0
M  V30 8872 C 872.083 -2.7011 -2.04514 0
M  V30 8873 C 870.642 -2.74105 -2.5796 0
M  V30 8874 C 869.789 -2.42409 -1.3466 0
M  V30 8875 H 872.74 -1.55277 -0.327818 0
M  V30 8876 H 872.761 -2.47946 -2.88623 0
M  V30 8877 H 872.273 -3.60117 -1.44697 0
M  V30 8878 H 870.374 -1.88276 -3.21532 0
M  V30 8879 H 870.487 -3.75213 -2.97913 0
M  V30 8880 H 868.851 -1.9331 -1.65841 0
M  V30 8881 H 869.634 -3.34642 -0.766133 0
M  V30 8882 N 872.079 0.78992 -1.36375 0
M  V30 8883 C 873.356 1.53584 -1.21126 0
M  V30 8884 C 873.736 2.10124 0.202785 0
M  V30 8885 O 873.084 1.93936 1.20835 0
M  V30 8886 C 873.294 2.63117 -2.29282 0
M  V30 8887 C 874.642 3.31013 -2.65924 0
M  V30 8888 O 875.666 2.734 -2.28321 0
M  V30 8889 O 874.525 4.35129 -3.30643 0
M  V30 8890 H 871.619 0.679366 -0.471583 0
M  V30 8891 H 874.165 0.828446 -1.48104 0
M  V30 8892 H 872.937 2.19329 -3.24053 0
M  V30 8893 H 872.56 3.41476 -2.03666 0
M  V30 8894 N 873.557 1.20646 1.01402 0
M  V30 8895 C 874.52 0.959314 2.08158 0
M  V30 8896 C 875.52 -0.0661558 1.60664 0
M  V30 8897 O 876.71 0.170177 1.73367 0
M  V30 8898 C 873.842 0.444785 3.37986 0
M  V30 8899 H 875.035 1.90631 2.31517 0
M  V30 8900 H 872.588 1.02219 1.18241 0
M  V30 8901 H 873.323 -0.507553 3.20304 0
M  V30 8902 H 873.108 1.18435 3.73785 0
M  V30 8903 H 874.598 0.291443 4.16582 0
M  V30 8904 N 875.035 -1.20752 1.01276 0
M  V30 8905 C 876.263 -1.94006 0.718976 0
M  V30 8906 C 876.678 -1.74544 -0.719711 0
M  V30 8907 O 876.035 -1.05697 -1.48776 0
M  V30 8908 C 876.086 -3.46208 1.04031 0
M  V30 8909 O 875.807 -3.65031 2.42248 0
M  V30 8910 C 877.308 -4.36614 0.767032 0
M  V30 8911 H 874.528 -0.616743 0.264327 0
M  V30 8912 H 877.072 -1.53352 1.3529 0
M  V30 8913 H 875.227 -3.84756 0.451852 0
M  V30 8914 H 875.641 -4.59054 2.53712 0
M  V30 8915 H 877.115 -5.42076 1.04198 0
M  V30 8916 H 877.592 -4.38182 -0.298851 0
M  V30 8917 H 878.198 -4.03723 1.33746 0
M  V30 8918 N 876.513 -0.788492 -1.36457 0
M  V30 8919 C 877.743 -0.371825 -2.03227 0
M  V30 8920 C 878.151 1.01627 -1.59589 0
M  V30 8921 O 877.494 1.663 -0.780382 0
M  V30 8922 C 877.556 -0.355179 -3.57741 0
M  V30 8923 C 877.22 -1.69069 -4.24576 0
M  V30 8924 C 878.217 -2.64601 -4.47529 0
M  V30 8925 C 875.902 -1.96973 -4.62068 0
M  V30 8926 C 877.896 -3.86232 -5.07054 0
M  V30 8927 C 875.583 -3.18872 -5.2131 0
M  V30 8928 C 876.581 -4.1332 -5.43742 0
M  V30 8929 O 876.269 -5.3307 -6.0174 0
M  V30 8930 H 876.001 -0.151452 -0.658816 0
M  V30 8931 H 878.555 -1.06827 -1.75434 0
M  V30 8932 H 876.785 0.397753 -3.84649 0
M  V30 8933 H 878.474 0.0366955 -4.05883 0
M  V30 8934 H 879.24 -2.44329 -4.18961 0
M  V30 8935 H 875.119 -1.24277 -4.43933 0
M  V30 8936 H 878.663 -4.59965 -5.24478 0
M  V30 8937 H 874.56 -3.39022 -5.49304 0
M  V30 8938 H 875.328 -5.34121 -6.20207 0
M  V30 8939 N 877.991 1.48044 -0.54043 0
M  V30 8940 C 879.216 2.07396 -0.0124765 0
M  V30 8941 C 879.641 1.39288 1.26414 0
M  V30 8942 O 878.999 0.462252 1.75308 0
M  V30 8943 C 879.047 3.60131 0.18377 0
M  V30 8944 O 878.151 3.92995 1.25014 0
M  V30 8945 H 877.492 0.662554 -0.0438026 0
M  V30 8946 H 880.022 1.90306 -0.751327 0
M  V30 8947 H 880.032 4.06003 0.403197 0
M  V30 8948 H 878.707 4.09105 -0.74874 0
M  V30 8949 H 877.284 3.5889 1.01254 0
M  V30 8950 N 879.47 0.276058 1.55163 0
M  V30 8951 C 880.886 -0.0780579 1.59409 0
M  V30 8952 C 881.086 -1.54521 1.29327 0
M  V30 8953 O 880.142 -2.29422 1.05459 0
M  V30 8954 C 881.455 0.297422 2.99225 0
M  V30 8955 C 883.003 0.244117 3.12047 0
M  V30 8956 C 883.478 0.594051 4.54131 0
M  V30 8957 N 884.969 0.54564 4.59975 0
M  V30 8958 C 885.704 0.789192 5.67943 0
M  V30 8959 N 885.2 1.09741 6.84053 0
M  V30 8960 N 886.993 0.717926 5.57496 0
M  V30 8961 H 879.144 1.23251 1.72982 0
M  V30 8962 H 881.407 0.497988 0.806667 0
M  V30 8963 H 881.113 1.31782 3.26077 0
M  V30 8964 H 880.987 -0.361286 3.75466 0
M  V30 8965 H 883.374 -0.766992 2.84958 0
M  V30 8966 H 883.455 0.937097 2.38017 0
M  V30 8967 H 883.099 1.60285 4.81945 0
M  V30 8968 H 883.029 -0.120728 5.26462 0
M  V30 8969 H 885.52 0.317334 3.76565 0
M  V30 8970 H 885.833 1.26989 7.62295 0
M  V30 8971 H 884.178 1.13519 6.85666 0
M  V30 8972 H 887.369 0.47697 4.65664 0
M  V30 8973 H 887.542 0.911118 6.41563 0
M  V30 8974 N 880.948 -1.576 0.00335426 0
M  V30 8975 C 882.188 -1.92571 -0.685253 0
M  V30 8976 C 882.552 -0.877961 -1.70751 0
M  V30 8977 O 883.753 -1.11303 -2.44673 0
M  V30 8978 C 882.024 -3.3258 -1.30863 0
M  V30 8979 S 883.583 -3.89442 -2.02189 0
M  V30 8980 H 880.401 -0.674035 -0.226268 0
M  V30 8981 H 883.003 -1.95405 0.0608461 0
M  V30 8982 H 881.707 -4.06673 -0.551837 0
M  V30 8983 H 881.238 -3.33128 -2.09259 0
M  V30 8984 H 883.253 -3.70789 -3.29742 0
M  V30 8985 N 882.426 0.269451 -1.5528 0
M  V30 8986 C 883.674 0.998604 -1.75705 0
M  V30 8987 C 883.995 1.86691 -0.563175 0
M  V30 8988 O 883.265 1.91305 0.421811 0
M  V30 8989 H 881.845 0.371698 -0.647958 0
M  V30 8990 H 884.507 0.292826 -1.92688 0
M  V30 8991 H 883.603 1.63348 -2.6594 0
M  V30 8992 N 883.904 1.48273 0.534124 0
M  V30 8993 C 885.129 1.59988 1.31979 0
M  V30 8994 C 885.554 0.258824 1.86311 0
M  V30 8995 O 884.912 -0.768885 1.64188 0
M  V30 8996 C 884.96 2.64642 2.44943 0
M  V30 8997 O 884.064 2.21515 3.47858 0
M  V30 8998 H 883.405 0.536625 0.391063 0
M  V30 8999 H 885.935 1.94229 0.643135 0
M  V30 9000 H 885.945 2.85786 2.91187 0
M  V30 9001 H 884.62 3.62004 2.04758 0
M  V30 9002 H 883.197 2.10567 3.0776 0
M  V30 9003 N 885.382 -0.782676 1.36792 0
M  V30 9004 C 886.63 -1.53778 1.31136 0
M  V30 9005 C 886.951 -1.94706 -0.107014 0
M  V30 9006 O 886.221 -1.65465 -1.04872 0
M  V30 9007 H 884.801 -0.570328 0.482426 0
M  V30 9008 H 887.463 -0.932181 1.71162 0
M  V30 9009 H 886.559 -2.44224 1.94321 0
M  V30 9010 N 886.86 -1.21182 -1.00761 0
M  V30 9011 C 888.271 -1.02652 -1.55947 0
M  V30 9012 C 888.622 0.414466 -1.91772 0
M  V30 9013 O 887.747 1.29727 -1.73204 0
M  V30 9014 C 888.342 -1.85713 -2.83366 0
M  V30 9015 C 886.901 -1.71523 -3.35048 0
M  V30 9016 C 886.048 -1.83087 -2.08265 0
M  V30 9017 H 888.999 -1.35242 -0.830379 0
M  V30 9018 H 889.02 -1.36583 -3.55141 0
M  V30 9019 H 888.532 -2.90584 -2.5726 0
M  V30 9020 H 886.633 -0.693257 -3.66094 0
M  V30 9021 H 886.746 -2.53333 -4.06644 0
M  V30 9022 H 885.11 -1.26367 -2.21141 0
M  V30 9023 H 885.893 -2.8946 -1.84575 0
M  V30 9024 N 888.338 1.20213 -1.01915 0
M  V30 9025 C 889.584 1.90203 -0.720724 0
M  V30 9026 C 889.939 1.77526 0.74178 0
M  V30 9027 O 889.232 1.15037 1.53222 0
M  V30 9028 C 889.426 3.40232 -1.09438 0
M  V30 9029 C 889.255 3.67509 -2.59167 0
M  V30 9030 C 888.025 3.86082 -3.25989 0
M  V30 9031 C 890.223 3.69863 -3.5736 0
M  V30 9032 N 888.205 4.009 -4.64922 0
M  V30 9033 C 889.576 3.90136 -4.81865 0
M  V30 9034 C 891.631 3.52839 -3.51296 0
M  V30 9035 C 890.334 3.9515 -6.0104 0
M  V30 9036 C 892.36 3.59125 -4.69875 0
M  V30 9037 C 891.722 3.79874 -5.93191 0
M  V30 9038 H 887.821 0.715556 -0.315442 0
M  V30 9039 H 890.405 1.44538 -1.30449 0
M  V30 9040 H 888.576 3.84643 -0.538933 0
M  V30 9041 H 890.308 3.97704 -0.74923 0
M  V30 9042 H 887.063 3.84569 -2.76413 0
M  V30 9043 H 887.487 4.12181 -5.37062 0
M  V30 9044 H 892.129 3.35762 -2.56951 0
M  V30 9045 H 889.847 4.11022 -6.95763 0
M  V30 9046 H 893.433 3.47257 -4.66802 0
M  V30 9047 H 892.313 3.846 -6.83412 0
M  V30 9048 N 889.816 0.795718 1.36037 0
M  V30 9049 C 891.065 0.367575 1.98322 0
M  V30 9050 C 891.378 -1.06823 1.63854 0
M  V30 9051 O 892.584 -1.59895 2.19421 0
M  V30 9052 C 891.04 0.606272 3.54757 0
M  V30 9053 C 890.648 2.0539 3.98144 0
M  V30 9054 C 892.392 0.242947 4.23804 0
M  V30 9055 C 890.299 2.23893 5.47381 0
M  V30 9056 H 889.229 0.133699 0.742052 0
M  V30 9057 H 891.88 0.978242 1.5525 0
M  V30 9058 H 890.262 -0.0741957 3.9593 0
M  V30 9059 H 891.436 2.77129 3.68152 0
M  V30 9060 H 889.751 2.37607 3.41953 0
M  V30 9061 H 892.348 0.359382 5.33491 0
M  V30 9062 H 892.691 -0.809661 4.08351 0
M  V30 9063 H 893.224 0.876899 3.88015 0
M  V30 9064 H 889.963 3.27559 5.6779 0
M  V30 9065 H 889.483 1.56666 5.78978 0
M  V30 9066 H 891.162 2.04914 6.13693 0
M  V30 9067 N 891.294 -1.47756 0.548274 0
M  V30 9068 C 892.522 -2.06884 0.0254873 0
M  V30 9069 C 892.937 -1.40225 -1.26422 0
M  V30 9070 O 892.294 -0.495776 -1.75637 0
M  V30 9071 C 892.345 -3.61036 -0.183134 0
M  V30 9072 O 892.066 -4.25195 1.05549 0
M  V30 9073 C 893.567 -4.37008 -0.744222 0
M  V30 9074 H 890.787 -0.669697 0.041789 0
M  V30 9075 H 893.331 -1.89888 0.759138 0
M  V30 9076 H 891.486 -3.77576 -0.866886 0
M  V30 9077 H 891.9 -5.17606 0.847629 0
M  V30 9078 H 893.374 -5.45579 -0.839529 0
M  V30 9079 H 893.851 -4.0268 -1.75344 0
M  V30 9080 H 894.457 -4.25191 -0.0964542 0
M  V30 9081 N 892.772 -0.284283 -1.55015 0
M  V30 9082 C 894.183 0.211681 -1.85496 0
M  V30 9083 C 894.534 1.54735 -1.2063 0
M  V30 9084 O 893.659 2.10594 -0.497918 0
M  V30 9085 C 894.254 0.390864 -3.36538 0
M  V30 9086 C 892.813 0.831055 -3.67111 0
M  V30 9087 C 891.96 -0.0703581 -2.77211 0
M  V30 9088 H 894.911 -0.505803 -1.50424 0
M  V30 9089 H 894.932 1.22803 -3.60138 0
M  V30 9090 H 894.444 -0.581409 -3.8372 0
M  V30 9091 H 892.545 1.81447 -3.25434 0
M  V30 9092 H 892.658 0.662026 -4.74504 0
M  V30 9093 H 891.022 0.447528 -2.50737 0
M  V30 9094 H 891.805 -1.03868 -3.2721 0
M  V30 9095 N 894.251 1.57596 -0.0117121 0
M  V30 9096 C 895.667 1.55837 0.344506 0
M  V30 9097 C 895.867 1.01557 1.74036 0
M  V30 9098 O 894.923 0.654563 2.43868 0
M  V30 9099 C 896.236 2.99973 0.209023 0
M  V30 9100 C 897.784 3.11717 0.283092 0
M  V30 9101 C 898.259 4.57659 0.176599 0
M  V30 9102 N 899.75 4.62608 0.234133 0
M  V30 9103 C 900.485 5.73132 0.175252 0
M  V30 9104 N 899.981 6.92768 0.0662888 0
M  V30 9105 N 901.774 5.61638 0.227972 0
M  V30 9106 H 893.925 1.91215 -0.924692 0
M  V30 9107 H 896.188 0.878807 -0.355531 0
M  V30 9108 H 895.894 3.4357 -0.751826 0
M  V30 9109 H 895.768 3.64075 0.98635 0
M  V30 9110 H 898.155 2.68043 1.23439 0
M  V30 9111 H 898.236 2.50369 -0.52431 0
M  V30 9112 H 897.88 5.02011 -0.771205 0
M  V30 9113 H 897.81 5.16967 1.00264 0
M  V30 9114 H 900.301 3.76549 0.319203 0
M  V30 9115 H 900.614 7.72795 0.0275765 0
M  V30 9116 H 898.959 6.94993 0.0317502 0
M  V30 9117 H 902.15 4.67063 0.311377 0
M  V30 9118 H 902.323 6.47754 0.178621 0
M  V30 9119 N 895.729 -0.261212 1.5542 0
M  V30 9120 C 896.969 -0.998748 1.78338 0
M  V30 9121 C 897.333 -1.83064 0.578914 0
M  V30 9122 O 898.534 -2.59884 0.686575 0
M  V30 9123 C 896.805 -1.84828 3.05898 0
M  V30 9124 S 898.364 -2.64686 3.49981 0
M  V30 9125 H 895.182 -0.33619 0.626496 0
M  V30 9126 H 897.784 -0.26799 1.93655 0
M  V30 9127 H 896.488 -1.22658 3.91642 0
M  V30 9128 H 896.019 -2.62203 2.9328 0
M  V30 9129 H 898.034 -3.87299 3.10184 0
M  V30 9130 N 897.207 -1.48554 -0.526253 0
M  V30 9131 C 898.137 -1.66252 -1.63959 0
M  V30 9132 C 899.118 -0.511351 -1.62232 0
M  V30 9133 O 900.303 -0.744322 -1.7937 0
M  V30 9134 C 897.433 -1.70556 -3.02536 0
M  V30 9135 C 896.387 -2.8521 -3.19123 0
M  V30 9136 C 895.713 -2.74606 -4.58798 0
M  V30 9137 C 897.013 -4.26463 -3.0154 0
M  V30 9138 H 898.707 -2.59459 -1.49404 0
M  V30 9139 H 896.253 -1.24862 -0.717326 0
M  V30 9140 H 898.206 -1.81524 -3.80298 0
M  V30 9141 H 896.93 -0.739297 -3.18123 0
M  V30 9142 H 895.589 -2.73802 -2.43779 0
M  V30 9143 H 895.237 -1.75941 -4.71226 0
M  V30 9144 H 894.937 -3.51544 -4.70841 0
M  V30 9145 H 896.461 -2.87548 -5.38655 0
M  V30 9146 H 897.875 -4.38685 -3.69091 0
M  V30 9147 H 896.272 -5.04428 -3.25073 0
M  V30 9148 H 897.342 -4.42667 -1.97925 0
M  V30 9149 N 898.685 0.775411 -1.37205 0
M  V30 9150 C 899.931 1.53611 -1.32407 0
M  V30 9151 C 900.264 1.9398 0.0924103 0
M  V30 9152 O 899.539 1.63791 1.04893 0
M  V30 9153 C 899.822 2.80367 -2.25979 0
M  V30 9154 C 899.675 2.46275 -3.76389 0
M  V30 9155 C 900.994 3.82277 -2.18064 0
M  V30 9156 H 898.113 0.557278 -0.482297 0
M  V30 9157 H 900.755 0.889826 -1.67875 0
M  V30 9158 H 898.905 3.35515 -1.95862 0
M  V30 9159 H 900.577 1.9707 -4.17087 0
M  V30 9160 H 898.82 1.79023 -3.95137 0
M  V30 9161 H 899.491 3.36868 -4.37291 0
M  V30 9162 H 901.967 3.36613 -2.44604 0
M  V30 9163 H 900.843 4.68696 -2.85684 0
M  V30 9164 H 901.104 4.26272 -1.17239 0
M  V30 9165 N 900.163 1.21714 1.00117 0
M  V30 9166 C 901.44 0.945391 1.71236 0
M  V30 9167 C 901.82 -0.541772 2.0403 0
M  V30 9168 O 901.168 -1.50763 1.71705 0
M  V30 9169 C 901.378 1.83444 2.96899 0
M  V30 9170 C 902.726 2.08558 3.69849 0
M  V30 9171 O 903.75 1.80824 3.06889 0
M  V30 9172 O 902.609 2.55485 4.83104 0
M  V30 9173 H 899.703 0.354834 0.747009 0
M  V30 9174 H 902.249 1.32661 1.05825 0
M  V30 9175 H 901.021 2.84075 2.69105 0
M  V30 9176 H 900.644 1.45428 3.70049 0
M  V30 9177 N 901.641 -1.19671 1.02551 0
M  V30 9178 C 902.871 -1.92952 0.738441 0
M  V30 9179 C 903.279 -1.75528 -0.706155 0
M  V30 9180 O 902.622 -1.0723 -1.49156 0
M  V30 9181 C 902.684 -3.45149 1.00562 0
M  V30 9182 C 902.348 -3.86341 2.44109 0
M  V30 9183 C 903.345 -3.91374 3.42231 0
M  V30 9184 C 901.03 -4.18076 2.7842 0
M  V30 9185 C 903.024 -4.27568 4.7272 0
M  V30 9186 C 900.711 -4.53943 4.0912 0
M  V30 9187 C 901.709 -4.58663 5.06081 0
M  V30 9188 O 901.397 -4.93701 6.3444 0
M  V30 9189 H 901.129 -0.619836 0.269776 0
M  V30 9190 H 903.683 -1.52852 1.37206 0
M  V30 9191 H 901.913 -3.85416 0.314849 0
M  V30 9192 H 903.602 -3.99664 0.708742 0
M  V30 9193 H 904.368 -3.67011 3.17061 0
M  V30 9194 H 900.247 -4.13589 2.03631 0
M  V30 9195 H 903.791 -4.31166 5.48399 0
M  V30 9196 H 899.688 -4.77764 4.34064 0
M  V30 9197 H 900.456 -5.11662 6.38862 0
M  V30 9198 N 903.119 -0.802921 -1.35613 0
M  V30 9199 C 904.53 -0.443004 -1.81368 0
M  V30 9200 C 904.881 1.03459 -1.66706 0
M  V30 9201 O 904.006 1.80372 -1.19561 0
M  V30 9202 C 904.601 -0.797324 -3.29284 0
M  V30 9203 C 903.16 -0.490055 -3.73196 0
M  V30 9204 C 902.307 -1.02487 -2.57666 0
M  V30 9205 H 905.258 -0.994888 -1.23643 0
M  V30 9206 H 905.279 -0.0934638 -3.80385 0
M  V30 9207 H 904.791 -1.87278 -3.39924 0
M  V30 9208 H 902.892 0.576818 -3.68108 0
M  V30 9209 H 903.005 -1.02012 -4.68114 0
M  V30 9210 H 901.369 -0.44738 -2.5074 0
M  V30 9211 H 902.152 -2.10636 -2.71085 0
M  V30 9212 N 904.597 1.47463 -0.556102 0
M  V30 9213 C 905.827 2.06568 -0.0364056 0
M  V30 9214 C 906.235 1.40939 1.26225 0
M  V30 9215 O 905.578 0.499572 1.76777 0
M  V30 9216 C 905.64 3.58755 0.231278 0
M  V30 9217 C 905.304 4.46417 -0.977776 0
M  V30 9218 C 906.301 4.846 -1.88305 0
M  V30 9219 C 903.986 4.87948 -1.19214 0
M  V30 9220 C 905.98 5.63111 -2.98639 0
M  V30 9221 C 903.667 5.66224 -2.29857 0
M  V30 9222 C 904.665 6.03716 -3.194 0
M  V30 9223 O 904.353 6.80415 -4.28125 0
M  V30 9224 H 904.085 0.674675 -0.042305 0
M  V30 9225 H 906.639 1.9047 -0.768775 0
M  V30 9226 H 904.869 3.73061 1.01794 0
M  V30 9227 H 906.558 3.99884 0.696221 0
M  V30 9228 H 907.324 4.53115 -1.72949 0
M  V30 9229 H 903.203 4.58233 -0.504347 0
M  V30 9230 H 906.747 5.92293 -3.68557 0
M  V30 9231 H 902.644 5.97121 -2.45186 0
M  V30 9232 H 903.412 6.98807 -4.26159 0
M  V30 9233 N 906.075 0.2925 1.54862 0
M  V30 9234 C 907.491 -0.0611461 1.59483 0
M  V30 9235 C 907.691 -1.53141 1.30958 0
M  V30 9236 O 906.747 -2.28291 1.07887 0
M  V30 9237 C 908.06 0.329143 2.98893 0
M  V30 9238 C 909.608 0.2772 3.1177 0
M  V30 9239 C 910.083 0.642185 4.53475 0
M  V30 9240 N 911.574 0.594396 4.5937 0
M  V30 9241 C 912.309 0.849385 5.67074 0
M  V30 9242 N 911.805 1.1699 6.82851 0
M  V30 9243 N 913.598 0.777016 5.56704 0
M  V30 9244 H 905.749 1.25079 1.71665 0
M  V30 9245 H 908.012 0.506516 0.80134 0
M  V30 9246 H 907.718 1.35233 3.24661 0
M  V30 9247 H 907.592 -0.321442 3.75828 0
M  V30 9248 H 909.979 -0.736725 2.85756 0
M  V30 9249 H 910.06 0.962289 2.3701 0
M  V30 9250 H 909.704 1.65388 4.80218 0
M  V30 9251 H 909.634 -0.0648831 5.2656 0
M  V30 9252 H 912.125 0.357256 3.76208 0
M  V30 9253 H 912.438 1.35067 7.60905 0
M  V30 9254 H 910.783 1.20785 6.84424 0
M  V30 9255 H 913.974 0.526333 4.65132 0
M  V30 9256 H 914.147 0.979113 6.4056 0
M  V30 9257 N 907.553 -1.57587 0.0200696 0
M  V30 9258 C 908.483 -2.12702 -0.963333 0
M  V30 9259 C 909.464 -1.04094 -1.34531 0
M  V30 9260 O 910.649 -1.31881 -1.42552 0
M  V30 9261 C 907.779 -2.64673 -2.24868 0
M  V30 9262 C 906.733 -3.77987 -2.00772 0
M  V30 9263 C 906.059 -4.16351 -3.35494 0
M  V30 9264 C 907.359 -5.0444 -1.35416 0
M  V30 9265 H 909.053 -2.95121 -0.504363 0
M  V30 9266 H 906.599 -1.41966 -0.24116 0
M  V30 9267 H 908.552 -3.01862 -2.94036 0
M  V30 9268 H 907.276 -1.79403 -2.72914 0
M  V30 9269 H 905.935 -3.41223 -1.34025 0
M  V30 9270 H 905.583 -3.28075 -3.81282 0
M  V30 9271 H 905.283 -4.92705 -3.20181 0
M  V30 9272 H 906.807 -4.56115 -4.05945 0
M  V30 9273 H 908.221 -5.39273 -1.94571 0
M  V30 9274 H 906.618 -5.85732 -1.30529 0
M  V30 9275 H 907.688 -4.83803 -0.325923 0
M  V30 9276 N 909.032 0.252966 -1.55557 0
M  V30 9277 C 910.278 0.979092 -1.78284 0
M  V30 9278 C 910.633 1.83194 -0.588009 0
M  V30 9279 O 909.926 1.86965 0.418899 0
M  V30 9280 C 910.12 1.87785 -3.04091 0
M  V30 9281 C 909.949 1.11349 -4.35697 0
M  V30 9282 C 908.719 0.821038 -4.98585 0
M  V30 9283 C 910.917 0.494039 -5.11922 0
M  V30 9284 N 908.899 0.0319767 -6.13892 0
M  V30 9285 C 910.27 -0.159888 -6.19794 0
M  V30 9286 C 912.325 0.403894 -4.96259 0
M  V30 9287 C 911.028 -0.895295 -7.13706 0
M  V30 9288 C 913.054 -0.317968 -5.90545 0
M  V30 9289 C 912.416 -0.960555 -6.9782 0
M  V30 9290 H 908.515 0.339586 -0.704419 0
M  V30 9291 H 911.099 0.252801 -1.93052 0
M  V30 9292 H 909.27 2.57623 -2.90663 0
M  V30 9293 H 911.002 2.53908 -3.15139 0
M  V30 9294 H 907.757 1.13132 -4.59889 0
M  V30 9295 H 908.181 -0.35047 -6.76092 0
M  V30 9296 H 912.823 0.886366 -4.13405 0
M  V30 9297 H 910.541 -1.38939 -7.96066 0
M  V30 9298 H 914.127 -0.388302 -5.80503 0
M  V30 9299 H 913.007 -1.51022 -7.69521 0
M  V30 9300 N 910.51 1.48831 0.518367 0
M  V30 9301 C 911.46 1.60614 1.61824 0
M  V30 9302 C 912.444 0.462631 1.54106 0
M  V30 9303 O 913.636 0.714689 1.6193 0
M  V30 9304 C 910.765 1.65984 3.00507 0
M  V30 9305 C 909.851 2.85854 3.13286 0
M  V30 9306 N 910.242 4.1014 2.96005 0
M  V30 9307 C 908.54 2.83429 3.4436 0
M  V30 9308 C 909.241 4.90626 3.12508 0
M  V30 9309 N 908.217 4.2366 3.40607 0
M  V30 9310 H 912.019 2.54443 1.47091 0
M  V30 9311 H 909.533 1.45363 0.724102 0
M  V30 9312 H 911.53 1.72521 3.79529 0
M  V30 9313 H 910.19 0.732792 3.16323 0
M  V30 9314 H 911.201 4.40395 2.72531 0
M  V30 9315 H 907.878 2.0003 3.66462 0
M  V30 9316 H 909.268 5.99302 3.03786 0
M  V30 9317 N 911.988 -0.768124 1.37614 0
M  V30 9318 C 913.218 -1.555 1.36027 0
M  V30 9319 C 913.626 -1.89119 -0.0554273 0
M  V30 9320 O 912.969 -1.52203 -1.02859 0
M  V30 9321 C 913.031 -2.8906 2.13739 0
M  V30 9322 C 912.695 -2.78058 3.62674 0
M  V30 9323 C 913.692 -2.48841 4.5648 0
M  V30 9324 C 911.377 -2.95966 4.05844 0
M  V30 9325 C 913.371 -2.37665 5.91434 0
M  V30 9326 C 911.058 -2.84411 5.40882 0
M  V30 9327 C 912.056 -2.55301 6.33491 0
M  V30 9328 O 911.744 -2.43779 7.66046 0
M  V30 9329 H 911.476 -0.488263 0.467521 0
M  V30 9330 H 914.03 -0.959583 1.81607 0
M  V30 9331 H 912.26 -3.50735 1.62854 0
M  V30 9332 H 913.949 -3.5048 2.04741 0
M  V30 9333 H 914.715 -2.34687 4.24437 0
M  V30 9334 H 910.594 -3.17625 3.34119 0
M  V30 9335 H 914.138 -2.14865 6.63686 0
M  V30 9336 H 910.035 -2.98134 5.72527 0
M  V30 9337 H 910.803 -2.59101 7.76408 0
M  V30 9338 N 913.466 -1.22244 -0.994698 0
M  V30 9339 C 914.877 -1.043 -1.5485 0
M  V30 9340 C 915.228 0.394102 -1.92201 0
M  V30 9341 O 914.353 1.27883 -1.74571 0
M  V30 9342 C 914.948 -1.88708 -2.8138 0
M  V30 9343 C 913.507 -1.75067 -3.3321 0
M  V30 9344 C 912.654 -1.85286 -2.06312 0
M  V30 9345 H 915.605 -1.36115 -0.815988 0
M  V30 9346 H 915.626 -1.40342 -3.53673 0
M  V30 9347 H 915.138 -2.93296 -2.54164 0
M  V30 9348 H 913.239 -0.732047 -3.65338 0
M  V30 9349 H 913.352 -2.57632 -4.03934 0
M  V30 9350 H 911.716 -1.28706 -2.19788 0
M  V30 9351 H 912.499 -2.91401 -1.81494 0
M  V30 9352 N 914.944 1.19125 -1.03184 0
M  V30 9353 C 916.184 1.90582 -0.738785 0
M  V30 9354 C 916.548 1.78004 0.719627 0
M  V30 9355 O 917.749 2.44084 1.12589 0
M  V30 9356 C 916.02 3.37319 -1.18114 0
M  V30 9357 S 917.579 4.26962 -1.01238 0
M  V30 9358 H 914.397 0.6582 -0.268875 0
M  V30 9359 H 916.999 1.43999 -1.32229 0
M  V30 9360 H 915.703 3.43999 -2.23814 0
M  V30 9361 H 915.234 3.88935 -0.591051 0
M  V30 9362 H 917.249 4.96143 0.0753558 0
M  V30 9363 N 916.422 0.810101 1.35185 0
M  V30 9364 C 917.65 0.404696 2.02903 0
M  V30 9365 C 918.065 -0.985434 1.61042 0
M  V30 9366 O 917.422 -1.63557 0.809658 0
M  V30 9367 C 917.473 0.482493 3.58266 0
M  V30 9368 O 917.194 1.81782 3.98606 0
M  V30 9369 C 918.695 0.070345 4.43244 0
M  V30 9370 H 915.915 0.163972 0.650657 0
M  V30 9371 H 918.459 1.0947 1.72733 0
M  V30 9372 H 916.614 -0.159296 3.87072 0
M  V30 9373 H 917.028 1.78306 4.93262 0
M  V30 9374 H 918.502 0.175888 5.5172 0
M  V30 9375 H 918.979 -0.984724 4.28018 0
M  V30 9376 H 919.585 0.685427 4.1974 0
M  V30 9377 N 917.9 -1.47166 0.563914 0
M  V30 9378 C 919.149 -2.0166 0.0401871 0
M  V30 9379 C 919.462 -1.44303 -1.32046 0
M  V30 9380 O 920.668 -1.905 -1.93448 0
M  V30 9381 C 919.124 -3.59894 0.0213257 0
M  V30 9382 C 918.732 -4.26244 1.37914 0
M  V30 9383 C 920.476 -4.22114 -0.449442 0
M  V30 9384 C 918.383 -5.76503 1.31902 0
M  V30 9385 H 917.313 -0.753916 0.0112534 0
M  V30 9386 H 919.964 -1.69091 0.712766 0
M  V30 9387 H 918.346 -3.89454 -0.717038 0
M  V30 9388 H 919.52 -4.08317 2.13574 0
M  V30 9389 H 917.835 -3.76039 1.78839 0
M  V30 9390 H 920.432 -5.32234 -0.51292 0
M  V30 9391 H 920.775 -3.89749 -1.46291 0
M  V30 9392 H 921.308 -3.9711 0.23427 0
M  V30 9393 H 918.047 -6.13498 2.3087 0
M  V30 9394 H 917.567 -5.96748 0.604324 0
M  V30 9395 H 919.246 -6.38846 1.02392 0
M  V30 9396 N 919.378 -0.300708 -1.54705 0
M  V30 9397 C 920.326 0.591264 -2.2496 0
M  V30 9398 C 921.32 1.13725 -1.2555 0
M  V30 9399 O 922.526 1.08793 -1.43402 0
M  V30 9400 H 918.901 0.209278 -0.722293 0
M  V30 9401 H 920.872 -0.0238175 -2.9839 0
M  V30 9402 C 919.621 1.75179 -3.00346 0
M  V30 9403 H 918.944 1.34089 -3.76643 0
M  V30 9404 H 920.384 2.35198 -3.52786 0
M  V30 9405 C 918.843 2.65574 -2.07298 0
M  V30 9406 O 919.373 3.6666 -1.64083 0
M  V30 9407 N 917.579 2.33301 -1.7326 0
M  V30 9408 H 917.126 1.51142 -2.08599 0
M  V30 9409 H 917.084 2.94049 -1.11278 0
M  V30 9410 N 920.856 1.57574 -0.0284266 0
M  V30 9411 C 922.086 1.95787 0.659617 0
M  V30 9412 C 922.494 0.903475 1.66235 0
M  V30 9413 O 921.837 -0.12329 1.83286 0
M  V30 9414 C 921.899 3.30139 1.42298 0
M  V30 9415 C 921.563 4.53322 0.578658 0
M  V30 9416 C 922.56 5.19696 -0.145751 0
M  V30 9417 C 920.245 4.9964 0.516264 0
M  V30 9418 C 922.239 6.30708 -0.921235 0
M  V30 9419 C 919.926 6.10534 -0.262925 0
M  V30 9420 C 920.924 6.75927 -0.980382 0
M  V30 9421 O 920.612 7.84692 -1.7468 0
M  V30 9422 H 920.344 0.649681 0.186792 0
M  V30 9423 H 922.898 2.05227 -0.0842687 0
M  V30 9424 H 921.128 3.17188 2.21199 0
M  V30 9425 H 922.817 3.53259 1.99906 0
M  V30 9426 H 923.583 4.84882 -0.106876 0
M  V30 9427 H 919.462 4.48547 1.06427 0
M  V30 9428 H 923.006 6.81682 -1.48176 0
M  V30 9429 H 918.903 6.44786 -0.303519 0
M  V30 9430 H 919.671 8.01355 -1.6665 0
M  V30 9431 N 922.334 -0.244713 1.55689 0
M  V30 9432 C 923.562 -0.989944 1.8168 0
M  V30 9433 C 923.977 -1.78863 0.604449 0
M  V30 9434 O 923.334 -1.77437 -0.426907 0
M  V30 9435 C 923.385 -1.92607 3.05916 0
M  V30 9436 O 923.106 -1.1597 4.22472 0
M  V30 9437 C 924.607 -2.78711 3.44724 0
M  V30 9438 H 921.827 -0.2912 0.604519 0
M  V30 9439 H 924.371 -0.266938 2.0275 0
M  V30 9440 H 922.526 -2.60333 2.8689 0
M  V30 9441 H 922.94 -1.79311 4.92898 0
M  V30 9442 H 924.414 -3.40141 4.34751 0
M  V30 9443 H 924.891 -3.49935 2.6541 0
M  V30 9444 H 925.497 -2.16435 3.66109 0
M  V30 9445 N 923.813 -1.49104 -0.510467 0
M  V30 9446 C 925.062 -1.57362 -1.26175 0
M  V30 9447 C 925.375 -0.261218 -1.93848 0
M  V30 9448 O 926.581 -0.222238 -2.70589 0
M  V30 9449 C 925.037 -2.77606 -2.29048 0
M  V30 9450 C 924.645 -4.15567 -1.67357 0
M  V30 9451 C 926.389 -2.95188 -3.05064 0
M  V30 9452 C 924.296 -5.27046 -2.68285 0
M  V30 9453 H 923.226 -0.585887 -0.474608 0
M  V30 9454 H 925.877 -1.75474 -0.536753 0
M  V30 9455 H 924.259 -2.52968 -3.04669 0
M  V30 9456 H 925.433 -4.50304 -0.977924 0
M  V30 9457 H 923.748 -4.03264 -1.03765 0
M  V30 9458 H 926.345 -3.75643 -3.80521 0
M  V30 9459 H 926.688 -2.05385 -3.62108 0
M  V30 9460 H 927.221 -3.19821 -2.36558 0
M  V30 9461 H 923.96 -6.18878 -2.16034 0
M  V30 9462 H 923.48 -4.96774 -3.36118 0
M  V30 9463 H 925.159 -5.55983 -3.30896 0
M  V30 9464 N 925.291 0.760815 -1.38019 0
M  V30 9465 C 926.538 1.51973 -1.3383 0
M  V30 9466 C 926.866 1.9436 0.0738855 0
M  V30 9467 O 926.121 1.65181 1.04946 0
M  V30 9468 C 926.42 2.79024 -2.23339 0
M  V30 9469 C 926.086 2.55636 -3.71431 0
M  V30 9470 C 924.748 2.48966 -4.11788 0
M  V30 9471 C 927.1 2.35018 -4.65205 0
M  V30 9472 C 924.428 2.19684 -5.44018 0
M  V30 9473 C 926.78 2.07258 -5.97685 0
M  V30 9474 C 925.444 1.9904 -6.37134 0
M  V30 9475 H 924.714 0.556108 -0.489719 0
M  V30 9476 H 927.361 0.87545 -1.70318 0
M  V30 9477 H 925.666 3.48065 -1.79883 0
M  V30 9478 H 927.363 3.36951 -2.17405 0
M  V30 9479 H 923.953 2.61695 -3.39432 0
M  V30 9480 H 928.137 2.39154 -4.34878 0
M  V30 9481 H 923.393 2.11825 -5.73533 0
M  V30 9482 H 927.567 1.90307 -6.69893 0
M  V30 9483 H 925.194 1.76115 -7.39519 0
M  V30 9484 N 926.769 1.22769 0.988202 0
M  V30 9485 C 927.716 1.00195 2.07917 0
M  V30 9486 C 928.686 -0.0779391 1.65917 0
M  V30 9487 O 929.871 0.0726005 1.90662 0
M  V30 9488 C 927.011 0.590853 3.40004 0
M  V30 9489 C 926.124 1.74202 3.9532 0
M  V30 9490 C 925.259 1.27846 5.15586 0
M  V30 9491 C 924.298 2.40087 5.63049 0
M  V30 9492 N 923.435 1.94744 6.74551 0
M  V30 9493 H 928.275 1.93581 2.26562 0
M  V30 9494 H 925.812 0.96448 1.11068 0
M  V30 9495 H 927.77 0.333653 4.15864 0
M  V30 9496 H 926.4 -0.306007 3.21346 0
M  V30 9497 H 925.452 2.11342 3.16289 0
M  V30 9498 H 926.764 2.58612 4.26522 0
M  V30 9499 H 925.918 0.978919 5.9875 0
M  V30 9500 H 924.657 0.404617 4.86019 0
M  V30 9501 H 923.662 2.70824 4.78471 0
M  V30 9502 H 924.887 3.27995 5.9464 0
M  V30 9503 H 922.833 1.09729 6.46758 0
M  V30 9504 H 922.75 2.72718 7.05096 0
M  V30 9505 H 924.018 1.67873 7.61209 0
M  V30 9506 N 928.247 -1.18576 1.03814 0
M  V30 9507 C 929.496 -1.87822 0.735235 0
M  V30 9508 C 929.809 -1.81069 -0.739819 0
M  V30 9509 O 931.015 -2.45654 -1.15614 0
M  V30 9510 C 929.471 -3.36941 1.26486 0
M  V30 9511 C 929.079 -3.5223 2.76836 0
M  V30 9512 C 930.823 -4.11604 1.03836 0
M  V30 9513 C 928.73 -4.95294 3.23169 0
M  V30 9514 H 927.66 -0.703487 0.271333 0
M  V30 9515 H 930.311 -1.34 1.25365 0
M  V30 9516 H 928.693 -3.90217 0.674318 0
M  V30 9517 H 929.867 -3.09239 3.41625 0
M  V30 9518 H 928.182 -2.90969 2.97869 0
M  V30 9519 H 930.779 -5.17123 1.3597 0
M  V30 9520 H 931.122 -4.16293 -0.0244945 0
M  V30 9521 H 931.655 -3.64494 1.59338 0
M  V30 9522 H 928.394 -4.95772 4.28824 0
M  V30 9523 H 927.914 -5.3901 2.63113 0
M  V30 9524 H 929.593 -5.63996 3.17045 0
M  V30 9525 N 929.725 -0.817259 -1.34754 0
M  V30 9526 C 931.141 -0.502309 -1.51489 0
M  V30 9527 C 931.341 0.974568 -1.76364 0
M  V30 9528 O 930.397 1.75924 -1.81127 0
M  V30 9529 C 931.71 -1.35693 -2.68343 0
M  V30 9530 C 933.258 -1.35347 -2.82224 0
M  V30 9531 C 933.733 -2.19244 -4.02114 0
M  V30 9532 N 935.224 -2.16837 -4.09311 0
M  V30 9533 C 935.959 -2.78505 -5.01221 0
M  V30 9534 N 935.455 -3.4914 -5.98392 0
M  V30 9535 N 937.248 -2.68089 -4.94049 0
M  V30 9536 H 929.399 -1.77359 -1.16866 0
M  V30 9537 H 931.662 -0.755476 -0.572678 0
M  V30 9538 H 931.368 -2.40548 -2.56573 0
M  V30 9539 H 931.242 -1.01764 -3.63213 0
M  V30 9540 H 933.629 -0.312727 -2.93438 0
M  V30 9541 H 933.71 -1.7327 -1.88179 0
M  V30 9542 H 933.354 -3.23365 -3.9166 0
M  V30 9543 H 933.284 -1.78675 -4.95361 0
M  V30 9544 H 935.775 -1.65452 -3.39756 0
M  V30 9545 H 936.088 -3.93455 -6.65141 0
M  V30 9546 H 934.433 -3.53246 -5.98533 0
M  V30 9547 H 937.624 -2.12485 -4.17094 0
M  V30 9548 H 937.797 -3.16436 -5.65484 0
M  V30 9549 N 931.203 1.46865 -0.571711 0
M  V30 9550 C 932.136 2.27176 0.215944 0
M  V30 9551 C 933.114 1.34951 0.907035 0
M  V30 9552 O 934.298 1.64349 0.923127 0
M  V30 9553 C 931.425 3.12388 1.30888 0
M  V30 9554 C 930.471 4.20296 0.724804 0
M  V30 9555 S 931.304 5.33691 -0.439839 0
M  V30 9556 C 932.46 6.22468 0.654564 0
M  V30 9557 H 932.693 2.93633 -0.465518 0
M  V30 9558 H 930.226 1.50184 -0.358351 0
M  V30 9559 H 932.184 3.62049 1.93471 0
M  V30 9560 H 930.845 2.45265 1.96224 0
M  V30 9561 H 930.038 4.79703 1.54599 0
M  V30 9562 H 929.64 3.73591 0.174861 0
M  V30 9563 H 931.932 6.59694 1.54304 0
M  V30 9564 H 932.875 7.08033 0.0975111 0
M  V30 9565 H 933.283 5.56384 0.953762 0
M  V30 9566 N 932.681 0.308908 1.54543 0
M  V30 9567 C 933.911 -0.299983 2.04411 0
M  V30 9568 C 934.319 -1.47463 1.18538 0
M  V30 9569 O 933.662 -1.82547 0.205463 0
M  V30 9570 C 933.724 -0.811579 3.50219 0
M  V30 9571 C 933.388 0.238834 4.56375 0
M  V30 9572 C 934.385 1.06997 5.08771 0
M  V30 9573 C 932.07 0.382808 5.00839 0
M  V30 9574 C 934.064 2.03096 6.04178 0
M  V30 9575 C 931.751 1.34723 5.96065 0
M  V30 9576 C 932.749 2.16978 6.47618 0
M  V30 9577 O 932.437 3.11783 7.40977 0
M  V30 9578 H 932.169 -0.0679682 0.672574 0
M  V30 9579 H 934.723 0.448815 2.00437 0
M  V30 9580 H 932.953 -1.61104 3.51543 0
M  V30 9581 H 934.642 -1.33721 3.83241 0
M  V30 9582 H 935.408 0.969654 4.75208 0
M  V30 9583 H 931.287 -0.247507 4.60335 0
M  V30 9584 H 934.831 2.67338 6.44342 0
M  V30 9585 H 930.728 1.44824 6.29044 0
M  V30 9586 H 931.496 3.06853 7.58804 0
M  V30 9587 N 934.159 -1.57557 0.0367827 0
M  V30 9588 C 935.405 -1.92399 -0.641133 0
M  V30 9589 C 935.738 -0.914191 -1.71336 0
M  V30 9590 O 935.013 0.0619616 -1.94401 0
M  V30 9591 C 935.296 -3.37689 -1.25052 0
M  V30 9592 C 935.149 -4.4941 -0.187326 0
M  V30 9593 C 936.468 -3.8309 -2.16634 0
M  V30 9594 H 933.587 -0.699666 -0.231597 0
M  V30 9595 H 936.229 -1.89759 0.0956083 0
M  V30 9596 H 934.379 -3.40069 -1.87843 0
M  V30 9597 H 936.051 -4.59161 0.443736 0
M  V30 9598 H 934.294 -4.31065 0.486313 0
M  V30 9599 H 934.965 -5.48119 -0.653459 0
M  V30 9600 H 937.441 -3.82494 -1.63821 0
M  V30 9601 H 936.317 -4.85429 -2.56222 0
M  V30 9602 H 936.578 -3.19028 -3.06062 0
M  V30 9603 N 935.637 0.236453 -1.55816 0
M  V30 9604 C 936.885 0.96111 -1.77784 0
M  V30 9605 C 937.206 1.85454 -0.602648 0
M  V30 9606 O 936.476 1.92157 0.381137 0
M  V30 9607 H 935.056 0.35787 -0.655697 0
M  V30 9608 H 937.718 0.251888 -1.93265 0
M  V30 9609 H 936.814 1.5767 -2.69345 0
M  V30 9610 N 937.115 1.49373 0.502552 0
M  V30 9611 C 938.363 1.58467 1.25429 0
M  V30 9612 C 938.684 0.272593 1.93085 0
M  V30 9613 O 937.954 -0.707947 1.82661 0
M  V30 9614 H 936.534 0.583866 0.46595 0
M  V30 9615 H 939.196 1.8599 0.582568 0
M  V30 9616 H 938.292 2.37993 2.01906 0
M  V30 9617 N 938.594 -0.753485 1.38421 0
M  V30 9618 C 939.84 -1.51485 1.34834 0
M  V30 9619 C 940.173 -1.94102 -0.0615381 0
M  V30 9620 O 939.448 -1.65439 -1.02274 0
M  V30 9621 C 939.731 -2.76736 2.30411 0
M  V30 9622 C 939.584 -2.40256 3.80259 0
M  V30 9623 C 940.903 -3.7876 2.24119 0
M  V30 9624 H 938.022 -0.549534 0.491102 0
M  V30 9625 H 940.664 -0.863006 1.6927 0
M  V30 9626 H 938.814 -3.32357 2.01175 0
M  V30 9627 H 940.486 -1.90409 4.20169 0
M  V30 9628 H 938.729 -1.72714 3.97935 0
M  V30 9629 H 939.4 -3.29869 4.42595 0
M  V30 9630 H 941.876 -3.32679 2.49928 0
M  V30 9631 H 940.752 -4.64092 2.93104 0
M  V30 9632 H 941.013 -4.24352 1.24006 0
M  V30 9633 N 940.072 -1.23292 -0.981677 0
M  V30 9634 C 940.982 -1.02964 -2.10798 0
M  V30 9635 C 941.998 0.0254674 -1.73981 0
M  V30 9636 O 943.174 -0.169706 -2.00684 0
M  V30 9637 C 940.239 -0.621934 -3.41076 0
M  V30 9638 C 939.3 -1.75194 -3.91926 0
M  V30 9639 C 938.533 -1.36359 -5.15986 0
M  V30 9640 O 938.756 -0.247265 -5.69864 0
M  V30 9641 O 937.69 -2.18421 -5.60871 0
M  V30 9642 H 941.516 -1.97354 -2.30836 0
M  V30 9643 H 939.101 -1.01986 -1.09175 0
M  V30 9644 H 940.983 -0.405446 -4.19445 0
M  V30 9645 H 939.658 0.29299 -3.22371 0
M  V30 9646 H 938.565 -2.02305 -3.1468 0
M  V30 9647 H 939.898 -2.64513 -4.15083 0
M  V30 9648 N 941.55 1.18024 -1.04442 0
M  V30 9649 C 942.5 2.19714 -0.609069 0
M  V30 9650 C 943.484 1.57037 0.350473 0
M  V30 9651 O 944.676 1.76192 0.16892 0
M  V30 9652 C 941.805 3.43293 0.0225911 0
M  V30 9653 C 940.891 4.13084 -0.960325 0
M  V30 9654 N 941.282 4.58819 -2.12883 0
M  V30 9655 C 939.58 4.38999 -0.787146 0
M  V30 9656 C 940.281 5.12589 -2.75004 0
M  V30 9657 N 939.257 5.04333 -2.02853 0
M  V30 9658 H 943.059 2.5277 -1.49948 0
M  V30 9659 H 940.573 1.34271 -0.913517 0
M  V30 9660 H 942.57 4.1541 0.352196 0
M  V30 9661 H 941.23 3.11731 0.908495 0
M  V30 9662 H 942.241 4.53148 -2.50754 0
M  V30 9663 H 938.918 4.17472 0.048348 0
M  V30 9664 H 940.308 5.58152 -3.74053 0
M  V30 9665 N 943.028 0.824394 1.34319 0
M  V30 9666 C 944.444 0.510336 1.51221 0
M  V30 9667 C 944.644 -0.965201 1.76879 0
M  V30 9668 O 943.7 -1.74961 1.82057 0
M  V30 9669 C 945.013 1.37114 2.6762 0
M  V30 9670 C 946.561 1.36842 2.81502 0
M  V30 9671 C 947.036 2.21374 4.00946 0
M  V30 9672 N 948.527 2.19005 4.08156 0
M  V30 9673 C 949.262 2.81159 4.99737 0
M  V30 9674 N 948.758 3.52309 5.96532 0
M  V30 9675 N 950.551 2.70706 4.9262 0
M  V30 9676 H 942.702 1.77976 1.15924 0
M  V30 9677 H 944.965 0.758503 0.568663 0
M  V30 9678 H 944.671 2.41905 2.55294 0
M  V30 9679 H 944.545 1.03689 3.62669 0
M  V30 9680 H 946.932 0.328284 2.93268 0
M  V30 9681 H 947.013 1.74265 1.87257 0
M  V30 9682 H 946.657 3.25437 3.8994 0
M  V30 9683 H 946.587 1.813 4.94407 0
M  V30 9684 H 949.078 1.67252 3.38874 0
M  V30 9685 H 949.391 3.96977 6.63045 0
M  V30 9686 H 947.736 3.56415 5.96652 0
M  V30 9687 H 950.927 2.14694 4.15962 0
M  V30 9688 H 951.1 3.19431 5.63798 0
M  V30 9689 N 944.506 -1.46559 0.579492 0
M  V30 9690 C 945.436 -2.33059 -0.143437 0
M  V30 9691 C 946.417 -1.4515 -0.886868 0
M  V30 9692 O 947.602 -1.73973 -0.862961 0
M  V30 9693 C 944.732 -3.27364 -1.15973 0
M  V30 9694 C 943.686 -4.24689 -0.531348 0
M  V30 9695 C 943.012 -5.08479 -1.65388 0
M  V30 9696 C 944.312 -5.1961 0.529391 0
M  V30 9697 H 946.006 -2.93753 0.578762 0
M  V30 9698 H 943.552 -1.41256 0.279775 0
M  V30 9699 H 945.505 -3.86732 -1.67382 0
M  V30 9700 H 944.229 -2.64771 -1.91217 0
M  V30 9701 H 942.888 -3.6658 -0.0383749 0
M  V30 9702 H 942.536 -4.42273 -2.3959 0
M  V30 9703 H 942.236 -5.74387 -1.23909 0
M  V30 9704 H 943.76 -5.70709 -2.17079 0
M  V30 9705 H 945.174 -5.73212 0.100506 0
M  V30 9706 H 943.571 -5.93843 0.86432 0
M  V30 9707 H 944.641 -4.63737 1.4169 0
M  V30 9708 N 945.984 -0.3171 -1.54377 0
M  V30 9709 C 946.894 0.560867 -2.27797 0
M  V30 9710 C 947.91 1.13473 -1.31908 0
M  V30 9711 O 949.086 1.15608 -1.64914 0
M  V30 9712 C 946.151 1.70886 -3.0166 0
M  V30 9713 C 945.212 1.16745 -4.13121 0
M  V30 9714 C 944.445 2.26073 -4.83453 0
M  V30 9715 O 944.668 3.46292 -4.53252 0
M  V30 9716 O 943.602 1.91856 -5.70504 0
M  V30 9717 H 947.428 -0.035193 -3.0368 0
M  V30 9718 H 945.013 -0.0830062 -1.49169 0
M  V30 9719 H 946.895 2.37736 -3.47936 0
M  V30 9720 H 945.57 2.29122 -2.28658 0
M  V30 9721 H 944.477 0.464224 -3.71209 0
M  V30 9722 H 945.81 0.630307 -4.88147 0
M  V30 9723 N 947.462 1.57535 -0.0451378 0
M  V30 9724 C 948.425 2.1008 0.916461 0
M  V30 9725 C 949.425 1.01913 1.2438 0
M  V30 9726 O 950.615 1.2801 1.18148 0
M  V30 9727 C 947.747 2.58001 2.22818 0
M  V30 9728 H 948.94 2.96334 0.461076 0
M  V30 9729 H 946.493 1.54974 0.203169 0
M  V30 9730 H 947.228 1.75123 2.72951 0
M  V30 9731 H 947.013 3.3704 2.00366 0
M  V30 9732 H 948.503 2.98822 2.9171 0
M  V30 9733 N 948.94 -0.228186 1.55939 0
M  V30 9734 C 949.903 -1.26621 1.91049 0
M  V30 9735 C 950.903 -1.40141 0.788491 0
M  V30 9736 O 952.093 -1.3852 1.05631 0
M  V30 9737 C 949.225 -2.64108 2.15545 0
M  V30 9738 H 950.418 -0.966978 2.83883 0
M  V30 9739 H 947.971 -0.468313 1.49119 0
M  V30 9740 H 948.706 -2.99141 1.25241 0
M  V30 9741 H 948.491 -2.55673 2.97277 0
M  V30 9742 H 949.981 -3.39025 2.43827 0
M  V30 9743 N 950.418 -1.49637 -0.494624 0
M  V30 9744 C 951.658 -1.61067 -1.25844 0
M  V30 9745 C 952.022 -0.293666 -1.89741 0
M  V30 9746 O 953.223 -0.283202 -2.67304 0
M  V30 9747 C 951.494 -2.74218 -2.29215 0
M  V30 9748 S 953.053 -3.05639 -3.1485 0
M  V30 9749 H 949.871 -0.568056 -0.42759 0
M  V30 9750 H 952.473 -1.87323 -0.559491 0
M  V30 9751 H 951.177 -3.68422 -1.80813 0
M  V30 9752 H 950.708 -2.49975 -3.0377 0
M  V30 9753 H 952.723 -2.47651 -4.29981 0
M  V30 9754 N 951.896 0.746133 -1.38819 0
M  V30 9755 C 952.844 1.88137 -1.36774 0
M  V30 9756 C 953.838 1.67508 -0.252495 0
M  V30 9757 O 955.044 1.74985 -0.421935 0
M  V30 9758 H 951.419 0.619116 -0.426849 0
M  V30 9759 H 953.39 1.86978 -2.32555 0
M  V30 9760 C 952.139 3.25703 -1.21708 0
M  V30 9761 H 951.462 3.42168 -2.06788 0
M  V30 9762 H 952.902 4.05361 -1.24332 0
M  V30 9763 C 951.361 3.36816 0.0754257 0
M  V30 9764 O 951.891 3.87742 1.04972 0
M  V30 9765 N 950.097 2.90287 0.134761 0
M  V30 9766 H 949.644 2.49034 -0.658779 0
M  V30 9767 H 949.602 2.98103 0.999109 0
M  V30 9768 N 953.375 1.23811 0.975125 0
M  V30 9769 C 954.621 1.08502 1.72043 0
M  V30 9770 C 954.976 -0.373437 1.88741 0
M  V30 9771 O 954.269 -1.27248 1.43243 0
M  V30 9772 C 954.463 1.74994 3.11628 0
M  V30 9773 C 954.292 3.27155 3.08544 0
M  V30 9774 C 953.062 3.96338 3.1344 0
M  V30 9775 C 955.26 4.23851 2.91299 0
M  V30 9776 N 953.242 5.35439 3.00297 0
M  V30 9777 C 954.613 5.499 2.86375 0
M  V30 9778 C 956.668 4.14519 2.75824 0
M  V30 9779 C 955.371 6.67687 2.67558 0
M  V30 9780 C 957.397 5.31975 2.58372 0
M  V30 9781 C 956.759 6.56953 2.5415 0
M  V30 9782 H 952.858 0.451607 0.638416 0
M  V30 9783 H 955.442 1.56617 1.15669 0
M  V30 9784 H 953.613 1.29404 3.66209 0
M  V30 9785 H 955.345 1.52614 3.74822 0
M  V30 9786 H 952.1 3.47453 3.21828 0
M  V30 9787 H 952.524 6.08381 2.96987 0
M  V30 9788 H 957.166 3.18662 2.77874 0
M  V30 9789 H 954.884 7.63673 2.64251 0
M  V30 9790 H 958.47 5.266 2.47354 0
M  V30 9791 H 957.35 7.46309 2.40817 0
M  V30 9792 N 954.853 -1.17469 1.05066 0
M  V30 9793 C 956.081 -1.9162 0.780334 0
M  V30 9794 C 956.496 -1.76745 -0.663817 0
M  V30 9795 O 955.853 -1.10377 -1.45338 0
M  V30 9796 C 955.904 -3.42723 1.14992 0
M  V30 9797 O 955.625 -3.57139 2.53739 0
M  V30 9798 C 957.126 -4.33952 0.905549 0
M  V30 9799 H 954.346 -0.608022 0.283814 0
M  V30 9800 H 956.89 -1.4897 1.401 0
M  V30 9801 H 955.045 -3.83124 0.57403 0
M  V30 9802 H 955.459 -4.5075 2.68189 0
M  V30 9803 H 956.933 -5.38487 1.21391 0
M  V30 9804 H 957.41 -4.38911 -0.159295 0
M  V30 9805 H 958.016 -3.99263 1.46522 0
M  V30 9806 N 956.331 -0.831506 -1.3388 0
M  V30 9807 C 957.747 -0.518349 -1.50948 0
M  V30 9808 C 957.947 0.955807 -1.77388 0
M  V30 9809 O 957.003 1.73993 -1.82983 0
M  V30 9810 C 958.316 -1.38531 -2.66889 0
M  V30 9811 C 959.864 -1.38332 -2.80772 0
M  V30 9812 C 960.339 -2.23497 -3.99766 0
M  V30 9813 N 961.83 -2.21167 -4.06988 0
M  V30 9814 C 962.565 -2.83805 -4.98239 0
M  V30 9815 N 962.061 -3.55468 -5.94655 0
M  V30 9816 N 963.854 -2.73314 -4.91178 0
M  V30 9817 H 956.005 -1.78588 -1.14978 0
M  V30 9818 H 958.268 -0.761508 -0.564633 0
M  V30 9819 H 957.974 -2.43255 -2.54007 0
M  V30 9820 H 957.848 -1.05611 -3.62114 0
M  V30 9821 H 960.235 -0.343832 -2.9309 0
M  V30 9822 H 960.316 -1.75256 -1.86331 0
M  V30 9823 H 959.96 -3.27501 -3.88208 0
M  V30 9824 H 959.89 -1.83919 -4.93438 0
M  V30 9825 H 962.381 -1.69046 -3.37982 0
M  V30 9826 H 962.694 -4.00487 -6.60931 0
M  V30 9827 H 961.039 -3.59575 -5.94753 0
M  V30 9828 H 964.23 -2.16897 -4.14817 0
M  V30 9829 H 964.403 -3.22416 -5.62096 0
M  V30 9830 N 957.809 1.4625 -0.587256 0
M  V30 9831 C 959.057 2.01963 -0.0744273 0
M  V30 9832 C 959.378 1.46065 1.29189 0
M  V30 9833 O 958.648 0.647077 1.84905 0
M  V30 9834 H 957.228 0.746597 -0.0245236 0
M  V30 9835 H 959.89 1.79299 -0.764063 0
M  V30 9836 H 958.986 3.12099 -0.00884894 0
M  V30 9837 N 959.287 0.325282 1.54207 0
M  V30 9838 C 960.197 -0.548778 2.28091 0
M  V30 9839 C 961.213 -1.12772 1.32508 0
M  V30 9840 O 962.389 -1.14732 1.65525 0
M  V30 9841 C 959.454 -1.69284 3.02562 0
M  V30 9842 C 958.515 -1.14553 4.13734 0
M  V30 9843 C 957.748 -2.23506 4.84645 0
M  V30 9844 O 957.971 -3.43884 4.55082 0
M  V30 9845 O 956.905 -1.88828 5.71513 0
M  V30 9846 H 960.731 0.0512974 3.03657 0
M  V30 9847 H 958.316 0.0909159 1.49123 0
M  V30 9848 H 960.198 -2.35887 3.49192 0
M  V30 9849 H 958.873 -2.27906 2.2987 0
M  V30 9850 H 957.78 -0.444532 3.71449 0
M  V30 9851 H 959.113 -0.60441 4.88475 0
M  V30 9852 N 960.765 -1.57509 0.0534917 0
M  V30 9853 C 962.181 -1.56696 -0.303067 0
M  V30 9854 C 962.381 -1.06135 -1.71282 0
M  V30 9855 O 961.437 -0.71899 -2.42047 0
M  V30 9856 C 962.75 -3.00421 -0.129418 0
M  V30 9857 C 964.298 -3.12358 -0.200346 0
M  V30 9858 C 964.773 -4.57967 -0.0551971 0
M  V30 9859 N 966.264 -4.63066 -0.111398 0
M  V30 9860 C 966.999 -5.73395 -0.0232344 0
M  V30 9861 N 966.495 -6.92701 0.11741 0
M  V30 9862 N 968.288 -5.62045 -0.078984 0
M  V30 9863 H 960.439 -1.88696 0.975064 0
M  V30 9864 H 962.702 -0.869072 0.378706 0
M  V30 9865 H 962.408 -3.41456 0.842653 0
M  V30 9866 H 962.282 -3.66563 -0.889476 0
M  V30 9867 H 964.669 -2.71221 -1.16289 0
M  V30 9868 H 964.75 -2.48891 0.590506 0
M  V30 9869 H 964.394 -4.9979 0.904034 0
M  V30 9870 H 964.324 -5.19443 -0.865223 0
M  V30 9871 H 966.815 -3.77263 -0.219256 0
M  V30 9872 H 967.128 -7.72597 0.177326 0
M  V30 9873 H 965.473 -6.94833 0.152526 0
M  V30 9874 H 968.664 -4.67725 -0.187434 0
M  V30 9875 H 968.837 -6.48 -0.00681731 0
M  V30 9876 N 962.243 0.219913 -1.56058 0
M  V30 9877 C 963.483 0.951113 -1.80923 0
M  V30 9878 C 963.847 1.81465 -0.627247 0
M  V30 9879 O 965.048 2.57972 -0.755237 0
M  V30 9880 C 963.319 1.76652 -3.10691 0
M  V30 9881 S 964.878 2.55314 -3.56876 0
M  V30 9882 H 961.696 0.319461 -0.635189 0
M  V30 9883 H 964.298 0.216551 -1.94297 0
M  V30 9884 H 963.002 1.12231 -3.94756 0
M  V30 9885 H 962.533 2.54335 -3.00128 0
M  V30 9886 H 964.548 3.78938 -3.20344 0
M  V30 9887 N 963.721 1.49897 0.486681 0
M  V30 9888 C 964.998 1.50614 1.24799 0
M  V30 9889 C 965.378 0.24193 2.09709 0
M  V30 9890 O 964.726 -0.775237 2.14947 0
M  V30 9891 C 964.936 2.79318 2.09243 0
M  V30 9892 C 966.284 3.29371 2.67955 0
M  V30 9893 O 967.308 2.80533 2.19499 0
M  V30 9894 O 966.167 4.14466 3.56202 0
M  V30 9895 H 963.261 0.603447 0.565491 0
M  V30 9896 H 965.807 1.62174 0.499778 0
M  V30 9897 H 964.579 3.62812 1.46572 0
M  V30 9898 H 964.202 2.70687 2.91229 0
M  V30 9899 N 965.199 -0.738761 1.39212 0
M  V30 9900 C 966.129 -1.86602 1.40364 0
M  V30 9901 C 967.11 -1.67984 0.267495 0
M  V30 9902 O 968.295 -1.88358 0.472765 0
M  V30 9903 C 965.425 -3.24308 1.24265 0
M  V30 9904 C 964.379 -3.57557 2.35239 0
M  V30 9905 C 963.705 -4.94159 2.04233 0
M  V30 9906 C 965.005 -3.60914 3.77543 0
M  V30 9907 H 966.699 -1.85896 2.34698 0
M  V30 9908 H 964.245 -0.892959 1.1297 0
M  V30 9909 H 966.198 -4.02838 1.23692 0
M  V30 9910 H 964.922 -3.25531 0.263974 0
M  V30 9911 H 963.581 -2.81354 2.35022 0
M  V30 9912 H 963.229 -4.91959 1.04813 0
M  V30 9913 H 962.929 -5.17373 2.78567 0
M  V30 9914 H 964.453 -5.7505 2.05303 0
M  V30 9915 H 965.867 -4.29528 3.79709 0
M  V30 9916 H 964.264 -3.95644 4.51205 0
M  V30 9917 H 965.334 -2.60803 4.08791 0
M  V30 9918 N 966.677 -1.24326 -0.968545 0
M  V30 9919 C 967.587 -1.05194 -2.09694 0
M  V30 9920 C 968.603 0.00701291 -1.73999 0
M  V30 9921 O 969.779 -0.190981 -2.00492 0
M  V30 9922 C 966.844 -0.658075 -3.40397 0
M  V30 9923 C 965.905 -1.79341 -3.90045 0
M  V30 9924 C 965.138 -1.41824 -5.14511 0
M  V30 9925 O 965.361 -0.307693 -5.69569 0
M  V30 9926 O 964.295 -2.24358 -5.58522 0
M  V30 9927 H 968.121 -1.99791 -2.2873 0
M  V30 9928 H 965.706 -1.03138 -1.08088 0
M  V30 9929 H 967.588 -0.449911 -4.18991 0
M  V30 9930 H 966.263 0.258782 -3.22664 0
M  V30 9931 H 965.17 -2.05632 -3.12516 0
M  V30 9932 H 966.503 -2.68901 -4.12254 0
M  V30 9933 N 968.156 1.1691 -1.05688 0
M  V30 9934 C 969.433 1.83266 -0.683601 0
M  V30 9935 C 969.813 1.93858 0.835602 0
M  V30 9936 O 969.161 1.47696 1.7435 0
M  V30 9937 C 969.371 3.20625 -1.37842 0
M  V30 9938 C 970.719 3.96473 -1.51967 0
M  V30 9939 O 971.743 3.30122 -1.33783 0
M  V30 9940 O 970.602 5.15393 -1.81749 0
M  V30 9941 H 967.696 0.791028 -0.241254 0
M  V30 9942 H 970.242 1.24165 -1.15677 0
M  V30 9943 H 969.014 3.07914 -2.41463 0
M  V30 9944 H 968.637 3.87398 -0.894921 0
M  V30 9945 N 969.634 0.838594 1.33437 0
M  V30 9946 C 971.05 0.526347 1.50671 0
M  V30 9947 C 971.25 -0.946387 1.77893 0
M  V30 9948 O 970.306 -1.7302 1.83903 0
M  V30 9949 C 971.619 1.39945 2.6615 0
M  V30 9950 C 973.167 1.3982 2.80035 0
M  V30 9951 C 973.642 2.25614 3.98576 0
M  V30 9952 N 975.133 2.23322 4.0581 0
M  V30 9953 C 975.868 2.86443 4.96727 0
M  V30 9954 N 975.364 3.58616 5.92762 0
M  V30 9955 N 977.157 2.75915 4.89722 0
M  V30 9956 H 969.308 1.79195 1.1403 0
M  V30 9957 H 971.571 0.764491 0.560586 0
M  V30 9958 H 971.277 2.44599 2.52714 0
M  V30 9959 H 971.151 1.07529 3.61548 0
M  V30 9960 H 973.538 0.35937 2.92904 0
M  V30 9961 H 973.619 1.76241 1.85399 0
M  V30 9962 H 973.263 3.29555 3.86466 0
M  V30 9963 H 973.193 1.86533 4.92456 0
M  V30 9964 H 975.684 1.70836 3.37081 0
M  V30 9965 H 975.997 4.03987 6.58798 0
M  V30 9966 H 974.342 3.62724 5.92838 0
M  V30 9967 H 977.533 2.19094 4.13661 0
M  V30 9968 H 977.706 3.25393 5.60378 0
M  V30 9969 N 971.112 -1.45937 0.595003 0
M  V30 9970 C 972.389 -1.95592 0.0178748 0
M  V30 9971 C 972.769 -1.53758 -1.44643 0
M  V30 9972 O 972.117 -0.794104 -2.14257 0
M  V30 9973 C 972.327 -3.4841 0.202789 0
M  V30 9974 C 973.675 -4.2453 0.0770121 0
M  V30 9975 O 974.699 -3.55954 0.132257 0
M  V30 9976 O 973.558 -5.46479 -0.0484271 0
M  V30 9977 H 970.652 -0.825888 -0.0428702 0
M  V30 9978 H 973.198 -1.56162 0.664184 0
M  V30 9979 H 971.97 -3.71787 1.22027 0
M  V30 9980 H 971.593 -3.947 -0.479376 0
M  V30 9981 N 972.59 -0.333456 -1.54032 0
M  V30 9982 C 974.006 0.0188405 -1.59589 0
M  V30 9983 C 974.206 1.49615 -1.34972 0
M  V30 9984 O 973.262 2.2535 -1.13901 0
M  V30 9985 C 974.575 -0.408273 -2.97915 0
M  V30 9986 C 976.123 -0.359763 -3.10926 0
M  V30 9987 C 976.598 -0.76219 -4.51613 0
M  V30 9988 N 978.089 -0.715981 -4.57633 0
M  V30 9989 C 978.824 -0.999436 -5.64623 0
M  V30 9990 N 978.32 -1.35053 -6.79509 0
M  V30 9991 N 980.113 -0.924343 -5.54448 0
M  V30 9992 H 972.264 -1.29587 -1.68289 0
M  V30 9993 H 974.527 -0.527584 -0.787629 0
M  V30 9994 H 974.233 -1.43793 -3.20962 0
M  V30 9995 H 974.107 0.221685 -3.76548 0
M  V30 9996 H 976.494 0.660703 -2.87609 0
M  V30 9997 H 976.575 -1.02479 -2.34375 0
M  V30 9998 H 976.219 -1.78062 -4.75664 0
M  V30 9999 H 976.149 -0.0747478 -5.26547 0
M  V30 10000 H 978.64 -0.456875 -3.75128 0
M  V30 10001 H 978.953 -1.55194 -7.57057 0
M  V30 10002 H 977.298 -1.38889 -6.80981 0
M  V30 10003 H 980.489 -0.649469 -4.63573 0
M  V30 10004 H 980.662 -1.1486 -6.37739 0
M  V30 10005 N 974.068 1.57479 -0.061844 0
M  V30 10006 C 975.293 1.97843 0.622311 0
M  V30 10007 C 975.718 0.939602 1.62951 0
M  V30 10008 O 975.076 -0.095958 1.81046 0
M  V30 10009 C 975.124 3.37262 1.2762 0
M  V30 10010 O 974.228 3.35943 2.39199 0
M  V30 10011 H 973.569 0.644212 0.160896 0
M  V30 10012 H 976.099 2.04165 -0.133409 0
M  V30 10013 H 976.109 3.74226 1.62539 0
M  V30 10014 H 974.784 4.12404 0.538112 0
M  V30 10015 H 973.361 3.10737 2.06148 0
M  V30 10016 N 975.546 -0.211634 1.56173 0
M  V30 10017 C 976.456 -1.2831 1.96402 0
M  V30 10018 C 977.472 -1.50731 0.869254 0
M  V30 10019 O 978.648 -1.63669 1.17365 0
M  V30 10020 C 975.713 -2.61084 2.28114 0
M  V30 10021 C 974.774 -2.46879 3.51211 0
M  V30 10022 C 974.007 -3.73321 3.81401 0
M  V30 10023 O 974.23 -4.76773 3.13119 0
M  V30 10024 O 973.164 -3.69839 4.74871 0
M  V30 10025 H 976.99 -0.971733 2.87734 0
M  V30 10026 H 974.575 -0.415305 1.43512 0
M  V30 10027 H 976.457 -3.39481 2.49661 0
M  V30 10028 H 975.132 -2.91881 1.39954 0
M  V30 10029 H 974.039 -1.66648 3.34932 0
M  V30 10030 H 975.372 -2.21018 4.39786 0
M  V30 10031 N 977.024 -1.50153 -0.478725 0
M  V30 10032 C 977.954 -1.71384 -1.58587 0
M  V30 10033 C 978.935 -0.562705 -1.60523 0
M  V30 10034 O 980.12 -0.80101 -1.76911 0
M  V30 10035 C 977.25 -1.80094 -2.96957 0
M  V30 10036 C 976.204 -2.95218 -3.09888 0
M  V30 10037 C 975.53 -2.89063 -4.49829 0
M  V30 10038 C 976.83 -4.35841 -2.8782 0
M  V30 10039 H 978.524 -2.64081 -1.41073 0
M  V30 10040 H 976.07 -1.27081 -0.677239 0
M  V30 10041 H 978.023 -1.93531 -3.74331 0
M  V30 10042 H 976.747 -0.840131 -3.1561 0
M  V30 10043 H 975.406 -2.81419 -2.34944 0
M  V30 10044 H 975.054 -1.90844 -4.6539 0
M  V30 10045 H 974.754 -3.66345 -4.59418 0
M  V30 10046 H 976.278 -3.04539 -5.29234 0
M  V30 10047 H 977.692 -4.50205 -3.54948 0
M  V30 10048 H 976.089 -5.14515 -3.0886 0
M  V30 10049 H 977.159 -4.48739 -1.83742 0
M  V30 10050 N 978.502 0.731368 -1.39602 0
M  V30 10051 C 979.727 1.52567 -1.40492 0
M  V30 10052 C 980.152 1.881 -0.00228828 0
M  V30 10053 O 979.51 1.52167 0.985643 0
M  V30 10054 C 979.558 2.78749 -2.2876 0
M  V30 10055 O 978.662 3.7482 -1.71999 0
M  V30 10056 H 978.003 0.460601 -0.478271 0
M  V30 10057 H 980.533 0.902042 -1.83642 0
M  V30 10058 H 980.543 3.27446 -2.43399 0
M  V30 10059 H 979.218 2.5222 -3.30693 0
M  V30 10060 H 977.795 3.33604 -1.66622 0
M  V30 10061 N 979.98 1.24838 0.961938 0
M  V30 10062 C 981.391 1.08369 1.5203 0
M  V30 10063 C 981.742 -0.343005 1.93178 0
M  V30 10064 O 980.867 -1.2321 1.779 0
M  V30 10065 C 981.462 1.96102 2.76278 0
M  V30 10066 C 980.021 1.8384 3.28451 0
M  V30 10067 C 979.168 1.9069 2.01327 0
M  V30 10068 H 982.119 1.38231 0.779613 0
M  V30 10069 H 982.14 1.4967 3.49827 0
M  V30 10070 H 981.652 2.99931 2.46298 0
M  V30 10071 H 979.753 0.828653 3.63269 0
M  V30 10072 H 979.866 2.68251 3.96961 0
M  V30 10073 H 978.23 1.34488 2.16299 0
M  V30 10074 H 979.013 2.96111 1.73705 0
M  V30 10075 N 981.458 -1.16348 1.06306 0
M  V30 10076 C 982.388 -2.2291 0.695234 0
M  V30 10077 C 983.369 -1.67208 -0.312343 0
M  V30 10078 O 984.554 -1.93293 -0.187442 0
M  V30 10079 C 981.684 -3.47205 0.0810149 0
M  V30 10080 C 980.638 -4.15801 1.01458 0
M  V30 10081 C 979.964 -5.3405 0.263656 0
M  V30 10082 C 981.264 -4.66766 2.34365 0
M  V30 10083 H 982.958 -2.53934 1.58613 0
M  V30 10084 H 980.504 -1.22056 0.76409 0
M  V30 10085 H 982.457 -4.2098 -0.18818 0
M  V30 10086 H 981.181 -3.15482 -0.844897 0
M  V30 10087 H 979.84 -3.43954 1.26852 0
M  V30 10088 H 979.488 -4.9858 -0.665378 0
M  V30 10089 H 979.188 -5.80885 0.88582 0
M  V30 10090 H 980.712 -6.106 0.00200994 0
M  V30 10091 H 982.126 -5.3212 2.13356 0
M  V30 10092 H 980.523 -5.24223 2.9208 0
M  V30 10093 H 981.593 -3.82969 2.97426 0
M  V30 10094 N 982.937 -0.845659 -1.3299 0
M  V30 10095 C 983.867 -0.298957 -2.31578 0
M  V30 10096 C 984.848 0.597012 -1.59279 0
M  V30 10097 O 986.033 0.519142 -1.87132 0
M  V30 10098 C 983.163 0.521109 -3.43368 0
M  V30 10099 C 982.117 -0.279651 -4.27085 0
M  V30 10100 C 981.443 0.664591 -5.30554 0
M  V30 10101 C 982.743 -1.50046 -5.00283 0
M  V30 10102 H 984.437 -1.12272 -2.77552 0
M  V30 10103 H 981.983 -0.54132 -1.33438 0
M  V30 10104 H 983.936 0.913921 -4.1137 0
M  V30 10105 H 982.66 1.37815 -2.96099 0
M  V30 10106 H 981.319 -0.654106 -3.60717 0
M  V30 10107 H 980.967 1.51822 -4.79541 0
M  V30 10108 H 980.667 0.132871 -5.8745 0
M  V30 10109 H 982.191 1.05477 -6.01421 0
M  V30 10110 H 983.605 -1.18044 -5.61016 0
M  V30 10111 H 982.002 -1.96946 -5.66862 0
M  V30 10112 H 983.072 -2.26659 -4.28665 0
M  V30 10113 N 984.415 1.45619 -0.602734 0
M  V30 10114 C 985.345 2.33258 0.106342 0
M  V30 10115 C 986.326 1.46543 0.863664 0
M  V30 10116 O 987.511 1.75324 0.835175 0
M  V30 10117 C 984.641 3.29168 1.10751 0
M  V30 10118 C 983.595 4.25481 0.463717 0
M  V30 10119 C 982.921 5.11046 1.57278 0
M  V30 10120 C 984.221 5.18702 -0.61199 0
M  V30 10121 H 985.915 2.92795 -0.625423 0
M  V30 10122 H 983.461 1.40793 -0.302213 0
M  V30 10123 H 985.414 3.89346 1.61208 0
M  V30 10124 H 984.138 2.6778 1.8698 0
M  V30 10125 H 982.797 3.66595 -0.0199496 0
M  V30 10126 H 982.445 4.46029 2.32524 0
M  V30 10127 H 982.145 5.76286 1.14755 0
M  V30 10128 H 983.669 5.74091 2.07972 0
M  V30 10129 H 985.083 5.72979 -0.191686 0
M  V30 10130 H 983.48 5.92393 -0.958686 0
M  V30 10131 H 984.55 4.61424 -1.4905 0
M  V30 10132 N 985.893 0.34162 1.53853 0
M  V30 10133 C 987.121 -0.256929 2.05299 0
M  V30 10134 C 987.536 -1.44366 1.21671 0
M  V30 10135 O 986.893 -1.80758 0.251584 0
M  V30 10136 C 986.944 -0.673854 3.55164 0
M  V30 10137 O 986.665 0.465687 4.35618 0
M  V30 10138 C 988.166 -1.33332 4.22773 0
M  V30 10139 H 985.386 -0.0499445 0.669139 0
M  V30 10140 H 987.93 0.493048 1.98467 0
M  V30 10141 H 986.085 -1.37378 3.62224 0
M  V30 10142 H 986.499 0.133723 5.2433 0
M  V30 10143 H 987.973 -1.57582 5.29029 0
M  V30 10144 H 988.45 -2.28628 3.75001 0
M  V30 10145 H 989.056 -0.675489 4.19901 0
M  V30 10146 N 987.371 -1.57444 0.0701946 0
M  V30 10147 C 988.599 -1.97754 -0.608358 0
M  V30 10148 C 989.014 -0.948496 -1.63245 0
M  V30 10149 O 988.371 0.065046 -1.82384 0
M  V30 10150 C 988.422 -3.38142 -1.27836 0
M  V30 10151 O 988.143 -4.37104 -0.295255 0
M  V30 10152 C 989.644 -3.93318 -2.04489 0
M  V30 10153 H 986.864 -0.650398 -0.164997 0
M  V30 10154 H 989.408 -2.04006 0.142124 0
M  V30 10155 H 987.563 -3.32982 -1.97994 0
M  V30 10156 H 987.977 -5.18732 -0.77574 0
M  V30 10157 H 989.451 -4.93774 -2.46762 0
M  V30 10158 H 989.928 -3.29774 -2.90079 0
M  V30 10159 H 990.534 -4.01875 -1.39201 0
M  V30 10160 N 988.849 0.203349 -1.56283 0
M  V30 10161 C 990.077 0.941426 -1.84241 0
M  V30 10162 C 990.492 1.77197 -0.651658 0
M  V30 10163 O 989.849 1.78506 0.379713 0
M  V30 10164 C 989.9 1.84429 -3.10915 0
M  V30 10165 O 989.621 1.04729 -4.25398 0
M  V30 10166 C 991.122 2.69474 -3.51993 0
M  V30 10167 H 988.342 0.27507 -0.612027 0
M  V30 10168 H 990.886 0.213088 -2.03387 0
M  V30 10169 H 989.041 2.52635 -2.93691 0
M  V30 10170 H 989.455 1.66179 -4.97478 0
M  V30 10171 H 990.929 3.28495 -4.43616 0
M  V30 10172 H 991.406 3.42775 -2.74594 0
M  V30 10173 H 992.012 2.06652 -3.71719 0
M  V30 10174 N 990.327 1.50405 0.470755 0
M  V30 10175 C 991.259 1.65447 1.58619 0
M  V30 10176 C 992.272 0.535949 1.53725 0
M  V30 10177 O 993.461 0.80914 1.59107 0
M  V30 10178 C 990.561 1.62318 2.975 0
M  V30 10179 C 989.734 2.90207 3.27259 0
M  V30 10180 C 988.793 2.79717 4.45696 0
M  V30 10181 O 987.819 3.53672 4.45987 0
M  V30 10182 N 989.021 1.93296 5.47373 0
M  V30 10183 H 991.786 2.61659 1.46132 0
M  V30 10184 H 989.347 1.47873 0.659178 0
M  V30 10185 H 991.339 1.52912 3.747 0
M  V30 10186 H 989.909 0.738392 3.03754 0
M  V30 10187 H 989.129 3.13737 2.38669 0
M  V30 10188 H 990.417 3.74931 3.43953 0
M  V30 10189 H 989.815 1.32524 5.49958 0
M  V30 10190 H 988.372 1.89793 6.23556 0
M  V30 10191 N 991.805 -0.723954 1.39988 0
M  V30 10192 C 993.051 -1.48476 1.3902 0
M  V30 10193 C 993.406 -1.92397 -0.0105439 0
M  V30 10194 O 992.699 -1.64683 -0.979294 0
M  V30 10195 C 992.893 -2.73004 2.30659 0
M  V30 10196 C 992.722 -2.41261 3.79504 0
M  V30 10197 C 991.492 -2.33013 4.48367 0
M  V30 10198 C 993.69 -2.06078 4.71207 0
M  V30 10199 N 991.672 -1.93856 5.82489 0
M  V30 10200 C 993.043 -1.77455 5.94062 0
M  V30 10201 C 995.098 -1.92642 4.59123 0
M  V30 10202 C 993.801 -1.36748 7.06182 0
M  V30 10203 C 995.827 -1.53338 5.71175 0
M  V30 10204 C 995.189 -1.25607 6.93111 0
M  V30 10205 H 991.288 -0.54172 0.563971 0
M  V30 10206 H 993.872 -0.840344 1.75631 0
M  V30 10207 H 992.043 -3.35209 1.96188 0
M  V30 10208 H 993.775 -3.39286 2.20606 0
M  V30 10209 H 990.53 -2.50476 4.01944 0
M  V30 10210 H 990.954 -1.7684 6.53496 0
M  V30 10211 H 995.596 -2.12745 3.65376 0
M  V30 10212 H 993.314 -1.15386 7.9982 0
M  V30 10213 H 996.9 -1.43532 5.63817 0
M  V30 10214 H 995.78 -0.956505 7.78345 0
M  V30 10215 N 993.283 -1.25346 -0.955304 0
M  V30 10216 C 994.215 -1.0146 -2.0552 0
M  V30 10217 C 995.228 0.0202256 -1.62787 0
M  V30 10218 O 996.417 -0.218251 -1.77161 0
M  V30 10219 C 993.517 -0.511727 -3.35014 0
M  V30 10220 C 992.69 -1.61256 -4.0659 0
M  V30 10221 C 991.749 -1.11017 -5.14356 0
M  V30 10222 O 990.775 -1.80443 -5.39842 0
M  V30 10223 N 991.977 0.0489001 -5.80479 0
M  V30 10224 H 994.742 -1.96166 -2.26581 0
M  V30 10225 H 992.303 -1.16543 -1.12381 0
M  V30 10226 H 994.295 -0.160123 -4.04383 0
M  V30 10227 H 992.865 0.341377 -3.1073 0
M  V30 10228 H 992.085 -2.13577 -3.31328 0
M  V30 10229 H 993.373 -2.35213 -4.51168 0
M  V30 10230 H 992.771 0.629021 -5.62192 0
M  V30 10231 H 991.328 0.341542 -6.50905 0
M  V30 10232 N 994.761 1.15782 -1.06922 0
M  V30 10233 C 996.007 1.86741 -0.790922 0
M  V30 10234 C 996.34 1.81863 0.681149 0
M  V30 10235 O 995.615 1.23871 1.49954 0
M  V30 10236 C 995.898 3.36038 -1.29422 0
M  V30 10237 C 995.751 3.49573 -2.83052 0
M  V30 10238 C 997.07 4.30647 -0.907239 0
M  V30 10239 H 994.189 0.678064 -0.288787 0
M  V30 10240 H 996.831 1.36054 -1.32624 0
M  V30 10241 H 994.981 3.79336 -0.838843 0
M  V30 10242 H 996.653 3.1517 -3.36847 0
M  V30 10243 H 994.896 2.91275 -3.21467 0
M  V30 10244 H 995.567 4.5445 -3.13335 0
M  V30 10245 H 998.043 3.95286 -1.29956 0
M  V30 10246 H 996.919 5.33604 -1.28679 0
M  V30 10247 H 997.18 4.41703 0.187251 0
M  V30 10248 N 996.239 0.8527 1.3254 0
M  V30 10249 C 997.169 0.311234 2.31416 0
M  V30 10250 C 998.15 -0.588557 1.59593 0
M  V30 10251 O 999.335 -0.509211 1.87405 0
M  V30 10252 C 996.465 -0.502892 3.4364 0
M  V30 10253 C 995.419 0.302296 4.26931 0
M  V30 10254 C 994.745 -0.636445 5.30899 0
M  V30 10255 C 996.045 1.52697 4.99481 0
M  V30 10256 H 997.739 1.13742 2.76953 0
M  V30 10257 H 995.285 0.548389 1.33149 0
M  V30 10258 H 997.238 -0.892092 4.11849 0
M  V30 10259 H 995.962 -1.36242 2.96826 0
M  V30 10260 H 994.621 0.673226 3.60365 0
M  V30 10261 H 994.269 -1.49277 4.80339 0
M  V30 10262 H 993.969 -0.101716 5.87512 0
M  V30 10263 H 995.493 -1.02286 6.01972 0
M  V30 10264 H 996.907 1.21017 5.60382 0
M  V30 10265 H 995.304 1.9995 5.65809 0
M  V30 10266 H 996.374 2.28929 4.27457 0
M  V30 10267 N 997.718 -1.45297 0.610449 0
M  V30 10268 C 999.129 -1.85715 0.191488 0
M  V30 10269 C 999.48 -1.51036 -1.25229 0
M  V30 10270 O 998.605 -0.938422 -1.94994 0
M  V30 10271 C 999.2 -3.37082 0.340747 0
M  V30 10272 C 997.759 -3.76393 -0.0235433 0
M  V30 10273 C 996.906 -2.69237 0.663849 0
M  V30 10274 H 999.857 -1.36058 0.816948 0
M  V30 10275 H 999.878 -3.78105 -0.426233 0
M  V30 10276 H 999.39 -3.62291 1.39164 0
M  V30 10277 H 997.491 -3.56801 -1.07351 0
M  V30 10278 H 997.604 -4.77653 0.372102 0
M  V30 10279 H 995.968 -2.54499 0.101204 0
M  V30 10280 H 996.751 -2.97281 1.71694 0
M  V30 10281 N 999.196 -0.349774 -1.5367 0
M  V30 10282 C 1000.44 0.245095 -2.02925 0
M  V30 10283 C 1000.8 1.4727 -1.23189 0
M  V30 10284 O 1002 2.14215 -1.62374 0
M  V30 10285 C 1000.27 0.545392 -3.53214 0
M  V30 10286 S 1001.83 1.11619 -4.24366 0
M  V30 10287 H 998.649 0.0725368 -0.70729 0
M  V30 10288 H 1001.25 -0.488979 -1.89286 0
M  V30 10289 H 999.955 -0.355786 -4.08855 0
M  V30 10290 H 999.486 1.30897 -3.70985 0
M  V30 10291 H 1001.5 2.40151 -4.34214 0
M  V30 10292 N 1000.67 1.57404 -0.0785433 0
M  V30 10293 C 1001.9 1.98492 0.601292 0
M  V30 10294 C 1002.32 0.956832 1.61945 0
M  V30 10295 O 1001.68 -0.0767502 1.81137 0
M  V30 10296 C 1001.73 3.38596 1.24036 0
M  V30 10297 O 1000.83 3.38461 2.35622 0
M  V30 10298 H 1000.17 0.645882 0.154054 0
M  V30 10299 H 1002.7 2.04012 -0.155056 0
M  V30 10300 H 1002.71 3.75929 1.5856 0
M  V30 10301 H 1001.39 4.12952 0.494341 0
M  V30 10302 H 999.967 3.12906 2.02841 0
M  V30 10303 N 1002.15 -0.195058 1.56388 0
M  V30 10304 C 1003.4 -0.915444 1.80626 0
M  V30 10305 C 1003.73 -1.83255 0.651768 0
M  V30 10306 O 1002.98 -1.92314 -0.362464 0
M  V30 10307 C 1003.28 -1.7637 3.10851 0
M  V30 10308 C 1002.95 -0.997572 4.39726 0
M  V30 10309 C 1001.61 -0.786043 4.74737 0
M  V30 10310 C 1003.96 -0.45851 5.19179 0
M  V30 10311 C 1001.29 -0.023972 5.86695 0
M  V30 10312 C 1003.64 0.29035 6.31933 0
M  V30 10313 C 1002.3 0.512895 6.65527 0
M  V30 10314 H 1001.57 -0.334985 0.660959 0
M  V30 10315 H 1004.22 -0.181815 1.90635 0
M  V30 10316 H 1002.53 -2.566 2.9608 0
M  V30 10317 H 1004.22 -2.3237 3.26811 0
M  V30 10318 H 1000.81 -1.17245 4.12252 0
M  V30 10319 H 1005 -0.609334 4.92545 0
M  V30 10320 H 1000.25 0.158421 6.11195 0
M  V30 10321 H 1004.43 0.715429 6.92715 0
M  V30 10322 H 1002.05 1.10531 7.52122 0
M  V30 10323 N 1003.63 -1.50653 -0.462772 0
M  V30 10324 C 1004.86 -1.65826 -1.23731 0
M  V30 10325 C 1005.27 -0.345002 -1.85621 0
M  V30 10326 O 1004.63 0.673935 -1.69601 0
M  V30 10327 C 1004.68 -2.7555 -2.33997 0
M  V30 10328 O 1004.4 -4.01785 -1.74643 0
M  V30 10329 C 1005.9 -3.0177 -3.2473 0
M  V30 10330 H 1003.12 -0.557177 -0.373892 0
M  V30 10331 H 1005.67 -1.96925 -0.551434 0
M  V30 10332 H 1003.82 -2.47122 -2.98345 0
M  V30 10333 H 1004.24 -4.62529 -2.4732 0
M  V30 10334 H 1005.71 -3.82188 -3.98292 0
M  V30 10335 H 1006.19 -2.13167 -3.84001 0
M  V30 10336 H 1006.79 -3.31761 -2.66111 0
M  V30 10337 N 1005.11 0.71652 -1.4037 0
M  V30 10338 C 1006.34 1.50563 -1.4191 0
M  V30 10339 C 1006.75 1.88791 -0.0185456 0
M  V30 10340 O 1006.11 1.55378 0.957289 0
M  V30 10341 C 1006.16 2.78155 -2.30894 0
M  V30 10342 O 1005.88 2.41543 -3.65497 0
M  V30 10343 C 1007.38 3.72057 -2.41016 0
M  V30 10344 H 1004.6 0.464679 -0.48406 0
M  V30 10345 H 1007.15 0.883927 -1.8441 0
M  V30 10346 H 1005.3 3.36611 -1.91759 0
M  V30 10347 H 1005.71 3.23636 -4.12747 0
M  V30 10348 H 1007.19 4.58426 -3.07489 0
M  V30 10349 H 1007.67 4.15098 -1.43492 0
M  V30 10350 H 1008.27 3.19512 -2.80699 0
M  V30 10351 N 1006.59 1.25851 0.948643 0
M  V30 10352 C 1007.52 1.09248 2.06367 0
M  V30 10353 C 1008.5 -0.000205168 1.701 0
M  V30 10354 O 1009.68 0.170442 1.93451 0
M  V30 10355 C 1006.81 0.716777 3.39823 0
M  V30 10356 C 1005.77 1.76036 3.90122 0
M  V30 10357 C 1005.09 1.23918 5.20143 0
M  V30 10358 C 1006.39 3.16039 4.15833 0
M  V30 10359 H 1008.09 2.02518 2.20515 0
M  V30 10360 H 1005.63 0.975093 1.05962 0
M  V30 10361 H 1007.59 0.587531 4.17284 0
M  V30 10362 H 1006.31 -0.251626 3.25629 0
M  V30 10363 H 1004.97 1.87815 3.14835 0
M  V30 10364 H 1004.62 0.260836 5.02323 0
M  V30 10365 H 1004.32 1.93673 5.54765 0
M  V30 10366 H 1005.84 1.12245 6.00194 0
M  V30 10367 H 1007.25 3.0738 4.83933 0
M  V30 10368 H 1005.65 3.83317 4.61723 0
M  V30 10369 H 1006.72 3.62652 3.21887 0
M  V30 10370 N 1008.06 -1.15214 1.07534 0
M  V30 10371 C 1009.48 -1.67628 0.822045 0
M  V30 10372 C 1009.83 -1.8503 -0.652571 0
M  V30 10373 O 1008.95 -1.55497 -1.50498 0
M  V30 10374 C 1009.55 -3.04489 1.48566 0
M  V30 10375 C 1008.11 -3.53974 1.27983 0
M  V30 10376 C 1007.25 -2.29656 1.55414 0
M  V30 10377 H 1010.2 -0.994016 1.23713 0
M  V30 10378 H 1010.22 -3.69509 0.907916 0
M  V30 10379 H 1009.74 -2.91792 2.55888 0
M  V30 10380 H 1007.84 -3.71908 0.226906 0
M  V30 10381 H 1007.95 -4.35298 2.0013 0
M  V30 10382 H 1006.31 -2.35289 0.975251 0
M  V30 10383 H 1007.1 -2.19544 2.63923 0
M  V30 10384 N 1009.54 -0.859717 -1.32086 0
M  V30 10385 C 1010.51 -0.313005 -2.27053 0
M  V30 10386 C 1011.51 0.530191 -1.51808 0
M  V30 10387 O 1012.7 0.340972 -1.7083 0
M  V30 10388 C 1009.83 0.5566 -3.36325 0
M  V30 10389 H 1011.02 -1.15125 -2.76923 0
M  V30 10390 H 1008.57 -0.634463 -1.42843 0
M  V30 10391 H 1009.31 1.41645 -2.91731 0
M  V30 10392 H 1009.09 -0.0470197 -3.92072 0
M  V30 10393 H 1010.58 0.931725 -4.07073 0
M  V30 10394 N 1011.02 1.44971 -0.618145 0
M  V30 10395 C 1011.95 2.33357 0.0815955 0
M  V30 10396 C 1012.93 1.47451 0.848072 0
M  V30 10397 O 1014.12 1.762 0.816532 0
M  V30 10398 C 1011.25 3.30324 1.07253 0
M  V30 10399 C 1010.2 4.25948 0.418563 0
M  V30 10400 C 1009.53 5.12685 1.51849 0
M  V30 10401 C 1010.83 5.18024 -0.66697 0
M  V30 10402 H 1012.52 2.92115 -0.656442 0
M  V30 10403 H 1010.07 1.40465 -0.317129 0
M  V30 10404 H 1012.02 3.91033 1.57069 0
M  V30 10405 H 1010.74 2.69748 1.8413 0
M  V30 10406 H 1009.4 3.66553 -0.0588308 0
M  V30 10407 H 1009.05 4.4847 2.2778 0
M  V30 10408 H 1008.75 5.7747 1.08637 0
M  V30 10409 H 1010.27 5.76264 2.01871 0
M  V30 10410 H 1011.69 5.72744 -0.252448 0
M  V30 10411 H 1010.09 5.91343 -1.02146 0
M  V30 10412 H 1011.16 4.59817 -1.53936 0
M  V30 10413 N 1012.5 0.357919 1.53482 0
M  V30 10414 C 1013.72 -0.237769 2.06033 0
M  V30 10415 C 1014.15 -1.42292 1.23023 0
M  V30 10416 O 1013.51 -1.79604 0.247427 0
M  V30 10417 C 1013.55 -0.616806 3.55286 0
M  V30 10418 O 1012.66 -1.71503 3.75047 0
M  V30 10419 H 1012 -0.0364322 0.663 0
M  V30 10420 H 1014.53 0.516301 1.97979 0
M  V30 10421 H 1014.54 -0.88996 3.98175 0
M  V30 10422 H 1013.21 0.249825 4.15149 0
M  V30 10423 H 1011.79 -1.43803 3.44057 0
M  V30 10424 N 1013.98 -1.5736 0.0868897 0
M  V30 10425 C 1015.2 -1.98388 -0.587349 0
M  V30 10426 C 1015.62 -0.965757 -1.6223 0
M  V30 10427 O 1014.98 0.0456981 -1.82443 0
M  V30 10428 C 1015.03 -3.39479 -1.24242 0
M  V30 10429 O 1014.75 -4.37393 -0.248878 0
M  V30 10430 C 1016.25 -3.95465 -2.00305 0
M  V30 10431 H 1013.47 -0.652111 -0.15809 0
M  V30 10432 H 1016.01 -2.03843 0.163754 0
M  V30 10433 H 1014.17 -3.35063 -1.94451 0
M  V30 10434 H 1014.58 -5.19525 -0.720678 0
M  V30 10435 H 1016.06 -4.96363 -2.41511 0
M  V30 10436 H 1016.53 -3.32832 -2.86565 0
M  V30 10437 H 1017.14 -4.03328 -1.34931 0
M  V30 10438 N 1015.45 0.186762 -1.56489 0
M  V30 10439 C 1016.7 0.904063 -1.80752 0
M  V30 10440 C 1017.02 1.83443 -0.661343 0
M  V30 10441 O 1016.29 1.93272 0.319811 0
M  V30 10442 H 1014.87 0.336828 -0.66675 0
M  V30 10443 H 1017.54 0.190275 -1.93969 0
M  V30 10444 H 1016.63 1.49021 -2.74225 0
M  V30 10445 N 1016.93 1.50896 0.454776 0
M  V30 10446 C 1017.86 1.73885 1.5584 0
M  V30 10447 C 1018.84 0.588172 1.59607 0
M  V30 10448 O 1020.03 0.829054 1.75614 0
M  V30 10449 C 1017.16 1.84796 2.94054 0
M  V30 10450 C 1016.11 3.00111 3.05152 0
M  V30 10451 C 1015.44 2.96183 4.45174 0
M  V30 10452 C 1016.74 4.40365 2.80849 0
M  V30 10453 H 1018.43 2.66292 1.36854 0
M  V30 10454 H 1015.98 1.28142 0.656936 0
M  V30 10455 H 1017.93 1.99462 3.71204 0
M  V30 10456 H 1016.66 0.890235 3.14233 0
M  V30 10457 H 1015.31 2.85121 2.30438 0
M  V30 10458 H 1014.96 1.98224 4.62295 0
M  V30 10459 H 1014.66 3.73608 4.53532 0
M  V30 10460 H 1016.19 3.1292 5.24322 0
M  V30 10461 H 1017.6 4.55795 3.47741 0
M  V30 10462 H 1016 5.19363 3.00636 0
M  V30 10463 H 1017.07 4.51606 1.76579 0
M  V30 10464 N 1018.41 -0.709066 1.40748 0
M  V30 10465 C 1019.66 -1.4646 1.38681 0
M  V30 10466 C 1019.97 -1.95599 -0.0056209 0
M  V30 10467 O 1021.18 -2.71091 -0.148907 0
M  V30 10468 C 1019.63 -2.64771 2.43771 0
M  V30 10469 C 1019.24 -2.22474 3.88856 0
M  V30 10470 C 1020.99 -3.42475 2.50821 0
M  V30 10471 C 1018.89 -3.37663 4.85528 0
M  V30 10472 H 1017.82 -0.550084 0.515678 0
M  V30 10473 H 1020.47 -0.771074 1.66513 0
M  V30 10474 H 1018.86 -3.36325 2.09048 0
M  V30 10475 H 1020.03 -1.58297 4.32757 0
M  V30 10476 H 1018.35 -1.57798 3.85342 0
M  V30 10477 H 1020.94 -4.28201 3.20232 0
M  V30 10478 H 1021.29 -3.86738 1.54076 0
M  V30 10479 H 1021.82 -2.77969 2.84567 0
M  V30 10480 H 1018.56 -2.98426 5.83628 0
M  V30 10481 H 1018.08 -4.00734 4.46287 0
M  V30 10482 H 1019.76 -4.03636 5.05655 0
M  V30 10483 N 1019.89 -1.26353 -0.941956 0
M  V30 10484 C 1020.84 -1.04513 -2.02635 0
M  V30 10485 C 1021.82 0.0222314 -1.60885 0
M  V30 10486 O 1023.02 -0.194629 -1.75927 0
M  V30 10487 C 1020.14 -0.679282 -3.36512 0
M  V30 10488 C 1019.23 -1.78406 -3.8475 0
M  V30 10489 N 1019.62 -3.02136 -4.05645 0
M  V30 10490 C 1017.92 -1.66748 -4.13656 0
M  V30 10491 C 1018.62 -3.73932 -4.45589 0
M  V30 10492 N 1017.6 -3.01616 -4.52248 0
M  V30 10493 H 1021.4 -1.9843 -2.16801 0
M  V30 10494 H 1018.91 -1.16858 -1.12774 0
M  V30 10495 H 1020.91 -0.503975 -4.13843 0
M  V30 10496 H 1019.57 0.252418 -3.23717 0
M  V30 10497 H 1020.58 -3.38049 -3.92356 0
M  V30 10498 H 1017.26 -0.805627 -4.09653 0
M  V30 10499 H 1018.65 -4.80201 -4.69954 0
M  V30 10500 N 1021.37 1.14642 -1.08144 0
M  V30 10501 C 1022.3 2.21775 -0.730609 0
M  V30 10502 C 1023.28 1.67683 0.285702 0
M  V30 10503 O 1024.46 1.93567 0.156667 0
M  V30 10504 C 1021.59 3.47033 -0.136242 0
M  V30 10505 C 1020.55 4.14134 -1.0806 0
M  V30 10506 C 1019.87 5.33563 -0.348585 0
M  V30 10507 C 1021.17 4.62978 -2.41761 0
M  V30 10508 H 1022.87 2.51378 -1.62633 0
M  V30 10509 H 1020.41 1.20825 -0.783411 0
M  V30 10510 H 1022.37 4.21226 0.121182 0
M  V30 10511 H 1021.09 3.16786 0.7946 0
M  V30 10512 H 1019.75 3.41892 -1.32308 0
M  V30 10513 H 1019.4 4.99575 0.585974 0
M  V30 10514 H 1019.1 5.79402 -0.978122 0
M  V30 10515 H 1020.62 6.10519 -0.0991508 0
M  V30 10516 H 1022.04 5.28659 -2.21795 0
M  V30 10517 H 1020.43 5.1951 -3.00383 0
M  V30 10518 H 1021.5 3.78189 -3.03482 0
M  V30 10519 N 1022.85 0.866709 1.31628 0
M  V30 10520 C 1023.8 0.291712 2.26126 0
M  V30 10521 C 1024.78 -0.569375 1.50489 0
M  V30 10522 O 1025.97 -0.416786 1.72023 0
M  V30 10523 C 1023.1 -0.508624 3.39511 0
M  V30 10524 C 1022.19 0.365524 4.22522 0
M  V30 10525 N 1022.58 1.45747 4.84346 0
M  V30 10526 C 1020.88 0.157384 4.45722 0
M  V30 10527 C 1021.58 1.99625 5.46374 0
M  V30 10528 N 1020.55 1.29371 5.27981 0
M  V30 10529 H 1024.35 1.12633 2.71461 0
M  V30 10530 H 1021.87 0.714118 1.45857 0
M  V30 10531 H 1023.87 -0.937057 4.06233 0
M  V30 10532 H 1022.53 -1.34089 2.9572 0
M  V30 10533 H 1023.54 1.84039 4.84097 0
M  V30 10534 H 1020.21 -0.639193 4.12578 0
M  V30 10535 H 1021.6 2.91222 6.05508 0
M  V30 10536 N 1024.32 -1.44642 0.625825 0
M  V30 10537 C 1025.26 -2.28882 -0.120614 0
M  V30 10538 C 1026.27 -1.40985 -0.81407 0
M  V30 10539 O 1027.46 -1.65188 -0.676404 0
M  V30 10540 C 1024.56 -3.17217 -1.19274 0
M  V30 10541 C 1023.73 -4.33499 -0.582839 0
M  V30 10542 C 1022.79 -5.02908 -1.54823 0
M  V30 10543 O 1021.82 -5.59102 -1.06743 0
M  V30 10544 N 1023.02 -5.0387 -2.88262 0
M  V30 10545 H 1025.78 -2.93585 0.602318 0
M  V30 10546 H 1023.34 -1.5503 0.466604 0
M  V30 10547 H 1025.34 -3.60515 -1.83878 0
M  V30 10548 H 1023.91 -2.54301 -1.81797 0
M  V30 10549 H 1023.13 -3.93458 0.241696 0
M  V30 10550 H 1024.41 -5.08561 -0.155914 0
M  V30 10551 H 1023.81 -4.59539 -3.2991 0
M  V30 10552 H 1022.37 -5.50974 -3.4824 0
M  V30 10553 N 1025.8 -0.366053 -1.5329 0
M  V30 10554 C 1026.75 0.495319 -2.27265 0
M  V30 10555 C 1027.74 1.08298 -1.30261 0
M  V30 10556 O 1028.95 1.02613 -1.47887 0
M  V30 10557 H 1025.32 0.178454 -0.730519 0
M  V30 10558 H 1027.3 -0.150354 -2.98021 0
M  V30 10559 C 1026.04 1.62283 -3.07505 0
M  V30 10560 H 1025.37 1.17993 -3.81992 0
M  V30 10561 H 1026.81 2.20024 -3.62444 0
M  V30 10562 C 1025.27 2.56542 -2.18375 0
M  V30 10563 O 1025.8 3.59371 -1.79486 0
M  V30 10564 N 1024 2.25742 -1.82999 0
M  V30 10565 H 1023.55 1.42159 -2.14822 0
M  V30 10566 H 1023.51 2.89064 -1.2365 0
M  V30 10567 N 1027.28 1.57312 -0.0952337 0
M  V30 10568 C 1028.53 1.93533 0.568131 0
M  V30 10569 C 1028.84 0.979121 1.6933 0
M  V30 10570 O 1030.05 1.23506 2.41782 0
M  V30 10571 C 1028.5 3.43875 1.06198 0
M  V30 10572 C 1028.11 4.47988 -0.0334397 0
M  V30 10573 C 1029.86 3.89057 1.69807 0
M  V30 10574 C 1027.76 5.89483 0.475774 0
M  V30 10575 H 1026.69 0.7224 0.215995 0
M  V30 10576 H 1029.34 1.82699 -0.171257 0
M  V30 10577 H 1027.73 3.49862 1.85506 0
M  V30 10578 H 1028.9 4.53644 -0.808934 0
M  V30 10579 H 1027.21 4.12415 -0.574725 0
M  V30 10580 H 1029.81 4.92171 2.08978 0
M  V30 10581 H 1030.15 3.27713 2.5673 0
M  V30 10582 H 1030.69 3.85772 0.970815 0
M  V30 10583 H 1027.43 6.54528 -0.356837 0
M  V30 10584 H 1026.95 5.87297 1.21827 0
M  V30 10585 H 1028.63 6.40066 0.944697 0
M  V30 10586 N 1028.76 -0.17846 1.56586 0
M  V30 10587 C 1030 -0.897562 1.81856 0
M  V30 10588 C 1030.34 -1.82204 0.671955 0
M  V30 10589 O 1029.61 -1.91739 -0.326535 0
M  V30 10590 C 1029.89 -1.69942 3.17477 0
M  V30 10591 C 1029.75 -0.798545 4.42655 0
M  V30 10592 C 1031.07 -2.66861 3.49962 0
M  V30 10593 H 1028.19 -0.324863 0.661539 0
M  V30 10594 H 1030.83 -0.164106 1.8929 0
M  V30 10595 H 1028.98 -2.32471 3.11271 0
M  V30 10596 H 1030.65 -0.18668 4.60922 0
M  V30 10597 H 1028.89 -0.106181 4.3367 0
M  V30 10598 H 1029.56 -1.39496 5.34083 0
M  V30 10599 H 1032.04 -2.1446 3.56576 0
M  V30 10600 H 1030.92 -3.20037 4.45946 0
M  V30 10601 H 1031.18 -3.46715 2.74301 0
M  V30 10602 N 1030.24 -1.51135 -0.446768 0
M  V30 10603 C 1031.51 -1.5387 -1.20762 0
M  V30 10604 C 1031.89 -0.297446 -2.08994 0
M  V30 10605 O 1031.24 0.717975 -2.16927 0
M  V30 10606 C 1031.45 -2.84767 -2.01764 0
M  V30 10607 C 1032.8 -3.3636 -2.59128 0
M  V30 10608 O 1033.82 -2.86254 -2.11984 0
M  V30 10609 O 1032.68 -4.23765 -3.45088 0
M  V30 10610 H 1029.78 -0.618228 -0.549293 0
M  V30 10611 H 1032.32 -1.63442 -0.456605 0
M  V30 10612 H 1031.09 -3.6657 -1.36901 0
M  V30 10613 H 1030.72 -2.78313 -2.8395 0
M  V30 10614 N 1031.71 0.701592 -1.41122 0
M  V30 10615 C 1032.96 1.46376 -1.40363 0
M  V30 10616 C 1033.29 1.94197 -0.0105442 0
M  V30 10617 O 1032.57 1.69121 0.960637 0
M  V30 10618 C 1032.85 2.67994 -2.40523 0
M  V30 10619 C 1032.7 2.25977 -3.88914 0
M  V30 10620 C 1034.02 3.70181 -2.38022 0
M  V30 10621 H 1031.14 0.530929 -0.511159 0
M  V30 10622 H 1033.78 0.799588 -1.72356 0
M  V30 10623 H 1031.93 3.24661 -2.13372 0
M  V30 10624 H 1033.61 1.74684 -4.26946 0
M  V30 10625 H 1031.85 1.57826 -4.04071 0
M  V30 10626 H 1032.52 3.13215 -4.54533 0
M  V30 10627 H 1035 3.23174 -2.62103 0
M  V30 10628 H 1033.87 4.52894 -3.10127 0
M  V30 10629 H 1034.13 4.19458 -1.3967 0
M  V30 10630 N 1033.19 1.2685 0.935242 0
M  V30 10631 C 1034.12 1.04717 2.0388 0
M  V30 10632 C 1035.14 0.00567507 1.62799 0
M  V30 10633 O 1036.33 0.246408 1.76791 0
M  V30 10634 C 1033.43 0.56496 3.34158 0
M  V30 10635 C 1032.6 1.67704 4.03973 0
M  V30 10636 C 1031.66 1.19186 5.12524 0
M  V30 10637 O 1030.68 1.89008 5.36903 0
M  V30 10638 N 1031.89 0.0434554 5.80484 0
M  V30 10639 H 1034.65 1.99746 2.23431 0
M  V30 10640 H 1032.21 1.18316 1.10512 0
M  V30 10641 H 1034.2 0.224436 4.04077 0
M  V30 10642 H 1032.77 -0.291899 3.11234 0
M  V30 10643 H 1031.99 2.18821 3.27889 0
M  V30 10644 H 1033.28 2.42361 4.47368 0
M  V30 10645 H 1032.68 -0.539502 5.63122 0
M  V30 10646 H 1031.24 -0.237946 6.51366 0
M  V30 10647 N 1034.67 -1.14067 1.0875 0
M  V30 10648 C 1035.9 -1.88767 0.839682 0
M  V30 10649 C 1036.31 -1.79024 -0.612119 0
M  V30 10650 O 1035.65 -1.14986 -1.43262 0
M  V30 10651 C 1035.71 -3.39333 1.18716 0
M  V30 10652 C 1035.38 -3.72858 2.64245 0
M  V30 10653 C 1036.37 -3.72683 3.62496 0
M  V30 10654 C 1034.06 -4.0273 3.0019 0
M  V30 10655 C 1036.05 -4.01909 4.9472 0
M  V30 10656 C 1033.74 -4.31618 4.32607 0
M  V30 10657 C 1034.74 -4.31192 5.29682 0
M  V30 10658 O 1034.43 -4.59377 6.59718 0
M  V30 10659 H 1034.16 -0.604665 0.302253 0
M  V30 10660 H 1036.71 -1.45364 1.45115 0
M  V30 10661 H 1034.94 -3.83205 0.518707 0
M  V30 10662 H 1036.63 -3.95346 0.919599 0
M  V30 10663 H 1037.4 -3.49688 3.3607 0
M  V30 10664 H 1033.28 -4.02213 2.25268 0
M  V30 10665 H 1036.82 -4.01491 5.70483 0
M  V30 10666 H 1032.72 -4.54083 4.58779 0
M  V30 10667 H 1033.49 -4.77078 6.65086 0
M  V30 10668 N 1036.15 -0.873678 -1.31166 0
M  V30 10669 C 1037.08 -0.348011 -2.30892 0
M  V30 10670 C 1038.06 0.563092 -1.60509 0
M  V30 10671 O 1039.24 0.479332 -1.88192 0
M  V30 10672 C 1036.37 0.448158 -3.44396 0
M  V30 10673 C 1035.33 -0.370179 -4.26396 0
M  V30 10674 C 1034.65 0.551903 -5.31844 0
M  V30 10675 C 1035.95 -1.60624 -4.96988 0
M  V30 10676 H 1037.65 -1.18134 -2.75109 0
M  V30 10677 H 1035.19 -0.569502 -1.3226 0
M  V30 10678 H 1037.15 0.826458 -4.13216 0
M  V30 10679 H 1035.87 1.31503 -2.98956 0
M  V30 10680 H 1034.53 -0.730472 -3.59249 0
M  V30 10681 H 1034.18 1.41616 -4.82653 0
M  V30 10682 H 1033.88 0.00823478 -5.87599 0
M  V30 10683 H 1035.4 0.926965 -6.03523 0
M  V30 10684 H 1036.82 -1.29917 -5.58386 0
M  V30 10685 H 1035.21 -2.08926 -5.62557 0
M  V30 10686 H 1036.28 -2.357 -4.23761 0
M  V30 10687 N 1037.63 1.44308 -0.633487 0
M  V30 10688 C 1038.86 2.06085 -0.145852 0
M  V30 10689 C 1039.26 1.47432 1.18577 0
M  V30 10690 O 1038.61 0.592575 1.7388 0
M  V30 10691 C 1038.67 3.59477 0.0407848 0
M  V30 10692 C 1038.33 4.40607 -1.21304 0
M  V30 10693 C 1039.33 4.73937 -2.13728 0
M  V30 10694 C 1037.02 4.80943 -1.44911 0
M  V30 10695 C 1039.01 5.46489 -3.28068 0
M  V30 10696 C 1036.7 5.53243 -2.59548 0
M  V30 10697 C 1037.69 5.85936 -3.50953 0
M  V30 10698 O 1037.38 6.56764 -4.6359 0
M  V30 10699 H 1037.11 0.671484 -0.0780085 0
M  V30 10700 H 1039.67 1.86128 -0.868658 0
M  V30 10701 H 1037.9 3.77933 0.818761 0
M  V30 10702 H 1039.59 4.03013 0.483273 0
M  V30 10703 H 1040.35 4.43311 -1.96725 0
M  V30 10704 H 1036.23 4.54915 -0.746537 0
M  V30 10705 H 1039.78 5.71924 -3.99435 0
M  V30 10706 H 1035.67 5.83285 -2.76493 0
M  V30 10707 H 1036.44 6.75234 -4.62602 0
M  V30 10708 N 1039.1 0.374177 1.53094 0
M  V30 10709 C 1040.35 -0.212396 2.00981 0
M  V30 10710 C 1040.67 -1.48576 1.26293 0
M  V30 10711 O 1039.94 -1.92206 0.378642 0
M  V30 10712 H 1038.52 -0.0814763 0.742543 0
M  V30 10713 H 1041.19 0.502389 1.88314 0
M  V30 10714 H 1040.28 -0.433316 3.09077 0
M  V30 10715 N 1040.58 -1.57259 0.103575 0
M  V30 10716 C 1041.83 -1.94945 -0.558953 0
M  V30 10717 C 1042.16 -0.986038 -1.67305 0
M  V30 10718 O 1041.44 -0.0205464 -1.94489 0
M  V30 10719 C 1041.72 -3.42689 -1.10617 0
M  V30 10720 C 1041.57 -4.498 0.00345246 0
M  V30 10721 C 1042.89 -3.91933 -2.00191 0
M  V30 10722 H 1040.01 -0.708859 -0.201713 0
M  V30 10723 H 1042.65 -1.89183 0.176006 0
M  V30 10724 H 1040.8 -3.4773 -1.73251 0
M  V30 10725 H 1042.47 -4.56866 0.638082 0
M  V30 10726 H 1040.72 -4.28615 0.668705 0
M  V30 10727 H 1041.39 -5.50397 -0.420396 0
M  V30 10728 H 1043.86 -3.89098 -1.4745 0
M  V30 10729 H 1042.74 -4.9586 -2.35402 0
M  V30 10730 H 1043 -3.31722 -2.92255 0
M  V30 10731 N 1042.06 0.170153 -1.56679 0
M  V30 10732 C 1043.31 0.884841 -1.817 0
M  V30 10733 C 1043.63 1.82731 -0.680763 0
M  V30 10734 O 1042.9 1.936 0.299294 0
M  V30 10735 H 1041.48 0.329738 -0.670285 0
M  V30 10736 H 1044.14 0.169691 -1.9416 0
M  V30 10737 H 1043.24 1.46104 -2.7579 0
M  V30 10738 N 1043.54 1.5137 0.438746 0
M  V30 10739 C 1044.76 1.68058 1.21537 0
M  V30 10740 C 1045.19 0.376787 1.84288 0
M  V30 10741 O 1044.55 -0.662911 1.68746 0
M  V30 10742 C 1044.59 2.79684 2.27616 0
M  V30 10743 O 1043.7 2.43189 3.33066 0
M  V30 10744 H 1043.04 0.560408 0.356144 0
M  V30 10745 H 1045.57 1.97926 0.518311 0
M  V30 10746 H 1045.58 3.03726 2.72423 0
M  V30 10747 H 1044.25 3.74293 1.81321 0
M  V30 10748 H 1042.83 2.29713 2.93746 0
M  V30 10749 N 1045.02 -0.694098 1.41492 0
M  V30 10750 C 1046.24 -1.48789 1.44488 0
M  V30 10751 C 1046.67 -1.88028 0.0521588 0
M  V30 10752 O 1046.02 -1.54727 -0.944952 0
M  V30 10753 C 1046.07 -2.72586 2.3607 0
M  V30 10754 O 1045.18 -3.70128 1.81876 0
M  V30 10755 H 1044.52 -0.447758 0.490315 0
M  V30 10756 H 1047.05 -0.853036 1.85969 0
M  V30 10757 H 1047.06 -3.20877 2.51995 0
M  V30 10758 H 1045.73 -2.43363 3.37264 0
M  V30 10759 H 1044.31 -3.29069 1.75408 0
M  V30 10760 N 1046.49 -1.27344 -0.928501 0
M  V30 10761 C 1047.74 -1.13019 -1.67061 0
M  V30 10762 C 1048.06 0.323614 -1.92904 0
M  V30 10763 O 1049.26 0.587752 -2.65062 0
M  V30 10764 C 1047.72 -1.97471 -3.00887 0
M  V30 10765 C 1047.33 -3.47504 -2.82746 0
M  V30 10766 C 1049.07 -1.91792 -3.78703 0
M  V30 10767 C 1046.98 -4.24158 -4.12122 0
M  V30 10768 H 1045.91 -0.419364 -0.626618 0
M  V30 10769 H 1048.56 -1.51759 -1.03158 0
M  V30 10770 H 1046.94 -1.51576 -3.65843 0
M  V30 10771 H 1048.11 -4.01256 -2.26562 0
M  V30 10772 H 1046.43 -3.54554 -2.18359 0
M  V30 10773 H 1049.03 -2.46339 -4.74575 0
M  V30 10774 H 1049.37 -0.891375 -4.06645 0
M  V30 10775 H 1049.9 -2.35578 -3.20543 0
M  V30 10776 H 1046.64 -5.27333 -3.89359 0
M  V30 10777 H 1046.16 -3.75183 -4.67972 0
M  V30 10778 H 1047.84 -4.33288 -4.80489 0
M  V30 10779 N 1047.97 1.13488 -1.09353 0
M  V30 10780 C 1048.94 2.17066 -0.735863 0
M  V30 10781 C 1049.94 1.59086 0.234181 0
M  V30 10782 O 1051.13 1.74196 0.012463 0
M  V30 10783 C 1048.26 3.40786 -0.0880975 0
M  V30 10784 H 1049.45 2.50221 -1.65316 0
M  V30 10785 H 1047 1.28304 -0.89263 0
M  V30 10786 H 1047.74 3.1322 0.840462 0
M  V30 10787 H 1047.52 3.8414 -0.786073 0
M  V30 10788 H 1049.01 4.17342 0.146775 0
M  V30 10789 N 1049.45 0.880621 1.30701 0
M  V30 10790 C 1050.68 0.510909 2.01009 0
M  V30 10791 C 1051.1 -0.892041 1.65603 0
M  V30 10792 O 1050.46 -1.59045 0.870309 0
M  V30 10793 C 1050.51 0.687759 3.53981 0
M  V30 10794 O 1049.61 -0.268275 4.11526 0
M  V30 10795 H 1048.95 0.201864 0.632572 0
M  V30 10796 H 1051.48 1.18697 1.6665 0
M  V30 10797 H 1051.49 0.585095 4.03783 0
M  V30 10798 H 1050.17 1.71068 3.79089 0
M  V30 10799 H 1048.74 -0.119673 3.72708 0
M  V30 10800 N 1050.93 -1.4397 0.641131 0
M  V30 10801 C 1052.18 -2.02782 0.158406 0
M  V30 10802 C 1052.53 -1.496 -1.20986 0
M  V30 10803 O 1051.82 -0.674517 -1.79334 0
M  V30 10804 C 1052.02 -3.5727 0.0963368 0
M  V30 10805 C 1051.85 -4.25441 1.45704 0
M  V30 10806 C 1050.62 -4.62008 2.04637 0
M  V30 10807 C 1052.81 -4.55238 2.39297 0
M  V30 10808 N 1050.8 -5.15194 3.33839 0
M  V30 10809 C 1052.17 -5.09613 3.53121 0
M  V30 10810 C 1054.22 -4.37197 2.38251 0
M  V30 10811 C 1052.93 -5.47847 4.66108 0
M  V30 10812 C 1054.95 -4.76485 3.50309 0
M  V30 10813 C 1054.31 -5.30982 4.62858 0
M  V30 10814 H 1050.41 -0.775304 0.102117 0
M  V30 10815 H 1053 -1.75321 0.846805 0
M  V30 10816 H 1051.17 -3.84322 -0.561369 0
M  V30 10817 H 1052.9 -4.02757 -0.39614 0
M  V30 10818 H 1049.65 -4.46653 1.57474 0
M  V30 10819 H 1050.08 -5.46253 3.99921 0
M  V30 10820 H 1054.72 -3.94347 1.5248 0
M  V30 10821 H 1052.44 -5.89646 5.52579 0
M  V30 10822 H 1056.02 -4.6423 3.50687 0
M  V30 10823 H 1054.9 -5.6082 5.48133 0
M  V30 10824 N 1052.41 -0.382291 -1.52893 0
M  V30 10825 C 1053.37 0.44408 -2.24857 0
M  V30 10826 C 1054.37 0.996004 -1.26239 0
M  V30 10827 O 1055.56 0.879114 -1.5039 0
M  V30 10828 C 1052.69 1.62234 -2.99822 0
M  V30 10829 H 1053.89 -0.185862 -2.99324 0
M  V30 10830 H 1051.44 -0.134275 -1.55722 0
M  V30 10831 H 1052.17 2.28991 -2.29638 0
M  V30 10832 H 1051.96 1.23336 -3.72197 0
M  V30 10833 H 1053.45 2.20756 -3.54481 0
M  V30 10834 N 1053.89 1.57202 -0.111913 0
M  V30 10835 C 1055.13 1.94125 0.547573 0
M  V30 10836 C 1055.45 0.997026 1.68282 0
M  V30 10837 O 1056.65 1.26063 2.40459 0
M  V30 10838 C 1055.11 3.44982 1.02545 0
M  V30 10839 C 1054.72 4.47927 -0.0809529 0
M  V30 10840 C 1056.46 3.90837 1.65671 0
M  V30 10841 C 1054.37 5.89955 0.413224 0
M  V30 10842 H 1053.3 0.724651 0.208321 0
M  V30 10843 H 1055.95 1.82507 -0.190625 0
M  V30 10844 H 1054.33 3.5181 1.81785 0
M  V30 10845 H 1055.51 4.52761 -0.857003 0
M  V30 10846 H 1053.82 4.11782 -0.618434 0
M  V30 10847 H 1056.42 4.9436 2.03746 0
M  V30 10848 H 1056.76 3.30417 2.53239 0
M  V30 10849 H 1057.29 3.8678 0.929844 0
M  V30 10850 H 1054.03 6.54113 -0.426238 0
M  V30 10851 H 1053.55 5.88557 1.15591 0
M  V30 10852 H 1055.23 6.41032 0.876756 0
M  V30 10853 N 1055.36 -0.161842 1.56767 0
M  V30 10854 C 1056.31 -1.2002 1.97139 0
M  V30 10855 C 1057.28 -1.43486 0.836713 0
M  V30 10856 O 1058.47 -1.56069 1.0976 0
M  V30 10857 C 1055.61 -2.53228 2.34456 0
M  V30 10858 C 1054.72 -2.37062 3.61145 0
M  V30 10859 C 1053.85 -3.63202 3.87631 0
M  V30 10860 C 1052.89 -3.42008 5.07638 0
M  V30 10861 N 1052.03 -4.60242 5.30209 0
M  V30 10862 H 1056.87 -0.848918 2.85653 0
M  V30 10863 H 1054.41 -0.407753 1.41336 0
M  V30 10864 H 1056.36 -3.30879 2.54116 0
M  V30 10865 H 1054.99 -2.86333 1.4904 0
M  V30 10866 H 1054.05 -1.50539 3.49345 0
M  V30 10867 H 1055.36 -2.17353 4.48953 0
M  V30 10868 H 1054.51 -4.49285 4.0771 0
M  V30 10869 H 1053.25 -3.85899 2.98216 0
M  V30 10870 H 1052.26 -2.54312 4.87448 0
M  V30 10871 H 1053.48 -3.20724 5.98593 0
M  V30 10872 H 1051.43 -4.8314 4.43747 0
M  V30 10873 H 1051.34 -4.43481 6.12259 0
M  V30 10874 H 1052.61 -5.47581 5.54775 0
M  V30 10875 N 1056.84 -1.516 -0.430713 0
M  V30 10876 C 1058.09 -1.65801 -1.17821 0
M  V30 10877 C 1058.44 -0.372769 -1.88754 0
M  V30 10878 O 1057.74 0.631767 -1.80885 0
M  V30 10879 C 1057.93 -2.804 -2.21609 0
M  V30 10880 C 1057.76 -4.19944 -1.60863 0
M  V30 10881 C 1056.53 -4.85786 -1.39068 0
M  V30 10882 C 1058.73 -5.02806 -1.08124 0
M  V30 10883 N 1056.71 -6.09425 -0.73989 0
M  V30 10884 C 1058.08 -6.17501 -0.556114 0
M  V30 10885 C 1060.13 -4.88288 -0.973635 0
M  V30 10886 C 1058.84 -7.1927 0.0660558 0
M  V30 10887 C 1060.86 -5.9027 -0.36535 0
M  V30 10888 C 1060.23 -7.04242 0.149205 0
M  V30 10889 H 1056.32 -0.660545 -0.418574 0
M  V30 10890 H 1058.91 -1.88847 -0.473799 0
M  V30 10891 H 1057.08 -2.59006 -2.89431 0
M  V30 10892 H 1058.81 -2.83747 -2.88565 0
M  V30 10893 H 1055.57 -4.4377 -1.65425 0
M  V30 10894 H 1055.99 -6.75622 -0.431745 0
M  V30 10895 H 1060.63 -4.00421 -1.35731 0
M  V30 10896 H 1058.35 -8.06779 0.461848 0
M  V30 10897 H 1061.94 -5.81107 -0.283902 0
M  V30 10898 H 1060.82 -7.81804 0.61249 0
M  V30 10899 N 1058.32 0.686584 -1.41858 0
M  V30 10900 C 1059.23 1.83002 -1.46791 0
M  V30 10901 C 1060.25 1.70284 -0.357675 0
M  V30 10902 O 1061.42 1.92042 -0.606781 0
M  V30 10903 C 1058.49 3.19056 -1.35661 0
M  V30 10904 C 1057.55 3.43817 -2.57077 0
M  V30 10905 C 1056.78 4.7338 -2.46469 0
M  V30 10906 O 1057 5.50483 -1.49413 0
M  V30 10907 O 1055.94 4.99124 -3.36391 0
M  V30 10908 H 1059.76 1.81797 -2.43277 0
M  V30 10909 H 1057.35 0.840812 -1.23494 0
M  V30 10910 H 1059.23 4.00267 -1.31773 0
M  V30 10911 H 1057.91 3.20925 -0.422951 0
M  V30 10912 H 1056.81 2.625 -2.66541 0
M  V30 10913 H 1058.15 3.4677 -3.49302 0
M  V30 10914 N 1059.8 1.27835 0.921735 0
M  V30 10915 C 1061.03 1.17182 1.70153 0
M  V30 10916 C 1061.44 -0.273207 1.87217 0
M  V30 10917 O 1060.78 -1.19729 1.39322 0
M  V30 10918 C 1060.84 1.78969 3.11786 0
M  V30 10919 C 1060.5 3.28179 3.18037 0
M  V30 10920 C 1061.5 4.24729 2.99835 0
M  V30 10921 C 1059.19 3.68995 3.40805 0
M  V30 10922 C 1061.18 5.60071 3.04301 0
M  V30 10923 C 1058.87 5.04465 3.44904 0
M  V30 10924 C 1059.87 5.99813 3.2667 0
M  V30 10925 O 1059.55 7.32813 3.30515 0
M  V30 10926 H 1059.29 0.408079 0.538932 0
M  V30 10927 H 1061.84 1.69326 1.16266 0
M  V30 10928 H 1060.07 1.2131 3.6718 0
M  V30 10929 H 1061.76 1.62946 3.71757 0
M  V30 10930 H 1062.52 3.94533 2.8208 0
M  V30 10931 H 1058.4 2.9525 3.54045 0
M  V30 10932 H 1061.95 6.34471 2.89987 0
M  V30 10933 H 1057.84 5.34315 3.62185 0
M  V30 10934 H 1058.61 7.41338 3.4693 0
M  V30 10935 N 1061.28 -1.12907 1.09954 0
M  V30 10936 C 1062.52 -1.84579 0.840155 0
M  V30 10937 C 1062.85 -1.83605 -0.632692 0
M  V30 10938 O 1062.13 -1.27803 -1.46617 0
M  V30 10939 C 1062.41 -3.32489 1.38286 0
M  V30 10940 C 1062.27 -3.41946 2.92221 0
M  V30 10941 C 1063.58 -4.28091 1.0211 0
M  V30 10942 H 1060.7 -0.670169 0.306663 0
M  V30 10943 H 1063.35 -1.3249 1.36185 0
M  V30 10944 H 1061.5 -3.76978 0.939123 0
M  V30 10945 H 1063.17 -3.06128 3.45085 0
M  V30 10946 H 1061.41 -2.8265 3.29077 0
M  V30 10947 H 1062.08 -4.45983 3.25274 0
M  V30 10948 H 1064.56 -3.91701 1.4039 0
M  V30 10949 H 1063.43 -5.30005 1.42781 0
M  V30 10950 H 1063.69 -4.42044 -0.0700753 0
M  V30 10951 N 1062.75 -0.88754 -1.30232 0
M  V30 10952 C 1064 -0.508031 -1.96334 0
M  V30 10953 C 1064.33 0.940905 -1.69884 0
M  V30 10954 O 1063.61 1.66523 -1.005 0
M  V30 10955 C 1063.89 -0.786566 -3.51405 0
M  V30 10956 C 1063.74 -2.28632 -3.8736 0
M  V30 10957 C 1065.06 -0.264803 -4.39303 0
M  V30 10958 H 1062.18 -0.186051 -0.71313 0
M  V30 10959 H 1064.82 -1.112 -1.5406 0
M  V30 10960 H 1062.97 -0.272523 -3.87543 0
M  V30 10961 H 1064.65 -2.86896 -3.61231 0
M  V30 10962 H 1062.89 -2.75194 -3.35337 0
M  V30 10963 H 1063.56 -2.43181 -4.95547 0
M  V30 10964 H 1066.04 -0.704809 -4.10087 0
M  V30 10965 H 1064.91 -0.488998 -5.46717 0
M  V30 10966 H 1065.17 0.834055 -4.34161 0
M  V30 10967 N 1064.23 1.43628 -0.648757 0
M  V30 10968 C 1065.16 2.33478 0.0320785 0
M  V30 10969 C 1066.14 1.49217 0.816605 0
M  V30 10970 O 1067.33 1.77892 0.778974 0
M  V30 10971 C 1064.46 3.32525 1.00222 0
M  V30 10972 C 1063.41 4.2674 0.328119 0
M  V30 10973 C 1062.74 5.15791 1.4094 0
M  V30 10974 C 1064.04 5.16493 -0.776701 0
M  V30 10975 H 1065.73 2.90657 -0.718257 0
M  V30 10976 H 1063.28 1.3976 -0.346852 0
M  V30 10977 H 1065.23 3.94277 1.4874 0
M  V30 10978 H 1063.96 2.73593 1.78366 0
M  V30 10979 H 1062.61 3.66346 -0.136569 0
M  V30 10980 H 1062.26 4.53201 2.18216 0
M  V30 10981 H 1061.96 5.79645 0.963631 0
M  V30 10982 H 1063.49 5.80416 1.89603 0
M  V30 10983 H 1064.9 5.7208 -0.373878 0
M  V30 10984 H 1063.3 5.89043 -1.14667 0
M  V30 10985 H 1064.37 4.56448 -1.63654 0
M  V30 10986 N 1065.71 0.390394 1.52688 0
M  V30 10987 C 1066.64 -0.43567 2.294 0
M  V30 10988 C 1067.62 -1.06253 1.32832 0
M  V30 10989 O 1068.81 -1.07509 1.61726 0
M  V30 10990 C 1065.94 -1.56259 3.10162 0
M  V30 10991 C 1064.89 -1.06172 4.14622 0
M  V30 10992 C 1064.22 -2.2808 4.83615 0
M  V30 10993 C 1065.52 -0.128902 5.22141 0
M  V30 10994 H 1067.21 0.204384 2.98702 0
M  V30 10995 H 1064.76 0.0997377 1.43654 0
M  V30 10996 H 1066.71 -2.14732 3.62585 0
M  V30 10997 H 1065.43 -2.23025 2.38595 0
M  V30 10998 H 1064.09 -0.499518 3.63181 0
M  V30 10999 H 1063.74 -2.93358 4.08595 0
M  V30 11000 H 1063.44 -1.95227 5.5422 0
M  V30 11001 H 1064.96 -2.87193 5.38844 0
M  V30 11002 H 1066.38 -0.621849 5.69917 0
M  V30 11003 H 1064.78 0.109919 5.99999 0
M  V30 11004 H 1065.85 0.821884 4.77884 0
M  V30 11005 N 1067.19 -1.57141 0.120249 0
M  V30 11006 C 1068.44 -1.95238 -0.537449 0
M  V30 11007 C 1068.76 -1.00361 -1.66607 0
M  V30 11008 O 1068.02 -0.0277306 -1.9568 0
M  V30 11009 C 1068.32 -3.39745 -1.10941 0
M  V30 11010 C 1067.98 -4.50785 -0.102012 0
M  V30 11011 C 1066.65 -4.80882 0.174994 0
M  V30 11012 C 1069 -5.17913 0.584462 0
M  V30 11013 C 1066.33 -5.75424 1.14474 0
M  V30 11014 C 1068.68 -6.13497 1.54284 0
M  V30 11015 C 1067.34 -6.41987 1.82782 0
M  V30 11016 H 1066.61 -0.714425 -0.196666 0
M  V30 11017 H 1069.26 -1.90438 0.201418 0
M  V30 11018 H 1067.56 -3.41246 -1.92506 0
M  V30 11019 H 1069.26 -3.66536 -1.62642 0
M  V30 11020 H 1065.85 -4.27342 -0.328097 0
M  V30 11021 H 1070.03 -4.94815 0.383625 0
M  V30 11022 H 1065.29 -5.95801 1.37226 0
M  V30 11023 H 1069.46 -6.64598 2.08044 0
M  V30 11024 H 1067.09 -7.15052 2.5808 0
M  V30 11025 N 1068.67 0.153526 -1.5685 0
M  V30 11026 C 1069.6 1.19162 -2.00805 0
M  V30 11027 C 1070.58 1.45172 -0.886518 0
M  V30 11028 O 1071.76 1.56203 -1.15387 0
M  V30 11029 C 1068.89 2.52637 -2.38311 0
M  V30 11030 C 1067.85 2.41161 -3.53589 0
M  V30 11031 C 1067.17 3.79287 -3.76889 0
M  V30 11032 C 1068.47 1.90122 -4.86468 0
M  V30 11033 H 1070.17 0.82617 -2.87776 0
M  V30 11034 H 1067.71 0.395972 -1.38449 0
M  V30 11035 H 1069.67 3.25478 -2.6766 0
M  V30 11036 H 1068.39 2.91005 -1.4827 0
M  V30 11037 H 1067.05 1.70772 -3.24395 0
M  V30 11038 H 1066.7 4.15079 -2.84109 0
M  V30 11039 H 1066.4 3.72472 -4.54465 0
M  V30 11040 H 1067.92 4.53687 -4.08657 0
M  V30 11041 H 1069.33 2.52752 -5.14577 0
M  V30 11042 H 1067.73 1.94214 -5.67804 0
M  V30 11043 H 1068.8 0.856517 -4.77275 0
M  V30 11044 N 1070.14 1.51827 0.422667 0
M  V30 11045 C 1071.07 1.77152 1.52117 0
M  V30 11046 C 1072.06 0.621895 1.58324 0
M  V30 11047 O 1073.24 0.866118 1.73816 0
M  V30 11048 C 1070.37 1.90991 2.90068 0
M  V30 11049 C 1069.32 3.06516 2.98717 0
M  V30 11050 C 1068.65 3.05559 4.38791 0
M  V30 11051 C 1069.95 4.46223 2.71445 0
M  V30 11052 H 1071.64 2.69135 1.31175 0
M  V30 11053 H 1069.19 1.29507 0.629607 0
M  V30 11054 H 1071.14 2.07291 3.6689 0
M  V30 11055 H 1069.87 0.956688 3.12274 0
M  V30 11056 H 1068.53 2.89945 2.24338 0
M  V30 11057 H 1068.17 2.07985 4.57986 0
M  V30 11058 H 1067.87 3.83144 4.45505 0
M  V30 11059 H 1069.4 3.23971 5.17566 0
M  V30 11060 H 1070.81 4.63069 3.37994 0
M  V30 11061 H 1069.21 5.25623 2.89552 0
M  V30 11062 H 1070.28 4.5525 1.6696 0
M  V30 11063 N 1071.62 -0.679052 1.4222 0
M  V30 11064 C 1072.55 -1.80481 1.48152 0
M  V30 11065 C 1073.53 -1.66698 0.338502 0
M  V30 11066 O 1074.72 -1.86183 0.552228 0
M  V30 11067 C 1071.85 -3.18746 1.37908 0
M  V30 11068 C 1070.8 -3.47258 2.50192 0
M  V30 11069 C 1070.13 -4.85052 2.25008 0
M  V30 11070 C 1071.43 -3.44576 3.92511 0
M  V30 11071 H 1073.12 -1.75774 2.42371 0
M  V30 11072 H 1070.67 -0.844241 1.16656 0
M  V30 11073 H 1072.62 -3.97229 1.40666 0
M  V30 11074 H 1071.35 -3.24119 0.401806 0
M  V30 11075 H 1070 -2.71133 2.46744 0
M  V30 11076 H 1069.65 -4.8707 1.25584 0
M  V30 11077 H 1069.35 -5.05092 3.00259 0
M  V30 11078 H 1070.88 -5.65825 2.29508 0
M  V30 11079 H 1072.29 -4.13036 3.97585 0
M  V30 11080 H 1070.69 -3.76151 4.67579 0
M  V30 11081 H 1071.76 -2.4323 4.19484 0
M  V30 11082 N 1073.1 -1.28322 -0.914942 0
M  V30 11083 C 1074.06 -1.12169 -1.99877 0
M  V30 11084 C 1075.06 -0.0617252 -1.60681 0
M  V30 11085 O 1076.25 -0.307405 -1.71466 0
M  V30 11086 C 1073.39 -0.711959 -3.33383 0
M  V30 11087 H 1074.58 -2.08425 -2.15636 0
M  V30 11088 H 1072.13 -1.11291 -1.09745 0
M  V30 11089 H 1072.87 0.251418 -3.23324 0
M  V30 11090 H 1072.65 -1.47764 -3.63192 0
M  V30 11091 H 1074.14 -0.621558 -4.12948 0
M  V30 11092 N 1074.58 1.12322 -1.10551 0
M  V30 11093 C 1075.86 1.80201 -0.760715 0
M  V30 11094 C 1076.24 1.97228 0.752628 0
M  V30 11095 O 1075.58 1.54958 1.67929 0
M  V30 11096 C 1075.79 3.14491 -1.51316 0
M  V30 11097 C 1077.14 3.89671 -1.68647 0
M  V30 11098 O 1078.17 3.24151 -1.47664 0
M  V30 11099 O 1077.02 5.0722 -2.03445 0
M  V30 11100 H 1074.12 0.780084 -0.274587 0
M  V30 11101 H 1076.66 1.19147 -1.20839 0
M  V30 11102 H 1075.44 2.97396 -2.54306 0
M  V30 11103 H 1075.06 3.83253 -1.05842 0
M  V30 11104 N 1076.06 0.894434 1.2976 0
M  V30 11105 C 1077.02 0.373094 2.26143 0
M  V30 11106 C 1078.02 -0.489756 1.5316 0
M  V30 11107 O 1079.21 -0.29556 1.71674 0
M  V30 11108 C 1076.34 -0.467234 3.37683 0
M  V30 11109 H 1077.53 1.22427 2.73773 0
M  V30 11110 H 1075.09 0.672112 1.41111 0
M  V30 11111 H 1075.82 -1.33861 2.95384 0
M  V30 11112 H 1075.61 0.150954 3.91809 0
M  V30 11113 H 1077.1 -0.823469 4.094 0
M  V30 11114 N 1077.53 -1.43282 0.656365 0
M  V30 11115 C 1078.95 -1.56272 0.324213 0
M  V30 11116 C 1079.15 -1.63946 -1.1715 0
M  V30 11117 O 1078.21 -1.59625 -1.95643 0
M  V30 11118 C 1079.52 -2.82204 1.03833 0
M  V30 11119 C 1081.07 -2.95952 1.01889 0
M  V30 11120 C 1081.54 -4.2472 1.71397 0
M  V30 11121 N 1083.03 -4.31591 1.68176 0
M  V30 11122 C 1083.77 -5.30001 2.1883 0
M  V30 11123 N 1083.26 -6.34671 2.77785 0
M  V30 11124 N 1085.06 -5.21676 2.09311 0
M  V30 11125 H 1077.21 -1.36544 1.62694 0
M  V30 11126 H 1079.47 -0.655999 0.684375 0
M  V30 11127 H 1079.18 -2.82608 2.09346 0
M  V30 11128 H 1079.05 -3.72527 0.591878 0
M  V30 11129 H 1081.44 -2.95087 -0.0278431 0
M  V30 11130 H 1081.52 -2.0691 1.50406 0
M  V30 11131 H 1081.16 -4.26346 2.76028 0
M  V30 11132 H 1081.09 -5.12665 1.20342 0
M  V30 11133 H 1083.58 -3.56573 1.25157 0
M  V30 11134 H 1083.9 -7.06087 3.14104 0
M  V30 11135 H 1082.24 -6.35285 2.81847 0
M  V30 11136 H 1085.43 -4.3882 1.62955 0
M  V30 11137 H 1085.61 -5.9821 2.49095 0
M  V30 11138 N 1079.01 -0.398486 -1.52479 0
M  V30 11139 C 1080.26 0.181019 -2.0199 0
M  V30 11140 C 1080.59 1.45691 -1.28405 0
M  V30 11141 O 1079.87 1.90607 -0.387207 0
M  V30 11142 C 1080.15 0.439587 -3.57407 0
M  V30 11143 C 1080 -0.85223 -4.41653 0
M  V30 11144 C 1081.32 1.2263 -4.2267 0
M  V30 11145 H 1078.44 0.0643164 -0.734188 0
M  V30 11146 H 1081.08 -0.52986 -1.82462 0
M  V30 11147 H 1079.23 1.04516 -3.74177 0
M  V30 11148 H 1080.91 -1.48879 -4.36615 0
M  V30 11149 H 1079.15 -1.46555 -4.08294 0
M  V30 11150 H 1079.82 -0.625839 -5.48441 0
M  V30 11151 H 1082.3 0.713722 -4.09933 0
M  V30 11152 H 1081.17 1.37596 -5.31374 0
M  V30 11153 H 1081.43 2.24403 -3.80914 0
M  V30 11154 N 1080.49 1.57075 -0.12858 0
M  V30 11155 C 1081.73 1.97408 0.530059 0
M  V30 11156 C 1082.1 1.01087 1.63234 0
M  V30 11157 O 1083.3 1.30394 2.35055 0
M  V30 11158 C 1081.57 3.41928 1.04021 0
M  V30 11159 S 1083.13 4.04277 1.70603 0
M  V30 11160 H 1079.94 0.689884 0.17199 0
M  V30 11161 H 1082.55 1.94304 -0.215933 0
M  V30 11162 H 1081.25 4.09772 0.226928 0
M  V30 11163 H 1080.78 3.48703 1.82125 0
M  V30 11164 H 1082.8 3.95819 2.99235 0
M  V30 11165 N 1081.97 -0.145205 1.5693 0
M  V30 11166 C 1083.19 -0.876386 1.87974 0
M  V30 11167 C 1083.62 -1.73866 0.717795 0
M  V30 11168 O 1082.98 -1.78224 -0.332551 0
M  V30 11169 C 1083.03 -1.70746 3.17613 0
M  V30 11170 O 1082.13 -2.81188 3.01674 0
M  V30 11171 H 1081.47 -0.243987 0.617549 0
M  V30 11172 H 1084 -0.135482 2.04151 0
M  V30 11173 H 1084.01 -2.1021 3.49679 0
M  V30 11174 H 1082.69 -1.07429 4.01786 0
M  V30 11175 H 1081.26 -2.45117 2.81019 0
M  V30 11176 N 1083.45 -1.52049 -0.414609 0
M  V30 11177 C 1084.69 -1.67511 -1.17129 0
M  V30 11178 C 1085.05 -0.39383 -1.87917 0
M  V30 11179 O 1086.25 -0.424496 -2.65427 0
M  V30 11180 C 1084.52 -2.85982 -2.14357 0
M  V30 11181 S 1086.08 -3.21898 -2.98206 0
M  V30 11182 H 1082.9 -0.589923 -0.396877 0
M  V30 11183 H 1085.5 -1.90025 -0.459409 0
M  V30 11184 H 1084.21 -3.77488 -1.6103 0
M  V30 11185 H 1083.74 -2.65725 -2.90092 0
M  V30 11186 H 1085.75 -2.70095 -4.16249 0
M  V30 11187 N 1084.93 0.6715 -1.42579 0
M  V30 11188 C 1085.86 1.79693 -1.49107 0
M  V30 11189 C 1086.84 1.66516 -0.347338 0
M  V30 11190 O 1088.02 1.85887 -0.562094 0
M  V30 11191 C 1085.15 3.1801 -1.39596 0
M  V30 11192 C 1084.11 3.45926 -2.5203 0
M  V30 11193 C 1083.43 4.83852 -2.27577 0
M  V30 11194 C 1084.73 3.4249 -3.94333 0
M  V30 11195 H 1086.43 1.74486 -2.433 0
M  V30 11196 H 1083.97 0.838042 -1.17102 0
M  V30 11197 H 1085.92 3.96478 -1.42771 0
M  V30 11198 H 1084.65 3.23901 -0.418989 0
M  V30 11199 H 1083.31 2.6982 -2.48178 0
M  V30 11200 H 1082.96 4.86398 -1.28165 0
M  V30 11201 H 1082.66 5.03493 -3.02934 0
M  V30 11202 H 1084.18 5.646 -2.32506 0
M  V30 11203 H 1085.59 4.10922 -3.9977 0
M  V30 11204 H 1083.99 3.73666 -4.69568 0
M  V30 11205 H 1085.06 2.41002 -4.20768 0
M  V30 11206 N 1086.4 1.28806 0.908124 0
M  V30 11207 C 1087.65 1.17469 1.6605 0
M  V30 11208 C 1088 -0.272864 1.90455 0
M  V30 11209 O 1087.3 -1.19476 1.49787 0
M  V30 11210 C 1087.49 1.91267 3.01914 0
M  V30 11211 C 1087.32 3.43051 2.90769 0
M  V30 11212 C 1086.09 4.12395 2.9199 0
M  V30 11213 C 1088.29 4.38696 2.68422 0
M  V30 11214 N 1086.27 5.50604 2.71493 0
M  V30 11215 C 1087.64 5.64307 2.56823 0
M  V30 11216 C 1089.7 4.28557 2.53463 0
M  V30 11217 C 1088.4 6.80931 2.31789 0
M  V30 11218 C 1090.43 5.44923 2.2981 0
M  V30 11219 C 1089.79 6.69501 2.1897 0
M  V30 11220 H 1085.89 0.484813 0.61358 0
M  V30 11221 H 1088.47 1.62528 1.07204 0
M  V30 11222 H 1086.64 1.48634 3.58835 0
M  V30 11223 H 1088.37 1.72267 3.66205 0
M  V30 11224 H 1085.13 3.64024 3.02958 0
M  V30 11225 H 1085.55 6.23269 2.6432 0
M  V30 11226 H 1090.19 3.32944 2.60592 0
M  V30 11227 H 1087.91 7.76607 2.23399 0
M  V30 11228 H 1091.5 5.38971 2.19092 0
M  V30 11229 H 1090.38 7.58025 2.00918 0
M  V30 11230 N 1087.88 -1.11734 1.11145 0
M  V30 11231 C 1088.81 -2.16847 0.710809 0
M  V30 11232 C 1089.79 -1.59966 -0.291494 0
M  V30 11233 O 1090.98 -1.87554 -0.188645 0
M  V30 11234 C 1088.1 -3.38663 0.0499744 0
M  V30 11235 C 1087.15 -4.14199 1.01693 0
M  V30 11236 S 1087.98 -4.7154 2.53793 0
M  V30 11237 C 1089.14 -5.96682 1.89001 0
M  V30 11238 H 1089.37 -2.50497 1.60121 0
M  V30 11239 H 1086.9 -1.23311 0.929182 0
M  V30 11240 H 1088.86 -4.09212 -0.324959 0
M  V30 11241 H 1087.52 -3.03279 -0.817335 0
M  V30 11242 H 1086.72 -5.01494 0.501933 0
M  V30 11243 H 1086.32 -3.49395 1.33414 0
M  V30 11244 H 1088.61 -6.6634 1.22462 0
M  V30 11245 H 1089.55 -6.52821 2.74282 0
M  V30 11246 H 1089.96 -5.48084 1.35145 0
M  V30 11247 N 1089.36 -0.901303 -1.29284 0
M  V30 11248 C 1090.29 -0.32479 -2.25877 0
M  V30 11249 C 1091.27 0.563944 -1.52507 0
M  V30 11250 O 1092.45 0.510393 -1.81459 0
M  V30 11251 C 1089.58 0.536897 -3.34418 0
M  V30 11252 C 1088.63 -0.28474 -4.25548 0
M  V30 11253 S 1089.46 -1.68355 -5.08347 0
M  V30 11254 C 1090.62 -0.828826 -6.20388 0
M  V30 11255 H 1090.85 -1.14352 -2.74428 0
M  V30 11256 H 1088.38 -0.701749 -1.37531 0
M  V30 11257 H 1090.34 1.02827 -3.97413 0
M  V30 11258 H 1089 1.32988 -2.84558 0
M  V30 11259 H 1088.19 0.373566 -5.02614 0
M  V30 11260 H 1087.8 -0.709313 -3.67212 0
M  V30 11261 H 1090.09 -0.0529234 -6.77479 0
M  V30 11262 H 1091.03 -1.57161 -6.90439 0
M  V30 11263 H 1091.44 -0.382503 -5.63203 0
M  V30 11264 N 1090.84 1.42931 -0.663954 0
M  V30 11265 C 1091.77 2.33499 0.00731327 0
M  V30 11266 C 1092.75 1.50074 0.800733 0
M  V30 11267 O 1093.93 1.78708 0.760062 0
M  V30 11268 C 1091.06 3.33569 0.966897 0
M  V30 11269 C 1090.02 4.27064 0.282839 0
M  V30 11270 C 1089.34 5.17257 1.35461 0
M  V30 11271 C 1090.64 5.1564 -0.831438 0
M  V30 11272 H 1092.34 2.89879 -0.749044 0
M  V30 11273 H 1089.88 1.39385 -0.361656 0
M  V30 11274 H 1091.84 3.95833 1.44549 0
M  V30 11275 H 1090.56 2.75469 1.75455 0
M  V30 11276 H 1089.22 3.6618 -0.175417 0
M  V30 11277 H 1088.87 4.5549 2.13397 0
M  V30 11278 H 1088.57 5.80634 0.902098 0
M  V30 11279 H 1090.09 5.82395 1.83436 0
M  V30 11280 H 1091.51 5.71651 -0.434534 0
M  V30 11281 H 1089.9 5.87794 -1.20908 0
M  V30 11282 H 1090.97 4.54687 -1.68487 0
M  V30 11283 N 1092.32 0.406567 1.52266 0
M  V30 11284 C 1093.25 -0.411314 2.29849 0
M  V30 11285 C 1094.23 -1.04838 1.33952 0
M  V30 11286 O 1095.41 -1.05788 1.62857 0
M  V30 11287 C 1092.54 -1.52961 3.11802 0
M  V30 11288 C 1091.5 -1.01768 4.15725 0
M  V30 11289 C 1090.82 -2.22938 4.86007 0
M  V30 11290 C 1092.12 -0.073515 5.22248 0
M  V30 11291 H 1093.82 0.236054 2.98468 0
M  V30 11292 H 1091.36 0.114968 1.4354 0
M  V30 11293 H 1093.31 -2.10874 3.64843 0
M  V30 11294 H 1092.04 -2.20482 2.40947 0
M  V30 11295 H 1090.7 -0.46097 3.6369 0
M  V30 11296 H 1090.35 -2.89007 4.11684 0
M  V30 11297 H 1090.05 -1.89338 5.5626 0
M  V30 11298 H 1091.57 -2.81462 5.41859 0
M  V30 11299 H 1092.98 -0.561367 5.70545 0
M  V30 11300 H 1091.38 0.173551 5.99849 0
M  V30 11301 H 1092.45 0.872524 4.76985 0
M  V30 11302 N 1093.79 -1.57004 0.136909 0
M  V30 11303 C 1095.04 -1.94972 -0.51662 0
M  V30 11304 C 1095.36 -1.02367 -1.66674 0
M  V30 11305 O 1096.56 -1.29873 -2.38423 0
M  V30 11306 C 1095.02 -3.4657 -0.970435 0
M  V30 11307 C 1094.63 -4.47741 0.152204 0
M  V30 11308 C 1096.37 -3.93423 -1.59432 0
M  V30 11309 C 1094.28 -5.90537 -0.319315 0
M  V30 11310 H 1093.21 -0.727873 -0.196766 0
M  V30 11311 H 1095.86 -1.82181 0.219637 0
M  V30 11312 H 1094.24 -3.54657 -1.76165 0
M  V30 11313 H 1095.41 -4.5134 0.928925 0
M  V30 11314 H 1093.73 -4.10746 0.683867 0
M  V30 11315 H 1096.33 -4.97539 -1.95856 0
M  V30 11316 H 1096.67 -3.34404 -2.47951 0
M  V30 11317 H 1097.2 -3.8821 -0.868193 0
M  V30 11318 H 1093.94 -6.53352 0.530248 0
M  V30 11319 H 1093.46 -5.90321 -1.06213 0
M  V30 11320 H 1095.14 -6.42346 -0.774662 0
M  V30 11321 N 1095.27 0.136881 -1.57004 0
M  V30 11322 C 1096.5 0.866405 -1.88436 0
M  V30 11323 C 1096.92 1.73483 -0.727006 0
M  V30 11324 O 1096.28 1.78398 0.323094 0
M  V30 11325 C 1096.33 1.69059 -3.18514 0
M  V30 11326 O 1095.43 2.79584 -3.03161 0
M  V30 11327 H 1094.77 0.240709 -0.618834 0
M  V30 11328 H 1097.3 0.124653 -2.0422 0
M  V30 11329 H 1097.31 2.08353 -3.50789 0
M  V30 11330 H 1095.99 1.05296 -4.0235 0
M  V30 11331 H 1094.57 2.43623 -2.82315 0
M  V30 11332 N 1096.75 1.52266 0.40654 0
M  V30 11333 C 1097.68 1.72025 1.51459 0
M  V30 11334 C 1098.7 0.600667 1.51314 0
M  V30 11335 O 1099.88 0.875894 1.55532 0
M  V30 11336 C 1096.98 1.7479 2.90348 0
M  V30 11337 C 1096.16 3.03826 3.14656 0
M  V30 11338 C 1095.22 2.98369 4.33431 0
M  V30 11339 O 1094.24 3.7227 4.30586 0
M  V30 11340 N 1095.44 2.16338 5.38682 0
M  V30 11341 H 1098.21 2.67622 1.34903 0
M  V30 11342 H 1095.77 1.50536 0.595867 0
M  V30 11343 H 1097.76 1.68667 3.67877 0
M  V30 11344 H 1096.33 0.86656 3.00349 0
M  V30 11345 H 1095.55 3.23577 2.25148 0
M  V30 11346 H 1096.84 3.89182 3.27742 0
M  V30 11347 H 1096.24 1.55731 5.43842 0
M  V30 11348 H 1094.8 2.1607 6.14945 0
M  V30 11349 N 1098.23 -0.663929 1.42933 0
M  V30 11350 C 1099.19 -1.75899 1.46943 0
M  V30 11351 C 1100.19 -1.5682 0.355535 0
M  V30 11352 O 1101.38 -1.62914 0.616833 0
M  V30 11353 C 1098.51 -3.14657 1.31164 0
M  V30 11354 H 1099.71 -1.73727 2.44456 0
M  V30 11355 H 1097.26 -0.874587 1.2954 0
M  V30 11356 H 1097.99 -3.22447 0.346165 0
M  V30 11357 H 1097.78 -3.29909 2.11902 0
M  V30 11358 H 1099.27 -3.9453 1.36878 0
M  V30 11359 N 1099.71 -1.29285 -0.901281 0
M  V30 11360 C 1100.62 -1.16161 -2.03823 0
M  V30 11361 C 1101.63 -0.0852298 -1.73791 0
M  V30 11362 O 1102.81 -0.29699 -1.99198 0
M  V30 11363 C 1099.87 -0.837586 -3.3643 0
M  V30 11364 C 1098.93 -1.99764 -3.7999 0
M  V30 11365 C 1098.17 -1.68898 -5.0627 0
M  V30 11366 O 1098.39 -0.609177 -5.67138 0
M  V30 11367 O 1097.32 -2.53648 -5.45845 0
M  V30 11368 H 1101.15 -2.11635 -2.17817 0
M  V30 11369 H 1098.74 -1.08722 -1.02468 0
M  V30 11370 H 1100.62 -0.671376 -4.16017 0
M  V30 11371 H 1099.29 0.0873811 -3.23582 0
M  V30 11372 H 1098.2 -2.21908 -3.01177 0
M  V30 11373 H 1099.53 -2.90376 -3.9742 0
M  V30 11374 N 1101.18 1.11143 -1.11736 0
M  V30 11375 C 1102.15 2.15456 -0.78174 0
M  V30 11376 C 1103.15 1.59547 0.200383 0
M  V30 11377 O 1104.34 1.74183 -0.0244893 0
M  V30 11378 C 1101.47 3.40523 -0.160364 0
M  V30 11379 H 1102.66 2.46658 -1.70586 0
M  V30 11380 H 1100.22 1.26381 -0.919644 0
M  V30 11381 H 1100.95 3.14932 0.773835 0
M  V30 11382 H 1100.74 3.82386 -0.867378 0
M  V30 11383 H 1102.23 4.17559 0.0582175 0
M  V30 11384 N 1102.66 0.908147 1.28804 0
M  V30 11385 C 1103.63 0.397058 2.25735 0
M  V30 11386 C 1104.63 -0.473483 1.53671 0
M  V30 11387 O 1105.82 -0.277335 1.71978 0
M  V30 11388 C 1102.95 -0.431392 3.38159 0
M  V30 11389 H 1104.14 1.25323 2.72459 0
M  V30 11390 H 1101.69 0.687041 1.4039 0
M  V30 11391 H 1102.43 -1.3072 2.96787 0
M  V30 11392 H 1102.21 0.192502 3.91627 0
M  V30 11393 H 1103.7 -0.78 4.10251 0
M  V30 11394 N 1104.14 -1.42577 0.671525 0
M  V30 11395 C 1105.07 -2.33499 0.00506984 0
M  V30 11396 C 1106.05 -1.50497 -0.792763 0
M  V30 11397 O 1107.24 -1.79109 -0.750574 0
M  V30 11398 C 1104.37 -3.34077 -0.949194 0
M  V30 11399 C 1103.32 -4.27208 -0.260187 0
M  V30 11400 C 1102.65 -5.17968 -1.32716 0
M  V30 11401 C 1103.95 -5.15192 0.858772 0
M  V30 11402 H 1105.64 -2.89477 0.764407 0
M  V30 11403 H 1103.19 -1.39191 0.369043 0
M  V30 11404 H 1105.14 -3.96594 -1.42448 0
M  V30 11405 H 1103.86 -2.76396 -1.73991 0
M  V30 11406 H 1102.52 -3.66082 0.194834 0
M  V30 11407 H 1102.17 -4.56615 -2.10979 0
M  V30 11408 H 1101.87 -5.81104 -0.871293 0
M  V30 11409 H 1103.39 -5.83359 -1.80345 0
M  V30 11410 H 1104.81 -5.71412 0.464844 0
M  V30 11411 H 1103.21 -5.87144 1.24023 0
M  V30 11412 H 1104.28 -4.53787 1.70895 0
M  V30 11413 N 1105.62 -0.414636 -1.52048 0
M  V30 11414 C 1106.53 0.414861 -2.30903 0
M  V30 11415 C 1107.54 1.04855 -1.38858 0
M  V30 11416 O 1108.72 1.04886 -1.71933 0
M  V30 11417 C 1105.79 1.51356 -3.11917 0
M  V30 11418 C 1104.85 0.902359 -4.19709 0
M  V30 11419 C 1104.08 1.9487 -4.96852 0
M  V30 11420 O 1104.3 3.16766 -4.74358 0
M  V30 11421 O 1103.24 1.55186 -5.8155 0
M  V30 11422 H 1107.06 -0.228251 -3.02841 0
M  V30 11423 H 1104.65 -0.177704 -1.48339 0
M  V30 11424 H 1106.53 2.15127 -3.62351 0
M  V30 11425 H 1105.2 2.14117 -2.42767 0
M  V30 11426 H 1104.11 0.22721 -3.73409 0
M  V30 11427 H 1105.44 0.318587 -4.91168 0
M  V30 11428 N 1107.1 1.56929 -0.145233 0
M  V30 11429 C 1108.04 2.17958 0.812237 0
M  V30 11430 C 1109.04 1.13608 1.25657 0
M  V30 11431 O 1110.24 1.31861 1.22526 0
M  V30 11432 H 1106.62 0.697876 0.28013 0
M  V30 11433 H 1108.59 2.97146 0.273297 0
M  V30 11434 C 1107.34 2.81418 2.04203 0
M  V30 11435 H 1106.66 3.61427 1.70911 0
M  V30 11436 H 1108.1 3.27624 2.69144 0
M  V30 11437 C 1106.56 1.79835 2.84888 0
M  V30 11438 O 1107.09 1.26773 3.81171 0
M  V30 11439 N 1105.3 1.49179 2.49387 0
M  V30 11440 H 1104.84 1.9252 1.71154 0
M  V30 11441 H 1104.8 0.81458 3.03664 0
M  V30 11442 N 1108.58 -0.128553 1.57075 0
M  V30 11443 C 1109.51 -1.15953 2.02675 0
M  V30 11444 C 1110.49 -1.43743 0.909501 0
M  V30 11445 O 1111.67 -1.54348 1.17857 0
M  V30 11446 C 1108.8 -2.48813 2.423 0
M  V30 11447 C 1107.76 -2.35506 3.57381 0
M  V30 11448 C 1107.08 -3.73243 3.82875 0
M  V30 11449 C 1108.38 -1.82359 4.89431 0
M  V30 11450 H 1110.08 -0.780283 2.89054 0
M  V30 11451 H 1107.62 -0.373896 1.39061 0
M  V30 11452 H 1109.57 -3.21179 2.72804 0
M  V30 11453 H 1108.3 -2.88609 1.52881 0
M  V30 11454 H 1106.96 -1.6559 3.27071 0
M  V30 11455 H 1106.61 -4.10507 2.90677 0
M  V30 11456 H 1106.31 -3.65195 4.60333 0
M  V30 11457 H 1107.83 -4.47128 4.15823 0
M  V30 11458 H 1109.24 -2.44533 5.18533 0
M  V30 11459 H 1107.64 -1.85156 5.70822 0
M  V30 11460 H 1108.71 -0.780478 4.78578 0
M  V30 11461 N 1110.05 -1.5248 -0.398459 0
M  V30 11462 C 1111.3 -1.67309 -1.1461 0
M  V30 11463 C 1111.63 -0.407095 -1.89885 0
M  V30 11464 O 1110.91 0.594834 -1.85181 0
M  V30 11465 C 1111.19 -2.90204 -2.13198 0
M  V30 11466 C 1111.04 -4.26881 -1.4175 0
M  V30 11467 C 1112.36 -3.08634 -3.13741 0
M  V30 11468 H 1109.48 -0.608853 -0.415292 0
M  V30 11469 H 1112.12 -1.85057 -0.430573 0
M  V30 11470 H 1110.27 -2.75204 -2.74218 0
M  V30 11471 H 1111.95 -4.53631 -0.837676 0
M  V30 11472 H 1110.19 -4.27793 -0.719387 0
M  V30 11473 H 1110.86 -5.08939 -2.1374 0
M  V30 11474 H 1113.34 -3.22603 -2.62805 0
M  V30 11475 H 1112.21 -3.96117 -3.79977 0
M  V30 11476 H 1112.47 -2.22425 -3.82073 0
M  V30 11477 N 1111.53 0.65634 -1.43283 0
M  V30 11478 C 1112.78 1.41212 -1.44021 0
M  V30 11479 C 1113.09 1.95485 -0.0669783 0
M  V30 11480 O 1114.3 2.71457 0.0481909 0
M  V30 11481 C 1112.76 2.55541 -2.5343 0
M  V30 11482 C 1112.36 2.07889 -3.96845 0
M  V30 11483 C 1114.11 3.3293 -2.63359 0
M  V30 11484 C 1112.01 3.19411 -4.97726 0
M  V30 11485 H 1110.94 0.530566 -0.535739 0
M  V30 11486 H 1113.6 0.708743 -1.6926 0
M  V30 11487 H 1111.98 3.28335 -2.21387 0
M  V30 11488 H 1113.15 1.42127 -4.38334 0
M  V30 11489 H 1111.47 1.43388 -3.90933 0
M  V30 11490 H 1114.06 4.1602 -3.35903 0
M  V30 11491 H 1114.41 3.80753 -1.68324 0
M  V30 11492 H 1114.94 2.67216 -2.94687 0
M  V30 11493 H 1111.68 2.7656 -5.94302 0
M  V30 11494 H 1111.2 3.83895 -4.60853 0
M  V30 11495 H 1112.88 3.84591 -5.20287 0
M  V30 11496 N 1113.01 1.29761 0.894412 0
M  V30 11497 C 1113.94 1.17902 2.01547 0
M  V30 11498 C 1114.92 0.0719402 1.69948 0
M  V30 11499 O 1116.11 0.252338 1.92554 0
M  V30 11500 C 1113.24 0.860262 3.36477 0
M  V30 11501 C 1112.19 1.92424 3.82305 0
M  V30 11502 C 1111.52 1.45868 5.14419 0
M  V30 11503 C 1112.82 3.33391 4.02054 0
M  V30 11504 H 1114.51 2.11688 2.11727 0
M  V30 11505 H 1112.06 1.01916 1.01731 0
M  V30 11506 H 1114.01 0.763987 4.14417 0
M  V30 11507 H 1112.73 -0.113289 3.26403 0
M  V30 11508 H 1111.39 2.00999 3.06586 0
M  V30 11509 H 1111.04 0.473654 5.00765 0
M  V30 11510 H 1110.74 2.17028 5.46052 0
M  V30 11511 H 1112.26 1.37601 5.94894 0
M  V30 11512 H 1113.68 3.27628 4.7046 0
M  V30 11513 H 1112.07 4.02555 4.4505 0
M  V30 11514 H 1113.14 3.75978 3.06216 0
M  V30 11515 N 1114.49 -1.10549 1.12324 0
M  V30 11516 C 1115.44 -2.18944 0.785248 0
M  V30 11517 C 1116.43 -1.67867 -0.227389 0
M  V30 11518 O 1117.64 -1.79796 -0.0857162 0
M  V30 11519 H 1114.01 -0.713976 0.236098 0
M  V30 11520 H 1115.98 -2.44692 1.70788 0
M  V30 11521 C 1114.73 -3.46765 0.25485 0
M  V30 11522 H 1114.05 -3.86428 1.02534 0
M  V30 11523 H 1115.49 -4.23962 0.0566526 0
M  V30 11524 C 1113.95 -3.21185 -1.01695 0
M  V30 11525 O 1114.48 -3.42745 -2.09497 0
M  V30 11526 N 1112.69 -2.7486 -0.943423 0
M  V30 11527 H 1112.24 -2.57515 -0.0660366 0
M  V30 11528 H 1112.19 -2.58122 -1.795 0
M  V30 11529 N 1115.97 -0.914965 -1.28321 0
M  V30 11530 C 1116.93 -0.409024 -2.25521 0
M  V30 11531 C 1117.93 0.465327 -1.5392 0
M  V30 11532 O 1119.12 0.26821 -1.72123 0
M  V30 11533 C 1116.25 0.413452 -3.38383 0
M  V30 11534 H 1117.44 -1.26767 -2.71791 0
M  V30 11535 H 1115 -0.694477 -1.40024 0
M  V30 11536 H 1115.73 1.29145 -2.97476 0
M  V30 11537 H 1115.52 -0.213268 -3.9152 0
M  V30 11538 H 1117.01 0.758232 -4.10659 0
M  V30 11539 N 1117.44 1.42219 -0.679077 0
M  V30 11540 C 1118.41 2.29197 -0.0125475 0
M  V30 11541 C 1119.41 1.43544 0.724691 0
M  V30 11542 O 1120.6 1.64884 0.562052 0
M  V30 11543 C 1117.73 3.26122 0.992846 0
M  V30 11544 H 1118.92 2.89629 -0.778154 0
M  V30 11545 H 1116.47 1.4993 -0.44166 0
M  V30 11546 H 1117.21 2.70637 1.78679 0
M  V30 11547 H 1116.99 3.89302 0.467544 0
M  V30 11548 H 1118.48 3.91339 1.45751 0
M  V30 11549 N 1118.92 0.422693 1.51826 0
M  V30 11550 C 1120.15 -0.15017 2.06856 0
M  V30 11551 C 1120.57 -1.36946 1.28948 0
M  V30 11552 O 1119.93 -1.78393 0.32338 0
M  V30 11553 C 1119.98 -0.465563 3.57582 0
M  V30 11554 O 1119.08 -1.55442 3.81984 0
M  V30 11555 H 1118.42 -0.00827931 0.663948 0
M  V30 11556 H 1120.95 0.599806 1.95611 0
M  V30 11557 H 1120.96 -0.720279 4.01592 0
M  V30 11558 H 1119.64 0.425679 4.13716 0
M  V30 11559 H 1118.21 -1.29081 3.49846 0
M  V30 11560 N 1120.4 -1.5685 0.153553 0
M  V30 11561 C 1121.33 -2.20101 -0.779601 0
M  V30 11562 C 1122.31 -1.15121 -1.25225 0
M  V30 11563 O 1123.5 -1.43487 -1.30862 0
M  V30 11564 C 1120.63 -2.82778 -2.01628 0
M  V30 11565 C 1119.58 -3.93643 -1.68015 0
M  V30 11566 C 1118.91 -4.43286 -2.99001 0
M  V30 11567 C 1120.21 -5.14102 -0.921774 0
M  V30 11568 H 1121.9 -2.98334 -0.252432 0
M  V30 11569 H 1119.45 -1.43499 -0.119975 0
M  V30 11570 H 1121.4 -3.25696 -2.67395 0
M  V30 11571 H 1120.12 -2.01887 -2.56728 0
M  V30 11572 H 1118.78 -3.51354 -1.04624 0
M  V30 11573 H 1118.43 -3.59208 -3.52106 0
M  V30 11574 H 1118.13 -5.18068 -2.77272 0
M  V30 11575 H 1119.65 -4.88878 -3.65828 0
M  V30 11576 H 1121.07 -5.53823 -1.48167 0
M  V30 11577 H 1119.46 -5.94687 -0.804185 0
M  V30 11578 H 1120.53 -4.84825 0.0852757 0
M  V30 11579 N 1121.88 0.120221 -1.57141 0
M  V30 11580 C 1122.84 1.13159 -1.99318 0
M  V30 11581 C 1123.84 1.34376 -0.883158 0
M  V30 11582 O 1125.03 1.30914 -1.14922 0
M  V30 11583 C 1122.16 2.48632 -2.33227 0
M  V30 11584 H 1123.36 0.769119 -2.8987 0
M  V30 11585 H 1120.91 0.364475 -1.51991 0
M  V30 11586 H 1121.64 2.89802 -1.45551 0
M  V30 11587 H 1121.43 2.34587 -3.14184 0
M  V30 11588 H 1122.92 3.21423 -2.66603 0
M  V30 11589 N 1123.36 1.52689 0.390367 0
M  V30 11590 C 1124.6 1.67335 1.13329 0
M  V30 11591 C 1124.93 0.415068 1.90531 0
M  V30 11592 O 1124.2 -0.570504 1.87409 0
M  V30 11593 H 1122.78 0.616821 0.421356 0
M  V30 11594 H 1125.44 1.89799 0.443 0
M  V30 11595 H 1124.53 2.52314 1.83696 0
M  V30 11596 N 1124.83 -0.648732 1.43629 0
M  V30 11597 C 1126.06 -1.4362 1.48932 0
M  V30 11598 C 1126.48 -1.88487 0.108599 0
M  V30 11599 O 1125.83 -1.59768 -0.882066 0
M  V30 11600 C 1125.89 -2.66822 2.43903 0
M  V30 11601 O 1125.61 -2.2383 3.76606 0
M  V30 11602 C 1127.11 -3.60134 2.58493 0
M  V30 11603 H 1124.33 -0.441055 0.505679 0
M  V30 11604 H 1126.87 -0.794936 1.88417 0
M  V30 11605 H 1125.03 -3.27079 2.07601 0
M  V30 11606 H 1125.44 -3.03575 4.27718 0
M  V30 11607 H 1126.91 -4.43234 3.29011 0
M  V30 11608 H 1127.39 -4.07779 1.63134 0
M  V30 11609 H 1128 -3.05756 2.95624 0
M  V30 11610 N 1126.31 -1.30234 -0.887518 0
M  V30 11611 C 1127.26 -1.13013 -1.9802 0
M  V30 11612 C 1128.25 -0.0460253 -1.60834 0
M  V30 11613 O 1129.44 -0.26907 -1.74943 0
M  V30 11614 C 1126.57 -0.821397 -3.33329 0
M  V30 11615 C 1125.65 -1.94564 -3.76837 0
M  V30 11616 N 1126.04 -3.19068 -3.92465 0
M  V30 11617 C 1124.34 -1.84142 -4.06211 0
M  V30 11618 C 1125.04 -3.92495 -4.29328 0
M  V30 11619 N 1124.02 -3.20526 -4.39049 0
M  V30 11620 H 1127.82 -2.07446 -2.0819 0
M  V30 11621 H 1125.34 -1.21536 -1.07716 0
M  V30 11622 H 1127.33 -0.679046 -4.11333 0
M  V30 11623 H 1125.99 0.114891 -3.24497 0
M  V30 11624 H 1127 -3.54386 -3.77665 0
M  V30 11625 H 1123.68 -0.97865 -4.05868 0
M  V30 11626 H 1125.07 -4.99701 -4.49164 0
M  V30 11627 N 1127.79 1.09952 -1.12909 0
M  V30 11628 C 1129.04 1.81657 -0.885729 0
M  V30 11629 C 1129.36 1.85863 0.589913 0
M  V30 11630 O 1128.63 1.34028 1.42875 0
M  V30 11631 H 1127.21 0.672743 -0.324694 0
M  V30 11632 H 1129.87 1.33013 -1.42456 0
M  V30 11633 H 1128.97 2.85018 -1.27167 0
M  V30 11634 N 1129.27 0.921757 1.27833 0
M  V30 11635 C 1130.2 0.433466 2.29441 0
M  V30 11636 C 1131.18 -0.503133 1.62489 0
M  V30 11637 O 1132.36 -0.409156 1.89841 0
M  V30 11638 C 1129.49 -0.320029 3.45822 0
M  V30 11639 C 1128.45 0.528178 4.24728 0
M  V30 11640 C 1127.77 -0.354132 5.33526 0
M  V30 11641 C 1129.07 1.78959 4.90684 0
M  V30 11642 H 1130.77 1.28263 2.70535 0
M  V30 11643 H 1128.31 0.618197 1.30055 0
M  V30 11644 H 1130.27 -0.672526 4.15999 0
M  V30 11645 H 1128.99 -1.20317 3.0363 0
M  V30 11646 H 1127.65 0.863302 3.5629 0
M  V30 11647 H 1127.3 -1.23605 4.87576 0
M  V30 11648 H 1127 0.209855 5.87225 0
M  V30 11649 H 1128.52 -0.702333 6.06547 0
M  V30 11650 H 1129.94 1.50552 5.53179 0
M  V30 11651 H 1128.33 2.29661 5.54415 0
M  V30 11652 H 1129.4 2.51265 4.14721 0
M  V30 11653 N 1130.75 -1.41857 0.686609 0
M  V30 11654 C 1131.99 -2.01666 0.214118 0
M  V30 11655 C 1132.33 -1.5422 -1.18025 0
M  V30 11656 O 1131.6 -0.749482 -1.7948 0
M  V30 11657 C 1131.88 -3.59147 0.261841 0
M  V30 11658 C 1131.74 -4.16742 1.69251 0
M  V30 11659 C 1133.06 -4.38427 -0.383378 0
M  V30 11660 H 1130.17 -0.732724 0.0792785 0
M  V30 11661 H 1132.82 -1.68724 0.873633 0
M  V30 11662 H 1130.97 -3.87342 -0.29971 0
M  V30 11663 H 1132.64 -3.99456 2.30722 0
M  V30 11664 H 1130.88 -3.72124 2.2295 0
M  V30 11665 H 1131.55 -5.25894 1.6775 0
M  V30 11666 H 1134.03 -4.15992 0.0947701 0
M  V30 11667 H 1132.9 -5.4797 -0.319401 0
M  V30 11668 H 1133.17 -4.172 -1.46276 0
M  V30 11669 N 1132.22 -0.430739 -1.51599 0
M  V30 11670 C 1133.45 0.139197 -2.06932 0
M  V30 11671 C 1133.87 1.3626 -1.29672 0
M  V30 11672 O 1133.23 1.78219 -0.332836 0
M  V30 11673 C 1133.28 0.446593 -3.57824 0
M  V30 11674 O 1132.38 1.53414 -3.82803 0
M  V30 11675 H 1131.73 0.00475812 -0.663983 0
M  V30 11676 H 1134.26 -0.610171 -1.9529 0
M  V30 11677 H 1134.27 0.698972 -4.01968 0
M  V30 11678 H 1132.94 -0.447613 -4.13484 0
M  V30 11679 H 1131.52 1.27224 -3.50526 0
M  V30 11680 N 1133.7 1.56767 -0.161869 0
M  V30 11681 C 1134.95 1.96594 0.485496 0
M  V30 11682 C 1135.28 1.04743 1.63887 0
M  V30 11683 O 1134.53 0.079602 1.95538 0
M  V30 11684 C 1134.83 3.42567 1.01894 0
M  V30 11685 C 1134.5 4.50897 -0.0175419 0
M  V30 11686 C 1133.16 4.80249 -0.302429 0
M  V30 11687 C 1135.51 5.16181 -0.721572 0
M  V30 11688 C 1132.84 5.72187 -1.2969 0
M  V30 11689 C 1135.19 6.09191 -1.70496 0
M  V30 11690 C 1133.86 6.36915 -1.99739 0
M  V30 11691 H 1133.13 0.719388 0.177656 0
M  V30 11692 H 1135.77 1.89837 -0.251839 0
M  V30 11693 H 1134.08 3.4623 1.83391 0
M  V30 11694 H 1135.77 3.70719 1.52867 0
M  V30 11695 H 1132.36 4.28062 0.21468 0
M  V30 11696 H 1136.55 4.93624 -0.514681 0
M  V30 11697 H 1131.8 5.91953 -1.52974 0
M  V30 11698 H 1135.98 6.58849 -2.25591 0
M  V30 11699 H 1133.61 7.07958 -2.76948 0
M  V30 11700 N 1135.18 -0.111886 1.57202 0
M  V30 11701 C 1136.11 -1.13796 2.03894 0
M  V30 11702 C 1137.09 -1.4277 0.924696 0
M  V30 11703 O 1138.28 -1.53089 1.19488 0
M  V30 11704 C 1135.41 -2.46229 2.44925 0
M  V30 11705 C 1134.36 -2.31702 3.59859 0
M  V30 11706 C 1133.69 -3.69161 3.86813 0
M  V30 11707 C 1134.99 -1.77158 4.91337 0
M  V30 11708 H 1136.68 -0.749581 2.89865 0
M  V30 11709 H 1134.23 -0.359126 1.3945 0
M  V30 11710 H 1136.18 -3.18267 2.76195 0
M  V30 11711 H 1134.9 -2.86971 1.55933 0
M  V30 11712 H 1133.56 -1.62112 3.28809 0
M  V30 11713 H 1133.21 -4.07401 2.95015 0
M  V30 11714 H 1132.91 -3.60292 4.6418 0
M  V30 11715 H 1134.43 -4.42693 4.20542 0
M  V30 11716 H 1135.85 -2.3902 5.21097 0
M  V30 11717 H 1134.25 -1.79091 5.72753 0
M  V30 11718 H 1135.32 -0.729675 4.79379 0
M  V30 11719 N 1136.66 -1.52894 -0.382264 0
M  V30 11720 C 1137.9 -1.68515 -1.12829 0
M  V30 11721 C 1138.24 -0.427211 -1.89443 0
M  V30 11722 O 1137.51 0.57516 -1.85801 0
M  V30 11723 C 1137.8 -2.92449 -2.10108 0
M  V30 11724 C 1137.65 -4.2836 -1.37214 0
M  V30 11725 C 1138.97 -3.11944 -3.1045 0
M  V30 11726 H 1136.09 -0.613223 -0.408811 0
M  V30 11727 H 1138.73 -1.85503 -0.410921 0
M  V30 11728 H 1136.88 -2.78097 -2.71283 0
M  V30 11729 H 1138.55 -4.54493 -0.789516 0
M  V30 11730 H 1136.79 -4.28532 -0.673973 0
M  V30 11731 H 1137.46 -5.11178 -2.0833 0
M  V30 11732 H 1139.94 -3.25372 -2.59369 0
M  V30 11733 H 1138.82 -4.00125 -3.75754 0
M  V30 11734 H 1139.08 -2.26465 -3.79692 0
M  V30 11735 N 1138.14 0.641106 -1.43971 0
M  V30 11736 C 1139.38 1.40084 -1.46228 0
M  V30 11737 C 1139.71 1.94287 -0.0911011 0
M  V30 11738 O 1138.97 1.73481 0.905688 0
M  V30 11739 C 1139.27 2.59092 -2.46183 0
M  V30 11740 C 1138.93 2.23237 -3.9176 0
M  V30 11741 C 1137.59 2.13171 -4.31407 0
M  V30 11742 C 1139.95 1.94746 -4.83449 0
M  V30 11743 C 1137.27 1.72788 -5.60679 0
M  V30 11744 C 1139.63 1.55858 -6.13099 0
M  V30 11745 C 1138.29 1.44326 -6.5171 0
M  V30 11746 H 1137.56 0.512603 -0.535088 0
M  V30 11747 H 1140.21 0.727956 -1.77124 0
M  V30 11748 H 1138.51 3.31568 -2.08734 0
M  V30 11749 H 1140.21 3.17313 -2.4518 0
M  V30 11750 H 1136.8 2.31986 -3.60389 0
M  V30 11751 H 1140.98 2.01438 -4.53582 0
M  V30 11752 H 1136.24 1.62455 -5.89422 0
M  V30 11753 H 1140.41 1.32848 -6.83611 0
M  V30 11754 H 1138.04 1.12806 -7.51784 0
M  V30 11755 N 1139.62 1.30703 0.880598 0
M  V30 11756 C 1140.86 1.19778 1.63277 0
M  V30 11757 C 1141.19 -0.246521 1.92931 0
M  V30 11758 O 1140.45 -1.19226 1.55189 0
M  V30 11759 C 1140.74 1.97628 2.97789 0
M  V30 11760 C 1140.41 3.47213 2.87669 0
M  V30 11761 C 1139.07 3.88004 2.84617 0
M  V30 11762 C 1141.42 4.4245 2.75477 0
M  V30 11763 C 1138.75 5.22315 2.67216 0
M  V30 11764 C 1141.1 5.76874 2.59614 0
M  V30 11765 C 1139.77 6.16898 2.54939 0
M  V30 11766 H 1139.04 0.438298 0.597475 0
M  V30 11767 H 1141.69 1.61853 1.02352 0
M  V30 11768 H 1139.99 1.48201 3.6269 0
M  V30 11769 H 1141.69 1.86563 3.54958 0
M  V30 11770 H 1138.28 3.14802 2.90857 0
M  V30 11771 H 1142.46 4.11875 2.76899 0
M  V30 11772 H 1137.72 5.52412 2.62014 0
M  V30 11773 H 1141.89 6.50304 2.49155 0
M  V30 11774 H 1139.52 7.20916 2.41214 0
M  V30 11775 N 1141.09 -1.09351 1.1349 0
M  V30 11776 C 1142.33 -1.83156 0.907372 0
M  V30 11777 C 1142.7 -1.8376 -0.556441 0
M  V30 11778 O 1143.9 -2.5323 -0.90156 0
M  V30 11779 C 1142.17 -3.25315 1.48004 0
M  V30 11780 S 1143.73 -4.16113 1.39268 0
M  V30 11781 H 1140.55 -0.631319 0.327043 0
M  V30 11782 H 1143.15 -1.31509 1.44657 0
M  V30 11783 H 1141.85 -3.22452 2.53876 0
M  V30 11784 H 1141.38 -3.82034 0.938822 0
M  V30 11785 H 1143.4 -4.94806 0.371645 0
M  V30 11786 N 1142.57 -0.928524 -1.27343 0
M  V30 11787 C 1143.82 -0.569392 -1.9433 0
M  V30 11788 C 1144.15 0.889481 -1.7297 0
M  V30 11789 O 1143.4 1.6499 -1.05247 0
M  V30 11790 C 1143.7 -0.84269 -3.47323 0
M  V30 11791 C 1143.37 -2.28344 -3.88806 0
M  V30 11792 C 1142.03 -2.67731 -3.99842 0
M  V30 11793 C 1144.38 -3.22031 -4.09811 0
M  V30 11794 C 1141.71 -3.99928 -4.29272 0
M  V30 11795 C 1144.06 -4.5381 -4.40725 0
M  V30 11796 C 1142.72 -4.93031 -4.49975 0
M  V30 11797 H 1141.99 -0.208355 -0.711104 0
M  V30 11798 H 1144.64 -1.17264 -1.51398 0
M  V30 11799 H 1142.95 -0.156775 -3.91486 0
M  V30 11800 H 1144.64 -0.543779 -3.97296 0
M  V30 11801 H 1141.23 -1.96787 -3.80753 0
M  V30 11802 H 1145.42 -2.92803 -4.00724 0
M  V30 11803 H 1140.67 -4.29996 -4.34642 0
M  V30 11804 H 1144.85 -5.26407 -4.55926 0
M  V30 11805 H 1142.47 -5.95497 -4.72533 0
M  V30 11806 N 1144.05 1.41491 -0.694123 0
M  V30 11807 C 1145.01 2.2917 -0.0368562 0
M  V30 11808 C 1146.01 1.44305 0.709426 0
M  V30 11809 O 1147.2 1.6547 0.544533 0
M  V30 11810 C 1144.33 3.27156 0.958201 0
M  V30 11811 H 1145.53 2.88787 -0.808829 0
M  V30 11812 H 1143.08 1.49453 -0.457538 0
M  V30 11813 H 1143.82 2.72516 1.75799 0
M  V30 11814 H 1143.6 3.89776 0.426227 0
M  V30 11815 H 1145.09 3.92863 1.41592 0
M  V30 11816 N 1145.53 0.438773 1.51369 0
M  V30 11817 C 1146.77 -0.119657 2.03048 0
M  V30 11818 C 1147.13 -1.4026 1.317 0
M  V30 11819 O 1146.42 -1.86858 0.423612 0
M  V30 11820 C 1146.62 -0.39186 3.55245 0
M  V30 11821 C 1146.44 0.863149 4.41339 0
M  V30 11822 C 1145.21 1.39709 4.85602 0
M  V30 11823 C 1147.41 1.74969 4.83622 0
M  V30 11824 N 1145.39 2.60449 5.55913 0
M  V30 11825 C 1146.77 2.80313 5.53014 0
M  V30 11826 C 1148.82 1.76393 4.65607 0
M  V30 11827 C 1147.52 3.87029 6.06301 0
M  V30 11828 C 1149.55 2.82045 5.19812 0
M  V30 11829 C 1148.91 3.86109 5.89151 0
M  V30 11830 H 1145.01 -0.00458455 0.781987 0
M  V30 11831 H 1147.59 0.599764 1.85232 0
M  V30 11832 H 1145.77 -1.08032 3.73073 0
M  V30 11833 H 1147.5 -0.941775 3.93589 0
M  V30 11834 H 1144.25 0.950817 4.63957 0
M  V30 11835 H 1144.68 3.21678 5.95695 0
M  V30 11836 H 1149.32 0.972686 4.11459 0
M  V30 11837 H 1147.04 4.66991 6.59504 0
M  V30 11838 H 1150.62 2.84091 5.07724 0
M  V30 11839 H 1149.5 4.66518 6.30342 0
M  V30 11840 N 1147.01 -1.56678 0.170181 0
M  V30 11841 C 1148.24 -2.00931 -0.480664 0
M  V30 11842 C 1148.64 -1.04947 -1.57425 0
M  V30 11843 O 1147.99 -0.042229 -1.83651 0
M  V30 11844 C 1148.05 -3.4161 -1.11996 0
M  V30 11845 C 1147.71 -4.5669 -0.168167 0
M  V30 11846 C 1148.71 -5.16273 0.613059 0
M  V30 11847 C 1146.39 -5.02259 -0.0643243 0
M  V30 11848 C 1148.39 -6.19852 1.48534 0
M  V30 11849 C 1146.08 -6.05687 0.811542 0
M  V30 11850 C 1147.07 -6.64355 1.58496 0
M  V30 11851 O 1146.76 -7.65778 2.44619 0
M  V30 11852 H 1146.49 -0.66386 -0.12754 0
M  V30 11853 H 1149.05 -2.03635 0.2687 0
M  V30 11854 H 1147.28 -3.35815 -1.91743 0
M  V30 11855 H 1148.97 -3.69823 -1.67289 0
M  V30 11856 H 1149.73 -4.81951 0.542999 0
M  V30 11857 H 1145.61 -4.56307 -0.656102 0
M  V30 11858 H 1149.16 -6.65572 2.08948 0
M  V30 11859 H 1145.05 -6.39435 0.88281 0
M  V30 11860 H 1145.82 -7.83096 2.38122 0
M  V30 11861 N 1148.48 0.103547 -1.57259 0
M  V30 11862 C 1149.41 1.12714 -2.04494 0
M  V30 11863 C 1150.39 1.42278 -0.932255 0
M  V30 11864 O 1151.58 1.52453 -1.20298 0
M  V30 11865 C 1148.71 2.44927 -2.46228 0
M  V30 11866 C 1147.66 2.2979 -3.61082 0
M  V30 11867 C 1146.99 3.67105 -3.88765 0
M  V30 11868 C 1148.29 1.7455 -4.9227 0
M  V30 11869 H 1149.98 0.734198 -2.90258 0
M  V30 11870 H 1147.53 0.351725 -1.39638 0
M  V30 11871 H 1149.48 3.16798 -2.77879 0
M  V30 11872 H 1148.21 2.8614 -1.57453 0
M  V30 11873 H 1146.87 1.60366 -3.29664 0
M  V30 11874 H 1146.51 4.05831 -2.97171 0
M  V30 11875 H 1146.21 3.57825 -4.66084 0
M  V30 11876 H 1147.74 4.40456 -4.22884 0
M  V30 11877 H 1149.15 2.36253 -5.22358 0
M  V30 11878 H 1147.55 1.76051 -5.73695 0
M  V30 11879 H 1148.62 0.704242 -4.79759 0
M  V30 11880 N 1149.96 1.53094 0.37415 0
M  V30 11881 C 1150.91 1.78927 1.45787 0
M  V30 11882 C 1151.88 0.633187 1.53558 0
M  V30 11883 O 1153.06 0.874472 1.69581 0
M  V30 11884 C 1150.2 1.97726 2.8284 0
M  V30 11885 C 1149.32 3.25436 2.84104 0
M  V30 11886 C 1148.45 3.3447 4.12678 0
M  V30 11887 C 1147.49 4.56246 4.08051 0
M  V30 11888 N 1146.63 4.6248 5.28258 0
M  V30 11889 H 1151.47 2.71404 1.2306 0
M  V30 11890 H 1149 1.34453 0.596716 0
M  V30 11891 H 1150.96 2.06611 3.62447 0
M  V30 11892 H 1149.59 1.08593 3.03986 0
M  V30 11893 H 1148.64 3.25548 1.96781 0
M  V30 11894 H 1149.96 4.15112 2.76556 0
M  V30 11895 H 1149.11 3.4262 5.00696 0
M  V30 11896 H 1147.85 2.42795 4.22968 0
M  V30 11897 H 1146.85 4.48206 3.1842 0
M  V30 11898 H 1148.08 5.49254 3.99371 0
M  V30 11899 H 1146.03 3.73703 5.3915 0
M  V30 11900 H 1145.94 5.46049 5.22845 0
M  V30 11901 H 1147.21 4.74903 6.18132 0
M  V30 11902 N 1151.44 -0.633461 1.44309 0
M  V30 11903 C 1152.69 -1.39031 1.46679 0
M  V30 11904 C 1153.01 -1.94745 0.0997165 0
M  V30 11905 O 1152.28 -1.75637 -0.867659 0
M  V30 11906 H 1150.86 -0.516051 0.540093 0
M  V30 11907 H 1153.52 -0.745739 1.80069 0
M  V30 11908 H 1152.62 -2.2228 2.19085 0
M  V30 11909 N 1152.92 -1.31168 -0.873655 0
M  V30 11910 C 1153.87 -1.18507 -1.98052 0
M  V30 11911 C 1154.84 -0.0717583 -1.65945 0
M  V30 11912 O 1156.02 -0.243965 -1.89234 0
M  V30 11913 C 1153.16 -0.894571 -3.33304 0
M  V30 11914 C 1152.27 -2.09086 -3.7803 0
M  V30 11915 C 1151.41 -1.73747 -5.01982 0
M  V30 11916 C 1150.45 -2.89805 -5.39147 0
M  V30 11917 N 1149.58 -2.54686 -6.54278 0
M  V30 11918 H 1154.42 -2.13193 -2.08213 0
M  V30 11919 H 1151.96 -1.06056 -1.01934 0
M  V30 11920 H 1153.92 -0.706714 -4.11171 0
M  V30 11921 H 1152.55 0.0154449 -3.22796 0
M  V30 11922 H 1151.6 -2.38961 -2.95976 0
M  V30 11923 H 1152.91 -2.95963 -4.01506 0
M  V30 11924 H 1152.07 -1.51402 -5.87505 0
M  V30 11925 H 1150.81 -0.840553 -4.80402 0
M  V30 11926 H 1149.81 -3.12803 -4.52144 0
M  V30 11927 H 1151.04 -3.802 -5.62694 0
M  V30 11928 H 1148.98 -1.67513 -6.34252 0
M  V30 11929 H 1148.9 -3.35093 -6.77679 0
M  V30 11930 H 1150.17 -2.35725 -7.43003 0
M  V30 11931 N 1154.4 1.08748 -1.14068 0
M  V30 11932 C 1155.64 1.81504 -0.918035 0
M  V30 11933 C 1156 1.84381 0.549671 0
M  V30 11934 O 1155.29 1.30612 1.40183 0
M  V30 11935 C 1155.48 3.26734 -1.44843 0
M  V30 11936 C 1155.31 3.38006 -2.96617 0
M  V30 11937 C 1154.08 3.49401 -3.6503 0
M  V30 11938 C 1156.28 3.29952 -3.94507 0
M  V30 11939 N 1154.26 3.49428 -5.04751 0
M  V30 11940 C 1155.63 3.3693 -5.20459 0
M  V30 11941 C 1157.69 3.13666 -3.86676 0
M  V30 11942 C 1156.39 3.29299 -6.39496 0
M  V30 11943 C 1158.42 3.07363 -5.05254 0
M  V30 11944 C 1157.78 3.1494 -6.30073 0
M  V30 11945 H 1153.88 0.67814 -0.389423 0
M  V30 11946 H 1156.46 1.29916 -1.45017 0
M  V30 11947 H 1154.63 3.76776 -0.943112 0
M  V30 11948 H 1156.37 3.87537 -1.16606 0
M  V30 11949 H 1153.12 3.53145 -3.15572 0
M  V30 11950 H 1153.55 3.53007 -5.77681 0
M  V30 11951 H 1158.19 3.06673 -2.91053 0
M  V30 11952 H 1155.91 3.35054 -7.35367 0
M  V30 11953 H 1159.49 2.95887 -5.00941 0
M  V30 11954 H 1158.37 3.10088 -7.20288 0
M  V30 11955 N 1155.87 0.935264 1.26849 0
M  V30 11956 C 1157.12 0.580548 1.94313 0
M  V30 11957 C 1157.45 -0.877205 1.73259 0
M  V30 11958 O 1156.73 -1.62679 1.06611 0
M  V30 11959 C 1157.01 0.916445 3.48243 0
M  V30 11960 C 1156.86 2.42851 3.78607 0
M  V30 11961 C 1158.18 0.427665 4.38017 0
M  V30 11962 H 1155.3 0.21239 0.705733 0
M  V30 11963 H 1157.94 1.16841 1.49827 0
M  V30 11964 H 1156.09 0.416169 3.86265 0
M  V30 11965 H 1157.77 3.00106 3.50335 0
M  V30 11966 H 1156.01 2.8745 3.24892 0
M  V30 11967 H 1156.68 2.61405 4.8618 0
M  V30 11968 H 1159.16 0.856525 4.07189 0
M  V30 11969 H 1158.03 0.691571 5.44526 0
M  V30 11970 H 1158.29 -0.672344 4.36958 0
M  V30 11971 N 1157.35 -1.41121 0.701616 0
M  V30 11972 C 1158.76 -1.84122 0.309208 0
M  V30 11973 C 1159.11 -1.58695 -1.15371 0
M  V30 11974 O 1158.24 -1.06053 -1.88631 0
M  V30 11975 C 1158.83 -3.34233 0.554429 0
M  V30 11976 C 1157.39 -3.7578 0.215876 0
M  V30 11977 C 1156.54 -2.6447 0.833729 0
M  V30 11978 H 1159.49 -1.30587 0.901822 0
M  V30 11979 H 1159.51 -3.8005 -0.18491 0
M  V30 11980 H 1159.02 -3.52707 1.61923 0
M  V30 11981 H 1157.13 -3.62905 -0.844421 0
M  V30 11982 H 1157.24 -4.74319 0.675118 0
M  V30 11983 H 1155.6 -2.5334 0.262851 0
M  V30 11984 H 1156.39 -2.85761 1.90252 0
M  V30 11985 N 1158.83 -0.446794 -1.51134 0
M  V30 11986 C 1160.08 0.116263 -2.01765 0
M  V30 11987 C 1160.4 1.42382 -1.33238 0
M  V30 11988 O 1159.67 1.9018 -0.469915 0
M  V30 11989 H 1158.25 0.0459558 -0.745585 0
M  V30 11990 H 1160.91 -0.591664 -1.85702 0
M  V30 11991 H 1160.01 0.285358 -3.10793 0
M  V30 11992 N 1160.31 1.56586 -0.178487 0
M  V30 11993 C 1161.27 2.17091 0.73512 0
M  V30 11994 C 1162.27 1.12088 1.15295 0
M  V30 11995 O 1163.46 1.37563 1.06874 0
M  V30 11996 C 1160.59 2.75957 2.00151 0
M  V30 11997 H 1161.79 2.99176 0.208272 0
M  V30 11998 H 1159.34 1.56138 0.0710967 0
M  V30 11999 H 1160.07 1.97626 2.57127 0
M  V30 12000 H 1159.86 3.52809 1.7108 0
M  V30 12001 H 1161.35 3.2247 2.65335 0
M  V30 12002 N 1161.79 -0.095206 1.57312 0
M  V30 12003 C 1163.03 -0.799903 1.86358 0
M  V30 12004 C 1163.37 -1.78386 0.767593 0
M  V30 12005 O 1162.64 -1.93201 -0.224439 0
M  V30 12006 C 1162.92 -1.52875 3.26039 0
M  V30 12007 C 1162.78 -0.562781 4.46265 0
M  V30 12008 C 1164.1 -2.47935 3.63616 0
M  V30 12009 H 1161.21 -0.289339 0.677829 0
M  V30 12010 H 1163.86 -0.0635369 1.89894 0
M  V30 12011 H 1162.01 -2.15645 3.23156 0
M  V30 12012 H 1163.68 0.0579068 4.61264 0
M  V30 12013 H 1161.92 0.123847 4.33623 0
M  V30 12014 H 1162.59 -1.10989 5.40727 0
M  V30 12015 H 1165.07 -1.95257 3.67442 0
M  V30 12016 H 1163.94 -2.95948 4.62283 0
M  V30 12017 H 1164.21 -3.31687 2.92294 0
M  V30 12018 N 1163.26 -1.53291 -0.366026 0
M  V30 12019 C 1164.49 -1.73108 -1.1277 0
M  V30 12020 C 1164.9 -0.459662 -1.83531 0
M  V30 12021 O 1164.25 0.577151 -1.74398 0
M  V30 12022 C 1164.31 -2.84137 -2.20242 0
M  V30 12023 C 1163.97 -4.24503 -1.69252 0
M  V30 12024 C 1164.97 -5.06866 -1.15684 0
M  V30 12025 C 1162.65 -4.70912 -1.74778 0
M  V30 12026 C 1164.65 -6.33728 -0.683191 0
M  V30 12027 C 1162.33 -5.97752 -1.27025 0
M  V30 12028 C 1163.33 -6.78992 -0.738858 0
M  V30 12029 O 1163.02 -8.03452 -0.268375 0
M  V30 12030 H 1162.75 -0.582439 -0.343134 0
M  V30 12031 H 1165.31 -2.00828 -0.430969 0
M  V30 12032 H 1163.54 -2.5189 -2.93408 0
M  V30 12033 H 1165.23 -2.92136 -2.818 0
M  V30 12034 H 1165.99 -4.72185 -1.10753 0
M  V30 12035 H 1161.87 -4.07751 -2.15081 0
M  V30 12036 H 1165.41 -6.97086 -0.267746 0
M  V30 12037 H 1161.31 -6.31933 -1.31649 0
M  V30 12038 H 1162.08 -8.17581 -0.387745 0
M  V30 12039 N 1164.74 0.6258 -1.44643 0
M  V30 12040 C 1165.97 1.41233 -1.51198 0
M  V30 12041 C 1166.39 1.88291 -0.138572 0
M  V30 12042 O 1165.74 1.61151 0.856537 0
M  V30 12043 C 1165.79 2.62908 -2.48117 0
M  V30 12044 O 1165.51 2.1781 -3.80119 0
M  V30 12045 C 1167.02 3.55976 -2.6419 0
M  V30 12046 H 1164.24 0.432954 -0.512632 0
M  V30 12047 H 1166.78 0.76486 -1.89658 0
M  V30 12048 H 1164.93 3.23735 -2.12778 0
M  V30 12049 H 1165.35 2.96732 -4.32493 0
M  V30 12050 H 1166.82 4.37943 -3.3602 0
M  V30 12051 H 1167.3 4.05133 -1.696 0
M  V30 12052 H 1167.91 3.01014 -3.00451 0
M  V30 12053 N 1166.22 1.31629 0.866686 0
M  V30 12054 C 1167.47 1.21503 1.61998 0
M  V30 12055 C 1167.8 -0.226044 1.93182 0
M  V30 12056 O 1167.05 -1.17573 1.56445 0
M  V30 12057 C 1167.35 2.00775 2.95676 0
M  V30 12058 C 1167.02 3.50245 2.83971 0
M  V30 12059 C 1165.68 3.91 2.80485 0
M  V30 12060 C 1168.03 4.45347 2.70769 0
M  V30 12061 C 1165.36 5.25119 2.61661 0
M  V30 12062 C 1167.71 5.79595 2.53481 0
M  V30 12063 C 1166.37 6.19567 2.48381 0
M  V30 12064 H 1165.64 0.44461 0.592792 0
M  V30 12065 H 1168.29 1.62929 1.00629 0
M  V30 12066 H 1166.6 1.52039 3.61097 0
M  V30 12067 H 1168.29 1.90318 3.52959 0
M  V30 12068 H 1164.88 3.17869 2.87502 0
M  V30 12069 H 1169.07 4.14789 2.72514 0
M  V30 12070 H 1164.32 5.5516 2.5614 0
M  V30 12071 H 1168.5 6.5291 2.42243 0
M  V30 12072 H 1166.12 7.23434 2.33554 0
M  V30 12073 N 1167.7 -1.08142 1.14644 0
M  V30 12074 C 1168.93 -1.8405 0.938563 0
M  V30 12075 C 1169.34 -1.82017 -0.516361 0
M  V30 12076 O 1168.68 -1.22418 -1.36966 0
M  V30 12077 C 1168.74 -3.32563 1.36536 0
M  V30 12078 C 1168.41 -3.58327 2.83638 0
M  V30 12079 C 1169.4 -3.52944 3.81741 0
M  V30 12080 C 1167.09 -3.86251 3.21115 0
M  V30 12081 C 1169.08 -3.7512 5.15329 0
M  V30 12082 C 1166.77 -4.0808 4.54878 0
M  V30 12083 C 1167.77 -4.02508 5.51794 0
M  V30 12084 O 1167.46 -4.23761 6.83141 0
M  V30 12085 H 1167.19 -0.587793 0.33388 0
M  V30 12086 H 1169.74 -1.37467 1.52617 0
M  V30 12087 H 1167.97 -3.79917 0.721106 0
M  V30 12088 H 1169.66 -3.89915 1.12787 0
M  V30 12089 H 1170.43 -3.31382 3.54134 0
M  V30 12090 H 1166.31 -3.89707 2.46272 0
M  V30 12091 H 1169.85 -3.70686 5.90963 0
M  V30 12092 H 1165.75 -4.29126 4.82204 0
M  V30 12093 H 1166.51 -4.41152 6.8944 0
M  V30 12094 N 1169.18 -0.941978 -1.26351 0
M  V30 12095 C 1170.43 -0.588806 -1.93333 0
M  V30 12096 C 1170.75 0.875067 -1.74263 0
M  V30 12097 O 1170.02 1.62187 -1.09873 0
M  V30 12098 H 1168.6 -0.214774 -0.715459 0
M  V30 12099 H 1171.26 -1.19747 -1.53774 0
M  V30 12100 H 1170.35 -0.807267 -3.01479 0
M  V30 12101 N 1170.66 1.40747 -0.709091 0
M  V30 12102 C 1171.59 2.282 -0.00156906 0
M  V30 12103 C 1172.57 1.42981 0.774279 0
M  V30 12104 O 1173.75 1.724 0.762276 0
M  V30 12105 C 1170.88 3.23441 1.00517 0
M  V30 12106 C 1169.92 4.25291 0.320904 0
M  V30 12107 S 1170.76 5.27069 -0.946518 0
M  V30 12108 C 1171.91 6.25873 0.0582856 0
M  V30 12109 H 1172.15 2.87859 -0.743271 0
M  V30 12110 H 1169.68 1.46085 -0.499866 0
M  V30 12111 H 1171.64 3.78841 1.58082 0
M  V30 12112 H 1170.3 2.62851 1.71954 0
M  V30 12113 H 1169.49 4.92255 1.08173 0
M  V30 12114 H 1169.09 3.73557 -0.18202 0
M  V30 12115 H 1171.38 6.71398 0.907233 0
M  V30 12116 H 1172.33 7.05739 -0.577787 0
M  V30 12117 H 1172.74 5.62942 0.419108 0
M  V30 12118 N 1172.13 0.454803 1.50895 0
M  V30 12119 C 1173.38 -0.0981148 2.03163 0
M  V30 12120 C 1173.73 -1.38855 1.3318 0
M  V30 12121 O 1173.03 -1.86399 0.443407 0
M  V30 12122 C 1173.22 -0.354159 3.55641 0
M  V30 12123 C 1173.05 0.90991 4.40398 0
M  V30 12124 C 1171.82 1.44852 4.84093 0
M  V30 12125 C 1174.02 1.80088 4.81739 0
M  V30 12126 N 1172 2.66331 5.53119 0
M  V30 12127 C 1173.37 2.86162 5.5001 0
M  V30 12128 C 1175.43 1.81321 4.6371 0
M  V30 12129 C 1174.13 3.93438 6.02162 0
M  V30 12130 C 1176.16 2.87543 5.16791 0
M  V30 12131 C 1175.52 3.92336 5.85023 0
M  V30 12132 H 1171.62 0.00370972 0.781991 0
M  V30 12133 H 1174.2 0.619376 1.84586 0
M  V30 12134 H 1172.37 -1.04069 3.74198 0
M  V30 12135 H 1174.1 -0.899976 3.94566 0
M  V30 12136 H 1170.86 0.999972 4.62923 0
M  V30 12137 H 1171.28 3.27978 5.92249 0
M  V30 12138 H 1175.92 1.01627 4.10404 0
M  V30 12139 H 1173.64 4.73959 6.54514 0
M  V30 12140 H 1177.23 2.8946 5.04682 0
M  V30 12141 H 1176.11 4.73178 6.25358 0
M  V30 12142 N 1173.61 -1.56489 0.186789 0
M  V30 12143 C 1175.02 -1.83809 -0.327265 0
M  V30 12144 C 1175.37 -1.10718 -1.61976 0
M  V30 12145 O 1174.5 -0.36525 -2.13295 0
M  V30 12146 C 1175.09 -3.33435 -0.600551 0
M  V30 12147 C 1173.65 -3.61195 -1.059 0
M  V30 12148 C 1172.8 -2.77108 -0.103131 0
M  V30 12149 H 1175.75 -1.53292 0.410747 0
M  V30 12150 H 1175.77 -3.51754 -1.45084 0
M  V30 12151 H 1175.28 -3.86605 0.340315 0
M  V30 12152 H 1173.38 -3.13451 -2.01443 0
M  V30 12153 H 1173.5 -4.69435 -0.957458 0
M  V30 12154 H 1171.86 -2.47448 -0.603449 0
M  V30 12155 H 1172.64 -3.33065 0.832031 0
M  V30 12156 N 1175.09 0.086862 -1.5736 0
M  V30 12157 C 1176.02 1.10538 -2.05678 0
M  V30 12158 C 1177 1.41281 -0.947293 0
M  V30 12159 O 1178.19 1.51169 -1.21908 0
M  V30 12160 C 1175.32 2.42302 -2.48812 0
M  V30 12161 C 1174.27 2.25948 -3.63499 0
M  V30 12162 C 1173.6 3.62961 -3.92637 0
M  V30 12163 C 1174.9 1.69319 -4.94094 0
M  V30 12164 H 1176.59 0.703371 -2.91021 0
M  V30 12165 H 1174.14 0.336895 -1.40004 0
M  V30 12166 H 1176.09 3.13833 -2.81224 0
M  V30 12167 H 1174.81 2.84454 -1.60479 0
M  V30 12168 H 1173.47 1.5686 -3.31347 0
M  V30 12169 H 1173.12 4.02656 -3.01459 0
M  V30 12170 H 1172.82 3.52862 -4.69853 0
M  V30 12171 H 1174.34 4.35946 -4.27531 0
M  V30 12172 H 1175.76 2.30699 -5.24834 0
M  V30 12173 H 1174.15 1.69957 -5.7553 0
M  V30 12174 H 1175.22 0.653318 -4.80479 0
M  V30 12175 N 1176.57 1.53483 0.357892 0
M  V30 12176 C 1177.5 1.83444 1.44466 0
M  V30 12177 C 1178.48 0.688486 1.55544 0
M  V30 12178 O 1179.66 0.93906 1.69986 0
M  V30 12179 C 1176.79 2.03122 2.81707 0
M  V30 12180 C 1175.75 3.1891 2.85448 0
M  V30 12181 C 1175.07 3.23895 4.25436 0
M  V30 12182 C 1176.37 4.57334 2.52275 0
M  V30 12183 H 1178.07 2.74456 1.19642 0
M  V30 12184 H 1175.61 1.3206 0.574112 0
M  V30 12185 H 1177.57 2.22666 3.57768 0
M  V30 12186 H 1176.29 1.08827 3.07935 0
M  V30 12187 H 1174.95 2.99199 2.11838 0
M  V30 12188 H 1174.6 2.27223 4.48753 0
M  V30 12189 H 1174.3 4.01694 4.28854 0
M  V30 12190 H 1175.82 3.45632 5.0336 0
M  V30 12191 H 1177.24 4.76988 3.1805 0
M  V30 12192 H 1175.63 5.37431 2.66998 0
M  V30 12193 H 1176.7 4.61921 1.47501 0
M  V30 12194 N 1178.05 -0.61812 1.44973 0
M  V30 12195 C 1178.98 -1.74035 1.55673 0
M  V30 12196 C 1179.96 -1.65112 0.4089 0
M  V30 12197 O 1181.14 -1.83673 0.630698 0
M  V30 12198 C 1178.27 -3.1261 1.51303 0
M  V30 12199 C 1177.23 -3.36334 2.64696 0
M  V30 12200 C 1176.55 -4.75072 2.45378 0
M  V30 12201 C 1177.85 -3.27618 4.06772 0
M  V30 12202 H 1179.55 -1.65336 2.49608 0
M  V30 12203 H 1177.09 -0.794003 1.20132 0
M  V30 12204 H 1179.04 -3.90906 1.57388 0
M  V30 12205 H 1177.77 -3.22123 0.538914 0
M  V30 12206 H 1176.43 -2.60423 2.58022 0
M  V30 12207 H 1176.08 -4.81306 1.46129 0
M  V30 12208 H 1175.78 -4.91903 3.21412 0
M  V30 12209 H 1177.3 -5.55582 2.53301 0
M  V30 12210 H 1178.71 -3.95802 4.14746 0
M  V30 12211 H 1177.11 -3.55981 4.83113 0
M  V30 12212 H 1178.18 -2.25219 4.29423 0
M  V30 12213 N 1179.52 -1.32087 -0.859693 0
M  V30 12214 C 1180.45 -1.23204 -1.98351 0
M  V30 12215 C 1181.43 -0.116974 -1.69697 0
M  V30 12216 O 1182.62 -0.303301 -1.91817 0
M  V30 12217 C 1179.75 -0.949171 -3.34078 0
M  V30 12218 C 1178.7 -2.02493 -3.77069 0
M  V30 12219 C 1178.03 -1.59455 -5.1037 0
M  V30 12220 C 1179.33 -3.43934 -3.93074 0
M  V30 12221 H 1181.02 -2.17227 -2.0604 0
M  V30 12222 H 1178.57 -1.04577 -0.989931 0
M  V30 12223 H 1180.52 -0.873594 -4.12245 0
M  V30 12224 H 1179.25 0.0267095 -3.26589 0
M  V30 12225 H 1177.91 -2.09057 -3.01149 0
M  V30 12226 H 1177.55 -0.606256 -4.99333 0
M  V30 12227 H 1177.25 -2.31429 -5.40106 0
M  V30 12228 H 1178.78 -1.53325 -5.91036 0
M  V30 12229 H 1180.19 -3.39986 -4.61608 0
M  V30 12230 H 1178.59 -4.14214 -4.3422 0
M  V30 12231 H 1179.66 -3.83965 -2.9614 0
M  V30 12232 N 1181 1.07532 -1.15215 0
M  V30 12233 C 1181.93 2.1668 -0.870171 0
M  V30 12234 C 1182.91 1.69161 0.178483 0
M  V30 12235 O 1184.1 1.94172 0.0332489 0
M  V30 12236 C 1181.23 3.45464 -0.356666 0
M  V30 12237 C 1180.18 4.06424 -1.34179 0
M  V30 12238 C 1179.51 5.30266 -0.687206 0
M  V30 12239 C 1180.81 4.46666 -2.70715 0
M  V30 12240 H 1182.5 2.40526 -1.7829 0
M  V30 12241 H 1180.05 1.15598 -0.858665 0
M  V30 12242 H 1182 4.21144 -0.146947 0
M  V30 12243 H 1180.72 3.21199 0.591527 0
M  V30 12244 H 1179.38 3.32786 -1.53783 0
M  V30 12245 H 1179.03 5.0229 0.267077 0
M  V30 12246 H 1178.73 5.72009 -1.34462 0
M  V30 12247 H 1180.26 6.08653 -0.487218 0
M  V30 12248 H 1181.67 5.13483 -2.54966 0
M  V30 12249 H 1180.07 4.99355 -3.32813 0
M  V30 12250 H 1181.14 3.58123 -3.26919 0
M  V30 12251 N 1182.48 0.948665 1.2585 0
M  V30 12252 C 1183.41 0.482036 2.2847 0
M  V30 12253 C 1184.39 -0.468553 1.63519 0
M  V30 12254 O 1185.58 -0.368796 1.90666 0
M  V30 12255 C 1182.71 -0.246603 3.46423 0
M  V30 12256 C 1181.66 0.61815 4.23513 0
M  V30 12257 C 1180.99 -0.240884 5.34157 0
M  V30 12258 C 1182.29 1.89327 4.86778 0
M  V30 12259 H 1183.98 1.33973 2.67753 0
M  V30 12260 H 1181.53 0.645645 1.28715 0
M  V30 12261 H 1183.48 -0.584135 4.17332 0
M  V30 12262 H 1182.2 -1.13849 3.06114 0
M  V30 12263 H 1180.86 0.938682 3.54379 0
M  V30 12264 H 1180.51 -1.13235 4.90089 0
M  V30 12265 H 1180.21 0.334367 5.86648 0
M  V30 12266 H 1181.73 -0.573517 6.07901 0
M  V30 12267 H 1183.15 1.62252 5.49861 0
M  V30 12268 H 1181.55 2.41369 5.49419 0
M  V30 12269 H 1182.62 2.60006 4.09298 0
M  V30 12270 N 1183.96 -1.40369 0.716545 0
M  V30 12271 C 1184.92 -2.29083 0.0733105 0
M  V30 12272 C 1185.92 -1.45415 -0.686378 0
M  V30 12273 O 1187.11 -1.66316 -0.518139 0
M  V30 12274 C 1184.24 -3.28639 -0.906032 0
M  V30 12275 H 1185.44 -2.87464 0.85467 0
M  V30 12276 H 1182.99 -1.48706 0.481256 0
M  V30 12277 H 1183.72 -2.75279 -1.71441 0
M  V30 12278 H 1183.51 -3.90405 -0.364163 0
M  V30 12279 H 1185 -3.95066 -1.35324 0
M  V30 12280 N 1185.44 -0.462799 -1.50652 0
M  V30 12281 C 1186.37 0.325724 -2.31217 0
M  V30 12282 C 1187.35 0.997942 -1.3775 0
M  V30 12283 O 1188.53 0.996707 -1.66671 0
M  V30 12284 C 1185.66 1.41283 -3.17264 0
M  V30 12285 C 1184.62 0.862687 -4.19216 0
M  V30 12286 C 1183.94 2.04746 -4.93946 0
M  V30 12287 C 1185.24 -0.120365 -5.22161 0
M  V30 12288 H 1186.94 -0.346666 -2.97386 0
M  V30 12289 H 1184.48 -0.168163 -1.43015 0
M  V30 12290 H 1186.44 1.97188 -3.72418 0
M  V30 12291 H 1185.16 2.11387 -2.48964 0
M  V30 12292 H 1183.82 0.325671 -3.65151 0
M  V30 12293 H 1183.47 2.73529 -4.22127 0
M  V30 12294 H 1183.17 1.68562 -5.62904 0
M  V30 12295 H 1184.69 2.61157 -5.51932 0
M  V30 12296 H 1186.1 0.349226 -5.72235 0
M  V30 12297 H 1184.5 -0.396061 -5.98792 0
M  V30 12298 H 1185.57 -1.04895 -4.73418 0
M  V30 12299 N 1186.91 1.56388 -0.195085 0
M  V30 12300 C 1188.33 1.8398 0.317513 0
M  V30 12301 C 1188.68 1.11575 1.61386 0
M  V30 12302 O 1187.8 0.376557 2.13099 0
M  V30 12303 C 1188.4 3.33749 0.582859 0
M  V30 12304 C 1186.96 3.61752 1.03983 0
M  V30 12305 C 1186.1 2.77159 0.088434 0
M  V30 12306 H 1189.05 1.53072 -0.418871 0
M  V30 12307 H 1189.07 3.52519 1.43216 0
M  V30 12308 H 1188.59 3.86419 -0.360813 0
M  V30 12309 H 1186.69 3.14515 1.99778 0
M  V30 12310 H 1186.8 4.69937 0.932549 0
M  V30 12311 H 1185.16 2.47765 0.590317 0
M  V30 12312 H 1185.95 3.32619 -0.849682 0
M  V30 12313 N 1188.39 -0.0785156 1.57404 0
M  V30 12314 C 1189.32 -1.12058 1.99939 0
M  V30 12315 C 1190.34 -1.35372 0.904343 0
M  V30 12316 O 1191.53 -1.33731 1.1823 0
M  V30 12317 C 1188.63 -2.47285 2.31739 0
M  V30 12318 C 1187.8 -2.44021 3.63005 0
M  V30 12319 C 1186.86 -3.61303 3.82552 0
M  V30 12320 O 1185.88 -3.43039 4.54217 0
M  V30 12321 N 1187.09 -4.81404 3.24392 0
M  V30 12322 H 1189.85 -0.758416 2.89945 0
M  V30 12323 H 1187.41 -0.267266 1.59679 0
M  V30 12324 H 1189.4 -3.24377 2.41995 0
M  V30 12325 H 1187.97 -2.75529 1.47657 0
M  V30 12326 H 1187.19 -1.52361 3.63565 0
M  V30 12327 H 1188.48 -2.38934 4.49208 0
M  V30 12328 H 1187.88 -4.99147 2.66211 0
M  V30 12329 H 1186.44 -5.56031 3.40107 0
M  V30 12330 N 1189.87 -1.5367 -0.349747 0
M  V30 12331 C 1191.29 -1.43796 -0.692457 0
M  V30 12332 C 1191.49 -0.58972 -1.92677 0
M  V30 12333 O 1190.54 -0.078294 -2.52379 0
M  V30 12334 C 1191.86 -2.872 -0.890881 0
M  V30 12335 C 1193.4 -2.96935 -0.989892 0
M  V30 12336 C 1193.88 -4.41433 -1.22068 0
M  V30 12337 N 1195.37 -4.44932 -1.28802 0
M  V30 12338 C 1196.1 -5.53864 -1.48398 0
M  V30 12339 N 1195.6 -6.72814 -1.65208 0
M  V30 12340 N 1197.39 -5.41467 -1.50896 0
M  V30 12341 H 1189.54 -2.07317 0.461895 0
M  V30 12342 H 1191.81 -0.936895 0.144681 0
M  V30 12343 H 1191.51 -3.51656 -0.0555095 0
M  V30 12344 H 1191.39 -3.31784 -1.79442 0
M  V30 12345 H 1193.77 -2.32622 -1.81579 0
M  V30 12346 H 1193.86 -2.55721 -0.0633906 0
M  V30 12347 H 1193.5 -5.06325 -0.399729 0
M  V30 12348 H 1193.43 -4.80233 -2.16064 0
M  V30 12349 H 1195.92 -3.59214 -1.17361 0
M  V30 12350 H 1196.23 -7.51598 -1.79779 0
M  V30 12351 H 1194.58 -6.7577 -1.62356 0
M  V30 12352 H 1197.77 -4.47498 -1.37342 0
M  V30 12353 H 1197.94 -6.26423 -1.65826 0
M  V30 12354 N 1191.35 0.610423 -1.45298 0
M  V30 12355 C 1192.31 1.70324 -1.5337 0
M  V30 12356 C 1193.31 1.55393 -0.413492 0
M  V30 12357 O 1194.5 1.60512 -0.676872 0
M  V30 12358 C 1191.63 3.09572 -1.42752 0
M  V30 12359 H 1192.83 1.64535 -2.50736 0
M  V30 12360 H 1190.38 0.825906 -1.32697 0
M  V30 12361 H 1191.11 3.2094 -0.465601 0
M  V30 12362 H 1190.9 3.21817 -2.24 0
M  V30 12363 H 1192.39 3.89178 -1.51427 0
M  V30 12364 N 1192.83 1.32541 0.852676 0
M  V30 12365 C 1194.06 1.26037 1.63702 0
M  V30 12366 C 1194.46 -0.173583 1.88402 0
M  V30 12367 O 1193.81 -1.12175 1.45473 0
M  V30 12368 C 1193.87 1.95245 3.01861 0
M  V30 12369 C 1193.53 3.44576 3.00193 0
M  V30 12370 C 1194.53 4.40026 2.76899 0
M  V30 12371 C 1192.22 3.86541 3.20766 0
M  V30 12372 C 1194.21 5.75414 2.74185 0
M  V30 12373 C 1191.9 5.22038 3.17678 0
M  V30 12374 C 1192.89 6.16286 2.94416 0
M  V30 12375 O 1192.58 7.49303 2.91206 0
M  V30 12376 H 1192.31 0.436073 0.516543 0
M  V30 12377 H 1194.87 1.75251 1.07127 0
M  V30 12378 H 1193.1 1.40603 3.60233 0
M  V30 12379 H 1194.79 1.82423 3.62597 0
M  V30 12380 H 1195.55 4.0893 2.6077 0
M  V30 12381 H 1191.43 3.13603 3.37897 0
M  V30 12382 H 1194.98 6.4895 2.55947 0
M  V30 12383 H 1190.87 5.52762 3.33353 0
M  V30 12384 H 1191.64 7.58686 3.07146 0
M  V30 12385 N 1194.3 -1.0692 1.15784 0
M  V30 12386 C 1195.27 -2.12407 0.861167 0
M  V30 12387 C 1196.27 -1.6018 -0.141031 0
M  V30 12388 O 1197.46 -1.73972 0.0891192 0
M  V30 12389 C 1194.59 -3.39693 0.286636 0
M  V30 12390 H 1195.78 -2.40157 1.79623 0
M  V30 12391 H 1193.34 -1.22881 0.965916 0
M  V30 12392 H 1194.07 -3.17587 -0.656417 0
M  V30 12393 H 1193.86 -3.78903 1.0087 0
M  V30 12394 H 1195.35 -4.17488 0.0967971 0
M  V30 12395 N 1195.78 -0.955326 -1.25345 0
M  V30 12396 C 1196.71 -0.494145 -2.28211 0
M  V30 12397 C 1197.69 0.459875 -1.63766 0
M  V30 12398 O 1198.88 0.358679 -1.90859 0
M  V30 12399 C 1196.01 0.228228 -3.46549 0
M  V30 12400 C 1194.96 -0.640601 -4.23179 0
M  V30 12401 C 1194.29 0.212553 -5.34277 0
M  V30 12402 C 1195.59 -1.91906 -4.85767 0
M  V30 12403 H 1197.28 -1.35391 -2.67039 0
M  V30 12404 H 1194.83 -0.652462 -1.2837 0
M  V30 12405 H 1196.78 0.561995 -4.17636 0
M  V30 12406 H 1195.51 1.12224 -3.06714 0
M  V30 12407 H 1194.16 -0.957462 -3.53876 0
M  V30 12408 H 1193.81 1.10634 -4.90682 0
M  V30 12409 H 1193.51 -0.365473 -5.86462 0
M  V30 12410 H 1195.04 0.541271 -6.08196 0
M  V30 12411 H 1196.45 -1.65165 -5.48993 0
M  V30 12412 H 1194.85 -2.44279 -5.48131 0
M  V30 12413 H 1195.92 -2.62173 -4.07914 0
M  V30 12414 N 1197.26 1.39987 -0.723979 0
M  V30 12415 C 1198.54 1.94637 -0.1939 0
M  V30 12416 C 1198.92 1.66156 1.30212 0
M  V30 12417 O 1198.27 0.983783 2.06238 0
M  V30 12418 C 1198.48 3.4517 -0.515652 0
M  V30 12419 C 1199.82 4.22113 -0.458919 0
M  V30 12420 O 1200.85 3.53318 -0.452198 0
M  V30 12421 O 1199.71 5.44695 -0.443783 0
M  V30 12422 H 1196.8 0.826394 -0.0316615 0
M  V30 12423 H 1199.35 1.49548 -0.802085 0
M  V30 12424 H 1198.12 3.5929 -1.55004 0
M  V30 12425 H 1197.74 3.97413 0.122067 0
M  V30 12426 N 1198.74 0.470782 1.50404 0
M  V30 12427 C 1199.97 -0.0820134 2.06737 0
M  V30 12428 C 1200.38 -1.33535 1.33468 0
M  V30 12429 O 1199.74 -1.77975 0.403872 0
M  V30 12430 C 1199.79 -0.370427 3.59597 0
M  V30 12431 O 1199.51 0.8332 4.30104 0
M  V30 12432 C 1201.01 -0.970222 4.32552 0
M  V30 12433 H 1198.23 0.00694502 0.670964 0
M  V30 12434 H 1200.78 0.659476 1.93575 0
M  V30 12435 H 1198.93 -1.06185 3.72563 0
M  V30 12436 H 1199.35 0.577614 5.2131 0
M  V30 12437 H 1200.82 -1.1218 5.40481 0
M  V30 12438 H 1201.3 -1.96024 3.93028 0
M  V30 12439 H 1201.9 -0.31719 4.24116 0
M  V30 12440 N 1200.22 -1.56282 0.203376 0
M  V30 12441 C 1201.13 -2.23086 -0.725922 0
M  V30 12442 C 1202.14 -1.23258 -1.22814 0
M  V30 12443 O 1203.32 -1.5602 -1.27357 0
M  V30 12444 C 1200.38 -2.88358 -1.92485 0
M  V30 12445 C 1199.45 -4.03479 -1.46639 0
M  V30 12446 C 1198.68 -4.65629 -2.60816 0
M  V30 12447 O 1198.9 -4.2672 -3.78506 0
M  V30 12448 O 1197.84 -5.54949 -2.33056 0
M  V30 12449 H 1201.66 -3.03124 -0.18694 0
M  V30 12450 H 1199.25 -1.49377 -0.0262829 0
M  V30 12451 H 1201.13 -3.29623 -2.62539 0
M  V30 12452 H 1199.8 -2.11294 -2.45228 0
M  V30 12453 H 1198.71 -3.66821 -0.734396 0
M  V30 12454 H 1200.04 -4.82232 -0.985535 0
M  V30 12455 N 1201.7 0.070167 -1.57444 0
M  V30 12456 C 1202.94 0.770153 -1.87607 0
M  V30 12457 C 1203.27 1.77143 -0.795875 0
M  V30 12458 O 1202.55 1.93533 0.193674 0
M  V30 12459 C 1202.83 1.47668 -3.2843 0
M  V30 12460 C 1202.69 0.491712 -4.47104 0
M  V30 12461 C 1204 2.42118 -3.67514 0
M  V30 12462 H 1201.12 0.278519 -0.682346 0
M  V30 12463 H 1203.77 0.0333184 -1.89971 0
M  V30 12464 H 1201.92 2.10476 -3.26546 0
M  V30 12465 H 1203.59 -0.131283 -4.61113 0
M  V30 12466 H 1201.83 -0.192817 -4.33371 0
M  V30 12467 H 1202.5 1.02372 -5.42424 0
M  V30 12468 H 1204.98 1.89387 -3.70502 0
M  V30 12469 H 1203.85 2.88556 -4.66933 0
M  V30 12470 H 1204.11 3.26995 -2.97534 0
M  V30 12471 N 1203.17 1.53854 0.341593 0
M  V30 12472 C 1204.14 1.8128 1.40251 0
M  V30 12473 C 1205.14 0.683915 1.45531 0
M  V30 12474 O 1206.33 0.952202 1.45872 0
M  V30 12475 C 1203.46 1.95658 2.79161 0
M  V30 12476 H 1204.65 2.76053 1.17195 0
M  V30 12477 H 1202.2 1.45296 0.57609 0
M  V30 12478 H 1202.94 1.03034 3.07497 0
M  V30 12479 H 1202.72 2.77788 2.76724 0
M  V30 12480 H 1204.21 2.18387 3.55945 0
M  V30 12481 N 1204.65 -0.602709 1.4562 0
M  V30 12482 C 1205.61 -1.69508 1.54271 0
M  V30 12483 C 1206.61 -1.55171 0.421727 0
M  V30 12484 O 1207.8 -1.60151 0.685375 0
M  V30 12485 C 1204.94 -3.0881 1.44392 0
M  V30 12486 H 1206.13 -1.63203 2.51605 0
M  V30 12487 H 1203.68 -0.818857 1.33133 0
M  V30 12488 H 1204.42 -3.20689 0.482614 0
M  V30 12489 H 1204.2 -3.20625 2.25704 0
M  V30 12490 H 1205.69 -3.8837 1.53488 0
M  V30 12491 N 1206.13 -1.32992 -0.845635 0
M  V30 12492 C 1207.35 -1.27231 -1.6379 0
M  V30 12493 C 1207.78 0.155141 -1.87459 0
M  V30 12494 O 1207.14 1.10953 -1.43384 0
M  V30 12495 C 1207.19 -2.04629 -2.96916 0
M  V30 12496 O 1206.29 -1.40027 -3.879 0
M  V30 12497 H 1205.63 -0.438045 -0.499011 0
M  V30 12498 H 1208.16 -1.75448 -1.05257 0
M  V30 12499 H 1208.17 -2.15141 -3.46667 0
M  V30 12500 H 1206.85 -3.08425 -2.79011 0
M  V30 12501 H 1205.42 -1.38118 -3.46378 0
M  V30 12502 N 1207.61 1.06304 -1.1635 0
M  V30 12503 C 1208.85 1.80686 -0.955614 0
M  V30 12504 C 1209.21 1.85171 0.507525 0
M  V30 12505 O 1210.41 2.55531 0.834103 0
M  V30 12506 C 1208.68 3.21276 -1.56577 0
M  V30 12507 S 1210.24 4.12274 -1.50251 0
M  V30 12508 H 1207.06 0.622426 -0.343666 0
M  V30 12509 H 1209.66 1.27628 -1.48092 0
M  V30 12510 H 1208.37 3.15607 -2.62336 0
M  V30 12511 H 1207.9 3.7941 -1.03978 0
M  V30 12512 H 1209.91 4.93647 -0.502703 0
M  V30 12513 N 1209.09 0.96196 1.24836 0
M  V30 12514 C 1210.33 0.619489 1.92371 0
M  V30 12515 C 1210.65 -0.847233 1.75633 0
M  V30 12516 O 1209.92 -1.60419 1.12439 0
M  V30 12517 H 1208.5 0.226129 0.711951 0
M  V30 12518 H 1211.17 1.22179 1.5185 0
M  V30 12519 H 1210.26 0.855128 3.00157 0
M  V30 12520 N 1210.56 -1.39601 0.731392 0
M  V30 12521 C 1211.81 -2.0019 0.277208 0
M  V30 12522 C 1212.13 -1.5832 -1.13841 0
M  V30 12523 O 1211.4 -0.829793 -1.77458 0
M  V30 12524 H 1209.98 -0.740344 0.0995006 0
M  V30 12525 H 1212.64 -1.70704 0.940547 0
M  V30 12526 H 1211.74 -3.10427 0.322749 0
M  V30 12527 N 1212.04 -0.478751 -1.50152 0
M  V30 12528 C 1213.29 0.073694 -2.02666 0
M  V30 12529 C 1213.62 1.38679 -1.35947 0
M  V30 12530 O 1212.9 1.88286 -0.4877 0
M  V30 12531 C 1213.18 0.249516 -3.59235 0
M  V30 12532 C 1213.03 -1.08514 -4.36514 0
M  V30 12533 C 1214.35 1.00053 -4.28576 0
M  V30 12534 H 1211.47 0.0253082 -0.736565 0
M  V30 12535 H 1214.11 -0.625834 -1.79397 0
M  V30 12536 H 1212.26 0.845343 -3.79192 0
M  V30 12537 H 1213.93 -1.71814 -4.28109 0
M  V30 12538 H 1212.18 -1.67992 -3.99952 0
M  V30 12539 H 1212.85 -0.915676 -5.44352 0
M  V30 12540 H 1215.32 0.495422 -4.1314 0
M  V30 12541 H 1214.2 1.09236 -5.37921 0
M  V30 12542 H 1214.46 2.03896 -3.92274 0
M  V30 12543 N 1213.52 1.56172 -0.211661 0
M  V30 12544 C 1214.77 1.98332 0.423332 0
M  V30 12545 C 1215.1 1.09895 1.60115 0
M  V30 12546 O 1214.37 0.154477 1.93886 0
M  V30 12547 C 1214.66 3.49495 0.86747 0
M  V30 12548 C 1214.51 4.48708 -0.313302 0
M  V30 12549 C 1215.83 4.04793 1.72716 0
M  V30 12550 H 1212.95 0.72107 0.152402 0
M  V30 12551 H 1215.59 1.87521 -0.305912 0
M  V30 12552 H 1213.74 3.58839 1.48885 0
M  V30 12553 H 1215.41 4.51385 -0.951291 0
M  V30 12554 H 1213.66 4.2299 -0.96238 0
M  V30 12555 H 1214.33 5.51985 0.0402402 0
M  V30 12556 H 1216.8 3.98332 1.20296 0
M  V30 12557 H 1215.68 5.10898 2.00684 0
M  V30 12558 H 1215.94 3.51067 2.68709 0
M  V30 12559 N 1215 -0.0618163 1.57479 0
M  V30 12560 C 1215.93 -1.07252 2.07411 0
M  V30 12561 C 1216.91 -1.39756 0.969649 0
M  V30 12562 O 1218.09 -1.4921 1.24298 0
M  V30 12563 C 1215.22 -2.38313 2.52635 0
M  V30 12564 C 1214.18 -2.20136 3.67048 0
M  V30 12565 C 1213.5 -3.56668 3.98361 0
M  V30 12566 C 1214.8 -1.61437 4.96725 0
M  V30 12567 H 1216.5 -0.656983 2.92103 0
M  V30 12568 H 1214.04 -0.314579 1.40522 0
M  V30 12569 H 1216 -3.09319 2.86181 0
M  V30 12570 H 1214.72 -2.81865 1.64984 0
M  V30 12571 H 1213.38 -1.51569 3.338 0
M  V30 12572 H 1213.03 -3.97809 3.07826 0
M  V30 12573 H 1212.73 -3.45342 4.75408 0
M  V30 12574 H 1214.25 -4.2909 4.34413 0
M  V30 12575 H 1215.67 -2.2232 5.28438 0
M  V30 12576 H 1214.06 -1.60779 5.78161 0
M  V30 12577 H 1215.13 -0.576795 4.81457 0
M  V30 12578 N 1216.48 -1.54033 -0.333429 0
M  V30 12579 C 1217.72 -1.72019 -1.07411 0
M  V30 12580 C 1218.06 -0.487265 -1.87988 0
M  V30 12581 O 1217.33 0.515757 -1.87537 0
M  V30 12582 C 1217.61 -2.98986 -2.00698 0
M  V30 12583 C 1217.47 -4.32509 -1.23517 0
M  V30 12584 C 1218.79 -3.21663 -3.00368 0
M  V30 12585 H 1215.9 -0.625919 -0.389094 0
M  V30 12586 H 1218.55 -1.86717 -0.351697 0
M  V30 12587 H 1216.7 -2.86586 -2.62298 0
M  V30 12588 H 1218.37 -4.56775 -0.644522 0
M  V30 12589 H 1216.61 -4.3046 -0.537298 0
M  V30 12590 H 1217.28 -5.17547 -1.91962 0
M  V30 12591 H 1219.76 -3.33459 -2.48886 0
M  V30 12592 H 1218.63 -4.11877 -3.62834 0
M  V30 12593 H 1218.9 -2.3843 -3.72295 0
M  V30 12594 N 1217.95 0.594978 -1.45938 0
M  V30 12595 C 1219.2 1.35093 -1.50314 0
M  V30 12596 C 1219.52 1.94412 -0.151315 0
M  V30 12597 O 1218.79 1.77876 0.820787 0
M  V30 12598 H 1217.37 0.501549 -0.553586 0
M  V30 12599 H 1220.04 0.697735 -1.81983 0
M  V30 12600 H 1219.13 2.16393 -2.24901 0
M  V30 12601 N 1219.43 1.33438 0.838571 0
M  V30 12602 C 1220.36 1.26344 1.96365 0
M  V30 12603 C 1221.34 0.143956 1.6949 0
M  V30 12604 O 1222.53 0.333779 1.9131 0
M  V30 12605 C 1219.66 1.0022 3.32526 0
M  V30 12606 C 1218.61 2.08466 3.73799 0
M  V30 12607 C 1217.94 1.67555 5.07769 0
M  V30 12608 C 1219.24 3.50144 3.87552 0
M  V30 12609 H 1220.93 2.20478 2.02558 0
M  V30 12610 H 1218.48 1.06139 0.973168 0
M  V30 12611 H 1220.43 0.939068 4.10803 0
M  V30 12612 H 1219.16 0.0252514 3.2659 0
M  V30 12613 H 1217.81 2.13822 2.97785 0
M  V30 12614 H 1217.46 0.685619 4.98305 0
M  V30 12615 H 1217.16 2.39993 5.36356 0
M  V30 12616 H 1218.69 1.62708 5.88522 0
M  V30 12617 H 1220.1 3.47287 4.56141 0
M  V30 12618 H 1218.5 4.21069 4.27575 0
M  V30 12619 H 1219.57 3.88628 2.89994 0
M  V30 12620 N 1220.91 -1.05686 1.16912 0
M  V30 12621 C 1221.84 -2.12775 0.824755 0
M  V30 12622 C 1222.82 -1.61286 -0.206289 0
M  V30 12623 O 1224.01 -1.8829 -0.0889616 0
M  V30 12624 C 1221.13 -3.37922 0.229422 0
M  V30 12625 C 1220.18 -4.08226 1.23506 0
M  V30 12626 S 1221.01 -4.57424 2.78431 0
M  V30 12627 C 1222.17 -5.85825 2.20364 0
M  V30 12628 H 1222.4 -2.41657 1.73174 0
M  V30 12629 H 1219.93 -1.18212 0.99324 0
M  V30 12630 H 1221.89 -4.10359 -0.107588 0
M  V30 12631 H 1220.55 -3.07186 -0.655424 0
M  V30 12632 H 1219.75 -4.98129 0.767059 0
M  V30 12633 H 1219.35 -3.41832 1.51747 0
M  V30 12634 H 1221.64 -6.58912 1.57611 0
M  V30 12635 H 1222.58 -6.37364 3.08501 0
M  V30 12636 H 1222.99 -5.4015 1.64008 0
M  V30 12637 N 1222.39 -0.968567 -1.24324 0
M  V30 12638 C 1223.35 -0.504307 -2.23583 0
M  V30 12639 C 1224.35 0.399626 -1.55755 0
M  V30 12640 O 1225.54 0.194966 -1.73106 0
M  V30 12641 C 1222.67 0.26956 -3.39833 0
M  V30 12642 H 1223.87 -1.3818 -2.6617 0
M  V30 12643 H 1221.42 -0.753241 -1.36952 0
M  V30 12644 H 1222.15 1.16411 -3.02686 0
M  V30 12645 H 1221.94 -0.379133 -3.90263 0
M  V30 12646 H 1223.43 0.583376 -4.13505 0
M  V30 12647 N 1223.87 1.39211 -0.738786 0
M  V30 12648 C 1224.8 2.33209 -0.11647 0
M  V30 12649 C 1225.78 1.54108 0.720056 0
M  V30 12650 O 1226.96 1.82486 0.664264 0
M  V30 12651 C 1224.09 3.38226 0.78872 0
M  V30 12652 C 1223.05 4.27963 0.0560636 0
M  V30 12653 C 1222.37 5.2371 1.07852 0
M  V30 12654 C 1223.67 5.10508 -1.1036 0
M  V30 12655 H 1225.37 2.85501 -0.901649 0
M  V30 12656 H 1222.91 1.37272 -0.435032 0
M  V30 12657 H 1224.87 4.02938 1.23364 0
M  V30 12658 H 1223.59 2.84382 1.60606 0
M  V30 12659 H 1222.25 3.64735 -0.369274 0
M  V30 12660 H 1221.9 4.66161 1.88953 0
M  V30 12661 H 1221.6 5.846 0.593048 0
M  V30 12662 H 1223.12 5.91299 1.52307 0
M  V30 12663 H 1224.53 5.68544 -0.736943 0
M  V30 12664 H 1222.93 5.80558 -1.51895 0
M  V30 12665 H 1224 4.45117 -1.92352 0
M  V30 12666 N 1225.34 0.486708 1.49896 0
M  V30 12667 C 1226.57 -0.0600816 2.06813 0
M  V30 12668 C 1226.99 -1.32112 1.34877 0
M  V30 12669 O 1226.34 -1.77537 0.422725 0
M  V30 12670 C 1226.4 -0.332266 3.5997 0
M  V30 12671 O 1226.12 0.878771 4.29196 0
M  V30 12672 C 1227.62 -0.924289 4.33557 0
M  V30 12673 H 1224.84 0.0140611 0.670853 0
M  V30 12674 H 1227.38 0.67997 1.92864 0
M  V30 12675 H 1225.54 -1.02227 3.73669 0
M  V30 12676 H 1225.95 0.632873 5.20668 0
M  V30 12677 H 1227.42 -1.06441 5.4164 0
M  V30 12678 H 1227.9 -1.91844 3.95085 0
M  V30 12679 H 1228.51 -0.272189 4.24428 0
M  V30 12680 N 1226.82 -1.56058 0.219941 0
M  V30 12681 C 1227.75 -2.2321 -0.685547 0
M  V30 12682 C 1228.73 -1.20328 -1.20229 0
M  V30 12683 O 1229.92 -1.48909 -1.24659 0
M  V30 12684 C 1227.05 -2.91076 -1.89452 0
M  V30 12685 C 1226 -4.00415 -1.51169 0
M  V30 12686 C 1225.33 -4.55569 -2.79931 0
M  V30 12687 C 1226.63 -5.17549 -0.702896 0
M  V30 12688 H 1228.32 -2.99136 -0.125671 0
M  V30 12689 H 1225.87 -1.43879 -0.0590043 0
M  V30 12690 H 1227.82 -3.36744 -2.53341 0
M  V30 12691 H 1226.55 -2.12594 -2.47934 0
M  V30 12692 H 1225.21 -3.55475 -0.896275 0
M  V30 12693 H 1224.85 -3.73819 -3.36553 0
M  V30 12694 H 1224.55 -5.29361 -2.55049 0
M  V30 12695 H 1226.08 -5.03955 -3.44764 0
M  V30 12696 H 1227.49 -5.59608 -1.24544 0
M  V30 12697 H 1225.89 -5.97563 -0.551234 0
M  V30 12698 H 1226.96 -4.84027 0.29083 0
M  V30 12699 N 1228.3 0.053464 -1.57509 0
M  V30 12700 C 1229.53 0.765301 -1.92764 0
M  V30 12701 C 1229.95 1.69385 -0.817943 0
M  V30 12702 O 1229.31 1.7986 0.228075 0
M  V30 12703 C 1229.36 1.51938 -3.27028 0
M  V30 12704 O 1228.46 2.63121 -3.17555 0
M  V30 12705 H 1227.8 0.207567 -0.630723 0
M  V30 12706 H 1230.33 0.0162254 -2.04594 0
M  V30 12707 H 1230.34 1.89466 -3.6134 0
M  V30 12708 H 1229.02 0.838207 -4.07366 0
M  V30 12709 H 1227.59 2.28316 -2.94832 0
M  V30 12710 N 1229.78 1.54207 0.325255 0
M  V30 12711 C 1231.19 1.63587 0.899793 0
M  V30 12712 C 1231.54 0.528851 1.88938 0
M  V30 12713 O 1230.67 -0.33852 2.13736 0
M  V30 12714 C 1231.26 2.9653 1.63877 0
M  V30 12715 C 1229.82 3.08111 2.16205 0
M  V30 12716 C 1228.97 2.59144 0.986903 0
M  V30 12717 H 1231.92 1.58366 0.102883 0
M  V30 12718 H 1231.94 2.86595 2.50287 0
M  V30 12719 H 1231.45 3.7708 0.918279 0
M  V30 12720 H 1229.55 2.32232 2.91375 0
M  V30 12721 H 1229.67 4.13885 2.41322 0
M  V30 12722 H 1228.03 2.14997 1.36558 0
M  V30 12723 H 1228.81 3.4215 0.28076 0
M  V30 12724 N 1231.26 -0.58723 1.46251 0
M  V30 12725 C 1232.49 -1.36976 1.54665 0
M  V30 12726 C 1232.9 -1.88293 0.185079 0
M  V30 12727 O 1232.24 -1.64028 -0.82707 0
M  V30 12728 C 1232.3 -2.59591 2.48702 0
M  V30 12729 C 1231.96 -2.29773 3.95036 0
M  V30 12730 C 1232.96 -1.88885 4.84374 0
M  V30 12731 C 1230.65 -2.42057 4.40129 0
M  V30 12732 C 1232.64 -1.60669 6.16818 0
M  V30 12733 C 1230.33 -2.13454 5.72609 0
M  V30 12734 C 1231.33 -1.72824 6.60773 0
M  V30 12735 O 1231.01 -1.44569 7.90794 0
M  V30 12736 H 1230.75 -0.424968 0.525717 0
M  V30 12737 H 1233.3 -0.721298 1.92319 0
M  V30 12738 H 1231.53 -3.27226 2.06058 0
M  V30 12739 H 1233.22 -3.21656 2.47573 0
M  V30 12740 H 1233.98 -1.78913 4.50794 0
M  V30 12741 H 1229.86 -2.72644 3.71734 0
M  V30 12742 H 1233.41 -1.28882 6.85591 0
M  V30 12743 H 1229.3 -2.23048 6.05739 0
M  V30 12744 H 1230.07 -1.58452 8.03016 0
M  V30 12745 N 1232.74 -1.33881 -0.831482 0
M  V30 12746 C 1233.97 -1.28625 -1.61676 0
M  V30 12747 C 1234.37 0.143588 -1.88654 0
M  V30 12748 O 1233.72 1.09847 -1.47239 0
M  V30 12749 C 1233.78 -2.00022 -2.98716 0
M  V30 12750 C 1233.44 -3.49309 -2.94674 0
M  V30 12751 C 1234.44 -4.44375 -2.69864 0
M  V30 12752 C 1232.12 -3.91596 -3.14576 0
M  V30 12753 C 1234.12 -5.79703 -2.64996 0
M  V30 12754 C 1231.81 -5.27026 -3.09333 0
M  V30 12755 C 1232.8 -6.20892 -2.84575 0
M  V30 12756 O 1232.49 -7.53841 -2.79248 0
M  V30 12757 H 1232.22 -0.444235 -0.50954 0
M  V30 12758 H 1234.78 -1.76933 -1.04326 0
M  V30 12759 H 1233.01 -1.46316 -3.57951 0
M  V30 12760 H 1234.7 -1.88168 -3.59649 0
M  V30 12761 H 1235.46 -4.13027 -2.54231 0
M  V30 12762 H 1231.34 -3.18938 -3.32865 0
M  V30 12763 H 1234.89 -6.5294 -2.45591 0
M  V30 12764 H 1230.78 -5.57996 -3.24516 0
M  V30 12765 H 1231.55 -7.63476 -2.95037 0
M  V30 12766 N 1234.21 1.05064 -1.1747 0
M  V30 12767 C 1235.16 2.12841 -0.89259 0
M  V30 12768 C 1236.13 1.65288 0.16402 0
M  V30 12769 O 1237.32 1.90782 0.026537 0
M  V30 12770 C 1234.46 3.42614 -0.41344 0
M  V30 12771 C 1233.57 4.03835 -1.53432 0
M  V30 12772 C 1232.7 5.21531 -1.00891 0
M  V30 12773 C 1231.74 5.74761 -2.10515 0
M  V30 12774 N 1230.88 6.83756 -1.59442 0
M  V30 12775 H 1235.72 2.36312 -1.81551 0
M  V30 12776 H 1233.26 1.15929 -0.905483 0
M  V30 12777 H 1235.21 4.17035 -0.117181 0
M  V30 12778 H 1233.84 3.19323 0.472517 0
M  V30 12779 H 1232.9 3.2684 -1.94627 0
M  V30 12780 H 1234.21 4.3938 -2.36108 0
M  V30 12781 H 1233.36 6.03027 -0.666575 0
M  V30 12782 H 1232.1 4.87464 -0.151608 0
M  V30 12783 H 1231.11 4.91893 -2.45604 0
M  V30 12784 H 1232.33 6.10875 -2.96663 0
M  V30 12785 H 1230.28 6.51584 -0.759849 0
M  V30 12786 H 1230.19 7.18311 -2.35724 0
M  V30 12787 H 1231.46 7.68901 -1.28105 0
M  V30 12788 N 1235.69 0.975146 1.23809 0
M  V30 12789 C 1237.11 0.682899 1.44252 0
M  V30 12790 C 1237.31 -0.752739 1.86912 0
M  V30 12791 O 1236.36 -1.52579 2.01186 0
M  V30 12792 C 1237.68 1.67335 2.49839 0
M  V30 12793 C 1239.22 1.6868 2.63659 0
M  V30 12794 C 1239.7 2.66542 3.72451 0
M  V30 12795 N 1241.19 2.65028 3.79887 0
M  V30 12796 C 1241.93 3.37421 4.63611 0
M  V30 12797 N 1241.42 4.19355 5.51465 0
M  V30 12798 N 1243.21 3.2621 4.57759 0
M  V30 12799 H 1235.37 1.9026 0.94418 0
M  V30 12800 H 1237.63 0.819543 0.476502 0
M  V30 12801 H 1237.33 2.69978 2.25399 0
M  V30 12802 H 1237.21 1.45201 3.48133 0
M  V30 12803 H 1239.6 0.667438 2.87453 0
M  V30 12804 H 1239.68 1.94878 1.65699 0
M  V30 12805 H 1239.32 3.68617 3.49405 0
M  V30 12806 H 1239.25 2.3762 4.69941 0
M  V30 12807 H 1241.74 2.05562 3.171 0
M  V30 12808 H 1242.05 4.71461 6.12327 0
M  V30 12809 H 1240.4 4.23447 5.51106 0
M  V30 12810 H 1243.59 2.61656 3.88142 0
M  V30 12811 H 1243.76 3.82889 5.22781 0
M  V30 12812 N 1237.17 -1.38817 0.746158 0
M  V30 12813 C 1238.4 -2.04274 0.309156 0
M  V30 12814 C 1238.81 -1.56389 -1.06486 0
M  V30 12815 O 1238.15 -0.728875 -1.68621 0
M  V30 12816 C 1238.21 -3.58664 0.245003 0
M  V30 12817 C 1237.88 -4.29574 1.55933 0
M  V30 12818 C 1238.87 -4.55454 2.50714 0
M  V30 12819 C 1236.56 -4.67907 1.82671 0
M  V30 12820 C 1238.55 -5.18691 3.70458 0
M  V30 12821 C 1236.24 -5.30869 3.0269 0
M  V30 12822 C 1237.24 -5.56195 3.96404 0
M  V30 12823 O 1236.93 -6.17848 5.14314 0
M  V30 12824 H 1236.66 -0.663162 0.131121 0
M  V30 12825 H 1239.21 -1.78636 1.01382 0
M  V30 12826 H 1237.44 -3.83244 -0.515847 0
M  V30 12827 H 1239.13 -4.05579 -0.16149 0
M  V30 12828 H 1239.9 -4.26276 2.3133 0
M  V30 12829 H 1235.78 -4.47544 1.10568 0
M  V30 12830 H 1239.32 -5.38375 4.4362 0
M  V30 12831 H 1235.22 -5.59469 3.2197 0
M  V30 12832 H 1235.98 -6.36338 5.14797 0
M  V30 12833 N 1238.65 -0.49465 -1.49636 0
M  V30 12834 C 1239.9 0.0539277 -2.01628 0
M  V30 12835 C 1240.21 1.38634 -1.37986 0
M  V30 12836 O 1241.42 2.02123 -1.81269 0
M  V30 12837 C 1239.87 0.146582 -3.59601 0
M  V30 12838 C 1239.48 -1.1788 -4.32213 0
M  V30 12839 C 1241.22 0.645862 -4.19558 0
M  V30 12840 C 1239.13 -1.04866 -5.82028 0
M  V30 12841 H 1238.06 0.0239278 -0.75362 0
M  V30 12842 H 1240.71 -0.633112 -1.72232 0
M  V30 12843 H 1239.09 0.897931 -3.85685 0
M  V30 12844 H 1240.27 -1.94295 -4.17835 0
M  V30 12845 H 1238.58 -1.61102 -3.83973 0
M  V30 12846 H 1241.18 0.76064 -5.29262 0
M  V30 12847 H 1241.52 1.64313 -3.82501 0
M  V30 12848 H 1242.06 -0.04877 -3.9777 0
M  V30 12849 H 1238.79 -2.02 -6.23599 0
M  V30 12850 H 1238.31 -0.325293 -5.98917 0
M  V30 12851 H 1239.99 -0.724799 -6.42927 0
M  V30 12852 N 1240.13 1.55939 -0.228214 0
M  V30 12853 C 1241.35 2.0332 0.409364 0
M  V30 12854 C 1241.78 1.10683 1.52088 0
M  V30 12855 O 1241.13 0.0962484 1.81044 0
M  V30 12856 C 1241.18 3.48877 0.911981 0
M  V30 12857 O 1240.29 3.59378 2.02289 0
M  V30 12858 H 1239.63 0.657625 0.0917909 0
M  V30 12859 H 1242.16 2.01605 -0.348802 0
M  V30 12860 H 1242.17 3.89331 1.22007 0
M  V30 12861 H 1240.84 4.15783 0.0984902 0
M  V30 12862 H 1239.42 3.30815 1.72093 0
M  V30 12863 N 1241.6 -0.0451101 1.57535 0
M  V30 12864 C 1242.85 -0.734819 1.89663 0
M  V30 12865 C 1243.21 -1.73814 0.82502 0
M  V30 12866 O 1242.5 -1.90861 -0.168067 0
M  V30 12867 C 1242.69 -1.45938 3.26247 0
M  V30 12868 C 1242.52 -0.52775 4.46593 0
M  V30 12869 C 1241.29 -0.154735 5.05063 0
M  V30 12870 C 1243.49 0.187025 5.1396 0
M  V30 12871 N 1241.47 0.77983 6.08927 0
M  V30 12872 C 1242.84 0.977812 6.12241 0
M  V30 12873 C 1244.9 0.255673 4.97243 0
M  V30 12874 C 1243.6 1.83091 6.95608 0
M  V30 12875 C 1245.63 1.09584 5.81159 0
M  V30 12876 C 1244.99 1.8746 6.78998 0
M  V30 12877 H 1241.09 -0.243486 0.743128 0
M  V30 12878 H 1243.67 0.00462003 1.94699 0
M  V30 12879 H 1241.84 -2.16938 3.22169 0
M  V30 12880 H 1243.57 -2.10021 3.45938 0
M  V30 12881 H 1240.33 -0.513447 4.70809 0
M  V30 12882 H 1240.75 1.24114 6.65526 0
M  V30 12883 H 1245.4 -0.332093 4.21494 0
M  V30 12884 H 1243.11 2.42954 7.70713 0
M  V30 12885 H 1246.7 1.15228 5.70275 0
M  V30 12886 H 1245.58 2.51422 7.42803 0
M  V30 12887 N 1243.08 -1.54377 -0.317073 0
M  V30 12888 C 1244.32 -1.74621 -1.06239 0
M  V30 12889 C 1244.69 -0.512542 -1.85032 0
M  V30 12890 O 1245.89 -0.592438 -2.6219 0
M  V30 12891 C 1244.16 -2.99036 -1.95735 0
M  V30 12892 S 1245.72 -3.40212 -2.77131 0
M  V30 12893 H 1242.54 -0.613969 -0.358557 0
M  V30 12894 H 1245.14 -1.92562 -0.33763 0
M  V30 12895 H 1243.84 -3.86965 -1.36697 0
M  V30 12896 H 1243.37 -2.83636 -2.72606 0
M  V30 12897 H 1245.39 -2.9602 -3.98229 0
M  V30 12898 N 1244.56 0.579466 -1.4656 0
M  V30 12899 C 1245.49 1.69846 -1.60233 0
M  V30 12900 C 1246.47 1.6397 -0.452533 0
M  V30 12901 O 1247.66 1.81936 -0.679174 0
M  V30 12902 C 1244.79 3.08488 -1.59538 0
M  V30 12903 C 1243.74 3.29197 -2.7352 0
M  V30 12904 C 1243.07 4.684 -2.57887 0
M  V30 12905 C 1244.37 3.16718 -4.15315 0
M  V30 12906 H 1246.06 1.5866 -2.53904 0
M  V30 12907 H 1243.61 0.761873 -1.22194 0
M  V30 12908 H 1245.56 3.86595 -1.67696 0
M  V30 12909 H 1244.28 3.20581 -0.62413 0
M  V30 12910 H 1242.94 2.53491 -2.64836 0
M  V30 12911 H 1242.59 4.77262 -1.58839 0
M  V30 12912 H 1242.29 4.83208 -3.34341 0
M  V30 12913 H 1243.81 5.48671 -2.67942 0
M  V30 12914 H 1245.23 3.84666 -4.25094 0
M  V30 12915 H 1243.63 3.43047 -4.92381 0
M  V30 12916 H 1244.7 2.13755 -4.35244 0
M  V30 12917 N 1246.04 1.3432 0.824371 0
M  V30 12918 C 1247.28 1.27792 1.58243 0
M  V30 12919 C 1247.64 -0.151189 1.91805 0
M  V30 12920 O 1246.93 -1.09708 1.57082 0
M  V30 12921 C 1247.13 2.1008 2.89139 0
M  V30 12922 C 1246.96 3.60848 2.68363 0
M  V30 12923 C 1245.73 4.3013 2.65172 0
M  V30 12924 C 1247.92 4.54878 2.39979 0
M  V30 12925 N 1245.91 5.66756 2.35927 0
M  V30 12926 C 1247.28 5.79497 2.20415 0
M  V30 12927 C 1249.33 4.43809 2.25695 0
M  V30 12928 C 1248.03 6.94293 1.88015 0
M  V30 12929 C 1250.06 5.58435 1.9469 0
M  V30 12930 C 1249.42 6.82071 1.75948 0
M  V30 12931 H 1245.52 0.522853 0.581505 0
M  V30 12932 H 1248.11 1.69017 0.96651 0
M  V30 12933 H 1246.28 1.71154 3.48656 0
M  V30 12934 H 1248.01 1.95208 3.54508 0
M  V30 12935 H 1244.76 3.82554 2.79194 0
M  V30 12936 H 1245.19 6.38817 2.24148 0
M  V30 12937 H 1249.83 3.48842 2.38891 0
M  V30 12938 H 1247.55 7.89242 1.73557 0
M  V30 12939 H 1251.13 5.51814 1.84372 0
M  V30 12940 H 1250.01 7.69268 1.52304 0
M  V30 12941 N 1247.52 -1.0444 1.18026 0
M  V30 12942 C 1248.76 -1.77972 0.984767 0
M  V30 12943 C 1249.12 -1.86294 -0.480861 0
M  V30 12944 O 1248.41 -1.35724 -1.35239 0
M  V30 12945 C 1248.6 -3.21134 1.56869 0
M  V30 12946 C 1248.43 -3.26765 3.08958 0
M  V30 12947 C 1247.2 -3.35612 3.77747 0
M  V30 12948 C 1249.4 -3.15083 4.06482 0
M  V30 12949 N 1247.38 -3.30454 5.17372 0
M  V30 12950 C 1248.75 -3.17382 5.32606 0
M  V30 12951 C 1250.81 -2.99099 3.98051 0
M  V30 12952 C 1249.51 -3.05338 6.51277 0
M  V30 12953 C 1251.54 -2.88399 5.16314 0
M  V30 12954 C 1250.9 -2.91338 6.41328 0
M  V30 12955 H 1247 -0.66322 0.414323 0
M  V30 12956 H 1249.58 -1.24444 1.49739 0
M  V30 12957 H 1247.75 -3.73016 1.0823 0
M  V30 12958 H 1249.49 -3.82943 1.30908 0
M  V30 12959 H 1246.24 -3.41189 3.28462 0
M  V30 12960 H 1246.67 -3.31324 5.90384 0
M  V30 12961 H 1251.31 -2.95659 3.02234 0
M  V30 12962 H 1249.03 -3.07531 7.47296 0
M  V30 12963 H 1252.61 -2.77091 5.11578 0
M  V30 12964 H 1251.49 -2.83141 7.31301 0
M  V30 12965 N 1248.99 -0.981699 -1.2329 0
M  V30 12966 C 1249.92 -0.542441 -2.27112 0
M  V30 12967 C 1250.91 0.425034 -1.64704 0
M  V30 12968 O 1252.09 0.318114 -1.91577 0
M  V30 12969 C 1249.22 0.154668 -3.46955 0
M  V30 12970 C 1248.17 -0.73022 -4.21725 0
M  V30 12971 C 1247.5 0.0991766 -5.34608 0
M  V30 12972 C 1248.8 -2.02166 -4.81587 0
M  V30 12973 H 1250.49 -1.41024 -2.64107 0
M  V30 12974 H 1248.04 -0.679544 -1.26957 0
M  V30 12975 H 1249.99 0.473281 -4.18734 0
M  V30 12976 H 1248.72 1.05693 -3.09025 0
M  V30 12977 H 1247.38 -1.03231 -3.51765 0
M  V30 12978 H 1247.02 1.00201 -4.92919 0
M  V30 12979 H 1246.72 -0.489788 -5.85555 0
M  V30 12980 H 1248.25 0.412141 -6.09207 0
M  V30 12981 H 1249.66 -1.76773 -5.45366 0
M  V30 12982 H 1248.06 -2.55851 -5.42826 0
M  V30 12983 H 1249.13 -2.70766 -4.02261 0
M  V30 12984 N 1250.47 1.3842 -0.753509 0
M  V30 12985 C 1251.4 2.29039 -0.0859463 0
M  V30 12986 C 1252.42 1.47742 0.68383 0
M  V30 12987 O 1253.61 1.70607 0.524933 0
M  V30 12988 C 1250.71 3.26668 0.902296 0
M  V30 12989 C 1249.88 4.36986 0.190178 0
M  V30 12990 C 1248.94 5.14805 1.08916 0
M  V30 12991 O 1247.96 5.66441 0.559715 0
M  V30 12992 N 1249.17 5.27777 2.41726 0
M  V30 12993 H 1251.93 2.8697 -0.864196 0
M  V30 12994 H 1249.49 1.502 -0.604288 0
M  V30 12995 H 1251.48 3.75606 1.50672 0
M  V30 12996 H 1250.05 2.69636 1.58163 0
M  V30 12997 H 1249.27 3.89684 -0.594959 0
M  V30 12998 H 1250.56 5.07899 -0.302594 0
M  V30 12999 H 1249.96 4.87376 2.87196 0
M  V30 13000 H 1248.52 5.8009 2.97219 0
M  V30 13001 N 1251.95 0.502579 1.49372 0
M  V30 13002 C 1253.18 -0.0380876 2.06565 0
M  V30 13003 C 1253.59 -1.31224 1.36297 0
M  V30 13004 O 1252.93 -1.78463 0.435517 0
M  V30 13005 C 1252.99 -0.360462 3.57688 0
M  V30 13006 C 1252.66 0.816203 4.49652 0
M  V30 13007 C 1253.65 1.70713 4.91073 0
M  V30 13008 C 1251.34 1.01545 4.91929 0
M  V30 13009 C 1253.33 2.78144 5.73511 0
M  V30 13010 C 1251.02 2.09294 5.74142 0
M  V30 13011 C 1252.02 2.97428 6.14838 0
M  V30 13012 O 1251.71 4.03317 6.95407 0
M  V30 13013 H 1251.44 0.0179548 0.675762 0
M  V30 13014 H 1253.99 0.699609 1.93118 0
M  V30 13015 H 1252.22 -1.15177 3.69149 0
M  V30 13016 H 1253.91 -0.839931 3.97115 0
M  V30 13017 H 1254.68 1.56502 4.59056 0
M  V30 13018 H 1250.56 0.338822 4.59753 0
M  V30 13019 H 1254.1 3.46965 6.05195 0
M  V30 13020 H 1250 2.235 6.05572 0
M  V30 13021 H 1250.77 4.00689 7.13716 0
M  V30 13022 N 1253.43 -1.55816 0.23648 0
M  V30 13023 C 1254.68 -1.98686 -0.391146 0
M  V30 13024 C 1255 -1.12443 -1.58703 0
M  V30 13025 O 1254.26 -0.172805 -1.94936 0
M  V30 13026 C 1254.56 -3.47039 -0.85434 0
M  V30 13027 C 1254.22 -4.50299 0.232651 0
M  V30 13028 C 1252.89 -4.78259 0.531218 0
M  V30 13029 C 1255.24 -5.1215 0.967027 0
M  V30 13030 C 1252.57 -5.65347 1.56842 0
M  V30 13031 C 1254.92 -6.00363 1.99367 0
M  V30 13032 C 1253.58 -6.2666 2.299 0
M  V30 13033 H 1252.85 -0.727045 -0.14313 0
M  V30 13034 H 1255.5 -1.88419 0.342125 0
M  V30 13035 H 1253.8 -3.54585 -1.66663 0
M  V30 13036 H 1255.5 -3.7759 -1.35005 0
M  V30 13037 H 1252.09 -4.28599 -0.0102014 0
M  V30 13038 H 1256.27 -4.90606 0.749609 0
M  V30 13039 H 1251.53 -5.83981 1.81043 0
M  V30 13040 H 1255.7 -6.47335 2.56769 0
M  V30 13041 H 1253.33 -6.93938 3.1041 0
M  V30 13042 N 1254.91 0.036755 -1.57557 0
M  V30 13043 C 1255.84 1.03939 -2.09091 0
M  V30 13044 C 1256.82 1.38196 -0.991761 0
M  V30 13045 O 1258 1.47214 -1.26656 0
M  V30 13046 C 1255.13 2.34263 -2.56394 0
M  V30 13047 C 1254.09 2.14269 -3.70504 0
M  V30 13048 C 1253.41 3.50286 -4.03985 0
M  V30 13049 C 1254.71 1.53514 -4.9923 0
M  V30 13050 H 1256.41 0.610429 -2.93111 0
M  V30 13051 H 1253.95 0.292183 -1.41005 0
M  V30 13052 H 1255.91 3.04727 -2.91066 0
M  V30 13053 H 1254.63 2.79205 -1.69447 0
M  V30 13054 H 1253.29 1.46239 -3.36169 0
M  V30 13055 H 1252.94 3.92861 -3.14116 0
M  V30 13056 H 1252.64 3.37735 -4.80842 0
M  V30 13057 H 1254.16 4.22124 -4.41184 0
M  V30 13058 H 1255.57 2.13885 -5.31908 0
M  V30 13059 H 1253.97 1.51561 -5.80646 0
M  V30 13060 H 1255.04 0.500126 -4.82314 0
M  V30 13061 N 1256.39 1.54543 0.308881 0
M  V30 13062 C 1257.61 1.77431 1.06422 0
M  V30 13063 C 1258.03 0.529972 1.81209 0
M  V30 13064 O 1257.39 -0.499912 1.7552 0
M  V30 13065 C 1257.44 2.9769 2.05092 0
M  V30 13066 O 1257.16 4.17315 1.33341 0
M  V30 13067 C 1258.66 3.32905 2.92727 0
M  V30 13068 H 1255.88 0.591961 0.315948 0
M  V30 13069 H 1258.42 2.01473 0.350547 0
M  V30 13070 H 1256.58 2.7588 2.71973 0
M  V30 13071 H 1256.99 4.85061 1.99539 0
M  V30 13072 H 1258.47 4.20314 3.57827 0
M  V30 13073 H 1258.94 2.50713 3.6061 0
M  V30 13074 H 1259.55 3.56847 2.31388 0
M  V30 13075 N 1257.86 -0.571685 1.46866 0
M  V30 13076 C 1259.28 -0.896172 1.32064 0
M  V30 13077 C 1259.48 -1.9925 0.300291 0
M  V30 13078 O 1258.54 -2.50791 -0.293284 0
M  V30 13079 C 1259.85 -1.3031 2.70998 0
M  V30 13080 C 1261.4 -1.41533 2.79173 0
M  V30 13081 C 1261.87 -1.85587 4.18714 0
M  V30 13082 N 1263.36 -1.92762 4.21185 0
M  V30 13083 C 1264.1 -2.28148 5.26057 0
M  V30 13084 N 1263.59 -2.62248 6.41247 0
M  V30 13085 N 1265.39 -2.28797 5.13428 0
M  V30 13086 H 1257.54 0.152349 2.11853 0
M  V30 13087 H 1259.8 0.00548777 0.947984 0
M  V30 13088 H 1259.51 -0.571469 3.47026 0
M  V30 13089 H 1259.38 -2.26233 3.01826 0
M  V30 13090 H 1261.77 -2.1378 2.03426 0
M  V30 13091 H 1261.85 -0.438342 2.52016 0
M  V30 13092 H 1261.49 -1.13915 4.9496 0
M  V30 13093 H 1261.42 -2.84264 4.43285 0
M  V30 13094 H 1263.91 -1.68854 3.38078 0
M  V30 13095 H 1264.23 -2.88234 7.17036 0
M  V30 13096 H 1262.57 -2.59861 6.44591 0
M  V30 13097 H 1265.76 -2.01587 4.22469 0
M  V30 13098 H 1265.94 -2.56045 5.95269 0
M  V30 13099 N 1259.34 -1.34755 -0.817236 0
M  V30 13100 C 1260.59 -1.2762 -1.5761 0
M  V30 13101 C 1260.92 0.152017 -1.93604 0
M  V30 13102 O 1260.2 1.09881 -1.60488 0
M  V30 13103 C 1260.48 -2.17251 -2.87183 0
M  V30 13104 C 1260.33 -3.68638 -2.57733 0
M  V30 13105 C 1261.65 -2.06206 -3.88802 0
M  V30 13106 H 1258.77 -0.464933 -0.571845 0
M  V30 13107 H 1261.41 -1.6506 -0.941028 0
M  V30 13108 H 1259.56 -1.85452 -3.41379 0
M  V30 13109 H 1261.23 -4.10829 -2.09802 0
M  V30 13110 H 1259.48 -3.89445 -1.91089 0
M  V30 13111 H 1260.15 -4.26726 -3.50156 0
M  V30 13112 H 1262.62 -2.34137 -3.43975 0
M  V30 13113 H 1261.5 -2.71136 -4.77259 0
M  V30 13114 H 1261.76 -1.04075 -4.29675 0
M  V30 13115 N 1260.82 1.03812 -1.18578 0
M  V30 13116 C 1261.73 2.15371 -0.930182 0
M  V30 13117 C 1262.75 1.73673 0.106599 0
M  V30 13118 O 1263.92 2.01257 -0.0759054 0
M  V30 13119 C 1260.99 3.43606 -0.462151 0
M  V30 13120 C 1260.05 3.99671 -1.5672 0
M  V30 13121 C 1259.28 5.21785 -1.12141 0
M  V30 13122 O 1259.5 5.70397 0.0188357 0
M  V30 13123 O 1258.44 5.70449 -1.9202 0
M  V30 13124 H 1262.26 2.39791 -1.86371 0
M  V30 13125 H 1259.85 1.13814 -0.967819 0
M  V30 13126 H 1261.73 4.2088 -0.20934 0
M  V30 13127 H 1260.41 3.20654 0.443052 0
M  V30 13128 H 1259.31 3.23774 -1.87406 0
M  V30 13129 H 1260.65 4.2697 -2.44862 0
M  V30 13130 N 1262.3 0.988223 1.22768 0
M  V30 13131 C 1263.26 0.539813 2.22752 0
M  V30 13132 C 1264.26 -0.374796 1.56371 0
M  V30 13133 O 1265.45 -0.167402 1.73394 0
M  V30 13134 C 1262.58 -0.215461 3.40218 0
M  V30 13135 H 1263.78 1.42397 2.63938 0
M  V30 13136 H 1261.33 0.774933 1.35737 0
M  V30 13137 H 1262.06 -1.11581 3.045 0
M  V30 13138 H 1261.85 0.441173 3.8961 0
M  V30 13139 H 1263.34 -0.517517 4.14381 0
M  V30 13140 N 1263.78 -1.38018 0.760839 0
M  V30 13141 C 1264.71 -2.2899 0.0980916 0
M  V30 13142 C 1265.72 -1.48102 -0.675985 0
M  V30 13143 O 1266.91 -1.70883 -0.515878 0
M  V30 13144 C 1264.01 -3.27142 -0.884959 0
M  V30 13145 C 1263.18 -4.37081 -0.167 0
M  V30 13146 C 1262.24 -5.15375 -1.06184 0
M  V30 13147 O 1261.27 -5.6673 -0.529667 0
M  V30 13148 N 1262.47 -5.29052 -2.38924 0
M  V30 13149 H 1265.23 -2.86508 0.879403 0
M  V30 13150 H 1262.8 -1.49877 0.612245 0
M  V30 13151 H 1264.79 -3.764 -1.48678 0
M  V30 13152 H 1263.36 -2.70471 -1.5673 0
M  V30 13153 H 1262.58 -3.89363 0.615617 0
M  V30 13154 H 1263.87 -5.07732 0.329525 0
M  V30 13155 H 1263.26 -4.88892 -2.84607 0
M  V30 13156 H 1261.82 -5.81658 -2.94139 0
M  V30 13157 N 1265.25 -0.510493 -1.49103 0
M  V30 13158 C 1266.18 0.251999 -2.32136 0
M  V30 13159 C 1267.16 0.953613 -1.40855 0
M  V30 13160 O 1268.35 0.943178 -1.69758 0
M  V30 13161 C 1265.48 1.31118 -3.21598 0
M  V30 13162 C 1264.43 0.72888 -4.21748 0
M  V30 13163 C 1263.76 1.88928 -5.0021 0
M  V30 13164 C 1265.06 -0.286425 -5.21514 0
M  V30 13165 H 1266.75 -0.441102 -2.96133 0
M  V30 13166 H 1264.3 -0.213577 -1.42407 0
M  V30 13167 H 1266.25 1.8524 -3.78503 0
M  V30 13168 H 1264.98 2.0336 -2.55563 0
M  V30 13169 H 1263.64 0.209336 -3.66002 0
M  V30 13170 H 1263.28 2.59961 -4.30615 0
M  V30 13171 H 1262.98 1.50568 -5.67981 0
M  V30 13172 H 1264.51 2.43465 -5.59962 0
M  V30 13173 H 1265.92 0.166997 -5.73057 0
M  V30 13174 H 1264.32 -0.586361 -5.97228 0
M  V30 13175 H 1265.39 -1.19904 -4.69842 0
M  V30 13176 N 1266.73 1.55688 -0.24474 0
M  V30 13177 C 1267.68 2.17946 0.669596 0
M  V30 13178 C 1268.67 1.13468 1.14078 0
M  V30 13179 O 1269.86 1.39385 1.09091 0
M  V30 13180 C 1266.99 2.8808 1.86721 0
M  V30 13181 C 1266.07 3.99811 1.41463 0
M  V30 13182 N 1266.46 5.01261 0.676131 0
M  V30 13183 C 1264.76 4.12327 1.70008 0
M  V30 13184 C 1265.46 5.80017 0.442113 0
M  V30 13185 N 1264.44 5.34216 1.00569 0
M  V30 13186 H 1268.24 2.93739 0.0971953 0
M  V30 13187 H 1265.75 1.62332 -0.0469646 0
M  V30 13188 H 1267.75 3.31109 2.53322 0
M  V30 13189 H 1266.41 2.13789 2.44385 0
M  V30 13190 H 1267.42 5.1687 0.326459 0
M  V30 13191 H 1264.1 3.49206 2.28827 0
M  V30 13192 H 1265.49 6.71739 -0.14729 0
M  V30 13193 N 1268.21 -0.0283989 1.57574 0
M  V30 13194 C 1269.46 -0.720142 1.89583 0
M  V30 13195 C 1269.79 -1.7497 0.842562 0
M  V30 13196 O 1269.06 -1.93979 -0.142294 0
M  V30 13197 C 1269.35 -1.38909 3.32229 0
M  V30 13198 C 1269.2 -0.372998 4.48251 0
M  V30 13199 C 1270.52 -2.32289 3.73804 0
M  V30 13200 H 1267.64 -0.26033 0.689491 0
M  V30 13201 H 1270.28 0.0170607 1.89992 0
M  V30 13202 H 1268.43 -2.01744 3.32011 0
M  V30 13203 H 1270.1 0.253492 4.60603 0
M  V30 13204 H 1268.34 0.30765 4.32708 0
M  V30 13205 H 1269.02 -0.879549 5.44948 0
M  V30 13206 H 1271.49 -1.79497 3.75393 0
M  V30 13207 H 1270.37 -2.76075 4.74419 0
M  V30 13208 H 1270.63 -3.18992 3.06099 0
M  V30 13209 N 1269.69 -1.54705 -0.300681 0
M  V30 13210 C 1270.93 -1.75189 -1.03345 0
M  V30 13211 C 1271.29 -0.531398 -1.84916 0
M  V30 13212 O 1270.58 0.476194 -1.85588 0
M  V30 13213 C 1270.78 -2.98173 -1.97047 0
M  V30 13214 C 1270.6 -4.32067 -1.24694 0
M  V30 13215 C 1269.37 -4.95825 -0.973967 0
M  V30 13216 C 1271.57 -5.1016 -0.651224 0
M  V30 13217 N 1269.55 -6.13503 -0.220737 0
M  V30 13218 C 1270.93 -6.19992 -0.0307781 0
M  V30 13219 C 1272.98 -4.94782 -0.556306 0
M  V30 13220 C 1271.68 -7.16122 0.675403 0
M  V30 13221 C 1273.71 -5.91243 0.136221 0
M  V30 13222 C 1273.07 -7.00444 0.745517 0
M  V30 13223 H 1269.17 -0.693643 -0.361087 0
M  V30 13224 H 1271.75 -1.92183 -0.312046 0
M  V30 13225 H 1269.93 -2.82604 -2.66439 0
M  V30 13226 H 1271.66 -3.07182 -2.63479 0
M  V30 13227 H 1268.41 -4.56193 -1.2722 0
M  V30 13228 H 1268.84 -6.7685 0.142402 0
M  V30 13229 H 1273.48 -4.10483 -1.01307 0
M  V30 13230 H 1271.2 -7.99962 1.14394 0
M  V30 13231 H 1274.78 -5.81422 0.209611 0
M  V30 13232 H 1273.66 -7.73801 1.27287 0
M  V30 13233 N 1271.17 0.563888 -1.47167 0
M  V30 13234 C 1272.42 1.31766 -1.5271 0
M  V30 13235 C 1272.73 1.94664 -0.191164 0
M  V30 13236 O 1273.93 2.71214 -0.124543 0
M  V30 13237 C 1272.39 2.38907 -2.69168 0
M  V30 13238 C 1272 1.8223 -4.09263 0
M  V30 13239 C 1273.74 3.15508 -2.83999 0
M  V30 13240 C 1271.65 2.87111 -5.17031 0
M  V30 13241 H 1270.58 0.495421 -0.568396 0
M  V30 13242 H 1273.23 0.599665 -1.73425 0
M  V30 13243 H 1271.61 3.13591 -2.4182 0
M  V30 13244 H 1272.79 1.13963 -4.46485 0
M  V30 13245 H 1271.1 1.18235 -3.99261 0
M  V30 13246 H 1273.7 3.93816 -3.61681 0
M  V30 13247 H 1274.04 3.69277 -1.92197 0
M  V30 13248 H 1274.57 2.47934 -3.11085 0
M  V30 13249 H 1271.31 2.38204 -6.10687 0
M  V30 13250 H 1270.83 3.53809 -4.84334 0
M  V30 13251 H 1272.51 3.50724 -5.43692 0
M  V30 13252 N 1272.64 1.35187 0.810078 0
M  V30 13253 C 1274.06 1.25329 1.38381 0
M  V30 13254 C 1274.41 -0.115799 1.95858 0
M  V30 13255 O 1273.53 -1.01663 1.91033 0
M  V30 13256 C 1274.13 2.2693 2.51572 0
M  V30 13257 C 1272.69 2.20824 3.04818 0
M  V30 13258 C 1271.83 2.1283 1.7776 0
M  V30 13259 H 1274.78 1.46366 0.613402 0
M  V30 13260 H 1274.8 1.89375 3.30026 0
M  V30 13261 H 1274.32 3.26563 2.09709 0
M  V30 13262 H 1272.42 1.24589 3.51153 0
M  V30 13263 H 1272.53 3.12637 3.63036 0
M  V30 13264 H 1270.89 1.58752 1.99173 0
M  V30 13265 H 1271.68 3.14318 1.38054 0
M  V30 13266 N 1274.12 -1.03182 1.19127 0
M  V30 13267 C 1275.53 -1.57984 0.994888 0
M  V30 13268 C 1275.88 -1.90898 -0.453019 0
M  V30 13269 O 1275.01 -1.70556 -1.33191 0
M  V30 13270 C 1275.6 -2.8705 1.79966 0
M  V30 13271 C 1274.16 -3.38435 1.64737 0
M  V30 13272 C 1273.31 -2.11912 1.78854 0
M  V30 13273 H 1276.26 -0.857458 1.33542 0
M  V30 13274 H 1276.28 -3.57821 1.294 0
M  V30 13275 H 1275.79 -2.63062 2.85341 0
M  V30 13276 H 1273.9 -3.67416 0.619358 0
M  V30 13277 H 1274.01 -4.11665 2.45089 0
M  V30 13278 H 1272.37 -2.23642 1.21886 0
M  V30 13279 H 1273.16 -1.90369 2.85682 0
M  V30 13280 N 1275.6 -0.99472 -1.22242 0
M  V30 13281 C 1276.53 -0.566499 -2.26524 0
M  V30 13282 C 1277.51 0.407541 -1.65146 0
M  V30 13283 O 1278.7 0.297777 -1.91903 0
M  V30 13284 C 1275.83 0.11786 -3.471 0
M  V30 13285 C 1274.78 -0.774908 -4.20927 0
M  V30 13286 C 1274.11 0.0424687 -5.34683 0
M  V30 13287 C 1275.41 -2.07263 -4.79416 0
M  V30 13288 H 1277.1 -1.43818 -2.62596 0
M  V30 13289 H 1274.65 -0.692971 -1.2623 0
M  V30 13290 H 1276.6 0.428842 -4.19212 0
M  V30 13291 H 1275.32 1.0241 -3.10129 0
M  V30 13292 H 1273.98 -1.06956 -3.50651 0
M  V30 13293 H 1273.63 0.949677 -4.93954 0
M  V30 13294 H 1273.33 -0.551867 -5.85003 0
M  V30 13295 H 1274.85 0.347504 -6.0961 0
M  V30 13296 H 1276.27 -1.82548 -5.4346 0
M  V30 13297 H 1274.67 -2.61594 -5.40082 0
M  V30 13298 H 1275.74 -2.75017 -3.99366 0
M  V30 13299 N 1277.08 1.37613 -0.768148 0
M  V30 13300 C 1278.03 2.3218 -0.13974 0
M  V30 13301 C 1279.02 1.54754 0.689023 0
M  V30 13302 O 1280.23 1.70177 0.586489 0
M  V30 13303 H 1276.6 0.751536 -0.0264001 0
M  V30 13304 H 1278.57 2.82768 -0.953139 0
M  V30 13305 C 1277.32 3.39997 0.727829 0
M  V30 13306 H 1276.64 3.99676 0.0994851 0
M  V30 13307 H 1278.08 4.08538 1.13456 0
M  V30 13308 C 1276.54 2.79778 1.87686 0
M  V30 13309 O 1277.07 2.70241 2.97208 0
M  V30 13310 N 1275.28 2.37373 1.67637 0
M  V30 13311 H 1274.83 2.4533 0.785552 0
M  V30 13312 H 1274.78 1.97426 2.44684 0
M  V30 13313 N 1278.56 0.518393 1.4883 0
M  V30 13314 C 1279.8 -0.0199348 2.0279 0
M  V30 13315 C 1280.14 -1.35026 1.39576 0
M  V30 13316 O 1279.41 -1.86927 0.537449 0
M  V30 13317 C 1279.69 -0.154184 3.5977 0
M  V30 13318 C 1279.55 1.2005 4.33484 0
M  V30 13319 C 1280.87 -0.886547 4.31078 0
M  V30 13320 H 1277.98 -0.00577061 0.736977 0
M  V30 13321 H 1280.63 0.673178 1.77675 0
M  V30 13322 H 1278.78 -0.74451 3.81299 0
M  V30 13323 H 1280.45 1.83104 4.23404 0
M  V30 13324 H 1278.69 1.78537 3.95357 0
M  V30 13325 H 1279.36 1.05968 5.41733 0
M  V30 13326 H 1281.84 -0.385711 4.14308 0
M  V30 13327 H 1280.71 -0.949355 5.40628 0
M  V30 13328 H 1280.98 -1.93424 3.97542 0
M  V30 13329 N 1280.03 -1.55556 0.252993 0
M  V30 13330 C 1281.45 -1.59276 -0.101714 0
M  V30 13331 C 1281.65 -1.27018 -1.56424 0
M  V30 13332 O 1280.71 -1.02042 -2.30963 0
M  V30 13333 C 1282.02 -2.99634 0.252969 0
M  V30 13334 C 1283.57 -3.12375 0.197767 0
M  V30 13335 C 1284.04 -4.54963 0.52657 0
M  V30 13336 N 1285.53 -4.60734 0.477296 0
M  V30 13337 C 1286.27 -5.69052 0.704793 0
M  V30 13338 N 1285.76 -6.85607 0.99574 0
M  V30 13339 N 1287.56 -5.58501 0.635086 0
M  V30 13340 H 1279.71 -1.74793 1.2067 0
M  V30 13341 H 1281.97 -0.813971 0.485958 0
M  V30 13342 H 1281.68 -3.27998 1.26926 0
M  V30 13343 H 1281.55 -3.74888 -0.416984 0
M  V30 13344 H 1283.94 -2.83788 -0.809209 0
M  V30 13345 H 1284.02 -2.39382 0.901659 0
M  V30 13346 H 1283.66 -4.84271 1.53113 0
M  V30 13347 H 1283.59 -5.26224 -0.198869 0
M  V30 13348 H 1286.08 -3.76995 0.261398 0
M  V30 13349 H 1286.4 -7.64096 1.15659 0
M  V30 13350 H 1284.74 -6.87276 1.03328 0
M  V30 13351 H 1287.93 -4.6632 0.407789 0
M  V30 13352 H 1288.11 -6.42845 0.815777 0
M  V30 13353 N 1281.51 0.0200419 -1.57587 0
M  V30 13354 C 1282.76 0.707627 -1.89307 0
M  V30 13355 C 1283.08 1.7541 -0.851831 0
M  V30 13356 O 1282.35 1.95571 0.113404 0
M  V30 13357 H 1280.93 0.264349 -0.698662 0
M  V30 13358 H 1283.59 -0.0161428 -1.94893 0
M  V30 13359 H 1282.69 1.19152 -2.8846 0
M  V30 13360 N 1282.99 1.54862 0.292472 0
M  V30 13361 C 1284.24 1.74203 1.02458 0
M  V30 13362 C 1284.56 0.535398 1.87506 0
M  V30 13363 O 1283.83 -0.450164 1.90658 0
M  V30 13364 H 1282.41 0.642369 0.381276 0
M  V30 13365 H 1285.07 1.92232 0.321398 0
M  V30 13366 H 1284.17 2.63486 1.67277 0
M  V30 13367 N 1284.47 -0.556076 1.47464 0
M  V30 13368 C 1285.88 -0.882115 1.33007 0
M  V30 13369 C 1286.08 -1.9892 0.321407 0
M  V30 13370 O 1285.14 -2.51088 -0.266668 0
M  V30 13371 C 1286.45 -1.27428 2.72365 0
M  V30 13372 C 1288 -1.38564 2.80658 0
M  V30 13373 C 1288.48 -1.81136 4.20659 0
M  V30 13374 N 1289.97 -1.88284 4.23206 0
M  V30 13375 C 1290.7 -2.22555 5.28447 0
M  V30 13376 N 1290.2 -2.55432 6.43993 0
M  V30 13377 N 1291.99 -2.23339 5.15826 0
M  V30 13378 H 1284.14 0.17481 2.11679 0
M  V30 13379 H 1286.41 0.0155421 0.947873 0
M  V30 13380 H 1286.11 -0.53463 3.47613 0
M  V30 13381 H 1285.99 -2.23019 3.04208 0
M  V30 13382 H 1288.37 -2.1161 2.05682 0
M  V30 13383 H 1288.45 -0.411588 2.52467 0
M  V30 13384 H 1288.1 -1.08659 4.96141 0
M  V30 13385 H 1288.03 -2.79546 4.46275 0
M  V30 13386 H 1290.52 -1.65259 3.3985 0
M  V30 13387 H 1290.83 -2.80612 7.20053 0
M  V30 13388 H 1289.18 -2.5301 6.47311 0
M  V30 13389 H 1292.37 -1.97094 4.24584 0
M  V30 13390 H 1292.54 -2.49717 5.97951 0
M  V30 13391 N 1285.95 -1.35615 -0.802897 0
M  V30 13392 C 1287.22 -1.19655 -1.54732 0
M  V30 13393 C 1287.6 0.222827 -2.09921 0
M  V30 13394 O 1286.95 1.2268 -1.92774 0
M  V30 13395 C 1287.16 -2.26761 -2.65293 0
M  V30 13396 C 1288.51 -2.62754 -3.33535 0
M  V30 13397 O 1289.53 -2.25702 -2.75567 0
M  V30 13398 O 1288.39 -3.26476 -4.38264 0
M  V30 13399 H 1285.49 -0.465079 -0.683835 0
M  V30 13400 H 1288.03 -1.47307 -0.84254 0
M  V30 13401 H 1286.81 -3.21946 -2.22411 0
M  V30 13402 H 1286.43 -2.00399 -3.43404 0
M  V30 13403 N 1287.43 1.02549 -1.19673 0
M  V30 13404 C 1288.39 2.09064 -0.939407 0
M  V30 13405 C 1289.39 1.60593 0.0814837 0
M  V30 13406 O 1290.58 1.73521 -0.153626 0
M  V30 13407 C 1287.71 3.38395 -0.412513 0
M  V30 13408 H 1288.9 2.33325 -1.88413 0
M  V30 13409 H 1286.46 1.19211 -1.01086 0
M  V30 13410 H 1287.19 3.19805 0.538094 0
M  V30 13411 H 1286.98 3.74898 -1.14863 0
M  V30 13412 H 1288.47 4.16841 -0.251678 0
M  V30 13413 N 1288.9 1.00119 1.21713 0
M  V30 13414 C 1290.15 0.682733 1.90962 0
M  V30 13415 C 1290.48 -0.784131 1.77665 0
M  V30 13416 O 1289.76 -1.56799 1.15084 0
M  V30 13417 C 1290.04 1.09975 3.42896 0
M  V30 13418 C 1289.89 2.62578 3.65202 0
M  V30 13419 C 1291.21 0.659247 4.35134 0
M  V30 13420 H 1288.33 0.249501 0.693483 0
M  V30 13421 H 1290.97 1.24619 1.43423 0
M  V30 13422 H 1289.12 0.620334 3.83515 0
M  V30 13423 H 1290.8 3.18254 3.33934 0
M  V30 13424 H 1289.04 3.04268 3.09198 0
M  V30 13425 H 1289.71 2.86809 4.7164 0
M  V30 13426 H 1292.19 1.07116 4.02076 0
M  V30 13427 H 1291.06 0.979241 5.40095 0
M  V30 13428 H 1291.32 -0.439777 4.39907 0
M  V30 13429 N 1290.38 -1.37203 0.775435 0
M  V30 13430 C 1291.63 -1.98846 0.338093 0
M  V30 13431 C 1291.94 -1.6225 -1.09244 0
M  V30 13432 O 1293.15 -2.17024 -1.63135 0
M  V30 13433 C 1291.61 -3.55618 0.553541 0
M  V30 13434 C 1291.21 -4.01149 1.99457 0
M  V30 13435 C 1292.96 -4.24118 0.180006 0
M  V30 13436 C 1290.86 -5.50644 2.15742 0
M  V30 13437 H 1289.79 -0.743955 0.122669 0
M  V30 13438 H 1292.45 -1.56685 0.955087 0
M  V30 13439 H 1290.83 -3.95777 -0.132964 0
M  V30 13440 H 1292 -3.72226 2.71633 0
M  V30 13441 H 1290.32 -3.45443 2.32504 0
M  V30 13442 H 1292.91 -5.33966 0.280145 0
M  V30 13443 H 1293.26 -4.07104 -0.870192 0
M  V30 13444 H 1293.79 -3.89274 0.819201 0
M  V30 13445 H 1290.53 -5.7259 3.19094 0
M  V30 13446 H 1290.05 -5.8124 1.48054 0
M  V30 13447 H 1291.73 -6.16668 1.95781 0
M  V30 13448 N 1291.86 -0.526279 -1.48553 0
M  V30 13449 C 1292.79 0.227364 -2.3239 0
M  V30 13450 C 1293.77 0.93862 -1.41859 0
M  V30 13451 O 1294.96 0.925119 -1.70749 0
M  V30 13452 C 1292.09 1.277 -3.22971 0
M  V30 13453 C 1291.04 0.684107 -4.22497 0
M  V30 13454 C 1290.37 1.83612 -5.02186 0
M  V30 13455 C 1291.67 -0.341723 -5.21181 0
M  V30 13456 H 1293.36 -0.472486 -2.95648 0
M  V30 13457 H 1290.91 -0.228669 -1.42173 0
M  V30 13458 H 1292.86 1.81215 -3.80446 0
M  V30 13459 H 1291.58 2.00638 -2.57705 0
M  V30 13460 H 1290.24 0.170505 -3.66203 0
M  V30 13461 H 1289.89 2.55379 -4.33348 0
M  V30 13462 H 1289.59 1.44536 -5.69547 0
M  V30 13463 H 1291.11 2.37513 -5.62512 0
M  V30 13464 H 1292.53 0.106207 -5.73202 0
M  V30 13465 H 1290.92 -0.649673 -5.96573 0
M  V30 13466 H 1291.99 -1.2488 -4.68543 0
M  V30 13467 N 1293.34 1.5542 -0.261239 0
M  V30 13468 C 1294.27 2.24949 0.626126 0
M  V30 13469 C 1295.25 1.23474 1.16997 0
M  V30 13470 O 1296.43 1.52161 1.20667 0
M  V30 13471 C 1293.56 2.95996 1.81669 0
M  V30 13472 C 1292.52 4.04282 1.40499 0
M  V30 13473 C 1291.84 4.62831 2.67753 0
M  V30 13474 C 1293.14 5.1923 0.56543 0
M  V30 13475 H 1294.84 2.99364 0.0463164 0
M  V30 13476 H 1292.38 1.43985 0.0208366 0
M  V30 13477 H 1294.34 3.43343 2.44323 0
M  V30 13478 H 1293.06 2.19093 2.42211 0
M  V30 13479 H 1291.72 3.57726 0.801712 0
M  V30 13480 H 1291.37 3.82611 3.26524 0
M  V30 13481 H 1291.07 5.35938 2.40925 0
M  V30 13482 H 1292.59 5.12918 3.31281 0
M  V30 13483 H 1294.01 5.62714 1.09663 0
M  V30 13484 H 1292.4 5.98814 0.392607 0
M  V30 13485 H 1293.47 4.83086 -0.419059 0
M  V30 13486 N 1294.82 -0.0116844 1.57596 0
M  V30 13487 C 1295.75 -1.04043 2.03102 0
M  V30 13488 C 1296.73 -1.34164 0.918622 0
M  V30 13489 O 1297.91 -1.46527 1.18584 0
M  V30 13490 C 1295.04 -2.37094 2.41876 0
M  V30 13491 C 1294.08 -2.22713 3.63732 0
M  V30 13492 S 1294.92 -1.56416 5.12147 0
M  V30 13493 C 1296.07 -2.90921 5.5418 0
M  V30 13494 H 1296.31 -0.652899 2.90042 0
M  V30 13495 H 1293.84 -0.222201 1.52793 0
M  V30 13496 H 1295.8 -3.13602 2.64885 0
M  V30 13497 H 1294.46 -2.7299 1.55356 0
M  V30 13498 H 1293.65 -3.20976 3.88575 0
M  V30 13499 H 1293.25 -1.54349 3.40665 0
M  V30 13500 H 1295.54 -3.87237 5.55926 0
M  V30 13501 H 1296.49 -2.70792 6.54276 0
M  V30 13502 H 1296.9 -2.94293 4.81717 0
M  V30 13503 N 1296.29 -1.55015 -0.284256 0
M  V30 13504 C 1297.53 -1.76836 -1.02511 0
M  V30 13505 C 1297.9 -0.551675 -1.83904 0
M  V30 13506 O 1299.1 -0.647919 -2.60874 0
M  V30 13507 C 1297.37 -3.0312 -1.89348 0
M  V30 13508 S 1298.93 -3.46013 -2.69852 0
M  V30 13509 H 1295.75 -0.621436 -0.345453 0
M  V30 13510 H 1298.35 -1.93235 -0.296708 0
M  V30 13511 H 1297.05 -3.89778 -1.28458 0
M  V30 13512 H 1296.58 -2.89355 -2.66528 0
M  V30 13513 H 1298.6 -3.044 -3.91861 0
M  V30 13514 N 1297.77 0.548248 -1.47757 0
M  V30 13515 C 1298.73 1.63666 -1.60456 0
M  V30 13516 C 1299.73 1.53499 -0.479028 0
M  V30 13517 O 1300.92 1.57497 -0.744342 0
M  V30 13518 C 1298.06 3.03239 -1.55754 0
M  V30 13519 H 1299.25 1.53752 -2.57488 0
M  V30 13520 H 1296.8 0.768881 -1.36081 0
M  V30 13521 H 1297.54 3.18677 -0.601303 0
M  V30 13522 H 1297.32 3.12027 -2.37448 0
M  V30 13523 H 1298.81 3.82406 -1.67797 0
M  V30 13524 N 1299.25 1.36039 0.795694 0
M  V30 13525 C 1300.5 1.30112 1.5556 0
M  V30 13526 C 1300.83 -0.121197 1.93821 0
M  V30 13527 O 1300.1 -1.07313 1.62216 0
M  V30 13528 C 1300.39 2.21792 2.8369 0
M  V30 13529 C 1300.24 3.72691 2.51836 0
M  V30 13530 C 1301.56 2.12365 3.85472 0
M  V30 13531 H 1298.68 0.473971 0.564376 0
M  V30 13532 H 1301.32 1.66536 0.91465 0
M  V30 13533 H 1299.47 1.9086 3.38386 0
M  V30 13534 H 1301.14 4.14115 2.0324 0
M  V30 13535 H 1299.38 3.92436 1.84869 0
M  V30 13536 H 1300.06 4.32242 3.43323 0
M  V30 13537 H 1302.53 2.3958 3.40207 0
M  V30 13538 H 1301.41 2.78695 4.72885 0
M  V30 13539 H 1301.67 1.10898 4.27965 0
M  V30 13540 N 1300.73 -1.01913 1.20215 0
M  V30 13541 C 1301.68 -2.08774 0.916367 0
M  V30 13542 C 1302.66 -1.60431 -0.122796 0
M  V30 13543 O 1303.85 -1.76799 0.0842336 0
M  V30 13544 C 1300.98 -3.40102 0.467517 0
M  V30 13545 C 1300.07 -3.95153 1.53997 0
M  V30 13546 N 1300.46 -4.23745 2.76178 0
M  V30 13547 C 1298.76 -4.23274 1.40554 0
M  V30 13548 C 1299.46 -4.681 3.45336 0
M  V30 13549 N 1298.44 -4.70224 2.72745 0
M  V30 13550 H 1302.24 -2.28786 1.84484 0
M  V30 13551 H 1299.75 -1.19861 1.09577 0
M  V30 13552 H 1301.75 -4.16184 0.244195 0
M  V30 13553 H 1300.41 -3.21505 -0.454358 0
M  V30 13554 H 1301.42 -4.12728 3.12852 0
M  V30 13555 H 1298.1 -4.1389 0.547877 0
M  V30 13556 H 1299.49 -4.99063 4.49873 0
M  V30 13557 N 1302.21 -1.00763 -1.2118 0
M  V30 13558 C 1303.62 -0.724746 -1.72059 0
M  V30 13559 C 1303.97 0.757413 -1.80991 0
M  V30 13560 O 1303.09 1.59152 -1.46627 0
M  V30 13561 C 1303.69 -1.30893 -3.12494 0
M  V30 13562 C 1302.25 -1.07511 -3.60719 0
M  V30 13563 C 1301.39 -1.42014 -2.38175 0
M  V30 13564 H 1304.35 -1.17821 -1.0632 0
M  V30 13565 H 1304.37 -0.694919 -3.741 0
M  V30 13566 H 1303.88 -2.38767 -3.05961 0
M  V30 13567 H 1301.98 -0.0136518 -3.72597 0
M  V30 13568 H 1302.09 -1.74885 -4.4604 0
M  V30 13569 H 1300.46 -0.838972 -2.40486 0
M  V30 13570 H 1301.24 -2.50924 -2.34291 0
M  V30 13571 N 1303.68 1.3679 -0.7827 0
M  V30 13572 C 1304.91 2.03678 -0.363734 0
M  V30 13573 C 1305.33 1.59024 1.01768 0
M  V30 13574 O 1304.68 0.776541 1.65155 0
M  V30 13575 C 1304.74 3.59165 -0.410213 0
M  V30 13576 O 1304.46 4.02188 -1.73714 0
M  V30 13577 C 1305.96 4.43296 0.018972 0
M  V30 13578 H 1303.18 0.653828 -0.150829 0
M  V30 13579 H 1305.72 1.74903 -1.05968 0
M  V30 13580 H 1303.88 3.86673 0.237249 0
M  V30 13581 H 1304.29 4.96754 -1.68332 0
M  V30 13582 H 1305.76 5.51962 -0.0646943 0
M  V30 13583 H 1306.24 4.25948 1.07076 0
M  V30 13584 H 1306.85 4.21036 -0.600721 0
M  V30 13585 N 1305.16 0.53415 1.48272 0
M  V30 13586 C 1306.09 -0.215037 2.32508 0
M  V30 13587 C 1307.07 -0.931083 1.42355 0
M  V30 13588 O 1308.26 -0.916051 1.71237 0
M  V30 13589 C 1305.39 -1.25985 3.23643 0
M  V30 13590 C 1304.34 -0.661692 4.22854 0
M  V30 13591 C 1303.67 -1.80946 5.03153 0
M  V30 13592 C 1304.97 0.369358 5.20992 0
M  V30 13593 H 1306.66 0.488158 2.95394 0
M  V30 13594 H 1304.21 0.236206 1.4205 0
M  V30 13595 H 1306.16 -1.79195 3.81402 0
M  V30 13596 H 1304.89 -1.99268 2.58766 0
M  V30 13597 H 1303.54 -0.151082 3.66289 0
M  V30 13598 H 1303.19 -2.53077 4.34696 0
M  V30 13599 H 1302.89 -1.41513 5.70305 0
M  V30 13600 H 1304.42 -2.34526 5.63764 0
M  V30 13601 H 1305.83 -0.0758076 5.7325 0
M  V30 13602 H 1304.23 0.681301 5.9622 0
M  V30 13603 H 1305.3 1.27363 4.67875 0
M  V30 13604 N 1306.64 -1.55279 0.269478 0
M  V30 13605 C 1307.89 -1.99767 -0.34943 0
M  V30 13606 C 1308.22 -1.15762 -1.55926 0
M  V30 13607 O 1307.49 -0.22633 -1.93179 0
M  V30 13608 C 1307.78 -3.52474 -0.73716 0
M  V30 13609 C 1307.63 -4.47236 0.479621 0
M  V30 13610 C 1308.95 -4.10924 -1.57573 0
M  V30 13611 H 1306.07 -0.72623 -0.125535 0
M  V30 13612 H 1308.71 -1.86257 0.375298 0
M  V30 13613 H 1306.86 -3.64118 -1.35464 0
M  V30 13614 H 1308.53 -4.47543 1.11816 0
M  V30 13615 H 1306.78 -4.19127 1.11871 0
M  V30 13616 H 1307.45 -5.51754 0.164653 0
M  V30 13617 H 1309.92 -4.02522 -1.05429 0
M  V30 13618 H 1308.8 -5.17995 -1.81584 0
M  V30 13619 H 1309.06 -3.60798 -2.55495 0
M  V30 13620 N 1308.12 0.00332656 -1.576 0
M  V30 13621 C 1309.37 0.688869 -1.90423 0
M  V30 13622 C 1309.69 1.73963 -0.869896 0
M  V30 13623 O 1308.95 1.95295 0.125777 0
M  V30 13624 C 1309.25 1.37237 -3.30001 0
M  V30 13625 C 1308.91 0.455132 -4.48597 0
M  V30 13626 C 1307.58 0.202577 -4.80773 0
M  V30 13627 C 1309.93 -0.176597 -5.20901 0
M  V30 13628 C 1307.26 -0.690055 -5.82628 0
M  V30 13629 C 1309.61 -1.05708 -6.23705 0
M  V30 13630 C 1308.27 -1.31885 -6.54341 0
M  V30 13631 H 1307.54 0.252075 -0.696806 0
M  V30 13632 H 1310.19 -0.0514867 -1.91431 0
M  V30 13633 H 1308.49 2.18669 -3.25102 0
M  V30 13634 H 1310.19 1.9088 -3.52656 0
M  V30 13635 H 1306.78 0.662142 -4.23454 0
M  V30 13636 H 1310.96 0.0055127 -4.963 0
M  V30 13637 H 1306.22 -0.900902 -6.04726 0
M  V30 13638 H 1310.39 -1.55296 -6.78864 0
M  V30 13639 H 1308.02 -2.01222 -7.33085 0
M  V30 13640 N 1309.6 1.55164 0.276031 0
M  V30 13641 C 1310.87 1.66338 1.02913 0
M  V30 13642 C 1311.25 0.527876 2.04393 0
M  V30 13643 O 1310.6 -0.472437 2.23563 0
M  V30 13644 C 1310.81 3.05427 1.68865 0
M  V30 13645 C 1312.16 3.63075 2.2014 0
M  V30 13646 O 1313.18 3.0804 1.78857 0
M  V30 13647 O 1312.04 4.59492 2.95854 0
M  V30 13648 H 1309.14 0.675446 0.477181 0
M  V30 13649 H 1311.68 1.67504 0.272129 0
M  V30 13650 H 1310.45 3.79514 0.953125 0
M  V30 13651 H 1310.08 3.08147 2.5126 0
M  V30 13652 N 1311.07 -0.540404 1.48045 0
M  V30 13653 C 1312.32 -1.2932 1.54787 0
M  V30 13654 C 1312.64 -1.94335 0.222109 0
M  V30 13655 O 1313.84 -2.70982 0.167675 0
M  V30 13656 C 1312.3 -2.34594 2.72935 0
M  V30 13657 C 1311.91 -1.75696 4.1211 0
M  V30 13658 C 1313.65 -3.10949 2.88982 0
M  V30 13659 C 1311.56 -2.78849 5.21534 0
M  V30 13660 H 1310.49 -0.486315 0.576206 0
M  V30 13661 H 1313.14 -0.571998 1.74357 0
M  V30 13662 H 1311.52 -3.09704 2.46778 0
M  V30 13663 H 1312.69 -1.06845 4.48242 0
M  V30 13664 H 1311.01 -1.11869 4.01091 0
M  V30 13665 H 1313.61 -3.88012 3.679 0
M  V30 13666 H 1313.95 -3.66173 1.98048 0
M  V30 13667 H 1314.48 -2.42953 3.1499 0
M  V30 13668 H 1311.22 -2.28459 6.144 0
M  V30 13669 H 1310.74 -3.46059 4.89901 0
M  V30 13670 H 1312.42 -3.4203 5.49203 0
M  V30 13671 N 1312.55 -1.36459 -0.788468 0
M  V30 13672 C 1313.78 -1.33898 -1.57731 0
M  V30 13673 C 1314.2 0.0795471 -1.88632 0
M  V30 13674 O 1313.55 1.03671 -1.50195 0
M  V30 13675 C 1313.6 -2.16134 -2.89773 0
M  V30 13676 O 1313.32 -3.52457 -2.60203 0
M  V30 13677 C 1314.83 -2.21364 -3.84074 0
M  V30 13678 H 1312.05 -0.459269 -0.489197 0
M  V30 13679 H 1314.59 -1.79569 -0.978526 0
M  V30 13680 H 1312.74 -1.74015 -3.46118 0
M  V30 13681 H 1313.16 -3.95378 -3.4464 0
M  V30 13682 H 1314.63 -2.83261 -4.7378 0
M  V30 13683 H 1315.11 -1.21736 -4.21992 0
M  V30 13684 H 1315.72 -2.63723 -3.33662 0
M  V30 13685 N 1314.03 1.01274 -1.20754 0
M  V30 13686 C 1314.98 2.09894 -0.959852 0
M  V30 13687 C 1315.95 1.65726 0.111351 0
M  V30 13688 O 1317.13 1.90769 -0.0341721 0
M  V30 13689 C 1314.27 3.41126 -0.52223 0
M  V30 13690 C 1313.39 3.98749 -1.66202 0
M  V30 13691 C 1312.52 5.18057 -1.17432 0
M  V30 13692 C 1311.56 5.67772 -2.28694 0
M  V30 13693 N 1310.7 6.78338 -1.81114 0
M  V30 13694 H 1315.54 2.30416 -1.88977 0
M  V30 13695 H 1313.07 1.12989 -0.941906 0
M  V30 13696 H 1315.03 4.16451 -0.249799 0
M  V30 13697 H 1313.66 3.20665 0.370688 0
M  V30 13698 H 1312.71 3.20483 -2.04927 0
M  V30 13699 H 1314.03 4.31646 -2.49967 0
M  V30 13700 H 1313.18 6.00601 -0.858086 0
M  V30 13701 H 1311.92 4.86735 -0.306614 0
M  V30 13702 H 1310.92 4.8383 -2.61129 0
M  V30 13703 H 1312.15 6.01127 -3.15948 0
M  V30 13704 H 1310.09 6.48837 -0.966761 0
M  V30 13705 H 1310.01 7.10448 -2.58457 0
M  V30 13706 H 1311.28 7.64437 -1.52502 0
M  V30 13707 N 1315.51 1.01404 1.20644 0
M  V30 13708 C 1316.44 0.602465 2.25594 0
M  V30 13709 C 1317.42 -0.381216 1.65773 0
M  V30 13710 O 1318.61 -0.267209 1.92353 0
M  V30 13711 C 1315.74 -0.0626245 3.47244 0
M  V30 13712 C 1314.69 0.841776 4.1964 0
M  V30 13713 C 1314.02 0.0426002 5.34683 0
M  V30 13714 C 1315.32 2.14864 4.76058 0
M  V30 13715 H 1317.01 1.47977 2.60275 0
M  V30 13716 H 1314.56 0.712966 1.25111 0
M  V30 13717 H 1316.51 -0.362095 4.19841 0
M  V30 13718 H 1315.23 -0.974627 3.11719 0
M  V30 13719 H 1313.89 1.12521 3.48905 0
M  V30 13720 H 1313.54 -0.870973 4.95402 0
M  V30 13721 H 1313.24 0.644866 5.84051 0
M  V30 13722 H 1314.76 -0.250476 6.10086 0
M  V30 13723 H 1316.18 1.9117 5.40488 0
M  V30 13724 H 1314.57 2.70153 5.35852 0
M  V30 13725 H 1315.64 2.81336 3.9494 0
M  V30 13726 N 1316.99 -1.36373 0.789944 0
M  V30 13727 C 1317.92 -2.32616 0.202944 0
M  V30 13728 C 1318.9 -1.56674 -0.662364 0
M  V30 13729 O 1320.08 -1.84826 -0.596078 0
M  V30 13730 C 1317.21 -3.4092 -0.662646 0
M  V30 13731 C 1316.17 -4.27877 0.102811 0
M  V30 13732 C 1315.49 -5.27352 -0.883407 0
M  V30 13733 C 1316.79 -5.0606 1.29231 0
M  V30 13734 H 1318.49 -2.81958 1.00699 0
M  V30 13735 H 1316.03 -1.35562 0.48568 0
M  V30 13736 H 1317.99 -4.07239 -1.08324 0
M  V30 13737 H 1316.71 -2.90147 -1.4994 0
M  V30 13738 H 1315.37 -3.63114 0.504389 0
M  V30 13739 H 1315.02 -4.72853 -1.71521 0
M  V30 13740 H 1314.72 -5.86398 -0.375669 0
M  V30 13741 H 1316.24 -5.96545 -1.30256 0
M  V30 13742 H 1317.66 -5.65417 0.947446 0
M  V30 13743 H 1316.05 -5.74521 1.73338 0
M  V30 13744 H 1317.12 -4.37671 2.08739 0
M  V30 13745 N 1318.47 -0.542005 -1.47987 0
M  V30 13746 C 1319.4 0.202703 -2.32618 0
M  V30 13747 C 1320.38 0.923521 -1.42846 0
M  V30 13748 O 1321.56 0.906957 -1.7172 0
M  V30 13749 C 1318.69 1.24267 -3.24307 0
M  V30 13750 C 1317.65 0.639257 -4.23199 0
M  V30 13751 C 1316.97 1.78275 -5.04105 0
M  V30 13752 C 1318.27 -0.396982 -5.20789 0
M  V30 13753 H 1319.97 -0.503817 -2.95131 0
M  V30 13754 H 1317.51 -0.243736 -1.41922 0
M  V30 13755 H 1319.46 1.7717 -3.82347 0
M  V30 13756 H 1318.19 1.97893 -2.59819 0
M  V30 13757 H 1316.85 0.131655 -3.66364 0
M  V30 13758 H 1316.5 2.50768 -4.36032 0
M  V30 13759 H 1316.2 1.38487 -5.71047 0
M  V30 13760 H 1317.72 2.31533 -5.65 0
M  V30 13761 H 1319.13 0.0454057 -5.73282 0
M  V30 13762 H 1317.53 -0.712911 -5.9585 0
M  V30 13763 H 1318.6 -1.29843 -4.67193 0
M  V30 13764 N 1319.94 1.55134 -0.277709 0
M  V30 13765 C 1320.91 2.21327 0.595569 0
M  V30 13766 C 1321.91 1.19193 1.07933 0
M  V30 13767 O 1323.1 1.44081 0.979093 0
M  V30 13768 C 1320.23 2.88127 1.82196 0
M  V30 13769 H 1321.42 2.99895 0.0175855 0
M  V30 13770 H 1318.97 1.56274 -0.0283453 0
M  V30 13771 H 1319.71 2.13578 2.44039 0
M  V30 13772 H 1319.49 3.62974 1.48297 0
M  V30 13773 H 1320.98 3.38691 2.44291 0
M  V30 13774 N 1321.42 0.00503138 1.57599 0
M  V30 13775 C 1322.67 -0.679766 1.91068 0
M  V30 13776 C 1323 -1.73144 0.879486 0
M  V30 13777 O 1322.28 -1.94237 -0.101116 0
M  V30 13778 C 1322.56 -1.3183 3.35101 0
M  V30 13779 C 1322.41 -0.277833 4.48941 0
M  V30 13780 C 1323.73 -2.24308 3.78647 0
M  V30 13781 H 1320.85 -0.245646 0.694857 0
M  V30 13782 H 1323.49 0.057357 1.89913 0
M  V30 13783 H 1321.64 -1.94657 3.36216 0
M  V30 13784 H 1323.31 0.351136 4.59962 0
M  V30 13785 H 1321.56 0.399365 4.31958 0
M  V30 13786 H 1322.23 -0.763759 5.46691 0
M  V30 13787 H 1324.7 -1.71494 3.79116 0
M  V30 13788 H 1323.58 -2.6595 4.80169 0
M  V30 13789 H 1323.84 -3.12427 3.12797 0
M  V30 13790 N 1322.9 -1.55308 -0.267798 0
M  V30 13791 C 1324.15 -1.76159 -0.998707 0
M  V30 13792 C 1324.47 -0.565573 -1.86095 0
M  V30 13793 O 1323.73 0.45178 -1.90414 0
M  V30 13794 C 1324.03 -3.02286 -1.90678 0
M  V30 13795 C 1323.69 -4.34594 -1.20161 0
M  V30 13796 C 1322.36 -4.70553 -1.00664 0
M  V30 13797 C 1324.71 -5.16475 -0.7002 0
M  V30 13798 C 1322.04 -5.85945 -0.297629 0
M  V30 13799 C 1324.39 -6.326 -0.00475187 0
M  V30 13800 C 1323.05 -6.67195 0.20188 0
M  V30 13801 H 1322.32 -0.644613 -0.365453 0
M  V30 13802 H 1324.97 -1.89579 -0.270545 0
M  V30 13803 H 1323.27 -2.83788 -2.70133 0
M  V30 13804 H 1324.97 -3.15615 -2.47362 0
M  V30 13805 H 1321.56 -4.06334 -1.36348 0
M  V30 13806 H 1325.75 -4.89167 -0.838435 0
M  V30 13807 H 1321 -6.11268 -0.126864 0
M  V30 13808 H 1325.18 -6.95299 0.39151 0
M  V30 13809 H 1322.8 -7.56459 0.753252 0
M  V30 13810 N 1324.38 0.532545 -1.4833 0
M  V30 13811 C 1325.63 1.28597 -1.55908 0
M  V30 13812 C 1325.95 1.93595 -0.233635 0
M  V30 13813 O 1325.22 1.81197 0.744605 0
M  V30 13814 H 1323.8 0.477619 -0.57436 0
M  V30 13815 H 1326.46 0.619922 -1.84778 0
M  V30 13816 H 1325.55 2.0666 -2.33877 0
M  V30 13817 N 1325.86 1.36875 0.78122 0
M  V30 13818 C 1327.27 1.28236 1.35692 0
M  V30 13819 C 1327.62 -0.0742286 1.9606 0
M  V30 13820 O 1326.74 -0.97588 1.93146 0
M  V30 13821 C 1327.34 2.32215 2.46702 0
M  V30 13822 C 1325.9 2.2724 3.00065 0
M  V30 13823 C 1325.04 2.16553 1.73206 0
M  V30 13824 H 1327.99 1.47634 0.582217 0
M  V30 13825 H 1328.02 1.96333 3.25935 0
M  V30 13826 H 1327.53 3.30938 2.02735 0
M  V30 13827 H 1325.63 1.3201 3.48431 0
M  V30 13828 H 1325.74 3.20267 3.56323 0
M  V30 13829 H 1324.11 1.62941 1.95761 0
M  V30 13830 H 1324.89 3.17176 1.31356 0
M  V30 13831 N 1327.33 -1.00632 1.21289 0
M  V30 13832 C 1328.26 -2.11238 0.995021 0
M  V30 13833 C 1329.24 -1.69914 -0.0795537 0
M  V30 13834 O 1330.43 -1.94035 0.0800152 0
M  V30 13835 C 1327.56 -3.42797 0.557475 0
M  V30 13836 C 1326.51 -3.97909 1.57646 0
M  V30 13837 C 1325.84 -5.25357 0.995197 0
M  V30 13838 C 1327.14 -4.30123 2.96297 0
M  V30 13839 H 1328.83 -2.29722 1.9201 0
M  V30 13840 H 1326.38 -1.10395 0.924602 0
M  V30 13841 H 1328.33 -4.19571 0.392236 0
M  V30 13842 H 1327.06 -3.24101 -0.403253 0
M  V30 13843 H 1325.72 -3.23254 1.72924 0
M  V30 13844 H 1325.36 -5.02993 0.026227 0
M  V30 13845 H 1325.06 -5.63196 1.67583 0
M  V30 13846 H 1326.59 -6.04777 0.841251 0
M  V30 13847 H 1328 -4.97744 2.8447 0
M  V30 13848 H 1326.4 -4.79101 3.61361 0
M  V30 13849 H 1327.47 -3.38454 3.47242 0
M  V30 13850 N 1328.81 -1.02043 -1.20104 0
M  V30 13851 C 1330.06 -0.722748 -1.90126 0
M  V30 13852 C 1330.41 0.739891 -1.77605 0
M  V30 13853 O 1329.71 1.531 -1.152 0
M  V30 13854 C 1329.9 -1.098 -3.40116 0
M  V30 13855 C 1329.73 -2.59558 -3.67233 0
M  V30 13856 C 1328.5 -3.264 -3.85735 0
M  V30 13857 C 1330.7 -3.57753 -3.69483 0
M  V30 13858 N 1328.68 -4.65348 -4.00406 0
M  V30 13859 C 1330.05 -4.8228 -3.89623 0
M  V30 13860 C 1332.1 -3.51671 -3.52465 0
M  V30 13861 C 1330.81 -6.0146 -3.9451 0
M  V30 13862 C 1332.83 -4.70257 -3.58625 0
M  V30 13863 C 1332.2 -5.93595 -3.79242 0
M  V30 13864 H 1328.29 -0.316203 -0.71522 0
M  V30 13865 H 1330.88 -1.30602 -1.44399 0
M  V30 13866 H 1329.05 -0.543026 -3.84585 0
M  V30 13867 H 1330.78 -0.753461 -3.97624 0
M  V30 13868 H 1327.54 -2.76822 -3.84274 0
M  V30 13869 H 1327.96 -5.37501 -4.11609 0
M  V30 13870 H 1332.6 -2.57308 -3.35488 0
M  V30 13871 H 1330.32 -6.962 -4.10281 0
M  V30 13872 H 1333.91 -4.67171 -3.4676 0
M  V30 13873 H 1332.79 -6.83821 -3.83872 0
M  V30 13874 N 1330.29 1.35952 -0.797165 0
M  V30 13875 C 1331.54 1.98283 -0.369685 0
M  V30 13876 C 1331.85 1.63968 1.06649 0
M  V30 13877 O 1333.06 2.19591 1.59662 0
M  V30 13878 C 1331.51 3.54692 -0.610046 0
M  V30 13879 C 1331.12 3.97925 -2.05814 0
M  V30 13880 C 1332.87 4.23778 -0.247457 0
M  V30 13881 C 1330.77 5.47142 -2.24475 0
M  V30 13882 H 1329.7 0.741909 -0.134489 0
M  V30 13883 H 1332.35 1.55146 -0.979893 0
M  V30 13884 H 1330.74 3.95938 0.0699822 0
M  V30 13885 H 1331.91 3.67857 -2.77521 0
M  V30 13886 H 1330.23 3.417 -2.37971 0
M  V30 13887 H 1332.82 5.33452 -0.365059 0
M  V30 13888 H 1333.17 4.08436 0.805315 0
M  V30 13889 H 1333.7 3.87921 -0.881028 0
M  V30 13890 H 1330.44 5.67441 -3.28163 0
M  V30 13891 H 1329.96 5.78811 -1.57282 0
M  V30 13892 H 1331.64 6.13475 -2.05567 0
M  V30 13893 N 1331.77 0.549846 1.47697 0
M  V30 13894 C 1332.7 -0.190364 2.32723 0
M  V30 13895 C 1333.68 -0.915933 1.43334 0
M  V30 13896 O 1334.86 -0.897838 1.72199 0
M  V30 13897 C 1331.99 -1.22545 3.24961 0
M  V30 13898 C 1330.95 -0.616805 4.23532 0
M  V30 13899 C 1330.27 -1.75599 5.05044 0
M  V30 13900 C 1331.57 0.424595 5.20571 0
M  V30 13901 H 1333.27 0.519461 2.94859 0
M  V30 13902 H 1330.81 0.251259 1.41791 0
M  V30 13903 H 1332.77 -1.75139 3.83281 0
M  V30 13904 H 1331.49 -1.96512 2.60865 0
M  V30 13905 H 1330.15 -0.112224 3.66428 0
M  V30 13906 H 1329.8 -2.48453 4.37356 0
M  V30 13907 H 1329.5 -1.35456 5.71774 0
M  V30 13908 H 1331.02 -2.28533 5.6622 0
M  V30 13909 H 1332.44 -0.0150025 5.73298 0
M  V30 13910 H 1330.83 0.7445 5.95464 0
M  V30 13911 H 1331.9 1.32318 4.66497 0
M  V30 13912 N 1333.25 -1.54984 0.285932 0
M  V30 13913 C 1334.18 -2.20365 -0.630236 0
M  V30 13914 C 1335.19 -1.19168 -1.10918 0
M  V30 13915 O 1336.38 -1.45839 -1.02923 0
M  V30 13916 C 1333.48 -2.8244 -1.87299 0
M  V30 13917 C 1332.65 -4.09429 -1.53905 0
M  V30 13918 C 1331.71 -4.55449 -2.63538 0
M  V30 13919 O 1330.74 -5.20985 -2.29267 0
M  V30 13920 N 1331.94 -4.26498 -3.93802 0
M  V30 13921 H 1334.71 -2.99617 -0.0706044 0
M  V30 13922 H 1332.27 -1.61543 0.107486 0
M  V30 13923 H 1334.26 -3.10167 -2.59959 0
M  V30 13924 H 1332.83 -2.07117 -2.34139 0
M  V30 13925 H 1332.05 -3.88875 -0.645774 0
M  V30 13926 H 1333.34 -4.92146 -1.29111 0
M  V30 13927 H 1332.73 -3.73964 -4.24461 0
M  V30 13928 H 1331.29 -4.5897 -4.62807 0
M  V30 13929 N 1334.72 -0.0133892 -1.57594 0
M  V30 13930 C 1335.69 0.958601 -2.08191 0
M  V30 13931 C 1336.69 1.26408 -0.993865 0
M  V30 13932 O 1337.88 1.20703 -1.25604 0
M  V30 13933 C 1335.01 2.27971 -2.5346 0
M  V30 13934 H 1336.2 0.520686 -2.95345 0
M  V30 13935 H 1333.76 0.234351 -1.54533 0
M  V30 13936 H 1334.49 2.76424 -1.69588 0
M  V30 13937 H 1334.28 2.07116 -3.32935 0
M  V30 13938 H 1335.77 2.97672 -2.92884 0
M  V30 13939 N 1336.2 1.55448 0.259558 0
M  V30 13940 C 1337.43 1.81063 1.01148 0
M  V30 13941 C 1337.85 0.58875 1.78649 0
M  V30 13942 O 1337.21 -0.461971 1.75315 0
M  V30 13943 C 1337.26 3.04279 1.93512 0
M  V30 13944 O 1336.36 2.80307 3.02493 0
M  V30 13945 H 1335.7 0.598056 0.288487 0
M  V30 13946 H 1338.23 2.02614 0.284387 0
M  V30 13947 H 1338.24 3.33373 2.35215 0
M  V30 13948 H 1336.92 3.92856 1.36518 0
M  V30 13949 H 1335.5 2.62345 2.65008 0
M  V30 13950 N 1337.68 -0.524672 1.4861 0
M  V30 13951 C 1338.61 -1.63782 1.66426 0
M  V30 13952 C 1339.59 -1.62177 0.513077 0
M  V30 13953 O 1340.78 -1.7929 0.74623 0
M  V30 13954 C 1337.91 -3.02354 1.70877 0
M  V30 13955 C 1336.86 -3.18819 2.85549 0
M  V30 13956 C 1336.19 -4.58506 2.75094 0
M  V30 13957 C 1337.49 -3.01086 4.26784 0
M  V30 13958 H 1339.18 -1.49127 2.59618 0
M  V30 13959 H 1336.73 -0.715997 1.24938 0
M  V30 13960 H 1338.68 -3.80105 1.81929 0
M  V30 13961 H 1337.4 -3.18044 0.742682 0
M  V30 13962 H 1336.06 -2.43487 2.74061 0
M  V30 13963 H 1335.71 -4.71038 1.76443 0
M  V30 13964 H 1335.41 -4.70466 3.52044 0
M  V30 13965 H 1336.93 -5.38348 2.88121 0
M  V30 13966 H 1338.35 -3.68624 4.39077 0
M  V30 13967 H 1336.75 -3.24536 5.04774 0
M  V30 13968 H 1337.82 -1.97454 4.42877 0
M  V30 13969 N 1339.16 -1.37287 -0.77395 0
M  V30 13970 C 1340.09 -1.35569 -1.90114 0
M  V30 13971 C 1341.07 -0.224658 -1.6861 0
M  V30 13972 O 1342.25 -0.424676 -1.895 0
M  V30 13973 C 1339.38 -1.15971 -3.27365 0
M  V30 13974 C 1338.34 -2.26063 -3.63427 0
M  V30 13975 C 1337.66 -1.9159 -4.99197 0
M  V30 13976 C 1338.96 -3.68236 -3.70405 0
M  V30 13977 H 1340.66 -2.29891 -1.91808 0
M  V30 13978 H 1338.2 -1.10661 -0.92142 0
M  V30 13979 H 1340.16 -1.134 -4.05855 0
M  V30 13980 H 1338.88 -0.181043 -3.26098 0
M  V30 13981 H 1337.54 -2.27786 -2.87244 0
M  V30 13982 H 1337.19 -0.922586 -4.94467 0
M  V30 13983 H 1336.89 -2.65309 -5.24294 0
M  V30 13984 H 1338.41 -1.90602 -5.80089 0
M  V30 13985 H 1339.83 -3.68655 -4.39052 0
M  V30 13986 H 1338.22 -4.4099 -4.06999 0
M  V30 13987 H 1339.29 -4.02021 -2.71122 0
M  V30 13988 N 1340.64 0.999871 -1.21821 0
M  V30 13989 C 1341.58 2.08864 -0.98206 0
M  V30 13990 C 1342.55 1.65835 0.0937677 0
M  V30 13991 O 1343.74 1.90722 -0.0544038 0
M  V30 13992 C 1340.88 3.40553 -0.558382 0
M  V30 13993 C 1339.99 3.96964 -1.70422 0
M  V30 13994 C 1339.13 5.16782 -1.2292 0
M  V30 13995 C 1338.17 5.65315 -2.34703 0
M  V30 13996 N 1337.3 6.76379 -1.88299 0
M  V30 13997 H 1342.14 2.28399 -1.9141 0
M  V30 13998 H 1339.68 1.11984 -0.953837 0
M  V30 13999 H 1341.64 4.16163 -0.293955 0
M  V30 14000 H 1340.27 3.2104 0.336656 0
M  V30 14001 H 1339.32 3.18291 -2.08315 0
M  V30 14002 H 1340.63 4.2897 -2.54531 0
M  V30 14003 H 1339.79 5.99657 -0.92174 0
M  V30 14004 H 1338.52 4.86383 -0.358222 0
M  V30 14005 H 1337.53 4.81033 -2.66246 0
M  V30 14006 H 1338.75 5.97742 -3.22306 0
M  V30 14007 H 1336.7 6.47775 -1.03552 0
M  V30 14008 H 1336.62 7.07666 -2.65978 0
M  V30 14009 H 1337.89 7.62776 -1.60601 0
M  V30 14010 N 1342.11 1.02678 1.19562 0
M  V30 14011 C 1343.36 0.723086 1.89471 0
M  V30 14012 C 1343.69 -0.746269 1.79289 0
M  V30 14013 O 1342.97 -1.54322 1.18384 0
M  V30 14014 C 1343.25 1.17224 3.40486 0
M  V30 14015 C 1343.1 2.70266 3.5955 0
M  V30 14016 C 1344.42 0.751397 4.33638 0
M  V30 14017 H 1341.54 0.264155 0.688034 0
M  V30 14018 H 1344.18 1.27633 1.40747 0
M  V30 14019 H 1342.33 0.701544 3.82113 0
M  V30 14020 H 1344.01 3.25266 3.27108 0
M  V30 14021 H 1342.25 3.10758 3.02675 0
M  V30 14022 H 1342.92 2.96748 4.65451 0
M  V30 14023 H 1345.4 1.15621 3.99714 0
M  V30 14024 H 1344.27 1.09358 5.37896 0
M  V30 14025 H 1344.53 -0.346367 4.40741 0
M  V30 14026 N 1343.59 -1.35528 0.804364 0
M  V30 14027 C 1345 -1.81321 0.444933 0
M  V30 14028 C 1345.35 -1.66816 -1.03281 0
M  V30 14029 O 1344.48 -1.19753 -1.80245 0
M  V30 14030 C 1345.07 -3.29199 0.800827 0
M  V30 14031 C 1343.63 -3.73144 0.494026 0
M  V30 14032 C 1342.78 -2.57557 1.02761 0
M  V30 14033 H 1345.73 -1.23537 0.996203 0
M  V30 14034 H 1345.75 -3.80375 0.0975117 0
M  V30 14035 H 1345.26 -3.39725 1.8764 0
M  V30 14036 H 1343.37 -3.68169 -0.572901 0
M  V30 14037 H 1343.48 -4.68005 1.0251 0
M  V30 14038 H 1341.84 -2.50692 0.450048 0
M  V30 14039 H 1342.63 -2.70861 2.10925 0
M  V30 14040 N 1345.07 -0.557671 -1.47404 0
M  V30 14041 C 1346.3 -0.0386038 -2.06564 0
M  V30 14042 C 1346.71 1.26075 -1.41074 0
M  V30 14043 O 1346.05 1.76723 -0.501453 0
M  V30 14044 C 1346.11 0.22746 -3.5878 0
M  V30 14045 C 1345.78 -0.982526 -4.46313 0
M  V30 14046 C 1346.78 -1.88821 -4.84399 0
M  V30 14047 C 1344.46 -1.19733 -4.87821 0
M  V30 14048 C 1346.45 -2.99238 -5.62793 0
M  V30 14049 C 1344.14 -2.30459 -5.65979 0
M  V30 14050 C 1345.14 -3.20042 -6.03375 0
M  V30 14051 O 1344.83 -4.28849 -6.79959 0
M  V30 14052 H 1344.56 -0.0430229 -0.67463 0
M  V30 14053 H 1347.11 -0.770801 -1.90389 0
M  V30 14054 H 1345.34 1.01397 -3.73169 0
M  V30 14055 H 1347.03 0.691966 -3.99958 0
M  V30 14056 H 1347.8 -1.73431 -4.52931 0
M  V30 14057 H 1343.68 -0.509223 -4.58179 0
M  V30 14058 H 1347.22 -3.69187 -5.91901 0
M  V30 14059 H 1343.12 -2.45821 -5.9686 0
M  V30 14060 H 1343.89 -4.26903 -6.98353 0
M  V30 14061 N 1346.55 1.54831 -0.294147 0
M  V30 14062 C 1347.8 2.00001 0.317135 0
M  V30 14063 C 1348.12 1.18256 1.54421 0
M  V30 14064 O 1347.38 0.245035 1.9416 0
M  V30 14065 C 1347.68 3.4997 0.72495 0
M  V30 14066 C 1347.34 4.49126 -0.399616 0
M  V30 14067 C 1346.01 4.75958 -0.708354 0
M  V30 14068 C 1348.36 5.08208 -1.15644 0
M  V30 14069 C 1345.69 5.59137 -1.77716 0
M  V30 14070 C 1348.04 5.9255 -2.21512 0
M  V30 14071 C 1346.7 6.17695 -2.52999 0
M  V30 14072 H 1345.97 0.731856 0.116048 0
M  V30 14073 H 1348.62 1.87019 -0.41182 0
M  V30 14074 H 1346.92 3.60526 1.53388 0
M  V30 14075 H 1348.62 3.82341 1.20898 0
M  V30 14076 H 1345.21 4.28341 -0.148877 0
M  V30 14077 H 1349.4 4.87486 -0.931178 0
M  V30 14078 H 1344.65 5.76859 -2.02592 0
M  V30 14079 H 1348.83 6.37359 -2.80617 0
M  V30 14080 H 1346.45 6.81939 -3.35951 0
M  V30 14081 N 1348.03 0.0217466 1.57585 0
M  V30 14082 C 1349.27 -0.659463 1.91778 0
M  V30 14083 C 1349.61 -1.72201 0.897801 0
M  V30 14084 O 1348.88 -1.94333 -0.080509 0
M  V30 14085 C 1349.16 -1.28269 3.36481 0
M  V30 14086 C 1349.02 -0.230201 4.49211 0
M  V30 14087 C 1350.34 -2.20279 3.81005 0
M  V30 14088 H 1347.46 -0.238263 0.697424 0
M  V30 14089 H 1350.1 0.0774967 1.89842 0
M  V30 14090 H 1348.25 -1.9108 3.38262 0
M  V30 14091 H 1349.92 0.399901 4.59563 0
M  V30 14092 H 1348.16 0.445157 4.3151 0
M  V30 14093 H 1348.83 -0.705732 5.4747 0
M  V30 14094 H 1351.31 -1.67463 3.80914 0
M  V30 14095 H 1350.19 -2.60842 4.82962 0
M  V30 14096 H 1350.45 -3.09092 3.16093 0
M  V30 14097 N 1349.51 -1.55583 -0.251311 0
M  V30 14098 C 1350.92 -1.47908 -0.599606 0
M  V30 14099 C 1351.12 -0.711061 -1.88537 0
M  V30 14100 O 1350.18 -0.238639 -2.5137 0
M  V30 14101 C 1351.49 -2.92284 -0.706429 0
M  V30 14102 C 1353.04 -3.02629 -0.799049 0
M  V30 14103 C 1353.51 -4.48303 -0.93747 0
M  V30 14104 N 1355 -4.52222 -1.00245 0
M  V30 14105 C 1355.74 -5.62181 -1.12874 0
M  V30 14106 N 1355.24 -6.81958 -1.22085 0
M  V30 14107 N 1357.03 -5.49968 -1.16155 0
M  V30 14108 H 1349.18 -2.0396 0.592806 0
M  V30 14109 H 1351.44 -0.925797 0.203971 0
M  V30 14110 H 1351.15 -3.51297 0.168243 0
M  V30 14111 H 1351.02 -3.42524 -1.57979 0
M  V30 14112 H 1353.41 -2.43699 -1.66418 0
M  V30 14113 H 1353.49 -2.55607 0.099367 0
M  V30 14114 H 1353.13 -5.07842 -0.0769166 0
M  V30 14115 H 1353.06 -4.93002 -1.85086 0
M  V30 14116 H 1355.56 -3.65951 -0.94279 0
M  V30 14117 H 1355.87 -7.6151 -1.31616 0
M  V30 14118 H 1354.21 -6.84728 -1.1905 0
M  V30 14119 H 1357.4 -4.55327 -1.08604 0
M  V30 14120 H 1357.58 -6.35701 -1.25653 0
M  V30 14121 N 1350.98 0.516783 -1.48886 0
M  V30 14122 C 1352.23 1.27375 -1.57808 0
M  V30 14123 C 1352.56 1.92492 -0.256963 0
M  V30 14124 O 1351.84 1.79947 0.738193 0
M  V30 14125 C 1352.12 2.35295 -2.72595 0
M  V30 14126 C 1351.97 1.74783 -4.14453 0
M  V30 14127 C 1353.29 3.36973 -2.83085 0
M  V30 14128 H 1350.41 0.46175 -0.574418 0
M  V30 14129 H 1353.05 0.57434 -1.81111 0
M  V30 14130 H 1351.2 2.94951 -2.52857 0
M  V30 14131 H 1352.88 1.19076 -4.45666 0
M  V30 14132 H 1351.12 1.05258 -4.20836 0
M  V30 14133 H 1351.79 2.52985 -4.90615 0
M  V30 14134 H 1354.27 2.87289 -3.01005 0
M  V30 14135 H 1353.14 4.09864 -3.65106 0
M  V30 14136 H 1353.4 3.98336 -1.91784 0
M  V30 14137 N 1352.46 1.37696 0.766659 0
M  V30 14138 C 1353.39 1.2975 1.88938 0
M  V30 14139 C 1354.41 0.212278 1.6141 0
M  V30 14140 O 1355.6 0.468825 1.72233 0
M  V30 14141 C 1352.7 0.984553 3.24283 0
M  V30 14142 C 1351.87 2.17625 3.79418 0
M  V30 14143 C 1350.93 1.83279 4.9325 0
M  V30 14144 O 1349.95 2.55631 5.08568 0
M  V30 14145 N 1351.16 0.779941 5.75237 0
M  V30 14146 H 1353.92 2.26492 1.96269 0
M  V30 14147 H 1351.48 1.31387 0.946001 0
M  V30 14148 H 1353.47 0.735536 3.9796 0
M  V30 14149 H 1352.04 0.105527 3.12422 0
M  V30 14150 H 1351.26 2.58672 2.9746 0
M  V30 14151 H 1352.55 2.97187 4.12986 0
M  V30 14152 H 1351.95 0.179661 5.65415 0
M  V30 14153 H 1350.51 0.59079 6.49117 0
M  V30 14154 N 1353.94 -0.993397 1.22349 0
M  V30 14155 C 1355.19 -1.72945 1.04568 0
M  V30 14156 C 1355.51 -1.90419 -0.420178 0
M  V30 14157 O 1354.78 -1.46348 -1.30227 0
M  V30 14158 H 1353.36 -0.640777 0.383945 0
M  V30 14159 H 1356.02 -1.19647 1.53853 0
M  V30 14160 H 1355.12 -2.72411 1.52311 0
M  V30 14161 N 1355.42 -1.03311 -1.19015 0
M  V30 14162 C 1356.35 -0.638279 -2.24607 0
M  V30 14163 C 1357.33 0.354795 -1.66359 0
M  V30 14164 O 1358.51 0.236574 -1.92754 0
M  V30 14165 C 1355.64 0.00737316 -3.47299 0
M  V30 14166 C 1354.6 -0.908431 -4.18248 0
M  V30 14167 C 1353.92 -0.127658 -5.34548 0
M  V30 14168 C 1355.22 -2.2241 -4.72579 0
M  V30 14169 H 1356.92 -1.52099 -2.57888 0
M  V30 14170 H 1354.46 -0.732779 -1.23961 0
M  V30 14171 H 1356.42 0.295256 -4.20364 0
M  V30 14172 H 1355.14 0.924912 -3.1323 0
M  V30 14173 H 1353.8 -1.18058 -3.47071 0
M  V30 14174 H 1353.45 0.792048 -4.96725 0
M  V30 14175 H 1353.15 -0.737702 -5.82951 0
M  V30 14176 H 1354.67 0.153385 -6.10407 0
M  V30 14177 H 1356.09 -1.99745 -5.37378 0
M  V30 14178 H 1354.48 -2.78644 -5.31486 0
M  V30 14179 H 1355.55 -2.87584 -3.90415 0
M  V30 14180 N 1356.9 1.35099 -0.81154 0
M  V30 14181 C 1357.83 2.32264 -0.239925 0
M  V30 14182 C 1358.81 1.57708 0.637354 0
M  V30 14183 O 1359.99 1.85751 0.566598 0
M  V30 14184 C 1357.12 3.41931 0.608325 0
M  V30 14185 C 1356.08 4.27659 -0.170869 0
M  V30 14186 C 1355.4 5.28691 0.799398 0
M  V30 14187 C 1356.7 5.0394 -1.37266 0
M  V30 14188 H 1358.4 2.8032 -1.05172 0
M  V30 14189 H 1355.94 1.34773 -0.507185 0
M  V30 14190 H 1357.89 4.08911 1.01832 0
M  V30 14191 H 1356.62 2.92496 1.45306 0
M  V30 14192 H 1355.28 3.62265 -0.562094 0
M  V30 14193 H 1354.93 4.75521 1.63977 0
M  V30 14194 H 1354.63 5.86921 0.282331 0
M  V30 14195 H 1356.15 5.98542 1.20749 0
M  V30 14196 H 1357.56 5.63838 -1.03728 0
M  V30 14197 H 1355.96 5.7169 -1.82456 0
M  V30 14198 H 1357.03 4.34295 -2.15676 0
M  V30 14199 N 1358.37 0.56548 1.47106 0
M  V30 14200 C 1359.79 0.225855 1.57994 0
M  V30 14201 C 1359.99 -1.27173 1.56299 0
M  V30 14202 O 1359.05 -2.05242 1.47078 0
M  V30 14203 C 1360.36 0.859829 2.88145 0
M  V30 14204 C 1361.91 0.831821 3.01744 0
M  V30 14205 C 1362.38 1.44502 4.34607 0
M  V30 14206 N 1363.87 1.40857 4.41263 0
M  V30 14207 C 1364.61 1.85258 5.42648 0
M  V30 14208 N 1364.1 2.37553 6.508 0
M  V30 14209 N 1365.9 1.76279 5.33744 0
M  V30 14210 H 1358.05 1.53837 1.46451 0
M  V30 14211 H 1360.31 0.642013 0.697512 0
M  V30 14212 H 1360.02 1.91264 2.95146 0
M  V30 14213 H 1359.89 0.357762 3.755 0
M  V30 14214 H 1362.28 -0.212319 2.94335 0
M  V30 14215 H 1362.36 1.37173 2.1591 0
M  V30 14216 H 1362 2.48827 4.42773 0
M  V30 14217 H 1361.93 0.880479 5.19187 0
M  V30 14218 H 1364.42 1.02614 3.63702 0
M  V30 14219 H 1364.74 2.69335 7.24347 0
M  V30 14220 H 1363.08 2.41569 6.51667 0
M  V30 14221 H 1366.27 1.35195 4.48152 0
M  V30 14222 H 1366.45 2.11199 6.12616 0
M  V30 14223 N 1359.85 -1.54672 0.302354 0
M  V30 14224 C 1361.1 -2.00167 -0.306524 0
M  V30 14225 C 1361.43 -1.19073 -1.53791 0
M  V30 14226 O 1360.68 -0.255328 -1.94027 0
M  V30 14227 C 1360.98 -3.5035 -0.70638 0
M  V30 14228 C 1360.65 -4.48907 0.423429 0
M  V30 14229 C 1359.31 -4.75575 0.733586 0
M  V30 14230 C 1361.66 -5.07588 1.18338 0
M  V30 14231 C 1358.99 -5.58186 1.80679 0
M  V30 14232 C 1361.34 -5.91367 2.24651 0
M  V30 14233 C 1360.01 -6.16345 2.56272 0
M  V30 14234 H 1359.28 -0.732462 -0.112165 0
M  V30 14235 H 1361.92 -1.86798 0.421732 0
M  V30 14236 H 1360.23 -3.61335 -1.51474 0
M  V30 14237 H 1361.92 -3.82977 -1.18869 0
M  V30 14238 H 1358.51 -4.28256 0.171591 0
M  V30 14239 H 1362.7 -4.86985 0.957018 0
M  V30 14240 H 1357.95 -5.75776 2.05649 0
M  V30 14241 H 1362.13 -6.35862 2.83994 0
M  V30 14242 H 1359.76 -6.80148 3.39563 0
M  V30 14243 N 1361.33 -0.0301034 -1.57571 0
M  V30 14244 C 1362.57 0.652469 -1.93706 0
M  V30 14245 C 1362.93 1.69236 -0.906817 0
M  V30 14246 O 1364.14 2.42749 -1.1544 0
M  V30 14247 C 1362.41 1.25199 -3.34753 0
M  V30 14248 S 1363.97 1.9555 -3.92817 0
M  V30 14249 H 1360.78 0.214795 -0.677779 0
M  V30 14250 H 1363.39 -0.0940038 -1.95274 0
M  V30 14251 H 1362.09 0.482732 -4.07551 0
M  V30 14252 H 1361.62 2.03575 -3.36632 0
M  V30 14253 H 1363.64 3.23401 -3.76332 0
M  V30 14254 N 1362.81 1.55714 0.243056 0
M  V30 14255 C 1363.77 1.89832 1.28438 0
M  V30 14256 C 1364.77 0.775083 1.40887 0
M  V30 14257 O 1365.96 1.04304 1.39521 0
M  V30 14258 C 1363.09 2.13016 2.66153 0
M  V30 14259 H 1364.29 2.82947 0.994022 0
M  V30 14260 H 1361.84 1.48665 0.482521 0
M  V30 14261 H 1362.57 1.22381 3.00322 0
M  V30 14262 H 1362.36 2.94824 2.58498 0
M  V30 14263 H 1363.85 2.40581 3.41336 0
M  V30 14264 N 1364.29 -0.50888 1.49158 0
M  V30 14265 C 1365.22 -1.62008 1.68154 0
M  V30 14266 C 1366.2 -1.61624 0.53025 0
M  V30 14267 O 1367.38 -1.78489 0.765205 0
M  V30 14268 C 1364.51 -3.00525 1.74075 0
M  V30 14269 C 1363.47 -3.15773 2.88915 0
M  V30 14270 C 1362.79 -4.55562 2.79942 0
M  V30 14271 C 1364.09 -2.96542 4.29953 0
M  V30 14272 H 1365.79 -1.46365 2.61185 0
M  V30 14273 H 1363.33 -0.702705 1.2569 0
M  V30 14274 H 1365.29 -3.78154 1.8595 0
M  V30 14275 H 1364.01 -3.17238 0.776373 0
M  V30 14276 H 1362.67 -2.40567 2.76628 0
M  V30 14277 H 1362.32 -4.6914 1.81429 0
M  V30 14278 H 1362.02 -4.66706 3.57015 0
M  V30 14279 H 1363.54 -5.35262 2.93814 0
M  V30 14280 H 1364.95 -3.63947 4.42963 0
M  V30 14281 H 1363.35 -3.19164 5.08187 0
M  V30 14282 H 1364.42 -1.92745 4.44946 0
M  V30 14283 N 1365.76 -1.381 -0.759346 0
M  V30 14284 C 1366.73 -1.34674 -1.8546 0
M  V30 14285 C 1367.73 -0.248351 -1.58871 0
M  V30 14286 O 1368.92 -0.504915 -1.66722 0
M  V30 14287 C 1366.05 -1.0952 -3.22828 0
M  V30 14288 H 1367.24 -2.3211 -1.89908 0
M  V30 14289 H 1364.8 -1.2331 -0.960435 0
M  V30 14290 H 1365.53 -0.126664 -3.24053 0
M  V30 14291 H 1365.32 -1.89037 -3.43522 0
M  V30 14292 H 1366.81 -1.09804 -4.02906 0
M  V30 14293 N 1367.24 0.986894 -1.22875 0
M  V30 14294 C 1368.66 1.25185 -0.989997 0
M  V30 14295 C 1368.86 1.99057 0.31282 0
M  V30 14296 O 1367.91 2.30361 1.03392 0
M  V30 14297 C 1369.23 2.05775 -2.19265 0
M  V30 14298 C 1370.78 2.18938 -2.23686 0
M  V30 14299 C 1371.25 3.02917 -3.43519 0
M  V30 14300 N 1372.74 3.10503 -3.43718 0
M  V30 14301 C 1373.48 3.75789 -4.33094 0
M  V30 14302 N 1372.97 4.42952 -5.32696 0
M  V30 14303 N 1374.77 3.72611 -4.20854 0
M  V30 14304 H 1366.92 0.491816 -2.06628 0
M  V30 14305 H 1369.18 0.279856 -0.905751 0
M  V30 14306 H 1368.89 1.58864 -3.13776 0
M  V30 14307 H 1368.76 3.06529 -2.19818 0
M  V30 14308 H 1371.15 2.65061 -1.29718 0
M  V30 14309 H 1371.23 1.17595 -2.27168 0
M  V30 14310 H 1370.87 2.57493 -4.3779 0
M  V30 14311 H 1370.8 4.04415 -3.37277 0
M  V30 14312 H 1373.29 2.62709 -2.71647 0
M  V30 14313 H 1373.61 4.90527 -5.97162 0
M  V30 14314 H 1371.95 4.41681 -5.36603 0
M  V30 14315 H 1375.14 3.19305 -3.42289 0
M  V30 14316 H 1375.31 4.2321 -4.90711 0
M  V30 14317 N 1368.72 1.0394 1.18466 0
M  V30 14318 C 1369.67 0.629352 2.22054 0
M  V30 14319 C 1370.64 -0.362187 1.62103 0
M  V30 14320 O 1371.82 -0.256457 1.89069 0
M  V30 14321 C 1368.96 -0.00282888 3.451 0
M  V30 14322 C 1368.08 1.03602 4.19393 0
M  V30 14323 C 1367.21 0.372492 5.29892 0
M  V30 14324 C 1366.25 1.39652 5.95956 0
M  V30 14325 N 1365.39 0.758053 6.97996 0
M  V30 14326 H 1370.23 1.51722 2.56485 0
M  V30 14327 H 1367.76 0.759043 1.26004 0
M  V30 14328 H 1369.72 -0.386688 4.15404 0
M  V30 14329 H 1368.35 -0.854224 3.11292 0
M  V30 14330 H 1367.4 1.53784 3.47929 0
M  V30 14331 H 1368.72 1.81387 4.64651 0
M  V30 14332 H 1367.87 -0.065642 6.06664 0
M  V30 14333 H 1366.61 -0.437462 4.85734 0
M  V30 14334 H 1365.61 1.84481 5.17926 0
M  V30 14335 H 1366.84 2.20816 6.42197 0
M  V30 14336 H 1364.78 -0.0316173 6.55992 0
M  V30 14337 H 1364.7 1.47363 7.41499 0
M  V30 14338 H 1365.97 0.344273 7.78739 0
M  V30 14339 N 1370.2 -1.34667 0.818693 0
M  V30 14340 C 1371.13 -2.27466 0.182904 0
M  V30 14341 C 1372.11 -1.48682 -0.65821 0
M  V30 14342 O 1373.29 -1.77912 -0.622868 0
M  V30 14343 C 1370.42 -3.30406 -0.744971 0
M  V30 14344 C 1369.47 -4.26496 0.018069 0
M  V30 14345 S 1370.3 -5.1788 1.36236 0
M  V30 14346 C 1371.46 -6.24357 0.43925 0
M  V30 14347 H 1371.69 -2.81042 0.969668 0
M  V30 14348 H 1369.22 -1.4165 0.614372 0
M  V30 14349 H 1371.18 -3.90205 -1.27478 0
M  V30 14350 H 1369.84 -2.75684 -1.50522 0
M  V30 14351 H 1369.03 -4.99294 -0.687141 0
M  V30 14352 H 1368.64 -3.70929 0.478291 0
M  V30 14353 H 1370.93 -6.76484 -0.370837 0
M  V30 14354 H 1371.87 -6.98916 1.13678 0
M  V30 14355 H 1372.28 -5.64492 0.0295605 0
M  V30 14356 N 1371.68 -0.573274 -1.46804 0
M  V30 14357 C 1372.93 -0.0530267 -2.0163 0
M  V30 14358 C 1373.24 1.31124 -1.45141 0
M  V30 14359 O 1374.44 1.92231 -1.91728 0
M  V30 14360 C 1372.9 -0.0442411 -3.59873 0
M  V30 14361 C 1372.51 -1.40625 -4.25357 0
M  V30 14362 C 1374.25 0.422556 -4.22392 0
M  V30 14363 C 1372.16 -1.3557 -5.75652 0
M  V30 14364 H 1371.09 -0.0160537 -0.753829 0
M  V30 14365 H 1373.74 -0.723518 -1.68634 0
M  V30 14366 H 1372.12 0.692225 -3.89903 0
M  V30 14367 H 1373.3 -2.1617 -4.06949 0
M  V30 14368 H 1371.61 -1.81229 -3.74893 0
M  V30 14369 H 1374.21 0.479021 -5.3255 0
M  V30 14370 H 1374.55 1.43806 -3.90673 0
M  V30 14371 H 1375.08 -0.259551 -3.96952 0
M  V30 14372 H 1371.82 -2.34772 -6.12015 0
M  V30 14373 H 1371.34 -0.642309 -5.96351 0
M  V30 14374 H 1373.02 -1.06458 -6.38182 0
M  V30 14375 N 1373.15 1.5451 -0.310553 0
M  V30 14376 C 1374.4 1.99931 0.29532 0
M  V30 14377 C 1374.72 1.20042 1.53672 0
M  V30 14378 O 1373.99 0.298841 1.93607 0
M  V30 14379 H 1372.57 0.738539 0.112111 0
M  V30 14380 H 1375.24 1.9023 -0.424092 0
M  V30 14381 H 1374.33 3.07021 0.560749 0
M  V30 14382 N 1374.63 0.0384594 1.57553 0
M  V30 14383 C 1375.88 -0.636879 1.91803 0
M  V30 14384 C 1376.2 -1.72128 0.916347 0
M  V30 14385 O 1375.47 -1.95858 -0.0407405 0
M  V30 14386 H 1374.05 -0.238237 0.707992 0
M  V30 14387 H 1376.71 0.0884651 1.94699 0
M  V30 14388 H 1375.81 -1.08364 2.92683 0
M  V30 14389 N 1376.11 -1.55841 -0.234795 0
M  V30 14390 C 1377.06 -1.8772 -1.29403 0
M  V30 14391 C 1378.05 -0.739087 -1.42921 0
M  V30 14392 O 1379.24 -1.00125 -1.45959 0
M  V30 14393 C 1376.37 -2.18592 -2.64712 0
M  V30 14394 C 1375.45 -3.38761 -2.55151 0
M  V30 14395 N 1375.84 -4.57723 -2.15229 0
M  V30 14396 C 1374.14 -3.42112 -2.86138 0
M  V30 14397 C 1374.84 -5.39872 -2.16595 0
M  V30 14398 N 1373.82 -4.79242 -2.5657 0
M  V30 14399 H 1377.62 -2.77219 -0.976067 0
M  V30 14400 H 1375.13 -1.5623 -0.443396 0
M  V30 14401 H 1377.13 -2.39599 -3.41171 0
M  V30 14402 H 1375.79 -1.30398 -2.97366 0
M  V30 14403 H 1376.8 -4.83126 -1.86575 0
M  V30 14404 H 1373.48 -2.64224 -3.23252 0
M  V30 14405 H 1374.87 -6.45072 -1.87967 0
M  V30 14406 N 1377.59 0.500963 -1.49426 0
M  V30 14407 C 1378.82 1.27725 -1.62388 0
M  V30 14408 C 1379.23 1.86893 -0.294544 0
M  V30 14409 O 1378.57 1.68571 0.73003 0
M  V30 14410 C 1378.63 2.44649 -2.63414 0
M  V30 14411 C 1378.3 2.0635 -4.0776 0
M  V30 14412 C 1379.29 1.60323 -4.94563 0
M  V30 14413 C 1376.98 2.15984 -4.53493 0
M  V30 14414 C 1378.97 1.24433 -6.25136 0
M  V30 14415 C 1376.66 1.79706 -5.8408 0
M  V30 14416 C 1377.66 1.34005 -6.69725 0
M  V30 14417 O 1377.35 0.982171 -7.97878 0
M  V30 14418 H 1377.08 0.393595 -0.549599 0
M  V30 14419 H 1379.63 0.607944 -1.96197 0
M  V30 14420 H 1377.86 3.14656 -2.24785 0
M  V30 14421 H 1379.55 3.06675 -2.65905 0
M  V30 14422 H 1380.32 1.52326 -4.60458 0
M  V30 14423 H 1376.2 2.50507 -3.86998 0
M  V30 14424 H 1379.74 0.886906 -6.91939 0
M  V30 14425 H 1375.64 1.87352 -6.17713 0
M  V30 14426 H 1376.4 1.11364 -8.10889 0
M  V30 14427 N 1379.07 1.38501 0.752011 0
M  V30 14428 C 1380.31 1.34995 1.51341 0
M  V30 14429 C 1380.65 -0.0594724 1.94109 0
M  V30 14430 O 1379.92 -1.02098 1.65548 0
M  V30 14431 C 1380.2 2.30705 2.76491 0
M  V30 14432 C 1380.06 3.80515 2.39851 0
M  V30 14433 C 1381.38 2.24521 3.78521 0
M  V30 14434 H 1378.5 0.491687 0.549011 0
M  V30 14435 H 1381.14 1.69361 0.861205 0
M  V30 14436 H 1379.29 2.01529 3.32142 0
M  V30 14437 H 1380.96 4.20371 1.89962 0
M  V30 14438 H 1379.2 3.98119 1.7229 0
M  V30 14439 H 1379.87 4.42946 3.29397 0
M  V30 14440 H 1382.35 2.50282 3.32413 0
M  V30 14441 H 1381.23 2.93598 4.63779 0
M  V30 14442 H 1381.49 1.24457 4.2422 0
M  V30 14443 N 1380.55 -0.980364 1.23396 0
M  V30 14444 C 1381.48 -2.07522 0.972991 0
M  V30 14445 C 1382.49 -1.62714 -0.0530191 0
M  V30 14446 O 1383.68 -1.77564 0.182513 0
M  V30 14447 C 1380.78 -3.35977 0.444126 0
M  V30 14448 C 1379.95 -4.09756 1.53031 0
M  V30 14449 C 1379.01 -5.16488 1.00631 0
M  V30 14450 O 1378.04 -5.43368 1.69529 0
M  V30 14451 N 1379.24 -5.80263 -0.165842 0
M  V30 14452 H 1382 -2.30487 1.91561 0
M  V30 14453 H 1379.57 -1.14706 1.14255 0
M  V30 14454 H 1381.56 -4.04624 0.078617 0
M  V30 14455 H 1380.13 -3.0998 -0.403912 0
M  V30 14456 H 1379.35 -3.35564 2.06858 0
M  V30 14457 H 1380.64 -4.55815 2.26076 0
M  V30 14458 H 1380.03 -5.60811 -0.742162 0
M  V30 14459 H 1378.59 -6.50084 -0.472614 0
M  V30 14460 N 1382.02 -1.04567 -1.17913 0
M  V30 14461 C 1382.96 -0.585519 -2.2056 0
M  V30 14462 C 1383.93 0.382581 -1.58035 0
M  V30 14463 O 1385.12 0.295692 -1.86166 0
M  V30 14464 C 1382.25 0.14396 -3.38394 0
M  V30 14465 C 1381.29 -0.778174 -4.19341 0
M  V30 14466 S 1382.12 -2.26385 -4.85294 0
M  V30 14467 C 1383.28 -1.54537 -6.06522 0
M  V30 14468 H 1383.51 -1.4552 -2.59251 0
M  V30 14469 H 1381.05 -0.857075 -1.28427 0
M  V30 14470 H 1383 0.558661 -4.06681 0
M  V30 14471 H 1381.67 0.989593 -2.98104 0
M  V30 14472 H 1380.86 -0.214053 -5.03545 0
M  V30 14473 H 1380.46 -1.13195 -3.56459 0
M  V30 14474 H 1382.75 -0.841199 -6.72257 0
M  V30 14475 H 1383.7 -2.36465 -6.6745 0
M  V30 14476 H 1384.1 -1.03551 -5.54921 0
M  V30 14477 N 1383.5 1.34231 -0.825823 0
M  V30 14478 C 1384.75 1.9849 -0.415891 0
M  V30 14479 C 1385.08 1.6531 1.01913 0
M  V30 14480 O 1384.36 0.926223 1.7103 0
M  V30 14481 C 1384.64 3.54691 -0.621785 0
M  V30 14482 C 1384.49 3.97603 -2.10313 0
M  V30 14483 C 1385.81 4.4006 -0.0595871 0
M  V30 14484 H 1382.93 0.721032 -0.152582 0
M  V30 14485 H 1385.57 1.5908 -1.03892 0
M  V30 14486 H 1383.72 3.88392 -0.0914439 0
M  V30 14487 H 1385.39 3.74221 -2.69733 0
M  V30 14488 H 1383.64 3.47809 -2.59251 0
M  V30 14489 H 1384.31 5.06352 -2.19799 0
M  V30 14490 H 1386.78 4.12929 -0.512743 0
M  V30 14491 H 1385.66 5.48403 -0.233431 0
M  V30 14492 H 1385.92 4.29798 1.03568 0
M  V30 14493 N 1384.98 0.581051 1.46498 0
M  V30 14494 C 1386.23 0.0637189 2.01599 0
M  V30 14495 C 1386.54 -1.30353 1.45834 0
M  V30 14496 O 1387.75 -1.91211 1.92745 0
M  V30 14497 C 1386.2 0.0633254 3.59844 0
M  V30 14498 C 1385.81 1.42879 4.24605 0
M  V30 14499 C 1387.56 -0.400149 4.2261 0
M  V30 14500 C 1385.46 1.38621 5.74924 0
M  V30 14501 H 1384.39 0.0200512 0.753733 0
M  V30 14502 H 1387.04 0.732451 1.68248 0
M  V30 14503 H 1385.43 -0.671538 3.90264 0
M  V30 14504 H 1386.6 2.18325 4.05796 0
M  V30 14505 H 1384.91 1.83215 3.73927 0
M  V30 14506 H 1387.51 -0.450771 5.32797 0
M  V30 14507 H 1387.85 -1.41733 3.9143 0
M  V30 14508 H 1388.39 0.280598 3.96809 0
M  V30 14509 H 1385.13 2.38014 6.10761 0
M  V30 14510 H 1384.65 0.673926 5.96002 0
M  V30 14511 H 1386.33 1.09841 6.37608 0
M  V30 14512 N 1386.46 -1.54343 0.318742 0
M  V30 14513 C 1387.71 -1.9966 -0.286146 0
M  V30 14514 C 1388.02 -1.21073 -1.53625 0
M  V30 14515 O 1389.23 -1.56744 -2.21684 0
M  V30 14516 C 1387.68 -3.5551 -0.560405 0
M  V30 14517 C 1387.29 -4.42926 0.672373 0
M  V30 14518 C 1389.03 -4.09307 -1.12551 0
M  V30 14519 C 1386.94 -5.9024 0.370285 0
M  V30 14520 H 1385.87 -0.74583 -0.110698 0
M  V30 14521 H 1388.52 -1.78386 0.430215 0
M  V30 14522 H 1386.9 -3.72753 -1.33683 0
M  V30 14523 H 1388.08 -4.37458 1.448 0
M  V30 14524 H 1386.39 -3.99993 1.15736 0
M  V30 14525 H 1388.99 -5.16955 -1.36607 0
M  V30 14526 H 1389.33 -3.60994 -2.07338 0
M  V30 14527 H 1389.87 -3.95677 -0.410385 0
M  V30 14528 H 1386.6 -6.42738 1.28719 0
M  V30 14529 H 1386.12 -5.98672 -0.367731 0
M  V30 14530 H 1387.8 -6.46996 -0.0216582 0
M  V30 14531 N 1387.94 -0.0468143 -1.5753 0
M  V30 14532 C 1388.88 0.929065 -2.11275 0
M  V30 14533 C 1389.85 1.31166 -1.01905 0
M  V30 14534 O 1391.04 1.40189 -1.29428 0
M  V30 14535 C 1388.18 2.20012 -2.65873 0
M  V30 14536 C 1387.29 1.8724 -3.89314 0
M  V30 14537 C 1386.43 3.08772 -4.32242 0
M  V30 14538 C 1385.46 2.719 -5.48395 0
M  V30 14539 N 1384.6 3.86112 -5.86397 0
M  V30 14540 H 1389.44 0.463854 -2.94368 0
M  V30 14541 H 1386.98 0.217338 -1.45486 0
M  V30 14542 H 1388.94 2.94383 -2.95626 0
M  V30 14543 H 1387.57 2.64118 -1.85584 0
M  V30 14544 H 1386.62 1.03037 -3.6618 0
M  V30 14545 H 1387.93 1.56096 -4.73746 0
M  V30 14546 H 1387.08 3.91446 -4.63525 0
M  V30 14547 H 1385.82 3.4309 -3.46613 0
M  V30 14548 H 1384.83 1.87642 -5.16789 0
M  V30 14549 H 1386.05 2.38779 -6.35737 0
M  V30 14550 H 1384 4.2024 -5.03721 0
M  V30 14551 H 1383.92 3.58652 -6.65511 0
M  V30 14552 H 1385.18 4.69438 -6.22293 0
M  V30 14553 N 1389.41 1.55964 0.226527 0
M  V30 14554 C 1390.34 1.95028 1.284 0
M  V30 14555 C 1391.33 0.817833 1.49149 0
M  V30 14556 O 1392.51 1.07975 1.61416 0
M  V30 14557 C 1389.64 2.26266 2.63478 0
M  V30 14558 C 1388.59 3.41954 2.57393 0
M  V30 14559 C 1387.92 3.58786 3.96456 0
M  V30 14560 C 1389.22 4.77069 2.12608 0
M  V30 14561 H 1390.91 2.83608 0.959513 0
M  V30 14562 H 1388.46 1.36451 0.460125 0
M  V30 14563 H 1390.41 2.52186 3.3761 0
M  V30 14564 H 1389.14 1.34533 2.97604 0
M  V30 14565 H 1387.8 3.16076 1.85719 0
M  V30 14566 H 1387.44 2.64437 4.27881 0
M  V30 14567 H 1387.14 4.36595 3.93267 0
M  V30 14568 H 1388.67 3.87048 4.72256 0
M  V30 14569 H 1390.08 5.02226 2.76481 0
M  V30 14570 H 1388.48 5.58126 2.2049 0
M  V30 14571 H 1389.55 4.7276 1.07823 0
M  V30 14572 N 1390.89 -0.493031 1.4969 0
M  V30 14573 C 1392.14 -1.24418 1.59263 0
M  V30 14574 C 1392.46 -1.92908 0.284882 0
M  V30 14575 O 1391.73 -1.83108 -0.696302 0
M  V30 14576 H 1390.31 -0.462223 0.586821 0
M  V30 14577 H 1392.97 -0.570713 1.86357 0
M  V30 14578 H 1392.07 -2.00386 2.39274 0
M  V30 14579 N 1392.37 -1.38898 -0.744656 0
M  V30 14580 C 1393.33 -1.36633 -1.84022 0
M  V30 14581 C 1394.33 -0.265187 -1.58598 0
M  V30 14582 O 1395.52 -0.522569 -1.66177 0
M  V30 14583 C 1392.66 -1.12938 -3.21649 0
M  V30 14584 H 1393.85 -2.34111 -1.87435 0
M  V30 14585 H 1391.4 -1.24322 -0.947302 0
M  V30 14586 H 1392.14 -0.161027 -3.239 0
M  V30 14587 H 1391.92 -1.9267 -3.41498 0
M  V30 14588 H 1393.41 -1.14071 -4.01718 0
M  V30 14589 N 1393.85 0.973806 -1.23914 0
M  V30 14590 C 1394.78 2.08526 -1.05068 0
M  V30 14591 C 1395.76 1.70065 0.0344761 0
M  V30 14592 O 1396.94 1.93755 -0.131432 0
M  V30 14593 C 1394.07 3.41198 -0.648165 0
M  V30 14594 C 1393.03 3.9359 -1.6814 0
M  V30 14595 C 1392.35 5.22534 -1.13414 0
M  V30 14596 C 1393.65 4.22116 -3.07597 0
M  V30 14597 H 1395.35 2.24551 -1.98034 0
M  V30 14598 H 1392.89 1.07905 -0.953546 0
M  V30 14599 H 1394.85 4.18383 -0.50334 0
M  V30 14600 H 1393.57 3.25056 0.317182 0
M  V30 14601 H 1392.23 3.18555 -1.81434 0
M  V30 14602 H 1391.88 5.02747 -0.159578 0
M  V30 14603 H 1391.58 5.58555 -1.82456 0
M  V30 14604 H 1393.1 6.02334 -1.0013 0
M  V30 14605 H 1394.52 4.90027 -2.97567 0
M  V30 14606 H 1392.91 4.69352 -3.73937 0
M  V30 14607 H 1393.98 3.29128 -3.56094 0
M  V30 14608 N 1395.33 1.05191 1.17357 0
M  V30 14609 C 1396.55 0.782373 1.91537 0
M  V30 14610 C 1396.97 -0.661935 1.76816 0
M  V30 14611 O 1396.33 -1.45221 1.10531 0
M  V30 14612 C 1396.38 1.15357 3.426 0
M  V30 14613 O 1396.1 2.54119 3.56869 0
M  V30 14614 C 1397.6 0.910167 4.33856 0
M  V30 14615 H 1394.82 0.284461 0.607719 0
M  V30 14616 H 1397.36 1.40259 1.48821 0
M  V30 14617 H 1395.52 0.578107 3.83062 0
M  V30 14618 H 1395.93 2.68668 4.50464 0
M  V30 14619 H 1397.41 1.21964 5.38358 0
M  V30 14620 H 1397.88 -0.154624 4.38928 0
M  V30 14621 H 1398.49 1.46947 3.99107 0
M  V30 14622 N 1396.8 -1.33791 0.83293 0
M  V30 14623 C 1398.05 -1.97582 0.42494 0
M  V30 14624 C 1398.37 -1.66328 -1.01784 0
M  V30 14625 O 1397.64 -0.959141 -1.70814 0
M  V30 14626 H 1396.22 -0.730923 0.154143 0
M  V30 14627 H 1398.89 -1.63257 1.06458 0
M  V30 14628 H 1397.98 -3.07177 0.552127 0
M  V30 14629 N 1398.28 -0.588812 -1.46187 0
M  V30 14630 C 1399.51 -0.0825301 -2.06735 0
M  V30 14631 C 1399.93 1.22507 -1.43658 0
M  V30 14632 O 1399.28 1.74203 -0.544022 0
M  V30 14633 C 1399.33 0.083501 -3.61404 0
M  V30 14634 O 1399.05 -1.17235 -4.22123 0
M  V30 14635 C 1400.56 0.623425 -4.38894 0
M  V30 14636 H 1397.78 -0.0602413 -0.66829 0
M  V30 14637 H 1400.32 -0.811215 -1.87722 0
M  V30 14638 H 1398.47 0.762432 -3.79823 0
M  V30 14639 H 1398.89 -0.990047 -5.15071 0
M  V30 14640 H 1400.36 0.688755 -5.47686 0
M  V30 14641 H 1400.84 1.64172 -4.07362 0
M  V30 14642 H 1401.45 -0.0208373 -4.25295 0
M  V30 14643 N 1399.76 1.54172 -0.326923 0
M  V30 14644 C 1400.99 2.04747 0.276107 0
M  V30 14645 C 1401.4 1.20251 1.4607 0
M  V30 14646 O 1400.74 0.226753 1.82295 0
M  V30 14647 C 1400.8 3.51143 0.770651 0
M  V30 14648 C 1400.47 4.56066 -0.292079 0
M  V30 14649 C 1401.46 5.07487 -1.12928 0
M  V30 14650 C 1399.15 5.00358 -0.441232 0
M  V30 14651 C 1401.14 6.01767 -2.10133 0
M  V30 14652 C 1398.83 5.94452 -1.4167 0
M  V30 14653 C 1399.83 6.45042 -2.24521 0
M  V30 14654 O 1399.52 7.37288 -3.20409 0
M  V30 14655 H 1399.25 0.673322 0.0601144 0
M  V30 14656 H 1401.8 1.99899 -0.472176 0
M  V30 14657 H 1400.03 3.53399 1.5699 0
M  V30 14658 H 1401.72 3.84775 1.2924 0
M  V30 14659 H 1402.49 4.74044 -1.02505 0
M  V30 14660 H 1398.37 4.60593 0.193767 0
M  V30 14661 H 1401.91 6.41178 -2.74839 0
M  V30 14662 H 1397.81 6.27311 -1.52155 0
M  V30 14663 H 1398.58 7.55171 -3.15687 0
M  V30 14664 N 1401.24 0.0551678 1.57503 0
M  V30 14665 C 1402.48 -0.618636 1.93134 0
M  V30 14666 C 1402.82 -1.70258 0.934125 0
M  V30 14667 O 1402.09 -1.9446 -0.0392699 0
M  V30 14668 C 1402.38 -1.21103 3.39126 0
M  V30 14669 C 1402.23 -0.134865 4.49598 0
M  V30 14670 C 1403.55 -2.12148 3.85592 0
M  V30 14671 H 1400.67 -0.223416 0.702321 0
M  V30 14672 H 1403.31 0.117748 1.89635 0
M  V30 14673 H 1401.46 -1.83862 3.42238 0
M  V30 14674 H 1403.13 0.497292 4.58612 0
M  V30 14675 H 1401.37 0.536587 4.30469 0
M  V30 14676 H 1402.04 -0.589447 5.48844 0
M  V30 14677 H 1404.52 -1.59346 3.8438 0
M  V30 14678 H 1403.4 -2.50539 4.88387 0
M  V30 14679 H 1403.66 -3.02318 3.22578 0
M  V30 14680 N 1402.72 -1.56081 -0.218252 0
M  V30 14681 C 1403.95 -1.83069 -0.957574 0
M  V30 14682 C 1404.35 -0.6325 -1.78315 0
M  V30 14683 O 1403.7 0.408298 -1.79105 0
M  V30 14684 C 1403.76 -3.03835 -1.92157 0
M  V30 14685 C 1403.42 -4.38702 -1.2802 0
M  V30 14686 C 1404.42 -5.15585 -0.66846 0
M  V30 14687 C 1402.11 -4.85427 -1.29098 0
M  V30 14688 C 1404.1 -6.37355 -0.0760499 0
M  V30 14689 C 1401.79 -6.07138 -0.69473 0
M  V30 14690 C 1402.78 -6.82943 -0.0883201 0
M  V30 14691 O 1402.47 -8.02352 0.498648 0
M  V30 14692 H 1402.2 -0.612493 -0.286057 0
M  V30 14693 H 1404.76 -2.04021 -0.23759 0
M  V30 14694 H 1402.99 -2.78709 -2.68064 0
M  V30 14695 H 1404.68 -3.17666 -2.52672 0
M  V30 14696 H 1405.44 -4.80592 -0.652434 0
M  V30 14697 H 1401.32 -4.26395 -1.75238 0
M  V30 14698 H 1404.87 -6.96464 0.397893 0
M  V30 14699 H 1400.76 -6.41604 -0.70818 0
M  V30 14700 H 1401.53 -8.17555 0.393289 0
M  V30 14701 N 1404.2 0.485086 -1.49949 0
M  V30 14702 C 1405.14 1.60559 -1.68296 0
M  V30 14703 C 1406.14 1.60264 -0.548802 0
M  V30 14704 O 1407.34 1.64581 -0.728905 0
M  V30 14705 H 1403.72 0.532529 -0.530958 0
M  V30 14706 H 1405.69 1.42242 -2.62316 0
M  V30 14707 C 1404.44 2.98596 -1.78145 0
M  V30 14708 H 1403.76 2.99536 -2.64799 0
M  V30 14709 H 1405.2 3.76492 -1.95012 0
M  V30 14710 C 1403.66 3.32708 -0.529828 0
M  V30 14711 O 1404.19 4.00281 0.337347 0
M  V30 14712 N 1402.4 2.87998 -0.388012 0
M  V30 14713 H 1401.94 2.33182 -1.0947 0
M  V30 14714 H 1401.9 3.11187 0.448307 0
M  V30 14715 N 1405.67 1.39291 0.737279 0
M  V30 14716 C 1406.62 1.34321 1.84233 0
M  V30 14717 C 1407.61 0.224489 1.59326 0
M  V30 14718 O 1408.8 0.461832 1.70869 0
M  V30 14719 C 1405.93 1.18676 3.22135 0
M  V30 14720 C 1405.01 2.35239 3.52878 0
M  V30 14721 N 1405.41 3.6071 3.54573 0
M  V30 14722 C 1403.7 2.28147 3.83229 0
M  V30 14723 C 1404.4 4.37778 3.83047 0
M  V30 14724 N 1403.38 3.67336 4.00706 0
M  V30 14725 H 1407.18 2.29299 1.83845 0
M  V30 14726 H 1404.7 1.32755 0.935413 0
M  V30 14727 H 1406.69 1.13199 4.01238 0
M  V30 14728 H 1405.35 0.246461 3.23763 0
M  V30 14729 H 1406.36 3.94164 3.3594 0
M  V30 14730 H 1403.04 1.42366 3.92477 0
M  V30 14731 H 1404.43 5.46525 3.90845 0
M  V30 14732 N 1407.15 -0.967221 1.24429 0
M  V30 14733 C 1408.08 -2.07966 1.06172 0
M  V30 14734 C 1409.06 -1.70081 -0.0254566 0
M  V30 14735 O 1410.25 -1.93682 0.141705 0
M  V30 14736 C 1407.38 -3.4085 0.666251 0
M  V30 14737 C 1406.33 -3.92692 1.70225 0
M  V30 14738 C 1405.66 -5.21925 1.16183 0
M  V30 14739 C 1406.96 -4.20478 3.09831 0
M  V30 14740 H 1408.65 -2.23497 1.99222 0
M  V30 14741 H 1406.2 -1.07398 0.959255 0
M  V30 14742 H 1408.15 -4.1811 0.52552 0
M  V30 14743 H 1406.87 -3.2522 -0.299939 0
M  V30 14744 H 1405.53 -3.17588 1.83121 0
M  V30 14745 H 1405.18 -5.02655 0.186237 0
M  V30 14746 H 1404.88 -5.57579 1.85416 0
M  V30 14747 H 1406.41 -6.01795 1.03323 0
M  V30 14748 H 1407.82 -4.88442 3.00162 0
M  V30 14749 H 1406.22 -4.67362 3.7642 0
M  V30 14750 H 1407.29 -3.27235 3.57834 0
M  V30 14751 N 1408.63 -1.05812 -1.16797 0
M  V30 14752 C 1409.86 -0.792519 -1.9112 0
M  V30 14753 C 1410.27 0.652549 -1.77164 0
M  V30 14754 O 1409.63 1.44633 -1.113 0
M  V30 14755 C 1409.68 -1.17172 -3.41984 0
M  V30 14756 O 1409.4 -2.56008 -3.55516 0
M  V30 14757 C 1410.9 -0.933162 -4.33367 0
M  V30 14758 H 1408.12 -0.28768 -0.606202 0
M  V30 14759 H 1410.67 -1.41046 -1.48075 0
M  V30 14760 H 1408.82 -0.598413 -3.8275 0
M  V30 14761 H 1409.24 -2.71053 -4.49033 0
M  V30 14762 H 1410.71 -1.24817 -5.37703 0
M  V30 14763 H 1411.19 0.131345 -4.39004 0
M  V30 14764 H 1411.79 -1.49062 -3.98322 0
M  V30 14765 N 1410.11 1.33347 -0.840014 0
M  V30 14766 C 1411.52 1.80077 -0.492851 0
M  V30 14767 C 1411.87 1.69495 0.988221 0
M  V30 14768 O 1410.99 1.2449 1.77006 0
M  V30 14769 C 1411.59 3.2696 -0.887827 0
M  V30 14770 C 1410.15 3.71703 -0.592785 0
M  V30 14771 C 1409.3 2.54742 -1.09554 0
M  V30 14772 H 1412.25 1.20853 -1.02861 0
M  V30 14773 H 1412.27 3.79983 -0.198327 0
M  V30 14774 H 1411.78 3.3463 -1.96581 0
M  V30 14775 H 1409.88 3.69559 0.475086 0
M  V30 14776 H 1409.99 4.65123 -1.14882 0
M  V30 14777 H 1408.36 2.49411 -0.516357 0
M  V30 14778 H 1409.14 2.65173 -2.18032 0
M  V30 14779 N 1411.59 0.596556 1.45873 0
M  V30 14780 C 1412.52 -0.116229 2.33211 0
M  V30 14781 C 1413.5 -0.869868 1.46176 0
M  V30 14782 O 1414.68 -0.842599 1.74968 0
M  V30 14783 C 1411.81 -1.12145 3.28696 0
M  V30 14784 C 1410.77 -0.481749 4.2528 0
M  V30 14785 C 1410.09 -1.59443 5.10374 0
M  V30 14786 C 1411.39 0.589996 5.18957 0
M  V30 14787 H 1413.09 0.613005 2.93057 0
M  V30 14788 H 1410.63 0.296242 1.4092 0
M  V30 14789 H 1412.58 -1.62857 3.88659 0
M  V30 14790 H 1411.31 -1.88114 2.66985 0
M  V30 14791 H 1409.97 0.0044092 3.666 0
M  V30 14792 H 1409.62 -2.34413 4.45039 0
M  V30 14793 H 1409.32 -1.17197 5.75794 0
M  V30 14794 H 1410.84 -2.10404 5.73204 0
M  V30 14795 H 1412.25 0.167395 5.73056 0
M  V30 14796 H 1410.65 0.933565 5.92794 0
M  V30 14797 H 1411.72 1.47093 4.62052 0
M  V30 14798 N 1413.06 -1.53996 0.335095 0
M  V30 14799 C 1414.48 -1.59591 -0.0171422 0
M  V30 14800 C 1414.68 -1.35132 -1.49471 0
M  V30 14801 O 1413.74 -1.14141 -2.25229 0
M  V30 14802 C 1415.05 -2.97872 0.411443 0
M  V30 14803 C 1416.6 -3.10887 0.363072 0
M  V30 14804 C 1417.07 -4.51532 0.766995 0
M  V30 14805 N 1418.56 -4.57557 0.72085 0
M  V30 14806 C 1419.3 -5.64516 1.00544 0
M  V30 14807 N 1418.79 -6.79365 1.35777 0
M  V30 14808 N 1420.59 -5.54349 0.930243 0
M  V30 14809 H 1412.74 -1.68151 1.29766 0
M  V30 14810 H 1415 -0.787067 0.528422 0
M  V30 14811 H 1414.71 -3.20809 1.44134 0
M  V30 14812 H 1414.58 -3.76571 -0.217678 0
M  V30 14813 H 1416.97 -2.87679 -0.657642 0
M  V30 14814 H 1417.05 -2.34266 1.02728 0
M  V30 14815 H 1416.69 -4.75474 1.78568 0
M  V30 14816 H 1416.62 -5.26539 0.0803511 0
M  V30 14817 H 1419.11 -3.75079 0.460867 0
M  V30 14818 H 1419.43 -7.56891 1.55999 0
M  V30 14819 H 1417.77 -6.80833 1.39614 0
M  V30 14820 H 1420.96 -4.63503 0.654402 0
M  V30 14821 H 1421.14 -6.37616 1.15539 0
M  V30 14822 N 1414.54 -0.0635198 -1.57472 0
M  V30 14823 C 1415.82 0.648029 -1.84553 0
M  V30 14824 C 1416.2 1.88295 -0.954371 0
M  V30 14825 O 1415.55 2.28492 -0.0185351 0
M  V30 14826 C 1415.76 0.993573 -3.34558 0
M  V30 14827 C 1417.1 1.3706 -4.0187 0
M  V30 14828 O 1418.13 1.08555 -3.39255 0
M  V30 14829 O 1416.99 1.90309 -5.12294 0
M  V30 14830 H 1414.08 0.321047 -0.76214 0
M  V30 14831 H 1416.63 -0.0938223 -1.6944 0
M  V30 14832 H 1415.4 0.116139 -3.91128 0
M  V30 14833 H 1415.02 1.79246 -3.54904 0
M  V30 14834 N 1416.02 1.56195 0.209972 0
M  V30 14835 C 1417.27 1.80917 0.929554 0
M  V30 14836 C 1417.62 0.638305 1.81503 0
M  V30 14837 O 1416.91 -0.367181 1.88049 0
M  V30 14838 C 1417.11 3.09154 1.79328 0
M  V30 14839 C 1416.94 4.38602 0.99291 0
M  V30 14840 C 1415.71 5.0066 0.683231 0
M  V30 14841 C 1417.9 5.13089 0.352678 0
M  V30 14842 N 1415.89 6.13746 -0.137328 0
M  V30 14843 C 1417.26 6.19117 -0.330748 0
M  V30 14844 C 1419.31 4.97184 0.266887 0
M  V30 14845 C 1418.02 7.10966 -1.09177 0
M  V30 14846 C 1420.04 5.89443 -0.480701 0
M  V30 14847 C 1419.4 6.94906 -1.15263 0
M  V30 14848 H 1415.5 0.713515 0.320031 0
M  V30 14849 H 1418.09 1.93676 0.199467 0
M  V30 14850 H 1416.26 2.97657 2.49509 0
M  V30 14851 H 1417.99 3.22021 2.45121 0
M  V30 14852 H 1414.74 4.62834 1.00407 0
M  V30 14853 H 1415.17 6.74869 -0.536782 0
M  V30 14854 H 1419.81 4.15692 0.772025 0
M  V30 14855 H 1417.53 7.91932 -1.60839 0
M  V30 14856 H 1421.11 5.79211 -0.54824 0
M  V30 14857 H 1419.99 7.65063 -1.72185 0
M  V30 14858 N 1417.5 -0.477127 1.50204 0
M  V30 14859 C 1418.46 -1.55824 1.68082 0
M  V30 14860 C 1419.46 -1.51039 0.551719 0
M  V30 14861 O 1420.65 -1.53766 0.818638 0
M  V30 14862 C 1417.78 -2.95462 1.70044 0
M  V30 14863 H 1418.98 -1.41292 2.64531 0
M  V30 14864 H 1416.53 -0.70308 1.39594 0
M  V30 14865 H 1417.26 -3.15445 0.752663 0
M  V30 14866 H 1417.05 -3.00343 2.52065 0
M  V30 14867 H 1418.54 -3.73964 1.85851 0
M  V30 14868 N 1418.98 -1.3968 -0.729882 0
M  V30 14869 C 1419.93 -1.35296 -1.83518 0
M  V30 14870 C 1420.91 -0.232935 -1.59205 0
M  V30 14871 O 1422.1 -0.470887 -1.70621 0
M  V30 14872 C 1419.23 -1.20383 -3.21501 0
M  V30 14873 C 1418.32 -2.37108 -3.51626 0
M  V30 14874 N 1418.71 -3.62585 -3.52655 0
M  V30 14875 C 1417.01 -2.30177 -3.82014 0
M  V30 14876 C 1417.71 -4.39803 -3.8072 0
M  V30 14877 N 1416.68 -3.69456 -3.98752 0
M  V30 14878 H 1420.49 -2.30271 -1.82627 0
M  V30 14879 H 1418 -1.33249 -0.92836 0
M  V30 14880 H 1420 -1.15325 -4.00632 0
M  V30 14881 H 1418.66 -0.263628 -3.23628 0
M  V30 14882 H 1419.67 -3.9594 -3.33845 0
M  V30 14883 H 1416.34 -1.44446 -3.91716 0
M  V30 14884 H 1417.73 -5.4859 -3.87941 0
M  V30 14885 N 1420.45 0.960609 -1.2494 0
M  V30 14886 C 1421.4 2.07763 -1.04581 0
M  V30 14887 C 1422.4 1.69386 0.0214505 0
M  V30 14888 O 1423.6 1.79503 -0.133683 0
M  V30 14889 H 1419.98 0.679944 -0.321216 0
M  V30 14890 H 1421.95 2.22094 -1.99291 0
M  V30 14891 C 1420.7 3.41088 -0.674876 0
M  V30 14892 H 1420.02 3.71082 -1.4879 0
M  V30 14893 H 1421.46 4.20123 -0.572079 0
M  V30 14894 C 1419.92 3.31172 0.6186 0
M  V30 14895 O 1420.45 3.65688 1.66238 0
M  V30 14896 N 1418.66 2.84297 0.601984 0
M  V30 14897 H 1418.2 2.56406 -0.24778 0
M  V30 14898 H 1418.16 2.78045 1.4676 0
M  V30 14899 N 1421.93 1.0643 1.16234 0
M  V30 14900 C 1423.18 0.780296 1.86429 0
M  V30 14901 C 1423.5 -0.695335 1.82181 0
M  V30 14902 O 1422.77 -1.50312 1.2563 0
M  V30 14903 H 1421.35 0.285654 0.690225 0
M  V30 14904 H 1424.01 1.34609 1.40949 0
M  V30 14905 H 1423.11 1.10644 2.91829 0
M  V30 14906 N 1423.41 -1.329 0.847073 0
M  V30 14907 C 1424.34 -2.31546 0.301422 0
M  V30 14908 C 1425.32 -1.59342 -0.595317 0
M  V30 14909 O 1426.51 -1.87188 -0.517151 0
M  V30 14910 C 1423.64 -3.43423 -0.517454 0
M  V30 14911 C 1422.59 -4.27055 0.284195 0
M  V30 14912 C 1421.92 -5.30624 -0.658944 0
M  V30 14913 C 1423.22 -5.00123 1.50578 0
M  V30 14914 H 1424.91 -2.77433 1.12567 0
M  V30 14915 H 1422.46 -1.3338 0.542739 0
M  V30 14916 H 1424.41 -4.11467 -0.909543 0
M  V30 14917 H 1423.13 -2.96246 -1.37499 0
M  V30 14918 H 1421.79 -3.60648 0.657944 0
M  V30 14919 H 1421.44 -4.79702 -1.51311 0
M  V30 14920 H 1421.14 -5.87464 -0.12662 0
M  V30 14921 H 1422.66 -6.01533 -1.04837 0
M  V30 14922 H 1424.08 -5.6089 1.18641 0
M  V30 14923 H 1422.48 -5.66652 1.97549 0
M  V30 14924 H 1423.55 -4.28424 2.27115 0
M  V30 14925 N 1424.89 -0.604284 -1.45555 0
M  V30 14926 C 1426.3 -0.267665 -1.57339 0
M  V30 14927 C 1426.5 1.22984 -1.59616 0
M  V30 14928 O 1425.56 2.0127 -1.52468 0
M  V30 14929 C 1426.87 -0.935923 -2.85764 0
M  V30 14930 C 1428.42 -0.911531 -2.99433 0
M  V30 14931 C 1428.9 -1.55974 -4.30623 0
M  V30 14932 N 1430.39 -1.52507 -4.37374 0
M  V30 14933 C 1431.12 -1.9958 -5.37546 0
M  V30 14934 N 1430.62 -2.54724 -6.44273 0
M  V30 14935 N 1432.41 -1.90368 -5.28882 0
M  V30 14936 H 1424.56 -1.57666 -1.42321 0
M  V30 14937 H 1426.83 -0.66028 -0.680245 0
M  V30 14938 H 1426.53 -1.99022 -2.89971 0
M  V30 14939 H 1426.41 -0.457194 -3.74419 0
M  V30 14940 H 1428.79 0.134206 -2.94795 0
M  V30 14941 H 1428.87 -1.42849 -2.12197 0
M  V30 14942 H 1428.52 -2.60479 -4.3602 0
M  V30 14943 H 1428.45 -1.01782 -5.1667 0
M  V30 14944 H 1430.94 -1.12221 -3.60853 0
M  V30 14945 H 1431.25 -2.88445 -7.16951 0
M  V30 14946 H 1429.6 -2.58761 -6.45033 0
M  V30 14947 H 1432.79 -1.47029 -4.4441 0
M  V30 14948 H 1432.96 -2.27367 -6.06802 0
M  V30 14949 N 1426.37 1.53816 -0.343257 0
M  V30 14950 C 1427.64 1.9315 0.308609 0
M  V30 14951 C 1428.02 1.27479 1.68263 0
M  V30 14952 O 1427.37 0.425614 2.24501 0
M  V30 14953 C 1427.58 3.46912 0.381176 0
M  V30 14954 C 1428.93 4.19868 0.632153 0
M  V30 14955 O 1429.95 3.53174 0.463303 0
M  V30 14956 O 1428.81 5.38016 0.959237 0
M  V30 14957 H 1425.91 0.807169 0.180022 0
M  V30 14958 H 1428.45 1.65053 -0.394412 0
M  V30 14959 H 1427.22 3.86932 -0.583058 0
M  V30 14960 H 1426.85 3.81175 1.13099 0
M  V30 14961 N 1427.84 0.0718701 1.57436 0
M  V30 14962 C 1428.77 -0.89288 2.15754 0
M  V30 14963 C 1429.76 -1.31036 1.0846 0
M  V30 14964 O 1430.94 -1.38139 1.36496 0
M  V30 14965 C 1428.07 -2.16044 2.71923 0
M  V30 14966 C 1427.02 -1.88236 3.84384 0
M  V30 14967 C 1426.35 -3.21624 4.27156 0
M  V30 14968 C 1427.65 -1.18758 5.0862 0
M  V30 14969 H 1429.34 -0.407061 2.9662 0
M  V30 14970 H 1426.89 -0.194354 1.42682 0
M  V30 14971 H 1428.84 -2.83952 3.11366 0
M  V30 14972 H 1427.57 -2.66868 1.88279 0
M  V30 14973 H 1426.23 -1.22734 3.45445 0
M  V30 14974 H 1425.87 -3.70289 3.40433 0
M  V30 14975 H 1425.57 -3.03809 5.02965 0
M  V30 14976 H 1427.1 -3.90729 4.69215 0
M  V30 14977 H 1428.51 -1.76735 5.45378 0
M  V30 14978 H 1426.91 -1.11201 5.89707 0
M  V30 14979 H 1427.98 -0.166682 4.84613 0
M  V30 14980 N 1429.32 -1.56304 -0.201686 0
M  V30 14981 C 1430.29 -1.93171 -1.2336 0
M  V30 14982 C 1431.29 -0.812164 -1.38782 0
M  V30 14983 O 1432.48 -1.07967 -1.36707 0
M  V30 14984 C 1429.61 -2.19997 -2.60411 0
M  V30 14985 H 1430.8 -2.85483 -0.918654 0
M  V30 14986 H 1428.35 -1.49893 -0.442935 0
M  V30 14987 H 1429.09 -1.30301 -2.96972 0
M  V30 14988 H 1428.87 -3.01574 -2.5059 0
M  V30 14989 H 1430.36 -2.49547 -3.34838 0
M  V30 14990 N 1430.8 0.469154 -1.50455 0
M  V30 14991 C 1432.05 1.2229 -1.6178 0
M  V30 14992 C 1432.38 1.91577 -0.318073 0
M  V30 14993 O 1431.65 1.82205 0.68057 0
M  V30 14994 C 1431.94 2.26504 -2.79943 0
M  V30 14995 C 1431.79 1.61509 -4.19804 0
M  V30 14996 C 1433.11 3.27796 -2.93662 0
M  V30 14997 H 1430.23 0.443241 -0.588817 0
M  V30 14998 H 1432.87 0.516431 -1.82847 0
M  V30 14999 H 1431.02 2.86757 -2.62112 0
M  V30 15000 H 1432.69 1.04838 -4.49229 0
M  V30 15001 H 1430.94 0.918162 -4.23972 0
M  V30 15002 H 1431.61 2.37248 -4.98415 0
M  V30 15003 H 1434.08 2.77568 -3.09992 0
M  V30 15004 H 1432.96 3.98041 -3.77961 0
M  V30 15005 H 1433.22 3.92033 -2.04359 0
M  V30 15006 N 1432.28 1.40065 0.722464 0
M  V30 15007 C 1433.24 1.39544 1.81825 0
M  V30 15008 C 1434.24 0.290385 1.58156 0
M  V30 15009 O 1435.43 0.54894 1.65325 0
M  V30 15010 C 1432.56 1.18041 3.19811 0
M  V30 15011 H 1433.76 2.37063 1.83687 0
M  V30 15012 H 1431.31 1.25813 0.927404 0
M  V30 15013 H 1432.04 0.212536 3.23603 0
M  V30 15014 H 1431.83 1.98079 3.38389 0
M  V30 15015 H 1433.32 1.20447 3.99853 0
M  V30 15016 N 1433.76 -0.95397 1.25448 0
M  V30 15017 C 1435 -1.70118 1.10399 0
M  V30 15018 C 1435.34 -1.90945 -0.354093 0
M  V30 15019 O 1434.61 -1.48088 -1.26096 0
M  V30 15020 C 1434.89 -3.08371 1.85955 0
M  V30 15021 C 1434.75 -2.9495 3.39595 0
M  V30 15022 C 1436.07 -4.08273 1.64321 0
M  V30 15023 H 1433.19 -0.617424 0.402438 0
M  V30 15024 H 1435.83 -1.10884 1.54288 0
M  V30 15025 H 1433.98 -3.58936 1.48651 0
M  V30 15026 H 1435.65 -2.51705 3.86578 0
M  V30 15027 H 1433.89 -2.30853 3.67273 0
M  V30 15028 H 1434.56 -3.92952 3.87676 0
M  V30 15029 H 1437.04 -3.6662 1.96796 0
M  V30 15030 H 1435.92 -5.03048 2.19622 0
M  V30 15031 H 1436.18 -4.38217 0.584685 0
M  V30 15032 N 1435.24 -1.07045 -1.15668 0
M  V30 15033 C 1436.15 -0.699332 -2.23934 0
M  V30 15034 C 1437.16 0.288036 -1.71599 0
M  V30 15035 O 1438.34 0.135447 -2.00944 0
M  V30 15036 C 1435.4 -0.0994775 -3.46557 0
M  V30 15037 C 1434.46 -1.13968 -4.13896 0
M  V30 15038 C 1433.7 -0.56836 -5.30665 0
M  V30 15039 O 1433.92 0.616556 -5.67058 0
M  V30 15040 O 1432.85 -1.31174 -5.87432 0
M  V30 15041 H 1436.68 -1.60212 -2.58003 0
M  V30 15042 H 1434.26 -0.843202 -1.23331 0
M  V30 15043 H 1436.15 0.23293 -4.20756 0
M  V30 15044 H 1434.82 0.776684 -3.14244 0
M  V30 15045 H 1433.73 -1.5244 -3.41633 0
M  V30 15046 H 1435.06 -1.98764 -4.50282 0
M  V30 15047 N 1436.71 1.32449 -0.85411 0
M  V30 15048 C 1438.12 1.79545 -0.511923 0
M  V30 15049 C 1438.48 1.70534 0.970188 0
M  V30 15050 O 1437.6 1.2636 1.75676 0
M  V30 15051 C 1438.2 3.26 -0.922456 0
M  V30 15052 C 1436.75 3.71053 -0.632176 0
M  V30 15053 C 1435.9 2.53565 -1.12249 0
M  V30 15054 H 1438.85 1.19755 -1.04137 0
M  V30 15055 H 1438.87 3.79751 -0.238618 0
M  V30 15056 H 1438.39 3.32526 -2.00119 0
M  V30 15057 H 1436.49 3.70042 0.435862 0
M  V30 15058 H 1436.6 4.63878 -1.19809 0
M  V30 15059 H 1434.96 2.48849 -0.542781 0
M  V30 15060 H 1435.75 2.62846 -2.20832 0
M  V30 15061 N 1438.19 0.611994 1.45232 0
M  V30 15062 C 1439.44 0.109073 2.02506 0
M  V30 15063 C 1439.77 -1.25876 1.47881 0
M  V30 15064 O 1439.05 -1.83131 0.65524 0
M  V30 15065 C 1439.33 0.0749288 3.60022 0
M  V30 15066 C 1439.18 1.47374 4.24972 0
M  V30 15067 C 1440.5 -0.610602 4.35844 0
M  V30 15068 H 1437.62 0.0411101 0.735853 0
M  V30 15069 H 1440.26 0.78481 1.73034 0
M  V30 15070 H 1438.41 -0.500511 3.85262 0
M  V30 15071 H 1440.08 2.0966 4.10902 0
M  V30 15072 H 1438.33 2.03319 3.83202 0
M  V30 15073 H 1439 1.40206 5.33897 0
M  V30 15074 H 1441.47 -0.121445 4.15923 0
M  V30 15075 H 1440.35 -0.603614 5.45571 0
M  V30 15076 H 1440.61 -1.6775 4.09038 0
M  V30 15077 N 1439.67 -1.53632 0.351409 0
M  V30 15078 C 1440.92 -2.01338 -0.243047 0
M  V30 15079 C 1441.25 -1.23864 -1.4957 0
M  V30 15080 O 1440.52 -0.328412 -1.91707 0
M  V30 15081 C 1440.81 -3.55886 -0.549284 0
M  V30 15082 C 1440.66 -4.44064 0.716016 0
M  V30 15083 C 1441.98 -4.18699 -1.35569 0
M  V30 15084 H 1439.1 -0.731863 -0.0868627 0
M  V30 15085 H 1441.74 -1.84005 0.473501 0
M  V30 15086 H 1439.89 -3.70787 -1.15972 0
M  V30 15087 H 1441.56 -4.40987 1.35383 0
M  V30 15088 H 1439.8 -4.12608 1.3393 0
M  V30 15089 H 1440.48 -5.50106 0.456895 0
M  V30 15090 H 1442.95 -4.07545 -0.839441 0
M  V30 15091 H 1441.83 -5.26892 -1.53871 0
M  V30 15092 H 1442.09 -3.73834 -2.3601 0
M  V30 15093 N 1441.15 -0.0802183 -1.57396 0
M  V30 15094 C 1442.39 0.586962 -1.93807 0
M  V30 15095 C 1442.72 1.69107 -0.960887 0
M  V30 15096 O 1441.98 1.95688 0.0220779 0
M  V30 15097 C 1442.28 1.19551 -3.36812 0
M  V30 15098 C 1441.94 0.216701 -4.50379 0
M  V30 15099 C 1440.6 -0.0525552 -4.81171 0
M  V30 15100 C 1442.96 -0.452467 -5.19232 0
M  V30 15101 C 1440.28 -0.997923 -5.78151 0
M  V30 15102 C 1442.64 -1.38621 -6.17225 0
M  V30 15103 C 1441.3 -1.66385 -6.4643 0
M  V30 15104 H 1440.57 0.214785 -0.709189 0
M  V30 15105 H 1443.22 -0.152888 -1.90889 0
M  V30 15106 H 1441.52 2.01129 -3.36236 0
M  V30 15107 H 1443.22 1.71918 -3.62278 0
M  V30 15108 H 1439.81 0.436747 -4.26369 0
M  V30 15109 H 1443.99 -0.257573 -4.95631 0
M  V30 15110 H 1439.25 -1.22019 -5.991 0
M  V30 15111 H 1443.42 -1.91063 -6.69677 0
M  V30 15112 H 1441.05 -2.39799 -7.21388 0
M  V30 15113 N 1442.63 1.56409 0.193394 0
M  V30 15114 C 1443.85 1.8519 0.933775 0
M  V30 15115 C 1444.28 0.663991 1.75991 0
M  V30 15116 O 1443.63 -0.387198 1.77117 0
M  V30 15117 C 1443.68 3.12212 1.80432 0
M  V30 15118 O 1442.79 2.92884 2.90332 0
M  V30 15119 H 1442.13 0.609754 0.262862 0
M  V30 15120 H 1444.66 2.03638 0.198195 0
M  V30 15121 H 1444.67 3.4305 2.20864 0
M  V30 15122 H 1443.34 3.98292 1.19733 0
M  V30 15123 H 1441.92 2.73349 2.53643 0
M  V30 15124 N 1444.1 -0.461169 1.50702 0
M  V30 15125 C 1445.04 -1.57562 1.66453 0
M  V30 15126 C 1446.05 -1.53381 0.545726 0
M  V30 15127 O 1447.24 -1.58589 0.819254 0
M  V30 15128 C 1444.34 -2.9646 1.64209 0
M  V30 15129 C 1443.51 -3.25405 2.92285 0
M  V30 15130 C 1442.57 -4.43906 2.82549 0
M  V30 15131 O 1441.6 -4.43726 3.56505 0
M  V30 15132 N 1442.8 -5.46131 1.96777 0
M  V30 15133 H 1445.56 -1.44463 2.62584 0
M  V30 15134 H 1443.12 -0.649749 1.4829 0
M  V30 15135 H 1445.12 -3.73719 1.55295 0
M  V30 15136 H 1443.69 -3.03278 0.757718 0
M  V30 15137 H 1442.91 -2.36666 3.1525 0
M  V30 15138 H 1444.19 -3.41559 3.77114 0
M  V30 15139 H 1443.59 -5.49103 1.36023 0
M  V30 15140 H 1442.15 -6.22335 1.9376 0
M  V30 15141 N 1445.58 -1.40446 -0.715026 0
M  V30 15142 C 1446.51 -1.35159 -1.83868 0
M  V30 15143 C 1447.49 -0.221884 -1.61079 0
M  V30 15144 O 1448.68 -0.405635 -1.84084 0
M  V30 15145 C 1445.8 -1.10358 -3.20217 0
M  V30 15146 C 1444.85 -2.25787 -3.61832 0
M  V30 15147 S 1445.68 -3.88183 -3.68882 0
M  V30 15148 C 1446.84 -3.65647 -5.07989 0
M  V30 15149 H 1447.07 -2.30252 -1.88073 0
M  V30 15150 H 1444.6 -1.26738 -0.881859 0
M  V30 15151 H 1446.56 -0.967343 -3.9894 0
M  V30 15152 H 1445.22 -0.169178 -3.13644 0
M  V30 15153 H 1444.42 -2.04078 -4.60834 0
M  V30 15154 H 1444.02 -2.35717 -2.90368 0
M  V30 15155 H 1446.31 -3.24149 -5.94923 0
M  V30 15156 H 1447.25 -4.64182 -5.34734 0
M  V30 15157 H 1447.66 -2.99322 -4.78609 0
M  V30 15158 N 1447.06 0.947303 -1.25952 0
M  V30 15159 C 1447.97 2.07878 -1.08738 0
M  V30 15160 C 1448.99 1.73985 -0.0225212 0
M  V30 15161 O 1450.16 2.00139 -0.224984 0
M  V30 15162 C 1447.23 3.39231 -0.715756 0
M  V30 15163 C 1446.29 3.86945 -1.85935 0
M  V30 15164 C 1445.52 5.1203 -1.50537 0
M  V30 15165 O 1445.74 5.68965 -0.404323 0
M  V30 15166 O 1444.68 5.54634 -2.33805 0
M  V30 15167 H 1448.5 2.25305 -2.03645 0
M  V30 15168 H 1446.09 1.06321 -1.04958 0
M  V30 15169 H 1447.97 4.18167 -0.520962 0
M  V30 15170 H 1446.65 3.23057 0.203978 0
M  V30 15171 H 1445.55 3.08981 -2.10906 0
M  V30 15172 H 1446.89 4.0763 -2.75859 0
M  V30 15173 N 1448.54 1.07657 1.15099 0
M  V30 15174 C 1449.77 0.822825 1.89835 0
M  V30 15175 C 1450.18 -0.624281 1.7818 0
M  V30 15176 O 1449.54 -1.42844 1.13587 0
M  V30 15177 C 1449.59 1.22598 3.40076 0
M  V30 15178 O 1449.31 2.61631 3.51398 0
M  V30 15179 C 1450.81 1.00199 4.31828 0
M  V30 15180 H 1448.03 0.297288 0.601549 0
M  V30 15181 H 1450.58 1.43384 1.45813 0
M  V30 15182 H 1448.73 0.65923 3.8175 0
M  V30 15183 H 1449.14 2.78163 4.44664 0
M  V30 15184 H 1450.62 1.33355 5.35649 0
M  V30 15185 H 1451.1 -0.0614865 4.39157 0
M  V30 15186 H 1451.7 1.5538 3.959 0
M  V30 15187 N 1450.02 -1.31994 0.861122 0
M  V30 15188 C 1450.96 -2.28729 0.308476 0
M  V30 15189 C 1451.93 -1.55338 -0.588148 0
M  V30 15190 O 1453.12 -1.8353 -0.52168 0
M  V30 15191 C 1450.26 -3.4158 -0.491621 0
M  V30 15192 C 1449.37 -4.29839 0.431522 0
M  V30 15193 C 1448.51 -5.29826 -0.381836 0
M  V30 15194 C 1447.55 -6.09728 0.538296 0
M  V30 15195 N 1446.68 -7.01696 -0.238274 0
M  V30 15196 H 1451.52 -2.75389 1.13863 0
M  V30 15197 H 1449.06 -1.35485 0.572911 0
M  V30 15198 H 1451.02 -4.05738 -0.971193 0
M  V30 15199 H 1449.65 -2.96054 -1.28654 0
M  V30 15200 H 1448.7 -3.66204 1.02951 0
M  V30 15201 H 1450.01 -4.85658 1.13742 0
M  V30 15202 H 1449.17 -5.99618 -0.924297 0
M  V30 15203 H 1447.9 -4.7464 -1.12107 0
M  V30 15204 H 1446.91 -5.38834 1.09259 0
M  V30 15205 H 1448.13 -6.67 1.27625 0
M  V30 15206 H 1446.08 -6.4893 -0.960486 0
M  V30 15207 H 1446 -7.54896 0.408466 0
M  V30 15208 H 1447.27 -7.75764 -0.762252 0
M  V30 15209 N 1451.49 -0.619688 -1.44906 0
M  V30 15210 C 1452.42 0.0791121 -2.33366 0
M  V30 15211 C 1453.41 0.846503 -1.47541 0
M  V30 15212 O 1454.59 0.814657 -1.76287 0
M  V30 15213 C 1451.72 1.06901 -3.30438 0
M  V30 15214 C 1450.67 0.41403 -4.25993 0
M  V30 15215 C 1450 1.51303 -5.12846 0
M  V30 15216 C 1451.3 -0.672483 -5.17953 0
M  V30 15217 H 1452.99 -0.659551 -2.92045 0
M  V30 15218 H 1450.54 -0.318623 -1.40431 0
M  V30 15219 H 1452.49 1.56653 -3.912 0
M  V30 15220 H 1451.22 1.83842 -2.69944 0
M  V30 15221 H 1449.88 -0.0627315 -3.66546 0
M  V30 15222 H 1449.52 2.27303 -4.48712 0
M  V30 15223 H 1449.22 1.08022 -5.77586 0
M  V30 15224 H 1450.75 2.01258 -5.76479 0
M  V30 15225 H 1452.16 -0.258542 -5.72717 0
M  V30 15226 H 1450.56 -1.02776 -5.91234 0
M  V30 15227 H 1451.63 -1.54425 -4.59653 0
M  V30 15228 N 1452.97 1.53444 -0.359552 0
M  V30 15229 C 1454.22 2.00348 0.233109 0
M  V30 15230 C 1454.53 1.25104 1.50361 0
M  V30 15231 O 1455.74 1.62566 2.1745 0
M  V30 15232 C 1454.2 3.56871 0.465951 0
M  V30 15233 C 1453.8 4.40987 -0.789571 0
M  V30 15234 C 1455.55 4.12148 1.0166 0
M  V30 15235 C 1453.46 5.8905 -0.526646 0
M  V30 15236 H 1452.39 0.748502 0.0908851 0
M  V30 15237 H 1455.04 1.77182 -0.47736 0
M  V30 15238 H 1453.42 3.76167 1.23753 0
M  V30 15239 H 1454.59 4.33465 -1.56348 0
M  V30 15240 H 1452.91 3.96784 -1.263 0
M  V30 15241 H 1455.5 5.20395 1.22853 0
M  V30 15242 H 1455.85 3.66364 1.97694 0
M  V30 15243 H 1456.38 3.96626 0.305334 0
M  V30 15244 H 1453.12 6.39099 -1.45715 0
M  V30 15245 H 1452.64 5.99436 0.208875 0
M  V30 15246 H 1454.32 6.46826 -0.149889 0
M  V30 15247 N 1454.45 0.0885642 1.57351 0
M  V30 15248 C 1455.68 -0.585238 1.9845 0
M  V30 15249 C 1456.09 -1.62127 0.967483 0
M  V30 15250 O 1455.45 -1.82448 -0.0437565 0
M  V30 15251 C 1455.5 -1.23881 3.39611 0
M  V30 15252 O 1455.22 -0.244223 4.37419 0
M  V30 15253 C 1456.72 -1.99885 3.95678 0
M  V30 15254 H 1453.94 -0.157396 0.652279 0
M  V30 15255 H 1456.49 0.165923 2.03826 0
M  V30 15256 H 1454.64 -1.94094 3.3527 0
M  V30 15257 H 1455.06 -0.715149 5.19602 0
M  V30 15258 H 1456.53 -2.40983 4.9662 0
M  V30 15259 H 1457.01 -2.8621 3.33137 0
M  V30 15260 H 1457.61 -1.34501 4.03472 0
M  V30 15261 N 1455.93 -1.56509 -0.185096 0
M  V30 15262 C 1457.17 -1.82373 -0.900654 0
M  V30 15263 C 1457.53 -0.6671 -1.80465 0
M  V30 15264 O 1456.82 0.337217 -1.88609 0
M  V30 15265 C 1457.02 -3.11968 -1.74387 0
M  V30 15266 C 1456.85 -4.40126 -0.923006 0
M  V30 15267 C 1455.62 -5.01683 -0.603494 0
M  V30 15268 C 1457.81 -5.13585 -0.271006 0
M  V30 15269 N 1455.8 -6.1345 0.234953 0
M  V30 15270 C 1457.17 -6.18513 0.429202 0
M  V30 15271 C 1459.22 -4.97546 -0.187756 0
M  V30 15272 C 1457.92 -7.09139 1.20474 0
M  V30 15273 C 1459.95 -5.88604 0.574416 0
M  V30 15274 C 1459.31 -6.92984 1.26304 0
M  V30 15275 H 1455.41 -0.718517 -0.308639 0
M  V30 15276 H 1458 -1.93968 -0.168629 0
M  V30 15277 H 1456.17 -3.01589 -2.44742 0
M  V30 15278 H 1457.9 -3.2588 -2.39967 0
M  V30 15279 H 1454.65 -4.64373 -0.930306 0
M  V30 15280 H 1455.08 -6.73929 0.64408 0
M  V30 15281 H 1459.72 -4.16867 -0.705794 0
M  V30 15282 H 1457.44 -7.89273 1.73418 0
M  V30 15283 H 1461.02 -5.78266 0.640318 0
M  V30 15284 H 1459.9 -7.62227 1.84335 0
M  V30 15285 N 1457.41 0.45317 -1.50944 0
M  V30 15286 C 1458.65 1.20151 -1.62506 0
M  V30 15287 C 1458.98 1.92085 -0.335927 0
M  V30 15288 O 1458.25 1.84889 0.64751 0
M  V30 15289 H 1456.83 0.446502 -0.59887 0
M  V30 15290 H 1459.49 0.521103 -1.87804 0
M  V30 15291 H 1458.58 1.93972 -2.44502 0
M  V30 15292 N 1458.88 1.40823 0.707568 0
M  V30 15293 C 1459.85 1.41464 1.80334 0
M  V30 15294 C 1460.85 0.307143 1.57839 0
M  V30 15295 O 1462.04 0.566444 1.64733 0
M  V30 15296 C 1459.17 1.21426 3.18541 0
M  V30 15297 H 1460.36 2.38998 1.81162 0
M  V30 15298 H 1457.92 1.2679 0.914007 0
M  V30 15299 H 1458.65 0.246847 3.23359 0
M  V30 15300 H 1458.44 2.01657 3.36269 0
M  V30 15301 H 1459.93 1.24681 3.98553 0
M  V30 15302 N 1460.36 -0.94061 1.26453 0
M  V30 15303 C 1461.64 -1.66421 1.02779 0
M  V30 15304 C 1462.02 -2.06429 -0.441614 0
M  V30 15305 O 1461.37 -1.78854 -1.42209 0
M  V30 15306 C 1461.58 -2.87599 1.97707 0
M  V30 15307 C 1462.93 -3.59237 2.26349 0
M  V30 15308 O 1463.95 -2.97704 1.95577 0
M  V30 15309 O 1462.81 -4.70068 2.78744 0
M  V30 15310 H 1459.9 -0.728813 0.390846 0
M  V30 15311 H 1462.45 -0.99229 1.37665 0
M  V30 15312 H 1461.22 -2.54929 2.96862 0
M  V30 15313 H 1460.84 -3.62516 1.63303 0
M  V30 15314 N 1461.84 -1.08266 -1.14527 0
M  V30 15315 C 1463.07 -0.83288 -1.89396 0
M  V30 15316 C 1463.48 0.614823 -1.78509 0
M  V30 15317 O 1462.84 1.42239 -1.14343 0
M  V30 15318 C 1462.89 -1.244 -3.39421 0
M  V30 15319 O 1462.61 -2.63491 -3.50006 0
M  V30 15320 C 1464.11 -1.02488 -4.3129 0
M  V30 15321 H 1461.33 -0.300474 -0.599964 0
M  V30 15322 H 1463.88 -1.44155 -1.4505 0
M  V30 15323 H 1462.03 -0.679466 -3.81395 0
M  V30 15324 H 1462.45 -2.80517 -4.43182 0
M  V30 15325 H 1463.92 -1.36194 -5.34935 0
M  V30 15326 H 1464.4 0.0381961 -4.39183 0
M  V30 15327 H 1465 -1.57477 -3.95071 0
M  V30 15328 N 1463.32 1.31536 -0.86811 0
M  V30 15329 C 1464.28 2.26849 -0.327456 0
M  V30 15330 C 1465.28 1.52142 0.520514 0
M  V30 15331 O 1466.47 1.71044 0.330088 0
M  V30 15332 C 1463.6 3.36673 0.535174 0
M  V30 15333 H 1464.8 2.76184 -1.16886 0
M  V30 15334 H 1462.35 1.42437 -0.643545 0
M  V30 15335 H 1463.09 2.92627 1.39785 0
M  V30 15336 H 1462.87 3.92034 -0.0719835 0
M  V30 15337 H 1464.36 4.07658 0.905786 0
M  V30 15338 N 1464.8 0.627364 1.44575 0
M  V30 15339 C 1465.76 -0.0700881 2.29093 0
M  V30 15340 C 1466.76 -0.775969 1.40838 0
M  V30 15341 O 1467.95 -0.621129 1.6275 0
M  V30 15342 C 1465.08 -1.10977 3.2233 0
M  V30 15343 H 1466.28 0.673234 2.92246 0
M  V30 15344 H 1463.83 0.387322 1.51425 0
M  V30 15345 H 1464.56 -1.8832 2.64019 0
M  V30 15346 H 1464.35 -0.607587 3.87364 0
M  V30 15347 H 1465.84 -1.59764 3.8583 0
M  V30 15348 N 1466.28 -1.53251 0.367684 0
M  V30 15349 C 1467.52 -2.03197 -0.221396 0
M  V30 15350 C 1467.88 -1.249 -1.45822 0
M  V30 15351 O 1469.08 -1.64863 -2.12306 0
M  V30 15352 C 1467.35 -3.53827 -0.504134 0
M  V30 15353 S 1468.91 -4.2564 -1.06658 0
M  V30 15354 H 1465.73 -0.708089 -0.0642774 0
M  V30 15355 H 1468.33 -1.88703 0.511037 0
M  V30 15356 H 1467.03 -4.08412 0.403477 0
M  V30 15357 H 1466.57 -3.72487 -1.26558 0
M  V30 15358 H 1468.58 -4.36987 -2.35068 0
M  V30 15359 N 1467.75 -0.0969077 -1.57302 0
M  V30 15360 C 1469 0.565254 -1.94034 0
M  V30 15361 C 1469.32 1.68609 -0.9796 0
M  V30 15362 O 1468.59 1.95874 -0.0319788 0
M  V30 15363 H 1467.17 0.211796 -0.716346 0
M  V30 15364 H 1469.83 -0.160665 -1.94237 0
M  V30 15365 H 1468.93 0.974268 -2.96504 0
M  V30 15366 N 1469.23 1.56605 0.176793 0
M  V30 15367 C 1470.51 1.72546 0.921261 0
M  V30 15368 C 1470.89 0.656794 2.00623 0
M  V30 15369 O 1470.24 -0.329303 2.26115 0
M  V30 15370 C 1470.45 3.15548 1.491 0
M  V30 15371 C 1471.79 3.7634 1.96604 0
M  V30 15372 O 1472.82 3.18791 1.58905 0
M  V30 15373 O 1471.68 4.77377 2.66033 0
M  V30 15374 H 1468.77 0.704425 0.43326 0
M  V30 15375 H 1471.32 1.68895 0.165052 0
M  V30 15376 H 1470.09 3.84808 0.709839 0
M  V30 15377 H 1469.71 3.23502 2.31154 0
M  V30 15378 N 1470.71 -0.445159 1.51182 0
M  V30 15379 C 1471.96 -1.19215 1.62698 0
M  V30 15380 C 1472.27 -1.92529 0.345249 0
M  V30 15381 O 1473.48 -2.69367 0.33967 0
M  V30 15382 C 1471.93 -2.16762 2.87302 0
M  V30 15383 C 1471.54 -1.49131 4.2245 0
M  V30 15384 C 1473.29 -2.91942 3.08172 0
M  V30 15385 C 1471.19 -2.45117 5.38212 0
M  V30 15386 H 1470.12 -0.448687 0.605967 0
M  V30 15387 H 1472.77 -0.459956 1.77642 0
M  V30 15388 H 1471.16 -2.93383 2.65975 0
M  V30 15389 H 1472.33 -0.781222 4.54129 0
M  V30 15390 H 1470.64 -0.861342 4.07394 0
M  V30 15391 H 1473.24 -3.6383 3.91832 0
M  V30 15392 H 1473.58 -3.52837 2.20934 0
M  V30 15393 H 1474.12 -2.22429 3.29803 0
M  V30 15394 H 1470.86 -1.88923 6.27685 0
M  V30 15395 H 1470.38 -3.14202 5.10918 0
M  V30 15396 H 1472.06 -3.06411 5.69843 0
M  V30 15397 N 1472.19 -1.41197 -0.700089 0
M  V30 15398 C 1473.44 -1.39611 -1.45574 0
M  V30 15399 C 1473.75 -0.00683378 -1.95599 0
M  V30 15400 O 1474.96 0.131643 -2.71181 0
M  V30 15401 C 1473.41 -2.45452 -2.63214 0
M  V30 15402 C 1473.02 -3.90265 -2.19993 0
M  V30 15403 C 1474.76 -2.52996 -3.40871 0
M  V30 15404 C 1472.67 -4.87668 -3.34565 0
M  V30 15405 H 1471.6 -0.51917 -0.546789 0
M  V30 15406 H 1474.25 -1.67001 -0.760456 0
M  V30 15407 H 1472.63 -2.11186 -3.34987 0
M  V30 15408 H 1473.81 -4.33756 -1.55539 0
M  V30 15409 H 1472.12 -3.86339 -1.55341 0
M  V30 15410 H 1474.72 -3.22952 -4.26153 0
M  V30 15411 H 1475.06 -1.56536 -3.85749 0
M  V30 15412 H 1475.6 -2.86331 -2.76151 0
M  V30 15413 H 1472.33 -5.85517 -2.94704 0
M  V30 15414 H 1471.85 -4.4883 -3.97884 0
M  V30 15415 H 1473.53 -5.08215 -4.00409 0
M  V30 15416 N 1473.67 0.933891 -1.2695 0
M  V30 15417 C 1474.61 2.05498 -1.08964 0
M  V30 15418 C 1475.61 1.69394 -0.0144837 0
M  V30 15419 O 1476.81 1.79179 -0.171729 0
M  V30 15420 H 1473.19 0.672978 -0.335566 0
M  V30 15421 H 1475.16 2.17817 -2.03957 0
M  V30 15422 C 1473.91 3.39579 -0.747074 0
M  V30 15423 H 1473.23 3.67842 -1.56628 0
M  V30 15424 H 1474.67 4.18815 -0.661064 0
M  V30 15425 C 1473.13 3.3241 0.548214 0
M  V30 15426 O 1473.66 3.69132 1.58443 0
M  V30 15427 N 1471.87 2.85509 0.541545 0
M  V30 15428 H 1471.41 2.55822 -0.302112 0
M  V30 15429 H 1471.37 2.81095 1.4083 0
M  V30 15430 N 1475.14 1.08871 1.13951 0
M  V30 15431 C 1476.39 0.819665 1.84732 0
M  V30 15432 C 1476.71 -0.656535 1.83615 0
M  V30 15433 O 1475.98 -1.47614 1.28791 0
M  V30 15434 H 1474.56 0.30023 0.684011 0
M  V30 15435 H 1477.22 1.37568 1.38062 0
M  V30 15436 H 1476.32 1.16809 2.89417 0
M  V30 15437 N 1476.62 -1.31073 0.875073 0
M  V30 15438 C 1477.55 -2.30855 0.350468 0
M  V30 15439 C 1478.53 -1.60569 -0.561384 0
M  V30 15440 O 1479.72 -1.88242 -0.477329 0
M  V30 15441 C 1476.85 -3.44444 -0.444493 0
M  V30 15442 C 1475.8 -4.26357 0.374716 0
M  V30 15443 C 1475.13 -5.31903 -0.546243 0
M  V30 15444 C 1476.43 -4.96817 1.61153 0
M  V30 15445 H 1478.12 -2.74983 1.18427 0
M  V30 15446 H 1475.67 -1.32199 0.570909 0
M  V30 15447 H 1477.62 -4.13304 -0.82206 0
M  V30 15448 H 1476.34 -2.99096 -1.31185 0
M  V30 15449 H 1475 -3.59171 0.734295 0
M  V30 15450 H 1474.65 -4.82803 -1.41102 0
M  V30 15451 H 1474.35 -5.876 -0.00198173 0
M  V30 15452 H 1475.88 -6.03621 -0.920542 0
M  V30 15453 H 1477.29 -5.58247 1.30511 0
M  V30 15454 H 1475.69 -5.62334 2.09524 0
M  V30 15455 H 1476.76 -4.2351 2.36151 0
M  V30 15456 N 1478.1 -0.635022 -1.4424 0
M  V30 15457 C 1479.51 -0.222982 -1.85364 0
M  V30 15458 C 1479.86 1.22648 -1.5314 0
M  V30 15459 O 1478.99 1.93373 -0.971384 0
M  V30 15460 C 1479.58 -0.397912 -3.36455 0
M  V30 15461 C 1478.14 -0.0403458 -3.76378 0
M  V30 15462 C 1477.29 -0.709451 -2.68071 0
M  V30 15463 H 1480.24 -0.839923 -1.34651 0
M  V30 15464 H 1480.26 0.361996 -3.78774 0
M  V30 15465 H 1479.77 -1.45294 -3.59877 0
M  V30 15466 H 1477.87 1.01279 -3.58571 0
M  V30 15467 H 1477.99 -0.453121 -4.76952 0
M  V30 15468 H 1476.35 -0.144386 -2.5429 0
M  V30 15469 H 1477.13 -1.76715 -2.94324 0
M  V30 15470 N 1479.58 1.53054 -0.375806 0
M  V30 15471 C 1480.82 2.017 0.210985 0
M  V30 15472 C 1481.16 1.26228 1.47581 0
M  V30 15473 O 1480.43 0.358869 1.91161 0
M  V30 15474 C 1480.72 3.56715 0.492596 0
M  V30 15475 C 1480.57 4.42869 -0.786573 0
M  V30 15476 C 1481.89 4.20803 1.28891 0
M  V30 15477 H 1479.01 0.733153 0.0752084 0
M  V30 15478 H 1481.65 1.83229 -0.502715 0
M  V30 15479 H 1479.8 3.72585 1.10059 0
M  V30 15480 H 1481.47 4.38777 -1.42381 0
M  V30 15481 H 1479.71 4.10425 -1.40478 0
M  V30 15482 H 1480.38 5.49309 -0.544354 0
M  V30 15483 H 1482.86 4.08828 0.774498 0
M  V30 15484 H 1481.74 5.29273 1.45469 0
M  V30 15485 H 1482 3.77541 2.30033 0
M  V30 15486 N 1481.06 0.105248 1.57248 0
M  V30 15487 C 1482.28 -0.567515 1.99484 0
M  V30 15488 C 1482.71 -1.60298 0.984182 0
M  V30 15489 O 1482.06 -1.81242 -0.0459944 0
M  V30 15490 C 1482.11 -1.18271 3.40653 0
M  V30 15491 O 1481.22 -2.29843 3.42412 0
M  V30 15492 H 1480.56 -0.143069 0.648404 0
M  V30 15493 H 1483.09 0.189661 2.03719 0
M  V30 15494 H 1483.1 -1.52157 3.78566 0
M  V30 15495 H 1481.77 -0.424179 4.13731 0
M  V30 15496 H 1480.35 -1.975 3.16304 0
M  V30 15497 N 1482.53 -1.56697 -0.168486 0
M  V30 15498 C 1483.5 -1.95744 -1.19235 0
M  V30 15499 C 1484.5 -0.841419 -1.37028 0
M  V30 15500 O 1485.69 -1.10842 -1.34386 0
M  V30 15501 C 1482.82 -2.25471 -2.55686 0
M  V30 15502 H 1484.01 -2.87368 -0.857892 0
M  V30 15503 H 1481.57 -1.50798 -0.411041 0
M  V30 15504 H 1482.3 -1.36571 -2.94141 0
M  V30 15505 H 1482.09 -3.06822 -2.44137 0
M  V30 15506 H 1483.58 -2.56593 -3.29469 0
M  V30 15507 N 1484.01 0.437135 -1.51416 0
M  V30 15508 C 1485.43 0.773631 -1.39596 0
M  V30 15509 C 1485.63 1.95737 -0.478463 0
M  V30 15510 O 1484.68 2.52413 0.0662971 0
M  V30 15511 C 1486 1.05381 -2.8163 0
M  V30 15512 C 1487.55 1.15824 -2.90782 0
M  V30 15513 C 1488.02 1.47135 -4.33722 0
M  V30 15514 N 1489.51 1.54059 -4.3683 0
M  V30 15515 C 1490.25 1.79858 -5.44462 0
M  V30 15516 N 1489.74 2.03449 -6.62254 0
M  V30 15517 N 1491.54 1.81642 -5.31942 0
M  V30 15518 H 1483.69 -0.342468 -2.09621 0
M  V30 15519 H 1485.95 -0.0908158 -0.94364 0
M  V30 15520 H 1485.66 0.256708 -3.50762 0
M  V30 15521 H 1485.53 1.98139 -3.20968 0
M  V30 15522 H 1487.92 1.94597 -2.21847 0
M  V30 15523 H 1488 0.209663 -2.54939 0
M  V30 15524 H 1487.64 0.688897 -5.03206 0
M  V30 15525 H 1487.57 2.43199 -4.67078 0
M  V30 15526 H 1490.06 1.3773 -3.51907 0
M  V30 15527 H 1490.38 2.22506 -7.40075 0
M  V30 15528 H 1488.72 2.00771 -6.65369 0
M  V30 15529 H 1491.91 1.62731 -4.38903 0
M  V30 15530 H 1492.08 2.01411 -6.15904 0
M  V30 15531 N 1485.49 1.41566 0.692592 0
M  V30 15532 C 1486.91 1.24101 1.00355 0
M  V30 15533 C 1487.11 0.132485 2.01064 0
M  V30 15534 O 1486.16 -0.502142 2.47457 0
M  V30 15535 C 1487.48 2.59142 1.52532 0
M  V30 15536 C 1489.02 2.66348 1.64401 0
M  V30 15537 C 1489.5 4.01713 2.19978 0
M  V30 15538 N 1490.99 4.03575 2.27335 0
M  V30 15539 C 1491.72 5.05118 2.71373 0
M  V30 15540 N 1491.22 6.1705 3.14994 0
M  V30 15541 N 1493.01 4.92479 2.70963 0
M  V30 15542 H 1485.16 2.12385 0.0254859 0
M  V30 15543 H 1487.43 0.945118 0.0738684 0
M  V30 15544 H 1487.13 3.41026 0.85989 0
M  V30 15545 H 1487.01 2.81833 2.50699 0
M  V30 15546 H 1489.39 1.84821 2.30055 0
M  V30 15547 H 1489.48 2.47464 0.647717 0
M  V30 15548 H 1489.12 4.8369 1.54939 0
M  V30 15549 H 1489.05 4.1794 3.20365 0
M  V30 15550 H 1491.54 3.2276 1.96556 0
M  V30 15551 H 1491.85 6.90399 3.47231 0
M  V30 15552 H 1490.2 6.20582 3.12895 0
M  V30 15553 H 1493.39 4.04117 2.36236 0
M  V30 15554 H 1493.56 5.71752 3.04965 0
M  V30 15555 N 1486.97 -0.927146 1.27443 0
M  V30 15556 C 1488.22 -1.67159 1.13589 0
M  V30 15557 C 1488.54 -1.92379 -0.31865 0
M  V30 15558 O 1487.81 -1.53045 -1.22287 0
M  V30 15559 H 1486.39 -0.619524 0.417371 0
M  V30 15560 H 1489.05 -1.11323 1.59979 0
M  V30 15561 H 1488.15 -2.63954 1.66537 0
M  V30 15562 N 1488.45 -1.09474 -1.13372 0
M  V30 15563 C 1489.86 -0.824541 -1.36651 0
M  V30 15564 C 1490.06 0.560903 -1.93536 0
M  V30 15565 O 1489.12 1.31567 -2.15514 0
M  V30 15566 C 1490.43 -1.91618 -2.31739 0
M  V30 15567 C 1491.98 -1.94346 -2.45354 0
M  V30 15568 C 1492.45 -3.02655 -3.4375 0
M  V30 15569 N 1493.95 -3.01898 -3.513 0
M  V30 15570 C 1494.68 -3.82344 -4.27318 0
M  V30 15571 N 1494.18 -4.727 -5.06484 0
M  V30 15572 N 1495.97 -3.70602 -4.22623 0
M  V30 15573 H 1488.12 -1.98793 -0.748005 0
M  V30 15574 H 1490.38 -0.863318 -0.391646 0
M  V30 15575 H 1490.09 -2.91282 -1.97098 0
M  V30 15576 H 1489.96 -1.79484 -3.31761 0
M  V30 15577 H 1492.35 -0.953206 -2.79281 0
M  V30 15578 H 1492.43 -2.10558 -1.45255 0
M  V30 15579 H 1492.08 -4.01894 -3.10553 0
M  V30 15580 H 1492.01 -2.83687 -4.43655 0
M  V30 15581 H 1494.5 -2.36417 -2.94814 0
M  V30 15582 H 1494.81 -5.30665 -5.61796 0
M  V30 15583 H 1493.15 -4.76736 -5.05715 0
M  V30 15584 H 1496.35 -2.99372 -3.59853 0
M  V30 15585 H 1496.52 -4.33535 -4.81614 0
M  V30 15586 N 1489.92 1.30607 -0.882012 0
M  V30 15587 C 1490.83 2.31967 -0.350503 0
M  V30 15588 C 1491.85 1.6522 0.54575 0
M  V30 15589 O 1493.03 1.96544 0.439581 0
M  V30 15590 C 1490.09 3.44037 0.428924 0
M  V30 15591 C 1489.15 4.26417 -0.496727 0
M  V30 15592 C 1488.39 5.33135 0.245597 0
M  V30 15593 O 1488.61 5.51077 1.47209 0
M  V30 15594 O 1487.54 6.00551 -0.402767 0
M  V30 15595 H 1491.37 2.79374 -1.19095 0
M  V30 15596 H 1488.95 1.34723 -0.645754 0
M  V30 15597 H 1490.84 4.12314 0.870346 0
M  V30 15598 H 1489.51 2.9877 1.24573 0
M  V30 15599 H 1488.42 3.60848 -0.986899 0
M  V30 15600 H 1489.75 4.7528 -1.27945 0
M  V30 15601 N 1491.4 0.642663 1.43901 0
M  V30 15602 C 1492.65 0.149167 2.01148 0
M  V30 15603 C 1492.96 -1.2405 1.51231 0
M  V30 15604 O 1494.17 -1.82864 2.00681 0
M  V30 15605 C 1492.63 0.215891 3.59252 0
M  V30 15606 C 1492.23 1.60759 4.18163 0
M  V30 15607 C 1493.98 -0.220546 4.23927 0
M  V30 15608 C 1491.89 1.62881 5.68528 0
M  V30 15609 H 1490.82 0.0520015 0.752205 0
M  V30 15610 H 1493.47 0.803152 1.6499 0
M  V30 15611 H 1491.85 -0.505409 3.92762 0
M  V30 15612 H 1493.02 2.3534 3.96171 0
M  V30 15613 H 1491.34 1.9891 3.65819 0
M  V30 15614 H 1493.93 -0.224389 5.34229 0
M  V30 15615 H 1494.28 -1.25003 3.97089 0
M  V30 15616 H 1494.81 0.448646 3.95262 0
M  V30 15617 H 1491.55 2.63704 6.00117 0
M  V30 15618 H 1491.07 0.926104 5.92607 0
M  V30 15619 H 1492.75 1.36785 6.32375 0
M  V30 15620 N 1492.88 -1.52852 0.383918 0
M  V30 15621 C 1493.81 -2.29213 -0.44539 0
M  V30 15622 C 1494.79 -1.3238 -1.06815 0
M  V30 15623 O 1495.98 -1.61269 -1.08194 0
M  V30 15624 C 1493.11 -3.09497 -1.57573 0
M  V30 15625 C 1492.06 -4.14168 -1.07928 0
M  V30 15626 C 1491.39 -4.82644 -2.30128 0
M  V30 15627 C 1492.69 -5.22082 -0.151035 0
M  V30 15628 H 1494.38 -2.98786 0.19172 0
M  V30 15629 H 1491.93 -1.43695 0.0936471 0
M  V30 15630 H 1493.88 -3.61672 -2.16267 0
M  V30 15631 H 1492.6 -2.37647 -2.24034 0
M  V30 15632 H 1491.26 -3.62966 -0.514909 0
M  V30 15633 H 1490.91 -4.07348 -2.95087 0
M  V30 15634 H 1490.61 -5.53388 -1.97574 0
M  V30 15635 H 1492.14 -5.37621 -2.89475 0
M  V30 15636 H 1493.55 -5.69649 -0.646003 0
M  V30 15637 H 1491.95 -6.00041 0.0844833 0
M  V30 15638 H 1493.02 -4.78228 0.801618 0
M  V30 15639 N 1494.36 -0.113586 -1.5719 0
M  V30 15640 C 1495.29 0.835363 -2.18046 0
M  V30 15641 C 1496.27 1.28114 -1.11897 0
M  V30 15642 O 1497.46 1.34472 -1.40111 0
M  V30 15643 C 1494.59 2.08759 -2.77556 0
M  V30 15644 C 1493.54 1.77979 -3.8924 0
M  V30 15645 C 1492.87 3.10185 -4.35533 0
M  V30 15646 C 1494.17 1.05231 -5.11589 0
M  V30 15647 H 1495.86 0.328275 -2.97595 0
M  V30 15648 H 1493.41 0.156456 -1.43148 0
M  V30 15649 H 1495.36 2.75597 -3.18785 0
M  V30 15650 H 1494.08 2.61783 -1.95288 0
M  V30 15651 H 1492.74 1.13532 -3.48577 0
M  V30 15652 H 1492.39 3.61133 -3.50131 0
M  V30 15653 H 1492.09 2.90367 -5.10843 0
M  V30 15654 H 1493.61 3.78151 -4.7941 0
M  V30 15655 H 1495.03 1.62213 -5.49872 0
M  V30 15656 H 1493.42 0.955269 -5.92448 0
M  V30 15657 H 1494.49 0.038137 -4.84885 0
M  V30 15658 N 1495.84 1.56784 0.160173 0
M  V30 15659 C 1497.09 1.8226 0.873253 0
M  V30 15660 C 1497.41 0.692384 1.82294 0
M  V30 15661 O 1496.68 -0.286961 1.93787 0
M  V30 15662 H 1495.26 0.672371 0.325463 0
M  V30 15663 H 1497.92 1.94264 0.157325 0
M  V30 15664 H 1497.01 2.76714 1.44345 0
M  V30 15665 N 1497.32 -0.429099 1.51646 0
M  V30 15666 C 1498.73 -1.00868 1.57107 0
M  V30 15667 C 1499.08 -1.9209 0.399483 0
M  V30 15668 O 1498.2 -2.10948 -0.482709 0
M  V30 15669 C 1498.8 -1.83612 2.84732 0
M  V30 15670 C 1497.36 -2.36605 2.92737 0
M  V30 15671 C 1496.5 -1.1604 2.51853 0
M  V30 15672 H 1499.45 -0.21006 1.57304 0
M  V30 15673 H 1499.48 -2.69149 2.68959 0
M  V30 15674 H 1498.99 -1.17192 3.69983 0
M  V30 15675 H 1497.09 -3.06455 2.11934 0
M  V30 15676 H 1497.2 -2.68838 3.96564 0
M  V30 15677 H 1495.57 -1.50826 2.0524 0
M  V30 15678 H 1496.35 -0.51218 3.39458 0
M  V30 15679 N 1498.79 -1.41931 -0.685074 0
M  V30 15680 C 1499.76 -1.44315 -1.78061 0
M  V30 15681 C 1500.76 -0.332215 -1.57331 0
M  V30 15682 O 1501.95 -0.59258 -1.63811 0
M  V30 15683 C 1499.08 -1.26479 -3.16569 0
M  V30 15684 H 1500.27 -2.4185 -1.77337 0
M  V30 15685 H 1497.82 -1.28228 -0.893721 0
M  V30 15686 H 1498.56 -0.298259 -3.22926 0
M  V30 15687 H 1498.34 -2.06981 -3.33018 0
M  V30 15688 H 1499.83 -1.31006 -3.96519 0
M  V30 15689 N 1500.27 0.920374 -1.27933 0
M  V30 15690 C 1501.55 1.64765 -1.05413 0
M  V30 15691 C 1501.93 2.07106 0.408717 0
M  V30 15692 O 1501.28 1.81094 1.39346 0
M  V30 15693 C 1501.49 2.84417 -2.02257 0
M  V30 15694 C 1502.83 3.5559 -2.32036 0
M  V30 15695 O 1503.86 2.94555 -2.00289 0
M  V30 15696 O 1502.72 4.65574 -2.86187 0
M  V30 15697 H 1499.81 0.722503 -0.402391 0
M  V30 15698 H 1502.36 0.970263 -1.39226 0
M  V30 15699 H 1501.13 2.50174 -3.0088 0
M  V30 15700 H 1500.75 3.59872 -1.6905 0
M  V30 15701 N 1501.75 1.10074 1.1279 0
M  V30 15702 C 1503 0.839212 1.83852 0
M  V30 15703 C 1503.32 -0.637023 1.84301 0
M  V30 15704 O 1502.59 -1.46239 1.30349 0
M  V30 15705 H 1501.17 0.307468 0.680788 0
M  V30 15706 H 1503.83 1.39025 1.36595 0
M  V30 15707 H 1502.93 1.19872 2.88162 0
M  V30 15708 N 1503.23 -1.30138 0.888926 0
M  V30 15709 C 1504.16 -2.26177 0.303221 0
M  V30 15710 C 1505.14 -1.51962 -0.578471 0
M  V30 15711 O 1506.32 -1.80963 -0.527685 0
M  V30 15712 C 1503.45 -3.3389 -0.568783 0
M  V30 15713 C 1502.5 -4.25801 0.24412 0
M  V30 15714 S 1503.33 -5.09931 1.63496 0
M  V30 15715 C 1504.48 -6.21151 0.76959 0
M  V30 15716 H 1504.72 -2.75507 1.11728 0
M  V30 15717 H 1502.25 -1.38195 0.688594 0
M  V30 15718 H 1504.21 -3.96413 -1.06614 0
M  V30 15719 H 1502.87 -2.83276 -1.35697 0
M  V30 15720 H 1502.06 -5.02234 -0.42151 0
M  V30 15721 H 1501.66 -3.67872 0.67424 0
M  V30 15722 H 1503.96 -6.77499 -0.0117256 0
M  V30 15723 H 1504.9 -6.91907 1.50566 0
M  V30 15724 H 1505.31 -5.63542 0.328744 0
M  V30 15725 N 1504.71 -0.650285 -1.43559 0
M  V30 15726 C 1505.95 -0.162725 -2.02146 0
M  V30 15727 C 1506.28 1.21911 -1.51166 0
M  V30 15728 O 1505.56 1.81329 -0.703563 0
M  V30 15729 C 1505.84 -0.170356 -3.59697 0
M  V30 15730 C 1505.7 -1.5859 -4.20915 0
M  V30 15731 C 1507.01 0.494831 -4.37309 0
M  V30 15732 H 1504.13 -0.0606055 -0.734504 0
M  V30 15733 H 1506.78 -0.830411 -1.70892 0
M  V30 15734 H 1504.93 0.39819 -3.86454 0
M  V30 15735 H 1506.6 -2.20481 -4.05199 0
M  V30 15736 H 1504.84 -2.13407 -3.77677 0
M  V30 15737 H 1505.51 -1.54312 -5.29992 0
M  V30 15738 H 1507.99 0.0111281 -4.16099 0
M  V30 15739 H 1506.86 0.458753 -5.4698 0
M  V30 15740 H 1507.12 1.56846 -4.13342 0
M  V30 15741 N 1506.18 1.52647 -0.392018 0
M  V30 15742 C 1507.41 2.06511 0.191815 0
M  V30 15743 C 1507.83 1.26162 1.39516 0
M  V30 15744 O 1507.19 0.287373 1.79008 0
M  V30 15745 C 1507.24 3.56571 0.537512 0
M  V30 15746 O 1506.34 3.78774 1.63106 0
M  V30 15747 H 1505.68 0.663647 0.0216546 0
M  V30 15748 H 1508.21 1.96779 -0.560274 0
M  V30 15749 H 1508.22 4.00059 0.801044 0
M  V30 15750 H 1506.9 4.14489 -0.342239 0
M  V30 15751 H 1505.48 3.47175 1.36103 0
M  V30 15752 N 1507.66 0.121921 1.57128 0
M  V30 15753 C 1508.61 -0.827205 2.15467 0
M  V30 15754 C 1509.58 -1.26155 1.08047 0
M  V30 15755 O 1510.76 -1.33855 1.35969 0
M  V30 15756 C 1507.9 -2.07077 2.76067 0
M  V30 15757 C 1507.02 -1.68452 3.97804 0
M  V30 15758 C 1506.15 -2.87797 4.46482 0
M  V30 15759 C 1505.19 -2.45426 5.60743 0
M  V30 15760 N 1504.33 -3.57695 6.04151 0
M  V30 15761 H 1509.17 -0.322879 2.96246 0
M  V30 15762 H 1506.71 -0.147677 1.46357 0
M  V30 15763 H 1508.66 -2.79943 3.09335 0
M  V30 15764 H 1507.29 -2.54963 1.97974 0
M  V30 15765 H 1506.35 -0.854487 3.70679 0
M  V30 15766 H 1507.66 -1.33316 4.80654 0
M  V30 15767 H 1506.81 -3.68885 4.81673 0
M  V30 15768 H 1505.55 -3.26162 3.62587 0
M  V30 15769 H 1504.56 -1.62772 5.25153 0
M  V30 15770 H 1505.78 -2.08175 6.46405 0
M  V30 15771 H 1503.73 -3.95728 5.23197 0
M  V30 15772 H 1503.64 -3.26491 6.81865 0
M  V30 15773 H 1504.91 -4.39213 6.43981 0
M  V30 15774 N 1509.14 -1.56867 -0.151857 0
M  V30 15775 C 1510.39 -1.82721 -0.863575 0
M  V30 15776 C 1510.71 -0.702042 -1.81924 0
M  V30 15777 O 1509.98 0.27668 -1.93936 0
M  V30 15778 H 1508.56 -0.674088 -0.321893 0
M  V30 15779 H 1511.22 -1.94345 -0.14702 0
M  V30 15780 H 1510.32 -2.77476 -1.42876 0
M  V30 15781 N 1510.62 0.421051 -1.51871 0
M  V30 15782 C 1511.86 1.16763 -1.66547 0
M  V30 15783 C 1512.22 1.88513 -0.38478 0
M  V30 15784 O 1511.51 1.81283 0.620237 0
M  V30 15785 C 1511.71 2.19819 -2.81806 0
M  V30 15786 C 1511.54 1.58186 -4.2096 0
M  V30 15787 C 1510.31 1.35972 -4.86662 0
M  V30 15788 C 1512.5 1.04921 -5.03484 0
M  V30 15789 N 1510.49 0.70107 -6.09884 0
M  V30 15790 C 1511.86 0.516784 -6.17842 0
M  V30 15791 C 1513.91 0.942524 -4.88898 0
M  V30 15792 C 1512.61 -0.111853 -7.19213 0
M  V30 15793 C 1514.64 0.327758 -5.90491 0
M  V30 15794 C 1514 -0.194044 -7.04133 0
M  V30 15795 H 1510.1 0.41436 -0.663197 0
M  V30 15796 H 1512.69 0.461765 -1.89145 0
M  V30 15797 H 1510.86 2.87776 -2.60844 0
M  V30 15798 H 1512.59 2.86752 -2.85579 0
M  V30 15799 H 1509.34 1.62596 -4.44814 0
M  V30 15800 H 1509.77 0.388716 -6.75883 0
M  V30 15801 H 1514.41 1.33179 -4.01277 0
M  V30 15802 H 1512.13 -0.513209 -8.06469 0
M  V30 15803 H 1515.71 0.246895 -5.81276 0
M  V30 15804 H 1514.59 -0.662259 -7.81399 0
M  V30 15805 N 1512.1 1.42293 0.677538 0
M  V30 15806 C 1513.51 1.25158 0.990334 0
M  V30 15807 C 1513.71 0.153803 2.00912 0
M  V30 15808 O 1512.77 -0.475868 2.47975 0
M  V30 15809 C 1514.08 2.60745 1.49775 0
M  V30 15810 C 1515.63 2.68077 1.61566 0
M  V30 15811 C 1516.1 4.04024 2.15705 0
M  V30 15812 N 1517.6 4.05964 2.23042 0
M  V30 15813 C 1518.33 5.07968 2.66 0
M  V30 15814 N 1517.83 6.20356 3.08432 0
M  V30 15815 N 1519.62 4.95325 2.65725 0
M  V30 15816 H 1511.77 2.124 0.00295822 0
M  V30 15817 H 1514.03 0.945848 0.06384 0
M  V30 15818 H 1513.74 3.41919 0.823672 0
M  V30 15819 H 1513.61 2.84476 2.47695 0
M  V30 15820 H 1516 1.87251 2.28082 0
M  V30 15821 H 1516.08 2.48137 0.621434 0
M  V30 15822 H 1515.73 4.85306 1.498 0
M  V30 15823 H 1515.66 4.21314 3.15914 0
M  V30 15824 H 1518.15 3.24827 1.93122 0
M  V30 15825 H 1518.46 6.94043 3.39889 0
M  V30 15826 H 1516.8 6.23865 3.06296 0
M  V30 15827 H 1520 4.06599 2.31936 0
M  V30 15828 H 1520.17 5.74954 2.98884 0
M  V30 15829 N 1513.57 -0.913576 1.28419 0
M  V30 15830 C 1514.5 -2.03275 1.14897 0
M  V30 15831 C 1515.49 -1.70036 0.0467034 0
M  V30 15832 O 1516.67 -1.92907 0.223725 0
M  V30 15833 C 1513.8 -3.37717 0.810217 0
M  V30 15834 C 1512.75 -3.85119 1.86728 0
M  V30 15835 C 1512.08 -5.16527 1.38215 0
M  V30 15836 C 1513.38 -4.06959 3.27386 0
M  V30 15837 H 1515.07 -2.14847 2.08522 0
M  V30 15838 H 1512.62 -1.03233 1.00394 0
M  V30 15839 H 1514.57 -4.15505 0.702382 0
M  V30 15840 H 1513.3 -3.26199 -0.161732 0
M  V30 15841 H 1511.96 -3.09536 1.96426 0
M  V30 15842 H 1511.6 -5.01413 0.399263 0
M  V30 15843 H 1511.3 -5.49213 2.08898 0
M  V30 15844 H 1512.83 -5.96871 1.28754 0
M  V30 15845 H 1514.24 -4.75272 3.20608 0
M  V30 15846 H 1512.64 -4.50977 3.95904 0
M  V30 15847 H 1513.71 -3.11764 3.71391 0
M  V30 15848 N 1515.05 -1.1067 -1.12204 0
M  V30 15849 C 1515.98 -0.779829 -2.20093 0
M  V30 15850 C 1516.96 0.248279 -1.68278 0
M  V30 15851 O 1518.15 0.113511 -1.93868 0
M  V30 15852 C 1515.28 -0.213511 -3.46643 0
M  V30 15853 C 1514.23 -1.17258 -4.11624 0
M  V30 15854 C 1513.56 -0.467352 -5.32654 0
M  V30 15855 C 1514.86 -2.52014 -4.57478 0
M  V30 15856 H 1516.55 -1.68192 -2.47693 0
M  V30 15857 H 1514.1 -0.810131 -1.1905 0
M  V30 15858 H 1516.05 0.0273225 -4.21391 0
M  V30 15859 H 1514.78 0.723837 -3.18478 0
M  V30 15860 H 1513.43 -1.39891 -3.3886 0
M  V30 15861 H 1513.08 0.474547 -5.00756 0
M  V30 15862 H 1512.78 -1.10694 -5.77079 0
M  V30 15863 H 1514.31 -0.235122 -6.10147 0
M  V30 15864 H 1515.72 -2.33516 -5.23587 0
M  V30 15865 H 1514.12 -3.1188 -5.1269 0
M  V30 15866 H 1515.19 -3.11831 -3.71335 0
M  V30 15867 N 1516.53 1.29665 -0.895815 0
M  V30 15868 C 1517.49 2.26103 -0.3755 0
M  V30 15869 C 1518.49 1.53212 0.488126 0
M  V30 15870 O 1519.68 1.71706 0.293733 0
M  V30 15871 C 1516.82 3.37732 0.46364 0
M  V30 15872 H 1518.01 2.73643 -1.22718 0
M  V30 15873 H 1515.56 1.4104 -0.673613 0
M  V30 15874 H 1516.3 2.95526 1.33546 0
M  V30 15875 H 1516.08 3.91793 -0.155123 0
M  V30 15876 H 1517.57 4.09488 0.819112 0
M  V30 15877 N 1518.01 0.657889 1.43212 0
M  V30 15878 C 1519.42 0.252443 1.84985 0
M  V30 15879 C 1519.77 -1.20196 1.55072 0
M  V30 15880 O 1518.9 -1.91803 1.00202 0
M  V30 15881 C 1519.49 0.451388 3.3578 0
M  V30 15882 C 1518.05 0.100219 3.76267 0
M  V30 15883 C 1517.2 0.752009 2.66908 0
M  V30 15884 H 1520.15 0.861239 1.33298 0
M  V30 15885 H 1520.17 -0.30169 3.79302 0
M  V30 15886 H 1519.68 1.51001 3.5752 0
M  V30 15887 H 1517.78 -0.955618 3.60137 0
M  V30 15888 H 1517.89 0.528942 4.76171 0
M  V30 15889 H 1516.26 0.184823 2.54029 0
M  V30 15890 H 1517.04 1.81375 2.91476 0
M  V30 15891 N 1519.49 -1.52437 0.400108 0
M  V30 15892 C 1520.74 -2.00896 -0.179909 0
M  V30 15893 C 1521.05 -1.29046 -1.46991 0
M  V30 15894 O 1522.25 -1.68274 -2.13063 0
M  V30 15895 C 1520.71 -3.57981 -0.371169 0
M  V30 15896 C 1520.32 -4.38739 0.906213 0
M  V30 15897 C 1522.06 -4.14698 -0.906965 0
M  V30 15898 C 1519.97 -5.87447 0.682637 0
M  V30 15899 H 1518.9 -0.750649 -0.071008 0
M  V30 15900 H 1521.55 -1.75854 0.524169 0
M  V30 15901 H 1519.93 -3.79315 -1.13736 0
M  V30 15902 H 1521.11 -4.29167 1.67785 0
M  V30 15903 H 1519.42 -3.93296 1.36776 0
M  V30 15904 H 1522.02 -5.2347 -1.09012 0
M  V30 15905 H 1522.36 -3.71477 -1.87911 0
M  V30 15906 H 1522.89 -3.97297 -0.200068 0
M  V30 15907 H 1519.63 -6.35011 1.62608 0
M  V30 15908 H 1519.15 -5.99779 -0.0498716 0
M  V30 15909 H 1520.83 -6.46202 0.321331 0
M  V30 15910 N 1520.96 -0.130252 -1.57061 0
M  V30 15911 C 1522.19 0.532416 -1.99932 0
M  V30 15912 C 1522.61 1.59505 -1.01013 0
M  V30 15913 O 1521.96 1.82499 -0.00463158 0
M  V30 15914 C 1522.02 1.14833 -3.42776 0
M  V30 15915 O 1521.74 0.128163 -4.37912 0
M  V30 15916 C 1523.24 1.89324 -4.00838 0
M  V30 15917 H 1520.46 0.140046 -0.656223 0
M  V30 15918 H 1523 -0.219905 -2.03314 0
M  V30 15919 H 1521.16 1.85137 -3.40298 0
M  V30 15920 H 1521.57 0.577135 -5.21315 0
M  V30 15921 H 1523.04 2.27731 -5.02835 0
M  V30 15922 H 1523.52 2.77277 -3.40608 0
M  V30 15923 H 1524.13 1.23757 -4.06896 0
M  V30 15924 N 1522.44 1.56945 0.143535 0
M  V30 15925 C 1523.41 1.97616 1.16106 0
M  V30 15926 C 1524.41 0.863113 1.35672 0
M  V30 15927 O 1525.6 1.12966 1.32606 0
M  V30 15928 C 1522.73 2.29511 2.52067 0
M  V30 15929 H 1523.92 2.88696 0.812066 0
M  V30 15930 H 1521.47 1.51433 0.386999 0
M  V30 15931 H 1522.21 1.41233 2.91931 0
M  V30 15932 H 1521.99 3.10667 2.39225 0
M  V30 15933 H 1523.48 2.61802 3.25345 0
M  V30 15934 N 1523.92 -0.412991 1.52093 0
M  V30 15935 C 1525.15 -1.1804 1.69558 0
M  V30 15936 C 1525.56 -1.84858 0.403007 0
M  V30 15937 O 1524.9 -1.72541 -0.630506 0
M  V30 15938 C 1524.96 -2.28876 2.7723 0
M  V30 15939 C 1524.63 -1.82226 4.19098 0
M  V30 15940 C 1525.63 -1.31216 5.03069 0
M  V30 15941 C 1523.31 -1.89177 4.65314 0
M  V30 15942 C 1525.3 -0.877743 6.31328 0
M  V30 15943 C 1522.99 -1.45347 5.93563 0
M  V30 15944 C 1523.99 -0.947302 6.76399 0
M  V30 15945 O 1523.68 -0.515315 8.02247 0
M  V30 15946 H 1523.41 -0.360882 0.571612 0
M  V30 15947 H 1525.96 -0.492521 1.99408 0
M  V30 15948 H 1524.19 -3.01015 2.42748 0
M  V30 15949 H 1525.88 -2.9065 2.83333 0
M  V30 15950 H 1526.65 -1.25221 4.68556 0
M  V30 15951 H 1522.53 -2.27518 4.00945 0
M  V30 15952 H 1526.07 -0.481977 6.95933 0
M  V30 15953 H 1521.97 -1.51019 6.27585 0
M  V30 15954 H 1522.74 -0.638973 8.16002 0
M  V30 15955 N 1525.4 -1.4265 -0.669982 0
M  V30 15956 C 1526.36 -1.46196 -1.7652 0
M  V30 15957 C 1527.36 -0.348884 -1.5697 0
M  V30 15958 O 1528.55 -0.609921 -1.63174 0
M  V30 15959 C 1525.68 -1.29829 -3.1521 0
M  V30 15960 H 1526.88 -2.43718 -1.74762 0
M  V30 15961 H 1524.43 -1.29168 -0.88007 0
M  V30 15962 H 1525.17 -0.332493 -3.22591 0
M  V30 15963 H 1524.95 -2.10501 -3.30804 0
M  V30 15964 H 1526.44 -1.35205 -3.95107 0
M  V30 15965 N 1526.88 0.906753 -1.28902 0
M  V30 15966 C 1527.81 2.01497 -1.09233 0
M  V30 15967 C 1528.82 1.62746 -0.0419378 0
M  V30 15968 O 1530.01 1.76198 -0.285728 0
M  V30 15969 C 1527.11 3.32816 -0.639255 0
M  V30 15970 C 1526.28 4.00137 -1.76661 0
M  V30 15971 C 1525.34 5.09742 -1.30573 0
M  V30 15972 O 1524.37 5.32559 -2.00921 0
M  V30 15973 N 1525.57 5.80243 -0.17275 0
M  V30 15974 H 1528.34 2.18927 -2.04673 0
M  V30 15975 H 1525.9 1.0785 -1.20748 0
M  V30 15976 H 1527.89 4.03477 -0.31439 0
M  V30 15977 H 1526.46 3.11807 0.222498 0
M  V30 15978 H 1525.68 3.22933 -2.26071 0
M  V30 15979 H 1526.97 4.41859 -2.52266 0
M  V30 15980 H 1526.37 5.64184 0.413931 0
M  V30 15981 H 1524.92 6.51734 0.0927926 0
M  V30 15982 N 1528.36 1.11264 1.11616 0
M  V30 15983 C 1529.29 0.727118 2.17361 0
M  V30 15984 C 1530.3 -0.240356 1.61016 0
M  V30 15985 O 1531.49 -0.0235265 1.78484 0
M  V30 15986 C 1528.59 0.05361 3.38858 0
M  V30 15987 C 1527.76 1.04744 4.24673 0
M  V30 15988 C 1526.82 0.403827 5.24648 0
M  V30 15989 O 1525.85 1.0572 5.59296 0
M  V30 15990 N 1527.05 -0.834071 5.74477 0
M  V30 15991 H 1529.81 1.63696 2.51045 0
M  V30 15992 H 1527.38 1.00261 1.2712 0
M  V30 15993 H 1529.37 -0.388643 4.0283 0
M  V30 15994 H 1527.94 -0.758778 3.03251 0
M  V30 15995 H 1527.16 1.6677 3.57185 0
M  V30 15996 H 1528.45 1.71988 4.7885 0
M  V30 15997 H 1527.84 -1.3841 5.48506 0
M  V30 15998 H 1526.4 -1.21933 6.40293 0
M  V30 15999 N 1529.83 -1.29188 0.902679 0
M  V30 16000 C 1531.06 -1.99576 0.545635 0
M  V30 16001 C 1531.48 -1.67541 -0.870372 0
M  V30 16002 O 1530.83 -0.922082 -1.57493 0
M  V30 16003 C 1530.88 -3.54013 0.731916 0
M  V30 16004 O 1530.61 -3.84914 2.09219 0
M  V30 16005 C 1532.11 -4.41666 0.38022 0
M  V30 16006 H 1529.33 -0.637593 0.209083 0
M  V30 16007 H 1531.87 -1.64652 1.21284 0
M  V30 16008 H 1530.03 -3.87239 0.111849 0
M  V30 16009 H 1530.44 -4.79581 2.12373 0
M  V30 16010 H 1531.91 -5.49138 0.561382 0
M  V30 16011 H 1532.39 -4.33858 -0.682915 0
M  V30 16012 H 1533 -4.13918 0.977354 0
M  V30 16013 N 1531.31 -0.665475 -1.42861 0
M  V30 16014 C 1532.73 -0.334157 -1.56063 0
M  V30 16015 C 1532.93 1.16104 -1.64688 0
M  V30 16016 O 1531.98 1.94622 -1.60867 0
M  V30 16017 C 1533.3 -1.05628 -2.81537 0
M  V30 16018 C 1534.84 -1.03771 -2.95297 0
M  V30 16019 C 1535.32 -1.74098 -4.2362 0
M  V30 16020 N 1536.81 -1.7092 -4.30512 0
M  V30 16021 C 1537.55 -2.222 -5.28597 0
M  V30 16022 N 1537.04 -2.81821 -6.32889 0
M  V30 16023 N 1538.83 -2.12628 -5.20332 0
M  V30 16024 H 1530.99 -1.6356 -1.35506 0
M  V30 16025 H 1533.25 -0.688538 -0.651628 0
M  V30 16026 H 1532.95 -2.11141 -2.81269 0
M  V30 16027 H 1532.83 -0.615586 -3.72143 0
M  V30 16028 H 1535.22 0.00905324 -2.95099 0
M  V30 16029 H 1535.3 -1.51721 -2.05948 0
M  V30 16030 H 1534.94 -2.78737 -4.2458 0
M  V30 16031 H 1534.87 -1.23604 -5.11888 0
M  V30 16032 H 1537.36 -1.27425 -3.55769 0
M  V30 16033 H 1537.67 -3.18594 -7.04072 0
M  V30 16034 H 1536.02 -2.85887 -6.33478 0
M  V30 16035 H 1539.21 -1.65746 -4.37774 0
M  V30 16036 H 1539.38 -2.52899 -5.96612 0
M  V30 16037 N 1532.79 1.52222 -0.408187 0
M  V30 16038 C 1534.04 2.01404 0.167574 0
M  V30 16039 C 1534.36 1.29572 1.45726 0
M  V30 16040 O 1533.63 0.421363 1.91315 0
M  V30 16041 H 1532.21 0.744174 0.0649156 0
M  V30 16042 H 1534.87 1.87148 -0.544212 0
M  V30 16043 H 1533.97 3.09966 0.36436 0
M  V30 16044 N 1534.27 0.138579 1.5699 0
M  V30 16045 C 1535.2 -0.800568 2.19347 0
M  V30 16046 C 1536.18 -1.26318 1.13921 0
M  V30 16047 O 1537.36 -1.32226 1.42232 0
M  V30 16048 C 1534.49 -2.04317 2.80842 0
M  V30 16049 C 1533.45 -1.71764 3.92022 0
M  V30 16050 C 1532.77 -3.03217 4.40413 0
M  V30 16051 C 1534.07 -0.970789 5.13199 0
M  V30 16052 H 1535.77 -0.280888 2.98079 0
M  V30 16053 H 1533.31 -0.133663 1.43378 0
M  V30 16054 H 1535.27 -2.70491 3.2313 0
M  V30 16055 H 1533.99 -2.58643 1.99428 0
M  V30 16056 H 1532.65 -1.07972 3.50339 0
M  V30 16057 H 1532.3 -3.55517 3.55832 0
M  V30 16058 H 1532 -2.82203 5.15398 0
M  V30 16059 H 1533.52 -3.70477 4.85365 0
M  V30 16060 H 1534.94 -1.53445 5.52384 0
M  V30 16061 H 1533.33 -0.860895 5.93893 0
M  V30 16062 H 1534.4 0.0390088 4.84884 0
M  V30 16063 N 1535.75 -1.57019 -0.13521 0
M  V30 16064 C 1536.68 -2.02182 -1.16811 0
M  V30 16065 C 1537.66 -0.9034 -1.44127 0
M  V30 16066 O 1538.84 -1.17202 -1.54846 0
M  V30 16067 C 1535.97 -2.41243 -2.49838 0
M  V30 16068 C 1534.93 -3.56379 -2.37018 0
M  V30 16069 C 1534.25 -3.8129 -3.74863 0
M  V30 16070 C 1535.55 -4.88653 -1.84432 0
M  V30 16071 H 1537.25 -2.8872 -0.792529 0
M  V30 16072 H 1534.79 -1.38901 -0.379788 0
M  V30 16073 H 1536.74 -2.7144 -3.22332 0
M  V30 16074 H 1535.47 -1.51656 -2.89254 0
M  V30 16075 H 1534.13 -3.26366 -1.66975 0
M  V30 16076 H 1533.78 -2.88934 -4.11735 0
M  V30 16077 H 1533.48 -4.58781 -3.67143 0
M  V30 16078 H 1535 -4.13924 -4.48887 0
M  V30 16079 H 1536.41 -5.17492 -2.46729 0
M  V30 16080 H 1534.81 -5.70032 -1.87574 0
M  V30 16081 H 1535.88 -4.78242 -0.800759 0
M  V30 16082 N 1537.22 0.404919 -1.52309 0
M  V30 16083 C 1538.47 1.14921 -1.66246 0
M  V30 16084 C 1538.79 1.90919 -0.396868 0
M  V30 16085 O 1538.06 1.86856 0.588361 0
M  V30 16086 H 1536.64 0.427223 -0.612772 0
M  V30 16087 H 1539.31 0.461091 -1.89367 0
M  V30 16088 H 1538.4 1.86095 -2.5055 0
M  V30 16089 N 1538.7 1.43003 0.662408 0
M  V30 16090 C 1539.94 1.45629 1.43428 0
M  V30 16091 C 1540.31 0.0748804 1.91854 0
M  V30 16092 O 1541.51 -0.0241645 2.68789 0
M  V30 16093 C 1539.78 2.46223 2.59054 0
M  V30 16094 S 1541.34 2.6765 3.47719 0
M  V30 16095 H 1538.16 0.515463 0.489713 0
M  V30 16096 H 1540.76 1.79701 0.769923 0
M  V30 16097 H 1539.46 3.45342 2.21737 0
M  V30 16098 H 1538.99 2.13618 3.3035 0
M  V30 16099 H 1541.01 1.96884 4.55468 0
M  V30 16100 N 1540.18 -0.899904 1.29381 0
M  V30 16101 C 1541.43 -1.64502 1.16713 0
M  V30 16102 C 1541.74 -1.93577 -0.280563 0
M  V30 16103 O 1542.95 -2.66305 -0.528563 0
M  V30 16104 C 1541.4 -2.96414 2.04125 0
M  V30 16105 C 1541.01 -2.74935 3.53716 0
M  V30 16106 C 1542.76 -3.74337 2.0018 0
M  V30 16107 C 1540.66 -4.02571 4.33232 0
M  V30 16108 H 1539.59 -0.617121 0.433218 0
M  V30 16109 H 1542.24 -0.997521 1.54019 0
M  V30 16110 H 1540.63 -3.62375 1.59687 0
M  V30 16111 H 1541.8 -2.17567 4.06203 0
M  V30 16112 H 1540.12 -2.10407 3.5933 0
M  V30 16113 H 1542.71 -4.6897 2.56849 0
M  V30 16114 H 1543.06 -4.04559 0.981735 0
M  V30 16115 H 1543.59 -3.15216 2.4266 0
M  V30 16116 H 1540.33 -3.77516 5.35875 0
M  V30 16117 H 1539.85 -4.59499 3.85514 0
M  V30 16118 H 1541.53 -4.70719 4.43884 0
M  V30 16119 N 1541.66 -1.11854 -1.11024 0
M  V30 16120 C 1542.91 -0.864814 -1.82219 0
M  V30 16121 C 1543.22 0.611349 -1.85801 0
M  V30 16122 O 1544.43 0.981475 -2.53139 0
M  V30 16123 C 1542.88 -1.49745 -3.27268 0
M  V30 16124 C 1542.49 -3.00796 -3.32003 0
M  V30 16125 C 1544.23 -1.32374 -4.03333 0
M  V30 16126 C 1542.14 -3.57023 -4.71475 0
M  V30 16127 H 1541.07 -0.319877 -0.682784 0
M  V30 16128 H 1543.72 -1.34431 -1.24903 0
M  V30 16129 H 1542.1 -0.94562 -3.84544 0
M  V30 16130 H 1543.28 -3.6242 -2.84585 0
M  V30 16131 H 1541.59 -3.17493 -2.6942 0
M  V30 16132 H 1544.19 -1.7181 -5.06345 0
M  V30 16133 H 1544.53 -0.26676 -4.15444 0
M  V30 16134 H 1545.07 -1.84444 -3.52456 0
M  V30 16135 H 1541.81 -4.62453 -4.64562 0
M  V30 16136 H 1541.33 -3.00172 -5.19285 0
M  V30 16137 H 1543 -3.5572 -5.40437 0
M  V30 16138 N 1543.14 1.28707 -0.909517 0
M  V30 16139 C 1544.36 1.99283 -0.556211 0
M  V30 16140 C 1544.78 1.68 0.861475 0
M  V30 16141 O 1544.14 0.930421 1.57001 0
M  V30 16142 C 1544.19 3.5362 -0.75068 0
M  V30 16143 O 1543.91 3.83799 -2.11258 0
M  V30 16144 C 1545.41 4.41459 -0.403637 0
M  V30 16145 H 1542.63 0.636476 -0.212462 0
M  V30 16146 H 1545.17 1.64007 -1.22156 0
M  V30 16147 H 1543.33 3.87174 -0.132384 0
M  V30 16148 H 1543.74 4.78448 -2.14913 0
M  V30 16149 H 1545.22 5.48833 -0.590496 0
M  V30 16150 H 1545.69 4.34214 0.659897 0
M  V30 16151 H 1546.3 4.13394 -0.999292 0
M  V30 16152 N 1544.61 0.673042 1.42506 0
M  V30 16153 C 1545.84 0.201349 2.0642 0
M  V30 16154 C 1546.26 -1.132 1.50224 0
M  V30 16155 O 1545.62 -1.70368 0.620024 0
M  V30 16156 C 1545.67 0.14505 3.60308 0
M  V30 16157 O 1544.77 -0.886953 4.02749 0
M  V30 16158 H 1544.12 0.103975 0.655809 0
M  V30 16159 H 1546.65 0.921559 1.8267 0
M  V30 16160 H 1546.66 -0.0316792 4.07988 0
M  V30 16161 H 1545.33 1.11829 4.00583 0
M  V30 16162 H 1543.91 -0.681408 3.66621 0
M  V30 16163 N 1546.09 -1.52004 0.416254 0
M  V30 16164 C 1547.02 -2.30106 -0.396671 0
M  V30 16165 C 1548 -1.34616 -1.03983 0
M  V30 16166 O 1549.19 -1.63528 -1.04749 0
M  V30 16167 C 1546.32 -3.12769 -1.50972 0
M  V30 16168 C 1545.27 -4.16365 -0.99119 0
M  V30 16169 C 1544.6 -4.87417 -2.19838 0
M  V30 16170 C 1545.9 -5.22284 -0.0402599 0
M  V30 16171 H 1547.59 -2.98312 0.255054 0
M  V30 16172 H 1545.14 -1.43464 0.124106 0
M  V30 16173 H 1547.09 -3.66178 -2.08547 0
M  V30 16174 H 1545.82 -2.42346 -2.18943 0
M  V30 16175 H 1544.47 -3.63976 -0.437803 0
M  V30 16176 H 1544.12 -4.13516 -2.8638 0
M  V30 16177 H 1543.82 -5.57454 -1.85792 0
M  V30 16178 H 1545.35 -5.43641 -2.78006 0
M  V30 16179 H 1546.76 -5.70891 -0.525027 0
M  V30 16180 H 1545.16 -5.99726 0.211742 0
M  V30 16181 H 1546.23 -4.7642 0.902877 0
M  V30 16182 N 1547.57 -0.146903 -1.56914 0
M  V30 16183 C 1548.8 0.511181 -2.00486 0
M  V30 16184 C 1549.21 1.58425 -1.02699 0
M  V30 16185 O 1548.57 1.82484 -0.0239878 0
M  V30 16186 C 1548.62 1.11191 -3.43975 0
M  V30 16187 O 1548.34 0.0817094 -4.38024 0
M  V30 16188 C 1549.84 1.85061 -4.02824 0
M  V30 16189 H 1547.06 0.133078 -0.657671 0
M  V30 16190 H 1549.61 -0.241457 -2.0307 0
M  V30 16191 H 1547.76 1.81517 -3.42243 0
M  V30 16192 H 1548.18 0.52181 -5.21898 0
M  V30 16193 H 1549.65 2.22385 -5.05222 0
M  V30 16194 H 1550.13 2.73649 -3.4353 0
M  V30 16195 H 1550.73 1.19434 -4.08186 0
M  V30 16196 N 1549.05 1.57088 0.126881 0
M  V30 16197 C 1550.3 1.84071 0.834397 0
M  V30 16198 C 1550.62 0.730896 1.80784 0
M  V30 16199 O 1549.89 -0.245791 1.94352 0
M  V30 16200 H 1548.47 0.679123 0.311128 0
M  V30 16201 H 1551.13 1.94554 0.116083 0
M  V30 16202 H 1550.23 2.79714 1.38443 0
M  V30 16203 N 1550.53 -0.396836 1.52522 0
M  V30 16204 C 1551.94 -0.736347 1.41598 0
M  V30 16205 C 1552.14 -1.944 0.530191 0
M  V30 16206 O 1551.2 -2.525 0.000649033 0
M  V30 16207 C 1552.51 -0.978775 2.84325 0
M  V30 16208 C 1554.06 -1.08073 2.9375 0
M  V30 16209 C 1554.53 -1.35584 4.37471 0
M  V30 16210 N 1556.03 -1.42423 4.40761 0
M  V30 16211 C 1556.76 -1.6536 5.49039 0
M  V30 16212 N 1556.26 -1.85819 6.67415 0
M  V30 16213 N 1558.05 -1.67475 5.36571 0
M  V30 16214 H 1550.2 0.397925 2.08639 0
M  V30 16215 H 1552.46 0.115803 0.9409 0
M  V30 16216 H 1552.17 -0.16362 3.51319 0
M  V30 16217 H 1552.04 -1.8956 3.26109 0
M  V30 16218 H 1554.43 -1.88646 2.26928 0
M  V30 16219 H 1554.51 -0.141996 2.55406 0
M  V30 16220 H 1554.16 -0.555238 5.04856 0
M  V30 16221 H 1554.09 -2.3073 4.73362 0
M  V30 16222 H 1556.58 -1.28352 3.55435 0
M  V30 16223 H 1556.89 -2.02806 7.45714 0
M  V30 16224 H 1555.23 -1.83059 6.70458 0
M  V30 16225 H 1558.43 -1.51038 4.43064 0
M  V30 16226 H 1558.6 -1.85011 6.21027 0
M  V30 16227 N 1552.01 -1.43353 -0.654814 0
M  V30 16228 C 1553.28 -1.35363 -1.41195 0
M  V30 16229 C 1553.66 -0.000661523 -2.111 0
M  V30 16230 O 1553.01 1.01583 -2.04678 0
M  V30 16231 C 1553.22 -2.53572 -2.39796 0
M  V30 16232 C 1554.57 -2.96587 -3.03844 0
M  V30 16233 O 1555.59 -2.53607 -2.50124 0
M  V30 16234 O 1554.45 -3.71039 -4.01239 0
M  V30 16235 H 1551.55 -0.534861 -0.630756 0
M  V30 16236 H 1554.09 -1.55399 -0.681857 0
M  V30 16237 H 1552.86 -3.43682 -1.87078 0
M  V30 16238 H 1552.49 -2.35628 -3.20258 0
M  V30 16239 N 1553.48 0.89303 -1.29857 0
M  V30 16240 C 1554.43 1.9979 -1.15554 0
M  V30 16241 C 1555.4 1.66033 -0.0471157 0
M  V30 16242 O 1556.59 1.89575 -0.215846 0
M  V30 16243 C 1553.73 3.34595 -0.844993 0
M  V30 16244 C 1552.84 3.81093 -2.03451 0
M  V30 16245 C 1551.97 5.04506 -1.66275 0
M  V30 16246 C 1551.01 5.4339 -2.8177 0
M  V30 16247 N 1550.15 6.57987 -2.44945 0
M  V30 16248 H 1554.99 2.11355 -2.10079 0
M  V30 16249 H 1552.53 1.03497 -1.04531 0
M  V30 16250 H 1554.48 4.12175 -0.645598 0
M  V30 16251 H 1553.11 3.22738 0.0633626 0
M  V30 16252 H 1552.17 2.99491 -2.34541 0
M  V30 16253 H 1553.48 4.05855 -2.8997 0
M  V30 16254 H 1552.63 5.89688 -1.42664 0
M  V30 16255 H 1551.37 4.81597 -0.769144 0
M  V30 16256 H 1550.38 4.56738 -3.06056 0
M  V30 16257 H 1551.6 5.68276 -3.71805 0
M  V30 16258 H 1549.55 6.36669 -1.58079 0
M  V30 16259 H 1549.46 6.82579 -3.24996 0
M  V30 16260 H 1550.73 7.46421 -2.24669 0
M  V30 16261 N 1554.96 1.12442 1.10429 0
M  V30 16262 C 1555.91 0.787578 2.18861 0
M  V30 16263 C 1556.9 -0.225602 1.67891 0
M  V30 16264 O 1558.11 -0.0838029 1.79805 0
M  V30 16265 H 1554.48 0.236858 0.713724 0
M  V30 16266 H 1556.46 1.71048 2.4451 0
M  V30 16267 C 1555.2 0.25854 3.46737 0
M  V30 16268 H 1554.53 1.02945 3.86319 0
M  V30 16269 H 1555.97 0.0611642 4.23956 0
M  V30 16270 C 1554.43 -1.01353 3.21293 0
M  V30 16271 O 1554.96 -2.09132 3.42967 0
M  V30 16272 N 1553.16 -0.940498 2.7496 0
M  V30 16273 H 1552.71 -0.0632962 2.57522 0
M  V30 16274 H 1552.67 -1.79226 2.58313 0
M  V30 16275 N 1556.44 -1.28223 0.91633 0
M  V30 16276 C 1557.37 -2.26291 0.363986 0
M  V30 16277 C 1558.38 -1.54964 -0.498988 0
M  V30 16278 O 1559.57 -1.75726 -0.31345 0
M  V30 16279 C 1556.67 -3.35219 -0.498126 0
M  V30 16280 C 1555.85 -4.36054 0.34293 0
M  V30 16281 C 1554.91 -5.24232 -0.454688 0
M  V30 16282 O 1553.93 -5.69043 0.133649 0
M  V30 16283 N 1555.13 -5.53268 -1.75714 0
M  V30 16284 H 1557.9 -2.74323 1.20694 0
M  V30 16285 H 1555.46 -1.41731 0.782551 0
M  V30 16286 H 1557.45 -3.91148 -1.03852 0
M  V30 16287 H 1556.02 -2.86876 -1.2418 0
M  V30 16288 H 1555.24 -3.7955 1.06468 0
M  V30 16289 H 1556.53 -5.00444 0.918322 0
M  V30 16290 H 1555.93 -5.18698 -2.25762 0
M  V30 16291 H 1554.48 -6.11943 -2.2443 0
M  V30 16292 N 1557.92 -0.68059 -1.42147 0
M  V30 16293 C 1559.16 -0.205567 -2.01755 0
M  V30 16294 C 1559.5 1.18677 -1.53718 0
M  V30 16295 O 1558.77 1.79796 -0.741867 0
M  V30 16296 C 1559.05 -0.246615 -3.59255 0
M  V30 16297 C 1558.91 -1.67483 -4.17456 0
M  V30 16298 C 1560.23 0.40196 -4.38261 0
M  V30 16299 H 1557.35 -0.0761717 -0.733053 0
M  V30 16300 H 1559.99 -0.866473 -1.69092 0
M  V30 16301 H 1558.14 0.316127 -3.87212 0
M  V30 16302 H 1559.81 -2.29026 -4.00431 0
M  V30 16303 H 1558.05 -2.2137 -3.73065 0
M  V30 16304 H 1558.72 -1.65519 -5.266 0
M  V30 16305 H 1561.2 -0.077135 -4.16028 0
M  V30 16306 H 1560.08 0.342627 -5.4783 0
M  V30 16307 H 1560.34 1.48044 -4.16576 0
M  V30 16308 N 1559.4 1.51781 -0.424309 0
M  V30 16309 C 1560.31 2.31162 0.40015 0
M  V30 16310 C 1561.32 1.39523 1.03969 0
M  V30 16311 O 1562.5 1.72597 1.0379 0
M  V30 16312 C 1559.56 3.12875 1.49366 0
M  V30 16313 C 1558.62 4.20275 0.875616 0
M  V30 16314 C 1557.86 4.98082 1.91702 0
M  V30 16315 O 1558.08 4.76365 3.13739 0
M  V30 16316 O 1557.01 5.82527 1.5148 0
M  V30 16317 H 1560.84 3.0269 -0.247529 0
M  V30 16318 H 1558.42 1.48223 -0.187146 0
M  V30 16319 H 1560.31 3.63714 2.12815 0
M  V30 16320 H 1558.98 2.44125 2.12567 0
M  V30 16321 H 1557.89 3.73546 0.203429 0
M  V30 16322 H 1559.22 4.91361 0.287306 0
M  V30 16323 N 1560.87 0.155222 1.56834 0
M  V30 16324 C 1562.12 -0.49285 1.95998 0
M  V30 16325 C 1562.44 -1.64857 1.0415 0
M  V30 16326 O 1561.71 -1.9562 0.104654 0
M  V30 16327 H 1560.29 -0.185063 0.723713 0
M  V30 16328 H 1562.95 0.232644 1.93507 0
M  V30 16329 H 1562.05 -0.863552 2.99915 0
M  V30 16330 N 1562.35 -1.57153 -0.118549 0
M  V30 16331 C 1563.26 -2.03673 -1.16424 0
M  V30 16332 C 1564.28 -0.957203 -1.45305 0
M  V30 16333 O 1565.45 -1.26874 -1.56413 0
M  V30 16334 C 1562.52 -2.43211 -2.47082 0
M  V30 16335 C 1561.58 -3.65248 -2.25593 0
M  V30 16336 C 1560.81 -4.02891 -3.50021 0
M  V30 16337 O 1561.04 -3.40871 -4.57344 0
M  V30 16338 O 1559.97 -4.95989 -3.40996 0
M  V30 16339 H 1563.8 -2.92996 -0.799206 0
M  V30 16340 H 1561.38 -1.45724 -0.329376 0
M  V30 16341 H 1563.26 -2.69374 -3.24061 0
M  V30 16342 H 1561.94 -1.57034 -2.83058 0
M  V30 16343 H 1560.84 -3.44234 -1.46471 0
M  V30 16344 H 1562.18 -4.52131 -1.94521 0
M  V30 16345 N 1563.83 0.388742 -1.5273 0
M  V30 16346 C 1565.08 1.13543 -1.68035 0
M  V30 16347 C 1565.41 1.89622 -0.419177 0
M  V30 16348 O 1564.68 1.85556 0.583031 0
M  V30 16349 C 1564.97 2.11346 -2.91556 0
M  V30 16350 C 1564.82 1.39029 -4.27775 0
M  V30 16351 C 1566.14 3.11769 -3.10625 0
M  V30 16352 H 1563.26 0.411406 -0.611485 0
M  V30 16353 H 1565.9 0.418781 -1.85327 0
M  V30 16354 H 1564.05 2.7246 -2.76944 0
M  V30 16355 H 1565.72 0.808775 -4.54155 0
M  V30 16356 H 1563.96 0.692133 -4.28243 0
M  V30 16357 H 1564.64 2.10495 -5.1029 0
M  V30 16358 H 1567.11 2.60745 -3.2427 0
M  V30 16359 H 1565.99 3.77447 -3.98529 0
M  V30 16360 H 1566.25 3.80649 -2.24853 0
M  V30 16361 N 1565.31 1.43698 0.647203 0
M  V30 16362 C 1566.24 1.45295 1.77262 0
M  V30 16363 C 1567.25 0.34831 1.5903 0
M  V30 16364 O 1568.44 0.613106 1.6764 0
M  V30 16365 C 1565.54 1.25584 3.14773 0
M  V30 16366 C 1564.71 2.48998 3.59609 0
M  V30 16367 C 1563.77 2.24423 4.75942 0
M  V30 16368 O 1562.8 2.97813 4.85073 0
M  V30 16369 N 1564 1.26465 5.66557 0
M  V30 16370 H 1566.77 2.42311 1.76368 0
M  V30 16371 H 1564.33 1.38931 0.831247 0
M  V30 16372 H 1566.32 1.07016 3.90294 0
M  V30 16373 H 1564.89 0.369927 3.10403 0
M  V30 16374 H 1564.11 2.82951 2.74467 0
M  V30 16375 H 1565.4 3.31119 3.86313 0
M  V30 16376 H 1564.8 0.658206 5.61858 0
M  V30 16377 H 1563.35 1.13879 6.41775 0
M  V30 16378 N 1566.79 -0.886131 1.30328 0
M  V30 16379 C 1568.04 -1.63255 1.18451 0
M  V30 16380 C 1568.35 -1.93864 -0.260016 0
M  V30 16381 O 1569.55 -2.66851 -0.500288 0
M  V30 16382 C 1568.01 -2.94232 2.07257 0
M  V30 16383 C 1567.62 -2.71168 3.56612 0
M  V30 16384 C 1569.36 -3.72193 2.04139 0
M  V30 16385 C 1567.27 -3.97954 4.37478 0
M  V30 16386 H 1566.2 -0.612491 0.439739 0
M  V30 16387 H 1568.85 -0.981129 1.55068 0
M  V30 16388 H 1567.23 -3.60661 1.63522 0
M  V30 16389 H 1568.41 -2.13247 4.08488 0
M  V30 16390 H 1566.72 -2.06584 3.61541 0
M  V30 16391 H 1569.32 -4.66219 2.61809 0
M  V30 16392 H 1569.66 -4.03495 1.02459 0
M  V30 16393 H 1570.19 -3.12624 2.45989 0
M  V30 16394 H 1566.93 -3.71811 5.39849 0
M  V30 16395 H 1566.45 -4.55384 3.90366 0
M  V30 16396 H 1568.13 -4.65984 4.48852 0
M  V30 16397 N 1568.26 -1.13026 -1.09832 0
M  V30 16398 C 1569.51 -0.890736 -1.82191 0
M  V30 16399 C 1569.84 0.581818 -1.8528 0
M  V30 16400 O 1569.12 1.43037 -1.31798 0
M  V30 16401 C 1569.4 -1.47403 -3.28549 0
M  V30 16402 C 1569.25 -3.0154 -3.33757 0
M  V30 16403 C 1570.57 -1.13876 -4.25112 0
M  V30 16404 H 1567.69 -0.325028 -0.661457 0
M  V30 16405 H 1570.33 -1.39787 -1.28684 0
M  V30 16406 H 1568.48 -1.04272 -3.74245 0
M  V30 16407 H 1570.16 -3.53395 -2.96495 0
M  V30 16408 H 1568.4 -3.36746 -2.73467 0
M  V30 16409 H 1569.07 -3.37449 -4.36843 0
M  V30 16410 H 1571.55 -1.51139 -3.87681 0
M  V30 16411 H 1570.42 -1.57343 -5.25865 0
M  V30 16412 H 1570.68 -0.051854 -4.4207 0
M  V30 16413 N 1569.74 1.27735 -0.923117 0
M  V30 16414 C 1570.97 1.9922 -0.57672 0
M  V30 16415 C 1571.39 1.68446 0.837113 0
M  V30 16416 O 1570.75 0.922129 1.56098 0
M  V30 16417 C 1570.8 3.51528 -0.803768 0
M  V30 16418 O 1569.9 4.12186 0.132829 0
M  V30 16419 H 1569.24 0.625593 -0.222553 0
M  V30 16420 H 1571.77 1.62657 -1.24112 0
M  V30 16421 H 1571.78 4.01641 -0.717534 0
M  V30 16422 H 1570.46 3.7326 -1.83439 0
M  V30 16423 H 1569.04 3.729 -0.00292957 0
M  V30 16424 N 1571.22 0.688118 1.41784 0
M  V30 16425 C 1572.45 0.22475 2.05676 0
M  V30 16426 C 1572.86 -1.1232 1.51755 0
M  V30 16427 O 1572.22 -1.70041 0.662735 0
M  V30 16428 C 1572.27 0.165661 3.6112 0
M  V30 16429 O 1571.99 1.46035 4.13044 0
M  V30 16430 C 1573.49 -0.319599 4.42146 0
M  V30 16431 H 1570.71 0.106135 0.662553 0
M  V30 16432 H 1573.26 0.938605 1.81688 0
M  V30 16433 H 1571.41 -0.498968 3.84173 0
M  V30 16434 H 1571.83 1.34252 5.07027 0
M  V30 16435 H 1573.3 -0.30983 5.5113 0
M  V30 16436 H 1573.78 -1.3572 4.17704 0
M  V30 16437 H 1574.38 0.313764 4.24141 0
M  V30 16438 N 1572.7 -1.51554 0.432352 0
M  V30 16439 C 1573.66 -2.26195 -0.369912 0
M  V30 16440 C 1574.66 -1.29446 -0.953961 0
M  V30 16441 O 1575.85 -1.53199 -0.829193 0
M  V30 16442 C 1572.98 -3.04993 -1.52289 0
M  V30 16443 H 1574.18 -2.98551 0.284173 0
M  V30 16444 H 1571.73 -1.55197 0.1854 0
M  V30 16445 H 1572.46 -2.37043 -2.21317 0
M  V30 16446 H 1572.25 -3.76051 -1.11032 0
M  V30 16447 H 1573.74 -3.61547 -2.08982 0
M  V30 16448 N 1574.18 -0.163538 -1.56749 0
M  V30 16449 C 1575.14 0.755801 -2.1638 0
M  V30 16450 C 1576.14 1.16359 -1.10982 0
M  V30 16451 O 1577.33 1.08182 -1.36537 0
M  V30 16452 C 1574.46 2.02775 -2.74035 0
M  V30 16453 H 1575.65 0.23681 -2.98964 0
M  V30 16454 H 1573.21 0.0859925 -1.56063 0
M  V30 16455 H 1573.94 2.59002 -1.95163 0
M  V30 16456 H 1573.73 1.74439 -3.5116 0
M  V30 16457 H 1575.22 2.684 -3.19923 0
M  V30 16458 N 1575.65 1.57214 0.110213 0
M  V30 16459 C 1576.59 1.97641 1.16064 0
M  V30 16460 C 1577.6 0.876886 1.37166 0
M  V30 16461 O 1578.79 1.15512 1.36086 0
M  V30 16462 C 1575.89 2.2671 2.51904 0
M  V30 16463 C 1575.06 3.58015 2.51285 0
M  V30 16464 C 1574.12 3.75195 3.68938 0
M  V30 16465 O 1573.15 4.47214 3.5212 0
M  V30 16466 N 1574.35 3.14627 4.87842 0
M  V30 16467 H 1577.11 2.88358 0.816679 0
M  V30 16468 H 1574.67 1.59108 0.299383 0
M  V30 16469 H 1576.67 2.35411 3.29187 0
M  V30 16470 H 1575.24 1.42076 2.78448 0
M  V30 16471 H 1574.46 3.60422 1.59655 0
M  V30 16472 H 1575.74 4.44303 2.47936 0
M  V30 16473 H 1575.14 2.56101 5.0441 0
M  V30 16474 H 1573.7 3.28836 5.6277 0
M  V30 16475 N 1577.13 -0.380637 1.52934 0
M  V30 16476 C 1578.36 -1.14583 1.72274 0
M  V30 16477 C 1578.78 -1.83484 0.444864 0
M  V30 16478 O 1578.13 -1.72997 -0.581245 0
M  V30 16479 C 1578.18 -2.18756 2.87799 0
M  V30 16480 O 1577.9 -1.52662 4.10641 0
M  V30 16481 C 1579.41 -3.07938 3.18887 0
M  V30 16482 H 1576.63 -0.343218 0.576578 0
M  V30 16483 H 1579.17 -0.444149 1.99619 0
M  V30 16484 H 1577.32 -2.84546 2.62892 0
M  V30 16485 H 1577.74 -2.21949 4.75225 0
M  V30 16486 H 1579.21 -3.77045 4.03164 0
M  V30 16487 H 1579.69 -3.71913 2.33618 0
M  V30 16488 H 1580.3 -2.47783 3.45664 0
M  V30 16489 N 1578.61 -1.44039 -0.639573 0
M  V30 16490 C 1579.86 -1.46377 -1.39928 0
M  V30 16491 C 1580.19 -0.0931685 -1.94277 0
M  V30 16492 O 1579.44 0.903841 -1.73578 0
M  V30 16493 C 1579.74 -2.46459 -2.5883 0
M  V30 16494 C 1579.41 -3.91998 -2.2282 0
M  V30 16495 C 1578.07 -4.31633 -2.12712 0
M  V30 16496 C 1580.42 -4.83656 -1.94232 0
M  V30 16497 C 1577.75 -5.60863 -1.72191 0
M  V30 16498 C 1580.1 -6.13265 -1.55206 0
M  V30 16499 C 1578.76 -6.51863 -1.43633 0
M  V30 16500 H 1578.03 -0.535633 -0.512034 0
M  V30 16501 H 1580.68 -1.77202 -0.72607 0
M  V30 16502 H 1578.99 -2.09087 -3.31345 0
M  V30 16503 H 1580.68 -2.45518 -3.17052 0
M  V30 16504 H 1577.27 -3.60636 -2.31602 0
M  V30 16505 H 1581.46 -4.53796 -2.00955 0
M  V30 16506 H 1576.71 -5.89595 -1.61828 0
M  V30 16507 H 1580.89 -6.83752 -1.32121 0
M  V30 16508 H 1578.51 -7.51903 -1.12006 0
M  V30 16509 N 1580.09 0.879207 -1.30796 0
M  V30 16510 C 1581.02 2.00158 -1.20246 0
M  V30 16511 C 1582 1.69852 -0.091769 0
M  V30 16512 O 1583.18 1.92246 -0.274792 0
M  V30 16513 C 1580.31 3.3545 -0.899472 0
M  V30 16514 C 1579.27 3.80033 -1.96873 0
M  V30 16515 C 1578.59 5.12681 -1.51861 0
M  V30 16516 C 1579.89 3.98136 -3.38061 0
M  V30 16517 H 1581.59 2.09242 -2.14145 0
M  V30 16518 H 1579.13 1.00535 -1.03096 0
M  V30 16519 H 1581.09 4.13497 -0.812299 0
M  V30 16520 H 1579.81 3.26513 0.075189 0
M  V30 16521 H 1578.47 3.04219 -2.04564 0
M  V30 16522 H 1578.12 5.00178 -0.532063 0
M  V30 16523 H 1577.82 5.43482 -2.23386 0
M  V30 16524 H 1579.34 5.93247 -1.44534 0
M  V30 16525 H 1580.76 4.66604 -3.33096 0
M  V30 16526 H 1579.15 4.40321 -4.07722 0
M  V30 16527 H 1580.22 3.01807 -3.79526 0
M  V30 16528 N 1581.57 1.13606 1.09231 0
M  V30 16529 C 1582.53 0.818197 2.14099 0
M  V30 16530 C 1583.53 -0.173275 1.59864 0
M  V30 16531 O 1584.72 0.05405 1.74116 0
M  V30 16532 C 1581.85 0.218138 3.40201 0
M  V30 16533 H 1583.05 1.74748 2.43727 0
M  V30 16534 H 1580.6 0.940962 1.24802 0
M  V30 16535 H 1581.33 -0.720269 3.162 0
M  V30 16536 H 1581.12 0.932156 3.80859 0
M  V30 16537 H 1582.61 0.0126639 4.17598 0
M  V30 16538 N 1583.05 -1.27244 0.929878 0
M  V30 16539 C 1584.27 -1.98373 0.587845 0
M  V30 16540 C 1584.69 -1.69349 -0.834638 0
M  V30 16541 O 1584.05 -0.955281 -1.55501 0
M  V30 16542 C 1584.1 -3.52381 0.806843 0
M  V30 16543 O 1583.82 -3.8039 2.17337 0
M  V30 16544 C 1585.32 -4.40761 0.473818 0
M  V30 16545 H 1582.54 -0.633015 0.22256 0
M  V30 16546 H 1585.08 -1.62043 1.2475 0
M  V30 16547 H 1583.24 -3.86914 0.193963 0
M  V30 16548 H 1583.65 -4.74968 2.22498 0
M  V30 16549 H 1585.13 -5.47824 0.677736 0
M  V30 16550 H 1585.6 -4.35209 -0.590734 0
M  V30 16551 H 1586.21 -4.11751 1.06493 0
M  V30 16552 N 1584.52 -0.695628 -1.41417 0
M  V30 16553 C 1585.76 -0.230776 -2.03093 0
M  V30 16554 C 1586.13 1.14793 -1.53904 0
M  V30 16555 O 1587.33 1.70864 -2.07507 0
M  V30 16556 C 1585.6 -0.286132 -3.56253 0
M  V30 16557 S 1587.16 0.104665 -4.38675 0
M  V30 16558 H 1583.98 -0.0929772 -0.704894 0
M  V30 16559 H 1586.58 -0.913417 -1.72849 0
M  V30 16560 H 1585.28 -1.29155 -3.89547 0
M  V30 16561 H 1584.81 0.415655 -3.91198 0
M  V30 16562 H 1586.83 1.33239 -4.77977 0
M  V30 16563 N 1586 1.51322 -0.440383 0
M  V30 16564 C 1587.25 2.01302 0.126581 0
M  V30 16565 C 1587.56 1.32898 1.43518 0
M  V30 16566 O 1588.77 1.73864 2.08527 0
M  V30 16567 C 1587.23 3.58839 0.276126 0
M  V30 16568 C 1586.83 4.36182 -1.02222 0
M  V30 16569 C 1588.58 4.16957 0.796697 0
M  V30 16570 C 1586.48 5.85431 -0.838148 0
M  V30 16571 H 1585.41 0.752268 0.0510809 0
M  V30 16572 H 1588.07 1.74403 -0.570609 0
M  V30 16573 H 1586.45 3.82198 1.03639 0
M  V30 16574 H 1587.62 4.24568 -1.79105 0
M  V30 16575 H 1585.94 3.89531 -1.47155 0
M  V30 16576 H 1588.53 5.26176 0.95095 0
M  V30 16577 H 1588.88 3.76329 1.77996 0
M  V30 16578 H 1589.41 3.97687 0.0946613 0
M  V30 16579 H 1586.15 6.30476 -1.79387 0
M  V30 16580 H 1585.67 5.99701 -0.109167 0
M  V30 16581 H 1587.35 6.45122 -0.492547 0
M  V30 16582 N 1587.48 0.171848 1.5666 0
M  V30 16583 C 1588.43 -0.775125 2.19305 0
M  V30 16584 C 1589.42 -1.23711 1.15724 0
M  V30 16585 O 1590.63 -1.2027 1.33922 0
M  V30 16586 H 1587 -0.268245 0.70253 0
M  V30 16587 H 1588.97 -0.222823 2.97567 0
M  V30 16588 C 1587.72 -1.99397 2.84844 0
M  V30 16589 H 1587.05 -1.64752 3.64276 0
M  V30 16590 H 1588.49 -2.63545 3.32145 0
M  V30 16591 C 1586.94 -2.81794 1.84645 0
M  V30 16592 O 1587.47 -3.78964 1.33225 0
M  V30 16593 N 1585.68 -2.4682 1.5339 0
M  V30 16594 H 1585.23 -1.67862 1.95397 0
M  V30 16595 H 1585.19 -3.02238 0.866004 0
M  V30 16596 N 1588.96 -1.5727 -0.101874 0
M  V30 16597 C 1590.21 -1.85375 -0.805007 0
M  V30 16598 C 1590.53 -0.759564 -1.79599 0
M  V30 16599 O 1589.8 0.21484 -1.94718 0
M  V30 16600 H 1588.38 -0.683987 -0.300284 0
M  V30 16601 H 1591.04 -1.94714 -0.0851166 0
M  V30 16602 H 1590.13 -2.81881 -1.33976 0
M  V30 16603 N 1590.44 0.372521 -1.53134 0
M  V30 16604 C 1591.68 1.11754 -1.6923 0
M  V30 16605 C 1592.01 1.89167 -0.439265 0
M  V30 16606 O 1591.29 1.86164 0.563317 0
M  V30 16607 C 1591.57 2.08242 -2.93781 0
M  V30 16608 C 1591.43 1.34484 -4.29225 0
M  V30 16609 C 1592.74 3.08457 -3.13914 0
M  V30 16610 H 1589.86 0.404898 -0.615814 0
M  V30 16611 H 1592.51 0.399101 -1.85761 0
M  V30 16612 H 1590.66 2.69507 -2.79818 0
M  V30 16613 H 1592.33 0.76056 -4.54987 0
M  V30 16614 H 1590.57 0.646673 -4.28953 0
M  V30 16615 H 1591.24 2.05071 -5.12494 0
M  V30 16616 H 1593.72 2.57292 -3.27017 0
M  V30 16617 H 1592.59 3.73198 -4.0251 0
M  V30 16618 H 1592.85 3.78243 -2.28878 0
M  V30 16619 N 1591.91 1.44376 0.631925 0
M  V30 16620 C 1593.15 1.48638 1.40307 0
M  V30 16621 C 1593.52 0.115559 1.91652 0
M  V30 16622 O 1594.72 0.0328551 2.6878 0
M  V30 16623 C 1592.99 2.51663 2.53773 0
M  V30 16624 S 1594.55 2.74966 3.41964 0
M  V30 16625 H 1591.37 0.525735 0.478669 0
M  V30 16626 H 1593.97 1.81294 0.731632 0
M  V30 16627 H 1592.67 3.49968 2.14361 0
M  V30 16628 H 1592.2 2.20577 3.25744 0
M  V30 16629 H 1594.22 2.06501 4.51189 0
M  V30 16630 N 1593.39 -0.872258 1.31261 0
M  V30 16631 C 1594.64 -1.62747 1.22004 0
M  V30 16632 C 1594.99 -1.91135 -0.220238 0
M  V30 16633 O 1594.29 -1.53024 -1.153 0
M  V30 16634 C 1594.48 -2.96524 1.9952 0
M  V30 16635 C 1594.31 -2.81198 3.50939 0
M  V30 16636 C 1593.08 -2.80506 4.20291 0
M  V30 16637 C 1595.28 -2.56222 4.45931 0
M  V30 16638 N 1593.26 -2.56205 5.57882 0
M  V30 16639 C 1594.63 -2.41163 5.71174 0
M  V30 16640 C 1596.68 -2.41548 4.35383 0
M  V30 16641 C 1595.39 -2.12923 6.87064 0
M  V30 16642 C 1597.41 -2.14695 5.51053 0
M  V30 16643 C 1596.78 -2.00423 6.75285 0
M  V30 16644 H 1592.87 -0.599977 0.501549 0
M  V30 16645 H 1595.46 -1.02681 1.65423 0
M  V30 16646 H 1593.63 -3.54599 1.58473 0
M  V30 16647 H 1595.36 -3.61315 1.82301 0
M  V30 16648 H 1592.12 -2.92804 3.7224 0
M  V30 16649 H 1592.54 -2.47032 6.30321 0
M  V30 16650 H 1597.18 -2.51311 3.40004 0
M  V30 16651 H 1594.9 -2.01897 7.82472 0
M  V30 16652 H 1598.49 -2.04145 5.44808 0
M  V30 16653 H 1597.37 -1.79938 7.63277 0
M  V30 16654 N 1594.87 -1.14184 -1.08627 0
M  V30 16655 C 1596.1 -0.932104 -1.84714 0
M  V30 16656 C 1596.51 0.519335 -1.81517 0
M  V30 16657 O 1595.87 1.35978 -1.21722 0
M  V30 16658 C 1595.92 -1.42217 -3.3235 0
M  V30 16659 O 1595.64 -2.81674 -3.35547 0
M  V30 16660 C 1597.14 -1.25205 -4.25251 0
M  V30 16661 H 1594.36 -0.331854 -0.583193 0
M  V30 16662 H 1596.91 -1.51641 -1.37205 0
M  V30 16663 H 1595.06 -0.880679 -3.77257 0
M  V30 16664 H 1595.48 -3.03615 -4.2769 0
M  V30 16665 H 1596.95 -1.64358 -5.26963 0
M  V30 16666 H 1597.43 -0.194659 -4.38768 0
M  V30 16667 H 1598.03 -1.78198 -3.86168 0
M  V30 16668 N 1596.35 1.26749 -0.936613 0
M  V30 16669 C 1597.59 1.94251 -0.582616 0
M  V30 16670 C 1597.93 1.73352 0.875361 0
M  V30 16671 O 1597.2 1.06784 1.62565 0
M  V30 16672 C 1597.49 3.48145 -0.920151 0
M  V30 16673 C 1597.34 3.78349 -2.43253 0
M  V30 16674 C 1598.66 4.37971 -0.432326 0
M  V30 16675 H 1595.78 0.705507 -0.213141 0
M  V30 16676 H 1598.42 1.49703 -1.17001 0
M  V30 16677 H 1596.57 3.8622 -0.420279 0
M  V30 16678 H 1598.24 3.50015 -3.00478 0
M  V30 16679 H 1596.48 3.24586 -2.87795 0
M  V30 16680 H 1597.15 4.85902 -2.61922 0
M  V30 16681 H 1599.63 4.07098 -0.860857 0
M  V30 16682 H 1598.51 5.44452 -0.697366 0
M  V30 16683 H 1598.77 4.37029 0.667694 0
M  V30 16684 N 1597.83 0.703118 1.41046 0
M  V30 16685 C 1599.06 0.246194 2.05128 0
M  V30 16686 C 1599.46 -1.11245 1.5304 0
M  V30 16687 O 1598.81 -1.70783 0.676678 0
M  V30 16688 C 1598.87 0.134596 3.59248 0
M  V30 16689 C 1598.53 1.4265 4.34166 0
M  V30 16690 C 1599.53 2.3659 4.62948 0
M  V30 16691 C 1597.22 1.68196 4.73303 0
M  V30 16692 C 1599.21 3.54332 5.29837 0
M  V30 16693 C 1596.9 2.86223 5.39926 0
M  V30 16694 C 1597.89 3.79114 5.68121 0
M  V30 16695 O 1597.58 4.95072 6.33371 0
M  V30 16696 H 1597.31 0.110667 0.66688 0
M  V30 16697 H 1599.87 0.958407 1.81669 0
M  V30 16698 H 1598.1 -0.633453 3.81476 0
M  V30 16699 H 1599.79 -0.286131 4.0489 0
M  V30 16700 H 1600.55 2.18113 4.33188 0
M  V30 16701 H 1596.43 0.96753 4.50733 0
M  V30 16702 H 1599.98 4.26855 5.51762 0
M  V30 16703 H 1595.87 3.04614 5.69105 0
M  V30 16704 H 1596.64 4.94986 6.51868 0
M  V30 16705 N 1599.3 -1.51086 0.448402 0
M  V30 16706 C 1600.25 -2.24885 -0.375609 0
M  V30 16707 C 1601.24 -1.27553 -0.980769 0
M  V30 16708 O 1602.43 -1.52583 -0.897076 0
M  V30 16709 C 1599.56 -3.10235 -1.47 0
M  V30 16710 C 1598.65 -4.15003 -0.873686 0
M  V30 16711 N 1599.04 -5.05799 -0.00756268 0
M  V30 16712 C 1597.33 -4.31182 -1.14009 0
M  V30 16713 C 1598.04 -5.80772 0.328514 0
M  V30 16714 N 1597.01 -5.42822 -0.290661 0
M  V30 16715 H 1600.81 -2.92446 0.291962 0
M  V30 16716 H 1598.33 -1.60287 0.261145 0
M  V30 16717 H 1600.32 -3.61691 -2.07328 0
M  V30 16718 H 1598.98 -2.44219 -2.13979 0
M  V30 16719 H 1600 -5.1665 0.359676 0
M  V30 16720 H 1596.67 -3.7639 -1.80656 0
M  V30 16721 H 1598.06 -6.63896 1.03399 0
M  V30 16722 N 1600.78 -0.180154 -1.56567 0
M  V30 16723 C 1602.03 0.461606 -1.96758 0
M  V30 16724 C 1602.35 1.63179 -1.0676 0
M  V30 16725 O 1601.62 1.95429 -0.135762 0
M  V30 16726 H 1600.2 0.173526 -0.726566 0
M  V30 16727 H 1602.86 -0.2634 -1.93112 0
M  V30 16728 H 1601.96 0.815729 -3.01251 0
M  V30 16729 N 1602.26 1.57322 0.0935319 0
M  V30 16730 C 1603.22 2.0121 1.0976 0
M  V30 16731 C 1604.22 0.905839 1.32858 0
M  V30 16732 O 1605.41 1.17128 1.28945 0
M  V30 16733 C 1602.55 2.37414 2.44638 0
M  V30 16734 H 1603.74 2.91134 0.719809 0
M  V30 16735 H 1601.29 1.52588 0.338625 0
M  V30 16736 H 1602.03 1.50449 2.8729 0
M  V30 16737 H 1601.81 3.1812 2.2922 0
M  V30 16738 H 1603.3 2.7202 3.16851 0
M  V30 16739 N 1603.74 -0.364395 1.53329 0
M  V30 16740 C 1604.99 -1.10473 1.69234 0
M  V30 16741 C 1605.31 -1.89799 0.447347 0
M  V30 16742 O 1604.58 -1.8835 -0.538612 0
M  V30 16743 H 1603.16 -0.410826 0.623884 0
M  V30 16744 H 1605.82 -0.410721 1.90523 0
M  V30 16745 H 1604.92 -1.79387 2.55396 0
M  V30 16746 N 1605.22 -1.44709 -0.62426 0
M  V30 16747 C 1606.44 -1.51348 -1.41072 0
M  V30 16748 C 1606.86 -0.140576 -1.88276 0
M  V30 16749 O 1606.22 0.854821 -1.61242 0
M  V30 16750 C 1606.27 -2.48396 -2.62643 0
M  V30 16751 O 1605.99 -3.8035 -2.17406 0
M  V30 16752 C 1607.49 -2.64568 -3.55694 0
M  V30 16753 H 1604.71 -0.513092 -0.432409 0
M  V30 16754 H 1607.25 -1.89739 -0.762841 0
M  V30 16755 H 1605.41 -2.13122 -3.23508 0
M  V30 16756 H 1605.82 -4.32809 -2.96272 0
M  V30 16757 H 1607.3 -3.36486 -4.37585 0
M  V30 16758 H 1607.77 -1.70031 -4.04952 0
M  V30 16759 H 1608.38 -3.00771 -3.00694 0
M  V30 16760 N 1606.69 0.865285 -1.31722 0
M  V30 16761 C 1608.11 1.15179 -1.10481 0
M  V30 16762 C 1608.31 2.01132 0.121667 0
M  V30 16763 O 1607.37 2.39167 0.809645 0
M  V30 16764 C 1608.68 1.8394 -2.3788 0
M  V30 16765 C 1610.23 1.96621 -2.43535 0
M  V30 16766 C 1610.7 2.68796 -3.70827 0
M  V30 16767 N 1612.19 2.76329 -3.71748 0
M  V30 16768 C 1612.93 3.32798 -4.6694 0
M  V30 16769 N 1612.42 3.90162 -5.7249 0
M  V30 16770 N 1614.22 3.30801 -4.54453 0
M  V30 16771 H 1606.37 0.292632 -2.10374 0
M  V30 16772 H 1608.63 0.192252 -0.928301 0
M  V30 16773 H 1608.34 1.28233 -3.27489 0
M  V30 16774 H 1608.21 2.84182 -2.48034 0
M  V30 16775 H 1610.6 2.5149 -1.54392 0
M  V30 16776 H 1610.68 0.954071 -2.37342 0
M  V30 16777 H 1610.32 2.14593 -4.60339 0
M  V30 16778 H 1610.25 3.70427 -3.74288 0
M  V30 16779 H 1612.74 2.35621 -2.95451 0
M  V30 16780 H 1613.06 4.31376 -6.41198 0
M  V30 16781 H 1611.4 3.88525 -5.76258 0
M  V30 16782 H 1614.59 2.85227 -3.71165 0
M  V30 16783 H 1614.77 3.74511 -5.28815 0
M  V30 16784 N 1608.17 1.14759 1.0802 0
M  V30 16785 C 1609.4 0.941887 1.84218 0
M  V30 16786 C 1609.82 -0.509702 1.8179 0
M  V30 16787 O 1609.17 -1.35331 1.22441 0
M  V30 16788 C 1609.22 1.43978 3.31591 0
M  V30 16789 O 1608.94 2.83449 3.34048 0
M  V30 16790 C 1610.45 1.27459 4.24581 0
M  V30 16791 H 1607.67 0.334942 0.581425 0
M  V30 16792 H 1610.21 1.52367 1.36399 0
M  V30 16793 H 1608.36 0.900674 3.76785 0
M  V30 16794 H 1608.78 3.05878 4.26073 0
M  V30 16795 H 1610.25 1.67151 5.26084 0
M  V30 16796 H 1610.73 0.217925 4.38659 0
M  V30 16797 H 1611.34 1.80243 3.85217 0
M  V30 16798 N 1609.65 -1.26251 0.943322 0
M  V30 16799 C 1610.9 -1.92946 0.587764 0
M  V30 16800 C 1611.21 -1.74805 -0.877647 0
M  V30 16801 O 1612.42 -2.35976 -1.34267 0
M  V30 16802 C 1610.87 -3.45715 1.00047 0
M  V30 16803 C 1610.48 -3.72586 2.48764 0
M  V30 16804 C 1612.23 -4.18403 0.716905 0
M  V30 16805 C 1610.13 -5.18805 2.83893 0
M  V30 16806 H 1609.06 -0.722366 0.21611 0
M  V30 16807 H 1611.71 -1.43295 1.14625 0
M  V30 16808 H 1610.1 -3.94263 0.370491 0
M  V30 16809 H 1611.27 -3.34735 3.16684 0
M  V30 16810 H 1609.59 -3.13136 2.74472 0
M  V30 16811 H 1612.18 -5.2609 0.955669 0
M  V30 16812 H 1612.53 -4.14856 -0.346396 0
M  V30 16813 H 1613.06 -3.75726 1.3067 0
M  V30 16814 H 1609.8 -5.27454 3.89195 0
M  V30 16815 H 1609.32 -5.57745 2.20636 0
M  V30 16816 H 1611 -5.86828 2.72474 0
M  V30 16817 N 1611.13 -0.710588 -1.40671 0
M  V30 16818 C 1612.09 -0.0635988 -2.29112 0
M  V30 16819 C 1613.09 0.692537 -1.45123 0
M  V30 16820 O 1614.28 0.525184 -1.66095 0
M  V30 16821 C 1611.41 0.919955 -3.28252 0
M  V30 16822 H 1612.61 -0.842477 -2.87823 0
M  V30 16823 H 1610.16 -0.474948 -1.48909 0
M  V30 16824 H 1610.9 1.72607 -2.7455 0
M  V30 16825 H 1610.68 0.38071 -3.90247 0
M  V30 16826 H 1612.17 1.36997 -3.94489 0
M  V30 16827 N 1612.61 1.50847 -0.456408 0
M  V30 16828 C 1613.83 2.07139 0.104054 0
M  V30 16829 C 1614.26 1.31966 1.34039 0
M  V30 16830 O 1613.62 0.363038 1.77628 0
M  V30 16831 C 1613.66 3.5853 0.385794 0
M  V30 16832 O 1612.77 3.85351 1.46895 0
M  V30 16833 H 1612.11 0.663968 -0.00651246 0
M  V30 16834 H 1614.64 1.94226 -0.64323 0
M  V30 16835 H 1614.65 4.03097 0.630644 0
M  V30 16836 H 1613.32 4.12665 -0.51773 0
M  V30 16837 H 1611.9 3.52635 1.21256 0
M  V30 16838 N 1614.09 0.188454 1.56469 0
M  V30 16839 C 1615.5 -0.325309 1.83844 0
M  V30 16840 C 1615.85 -1.61858 1.1089 0
M  V30 16841 O 1614.97 -2.13256 0.36752 0
M  V30 16842 C 1615.57 -0.597002 3.33499 0
M  V30 16843 C 1614.13 -1.05515 3.61308 0
M  V30 16844 C 1613.27 -0.100182 2.77119 0
M  V30 16845 H 1616.22 0.412378 1.53249 0
M  V30 16846 H 1616.25 -1.44709 3.51908 0
M  V30 16847 H 1615.76 0.344429 3.86569 0
M  V30 16848 H 1613.86 -2.01109 3.13665 0
M  V30 16849 H 1613.97 -0.952461 4.69537 0
M  V30 16850 H 1612.34 -0.600815 2.47512 0
M  V30 16851 H 1613.12 0.835574 3.32976 0
M  V30 16852 N 1615.56 -1.5737 -0.0851874 0
M  V30 16853 C 1616.51 -2.02758 -1.10262 0
M  V30 16854 C 1617.48 -0.905702 -1.39235 0
M  V30 16855 O 1618.67 -1.17241 -1.50529 0
M  V30 16856 C 1615.81 -2.46528 -2.41492 0
M  V30 16857 C 1614.92 -3.72278 -2.19165 0
M  V30 16858 C 1614.05 -4.04885 -3.43863 0
M  V30 16859 C 1613.09 -5.23715 -3.16842 0
M  V30 16860 N 1612.23 -5.52026 -4.33833 0
M  V30 16861 H 1617.07 -2.89453 -0.708583 0
M  V30 16862 H 1614.61 -1.43156 -0.338332 0
M  V30 16863 H 1616.56 -2.69952 -3.18091 0
M  V30 16864 H 1615.19 -1.62829 -2.78723 0
M  V30 16865 H 1614.25 -3.56272 -1.33321 0
M  V30 16866 H 1615.56 -4.5902 -1.95197 0
M  V30 16867 H 1614.71 -4.29138 -4.28865 0
M  V30 16868 H 1613.45 -3.16683 -3.70895 0
M  V30 16869 H 1612.46 -4.99272 -2.30234 0
M  V30 16870 H 1613.68 -6.13523 -2.91146 0
M  V30 16871 H 1611.63 -4.66784 -4.60922 0
M  V30 16872 H 1611.54 -6.3316 -4.13091 0
M  V30 16873 H 1612.81 -5.80822 -5.19871 0
M  V30 16874 N 1617.04 0.356258 -1.53521 0
M  V30 16875 C 1618.29 1.09573 -1.69818 0
M  V30 16876 C 1618.61 1.89559 -0.457406 0
M  V30 16877 O 1617.88 1.88633 0.528616 0
M  V30 16878 H 1616.46 0.407512 -0.626054 0
M  V30 16879 H 1619.12 0.400612 -1.90738 0
M  V30 16880 H 1618.22 1.7803 -2.56343 0
M  V30 16881 N 1618.52 1.45038 0.616577 0
M  V30 16882 C 1619.93 1.4316 1.19842 0
M  V30 16883 C 1620.28 0.154504 1.95591 0
M  V30 16884 O 1619.41 -0.744409 2.03193 0
M  V30 16885 C 1620 2.59354 2.17993 0
M  V30 16886 C 1618.56 2.60625 2.71573 0
M  V30 16887 C 1617.71 2.35243 1.4682 0
M  V30 16888 H 1620.66 1.53408 0.406402 0
M  V30 16889 H 1620.68 2.32939 3.00865 0
M  V30 16890 H 1620.19 3.52288 1.62833 0
M  V30 16891 H 1618.29 1.71672 3.30695 0
M  V30 16892 H 1618.41 3.59568 3.16619 0
M  V30 16893 H 1616.77 1.84622 1.75462 0
M  V30 16894 H 1617.55 3.3031 0.935414 0
M  V30 16895 N 1620 -0.858287 1.32179 0
M  V30 16896 C 1621.24 -1.6146 1.22713 0
M  V30 16897 C 1621.58 -1.93045 -0.211479 0
M  V30 16898 O 1620.85 -1.57034 -1.14764 0
M  V30 16899 C 1621.13 -2.93728 2.08317 0
M  V30 16900 C 1620.99 -2.68947 3.60538 0
M  V30 16901 C 1622.31 -3.94959 1.94153 0
M  V30 16902 H 1619.43 -0.585872 0.447128 0
M  V30 16903 H 1622.07 -0.99134 1.62088 0
M  V30 16904 H 1620.22 -3.4692 1.74867 0
M  V30 16905 H 1621.89 -2.22336 4.04183 0
M  V30 16906 H 1620.13 -2.02974 3.83385 0
M  V30 16907 H 1620.8 -3.63112 4.15756 0
M  V30 16908 H 1623.28 -3.51013 2.23449 0
M  V30 16909 H 1622.16 -4.85371 2.56332 0
M  V30 16910 H 1622.42 -4.32672 0.908132 0
M  V30 16911 N 1621.48 -1.1533 -1.07409 0
M  V30 16912 C 1622.72 -0.922348 -1.79376 0
M  V30 16913 C 1623.04 0.551929 -1.87652 0
M  V30 16914 O 1624.24 0.900444 -2.56133 0
M  V30 16915 C 1622.7 -1.60081 -3.22339 0
M  V30 16916 C 1622.31 -3.11206 -3.22265 0
M  V30 16917 C 1624.05 -1.45138 -3.98917 0
M  V30 16918 C 1621.96 -3.71842 -4.59878 0
M  V30 16919 H 1620.89 -0.341438 -0.672262 0
M  V30 16920 H 1623.54 -1.38336 -1.20562 0
M  V30 16921 H 1621.92 -1.06748 -3.81341 0
M  V30 16922 H 1623.1 -3.7129 -2.72911 0
M  V30 16923 H 1621.41 -3.25903 -2.59183 0
M  V30 16924 H 1624.01 -1.87832 -5.00623 0
M  V30 16925 H 1624.35 -0.398796 -4.14385 0
M  V30 16926 H 1624.88 -1.95564 -3.46409 0
M  V30 16927 H 1621.62 -4.76998 -4.49614 0
M  V30 16928 H 1621.14 -3.16541 -5.09472 0
M  V30 16929 H 1622.82 -3.72733 -5.28847 0
M  V30 16930 N 1622.95 1.25748 -0.950004 0
M  V30 16931 C 1623.89 2.25247 -0.423855 0
M  V30 16932 C 1624.9 1.56233 0.457726 0
M  V30 16933 O 1626.09 1.76496 0.266749 0
M  V30 16934 C 1623.19 3.36422 0.409074 0
M  V30 16935 C 1622.36 4.34991 -0.458421 0
M  V30 16936 C 1621.42 5.25253 0.315537 0
M  V30 16937 O 1620.45 5.68489 -0.284474 0
M  V30 16938 N 1621.65 5.57732 1.60983 0
M  V30 16939 H 1624.41 2.71026 -1.27925 0
M  V30 16940 H 1621.97 1.39607 -0.819853 0
M  V30 16941 H 1623.97 3.93764 0.934447 0
M  V30 16942 H 1622.54 2.90068 1.1653 0
M  V30 16943 H 1621.76 3.76594 -1.16494 0
M  V30 16944 H 1623.04 4.97833 -1.05068 0
M  V30 16945 H 1622.44 5.24502 2.1193 0
M  V30 16946 H 1621 6.17678 2.08126 0
M  V30 16947 N 1624.43 0.718038 1.40292 0
M  V30 16948 C 1625.36 0.0160994 2.28194 0
M  V30 16949 C 1626.34 -0.765159 1.43472 0
M  V30 16950 O 1627.53 -0.751283 1.72881 0
M  V30 16951 C 1624.65 -0.984558 3.24074 0
M  V30 16952 C 1623.7 -0.293817 4.25487 0
M  V30 16953 S 1624.53 0.980059 5.26455 0
M  V30 16954 C 1625.69 -0.0184326 6.25897 0
M  V30 16955 H 1625.92 0.761585 2.8738 0
M  V30 16956 H 1623.45 0.509158 1.45763 0
M  V30 16957 H 1625.41 -1.55667 3.7984 0
M  V30 16958 H 1624.07 -1.70276 2.63941 0
M  V30 16959 H 1623.27 -1.05037 4.92933 0
M  V30 16960 H 1622.87 0.205802 3.73433 0
M  V30 16961 H 1625.16 -0.864464 6.71962 0
M  V30 16962 H 1626.1 0.622712 7.05357 0
M  V30 16963 H 1626.51 -0.383254 5.63197 0
M  V30 16964 N 1625.91 -1.50602 0.464402 0
M  V30 16965 C 1627.14 -2.06401 -0.0906449 0
M  V30 16966 C 1627.55 -1.32913 -1.3465 0
M  V30 16967 O 1626.89 -0.389959 -1.79513 0
M  V30 16968 C 1626.95 -3.56655 -0.451375 0
M  V30 16969 C 1626.62 -4.51584 0.701504 0
M  V30 16970 C 1627.61 -4.95259 1.5816 0
M  V30 16971 C 1625.3 -4.94354 0.88993 0
M  V30 16972 C 1627.29 -5.80404 2.63458 0
M  V30 16973 C 1624.98 -5.79283 1.94615 0
M  V30 16974 C 1625.98 -6.22208 2.81684 0
M  V30 16975 O 1625.67 -7.05446 3.85489 0
M  V30 16976 H 1625.4 -0.676 0.000751268 0
M  V30 16977 H 1627.95 -1.94836 0.650235 0
M  V30 16978 H 1626.18 -3.66098 -1.24535 0
M  V30 16979 H 1627.87 -3.94848 -0.940722 0
M  V30 16980 H 1628.64 -4.6289 1.44768 0
M  V30 16981 H 1624.52 -4.60467 0.221708 0
M  V30 16982 H 1628.06 -6.13829 3.3145 0
M  V30 16983 H 1623.96 -6.11064 2.08016 0
M  V30 16984 H 1624.73 -7.23682 3.82396 0
M  V30 16985 N 1627.39 -0.19675 -1.56367 0
M  V30 16986 C 1628.62 0.447139 -2.02011 0
M  V30 16987 C 1629.03 1.55077 -1.07687 0
M  V30 16988 O 1628.39 1.82316 -0.0820316 0
M  V30 16989 C 1628.44 1.00192 -3.47338 0
M  V30 16990 O 1628.16 -0.0576859 -4.38062 0
M  V30 16991 C 1629.66 1.72152 -4.08508 0
M  V30 16992 H 1626.88 0.112088 -0.661572 0
M  V30 16993 H 1629.43 -0.30594 -2.02199 0
M  V30 16994 H 1627.58 1.70537 -3.47844 0
M  V30 16995 H 1627.99 0.355508 -5.23294 0
M  V30 16996 H 1629.47 2.06199 -5.12041 0
M  V30 16997 H 1629.95 2.62581 -3.52062 0
M  V30 16998 H 1630.55 1.06388 -4.11779 0
M  V30 16999 N 1628.87 1.57413 0.0768405 0
M  V30 17000 C 1629.81 2.04373 1.1106 0
M  V30 17001 C 1630.81 0.948127 1.40381 0
M  V30 17002 O 1632.01 1.13325 1.39848 0
M  V30 17003 H 1628.39 0.65156 0.375464 0
M  V30 17004 H 1630.36 2.90352 0.688348 0
M  V30 17005 C 1629.11 2.49914 2.41741 0
M  V30 17006 H 1628.43 3.33808 2.20027 0
M  V30 17007 H 1629.87 2.8653 3.12532 0
M  V30 17008 C 1628.33 1.37996 3.07341 0
M  V30 17009 O 1628.86 0.719242 3.95209 0
M  V30 17010 N 1627.07 1.12635 2.67884 0
M  V30 17011 H 1626.61 1.66545 1.96521 0
M  V30 17012 H 1626.57 0.37956 3.121 0
M  V30 17013 N 1630.34 -0.348112 1.53707 0
M  V30 17014 C 1631.59 -1.09048 1.70987 0
M  V30 17015 C 1631.92 -1.88444 0.469305 0
M  V30 17016 O 1631.2 -1.87037 -0.533629 0
M  V30 17017 C 1631.48 -2.03542 2.97057 0
M  V30 17018 C 1631.33 -1.27638 4.3131 0
M  V30 17019 C 1632.65 -3.03424 3.18782 0
M  V30 17020 H 1629.77 -0.395049 0.622178 0
M  V30 17021 H 1632.41 -0.369498 1.86373 0
M  V30 17022 H 1630.56 -2.65021 2.8407 0
M  V30 17023 H 1632.24 -0.688079 4.56139 0
M  V30 17024 H 1630.48 -0.578349 4.29927 0
M  V30 17025 H 1631.15 -1.96891 5.15692 0
M  V30 17026 H 1633.63 -2.52056 3.31069 0
M  V30 17027 H 1632.5 -3.66748 4.08396 0
M  V30 17028 H 1632.76 -3.74553 2.34866 0
M  V30 17029 N 1631.82 -1.45363 -0.608876 0
M  V30 17030 C 1633.1 -1.39787 -1.36817 0
M  V30 17031 C 1633.48 -0.067821 -2.10991 0
M  V30 17032 O 1632.83 0.950196 -2.07806 0
M  V30 17033 C 1633.04 -2.61073 -2.31608 0
M  V30 17034 C 1634.39 -3.06104 -2.94254 0
M  V30 17035 O 1635.41 -2.61436 -2.41929 0
M  V30 17036 O 1634.27 -3.83616 -3.89231 0
M  V30 17037 H 1631.36 -0.554657 -0.61342 0
M  V30 17038 H 1633.91 -1.57489 -0.632073 0
M  V30 17039 H 1632.68 -3.4946 -1.76049 0
M  V30 17040 H 1632.3 -2.45697 -3.126 0
M  V30 17041 N 1633.3 0.851265 -1.32632 0
M  V30 17042 C 1634.23 1.96682 -1.17681 0
M  V30 17043 C 1635.25 1.62422 -0.110926 0
M  V30 17044 O 1636.43 1.74828 -0.360202 0
M  V30 17045 C 1633.53 3.29806 -0.779838 0
M  V30 17046 C 1632.71 3.92284 -1.93473 0
M  V30 17047 C 1631.77 5.03745 -1.52075 0
M  V30 17048 O 1630.79 5.23558 -2.23328 0
M  V30 17049 N 1631.99 5.78988 -0.418695 0
M  V30 17050 H 1634.76 2.10049 -2.13775 0
M  V30 17051 H 1632.32 1.02631 -1.25214 0
M  V30 17052 H 1634.31 4.0178 -0.485236 0
M  V30 17053 H 1632.88 3.1247 0.0900498 0
M  V30 17054 H 1632.1 3.13054 -2.39564 0
M  V30 17055 H 1633.39 4.30762 -2.7078 0
M  V30 17056 H 1632.79 5.65432 0.174269 0
M  V30 17057 H 1631.35 6.51541 -0.183714 0
M  V30 17058 N 1634.78 1.15898 1.06796 0
M  V30 17059 C 1636.06 0.847701 1.76276 0
M  V30 17060 C 1636.44 -0.655537 2.00664 0
M  V30 17061 O 1635.78 -1.60171 1.62964 0
M  V30 17062 C 1635.99 1.66475 3.06736 0
M  V30 17063 C 1637.34 1.87452 3.80982 0
M  V30 17064 O 1638.37 1.63298 3.16563 0
M  V30 17065 O 1637.22 2.27942 4.96694 0
M  V30 17066 H 1634.32 0.312308 0.765763 0
M  V30 17067 H 1636.86 1.26507 1.13111 0
M  V30 17068 H 1635.64 2.68508 2.84638 0
M  V30 17069 H 1635.26 1.24409 3.77635 0
M  V30 17070 N 1636.26 -1.25243 0.956659 0
M  V30 17071 C 1637.19 -2.28159 0.496574 0
M  V30 17072 C 1638.17 -1.63814 -0.458132 0
M  V30 17073 O 1639.35 -1.90897 -0.356648 0
M  V30 17074 C 1636.48 -3.46573 -0.22454 0
M  V30 17075 C 1635.44 -4.2311 0.645104 0
M  V30 17076 C 1634.76 -5.343 -0.206867 0
M  V30 17077 C 1636.06 -4.85562 1.92422 0
M  V30 17078 H 1637.76 -2.66895 1.35675 0
M  V30 17079 H 1635.3 -1.28301 0.653827 0
M  V30 17080 H 1637.26 -4.17695 -0.55755 0
M  V30 17081 H 1635.98 -3.06833 -1.11898 0
M  V30 17082 H 1634.64 -3.53774 0.961228 0
M  V30 17083 H 1634.29 -4.908 -1.10112 0
M  V30 17084 H 1633.99 -5.86423 0.371714 0
M  V30 17085 H 1635.51 -6.08253 -0.534798 0
M  V30 17086 H 1636.92 -5.48817 1.65749 0
M  V30 17087 H 1635.32 -5.47871 2.44862 0
M  V30 17088 H 1636.39 -4.07634 2.62607 0
M  V30 17089 N 1637.73 -0.725468 -1.3991 0
M  V30 17090 C 1638.98 -0.26965 -2.00999 0
M  V30 17091 C 1639.31 1.13727 -1.57416 0
M  V30 17092 O 1638.59 1.77345 -0.798693 0
M  V30 17093 C 1638.87 -0.360784 -3.58288 0
M  V30 17094 C 1638.72 -1.80679 -4.11916 0
M  V30 17095 C 1640.04 0.262328 -4.39317 0
M  V30 17096 H 1637.16 -0.0994547 -0.730259 0
M  V30 17097 H 1639.8 -0.91983 -1.6625 0
M  V30 17098 H 1637.95 0.192779 -3.88021 0
M  V30 17099 H 1639.63 -2.4165 -3.92942 0
M  V30 17100 H 1637.87 -2.33127 -3.65834 0
M  V30 17101 H 1638.54 -1.82189 -5.21068 0
M  V30 17102 H 1641.02 -0.209452 -4.15573 0
M  V30 17103 H 1639.89 0.168166 -5.48642 0
M  V30 17104 H 1640.15 1.34716 -4.21075 0
M  V30 17105 N 1639.21 1.50354 -0.472382 0
M  V30 17106 C 1640.46 2.01934 0.0820006 0
M  V30 17107 C 1640.78 1.35636 1.401 0
M  V30 17108 O 1640.05 0.502127 1.89355 0
M  V30 17109 H 1638.63 0.746258 0.0332943 0
M  V30 17110 H 1641.29 1.84671 -0.623099 0
M  V30 17111 H 1640.39 3.11232 0.232565 0
M  V30 17112 N 1640.69 0.205039 1.56261 0
M  V30 17113 C 1641.94 -0.42506 1.98909 0
M  V30 17114 C 1642.29 -1.58548 1.08997 0
M  V30 17115 O 1641.59 -1.91114 0.136433 0
M  V30 17116 C 1641.78 -0.924086 3.45247 0
M  V30 17117 C 1641.61 0.186441 4.49313 0
M  V30 17118 C 1640.38 0.647379 5.01136 0
M  V30 17119 C 1642.58 0.998917 5.04506 0
M  V30 17120 N 1640.56 1.73469 5.88882 0
M  V30 17121 C 1641.93 1.93542 5.89017 0
M  V30 17122 C 1643.98 1.04022 4.86913 0
M  V30 17123 C 1642.69 2.90982 6.57816 0
M  V30 17124 C 1644.71 2.00272 5.56458 0
M  V30 17125 C 1644.08 2.92664 6.40724 0
M  V30 17126 H 1640.17 -0.122679 0.772317 0
M  V30 17127 H 1642.76 0.31302 1.92167 0
M  V30 17128 H 1640.93 -1.63158 3.52469 0
M  V30 17129 H 1642.66 -1.52562 3.74842 0
M  V30 17130 H 1639.42 0.238929 4.72997 0
M  V30 17131 H 1639.84 2.27985 6.37457 0
M  V30 17132 H 1644.48 0.339864 4.21432 0
M  V30 17133 H 1642.2 3.61988 7.22489 0
M  V30 17134 H 1645.79 2.0412 5.44818 0
M  V30 17135 H 1644.67 3.65927 6.9359 0
M  V30 17136 N 1642.17 -1.57451 -0.0684915 0
M  V30 17137 C 1643.58 -1.76107 -0.619932 0
M  V30 17138 C 1643.93 -0.830939 -1.77735 0
M  V30 17139 O 1643.06 -0.0158481 -2.16394 0
M  V30 17140 C 1643.65 -3.19352 -1.13136 0
M  V30 17141 C 1642.21 -3.39341 -1.62864 0
M  V30 17142 C 1641.36 -2.71801 -0.549477 0
M  V30 17143 H 1644.31 -1.57915 0.157689 0
M  V30 17144 H 1644.33 -3.23693 -2.00008 0
M  V30 17145 H 1643.84 -3.87024 -0.288762 0
M  V30 17146 H 1641.94 -2.76787 -2.49438 0
M  V30 17147 H 1642.06 -4.47799 -1.70331 0
M  V30 17148 H 1640.42 -2.34448 -0.995302 0
M  V30 17149 H 1641.2 -3.42132 0.282995 0
M  V30 17150 N 1643.65 0.339955 -1.5389 0
M  V30 17151 C 1644.61 1.40058 -1.81429 0
M  V30 17152 C 1645.61 1.45458 -0.685463 0
M  V30 17153 O 1646.8 1.45771 -0.953754 0
M  V30 17154 C 1643.93 2.78952 -1.95955 0
M  V30 17155 H 1645.13 1.16902 -2.76178 0
M  V30 17156 H 1642.68 0.574543 -1.45357 0
M  V30 17157 H 1643.41 3.07387 -1.03361 0
M  V30 17158 H 1643.2 2.76429 -2.78082 0
M  V30 17159 H 1644.69 3.55713 -2.18765 0
M  V30 17160 N 1645.13 1.45684 0.601159 0
M  V30 17161 C 1646.54 1.44423 1.18317 0
M  V30 17162 C 1646.89 0.17524 1.95416 0
M  V30 17163 O 1646.01 -0.722816 2.03971 0
M  V30 17164 C 1646.61 2.61651 2.1523 0
M  V30 17165 C 1645.17 2.6349 2.68793 0
M  V30 17166 C 1644.31 2.36787 1.44317 0
M  V30 17167 H 1647.26 1.53831 0.390108 0
M  V30 17168 H 1647.29 2.36117 2.98377 0
M  V30 17169 H 1646.8 3.53995 1.59088 0
M  V30 17170 H 1644.9 1.7517 3.28856 0
M  V30 17171 H 1645.01 3.62906 3.12787 0
M  V30 17172 H 1643.38 1.86472 1.73494 0
M  V30 17173 H 1644.16 3.31284 0.900327 0
M  V30 17174 N 1646.6 -0.84422 1.33082 0
M  V30 17175 C 1647.54 -1.96055 1.18722 0
M  V30 17176 C 1648.55 -1.62361 0.119538 0
M  V30 17177 O 1649.74 -1.74634 0.369469 0
M  V30 17178 C 1646.84 -3.29387 0.797318 0
M  V30 17179 C 1646.01 -3.91253 1.95551 0
M  V30 17180 C 1645.07 -5.02932 1.54745 0
M  V30 17181 O 1644.1 -5.22367 2.26101 0
M  V30 17182 N 1645.3 -5.78758 0.449394 0
M  V30 17183 H 1648.06 -2.08912 2.14886 0
M  V30 17184 H 1645.62 -1.01966 1.25756 0
M  V30 17185 H 1647.62 -4.01517 0.506536 0
M  V30 17186 H 1646.19 -3.12514 -0.0734775 0
M  V30 17187 H 1645.41 -3.11779 2.41221 0
M  V30 17188 H 1646.69 -4.2932 2.73061 0
M  V30 17189 H 1646.09 -5.65516 -0.14428 0
M  V30 17190 H 1644.65 -6.51434 0.218264 0
M  V30 17191 N 1648.08 -1.16463 -1.0618 0
M  V30 17192 C 1649.33 -0.944975 -1.78647 0
M  V30 17193 C 1649.65 0.528486 -1.87702 0
M  V30 17194 O 1648.92 1.38391 -1.38653 0
M  V30 17195 H 1647.5 -0.346637 -0.661704 0
M  V30 17196 H 1650.16 -1.46752 -1.28257 0
M  V30 17197 H 1649.26 -1.36469 -2.80683 0
M  V30 17198 N 1649.56 1.24734 -0.963288 0
M  V30 17199 C 1650.78 1.97285 -0.639808 0
M  V30 17200 C 1651.21 1.71024 0.783099 0
M  V30 17201 O 1650.57 0.971324 1.53085 0
M  V30 17202 C 1650.62 3.48793 -0.915197 0
M  V30 17203 O 1649.72 4.124 0.00162805 0
M  V30 17204 H 1649.06 0.618196 -0.242343 0
M  V30 17205 H 1651.59 1.58627 -1.29224 0
M  V30 17206 H 1651.6 3.99155 -0.84495 0
M  V30 17207 H 1650.28 3.67235 -1.95221 0
M  V30 17208 H 1648.85 3.72702 -0.121563 0
M  V30 17209 N 1651.04 0.732878 1.39523 0
M  V30 17210 C 1652.45 0.408236 1.54291 0
M  V30 17211 C 1652.65 -1.08114 1.7004 0
M  V30 17212 O 1651.71 -1.86726 1.6997 0
M  V30 17213 C 1653.02 1.1894 2.76177 0
M  V30 17214 C 1654.57 1.17742 2.9001 0
M  V30 17215 C 1655.05 1.94111 4.14831 0
M  V30 17216 N 1656.54 1.91266 4.21867 0
M  V30 17217 C 1657.27 2.47167 5.17394 0
M  V30 17218 N 1656.77 3.11696 6.18723 0
M  V30 17219 N 1658.56 2.37212 5.09595 0
M  V30 17220 H 1650.71 1.69839 1.27548 0
M  V30 17221 H 1652.97 0.718844 0.618035 0
M  V30 17222 H 1652.68 2.24321 2.70875 0
M  V30 17223 H 1652.55 0.792439 3.68782 0
M  V30 17224 H 1654.94 0.131752 2.94806 0
M  V30 17225 H 1655.02 1.61374 1.98474 0
M  V30 17226 H 1654.67 2.98677 4.10797 0
M  V30 17227 H 1654.6 1.47886 5.05408 0
M  V30 17228 H 1657.09 1.44254 3.49284 0
M  V30 17229 H 1657.4 3.51823 6.8807 0
M  V30 17230 H 1655.75 3.15785 6.19116 0
M  V30 17231 H 1658.94 1.86444 4.29367 0
M  V30 17232 H 1659.11 2.81076 5.83866 0
M  V30 17233 N 1652.52 -1.50101 0.480349 0
M  V30 17234 C 1653.74 -2.07278 -0.0710872 0
M  V30 17235 C 1654.17 -1.34082 -1.31923 0
M  V30 17236 O 1653.52 -0.391251 -1.77028 0
M  V30 17237 C 1653.57 -3.59099 -0.328706 0
M  V30 17238 O 1652.68 -3.8764 -1.40745 0
M  V30 17239 H 1652.02 -0.66378 0.0170748 0
M  V30 17240 H 1654.55 -1.93178 0.674049 0
M  V30 17241 H 1654.56 -4.04049 -0.566435 0
M  V30 17242 H 1653.23 -4.11789 0.583316 0
M  V30 17243 H 1651.81 -3.54519 -1.15631 0
M  V30 17244 N 1653.99 -0.213323 -1.5615 0
M  V30 17245 C 1654.92 0.695003 -2.22917 0
M  V30 17246 C 1655.9 1.20738 -1.19818 0
M  V30 17247 O 1657.09 1.25289 -1.48379 0
M  V30 17248 C 1654.22 1.90685 -2.9027 0
M  V30 17249 C 1653.17 1.52865 -3.9977 0
M  V30 17250 C 1652.5 2.81859 -4.54378 0
M  V30 17251 C 1653.8 0.724829 -5.17246 0
M  V30 17252 H 1655.49 0.138351 -2.9908 0
M  V30 17253 H 1653.04 0.0651029 -1.43853 0
M  V30 17254 H 1654.99 2.54766 -3.35667 0
M  V30 17255 H 1653.72 2.48833 -2.11541 0
M  V30 17256 H 1652.38 0.911336 -3.55092 0
M  V30 17257 H 1652.02 3.38135 -3.72389 0
M  V30 17258 H 1651.72 2.57291 -5.28275 0
M  V30 17259 H 1653.25 3.46897 -5.02489 0
M  V30 17260 H 1654.66 1.26915 -5.59076 0
M  V30 17261 H 1653.06 0.57656 -5.97324 0
M  V30 17262 H 1654.13 -0.270309 -4.84146 0
M  V30 17263 N 1655.47 1.57485 0.0601405 0
M  V30 17264 C 1656.7 1.92051 0.769681 0
M  V30 17265 C 1657.12 0.810364 1.70524 0
M  V30 17266 O 1656.47 -0.215527 1.81223 0
M  V30 17267 C 1656.52 3.26423 1.55339 0
M  V30 17268 O 1656.24 4.3317 0.655423 0
M  V30 17269 C 1657.75 3.75076 2.36289 0
M  V30 17270 H 1654.97 0.63454 0.218175 0
M  V30 17271 H 1657.51 2.04482 0.0269308 0
M  V30 17272 H 1655.66 3.15483 2.24831 0
M  V30 17273 H 1656.08 5.10548 1.20171 0
M  V30 17274 H 1657.55 4.71695 2.86719 0
M  V30 17275 H 1658.03 3.04677 3.16336 0
M  V30 17276 H 1658.64 3.88998 1.71932 0
M  V30 17277 N 1656.95 -0.331789 1.54068 0
M  V30 17278 C 1658.36 -0.906719 1.63204 0
M  V30 17279 C 1658.71 -1.89161 0.520837 0
M  V30 17280 O 1657.84 -2.1359 -0.347577 0
M  V30 17281 C 1658.43 -1.65132 2.95832 0
M  V30 17282 C 1656.99 -2.17509 3.07192 0
M  V30 17283 C 1656.14 -0.99788 2.58723 0
M  V30 17284 H 1659.09 -0.109595 1.58321 0
M  V30 17285 H 1659.11 -2.515 2.85531 0
M  V30 17286 H 1658.62 -0.934255 3.76687 0
M  V30 17287 H 1656.72 -2.92356 2.30995 0
M  V30 17288 H 1656.84 -2.43074 4.12858 0
M  V30 17289 H 1655.2 -1.37469 2.14417 0
M  V30 17290 H 1655.98 -0.295261 3.42028 0
M  V30 17291 N 1658.43 -1.46001 -0.593424 0
M  V30 17292 C 1659.67 -1.52306 -1.36317 0
M  V30 17293 C 1660.03 -0.166331 -1.91278 0
M  V30 17294 O 1661.23 -0.104106 -2.68598 0
M  V30 17295 C 1659.5 -2.58303 -2.47011 0
M  V30 17296 S 1661.06 -2.83936 -3.34553 0
M  V30 17297 H 1657.88 -0.538241 -0.464562 0
M  V30 17298 H 1660.48 -1.8317 -0.683308 0
M  V30 17299 H 1659.19 -3.55528 -2.05007 0
M  V30 17300 H 1658.72 -2.29136 -3.19782 0
M  V30 17301 H 1660.73 -2.18391 -4.45556 0
M  V30 17302 N 1659.91 0.83715 -1.33527 0
M  V30 17303 C 1661.13 1.62456 -1.28124 0
M  V30 17304 C 1661.55 1.88223 0.147499 0
M  V30 17305 O 1660.91 1.4636 1.09018 0
M  V30 17306 C 1660.96 2.97376 -2.05547 0
M  V30 17307 O 1660.68 2.7274 -3.42847 0
M  V30 17308 C 1662.18 3.91805 -2.07374 0
M  V30 17309 H 1659.4 0.505436 -0.441334 0
M  V30 17310 H 1661.94 1.04263 -1.75925 0
M  V30 17311 H 1660.1 3.52166 -1.61424 0
M  V30 17312 H 1660.51 3.58669 -3.82696 0
M  V30 17313 H 1661.99 4.83684 -2.65996 0
M  V30 17314 H 1662.46 4.26106 -1.06444 0
M  V30 17315 H 1663.07 3.42952 -2.51523 0
M  V30 17316 N 1661.38 1.17024 1.05561 0
M  V30 17317 C 1662.62 0.967099 1.80074 0
M  V30 17318 C 1662.99 -0.495724 1.8549 0
M  V30 17319 O 1664.19 -0.817816 2.56057 0
M  V30 17320 C 1662.46 1.5862 3.20273 0
M  V30 17321 S 1664.02 1.52873 4.11309 0
M  V30 17322 H 1660.84 0.347623 0.620225 0
M  V30 17323 H 1663.44 1.48902 1.26682 0
M  V30 17324 H 1662.14 2.64341 3.1393 0
M  V30 17325 H 1661.67 1.06392 3.7874 0
M  V30 17326 H 1663.69 0.534126 4.93317 0
M  V30 17327 N 1662.86 -1.24221 0.969889 0
M  V30 17328 C 1664.11 -1.91973 0.631725 0
M  V30 17329 C 1664.43 -1.76169 -0.836032 0
M  V30 17330 O 1663.7 -1.13459 -1.597 0
M  V30 17331 H 1662.28 -0.710497 0.230658 0
M  V30 17332 H 1664.94 -1.51069 1.23143 0
M  V30 17333 H 1664.04 -2.99606 0.874223 0
M  V30 17334 N 1664.34 -0.740267 -1.39132 0
M  V30 17335 C 1665.57 -0.299605 -2.05225 0
M  V30 17336 C 1665.99 1.05904 -1.55454 0
M  V30 17337 O 1665.35 1.67216 -0.700603 0
M  V30 17338 C 1665.4 -0.316792 -3.59206 0
M  V30 17339 O 1664.5 0.693786 -4.06522 0
M  V30 17340 H 1663.84 -0.135146 -0.650101 0
M  V30 17341 H 1666.37 -1.00766 -1.78065 0
M  V30 17342 H 1666.38 -0.163013 -4.07674 0
M  V30 17343 H 1665.06 -1.30814 -3.94792 0
M  V30 17344 H 1663.63 0.505712 -3.69455 0
M  V30 17345 N 1665.82 1.49844 -0.488302 0
M  V30 17346 C 1667.04 2.07313 0.0600937 0
M  V30 17347 C 1667.47 1.3478 1.3121 0
M  V30 17348 O 1666.83 0.400634 1.76818 0
M  V30 17349 C 1666.87 3.59268 0.309658 0
M  V30 17350 O 1665.98 3.88381 1.38688 0
M  V30 17351 H 1665.32 0.663681 -0.0205947 0
M  V30 17352 H 1667.85 1.92818 -0.684284 0
M  V30 17353 H 1667.86 4.04344 0.545 0
M  V30 17354 H 1666.53 4.11474 -0.605146 0
M  V30 17355 H 1665.11 3.55128 1.13749 0
M  V30 17356 N 1667.3 0.221601 1.56034 0
M  V30 17357 C 1668.57 -0.459097 1.90136 0
M  V30 17358 C 1668.95 -1.7774 1.13894 0
M  V30 17359 O 1668.3 -2.27147 0.248285 0
M  V30 17360 C 1668.51 -0.651996 3.42856 0
M  V30 17361 C 1669.86 -0.959402 4.13619 0
M  V30 17362 O 1670.88 -0.73878 3.48454 0
M  V30 17363 O 1669.74 -1.37811 5.28839 0
M  V30 17364 H 1666.84 -0.242753 0.790569 0
M  V30 17365 H 1669.38 0.263789 1.67637 0
M  V30 17366 H 1668.15 0.277892 3.90312 0
M  V30 17367 H 1667.78 -1.42637 3.71134 0
M  V30 17368 N 1668.77 -1.57515 -0.0517878 0
M  V30 17369 C 1669.7 -2.0809 -1.05929 0
M  V30 17370 C 1670.69 -0.978529 -1.39136 0
M  V30 17371 O 1671.87 -1.25245 -1.48416 0
M  V30 17372 C 1669 -2.54147 -2.36699 0
M  V30 17373 C 1667.95 -3.68442 -2.17794 0
M  V30 17374 C 1667.28 -4.00624 -3.54125 0
M  V30 17375 C 1668.58 -4.97743 -1.5827 0
M  V30 17376 H 1670.27 -2.92515 -0.638371 0
M  V30 17377 H 1667.82 -1.40719 -0.305625 0
M  V30 17378 H 1669.77 -2.88145 -3.07491 0
M  V30 17379 H 1668.5 -1.66775 -2.80809 0
M  V30 17380 H 1667.16 -3.34758 -1.4944 0
M  V30 17381 H 1666.8 -3.10353 -3.95841 0
M  V30 17382 H 1666.5 -4.77597 -3.42308 0
M  V30 17383 H 1668.03 -4.37136 -4.26315 0
M  V30 17384 H 1669.44 -5.29843 -2.18951 0
M  V30 17385 H 1667.84 -5.79173 -1.57094 0
M  V30 17386 H 1668.91 -4.81815 -0.546127 0
M  V30 17387 N 1670.25 0.323614 -1.54242 0
M  V30 17388 C 1671.48 1.07954 -1.76152 0
M  V30 17389 C 1671.89 1.82194 -0.510099 0
M  V30 17390 O 1671.23 1.75923 0.528838 0
M  V30 17391 C 1671.3 2.12323 -2.90102 0
M  V30 17392 C 1670.96 1.57481 -4.29009 0
M  V30 17393 C 1671.96 1.01662 -5.09864 0
M  V30 17394 C 1669.64 1.61726 -4.75552 0
M  V30 17395 C 1671.64 0.508168 -6.35371 0
M  V30 17396 C 1669.32 1.10493 -6.01028 0
M  V30 17397 C 1670.32 0.551331 -6.80771 0
M  V30 17398 O 1670.01 0.0467053 -8.03886 0
M  V30 17399 H 1669.74 0.326941 -0.59168 0
M  V30 17400 H 1672.3 0.375423 -2.0194 0
M  V30 17401 H 1670.53 2.8635 -2.59885 0
M  V30 17402 H 1672.21 2.73636 -2.99796 0
M  V30 17403 H 1672.98 0.976899 -4.7506 0
M  V30 17404 H 1668.86 2.03755 -4.13527 0
M  V30 17405 H 1672.4 0.0754082 -6.97559 0
M  V30 17406 H 1668.3 1.14172 -6.35323 0
M  V30 17407 H 1669.07 0.162133 -8.18339 0
M  V30 17408 N 1671.73 1.46313 0.585673 0
M  V30 17409 C 1672.66 1.59511 1.70524 0
M  V30 17410 C 1673.64 0.445578 1.6416 0
M  V30 17411 O 1674.83 0.671455 1.82223 0
M  V30 17412 C 1671.96 1.58229 3.09162 0
M  V30 17413 C 1670.91 2.72122 3.30354 0
M  V30 17414 C 1670.24 2.559 4.69489 0
M  V30 17415 C 1671.54 4.13969 3.18476 0
M  V30 17416 H 1673.23 2.53229 1.59735 0
M  V30 17417 H 1670.78 1.2187 0.767046 0
M  V30 17418 H 1672.73 1.66056 3.87303 0
M  V30 17419 H 1671.45 0.610535 3.20843 0
M  V30 17420 H 1670.11 2.63759 2.54611 0
M  V30 17421 H 1669.76 1.56814 4.77931 0
M  V30 17422 H 1669.46 3.32289 4.84621 0
M  V30 17423 H 1670.99 2.65613 5.49802 0
M  V30 17424 H 1672.4 4.23459 3.86465 0
M  V30 17425 H 1670.8 4.90922 3.45131 0
M  V30 17426 H 1671.87 4.34334 2.15598 0
M  V30 17427 N 1673.21 -0.830057 1.33969 0
M  V30 17428 C 1674.46 -1.58821 1.26111 0
M  V30 17429 C 1674.79 -1.9345 -0.170484 0
M  V30 17430 O 1674.06 -1.59433 -1.11407 0
M  V30 17431 C 1674.35 -2.89243 2.14501 0
M  V30 17432 C 1674.2 -2.61239 3.66162 0
M  V30 17433 C 1675.52 -3.90752 2.02487 0
M  V30 17434 H 1672.64 -0.576255 0.459455 0
M  V30 17435 H 1675.28 -0.956736 1.64154 0
M  V30 17436 H 1673.43 -3.43133 1.82186 0
M  V30 17437 H 1675.1 -2.13713 4.08809 0
M  V30 17438 H 1673.34 -1.94796 3.87604 0
M  V30 17439 H 1674.02 -3.54212 4.23365 0
M  V30 17440 H 1676.49 -3.46194 2.30844 0
M  V30 17441 H 1675.37 -4.79825 2.6657 0
M  V30 17442 H 1675.63 -4.30649 0.999704 0
M  V30 17443 N 1674.69 -1.17582 -1.04939 0
M  V30 17444 C 1675.92 -0.990398 -1.81656 0
M  V30 17445 C 1676.33 0.461324 -1.83077 0
M  V30 17446 O 1675.69 1.32037 -1.25986 0
M  V30 17447 C 1675.74 -1.52719 -3.27657 0
M  V30 17448 O 1675.46 -2.92206 -3.26415 0
M  V30 17449 C 1676.96 -1.38671 -4.21053 0
M  V30 17450 H 1674.18 -0.35024 -0.57234 0
M  V30 17451 H 1676.72 -1.5593 -1.32311 0
M  V30 17452 H 1674.88 -1.00026 -3.74264 0
M  V30 17453 H 1675.29 -3.17068 -4.17814 0
M  V30 17454 H 1676.77 -1.8104 -5.21468 0
M  V30 17455 H 1677.24 -0.334151 -4.37927 0
M  V30 17456 H 1677.85 -1.90393 -3.80303 0
M  V30 17457 N 1676.17 1.23705 -0.976463 0
M  V30 17458 C 1677.58 1.44179 -0.684434 0
M  V30 17459 C 1677.78 1.86992 0.75075 0
M  V30 17460 O 1676.84 2.01349 1.52365 0
M  V30 17461 C 1678.15 2.49661 -1.676 0
M  V30 17462 C 1679.7 2.63479 -1.68961 0
M  V30 17463 C 1680.17 3.72167 -2.66938 0
M  V30 17464 N 1681.66 3.79605 -2.65433 0
M  V30 17465 C 1682.4 4.63251 -3.37914 0
M  V30 17466 N 1681.9 5.51018 -4.19941 0
M  V30 17467 N 1683.69 4.57412 -3.26697 0
M  V30 17468 H 1675.84 0.942155 -1.90361 0
M  V30 17469 H 1678.1 0.475629 -0.820049 0
M  V30 17470 H 1677.81 2.25111 -2.70218 0
M  V30 17471 H 1677.68 3.47978 -1.45571 0
M  V30 17472 H 1680.07 2.87382 -0.670497 0
M  V30 17473 H 1680.15 1.65491 -1.95055 0
M  V30 17474 H 1679.79 3.49013 -3.68988 0
M  V30 17475 H 1679.72 4.69688 -2.3812 0
M  V30 17476 H 1682.22 3.16882 -2.05899 0
M  V30 17477 H 1682.53 6.11825 -4.72113 0
M  V30 17478 H 1680.87 5.50655 -4.24033 0
M  V30 17479 H 1684.06 3.87863 -2.62069 0
M  V30 17480 H 1684.24 5.22373 -3.83446 0
M  V30 17481 N 1677.64 0.747635 1.38738 0
M  V30 17482 C 1678.59 0.0917864 2.27815 0
M  V30 17483 C 1679.58 -0.699471 1.44901 0
M  V30 17484 O 1680.77 -0.566404 1.67693 0
M  V30 17485 C 1677.9 -0.805131 3.33725 0
M  V30 17486 C 1676.98 -0.00734503 4.24099 0
M  V30 17487 N 1677.38 1.02602 4.95284 0
M  V30 17488 C 1675.67 -0.235075 4.4538 0
M  V30 17489 C 1676.37 1.50818 5.61808 0
M  V30 17490 N 1675.35 0.824534 5.3731 0
M  V30 17491 H 1679.15 0.883313 2.80312 0
M  V30 17492 H 1676.67 0.583125 1.5157 0
M  V30 17493 H 1678.66 -1.29056 3.96422 0
M  V30 17494 H 1677.32 -1.59568 2.82787 0
M  V30 17495 H 1678.33 1.40768 4.98402 0
M  V30 17496 H 1675.01 -0.99943 4.05361 0
M  V30 17497 H 1676.4 2.36862 6.28766 0
M  V30 17498 N 1679.12 -1.49583 0.496242 0
M  V30 17499 C 1680.08 -2.27561 -0.273642 0
M  V30 17500 C 1681.08 -1.33375 -0.8982 0
M  V30 17501 O 1682.27 -1.56578 -0.76347 0
M  V30 17502 C 1679.41 -3.11178 -1.39216 0
M  V30 17503 H 1680.6 -2.97077 0.410543 0
M  V30 17504 H 1678.15 -1.54271 0.251058 0
M  V30 17505 H 1678.89 -2.46217 -2.11064 0
M  V30 17506 H 1678.67 -3.80422 -0.949829 0
M  V30 17507 H 1680.16 -3.70085 -1.93459 0
M  V30 17508 N 1680.6 -0.229873 -1.55915 0
M  V30 17509 C 1681.88 0.449007 -1.90377 0
M  V30 17510 C 1682.26 1.77133 -1.14835 0
M  V30 17511 O 1681.6 2.27012 -0.260328 0
M  V30 17512 C 1681.81 0.633805 -3.43197 0
M  V30 17513 C 1683.16 0.937453 -4.14122 0
M  V30 17514 O 1684.19 0.72029 -3.48841 0
M  V30 17515 O 1683.05 1.35005 -5.29562 0
M  V30 17516 H 1680.14 0.238557 -0.791846 0
M  V30 17517 H 1682.69 -0.272676 -1.67495 0
M  V30 17518 H 1681.46 -0.298587 -3.90159 0
M  V30 17519 H 1681.08 1.40667 -3.71885 0
M  V30 17520 N 1682.08 1.5754 0.0434337 0
M  V30 17521 C 1683.32 1.88887 0.7382 0
M  V30 17522 C 1683.66 0.825827 1.75766 0
M  V30 17523 O 1682.93 -0.160797 1.93834 0
M  V30 17524 C 1683.21 3.30889 1.42072 0
M  V30 17525 C 1683.07 4.47874 0.415754 0
M  V30 17526 C 1684.39 3.71571 2.35846 0
M  V30 17527 H 1681.51 0.686975 0.266897 0
M  V30 17528 H 1684.15 1.9 0.00106957 0
M  V30 17529 H 1682.3 3.30071 2.04903 0
M  V30 17530 H 1683.97 4.60824 -0.209529 0
M  V30 17531 H 1682.21 4.32982 -0.266346 0
M  V30 17532 H 1682.88 5.44084 0.931509 0
M  V30 17533 H 1685.36 3.73663 1.83071 0
M  V30 17534 H 1684.24 4.71763 2.80589 0
M  V30 17535 H 1684.5 3.03041 3.21898 0
M  V30 17536 N 1683.56 -0.31543 1.54411 0
M  V30 17537 C 1684.8 -1.04997 1.72217 0
M  V30 17538 C 1685.12 -1.8891 0.507176 0
M  V30 17539 O 1686.32 -2.65519 0.566738 0
M  V30 17540 C 1684.78 -1.91633 3.04639 0
M  V30 17541 C 1684.39 -1.12792 4.33569 0
M  V30 17542 C 1686.13 -2.64774 3.31806 0
M  V30 17543 C 1684.04 -1.98621 5.57049 0
M  V30 17544 H 1682.97 -0.395716 0.641814 0
M  V30 17545 H 1685.62 -0.307748 1.80901 0
M  V30 17546 H 1684 -2.69786 2.89882 0
M  V30 17547 H 1685.18 -0.393534 4.59116 0
M  V30 17548 H 1683.49 -0.512975 4.13228 0
M  V30 17549 H 1686.09 -3.29313 4.21257 0
M  V30 17550 H 1686.43 -3.32843 2.50043 0
M  V30 17551 H 1686.96 -1.93678 3.47467 0
M  V30 17552 H 1683.7 -1.35047 6.41438 0
M  V30 17553 H 1683.22 -2.69771 5.35708 0
M  V30 17554 H 1684.9 -2.57014 5.93762 0
M  V30 17555 N 1685.03 -1.46622 -0.577906 0
M  V30 17556 C 1686.45 -1.46287 -1.16004 0
M  V30 17557 C 1686.8 -0.206307 -1.95112 0
M  V30 17558 O 1685.92 0.690275 -2.05096 0
M  V30 17559 C 1686.52 -2.65042 -2.1104 0
M  V30 17560 C 1685.08 -2.67733 -2.64567 0
M  V30 17561 C 1684.22 -2.39053 -1.40531 0
M  V30 17562 H 1687.17 -1.54432 -0.365585 0
M  V30 17563 H 1687.19 -2.40834 -2.94583 0
M  V30 17564 H 1686.71 -3.56481 -1.53436 0
M  V30 17565 H 1684.81 -1.80379 -3.26028 0
M  V30 17566 H 1684.92 -3.67836 -3.06974 0
M  V30 17567 H 1683.28 -1.89209 -1.70506 0
M  V30 17568 H 1684.07 -3.32674 -0.847509 0
M  V30 17569 N 1686.51 0.822941 -1.34408 0
M  V30 17570 C 1687.76 1.58149 -1.26951 0
M  V30 17571 C 1688.09 1.93538 0.160222 0
M  V30 17572 O 1687.37 1.60021 1.1056 0
M  V30 17573 C 1687.65 2.88101 -2.16032 0
M  V30 17574 C 1687.5 2.59293 -3.67542 0
M  V30 17575 C 1688.82 3.89673 -2.04556 0
M  V30 17576 H 1685.94 0.573811 -0.462504 0
M  V30 17577 H 1688.58 0.948017 -1.64659 0
M  V30 17578 H 1686.73 3.42162 -1.84003 0
M  V30 17579 H 1688.4 2.11542 -4.09936 0
M  V30 17580 H 1686.65 1.92738 -3.88632 0
M  V30 17581 H 1687.32 3.51962 -4.25238 0
M  V30 17582 H 1689.79 3.44965 -2.32677 0
M  V30 17583 H 1688.67 4.78404 -2.69111 0
M  V30 17584 H 1688.93 4.30113 -1.02253 0
M  V30 17585 N 1687.99 1.18137 1.04314 0
M  V30 17586 C 1689.41 0.930523 1.29667 0
M  V30 17587 C 1689.61 -0.405336 1.97381 0
M  V30 17588 O 1688.66 -1.14025 2.25288 0
M  V30 17589 C 1689.98 2.09427 2.1578 0
M  V30 17590 C 1691.52 2.13229 2.29134 0
M  V30 17591 C 1692 3.29014 3.18612 0
M  V30 17592 N 1693.49 3.28859 3.26199 0
M  V30 17593 C 1694.22 4.15092 3.95583 0
M  V30 17594 N 1693.72 5.11453 4.67319 0
M  V30 17595 N 1695.51 4.03014 3.91837 0
M  V30 17596 H 1687.66 2.04108 0.587669 0
M  V30 17597 H 1689.93 0.89171 0.321804 0
M  V30 17598 H 1689.63 3.06023 1.73328 0
M  V30 17599 H 1689.51 2.0528 3.16449 0
M  V30 17600 H 1691.89 1.17212 2.70823 0
M  V30 17601 H 1691.98 2.21435 1.28064 0
M  V30 17602 H 1691.62 4.25302 2.77635 0
M  V30 17603 H 1691.55 3.18045 4.19708 0
M  V30 17604 H 1694.04 2.59097 2.75095 0
M  V30 17605 H 1694.35 5.7363 5.1785 0
M  V30 17606 H 1692.7 5.15415 4.66232 0
M  V30 17607 H 1695.89 3.27021 3.34925 0
M  V30 17608 H 1696.06 4.70435 4.4564 0
M  V30 17609 N 1689.47 -1.23186 0.98301 0
M  V30 17610 C 1690.88 -1.43814 0.69207 0
M  V30 17611 C 1691.08 -1.87387 -0.740823 0
M  V30 17612 O 1690.14 -2.02154 -1.51295 0
M  V30 17613 C 1691.45 -2.48769 1.68922 0
M  V30 17614 C 1693 -2.62579 1.70356 0
M  V30 17615 C 1693.48 -3.70746 2.68908 0
M  V30 17616 N 1694.97 -3.78192 2.67442 0
M  V30 17617 C 1695.7 -4.61453 3.40366 0
M  V30 17618 N 1695.2 -5.48784 4.22857 0
M  V30 17619 N 1696.99 -4.55673 3.29118 0
M  V30 17620 H 1689.14 -0.932046 1.90858 0
M  V30 17621 H 1691.41 -0.471274 0.82256 0
M  V30 17622 H 1691.11 -2.23675 2.71408 0
M  V30 17623 H 1690.99 -3.47201 1.47415 0
M  V30 17624 H 1693.37 -2.87022 0.685728 0
M  V30 17625 H 1693.45 -1.64454 1.9593 0
M  V30 17626 H 1693.1 -3.47051 3.70834 0
M  V30 17627 H 1693.03 -4.68418 2.40607 0
M  V30 17628 H 1695.52 -3.15785 2.07577 0
M  V30 17629 H 1695.83 -6.09312 4.75351 0
M  V30 17630 H 1694.18 -5.48398 4.26948 0
M  V30 17631 H 1697.37 -3.86468 2.64122 0
M  V30 17632 H 1697.54 -5.20332 3.8621 0
M  V30 17633 N 1690.95 -0.754982 -1.38339 0
M  V30 17634 C 1692.36 -0.43273 -1.53622 0
M  V30 17635 C 1692.56 1.05395 -1.71739 0
M  V30 17636 O 1691.62 1.83998 -1.72919 0
M  V30 17637 C 1692.93 -1.23319 -2.7425 0
M  V30 17638 C 1694.48 -1.22341 -2.881 0
M  V30 17639 C 1694.95 -2.00686 -4.11691 0
M  V30 17640 N 1696.45 -1.97953 -4.1877 0
M  V30 17641 C 1697.18 -2.55367 -5.13396 0
M  V30 17642 N 1696.68 -3.215 -6.13685 0
M  V30 17643 N 1698.47 -2.45289 -5.05757 0
M  V30 17644 H 1690.62 -1.71847 -1.2483 0
M  V30 17645 H 1692.88 -0.728585 -0.606521 0
M  V30 17646 H 1692.59 -2.28602 -2.67272 0
M  V30 17647 H 1692.46 -0.851009 -3.67475 0
M  V30 17648 H 1694.85 -0.178637 -2.94559 0
M  V30 17649 H 1694.93 -1.64511 -1.95882 0
M  V30 17650 H 1694.58 -3.05175 -4.05994 0
M  V30 17651 H 1694.51 -1.55908 -5.02991 0
M  V30 17652 H 1697 -1.49792 -3.46945 0
M  V30 17653 H 1697.31 -3.62725 -6.82386 0
M  V30 17654 H 1695.65 -3.25595 -6.14014 0
M  V30 17655 H 1698.85 -1.93251 -4.26347 0
M  V30 17656 H 1699.02 -2.9033 -5.79321 0
M  V30 17657 N 1692.42 1.49318 -0.504168 0
M  V30 17658 C 1693.67 2.02062 0.039149 0
M  V30 17659 C 1693.99 1.38577 1.37191 0
M  V30 17660 O 1693.26 0.542179 1.88248 0
M  V30 17661 H 1691.84 0.746796 0.0174575 0
M  V30 17662 H 1694.51 1.83308 -0.66213 0
M  V30 17663 H 1693.6 3.11656 0.166496 0
M  V30 17664 N 1693.9 0.238138 1.5579 0
M  V30 17665 C 1695.18 -0.438905 1.90612 0
M  V30 17666 C 1695.56 -1.76522 1.15773 0
M  V30 17667 O 1694.91 -2.26871 0.272363 0
M  V30 17668 C 1695.12 -0.615595 3.43528 0
M  V30 17669 C 1696.47 -0.915478 4.14613 0
M  V30 17670 O 1697.49 -0.70178 3.49218 0
M  V30 17671 O 1696.35 -1.32194 5.30271 0
M  V30 17672 H 1693.44 -0.234355 0.7931 0
M  V30 17673 H 1695.99 0.281555 1.67348 0
M  V30 17674 H 1694.76 0.319274 3.89995 0
M  V30 17675 H 1694.38 -1.38692 3.72626 0
M  V30 17676 N 1695.38 -1.57561 -0.0350783 0
M  V30 17677 C 1696.61 -1.93644 -0.742753 0
M  V30 17678 C 1697.03 -0.837655 -1.68419 0
M  V30 17679 O 1696.39 0.207069 -1.80114 0
M  V30 17680 C 1696.44 -3.28779 -1.48111 0
M  V30 17681 O 1695.54 -3.20604 -2.59398 0
M  V30 17682 H 1694.88 -0.633103 -0.200192 0
M  V30 17683 H 1697.41 -2.04599 0.00765271 0
M  V30 17684 H 1697.42 -3.63527 -1.85236 0
M  V30 17685 H 1696.1 -4.08316 -0.790608 0
M  V30 17686 H 1694.67 -2.97477 -2.2486 0
M  V30 17687 N 1696.86 0.307236 -1.54576 0
M  V30 17688 C 1698.27 0.652539 -1.45651 0
M  V30 17689 C 1698.47 1.90978 -0.64263 0
M  V30 17690 O 1697.53 2.52067 -0.147863 0
M  V30 17691 C 1698.84 0.811341 -2.89547 0
M  V30 17692 C 1700.39 0.90763 -2.99551 0
M  V30 17693 C 1700.87 1.09848 -4.44632 0
M  V30 17694 N 1702.36 1.16483 -4.48315 0
M  V30 17695 C 1703.09 1.33068 -5.57746 0
M  V30 17696 N 1702.59 1.46591 -6.77114 0
M  V30 17697 N 1704.38 1.35906 -5.45423 0
M  V30 17698 H 1696.53 -0.518891 -2.05964 0
M  V30 17699 H 1698.8 -0.170463 -0.932548 0
M  V30 17700 H 1698.5 -0.0414879 -3.51676 0
M  V30 17701 H 1698.38 1.70224 -3.36606 0
M  V30 17702 H 1700.76 1.75095 -2.37541 0
M  V30 17703 H 1700.84 -0.00715386 -2.55799 0
M  V30 17704 H 1700.49 0.259948 -5.07234 0
M  V30 17705 H 1700.42 2.02739 -4.86009 0
M  V30 17706 H 1702.91 1.07411 -3.62314 0
M  V30 17707 H 1703.22 1.58983 -7.5627 0
M  V30 17708 H 1701.57 1.43658 -6.79991 0
M  V30 17709 H 1704.76 1.24949 -4.51116 0
M  V30 17710 H 1704.93 1.48489 -6.30758 0
M  V30 17711 N 1698.34 1.46926 0.570122 0
M  V30 17712 C 1699.58 1.52585 1.32523 0
M  V30 17713 C 1699.91 0.184291 1.94127 0
M  V30 17714 O 1699.18 -0.790478 1.79244 0
M  V30 17715 H 1697.76 0.562019 0.492081 0
M  V30 17716 H 1700.42 1.83141 0.666746 0
M  V30 17717 H 1699.51 2.28541 2.12545 0
M  V30 17718 N 1699.82 -0.815801 1.34842 0
M  V30 17719 C 1701.04 -1.60915 1.30848 0
M  V30 17720 C 1701.47 -1.87758 -0.113345 0
M  V30 17721 O 1700.82 -1.4582 -1.07732 0
M  V30 17722 C 1700.87 -2.92284 2.11192 0
M  V30 17723 O 1699.98 -3.84685 1.48632 0
M  V30 17724 H 1699.32 -0.48913 0.449052 0
M  V30 17725 H 1701.85 -1.01322 1.7775 0
M  V30 17726 H 1701.86 -3.41789 2.2281 0
M  V30 17727 H 1700.53 -2.72071 3.14563 0
M  V30 17728 H 1699.11 -3.43215 1.458 0
M  V30 17729 N 1701.29 -1.18689 -1.03686 0
M  V30 17730 C 1702.22 -0.94094 -2.13702 0
M  V30 17731 C 1703.2 0.12277 -1.69656 0
M  V30 17732 O 1704.39 -0.0306085 -1.94176 0
M  V30 17733 C 1701.52 -0.470054 -3.44104 0
M  V30 17734 C 1700.47 -1.47468 -4.01792 0
M  V30 17735 C 1699.8 -0.861174 -5.2772 0
M  V30 17736 C 1701.1 -2.85254 -4.37524 0
M  V30 17737 H 1702.79 -1.86102 -2.34534 0
M  V30 17738 H 1700.34 -0.896207 -1.12713 0
M  V30 17739 H 1702.29 -0.28533 -4.20433 0
M  V30 17740 H 1701.02 0.485604 -3.2297 0
M  V30 17741 H 1699.68 -1.64641 -3.2755 0
M  V30 17742 H 1699.32 0.10179 -5.02897 0
M  V30 17743 H 1699.02 -1.53196 -5.67278 0
M  V30 17744 H 1700.55 -0.687066 -6.06722 0
M  V30 17745 H 1701.96 -2.71711 -5.04823 0
M  V30 17746 H 1700.36 -3.49051 -4.88143 0
M  V30 17747 H 1701.43 -3.38516 -3.47181 0
M  V30 17748 N 1702.77 1.22662 -0.989529 0
M  V30 17749 C 1703.7 2.26762 -0.556891 0
M  V30 17750 C 1704.68 1.64971 0.414538 0
M  V30 17751 O 1705.87 1.91775 0.305909 0
M  V30 17752 C 1703 3.47047 0.132573 0
M  V30 17753 C 1701.95 4.21251 -0.757058 0
M  V30 17754 C 1701.28 5.3466 0.065134 0
M  V30 17755 C 1702.58 4.8029 -2.05229 0
M  V30 17756 H 1704.27 2.63204 -1.42703 0
M  V30 17757 H 1701.82 1.26522 -0.687614 0
M  V30 17758 H 1703.77 4.19027 0.446609 0
M  V30 17759 H 1702.49 3.09692 1.03723 0
M  V30 17760 H 1701.15 3.51101 -1.05469 0
M  V30 17761 H 1700.8 4.93547 0.970607 0
M  V30 17762 H 1700.5 5.85231 -0.527063 0
M  V30 17763 H 1702.03 6.09458 0.373342 0
M  V30 17764 H 1703.44 5.44229 -1.80242 0
M  V30 17765 H 1701.84 5.41186 -2.59302 0
M  V30 17766 H 1702.91 4.00529 -2.73322 0
M  V30 17767 N 1704.25 0.762308 1.37937 0
M  V30 17768 C 1705.47 0.332217 2.04722 0
M  V30 17769 C 1705.9 -1.03417 1.57119 0
M  V30 17770 O 1705.26 -1.6608 0.727117 0
M  V30 17771 C 1705.31 0.373899 3.58656 0
M  V30 17772 O 1704.41 -0.629024 4.07575 0
M  V30 17773 H 1703.75 0.145471 0.647869 0
M  V30 17774 H 1706.28 1.03586 1.7644 0
M  V30 17775 H 1706.29 0.22785 4.07363 0
M  V30 17776 H 1704.97 1.37079 3.92661 0
M  V30 17777 H 1703.54 -0.446871 3.70213 0
M  V30 17778 N 1705.73 -1.49049 0.51208 0
M  V30 17779 C 1707.14 -1.86579 0.0670687 0
M  V30 17780 C 1707.49 -1.42339 -1.35034 0
M  V30 17781 O 1706.61 -0.806142 -2.00824 0
M  V30 17782 C 1707.21 -3.38605 0.114936 0
M  V30 17783 C 1705.77 -3.75396 -0.274787 0
M  V30 17784 C 1704.92 -2.73068 0.482613 0
M  V30 17785 H 1707.87 -1.41208 0.724287 0
M  V30 17786 H 1707.89 -3.74416 -0.677722 0
M  V30 17787 H 1707.4 -3.70774 1.14666 0
M  V30 17788 H 1705.5 -3.48837 -1.30933 0
M  V30 17789 H 1705.61 -4.79071 0.0523691 0
M  V30 17790 H 1703.98 -2.54607 -0.0689364 0
M  V30 17791 H 1704.76 -3.08081 1.51463 0
M  V30 17792 N 1707.21 -0.246397 -1.55662 0
M  V30 17793 C 1708.62 0.108465 -1.59231 0
M  V30 17794 C 1708.82 1.56961 -1.26354 0
M  V30 17795 O 1707.88 2.31393 -1.01062 0
M  V30 17796 C 1709.19 -0.240265 -2.99739 0
M  V30 17797 C 1710.74 -0.184523 -3.12456 0
M  V30 17798 C 1711.21 -0.507279 -4.55182 0
M  V30 17799 N 1712.7 -0.457761 -4.60933 0
M  V30 17800 C 1713.44 -0.680664 -5.69346 0
M  V30 17801 N 1712.94 -0.966667 -6.86023 0
M  V30 17802 N 1714.73 -0.611405 -5.58765 0
M  V30 17803 H 1706.88 -1.19928 -1.75303 0
M  V30 17804 H 1709.14 -0.482503 -0.816024 0
M  V30 17805 H 1708.85 -1.25535 -3.28533 0
M  V30 17806 H 1708.72 0.432872 -3.74708 0
M  V30 17807 H 1711.11 0.821232 -2.83443 0
M  V30 17808 H 1711.19 -0.891504 -2.39762 0
M  V30 17809 H 1710.83 -1.51059 -4.84916 0
M  V30 17810 H 1710.76 0.221174 -5.26135 0
M  V30 17811 H 1713.26 -0.245414 -3.77102 0
M  V30 17812 H 1713.57 -1.12419 -7.6458 0
M  V30 17813 H 1711.91 -1.00413 -6.87708 0
M  V30 17814 H 1715.1 -0.388018 -4.66489 0
M  V30 17815 H 1715.28 -0.788519 -6.43185 0
M  V30 17816 N 1708.68 1.57577 0.026722 0
M  V30 17817 C 1710.09 1.77689 0.573022 0
M  V30 17818 C 1710.45 0.877771 1.7547 0
M  V30 17819 O 1709.57 0.0732156 2.16276 0
M  V30 17820 C 1710.17 3.22239 1.0463 0
M  V30 17821 C 1708.72 3.4354 1.5381 0
M  V30 17822 C 1707.87 2.73163 0.47722 0
M  V30 17823 H 1710.82 1.57441 -0.199502 0
M  V30 17824 H 1710.84 3.28882 1.91355 0
M  V30 17825 H 1710.36 3.87654 0.186047 0
M  V30 17826 H 1708.46 2.83304 2.42012 0
M  V30 17827 H 1708.57 4.52158 1.58398 0
M  V30 17828 H 1706.93 2.37004 0.932793 0
M  V30 17829 H 1707.72 3.41261 -0.373605 0
M  V30 17830 N 1710.16 -0.299034 1.54737 0
M  V30 17831 C 1711.41 -1.03164 1.7332 0
M  V30 17832 C 1711.72 -1.88362 0.527184 0
M  V30 17833 O 1712.93 -2.64903 0.594868 0
M  V30 17834 C 1711.39 -1.88391 3.06654 0
M  V30 17835 C 1710.99 -1.08187 4.34741 0
M  V30 17836 C 1712.74 -2.6124 3.34595 0
M  V30 17837 C 1710.64 -1.92702 5.59124 0
M  V30 17838 H 1709.57 -0.388887 0.645975 0
M  V30 17839 H 1712.23 -0.288544 1.81217 0
M  V30 17840 H 1710.61 -2.66696 2.92727 0
M  V30 17841 H 1711.78 -0.344817 4.59508 0
M  V30 17842 H 1710.1 -0.469118 4.13749 0
M  V30 17843 H 1712.69 -3.24826 4.24726 0
M  V30 17844 H 1713.04 -3.30172 2.53559 0
M  V30 17845 H 1713.57 -1.89982 3.49502 0
M  V30 17846 H 1710.31 -1.28236 6.42834 0
M  V30 17847 H 1709.83 -2.64074 5.38539 0
M  V30 17848 H 1711.51 -2.50702 5.96454 0
M  V30 17849 N 1711.64 -1.47227 -0.562322 0
M  V30 17850 C 1712.86 -1.5744 -1.35008 0
M  V30 17851 C 1713.29 -0.223223 -1.86771 0
M  V30 17852 O 1712.65 0.800078 -1.62691 0
M  V30 17853 C 1712.7 -2.5992 -2.49948 0
M  V30 17854 O 1711.8 -2.14836 -3.52022 0
M  V30 17855 H 1711.14 -0.529064 -0.401232 0
M  V30 17856 H 1713.67 -1.92966 -0.680084 0
M  V30 17857 H 1713.68 -2.80177 -2.96588 0
M  V30 17858 H 1712.36 -3.58031 -2.11629 0
M  V30 17859 H 1710.93 -2.04655 -3.11722 0
M  V30 17860 N 1713.12 0.808639 -1.35273 0
M  V30 17861 C 1714.35 1.5947 -1.31351 0
M  V30 17862 C 1714.76 1.88871 0.111546 0
M  V30 17863 O 1714.1 1.49082 1.07332 0
M  V30 17864 C 1714.16 2.95278 -2.05064 0
M  V30 17865 C 1713.82 2.88702 -3.5426 0
M  V30 17866 C 1714.82 2.62283 -4.48892 0
M  V30 17867 C 1712.51 3.07884 -3.96879 0
M  V30 17868 C 1714.5 2.55118 -5.84118 0
M  V30 17869 C 1712.19 3.00343 -5.322 0
M  V30 17870 C 1713.19 2.73995 -6.25632 0
M  V30 17871 O 1712.87 2.66413 -7.58472 0
M  V30 17872 H 1712.61 0.501927 -0.45282 0
M  V30 17873 H 1715.16 1.01307 -1.78678 0
M  V30 17874 H 1713.39 3.55416 -1.5237 0
M  V30 17875 H 1715.08 3.56403 -1.94246 0
M  V30 17876 H 1715.84 2.47184 -4.17283 0
M  V30 17877 H 1711.72 3.27404 -3.24542 0
M  V30 17878 H 1715.27 2.34473 -6.57015 0
M  V30 17879 H 1711.16 3.14999 -5.63424 0
M  V30 17880 H 1711.93 2.82036 -7.68374 0
M  V30 17881 N 1714.6 1.19237 1.03055 0
M  V30 17882 C 1715.53 0.95226 2.132 0
M  V30 17883 C 1716.51 -0.113771 1.69719 0
M  V30 17884 O 1717.69 0.0409057 1.94157 0
M  V30 17885 C 1714.82 0.488296 3.4385 0
M  V30 17886 C 1713.78 1.49597 4.01005 0
M  V30 17887 C 1713.1 0.889148 5.27255 0
M  V30 17888 C 1714.4 2.87571 4.36005 0
M  V30 17889 H 1716.1 1.87343 2.33544 0
M  V30 17890 H 1713.64 0.902172 1.12236 0
M  V30 17891 H 1715.6 0.307623 4.20276 0
M  V30 17892 H 1714.32 -0.468469 3.23223 0
M  V30 17893 H 1712.98 1.66376 3.26672 0
M  V30 17894 H 1712.63 -0.0751191 5.02944 0
M  V30 17895 H 1712.33 1.56202 5.66458 0
M  V30 17896 H 1713.85 0.719233 6.06349 0
M  V30 17897 H 1715.26 2.74384 5.03375 0
M  V30 17898 H 1713.66 3.51635 4.86285 0
M  V30 17899 H 1714.73 3.40353 3.45381 0
M  V30 17900 N 1716.07 -1.22136 0.99602 0
M  V30 17901 C 1717.02 -2.24178 0.54889 0
M  V30 17902 C 1717.99 -1.60692 -0.420391 0
M  V30 17903 O 1719.18 -1.88021 -0.324452 0
M  V30 17904 C 1716.32 -3.44865 -0.127239 0
M  V30 17905 C 1715.43 -4.22855 0.884153 0
M  V30 17906 C 1714.56 -5.30891 0.181219 0
M  V30 17907 C 1713.6 -6.00603 1.18077 0
M  V30 17908 N 1712.74 -7.00275 0.505927 0
M  V30 17909 H 1717.58 -2.61788 1.42377 0
M  V30 17910 H 1715.12 -1.28658 0.713124 0
M  V30 17911 H 1717.08 -4.1374 -0.536194 0
M  V30 17912 H 1715.71 -3.0801 -0.965892 0
M  V30 17913 H 1714.76 -3.53247 1.41141 0
M  V30 17914 H 1716.07 -4.70888 1.64518 0
M  V30 17915 H 1715.22 -6.06033 -0.284307 0
M  V30 17916 H 1713.96 -4.83841 -0.612289 0
M  V30 17917 H 1712.97 -5.2424 1.65689 0
M  V30 17918 H 1714.19 -6.4974 1.9752 0
M  V30 17919 H 1712.14 -6.55452 -0.268088 0
M  V30 17920 H 1712.06 -7.46329 1.20535 0
M  V30 17921 H 1713.32 -7.79474 0.0633069 0
M  V30 17922 N 1717.55 -0.769612 -1.37531 0
M  V30 17923 C 1718.8 -0.332309 -1.99349 0
M  V30 17924 C 1719.12 1.09432 -1.61399 0
M  V30 17925 O 1718.39 1.75102 -0.878415 0
M  V30 17926 H 1716.97 -0.119879 -0.737318 0
M  V30 17927 H 1719.63 -0.987265 -1.68045 0
M  V30 17928 H 1718.73 -0.408233 -3.09419 0
M  V30 17929 N 1719.03 1.48775 -0.519977 0
M  V30 17930 C 1720.26 2.07394 0.0161061 0
M  V30 17931 C 1720.68 1.37532 1.28322 0
M  V30 17932 O 1720.04 0.438049 1.75928 0
M  V30 17933 C 1720.09 3.59844 0.233382 0
M  V30 17934 O 1719.19 3.91235 1.30418 0
M  V30 17935 H 1718.53 0.663094 -0.0346678 0
M  V30 17936 H 1721.06 1.91323 -0.725029 0
M  V30 17937 H 1721.07 4.05409 0.45911 0
M  V30 17938 H 1719.75 4.10098 -0.69229 0
M  V30 17939 H 1718.32 3.5746 1.0619 0
M  V30 17940 N 1720.51 0.254649 1.55529 0
M  V30 17941 C 1721.73 -0.374795 2.03985 0
M  V30 17942 C 1722.16 -1.50188 1.13249 0
M  V30 17943 O 1721.52 -1.80855 0.126963 0
M  V30 17944 C 1721.56 -0.852635 3.50375 0
M  V30 17945 O 1720.67 -1.9616 3.6276 0
M  V30 17946 H 1720.01 -0.0806157 0.659088 0
M  V30 17947 H 1722.54 0.38297 2.00984 0
M  V30 17948 H 1722.55 -1.15381 3.91345 0
M  V30 17949 H 1721.22 -0.0279044 4.15891 0
M  V30 17950 H 1719.8 -1.66453 3.33688 0
M  V30 17951 N 1721.99 -1.57589 -0.0183649 0
M  V30 17952 C 1723.23 -1.89382 -0.705612 0
M  V30 17953 C 1723.56 -0.853698 -1.7532 0
M  V30 17954 O 1722.83 0.111322 -1.95583 0
M  V30 17955 H 1721.41 -0.698943 -0.263605 0
M  V30 17956 H 1724.07 -1.94891 0.0182168 0
M  V30 17957 H 1723.16 -2.88587 -1.18845 0
M  V30 17958 N 1723.46 0.290824 -1.54893 0
M  V30 17959 C 1724.71 1.02272 -1.74312 0
M  V30 17960 C 1725.03 1.87449 -0.537393 0
M  V30 17961 O 1724.3 1.90705 0.448135 0
M  V30 17962 H 1722.88 0.380592 -0.642774 0
M  V30 17963 H 1725.55 0.319353 -1.92266 0
M  V30 17964 H 1724.64 1.66997 -2.63663 0
M  V30 17965 N 1724.94 1.47523 0.554506 0
M  V30 17966 C 1726.35 1.48114 1.13662 0
M  V30 17967 C 1726.7 0.237321 1.94759 0
M  V30 17968 O 1725.83 -0.657558 2.06168 0
M  V30 17969 C 1726.42 2.68366 2.06797 0
M  V30 17970 C 1724.98 2.71908 2.60274 0
M  V30 17971 C 1724.13 2.41258 1.3671 0
M  V30 17972 H 1727.08 1.54994 0.34097 0
M  V30 17973 H 1727.1 2.4549 2.90714 0
M  V30 17974 H 1726.61 3.58877 1.47745 0
M  V30 17975 H 1724.72 1.85543 3.23117 0
M  V30 17976 H 1724.83 3.72673 3.01084 0
M  V30 17977 H 1723.19 1.91897 1.67474 0
M  V30 17978 H 1723.98 3.3398 0.794476 0
M  V30 17979 N 1726.42 -0.801453 1.357 0
M  V30 17980 C 1727.35 -1.92807 1.31711 0
M  V30 17981 C 1728.33 -1.69028 0.190642 0
M  V30 17982 O 1729.52 -1.90317 0.38641 0
M  V30 17983 C 1726.65 -3.29635 1.09352 0
M  V30 17984 C 1725.6 -3.67908 2.18695 0
M  V30 17985 C 1724.93 -5.02955 1.81494 0
M  V30 17986 C 1726.23 -3.77749 3.60698 0
M  V30 17987 H 1727.92 -1.96401 2.2598 0
M  V30 17988 H 1725.47 -0.943528 1.08782 0
M  V30 17989 H 1727.42 -4.08058 1.052 0
M  V30 17990 H 1726.14 -3.26396 0.115306 0
M  V30 17991 H 1724.8 -2.91775 2.21952 0
M  V30 17992 H 1724.45 -4.96225 0.822776 0
M  V30 17993 H 1724.15 -5.29533 2.54692 0
M  V30 17994 H 1725.67 -5.83811 1.78876 0
M  V30 17995 H 1727.09 -4.4639 3.59734 0
M  V30 17996 H 1725.49 -4.15801 4.327 0
M  V30 17997 H 1726.56 -2.79167 3.96477 0
M  V30 17998 N 1727.9 -1.19782 -1.02421 0
M  V30 17999 C 1728.83 -0.963553 -2.12692 0
M  V30 18000 C 1729.81 0.104769 -1.69777 0
M  V30 18001 O 1730.99 -0.0512017 -1.94132 0
M  V30 18002 C 1728.12 -0.506525 -3.43586 0
M  V30 18003 C 1727.08 -1.51722 -4.00206 0
M  V30 18004 C 1726.4 -0.917097 -5.26776 0
M  V30 18005 C 1727.7 -2.89879 -4.34474 0
M  V30 18006 H 1729.4 -1.88579 -2.32547 0
M  V30 18007 H 1726.94 -0.908111 -1.11756 0
M  V30 18008 H 1728.9 -0.329907 -4.20107 0
M  V30 18009 H 1727.62 0.451322 -3.23467 0
M  V30 18010 H 1726.28 -1.68106 -3.25785 0
M  V30 18011 H 1725.93 0.0484457 -5.02977 0
M  V30 18012 H 1725.63 -1.59204 -5.65622 0
M  V30 18013 H 1727.15 -0.751379 -6.05959 0
M  V30 18014 H 1728.57 -2.7705 -5.01913 0
M  V30 18015 H 1726.96 -3.54209 -4.84413 0
M  V30 18016 H 1728.03 -3.42179 -3.43571 0
M  V30 18017 N 1729.38 1.21606 -1.00248 0
M  V30 18018 C 1730.62 1.92326 -0.692091 0
M  V30 18019 C 1730.98 1.76196 0.76282 0
M  V30 18020 O 1732.18 2.41266 1.18508 0
M  V30 18021 C 1730.45 3.40099 -1.09853 0
M  V30 18022 S 1732.01 4.29304 -0.907961 0
M  V30 18023 H 1728.83 0.664561 -0.252744 0
M  V30 18024 H 1731.43 1.47181 -1.28678 0
M  V30 18025 H 1730.14 3.49355 -2.15359 0
M  V30 18026 H 1729.67 3.9026 -0.496031 0
M  V30 18027 H 1731.68 4.95811 0.196321 0
M  V30 18028 N 1730.86 0.776895 1.37121 0
M  V30 18029 C 1732.27 0.408311 1.8218 0
M  V30 18030 C 1732.62 -1.06621 1.64701 0
M  V30 18031 O 1731.74 -1.82621 1.16097 0
M  V30 18032 C 1732.34 0.734339 3.30746 0
M  V30 18033 C 1730.9 0.418746 3.74063 0
M  V30 18034 C 1730.04 0.97551 2.59575 0
M  V30 18035 H 1732.99 0.971111 1.25519 0
M  V30 18036 H 1733.02 0.0208557 3.80494 0
M  V30 18037 H 1732.53 1.80757 3.43436 0
M  V30 18038 H 1730.63 -0.646961 3.6694 0
M  V30 18039 H 1730.74 0.930597 4.69975 0
M  V30 18040 H 1729.11 0.399449 2.51548 0
M  V30 18041 H 1729.89 2.05425 2.75056 0
M  V30 18042 N 1732.33 -1.48497 0.527859 0
M  V30 18043 C 1733.3 -2.2809 -0.225312 0
M  V30 18044 C 1734.3 -1.35251 -0.869707 0
M  V30 18045 O 1735.49 -1.58163 -0.730086 0
M  V30 18046 C 1732.62 -3.14061 -1.32584 0
M  V30 18047 H 1733.81 -2.96139 0.473465 0
M  V30 18048 H 1731.36 -1.53703 0.283724 0
M  V30 18049 H 1732.1 -2.50638 -2.05794 0
M  V30 18050 H 1731.88 -3.82351 -0.868922 0
M  V30 18051 H 1733.37 -3.74106 -1.85566 0
M  V30 18052 N 1733.81 -0.262893 -1.55392 0
M  V30 18053 C 1735.06 0.35666 -1.98928 0
M  V30 18054 C 1735.38 1.5729 -1.1526 0
M  V30 18055 O 1734.65 1.94435 -0.239164 0
M  V30 18056 H 1733.23 0.134768 -0.734742 0
M  V30 18057 H 1735.89 -0.365394 -1.91444 0
M  V30 18058 H 1734.99 0.654895 -3.05152 0
M  V30 18059 N 1735.29 1.57597 0.0100073 0
M  V30 18060 C 1736.24 2.04265 1.01292 0
M  V30 18061 C 1737.22 0.93547 1.30911 0
M  V30 18062 O 1738.42 1.19929 1.30177 0
M  V30 18063 C 1735.54 2.54129 2.3081 0
M  V30 18064 C 1734.63 3.71704 2.04198 0
M  V30 18065 N 1735.02 4.83752 1.47709 0
M  V30 18066 C 1733.32 3.79443 2.34391 0
M  V30 18067 C 1734.02 5.65255 1.37339 0
M  V30 18068 N 1733 5.1095 1.85556 0
M  V30 18069 H 1736.8 2.8831 0.570489 0
M  V30 18070 H 1734.31 1.60958 0.215919 0
M  V30 18071 H 1736.31 2.85832 3.03489 0
M  V30 18072 H 1734.97 1.71497 2.75715 0
M  V30 18073 H 1735.98 5.04805 1.15723 0
M  V30 18074 H 1732.66 3.07648 2.82239 0
M  V30 18075 H 1734.05 6.65293 0.939918 0
M  V30 18076 N 1736.77 -0.282606 1.55045 0
M  V30 18077 C 1737.73 -1.33228 1.86502 0
M  V30 18078 C 1738.73 -1.42814 0.738977 0
M  V30 18079 O 1739.92 -1.42131 1.0072 0
M  V30 18080 C 1737.05 -2.71488 2.06173 0
M  V30 18081 H 1738.25 -1.06571 2.80326 0
M  V30 18082 H 1735.8 -0.520199 1.47389 0
M  V30 18083 H 1736.53 -3.03339 1.14699 0
M  V30 18084 H 1736.32 -2.65917 2.8815 0
M  V30 18085 H 1737.81 -3.47348 2.31817 0
M  V30 18086 N 1738.25 -1.47815 -0.546675 0
M  V30 18087 C 1739.49 -1.5521 -1.30529 0
M  V30 18088 C 1739.82 -0.218129 -1.92971 0
M  V30 18089 O 1739.1 0.774298 -1.78423 0
M  V30 18090 C 1739.38 -2.67799 -2.40739 0
M  V30 18091 C 1739.24 -4.10847 -1.83097 0
M  V30 18092 C 1740.55 -2.76238 -3.42608 0
M  V30 18093 H 1737.67 -0.564998 -0.473229 0
M  V30 18094 H 1740.32 -1.79917 -0.610713 0
M  V30 18095 H 1738.47 -2.46863 -2.99985 0
M  V30 18096 H 1740.14 -4.43177 -1.28031 0
M  V30 18097 H 1738.38 -4.1863 -1.13716 0
M  V30 18098 H 1739.05 -4.85418 -2.62818 0
M  V30 18099 H 1741.53 -2.95156 -2.93296 0
M  V30 18100 H 1740.4 -3.56774 -4.17137 0
M  V30 18101 H 1740.66 -1.83719 -4.02119 0
M  V30 18102 N 1739.72 0.794246 -1.36123 0
M  V30 18103 C 1740.97 1.54885 -1.29827 0
M  V30 18104 C 1741.29 1.94608 0.123517 0
M  V30 18105 O 1740.56 1.6457 1.06272 0
M  V30 18106 H 1739.14 0.574398 -0.477573 0
M  V30 18107 H 1741.8 0.946658 -1.70365 0
M  V30 18108 H 1740.9 2.45863 -1.92244 0
M  V30 18109 N 1741.2 1.20323 1.01785 0
M  V30 18110 C 1742.45 1.00688 1.74771 0
M  V30 18111 C 1742.76 -0.461769 1.90071 0
M  V30 18112 O 1743.97 -0.777214 2.60138 0
M  V30 18113 C 1742.43 1.75278 3.14334 0
M  V30 18114 C 1742.03 3.26227 3.0705 0
M  V30 18115 C 1743.78 1.64006 3.91538 0
M  V30 18116 C 1741.68 3.9336 4.41613 0
M  V30 18117 H 1740.61 0.373123 0.655206 0
M  V30 18118 H 1743.27 1.43931 1.13825 0
M  V30 18119 H 1741.65 1.24821 3.75813 0
M  V30 18120 H 1742.82 3.83888 2.54885 0
M  V30 18121 H 1741.14 3.37898 2.43339 0
M  V30 18122 H 1743.73 2.11503 4.91091 0
M  V30 18123 H 1744.08 0.59605 4.12011 0
M  V30 18124 H 1744.61 2.11869 3.36684 0
M  V30 18125 H 1741.35 4.97907 4.26344 0
M  V30 18126 H 1740.87 3.40488 4.93789 0
M  V30 18127 H 1742.55 3.97541 5.10461 0
M  V30 18128 N 1742.68 -1.21073 1.00892 0
M  V30 18129 C 1743.93 -1.90242 0.693851 0
M  V30 18130 C 1744.25 -1.78359 -0.77578 0
M  V30 18131 O 1743.51 -1.15694 -1.57839 0
M  V30 18132 C 1743.81 -3.41148 1.0655 0
M  V30 18133 C 1743.47 -3.73228 2.53005 0
M  V30 18134 C 1742.14 -3.81694 2.93024 0
M  V30 18135 C 1744.49 -3.88132 3.47855 0
M  V30 18136 C 1741.82 -4.02515 4.26847 0
M  V30 18137 C 1744.17 -4.10461 4.81357 0
M  V30 18138 C 1742.83 -4.17155 5.21093 0
M  V30 18139 H 1742.1 -0.696144 0.253898 0
M  V30 18140 H 1744.75 -1.43499 1.26808 0
M  V30 18141 H 1743.05 -3.89653 0.409575 0
M  V30 18142 H 1744.75 -3.92949 0.799525 0
M  V30 18143 H 1741.34 -3.67233 2.20994 0
M  V30 18144 H 1745.53 -3.80954 3.18101 0
M  V30 18145 H 1740.78 -4.0593 4.57199 0
M  V30 18146 H 1744.96 -4.20935 5.54785 0
M  V30 18147 H 1742.58 -4.33041 6.24804 0
M  V30 18148 N 1744.16 -0.784156 -1.36707 0
M  V30 18149 C 1745.57 -0.465219 -1.52669 0
M  V30 18150 C 1745.77 1.01729 -1.73935 0
M  V30 18151 O 1744.83 1.80289 -1.76783 0
M  V30 18152 C 1746.14 -1.29109 -2.71572 0
M  V30 18153 C 1747.69 -1.28424 -2.8544 0
M  V30 18154 C 1748.17 -2.09373 -4.07341 0
M  V30 18155 N 1749.66 -2.06792 -4.14477 0
M  V30 18156 C 1750.39 -2.66199 -5.07864 0
M  V30 18157 N 1749.89 -3.34445 -6.06728 0
M  V30 18158 N 1751.68 -2.55962 -5.0044 0
M  V30 18159 H 1743.83 -1.74456 -1.21156 0
M  V30 18160 H 1746.1 -0.741286 -0.59093 0
M  V30 18161 H 1745.8 -2.34219 -2.62363 0
M  V30 18162 H 1745.68 -0.928764 -3.65587 0
M  V30 18163 H 1748.06 -0.241077 -2.94114 0
M  V30 18164 H 1748.14 -1.68629 -1.92348 0
M  V30 18165 H 1747.79 -3.13718 -3.99429 0
M  V30 18166 H 1747.72 -1.66542 -4.99571 0
M  V30 18167 H 1750.21 -1.57118 -3.43689 0
M  V30 18168 H 1750.52 -3.77118 -6.74538 0
M  V30 18169 H 1748.87 -3.38546 -6.06969 0
M  V30 18170 H 1752.06 -2.02251 -4.22152 0
M  V30 18171 H 1752.23 -3.02553 -5.73032 0
M  V30 18172 N 1745.64 1.48215 -0.535727 0
M  V30 18173 C 1746.6 2.28206 0.213212 0
M  V30 18174 C 1747.6 1.3571 0.862522 0
M  V30 18175 O 1748.79 1.58547 0.721688 0
M  V30 18176 C 1745.92 3.1476 1.30917 0
M  V30 18177 H 1747.11 2.95884 -0.489163 0
M  V30 18178 H 1744.67 1.53551 -0.291872 0
M  V30 18179 H 1745.4 2.51726 2.04462 0
M  V30 18180 H 1745.19 3.82806 0.848633 0
M  V30 18181 H 1746.68 3.75085 1.83579 0
M  V30 18182 N 1747.11 0.27113 1.5525 0
M  V30 18183 C 1748.08 -0.604946 2.21072 0
M  V30 18184 C 1749.08 -1.08438 1.18735 0
M  V30 18185 O 1750.27 -0.985192 1.43665 0
M  V30 18186 C 1747.4 -1.83416 2.87353 0
M  V30 18187 H 1748.59 -0.0302981 2.99885 0
M  V30 18188 H 1746.15 0.0217204 1.56285 0
M  V30 18189 H 1746.88 -2.44942 2.12542 0
M  V30 18190 H 1746.67 -1.49834 3.62343 0
M  V30 18191 H 1748.16 -2.45724 3.37653 0
M  V30 18192 N 1748.59 -1.576 -0.00164943 0
M  V30 18193 C 1749.84 -1.90778 -0.68786 0
M  V30 18194 C 1750.17 -0.872138 -1.73515 0
M  V30 18195 O 1749.45 0.109349 -1.94192 0
M  V30 18196 C 1749.73 -3.34539 -1.3325 0
M  V30 18197 C 1749.58 -4.48819 -0.296862 0
M  V30 18198 C 1750.9 -3.77693 -2.25911 0
M  V30 18199 H 1748.02 -0.69381 -0.24859 0
M  V30 18200 H 1750.66 -1.89936 0.0493059 0
M  V30 18201 H 1748.81 -3.35388 -1.9608 0
M  V30 18202 H 1750.48 -4.60106 0.331635 0
M  V30 18203 H 1748.73 -4.32123 0.38105 0
M  V30 18204 H 1749.4 -5.46362 -0.786927 0
M  V30 18205 H 1751.87 -3.78386 -1.73099 0
M  V30 18206 H 1750.75 -4.79037 -2.67983 0
M  V30 18207 H 1751.01 -3.11469 -3.1375 0
M  V30 18208 N 1750.07 0.274379 -1.55193 0
M  V30 18209 C 1751.31 1.01383 -1.77485 0
M  V30 18210 C 1751.67 1.83549 -0.563373 0
M  V30 18211 O 1752.88 2.60457 -0.664517 0
M  V30 18212 C 1751.15 1.87414 -3.0432 0
M  V30 18213 S 1752.71 2.67644 -3.47725 0
M  V30 18214 H 1749.52 0.341489 -0.623623 0
M  V30 18215 H 1752.13 0.284398 -1.9342 0
M  V30 18216 H 1750.83 1.25974 -3.90588 0
M  V30 18217 H 1750.36 2.6468 -2.91046 0
M  V30 18218 H 1752.38 3.89914 -3.06889 0
M  V30 18219 N 1751.55 1.48103 0.538828 0
M  V30 18220 C 1752.78 1.59316 1.32008 0
M  V30 18221 C 1753.19 0.250107 1.87136 0
M  V30 18222 O 1752.55 -0.759358 1.65952 0
M  V30 18223 C 1752.6 2.63287 2.47714 0
M  V30 18224 O 1752.32 3.92379 1.9486 0
M  V30 18225 C 1753.82 2.84856 3.39664 0
M  V30 18226 H 1751.04 0.53743 0.401758 0
M  V30 18227 H 1753.59 1.93864 0.65092 0
M  V30 18228 H 1751.74 2.31621 3.10532 0
M  V30 18229 H 1752.15 4.49346 2.70534 0
M  V30 18230 H 1753.63 3.61426 4.17223 0
M  V30 18231 H 1754.11 1.93352 3.9435 0
M  V30 18232 H 1754.71 3.17791 2.82647 0
M  V30 18233 N 1753.03 -0.787016 1.36542 0
M  V30 18234 C 1754.44 -1.08541 1.17008 0
M  V30 18235 C 1754.64 -2.015 -0.00419378 0
M  V30 18236 O 1753.7 -2.43481 -0.668826 0
M  V30 18237 C 1755.01 -1.69758 2.48199 0
M  V30 18238 C 1756.56 -1.82088 2.54584 0
M  V30 18239 C 1757.03 -2.46719 3.85868 0
M  V30 18240 N 1758.53 -2.54185 3.87227 0
M  V30 18241 C 1759.26 -3.05008 4.85549 0
M  V30 18242 N 1758.76 -3.56121 5.94264 0
M  V30 18243 N 1760.55 -3.03742 4.72966 0
M  V30 18244 H 1752.7 -0.16948 2.11723 0
M  V30 18245 H 1754.96 -0.137802 0.937931 0
M  V30 18246 H 1754.67 -1.08922 3.34408 0
M  V30 18247 H 1754.54 -2.69237 2.6418 0
M  V30 18248 H 1756.93 -2.42061 1.68792 0
M  V30 18249 H 1757.01 -0.814071 2.42501 0
M  V30 18250 H 1756.66 -1.87389 4.72068 0
M  V30 18251 H 1756.59 -3.47975 3.95248 0
M  V30 18252 H 1759.08 -2.17995 3.08685 0
M  V30 18253 H 1759.39 -3.93259 6.65257 0
M  V30 18254 H 1757.73 -3.54266 5.9793 0
M  V30 18255 H 1760.93 -2.63102 3.87163 0
M  V30 18256 H 1761.1 -3.43043 5.49751 0
M  V30 18257 N 1754.5 -1.20861 -1.01145 0
M  V30 18258 C 1755.75 -1.0199 -1.74478 0
M  V30 18259 C 1756.07 0.4484 -1.89775 0
M  V30 18260 O 1755.34 1.32386 -1.44398 0
M  V30 18261 H 1753.92 -0.37439 -0.646406 0
M  V30 18262 H 1756.59 -1.5206 -1.21917 0
M  V30 18263 H 1755.68 -1.48251 -2.74642 0
M  V30 18264 N 1755.98 1.20536 -1.01532 0
M  V30 18265 C 1757.23 1.90152 -0.704973 0
M  V30 18266 C 1757.56 1.78569 0.763343 0
M  V30 18267 O 1756.84 1.16906 1.55445 0
M  V30 18268 C 1757.12 3.41589 -1.1397 0
M  V30 18269 C 1756.97 3.62113 -2.66823 0
M  V30 18270 C 1758.29 4.34335 -0.709984 0
M  V30 18271 H 1755.41 0.690524 -0.257577 0
M  V30 18272 H 1758.05 1.41959 -1.26284 0
M  V30 18273 H 1756.2 3.82765 -0.66505 0
M  V30 18274 H 1757.87 3.30197 -3.2213 0
M  V30 18275 H 1756.12 3.05626 -3.07855 0
M  V30 18276 H 1756.79 4.68261 -2.92294 0
M  V30 18277 H 1759.26 4.00799 -1.11801 0
M  V30 18278 H 1758.14 5.38915 -1.04221 0
M  V30 18279 H 1758.4 4.40391 0.388408 0
M  V30 18280 N 1757.46 0.791395 1.36289 0
M  V30 18281 C 1758.42 0.197069 2.28351 0
M  V30 18282 C 1759.42 -0.606748 1.48913 0
M  V30 18283 O 1760.61 -0.427453 1.68874 0
M  V30 18284 C 1757.75 -0.727009 3.33058 0
M  V30 18285 H 1758.94 1.00885 2.82422 0
M  V30 18286 H 1756.49 0.560959 1.45887 0
M  V30 18287 H 1757.23 -1.56306 2.84146 0
M  V30 18288 H 1757.01 -0.152537 3.91803 0
M  V30 18289 H 1758.5 -1.13765 4.01805 0
M  V30 18290 N 1758.94 -1.47929 0.54358 0
M  V30 18291 C 1759.89 -2.29827 -0.211706 0
M  V30 18292 C 1760.86 -1.38217 -0.921154 0
M  V30 18293 O 1762.04 -1.67181 -0.919522 0
M  V30 18294 C 1759.18 -3.21889 -1.24425 0
M  V30 18295 C 1758.29 -4.28583 -0.542264 0
M  V30 18296 C 1757.43 -5.0781 -1.55892 0
M  V30 18297 C 1756.47 -6.06293 -0.841146 0
M  V30 18298 N 1755.61 -6.78528 -1.80399 0
M  V30 18299 H 1760.45 -2.93896 0.492835 0
M  V30 18300 H 1757.98 -1.44875 0.254873 0
M  V30 18301 H 1759.94 -3.73674 -1.85535 0
M  V30 18302 H 1758.57 -2.59713 -1.917 0
M  V30 18303 H 1757.62 -3.79959 0.183069 0
M  V30 18304 H 1758.93 -4.98796 0.0206703 0
M  V30 18305 H 1758.09 -5.63678 -2.24393 0
M  V30 18306 H 1756.83 -4.37468 -2.15576 0
M  V30 18307 H 1755.83 -5.49616 -0.14214 0
M  V30 18308 H 1757.06 -6.78639 -0.250232 0
M  V30 18309 H 1755 -6.10927 -2.38965 0
M  V30 18310 H 1754.92 -7.44863 -1.29285 0
M  V30 18311 H 1756.19 -7.38978 -2.48056 0
M  V30 18312 N 1760.42 -0.27936 -1.55104 0
M  V30 18313 C 1761.38 0.593214 -2.2139 0
M  V30 18314 C 1762.38 1.07807 -1.19308 0
M  V30 18315 O 1763.57 0.97756 -1.44185 0
M  V30 18316 C 1760.7 1.81889 -2.88321 0
M  V30 18317 H 1761.9 0.0143941 -2.99897 0
M  V30 18318 H 1759.45 -0.0300083 -1.56271 0
M  V30 18319 H 1760.18 2.43811 -2.13838 0
M  V30 18320 H 1759.97 1.4791 -3.63132 0
M  V30 18321 H 1761.46 2.4393 -3.38951 0
M  V30 18322 N 1761.9 1.57599 -0.0067085 0
M  V30 18323 C 1763.14 1.9114 0.677733 0
M  V30 18324 C 1763.47 0.881328 1.7305 0
M  V30 18325 O 1762.75 -0.099049 1.94248 0
M  V30 18326 C 1763.03 3.35241 1.31474 0
M  V30 18327 C 1762.89 4.4897 0.273055 0
M  V30 18328 C 1764.2 3.78886 2.23905 0
M  V30 18329 H 1761.32 0.695119 0.244907 0
M  V30 18330 H 1763.97 1.89907 -0.059378 0
M  V30 18331 H 1762.12 3.36423 1.94299 0
M  V30 18332 H 1763.79 4.59924 -0.356031 0
M  V30 18333 H 1762.03 4.31915 -0.403961 0
M  V30 18334 H 1762.7 5.46772 0.757941 0
M  V30 18335 H 1765.18 3.79299 1.7109 0
M  V30 18336 H 1764.05 4.80451 2.65439 0
M  V30 18337 H 1764.31 3.13129 3.12094 0
M  V30 18338 N 1763.37 -0.266145 1.55336 0
M  V30 18339 C 1764.65 -1.01852 1.6699 0
M  V30 18340 C 1765.03 -2.04053 0.54088 0
M  V30 18341 O 1764.38 -2.23859 -0.458193 0
M  V30 18342 C 1764.59 -1.66917 3.06496 0
M  V30 18343 C 1765.94 -2.17824 3.64469 0
M  V30 18344 O 1766.96 -1.76892 3.09173 0
M  V30 18345 O 1765.82 -2.92922 4.61367 0
M  V30 18346 H 1762.91 -0.472871 0.67847 0
M  V30 18347 H 1765.46 -0.261458 1.67674 0
M  V30 18348 H 1764.23 -0.928941 3.80114 0
M  V30 18349 H 1763.85 -2.49292 3.0974 0
M  V30 18350 N 1764.85 -1.48386 -0.530967 0
M  V30 18351 C 1766.1 -1.56354 -1.28685 0
M  V30 18352 C 1766.43 -0.237022 -1.9305 0
M  V30 18353 O 1765.68 0.772595 -1.79804 0
M  V30 18354 C 1765.98 -2.64979 -2.39835 0
M  V30 18355 C 1765.65 -4.07446 -1.93129 0
M  V30 18356 C 1764.31 -4.46222 -1.80108 0
M  V30 18357 C 1766.66 -4.96732 -1.5782 0
M  V30 18358 C 1763.99 -5.7209 -1.30113 0
M  V30 18359 C 1766.34 -6.23088 -1.09288 0
M  V30 18360 C 1765 -6.60722 -0.948835 0
M  V30 18361 H 1764.27 -0.572139 -0.470891 0
M  V30 18362 H 1766.92 -1.82099 -0.592626 0
M  V30 18363 H 1765.23 -2.3309 -3.14923 0
M  V30 18364 H 1766.92 -2.68359 -2.97967 0
M  V30 18365 H 1763.51 -3.76822 -2.04213 0
M  V30 18366 H 1767.7 -4.67452 -1.6674 0
M  V30 18367 H 1762.95 -5.99974 -1.17647 0
M  V30 18368 H 1767.13 -6.91669 -0.810376 0
M  V30 18369 H 1764.75 -7.5814 -0.559235 0
M  V30 18370 N 1766.33 0.779763 -1.36958 0
M  V30 18371 C 1767.58 1.53326 -1.31049 0
M  V30 18372 C 1767.89 1.95317 0.105139 0
M  V30 18373 O 1769.1 2.69983 0.286652 0
M  V30 18374 C 1767.55 2.76832 -2.29983 0
M  V30 18375 C 1767.16 2.41972 -3.77033 0
M  V30 18376 C 1768.91 3.54794 -2.3307 0
M  V30 18377 C 1766.81 3.61931 -4.67718 0
M  V30 18378 H 1765.74 0.57561 -0.48702 0
M  V30 18379 H 1768.39 0.854801 -1.62374 0
M  V30 18380 H 1766.78 3.46527 -1.91665 0
M  V30 18381 H 1767.95 1.80112 -4.24142 0
M  V30 18382 H 1766.26 1.77201 -3.76814 0
M  V30 18383 H 1768.86 4.4394 -2.98029 0
M  V30 18384 H 1769.2 3.94077 -1.34199 0
M  V30 18385 H 1769.74 2.92088 -2.70054 0
M  V30 18386 H 1766.48 3.27736 -5.67688 0
M  V30 18387 H 1766 4.22923 -4.25319 0
M  V30 18388 H 1767.68 4.28842 -4.84462 0
M  V30 18389 N 1767.81 1.21396 1.00503 0
M  V30 18390 C 1769.22 1.02983 1.55728 0
M  V30 18391 C 1769.57 -0.410383 1.9186 0
M  V30 18392 O 1768.69 -1.29358 1.7348 0
M  V30 18393 C 1769.29 1.86316 2.8297 0
M  V30 18394 C 1767.85 1.72235 3.34682 0
M  V30 18395 C 1767 1.8353 2.07875 0
M  V30 18396 H 1769.95 1.35418 0.827499 0
M  V30 18397 H 1769.97 1.37339 3.5485 0
M  V30 18398 H 1769.48 2.91131 2.56641 0
M  V30 18399 H 1767.58 0.701047 3.65945 0
M  V30 18400 H 1767.69 2.54198 4.06103 0
M  V30 18401 H 1766.06 1.26838 2.20872 0
M  V30 18402 H 1766.84 2.89852 1.83958 0
M  V30 18403 N 1769.29 -1.19996 1.0217 0
M  V30 18404 C 1770.53 -1.89776 0.715047 0
M  V30 18405 C 1770.86 -1.78971 -0.753862 0
M  V30 18406 O 1770.14 -1.17729 -1.54823 0
M  V30 18407 C 1770.42 -3.4098 1.15779 0
M  V30 18408 C 1770.28 -3.60693 2.68739 0
M  V30 18409 C 1771.59 -4.33953 0.733008 0
M  V30 18410 H 1768.71 -0.689148 0.261236 0
M  V30 18411 H 1771.36 -1.41287 1.27035 0
M  V30 18412 H 1769.51 -3.82407 0.68534 0
M  V30 18413 H 1771.18 -3.28484 3.23876 0
M  V30 18414 H 1769.42 -3.0399 3.09472 0
M  V30 18415 H 1770.09 -4.66704 2.94773 0
M  V30 18416 H 1772.57 -4.002 1.13925 0
M  V30 18417 H 1771.44 -5.38355 1.07077 0
M  V30 18418 H 1771.7 -4.4059 -0.365047 0
M  V30 18419 N 1770.76 -0.798611 -1.35867 0
M  V30 18420 C 1771.67 -0.204758 -2.33705 0
M  V30 18421 C 1772.69 0.648001 -1.61484 0
M  V30 18422 O 1773.87 0.561628 -1.93411 0
M  V30 18423 C 1770.93 0.643225 -3.40681 0
M  V30 18424 C 1769.99 -0.229099 -4.28688 0
M  V30 18425 C 1769.22 0.578508 -5.30555 0
M  V30 18426 O 1769.45 1.81382 -5.40793 0
M  V30 18427 O 1768.38 -0.0264291 -6.01894 0
M  V30 18428 H 1772.21 -1.01392 -2.86275 0
M  V30 18429 H 1769.79 -0.560242 -1.38498 0
M  V30 18430 H 1771.67 1.12648 -4.06065 0
M  V30 18431 H 1770.35 1.43012 -2.90395 0
M  V30 18432 H 1769.26 -0.759314 -3.66313 0
M  V30 18433 H 1770.59 -0.979736 -4.82351 0
M  V30 18434 N 1772.24 1.47639 -0.551417 0
M  V30 18435 C 1773.19 2.31626 0.212654 0
M  V30 18436 C 1774.18 1.42567 0.914925 0
M  V30 18437 O 1775.39 1.59363 0.836869 0
M  V30 18438 H 1771.76 0.746898 0.0874493 0
M  V30 18439 H 1773.74 2.93923 -0.514976 0
M  V30 18440 C 1772.48 3.25098 1.23316 0
M  V30 18441 H 1771.81 3.93585 0.702196 0
M  V30 18442 H 1773.25 3.86707 1.73878 0
M  V30 18443 C 1771.71 2.48209 2.27802 0
M  V30 18444 O 1772.24 2.22235 3.34626 0
M  V30 18445 N 1770.44 2.09321 2.01577 0
M  V30 18446 H 1769.99 2.30645 1.14719 0
M  V30 18447 H 1769.95 1.58191 2.71704 0
M  V30 18448 N 1773.72 0.287581 1.54954 0
M  V30 18449 C 1774.65 -0.587855 2.25979 0
M  V30 18450 C 1775.63 -1.14884 1.25442 0
M  V30 18451 O 1776.82 -1.18067 1.54188 0
M  V30 18452 C 1773.95 -1.76618 2.99037 0
M  V30 18453 C 1772.9 -1.33617 4.06609 0
M  V30 18454 C 1772.23 -2.59859 4.67309 0
M  V30 18455 C 1773.53 -0.477219 5.20115 0
M  V30 18456 H 1775.22 0.00450183 2.994 0
M  V30 18457 H 1772.77 0.00360521 1.44 0
M  V30 18458 H 1774.72 -2.38461 3.4744 0
M  V30 18459 H 1773.44 -2.38457 2.23172 0
M  V30 18460 H 1772.1 -0.74088 3.59036 0
M  V30 18461 H 1771.75 -3.19983 3.88098 0
M  V30 18462 H 1771.45 -2.31793 5.3995 0
M  V30 18463 H 1772.97 -3.22528 5.18467 0
M  V30 18464 H 1774.39 -1.00096 5.64494 0
M  V30 18465 H 1772.79 -0.290913 5.99394 0
M  V30 18466 H 1773.86 0.500993 4.82305 0
M  V30 18467 N 1775.2 -1.57593 0.0150662 0
M  V30 18468 C 1776.11 -2.12807 -0.987437 0
M  V30 18469 C 1777.12 -1.07691 -1.3667 0
M  V30 18470 O 1778.3 -1.39674 -1.45097 0
M  V30 18471 C 1775.37 -2.63276 -2.2558 0
M  V30 18472 C 1774.43 -3.83053 -1.93827 0
M  V30 18473 C 1773.66 -4.31106 -3.14616 0
M  V30 18474 O 1773.88 -3.78405 -4.26809 0
M  V30 18475 O 1772.82 -5.23104 -2.97734 0
M  V30 18476 H 1776.64 -2.98715 -0.548015 0
M  V30 18477 H 1774.23 -1.47991 -0.20469 0
M  V30 18478 H 1776.11 -2.95869 -3.00066 0
M  V30 18479 H 1774.78 -1.80459 -2.68731 0
M  V30 18480 H 1773.69 -3.55409 -1.1677 0
M  V30 18481 H 1775.02 -4.6699 -1.55502 0
M  V30 18482 N 1776.68 0.257904 -1.55475 0
M  V30 18483 C 1777.9 1.00531 -1.80834 0
M  V30 18484 C 1778.32 1.79369 -0.589263 0
M  V30 18485 O 1777.68 1.77068 0.441935 0
M  V30 18486 C 1777.73 1.95194 -3.04272 0
M  V30 18487 O 1777.45 1.19548 -4.21473 0
M  V30 18488 C 1778.95 2.81624 -3.42349 0
M  V30 18489 H 1776.17 0.296315 -0.602029 0
M  V30 18490 H 1778.71 0.284118 -2.02517 0
M  V30 18491 H 1776.87 2.62756 -2.84672 0
M  V30 18492 H 1777.28 1.83483 -4.9136 0
M  V30 18493 H 1778.76 3.43815 -4.31851 0
M  V30 18494 H 1779.23 3.52172 -2.62434 0
M  V30 18495 H 1779.84 2.19531 -3.64261 0
M  V30 18496 N 1778.15 1.48666 0.52309 0
M  V30 18497 C 1779.38 1.60707 1.30311 0
M  V30 18498 C 1779.8 0.269941 1.8686 0
M  V30 18499 O 1779.15 -0.741714 1.66748 0
M  V30 18500 C 1779.21 2.65899 2.44908 0
M  V30 18501 O 1778.93 3.94423 1.90688 0
M  V30 18502 C 1780.43 2.88443 3.36624 0
M  V30 18503 H 1777.65 0.541661 0.396035 0
M  V30 18504 H 1780.19 1.94544 0.630322 0
M  V30 18505 H 1778.35 2.34902 3.08058 0
M  V30 18506 H 1778.76 4.5219 2.65753 0
M  V30 18507 H 1780.23 3.65831 4.13366 0
M  V30 18508 H 1780.71 1.97524 3.92277 0
M  V30 18509 H 1781.32 3.20771 2.7926 0
M  V30 18510 N 1779.63 -0.772489 1.37369 0
M  V30 18511 C 1780.57 -1.89299 1.2744 0
M  V30 18512 C 1781.54 -1.61859 0.155088 0
M  V30 18513 O 1782.73 -1.85604 0.329169 0
M  V30 18514 C 1779.85 -3.24506 0.970225 0
M  V30 18515 C 1778.9 -3.70859 2.10632 0
M  V30 18516 S 1779.73 -3.84618 3.72598 0
M  V30 18517 C 1780.89 -5.22674 3.44329 0
M  V30 18518 H 1781.12 -1.97433 2.22278 0
M  V30 18519 H 1778.66 -0.933512 1.22983 0
M  V30 18520 H 1780.61 -4.02598 0.801553 0
M  V30 18521 H 1779.27 -3.14075 0.0393408 0
M  V30 18522 H 1778.47 -4.68879 1.84848 0
M  V30 18523 H 1778.07 -2.99866 2.23509 0
M  V30 18524 H 1780.36 -6.07818 2.99272 0
M  V30 18525 H 1781.3 -5.53471 4.41674 0
M  V30 18526 H 1781.71 -4.90577 2.79276 0
M  V30 18527 N 1781.11 -1.21927 -0.998575 0
M  V30 18528 C 1782.53 -0.978007 -1.26124 0
M  V30 18529 C 1782.73 0.3318 -1.98749 0
M  V30 18530 O 1781.78 1.05585 -2.29364 0
M  V30 18531 C 1783.1 -2.17291 -2.07858 0
M  V30 18532 C 1784.64 -2.21586 -2.21062 0
M  V30 18533 C 1785.12 -3.40613 -3.06181 0
M  V30 18534 N 1786.61 -3.40739 -3.13769 0
M  V30 18535 C 1787.34 -4.29488 -3.79905 0
M  V30 18536 N 1786.84 -5.28445 -4.48015 0
M  V30 18537 N 1788.63 -4.17279 -3.76609 0
M  V30 18538 H 1780.78 -2.06149 -0.51151 0
M  V30 18539 H 1783.05 -0.903039 -0.288487 0
M  V30 18540 H 1782.75 -3.12246 -1.61851 0
M  V30 18541 H 1782.63 -2.16883 -3.08612 0
M  V30 18542 H 1785.01 -1.27183 -2.66286 0
M  V30 18543 H 1785.1 -2.26035 -1.19757 0
M  V30 18544 H 1784.74 -4.35313 -2.61659 0
M  V30 18545 H 1784.67 -3.33403 -4.07615 0
M  V30 18546 H 1787.16 -2.69128 -2.65289 0
M  V30 18547 H 1787.47 -5.92454 -4.96203 0
M  V30 18548 H 1785.82 -5.32364 -4.46782 0
M  V30 18549 H 1789.01 -3.39226 -3.22557 0
M  V30 18550 H 1789.18 -4.86651 -4.27873 0
M  V30 18551 N 1782.59 1.19452 -1.02805 0
M  V30 18552 C 1783.81 1.93616 -0.743485 0
M  V30 18553 C 1784.24 1.74934 0.691342 0
M  V30 18554 O 1783.6 1.05111 1.47721 0
M  V30 18555 C 1783.64 3.43451 -1.0988 0
M  V30 18556 O 1782.75 4.11829 -0.216978 0
M  V30 18557 H 1782.09 0.60448 -0.274771 0
M  V30 18558 H 1784.62 1.51554 -1.37451 0
M  V30 18559 H 1784.63 3.94115 -1.05535 0
M  V30 18560 H 1783.3 3.5637 -2.14413 0
M  V30 18561 H 1781.88 3.71533 -0.318954 0
M  V30 18562 N 1784.07 0.805805 1.35442 0
M  V30 18563 C 1785.48 0.446863 1.81273 0
M  V30 18564 C 1785.83 -1.03104 1.66925 0
M  V30 18565 O 1784.95 -1.80117 1.19945 0
M  V30 18566 C 1785.55 0.80433 3.29114 0
M  V30 18567 C 1784.11 0.497997 3.73091 0
M  V30 18568 C 1783.25 1.03035 2.57447 0
M  V30 18569 H 1786.21 0.997517 1.23431 0
M  V30 18570 H 1786.23 0.101559 3.80364 0
M  V30 18571 H 1785.74 1.88001 3.39525 0
M  V30 18572 H 1783.84 -0.568982 3.6823 0
M  V30 18573 H 1783.95 1.03008 4.67896 0
M  V30 18574 H 1782.32 0.452716 2.50644 0
M  V30 18575 H 1783.1 2.11213 2.70636 0
M  V30 18576 N 1785.54 -1.47344 0.559239 0
M  V30 18577 C 1786.79 -2.02768 0.0359962 0
M  V30 18578 C 1787.12 -1.43247 -1.31126 0
M  V30 18579 O 1786.4 -0.588793 -1.85374 0
M  V30 18580 C 1786.68 -3.60058 -0.0549111 0
M  V30 18581 C 1786.53 -4.30008 1.31958 0
M  V30 18582 C 1787.85 -4.33359 -0.767331 0
M  V30 18583 H 1784.97 -0.736856 0.0145552 0
M  V30 18584 H 1787.61 -1.75751 0.72192 0
M  V30 18585 H 1785.76 -3.83208 -0.639076 0
M  V30 18586 H 1787.44 -4.18193 1.94711 0
M  V30 18587 H 1785.68 -3.90283 1.89372 0
M  V30 18588 H 1786.35 -5.38605 1.20867 0
M  V30 18589 H 1788.83 -4.15215 -0.27131 0
M  V30 18590 H 1787.7 -5.4304 -0.799905 0
M  V30 18591 H 1787.96 -4.02725 -1.82387 0
M  V30 18592 N 1787.02 -0.295795 -1.54799 0
M  V30 18593 C 1788.27 0.315007 -2.00035 0
M  V30 18594 C 1788.6 1.54295 -1.1842 0
M  V30 18595 O 1787.85 1.94134 -0.247101 0
M  V30 18596 C 1788.15 0.721225 -3.50047 0
M  V30 18597 C 1787.82 -0.404395 -4.49083 0
M  V30 18598 C 1786.48 -0.713419 -4.75882 0
M  V30 18599 C 1788.83 -1.16185 -5.08085 0
M  V30 18600 C 1786.16 -1.78311 -5.58947 0
M  V30 18601 C 1788.51 -2.22142 -5.92314 0
M  V30 18602 C 1787.18 -2.53657 -6.17426 0
M  V30 18603 H 1786.45 0.115269 -0.73198 0
M  V30 18604 H 1789.09 -0.41381 -1.86976 0
M  V30 18605 H 1787.4 1.53005 -3.60689 0
M  V30 18606 H 1789.09 1.20491 -3.82469 0
M  V30 18607 H 1785.68 -0.153436 -4.28325 0
M  V30 18608 H 1789.87 -0.936365 -4.87387 0
M  V30 18609 H 1785.12 -2.03206 -5.76643 0
M  V30 18610 H 1789.3 -2.81296 -6.3706 0
M  V30 18611 H 1786.93 -3.36676 -6.81581 0
M  V30 18612 N 1788.5 1.57583 -0.0234236 0
M  V30 18613 C 1789.73 1.95861 0.666797 0
M  V30 18614 C 1790.14 0.899616 1.65989 0
M  V30 18615 O 1789.5 -0.119162 1.82111 0
M  V30 18616 C 1789.55 3.34198 1.37818 0
M  V30 18617 O 1789.27 4.36035 0.424887 0
M  V30 18618 C 1790.77 3.87074 2.16075 0
M  V30 18619 H 1787.99 0.645213 0.184233 0
M  V30 18620 H 1790.54 2.04338 -0.0814987 0
M  V30 18621 H 1788.69 3.26958 2.07792 0
M  V30 18622 H 1789.11 5.162 0.929394 0
M  V30 18623 H 1790.58 4.8623 2.61312 0
M  V30 18624 H 1791.06 3.21017 2.99741 0
M  V30 18625 H 1791.66 3.97565 1.5107 0
M  V30 18626 N 1789.98 -0.249655 1.5561 0
M  V30 18627 C 1791.26 -1.00075 1.68061 0
M  V30 18628 C 1791.64 -2.03468 0.562492 0
M  V30 18629 O 1790.98 -2.24332 -0.434424 0
M  V30 18630 C 1791.19 -1.63657 3.08249 0
M  V30 18631 C 1792.54 -2.13946 3.66759 0
M  V30 18632 O 1793.57 -1.73603 3.11031 0
M  V30 18633 O 1792.43 -2.88012 4.64447 0
M  V30 18634 H 1789.52 -0.465648 0.683448 0
M  V30 18635 H 1792.07 -0.243659 1.67942 0
M  V30 18636 H 1790.84 -0.888572 3.81078 0
M  V30 18637 H 1790.46 -2.45993 3.12367 0
M  V30 18638 N 1791.46 -1.48941 -0.515198 0
M  V30 18639 C 1792.41 -1.65027 -1.63917 0
M  V30 18640 C 1793.4 -0.516402 -1.61337 0
M  V30 18641 O 1794.61 -0.695598 -1.66016 0
M  V30 18642 H 1790.98 -0.520121 -0.543119 0
M  V30 18643 H 1792.95 -2.59397 -1.47498 0
M  V30 18644 C 1791.7 -1.72093 -3.02125 0
M  V30 18645 H 1791.02 -2.5871 -3.0481 0
M  V30 18646 H 1792.46 -1.87387 -3.80345 0
M  V30 18647 C 1790.92 -0.462688 -3.33708 0
M  V30 18648 O 1791.45 0.417925 -3.9952 0
M  V30 18649 N 1789.66 -0.329909 -2.88721 0
M  V30 18650 H 1789.21 -1.0475 -2.35341 0
M  V30 18651 H 1789.16 0.510912 -3.10221 0
M  V30 18652 N 1792.94 0.765193 -1.37777 0
M  V30 18653 C 1794.16 1.55948 -1.3673 0
M  V30 18654 C 1794.59 1.8805 0.0435817 0
M  V30 18655 O 1793.94 1.49718 1.02246 0
M  V30 18656 C 1793.99 2.84245 -2.21895 0
M  V30 18657 O 1793.1 3.78903 -1.62807 0
M  V30 18658 H 1792.44 0.472127 -0.466897 0
M  V30 18659 H 1794.97 0.946556 -1.81388 0
M  V30 18660 H 1794.98 3.33284 -2.35342 0
M  V30 18661 H 1793.65 2.60209 -3.24444 0
M  V30 18662 H 1792.23 3.37568 -1.58437 0
M  V30 18663 N 1794.41 1.22455 0.992094 0
M  V30 18664 C 1795.64 1.07677 1.77258 0
M  V30 18665 C 1796.06 -0.368377 1.84458 0
M  V30 18666 O 1795.42 -1.26614 1.29763 0
M  V30 18667 C 1795.47 1.69353 3.18358 0
M  V30 18668 O 1794.57 0.947746 4.01362 0
M  V30 18669 H 1793.91 0.378141 0.545807 0
M  V30 18670 H 1796.44 1.62269 1.2462 0
M  V30 18671 H 1796.45 1.7411 3.68985 0
M  V30 18672 H 1795.13 2.74515 3.12433 0
M  V30 18673 H 1793.71 0.976245 3.59894 0
M  V30 18674 N 1795.89 -1.18905 1.03437 0
M  V30 18675 C 1797.3 -1.70402 0.762893 0
M  V30 18676 C 1797.65 -1.82633 -0.716908 0
M  V30 18677 O 1796.78 -1.50136 -1.55847 0
M  V30 18678 C 1797.37 -3.09501 1.37822 0
M  V30 18679 C 1795.93 -3.58235 1.1552 0
M  V30 18680 C 1795.08 -2.34953 1.47284 0
M  V30 18681 H 1798.03 -1.03669 1.2016 0
M  V30 18682 H 1798.05 -3.7246 0.778079 0
M  V30 18683 H 1797.56 -3.00566 2.45523 0
M  V30 18684 H 1795.66 -3.72475 0.096646 0
M  V30 18685 H 1795.78 -4.42034 1.84778 0
M  V30 18686 H 1794.14 -2.38557 0.892333 0
M  V30 18687 H 1794.92 -2.28643 2.5608 0
M  V30 18688 N 1797.37 -0.812977 -1.35013 0
M  V30 18689 C 1798.78 -0.45647 -1.81034 0
M  V30 18690 C 1799.13 1.02217 -1.6747 0
M  V30 18691 O 1798.26 1.79478 -1.20898 0
M  V30 18692 C 1798.85 -0.821773 -3.28683 0
M  V30 18693 C 1797.41 -0.517776 -3.72822 0
M  V30 18694 C 1796.56 -1.04399 -2.56897 0
M  V30 18695 H 1799.51 -1.00405 -1.22901 0
M  V30 18696 H 1799.53 -0.12173 -3.80305 0
M  V30 18697 H 1799.04 -1.89799 -3.38523 0
M  V30 18698 H 1797.14 0.549446 -3.68527 0
M  V30 18699 H 1797.26 -1.05488 -4.67343 0
M  V30 18700 H 1795.62 -0.466002 -2.50401 0
M  V30 18701 H 1796.4 -2.12645 -2.69512 0
M  V30 18702 N 1798.85 1.47045 -0.567045 0
M  V30 18703 C 1800.09 2.02746 -0.046749 0
M  V30 18704 C 1800.43 1.4394 1.30364 0
M  V30 18705 O 1799.7 0.598616 1.85059 0
M  V30 18706 C 1799.98 3.60082 0.0358156 0
M  V30 18707 C 1799.84 4.29302 -1.34237 0
M  V30 18708 C 1801.16 4.3376 0.744338 0
M  V30 18709 H 1798.28 0.736769 -0.0184627 0
M  V30 18710 H 1800.92 1.75365 -0.73123 0
M  V30 18711 H 1799.07 3.83541 0.618745 0
M  V30 18712 H 1800.74 4.17155 -1.96926 0
M  V30 18713 H 1798.98 3.89273 -1.91439 0
M  V30 18714 H 1799.65 5.37956 -1.23722 0
M  V30 18715 H 1802.13 4.15353 0.249287 0
M  V30 18716 H 1801.01 5.43457 0.771095 0
M  V30 18717 H 1801.27 4.03686 1.80249 0
M  V30 18718 N 1800.33 0.304 1.5464 0
M  V30 18719 C 1801.57 -0.304845 2.00496 0
M  V30 18720 C 1801.9 -1.53308 1.19206 0
M  V30 18721 O 1801.18 -1.92627 0.269305 0
M  V30 18722 C 1801.46 -0.658462 3.54029 0
M  V30 18723 C 1801.32 0.579125 4.46056 0
M  V30 18724 C 1802.63 -1.4838 4.14332 0
M  V30 18725 H 1799.75 -0.109327 0.728846 0
M  V30 18726 H 1802.4 0.416694 1.85374 0
M  V30 18727 H 1800.55 -1.27319 3.67045 0
M  V30 18728 H 1802.22 1.21758 4.44941 0
M  V30 18729 H 1800.46 1.21179 4.16531 0
M  V30 18730 H 1801.13 0.287518 5.51251 0
M  V30 18731 H 1803.61 -0.964367 4.04771 0
M  V30 18732 H 1802.48 -1.70001 5.21911 0
M  V30 18733 H 1802.74 -2.47394 3.66399 0
M  V30 18734 N 1801.8 -1.57568 0.0317802 0
M  V30 18735 C 1803.21 -1.79693 -0.506679 0
M  V30 18736 C 1803.57 -0.94229 -1.72091 0
M  V30 18737 O 1802.69 -0.153435 -2.15855 0
M  V30 18738 C 1803.29 -3.259 -0.925978 0
M  V30 18739 C 1801.84 -3.49012 -1.40953 0
M  V30 18740 C 1800.99 -2.74746 -0.375509 0
M  V30 18741 H 1803.94 -1.56592 0.257798 0
M  V30 18742 H 1803.96 -3.35757 -1.79017 0
M  V30 18743 H 1803.48 -3.88077 -0.0420441 0
M  V30 18744 H 1801.58 -2.9209 -2.31331 0
M  V30 18745 H 1801.69 -4.57725 -1.41508 0
M  V30 18746 H 1800.05 -2.40303 -0.844187 0
M  V30 18747 H 1800.84 -3.39639 0.500005 0
M  V30 18748 N 1803.28 0.241399 -1.5574 0
M  V30 18749 C 1804.21 1.32197 -1.87234 0
M  V30 18750 C 1805.23 1.44024 -0.759015 0
M  V30 18751 O 1806.42 1.45275 -1.03718 0
M  V30 18752 C 1803.52 2.69994 -2.04833 0
M  V30 18753 C 1802.69 2.80366 -3.35729 0
M  V30 18754 C 1801.75 3.99043 -3.43003 0
M  V30 18755 O 1800.77 3.88312 -4.16176 0
M  V30 18756 N 1801.98 5.12462 -2.72696 0
M  V30 18757 H 1804.74 1.05514 -2.80512 0
M  V30 18758 H 1802.3 0.431491 -1.56044 0
M  V30 18759 H 1804.29 3.47733 -2.07035 0
M  V30 18760 H 1802.86 2.89361 -1.18274 0
M  V30 18761 H 1802.08 1.89258 -3.45796 0
M  V30 18762 H 1803.37 2.8425 -4.21995 0
M  V30 18763 H 1802.77 5.24073 -2.12988 0
M  V30 18764 H 1801.33 5.88316 -2.80584 0
M  V30 18765 N 1804.76 1.49212 0.507292 0
M  V30 18766 C 1805.99 1.62343 1.29072 0
M  V30 18767 C 1806.41 0.292387 1.85814 0
M  V30 18768 O 1805.77 -0.739145 1.65549 0
M  V30 18769 C 1805.82 2.69017 2.40129 0
M  V30 18770 O 1804.92 2.27753 3.43806 0
M  V30 18771 H 1804.26 0.543591 0.38132 0
M  V30 18772 H 1806.79 1.95358 0.607997 0
M  V30 18773 H 1806.8 2.90992 2.85985 0
M  V30 18774 H 1805.48 3.65638 1.98195 0
M  V30 18775 H 1804.05 2.16084 3.03912 0
M  V30 18776 N 1806.24 -0.757876 1.38181 0
M  V30 18777 C 1807.49 -1.51688 1.34153 0
M  V30 18778 C 1807.81 -1.94375 -0.0697487 0
M  V30 18779 O 1807.07 -1.65404 -1.04594 0
M  V30 18780 C 1807.37 -2.78548 2.23933 0
M  V30 18781 C 1807.03 -2.54845 3.71975 0
M  V30 18782 C 1805.7 -2.48089 4.12317 0
M  V30 18783 C 1808.05 -2.34027 4.65704 0
M  V30 18784 C 1805.38 -2.18526 5.44485 0
M  V30 18785 C 1807.73 -2.05986 5.98124 0
M  V30 18786 C 1806.39 -1.97683 6.37556 0
M  V30 18787 H 1805.66 -0.555064 0.490902 0
M  V30 18788 H 1808.31 -0.871823 1.70504 0
M  V30 18789 H 1806.61 -3.47682 1.80623 0
M  V30 18790 H 1808.31 -3.36487 2.18122 0
M  V30 18791 H 1804.9 -2.60972 3.39988 0
M  V30 18792 H 1809.08 -2.38228 4.35386 0
M  V30 18793 H 1804.34 -2.10603 5.73983 0
M  V30 18794 H 1808.51 -1.8888 6.70296 0
M  V30 18795 H 1806.14 -1.7454 7.39892 0
M  V30 18796 N 1807.72 -1.22979 -0.985586 0
M  V30 18797 C 1808.65 -0.964185 -2.07933 0
M  V30 18798 C 1809.66 0.0599162 -1.6269 0
M  V30 18799 O 1810.85 -0.174984 -1.7764 0
M  V30 18800 C 1807.95 -0.429879 -3.36163 0
M  V30 18801 C 1807.12 -1.51293 -4.10401 0
M  V30 18802 C 1806.18 -0.984411 -5.1691 0
M  V30 18803 O 1805.21 -1.67225 -5.44081 0
M  V30 18804 N 1806.41 0.190439 -5.80188 0
M  V30 18805 H 1809.18 -1.90582 -2.31297 0
M  V30 18806 H 1806.74 -1.13767 -1.15189 0
M  V30 18807 H 1808.73 -0.0614639 -4.04653 0
M  V30 18808 H 1807.3 0.417049 -3.09806 0
M  V30 18809 H 1806.52 -2.05434 -3.36438 0
M  V30 18810 H 1807.81 -2.24141 -4.56769 0
M  V30 18811 H 1807.2 0.765928 -5.60491 0
M  V30 18812 H 1805.76 0.500168 -6.49878 0
M  V30 18813 N 1809.19 1.18355 -1.04066 0
M  V30 18814 C 1810.44 1.88614 -0.745148 0
M  V30 18815 C 1810.77 1.80147 0.725294 0
M  V30 18816 O 1810.05 1.20177 1.5293 0
M  V30 18817 C 1810.33 3.39095 -1.2119 0
M  V30 18818 C 1810.18 3.56372 -2.74444 0
M  V30 18819 C 1811.5 4.32732 -0.801953 0
M  V30 18820 H 1808.62 0.684905 -0.272166 0
M  V30 18821 H 1811.26 1.39248 -1.29267 0
M  V30 18822 H 1809.41 3.81269 -0.746091 0
M  V30 18823 H 1811.09 3.2329 -3.29061 0
M  V30 18824 H 1809.33 2.99028 -3.14269 0
M  V30 18825 H 1810 4.61956 -3.0216 0
M  V30 18826 H 1812.48 3.98337 -1.20278 0
M  V30 18827 H 1811.35 5.36583 -1.15628 0
M  V30 18828 H 1811.61 4.41115 0.294907 0
M  V30 18829 N 1810.67 0.820125 1.3458 0
M  V30 18830 C 1811.64 0.245462 2.27882 0
M  V30 18831 C 1812.64 -0.575025 1.50167 0
M  V30 18832 O 1813.83 -0.391536 1.69743 0
M  V30 18833 C 1810.96 -0.656199 3.34525 0
M  V30 18834 H 1812.15 1.06853 2.80218 0
M  V30 18835 H 1809.7 0.591777 1.44664 0
M  V30 18836 H 1810.44 -1.50244 2.87398 0
M  V30 18837 H 1810.22 -0.0693951 3.92039 0
M  V30 18838 H 1811.71 -1.05216 4.04128 0
M  V30 18839 N 1812.15 -1.46743 0.574835 0
M  V30 18840 C 1813.1 -2.27259 -0.183667 0
M  V30 18841 C 1814.08 -1.35406 -0.869139 0
M  V30 18842 O 1815.28 -1.59637 -0.764534 0
M  V30 18843 C 1812.41 -3.21578 -1.20178 0
M  V30 18844 C 1811.49 -4.20914 -0.518826 0
M  V30 18845 N 1811.88 -5.04044 0.421132 0
M  V30 18846 C 1810.18 -4.39293 -0.770561 0
M  V30 18847 C 1810.88 -5.75898 0.819539 0
M  V30 18848 N 1809.86 -5.43333 0.170429 0
M  V30 18849 H 1813.66 -2.8892 0.538761 0
M  V30 18850 H 1811.17 -1.57497 0.396049 0
M  V30 18851 H 1813.17 -3.77961 -1.75929 0
M  V30 18852 H 1811.83 -2.61476 -1.92511 0
M  V30 18853 H 1812.84 -5.11742 0.796245 0
M  V30 18854 H 1809.52 -3.90347 -1.48107 0
M  V30 18855 H 1810.91 -6.52745 1.59293 0
M  V30 18856 N 1813.63 -0.312197 -1.54477 0
M  V30 18857 C 1814.56 0.551829 -2.26886 0
M  V30 18858 C 1815.54 1.12874 -1.27254 0
M  V30 18859 O 1816.72 1.15599 -1.56046 0
M  V30 18860 C 1813.85 1.71839 -3.01809 0
M  V30 18861 C 1812.81 1.27131 -4.08683 0
M  V30 18862 C 1812.13 2.52392 -4.71384 0
M  V30 18863 C 1813.43 0.394413 -5.20809 0
M  V30 18864 H 1815.13 -0.0521331 -2.99355 0
M  V30 18865 H 1812.67 -0.0265138 -1.43976 0
M  V30 18866 H 1814.63 2.32903 -3.5119 0
M  V30 18867 H 1813.35 2.34876 -2.26938 0
M  V30 18868 H 1812.01 0.683666 -3.60169 0
M  V30 18869 H 1811.66 3.13768 -3.93139 0
M  V30 18870 H 1811.36 2.23174 -5.43569 0
M  V30 18871 H 1812.88 3.14239 -5.23533 0
M  V30 18872 H 1814.3 0.911031 -5.66015 0
M  V30 18873 H 1812.69 0.195517 -5.99781 0
M  V30 18874 H 1813.76 -0.577661 -4.81447 0
M  V30 18875 N 1815.11 1.57549 -0.040136 0
M  V30 18876 C 1816.06 2.07384 0.947418 0
M  V30 18877 C 1817.04 0.976645 1.27869 0
M  V30 18878 O 1818.23 1.2401 1.26296 0
M  V30 18879 C 1815.36 2.61343 2.22609 0
M  V30 18880 C 1814.45 3.78012 1.9227 0
M  V30 18881 N 1814.84 4.88206 1.32244 0
M  V30 18882 C 1813.14 3.86708 2.22201 0
M  V30 18883 C 1813.84 5.69338 1.19286 0
M  V30 18884 N 1812.81 5.16595 1.69207 0
M  V30 18885 H 1816.62 2.89979 0.478476 0
M  V30 18886 H 1814.13 1.61564 0.164602 0
M  V30 18887 H 1816.13 2.95343 2.94242 0
M  V30 18888 H 1814.79 1.80182 2.70119 0
M  V30 18889 H 1815.8 5.08232 0.996048 0
M  V30 18890 H 1812.47 3.16472 2.72308 0
M  V30 18891 H 1813.86 6.67947 0.727784 0
M  V30 18892 N 1816.58 -0.233136 1.55866 0
M  V30 18893 C 1817.55 -1.27227 1.90646 0
M  V30 18894 C 1818.55 -1.4039 0.784038 0
M  V30 18895 O 1819.74 -1.38854 1.05191 0
M  V30 18896 C 1816.87 -2.64791 2.14706 0
M  V30 18897 H 1818.06 -0.975986 2.83575 0
M  V30 18898 H 1815.62 -0.473045 1.4897 0
M  V30 18899 H 1816.35 -2.99537 1.24291 0
M  V30 18900 H 1816.14 -2.56615 2.96464 0
M  V30 18901 H 1817.63 -3.39797 2.4275 0
M  V30 18902 N 1818.06 -1.49479 -0.499372 0
M  V30 18903 C 1819.47 -1.52231 -1.08087 0
M  V30 18904 C 1819.83 -0.309442 -1.93744 0
M  V30 18905 O 1818.95 0.580587 -2.08466 0
M  V30 18906 C 1819.55 -2.75857 -1.96694 0
M  V30 18907 C 1818.1 -2.81381 -2.50003 0
M  V30 18908 C 1817.25 -2.46166 -1.27662 0
M  V30 18909 H 1820.2 -1.56153 -0.283211 0
M  V30 18910 H 1820.22 -2.56111 -2.81403 0
M  V30 18911 H 1819.74 -3.64114 -1.34324 0
M  V30 18912 H 1817.84 -1.97408 -3.16008 0
M  V30 18913 H 1817.95 -3.83591 -2.87045 0
M  V30 18914 H 1816.31 -1.97981 -1.60236 0
M  V30 18915 H 1817.1 -3.36699 -0.669974 0
M  V30 18916 N 1819.54 0.750537 -1.38581 0
M  V30 18917 C 1820.77 1.53978 -1.38196 0
M  V30 18918 C 1821.18 1.8878 0.0274976 0
M  V30 18919 O 1820.54 1.52997 0.994894 0
M  V30 18920 C 1820.59 2.83702 -2.24043 0
M  V30 18921 O 1820.31 2.50384 -3.59499 0
M  V30 18922 C 1821.81 3.77823 -2.31872 0
M  V30 18923 H 1819.03 0.476345 -0.472585 0
M  V30 18924 H 1821.58 0.928634 -1.82199 0
M  V30 18925 H 1819.73 3.41187 -1.83494 0
M  V30 18926 H 1820.15 3.33605 -4.04732 0
M  V30 18927 H 1821.62 4.65788 -2.96218 0
M  V30 18928 H 1822.1 4.18474 -1.33327 0
M  V30 18929 H 1822.7 3.26262 -2.72824 0
M  V30 18930 N 1821.02 1.235 0.979051 0
M  V30 18931 C 1822.27 1.0658 1.71713 0
M  V30 18932 C 1822.59 -0.397927 1.90897 0
M  V30 18933 O 1821.86 -1.28511 1.47857 0
M  V30 18934 H 1820.44 0.391397 0.636253 0
M  V30 18935 H 1823.1 1.55239 1.17843 0
M  V30 18936 H 1822.2 1.5548 2.70615 0
M  V30 18937 N 1822.5 -1.17802 1.04693 0
M  V30 18938 C 1823.72 -1.92408 0.774194 0
M  V30 18939 C 1824.15 -1.76012 -0.663424 0
M  V30 18940 O 1823.51 -1.07447 -1.4603 0
M  V30 18941 C 1823.55 -3.4166 1.1533 0
M  V30 18942 O 1822.66 -4.11431 0.282469 0
M  V30 18943 H 1822 -0.600033 0.284353 0
M  V30 18944 H 1824.53 -1.49348 1.39844 0
M  V30 18945 H 1824.54 -3.92386 1.11791 0
M  V30 18946 H 1823.21 -3.52914 2.20056 0
M  V30 18947 H 1821.79 -3.70979 0.378021 0
M  V30 18948 N 1823.98 -0.827251 -1.34143 0
M  V30 18949 C 1825.22 -0.41656 -1.9776 0
M  V30 18950 C 1825.54 1.02488 -1.65895 0
M  V30 18951 O 1824.81 1.71219 -0.951891 0
M  V30 18952 H 1823.39 -0.151044 -0.73157 0
M  V30 18953 H 1826.06 -1.05765 -1.63706 0
M  V30 18954 H 1825.15 -0.539101 -3.07409 0
M  V30 18955 N 1825.45 1.46436 -0.582609 0
M  V30 18956 C 1826.4 2.30308 0.150697 0
M  V30 18957 C 1827.37 1.40611 0.884185 0
M  V30 18958 O 1828.56 1.6956 0.874874 0
M  V30 18959 C 1825.7 3.25074 1.15847 0
M  V30 18960 C 1824.81 4.2987 0.428442 0
M  V30 18961 C 1823.94 5.11765 1.42373 0
M  V30 18962 C 1822.98 6.0831 0.680103 0
M  V30 18963 N 1822.12 6.83073 1.62345 0
M  V30 18964 H 1826.96 2.92487 -0.570583 0
M  V30 18965 H 1824.5 1.44148 -0.293195 0
M  V30 18966 H 1826.45 3.78462 1.75563 0
M  V30 18967 H 1825.08 2.64704 1.84747 0
M  V30 18968 H 1824.14 3.7934 -0.283744 0
M  V30 18969 H 1825.45 4.98566 -0.15291 0
M  V30 18970 H 1824.6 5.69429 2.09369 0
M  V30 18971 H 1823.34 4.4303 2.03902 0
M  V30 18972 H 1822.35 5.498 -0.00363067 0
M  V30 18973 H 1823.57 6.79064 0.0702152 0
M  V30 18974 H 1821.52 6.17048 2.22684 0
M  V30 18975 H 1821.43 7.48029 1.0949 0
M  V30 18976 H 1822.7 7.45295 2.28376 0
M  V30 18977 N 1826.93 0.320385 1.54309 0
M  V30 18978 C 1828.16 -0.28794 2.05391 0
M  V30 18979 C 1828.58 -1.45249 1.19517 0
M  V30 18980 O 1827.94 -1.80154 0.203556 0
M  V30 18981 C 1827.99 -0.703261 3.53676 0
M  V30 18982 O 1827.09 -1.80598 3.70753 0
M  V30 18983 H 1826.43 -0.052589 0.661914 0
M  V30 18984 H 1828.96 0.46787 1.99179 0
M  V30 18985 H 1828.97 -0.986793 3.95887 0
M  V30 18986 H 1827.65 0.148514 4.15635 0
M  V30 18987 H 1826.22 -1.5215 3.40448 0
M  V30 18988 N 1828.41 -1.57525 0.0484906 0
M  V30 18989 C 1829.64 -1.96897 -0.635553 0
M  V30 18990 C 1830.05 -0.925909 -1.64537 0
M  V30 18991 O 1829.41 0.0901742 -1.82277 0
M  V30 18992 C 1829.46 -3.36348 -1.32484 0
M  V30 18993 O 1829.18 -4.36656 -0.355464 0
M  V30 18994 C 1830.68 -3.90463 -2.0989 0
M  V30 18995 H 1827.9 -0.648062 -0.173945 0
M  V30 18996 H 1830.45 -2.04182 0.113997 0
M  V30 18997 H 1828.6 -3.30222 -2.02564 0
M  V30 18998 H 1829.02 -5.17613 -0.847153 0
M  V30 18999 H 1830.49 -4.90326 -2.53543 0
M  V30 19000 H 1830.97 -3.25745 -2.94596 0
M  V30 19001 H 1831.57 -3.99918 -1.44726 0
M  V30 19002 N 1829.89 0.224867 -1.55988 0
M  V30 19003 C 1830.83 1.27865 -1.92144 0
M  V30 19004 C 1831.8 1.46741 -0.778228 0
M  V30 19005 O 1832.99 1.60364 -1.03383 0
M  V30 19006 C 1830.13 2.62468 -2.24063 0
M  V30 19007 C 1829.24 2.51419 -3.51301 0
M  V30 19008 C 1828.38 3.78523 -3.72684 0
M  V30 19009 C 1827.42 3.62182 -4.93448 0
M  V30 19010 N 1826.55 4.81228 -5.11237 0
M  V30 19011 H 1831.39 0.96331 -2.82001 0
M  V30 19012 H 1828.93 0.464362 -1.39578 0
M  V30 19013 H 1830.89 3.40848 -2.4058 0
M  V30 19014 H 1829.52 2.92105 -1.37384 0
M  V30 19015 H 1828.57 1.64491 -3.42997 0
M  V30 19016 H 1829.88 2.35263 -4.39833 0
M  V30 19017 H 1829.04 4.65346 -3.89279 0
M  V30 19018 H 1827.78 3.976 -2.82428 0
M  V30 19019 H 1826.78 2.73743 -4.76807 0
M  V30 19020 H 1828.01 3.44579 -5.85186 0
M  V30 19021 H 1825.95 5.00625 -4.23923 0
M  V30 19022 H 1825.87 4.67787 -5.93895 0
M  V30 19023 H 1827.14 5.69487 -5.32264 0
M  V30 19024 N 1831.37 1.49742 0.491438 0
M  V30 19025 C 1832.61 1.59947 1.24679 0
M  V30 19026 C 1832.94 0.289598 1.92029 0
M  V30 19027 O 1832.22 -0.707544 1.81174 0
M  V30 19028 C 1832.5 2.7655 2.30634 0
M  V30 19029 C 1832.36 4.1736 1.67723 0
M  V30 19030 C 1833.67 2.88764 3.3212 0
M  V30 19031 H 1830.79 0.582173 0.451934 0
M  V30 19032 H 1833.44 1.8206 0.543517 0
M  V30 19033 H 1831.59 2.57826 2.90616 0
M  V30 19034 H 1833.26 4.47623 1.11495 0
M  V30 19035 H 1831.5 4.22562 0.981 0
M  V30 19036 H 1832.17 4.94838 2.44621 0
M  V30 19037 H 1834.65 3.05838 2.82139 0
M  V30 19038 H 1833.52 3.7201 4.03608 0
M  V30 19039 H 1833.78 1.98517 3.95023 0
M  V30 19040 N 1832.84 -0.743177 1.38977 0
M  V30 19041 C 1834.26 -1.32104 1.3193 0
M  V30 19042 C 1834.61 -1.9619 -0.0201331 0
M  V30 19043 O 1833.73 -1.95764 -0.922245 0
M  V30 19044 C 1834.33 -2.40204 2.3893 0
M  V30 19045 C 1832.89 -2.93684 2.35428 0
M  V30 19046 C 1832.03 -1.67168 2.21247 0
M  V30 19047 H 1834.98 -0.541283 1.49184 0
M  V30 19048 H 1835 -3.20397 2.05246 0
M  V30 19049 H 1834.52 -1.93532 3.36403 0
M  V30 19050 H 1832.62 -3.44658 1.41568 0
M  V30 19051 H 1832.73 -3.47355 3.29971 0
M  V30 19052 H 1831.09 -1.91193 1.68278 0
M  V30 19053 H 1831.88 -1.22559 3.20678 0
M  V30 19054 N 1834.32 -1.24018 -0.972487 0
M  V30 19055 C 1835.29 -1.02941 -2.04782 0
M  V30 19056 C 1836.29 0.0115861 -1.60796 0
M  V30 19057 O 1837.48 -0.228922 -1.72689 0
M  V30 19058 C 1834.61 -0.559246 -3.36282 0
M  V30 19059 H 1835.8 -1.98379 -2.24913 0
M  V30 19060 H 1833.35 -1.06173 -1.14704 0
M  V30 19061 H 1834.09 0.398545 -3.21842 0
M  V30 19062 H 1833.87 -1.31054 -3.6955 0
M  V30 19063 H 1835.36 -0.432669 -4.15353 0
M  V30 19064 N 1835.8 1.17245 -1.05316 0
M  V30 19065 C 1836.76 2.19508 -0.659467 0
M  V30 19066 C 1837.76 1.58169 0.289697 0
M  V30 19067 O 1838.95 1.74045 0.0734019 0
M  V30 19068 C 1836.09 3.40886 0.0311886 0
M  V30 19069 H 1837.28 2.55852 -1.5646 0
M  V30 19070 H 1834.83 1.31348 -0.847193 0
M  V30 19071 H 1835.57 3.10088 0.949535 0
M  V30 19072 H 1835.35 3.86655 -0.651191 0
M  V30 19073 H 1836.84 4.16573 0.292702 0
M  V30 19074 N 1837.28 0.834353 1.33702 0
M  V30 19075 C 1838.51 0.440589 2.01847 0
M  V30 19076 C 1838.92 -0.961513 1.62947 0
M  V30 19077 O 1838.26 -1.63556 0.836377 0
M  V30 19078 C 1838.32 0.476396 3.5633 0
M  V30 19079 C 1837.99 1.83382 4.18593 0
M  V30 19080 C 1838.98 2.79638 4.3829 0
M  V30 19081 C 1836.67 2.12543 4.55116 0
M  V30 19082 C 1838.66 4.0322 4.93652 0
M  V30 19083 C 1836.35 3.36382 5.10187 0
M  V30 19084 C 1837.35 4.31537 5.294 0
M  V30 19085 O 1837.03 5.53187 5.833 0
M  V30 19086 H 1836.77 0.173726 0.653296 0
M  V30 19087 H 1839.32 1.1272 1.71707 0
M  V30 19088 H 1837.55 -0.266969 3.85777 0
M  V30 19089 H 1839.24 0.101088 4.05774 0
M  V30 19090 H 1840.01 2.58409 4.10427 0
M  V30 19091 H 1835.88 1.39274 4.39459 0
M  V30 19092 H 1839.43 4.77502 5.08564 0
M  V30 19093 H 1835.33 3.5747 5.3748 0
M  V30 19094 H 1836.09 5.54864 6.01721 0
M  V30 19095 N 1838.76 -1.46125 0.590367 0
M  V30 19096 C 1839.72 -2.2884 -0.128368 0
M  V30 19097 C 1840.72 -1.38818 -0.81156 0
M  V30 19098 O 1841.91 -1.61117 -0.662347 0
M  V30 19099 C 1839.04 -3.19402 -1.19144 0
M  V30 19100 H 1840.23 -2.93864 0.598641 0
M  V30 19101 H 1837.79 -1.52362 0.34866 0
M  V30 19102 H 1838.52 -2.59141 -1.94978 0
M  V30 19103 H 1838.31 -3.85692 -0.705973 0
M  V30 19104 H 1839.8 -3.8164 -1.69532 0
M  V30 19105 N 1840.23 -0.328564 -1.54137 0
M  V30 19106 C 1841.2 0.52248 -2.23165 0
M  V30 19107 C 1842.2 1.03956 -1.22677 0
M  V30 19108 O 1843.39 0.931193 -1.47222 0
M  V30 19109 C 1840.52 1.72624 -2.93962 0
M  V30 19110 H 1841.71 -0.081023 -2.99791 0
M  V30 19111 H 1839.27 -0.0797096 -1.56097 0
M  V30 19112 H 1840 2.36885 -2.21486 0
M  V30 19113 H 1839.79 1.36283 -3.67654 0
M  V30 19114 H 1841.28 2.33023 -3.4654 0
M  V30 19115 N 1841.71 1.57497 -0.0568439 0
M  V30 19116 C 1842.64 2.08817 0.94488 0
M  V30 19117 C 1843.66 1.01717 1.27112 0
M  V30 19118 O 1844.85 1.2927 1.23092 0
M  V30 19119 C 1841.95 2.52104 2.26488 0
M  V30 19120 C 1841.12 3.82606 2.11971 0
M  V30 19121 C 1840.18 4.12145 3.27144 0
M  V30 19122 O 1839.2 4.81978 3.02797 0
M  V30 19123 N 1840.41 3.64505 4.51792 0
M  V30 19124 H 1843.17 2.95384 0.506814 0
M  V30 19125 H 1840.73 1.61383 0.129259 0
M  V30 19126 H 1842.72 2.68938 3.02415 0
M  V30 19127 H 1841.29 1.70756 2.61842 0
M  V30 19128 H 1840.51 3.75299 1.20601 0
M  V30 19129 H 1841.8 4.68055 1.99505 0
M  V30 19130 H 1841.2 3.08061 4.74462 0
M  V30 19131 H 1839.76 3.86566 5.24795 0
M  V30 19132 N 1843.19 -0.216591 1.56105 0
M  V30 19133 C 1844.44 -0.938392 1.78993 0
M  V30 19134 C 1844.76 -1.84671 0.626215 0
M  V30 19135 O 1844.03 -1.92626 -0.356636 0
M  V30 19136 H 1842.61 -0.349491 0.660201 0
M  V30 19137 H 1845.27 -0.227256 1.93571 0
M  V30 19138 H 1844.37 -1.54227 2.71331 0
M  V30 19139 N 1844.67 -1.5 -0.48349 0
M  V30 19140 C 1845.9 -1.63867 -1.25821 0
M  V30 19141 C 1846.31 -0.316335 -1.86537 0
M  V30 19142 O 1845.65 0.710307 -1.69412 0
M  V30 19143 C 1845.71 -2.66251 -2.41559 0
M  V30 19144 C 1845.38 -4.10141 -2.01577 0
M  V30 19145 C 1846.37 -4.964 -1.5454 0
M  V30 19146 C 1844.06 -4.55983 -2.10677 0
M  V30 19147 C 1846.05 -6.26546 -1.17129 0
M  V30 19148 C 1843.74 -5.86137 -1.72877 0
M  V30 19149 C 1844.74 -6.71243 -1.2618 0
M  V30 19150 O 1844.42 -7.98969 -0.888988 0
M  V30 19151 H 1844.16 -0.554155 -0.387154 0
M  V30 19152 H 1846.71 -1.96893 -0.585005 0
M  V30 19153 H 1844.94 -2.28442 -3.12011 0
M  V30 19154 H 1846.63 -2.69466 -3.03551 0
M  V30 19155 H 1847.4 -4.62205 -1.46942 0
M  V30 19156 H 1843.27 -3.89895 -2.45974 0
M  V30 19157 H 1846.82 -6.92927 -0.806093 0
M  V30 19158 H 1842.72 -6.19857 -1.80131 0
M  V30 19159 H 1843.48 -8.12133 -1.01893 0
M  V30 19160 N 1846.15 0.735796 -1.39369 0
M  V30 19161 C 1847.09 1.8498 -1.38025 0
M  V30 19162 C 1848.06 1.64356 -0.24007 0
M  V30 19163 O 1849.25 1.85774 -0.435058 0
M  V30 19164 C 1846.39 3.22484 -1.22874 0
M  V30 19165 C 1845.5 3.54819 -2.4643 0
M  V30 19166 C 1844.64 4.8172 -2.23873 0
M  V30 19167 C 1843.68 5.06895 -3.43108 0
M  V30 19168 N 1842.81 6.25 -3.19874 0
M  V30 19169 H 1847.65 1.85463 -2.33254 0
M  V30 19170 H 1845.19 0.906252 -1.15868 0
M  V30 19171 H 1847.15 4.01857 -1.12101 0
M  V30 19172 H 1845.78 3.21281 -0.312759 0
M  V30 19173 H 1844.83 2.70153 -2.67809 0
M  V30 19174 H 1846.14 3.69342 -3.35244 0
M  V30 19175 H 1845.3 5.69072 -2.10338 0
M  V30 19176 H 1844.03 4.69369 -1.32453 0
M  V30 19177 H 1843.04 4.18006 -3.57143 0
M  V30 19178 H 1844.26 5.21132 -4.35429 0
M  V30 19179 H 1842.21 6.13939 -2.31117 0
M  V30 19180 H 1842.13 6.40106 -4.02244 0
M  V30 19181 H 1843.4 7.15193 -3.10031 0
M  V30 19182 N 1847.63 1.24532 0.965897 0
M  V30 19183 C 1848.87 1.0877 1.71163 0
M  V30 19184 C 1849.2 -0.372297 1.90598 0
M  V30 19185 O 1848.48 -1.27503 1.46878 0
M  V30 19186 C 1848.76 1.83004 3.10131 0
M  V30 19187 C 1848.62 3.36765 2.98177 0
M  V30 19188 C 1849.93 1.60417 4.09822 0
M  V30 19189 H 1847.05 0.396528 0.621236 0
M  V30 19190 H 1849.7 1.53223 1.12351 0
M  V30 19191 H 1847.85 1.4522 3.60338 0
M  V30 19192 H 1849.52 3.84158 2.55382 0
M  V30 19193 H 1847.76 3.65053 2.34347 0
M  V30 19194 H 1848.43 3.83909 3.96633 0
M  V30 19195 H 1850.91 1.93289 3.68482 0
M  V30 19196 H 1849.78 2.14812 5.05121 0
M  V30 19197 H 1850.04 0.542843 4.38755 0
M  V30 19198 N 1849.1 -1.16685 1.05936 0
M  V30 19199 C 1850.03 -2.23129 0.688153 0
M  V30 19200 C 1851.01 -1.67108 -0.31765 0
M  V30 19201 O 1852.2 -1.93233 -0.193578 0
M  V30 19202 C 1849.33 -3.47229 0.069991 0
M  V30 19203 C 1848.28 -4.16121 1.00137 0
M  V30 19204 C 1847.61 -5.34131 0.246699 0
M  V30 19205 C 1848.91 -4.67508 2.32882 0
M  V30 19206 H 1850.6 -2.54436 1.57806 0
M  V30 19207 H 1848.15 -1.22298 0.76021 0
M  V30 19208 H 1850.1 -4.20918 -0.201545 0
M  V30 19209 H 1848.83 -3.15212 -0.854909 0
M  V30 19210 H 1847.49 -3.44355 1.25759 0
M  V30 19211 H 1847.13 -4.98366 -0.681204 0
M  V30 19212 H 1846.83 -5.81163 0.867373 0
M  V30 19213 H 1848.36 -6.10598 -0.0173762 0
M  V30 19214 H 1849.77 -5.32795 2.11666 0
M  V30 19215 H 1848.17 -5.25147 2.90414 0
M  V30 19216 H 1849.24 -3.83912 2.96209 0
M  V30 19217 N 1850.58 -0.841432 -1.33258 0
M  V30 19218 C 1851.83 -0.439027 -1.97991 0
M  V30 19219 C 1852.16 0.999767 -1.66488 0
M  V30 19220 O 1851.44 1.69938 -0.94612 0
M  V30 19221 C 1851.72 -0.663137 -3.53941 0
M  V30 19222 C 1851.57 -2.14939 -3.95122 0
M  V30 19223 C 1852.89 -0.11094 -4.3996 0
M  V30 19224 H 1850.01 -0.160987 -0.719203 0
M  V30 19225 H 1852.65 -1.05742 -1.57856 0
M  V30 19226 H 1850.8 -0.136765 -3.88259 0
M  V30 19227 H 1852.47 -2.74082 -3.71048 0
M  V30 19228 H 1850.72 -2.63293 -3.4476 0
M  V30 19229 H 1851.39 -2.25694 -5.03752 0
M  V30 19230 H 1853.86 -0.560898 -4.12302 0
M  V30 19231 H 1852.74 -0.297416 -5.48094 0
M  V30 19232 H 1853 0.985446 -4.30977 0
M  V30 19233 N 1852.06 1.4581 -0.598108 0
M  V30 19234 C 1852.99 2.33223 0.113747 0
M  V30 19235 C 1853.97 1.46268 0.868312 0
M  V30 19236 O 1855.16 1.75058 0.840737 0
M  V30 19237 C 1852.29 3.28815 1.11795 0
M  V30 19238 C 1851.24 4.25331 0.477223 0
M  V30 19239 C 1850.57 5.10544 1.589 0
M  V30 19240 C 1851.87 5.18894 -0.595518 0
M  V30 19241 H 1853.56 2.92992 -0.616123 0
M  V30 19242 H 1851.11 1.40888 -0.297741 0
M  V30 19243 H 1853.06 3.88832 1.62443 0
M  V30 19244 H 1851.78 2.67185 1.87829 0
M  V30 19245 H 1850.44 3.66599 -0.00831044 0
M  V30 19246 H 1850.09 4.45288 2.33939 0
M  V30 19247 H 1849.79 5.75918 1.16584 0
M  V30 19248 H 1851.31 5.73427 2.09794 0
M  V30 19249 H 1852.73 5.73037 -0.173494 0
M  V30 19250 H 1851.12 5.92694 -0.939873 0
M  V30 19251 H 1852.19 4.61895 -1.47584 0
M  V30 19252 N 1853.54 0.336733 1.53961 0
M  V30 19253 C 1854.49 -0.538599 2.26278 0
M  V30 19254 C 1855.48 -1.10764 1.2817 0
M  V30 19255 O 1856.69 -1.05416 1.45902 0
M  V30 19256 H 1853.06 -0.192363 0.72698 0
M  V30 19257 H 1855.03 0.0934532 2.98254 0
M  V30 19258 C 1853.78 -1.68121 3.04353 0
M  V30 19259 H 1853.1 -1.25261 3.7967 0
M  V30 19260 H 1854.54 -2.26901 3.58179 0
M  V30 19261 C 1853 -2.60663 2.13439 0
M  V30 19262 O 1853.53 -3.62731 1.72596 0
M  V30 19263 N 1851.74 -2.29194 1.78658 0
M  V30 19264 H 1851.29 -1.46233 2.1207 0
M  V30 19265 H 1851.24 -2.91371 1.18111 0
M  V30 19266 N 1855.02 -1.57465 0.0651956 0
M  V30 19267 C 1856.43 -1.80728 -0.468449 0
M  V30 19268 C 1856.78 -0.978581 -1.70054 0
M  V30 19269 O 1855.9 -0.199186 -2.15481 0
M  V30 19270 C 1856.5 -3.27791 -0.856641 0
M  V30 19271 C 1855.06 -3.51923 -1.33519 0
M  V30 19272 C 1854.2 -2.7548 -0.317147 0
M  V30 19273 H 1857.15 -1.5601 0.290955 0
M  V30 19274 H 1857.18 -3.39479 -1.71855 0
M  V30 19275 H 1856.69 -3.88079 0.0402823 0
M  V30 19276 H 1854.79 -2.96932 -2.25083 0
M  V30 19277 H 1854.9 -4.60624 -1.31767 0
M  V30 19278 H 1853.27 -2.4204 -0.793026 0
M  V30 19279 H 1854.05 -3.38502 0.571935 0
M  V30 19280 N 1856.49 0.20831 -1.56217 0
M  V30 19281 C 1857.72 0.951404 -1.84291 0
M  V30 19282 C 1858.14 1.76616 -0.647168 0
M  V30 19283 O 1857.5 1.7674 0.404081 0
M  V30 19284 C 1857.55 1.83403 -3.10477 0
M  V30 19285 O 1856.65 2.93113 -2.90101 0
M  V30 19286 H 1855.99 0.268668 -0.607218 0
M  V30 19287 H 1858.52 0.217618 -2.03439 0
M  V30 19288 H 1858.53 2.24127 -3.40927 0
M  V30 19289 H 1857.21 1.23528 -3.97132 0
M  V30 19290 H 1855.79 2.5624 -2.70916 0
M  V30 19291 N 1857.97 1.50255 0.475528 0
M  V30 19292 C 1859.22 1.61261 1.22975 0
M  V30 19293 C 1859.55 0.309949 1.91711 0
M  V30 19294 O 1858.83 -0.688288 1.81914 0
M  V30 19295 C 1859.11 2.7898 2.27688 0
M  V30 19296 C 1858.96 4.19115 1.63287 0
M  V30 19297 C 1860.28 2.9227 3.29038 0
M  V30 19298 H 1857.4 0.586933 0.445734 0
M  V30 19299 H 1860.04 1.82626 0.524177 0
M  V30 19300 H 1858.19 2.60894 2.87865 0
M  V30 19301 H 1859.86 4.48781 1.06741 0
M  V30 19302 H 1858.11 4.23579 0.936127 0
M  V30 19303 H 1858.78 4.97405 2.39359 0
M  V30 19304 H 1861.25 3.08813 2.78879 0
M  V30 19305 H 1860.13 3.7627 3.9964 0
M  V30 19306 H 1860.39 2.02696 3.92895 0
M  V30 19307 N 1859.45 -0.728395 1.39758 0
M  V30 19308 C 1860.41 -1.82415 1.38772 0
M  V30 19309 C 1861.41 -1.58278 0.283678 0
M  V30 19310 O 1862.6 -1.65556 0.541927 0
M  V30 19311 C 1859.73 -3.20309 1.16684 0
M  V30 19312 H 1860.93 -1.8469 2.36283 0
M  V30 19313 H 1858.48 -0.932729 1.25419 0
M  V30 19314 H 1859.22 -3.2369 0.198817 0
M  V30 19315 H 1859 -3.39226 1.96643 0
M  V30 19316 H 1860.49 -4.0036 1.18751 0
M  V30 19317 N 1860.93 -1.25042 -0.959279 0
M  V30 19318 C 1861.89 -1.05107 -2.03679 0
M  V30 19319 C 1862.89 -0.0054691 -1.60799 0
M  V30 19320 O 1864.08 -0.247225 -1.72437 0
M  V30 19321 C 1861.21 -0.594881 -3.35669 0
M  V30 19322 H 1862.41 -2.00753 -2.22796 0
M  V30 19323 H 1859.96 -1.07384 -1.13571 0
M  V30 19324 H 1860.69 0.364387 -3.22246 0
M  V30 19325 H 1860.48 -1.34966 -3.68139 0
M  V30 19326 H 1861.97 -0.476698 -4.1487 0
M  V30 19327 N 1862.41 1.16121 -1.06553 0
M  V30 19328 C 1863.63 1.90611 -0.804673 0
M  V30 19329 C 1864.05 1.77576 0.641255 0
M  V30 19330 O 1863.41 1.12218 1.43921 0
M  V30 19331 C 1863.46 3.41231 -1.19348 0
M  V30 19332 O 1863.18 3.53879 -2.58266 0
M  V30 19333 C 1864.68 4.32764 -0.960738 0
M  V30 19334 H 1861.9 0.604358 -0.291534 0
M  V30 19335 H 1864.44 1.47174 -1.41986 0
M  V30 19336 H 1862.6 3.82361 -0.622772 0
M  V30 19337 H 1863.01 4.47298 -2.73907 0
M  V30 19338 H 1864.49 5.36898 -1.28238 0
M  V30 19339 H 1864.96 4.39078 0.103389 0
M  V30 19340 H 1865.57 3.97365 -1.51595 0
M  V30 19341 N 1863.88 0.848487 1.3281 0
M  V30 19342 C 1864.81 0.303885 2.31514 0
M  V30 19343 C 1865.8 -0.593621 1.59406 0
M  V30 19344 O 1866.98 -0.515158 1.87243 0
M  V30 19345 C 1864.11 -0.5138 3.43478 0
M  V30 19346 C 1863.06 0.28874 4.27025 0
M  V30 19347 C 1862.39 -0.653297 5.30694 0
M  V30 19348 C 1863.69 1.51111 4.99963 0
M  V30 19349 H 1865.38 1.12862 2.77313 0
M  V30 19350 H 1862.93 0.544158 1.33323 0
M  V30 19351 H 1864.88 -0.905164 4.11564 0
M  V30 19352 H 1863.61 -1.37184 2.96392 0
M  V30 19353 H 1862.27 0.661782 3.60577 0
M  V30 19354 H 1861.91 -1.50801 4.79863 0
M  V30 19355 H 1861.61 -0.120368 5.87477 0
M  V30 19356 H 1863.14 -1.04197 6.01644 0
M  V30 19357 H 1864.55 1.19237 5.60763 0
M  V30 19358 H 1862.95 1.98152 5.66441 0
M  V30 19359 H 1864.02 2.2757 4.28182 0
M  V30 19360 N 1865.36 -1.4549 0.605832 0
M  V30 19361 C 1866.61 -2.01852 0.10014 0
M  V30 19362 C 1866.93 -1.47699 -1.27319 0
M  V30 19363 O 1866.2 -0.670571 -1.84066 0
M  V30 19364 H 1864.78 -0.746225 0.0340291 0
M  V30 19365 H 1867.44 -1.78311 0.786834 0
M  V30 19366 H 1866.54 -3.12062 0.0485925 0
M  V30 19367 N 1866.84 -0.344893 -1.5378 0
M  V30 19368 C 1868.09 0.251208 -2.00936 0
M  V30 19369 C 1868.42 1.50449 -1.23269 0
M  V30 19370 O 1867.67 1.93249 -0.308738 0
M  V30 19371 C 1867.97 0.609495 -3.52165 0
M  V30 19372 C 1867.64 -0.547063 -4.47569 0
M  V30 19373 C 1866.3 -0.864456 -4.73372 0
M  V30 19374 C 1868.65 -1.3229 -5.04132 0
M  V30 19375 C 1865.98 -1.96003 -5.52991 0
M  V30 19376 C 1868.33 -2.40874 -5.84947 0
M  V30 19377 C 1866.99 -2.73171 -6.09043 0
M  V30 19378 H 1866.26 0.0919233 -0.735276 0
M  V30 19379 H 1868.91 -0.473086 -1.85564 0
M  V30 19380 H 1867.22 1.41452 -3.65375 0
M  V30 19381 H 1868.91 1.08262 -3.86109 0
M  V30 19382 H 1865.5 -0.289626 -4.2762 0
M  V30 19383 H 1869.69 -1.09095 -4.84161 0
M  V30 19384 H 1864.94 -2.21449 -5.69886 0
M  V30 19385 H 1869.12 -3.01421 -6.27789 0
M  V30 19386 H 1866.74 -3.5819 -6.70525 0
M  V30 19387 N 1868.32 1.57428 -0.0735454 0
M  V30 19388 C 1869.57 1.93174 0.593996 0
M  V30 19389 C 1869.89 0.954462 1.70044 0
M  V30 19390 O 1869.16 0.00289765 1.959 0
M  V30 19391 H 1867.74 0.713123 0.222407 0
M  V30 19392 H 1870.4 1.94454 -0.131813 0
M  V30 19393 H 1869.5 2.95025 1.01818 0
M  V30 19394 N 1869.8 -0.200022 1.56326 0
M  V30 19395 C 1870.76 -1.23155 1.93302 0
M  V30 19396 C 1871.76 -1.38696 0.81364 0
M  V30 19397 O 1872.95 -1.36592 1.08112 0
M  V30 19398 C 1870.08 -2.60177 2.20274 0
M  V30 19399 H 1871.27 -0.915616 2.85581 0
M  V30 19400 H 1868.83 -0.44134 1.4994 0
M  V30 19401 H 1869.56 -2.96833 1.30617 0
M  V30 19402 H 1869.35 -2.50269 3.01841 0
M  V30 19403 H 1870.84 -3.34572 2.49903 0
M  V30 19404 N 1871.27 -1.50505 -0.467553 0
M  V30 19405 C 1872.5 -1.65193 -1.24076 0
M  V30 19406 C 1872.91 -0.336102 -1.86191 0
M  V30 19407 O 1872.26 0.692299 -1.70156 0
M  V30 19408 C 1872.32 -2.68798 -2.38721 0
M  V30 19409 C 1871.98 -4.12256 -1.97216 0
M  V30 19410 C 1872.98 -4.98012 -1.49267 0
M  V30 19411 C 1870.66 -4.58192 -2.05829 0
M  V30 19412 C 1872.66 -6.27753 -1.10477 0
M  V30 19413 C 1870.34 -5.87938 -1.66651 0
M  V30 19414 C 1871.34 -6.72544 -1.19053 0
M  V30 19415 O 1871.03 -7.99867 -0.804197 0
M  V30 19416 H 1870.76 -0.55823 -0.381254 0
M  V30 19417 H 1873.32 -1.97502 -0.564089 0
M  V30 19418 H 1871.55 -2.31739 -3.09571 0
M  V30 19419 H 1873.24 -2.7267 -3.00675 0
M  V30 19420 H 1874 -4.63737 -1.42031 0
M  V30 19421 H 1869.88 -3.92482 -2.41825 0
M  V30 19422 H 1873.42 -6.93743 -0.732554 0
M  V30 19423 H 1869.32 -6.21733 -1.73546 0
M  V30 19424 H 1870.09 -8.13168 -0.932733 0
M  V30 19425 N 1872.75 0.720973 -1.40142 0
M  V30 19426 C 1873.69 1.84439 -1.34378 0
M  V30 19427 C 1874.66 1.61172 -0.215054 0
M  V30 19428 O 1875.85 1.84254 -0.397828 0
M  V30 19429 C 1872.97 3.20682 -1.08999 0
M  V30 19430 C 1872.02 3.62786 -2.24251 0
M  V30 19431 S 1872.85 3.70524 -3.86616 0
M  V30 19432 C 1874.01 5.09534 -3.63491 0
M  V30 19433 H 1874.24 1.89047 -2.29453 0
M  V30 19434 H 1871.78 0.887224 -1.26363 0
M  V30 19435 H 1873.73 3.99346 -0.950423 0
M  V30 19436 H 1872.39 3.13713 -0.155881 0
M  V30 19437 H 1871.59 4.61695 -2.02122 0
M  V30 19438 H 1871.19 2.91364 -2.34484 0
M  V30 19439 H 1873.48 5.96292 -3.21624 0
M  V30 19440 H 1874.42 5.36697 -4.61911 0
M  V30 19441 H 1874.83 4.79873 -2.97291 0
M  V30 19442 N 1874.23 1.25549 0.952634 0
M  V30 19443 C 1875.46 1.13262 1.73743 0
M  V30 19444 C 1875.88 -0.309507 1.85536 0
M  V30 19445 O 1875.24 -1.22422 1.33726 0
M  V30 19446 C 1875.29 1.79395 3.12809 0
M  V30 19447 O 1874.39 1.07496 3.98144 0
M  V30 19448 H 1873.73 0.395314 0.5335 0
M  V30 19449 H 1876.26 1.66151 1.19394 0
M  V30 19450 H 1876.27 1.85761 3.63259 0
M  V30 19451 H 1874.95 2.84316 3.03542 0
M  V30 19452 H 1873.52 1.09025 3.56606 0
M  V30 19453 N 1875.71 -1.15554 1.07168 0
M  V30 19454 C 1876.66 -2.20234 0.690348 0
M  V30 19455 C 1877.63 -1.6304 -0.317346 0
M  V30 19456 O 1878.81 -1.89704 -0.20422 0
M  V30 19457 C 1875.95 -3.44976 0.0923404 0
M  V30 19458 C 1875.06 -4.16377 1.15128 0
M  V30 19459 C 1874.2 -5.28664 0.518478 0
M  V30 19460 C 1873.24 -5.91878 1.56034 0
M  V30 19461 N 1872.37 -6.9564 0.950251 0
M  V30 19462 H 1877.21 -2.52203 1.58738 0
M  V30 19463 H 1874.75 -1.23863 0.793502 0
M  V30 19464 H 1876.71 -4.16312 -0.271985 0
M  V30 19465 H 1875.34 -3.1353 -0.768054 0
M  V30 19466 H 1874.39 -3.43556 1.63321 0
M  V30 19467 H 1875.7 -4.59472 1.94132 0
M  V30 19468 H 1874.86 -6.06615 0.101683 0
M  V30 19469 H 1873.6 -4.86756 -0.303345 0
M  V30 19470 H 1872.6 -5.12641 1.98694 0
M  V30 19471 H 1873.83 -6.35864 2.38442 0
M  V30 19472 H 1871.77 -6.5583 0.149298 0
M  V30 19473 H 1871.69 -7.37153 1.67755 0
M  V30 19474 H 1872.96 -7.77494 0.558895 0
M  V30 19475 N 1877.19 -0.855519 -1.32358 0
M  V30 19476 C 1878.15 -0.305794 -2.27151 0
M  V30 19477 C 1879.15 0.535008 -1.51639 0
M  V30 19478 O 1880.34 0.346394 -1.70721 0
M  V30 19479 C 1877.47 0.567275 -3.36147 0
M  V30 19480 H 1878.67 -1.14245 -2.77287 0
M  V30 19481 H 1876.22 -0.629924 -1.43044 0
M  V30 19482 H 1876.95 1.42571 -2.9128 0
M  V30 19483 H 1876.74 -0.0345714 -3.92085 0
M  V30 19484 H 1878.23 0.944644 -4.06775 0
M  V30 19485 N 1878.67 1.45167 -0.61354 0
M  V30 19486 C 1879.62 2.27666 0.123348 0
M  V30 19487 C 1880.6 1.37663 0.832933 0
M  V30 19488 O 1881.79 1.61608 0.721941 0
M  V30 19489 C 1878.92 3.24651 1.1161 0
M  V30 19490 C 1878.01 4.22142 0.407045 0
M  V30 19491 N 1878.4 5.0275 -0.554622 0
M  V30 19492 C 1876.7 4.41182 0.65382 0
M  V30 19493 C 1877.4 5.73523 -0.97194 0
M  V30 19494 N 1876.37 5.4269 -0.314424 0
M  V30 19495 H 1880.17 2.8739 -0.615174 0
M  V30 19496 H 1877.69 1.56391 -0.437667 0
M  V30 19497 H 1879.69 3.82493 1.65846 0
M  V30 19498 H 1878.35 2.66488 1.85511 0
M  V30 19499 H 1879.36 5.09451 -0.931644 0
M  V30 19500 H 1876.03 3.94136 1.37705 0
M  V30 19501 H 1877.42 6.48292 -1.76543 0
M  V30 19502 N 1880.14 0.353044 1.53595 0
M  V30 19503 C 1881.39 -0.240073 2.00669 0
M  V30 19504 C 1881.71 -1.50303 1.24234 0
M  V30 19505 O 1880.98 -1.92709 0.352118 0
M  V30 19506 H 1879.56 -0.0917016 0.74135 0
M  V30 19507 H 1882.22 0.47639 1.88988 0
M  V30 19508 H 1881.32 -0.475869 3.08451 0
M  V30 19509 N 1881.62 -1.57387 0.0818932 0
M  V30 19510 C 1882.87 -1.93045 -0.584519 0
M  V30 19511 C 1883.18 -0.96473 -1.70154 0
M  V30 19512 O 1884.39 -1.21451 -2.42821 0
M  V30 19513 C 1882.85 -3.42962 -1.0911 0
M  V30 19514 C 1882.45 -4.48 -0.00454233 0
M  V30 19515 C 1884.2 -3.87604 -1.731 0
M  V30 19516 C 1882.1 -5.89059 -0.525733 0
M  V30 19517 H 1881.03 -0.720543 -0.222112 0
M  V30 19518 H 1883.69 -1.82838 0.155762 0
M  V30 19519 H 1882.07 -3.48277 -1.88466 0
M  V30 19520 H 1883.24 -4.54314 0.770444 0
M  V30 19521 H 1881.56 -4.12887 0.539739 0
M  V30 19522 H 1884.15 -4.90382 -2.13143 0
M  V30 19523 H 1884.5 -3.25524 -2.59499 0
M  V30 19524 H 1885.03 -3.84935 -1.00349 0
M  V30 19525 H 1881.77 -6.54807 0.301333 0
M  V30 19526 H 1881.29 -5.86243 -1.26802 0
M  V30 19527 H 1882.97 -6.39242 -0.998928 0
M  V30 19528 N 1883.1 0.191729 -1.56429 0
M  V30 19529 C 1884.38 0.937684 -1.71659 0
M  V30 19530 C 1884.76 2.0124 -0.63762 0
M  V30 19531 O 1884.1 2.2579 0.350865 0
M  V30 19532 C 1884.31 1.52104 -3.14111 0
M  V30 19533 C 1885.66 2.00186 -3.74447 0
M  V30 19534 O 1886.69 1.61939 -3.1726 0
M  V30 19535 O 1885.55 2.70576 -4.74817 0
M  V30 19536 H 1882.64 0.439962 -0.700259 0
M  V30 19537 H 1885.19 0.181161 -1.6873 0
M  V30 19538 H 1883.96 0.746526 -3.84113 0
M  V30 19539 H 1883.58 2.3423 -3.21282 0
M  V30 19540 N 1884.58 1.50751 0.459565 0
M  V30 19541 C 1885.99 1.55043 1.04012 0
M  V30 19542 C 1886.34 0.360701 1.92856 0
M  V30 19543 O 1885.46 -0.525112 2.09932 0
M  V30 19544 C 1886.06 2.80975 1.89311 0
M  V30 19545 C 1884.62 2.87911 2.42455 0
M  V30 19546 C 1883.77 2.49464 1.2109 0
M  V30 19547 H 1886.72 1.56849 0.24171 0
M  V30 19548 H 1886.74 2.63482 2.74514 0
M  V30 19549 H 1886.25 3.67547 1.24623 0
M  V30 19550 H 1884.35 2.05717 3.10663 0
M  V30 19551 H 1884.46 3.91067 2.76773 0
M  V30 19552 H 1882.83 2.0216 1.54931 0
M  V30 19553 H 1883.61 3.38357 0.580469 0
M  V30 19554 N 1886.06 -0.713531 1.40522 0
M  V30 19555 C 1887 -1.84894 1.41127 0
M  V30 19556 C 1888 -1.66873 0.291521 0
M  V30 19557 O 1889.2 -1.73952 0.46266 0
M  V30 19558 H 1885.58 -0.608985 0.441182 0
M  V30 19559 H 1887.55 -1.815 2.36855 0
M  V30 19560 C 1886.3 -3.22774 1.29276 0
M  V30 19561 H 1885.62 -3.37248 2.14718 0
M  V30 19562 H 1887.06 -4.02349 1.33759 0
M  V30 19563 C 1885.52 -3.369 0.00320525 0
M  V30 19564 O 1886.05 -3.90086 -0.958942 0
M  V30 19565 N 1884.26 -2.90523 -0.0669733 0
M  V30 19566 H 1883.8 -2.47428 0.716722 0
M  V30 19567 H 1883.76 -3.00353 -0.929262 0
M  V30 19568 N 1887.53 -1.26053 -0.945962 0
M  V30 19569 C 1888.78 -1.10706 -1.68603 0
M  V30 19570 C 1889.1 0.350167 -1.9244 0
M  V30 19571 O 1890.3 0.624224 -2.64227 0
M  V30 19572 C 1888.76 -1.93306 -3.0358 0
M  V30 19573 C 1888.37 -3.43574 -2.87508 0
M  V30 19574 C 1890.11 -1.86555 -3.8131 0
M  V30 19575 C 1888.02 -4.18438 -4.17928 0
M  V30 19576 H 1886.95 -0.410689 -0.632337 0
M  V30 19577 H 1889.6 -1.50322 -1.0524 0
M  V30 19578 H 1887.98 -1.4652 -3.67897 0
M  V30 19579 H 1889.15 -3.98096 -2.3207 0
M  V30 19580 H 1887.47 -3.51511 -2.23224 0
M  V30 19581 H 1890.07 -2.39775 -4.77925 0
M  V30 19582 H 1890.41 -0.83525 -4.07835 0
M  V30 19583 H 1890.94 -2.31138 -3.23759 0
M  V30 19584 H 1887.68 -5.21917 -3.96589 0
M  V30 19585 H 1887.2 -3.68698 -4.73098 0
M  V30 19586 H 1888.88 -4.26626 -4.86415 0
M  V30 19587 N 1889.01 1.14984 -1.07779 0
M  V30 19588 C 1890.43 1.3786 -0.804164 0
M  V30 19589 C 1890.63 1.92682 0.589572 0
M  V30 19590 O 1889.68 2.13537 1.34752 0
M  V30 19591 C 1891 2.34559 -1.88156 0
M  V30 19592 C 1892.54 2.48212 -1.90683 0
M  V30 19593 C 1893.02 3.48205 -2.97519 0
M  V30 19594 N 1894.51 3.55743 -2.96649 0
M  V30 19595 C 1895.25 4.32946 -3.75959 0
M  V30 19596 N 1894.74 5.13446 -4.65129 0
M  V30 19597 N 1896.53 4.28079 -3.64287 0
M  V30 19598 H 1888.69 0.777434 -1.97661 0
M  V30 19599 H 1890.95 0.404419 -0.857409 0
M  V30 19600 H 1890.65 2.014 -2.88324 0
M  V30 19601 H 1890.53 3.34389 -1.74539 0
M  V30 19602 H 1892.92 2.80665 -0.911642 0
M  V30 19603 H 1893 1.48365 -2.08378 0
M  V30 19604 H 1892.64 3.16485 -3.9724 0
M  V30 19605 H 1892.57 4.47817 -2.77069 0
M  V30 19606 H 1895.06 2.98291 -2.32014 0
M  V30 19607 H 1895.37 5.69612 -5.22267 0
M  V30 19608 H 1893.72 5.12737 -4.69176 0
M  V30 19609 H 1896.91 3.64257 -2.93997 0
M  V30 19610 H 1897.08 4.87996 -4.26337 0
M  V30 19611 N 1890.49 0.862526 1.31902 0
M  V30 19612 C 1891.72 0.484006 2.01159 0
M  V30 19613 C 1892.13 -0.92148 1.64785 0
M  V30 19614 O 1891.49 -1.60254 0.873216 0
M  V30 19615 C 1891.54 0.622709 3.56096 0
M  V30 19616 O 1891.26 1.97284 3.91166 0
M  V30 19617 C 1892.76 0.244225 4.42627 0
M  V30 19618 H 1889.98 0.189378 0.643721 0
M  V30 19619 H 1892.53 1.16164 1.68304 0
M  V30 19620 H 1890.68 -0.00728166 3.87399 0
M  V30 19621 H 1891.1 1.97525 4.85885 0
M  V30 19622 H 1892.57 0.392254 5.50605 0
M  V30 19623 H 1893.05 -0.816006 4.31553 0
M  V30 19624 H 1893.65 0.84961 4.16727 0
M  V30 19625 N 1891.97 -1.4484 0.62123 0
M  V30 19626 C 1893.22 -2.01734 0.121544 0
M  V30 19627 C 1893.54 -1.49041 -1.25745 0
M  V30 19628 O 1892.81 -0.690056 -1.83344 0
M  V30 19629 H 1891.39 -0.745822 0.0419419 0
M  V30 19630 H 1894.05 -1.77467 0.805702 0
M  V30 19631 H 1893.15 -3.11993 0.0816882 0
M  V30 19632 N 1893.45 -0.361184 -1.53405 0
M  V30 19633 C 1894.69 0.230222 -2.01489 0
M  V30 19634 C 1895.03 1.48779 -1.24814 0
M  V30 19635 O 1894.3 1.91494 -0.340612 0
M  V30 19636 C 1894.58 0.526613 -3.56229 0
M  V30 19637 C 1894.44 -0.744277 -4.436 0
M  V30 19638 C 1895.76 1.32901 -4.19554 0
M  V30 19639 H 1892.87 0.0822009 -0.732402 0
M  V30 19640 H 1895.52 -0.485208 -1.837 0
M  V30 19641 H 1893.67 1.13609 -3.71517 0
M  V30 19642 H 1895.34 -1.38188 -4.40116 0
M  V30 19643 H 1893.58 -1.36555 -4.11747 0
M  V30 19644 H 1894.25 -0.491913 -5.49804 0
M  V30 19645 H 1896.73 0.813474 -4.08071 0
M  V30 19646 H 1895.6 1.50513 -5.27861 0
M  V30 19647 H 1895.87 2.33625 -3.75329 0
M  V30 19648 N 1894.92 1.57341 -0.0902386 0
M  V30 19649 C 1896.34 1.57361 0.266413 0
M  V30 19650 C 1896.54 1.10104 1.68758 0
M  V30 19651 O 1895.6 0.775287 2.40303 0
M  V30 19652 C 1896.91 3.00642 0.0592661 0
M  V30 19653 C 1898.46 3.12741 0.127389 0
M  V30 19654 C 1898.93 4.57971 -0.0517042 0
M  V30 19655 N 1900.42 4.632 0.0032917 0
M  V30 19656 C 1901.16 5.73293 -0.110598 0
M  V30 19657 N 1900.65 6.92238 -0.279049 0
M  V30 19658 N 1902.45 5.62076 -0.0522147 0
M  V30 19659 H 1894.6 1.86369 -1.01884 0
M  V30 19660 H 1896.86 0.859996 -0.398886 0
M  V30 19661 H 1896.57 3.39396 -0.922117 0
M  V30 19662 H 1896.44 3.68539 0.80368 0
M  V30 19663 H 1898.83 2.73861 1.09927 0
M  V30 19664 H 1898.91 2.47445 -0.648435 0
M  V30 19665 H 1898.55 4.97544 -1.02043 0
M  V30 19666 H 1898.48 5.21321 0.743753 0
M  V30 19667 H 1900.97 3.77672 0.131145 0
M  V30 19668 H 1901.29 7.71972 -0.357596 0
M  V30 19669 H 1899.63 6.94287 -0.314653 0
M  V30 19670 H 1902.82 4.68035 0.0782189 0
M  V30 19671 H 1903 6.47839 -0.144423 0
M  V30 19672 N 1896.4 -0.183431 1.56529 0
M  V30 19673 C 1897.63 -0.917888 1.85425 0
M  V30 19674 C 1898.05 -1.76353 0.674171 0
M  V30 19675 O 1897.4 -1.78975 -0.35695 0
M  V30 19676 C 1897.45 -1.80454 3.13239 0
M  V30 19677 O 1897.17 -0.993028 4.26697 0
M  V30 19678 C 1898.68 -2.64969 3.55396 0
M  V30 19679 H 1895.9 -0.267254 0.61548 0
M  V30 19680 H 1898.44 -0.187171 2.03642 0
M  V30 19681 H 1896.59 -2.48874 2.96884 0
M  V30 19682 H 1897.01 -1.59831 4.99554 0
M  V30 19683 H 1898.48 -3.22819 4.47763 0
M  V30 19684 H 1898.96 -3.3925 2.78937 0
M  V30 19685 H 1899.57 -2.01902 3.74321 0
M  V30 19686 N 1897.88 -1.50992 -0.451564 0
M  V30 19687 C 1899.13 -1.62192 -1.19903 0
M  V30 19688 C 1899.44 -0.337085 -1.92674 0
M  V30 19689 O 1900.65 -0.328248 -2.69508 0
M  V30 19690 C 1899.1 -2.8638 -2.17978 0
M  V30 19691 C 1898.71 -4.21814 -1.50921 0
M  V30 19692 C 1900.46 -3.06932 -2.93246 0
M  V30 19693 C 1898.36 -5.37168 -2.47396 0
M  V30 19694 H 1897.29 -0.60406 -0.451251 0
M  V30 19695 H 1899.94 -1.77445 -0.467482 0
M  V30 19696 H 1898.33 -2.64728 -2.94508 0
M  V30 19697 H 1899.5 -4.53794 -0.800466 0
M  V30 19698 H 1897.82 -4.07025 -0.878604 0
M  V30 19699 H 1900.41 -3.90286 -3.65487 0
M  V30 19700 H 1900.76 -2.19437 -3.5377 0
M  V30 19701 H 1901.29 -3.28857 -2.23826 0
M  V30 19702 H 1898.03 -6.26878 -1.91582 0
M  V30 19703 H 1897.55 -5.09581 -3.16365 0
M  V30 19704 H 1899.23 -5.68539 -3.08824 0
M  V30 19705 N 1899.36 0.706069 -1.40899 0
M  V30 19706 C 1900.59 1.49504 -1.43025 0
M  V30 19707 C 1901 1.88772 -0.0325752 0
M  V30 19708 O 1900.36 1.56085 0.945716 0
M  V30 19709 C 1900.41 2.76431 -2.32955 0
M  V30 19710 O 1900.13 2.38821 -3.67282 0
M  V30 19711 C 1901.63 3.70255 -2.43774 0
M  V30 19712 H 1898.85 0.461069 -0.4875 0
M  V30 19713 H 1901.4 0.870198 -1.85062 0
M  V30 19714 H 1899.55 3.35177 -1.94255 0
M  V30 19715 H 1899.96 3.2056 -4.1514 0
M  V30 19716 H 1901.44 4.56129 -3.10887 0
M  V30 19717 H 1901.92 4.14021 -1.46573 0
M  V30 19718 H 1902.52 3.17417 -2.83066 0
M  V30 19719 N 1900.84 1.26553 0.939264 0
M  V30 19720 C 1902.06 1.14993 1.72001 0
M  V30 19721 C 1902.48 -0.29462 1.86487 0
M  V30 19722 O 1901.84 -1.20158 1.37362 0
M  V30 19723 C 1901.89 1.81598 3.12577 0
M  V30 19724 O 1901.61 3.20408 2.98781 0
M  V30 19725 C 1903.11 1.76017 4.06858 0
M  V30 19726 H 1900.33 0.400347 0.538482 0
M  V30 19727 H 1902.87 1.67209 1.17735 0
M  V30 19728 H 1901.03 1.33316 3.63739 0
M  V30 19729 H 1901.44 3.53397 3.8757 0
M  V30 19730 H 1902.92 2.27255 5.0305 0
M  V30 19731 H 1903.39 0.727075 4.3314 0
M  V30 19732 H 1904 2.2386 3.61617 0
M  V30 19733 N 1902.31 -1.14411 1.08387 0
M  V30 19734 C 1903.56 -1.85078 0.811826 0
M  V30 19735 C 1903.88 -1.83335 -0.664312 0
M  V30 19736 O 1903.15 -1.28164 -1.48158 0
M  V30 19737 H 1901.73 -0.685278 0.297328 0
M  V30 19738 H 1904.4 -1.38644 1.36981 0
M  V30 19739 H 1903.49 -2.89909 1.15581 0
M  V30 19740 N 1903.79 -0.869509 -1.31443 0
M  V30 19741 C 1905.02 -0.493849 -2.01435 0
M  V30 19742 C 1905.44 0.906049 -1.6484 0
M  V30 19743 O 1904.8 1.59777 -0.856794 0
M  V30 19744 C 1904.85 -0.657723 -3.54551 0
M  V30 19745 O 1903.95 0.303155 -4.11284 0
M  V30 19746 H 1903.29 -0.196494 -0.63426 0
M  V30 19747 H 1905.82 -1.1728 -1.6765 0
M  V30 19748 H 1905.83 -0.550841 -4.04264 0
M  V30 19749 H 1904.51 -1.67848 -3.80526 0
M  V30 19750 H 1903.09 0.151268 -3.72593 0
M  V30 19751 N 1905.27 1.44508 -0.628902 0
M  V30 19752 C 1906.68 1.85457 -0.215122 0
M  V30 19753 C 1907.03 1.52619 1.23296 0
M  V30 19754 O 1906.16 0.963178 1.93783 0
M  V30 19755 C 1906.75 3.36621 -0.383645 0
M  V30 19756 C 1905.31 3.76392 -0.0243904 0
M  V30 19757 C 1904.46 2.68369 -0.698081 0
M  V30 19758 H 1907.41 1.35006 -0.834208 0
M  V30 19759 H 1907.43 3.78617 0.378049 0
M  V30 19760 H 1906.94 3.6049 -1.43767 0
M  V30 19761 H 1905.04 3.58139 1.02798 0
M  V30 19762 H 1905.16 4.7714 -0.432898 0
M  V30 19763 H 1903.52 2.54349 -0.133605 0
M  V30 19764 H 1904.3 2.95071 -1.75465 0
M  V30 19765 N 1906.75 0.369315 1.53212 0
M  V30 19766 C 1908 -0.220348 2.00493 0
M  V30 19767 C 1908.31 -1.49561 1.26059 0
M  V30 19768 O 1909.52 -2.1641 1.63947 0
M  V30 19769 C 1907.97 -0.443218 3.5716 0
M  V30 19770 C 1907.58 0.817634 4.40476 0
M  V30 19771 C 1909.33 -0.990333 4.12786 0
M  V30 19772 C 1907.23 0.564143 5.88703 0
M  V30 19773 H 1906.16 -0.0861173 0.749066 0
M  V30 19774 H 1908.81 0.488632 1.76875 0
M  V30 19775 H 1907.2 -1.21355 3.76947 0
M  V30 19776 H 1908.37 1.59105 4.32461 0
M  V30 19777 H 1906.68 1.28824 3.95971 0
M  V30 19778 H 1909.28 -1.19537 5.21167 0
M  V30 19779 H 1909.62 -1.95357 3.67616 0
M  V30 19780 H 1910.16 -0.280073 3.96813 0
M  V30 19781 H 1906.9 1.49782 6.38158 0
M  V30 19782 H 1906.42 -0.170702 5.99557 0
M  V30 19783 H 1908.1 0.191072 6.46718 0
M  V30 19784 N 1908.23 -1.57291 0.0985816 0
M  V30 19785 C 1909.46 -1.98819 -0.57259 0
M  V30 19786 C 1909.87 -0.977787 -1.61508 0
M  V30 19787 O 1909.23 0.0321385 -1.82472 0
M  V30 19788 C 1909.28 -3.40393 -1.21716 0
M  V30 19789 O 1909 -4.37565 -0.216366 0
M  V30 19790 C 1910.5 -3.96943 -1.97361 0
M  V30 19791 H 1907.72 -0.653268 -0.153239 0
M  V30 19792 H 1910.26 -2.03716 0.178898 0
M  V30 19793 H 1908.42 -3.36499 -1.91956 0
M  V30 19794 H 1908.83 -5.20046 -0.68205 0
M  V30 19795 H 1910.31 -4.98144 -2.37816 0
M  V30 19796 H 1910.78 -3.34953 -2.84083 0
M  V30 19797 H 1911.39 -4.0432 -1.3193 0
M  V30 19798 N 1909.71 0.175127 -1.56624 0
M  V30 19799 C 1910.94 0.906725 -1.8564 0
M  V30 19800 C 1911.34 1.76502 -0.681433 0
M  V30 19801 O 1910.69 1.80163 0.358751 0
M  V30 19802 C 1910.75 1.83706 -3.09019 0
M  V30 19803 C 1910.41 1.15874 -4.42066 0
M  V30 19804 C 1911.41 0.526022 -5.17232 0
M  V30 19805 C 1909.09 1.15663 -4.88802 0
M  V30 19806 C 1911.09 -0.0997423 -6.37322 0
M  V30 19807 C 1908.78 0.527036 -6.08823 0
M  V30 19808 C 1909.77 -0.100049 -6.82927 0
M  V30 19809 O 1909.46 -0.719723 -8.00672 0
M  V30 19810 H 1909.19 0.269058 -0.620148 0
M  V30 19811 H 1911.75 0.181237 -2.04599 0
M  V30 19812 H 1909.98 2.60276 -2.85995 0
M  V30 19813 H 1911.67 2.43816 -3.24513 0
M  V30 19814 H 1912.43 0.519653 -4.82208 0
M  V30 19815 H 1908.31 1.63412 -4.31065 0
M  V30 19816 H 1911.86 -0.589806 -6.95102 0
M  V30 19817 H 1907.75 0.530975 -6.43312 0
M  V30 19818 H 1908.52 -0.618596 -8.16159 0
M  V30 19819 N 1911.18 1.5123 0.44355 0
M  V30 19820 C 1912.41 1.67671 1.2207 0
M  V30 19821 C 1912.83 0.370934 1.84406 0
M  V30 19822 O 1912.19 -0.668265 1.68535 0
M  V30 19823 C 1912.24 2.7896 2.28503 0
M  V30 19824 O 1911.34 2.4213 3.33837 0
M  V30 19825 H 1910.68 0.559275 0.357921 0
M  V30 19826 H 1913.21 1.9776 0.524592 0
M  V30 19827 H 1913.22 3.0286 2.73386 0
M  V30 19828 H 1911.9 3.73716 1.82509 0
M  V30 19829 H 1910.48 2.28779 2.94473 0
M  V30 19830 N 1912.66 -0.698586 1.41271 0
M  V30 19831 C 1913.89 -1.48743 1.43816 0
M  V30 19832 C 1914.3 -1.88752 0.0425858 0
M  V30 19833 O 1913.66 -1.56584 -0.937425 0
M  V30 19834 C 1913.71 -2.75192 2.34418 0
M  V30 19835 O 1913.43 -2.36869 3.68544 0
M  V30 19836 C 1914.93 -3.68957 2.45735 0
M  V30 19837 H 1912.15 -0.458477 0.489938 0
M  V30 19838 H 1914.7 -0.860372 1.85521 0
M  V30 19839 H 1912.85 -3.34142 1.9603 0
M  V30 19840 H 1913.27 -3.18354 4.16834 0
M  V30 19841 H 1914.74 -4.54473 3.13302 0
M  V30 19842 H 1915.22 -4.13237 1.48767 0
M  V30 19843 H 1915.82 -3.15912 2.84745 0
M  V30 19844 N 1914.14 -1.27049 -0.93254 0
M  V30 19845 C 1915.37 -1.15735 -1.7114 0
M  V30 19846 C 1915.78 0.289069 -1.86979 0
M  V30 19847 O 1915.12 1.20906 -1.38302 0
M  V30 19848 C 1915.18 -1.76319 -3.13292 0
M  V30 19849 C 1914.85 -3.25471 -3.20808 0
M  V30 19850 C 1915.84 -4.22172 -3.03425 0
M  V30 19851 C 1913.53 -3.66092 -3.43921 0
M  V30 19852 C 1915.52 -5.57471 -3.09038 0
M  V30 19853 C 1913.21 -5.01522 -3.49168 0
M  V30 19854 C 1914.21 -5.97022 -3.31744 0
M  V30 19855 O 1913.9 -7.29985 -3.36716 0
M  V30 19856 H 1913.63 -0.403495 -0.542372 0
M  V30 19857 H 1916.18 -1.68334 -1.17698 0
M  V30 19858 H 1914.41 -1.18192 -3.68195 0
M  V30 19859 H 1916.1 -1.59788 -3.73125 0
M  V30 19860 H 1916.87 -3.92127 -2.85415 0
M  V30 19861 H 1912.75 -2.92238 -3.56536 0
M  V30 19862 H 1916.29 -6.3199 -2.95356 0
M  V30 19863 H 1912.19 -5.31225 -3.66702 0
M  V30 19864 H 1912.95 -7.3837 -3.53203 0
M  V30 19865 N 1915.62 1.13835 -1.08993 0
M  V30 19866 C 1916.87 1.84645 -0.82163 0
M  V30 19867 C 1917.19 1.83685 0.65458 0
M  V30 19868 O 1916.46 1.28948 1.47477 0
M  V30 19869 H 1915.04 0.683691 -0.300958 0
M  V30 19870 H 1917.7 1.37915 -1.37715 0
M  V30 19871 H 1916.79 2.89292 -1.17117 0
M  V30 19872 N 1917.1 0.876467 1.3098 0
M  V30 19873 C 1918.04 0.335149 2.28354 0
M  V30 19874 C 1919.01 -0.569979 1.56014 0
M  V30 19875 O 1920.2 -0.500226 1.84126 0
M  V30 19876 C 1917.34 -0.451723 3.42131 0
M  V30 19877 C 1916.45 0.481657 4.29306 0
M  V30 19878 C 1915.59 -0.319977 5.30235 0
M  V30 19879 C 1914.62 0.609417 6.09059 0
M  V30 19880 N 1913.76 -0.156366 7.01926 0
M  V30 19881 H 1918.6 1.17069 2.74042 0
M  V30 19882 H 1916.14 0.588683 1.34807 0
M  V30 19883 H 1918.1 -0.923775 4.06844 0
M  V30 19884 H 1916.73 -1.25191 2.97535 0
M  V30 19885 H 1915.78 1.07218 3.64977 0
M  V30 19886 H 1917.09 1.19403 4.84298 0
M  V30 19887 H 1916.24 -0.854256 6.00656 0
M  V30 19888 H 1914.98 -1.06561 4.75916 0
M  V30 19889 H 1913.99 1.1554 5.37523 0
M  V30 19890 H 1915.21 1.354 6.65465 0
M  V30 19891 H 1913.16 -0.884688 6.50007 0
M  V30 19892 H 1913.08 0.496538 7.54368 0
M  V30 19893 H 1914.34 -0.671665 7.76601 0
M  V30 19894 N 1918.57 -1.44173 0.636557 0
M  V30 19895 C 1919.82 -2.01993 0.143216 0
M  V30 19896 C 1920.15 -1.50104 -1.23689 0
M  V30 19897 O 1919.4 -0.677627 -1.83594 0
M  V30 19898 C 1919.7 -3.57299 0.0849933 0
M  V30 19899 C 1919.37 -4.28464 1.40461 0
M  V30 19900 C 1918.03 -4.47622 1.76601 0
M  V30 19901 C 1920.38 -4.68908 2.27541 0
M  V30 19902 C 1917.71 -5.04485 2.99519 0
M  V30 19903 C 1920.06 -5.27133 3.49734 0
M  V30 19904 C 1918.73 -5.44509 3.86091 0
M  V30 19905 H 1918 -0.739144 0.0524066 0
M  V30 19906 H 1920.64 -1.72868 0.823952 0
M  V30 19907 H 1918.95 -3.85869 -0.679134 0
M  V30 19908 H 1920.65 -3.99774 -0.31333 0
M  V30 19909 H 1917.24 -4.13886 1.11337 0
M  V30 19910 H 1921.42 -4.53815 2.00913 0
M  V30 19911 H 1916.68 -5.16125 3.27758 0
M  V30 19912 H 1920.85 -5.5742 4.1744 0
M  V30 19913 H 1918.48 -5.88336 4.81419 0
M  V30 19914 N 1920.05 -0.377435 -1.53014 0
M  V30 19915 C 1920.98 0.455103 -2.29022 0
M  V30 19916 C 1921.96 1.07375 -1.31926 0
M  V30 19917 O 1923.15 1.08877 -1.60809 0
M  V30 19918 C 1920.28 1.58883 -3.08826 0
M  V30 19919 C 1919.23 1.09683 -4.13707 0
M  V30 19920 C 1918.56 2.32172 -4.81664 0
M  V30 19921 C 1919.86 0.173165 -5.22013 0
M  V30 19922 H 1921.55 -0.179053 -2.98864 0
M  V30 19923 H 1919.1 -0.0875549 -1.43734 0
M  V30 19924 H 1921.05 2.17798 -3.60752 0
M  V30 19925 H 1919.77 2.2504 -2.36695 0
M  V30 19926 H 1918.43 0.530291 -3.62744 0
M  V30 19927 H 1918.08 2.96811 -4.06094 0
M  V30 19928 H 1917.78 1.99919 -5.52545 0
M  V30 19929 H 1919.31 2.91751 -5.3639 0
M  V30 19930 H 1920.72 0.670145 -5.6937 0
M  V30 19931 H 1919.12 -0.0590463 -6.00071 0
M  V30 19932 H 1920.19 -0.781339 -4.78564 0
M  V30 19933 N 1921.53 1.57237 -0.106922 0
M  V30 19934 C 1922.49 2.13515 0.833317 0
M  V30 19935 C 1923.49 1.06715 1.20285 0
M  V30 19936 O 1924.68 1.32548 1.13034 0
M  V30 19937 C 1921.82 2.66546 2.12523 0
M  V30 19938 H 1923.01 2.97916 0.344435 0
M  V30 19939 H 1920.56 1.55652 0.142199 0
M  V30 19940 H 1921.3 1.85699 2.65869 0
M  V30 19941 H 1921.08 3.44643 1.86985 0
M  V30 19942 H 1922.57 3.10039 2.7976 0
M  V30 19943 N 1923.01 -0.166818 1.56715 0
M  V30 19944 C 1924.29 -0.910255 1.73129 0
M  V30 19945 C 1924.67 -2.002 0.669555 0
M  V30 19946 O 1924.01 -2.2632 -0.314899 0
M  V30 19947 C 1924.22 -1.47087 3.16491 0
M  V30 19948 C 1925.57 -1.94204 3.77584 0
M  V30 19949 O 1926.6 -1.56872 3.19796 0
M  V30 19950 O 1925.45 -2.62988 4.79061 0
M  V30 19951 H 1922.55 -0.428766 0.70717 0
M  V30 19952 H 1925.09 -0.154295 1.68997 0
M  V30 19953 H 1923.87 -0.685322 3.85252 0
M  V30 19954 H 1923.49 -2.29089 3.24967 0
M  V30 19955 N 1924.49 -1.51463 -0.435524 0
M  V30 19956 C 1925.73 -1.63897 -1.18247 0
M  V30 19957 C 1926.06 -0.358322 -1.9168 0
M  V30 19958 O 1925.33 0.625888 -1.85633 0
M  V30 19959 H 1923.91 -0.60404 -0.439482 0
M  V30 19960 H 1926.57 -1.884 -0.49915 0
M  V30 19961 H 1925.66 -2.46749 -1.91105 0
M  V30 19962 N 1925.96 0.691085 -1.4164 0
M  V30 19963 C 1927.21 1.44828 -1.40959 0
M  V30 19964 C 1927.53 1.94988 -0.0211789 0
M  V30 19965 O 1926.8 1.71999 0.937714 0
M  V30 19966 H 1925.38 0.53739 -0.518865 0
M  V30 19967 H 1928.05 0.817677 -1.76918 0
M  V30 19968 H 1927.14 2.30926 -2.09952 0
M  V30 19969 N 1927.44 1.27542 0.925789 0
M  V30 19970 C 1928.68 1.1523 1.68823 0
M  V30 19971 C 1929.05 -0.296566 1.89696 0
M  V30 19972 O 1930.25 -0.542141 2.63276 0
M  V30 19973 C 1928.52 1.91634 3.0168 0
M  V30 19974 S 1930.08 1.95558 3.92814 0
M  V30 19975 H 1926.9 0.41133 0.579938 0
M  V30 19976 H 1929.5 1.61477 1.10207 0
M  V30 19977 H 1928.2 2.9609 2.84181 0
M  V30 19978 H 1927.73 1.4589 3.65349 0
M  V30 19979 H 1929.75 1.05338 4.8489 0
M  V30 19980 N 1928.92 -1.13255 1.09595 0
M  V30 19981 C 1930.15 -1.88952 0.855104 0
M  V30 19982 C 1930.57 -1.78668 -0.588174 0
M  V30 19983 O 1929.93 -1.13544 -1.41341 0
M  V30 19984 C 1929.98 -3.36461 1.29717 0
M  V30 19985 O 1929.08 -4.09863 0.456717 0
M  V30 19986 H 1928.42 -0.587432 0.309547 0
M  V30 19987 H 1930.95 -1.43282 1.46053 0
M  V30 19988 H 1930.96 -3.87291 1.28333 0
M  V30 19989 H 1929.64 -3.43263 2.34826 0
M  V30 19990 H 1928.21 -3.69042 0.535026 0
M  V30 19991 N 1930.4 -0.883401 -1.30514 0
M  V30 19992 C 1931.65 -0.500062 -1.95816 0
M  V30 19993 C 1931.97 0.953596 -1.70093 0
M  V30 19994 O 1931.24 1.67027 -1.02365 0
M  V30 19995 H 1929.82 -0.181936 -0.724506 0
M  V30 19996 H 1932.48 -1.12613 -1.59073 0
M  V30 19997 H 1931.58 -0.668998 -3.04846 0
M  V30 19998 N 1931.88 1.43833 -0.644194 0
M  V30 19999 C 1933.12 2.01515 -0.153623 0
M  V30 20000 C 1933.45 1.51022 1.23358 0
M  V30 20001 O 1932.72 0.719137 1.82223 0
M  V30 20002 H 1931.3 0.74506 -0.053802 0
M  V30 20003 H 1933.96 1.76163 -0.833833 0
M  V30 20004 H 1933.05 3.11824 -0.131313 0
M  V30 20005 N 1933.35 0.385544 1.52811 0
M  V30 20006 C 1934.32 -0.439294 2.24951 0
M  V30 20007 C 1935.32 -0.993315 1.26451 0
M  V30 20008 O 1936.51 -0.875911 1.50577 0
M  V30 20009 C 1933.64 -1.61595 3.00166 0
M  V30 20010 H 1934.83 0.192232 2.99283 0
M  V30 20011 H 1932.39 0.137589 1.55693 0
M  V30 20012 H 1933.12 -2.28501 2.30125 0
M  V30 20013 H 1932.91 -1.22544 3.72459 0
M  V30 20014 H 1934.4 -2.20001 3.5495 0
M  V30 20015 N 1934.83 -1.57178 0.115259 0
M  V30 20016 C 1936.06 -1.99126 -0.550671 0
M  V30 20017 C 1936.47 -0.993751 -1.61001 0
M  V30 20018 O 1935.81 0.0220518 -1.83687 0
M  V30 20019 C 1935.88 -3.37482 -1.2388 0
M  V30 20020 C 1935.54 -4.55823 -0.327848 0
M  V30 20021 C 1936.54 -5.18102 0.432054 0
M  V30 20022 C 1934.22 -5.01726 -0.240012 0
M  V30 20023 C 1936.22 -6.24669 1.26756 0
M  V30 20024 C 1933.9 -6.08156 0.599131 0
M  V30 20025 C 1934.9 -6.69494 1.35155 0
M  V30 20026 O 1934.59 -7.73868 2.17677 0
M  V30 20027 H 1934.32 -0.658991 -0.150689 0
M  V30 20028 H 1936.87 -2.0445 0.197288 0
M  V30 20029 H 1935.1 -3.28901 -2.03375 0
M  V30 20030 H 1936.79 -3.63744 -1.80126 0
M  V30 20031 H 1937.56 -4.83555 0.374044 0
M  V30 20032 H 1933.44 -4.53732 -0.81535 0
M  V30 20033 H 1936.98 -6.72475 1.85533 0
M  V30 20034 H 1932.88 -6.42132 0.658548 0
M  V30 20035 H 1933.65 -7.90948 2.10578 0
M  V30 20036 N 1936.31 0.158505 -1.56801 0
M  V30 20037 C 1937.59 0.901061 -1.73609 0
M  V30 20038 C 1937.97 1.99842 -0.680163 0
M  V30 20039 O 1937.32 2.26484 0.302892 0
M  V30 20040 C 1937.53 1.45407 -3.17266 0
M  V30 20041 C 1938.87 1.92199 -3.78609 0
M  V30 20042 O 1939.9 1.55173 -3.20624 0
M  V30 20043 O 1938.76 2.60443 -4.80449 0
M  V30 20044 H 1935.85 0.425009 -0.709434 0
M  V30 20045 H 1938.4 0.14533 -1.69077 0
M  V30 20046 H 1937.17 0.664882 -3.8561 0
M  V30 20047 H 1936.79 2.27363 -3.26178 0
M  V30 20048 N 1937.79 1.51692 0.427485 0
M  V30 20049 C 1939.04 1.64079 1.17308 0
M  V30 20050 C 1939.35 0.367695 1.92113 0
M  V30 20051 O 1940.56 0.371083 2.68952 0
M  V30 20052 C 1939.01 2.89812 2.13394 0
M  V30 20053 C 1938.62 4.24161 1.44191 0
M  V30 20054 C 1940.37 3.11559 2.88325 0
M  V30 20055 C 1938.27 5.41036 2.38819 0
M  V30 20056 H 1937.2 0.611162 0.441584 0
M  V30 20057 H 1939.85 1.78167 0.439193 0
M  V30 20058 H 1938.24 2.6938 2.90259 0
M  V30 20059 H 1939.41 4.5501 0.72817 0
M  V30 20060 H 1937.72 4.08371 0.813739 0
M  V30 20061 H 1940.32 3.96051 3.59232 0
M  V30 20062 H 1940.66 2.25037 3.50234 0
M  V30 20063 H 1941.2 3.32376 2.18565 0
M  V30 20064 H 1937.94 6.29847 1.81585 0
M  V30 20065 H 1937.46 5.1455 3.08218 0
M  V30 20066 H 1939.14 5.73381 2.9974 0
M  V30 20067 N 1939.27 -0.683564 1.42004 0
M  V30 20068 C 1940.52 -1.43934 1.413 0
M  V30 20069 C 1940.83 -1.95578 0.0296606 0
M  V30 20070 O 1942.04 -2.71316 -0.0999859 0
M  V30 20071 C 1940.49 -2.60331 2.48507 0
M  V30 20072 C 1940.1 -2.15424 3.92806 0
M  V30 20073 C 1941.84 -3.37895 2.56957 0
M  V30 20074 C 1939.75 -3.28851 4.91539 0
M  V30 20075 H 1938.68 -0.540693 0.525516 0
M  V30 20076 H 1941.33 -0.740914 1.67877 0
M  V30 20077 H 1939.71 -3.325 2.15081 0
M  V30 20078 H 1940.89 -1.50466 4.35542 0
M  V30 20079 H 1939.2 -1.50822 3.88126 0
M  V30 20080 H 1941.8 -4.22355 3.27903 0
M  V30 20081 H 1942.14 -3.83896 1.61027 0
M  V30 20082 H 1942.68 -2.72791 2.89534 0
M  V30 20083 H 1939.41 -2.87851 5.88916 0
M  V30 20084 H 1938.93 -3.92619 4.53443 0
M  V30 20085 H 1940.61 -3.9445 5.12853 0
M  V30 20086 N 1940.75 -1.28031 -0.919012 0
M  V30 20087 C 1941.99 -1.14258 -1.66217 0
M  V30 20088 C 1942.31 0.309269 -1.9314 0
M  V30 20089 O 1943.51 0.568038 -2.65491 0
M  V30 20090 C 1941.97 -1.99702 -2.99411 0
M  V30 20091 C 1941.58 -3.49596 -2.80155 0
M  V30 20092 C 1943.32 -1.94601 -3.77267 0
M  V30 20093 C 1941.23 -4.27209 -4.08958 0
M  V30 20094 H 1940.16 -0.424009 -0.623484 0
M  V30 20095 H 1942.81 -1.52521 -1.02028 0
M  V30 20096 H 1941.19 -1.5429 -3.64706 0
M  V30 20097 H 1942.37 -4.02929 -2.23574 0
M  V30 20098 H 1940.68 -3.56167 -2.15718 0
M  V30 20099 H 1943.28 -2.49859 -4.72731 0
M  V30 20100 H 1943.62 -0.92157 -4.05971 0
M  V30 20101 H 1944.15 -2.37954 -3.18783 0
M  V30 20102 H 1940.89 -5.30212 -3.8543 0
M  V30 20103 H 1940.41 -3.7865 -4.65171 0
M  V30 20104 H 1942.09 -4.36847 -4.77256 0
M  V30 20105 N 1942.22 1.12672 -1.10194 0
M  V30 20106 C 1943.46 1.85769 -0.852599 0
M  V30 20107 C 1943.83 1.82027 0.610749 0
M  V30 20108 O 1945.03 2.50442 0.976339 0
M  V30 20109 C 1943.3 3.29565 -1.38281 0
M  V30 20110 S 1944.86 4.20064 -1.26853 0
M  V30 20111 H 1941.68 0.64075 -0.308157 0
M  V30 20112 H 1944.28 1.35746 -1.40689 0
M  V30 20113 H 1942.98 3.29846 -2.44192 0
M  V30 20114 H 1942.51 3.84652 -0.824994 0
M  V30 20115 H 1944.53 4.95691 -0.224588 0
M  V30 20116 N 1943.7 0.89031 1.30043 0
M  V30 20117 C 1944.98 0.43131 1.90785 0
M  V30 20118 C 1945.36 -1.08836 1.80881 0
M  V30 20119 O 1944.71 -1.92605 1.22946 0
M  V30 20120 C 1944.92 0.935377 3.36232 0
M  V30 20121 C 1946.26 0.973504 4.13289 0
M  V30 20122 O 1947.29 0.882404 3.45097 0
M  V30 20123 O 1946.15 1.10893 5.35131 0
M  V30 20124 H 1943.24 0.132845 0.816261 0
M  V30 20125 H 1945.79 0.979561 1.38574 0
M  V30 20126 H 1944.56 1.97928 3.3755 0
M  V30 20127 H 1944.18 0.366596 3.95906 0
M  V30 20128 N 1945.18 -1.43489 0.651812 0
M  V30 20129 C 1946.09 -2.34564 -0.0413115 0
M  V30 20130 C 1947.11 -1.53803 -0.81368 0
M  V30 20131 O 1948.28 -1.86459 -0.761246 0
M  V30 20132 C 1945.35 -3.32063 -0.996745 0
M  V30 20133 C 1944.41 -4.28728 -0.221464 0
M  V30 20134 C 1943.64 -5.2157 -1.13139 0
M  V30 20135 O 1943.86 -5.18804 -2.37062 0
M  V30 20136 O 1942.8 -5.98856 -0.604552 0
M  V30 20137 H 1946.62 -2.95325 0.708295 0
M  V30 20138 H 1944.21 -1.43607 0.411999 0
M  V30 20139 H 1946.09 -3.92022 -1.54586 0
M  V30 20140 H 1944.77 -2.73807 -1.7266 0
M  V30 20141 H 1943.67 -3.72254 0.371205 0
M  V30 20142 H 1945.01 -4.89962 0.468797 0
M  V30 20143 N 1946.66 -0.393643 -1.52605 0
M  V30 20144 C 1947.9 0.186875 -2.03544 0
M  V30 20145 C 1948.26 1.43681 -1.27357 0
M  V30 20146 O 1949.46 2.09477 -1.68443 0
M  V30 20147 C 1947.73 0.444006 -3.54631 0
M  V30 20148 S 1949.29 0.994186 -4.27389 0
M  V30 20149 H 1946.11 0.0522497 -0.709078 0
M  V30 20150 H 1948.71 -0.542992 -1.87808 0
M  V30 20151 H 1947.42 -0.472739 -4.07668 0
M  V30 20152 H 1946.95 1.20218 -3.74581 0
M  V30 20153 H 1948.96 2.27617 -4.40914 0
M  V30 20154 N 1948.14 1.57115 -0.123593 0
M  V30 20155 C 1949.09 2.12114 0.836157 0
M  V30 20156 C 1950.07 1.04305 1.22512 0
M  V30 20157 O 1951.26 1.3053 1.19545 0
M  V30 20158 C 1948.39 2.72776 2.08442 0
M  V30 20159 C 1947.48 3.87673 1.71962 0
M  V30 20160 N 1947.87 4.9453 1.0618 0
M  V30 20161 C 1946.17 3.97942 2.0139 0
M  V30 20162 C 1946.87 5.74861 0.889393 0
M  V30 20163 N 1945.84 5.24838 1.41586 0
M  V30 20164 H 1949.64 2.92108 0.324092 0
M  V30 20165 H 1947.16 1.62209 0.0787292 0
M  V30 20166 H 1949.16 3.10525 2.78172 0
M  V30 20167 H 1947.82 1.94247 2.60188 0
M  V30 20168 H 1948.83 5.12797 0.725245 0
M  V30 20169 H 1945.5 3.30461 2.5515 0
M  V30 20170 H 1946.89 6.70866 0.372697 0
M  V30 20171 N 1949.61 -0.150187 1.56883 0
M  V30 20172 C 1950.84 -0.88235 1.87695 0
M  V30 20173 C 1951.26 -1.74093 0.712272 0
M  V30 20174 O 1950.62 -1.78118 -0.338207 0
M  V30 20175 C 1950.67 -1.71754 3.1707 0
M  V30 20176 O 1949.77 -2.82145 3.00779 0
M  V30 20177 H 1949.11 -0.245947 0.616771 0
M  V30 20178 H 1951.64 -0.141963 2.04107 0
M  V30 20179 H 1951.65 -2.1132 3.4901 0
M  V30 20180 H 1950.33 -1.08704 4.01443 0
M  V30 20181 H 1948.91 -2.46008 2.8024 0
M  V30 20182 N 1951.09 -1.51916 -0.419434 0
M  V30 20183 C 1952.32 -1.69302 -1.1893 0
M  V30 20184 C 1952.74 -0.398024 -1.84557 0
M  V30 20185 O 1952.09 0.625083 -1.71461 0
M  V30 20186 C 1952.14 -2.82139 -2.26009 0
M  V30 20187 O 1951.86 -4.06623 -1.63064 0
M  V30 20188 C 1953.37 -3.10947 -3.15954 0
M  V30 20189 H 1950.59 -0.567657 -0.357781 0
M  V30 20190 H 1953.13 -1.98424 -0.494807 0
M  V30 20191 H 1951.28 -2.55565 -2.91144 0
M  V30 20192 H 1951.7 -4.69423 -2.33971 0
M  V30 20193 H 1953.17 -3.93438 -3.87183 0
M  V30 20194 H 1953.65 -2.24078 -3.77738 0
M  V30 20195 H 1954.26 -3.39246 -2.56499 0
M  V30 20196 N 1952.57 0.676023 -1.42365 0
M  V30 20197 C 1953.85 1.43189 -1.33252 0
M  V30 20198 C 1954.23 2.11078 0.0306765 0
M  V30 20199 O 1953.58 2.03148 1.0461 0
M  V30 20200 C 1953.79 2.43534 -2.49984 0
M  V30 20201 C 1955.13 3.08213 -2.92044 0
M  V30 20202 O 1956.16 2.53861 -2.49866 0
M  V30 20203 O 1955.02 4.06702 -3.65042 0
M  V30 20204 H 1952.11 0.638626 -0.525438 0
M  V30 20205 H 1954.66 0.704851 -1.5437 0
M  V30 20206 H 1953.43 1.92159 -3.40867 0
M  V30 20207 H 1953.05 3.23721 -2.30847 0
M  V30 20208 N 1954.05 1.28517 0.912209 0
M  V30 20209 C 1955.01 1.12594 1.99637 0
M  V30 20210 C 1956.01 0.0651449 1.60668 0
M  V30 20211 O 1957.2 0.311054 1.714 0
M  V30 20212 C 1954.33 0.719053 3.3323 0
M  V30 20213 H 1955.53 2.08884 2.15192 0
M  V30 20214 H 1953.08 1.11525 1.09508 0
M  V30 20215 H 1953.81 -0.244536 3.23377 0
M  V30 20216 H 1953.6 1.48536 3.62876 0
M  V30 20217 H 1955.09 0.630346 4.12815 0
M  V30 20218 N 1955.53 -1.12086 1.1079 0
M  V30 20219 C 1956.75 -1.87493 0.874862 0
M  V30 20220 C 1957.17 -1.79834 -0.574907 0
M  V30 20221 O 1956.53 -1.17483 -1.39657 0
M  V30 20222 C 1956.58 -3.36566 1.3193 0
M  V30 20223 O 1956.3 -3.4405 2.71222 0
M  V30 20224 C 1957.8 -4.289 1.12069 0
M  V30 20225 H 1955.02 -0.593122 0.313764 0
M  V30 20226 H 1957.56 -1.41803 1.4735 0
M  V30 20227 H 1955.72 -3.79787 0.764254 0
M  V30 20228 H 1956.13 -4.36824 2.90319 0
M  V30 20229 H 1957.61 -5.31768 1.48076 0
M  V30 20230 H 1958.08 -4.3916 0.0596432 0
M  V30 20231 H 1958.69 -3.91465 1.66238 0
M  V30 20232 N 1957 -0.897194 -1.29569 0
M  V30 20233 C 1958.23 -0.536465 -2.00342 0
M  V30 20234 C 1958.65 0.87088 -1.66725 0
M  V30 20235 O 1958.01 1.57924 -0.890492 0
M  V30 20236 C 1958.06 -0.732781 -3.53076 0
M  V30 20237 O 1957.16 0.215848 -4.11835 0
M  V30 20238 H 1956.51 -0.209904 -0.62995 0
M  V30 20239 H 1959.04 -1.20809 -1.65125 0
M  V30 20240 H 1959.05 -0.636468 -4.03005 0
M  V30 20241 H 1957.72 -1.75882 -3.7688 0
M  V30 20242 H 1956.3 0.0722012 -3.7283 0
M  V30 20243 N 1958.48 1.43142 -0.659413 0
M  V30 20244 C 1959.73 2.0096 -0.172631 0
M  V30 20245 C 1960.04 1.52669 1.22277 0
M  V30 20246 O 1961.25 2.02802 1.8051 0
M  V30 20247 C 1959.71 3.58975 -0.257802 0
M  V30 20248 C 1959.31 4.16259 -1.65628 0
M  V30 20249 C 1961.06 4.24155 0.171057 0
M  V30 20250 C 1958.97 5.66588 -1.69505 0
M  V30 20251 H 1957.9 0.751547 -0.0607765 0
M  V30 20252 H 1960.55 1.64042 -0.822352 0
M  V30 20253 H 1958.93 3.93325 0.459538 0
M  V30 20254 H 1960.1 3.93398 -2.39947 0
M  V30 20255 H 1958.42 3.63473 -2.03165 0
M  V30 20256 H 1961.01 5.34454 0.162026 0
M  V30 20257 H 1961.36 3.98521 1.2036 0
M  V30 20258 H 1961.89 3.94711 -0.494745 0
M  V30 20259 H 1958.63 5.96998 -2.7069 0
M  V30 20260 H 1958.15 5.91486 -0.995201 0
M  V30 20261 H 1959.83 6.30736 -1.44156 0
M  V30 20262 N 1959.96 0.40173 1.52394 0
M  V30 20263 C 1960.89 -0.41861 2.29717 0
M  V30 20264 C 1961.87 -1.05263 1.33618 0
M  V30 20265 O 1963.06 -1.06304 1.62521 0
M  V30 20266 C 1960.19 -1.5395 3.11314 0
M  V30 20267 C 1959.14 -1.03088 4.154 0
M  V30 20268 C 1958.47 -2.2448 4.85297 0
M  V30 20269 C 1959.77 -0.0900956 5.22222 0
M  V30 20270 H 1961.46 0.226577 2.98541 0
M  V30 20271 H 1959.01 0.110411 1.43576 0
M  V30 20272 H 1960.96 -2.12031 3.64171 0
M  V30 20273 H 1959.68 -2.21246 2.40246 0
M  V30 20274 H 1958.34 -0.472515 3.63542 0
M  V30 20275 H 1957.99 -2.90313 4.10764 0
M  V30 20276 H 1957.69 -1.91103 5.55656 0
M  V30 20277 H 1959.21 -2.83181 5.40963 0
M  V30 20278 H 1960.63 -0.579479 5.70364 0
M  V30 20279 H 1959.03 0.154505 5.99901 0
M  V30 20280 H 1960.1 0.857375 4.7726 0
M  V30 20281 N 1961.44 -1.57047 0.131923 0
M  V30 20282 C 1962.69 -1.95245 -0.521892 0
M  V30 20283 C 1963.01 -1.01692 -1.66385 0
M  V30 20284 O 1962.28 -0.0756026 -1.95754 0
M  V30 20285 H 1960.86 -0.720886 -0.195786 0
M  V30 20286 H 1963.52 -1.93831 0.203893 0
M  V30 20287 H 1962.62 -2.986 -0.907979 0
M  V30 20288 N 1962.92 0.141865 -1.5696 0
M  V30 20289 C 1964.17 0.852066 -1.82819 0
M  V30 20290 C 1964.48 1.82103 -0.713987 0
M  V30 20291 O 1965.68 2.57575 -0.858321 0
M  V30 20292 C 1964.14 1.56589 -3.24049 0
M  V30 20293 C 1963.75 0.639071 -4.43418 0
M  V30 20294 C 1965.49 2.26257 -3.59177 0
M  V30 20295 C 1963.4 1.35481 -5.75673 0
M  V30 20296 H 1962.33 0.321934 -0.681817 0
M  V30 20297 H 1964.98 0.104791 -1.83201 0
M  V30 20298 H 1963.36 2.35898 -3.1807 0
M  V30 20299 H 1964.54 -0.119159 -4.60646 0
M  V30 20300 H 1962.85 0.0505413 -4.16369 0
M  V30 20301 H 1965.45 2.80455 -4.55246 0
M  V30 20302 H 1965.79 3.02992 -2.85485 0
M  V30 20303 H 1966.32 1.53861 -3.6684 0
M  V30 20304 H 1963.06 0.629214 -6.52473 0
M  V30 20305 H 1962.58 2.08562 -5.62372 0
M  V30 20306 H 1964.26 1.89432 -6.18647 0
M  V30 20307 N 1964.39 1.52136 0.411372 0
M  V30 20308 C 1965.64 1.65757 1.15624 0
M  V30 20309 C 1965.96 0.388771 1.91085 0
M  V30 20310 O 1965.23 -0.596276 1.86605 0
M  V30 20311 H 1963.81 0.610955 0.429817 0
M  V30 20312 H 1966.48 1.8917 0.469114 0
M  V30 20313 H 1965.57 2.49759 1.87155 0
M  V30 20314 N 1965.87 -0.668464 1.42721 0
M  V30 20315 C 1967.1 -1.45659 1.46939 0
M  V30 20316 C 1967.52 -1.88619 0.0826133 0
M  V30 20317 O 1966.87 -1.58537 -0.904 0
M  V30 20318 C 1966.92 -2.70158 2.40202 0
M  V30 20319 O 1966.65 -2.28999 3.73485 0
M  V30 20320 C 1968.15 -3.63662 2.53505 0
M  V30 20321 H 1965.37 -0.447982 0.499553 0
M  V30 20322 H 1967.91 -0.820826 1.87304 0
M  V30 20323 H 1966.07 -3.29909 2.03074 0
M  V30 20324 H 1966.48 -3.09441 4.23493 0
M  V30 20325 H 1967.95 -4.47726 3.22871 0
M  V30 20326 H 1968.43 -4.09989 1.57498 0
M  V30 20327 H 1969.04 -3.09801 2.91382 0
M  V30 20328 N 1967.35 -1.28999 -0.905381 0
M  V30 20329 C 1968.6 -1.16813 -1.65779 0
M  V30 20330 C 1968.93 0.280936 -1.92157 0
M  V30 20331 O 1968.21 1.2035 -1.52794 0
M  V30 20332 C 1968.49 -1.97593 -3.01047 0
M  V30 20333 C 1968.34 -3.50608 -2.8177 0
M  V30 20334 C 1969.66 -1.79788 -4.01702 0
M  V30 20335 H 1966.78 -0.425716 -0.60161 0
M  V30 20336 H 1969.42 -1.58409 -1.04913 0
M  V30 20337 H 1967.57 -1.62246 -3.52999 0
M  V30 20338 H 1969.24 -3.95905 -2.36763 0
M  V30 20339 H 1967.49 -3.75818 -2.16663 0
M  V30 20340 H 1968.16 -4.02396 -3.77865 0
M  V30 20341 H 1970.63 -2.10649 -3.5884 0
M  V30 20342 H 1969.51 -2.38667 -4.94297 0
M  V30 20343 H 1969.77 -0.75156 -4.35665 0
M  V30 20344 N 1968.83 1.11497 -1.11383 0
M  V30 20345 C 1969.76 2.19592 -0.793827 0
M  V30 20346 C 1970.74 1.68433 0.237559 0
M  V30 20347 O 1971.93 1.93936 0.101164 0
M  V30 20348 C 1969.06 3.465 -0.235579 0
M  V30 20349 C 1968.01 4.10869 -1.19877 0
M  V30 20350 C 1967.34 5.32345 -0.501259 0
M  V30 20351 C 1968.64 4.55864 -2.54922 0
M  V30 20352 H 1970.33 2.46617 -1.69766 0
M  V30 20353 H 1967.88 1.18532 -0.817695 0
M  V30 20354 H 1969.83 4.214 0.000490272 0
M  V30 20355 H 1968.55 3.18932 0.703544 0
M  V30 20356 H 1967.21 3.37962 -1.42046 0
M  V30 20357 H 1966.86 5.01048 0.442652 0
M  V30 20358 H 1966.56 5.76363 -1.14367 0
M  V30 20359 H 1968.08 6.09985 -0.273968 0
M  V30 20360 H 1969.5 5.22089 -2.36845 0
M  V30 20361 H 1967.89 5.10693 -3.15139 0
M  V30 20362 H 1968.96 3.69342 -3.14189 0
M  V30 20363 N 1970.31 0.904053 1.29092 0
M  V30 20364 C 1971.58 0.451521 1.90317 0
M  V30 20365 C 1971.96 -1.06911 1.82025 0
M  V30 20366 O 1971.31 -1.9129 1.24982 0
M  V30 20367 C 1971.52 0.970986 3.35221 0
M  V30 20368 C 1972.87 1.01728 4.12234 0
M  V30 20369 O 1973.89 0.918956 3.44142 0
M  V30 20370 O 1972.75 1.16562 5.33925 0
M  V30 20371 H 1969.85 0.141495 0.814806 0
M  V30 20372 H 1972.39 0.994203 1.37527 0
M  V30 20373 H 1971.17 2.01497 3.35432 0
M  V30 20374 H 1970.79 0.408567 3.95495 0
M  V30 20375 N 1971.79 -1.4279 0.666995 0
M  V30 20376 C 1972.72 -2.29134 -0.0550112 0
M  V30 20377 C 1973.73 -1.43259 -0.773357 0
M  V30 20378 O 1974.92 -1.67057 -0.628816 0
M  V30 20379 C 1972.02 -3.20503 -1.1014 0
M  V30 20380 C 1971.19 -4.34991 -0.458443 0
M  V30 20381 C 1970.25 -5.07136 -1.40356 0
M  V30 20382 O 1969.28 -5.61929 -0.90686 0
M  V30 20383 N 1970.48 -5.1192 -2.73712 0
M  V30 20384 H 1973.24 -2.9174 0.686156 0
M  V30 20385 H 1970.81 -1.5363 0.510814 0
M  V30 20386 H 1972.8 -3.65634 -1.73477 0
M  V30 20387 H 1971.37 -2.59403 -1.74439 0
M  V30 20388 H 1970.59 -3.92605 0.354287 0
M  V30 20389 H 1971.88 -5.08799 -0.0101948 0
M  V30 20390 H 1971.27 -4.68799 -3.16613 0
M  V30 20391 H 1969.83 -5.60722 -3.32316 0
M  V30 20392 N 1973.26 -0.409806 -1.52179 0
M  V30 20393 C 1974.23 0.40345 -2.25621 0
M  V30 20394 C 1975.23 0.973072 -1.28015 0
M  V30 20395 O 1976.42 0.851845 -1.51951 0
M  V30 20396 C 1973.55 1.568 -3.02699 0
M  V30 20397 H 1974.74 -0.239822 -2.9894 0
M  V30 20398 H 1972.29 -0.162341 -1.55455 0
M  V30 20399 H 1973.03 2.24811 -2.33731 0
M  V30 20400 H 1972.81 1.16603 -3.74361 0
M  V30 20401 H 1974.3 2.14326 -3.58405 0
M  V30 20402 N 1974.74 1.56975 -0.14025 0
M  V30 20403 C 1975.65 2.19981 0.815207 0
M  V30 20404 C 1976.67 1.18211 1.2768 0
M  V30 20405 O 1977.84 1.50762 1.33539 0
M  V30 20406 C 1974.91 2.80369 2.03946 0
M  V30 20407 C 1973.97 3.97244 1.62774 0
M  V30 20408 C 1973.2 4.54744 2.79363 0
M  V30 20409 O 1973.43 4.11124 3.9539 0
M  V30 20410 O 1972.36 5.45109 2.55224 0
M  V30 20411 H 1976.19 3.02125 0.308908 0
M  V30 20412 H 1973.77 1.4915 0.0864409 0
M  V30 20413 H 1975.65 3.18778 2.75606 0
M  V30 20414 H 1974.33 2.01243 2.53541 0
M  V30 20415 H 1973.23 3.63564 0.88158 0
M  V30 20416 H 1974.57 4.7787 1.17901 0
M  V30 20417 N 1976.22 -0.133539 1.57033 0
M  V30 20418 C 1977.45 -0.858432 1.88251 0
M  V30 20419 C 1977.86 -1.74119 0.729935 0
M  V30 20420 O 1977.22 -1.8002 -0.29983 0
M  V30 20421 C 1977.27 -1.70397 3.18821 0
M  V30 20422 O 1976.99 -0.856775 4.29641 0
M  V30 20423 C 1978.49 -2.53529 3.63646 0
M  V30 20424 H 1975.71 -0.247538 0.623671 0
M  V30 20425 H 1978.26 -0.122289 2.04134 0
M  V30 20426 H 1976.41 -2.39303 3.04652 0
M  V30 20427 H 1976.83 -1.43857 5.04386 0
M  V30 20428 H 1978.3 -3.0841 4.57807 0
M  V30 20429 H 1978.78 -3.30204 2.89589 0
M  V30 20430 H 1979.38 -1.89891 3.80554 0
M  V30 20431 N 1977.7 -1.52352 -0.403298 0
M  V30 20432 C 1978.66 -1.75482 -1.4744 0
M  V30 20433 C 1979.66 -0.62473 -1.48168 0
M  V30 20434 O 1980.85 -0.892662 -1.4959 0
M  V30 20435 C 1977.98 -1.84253 -2.86817 0
M  V30 20436 H 1979.18 -2.71107 -1.28222 0
M  V30 20437 H 1976.73 -1.42857 -0.634157 0
M  V30 20438 H 1977.46 -0.905623 -3.11398 0
M  V30 20439 H 1977.25 -2.66414 -2.87691 0
M  V30 20440 H 1978.74 -2.03869 -3.64454 0
M  V30 20441 N 1979.18 0.660885 -1.43074 0
M  V30 20442 C 1980.42 1.41805 -1.43999 0
M  V30 20443 C 1980.74 1.949 -0.0625341 0
M  V30 20444 O 1980.01 1.7395 0.901019 0
M  V30 20445 H 1978.59 0.526263 -0.530147 0
M  V30 20446 H 1981.26 0.779967 -1.78613 0
M  V30 20447 H 1980.35 2.2642 -2.14803 0
M  V30 20448 N 1980.65 1.29477 0.898527 0
M  V30 20449 C 1981.62 1.14706 1.98432 0
M  V30 20450 C 1982.62 0.0821822 1.6059 0
M  V30 20451 O 1983.81 0.329216 1.71061 0
M  V30 20452 C 1980.94 0.754356 3.32449 0
M  V30 20453 H 1982.13 2.11154 2.12964 0
M  V30 20454 H 1979.69 1.1268 1.08319 0
M  V30 20455 H 1980.42 -0.210224 3.23618 0
M  V30 20456 H 1980.21 1.52377 3.61281 0
M  V30 20457 H 1981.7 0.674095 4.12123 0
M  V30 20458 N 1982.13 -1.10905 1.11972 0
M  V30 20459 C 1983.55 -1.3478 0.854776 0
M  V30 20460 C 1983.75 -1.94737 -0.517653 0
M  V30 20461 O 1982.8 -2.18391 -1.26734 0
M  V30 20462 C 1984.12 -2.27414 1.96732 0
M  V30 20463 C 1985.67 -2.40964 1.99764 0
M  V30 20464 C 1986.14 -3.36923 3.10237 0
M  V30 20465 N 1987.63 -3.44488 3.09648 0
M  V30 20466 C 1988.37 -4.18695 3.91768 0
M  V30 20467 N 1987.86 -4.95829 4.83865 0
M  V30 20468 N 1989.66 -4.14263 3.79924 0
M  V30 20469 H 1981.81 -0.703538 2.0041 0
M  V30 20470 H 1984.07 -0.372318 0.871828 0
M  V30 20471 H 1983.78 -1.90561 2.956 0
M  V30 20472 H 1983.65 -3.27681 1.86829 0
M  V30 20473 H 1986.04 -2.77089 1.01518 0
M  V30 20474 H 1986.12 -1.40529 2.13741 0
M  V30 20475 H 1985.76 -3.01524 4.08712 0
M  V30 20476 H 1985.69 -4.37225 2.93499 0
M  V30 20477 H 1988.18 -2.89475 2.42925 0
M  V30 20478 H 1988.5 -5.49836 5.43047 0
M  V30 20479 H 1986.84 -4.9497 4.87883 0
M  V30 20480 H 1990.03 -3.53095 3.07314 0
M  V30 20481 H 1990.2 -4.71837 4.44155 0
M  V30 20482 N 1983.61 -0.910886 -1.2861 0
M  V30 20483 C 1984.54 -0.413998 -2.29801 0
M  V30 20484 C 1985.52 0.51689 -1.62056 0
M  V30 20485 O 1986.71 0.425236 -1.89487 0
M  V30 20486 C 1983.84 0.349336 -3.45539 0
M  V30 20487 C 1982.79 -0.49215 -4.25161 0
M  V30 20488 C 1982.12 0.399352 -5.33207 0
M  V30 20489 C 1983.42 -1.74792 -4.92184 0
M  V30 20490 H 1985.11 -1.25965 -2.71612 0
M  V30 20491 H 1982.66 -0.607149 -1.30575 0
M  V30 20492 H 1984.61 0.70777 -4.15414 0
M  V30 20493 H 1983.33 1.22887 -3.02599 0
M  V30 20494 H 1981.99 -0.833064 -3.57009 0
M  V30 20495 H 1981.64 1.27734 -4.86511 0
M  V30 20496 H 1981.34 -0.160062 -5.87382 0
M  V30 20497 H 1982.86 0.753731 -6.0593 0
M  V30 20498 H 1984.28 -1.45856 -5.54436 0
M  V30 20499 H 1982.68 -2.24952 -5.56342 0
M  V30 20500 H 1983.75 -2.4774 -4.16837 0
M  V30 20501 N 1985.09 1.42434 -0.674558 0
M  V30 20502 C 1986.33 2.01841 -0.197012 0
M  V30 20503 C 1986.67 1.53214 1.19328 0
M  V30 20504 O 1985.94 0.734239 1.80109 0
M  V30 20505 C 1986.23 3.59356 -0.231383 0
M  V30 20506 C 1986.08 4.18162 -1.65711 0
M  V30 20507 C 1987.4 4.38086 0.420535 0
M  V30 20508 H 1984.52 0.733369 -0.0730636 0
M  V30 20509 H 1987.16 1.69458 -0.859297 0
M  V30 20510 H 1985.31 3.87074 0.332539 0
M  V30 20511 H 1986.98 4.01398 -2.27327 0
M  V30 20512 H 1985.22 3.74 -2.19787 0
M  V30 20513 H 1985.89 5.27297 -1.63285 0
M  V30 20514 H 1988.37 4.16057 -0.0594985 0
M  V30 20515 H 1987.25 5.47679 0.365847 0
M  V30 20516 H 1987.51 4.15945 1.49808 0
M  V30 20517 N 1986.57 0.417871 1.51959 0
M  V30 20518 C 1987.81 -0.155282 2.02205 0
M  V30 20519 C 1988.15 -1.44044 1.3025 0
M  V30 20520 O 1987.42 -1.90098 0.411449 0
M  V30 20521 C 1987.7 -0.394038 3.57938 0
M  V30 20522 C 1987.56 0.908404 4.40532 0
M  V30 20523 C 1988.88 -1.17238 4.24197 0
M  V30 20524 H 1985.99 -0.0549616 0.734948 0
M  V30 20525 H 1988.64 0.553053 1.81773 0
M  V30 20526 H 1986.79 -0.997422 3.75478 0
M  V30 20527 H 1988.46 1.54427 4.34684 0
M  V30 20528 H 1986.7 1.51743 4.06395 0
M  V30 20529 H 1987.37 0.69563 5.47599 0
M  V30 20530 H 1989.85 -0.661461 4.10809 0
M  V30 20531 H 1988.72 -1.30818 5.33083 0
M  V30 20532 H 1988.99 -2.19534 3.83741 0
M  V30 20533 N 1988.04 -1.56898 0.148573 0
M  V30 20534 C 1988.97 -2.19852 -0.786585 0
M  V30 20535 C 1989.96 -1.14723 -1.2559 0
M  V30 20536 O 1991.14 -1.43071 -1.31317 0
M  V30 20537 C 1988.27 -2.82137 -2.02524 0
M  V30 20538 C 1987.22 -3.93108 -1.69264 0
M  V30 20539 C 1986.55 -4.42335 -3.00407 0
M  V30 20540 C 1987.85 -5.13807 -0.938092 0
M  V30 20541 H 1989.54 -2.98252 -0.261903 0
M  V30 20542 H 1987.09 -1.43461 -0.124531 0
M  V30 20543 H 1989.04 -3.24845 -2.68428 0
M  V30 20544 H 1987.77 -2.01071 -2.57368 0
M  V30 20545 H 1986.43 -3.5102 -1.05739 0
M  V30 20546 H 1986.07 -3.58089 -3.53244 0
M  V30 20547 H 1985.77 -5.17185 -2.78915 0
M  V30 20548 H 1987.3 -4.87714 -3.67378 0
M  V30 20549 H 1988.71 -5.53349 -1.49924 0
M  V30 20550 H 1987.11 -5.94429 -0.823062 0
M  V30 20551 H 1988.18 -4.8485 0.0698825 0
M  V30 20552 N 1989.52 0.125209 -1.57102 0
M  V30 20553 C 1990.49 1.13792 -1.98957 0
M  V30 20554 C 1991.49 1.34656 -0.878887 0
M  V30 20555 O 1992.68 1.31278 -1.14506 0
M  V30 20556 C 1989.81 2.49371 -2.32437 0
M  V30 20557 H 1991 0.778319 -2.89624 0
M  V30 20558 H 1988.55 0.369299 -1.51875 0
M  V30 20559 H 1989.29 2.90263 -1.4463 0
M  V30 20560 H 1989.07 2.35583 -3.13437 0
M  V30 20561 H 1990.56 3.22268 -2.65581 0
M  V30 20562 N 1991 1.52564 0.395213 0
M  V30 20563 C 1992.23 1.71173 1.16222 0
M  V30 20564 C 1992.64 0.427335 1.839 0
M  V30 20565 O 1992 -0.597726 1.72434 0
M  V30 20566 C 1992.05 2.85698 2.21492 0
M  V30 20567 O 1991.77 4.09165 1.56574 0
M  V30 20568 C 1993.27 3.15934 3.10967 0
M  V30 20569 H 1990.49 0.573277 0.348705 0
M  V30 20570 H 1993.04 1.99186 0.463177 0
M  V30 20571 H 1991.19 2.60165 2.87042 0
M  V30 20572 H 1991.61 4.73086 2.26473 0
M  V30 20573 H 1993.08 3.99548 3.80874 0
M  V30 20574 H 1993.56 2.30059 3.74125 0
M  V30 20575 H 1994.16 3.43284 2.5107 0
M  V30 20576 N 1992.48 -0.653289 1.43422 0
M  V30 20577 C 1993.44 -1.74802 1.48246 0
M  V30 20578 C 1994.44 -1.56552 0.367179 0
M  V30 20579 O 1995.63 -1.62451 0.628923 0
M  V30 20580 C 1992.76 -3.13673 1.33499 0
M  V30 20581 H 1993.96 -1.71906 2.4574 0
M  V30 20582 H 1991.51 -0.864936 1.30187 0
M  V30 20583 H 1992.24 -3.22181 0.370118 0
M  V30 20584 H 1992.03 -3.28325 2.14348 0
M  V30 20585 H 1993.52 -3.93502 1.39806 0
M  V30 20586 N 1993.96 -1.29952 -0.891648 0
M  V30 20587 C 1995.18 -1.21297 -1.67615 0
M  V30 20588 C 1995.6 0.225203 -1.87452 0
M  V30 20589 O 1994.96 1.14977 -1.41727 0
M  V30 20590 C 1995.01 -1.93074 -3.05622 0
M  V30 20591 O 1994.73 -3.31276 -2.86684 0
M  V30 20592 C 1996.23 -1.90996 -4.00044 0
M  V30 20593 H 1993.45 -0.420057 -0.523253 0
M  V30 20594 H 1995.99 -1.71463 -1.11448 0
M  V30 20595 H 1994.15 -1.46724 -3.5854 0
M  V30 20596 H 1994.56 -3.67538 -3.74187 0
M  V30 20597 H 1996.04 -2.45768 -4.94269 0
M  V30 20598 H 1996.51 -0.887331 -4.30143 0
M  V30 20599 H 1997.12 -2.37127 -3.53059 0
M  V30 20600 N 1995.44 1.1031 -1.12559 0
M  V30 20601 C 1996.85 1.63801 -0.895891 0
M  V30 20602 C 1997.2 1.87753 0.569511 0
M  V30 20603 O 1996.32 1.62046 1.43423 0
M  V30 20604 C 1996.92 2.9757 -1.6198 0
M  V30 20605 C 1995.48 3.47922 -1.43622 0
M  V30 20606 C 1994.62 2.22506 -1.65489 0
M  V30 20607 H 1997.57 0.937927 -1.28018 0
M  V30 20608 H 1997.6 3.65099 -1.07159 0
M  V30 20609 H 1997.11 2.80105 -2.68631 0
M  V30 20610 H 1995.21 3.70529 -0.392328 0
M  V30 20611 H 1995.32 4.25953 -2.1932 0
M  V30 20612 H 1993.69 2.30712 -1.07908 0
M  V30 20613 H 1994.47 2.07571 -2.7344 0
M  V30 20614 N 1996.91 0.917694 1.28125 0
M  V30 20615 C 1998.32 0.598885 1.76834 0
M  V30 20616 C 1998.68 -0.885857 1.75063 0
M  V30 20617 O 1997.8 -1.69304 1.34778 0
M  V30 20618 C 1998.4 1.08036 3.21113 0
M  V30 20619 C 1996.95 0.812402 3.67528 0
M  V30 20620 C 1996.1 1.24483 2.47789 0
M  V30 20621 H 1999.05 1.09854 1.14533 0
M  V30 20622 H 1999.07 0.423555 3.78135 0
M  V30 20623 H 1998.59 2.161 3.2237 0
M  V30 20624 H 1996.69 -0.254859 3.71727 0
M  V30 20625 H 1996.8 1.42291 4.57482 0
M  V30 20626 H 1995.16 0.663509 2.45906 0
M  V30 20627 H 1995.95 2.3339 2.51762 0
M  V30 20628 N 1998.39 -1.42074 0.682102 0
M  V30 20629 C 1999.64 -2.01037 0.206997 0
M  V30 20630 C 1999.96 -1.5424 -1.19311 0
M  V30 20631 O 1999.23 -0.767197 -1.80252 0
M  V30 20632 H 1997.81 -0.743372 0.073537 0
M  V30 20633 H 2000.47 -1.7389 0.880247 0
M  V30 20634 H 1999.57 -3.11366 0.213942 0
M  V30 20635 N 1999.87 -0.425924 -1.51735 0
M  V30 20636 C 2001.09 0.145767 -2.06887 0
M  V30 20637 C 2001.52 1.36671 -1.29239 0
M  V30 20638 O 2000.88 1.78323 -0.327176 0
M  V30 20639 C 2000.93 0.457951 -3.5768 0
M  V30 20640 O 2000.03 1.54629 -3.82314 0
M  V30 20641 H 1999.37 0.00686619 -0.663964 0
M  V30 20642 H 2001.9 -0.603968 -1.95482 0
M  V30 20643 H 2001.91 0.71173 -4.01744 0
M  V30 20644 H 2000.59 -0.434483 -4.13624 0
M  V30 20645 H 1999.16 1.28336 -3.5012 0
M  V30 20646 N 2001.35 1.56817 -0.156891 0
M  V30 20647 C 2002.59 1.9673 0.492464 0
M  V30 20648 C 2002.93 1.04226 1.63862 0
M  V30 20649 O 2002.2 0.0865469 1.94307 0
M  V30 20650 C 2002.48 3.46246 0.989218 0
M  V30 20651 C 2002.34 4.49529 -0.156119 0
M  V30 20652 C 2003.66 3.98502 1.86773 0
M  V30 20653 H 2000.78 0.715297 0.177537 0
M  V30 20654 H 2003.42 1.88477 -0.240116 0
M  V30 20655 H 2001.57 3.53411 1.61348 0
M  V30 20656 H 2003.24 4.54437 -0.792781 0
M  V30 20657 H 2001.48 4.26098 -0.813797 0
M  V30 20658 H 2002.15 5.51507 0.233341 0
M  V30 20659 H 2004.63 3.93879 1.34159 0
M  V30 20660 H 2003.51 5.03564 2.18436 0
M  V30 20661 H 2003.77 3.4145 2.80828 0
M  V30 20662 N 2002.83 -0.116876 1.57166 0
M  V30 20663 C 2004.05 -0.838417 1.89151 0
M  V30 20664 C 2004.47 -1.73335 0.748361 0
M  V30 20665 O 2003.83 -1.80328 -0.280719 0
M  V30 20666 C 2003.88 -1.67006 3.20611 0
M  V30 20667 O 2003.6 -0.811158 4.30525 0
M  V30 20668 C 2005.1 -2.49657 3.66314 0
M  V30 20669 H 2002.32 -0.240909 0.626262 0
M  V30 20670 H 2004.86 -0.100631 2.04252 0
M  V30 20671 H 2003.02 -2.36058 3.07173 0
M  V30 20672 H 2003.43 -1.38499 5.05884 0
M  V30 20673 H 2004.91 -3.03537 4.61052 0
M  V30 20674 H 2005.38 -3.27114 2.93075 0
M  V30 20675 H 2005.99 -1.85844 3.82547 0
M  V30 20676 N 2004.3 -1.52772 -0.387116 0
M  V30 20677 C 2005.55 -1.68156 -1.13364 0
M  V30 20678 C 2005.88 -0.421195 -1.89577 0
M  V30 20679 O 2005.16 0.581056 -1.85618 0
M  V30 20680 C 2005.44 -2.91781 -2.11036 0
M  V30 20681 C 2005.29 -4.27922 -1.38573 0
M  V30 20682 C 2006.61 -3.10957 -3.11438 0
M  V30 20683 H 2003.73 -0.611922 -0.410755 0
M  V30 20684 H 2006.37 -1.85372 -0.416809 0
M  V30 20685 H 2004.52 -2.77234 -2.72165 0
M  V30 20686 H 2006.2 -4.54241 -0.803941 0
M  V30 20687 H 2004.44 -4.28316 -0.687576 0
M  V30 20688 H 2005.11 -5.10514 -2.09952 0
M  V30 20689 H 2007.59 -3.24547 -2.604 0
M  V30 20690 H 2006.46 -3.9893 -3.77022 0
M  V30 20691 H 2006.72 -2.25258 -3.80409 0
M  V30 20692 N 2005.78 0.645673 -1.43767 0
M  V30 20693 C 2007.19 1.22702 -1.40717 0
M  V30 20694 C 2007.54 1.95862 -0.115066 0
M  V30 20695 O 2006.67 2.01652 0.785197 0
M  V30 20696 C 2007.26 2.23174 -2.54909 0
M  V30 20697 C 2005.82 2.76769 -2.551 0
M  V30 20698 C 2004.97 1.5153 -2.32237 0
M  V30 20699 H 2007.92 0.437227 -1.52558 0
M  V30 20700 H 2007.94 3.05497 -2.2683 0
M  V30 20701 H 2007.45 1.69898 -3.48936 0
M  V30 20702 H 2005.55 3.34087 -1.64974 0
M  V30 20703 H 2005.67 3.23799 -3.53116 0
M  V30 20704 H 2004.03 1.79146 -1.81049 0
M  V30 20705 H 2004.81 1.00177 -3.28359 0
M  V30 20706 N 2007.26 1.30423 0.884744 0
M  V30 20707 C 2008.21 1.13434 1.97779 0
M  V30 20708 C 2009.19 0.0494483 1.60824 0
M  V30 20709 O 2010.39 0.272793 1.74885 0
M  V30 20710 C 2007.51 0.828489 3.33153 0
M  V30 20711 C 2006.6 1.95365 3.76422 0
M  V30 20712 N 2006.99 3.19903 3.91785 0
M  V30 20713 C 2005.29 1.85007 4.05818 0
M  V30 20714 C 2005.99 3.93408 4.28492 0
M  V30 20715 N 2004.97 3.2146 4.38366 0
M  V30 20716 H 2008.77 2.07889 2.07748 0
M  V30 20717 H 2006.28 1.21765 1.07457 0
M  V30 20718 H 2008.28 0.687799 4.11187 0
M  V30 20719 H 2006.94 -0.107985 3.2452 0
M  V30 20720 H 2007.95 3.55189 3.7691 0
M  V30 20721 H 2004.63 0.987286 4.05659 0
M  V30 20722 H 2006.02 5.00656 4.48099 0
M  V30 20723 N 2008.74 -1.09711 1.13142 0
M  V30 20724 C 2010.15 -1.63323 0.904565 0
M  V30 20725 C 2010.5 -1.88052 -0.559546 0
M  V30 20726 O 2009.62 -1.62804 -1.42562 0
M  V30 20727 C 2010.22 -2.96707 1.63556 0
M  V30 20728 C 2008.78 -3.47156 1.45465 0
M  V30 20729 C 2007.93 -2.21625 1.66667 0
M  V30 20730 H 2010.88 -0.931125 1.28514 0
M  V30 20731 H 2010.9 -3.64525 1.09094 0
M  V30 20732 H 2010.41 -2.78677 2.70113 0
M  V30 20733 H 2008.51 -3.70315 0.411972 0
M  V30 20734 H 2008.62 -4.24784 2.21576 0
M  V30 20735 H 2006.99 -2.30136 1.0913 0
M  V30 20736 H 2007.77 -2.06118 2.74537 0
M  V30 20737 N 2010.22 -0.924476 -1.27637 0
M  V30 20738 C 2011.16 -0.411501 -2.28931 0
M  V30 20739 C 2012.16 0.502472 -1.61776 0
M  V30 20740 O 2013.36 0.382531 -1.75888 0
M  V30 20741 H 2009.74 -0.114496 -0.743233 0
M  V30 20742 H 2011.71 -1.27869 -2.69615 0
M  V30 20743 C 2010.46 0.323415 -3.46193 0
M  V30 20744 H 2009.78 -0.37068 -3.98078 0
M  V30 20745 H 2011.22 0.646821 -4.19037 0
M  V30 20746 C 2009.68 1.53523 -2.99887 0
M  V30 20747 O 2010.21 2.63407 -3.03281 0
M  V30 20748 N 2008.42 1.38594 -2.55421 0
M  V30 20749 H 2007.96 0.491939 -2.52859 0
M  V30 20750 H 2007.92 2.198 -2.24801 0
M  V30 20751 N 2011.69 1.41711 -0.689627 0
M  V30 20752 C 2012.94 2.00548 -0.215219 0
M  V30 20753 C 2013.26 1.55228 1.19011 0
M  V30 20754 O 2014.46 2.06585 1.76167 0
M  V30 20755 C 2012.92 3.58348 -0.333888 0
M  V30 20756 C 2012.53 4.12652 -1.74421 0
M  V30 20757 C 2014.27 4.24423 0.0810486 0
M  V30 20758 C 2012.18 5.62865 -1.81485 0
M  V30 20759 H 2011.11 0.750088 -0.0767043 0
M  V30 20760 H 2013.76 1.6226 -0.856963 0
M  V30 20761 H 2012.14 3.94211 0.376004 0
M  V30 20762 H 2013.31 3.8822 -2.48238 0
M  V30 20763 H 2011.63 3.59082 -2.1083 0
M  V30 20764 H 2014.23 5.34678 0.0486243 0
M  V30 20765 H 2014.57 4.00984 1.1188 0
M  V30 20766 H 2015.1 3.93573 -0.578357 0
M  V30 20767 H 2011.84 5.91122 -2.83292 0
M  V30 20768 H 2011.36 5.89242 -1.12044 0
M  V30 20769 H 2013.04 6.27536 -1.57503 0
M  V30 20770 N 2013.17 0.433965 1.51507 0
M  V30 20771 C 2014.08 -0.385423 2.31412 0
M  V30 20772 C 2015.1 -1.03078 1.40182 0
M  V30 20773 O 2016.27 -1.02688 1.73254 0
M  V30 20774 C 2013.34 -1.47371 3.13819 0
M  V30 20775 C 2012.4 -0.848838 4.20824 0
M  V30 20776 C 2011.63 -1.88527 4.99293 0
M  V30 20777 O 2011.86 -3.107 4.78353 0
M  V30 20778 O 2010.79 -1.47768 5.83479 0
M  V30 20779 H 2014.62 0.266798 3.02526 0
M  V30 20780 H 2012.2 0.19658 1.48101 0
M  V30 20781 H 2014.08 -2.10495 3.65061 0
M  V30 20782 H 2012.76 -2.11008 2.45474 0
M  V30 20783 H 2011.67 -0.179639 3.73668 0
M  V30 20784 H 2013 -0.256013 4.91534 0
M  V30 20785 N 2014.65 -1.56732 0.165206 0
M  V30 20786 C 2015.56 -2.2125 -0.780107 0
M  V30 20787 C 2016.58 -1.20227 -1.25784 0
M  V30 20788 O 2017.75 -1.52868 -1.31124 0
M  V30 20789 C 2014.82 -2.83579 -1.99459 0
M  V30 20790 C 2013.88 -3.99784 -1.56434 0
M  V30 20791 C 2013.11 -4.5913 -2.72094 0
M  V30 20792 O 2013.33 -4.17363 -3.88799 0
M  V30 20793 O 2012.27 -5.49101 -2.46519 0
M  V30 20794 H 2016.09 -3.02578 -0.260803 0
M  V30 20795 H 2013.68 -1.49268 -0.0627015 0
M  V30 20796 H 2015.56 -3.23123 -2.70499 0
M  V30 20797 H 2014.24 -2.05251 -2.50307 0
M  V30 20798 H 2013.14 -3.64921 -0.823629 0
M  V30 20799 H 2014.48 -4.79686 -1.10284 0
M  V30 20800 N 2016.13 0.10854 -1.57226 0
M  V30 20801 C 2017.37 0.815673 -1.85673 0
M  V30 20802 C 2017.71 1.79031 -0.752441 0
M  V30 20803 O 2016.98 1.93004 0.240811 0
M  V30 20804 C 2017.27 1.55633 -3.24731 0
M  V30 20805 C 2017.12 0.600595 -4.45772 0
M  V30 20806 C 2018.44 2.51009 -3.61501 0
M  V30 20807 H 2015.56 0.295076 -0.675351 0
M  V30 20808 H 2018.2 0.079634 -1.89833 0
M  V30 20809 H 2016.35 2.18377 -3.21316 0
M  V30 20810 H 2018.02 -0.0187984 -4.61296 0
M  V30 20811 H 2016.26 -0.0870799 -4.33713 0
M  V30 20812 H 2016.93 1.15569 -5.39766 0
M  V30 20813 H 2019.41 1.98365 -3.65774 0
M  V30 20814 H 2018.29 2.99857 -4.59758 0
M  V30 20815 H 2018.55 3.34154 -2.89472 0
M  V30 20816 N 2017.61 1.52975 0.379009 0
M  V30 20817 C 2018.57 1.77806 1.4463 0
M  V30 20818 C 2019.57 0.648223 1.47155 0
M  V30 20819 O 2020.76 0.916347 1.48151 0
M  V30 20820 C 2017.89 1.88792 2.83849 0
M  V30 20821 H 2019.08 2.73113 1.23892 0
M  V30 20822 H 2016.64 1.43848 0.61135 0
M  V30 20823 H 2017.37 0.955049 3.09918 0
M  V30 20824 H 2017.16 2.70957 2.83416 0
M  V30 20825 H 2018.65 2.09642 3.61165 0
M  V30 20826 N 2019.08 -0.63804 1.44107 0
M  V30 20827 C 2020.01 -1.76164 1.5326 0
M  V30 20828 C 2021 -1.6566 0.386107 0
M  V30 20829 O 2022.18 -1.84525 0.605326 0
M  V30 20830 C 2019.31 -3.14665 1.4698 0
M  V30 20831 C 2018.26 -3.39949 2.60035 0
M  V30 20832 C 2017.59 -4.78409 2.38808 0
M  V30 20833 C 2018.89 -3.33193 4.02219 0
M  V30 20834 H 2020.58 -1.6876 2.47306 0
M  V30 20835 H 2018.13 -0.810483 1.19026 0
M  V30 20836 H 2020.08 -3.93037 1.51986 0
M  V30 20837 H 2018.81 -3.22835 0.494471 0
M  V30 20838 H 2017.47 -2.63955 2.54408 0
M  V30 20839 H 2017.11 -4.83274 1.39483 0
M  V30 20840 H 2016.81 -4.96285 3.14602 0
M  V30 20841 H 2018.34 -5.5902 2.4562 0
M  V30 20842 H 2019.75 -4.0148 4.09252 0
M  V30 20843 H 2018.15 -3.62605 4.78161 0
M  V30 20844 H 2019.22 -2.31116 4.26279 0
M  V30 20845 N 2020.56 -1.3089 -0.877815 0
M  V30 20846 C 2021.79 -1.23199 -1.66844 0
M  V30 20847 C 2022.21 0.200808 -1.87025 0
M  V30 20848 O 2021.57 1.14417 -1.40636 0
M  V30 20849 C 2021.62 -1.97328 -3.01818 0
M  V30 20850 O 2020.72 -1.30526 -3.91199 0
M  V30 20851 H 2020.06 -0.425746 -0.509545 0
M  V30 20852 H 2022.59 -1.7283 -1.09504 0
M  V30 20853 H 2022.6 -2.06624 -3.51811 0
M  V30 20854 H 2021.28 -3.01529 -2.86449 0
M  V30 20855 H 2019.86 -1.29631 -3.49643 0
M  V30 20856 N 2022.04 1.0911 -1.13723 0
M  V30 20857 C 2023.27 1.85108 -0.924265 0
M  V30 20858 C 2023.68 1.81295 0.527025 0
M  V30 20859 O 2023.04 1.21144 1.36493 0
M  V30 20860 C 2023.09 3.3295 -1.40807 0
M  V30 20861 O 2022.81 3.36738 -2.80249 0
M  V30 20862 C 2024.31 4.25778 -1.23401 0
M  V30 20863 H 2021.53 0.584594 -0.329379 0
M  V30 20864 H 2024.08 1.37847 -1.51058 0
M  V30 20865 H 2022.23 3.77627 -0.864679 0
M  V30 20866 H 2022.65 4.28973 -3.01799 0
M  V30 20867 H 2024.12 5.27655 -1.62123 0
M  V30 20868 H 2024.6 4.38847 -0.176058 0
M  V30 20869 H 2025.2 3.8692 -1.76559 0
M  V30 20870 N 2023.52 0.931232 1.27145 0
M  V30 20871 C 2024.75 0.589956 1.98311 0
M  V30 20872 C 2025.16 -0.832836 1.69438 0
M  V30 20873 O 2024.52 -1.55399 0.956935 0
M  V30 20874 C 2024.57 0.810592 3.52295 0
M  V30 20875 O 2024.29 2.17741 3.80158 0
M  V30 20876 C 2025.79 0.478508 4.4071 0
M  V30 20877 H 2023.01 0.223234 0.632778 0
M  V30 20878 H 2025.56 1.24922 1.6191 0
M  V30 20879 H 2023.71 0.198081 3.86893 0
M  V30 20880 H 2024.12 2.23003 4.74731 0
M  V30 20881 H 2025.6 0.683566 5.47751 0
M  V30 20882 H 2026.08 -0.586102 4.35272 0
M  V30 20883 H 2026.68 1.06931 4.11638 0
M  V30 20884 N 2025 -1.41343 0.697132 0
M  V30 20885 C 2026.25 -2.00806 0.228308 0
M  V30 20886 C 2026.57 -1.55497 -1.17668 0
M  V30 20887 O 2025.84 -0.786272 -1.79428 0
M  V30 20888 H 2024.42 -0.74255 0.0814173 0
M  V30 20889 H 2027.08 -1.72946 0.898641 0
M  V30 20890 H 2026.17 -3.11121 0.246954 0
M  V30 20891 N 2026.48 -0.441993 -1.51275 0
M  V30 20892 C 2027.39 0.373145 -2.31613 0
M  V30 20893 C 2028.4 1.02333 -1.40726 0
M  V30 20894 O 2029.58 1.01768 -1.73796 0
M  V30 20895 C 2026.64 1.45705 -3.14597 0
M  V30 20896 C 2025.7 0.826508 -4.21269 0
M  V30 20897 C 2024.94 1.85876 -5.00286 0
M  V30 20898 O 2025.16 3.08159 -4.79994 0
M  V30 20899 O 2024.09 1.44671 -5.84255 0
M  V30 20900 H 2027.92 -0.282837 -3.0238 0
M  V30 20901 H 2025.5 -0.204432 -1.47995 0
M  V30 20902 H 2027.39 2.08556 -3.66172 0
M  V30 20903 H 2026.06 2.09703 -2.46589 0
M  V30 20904 H 2024.97 0.15982 -3.73758 0
M  V30 20905 H 2026.3 0.229942 -4.91663 0
M  V30 20906 N 2027.95 1.56642 -0.173515 0
M  V30 20907 C 2029.2 1.96124 0.470974 0
M  V30 20908 C 2029.52 1.06229 1.6424 0
M  V30 20909 O 2030.72 1.35402 2.35327 0
M  V30 20910 C 2029.18 3.4874 0.889284 0
M  V30 20911 C 2028.79 4.47264 -0.256662 0
M  V30 20912 C 2030.53 3.97037 1.50207 0
M  V30 20913 C 2028.44 5.91122 0.181401 0
M  V30 20914 H 2027.37 0.732267 0.179724 0
M  V30 20915 H 2030.02 1.81619 -0.262096 0
M  V30 20916 H 2028.4 3.58672 1.6784 0
M  V30 20917 H 2029.57 4.49049 -1.03401 0
M  V30 20918 H 2027.89 4.09038 -0.779546 0
M  V30 20919 H 2030.49 5.01974 1.8419 0
M  V30 20920 H 2030.83 3.401 2.40078 0
M  V30 20921 H 2031.36 3.90131 0.777351 0
M  V30 20922 H 2028.1 6.51936 -0.682591 0
M  V30 20923 H 2027.62 5.92639 0.924063 0
M  V30 20924 H 2029.3 6.43979 0.624532 0
M  V30 20925 N 2029.43 -0.1002 1.57281 0
M  V30 20926 C 2030.84 -0.655287 1.74822 0
M  V30 20927 C 2031.19 -1.79373 0.794961 0
M  V30 20928 O 2030.32 -2.16382 -0.0277532 0
M  V30 20929 C 2030.91 -1.19548 3.17008 0
M  V30 20930 C 2029.47 -1.69668 3.35991 0
M  V30 20931 C 2028.62 -0.604127 2.70639 0
M  V30 20932 H 2031.57 0.125841 1.582 0
M  V30 20933 H 2031.59 -2.06489 3.19598 0
M  V30 20934 H 2031.1 -0.366679 3.86364 0
M  V30 20935 H 2029.2 -2.54964 2.71706 0
M  V30 20936 H 2029.32 -1.79318 4.44277 0
M  V30 20937 H 2027.68 -1.04234 2.32395 0
M  V30 20938 H 2028.46 0.214006 3.42632 0
M  V30 20939 N 2030.91 -1.53174 -0.370891 0
M  V30 20940 C 2032.16 -1.69098 -1.11409 0
M  V30 20941 C 2032.48 -0.440066 -1.89456 0
M  V30 20942 O 2031.74 0.577901 -1.86973 0
M  V30 20943 C 2032.04 -2.88881 -2.10435 0
M  V30 20944 C 2031.7 -4.25602 -1.48908 0
M  V30 20945 C 2030.37 -4.62782 -1.31856 0
M  V30 20946 C 2032.72 -5.10648 -1.04346 0
M  V30 20947 C 2030.05 -5.8265 -0.688168 0
M  V30 20948 C 2032.4 -6.31157 -0.427093 0
M  V30 20949 C 2031.06 -6.67054 -0.244019 0
M  V30 20950 H 2030.33 -0.618775 -0.407674 0
M  V30 20951 H 2032.98 -1.8735 -0.396513 0
M  V30 20952 H 2031.28 -2.65119 -2.88477 0
M  V30 20953 H 2032.98 -2.98396 -2.67882 0
M  V30 20954 H 2029.57 -3.96324 -1.63173 0
M  V30 20955 H 2033.76 -4.82477 -1.16315 0
M  V30 20956 H 2029.01 -6.09057 -0.53469 0
M  V30 20957 H 2033.19 -6.96361 -0.0735755 0
M  V30 20958 H 2030.81 -7.598 0.246525 0
M  V30 20959 N 2032.39 0.630389 -1.44443 0
M  V30 20960 C 2033.62 1.41507 -1.5053 0
M  V30 20961 C 2034.03 1.88759 -0.129099 0
M  V30 20962 O 2033.37 1.61501 0.8754 0
M  V30 20963 C 2033.43 2.6686 -2.40886 0
M  V30 20964 C 2033.09 2.41399 -3.88041 0
M  V30 20965 C 2034.09 2.03181 -4.78554 0
M  V30 20966 C 2031.78 2.55016 -4.3275 0
M  V30 20967 C 2033.77 1.78909 -6.11776 0
M  V30 20968 C 2031.46 2.30359 -5.6602 0
M  V30 20969 C 2032.46 1.92364 -6.55351 0
M  V30 20970 O 2032.14 1.67981 -7.86154 0
M  V30 20971 H 2031.88 0.440388 -0.512869 0
M  V30 20972 H 2034.43 0.778074 -1.90093 0
M  V30 20973 H 2032.66 3.33199 -1.96252 0
M  V30 20974 H 2034.35 3.28864 -2.37915 0
M  V30 20975 H 2035.11 1.92217 -4.45284 0
M  V30 20976 H 2030.99 2.8356 -3.63476 0
M  V30 20977 H 2034.54 1.49178 -6.81463 0
M  V30 20978 H 2030.43 2.40932 -5.9885 0
M  V30 20979 H 2031.2 1.82221 -7.97959 0
M  V30 20980 N 2033.87 1.31354 0.870861 0
M  V30 20981 C 2035.11 1.20749 1.62062 0
M  V30 20982 C 2035.43 -0.234709 1.93582 0
M  V30 20983 O 2034.7 -1.15517 1.58217 0
M  V30 20984 H 2033.28 0.443911 0.600793 0
M  V30 20985 H 2035.95 1.64667 1.04262 0
M  V30 20986 H 2035.04 1.77855 2.56464 0
M  V30 20987 N 2035.34 -1.08505 1.143 0
M  V30 20988 C 2036.29 -2.15397 0.829011 0
M  V30 20989 C 2037.26 -1.64728 -0.213016 0
M  V30 20990 O 2038.45 -1.90619 -0.0831625 0
M  V30 20991 C 2035.59 -3.43691 0.311546 0
M  V30 20992 C 2034.7 -4.08212 1.41375 0
M  V30 20993 C 2033.83 -5.24296 0.853639 0
M  V30 20994 C 2032.87 -5.80757 1.93359 0
M  V30 20995 N 2032.01 -6.88188 1.39073 0
M  V30 20996 H 2036.85 -2.41597 1.74456 0
M  V30 20997 H 2034.39 -1.18566 0.870668 0
M  V30 20998 H 2036.34 -4.17199 -0.00667521 0
M  V30 20999 H 2034.97 -3.17779 -0.567106 0
M  V30 21000 H 2034.03 -3.32474 1.84839 0
M  V30 21001 H 2035.34 -4.46196 2.2296 0
M  V30 21002 H 2034.49 -6.0474 0.487261 0
M  V30 21003 H 2033.23 -4.877 0.00682778 0
M  V30 21004 H 2032.24 -4.98967 2.30893 0
M  V30 21005 H 2033.46 -6.19412 2.78398 0
M  V30 21006 H 2031.41 -6.53553 0.566079 0
M  V30 21007 H 2031.32 -7.24992 2.14296 0
M  V30 21008 H 2032.59 -7.72366 1.05222 0
M  V30 21009 N 2036.82 -0.937962 -1.26649 0
M  V30 21010 C 2037.78 -0.449635 -2.24746 0
M  V30 21011 C 2038.78 0.437489 -1.54734 0
M  V30 21012 O 2039.97 0.237121 -1.72579 0
M  V30 21013 C 2037.11 0.35235 -3.39074 0
M  V30 21014 H 2038.3 -1.31648 -2.6946 0
M  V30 21015 H 2035.85 -0.71962 -1.38749 0
M  V30 21016 H 2036.59 1.23758 -2.99757 0
M  V30 21017 H 2036.37 -0.283853 -3.91071 0
M  V30 21018 H 2037.86 0.684038 -4.1196 0
M  V30 21019 N 2038.3 1.40971 -0.704618 0
M  V30 21020 C 2039.55 2.00309 -0.236478 0
M  V30 21021 C 2039.86 1.56482 1.17358 0
M  V30 21022 O 2041.07 2.08442 1.73966 0
M  V30 21023 C 2039.52 3.57974 -0.371877 0
M  V30 21024 C 2039.13 4.10779 -1.78788 0
M  V30 21025 C 2040.88 4.24485 0.0360284 0
M  V30 21026 C 2038.78 5.60909 -1.87445 0
M  V30 21027 H 2037.71 0.749233 -0.0846557 0
M  V30 21028 H 2040.36 1.61342 -0.874125 0
M  V30 21029 H 2038.75 3.94587 0.334172 0
M  V30 21030 H 2039.92 3.85565 -2.52342 0
M  V30 21031 H 2038.23 3.56826 -2.14626 0
M  V30 21032 H 2040.83 5.34699 -0.00808813 0
M  V30 21033 H 2041.17 4.02149 1.07621 0
M  V30 21034 H 2041.71 3.92938 -0.620069 0
M  V30 21035 H 2038.45 5.88084 -2.89546 0
M  V30 21036 H 2037.97 5.88021 -1.18287 0
M  V30 21037 H 2039.65 6.25831 -1.6415 0
M  V30 21038 N 2039.78 0.45001 1.51039 0
M  V30 21039 C 2041.19 -0.0101397 1.86697 0
M  V30 21040 C 2041.54 -1.40804 1.36633 0
M  V30 21041 O 2040.67 -2.03986 0.722411 0
M  V30 21042 C 2041.26 -0.0251761 3.38791 0
M  V30 21043 C 2039.82 -0.429779 3.73938 0
M  V30 21044 C 2038.97 0.369286 2.7483 0
M  V30 21045 H 2041.92 0.665278 1.44082 0
M  V30 21046 H 2041.94 -0.831964 3.71293 0
M  V30 21047 H 2041.45 0.992361 3.75198 0
M  V30 21048 H 2039.55 -1.45245 3.43125 0
M  V30 21049 H 2039.66 -0.145773 4.78878 0
M  V30 21050 H 2038.03 -0.174158 2.54104 0
M  V30 21051 H 2038.81 1.38594 3.14081 0
M  V30 21052 N 2041.26 -1.56548 0.18182 0
M  V30 21053 C 2042.19 -2.21471 -0.739774 0
M  V30 21054 C 2043.17 -1.17361 -1.23128 0
M  V30 21055 O 2044.35 -1.45825 -1.28253 0
M  V30 21056 C 2041.48 -2.86369 -1.96494 0
M  V30 21057 C 2040.44 -3.96609 -1.60888 0
M  V30 21058 C 2039.76 -4.48607 -2.90957 0
M  V30 21059 C 2041.06 -5.15681 -0.828895 0
M  V30 21060 H 2042.76 -2.98741 -0.19858 0
M  V30 21061 H 2040.3 -1.43692 -0.0940725 0
M  V30 21062 H 2042.26 -3.30466 -2.61477 0
M  V30 21063 H 2040.98 -2.06485 -2.53045 0
M  V30 21064 H 2039.64 -3.53184 -0.982694 0
M  V30 21065 H 2039.29 -3.65501 -3.45569 0
M  V30 21066 H 2038.99 -5.22984 -2.67882 0
M  V30 21067 H 2040.51 -4.95397 -3.56951 0
M  V30 21068 H 2041.92 -5.56405 -1.38153 0
M  V30 21069 H 2040.32 -5.96041 -0.696789 0
M  V30 21070 H 2041.39 -4.84592 0.172711 0
M  V30 21071 N 2042.73 0.0918577 -1.57332 0
M  V30 21072 C 2043.64 1.1295 -2.0562 0
M  V30 21073 C 2044.66 1.4366 -0.981728 0
M  V30 21074 O 2045.84 1.54237 -1.29511 0
M  V30 21075 C 2042.9 2.42918 -2.4737 0
M  V30 21076 C 2041.96 2.19361 -3.69024 0
M  V30 21077 C 2041.2 3.43132 -4.08774 0
M  V30 21078 O 2041.42 4.51492 -3.48584 0
M  V30 21079 O 2040.35 3.32529 -5.01705 0
M  V30 21080 H 2044.18 0.74936 -2.9431 0
M  V30 21081 H 2041.76 0.304595 -1.46262 0
M  V30 21082 H 2043.65 3.19442 -2.74835 0
M  V30 21083 H 2042.32 2.80352 -1.61816 0
M  V30 21084 H 2041.23 1.40607 -3.46671 0
M  V30 21085 H 2042.56 1.86818 -4.55368 0
M  V30 21086 N 2044.21 1.53368 0.362763 0
M  V30 21087 C 2045.46 1.69938 1.10674 0
M  V30 21088 C 2045.79 0.451301 1.88883 0
M  V30 21089 O 2045.07 -0.551452 1.86519 0
M  V30 21090 C 2045.35 2.95101 2.06367 0
M  V30 21091 C 2045.2 4.30073 1.31748 0
M  V30 21092 C 2046.52 3.15872 3.06452 0
M  V30 21093 H 2043.64 0.61838 0.400968 0
M  V30 21094 H 2046.28 1.86011 0.387265 0
M  V30 21095 H 2044.43 2.81529 2.6772 0
M  V30 21096 H 2046.1 4.55462 0.731574 0
M  V30 21097 H 2044.35 4.29356 0.619347 0
M  V30 21098 H 2045.02 5.13789 2.01803 0
M  V30 21099 H 2047.49 3.28649 2.55204 0
M  V30 21100 H 2046.37 4.04878 3.70628 0
M  V30 21101 H 2046.63 2.31281 3.76778 0
M  V30 21102 N 2045.69 -0.62272 1.44776 0
M  V30 21103 C 2046.94 -1.37812 1.47278 0
M  V30 21104 C 2047.25 -1.95276 0.112585 0
M  V30 21105 O 2048.46 -2.71496 0.0151784 0
M  V30 21106 C 2046.91 -2.49557 2.59325 0
M  V30 21107 C 2046.52 -1.9857 4.01589 0
M  V30 21108 C 2048.27 -3.26693 2.71057 0
M  V30 21109 C 2046.17 -3.07707 5.05045 0
M  V30 21110 H 2045.1 -0.517918 0.547976 0
M  V30 21111 H 2047.75 -0.669045 1.70868 0
M  V30 21112 H 2046.14 -3.23078 2.2899 0
M  V30 21113 H 2047.31 -1.31858 4.41532 0
M  V30 21114 H 2045.63 -1.34224 3.94174 0
M  V30 21115 H 2048.22 -4.08067 3.45521 0
M  V30 21116 H 2048.57 -3.76721 1.77164 0
M  V30 21117 H 2049.1 -2.60265 3.00844 0
M  V30 21118 H 2045.84 -2.62614 6.00595 0
M  V30 21119 H 2045.36 -3.73034 4.69687 0
M  V30 21120 H 2047.04 -3.72343 5.29121 0
M  V30 21121 N 2047.17 -1.31814 -0.863883 0
M  V30 21122 C 2048.12 -1.19976 -1.97166 0
M  V30 21123 C 2049.09 -0.0840886 -1.65887 0
M  V30 21124 O 2050.27 -0.258021 -1.89047 0
M  V30 21125 C 2047.41 -0.919316 -3.3263 0
M  V30 21126 C 2046.52 -2.1189 -3.76466 0
M  V30 21127 C 2045.66 -1.77472 -5.00677 0
M  V30 21128 C 2044.7 -2.93804 -5.36978 0
M  V30 21129 N 2043.83 -2.59541 -6.52367 0
M  V30 21130 H 2048.67 -2.14735 -2.06623 0
M  V30 21131 H 2046.21 -1.06811 -1.01143 0
M  V30 21132 H 2048.17 -0.737251 -4.10634 0
M  V30 21133 H 2046.8 -0.0085443 -3.22799 0
M  V30 21134 H 2045.85 -2.41154 -2.94192 0
M  V30 21135 H 2047.16 -2.98939 -3.99295 0
M  V30 21136 H 2046.32 -1.55764 -5.86364 0
M  V30 21137 H 2045.06 -0.876231 -4.79764 0
M  V30 21138 H 2044.06 -3.16154 -4.49807 0
M  V30 21139 H 2045.29 -3.84371 -5.59853 0
M  V30 21140 H 2043.23 -1.72222 -6.32989 0
M  V30 21141 H 2043.15 -3.4012 -6.7517 0
M  V30 21142 H 2044.42 -2.4124 -7.41231 0
M  V30 21143 N 2048.65 1.07897 -1.14873 0
M  V30 21144 C 2049.89 1.8003 -0.918351 0
M  V30 21145 C 2050.22 1.86897 0.556293 0
M  V30 21146 O 2049.49 1.36584 1.40434 0
M  V30 21147 H 2048.07 0.666777 -0.336776 0
M  V30 21148 H 2050.73 1.30421 -1.44832 0
M  V30 21149 H 2049.82 2.82678 -1.32287 0
M  V30 21150 N 2050.12 0.944665 1.2615 0
M  V30 21151 C 2051.37 0.592919 1.93207 0
M  V30 21152 C 2051.69 -0.871356 1.74449 0
M  V30 21153 O 2050.96 -1.61953 1.10218 0
M  V30 21154 H 2049.54 0.216296 0.715 0
M  V30 21155 H 2052.21 1.20074 1.53519 0
M  V30 21156 H 2051.3 0.813682 3.01307 0
M  V30 21157 N 2051.6 -1.40596 0.712085 0
M  V30 21158 C 2053.02 -1.5488 0.385286 0
M  V30 21159 C 2053.22 -1.68416 -1.10626 0
M  V30 21160 O 2052.27 -1.67179 -1.89228 0
M  V30 21161 C 2053.59 -2.77912 1.14828 0
M  V30 21162 C 2055.14 -2.91726 1.13424 0
M  V30 21163 C 2055.61 -4.17667 1.87931 0
M  V30 21164 N 2057.1 -4.2466 1.84982 0
M  V30 21165 C 2057.84 -5.21006 2.39459 0
M  V30 21166 N 2057.33 -6.23282 3.02476 0
M  V30 21167 N 2059.13 -5.1306 2.29621 0
M  V30 21168 H 2051.28 -1.30055 1.67927 0
M  V30 21169 H 2053.54 -0.628638 0.70959 0
M  V30 21170 H 2053.25 -2.74175 2.20275 0
M  V30 21171 H 2053.12 -3.69918 0.737606 0
M  V30 21172 H 2055.51 -2.94969 0.0879737 0
M  V30 21173 H 2055.59 -2.00848 1.5841 0
M  V30 21174 H 2055.23 -4.15186 2.92546 0
M  V30 21175 H 2055.16 -5.07548 1.40367 0
M  V30 21176 H 2057.65 -3.51387 1.39053 0
M  V30 21177 H 2057.97 -6.93217 3.4157 0
M  V30 21178 H 2056.31 -6.23736 3.06559 0
M  V30 21179 H 2059.5 -4.32088 1.80049 0
M  V30 21180 H 2059.67 -5.87975 2.72378 0
M  V30 21181 N 2053.08 -0.458013 -1.50798 0
M  V30 21182 C 2054.03 0.361282 -2.25119 0
M  V30 21183 C 2055.01 0.972627 -1.28175 0
M  V30 21184 O 2056.21 0.887343 -1.53151 0
M  V30 21185 C 2053.34 1.45021 -3.11165 0
M  V30 21186 C 2052.42 0.847244 -4.15551 0
M  V30 21187 N 2052.81 -0.0246437 -5.05794 0
M  V30 21188 C 2051.11 1.11261 -4.31899 0
M  V30 21189 C 2051.81 -0.365487 -5.80551 0
M  V30 21190 N 2050.79 0.256092 -5.42996 0
M  V30 21191 H 2054.59 -0.310578 -2.92254 0
M  V30 21192 H 2052.1 -0.271346 -1.60117 0
M  V30 21193 H 2054.1 2.05021 -3.63004 0
M  V30 21194 H 2052.76 2.1242 -2.45577 0
M  V30 21195 H 2053.77 -0.392565 -5.1641 0
M  V30 21196 H 2050.45 1.78256 -3.77533 0
M  V30 21197 H 2051.84 -1.07624 -6.63224 0
M  V30 21198 N 2054.56 1.56449 -0.190119 0
M  V30 21199 C 2055.49 2.21861 0.728019 0
M  V30 21200 C 2056.47 1.18012 1.22504 0
M  V30 21201 O 2057.66 1.46503 1.27478 0
M  V30 21202 C 2054.79 2.87407 1.94973 0
M  V30 21203 C 2053.74 3.97457 1.58782 0
M  V30 21204 C 2053.07 4.50144 2.88573 0
M  V30 21205 C 2054.37 5.16113 0.801535 0
M  V30 21206 H 2056.06 2.98842 0.182734 0
M  V30 21207 H 2053.61 1.4374 0.0864508 0
M  V30 21208 H 2055.56 3.31848 2.59721 0
M  V30 21209 H 2054.28 2.07824 2.51946 0
M  V30 21210 H 2052.94 3.537 0.96395 0
M  V30 21211 H 2052.59 3.67328 3.43626 0
M  V30 21212 H 2052.29 5.24398 2.65105 0
M  V30 21213 H 2053.81 4.97283 3.54318 0
M  V30 21214 H 2055.23 5.5713 1.35201 0
M  V30 21215 H 2053.62 5.96402 0.66517 0
M  V30 21216 H 2054.69 4.84494 -0.198407 0
M  V30 21217 N 2056.04 -0.0835127 1.57379 0
M  V30 21218 C 2057.29 -0.783627 1.85855 0
M  V30 21219 C 2057.6 -1.79328 0.781081 0
M  V30 21220 O 2058.81 -2.54212 0.953327 0
M  V30 21221 C 2057.26 -1.44454 3.29638 0
M  V30 21222 C 2056.87 -0.474058 4.45485 0
M  V30 21223 C 2058.61 -2.1277 3.67327 0
M  V30 21224 C 2056.52 -1.14022 5.80304 0
M  V30 21225 H 2055.45 -0.296407 0.693295 0
M  V30 21226 H 2058.1 -0.0367253 1.83463 0
M  V30 21227 H 2056.48 -2.2393 3.26606 0
M  V30 21228 H 2057.66 0.290043 4.59886 0
M  V30 21229 H 2055.97 0.104026 4.1627 0
M  V30 21230 H 2058.57 -2.63365 4.65342 0
M  V30 21231 H 2058.91 -2.92187 2.96534 0
M  V30 21232 H 2059.45 -1.4014 3.72298 0
M  V30 21233 H 2056.18 -0.386619 6.54359 0
M  V30 21234 H 2055.7 -1.87547 5.69725 0
M  V30 21235 H 2057.38 -1.66341 6.25252 0
M  V30 21236 N 2057.52 -1.53558 -0.354624 0
M  V30 21237 C 2058.76 -1.70271 -1.09609 0
M  V30 21238 C 2059.09 -0.460135 -1.88979 0
M  V30 21239 O 2058.35 0.558038 -1.87575 0
M  V30 21240 C 2058.64 -2.91096 -2.07359 0
M  V30 21241 C 2058.31 -4.27157 -1.44386 0
M  V30 21242 C 2056.97 -4.64155 -1.2694 0
M  V30 21243 C 2059.32 -5.11726 -0.989239 0
M  V30 21244 C 2056.65 -5.83347 -0.626331 0
M  V30 21245 C 2059 -6.31574 -0.360126 0
M  V30 21246 C 2057.67 -6.67275 -0.173255 0
M  V30 21247 H 2056.94 -0.623064 -0.401089 0
M  V30 21248 H 2059.59 -1.8776 -0.37662 0
M  V30 21249 H 2057.89 -2.68164 -2.85649 0
M  V30 21250 H 2059.59 -3.0122 -2.64702 0
M  V30 21251 H 2056.18 -3.98032 -1.5896 0
M  V30 21252 H 2060.36 -4.83684 -1.11191 0
M  V30 21253 H 2055.62 -6.0959 -0.470062 0
M  V30 21254 H 2059.79 -6.964 0.00028709 0
M  V30 21255 H 2057.42 -7.59496 0.327098 0
M  V30 21256 N 2058.99 0.615033 -1.45104 0
M  V30 21257 C 2060.23 1.38563 -1.50265 0
M  V30 21258 C 2060.6 1.91504 -0.137917 0
M  V30 21259 O 2061.8 2.68723 -0.0642206 0
M  V30 21260 C 2060.07 2.50819 -2.54607 0
M  V30 21261 S 2061.63 3.38731 -2.78938 0
M  V30 21262 H 2058.45 0.472501 -0.531285 0
M  V30 21263 H 2061.05 0.710424 -1.82135 0
M  V30 21264 H 2059.75 2.10263 -3.52445 0
M  V30 21265 H 2059.28 3.23148 -2.24363 0
M  V30 21266 H 2061.3 4.48749 -2.11752 0
M  V30 21267 N 2060.47 1.3227 0.85688 0
M  V30 21268 C 2061.42 1.17604 1.95329 0
M  V30 21269 C 2062.41 0.0835503 1.60683 0
M  V30 21270 O 2063.6 0.309827 1.74267 0
M  V30 21271 C 2060.73 0.89897 3.31321 0
M  V30 21272 C 2059.81 2.03306 3.72193 0
M  V30 21273 N 2060.2 3.28141 3.84911 0
M  V30 21274 C 2058.5 1.93573 4.01803 0
M  V30 21275 C 2059.2 4.02408 4.20051 0
M  V30 21276 N 2058.18 3.30686 4.31448 0
M  V30 21277 H 2061.98 2.12249 2.03292 0
M  V30 21278 H 2059.49 1.24017 1.0485 0
M  V30 21279 H 2061.49 0.774863 4.09636 0
M  V30 21280 H 2060.15 -0.0391247 3.24676 0
M  V30 21281 H 2061.16 3.63104 3.69291 0
M  V30 21282 H 2057.84 1.07311 4.03473 0
M  V30 21283 H 2059.23 5.10048 4.37379 0
M  V30 21284 N 2061.95 -1.07287 1.15444 0
M  V30 21285 C 2063.17 -1.84153 0.954061 0
M  V30 21286 C 2063.6 -1.81534 -0.492639 0
M  V30 21287 O 2062.96 -1.20877 -1.35124 0
M  V30 21288 C 2063.01 -3.29112 1.4737 0
M  V30 21289 O 2062.11 -4.06866 0.673335 0
M  V30 21290 H 2061.45 -0.570198 0.34025 0
M  V30 21291 H 2063.98 -1.35339 1.53442 0
M  V30 21292 H 2063.99 -3.79944 1.48682 0
M  V30 21293 H 2062.67 -3.30333 2.52691 0
M  V30 21294 H 2061.24 -3.65687 0.729894 0
M  V30 21295 N 2063.43 -0.951342 -1.25647 0
M  V30 21296 C 2064.37 -0.467715 -2.26011 0
M  V30 21297 C 2065.34 0.478049 -1.59072 0
M  V30 21298 O 2066.53 0.392024 -1.86729 0
M  V30 21299 C 2063.67 0.251483 -3.44182 0
M  V30 21300 C 2062.78 -0.731135 -4.25768 0
M  V30 21301 C 2061.92 0.0102901 -5.31199 0
M  V30 21302 C 2060.96 -0.963479 -6.0447 0
M  V30 21303 N 2060.09 -0.253142 -7.01643 0
M  V30 21304 H 2064.93 -1.32847 -2.6675 0
M  V30 21305 H 2062.47 -0.666278 -1.31146 0
M  V30 21306 H 2064.43 0.685002 -4.11538 0
M  V30 21307 H 2063.06 1.07631 -3.04328 0
M  V30 21308 H 2062.11 -1.28314 -3.58106 0
M  V30 21309 H 2063.42 -1.47435 -4.76513 0
M  V30 21310 H 2062.58 0.502603 -6.04615 0
M  V30 21311 H 2061.32 0.78632 -4.81319 0
M  V30 21312 H 2060.32 -1.46682 -5.29872 0
M  V30 21313 H 2061.55 -1.73968 -6.56439 0
M  V30 21314 H 2059.49 0.50421 -6.54059 0
M  V30 21315 H 2059.41 -0.935511 -7.50189 0
M  V30 21316 H 2060.68 0.217742 -7.79196 0
M  V30 21317 N 2064.91 1.40216 -0.719531 0
M  V30 21318 C 2065.85 2.30695 -0.0695046 0
M  V30 21319 C 2066.82 1.48398 0.746138 0
M  V30 21320 O 2068.01 1.77127 0.709277 0
M  V30 21321 C 2065.15 3.34636 0.843357 0
M  V30 21322 C 2064.26 4.31997 0.0167651 0
M  V30 21323 C 2063.4 5.23005 0.929469 0
M  V30 21324 C 2062.43 6.12023 0.0972024 0
M  V30 21325 N 2061.57 6.95437 0.964997 0
M  V30 21326 H 2066.41 2.85716 -0.846765 0
M  V30 21327 H 2063.95 1.40698 -0.429253 0
M  V30 21328 H 2065.91 3.93473 1.38691 0
M  V30 21329 H 2064.54 2.81108 1.58676 0
M  V30 21330 H 2063.59 3.74909 -0.644016 0
M  V30 21331 H 2064.9 4.94838 -0.627416 0
M  V30 21332 H 2064.05 5.86792 1.54141 0
M  V30 21333 H 2062.79 4.60447 1.60746 0
M  V30 21334 H 2061.8 5.47262 -0.52765 0
M  V30 21335 H 2063.02 6.76641 -0.577347 0
M  V30 21336 H 2060.97 6.35463 1.62857 0
M  V30 21337 H 2060.89 7.5506 0.376943 0
M  V30 21338 H 2062.15 7.63669 1.56299 0
M  V30 21339 N 2066.38 0.466004 1.50553 0
M  V30 21340 C 2067.33 -0.330804 2.28417 0
M  V30 21341 C 2068.3 -0.991708 1.33246 0
M  V30 21342 O 2069.49 -1.00512 1.62179 0
M  V30 21343 C 2066.63 -1.40978 3.14991 0
M  V30 21344 C 2065.74 -0.76416 4.25188 0
M  V30 21345 C 2064.87 -1.8206 4.99027 0
M  V30 21346 C 2063.91 -1.15495 6.01105 0
M  V30 21347 N 2063.05 -2.15401 6.68242 0
M  V30 21348 H 2067.89 0.339504 2.9606 0
M  V30 21349 H 2065.43 0.179273 1.46003 0
M  V30 21350 H 2067.38 -2.04695 3.63532 0
M  V30 21351 H 2066.01 -2.04932 2.49405 0
M  V30 21352 H 2065.07 -0.0145483 3.80397 0
M  V30 21353 H 2066.38 -0.238458 4.9823 0
M  V30 21354 H 2065.53 -2.5337 5.51261 0
M  V30 21355 H 2064.27 -2.38009 4.25679 0
M  V30 21356 H 2063.28 -0.427447 5.48136 0
M  V30 21357 H 2064.5 -0.602414 6.76423 0
M  V30 21358 H 2062.45 -2.70378 5.97689 0
M  V30 21359 H 2062.36 -1.67802 7.37142 0
M  V30 21360 H 2063.63 -2.86107 7.25095 0
M  V30 21361 N 2067.86 -1.56346 0.198413 0
M  V30 21362 C 2069.1 -1.99572 -0.441608 0
M  V30 21363 C 2069.47 -1.08257 -1.5857 0
M  V30 21364 O 2070.67 -1.40734 -2.29014 0
M  V30 21365 C 2068.94 -3.46221 -0.886882 0
M  V30 21366 S 2070.5 -4.11475 -1.52427 0
M  V30 21367 H 2067.31 -0.69686 -0.141092 0
M  V30 21368 H 2069.92 -1.93149 0.302261 0
M  V30 21369 H 2068.62 -4.10376 -0.0441917 0
M  V30 21370 H 2068.15 -3.56469 -1.66413 0
M  V30 21371 H 2070.17 -4.08754 -2.81308 0
M  V30 21372 N 2069.34 0.0751653 -1.57421 0
M  V30 21373 C 2070.62 0.807768 -1.78142 0
M  V30 21374 C 2071 1.95956 -0.785139 0
M  V30 21375 O 2070.35 2.27771 0.182413 0
M  V30 21376 C 2070.56 1.28385 -3.24528 0
M  V30 21377 C 2071.9 1.71859 -3.88265 0
M  V30 21378 O 2072.93 1.3796 -3.28398 0
M  V30 21379 O 2071.79 2.3461 -4.93579 0
M  V30 21380 H 2068.88 0.386806 -0.730965 0
M  V30 21381 H 2071.43 0.0555021 -1.69609 0
M  V30 21382 H 2070.2 0.459543 -3.88592 0
M  V30 21383 H 2069.82 2.09753 -3.37771 0
M  V30 21384 N 2070.82 1.53744 0.346476 0
M  V30 21385 C 2071.73 1.84516 1.44883 0
M  V30 21386 C 2072.74 0.735054 1.57712 0
M  V30 21387 O 2073.92 1.02706 1.73244 0
M  V30 21388 C 2070.99 2.04576 2.7991 0
M  V30 21389 C 2070.05 3.28442 2.7645 0
M  V30 21390 C 2069.28 3.47536 4.05036 0
M  V30 21391 O 2069.5 2.70527 5.02167 0
M  V30 21392 O 2068.44 4.40955 4.09686 0
M  V30 21393 H 2072.26 2.78207 1.21797 0
M  V30 21394 H 2069.85 1.39362 0.53838 0
M  V30 21395 H 2071.73 2.19232 3.59882 0
M  V30 21396 H 2070.4 1.14074 3.02934 0
M  V30 21397 H 2069.31 3.19192 1.95108 0
M  V30 21398 H 2070.64 4.18928 2.5838 0
M  V30 21399 N 2072.3 -0.607329 1.45428 0
M  V30 21400 C 2073.23 -1.72873 1.56962 0
M  V30 21401 C 2074.21 -1.64804 0.421159 0
M  V30 21402 O 2075.39 -1.83199 0.64433 0
M  V30 21403 C 2072.52 -3.11476 1.53622 0
M  V30 21404 C 2071.48 -3.34357 2.67188 0
M  V30 21405 C 2070.8 -4.73236 2.48902 0
M  V30 21406 C 2072.1 -3.24586 4.09196 0
M  V30 21407 H 2073.8 -1.63477 2.5083 0
M  V30 21408 H 2071.34 -0.785054 1.20718 0
M  V30 21409 H 2073.3 -3.89725 1.60288 0
M  V30 21410 H 2072.02 -3.21714 0.562838 0
M  V30 21411 H 2070.68 -2.58499 2.5995 0
M  V30 21412 H 2070.33 -4.80206 1.49702 0
M  V30 21413 H 2070.03 -4.895 3.25059 0
M  V30 21414 H 2071.55 -5.53684 2.57422 0
M  V30 21415 H 2072.96 -3.92709 4.17676 0
M  V30 21416 H 2071.36 -3.52381 4.85745 0
M  V30 21417 H 2072.43 -2.22022 4.31085 0
M  V30 21418 N 2073.77 -1.32722 -0.849853 0
M  V30 21419 C 2074.74 -1.21991 -1.94038 0
M  V30 21420 C 2075.74 -0.141727 -1.60174 0
M  V30 21421 O 2076.93 -0.392477 -1.69721 0
M  V30 21422 C 2074.06 -0.877223 -3.2942 0
M  V30 21423 H 2075.25 -2.18913 -2.04981 0
M  V30 21424 H 2072.81 -1.16623 -1.04062 0
M  V30 21425 H 2073.54 0.0899704 -3.24175 0
M  V30 21426 H 2073.33 -1.65681 -3.55376 0
M  V30 21427 H 2074.82 -0.826588 -4.09338 0
M  V30 21428 N 2075.25 1.06673 -1.16011 0
M  V30 21429 C 2076.22 2.12223 -0.865686 0
M  V30 21430 C 2077.22 1.6021 0.137621 0
M  V30 21431 O 2078.41 1.73953 -0.0928217 0
M  V30 21432 C 2075.54 3.39631 -0.293865 0
M  V30 21433 H 2076.73 2.39774 -1.80134 0
M  V30 21434 H 2074.28 1.22675 -0.968529 0
M  V30 21435 H 2075.02 3.17726 0.649656 0
M  V30 21436 H 2074.8 3.78688 -1.01676 0
M  V30 21437 H 2076.29 4.17466 -0.105682 0
M  V30 21438 N 2076.73 0.957992 1.25141 0
M  V30 21439 C 2077.68 0.479695 2.2576 0
M  V30 21440 C 2078.65 -0.469606 1.59323 0
M  V30 21441 O 2079.83 -0.382116 1.86935 0
M  V30 21442 C 2076.97 -0.233227 3.44311 0
M  V30 21443 C 2076.09 0.753705 4.25374 0
M  V30 21444 C 2075.22 0.0178808 5.31197 0
M  V30 21445 C 2074.26 0.995522 6.0395 0
M  V30 21446 N 2073.4 0.290349 7.01499 0
M  V30 21447 H 2078.24 1.3426 2.66042 0
M  V30 21448 H 2075.77 0.673224 1.3079 0
M  V30 21449 H 2077.73 -0.663168 4.11896 0
M  V30 21450 H 2076.36 -1.06015 3.04894 0
M  V30 21451 H 2075.41 1.30212 3.5742 0
M  V30 21452 H 2076.73 1.4996 4.75724 0
M  V30 21453 H 2075.88 -0.470532 6.04873 0
M  V30 21454 H 2074.62 -0.760784 4.8173 0
M  V30 21455 H 2073.62 1.4949 5.29087 0
M  V30 21456 H 2074.85 1.77447 6.55507 0
M  V30 21457 H 2072.79 -0.469516 6.54318 0
M  V30 21458 H 2072.71 0.975282 7.49683 0
M  V30 21459 H 2073.98 -0.176416 7.793 0
M  V30 21460 N 2078.21 -1.39832 0.726957 0
M  V30 21461 C 2079.14 -2.333 0.0966938 0
M  V30 21462 C 2080.12 -1.53492 -0.733095 0
M  V30 21463 O 2081.3 -1.81916 -0.679712 0
M  V30 21464 C 2078.43 -3.37545 -0.817367 0
M  V30 21465 C 2077.39 -4.279 -0.0923447 0
M  V30 21466 C 2076.71 -5.22777 -1.12288 0
M  V30 21467 C 2078.01 -5.11425 1.06028 0
M  V30 21468 H 2079.71 -2.86255 0.877412 0
M  V30 21469 H 2077.25 -1.37635 0.423378 0
M  V30 21470 H 2079.21 -4.01878 -1.26776 0
M  V30 21471 H 2077.93 -2.83011 -1.63011 0
M  V30 21472 H 2076.59 -3.65035 0.338339 0
M  V30 21473 H 2076.24 -4.64542 -1.92898 0
M  V30 21474 H 2075.94 -5.84076 -0.64259 0
M  V30 21475 H 2077.46 -5.89987 -1.57314 0
M  V30 21476 H 2078.88 -5.69148 0.688715 0
M  V30 21477 H 2077.27 -5.81825 1.46968 0
M  V30 21478 H 2078.34 -4.46731 1.88571 0
M  V30 21479 N 2079.69 -0.473982 -1.50304 0
M  V30 21480 C 2080.93 0.0801282 -2.02642 0
M  V30 21481 C 2081.27 1.3911 -1.35506 0
M  V30 21482 O 2080.54 1.8844 -0.481719 0
M  V30 21483 C 2080.82 0.26092 -3.59153 0
M  V30 21484 C 2080.68 -1.07128 -4.36857 0
M  V30 21485 C 2082 1.01413 -4.28256 0
M  V30 21486 H 2079.11 0.0276467 -0.736481 0
M  V30 21487 H 2081.76 -0.620135 -1.79595 0
M  V30 21488 H 2079.91 0.857378 -3.78921 0
M  V30 21489 H 2081.58 -1.70454 -4.28653 0
M  V30 21490 H 2079.82 -1.66721 -4.00483 0
M  V30 21491 H 2080.49 -0.898389 -5.4464 0
M  V30 21492 H 2082.97 0.508536 -4.12981 0
M  V30 21493 H 2081.84 1.10943 -5.37571 0
M  V30 21494 H 2082.11 2.05141 -3.91624 0
M  V30 21495 N 2081.16 1.56239 -0.206702 0
M  V30 21496 C 2082.13 2.18382 0.695843 0
M  V30 21497 C 2083.13 1.14149 1.13255 0
M  V30 21498 O 2084.32 1.39468 1.04376 0
M  V30 21499 C 2081.45 2.79522 1.95141 0
M  V30 21500 H 2082.64 2.99503 0.154275 0
M  V30 21501 H 2080.2 1.56241 0.0429222 0
M  V30 21502 H 2080.93 2.02231 2.53521 0
M  V30 21503 H 2080.72 3.55837 1.64689 0
M  V30 21504 H 2082.21 3.27203 2.59476 0
M  V30 21505 N 2082.64 -0.0668159 1.57458 0
M  V30 21506 C 2083.57 -1.0791 2.07069 0
M  V30 21507 C 2084.55 -1.40063 0.965207 0
M  V30 21508 O 2085.74 -1.49604 1.23823 0
M  V30 21509 C 2082.87 -2.39113 2.51877 0
M  V30 21510 C 2081.82 -2.213 3.66347 0
M  V30 21511 C 2081.15 -3.57931 3.97227 0
M  V30 21512 C 2082.45 -1.63013 4.9621 0
M  V30 21513 H 2084.14 -0.666254 2.91893 0
M  V30 21514 H 2081.69 -0.319039 1.40421 0
M  V30 21515 H 2083.64 -3.10226 2.85198 0
M  V30 21516 H 2082.37 -2.82387 1.64088 0
M  V30 21517 H 2081.02 -1.52628 3.33317 0
M  V30 21518 H 2080.67 -3.98784 3.06562 0
M  V30 21519 H 2080.37 -3.4685 4.74309 0
M  V30 21520 H 2081.9 -4.30467 4.33048 0
M  V30 21521 H 2083.31 -2.23997 5.27729 0
M  V30 21522 H 2081.71 -1.62614 5.77648 0
M  V30 21523 H 2082.78 -0.592078 4.81272 0
M  V30 21524 N 2084.12 -1.53926 -0.338317 0
M  V30 21525 C 2085.37 -1.71085 -1.07584 0
M  V30 21526 C 2085.69 -0.479497 -1.89013 0
M  V30 21527 O 2084.96 0.506566 -1.89237 0
M  V30 21528 H 2083.54 -0.630767 -0.400178 0
M  V30 21529 H 2086.2 -1.91193 -0.378324 0
M  V30 21530 H 2085.3 -2.58404 -1.75026 0
M  V30 21531 N 2085.6 0.599608 -1.45748 0
M  V30 21532 C 2086.85 1.35451 -1.49452 0
M  V30 21533 C 2087.16 1.95072 -0.143637 0
M  V30 21534 O 2088.37 2.71437 -0.0583691 0
M  V30 21535 C 2086.82 2.454 -2.63262 0
M  V30 21536 C 2086.43 1.92156 -4.04698 0
M  V30 21537 C 2088.18 3.22339 -2.7622 0
M  V30 21538 C 2086.08 2.99633 -5.09876 0
M  V30 21539 H 2085.01 0.509134 -0.556146 0
M  V30 21540 H 2087.66 0.641777 -1.71911 0
M  V30 21541 H 2086.05 3.19395 -2.34101 0
M  V30 21542 H 2087.22 1.24817 -4.43574 0
M  V30 21543 H 2085.53 1.27937 -3.96259 0
M  V30 21544 H 2088.13 4.02519 -3.5197 0
M  V30 21545 H 2088.47 3.73854 -1.83135 0
M  V30 21546 H 2089.01 2.55446 -3.04946 0
M  V30 21547 H 2085.75 2.53026 -6.04697 0
M  V30 21548 H 2085.27 3.65514 -4.75562 0
M  V30 21549 H 2086.95 3.63878 -5.34978 0
M  V30 21550 N 2087.08 1.33171 0.842803 0
M  V30 21551 C 2088.03 1.23072 1.97373 0
M  V30 21552 C 2089.02 0.132938 1.68878 0
M  V30 21553 O 2090.23 0.296643 1.77539 0
M  V30 21554 H 2086.6 0.381819 0.647857 0
M  V30 21555 H 2088.57 2.18694 2.03016 0
M  V30 21556 C 2087.32 0.982778 3.33522 0
M  V30 21557 H 2086.64 1.81975 3.55985 0
M  V30 21558 H 2088.08 0.952404 4.13165 0
M  V30 21559 C 2086.54 -0.314352 3.3543 0
M  V30 21560 O 2087.07 -1.32235 3.79311 0
M  V30 21561 N 2085.28 -0.340506 2.88598 0
M  V30 21562 H 2084.83 0.480318 2.53082 0
M  V30 21563 H 2084.78 -1.20822 2.90257 0
M  V30 21564 N 2088.56 -1.06056 1.16576 0
M  V30 21565 C 2089.52 -2.11761 0.876928 0
M  V30 21566 C 2090.52 -1.60281 -0.129123 0
M  V30 21567 O 2091.71 -1.73901 0.102046 0
M  V30 21568 C 2088.84 -3.3947 0.311872 0
M  V30 21569 H 2090.03 -2.38816 1.81403 0
M  V30 21570 H 2087.59 -1.2216 0.975021 0
M  V30 21571 H 2088.32 -3.18066 -0.632797 0
M  V30 21572 H 2088.11 -3.78143 1.03683 0
M  V30 21573 H 2089.6 -4.17404 0.12782 0
M  V30 21574 N 2090.03 -0.964615 -1.24631 0
M  V30 21575 C 2091.28 -0.625742 -1.92905 0
M  V30 21576 C 2091.61 0.836529 -1.75259 0
M  V30 21577 O 2090.89 1.60146 -1.10379 0
M  V30 21578 C 2091.17 -0.997473 -3.46009 0
M  V30 21579 C 2091.02 -2.51621 -3.72836 0
M  V30 21580 C 2092.34 -0.529778 -4.369 0
M  V30 21581 H 2089.46 -0.228804 -0.700584 0
M  V30 21582 H 2092.1 -1.20306 -1.47059 0
M  V30 21583 H 2090.25 -0.506207 -3.85188 0
M  V30 21584 H 2091.93 -3.082 -3.43235 0
M  V30 21585 H 2090.17 -2.94954 -3.18095 0
M  V30 21586 H 2090.84 -2.72681 -4.79947 0
M  V30 21587 H 2093.32 -0.951326 -4.05079 0
M  V30 21588 H 2092.19 -0.818472 -5.42764 0
M  V30 21589 H 2092.45 0.570178 -4.38408 0
M  V30 21590 N 2091.51 1.39445 -0.734362 0
M  V30 21591 C 2092.47 2.28971 -0.102477 0
M  V30 21592 C 2093.47 1.46277 0.667805 0
M  V30 21593 O 2094.66 1.66962 0.496917 0
M  V30 21594 C 2091.8 3.29767 0.864107 0
M  V30 21595 H 2092.99 2.86352 -0.891208 0
M  V30 21596 H 2090.54 1.48082 -0.500154 0
M  V30 21597 H 2091.28 2.7744 1.67922 0
M  V30 21598 H 2091.06 3.90837 0.314418 0
M  V30 21599 H 2092.55 3.96757 1.30282 0
M  V30 21600 N 2092.99 0.481946 1.5005 0
M  V30 21601 C 2094.22 -0.0665508 2.06493 0
M  V30 21602 C 2094.63 -1.3309 1.34476 0
M  V30 21603 O 2093.97 -1.79046 0.410882 0
M  V30 21604 C 2094.03 -0.409721 3.57158 0
M  V30 21605 C 2093.7 0.754158 4.50734 0
M  V30 21606 C 2094.69 1.63929 4.93379 0
M  V30 21607 C 2092.38 0.947563 4.93281 0
M  V30 21608 C 2094.37 2.70214 5.77289 0
M  V30 21609 C 2092.06 2.01362 5.76972 0
M  V30 21610 C 2093.06 2.88927 6.18878 0
M  V30 21611 O 2092.75 3.93695 7.00899 0
M  V30 21612 H 2092.48 0.00864043 0.675945 0
M  V30 21613 H 2095.03 0.672929 1.94064 0
M  V30 21614 H 2093.26 -1.20254 3.67527 0
M  V30 21615 H 2094.95 -0.894578 3.95919 0
M  V30 21616 H 2095.72 1.5016 4.61169 0
M  V30 21617 H 2091.6 0.275431 4.60176 0
M  V30 21618 H 2095.14 3.38592 6.09919 0
M  V30 21619 H 2091.04 2.15133 6.08595 0
M  V30 21620 H 2091.8 3.90816 7.1917 0
M  V30 21621 N 2094.47 -1.56127 0.214985 0
M  V30 21622 C 2095.7 -2.02225 -0.422919 0
M  V30 21623 C 2096.11 -1.09413 -1.54355 0
M  V30 21624 O 2095.45 -0.0948108 -1.83455 0
M  V30 21625 C 2095.51 -3.44677 -1.02166 0
M  V30 21626 C 2095.17 -4.56985 -0.0372982 0
M  V30 21627 C 2096.17 -5.14305 0.760672 0
M  V30 21628 C 2093.86 -5.02237 0.0795528 0
M  V30 21629 C 2095.85 -6.15343 1.66226 0
M  V30 21630 C 2093.54 -6.03115 0.984683 0
M  V30 21631 C 2094.54 -6.59543 1.77459 0
M  V30 21632 O 2094.22 -7.58458 2.66451 0
M  V30 21633 H 2093.96 -0.66724 -0.108474 0
M  V30 21634 H 2096.51 -2.02782 0.326912 0
M  V30 21635 H 2094.74 -3.41169 -1.82046 0
M  V30 21636 H 2096.43 -3.74463 -1.56629 0
M  V30 21637 H 2097.19 -4.80198 0.68081 0
M  V30 21638 H 2093.07 -4.57999 -0.525143 0
M  V30 21639 H 2096.62 -6.59315 2.27925 0
M  V30 21640 H 2092.51 -6.36644 1.06559 0
M  V30 21641 H 2093.28 -7.75955 2.60453 0
M  V30 21642 N 2095.95 0.0584645 -1.57492 0
M  V30 21643 C 2097.36 0.413547 -1.54149 0
M  V30 21644 C 2097.56 1.78385 -0.937076 0
M  V30 21645 O 2096.62 2.46541 -0.545339 0
M  V30 21646 C 2097.93 0.342371 -2.98745 0
M  V30 21647 C 2099.48 0.421594 -3.10148 0
M  V30 21648 C 2099.95 0.380184 -4.56419 0
M  V30 21649 N 2101.44 0.439864 -4.61107 0
M  V30 21650 C 2102.18 0.430249 -5.71784 0
M  V30 21651 N 2101.68 0.374659 -6.91786 0
M  V30 21652 N 2103.47 0.4778 -5.60066 0
M  V30 21653 H 2095.62 -0.838642 -1.95142 0
M  V30 21654 H 2097.88 -0.316052 -0.893765 0
M  V30 21655 H 2097.59 -0.598115 -3.46577 0
M  V30 21656 H 2097.46 1.14747 -3.59323 0
M  V30 21657 H 2099.85 1.35251 -2.62281 0
M  V30 21658 H 2099.93 -0.41232 -2.52455 0
M  V30 21659 H 2099.57 -0.546935 -5.04947 0
M  V30 21660 H 2099.5 1.23181 -5.1199 0
M  V30 21661 H 2102 0.486535 -3.74755 0
M  V30 21662 H 2102.31 0.371614 -7.71906 0
M  V30 21663 H 2100.65 0.341145 -6.94162 0
M  V30 21664 H 2103.84 0.519015 -4.65214 0
M  V30 21665 H 2104.02 0.466838 -6.46316 0
M  V30 21666 N 2097.42 1.54103 0.330149 0
M  V30 21667 C 2098.67 1.71653 1.06675 0
M  V30 21668 C 2098.99 0.489514 1.88756 0
M  V30 21669 O 2098.26 -0.496523 1.89503 0
M  V30 21670 H 2096.84 0.63288 0.396827 0
M  V30 21671 H 2099.5 1.91391 0.36818 0
M  V30 21672 H 2098.6 2.59328 1.73653 0
M  V30 21673 N 2098.9 -0.59187 1.46064 0
M  V30 21674 C 2099.83 -1.71199 1.58787 0
M  V30 21675 C 2100.81 -1.64348 0.438615 0
M  V30 21676 O 2102 -1.82506 0.663725 0
M  V30 21677 C 2099.13 -3.0983 1.56917 0
M  V30 21678 C 2098.08 -3.31505 2.70719 0
M  V30 21679 C 2097.41 -4.70569 2.53907 0
M  V30 21680 C 2098.71 -3.20228 4.12615 0
M  V30 21681 H 2100.4 -1.60807 2.5255 0
M  V30 21682 H 2097.95 -0.772206 1.21544 0
M  V30 21683 H 2099.9 -3.88003 1.64413 0
M  V30 21684 H 2098.63 -3.21099 0.596928 0
M  V30 21685 H 2097.28 -2.55727 2.62677 0
M  V30 21686 H 2096.93 -4.78592 1.54787 0
M  V30 21687 H 2096.63 -4.86025 3.30232 0
M  V30 21688 H 2098.16 -5.50923 2.6328 0
M  V30 21689 H 2099.57 -3.88257 4.21817 0
M  V30 21690 H 2097.97 -3.47209 4.89455 0
M  V30 21691 H 2099.04 -2.17437 4.33416 0
M  V30 21692 N 2100.38 -1.33616 -0.835729 0
M  V30 21693 C 2101.66 -1.15846 -1.57604 0
M  V30 21694 C 2102.04 0.273951 -2.09315 0
M  V30 21695 O 2101.39 1.27345 -1.89725 0
M  V30 21696 C 2101.6 -2.20224 -2.70744 0
M  V30 21697 C 2102.94 -2.54542 -3.39843 0
M  V30 21698 O 2103.97 -2.18915 -2.80989 0
M  V30 21699 O 2102.83 -3.15692 -4.46095 0
M  V30 21700 H 2099.92 -0.448265 -0.694973 0
M  V30 21701 H 2102.47 -1.45209 -0.878211 0
M  V30 21702 H 2101.24 -3.16426 -2.30196 0
M  V30 21703 H 2100.86 -1.91965 -3.48188 0
M  V30 21704 N 2101.86 1.05436 -1.17136 0
M  V30 21705 C 2103.1 1.78658 -0.959644 0
M  V30 21706 C 2103.44 1.87366 0.510659 0
M  V30 21707 O 2102.71 1.37162 1.37901 0
M  V30 21708 C 2103 3.22682 -1.59839 0
M  V30 21709 C 2102.85 3.22002 -3.14062 0
M  V30 21710 C 2104.17 4.20454 -1.30023 0
M  V30 21711 H 2101.29 0.648566 -0.350044 0
M  V30 21712 H 2103.93 1.23254 -1.44598 0
M  V30 21713 H 2102.08 3.69992 -1.18484 0
M  V30 21714 H 2103.75 2.82787 -3.64457 0
M  V30 21715 H 2101.99 2.60411 -3.46941 0
M  V30 21716 H 2102.66 4.23642 -3.53881 0
M  V30 21717 H 2105.14 3.81628 -1.65829 0
M  V30 21718 H 2104.02 5.19475 -1.77304 0
M  V30 21719 H 2104.28 4.41549 -0.220588 0
M  V30 21720 N 2103.34 0.971211 1.24118 0
M  V30 21721 C 2104.56 0.652357 1.96873 0
M  V30 21722 C 2104.99 -0.772193 1.71519 0
M  V30 21723 O 2104.34 -1.52463 0.981051 0
M  V30 21724 C 2104.39 0.937388 3.48203 0
M  V30 21725 O 2103.5 0.0246311 4.12393 0
M  V30 21726 H 2102.84 0.246274 0.61664 0
M  V30 21727 H 2105.37 1.30231 1.578 0
M  V30 21728 H 2105.38 0.870349 3.98609 0
M  V30 21729 H 2104.05 1.97556 3.65984 0
M  V30 21730 H 2102.63 0.145292 3.72617 0
M  V30 21731 N 2104.81 -1.39054 0.741747 0
M  V30 21732 C 2106.06 -2.00671 0.293089 0
M  V30 21733 C 2106.39 -1.58733 -1.11882 0
M  V30 21734 O 2105.67 -0.819335 -1.76401 0
M  V30 21735 C 2105.95 -3.57843 0.402573 0
M  V30 21736 C 2105.8 -4.0978 1.85474 0
M  V30 21737 C 2107.12 -4.39594 -0.211039 0
M  V30 21738 H 2104.24 -0.729048 0.10797 0
M  V30 21739 H 2106.88 -1.65165 0.939169 0
M  V30 21740 H 2105.03 -3.8822 -0.147482 0
M  V30 21741 H 2106.71 -3.90095 2.46219 0
M  V30 21742 H 2104.95 -3.63088 2.3738 0
M  V30 21743 H 2105.62 -5.18906 1.88257 0
M  V30 21744 H 2108.1 -4.153 0.257937 0
M  V30 21745 H 2106.97 -5.48801 -0.104126 0
M  V30 21746 H 2107.23 -4.22618 -1.29792 0
M  V30 21747 N 2106.29 -0.489897 -1.49792 0
M  V30 21748 C 2107.54 0.0603289 -2.0161 0
M  V30 21749 C 2107.85 1.39071 -1.37545 0
M  V30 21750 O 2109.06 2.02698 -1.80626 0
M  V30 21751 C 2107.52 0.157998 -3.59553 0
M  V30 21752 C 2107.12 -1.16507 -4.32585 0
M  V30 21753 C 2108.87 0.65918 -4.19351 0
M  V30 21754 C 2106.78 -1.03017 -5.82358 0
M  V30 21755 H 2105.71 0.0263203 -0.75354 0
M  V30 21756 H 2108.36 -0.627641 -1.72432 0
M  V30 21757 H 2106.74 0.910172 -3.85398 0
M  V30 21758 H 2107.91 -1.92967 -4.1845 0
M  V30 21759 H 2106.23 -1.59883 -3.84482 0
M  V30 21760 H 2108.82 0.77744 -5.29018 0
M  V30 21761 H 2109.17 1.65527 -3.81977 0
M  V30 21762 H 2109.7 -0.0361409 -3.97784 0
M  V30 21763 H 2106.44 -2.00019 -6.24238 0
M  V30 21764 H 2105.96 -0.306276 -5.99018 0
M  V30 21765 H 2107.64 -0.704383 -6.43154 0
M  V30 21766 N 2107.77 1.56011 -0.223262 0
M  V30 21767 C 2109.18 1.84523 0.284276 0
M  V30 21768 C 2109.53 1.14468 1.59347 0
M  V30 21769 O 2108.66 0.414932 2.12385 0
M  V30 21770 C 2109.25 3.34746 0.522566 0
M  V30 21771 C 2107.81 3.63569 0.974409 0
M  V30 21772 C 2106.96 2.77273 0.038428 0
M  V30 21773 H 2109.91 1.52292 -0.446413 0
M  V30 21774 H 2109.93 3.55044 1.36835 0
M  V30 21775 H 2109.44 3.85705 -0.430453 0
M  V30 21776 H 2107.54 3.18067 1.94073 0
M  V30 21777 H 2107.66 4.71542 0.847634 0
M  V30 21778 H 2106.02 2.48789 0.545532 0
M  V30 21779 H 2106.8 3.31032 -0.909539 0
M  V30 21780 N 2109.25 -0.0501116 1.5752 0
M  V30 21781 C 2110.48 -0.757437 1.92537 0
M  V30 21782 C 2110.89 -1.70005 0.821205 0
M  V30 21783 O 2110.25 -1.81356 -0.203983 0
M  V30 21784 C 2110.3 -1.53258 3.27405 0
M  V30 21785 O 2110.02 -0.627828 4.33578 0
M  V30 21786 C 2111.52 -2.33896 3.76573 0
M  V30 21787 H 2108.74 -0.21413 0.635916 0
M  V30 21788 H 2111.29 -0.01391 2.04495 0
M  V30 21789 H 2109.44 -2.22818 3.16909 0
M  V30 21790 H 2109.85 -1.16918 5.11303 0
M  V30 21791 H 2111.33 -2.83709 4.73511 0
M  V30 21792 H 2111.81 -3.14389 3.06685 0
M  V30 21793 H 2112.41 -1.69451 3.90085 0
M  V30 21794 N 2110.73 -1.54276 -0.321972 0
M  V30 21795 C 2111.95 -1.76841 -1.0836 0
M  V30 21796 C 2112.38 -0.5163 -1.80876 0
M  V30 21797 O 2111.73 0.532225 -1.73312 0
M  V30 21798 C 2111.78 -2.96236 -2.05613 0
M  V30 21799 O 2110.89 -2.67893 -3.1354 0
M  V30 21800 H 2110.23 -0.585948 -0.312347 0
M  V30 21801 H 2112.76 -2.01304 -0.365783 0
M  V30 21802 H 2112.77 -3.23627 -2.48455 0
M  V30 21803 H 2111.44 -3.87037 -1.52234 0
M  V30 21804 H 2110.02 -2.51456 -2.75362 0
M  V30 21805 N 2112.2 0.584116 -1.46376 0
M  V30 21806 C 2113.45 1.33973 -1.51313 0
M  V30 21807 C 2113.77 1.94294 -0.165758 0
M  V30 21808 O 2113.04 1.78481 0.807546 0
M  V30 21809 H 2111.62 0.497422 -0.557298 0
M  V30 21810 H 2114.29 0.684191 -1.82496 0
M  V30 21811 H 2113.38 2.14716 -2.26503 0
M  V30 21812 N 2113.68 1.34058 0.828631 0
M  V30 21813 C 2114.96 1.1668 1.56988 0
M  V30 21814 C 2115.34 -0.262846 2.09457 0
M  V30 21815 O 2114.69 -1.26337 1.90398 0
M  V30 21816 C 2114.9 2.21657 2.69572 0
M  V30 21817 C 2116.25 2.56341 3.38489 0
M  V30 21818 O 2117.27 2.20402 2.79824 0
M  V30 21819 O 2116.13 3.18053 4.44415 0
M  V30 21820 H 2113.22 0.451944 0.692586 0
M  V30 21821 H 2115.77 1.45672 0.870498 0
M  V30 21822 H 2114.54 3.17643 2.28515 0
M  V30 21823 H 2114.16 1.93809 3.47166 0
M  V30 21824 N 2115.16 -1.04814 1.17694 0
M  V30 21825 C 2116.41 -1.78147 0.969105 0
M  V30 21826 C 2116.74 -1.87634 -0.500715 0
M  V30 21827 O 2116.02 -1.37892 -1.37172 0
M  V30 21828 C 2116.3 -3.2183 1.61548 0
M  V30 21829 C 2116.15 -3.20332 3.15765 0
M  V30 21830 C 2117.47 -4.19759 1.32251 0
M  V30 21831 H 2114.59 -0.646701 0.353479 0
M  V30 21832 H 2117.23 -1.22485 1.45249 0
M  V30 21833 H 2115.38 -3.69358 1.20445 0
M  V30 21834 H 2117.05 -2.8085 3.65952 0
M  V30 21835 H 2115.3 -2.58568 3.48318 0
M  V30 21836 H 2115.97 -4.21759 3.56123 0
M  V30 21837 H 2118.44 -3.80743 1.67851 0
M  V30 21838 H 2117.32 -5.18527 1.80057 0
M  V30 21839 H 2117.58 -4.41426 0.244002 0
M  V30 21840 N 2116.64 -0.977779 -1.23601 0
M  V30 21841 C 2117.89 -0.646167 -1.9223 0
M  V30 21842 C 2118.22 0.817893 -1.76137 0
M  V30 21843 O 2117.49 1.58966 -1.12071 0
M  V30 21844 C 2117.78 -1.03412 -3.44932 0
M  V30 21845 C 2117.63 -2.55561 -3.70147 0
M  V30 21846 C 2118.95 -0.576087 -4.36313 0
M  V30 21847 H 2116.07 -0.236222 -0.698118 0
M  V30 21848 H 2118.71 -1.21859 -1.45775 0
M  V30 21849 H 2116.86 -0.547033 -3.84629 0
M  V30 21850 H 2118.53 -3.11824 -3.39947 0
M  V30 21851 H 2116.77 -2.98312 -3.14949 0
M  V30 21852 H 2117.45 -2.77756 -4.77028 0
M  V30 21853 H 2119.92 -0.994237 -4.04047 0
M  V30 21854 H 2118.8 -0.875993 -5.41865 0
M  V30 21855 H 2119.06 0.523647 -4.38988 0
M  V30 21856 N 2118.12 1.38658 -0.749111 0
M  V30 21857 C 2119.36 2.00513 -0.303727 0
M  V30 21858 C 2119.7 1.59324 1.11039 0
M  V30 21859 O 2118.97 0.828679 1.75964 0
M  V30 21860 C 2119.25 3.57624 -0.421545 0
M  V30 21861 C 2119.11 4.0879 -1.87644 0
M  V30 21862 C 2120.43 4.39699 0.187724 0
M  V30 21863 H 2117.55 0.728465 -0.111835 0
M  V30 21864 H 2120.19 1.64665 -0.947915 0
M  V30 21865 H 2118.34 3.88293 0.126892 0
M  V30 21866 H 2120.01 3.88784 -2.48284 0
M  V30 21867 H 2118.25 3.61824 -2.39303 0
M  V30 21868 H 2118.92 5.179 -1.91006 0
M  V30 21869 H 2121.4 4.15157 -0.279958 0
M  V30 21870 H 2120.28 5.48849 0.0750199 0
M  V30 21871 H 2120.54 4.23301 1.27549 0
M  V30 21872 N 2119.6 0.497834 1.49531 0
M  V30 21873 C 2120.84 -0.0478795 2.02743 0
M  V30 21874 C 2121.17 -1.36937 1.37702 0
M  V30 21875 O 2120.45 -1.8765 0.511637 0
M  V30 21876 C 2120.73 -0.203749 3.59523 0
M  V30 21877 C 2120.59 1.14064 4.35097 0
M  V30 21878 C 2121.9 -0.945869 4.29815 0
M  V30 21879 H 2119.02 -0.0159264 0.736828 0
M  V30 21880 H 2121.67 0.648629 1.78586 0
M  V30 21881 H 2119.82 -0.796987 3.80237 0
M  V30 21882 H 2121.49 1.77252 4.25887 0
M  V30 21883 H 2119.73 1.73071 3.9778 0
M  V30 21884 H 2120.4 0.984923 5.43142 0
M  V30 21885 H 2122.88 -0.44277 4.13738 0
M  V30 21886 H 2121.75 -1.02377 5.39268 0
M  V30 21887 H 2122.01 -1.98884 3.94839 0
M  V30 21888 N 2121.07 -1.5589 0.231532 0
M  V30 21889 C 2122.04 -2.19461 -0.661012 0
M  V30 21890 C 2123.04 -1.15936 -1.11424 0
M  V30 21891 O 2124.23 -1.41111 -1.02144 0
M  V30 21892 C 2121.36 -2.82592 -1.90669 0
M  V30 21893 H 2122.55 -2.9971 -0.106607 0
M  V30 21894 H 2120.1 -1.5629 -0.0180602 0
M  V30 21895 H 2120.84 -2.06239 -2.50272 0
M  V30 21896 H 2120.62 -3.58412 -1.59007 0
M  V30 21897 H 2122.11 -3.3129 -2.54238 0
M  V30 21898 N 2122.55 0.0417572 -1.57545 0
M  V30 21899 C 2123.78 0.747215 -1.92936 0
M  V30 21900 C 2124.19 1.69567 -0.830209 0
M  V30 21901 O 2123.55 1.81462 0.194363 0
M  V30 21902 C 2123.6 1.51519 -3.28214 0
M  V30 21903 O 2123.32 0.604825 -4.33905 0
M  V30 21904 C 2124.82 2.31896 -3.77809 0
M  V30 21905 H 2122.04 0.210755 -0.637043 0
M  V30 21906 H 2124.59 0.00306497 -2.045 0
M  V30 21907 H 2122.74 2.21134 -3.18086 0
M  V30 21908 H 2123.16 1.14205 -5.11916 0
M  V30 21909 H 2124.63 2.81194 -4.75009 0
M  V30 21910 H 2125.11 3.12759 -3.08348 0
M  V30 21911 H 2125.71 1.6738 -3.90978 0
M  V30 21912 N 2124.03 1.54445 0.313786 0
M  V30 21913 C 2125.31 1.63779 1.06939 0
M  V30 21914 C 2125.69 0.477876 2.0562 0
M  V30 21915 O 2125.03 -0.526814 2.22344 0
M  V30 21916 C 2125.24 3.01218 1.76263 0
M  V30 21917 C 2126.59 3.57599 2.28928 0
M  V30 21918 O 2127.62 3.03587 1.86316 0
M  V30 21919 O 2126.48 4.52141 3.06971 0
M  V30 21920 H 2123.57 0.663608 0.493511 0
M  V30 21921 H 2126.12 1.6679 0.312895 0
M  V30 21922 H 2124.89 3.77077 1.04539 0
M  V30 21923 H 2124.51 3.01928 2.58699 0
M  V30 21924 N 2125.51 -0.576345 1.46683 0
M  V30 21925 C 2126.47 -1.66698 1.57303 0
M  V30 21926 C 2127.47 -1.54385 0.449647 0
M  V30 21927 O 2128.66 -1.58888 0.71415 0
M  V30 21928 C 2125.79 -3.06156 1.49938 0
M  V30 21929 H 2126.99 -1.58638 2.54507 0
M  V30 21930 H 2124.54 -0.79471 1.34588 0
M  V30 21931 H 2125.27 -3.19766 0.540379 0
M  V30 21932 H 2125.06 -3.16502 2.3145 0
M  V30 21933 H 2126.55 -3.85538 1.60469 0
M  V30 21934 N 2126.99 -1.34495 -0.82151 0
M  V30 21935 C 2127.92 -1.28835 -1.94741 0
M  V30 21936 C 2128.9 -0.165528 -1.69293 0
M  V30 21937 O 2130.08 -0.358115 -1.9087 0
M  V30 21938 C 2127.21 -1.04446 -3.31222 0
M  V30 21939 C 2126.17 -2.13209 -3.71114 0
M  V30 21940 C 2125.49 -1.74007 -5.05594 0
M  V30 21941 C 2126.79 -3.55051 -3.83062 0
M  V30 21942 H 2128.49 -2.23039 -1.99734 0
M  V30 21943 H 2126.03 -1.07369 -0.959573 0
M  V30 21944 H 2127.98 -0.991306 -4.09574 0
M  V30 21945 H 2126.71 -0.0668391 -3.26532 0
M  V30 21946 H 2125.37 -2.17597 -2.95038 0
M  V30 21947 H 2125.02 -0.749021 -4.97392 0
M  V30 21948 H 2124.72 -2.46803 -5.33256 0
M  V30 21949 H 2126.24 -1.7019 -5.86402 0
M  V30 21950 H 2127.65 -3.53068 -4.51681 0
M  V30 21951 H 2126.05 -4.2648 -4.22179 0
M  V30 21952 H 2127.12 -3.92289 -2.85021 0
M  V30 21953 N 2128.46 1.04188 -1.18248 0
M  V30 21954 C 2129.4 2.11707 -0.851784 0
M  V30 21955 C 2130.38 1.61536 0.185734 0
M  V30 21956 O 2131.56 1.88388 0.0649765 0
M  V30 21957 C 2128.69 3.37603 -0.272436 0
M  V30 21958 C 2127.73 4.0662 -1.28694 0
M  V30 21959 S 2128.57 4.53841 -2.84234 0
M  V30 21960 C 2129.72 5.82971 -2.27807 0
M  V30 21961 H 2129.95 2.39432 -1.76237 0
M  V30 21962 H 2127.49 1.16938 -1.00821 0
M  V30 21963 H 2129.45 4.10463 0.0553219 0
M  V30 21964 H 2128.11 3.07995 0.616252 0
M  V30 21965 H 2127.3 4.97111 -0.830431 0
M  V30 21966 H 2126.9 3.39872 -1.56087 0
M  V30 21967 H 2129.19 6.56851 -1.6599 0
M  V30 21968 H 2130.14 6.33383 -3.16593 0
M  V30 21969 H 2130.54 5.38017 -1.70873 0
M  V30 21970 N 2129.94 0.98432 1.23081 0
M  V30 21971 C 2131.17 0.673535 1.9563 0
M  V30 21972 C 2131.59 -0.760222 1.72818 0
M  V30 21973 O 2130.94 -1.51201 1.02198 0
M  V30 21974 C 2130.99 0.959283 3.4854 0
M  V30 21975 O 2130.71 2.33669 3.70581 0
M  V30 21976 C 2132.22 0.664998 4.38284 0
M  V30 21977 H 2129.44 0.249871 0.62274 0
M  V30 21978 H 2131.98 1.31677 1.56466 0
M  V30 21979 H 2130.13 0.361997 3.85705 0
M  V30 21980 H 2130.55 2.42938 4.64846 0
M  V30 21981 H 2132.02 0.915271 5.44359 0
M  V30 21982 H 2132.5 -0.400961 4.37366 0
M  V30 21983 H 2133.11 1.24294 4.06732 0
M  V30 21984 N 2131.42 -1.38259 0.756453 0
M  V30 21985 C 2132.67 -1.99657 0.313271 0
M  V30 21986 C 2132.99 -1.60347 -1.10967 0
M  V30 21987 O 2132.26 -0.861667 -1.75932 0
M  V30 21988 H 2130.84 -0.738428 0.112838 0
M  V30 21989 H 2133.5 -1.68979 0.971184 0
M  V30 21990 H 2132.6 -3.09794 0.378689 0
M  V30 21991 N 2132.9 -0.505757 -1.49264 0
M  V30 21992 C 2134.13 0.0336911 -2.06573 0
M  V30 21993 C 2134.54 1.30934 -1.36576 0
M  V30 21994 O 2133.88 1.7837 -0.439315 0
M  V30 21995 C 2133.94 0.352849 -3.57764 0
M  V30 21996 C 2133.61 -0.825771 -4.49478 0
M  V30 21997 C 2134.6 -1.71758 -4.90709 0
M  V30 21998 C 2132.29 -1.02592 -4.91711 0
M  V30 21999 C 2134.28 -2.79364 -5.72918 0
M  V30 22000 C 2131.97 -2.10516 -5.73695 0
M  V30 22001 C 2132.97 -2.98736 -6.14203 0
M  V30 22002 O 2132.65 -4.04796 -6.94547 0
M  V30 22003 H 2132.39 -0.019393 -0.675722 0
M  V30 22004 H 2134.94 -0.703718 -1.92969 0
M  V30 22005 H 2133.17 1.14391 -3.69393 0
M  V30 22006 H 2134.86 0.831477 -3.97292 0
M  V30 22007 H 2135.63 -1.57478 -4.58722 0
M  V30 22008 H 2131.5 -0.348606 -4.5968 0
M  V30 22009 H 2135.05 -3.48252 -6.04455 0
M  V30 22010 H 2130.95 -2.24788 -6.05095 0
M  V30 22011 H 2131.71 -4.02208 -7.12861 0
M  V30 22012 N 2134.38 1.55765 -0.239796 0
M  V30 22013 C 2135.6 2.03167 0.391261 0
M  V30 22014 C 2136.02 1.11923 1.52049 0
M  V30 22015 O 2135.38 0.132278 1.8202 0
M  V30 22016 C 2135.43 3.49969 0.90575 0
M  V30 22017 O 2135.15 4.37736 -0.178468 0
M  V30 22018 C 2136.65 4.131 1.60821 0
M  V30 22019 H 2133.87 0.664411 0.0938007 0
M  V30 22020 H 2136.41 2.01278 -0.361584 0
M  V30 22021 H 2134.57 3.52415 1.6088 0
M  V30 22022 H 2134.98 5.24075 0.211064 0
M  V30 22023 H 2136.46 5.17533 1.92 0
M  V30 22024 H 2136.93 3.59169 2.52773 0
M  V30 22025 H 2137.54 4.14556 0.949915 0
M  V30 22026 N 2135.85 -0.0334016 1.57565 0
M  V30 22027 C 2137.1 -0.723651 1.887 0
M  V30 22028 C 2137.42 -1.76126 0.836929 0
M  V30 22029 O 2136.69 -1.95468 -0.12998 0
M  V30 22030 H 2135.27 -0.270263 0.696396 0
M  V30 22031 H 2137.94 -0.000381018 1.949 0
M  V30 22032 H 2137.03 -1.21594 2.87439 0
M  V30 22033 N 2137.33 -1.54609 -0.305591 0
M  V30 22034 C 2138.61 -1.64344 -1.06068 0
M  V30 22035 C 2138.99 -0.488774 -2.05364 0
M  V30 22036 O 2138.34 0.515015 -2.2262 0
M  V30 22037 C 2138.55 -3.02149 -1.74663 0
M  V30 22038 C 2139.9 -3.58808 -2.27029 0
M  V30 22039 O 2140.92 -3.04571 -1.84703 0
M  V30 22040 O 2139.78 -4.53762 -3.04568 0
M  V30 22041 H 2136.87 -0.666216 -0.489984 0
M  V30 22042 H 2139.42 -1.66954 -0.304046 0
M  V30 22043 H 2138.19 -3.77626 -1.02538 0
M  V30 22044 H 2137.81 -3.03296 -2.57094 0
M  V30 22045 N 2138.81 0.568558 -1.46987 0
M  V30 22046 C 2140.06 1.32622 -1.53028 0
M  V30 22047 C 2140.39 1.93591 -0.187815 0
M  V30 22048 O 2139.64 1.77779 0.818104 0
M  V30 22049 C 2139.94 2.46501 -2.5879 0
M  V30 22050 C 2139.61 2.03435 -4.02399 0
M  V30 22051 C 2138.27 1.91406 -4.41494 0
M  V30 22052 C 2140.62 1.70411 -4.92554 0
M  V30 22053 C 2137.95 1.4463 -5.68594 0
M  V30 22054 C 2140.3 1.2511 -6.20105 0
M  V30 22055 C 2138.96 1.11668 -6.58093 0
M  V30 22056 H 2138.23 0.485299 -0.559969 0
M  V30 22057 H 2140.88 0.638777 -1.80532 0
M  V30 22058 H 2139.19 3.20753 -2.24999 0
M  V30 22059 H 2140.88 3.047 -2.60689 0
M  V30 22060 H 2137.47 2.13737 -3.71503 0
M  V30 22061 H 2141.66 1.78582 -4.63057 0
M  V30 22062 H 2136.91 1.32878 -5.96786 0
M  V30 22063 H 2141.09 0.986139 -6.89383 0
M  V30 22064 H 2138.71 0.751996 -7.56471 0
M  V30 22065 N 2140.29 1.34929 0.814366 0
M  V30 22066 C 2141.57 1.18339 1.55741 0
M  V30 22067 C 2141.95 -0.240616 2.09724 0
M  V30 22068 O 2141.29 -1.2431 1.91727 0
M  V30 22069 C 2141.5 2.24503 2.67206 0
M  V30 22070 C 2142.85 2.59917 3.35751 0
M  V30 22071 O 2143.88 2.23358 2.7747 0
M  V30 22072 O 2142.73 3.22749 4.41017 0
M  V30 22073 H 2139.83 0.459265 0.687753 0
M  V30 22074 H 2142.37 1.46587 0.854999 0
M  V30 22075 H 2141.15 3.20048 2.25133 0
M  V30 22076 H 2140.77 1.9748 3.4509 0
M  V30 22077 N 2141.77 -1.0356 1.18799 0
M  V30 22078 C 2142.99 -1.81025 1.01216 0
M  V30 22079 C 2143.42 -1.8301 -0.434636 0
M  V30 22080 O 2142.77 -1.25115 -1.3121 0
M  V30 22081 C 2142.82 -3.24257 1.57766 0
M  V30 22082 O 2141.93 -4.04518 0.802435 0
M  V30 22083 H 2141.27 -0.559085 0.358218 0
M  V30 22084 H 2143.8 -1.30389 1.57671 0
M  V30 22085 H 2143.81 -3.75022 1.60694 0
M  V30 22086 H 2142.48 -3.22127 2.63073 0
M  V30 22087 H 2141.06 -3.6318 0.845866 0
M  V30 22088 N 2143.25 -0.990834 -1.22557 0
M  V30 22089 C 2144.49 -0.666519 -1.91534 0
M  V30 22090 C 2144.82 0.799165 -1.76994 0
M  V30 22091 O 2144.1 1.57769 -1.13751 0
M  V30 22092 C 2144.38 -1.07064 -3.43816 0
M  V30 22093 C 2144.24 -2.59473 -3.67415 0
M  V30 22094 C 2145.55 -0.622332 -4.35678 0
M  V30 22095 H 2142.67 -0.243613 -0.695573 0
M  V30 22096 H 2145.32 -1.23399 -1.44474 0
M  V30 22097 H 2143.47 -0.587797 -3.84028 0
M  V30 22098 H 2145.14 -3.15412 -3.3662 0
M  V30 22099 H 2143.38 -3.01635 -3.11767 0
M  V30 22100 H 2144.05 -2.828 -4.74055 0
M  V30 22101 H 2146.53 -1.03704 -4.0297 0
M  V30 22102 H 2145.4 -0.933416 -5.40905 0
M  V30 22103 H 2145.66 0.477057 -4.39519 0
M  V30 22104 N 2144.72 1.37856 -0.763775 0
M  V30 22105 C 2145.97 1.99126 -0.321223 0
M  V30 22106 C 2146.29 1.61318 1.10615 0
M  V30 22107 O 2147.49 2.15633 1.64969 0
M  V30 22108 C 2145.95 3.56074 -0.523371 0
M  V30 22109 C 2145.56 4.02826 -1.96049 0
M  V30 22110 C 2147.3 4.24256 -0.144043 0
M  V30 22111 C 2145.21 5.52454 -2.11066 0
M  V30 22112 H 2144.14 0.744968 -0.116357 0
M  V30 22113 H 2146.79 1.5749 -0.941769 0
M  V30 22114 H 2145.17 3.9565 0.166513 0
M  V30 22115 H 2146.34 3.74515 -2.68468 0
M  V30 22116 H 2144.66 3.47402 -2.29567 0
M  V30 22117 H 2147.26 5.34184 -0.234865 0
M  V30 22118 H 2147.6 4.06351 0.904676 0
M  V30 22119 H 2148.13 3.89954 -0.786169 0
M  V30 22120 H 2144.87 5.75275 -3.14228 0
M  V30 22121 H 2144.39 5.82474 -1.43121 0
M  V30 22122 H 2146.07 6.18305 -1.90546 0
M  V30 22123 N 2146.2 0.513665 1.48994 0
M  V30 22124 C 2147.48 -0.0899538 1.95393 0
M  V30 22125 C 2147.86 -1.52898 1.45552 0
M  V30 22126 O 2147.21 -2.18308 0.674808 0
M  V30 22127 C 2147.42 0.010453 3.48998 0
M  V30 22128 C 2148.76 -0.157087 4.24309 0
M  V30 22129 O 2149.79 -0.0641299 3.56142 0
M  V30 22130 O 2148.65 -0.349548 5.45381 0
M  V30 22131 H 2145.74 -0.0883243 0.82227 0
M  V30 22132 H 2148.29 0.577105 1.59586 0
M  V30 22133 H 2147.06 1.0135 3.77947 0
M  V30 22134 H 2146.68 -0.696188 3.91458 0
M  V30 22135 N 2147.68 -1.55636 0.248053 0
M  V30 22136 C 2148.92 -2.00876 -0.377892 0
M  V30 22137 C 2149.28 -1.13247 -1.55045 0
M  V30 22138 O 2150.48 -1.47949 -2.24421 0
M  V30 22139 C 2148.76 -3.48868 -0.776285 0
M  V30 22140 S 2150.31 -4.16116 -1.39259 0
M  V30 22141 H 2147.13 -0.700996 -0.118851 0
M  V30 22142 H 2149.73 -1.9209 0.363557 0
M  V30 22143 H 2148.44 -4.10309 0.0863888 0
M  V30 22144 H 2147.97 -3.61583 -1.54988 0
M  V30 22145 H 2149.98 -4.17497 -2.68162 0
M  V30 22146 N 2149.16 0.0250451 -1.5758 0
M  V30 22147 C 2150.11 1.04281 -2.07914 0
M  V30 22148 C 2151.1 1.37188 -0.993769 0
M  V30 22149 O 2152.31 1.36046 -1.17862 0
M  V30 22150 H 2148.68 0.353839 -0.663552 0
M  V30 22151 H 2150.65 0.592514 -2.92458 0
M  V30 22152 C 2149.4 2.33393 -2.57726 0
M  V30 22153 H 2148.72 2.08934 -3.40862 0
M  V30 22154 H 2150.16 3.02943 -2.96651 0
M  V30 22155 C 2148.62 3.02638 -1.48026 0
M  V30 22156 O 2149.15 3.9263 -0.848789 0
M  V30 22157 N 2147.36 2.64036 -1.21381 0
M  V30 22158 H 2146.91 1.90939 -1.72916 0
M  V30 22159 H 2146.86 3.10684 -0.481967 0
M  V30 22160 N 2150.64 1.54769 0.297388 0
M  V30 22161 C 2151.86 1.78217 1.05101 0
M  V30 22162 C 2152.28 0.543423 1.8081 0
M  V30 22163 O 2151.64 -0.486854 1.75886 0
M  V30 22164 C 2151.69 2.99206 2.02874 0
M  V30 22165 O 2151.41 4.18295 1.30236 0
M  V30 22166 C 2152.91 3.35071 2.90245 0
M  V30 22167 H 2150.13 0.594292 0.31154 0
M  V30 22168 H 2152.67 2.01728 0.335565 0
M  V30 22169 H 2150.83 2.77893 2.69915 0
M  V30 22170 H 2151.24 4.86531 1.95928 0
M  V30 22171 H 2152.72 4.22961 3.54694 0
M  V30 22172 H 2153.19 2.53386 3.58737 0
M  V30 22173 H 2153.8 3.58556 2.2873 0
M  V30 22174 N 2152.11 -0.560755 1.47286 0
M  V30 22175 C 2153.35 -1.3289 1.55305 0
M  V30 22176 C 2153.72 -1.9086 0.208898 0
M  V30 22177 O 2154.92 -2.683 0.163911 0
M  V30 22178 C 2153.19 -2.41196 2.63741 0
M  V30 22179 S 2154.75 -3.28146 2.91318 0
M  V30 22180 H 2151.57 -0.452457 0.548456 0
M  V30 22181 H 2154.17 -0.642337 1.84646 0
M  V30 22182 H 2152.87 -1.97037 3.60006 0
M  V30 22183 H 2152.4 -3.14598 2.36202 0
M  V30 22184 H 2154.42 -4.4058 2.28261 0
M  V30 22185 N 2153.59 -1.35359 -0.807199 0
M  V30 22186 C 2154.84 -1.28788 -1.56657 0
M  V30 22187 C 2155.17 0.137625 -1.93712 0
M  V30 22188 O 2154.45 1.08685 -1.61301 0
M  V30 22189 C 2154.73 -2.19379 -2.85561 0
M  V30 22190 C 2154.58 -3.70543 -2.54986 0
M  V30 22191 C 2155.9 -2.0909 -3.87259 0
M  V30 22192 H 2153.02 -0.469169 -0.568374 0
M  V30 22193 H 2155.66 -1.65754 -0.928736 0
M  V30 22194 H 2153.81 -1.87984 -3.39992 0
M  V30 22195 H 2155.48 -4.12377 -2.06743 0
M  V30 22196 H 2153.73 -3.90855 -1.88189 0
M  V30 22197 H 2154.4 -4.29316 -3.46975 0
M  V30 22198 H 2156.87 -2.36687 -3.42226 0
M  V30 22199 H 2155.75 -2.74675 -4.75231 0
M  V30 22200 H 2156.01 -1.07265 -4.2889 0
M  V30 22201 N 2155.07 1.02928 -1.19346 0
M  V30 22202 C 2156.3 1.79948 -1.02109 0
M  V30 22203 C 2156.71 1.83834 0.430184 0
M  V30 22204 O 2156.07 1.28209 1.2988 0
M  V30 22205 C 2156.12 3.25018 -1.58258 0
M  V30 22206 O 2155.84 3.21409 -2.97705 0
M  V30 22207 C 2157.34 4.18638 -1.45798 0
M  V30 22208 H 2154.56 0.566313 -0.359904 0
M  V30 22209 H 2157.11 1.29645 -1.58153 0
M  V30 22210 H 2155.26 3.72512 -1.06364 0
M  V30 22211 H 2155.68 4.12372 -3.24113 0
M  V30 22212 H 2157.15 5.1832 -1.89865 0
M  V30 22213 H 2157.63 4.37297 -0.408433 0
M  V30 22214 H 2158.23 3.77017 -1.96821 0
M  V30 22215 N 2156.55 0.997319 1.2203 0
M  V30 22216 C 2157.48 0.50954 2.23464 0
M  V30 22217 C 2158.49 -0.397746 1.57866 0
M  V30 22218 O 2159.68 -0.199173 1.77385 0
M  V30 22219 C 2156.78 -0.280337 3.37739 0
M  V30 22220 C 2155.95 0.624157 4.32924 0
M  V30 22221 C 2155.01 -0.114778 5.26075 0
M  V30 22222 O 2154.04 0.501303 5.66988 0
M  V30 22223 N 2155.24 -1.39573 5.63471 0
M  V30 22224 H 2158.01 1.38179 2.65945 0
M  V30 22225 H 2155.57 0.872554 1.36375 0
M  V30 22226 H 2157.56 -0.783436 3.97045 0
M  V30 22227 H 2156.13 -1.05371 2.94305 0
M  V30 22228 H 2155.35 1.30786 3.71872 0
M  V30 22229 H 2156.64 1.23998 4.93459 0
M  V30 22230 H 2156.04 -1.91751 5.3221 0
M  V30 22231 H 2154.59 -1.84393 6.25174 0
M  V30 22232 N 2158.03 -1.37449 0.771075 0
M  V30 22233 C 2159.25 -2.03979 0.346453 0
M  V30 22234 C 2159.67 -1.58156 -1.03113 0
M  V30 22235 O 2159.03 -0.762511 -1.65807 0
M  V30 22236 C 2159.08 -3.595 0.379748 0
M  V30 22237 O 2158.8 -4.03646 1.70298 0
M  V30 22238 C 2160.3 -4.43264 -0.0565544 0
M  V30 22239 H 2157.52 -0.655084 0.145281 0
M  V30 22240 H 2160.06 -1.75795 1.04481 0
M  V30 22241 H 2158.22 -3.86458 -0.270023 0
M  V30 22242 H 2158.63 -4.98163 1.64115 0
M  V30 22243 H 2160.11 -5.51997 0.0178961 0
M  V30 22244 H 2160.58 -4.25025 -1.10683 0
M  V30 22245 H 2161.19 -4.2153 0.565003 0
M  V30 22246 N 2159.5 -0.52156 -1.4872 0
M  V30 22247 C 2160.75 0.0156187 -2.02794 0
M  V30 22248 C 2161.08 1.34729 -1.39863 0
M  V30 22249 O 2160.36 1.86812 -0.541426 0
M  V30 22250 C 2160.64 0.146526 -3.59802 0
M  V30 22251 C 2160.49 -1.20972 -4.33227 0
M  V30 22252 C 2161.81 0.87737 -4.31266 0
M  V30 22253 H 2158.93 0.00420207 -0.736988 0
M  V30 22254 H 2161.57 -0.676958 -1.77531 0
M  V30 22255 H 2159.72 0.736393 -3.81457 0
M  V30 22256 H 2161.4 -1.84005 -4.23013 0
M  V30 22257 H 2159.64 -1.79378 -3.94976 0
M  V30 22258 H 2160.31 -1.07121 -5.41506 0
M  V30 22259 H 2162.79 0.376892 -4.1439 0
M  V30 22260 H 2161.66 0.937846 -5.40829 0
M  V30 22261 H 2161.92 1.92578 -3.97953 0
M  V30 22262 N 2160.98 1.55502 -0.256304 0
M  V30 22263 C 2162.26 1.91111 0.41663 0
M  V30 22264 C 2162.64 1.17825 1.75159 0
M  V30 22265 O 2161.99 0.298822 2.26538 0
M  V30 22266 C 2162.2 3.44223 0.575462 0
M  V30 22267 C 2163.55 4.15653 0.867028 0
M  V30 22268 O 2164.57 3.50014 0.660977 0
M  V30 22269 O 2163.43 5.31777 1.25997 0
M  V30 22270 H 2160.52 0.795781 0.225083 0
M  V30 22271 H 2163.07 1.67008 -0.301066 0
M  V30 22272 H 2161.84 3.89596 -0.364767 0
M  V30 22273 H 2161.46 3.74219 1.34334 0
M  V30 22274 N 2162.46 -0.0166879 1.57591 0
M  V30 22275 C 2163.71 -0.704989 1.89832 0
M  V30 22276 C 2164.04 -1.74694 0.855116 0
M  V30 22277 O 2163.29 -1.95182 -0.142329 0
M  V30 22278 C 2163.59 -1.4003 3.28826 0
M  V30 22279 C 2163.26 -0.493148 4.48195 0
M  V30 22280 C 2161.92 -0.24333 4.80584 0
M  V30 22281 C 2164.27 0.132428 5.21032 0
M  V30 22282 C 2161.6 0.640635 5.83192 0
M  V30 22283 C 2163.95 1.00417 6.24579 0
M  V30 22284 C 2162.61 1.26333 6.55436 0
M  V30 22285 H 2161.88 -0.257974 0.694644 0
M  V30 22286 H 2164.53 0.0352552 1.91468 0
M  V30 22287 H 2162.84 -2.21417 3.23236 0
M  V30 22288 H 2164.53 -1.93863 3.51025 0
M  V30 22289 H 2161.12 -0.698019 4.22878 0
M  V30 22290 H 2165.31 -0.0475893 4.96277 0
M  V30 22291 H 2160.56 0.849601 6.05468 0
M  V30 22292 H 2164.74 1.49535 6.80156 0
M  V30 22293 H 2162.36 1.95 7.34765 0
M  V30 22294 N 2163.94 -1.54924 -0.289176 0
M  V30 22295 C 2165.16 -1.791 -1.04585 0
M  V30 22296 C 2165.59 -0.55455 -1.7974 0
M  V30 22297 O 2164.95 0.495343 -1.74402 0
M  V30 22298 C 2164.99 -3.0053 -1.99283 0
M  V30 22299 O 2164.1 -2.74483 -3.07787 0
M  V30 22300 H 2163.44 -0.592442 -0.299847 0
M  V30 22301 H 2165.97 -2.02034 -0.323001 0
M  V30 22302 H 2165.98 -3.28824 -2.41534 0
M  V30 22303 H 2164.65 -3.90179 -1.4399 0
M  V30 22304 H 2163.23 -2.5724 -2.69966 0
M  V30 22305 N 2165.42 0.552936 -1.47582 0
M  V30 22306 C 2166.35 1.66928 -1.6327 0
M  V30 22307 C 2167.33 1.63127 -0.482035 0
M  V30 22308 O 2168.51 1.80682 -0.71188 0
M  V30 22309 C 2165.64 3.0556 -1.65076 0
M  V30 22310 C 2164.6 3.2421 -2.79413 0
M  V30 22311 C 2163.92 4.63672 -2.66294 0
M  V30 22312 C 2165.22 3.09176 -4.20961 0
M  V30 22313 H 2166.92 1.54055 -2.56725 0
M  V30 22314 H 2164.46 0.739709 -1.23549 0
M  V30 22315 H 2166.42 3.83508 -1.74642 0
M  V30 22316 H 2165.14 3.19403 -0.681852 0
M  V30 22317 H 2163.8 2.48673 -2.69365 0
M  V30 22318 H 2163.45 4.7432 -1.67422 0
M  V30 22319 H 2163.15 4.77099 -3.43002 0
M  V30 22320 H 2164.67 5.43749 -2.77795 0
M  V30 22321 H 2166.08 3.76936 -4.31963 0
M  V30 22322 H 2164.48 3.3411 -4.98488 0
M  V30 22323 H 2165.55 2.05869 -4.39028 0
M  V30 22324 N 2166.89 1.35785 0.800009 0
M  V30 22325 C 2168.17 1.19984 1.54477 0
M  V30 22326 C 2168.55 -0.218358 2.09968 0
M  V30 22327 O 2167.9 -1.2227 1.93035 0
M  V30 22328 C 2168.11 2.27325 2.6481 0
M  V30 22329 C 2169.46 2.63463 3.32975 0
M  V30 22330 O 2170.48 2.26288 2.75086 0
M  V30 22331 O 2169.34 3.27408 4.37569 0
M  V30 22332 H 2166.43 0.466534 0.682844 0
M  V30 22333 H 2168.98 1.47486 0.839403 0
M  V30 22334 H 2167.75 3.22418 2.21725 0
M  V30 22335 H 2167.38 2.01129 3.42976 0
M  V30 22336 N 2168.37 -1.02294 1.19891 0
M  V30 22337 C 2169.78 -1.5724 1.0066 0
M  V30 22338 C 2170.13 -1.9123 -0.43882 0
M  V30 22339 O 2169.26 -1.71541 -1.31919 0
M  V30 22340 C 2169.85 -2.85704 1.82094 0
M  V30 22341 C 2168.41 -3.37202 1.67248 0
M  V30 22342 C 2167.56 -2.10577 1.80424 0
M  V30 22343 H 2170.51 -0.84751 1.34175 0
M  V30 22344 H 2170.53 -3.56849 1.32056 0
M  V30 22345 H 2170.04 -2.60935 2.87289 0
M  V30 22346 H 2168.15 -3.66946 0.646645 0
M  V30 22347 H 2168.26 -4.09832 2.48142 0
M  V30 22348 H 2166.62 -2.2273 1.23545 0
M  V30 22349 H 2167.41 -1.88241 2.87089 0
M  V30 22350 N 2169.85 -1.00378 -1.21499 0
M  V30 22351 C 2171.08 -0.704573 -1.94534 0
M  V30 22352 C 2171.49 0.732632 -1.74006 0
M  V30 22353 O 2170.85 1.49556 -1.04591 0
M  V30 22354 C 2170.9 -1.01461 -3.4697 0
M  V30 22355 O 2170.62 -2.39535 -3.66817 0
M  V30 22356 C 2172.12 -0.734641 -4.3717 0
M  V30 22357 H 2169.34 -0.259747 -0.618686 0
M  V30 22358 H 2171.89 -1.34149 -1.54351 0
M  V30 22359 H 2170.04 -0.423313 -3.8508 0
M  V30 22360 H 2170.46 -2.50302 -4.60922 0
M  V30 22361 H 2171.93 -1.00176 -5.42834 0
M  V30 22362 H 2172.41 0.331329 -4.37948 0
M  V30 22363 H 2173.01 -1.30749 -4.04703 0
M  V30 22364 N 2171.33 1.37038 -0.778354 0
M  V30 22365 C 2172.58 1.99528 -0.345678 0
M  V30 22366 C 2172.9 1.61785 1.07962 0
M  V30 22367 O 2172.16 0.85887 1.75846 0
M  V30 22368 C 2172.46 3.54632 -0.443975 0
M  V30 22369 C 2172.12 4.12162 -1.82848 0
M  V30 22370 C 2170.79 4.27587 -2.20732 0
M  V30 22371 C 2173.14 4.43641 -2.73555 0
M  V30 22372 C 2170.47 4.71797 -3.48747 0
M  V30 22373 C 2172.82 4.89278 -4.00986 0
M  V30 22374 C 2171.48 5.02909 -4.38906 0
M  V30 22375 H 2170.75 0.730124 -0.126493 0
M  V30 22376 H 2173.4 1.63703 -0.993664 0
M  V30 22377 H 2171.7 3.90743 0.287537 0
M  V30 22378 H 2173.4 4.00898 -0.0903991 0
M  V30 22379 H 2169.99 4.00588 -1.52406 0
M  V30 22380 H 2174.17 4.31303 -2.45544 0
M  V30 22381 H 2169.43 4.80537 -3.78013 0
M  V30 22382 H 2173.6 5.12601 -4.71394 0
M  V30 22383 H 2171.23 5.36926 -5.38159 0
M  V30 22384 N 2172.81 0.529439 1.48441 0
M  V30 22385 C 2174.04 -0.000824174 2.069 0
M  V30 22386 C 2174.45 -1.28195 1.38605 0
M  V30 22387 O 2173.81 -1.76253 0.4734 0
M  V30 22388 C 2173.86 -0.229032 3.60774 0
M  V30 22389 O 2173.58 1.00134 4.26503 0
M  V30 22390 C 2175.08 -0.799736 4.36027 0
M  V30 22391 H 2172.3 0.0332691 0.670175 0
M  V30 22392 H 2174.84 0.734929 1.90838 0
M  V30 22393 H 2173 -0.914832 3.76443 0
M  V30 22394 H 2173.41 0.781737 5.18642 0
M  V30 22395 H 2174.89 -0.908842 5.44467 0
M  V30 22396 H 2175.36 -1.8045 4.00418 0
M  V30 22397 H 2175.97 -0.150518 4.25034 0
M  V30 22398 N 2174.29 -1.55364 0.264547 0
M  V30 22399 C 2175.53 -1.98537 -0.355827 0
M  V30 22400 C 2175.85 -1.15624 -1.57767 0
M  V30 22401 O 2177.05 -1.48892 -2.27032 0
M  V30 22402 C 2175.51 -3.53332 -0.684446 0
M  V30 22403 C 2175.12 -4.45007 0.516993 0
M  V30 22404 C 2176.86 -4.05119 -1.26803 0
M  V30 22405 C 2174.77 -5.91174 0.163548 0
M  V30 22406 H 2173.7 -0.7415 -0.136725 0
M  V30 22407 H 2176.35 -1.79782 0.367539 0
M  V30 22408 H 2174.73 -3.67848 -1.46643 0
M  V30 22409 H 2175.91 -4.42256 1.29406 0
M  V30 22410 H 2174.22 -4.03797 1.0167 0
M  V30 22411 H 2176.82 -5.11859 -1.5461 0
M  V30 22412 H 2177.16 -3.53519 -2.19841 0
M  V30 22413 H 2177.69 -3.93999 -0.548571 0
M  V30 22414 H 2174.43 -6.46848 1.06153 0
M  V30 22415 H 2173.95 -5.97019 -0.576966 0
M  V30 22416 H 2175.63 -6.46524 -0.248012 0
M  V30 22417 N 2175.76 0.00833021 -1.57598 0
M  V30 22418 C 2176.67 1.01892 -2.11318 0
M  V30 22419 C 2177.69 1.38254 -1.0565 0
M  V30 22420 O 2178.87 1.47155 -1.37505 0
M  V30 22421 C 2175.93 2.29464 -2.59899 0
M  V30 22422 C 2174.99 1.99492 -3.80134 0
M  V30 22423 C 2174.22 3.20981 -4.26388 0
M  V30 22424 O 2174.45 4.3238 -3.72027 0
M  V30 22425 O 2173.38 3.05467 -5.18627 0
M  V30 22426 H 2177.21 0.592299 -2.97868 0
M  V30 22427 H 2174.79 0.226636 -1.47671 0
M  V30 22428 H 2176.67 3.04425 -2.91382 0
M  V30 22429 H 2175.35 2.7138 -1.76449 0
M  V30 22430 H 2174.26 1.22033 -3.53636 0
M  V30 22431 H 2175.59 1.62418 -4.6463 0
M  V30 22432 N 2177.24 1.55075 0.280956 0
M  V30 22433 C 2178.47 1.79322 1.03205 0
M  V30 22434 C 2178.88 0.56257 1.80224 0
M  V30 22435 O 2178.24 -0.468172 1.76393 0
M  V30 22436 C 2178.29 3.01341 1.99689 0
M  V30 22437 O 2178.01 4.19652 1.25792 0
M  V30 22438 C 2179.51 3.38131 2.86675 0
M  V30 22439 H 2176.73 0.597563 0.30522 0
M  V30 22440 H 2179.28 2.02073 0.31415 0
M  V30 22441 H 2177.43 2.8074 2.66953 0
M  V30 22442 H 2177.85 4.88582 1.90757 0
M  V30 22443 H 2179.32 4.267 3.50188 0
M  V30 22444 H 2179.8 2.57177 3.56029 0
M  V30 22445 H 2180.4 3.60962 2.24914 0
M  V30 22446 N 2178.72 -0.545102 1.47873 0
M  V30 22447 C 2179.97 -1.29811 1.54376 0
M  V30 22448 C 2180.28 -1.94404 0.215938 0
M  V30 22449 O 2181.49 -2.71034 0.159071 0
M  V30 22450 C 2179.94 -2.3546 2.72189 0
M  V30 22451 C 2179.55 -1.77003 4.11551 0
M  V30 22452 C 2181.3 -3.11865 2.87993 0
M  V30 22453 C 2179.2 -2.80503 5.20646 0
M  V30 22454 H 2178.13 -0.488142 0.574659 0
M  V30 22455 H 2180.78 -0.577531 1.74175 0
M  V30 22456 H 2179.17 -3.10486 2.45794 0
M  V30 22457 H 2180.34 -1.08268 4.479 0
M  V30 22458 H 2178.65 -1.13141 4.00734 0
M  V30 22459 H 2181.25 -3.89178 3.66666 0
M  V30 22460 H 2181.59 -3.668 1.96884 0
M  V30 22461 H 2182.13 -2.43952 3.14217 0
M  V30 22462 H 2178.87 -2.30408 6.13671 0
M  V30 22463 H 2178.39 -3.47612 4.888 0
M  V30 22464 H 2180.07 -3.43772 5.48115 0
M  V30 22465 N 2180.2 -1.36208 -0.792797 0
M  V30 22466 C 2181.43 -1.33396 -1.58155 0
M  V30 22467 C 2181.84 0.0855356 -1.88606 0
M  V30 22468 O 2181.2 1.04147 -1.49865 0
M  V30 22469 C 2181.25 -2.15213 -2.90458 0
M  V30 22470 O 2180.97 -3.51629 -2.61321 0
M  V30 22471 C 2182.47 -2.20144 -3.84775 0
M  V30 22472 H 2179.69 -0.457713 -0.490652 0
M  V30 22473 H 2182.23 -1.79258 -0.984222 0
M  V30 22474 H 2180.39 -1.72915 -3.46669 0
M  V30 22475 H 2180.8 -3.94282 -3.45893 0
M  V30 22476 H 2182.28 -2.81755 -4.74677 0
M  V30 22477 H 2182.75 -1.20396 -4.22376 0
M  V30 22478 H 2183.36 -2.62663 -3.34497 0
M  V30 22479 N 2181.68 1.01656 -1.20431 0
M  V30 22480 C 2182.61 2.12074 -0.977076 0
M  V30 22481 C 2183.59 1.6984 0.0939563 0
M  V30 22482 O 2184.77 1.94096 -0.0635618 0
M  V30 22483 C 2181.9 3.43257 -0.528392 0
M  V30 22484 C 2180.86 3.99231 -1.54267 0
M  V30 22485 C 2180.18 5.26182 -0.950621 0
M  V30 22486 C 2181.48 4.32619 -2.92639 0
M  V30 22487 H 2183.18 2.31342 -1.90056 0
M  V30 22488 H 2180.72 1.11175 -0.915209 0
M  V30 22489 H 2182.67 4.19888 -0.35665 0
M  V30 22490 H 2181.4 3.23747 0.430716 0
M  V30 22491 H 2180.06 3.24708 -1.70177 0
M  V30 22492 H 2179.71 5.02997 0.0164182 0
M  V30 22493 H 2179.41 5.64597 -1.62802 0
M  V30 22494 H 2180.93 6.05469 -0.789947 0
M  V30 22495 H 2182.34 5.00138 -2.8024 0
M  V30 22496 H 2180.74 4.82148 -3.57286 0
M  V30 22497 H 2181.81 3.41386 -3.4436 0
M  V30 22498 N 2183.15 1.01021 1.20965 0
M  V30 22499 C 2184.56 0.728406 1.71904 0
M  V30 22500 C 2184.92 -0.753559 1.81152 0
M  V30 22501 O 2184.04 -1.5884 1.46966 0
M  V30 22502 C 2184.64 1.31558 3.12215 0
M  V30 22503 C 2183.19 1.08279 3.6049 0
M  V30 22504 C 2182.34 1.42521 2.37872 0
M  V30 22505 H 2185.29 1.18047 1.06069 0
M  V30 22506 H 2185.31 0.702879 3.73952 0
M  V30 22507 H 2184.83 2.39417 3.05452 0
M  V30 22508 H 2182.93 0.0215819 3.72594 0
M  V30 22509 H 2183.04 1.75834 4.45667 0
M  V30 22510 H 2181.4 0.844088 2.40307 0
M  V30 22511 H 2182.19 2.51422 2.33756 0
M  V30 22512 N 2184.63 -1.36623 0.78561 0
M  V30 22513 C 2185.56 -2.28776 0.139379 0
M  V30 22514 C 2186.58 -1.49297 -0.649162 0
M  V30 22515 O 2187.77 -1.71786 -0.484971 0
M  V30 22516 C 2184.87 -3.28685 -0.825808 0
M  V30 22517 C 2184.04 -4.37311 -0.0881363 0
M  V30 22518 C 2183.1 -5.17206 -0.96871 0
M  V30 22519 O 2182.12 -5.67593 -0.427359 0
M  V30 22520 N 2183.33 -5.33275 -2.29342 0
M  V30 22521 H 2186.09 -2.84875 0.930938 0
M  V30 22522 H 2183.65 -1.48748 0.639179 0
M  V30 22523 H 2185.64 -3.7902 -1.41865 0
M  V30 22524 H 2184.21 -2.73254 -1.51826 0
M  V30 22525 H 2183.43 -3.8819 0.685747 0
M  V30 22526 H 2184.72 -5.07055 0.421052 0
M  V30 22527 H 2184.12 -4.93946 -2.75743 0
M  V30 22528 H 2182.68 -5.86868 -2.83599 0
M  V30 22529 N 2186.11 -0.537304 -1.48158 0
M  V30 22530 C 2187.39 0.0588571 -1.95511 0
M  V30 22531 C 2187.77 1.50563 -1.47966 0
M  V30 22532 O 2187.11 2.17207 -0.709454 0
M  V30 22533 C 2187.32 -0.0659743 -3.48938 0
M  V30 22534 C 2188.67 0.089563 -4.24506 0
M  V30 22535 O 2189.7 0.00746266 -3.56199 0
M  V30 22536 O 2188.56 0.262738 -5.45868 0
M  V30 22537 H 2185.65 0.0752315 -0.823571 0
M  V30 22538 H 2188.2 -0.60242 -1.58647 0
M  V30 22539 H 2186.97 -1.0735 -3.76287 0
M  V30 22540 H 2186.59 0.633822 -3.92516 0
M  V30 22541 N 2187.59 1.55221 -0.272782 0
M  V30 22542 C 2188.55 2.21137 0.602593 0
M  V30 22543 C 2189.55 1.1885 1.08311 0
M  V30 22544 O 2190.74 1.4377 0.983663 0
M  V30 22545 C 2187.87 2.87548 1.8311 0
M  V30 22546 H 2189.07 2.99888 0.0271068 0
M  V30 22547 H 2186.62 1.56283 -0.0233836 0
M  V30 22548 H 2187.35 2.12802 2.44716 0
M  V30 22549 H 2187.14 3.62502 1.49449 0
M  V30 22550 H 2188.63 3.37914 2.45365 0
M  V30 22551 N 2189.07 2.77022e-05 1.576 0
M  V30 22552 C 2190.31 -0.685829 1.90851 0
M  V30 22553 C 2190.65 -1.73422 0.873984 0
M  V30 22554 O 2189.92 -1.94204 -0.107282 0
M  V30 22555 C 2190.2 -1.32893 3.34681 0
M  V30 22556 C 2190.06 -0.292085 4.48851 0
M  V30 22557 C 2191.38 -2.25509 3.77933 0
M  V30 22558 H 2188.49 -0.247851 0.694074 0
M  V30 22559 H 2191.14 0.0513272 1.89931 0
M  V30 22560 H 2189.29 -1.95723 3.35596 0
M  V30 22561 H 2190.96 0.336531 4.60071 0
M  V30 22562 H 2189.2 0.385648 4.32082 0
M  V30 22563 H 2189.87 -0.781112 5.46445 0
M  V30 22564 H 2192.35 -1.72696 3.7857 0
M  V30 22565 H 2191.22 -2.67473 4.79322 0
M  V30 22566 H 2191.49 -3.13419 3.11803 0
M  V30 22567 N 2190.54 -1.55222 -0.272728 0
M  V30 22568 C 2191.77 -1.80199 -1.02679 0
M  V30 22569 C 2192.19 -0.573583 -1.79141 0
M  V30 22570 O 2191.55 0.476818 -1.74918 0
M  V30 22571 C 2191.6 -3.02627 -1.96084 0
M  V30 22572 O 2190.7 -2.77732 -3.04858 0
M  V30 22573 H 2190.05 -0.595589 -0.293547 0
M  V30 22574 H 2192.58 -2.02366 -0.301554 0
M  V30 22575 H 2192.59 -3.31367 -2.38033 0
M  V30 22576 H 2191.26 -3.91684 -1.39844 0
M  V30 22577 H 2189.84 -2.60089 -2.67223 0
M  V30 22578 N 2192.02 0.537252 -1.4816 0
M  V30 22579 C 2193.44 0.865105 -1.3412 0
M  V30 22580 C 2193.64 1.98495 -0.346713 0
M  V30 22581 O 2192.69 2.51407 0.234671 0
M  V30 22582 C 2194.01 1.23949 -2.73965 0
M  V30 22583 C 2195.56 1.34979 -2.824 0
M  V30 22584 C 2196.03 1.75764 -4.22931 0
M  V30 22585 N 2197.52 1.8288 -4.25569 0
M  V30 22586 C 2198.26 2.15808 -5.31239 0
M  V30 22587 N 2197.75 2.4721 -6.47193 0
M  V30 22588 N 2199.55 2.16752 -5.18628 0
M  V30 22589 H 2191.7 -0.201752 -2.1144 0
M  V30 22590 H 2193.96 -0.0276116 -0.947598 0
M  V30 22591 H 2193.67 0.49032 -3.48265 0
M  V30 22592 H 2193.54 2.19126 -3.07023 0
M  V30 22593 H 2195.93 2.08974 -2.0836 0
M  V30 22594 H 2196.01 0.379404 -2.52971 0
M  V30 22595 H 2195.65 1.02332 -4.97484 0
M  V30 22596 H 2195.58 2.7384 -4.49799 0
M  V30 22597 H 2198.07 1.60918 -3.41927 0
M  V30 22598 H 2198.39 2.7142 -7.23568 0
M  V30 22599 H 2196.73 2.44746 -6.5048 0
M  V30 22600 H 2199.92 1.91672 -4.27059 0
M  V30 22601 H 2200.09 2.42082 -6.01082 0
M  V30 22602 N 2193.5 1.36626 0.785562 0
M  V30 22603 C 2194.73 1.34233 1.57446 0
M  V30 22604 C 2195.14 -0.0755322 1.88649 0
M  V30 22605 O 2194.5 -1.03351 1.50416 0
M  V30 22606 C 2194.55 2.1675 2.89312 0
M  V30 22607 O 2194.27 3.5301 2.59452 0
M  V30 22608 C 2195.77 2.22181 3.83602 0
M  V30 22609 H 2192.99 0.460309 0.488218 0
M  V30 22610 H 2195.54 1.79777 0.974701 0
M  V30 22611 H 2193.69 1.74751 3.45747 0
M  V30 22612 H 2194.11 3.96111 3.43797 0
M  V30 22613 H 2195.58 2.84268 4.73176 0
M  V30 22614 H 2196.06 1.22634 4.21732 0
M  V30 22615 H 2196.66 2.64433 3.331 0
M  V30 22616 N 2194.98 -1.01016 1.20969 0
M  V30 22617 C 2195.91 -2.09833 0.922096 0
M  V30 22618 C 2196.92 -1.62536 -0.092682 0
M  V30 22619 O 2198.11 -1.77957 0.139159 0
M  V30 22620 C 2195.21 -3.3696 0.362064 0
M  V30 22621 C 2194.39 -4.13366 1.42993 0
M  V30 22622 C 2193.44 -5.18788 0.880067 0
M  V30 22623 O 2192.47 -5.4734 1.56229 0
M  V30 22624 N 2193.67 -5.79686 -0.307294 0
M  V30 22625 H 2196.44 -2.3509 1.85884 0
M  V30 22626 H 2194 -1.17458 1.11424 0
M  V30 22627 H 2195.99 -4.04695 -0.0200762 0
M  V30 22628 H 2194.56 -3.08902 -0.479382 0
M  V30 22629 H 2193.78 -3.40509 1.98614 0
M  V30 22630 H 2195.07 -4.61192 2.14893 0
M  V30 22631 H 2194.47 -5.58834 -0.878698 0
M  V30 22632 H 2193.02 -6.48738 -0.631001 0
M  V30 22633 N 2196.46 -1.01661 -1.20428 0
M  V30 22634 C 2197.87 -0.731467 -1.41851 0
M  V30 22635 C 2198.07 0.688865 -1.89359 0
M  V30 22636 O 2197.13 1.45662 -2.06249 0
M  V30 22637 C 2198.44 -1.75718 -2.44016 0
M  V30 22638 C 2199.99 -1.77532 -2.57782 0
M  V30 22639 C 2200.46 -2.7903 -3.63189 0
M  V30 22640 N 2201.96 -2.7777 -3.70673 0
M  V30 22641 C 2202.69 -3.52962 -4.51891 0
M  V30 22642 N 2202.19 -4.3783 -5.36914 0
M  V30 22643 N 2203.98 -3.41559 -4.46424 0
M  V30 22644 H 2196.13 -1.93355 -0.879059 0
M  V30 22645 H 2198.39 -0.835244 -0.448411 0
M  V30 22646 H 2198.1 -2.77473 -2.16105 0
M  V30 22647 H 2197.97 -1.56933 -3.43004 0
M  V30 22648 H 2200.36 -0.764619 -2.85022 0
M  V30 22649 H 2200.44 -2.0039 -1.58989 0
M  V30 22650 H 2200.09 -3.80264 -3.36693 0
M  V30 22651 H 2200.02 -2.53433 -4.61605 0
M  V30 22652 H 2202.51 -2.16206 -3.09941 0
M  V30 22653 H 2202.82 -4.91973 -5.95972 0
M  V30 22654 H 2201.16 -4.41908 -5.36416 0
M  V30 22655 H 2204.36 -2.74679 -3.79037 0
M  V30 22656 H 2204.53 -4.00413 -5.09484 0
M  V30 22657 N 2197.93 1.36205 -0.792844 0
M  V30 22658 C 2199.35 1.5237 -0.47493 0
M  V30 22659 C 2199.55 1.7458 1.00619 0
M  V30 22660 O 2198.61 1.77927 1.79159 0
M  V30 22661 C 2199.92 2.70745 -1.30835 0
M  V30 22662 C 2201.47 2.84617 -1.30239 0
M  V30 22663 C 2201.94 4.06 -2.11963 0
M  V30 22664 N 2203.43 4.13152 -2.09427 0
M  V30 22665 C 2204.17 5.06158 -2.69428 0
M  V30 22666 N 2203.66 6.04586 -3.38301 0
M  V30 22667 N 2205.46 4.988 -2.59143 0
M  V30 22668 H 2197.61 1.20043 -1.75224 0
M  V30 22669 H 2199.87 0.586198 -0.745034 0
M  V30 22670 H 2199.58 2.60866 -2.35885 0
M  V30 22671 H 2199.45 3.64988 -0.952024 0
M  V30 22672 H 2201.84 2.93954 -0.259799 0
M  V30 22673 H 2201.92 1.91271 -1.6985 0
M  V30 22674 H 2201.56 3.97423 -3.16255 0
M  V30 22675 H 2201.49 4.985 -1.6972 0
M  V30 22676 H 2203.98 3.42682 -1.59303 0
M  V30 22677 H 2204.3 6.72123 -3.81405 0
M  V30 22678 H 2202.64 6.04801 -3.42404 0
M  V30 22679 H 2205.83 4.20855 -2.04935 0
M  V30 22680 H 2206.01 5.71094 -3.06195 0
M  V30 22681 N 2199.41 0.545154 1.47871 0
M  V30 22682 C 2200.66 0.0165886 2.02093 0
M  V30 22683 C 2200.98 -1.33317 1.42308 0
M  V30 22684 O 2200.25 -1.86681 0.593886 0
M  V30 22685 H 2198.83 0.00314351 0.746993 0
M  V30 22686 H 2201.49 0.712429 1.81412 0
M  V30 22687 H 2200.59 -0.0804873 3.11996 0
M  V30 22688 N 2200.89 -1.55074 0.28101 0
M  V30 22689 C 2202.31 -1.59433 -0.0729684 0
M  V30 22690 C 2202.51 -1.29819 -1.54108 0
M  V30 22691 O 2201.56 -1.06191 -2.29085 0
M  V30 22692 C 2202.88 -2.99129 0.306974 0
M  V30 22693 C 2204.42 -3.11967 0.254078 0
M  V30 22694 C 2204.9 -4.53939 0.608547 0
M  V30 22695 N 2206.39 -4.59798 0.560322 0
M  V30 22696 C 2207.12 -5.67688 0.807319 0
M  V30 22697 N 2206.62 -6.83699 1.11924 0
M  V30 22698 N 2208.41 -5.57264 0.735721 0
M  V30 22699 H 2200.56 -1.72588 1.23803 0
M  V30 22700 H 2202.83 -0.805073 0.500561 0
M  V30 22701 H 2202.53 -3.25655 1.32822 0
M  V30 22702 H 2202.41 -3.75579 -0.349297 0
M  V30 22703 H 2204.79 -2.85202 -0.75789 0
M  V30 22704 H 2204.88 -2.37717 0.94469 0
M  V30 22705 H 2204.52 -4.81431 1.61823 0
M  V30 22706 H 2204.45 -5.26497 -0.10392 0
M  V30 22707 H 2206.94 -3.76462 0.329354 0
M  V30 22708 H 2207.25 -7.61886 1.29422 0
M  V30 22709 H 2205.6 -6.853 1.15708 0
M  V30 22710 H 2208.79 -4.65509 0.491834 0
M  V30 22711 H 2208.96 -6.41269 0.931595 0
M  V30 22712 N 2202.37 -0.00838561 -1.57598 0
M  V30 22713 C 2203.6 0.685456 -1.95216 0
M  V30 22714 C 2204.01 1.6684 -0.883736 0
M  V30 22715 O 2203.37 1.81989 0.136533 0
M  V30 22716 C 2203.42 1.41001 -3.32868 0
M  V30 22717 O 2203.14 0.466475 -4.35609 0
M  V30 22718 C 2204.64 2.19759 -3.84995 0
M  V30 22719 H 2201.86 0.190381 -0.643425 0
M  V30 22720 H 2204.41 -0.0619966 -2.04406 0
M  V30 22721 H 2202.56 2.10902 -3.2496 0
M  V30 22722 H 2202.98 0.978608 -5.1529 0
M  V30 22723 H 2204.45 2.6594 -4.83715 0
M  V30 22724 H 2204.93 3.0279 -3.18142 0
M  V30 22725 H 2205.53 1.54857 -3.96105 0
M  V30 22726 N 2203.85 1.55365 0.264492 0
M  V30 22727 C 2205.1 1.76023 0.99299 0
M  V30 22728 C 2205.42 0.569132 1.8651 0
M  V30 22729 O 2204.69 -0.415701 1.91439 0
M  V30 22730 H 2203.27 0.649141 0.369627 0
M  V30 22731 H 2205.93 1.9278 0.286673 0
M  V30 22732 H 2205.02 2.6646 1.62498 0
M  V30 22733 N 2205.33 -0.529387 1.48443 0
M  V30 22734 C 2206.74 -0.85798 1.34577 0
M  V30 22735 C 2206.94 -1.98308 0.357235 0
M  V30 22736 O 2206 -2.51528 -0.221335 0
M  V30 22737 C 2207.31 -1.22495 2.74619 0
M  V30 22738 C 2208.86 -1.33479 2.83112 0
M  V30 22739 C 2209.33 -1.73519 4.23858 0
M  V30 22740 N 2210.82 -1.8062 4.26533 0
M  V30 22741 C 2211.56 -2.12987 5.32376 0
M  V30 22742 N 2211.06 -2.43774 6.48495 0
M  V30 22743 N 2212.85 -2.13998 5.1977 0
M  V30 22744 H 2205 0.212962 2.1133 0
M  V30 22745 H 2207.26 0.0326365 0.947438 0
M  V30 22746 H 2206.97 -0.471843 3.4852 0
M  V30 22747 H 2206.84 -2.17495 3.08181 0
M  V30 22748 H 2209.23 -2.07866 2.09465 0
M  V30 22749 H 2209.31 -0.365983 2.53168 0
M  V30 22750 H 2208.95 -0.996925 4.9802 0
M  V30 22751 H 2208.88 -2.71451 4.51245 0
M  V30 22752 H 2211.38 -1.59102 3.42775 0
M  V30 22753 H 2211.69 -2.67579 7.24998 0
M  V30 22754 H 2210.03 -2.41293 6.51769 0
M  V30 22755 H 2213.22 -1.89404 4.2807 0
M  V30 22756 H 2213.4 -2.38891 6.02358 0
M  V30 22757 N 2206.8 -1.37041 -0.778305 0
M  V30 22758 C 2208.05 -1.31626 -1.53359 0
M  V30 22759 C 2208.37 0.100797 -1.94739 0
M  V30 22760 O 2207.64 1.04344 -1.65799 0
M  V30 22761 H 2206.22 -0.484244 -0.568785 0
M  V30 22762 H 2208.88 -1.71459 -0.926712 0
M  V30 22763 H 2207.98 -1.951 -2.43603 0
M  V30 22764 N 2208.28 1.00373 -1.21503 0
M  V30 22765 C 2209.23 2.09175 -0.975424 0
M  V30 22766 C 2210.2 1.65805 0.0990324 0
M  V30 22767 O 2211.38 1.90739 -0.0483483 0
M  V30 22768 C 2208.52 3.40728 -0.547567 0
M  V30 22769 C 2207.64 3.97503 -1.6916 0
M  V30 22770 C 2206.77 5.1717 -1.21279 0
M  V30 22771 C 2205.81 5.66057 -2.32907 0
M  V30 22772 N 2204.95 6.76973 -1.8615 0
M  V30 22773 H 2209.79 2.29005 -1.90684 0
M  V30 22774 H 2207.32 1.12286 -0.950277 0
M  V30 22775 H 2209.28 4.16254 -0.280741 0
M  V30 22776 H 2207.91 3.20931 0.346848 0
M  V30 22777 H 2206.96 3.18951 -2.07303 0
M  V30 22778 H 2208.28 4.29776 -2.53167 0
M  V30 22779 H 2207.43 5.99947 -0.902697 0
M  V30 22780 H 2206.17 4.86494 -0.342777 0
M  V30 22781 H 2205.17 4.81876 -2.64718 0
M  V30 22782 H 2206.4 5.98763 -3.20406 0
M  V30 22783 H 2204.35 6.48101 -1.01495 0
M  V30 22784 H 2204.26 7.08507 -2.6373 0
M  V30 22785 H 2205.53 7.63282 -1.58179 0
M  V30 22786 N 2209.76 1.02298 1.19887 0
M  V30 22787 C 2211.17 0.746598 1.71122 0
M  V30 22788 C 2211.52 -0.734303 1.81941 0
M  V30 22789 O 2210.65 -1.57272 1.48642 0
M  V30 22790 C 2211.24 1.34862 3.10802 0
M  V30 22791 C 2209.8 1.12096 3.59321 0
M  V30 22792 C 2208.95 1.45035 2.36347 0
M  V30 22793 H 2211.9 1.19165 1.04811 0
M  V30 22794 H 2211.92 0.742503 3.73185 0
M  V30 22795 H 2211.43 2.42643 3.02896 0
M  V30 22796 H 2209.53 0.0610992 3.7255 0
M  V30 22797 H 2209.65 1.80551 4.43777 0
M  V30 22798 H 2208.01 0.869529 2.39398 0
M  V30 22799 H 2208.79 2.53887 2.31076 0
M  V30 22800 N 2211.24 -1.35782 0.800057 0
M  V30 22801 C 2212.49 -1.9856 0.376632 0
M  V30 22802 C 2212.81 -1.63797 -1.0581 0
M  V30 22803 O 2212.08 -0.917202 -1.73102 0
M  V30 22804 H 2210.66 -0.734465 0.136274 0
M  V30 22805 H 2213.32 -1.65804 1.02445 0
M  V30 22806 H 2212.41 -3.08432 0.477056 0
M  V30 22807 N 2212.72 -0.552988 -1.4758 0
M  V30 22808 C 2213.96 -0.025235 -2.01684 0
M  V30 22809 C 2214.28 1.33112 -1.4332 0
M  V30 22810 O 2215.48 1.94855 -1.89061 0
M  V30 22811 C 2213.94 0.00535725 -3.599 0
M  V30 22812 C 2213.55 -1.3475 -4.27255 0
M  V30 22813 C 2215.29 0.480725 -4.21769 0
M  V30 22814 C 2213.2 -1.27624 -5.77465 0
M  V30 22815 H 2212.13 -0.00566359 -0.753979 0
M  V30 22816 H 2214.78 -0.70021 -1.69615 0
M  V30 22817 H 2213.16 0.745892 -3.88912 0
M  V30 22818 H 2214.34 -2.10541 -4.09889 0
M  V30 22819 H 2212.65 -1.76046 -3.77355 0
M  V30 22820 H 2215.25 0.552366 -5.31839 0
M  V30 22821 H 2215.59 1.49177 -3.88654 0
M  V30 22822 H 2216.12 -0.204822 -3.97272 0
M  V30 22823 H 2212.86 -2.26315 -6.15192 0
M  V30 22824 H 2212.38 -0.560065 -5.97179 0
M  V30 22825 H 2214.06 -0.976533 -6.39588 0
M  V30 22826 N 2214.19 1.54923 -0.28923 0
M  V30 22827 C 2215.42 2.04013 0.325953 0
M  V30 22828 C 2215.83 1.16653 1.48959 0
M  V30 22829 O 2215.17 0.182232 1.82794 0
M  V30 22830 C 2215.24 3.49159 0.85605 0
M  V30 22831 C 2214.9 4.56642 -0.180778 0
M  V30 22832 C 2215.9 5.1009 -1.00519 0
M  V30 22833 C 2213.58 5.01285 -0.319086 0
M  V30 22834 C 2215.58 6.06712 -1.95396 0
M  V30 22835 C 2213.26 5.9773 -1.27132 0
M  V30 22836 C 2214.26 6.50325 -2.08724 0
M  V30 22837 O 2213.95 7.44882 -3.02335 0
M  V30 22838 H 2213.68 0.671656 0.0765158 0
M  V30 22839 H 2216.24 2.00991 -0.423289 0
M  V30 22840 H 2214.47 3.49466 1.65561 0
M  V30 22841 H 2216.15 3.81509 1.38584 0
M  V30 22842 H 2216.92 4.76403 -0.909143 0
M  V30 22843 H 2212.8 4.59983 0.306027 0
M  V30 22844 H 2216.34 6.47689 -2.59122 0
M  V30 22845 H 2212.24 6.30835 -1.36812 0
M  V30 22846 H 2213.01 7.62645 -2.97178 0
M  V30 22847 N 2215.67 0.0167433 1.57591 0
M  V30 22848 C 2217.09 -0.339529 1.55947 0
M  V30 22849 C 2217.29 -1.73711 1.02112 0
M  V30 22850 O 2216.34 -2.43658 0.662345 0
M  V30 22851 C 2217.66 -0.199446 3.00038 0
M  V30 22852 C 2219.2 -0.273139 3.11806 0
M  V30 22853 C 2219.68 -0.161988 4.57713 0
M  V30 22854 N 2221.17 -0.219363 4.6268 0
M  V30 22855 C 2221.91 -0.156954 5.73185 0
M  V30 22856 N 2221.4 -0.0441718 6.92786 0
M  V30 22857 N 2223.19 -0.210041 5.61707 0
M  V30 22858 H 2215.35 0.930792 1.90919 0
M  V30 22859 H 2217.61 0.358334 0.877668 0
M  V30 22860 H 2217.31 0.76279 3.43328 0
M  V30 22861 H 2217.19 -0.974722 3.64389 0
M  V30 22862 H 2219.58 -1.22583 2.68435 0
M  V30 22863 H 2219.66 0.5323 2.502 0
M  V30 22864 H 2219.3 0.787228 5.01762 0
M  V30 22865 H 2219.23 -0.986131 5.17284 0
M  V30 22866 H 2221.72 -0.30718 3.76649 0
M  V30 22867 H 2222.03 -0.00290485 7.728 0
M  V30 22868 H 2220.38 -0.00956241 6.94999 0
M  V30 22869 H 2223.57 -0.296464 4.6716 0
M  V30 22870 H 2223.74 -0.15794 6.47807 0
M  V30 22871 N 2217.15 -1.55503 -0.256249 0
M  V30 22872 C 2218.4 -1.76897 -0.985588 0
M  V30 22873 C 2218.73 -0.579387 -1.8567 0
M  V30 22874 O 2217.98 0.437617 -1.90744 0
M  V30 22875 C 2218.28 -3.03694 -1.88427 0
M  V30 22876 C 2217.95 -4.35475 -1.16928 0
M  V30 22877 C 2216.61 -4.71288 -0.971647 0
M  V30 22878 C 2218.96 -5.16981 -0.661798 0
M  V30 22879 C 2216.29 -5.8615 -0.254076 0
M  V30 22880 C 2218.64 -6.32586 0.0422602 0
M  V30 22881 C 2217.3 -6.67026 0.251457 0
M  V30 22882 H 2216.57 -0.647311 -0.360652 0
M  V30 22883 H 2219.22 -1.89775 -0.256449 0
M  V30 22884 H 2217.53 -2.85788 -2.68016 0
M  V30 22885 H 2219.22 -3.17445 -2.4501 0
M  V30 22886 H 2215.81 -4.07336 -1.33325 0
M  V30 22887 H 2220 -4.89776 -0.802059 0
M  V30 22888 H 2215.25 -6.11346 -0.0814334 0
M  V30 22889 H 2219.43 -6.94988 0.443171 0
M  V30 22890 H 2217.05 -7.55878 0.809447 0
M  V30 22891 N 2218.63 0.521507 -1.48721 0
M  V30 22892 C 2219.87 1.27876 -1.57403 0
M  V30 22893 C 2220.21 1.92573 -0.25085 0
M  V30 22894 O 2219.48 1.79712 0.743902 0
M  V30 22895 C 2219.77 2.36159 -2.71847 0
M  V30 22896 C 2219.62 1.76098 -4.13896 0
M  V30 22897 C 2220.94 3.3787 -2.82014 0
M  V30 22898 H 2218.06 0.463571 -0.572949 0
M  V30 22899 H 2220.7 0.580088 -1.80928 0
M  V30 22900 H 2218.85 2.95752 -2.51919 0
M  V30 22901 H 2220.52 1.20491 -4.45286 0
M  V30 22902 H 2218.76 1.06594 -4.205 0
M  V30 22903 H 2219.43 2.54541 -4.89809 0
M  V30 22904 H 2221.91 2.88244 -3.00091 0
M  V30 22905 H 2220.79 4.11021 -3.63803 0
M  V30 22906 H 2221.05 3.98943 -1.90518 0
M  V30 22907 N 2220.11 1.37452 0.771027 0
M  V30 22908 C 2221.07 1.33097 1.86596 0
M  V30 22909 C 2222.07 0.234873 1.59075 0
M  V30 22910 O 2223.26 0.490762 1.67144 0
M  V30 22911 C 2220.39 1.06779 3.23745 0
M  V30 22912 H 2221.58 2.30492 1.91869 0
M  V30 22913 H 2219.14 1.22491 0.970855 0
M  V30 22914 H 2219.87 0.099186 3.24148 0
M  V30 22915 H 2219.66 1.86118 3.45112 0
M  V30 22916 H 2221.15 1.06384 4.03822 0
M  V30 22917 N 2221.58 -0.997276 1.22033 0
M  V30 22918 C 2223 -1.5507 1.03973 0
M  V30 22919 C 2223.35 -1.92118 -0.398158 0
M  V30 22920 O 2222.47 -1.743 -1.28251 0
M  V30 22921 C 2223.07 -2.81778 1.88114 0
M  V30 22922 C 2221.63 -3.33578 1.74363 0
M  V30 22923 C 2220.77 -2.06702 1.8485 0
M  V30 22924 H 2223.72 -0.818859 1.35943 0
M  V30 22925 H 2223.74 -3.53968 1.39595 0
M  V30 22926 H 2223.26 -2.54782 2.92759 0
M  V30 22927 H 2221.36 -3.65492 0.724334 0
M  V30 22928 H 2221.47 -4.04477 2.56779 0
M  V30 22929 H 2219.83 -2.20059 1.28242 0
M  V30 22930 H 2220.62 -1.82109 2.91017 0
M  V30 22931 N 2223.06 -1.02932 -1.19343 0
M  V30 22932 C 2224.31 -0.724607 -1.88663 0
M  V30 22933 C 2224.63 0.749112 -1.80037 0
M  V30 22934 O 2223.9 1.53976 -1.21113 0
M  V30 22935 H 2222.48 -0.265037 -0.698401 0
M  V30 22936 H 2225.14 -1.30365 -1.44883 0
M  V30 22937 H 2224.24 -1.01931 -2.94985 0
M  V30 22938 N 2224.54 1.35356 -0.807246 0
M  V30 22939 C 2225.45 2.3357 -0.219635 0
M  V30 22940 C 2226.47 1.61893 0.637705 0
M  V30 22941 O 2227.64 1.93764 0.549302 0
M  V30 22942 C 2224.71 3.41084 0.62152 0
M  V30 22943 C 2223.77 4.28534 -0.25639 0
M  V30 22944 C 2223 5.30913 0.544713 0
M  V30 22945 O 2223.22 5.41937 1.77935 0
M  V30 22946 O 2222.16 6.01865 -0.0647536 0
M  V30 22947 H 2225.98 2.85624 -1.03213 0
M  V30 22948 H 2223.57 1.38138 -0.569049 0
M  V30 22949 H 2225.45 4.06774 1.1006 0
M  V30 22950 H 2224.13 2.913 1.4116 0
M  V30 22951 H 2223.03 3.65822 -0.782623 0
M  V30 22952 H 2224.37 4.81717 -1.01043 0
M  V30 22953 N 2226.02 0.560807 1.47284 0
M  V30 22954 C 2227.43 0.220837 1.58065 0
M  V30 22955 C 2227.63 -1.27668 1.55894 0
M  V30 22956 O 2226.69 -2.05708 1.46426 0
M  V30 22957 C 2228 0.850676 2.88416 0
M  V30 22958 C 2229.55 0.822237 3.02007 0
M  V30 22959 C 2230.03 1.43121 4.35064 0
M  V30 22960 N 2231.52 1.39456 4.41708 0
M  V30 22961 C 2232.25 1.83534 5.43234 0
M  V30 22962 N 2231.75 2.35485 6.51551 0
M  V30 22963 N 2233.54 1.74583 5.34301 0
M  V30 22964 H 2225.69 1.53371 1.46939 0
M  V30 22965 H 2227.96 0.639795 0.699547 0
M  V30 22966 H 2227.66 1.90326 2.95752 0
M  V30 22967 H 2227.54 0.345839 3.75611 0
M  V30 22968 H 2229.92 -0.221663 2.94266 0
M  V30 22969 H 2230 1.36487 2.16345 0
M  V30 22970 H 2229.65 2.4742 4.43561 0
M  V30 22971 H 2229.58 0.86399 5.19464 0
M  V30 22972 H 2232.07 1.01459 3.64026 0
M  V30 22973 H 2232.38 2.67034 7.25198 0
M  V30 22974 H 2230.73 2.39498 6.5243 0
M  V30 22975 H 2233.92 1.33771 4.48579 0
M  V30 22976 H 2234.09 2.09253 6.13284 0
M  V30 22977 N 2227.5 -1.54768 0.297442 0
M  V30 22978 C 2228.91 -1.85669 -0.195914 0
M  V30 22979 C 2229.26 -1.2194 -1.53704 0
M  V30 22980 O 2228.38 -0.515791 -2.10163 0
M  V30 22981 C 2228.98 -3.36858 -0.362259 0
M  V30 22982 C 2227.54 -3.67804 -0.799836 0
M  V30 22983 C 2226.68 -2.77141 0.0939065 0
M  V30 22984 H 2229.64 -1.49989 0.518565 0
M  V30 22985 H 2229.66 -3.61169 -1.19739 0
M  V30 22986 H 2229.17 -3.83212 0.613988 0
M  V30 22987 H 2227.27 -3.26964 -1.78676 0
M  V30 22988 H 2227.38 -4.75049 -0.62169 0
M  V30 22989 H 2225.75 -2.51109 -0.42621 0
M  V30 22990 H 2226.53 -3.26316 1.06644 0
M  V30 22991 N 2228.97 -0.0251005 -1.5758 0
M  V30 22992 C 2230.2 0.668282 -1.96338 0
M  V30 22993 C 2230.62 1.65098 -0.901343 0
M  V30 22994 O 2229.98 1.80773 0.138155 0
M  V30 22995 C 2230.03 1.35451 -3.34194 0
M  V30 22996 O 2229.13 2.46968 -3.30273 0
M  V30 22997 H 2228.48 0.175876 -0.640284 0
M  V30 22998 H 2231.01 -0.0857583 -2.0442 0
M  V30 22999 H 2231.02 1.71222 -3.70334 0
M  V30 23000 H 2229.69 0.634146 -4.11037 0
M  V30 23001 H 2228.27 2.13339 -3.05845 0
M  V30 23002 N 2230.45 1.55637 0.247999 0
M  V30 23003 C 2231.7 1.77066 0.974264 0
M  V30 23004 C 2232.02 0.588882 1.85896 0
M  V30 23005 O 2231.29 -0.395373 1.91869 0
M  V30 23006 H 2229.87 0.653025 0.362722 0
M  V30 23007 H 2232.53 1.93073 0.26621 0
M  V30 23008 H 2231.63 2.68168 1.59662 0
M  V30 23009 N 2231.93 -0.513613 1.48996 0
M  V30 23010 C 2232.86 -1.63376 1.59322 0
M  V30 23011 C 2233.84 -1.56453 0.442844 0
M  V30 23012 O 2235.03 -1.76692 0.656686 0
M  V30 23013 C 2232.15 -3.01846 1.53645 0
M  V30 23014 C 2231.2 -3.27073 2.73725 0
M  V30 23015 S 2232.03 -3.11563 4.35533 0
M  V30 23016 C 2233.19 -4.5245 4.32481 0
M  V30 23017 H 2233.42 -1.5437 2.54081 0
M  V30 23018 H 2230.95 -0.697824 1.37731 0
M  V30 23019 H 2232.91 -3.81697 1.51056 0
M  V30 23020 H 2231.57 -3.08278 0.601952 0
M  V30 23021 H 2230.77 -4.28128 2.65938 0
M  V30 23022 H 2230.37 -2.54922 2.73662 0
M  V30 23023 H 2232.66 -5.44294 4.03423 0
M  V30 23024 H 2233.6 -4.6529 5.33771 0
M  V30 23025 H 2234.01 -4.32539 3.62726 0
M  V30 23026 N 2233.41 -1.37859 -0.763727 0
M  V30 23027 C 2234.66 -1.33509 -1.52255 0
M  V30 23028 C 2234.98 0.0779878 -1.94344 0
M  V30 23029 O 2234.24 1.05294 -1.6496 0
M  V30 23030 C 2234.54 -2.2275 -2.79495 0
M  V30 23031 C 2234.2 -3.70891 -2.56419 0
M  V30 23032 C 2232.87 -4.11262 -2.49835 0
M  V30 23033 C 2235.22 -4.64708 -2.36 0
M  V30 23034 C 2232.55 -5.43553 -2.20832 0
M  V30 23035 C 2234.9 -5.97246 -2.08519 0
M  V30 23036 C 2233.56 -6.36712 -2.00384 0
M  V30 23037 H 2232.83 -0.488544 -0.55714 0
M  V30 23038 H 2235.48 -1.70133 -0.879043 0
M  V30 23039 H 2233.78 -1.79148 -3.48444 0
M  V30 23040 H 2235.48 -2.16694 -3.37409 0
M  V30 23041 H 2232.07 -3.38879 -2.62411 0
M  V30 23042 H 2236.26 -4.34372 -2.40072 0
M  V30 23043 H 2231.51 -5.73085 -2.13035 0
M  V30 23044 H 2235.69 -6.6949 -1.9172 0
M  V30 23045 H 2233.31 -7.39145 -1.77675 0
M  V30 23046 N 2234.89 0.990791 -1.22561 0
M  V30 23047 C 2236.16 1.70426 -0.959905 0
M  V30 23048 C 2236.54 2.04482 0.524419 0
M  V30 23049 O 2235.89 1.7298 1.49299 0
M  V30 23050 C 2236.1 2.9533 -1.8596 0
M  V30 23051 C 2237.45 3.68064 -2.11693 0
M  V30 23052 O 2238.47 3.05342 -1.83425 0
M  V30 23053 O 2237.33 4.80916 -2.5958 0
M  V30 23054 H 2234.43 0.743967 -0.361167 0
M  V30 23055 H 2236.97 1.04695 -1.33556 0
M  V30 23056 H 2235.75 2.66682 -2.86351 0
M  V30 23057 H 2235.37 3.68801 -1.48566 0
M  V30 23058 N 2236.37 1.03564 1.18795 0
M  V30 23059 C 2237.59 0.755798 1.93138 0
M  V30 23060 C 2238.02 -0.680189 1.75371 0
M  V30 23061 O 2237.37 -1.47049 1.06049 0
M  V30 23062 C 2237.42 1.12064 3.42745 0
M  V30 23063 O 2236.53 0.243197 4.11682 0
M  V30 23064 H 2235.87 0.278615 0.602719 0
M  V30 23065 H 2238.4 1.38413 1.50675 0
M  V30 23066 H 2238.41 1.08042 3.93435 0
M  V30 23067 H 2237.08 2.16678 3.54998 0
M  V30 23068 H 2235.66 0.342604 3.71323 0
M  V30 23069 N 2237.84 -1.34926 0.814413 0
M  V30 23070 C 2239.07 -2.03304 0.410133 0
M  V30 23071 C 2239.49 -1.60953 -0.973436 0
M  V30 23072 O 2238.85 -0.789993 -1.63183 0
M  V30 23073 C 2238.9 -3.56967 0.510553 0
M  V30 23074 O 2238 -4.09679 -0.472963 0
M  V30 23075 H 2237.34 -0.641843 0.170099 0
M  V30 23076 H 2239.87 -1.72356 1.10247 0
M  V30 23077 H 2239.88 -4.06196 0.383206 0
M  V30 23078 H 2238.56 -3.87141 1.5197 0
M  V30 23079 H 2237.14 -3.71649 -0.305206 0
M  V30 23080 N 2239.32 -0.56861 -1.46985 0
M  V30 23081 C 2240.57 -0.0489066 -2.02741 0
M  V30 23082 C 2240.9 1.30211 -1.44079 0
M  V30 23083 O 2240.18 1.84995 -0.600585 0
M  V30 23084 C 2240.46 0.0319837 -3.60086 0
M  V30 23085 C 2240.31 -1.34693 -4.29159 0
M  V30 23086 C 2241.63 0.739722 -4.33839 0
M  V30 23087 H 2238.75 -0.0192468 -0.736749 0
M  V30 23088 H 2241.39 -0.733096 -1.75287 0
M  V30 23089 H 2239.54 0.614663 -3.83607 0
M  V30 23090 H 2241.21 -1.97369 -4.16945 0
M  V30 23091 H 2239.46 -1.91853 -3.89069 0
M  V30 23092 H 2240.13 -1.24294 -5.37824 0
M  V30 23093 H 2242.6 0.244866 -4.15379 0
M  V30 23094 H 2241.48 0.765311 -5.43539 0
M  V30 23095 H 2241.74 1.79819 -4.03878 0
M  V30 23096 N 2240.8 1.54608 -0.305646 0
M  V30 23097 C 2241.73 2.2665 0.561442 0
M  V30 23098 C 2242.71 1.26774 1.13412 0
M  V30 23099 O 2243.9 1.55555 1.1626 0
M  V30 23100 C 2241.03 3.01078 1.73116 0
M  V30 23101 C 2239.98 4.0814 1.28863 0
M  V30 23102 C 2239.31 4.70309 2.54388 0
M  V30 23103 C 2240.61 5.20637 0.416487 0
M  V30 23104 H 2242.3 2.99374 -0.0394428 0
M  V30 23105 H 2239.85 1.43986 -0.0204103 0
M  V30 23106 H 2241.8 3.50199 2.34389 0
M  V30 23107 H 2240.52 2.2594 2.35836 0
M  V30 23108 H 2239.18 3.59876 0.698928 0
M  V30 23109 H 2238.83 3.91806 3.15432 0
M  V30 23110 H 2238.53 5.42618 2.25476 0
M  V30 23111 H 2240.05 5.22196 3.16455 0
M  V30 23112 H 2241.47 5.65624 0.935017 0
M  V30 23113 H 2239.86 5.99693 0.220941 0
M  V30 23114 H 2240.93 4.81687 -0.557246 0
M  V30 23115 N 2242.28 0.033457 1.57564 0
M  V30 23116 C 2243.52 -0.648345 1.93845 0
M  V30 23117 C 2243.88 -1.69043 0.910416 0
M  V30 23118 O 2245.08 -2.42503 1.15956 0
M  V30 23119 C 2243.35 -1.24487 3.35019 0
M  V30 23120 S 2244.91 -1.94714 3.93233 0
M  V30 23121 H 2241.73 -0.213352 0.678234 0
M  V30 23122 H 2244.33 0.0981596 1.95253 0
M  V30 23123 H 2243.04 -0.474057 4.07653 0
M  V30 23124 H 2242.57 -2.02858 3.37064 0
M  V30 23125 H 2244.58 -3.226 3.7702 0
M  V30 23126 N 2243.76 -1.55766 -0.239741 0
M  V30 23127 C 2244.67 -1.94058 -1.31828 0
M  V30 23128 C 2245.68 -0.841952 -1.52273 0
M  V30 23129 O 2246.86 -1.14397 -1.65757 0
M  V30 23130 C 2243.92 -2.23372 -2.65152 0
M  V30 23131 C 2242.98 -3.46706 -2.53167 0
M  V30 23132 C 2242.22 -3.74612 -3.80133 0
M  V30 23133 O 2242.44 -3.04477 -4.82338 0
M  V30 23134 O 2241.37 -4.6813 -3.78336 0
M  V30 23135 H 2245.2 -2.85937 -1.02342 0
M  V30 23136 H 2242.78 -1.4274 -0.441098 0
M  V30 23137 H 2244.67 -2.43503 -3.43925 0
M  V30 23138 H 2243.34 -1.34671 -2.94356 0
M  V30 23139 H 2242.25 -3.31874 -1.72656 0
M  V30 23140 H 2243.58 -4.35732 -2.28907 0
M  V30 23141 N 2245.23 0.505704 -1.49266 0
M  V30 23142 C 2246.47 1.27035 -1.6013 0
M  V30 23143 C 2246.84 1.89953 -0.27959 0
M  V30 23144 O 2248.04 2.67507 -0.263376 0
M  V30 23145 C 2246.31 2.31241 -2.72511 0
M  V30 23146 S 2247.87 3.17107 -3.03296 0
M  V30 23147 H 2244.69 0.43179 -0.56487 0
M  V30 23148 H 2247.29 0.573364 -1.86903 0
M  V30 23149 H 2245.99 1.8354 -3.67071 0
M  V30 23150 H 2245.52 3.05615 -2.47716 0
M  V30 23151 H 2247.54 4.31805 -2.44456 0
M  V30 23152 N 2246.71 1.38262 0.756405 0
M  V30 23153 C 2247.94 1.37343 1.54339 0
M  V30 23154 C 2248.35 -0.0393584 1.89159 0
M  V30 23155 O 2247.69 -1.01562 1.53071 0
M  V30 23156 C 2247.76 2.16187 2.87234 0
M  V30 23157 C 2247.42 3.65024 2.74967 0
M  V30 23158 C 2248.42 4.58578 2.44954 0
M  V30 23159 C 2246.1 4.08344 2.92508 0
M  V30 23160 C 2248.1 5.93432 2.32632 0
M  V30 23161 C 2245.78 5.43279 2.79806 0
M  V30 23162 C 2246.78 6.35637 2.4991 0
M  V30 23163 O 2246.47 7.6809 2.37262 0
M  V30 23164 H 2246.2 0.471652 0.484273 0
M  V30 23165 H 2248.75 1.82416 0.94412 0
M  V30 23166 H 2246.98 1.65828 3.49339 0
M  V30 23167 H 2248.67 2.07711 3.48728 0
M  V30 23168 H 2249.44 4.26416 2.31073 0
M  V30 23169 H 2245.32 3.36805 3.14775 0
M  V30 23170 H 2248.86 6.65487 2.09219 0
M  V30 23171 H 2244.76 5.75039 2.93259 0
M  V30 23172 H 2245.53 7.78581 2.52495 0
M  V30 23173 N 2248.19 -0.984277 1.23084 0
M  V30 23174 C 2249.47 -1.69915 0.968929 0
M  V30 23175 C 2249.85 -2.04758 -0.513568 0
M  V30 23176 O 2249.2 -1.73769 -1.4838 0
M  V30 23177 C 2249.41 -2.9434 1.87524 0
M  V30 23178 C 2250.75 -3.66936 2.13642 0
M  V30 23179 O 2251.78 -3.04365 1.85042 0
M  V30 23180 O 2250.64 -4.79533 2.62127 0
M  V30 23181 H 2247.73 -0.742041 0.365108 0
M  V30 23182 H 2250.28 -1.03985 1.34109 0
M  V30 23183 H 2249.05 -2.65159 2.87761 0
M  V30 23184 H 2248.67 -3.68007 1.5052 0
M  V30 23185 N 2249.67 -1.04192 -1.18244 0
M  V30 23186 C 2250.63 -0.638491 -2.20127 0
M  V30 23187 C 2251.63 0.304777 -1.57885 0
M  V30 23188 O 2252.82 0.0900063 -1.73967 0
M  V30 23189 C 2249.95 0.0637152 -3.4084 0
M  V30 23190 H 2251.15 -1.54012 -2.57333 0
M  V30 23191 H 2248.7 -0.834621 -1.32151 0
M  V30 23192 H 2249.43 0.979081 -3.09167 0
M  V30 23193 H 2249.22 -0.614266 -3.87259 0
M  V30 23194 H 2250.71 0.332439 -4.16275 0
M  V30 23195 N 2251.15 1.34492 -0.821557 0
M  V30 23196 C 2252.39 1.97935 -0.408173 0
M  V30 23197 C 2252.72 1.65459 1.0319 0
M  V30 23198 O 2251.99 0.944625 1.71621 0
M  V30 23199 H 2250.57 0.732204 -0.147941 0
M  V30 23200 H 2253.23 1.64153 -1.0507 0
M  V30 23201 H 2252.32 3.07634 -0.526065 0
M  V30 23202 N 2252.62 0.576397 1.46681 0
M  V30 23203 C 2253.86 0.0621715 2.04305 0
M  V30 23204 C 2254.23 -1.27118 1.43893 0
M  V30 23205 O 2255.43 -1.87426 1.92679 0
M  V30 23206 C 2253.7 -0.00921639 3.57399 0
M  V30 23207 S 2255.26 -0.466783 4.3631 0
M  V30 23208 H 2252.08 0.0344141 0.710167 0
M  V30 23209 H 2254.68 0.767469 1.79806 0
M  V30 23210 H 2253.38 0.965249 3.98887 0
M  V30 23211 H 2252.91 -0.73748 3.86426 0
M  V30 23212 H 2254.93 -1.72278 4.65333 0
M  V30 23213 N 2254.1 -1.54444 0.313841 0
M  V30 23214 C 2255.07 -2.22657 -0.543751 0
M  V30 23215 C 2256.07 -1.2168 -1.05122 0
M  V30 23216 O 2257.26 -1.46327 -0.945199 0
M  V30 23217 C 2254.39 -2.92301 -1.75422 0
M  V30 23218 H 2255.58 -2.99854 0.0524126 0
M  V30 23219 H 2253.13 -1.56166 0.0648109 0
M  V30 23220 H 2253.87 -2.19216 -2.38987 0
M  V30 23221 H 2253.65 -3.66337 -1.39785 0
M  V30 23222 H 2255.14 -3.44301 -2.36319 0
M  V30 23223 N 2255.58 -0.0418125 -1.57545 0
M  V30 23224 C 2256.83 0.629134 -1.93426 0
M  V30 23225 C 2257.18 1.69001 -0.919594 0
M  V30 23226 O 2256.47 1.91498 0.0625841 0
M  V30 23227 C 2256.67 1.27729 -3.33796 0
M  V30 23228 C 2256.5 0.280727 -4.48823 0
M  V30 23229 C 2255.27 -0.123957 -5.05148 0
M  V30 23230 C 2257.47 -0.470102 -5.12147 0
M  V30 23231 N 2255.45 -1.11436 -6.03701 0
M  V30 23232 C 2256.82 -1.31387 -6.05919 0
M  V30 23233 C 2258.87 -0.52943 -4.95077 0
M  V30 23234 C 2257.58 -2.21164 -6.84455 0
M  V30 23235 C 2259.6 -1.41458 -5.74233 0
M  V30 23236 C 2258.96 -2.2461 -6.6763 0
M  V30 23237 H 2255.06 0.202145 -0.755421 0
M  V30 23238 H 2257.65 -0.111957 -1.94378 0
M  V30 23239 H 2255.82 1.98846 -3.33639 0
M  V30 23240 H 2257.55 1.90629 -3.56991 0
M  V30 23241 H 2254.31 0.253095 -4.72923 0
M  V30 23242 H 2254.73 -1.60618 -6.57671 0
M  V30 23243 H 2259.37 0.0992055 -4.22684 0
M  V30 23244 H 2257.09 -2.85077 -7.56146 0
M  V30 23245 H 2260.68 -1.46494 -5.63055 0
M  V30 23246 H 2259.56 -2.91993 -7.27812 0
M  V30 23247 N 2257.06 1.55891 0.231477 0
M  V30 23248 C 2258.29 1.8225 0.97306 0
M  V30 23249 C 2258.7 0.617359 1.78844 0
M  V30 23250 O 2258.04 -0.423468 1.78752 0
M  V30 23251 C 2258.1 3.02195 1.94727 0
M  V30 23252 C 2257.77 4.37601 1.31735 0
M  V30 23253 C 2258.76 5.14999 0.712147 0
M  V30 23254 C 2256.45 4.84315 1.33209 0
M  V30 23255 C 2258.44 6.37267 0.130083 0
M  V30 23256 C 2256.13 6.06527 0.746179 0
M  V30 23257 C 2257.13 6.82843 0.146217 0
M  V30 23258 O 2256.81 8.02746 -0.430606 0
M  V30 23259 H 2256.55 0.610046 0.29124 0
M  V30 23260 H 2259.1 2.03812 0.254879 0
M  V30 23261 H 2257.33 2.76426 2.70417 0
M  V30 23262 H 2259.02 3.15512 2.55356 0
M  V30 23263 H 2259.79 4.80021 0.693156 0
M  V30 23264 H 2255.66 4.24894 1.78846 0
M  V30 23265 H 2259.21 6.96777 -0.338832 0
M  V30 23266 H 2255.11 6.4098 0.76255 0
M  V30 23267 H 2255.87 8.17859 -0.323962 0
M  V30 23268 N 2258.54 -0.497781 1.49532 0
M  V30 23269 C 2259.45 -1.62529 1.69179 0
M  V30 23270 C 2260.46 -1.64245 0.574429 0
M  V30 23271 O 2261.64 -1.82606 0.849529 0
M  V30 23272 C 2258.7 -2.98882 1.757 0
M  V30 23273 C 2257.76 -3.07768 2.99295 0
M  V30 23274 C 2257 -4.37616 3.05496 0
M  V30 23275 O 2257.22 -5.26599 2.19201 0
M  V30 23276 O 2256.15 -4.51541 3.97988 0
M  V30 23277 H 2259.98 -1.48883 2.64703 0
M  V30 23278 H 2257.57 -0.674418 1.33312 0
M  V30 23279 H 2259.45 -3.79916 1.82324 0
M  V30 23280 H 2258.12 -3.12784 0.833555 0
M  V30 23281 H 2257.03 -2.2591 2.98187 0
M  V30 23282 H 2258.36 -2.98794 3.9113 0
M  V30 23283 N 2260.01 -1.38661 -0.749062 0
M  V30 23284 C 2260.94 -1.38976 -1.87637 0
M  V30 23285 C 2261.93 -0.255034 -1.68177 0
M  V30 23286 O 2263.11 -0.458787 -1.88703 0
M  V30 23287 C 2260.24 -1.21857 -3.2522 0
M  V30 23288 C 2259.19 -2.32581 -3.59291 0
M  V30 23289 C 2258.52 -2.00563 -4.9566 0
M  V30 23290 C 2259.82 -3.74857 -3.63703 0
M  V30 23291 H 2261.51 -2.33313 -1.87631 0
M  V30 23292 H 2259.06 -1.12305 -0.90131 0
M  V30 23293 H 2261.01 -1.20702 -4.03744 0
M  V30 23294 H 2259.74 -0.239832 -3.25718 0
M  V30 23295 H 2258.4 -2.3293 -2.83089 0
M  V30 23296 H 2258.04 -1.01162 -4.92722 0
M  V30 23297 H 2257.74 -2.74723 -5.19424 0
M  V30 23298 H 2259.27 -2.01034 -5.76557 0
M  V30 23299 H 2260.68 -3.76514 -4.32331 0
M  V30 23300 H 2259.08 -4.48259 -3.98978 0
M  V30 23301 H 2260.15 -4.06846 -2.63826 0
M  V30 23302 N 2261.49 0.977736 -1.23605 0
M  V30 23303 C 2262.72 1.75456 -1.09649 0
M  V30 23304 C 2263.14 1.85493 0.351826 0
M  V30 23305 O 2262.49 1.33602 1.24325 0
M  V30 23306 C 2262.54 3.18013 -1.71901 0
M  V30 23307 O 2262.27 3.08493 -3.11069 0
M  V30 23308 C 2263.77 4.12078 -1.63422 0
M  V30 23309 H 2260.99 0.550538 -0.383599 0
M  V30 23310 H 2263.53 1.22821 -1.63509 0
M  V30 23311 H 2261.69 3.67666 -1.22067 0
M  V30 23312 H 2262.1 3.98254 -3.41312 0
M  V30 23313 H 2263.57 5.098 -2.11678 0
M  V30 23314 H 2264.05 4.35171 -0.593538 0
M  V30 23315 H 2264.66 3.6833 -2.12634 0
M  V30 23316 N 2262.97 1.04818 1.1769 0
M  V30 23317 C 2264.38 0.782728 1.695 0
M  V30 23318 C 2264.73 -0.695545 1.83457 0
M  V30 23319 O 2263.86 -1.54084 1.51945 0
M  V30 23320 C 2264.45 1.41424 3.07871 0
M  V30 23321 C 2263.01 1.19693 3.56862 0
M  V30 23322 C 2262.16 1.50016 2.33218 0
M  V30 23323 H 2265.11 1.21362 1.0226 0
M  V30 23324 H 2265.13 0.821494 3.71526 0
M  V30 23325 H 2264.64 2.49014 2.97681 0
M  V30 23326 H 2262.74 0.140109 3.72336 0
M  V30 23327 H 2262.86 1.89924 4.39847 0
M  V30 23328 H 2261.22 0.920113 2.375 0
M  V30 23329 H 2262 2.58731 2.25639 0
M  V30 23330 N 2264.45 -1.34055 0.828678 0
M  V30 23331 C 2265.41 -2.27721 0.259967 0
M  V30 23332 C 2266.41 -1.5053 -0.565451 0
M  V30 23333 O 2267.6 -1.69989 -0.38072 0
M  V30 23334 C 2264.73 -3.34936 -0.634885 0
M  V30 23335 H 2265.93 -2.79532 1.08635 0
M  V30 23336 H 2263.48 -1.44284 0.600977 0
M  V30 23337 H 2264.22 -2.88348 -1.48411 0
M  V30 23338 H 2264 -3.92075 -0.044431 0
M  V30 23339 H 2265.49 -4.0479 -1.02641 0
M  V30 23340 N 2265.93 -0.584167 -1.46374 0
M  V30 23341 C 2266.84 0.150686 -2.34116 0
M  V30 23342 C 2267.85 0.884541 -1.4984 0
M  V30 23343 O 2269.03 0.847397 -1.82705 0
M  V30 23344 C 2266.09 1.15056 -3.27052 0
M  V30 23345 C 2265.16 0.421218 -4.27229 0
M  V30 23346 C 2264.39 1.37346 -5.15725 0
M  V30 23347 O 2264.61 2.61006 -5.07181 0
M  V30 23348 O 2263.55 0.88325 -5.95384 0
M  V30 23349 H 2267.37 -0.56976 -2.98308 0
M  V30 23350 H 2264.96 -0.34456 -1.45372 0
M  V30 23351 H 2266.84 1.72705 -3.84384 0
M  V30 23352 H 2265.51 1.85245 -2.65454 0
M  V30 23353 H 2264.42 -0.197151 -3.7358 0
M  V30 23354 H 2265.75 -0.239727 -4.91616 0
M  V30 23355 N 2267.41 1.54275 -0.322027 0
M  V30 23356 C 2268.63 2.04955 0.283016 0
M  V30 23357 C 2269.05 1.19825 1.45902 0
M  V30 23358 O 2268.41 0.228576 1.81063 0
M  V30 23359 C 2268.46 3.54278 0.718966 0
M  V30 23360 O 2268.18 4.36175 -0.410252 0
M  V30 23361 C 2269.68 4.21044 1.38698 0
M  V30 23362 H 2266.9 0.668449 0.0584499 0
M  V30 23363 H 2269.44 1.99078 -0.467769 0
M  V30 23364 H 2267.6 3.60448 1.41973 0
M  V30 23365 H 2268.01 5.24457 -0.0670338 0
M  V30 23366 H 2269.49 5.26982 1.64297 0
M  V30 23367 H 2269.96 3.72063 2.33379 0
M  V30 23368 H 2270.57 4.19008 0.728833 0
M  V30 23369 N 2268.88 0.0501669 1.5752 0
M  V30 23370 C 2270.11 -0.633457 1.96964 0
M  V30 23371 C 2270.53 -1.64438 0.92766 0
M  V30 23372 O 2269.88 -1.82287 -0.0882344 0
M  V30 23373 C 2269.93 -1.32126 3.36489 0
M  V30 23374 O 2269.66 -0.350817 4.36693 0
M  V30 23375 C 2271.16 -2.09474 3.90686 0
M  V30 23376 H 2268.38 -0.173255 0.648247 0
M  V30 23377 H 2270.92 0.116169 2.0417 0
M  V30 23378 H 2269.08 -2.02212 3.30437 0
M  V30 23379 H 2269.49 -0.841644 5.17703 0
M  V30 23380 H 2270.96 -2.53021 4.90596 0
M  V30 23381 H 2271.44 -2.94249 3.26059 0
M  V30 23382 H 2272.05 -1.443 4.00072 0
M  V30 23383 N 2270.36 -1.56011 -0.223207 0
M  V30 23384 C 2271.61 -1.79213 -0.949248 0
M  V30 23385 C 2271.94 -0.619527 -1.84053 0
M  V30 23386 O 2271.22 0.381283 -1.90726 0
M  V30 23387 C 2271.5 -3.12483 -1.7896 0
M  V30 23388 C 2271.35 -4.40188 -0.92492 0
M  V30 23389 C 2272.67 -3.4218 -2.76768 0
M  V30 23390 H 2269.79 -0.651969 -0.343665 0
M  V30 23391 H 2272.43 -1.88743 -0.21822 0
M  V30 23392 H 2270.58 -3.04489 -2.41285 0
M  V30 23393 H 2272.25 -4.60199 -0.318535 0
M  V30 23394 H 2270.5 -4.33188 -0.230268 0
M  V30 23395 H 2271.17 -5.29872 -1.54726 0
M  V30 23396 H 2273.64 -3.50291 -2.24578 0
M  V30 23397 H 2272.52 -4.36603 -3.3267 0
M  V30 23398 H 2272.78 -2.64265 -3.54424 0
M  V30 23399 N 2271.84 0.489844 -1.49794 0
M  V30 23400 C 2273.26 0.821998 -1.36804 0
M  V30 23401 C 2273.46 1.97291 -0.409687 0
M  V30 23402 O 2272.51 2.52026 0.154569 0
M  V30 23403 C 2273.82 1.1517 -2.7777 0
M  V30 23404 C 2275.37 1.25926 -2.86551 0
M  V30 23405 C 2275.85 1.6222 -4.28309 0
M  V30 23406 N 2277.34 1.69248 -4.31172 0
M  V30 23407 C 2278.07 1.98798 -5.37836 0
M  V30 23408 N 2277.57 2.26495 -6.5473 0
M  V30 23409 N 2279.36 2.00142 -5.25261 0
M  V30 23410 H 2271.51 -0.268918 -2.10691 0
M  V30 23411 H 2273.78 -0.0577447 -0.94624 0
M  V30 23412 H 2273.48 0.379273 -3.49649 0
M  V30 23413 H 2273.36 2.09248 -3.13839 0
M  V30 23414 H 2275.74 2.02239 -2.14903 0
M  V30 23415 H 2275.82 0.298731 -2.5405 0
M  V30 23416 H 2275.47 0.864534 -5.00488 0
M  V30 23417 H 2275.4 2.59392 -4.58283 0
M  V30 23418 H 2277.89 1.49958 -3.46873 0
M  V30 23419 H 2278.2 2.48263 -7.31837 0
M  V30 23420 H 2276.55 2.23927 -6.57937 0
M  V30 23421 H 2279.74 1.77988 -4.32941 0
M  V30 23422 H 2279.91 2.22837 -6.0848 0
M  V30 23423 N 2273.32 1.39056 0.741698 0
M  V30 23424 C 2274.25 1.39969 1.86898 0
M  V30 23425 C 2275.23 0.263949 1.6804 0
M  V30 23426 O 2276.41 0.468788 1.88457 0
M  V30 23427 C 2273.54 1.2358 3.24569 0
M  V30 23428 C 2272.5 2.34484 3.58052 0
M  V30 23429 C 2271.82 2.03189 4.94589 0
M  V30 23430 C 2273.12 3.7678 3.6171 0
M  V30 23431 H 2274.82 2.34305 1.86391 0
M  V30 23432 H 2272.36 1.12781 0.895341 0
M  V30 23433 H 2274.32 1.22841 4.03098 0
M  V30 23434 H 2273.04 0.257103 3.25586 0
M  V30 23435 H 2271.7 2.34428 2.81849 0
M  V30 23436 H 2271.35 1.03774 4.92179 0
M  V30 23437 H 2271.05 2.77474 5.17959 0
M  V30 23438 H 2272.57 2.04089 5.75482 0
M  V30 23439 H 2273.99 3.78802 4.30328 0
M  V30 23440 H 2272.38 4.50369 3.96595 0
M  V30 23441 H 2273.45 4.08239 2.61665 0
M  V30 23442 N 2274.8 -0.971167 1.24121 0
M  V30 23443 C 2276.21 -1.23914 1.00586 0
M  V30 23444 C 2276.41 -1.99439 -0.287446 0
M  V30 23445 O 2275.47 -2.31659 -1.0045 0
M  V30 23446 C 2276.78 -2.02966 2.21867 0
M  V30 23447 C 2278.33 -2.16072 2.26455 0
M  V30 23448 C 2278.8 -2.98518 3.47348 0
M  V30 23449 N 2280.29 -3.06101 3.47644 0
M  V30 23450 C 2281.03 -3.70243 4.37844 0
M  V30 23451 N 2280.53 -4.36133 5.38294 0
M  V30 23452 N 2282.32 -3.67221 4.25565 0
M  V30 23453 H 2274.47 -0.465463 2.07237 0
M  V30 23454 H 2276.73 -0.268299 0.909241 0
M  V30 23455 H 2276.44 -1.54855 3.15773 0
M  V30 23456 H 2276.31 -3.03705 2.23704 0
M  V30 23457 H 2278.7 -2.63387 1.33083 0
M  V30 23458 H 2278.78 -1.14692 2.28647 0
M  V30 23459 H 2278.42 -2.51897 4.41033 0
M  V30 23460 H 2278.35 -4.00087 3.424 0
M  V30 23461 H 2280.85 -2.59228 2.74971 0
M  V30 23462 H 2281.16 -4.82883 6.03361 0
M  V30 23463 H 2279.5 -4.34812 5.42184 0
M  V30 23464 H 2282.69 -3.14921 3.46327 0
M  V30 23465 H 2282.87 -4.16926 4.96061 0
M  V30 23466 N 2276.27 -1.05441 -1.17133 0
M  V30 23467 C 2277.24 -0.661802 -2.19438 0
M  V30 23468 C 2278.24 0.288014 -1.582 0
M  V30 23469 O 2279.43 0.0715497 -1.74053 0
M  V30 23470 C 2276.56 0.027561 -3.40889 0
M  V30 23471 H 2277.75 -1.56732 -2.55685 0
M  V30 23472 H 2275.31 -0.84859 -1.31258 0
M  V30 23473 H 2276.04 0.946235 -3.10188 0
M  V30 23474 H 2275.83 -0.655306 -3.86585 0
M  V30 23475 H 2277.32 0.288269 -4.16604 0
M  V30 23476 N 2277.75 1.33613 -0.835776 0
M  V30 23477 C 2278.98 2.018 -0.442736 0
M  V30 23478 C 2279.39 1.63049 0.959779 0
M  V30 23479 O 2278.73 0.838117 1.63466 0
M  V30 23480 C 2278.8 3.56279 -0.480188 0
M  V30 23481 C 2278.46 4.18397 -1.83828 0
M  V30 23482 C 2279.46 4.37993 -2.80104 0
M  V30 23483 C 2277.14 4.5489 -2.13027 0
M  V30 23484 C 2279.14 4.93223 -4.03745 0
M  V30 23485 C 2276.82 5.09828 -3.36925 0
M  V30 23486 C 2277.82 5.28941 -4.32101 0
M  V30 23487 O 2277.51 5.82711 -5.53807 0
M  V30 23488 H 2277.24 0.65311 -0.174421 0
M  V30 23489 H 2279.79 1.71587 -1.12903 0
M  V30 23490 H 2278.02 3.85806 0.262863 0
M  V30 23491 H 2279.71 4.05763 -0.105406 0
M  V30 23492 H 2280.48 4.10151 -2.58845 0
M  V30 23493 H 2276.36 4.3931 -1.39741 0
M  V30 23494 H 2279.9 5.08056 -4.78043 0
M  V30 23495 H 2275.8 5.371 -3.58042 0
M  V30 23496 H 2276.57 6.0113 -5.55504 0
M  V30 23497 N 2279.23 0.591922 1.46062 0
M  V30 23498 C 2280.16 -0.184577 2.27452 0
M  V30 23499 C 2281.14 -0.888327 1.36189 0
M  V30 23500 O 2282.33 -0.900361 1.65607 0
M  V30 23501 C 2279.45 -1.26565 3.14164 0
M  V30 23502 C 2278.5 -0.66674 4.21256 0
M  V30 23503 S 2279.33 0.513439 5.33033 0
M  V30 23504 C 2280.49 -0.56861 6.23312 0
M  V30 23505 H 2280.72 0.50599 2.92963 0
M  V30 23506 H 2278.25 0.379041 1.49675 0
M  V30 23507 H 2280.21 -1.88457 3.64684 0
M  V30 23508 H 2278.87 -1.92821 2.47949 0
M  V30 23509 H 2278.07 -1.47966 4.81791 0
M  V30 23510 H 2277.67 -0.123294 3.73797 0
M  V30 23511 H 2279.96 -1.45186 6.61761 0
M  V30 23512 H 2280.9 0.000196849 7.081 0
M  V30 23513 H 2281.31 -0.876898 5.57648 0
M  V30 23514 N 2280.71 -1.54102 0.330204 0
M  V30 23515 C 2281.66 -2.26048 -0.548186 0
M  V30 23516 C 2282.65 -1.277 -1.11306 0
M  V30 23517 O 2283.86 -1.45454 -1.06034 0
M  V30 23518 H 2280.23 -0.726158 -0.195443 0
M  V30 23519 H 2282.2 -2.98291 0.0808092 0
M  V30 23520 C 2280.95 -3.03637 -1.6941 0
M  V30 23521 H 2280.27 -3.79136 -1.2687 0
M  V30 23522 H 2281.71 -3.57214 -2.28417 0
M  V30 23523 C 2280.17 -2.12333 -2.61565 0
M  V30 23524 O 2280.7 -1.71056 -3.63459 0
M  V30 23525 N 2278.91 -1.77685 -2.29949 0
M  V30 23526 H 2278.46 -2.11448 -1.4713 0
M  V30 23527 H 2278.41 -1.16874 -2.91869 0
M  V30 23528 N 2282.19 -0.0585199 -1.57491 0
M  V30 23529 C 2283.41 0.623003 -1.97297 0
M  V30 23530 C 2283.83 1.63944 -0.936367 0
M  V30 23531 O 2283.19 1.82331 0.0785661 0
M  V30 23532 C 2283.24 1.3034 -3.37185 0
M  V30 23533 O 2282.96 0.327653 -4.36873 0
M  V30 23534 C 2284.46 2.07399 -3.91791 0
M  V30 23535 H 2281.68 0.169815 -0.649156 0
M  V30 23536 H 2284.22 -0.126995 -2.04105 0
M  V30 23537 H 2282.38 2.00457 -3.31505 0
M  V30 23538 H 2282.79 0.814178 -5.18142 0
M  V30 23539 H 2284.27 2.50416 -4.91931 0
M  V30 23540 H 2284.74 2.92516 -3.27614 0
M  V30 23541 H 2285.35 1.42177 -4.00831 0
M  V30 23542 N 2283.66 1.56128 0.21493 0
M  V30 23543 C 2285.08 1.69563 0.781357 0
M  V30 23544 C 2285.43 0.661682 1.84706 0
M  V30 23545 O 2284.55 -0.18589 2.156 0
M  V30 23546 C 2285.15 3.07418 1.42406 0
M  V30 23547 C 2283.71 3.22686 1.9378 0
M  V30 23548 C 2282.85 2.65498 0.800391 0
M  V30 23549 H 2285.8 1.58697 -0.00983423 0
M  V30 23550 H 2285.82 3.03644 2.29304 0
M  V30 23551 H 2285.34 3.82649 0.648192 0
M  V30 23552 H 2283.44 2.52336 2.74148 0
M  V30 23553 H 2283.55 4.29976 2.11322 0
M  V30 23554 H 2281.91 2.24152 1.20946 0
M  V30 23555 H 2282.7 3.4328 0.0370867 0
M  V30 23556 N 2285.14 -0.481893 1.50052 0
M  V30 23557 C 2286.39 -1.23231 1.60183 0
M  V30 23558 C 2286.71 -1.92691 0.29921 0
M  V30 23559 O 2285.98 -1.8362 -0.682675 0
M  V30 23560 H 2284.56 -0.457849 0.59024 0
M  V30 23561 H 2287.22 -0.556848 1.86776 0
M  V30 23562 H 2286.32 -1.98602 2.40756 0
M  V30 23563 N 2286.62 -1.39448 -0.734313 0
M  V30 23564 C 2287.55 -1.40959 -1.86153 0
M  V30 23565 C 2288.53 -0.272857 -1.67897 0
M  V30 23566 O 2289.72 -0.478776 -1.88206 0
M  V30 23567 C 2286.85 -1.25299 -3.23909 0
M  V30 23568 C 2285.8 -2.36379 -3.56804 0
M  V30 23569 C 2285.13 -2.05809 -4.93504 0
M  V30 23570 C 2286.43 -3.78693 -3.59707 0
M  V30 23571 H 2288.12 -2.3529 -1.85146 0
M  V30 23572 H 2285.67 -1.13255 -0.889347 0
M  V30 23573 H 2287.62 -1.24977 -4.02441 0
M  V30 23574 H 2286.34 -0.274366 -3.25446 0
M  V30 23575 H 2285 -2.35919 -2.80602 0
M  V30 23576 H 2284.65 -1.06383 -4.91622 0
M  V30 23577 H 2284.35 -2.80217 -5.16481 0
M  V30 23578 H 2285.87 -2.07138 -5.74392 0
M  V30 23579 H 2287.29 -3.81078 -4.28313 0
M  V30 23580 H 2285.69 -4.52466 -3.94201 0
M  V30 23581 H 2286.76 -4.09621 -2.59496 0
M  V30 23582 N 2288.1 0.964571 -1.24635 0
M  V30 23583 C 2289.51 1.52258 -1.08048 0
M  V30 23584 C 2289.86 1.93106 0.347082 0
M  V30 23585 O 2288.99 1.77639 1.23585 0
M  V30 23586 C 2289.58 2.76691 -1.95518 0
M  V30 23587 C 2288.14 3.28838 -1.83146 0
M  V30 23588 C 2287.29 2.01729 -1.90265 0
M  V30 23589 H 2290.24 0.782529 -1.38066 0
M  V30 23590 H 2290.26 3.50143 -1.48931 0
M  V30 23591 H 2289.77 2.46931 -2.99411 0
M  V30 23592 H 2287.87 3.63443 -0.820983 0
M  V30 23593 H 2287.98 3.97526 -2.67413 0
M  V30 23594 H 2286.35 2.16582 -1.34031 0
M  V30 23595 H 2287.13 1.74329 -2.95743 0
M  V30 23596 N 2289.58 1.0606 1.16572 0
M  V30 23597 C 2290.82 0.777055 1.87322 0
M  V30 23598 C 2291.16 -0.694613 1.81353 0
M  V30 23599 O 2290.43 -1.50869 1.22756 0
M  V30 23600 C 2290.71 1.26928 3.36989 0
M  V30 23601 C 2290.57 2.80453 3.51662 0
M  V30 23602 C 2291.89 0.875286 4.31308 0
M  V30 23603 H 2289 0.283752 0.680187 0
M  V30 23604 H 2291.65 1.31612 1.37034 0
M  V30 23605 H 2289.8 0.810697 3.79947 0
M  V30 23606 H 2291.47 3.34501 3.17658 0
M  V30 23607 H 2289.71 3.19299 2.9365 0
M  V30 23608 H 2290.38 3.09958 4.56761 0
M  V30 23609 H 2292.86 1.27021 3.96238 0
M  V30 23610 H 2291.73 1.24719 5.34543 0
M  V30 23611 H 2292 -0.219994 4.41552 0
M  V30 23612 N 2291.06 -1.33168 0.84285 0
M  V30 23613 C 2292.3 -1.99461 0.446609 0
M  V30 23614 C 2292.66 -1.65296 -0.976788 0
M  V30 23615 O 2293.86 -2.24587 -1.47697 0
M  V30 23616 C 2292.13 -3.51151 0.665414 0
M  V30 23617 S 2293.69 -4.37279 0.364987 0
M  V30 23618 H 2290.51 -0.690912 0.167815 0
M  V30 23619 H 2293.11 -1.62092 1.093 0
M  V30 23620 H 2291.81 -3.73504 1.70067 0
M  V30 23621 H 2291.35 -3.934 0.00501483 0
M  V30 23622 H 2293.36 -4.89483 -0.813675 0
M  V30 23623 N 2292.53 -0.599659 -1.45746 0
M  V30 23624 C 2293.47 0.161838 -2.28628 0
M  V30 23625 C 2294.48 0.839343 -1.39495 0
M  V30 23626 O 2295.67 0.706061 -1.63942 0
M  V30 23627 C 2292.77 1.24971 -3.15017 0
M  V30 23628 C 2291.94 0.660859 -4.32379 0
M  V30 23629 C 2291 1.6386 -5.00036 0
M  V30 23630 O 2290.03 1.168 -5.57087 0
M  V30 23631 N 2291.23 2.97294 -4.98594 0
M  V30 23632 H 2293.99 -0.549317 -2.94623 0
M  V30 23633 H 2291.55 -0.438592 -1.55846 0
M  V30 23634 H 2293.55 1.90344 -3.57143 0
M  V30 23635 H 2292.12 1.86349 -2.50983 0
M  V30 23636 H 2291.34 -0.170758 -3.9383 0
M  V30 23637 H 2292.62 0.24753 -5.08198 0
M  V30 23638 H 2292.02 3.38137 -4.53519 0
M  V30 23639 H 2290.58 3.58111 -5.44609 0
M  V30 23640 N 2294.01 1.53925 -0.338371 0
M  V30 23641 C 2295.29 1.93051 0.31474 0
M  V30 23642 C 2295.67 1.26944 1.68667 0
M  V30 23643 O 2295.02 0.418484 2.24635 0
M  V30 23644 C 2295.23 3.46789 0.392188 0
M  V30 23645 C 2296.57 4.19665 0.645481 0
M  V30 23646 O 2297.6 3.53025 0.474513 0
M  V30 23647 O 2296.46 5.37708 0.976314 0
M  V30 23648 H 2293.55 0.806593 0.182584 0
M  V30 23649 H 2296.1 1.65177 -0.38917 0
M  V30 23650 H 2294.87 3.87115 -0.57077 0
M  V30 23651 H 2294.49 3.80814 1.14309 0
M  V30 23652 N 2295.49 0.0668712 1.57458 0
M  V30 23653 C 2296.44 -0.912082 2.08962 0
M  V30 23654 C 2297.42 -1.26193 0.998208 0
M  V30 23655 O 2298.62 -1.24173 1.26136 0
M  V30 23656 C 2295.74 -2.18141 2.65084 0
M  V30 23657 C 2294.83 -1.85826 3.81221 0
M  V30 23658 N 2295.22 -1.23939 4.9038 0
M  V30 23659 C 2293.52 -2.15605 3.90424 0
M  V30 23660 C 2294.22 -1.09606 5.71281 0
M  V30 23661 N 2293.2 -1.60414 5.19392 0
M  V30 23662 H 2297 -0.429189 2.90749 0
M  V30 23663 H 2294.51 -0.137156 1.6182 0
M  V30 23664 H 2296.51 -2.89186 3.00295 0
M  V30 23665 H 2295.17 -2.67022 1.84741 0
M  V30 23666 H 2296.18 -0.909642 5.09849 0
M  V30 23667 H 2292.86 -2.66898 3.21048 0
M  V30 23668 H 2294.25 -0.614308 6.69086 0
M  V30 23669 N 2296.97 -1.56239 -0.206647 0
M  V30 23670 C 2297.9 -1.96647 -1.25906 0
M  V30 23671 C 2298.88 -0.83676 -1.48096 0
M  V30 23672 O 2300.06 -1.10021 -1.60028 0
M  V30 23673 C 2297.19 -2.29603 -2.60576 0
M  V30 23674 C 2296.15 -3.45204 -2.53018 0
M  V30 23675 C 2295.47 -3.63805 -3.91854 0
M  V30 23676 C 2296.77 -4.79738 -2.06516 0
M  V30 23677 H 2298.47 -2.84807 -0.923319 0
M  V30 23678 H 2296.01 -1.37026 -0.442711 0
M  V30 23679 H 2297.97 -2.56464 -3.34371 0
M  V30 23680 H 2296.69 -1.38312 -2.95867 0
M  V30 23681 H 2295.35 -3.18415 -1.81679 0
M  V30 23682 H 2295 -2.69865 -4.24479 0
M  V30 23683 H 2294.7 -4.41567 -3.87675 0
M  V30 23684 H 2296.22 -3.93031 -4.67289 0
M  V30 23685 H 2297.64 -5.05706 -2.70063 0
M  V30 23686 H 2296.03 -5.60888 -2.13364 0
M  V30 23687 H 2297.1 -4.74095 -1.01793 0
M  V30 23688 N 2298.45 0.473929 -1.50305 0
M  V30 23689 C 2299.36 1.59817 -1.71743 0
M  V30 23690 C 2300.37 1.6331 -0.600486 0
M  V30 23691 O 2301.55 1.81231 -0.878473 0
M  V30 23692 C 2298.61 2.96049 -1.80433 0
M  V30 23693 C 2297.67 3.02967 -3.04154 0
M  V30 23694 C 2296.91 4.32701 -3.12419 0
M  V30 23695 O 2297.13 5.23045 -2.27551 0
M  V30 23696 O 2296.06 4.45152 -4.05121 0
M  V30 23697 H 2299.89 1.44653 -2.67038 0
M  V30 23698 H 2297.47 0.653124 -1.34368 0
M  V30 23699 H 2299.36 3.76967 -1.88345 0
M  V30 23700 H 2298.03 3.11418 -0.883211 0
M  V30 23701 H 2296.94 2.21137 -3.01744 0
M  V30 23702 H 2298.27 2.92534 -3.95834 0
M  V30 23703 N 2299.92 1.39835 0.726907 0
M  V30 23704 C 2301.17 1.37499 1.48662 0
M  V30 23705 C 2301.5 -0.0264336 1.94482 0
M  V30 23706 O 2300.75 -1.00883 1.67693 0
M  V30 23707 C 2301.05 2.30082 2.73491 0
M  V30 23708 C 2300.72 3.77559 2.46495 0
M  V30 23709 C 2299.38 4.17741 2.38843 0
M  V30 23710 C 2301.73 4.70802 2.23596 0
M  V30 23711 C 2299.06 5.49217 2.06343 0
M  V30 23712 C 2301.41 6.02564 1.92611 0
M  V30 23713 C 2300.08 6.41801 1.83433 0
M  V30 23714 H 2299.35 0.503144 0.543992 0
M  V30 23715 H 2301.99 1.72403 0.833627 0
M  V30 23716 H 2300.3 1.88323 3.43572 0
M  V30 23717 H 2302 2.25563 3.31545 0
M  V30 23718 H 2298.59 3.45717 2.53333 0
M  V30 23719 H 2302.77 4.40585 2.28471 0
M  V30 23720 H 2298.03 5.78532 1.97765 0
M  V30 23721 H 2302.2 6.74337 1.73902 0
M  V30 23722 H 2299.83 7.43596 1.58016 0
M  V30 23723 N 2301.4 -0.957948 1.25144 0
M  V30 23724 C 2302.65 -1.70529 1.10866 0
M  V30 23725 C 2303 -1.89238 -0.347357 0
M  V30 23726 O 2302.3 -1.44985 -1.25259 0
M  V30 23727 C 2302.49 -3.09183 1.79277 0
M  V30 23728 C 2302.32 -3.04001 3.31382 0
M  V30 23729 C 2301.09 -3.07941 4.00625 0
M  V30 23730 C 2303.29 -2.85423 4.2783 0
M  V30 23731 N 2301.27 -2.9288 5.39532 0
M  V30 23732 C 2302.64 -2.78759 5.53799 0
M  V30 23733 C 2304.69 -2.70078 4.18285 0
M  V30 23734 C 2303.4 -2.58319 6.71315 0
M  V30 23735 C 2305.42 -2.51007 5.3549 0
M  V30 23736 C 2304.79 -2.45061 6.60397 0
M  V30 23737 H 2300.88 -0.632124 0.460373 0
M  V30 23738 H 2303.47 -1.13497 1.58198 0
M  V30 23739 H 2301.64 -3.64389 1.34445 0
M  V30 23740 H 2303.37 -3.7268 1.57771 0
M  V30 23741 H 2300.13 -3.17003 3.51861 0
M  V30 23742 H 2300.55 -2.88564 6.12421 0
M  V30 23743 H 2305.19 -2.73451 3.22466 0
M  V30 23744 H 2302.91 -2.53688 7.67247 0
M  V30 23745 H 2306.5 -2.40064 5.29963 0
M  V30 23746 H 2305.38 -2.30496 7.49561 0
M  V30 23747 N 2302.88 -1.06677 -1.16008 0
M  V30 23748 C 2303.79 -0.692218 -2.24155 0
M  V30 23749 C 2304.81 0.293483 -1.71507 0
M  V30 23750 O 2305.98 0.141826 -2.009 0
M  V30 23751 C 2303.05 -0.0884741 -3.46587 0
M  V30 23752 C 2302.11 -1.12654 -4.14255 0
M  V30 23753 C 2301.34 -0.551509 -5.30843 0
M  V30 23754 O 2301.56 0.634556 -5.66859 0
M  V30 23755 O 2300.5 -1.29308 -5.87846 0
M  V30 23756 H 2304.32 -1.59392 -2.58511 0
M  V30 23757 H 2301.91 -0.839282 -1.23598 0
M  V30 23758 H 2303.79 0.246287 -4.2068 0
M  V30 23759 H 2302.47 0.786657 -3.13996 0
M  V30 23760 H 2301.37 -1.51354 -3.42115 0
M  V30 23761 H 2302.71 -1.97333 -4.50911 0
M  V30 23762 N 2304.36 1.32719 -0.8499 0
M  V30 23763 C 2305.61 1.97025 -0.450067 0
M  V30 23764 C 2305.93 1.67611 0.996574 0
M  V30 23765 O 2305.2 0.980815 1.69578 0
M  V30 23766 H 2303.78 0.728901 -0.163439 0
M  V30 23767 H 2306.44 1.61888 -1.08528 0
M  V30 23768 H 2305.53 3.06449 -0.5912 0
M  V30 23769 N 2305.84 0.60738 1.45426 0
M  V30 23770 C 2307.08 0.102643 2.0254 0
M  V30 23771 C 2307.42 -1.26345 1.47481 0
M  V30 23772 O 2306.69 -1.83338 0.649422 0
M  V30 23773 C 2306.97 0.063498 3.60044 0
M  V30 23774 C 2306.83 1.46024 4.25437 0
M  V30 23775 C 2308.15 -0.624437 4.35648 0
M  V30 23776 H 2305.26 0.0387736 0.735979 0
M  V30 23777 H 2307.91 0.779312 1.73282 0
M  V30 23778 H 2306.06 -0.51274 3.85102 0
M  V30 23779 H 2307.73 2.08355 4.11565 0
M  V30 23780 H 2305.97 2.02101 3.83846 0
M  V30 23781 H 2306.64 1.3851 5.3434 0
M  V30 23782 H 2309.12 -0.13465 4.15882 0
M  V30 23783 H 2307.99 -0.620932 5.45377 0
M  V30 23784 H 2308.26 -1.69048 4.08504 0
M  V30 23785 N 2307.31 -1.53743 0.34653 0
M  V30 23786 C 2308.56 -2.00962 -0.249069 0
M  V30 23787 C 2308.89 -1.23429 -1.50318 0
M  V30 23788 O 2308.14 -0.310795 -1.93216 0
M  V30 23789 C 2308.44 -3.52229 -0.605747 0
M  V30 23790 C 2308.11 -4.47511 0.551825 0
M  V30 23791 C 2306.77 -4.73279 0.869493 0
M  V30 23792 C 2309.12 -5.03991 1.32827 0
M  V30 23793 C 2306.45 -5.52783 1.96592 0
M  V30 23794 C 2308.8 -5.8469 2.41496 0
M  V30 23795 C 2307.47 -6.08752 2.73819 0
M  V30 23796 H 2306.74 -0.735374 -0.0911408 0
M  V30 23797 H 2309.38 -1.85514 0.47506 0
M  V30 23798 H 2307.69 -3.65525 -1.41063 0
M  V30 23799 H 2309.39 -3.86224 -1.07852 0
M  V30 23800 H 2305.98 -4.27589 0.294177 0
M  V30 23801 H 2310.16 -4.84045 1.0961 0
M  V30 23802 H 2305.42 -5.6965 2.22055 0
M  V30 23803 H 2309.59 -6.27467 3.02089 0
M  V30 23804 H 2307.22 -6.70144 3.58903 0
M  V30 23805 N 2308.79 -0.0752207 -1.5742 0
M  V30 23806 C 2310.02 0.602042 -1.97947 0
M  V30 23807 C 2310.44 1.62942 -0.953703 0
M  V30 23808 O 2309.79 1.82404 0.059223 0
M  V30 23809 C 2309.84 1.26756 -3.38549 0
M  V30 23810 O 2309.56 0.281299 -4.37196 0
M  V30 23811 C 2311.07 2.03232 -3.93969 0
M  V30 23812 H 2308.29 0.16292 -0.650921 0
M  V30 23813 H 2310.83 -0.148636 -2.03959 0
M  V30 23814 H 2308.98 1.9693 -3.33613 0
M  V30 23815 H 2309.4 0.759176 -5.18977 0
M  V30 23816 H 2310.87 2.45184 -4.94559 0
M  V30 23817 H 2311.35 2.89024 -3.30699 0
M  V30 23818 H 2311.96 1.37917 -4.02317 0
M  V30 23819 N 2310.27 1.56347 0.198358 0
M  V30 23820 C 2311.52 1.80076 0.917439 0
M  V30 23821 C 2311.84 0.647725 1.83928 0
M  V30 23822 O 2311.11 -0.334132 1.93029 0
M  V30 23823 H 2309.69 0.664234 0.341762 0
M  V30 23824 H 2312.35 1.93823 0.20465 0
M  V30 23825 H 2311.45 2.73112 1.5105 0
M  V30 23826 N 2311.75 -0.465951 1.50554 0
M  V30 23827 C 2312.68 -1.57125 1.72725 0
M  V30 23828 C 2313.66 -1.60039 0.576322 0
M  V30 23829 O 2314.84 -1.76224 0.816011 0
M  V30 23830 C 2311.97 -2.95416 1.82611 0
M  V30 23831 C 2310.93 -3.07368 2.9784 0
M  V30 23832 C 2310.25 -4.47357 2.92875 0
M  V30 23833 C 2311.55 -2.84106 4.3827 0
M  V30 23834 H 2313.25 -1.38825 2.6527 0
M  V30 23835 H 2310.79 -0.666418 1.27651 0
M  V30 23836 H 2312.75 -3.72673 1.96705 0
M  V30 23837 H 2311.47 -3.14884 0.866914 0
M  V30 23838 H 2310.13 -2.32545 2.83405 0
M  V30 23839 H 2309.78 -4.63752 1.94791 0
M  V30 23840 H 2309.48 -4.56289 3.70235 0
M  V30 23841 H 2311 -5.26627 3.09024 0
M  V30 23842 H 2312.42 -3.5111 4.53205 0
M  V30 23843 H 2310.81 -3.04478 5.1712 0
M  V30 23844 H 2311.88 -1.79923 4.50284 0
M  V30 23845 N 2313.23 -1.40218 -0.719481 0
M  V30 23846 C 2314.45 -1.41592 -1.50862 0
M  V30 23847 C 2314.87 -0.0145607 -1.88794 0
M  V30 23848 O 2314.23 0.960566 -1.55175 0
M  V30 23849 C 2314.28 -2.30307 -2.78641 0
M  V30 23850 O 2314 -3.64987 -2.42314 0
M  V30 23851 C 2315.5 -2.4023 -3.72564 0
M  V30 23852 H 2312.72 -0.483078 -0.4657 0
M  V30 23853 H 2315.26 -1.84223 -0.887817 0
M  V30 23854 H 2313.42 -1.91048 -3.37015 0
M  V30 23855 H 2313.83 -4.12062 -3.24507 0
M  V30 23856 H 2315.31 -3.0652 -4.59074 0
M  V30 23857 H 2315.78 -1.42616 -4.154 0
M  V30 23858 H 2316.39 -2.80024 -3.20104 0
M  V30 23859 N 2314.7 0.951297 -1.25651 0
M  V30 23860 C 2315.65 2.03405 -1.03008 0
M  V30 23861 C 2316.64 1.60864 0.0341587 0
M  V30 23862 O 2317.83 1.76066 -0.18158 0
M  V30 23863 C 2314.96 3.37007 -0.654314 0
M  V30 23864 C 2314.05 3.86062 -1.75548 0
M  V30 23865 N 2314.44 4.07874 -2.9912 0
M  V30 23866 C 2312.73 4.14881 -1.63676 0
M  V30 23867 C 2313.44 4.48349 -3.70618 0
M  V30 23868 N 2312.41 4.54472 -2.98255 0
M  V30 23869 H 2316.21 2.18267 -1.96817 0
M  V30 23870 H 2313.73 1.13637 -1.16019 0
M  V30 23871 H 2315.72 4.14205 -0.473279 0
M  V30 23872 H 2314.38 3.23521 0.276411 0
M  V30 23873 H 2315.4 3.94852 -3.35131 0
M  V30 23874 H 2312.07 4.10239 -0.775234 0
M  V30 23875 H 2313.46 4.73501 -4.76704 0
M  V30 23876 N 2316.18 1.07291 1.1544 0
M  V30 23877 C 2317.43 0.790702 1.85555 0
M  V30 23878 C 2317.74 -0.685706 1.83187 0
M  V30 23879 O 2318.95 -1.08266 2.48979 0
M  V30 23880 C 2317.41 1.36439 3.33035 0
M  V30 23881 C 2317.01 2.87176 3.43851 0
M  V30 23882 C 2318.76 1.16017 4.08338 0
M  V30 23883 C 2316.67 3.37739 4.85476 0
M  V30 23884 H 2315.6 0.29211 0.695117 0
M  V30 23885 H 2318.25 1.2929 1.30217 0
M  V30 23886 H 2316.63 0.789932 3.88041 0
M  V30 23887 H 2317.8 3.5066 2.98955 0
M  V30 23888 H 2316.12 3.06381 2.81992 0
M  V30 23889 H 2318.71 1.51271 5.12856 0
M  V30 23890 H 2319.06 0.0991739 4.16182 0
M  V30 23891 H 2319.59 1.70095 3.596 0
M  V30 23892 H 2316.33 4.43361 4.82816 0
M  V30 23893 H 2315.85 2.79008 5.30956 0
M  V30 23894 H 2317.53 3.33658 5.5433 0
M  V30 23895 N 2317.66 -1.32267 0.856927 0
M  V30 23896 C 2318.94 -1.91821 0.382617 0
M  V30 23897 C 2319.32 -1.78053 -1.13404 0
M  V30 23898 O 2318.67 -1.18004 -1.95671 0
M  V30 23899 C 2318.88 -3.38503 0.849505 0
M  V30 23900 C 2320.22 -4.15633 0.868009 0
M  V30 23901 O 2321.25 -3.47231 0.794293 0
M  V30 23902 O 2320.11 -5.3778 0.972381 0
M  V30 23903 H 2317.2 -0.819377 0.112028 0
M  V30 23904 H 2319.75 -1.41022 0.943977 0
M  V30 23905 H 2318.52 -3.42478 1.89273 0
M  V30 23906 H 2318.14 -3.96711 0.265722 0
M  V30 23907 N 2319.14 -0.615084 -1.45102 0
M  V30 23908 C 2320.1 0.0895082 -2.29025 0
M  V30 23909 C 2321.1 0.787882 -1.40175 0
M  V30 23910 O 2322.29 0.634905 -1.62218 0
M  V30 23911 C 2319.42 1.13706 -3.21378 0
M  V30 23912 H 2320.62 -0.648433 -2.92806 0
M  V30 23913 H 2318.17 -0.37447 -1.51748 0
M  V30 23914 H 2318.9 1.90552 -2.62413 0
M  V30 23915 H 2318.69 0.640407 -3.86835 0
M  V30 23916 H 2320.18 1.6303 -3.84462 0
M  V30 23917 N 2320.62 1.53557 -0.354678 0
M  V30 23918 C 2321.57 2.22151 0.51314 0
M  V30 23919 C 2322.55 1.21283 1.05732 0
M  V30 23920 O 2323.74 1.4678 0.989176 0
M  V30 23921 C 2320.87 3.00612 1.65792 0
M  V30 23922 C 2319.96 4.08847 1.12714 0
M  V30 23923 N 2320.35 5.04796 0.318474 0
M  V30 23924 C 2318.65 4.23358 1.40299 0
M  V30 23925 C 2319.35 5.81693 0.0291202 0
M  V30 23926 N 2318.32 5.40009 0.623796 0
M  V30 23927 H 2322.13 2.93688 -0.111637 0
M  V30 23928 H 2319.64 1.61589 -0.16212 0
M  V30 23929 H 2321.64 3.48262 2.2917 0
M  V30 23930 H 2320.3 2.30604 2.28587 0
M  V30 23931 H 2321.31 5.17883 -0.0414001 0
M  V30 23932 H 2317.99 3.64573 2.03452 0
M  V30 23933 H 2319.38 6.68997 -0.623926 0
M  V30 23934 N 2322.1 0.083568 1.57378 0
M  V30 23935 C 2323.34 -0.582836 1.93931 0
M  V30 23936 C 2323.67 -1.68902 0.964484 0
M  V30 23937 O 2322.93 -1.95692 -0.017913 0
M  V30 23938 C 2323.22 -1.18834 3.37066 0
M  V30 23939 C 2322.89 -0.207114 4.50424 0
M  V30 23940 C 2321.55 0.0627961 4.81159 0
M  V30 23941 C 2323.9 0.463517 5.19135 0
M  V30 23942 C 2321.23 1.01023 5.77937 0
M  V30 23943 C 2323.58 1.39934 6.16929 0
M  V30 23944 C 2322.25 1.6776 6.46075 0
M  V30 23945 H 2321.52 -0.213275 0.709644 0
M  V30 23946 H 2324.17 0.15695 1.90856 0
M  V30 23947 H 2322.47 -2.00413 3.36663 0
M  V30 23948 H 2324.17 -1.71146 3.62643 0
M  V30 23949 H 2320.76 -0.427672 4.26461 0
M  V30 23950 H 2324.94 0.268121 4.95575 0
M  V30 23951 H 2320.2 1.23294 5.98839 0
M  V30 23952 H 2324.37 1.92488 6.69269 0
M  V30 23953 H 2322 2.41333 7.20876 0
M  V30 23954 N 2323.57 -1.5645 -0.190064 0
M  V30 23955 C 2324.5 -1.97971 -1.23813 0
M  V30 23956 C 2325.48 -0.85242 -1.472 0
M  V30 23957 O 2326.67 -1.11712 -1.58852 0
M  V30 23958 C 2323.8 -2.32354 -2.58126 0
M  V30 23959 C 2322.75 -3.47868 -2.49342 0
M  V30 23960 C 2322.08 -3.67941 -3.87974 0
M  V30 23961 C 2323.38 -4.81901 -2.01416 0
M  V30 23962 H 2325.07 -2.85771 -0.89306 0
M  V30 23963 H 2322.62 -1.37488 -0.428153 0
M  V30 23964 H 2324.57 -2.59997 -3.31632 0
M  V30 23965 H 2323.3 -1.41443 -2.94383 0
M  V30 23966 H 2321.96 -3.20324 -1.78291 0
M  V30 23967 H 2321.6 -2.74352 -4.21592 0
M  V30 23968 H 2321.3 -4.45654 -3.8297 0
M  V30 23969 H 2322.83 -3.97965 -4.63094 0
M  V30 23970 H 2324.24 -5.08542 -2.64684 0
M  V30 23971 H 2322.64 -5.6312 -2.07403 0
M  V30 23972 H 2323.71 -4.75148 -0.967593 0
M  V30 23973 N 2325.05 0.45796 -1.50799 0
M  V30 23974 C 2326.28 1.23665 -1.66499 0
M  V30 23975 C 2326.7 1.84752 -0.353321 0
M  V30 23976 O 2326.06 1.67889 0.684316 0
M  V30 23977 C 2326.11 2.31155 -2.76767 0
M  V30 23978 O 2325.21 3.36132 -2.38933 0
M  V30 23979 H 2324.55 0.363242 -0.555834 0
M  V30 23980 H 2327.08 0.543439 -1.97251 0
M  V30 23981 H 2327.09 2.76264 -3.00237 0
M  V30 23982 H 2325.77 1.86067 -3.71957 0
M  V30 23983 H 2324.34 2.96643 -2.25959 0
M  V30 23984 N 2326.53 1.40598 0.712035 0
M  V30 23985 C 2327.46 1.37064 1.83701 0
M  V30 23986 C 2328.47 0.275454 1.60453 0
M  V30 23987 O 2329.66 0.53605 1.70261 0
M  V30 23988 C 2326.76 1.11105 3.2017 0
M  V30 23989 C 2325.94 2.32347 3.70586 0
M  V30 23990 C 2325 2.02494 4.85678 0
M  V30 23991 O 2324.02 2.75391 4.98145 0
M  V30 23992 N 2325.22 1.00507 5.71733 0
M  V30 23993 H 2327.99 2.34019 1.8723 0
M  V30 23994 H 2325.55 1.34998 0.893715 0
M  V30 23995 H 2327.54 0.891134 3.94767 0
M  V30 23996 H 2326.11 0.228044 3.11767 0
M  V30 23997 H 2325.33 2.70145 2.8708 0
M  V30 23998 H 2326.62 3.13165 4.01006 0
M  V30 23999 H 2326.02 0.401397 5.64274 0
M  V30 24000 H 2324.57 0.845056 6.46299 0
M  V30 24001 N 2328.01 -0.94462 1.26153 0
M  V30 24002 C 2329.24 -1.72487 1.14262 0
M  V30 24003 C 2329.65 -1.86361 -0.302523 0
M  V30 24004 O 2329.01 -1.36852 -1.20739 0
M  V30 24005 C 2329.06 -3.13344 1.80272 0
M  V30 24006 O 2328.78 -3.00137 3.19138 0
M  V30 24007 C 2330.28 -4.076 1.7429 0
M  V30 24008 H 2327.5 -0.540174 0.398061 0
M  V30 24009 H 2330.04 -1.18443 1.66708 0
M  V30 24010 H 2328.2 -3.643 1.31772 0
M  V30 24011 H 2328.61 -3.89065 3.51751 0
M  V30 24012 H 2330.09 -5.04009 2.2512 0
M  V30 24013 H 2330.56 -4.33444 0.708708 0
M  V30 24014 H 2331.17 -3.62563 2.22325 0
M  V30 24015 N 2329.49 -1.07901 -1.1487 0
M  V30 24016 C 2330.43 -0.704357 -2.1979 0
M  V30 24017 C 2331.4 0.306958 -1.63239 0
M  V30 24018 O 2332.59 0.192137 -1.8983 0
M  V30 24019 C 2329.73 -0.114305 -3.44911 0
M  V30 24020 C 2328.84 -1.17777 -4.15635 0
M  V30 24021 C 2327.98 -0.55213 -5.28323 0
M  V30 24022 C 2327.01 -1.598 -5.90873 0
M  V30 24023 N 2326.15 -0.994526 -6.95021 0
M  V30 24024 H 2330.99 -1.6034 -2.51187 0
M  V30 24025 H 2328.53 -0.801373 -1.23355 0
M  V30 24026 H 2330.49 0.245471 -4.16477 0
M  V30 24027 H 2329.12 0.748075 -3.14012 0
M  V30 24028 H 2328.17 -1.65505 -3.42509 0
M  V30 24029 H 2329.48 -1.97054 -4.58226 0
M  V30 24030 H 2328.63 -0.140306 -6.06538 0
M  V30 24031 H 2327.37 0.272345 -4.86939 0
M  V30 24032 H 2326.38 -2.01954 -5.11366 0
M  V30 24033 H 2327.6 -2.42486 -6.34332 0
M  V30 24034 H 2325.55 -0.191054 -6.55722 0
M  V30 24035 H 2325.47 -1.72445 -7.3607 0
M  V30 24036 H 2326.73 -0.60839 -7.77122 0
M  V30 24037 N 2330.96 1.31811 -0.863929 0
M  V30 24038 C 2331.9 2.27574 -0.272525 0
M  V30 24039 C 2332.91 1.52828 0.561013 0
M  V30 24040 O 2334.1 1.74321 0.383991 0
M  V30 24041 C 2331.2 3.3294 0.632771 0
M  V30 24042 C 2330.37 4.37081 -0.166979 0
M  V30 24043 C 2329.43 5.21974 0.665516 0
M  V30 24044 O 2328.46 5.6912 0.0957091 0
M  V30 24045 N 2329.66 5.45739 1.9786 0
M  V30 24046 H 2332.42 2.78963 -1.09544 0
M  V30 24047 H 2329.98 1.44769 -0.724816 0
M  V30 24048 H 2331.98 3.86647 1.19526 0
M  V30 24049 H 2330.55 2.81641 1.35637 0
M  V30 24050 H 2329.77 3.83531 -0.910906 0
M  V30 24051 H 2331.05 5.03737 -0.715963 0
M  V30 24052 H 2330.45 5.09182 2.46475 0
M  V30 24053 H 2329.01 6.02405 2.48901 0
M  V30 24054 N 2332.44 0.62277 1.44773 0
M  V30 24055 C 2333.67 0.129004 2.06998 0
M  V30 24056 C 2334.09 -1.18387 1.46172 0
M  V30 24057 O 2333.45 -1.72433 0.560037 0
M  V30 24058 C 2333.5 0.0188985 3.60595 0
M  V30 24059 O 2332.6 -1.02732 3.99399 0
M  V30 24060 H 2331.94 0.0809659 0.659045 0
M  V30 24061 H 2334.47 0.857083 1.85783 0
M  V30 24062 H 2334.48 -0.174404 4.07627 0
M  V30 24063 H 2333.16 0.977455 4.04251 0
M  V30 24064 H 2331.73 -0.809262 3.64013 0
M  V30 24065 N 2333.92 -1.53367 0.362817 0
M  V30 24066 C 2335.17 -2.00818 -0.22729 0
M  V30 24067 C 2335.49 -1.25188 -1.49509 0
M  V30 24068 O 2334.76 -0.364382 -1.92481 0
M  V30 24069 H 2333.34 -0.741919 -0.0869792 0
M  V30 24070 H 2336 -1.88681 0.488414 0
M  V30 24071 H 2335.1 -3.08748 -0.456219 0
M  V30 24072 N 2335.4 -0.091913 -1.57332 0
M  V30 24073 C 2336.31 0.882467 -2.1737 0
M  V30 24074 C 2337.32 1.31255 -1.14228 0
M  V30 24075 O 2338.5 1.38112 -1.46585 0
M  V30 24076 C 2335.57 2.12471 -2.73965 0
M  V30 24077 C 2334.63 1.74913 -3.92051 0
M  V30 24078 C 2333.86 2.93215 -4.45938 0
M  V30 24079 O 2334.08 4.07845 -3.98771 0
M  V30 24080 O 2333.02 2.71866 -5.37003 0
M  V30 24081 H 2336.84 0.401667 -3.01032 0
M  V30 24082 H 2334.43 0.132264 -1.48813 0
M  V30 24083 H 2336.31 2.85278 -3.10152 0
M  V30 24084 H 2334.98 2.59609 -1.93351 0
M  V30 24085 H 2333.89 0.992961 -3.60681 0
M  V30 24086 H 2335.22 1.3254 -4.74019 0
M  V30 24087 N 2336.88 1.56548 0.181765 0
M  V30 24088 C 2337.82 1.96502 1.24457 0
M  V30 24089 C 2338.82 0.852287 1.46398 0
M  V30 24090 O 2340.02 1.03736 1.47102 0
M  V30 24091 H 2336.4 0.625039 0.418127 0
M  V30 24092 H 2338.37 2.85109 0.880664 0
M  V30 24093 C 2337.12 2.33216 2.57886 0
M  V30 24094 H 2336.44 3.18373 2.41823 0
M  V30 24095 H 2337.88 2.65025 3.30965 0
M  V30 24096 C 2336.34 1.17168 3.15869 0
M  V30 24097 O 2336.87 0.453779 3.99129 0
M  V30 24098 N 2335.08 0.944984 2.74806 0
M  V30 24099 H 2334.62 1.53053 2.07202 0
M  V30 24100 H 2334.58 0.170341 3.13938 0
M  V30 24101 N 2338.35 -0.449957 1.5104 0
M  V30 24102 C 2339.28 -1.55284 1.74382 0
M  V30 24103 C 2340.27 -1.59419 0.593264 0
M  V30 24104 O 2341.45 -1.75349 0.834656 0
M  V30 24105 C 2338.58 -2.93463 1.85734 0
M  V30 24106 C 2337.53 -3.04192 3.01083 0
M  V30 24107 C 2336.86 -4.44226 2.97603 0
M  V30 24108 C 2338.16 -2.79442 4.41259 0
M  V30 24109 H 2339.85 -1.36003 2.66727 0
M  V30 24110 H 2337.4 -0.652842 1.28351 0
M  V30 24111 H 2339.35 -3.70566 2.00646 0
M  V30 24112 H 2338.08 -3.13947 0.900262 0
M  V30 24113 H 2336.74 -2.29526 2.85855 0
M  V30 24114 H 2336.38 -4.61659 1.99699 0
M  V30 24115 H 2336.08 -4.52337 3.75054 0
M  V30 24116 H 2337.61 -5.2332 3.14592 0
M  V30 24117 H 2339.02 -3.46284 4.56903 0
M  V30 24118 H 2337.42 -2.98976 5.2032 0
M  V30 24119 H 2338.49 -1.75137 4.52167 0
M  V30 24120 N 2339.83 -1.40974 -0.704569 0
M  V30 24121 C 2341.24 -1.35523 -1.28415 0
M  V30 24122 C 2341.59 -0.0339779 -1.96171 0
M  V30 24123 O 2340.72 0.867909 -1.98233 0
M  V30 24124 C 2341.31 -2.45463 -2.33524 0
M  V30 24125 C 2339.87 -2.43438 -2.8708 0
M  V30 24126 C 2339.02 -2.25773 -1.61003 0
M  V30 24127 H 2341.97 -1.5062 -0.499936 0
M  V30 24128 H 2341.99 -2.14004 -3.14615 0
M  V30 24129 H 2341.5 -3.41612 -1.84181 0
M  V30 24130 H 2339.61 -1.51019 -3.40623 0
M  V30 24131 H 2339.72 -3.39425 -3.38124 0
M  V30 24132 H 2338.08 -1.73486 -1.86479 0
M  V30 24133 H 2338.87 -3.23935 -1.13669 0
M  V30 24134 N 2341.31 0.937917 -1.26653 0
M  V30 24135 C 2342.54 1.71629 -1.15009 0
M  V30 24136 C 2342.95 1.86854 0.296993 0
M  V30 24137 O 2342.29 1.37788 1.21491 0
M  V30 24138 C 2342.35 3.14036 -1.7499 0
M  V30 24139 C 2342.02 3.22184 -3.24108 0
M  V30 24140 C 2343.01 3.05212 -4.20882 0
M  V30 24141 C 2340.7 3.4547 -3.64631 0
M  V30 24142 C 2342.69 3.11398 -5.56156 0
M  V30 24143 C 2340.38 3.51291 -5.00038 0
M  V30 24144 C 2341.38 3.34272 -5.9561 0
M  V30 24145 O 2341.07 3.39808 -7.28551 0
M  V30 24146 H 2340.8 0.544078 -0.401192 0
M  V30 24147 H 2343.35 1.1841 -1.67834 0
M  V30 24148 H 2341.58 3.68693 -1.1663 0
M  V30 24149 H 2343.27 3.73799 -1.58205 0
M  V30 24150 H 2344.04 2.87074 -3.90914 0
M  V30 24151 H 2339.92 3.57772 -2.90724 0
M  V30 24152 H 2343.46 2.98032 -6.30732 0
M  V30 24153 H 2339.36 3.6895 -5.29666 0
M  V30 24154 H 2340.13 3.5633 -7.36866 0
M  V30 24155 N 2342.79 1.08509 1.14296 0
M  V30 24156 C 2343.72 0.737685 2.21541 0
M  V30 24157 C 2344.7 -0.280347 1.67774 0
M  V30 24158 O 2345.88 -0.150487 1.93616 0
M  V30 24159 C 2343.01 0.14732 3.46987 0
M  V30 24160 C 2341.97 1.09382 4.13787 0
M  V30 24161 C 2341.29 0.365618 5.33449 0
M  V30 24162 C 2342.59 2.43238 4.62204 0
M  V30 24163 H 2344.29 1.63435 2.50858 0
M  V30 24164 H 2341.83 0.787264 1.20574 0
M  V30 24165 H 2343.79 -0.107734 4.21262 0
M  V30 24166 H 2342.51 -0.784483 3.17039 0
M  V30 24167 H 2341.17 1.33399 3.41468 0
M  V30 24168 H 2340.82 -0.570022 4.9976 0
M  V30 24169 H 2340.52 0.996614 5.79087 0
M  V30 24170 H 2342.04 0.118641 6.10485 0
M  V30 24171 H 2343.46 2.23481 5.27948 0
M  V30 24172 H 2341.85 3.0204 5.18548 0
M  V30 24173 H 2342.92 3.04687 3.77218 0
M  V30 24174 N 2344.27 -1.31351 0.870907 0
M  V30 24175 C 2345.51 -1.96964 0.483022 0
M  V30 24176 C 2345.85 -1.68674 -0.962433 0
M  V30 24177 O 2345.12 -0.983739 -1.67788 0
M  V30 24178 C 2345.4 -3.52376 0.741814 0
M  V30 24179 C 2345.26 -3.90236 2.23687 0
M  V30 24180 C 2346.58 -4.39604 0.208915 0
M  V30 24181 H 2343.69 -0.715438 0.176967 0
M  V30 24182 H 2346.34 -1.55462 1.09232 0
M  V30 24183 H 2344.49 -3.87858 0.223217 0
M  V30 24184 H 2346.16 -3.64851 2.82279 0
M  V30 24185 H 2344.4 -3.38809 2.70907 0
M  V30 24186 H 2345.07 -4.986 2.36859 0
M  V30 24187 H 2347.55 -4.10951 0.652601 0
M  V30 24188 H 2346.42 -5.47295 0.419432 0
M  V30 24189 H 2346.69 -4.33065 -0.889199 0
M  V30 24190 N 2345.74 -0.630439 -1.44441 0
M  V30 24191 C 2346.71 0.065212 -2.29107 0
M  V30 24192 C 2347.71 0.77297 -1.41003 0
M  V30 24193 O 2348.9 0.617664 -1.62882 0
M  V30 24194 C 2346.03 1.10291 -3.22566 0
M  V30 24195 H 2347.22 -0.679453 -2.92102 0
M  V30 24196 H 2344.78 -0.390544 -1.51342 0
M  V30 24197 H 2345.51 1.87758 -2.64419 0
M  V30 24198 H 2345.3 0.599342 -3.87492 0
M  V30 24199 H 2346.79 1.58943 -3.8617 0
M  V30 24200 N 2347.22 1.53172 -0.370945 0
M  V30 24201 C 2348.45 2.05453 0.217352 0
M  V30 24202 C 2348.86 1.24385 1.42566 0
M  V30 24203 O 2348.2 0.278871 1.81571 0
M  V30 24204 C 2348.27 3.53206 0.669765 0
M  V30 24205 C 2347.93 4.55042 -0.42258 0
M  V30 24206 C 2348.93 5.04045 -1.27416 0
M  V30 24207 C 2346.61 4.98889 -0.584358 0
M  V30 24208 C 2348.61 5.95501 -2.27282 0
M  V30 24209 C 2346.29 5.9015 -1.58637 0
M  V30 24210 C 2347.29 6.38347 -2.42903 0
M  V30 24211 O 2346.98 7.27808 -3.41394 0
M  V30 24212 H 2346.71 0.674767 0.0408053 0
M  V30 24213 H 2349.26 1.98465 -0.529235 0
M  V30 24214 H 2347.49 3.57751 1.46804 0
M  V30 24215 H 2349.18 3.88319 1.18166 0
M  V30 24216 H 2349.95 4.70914 -1.1604 0
M  V30 24217 H 2345.83 4.60959 0.06177 0
M  V30 24218 H 2349.37 6.33043 -2.9309 0
M  V30 24219 H 2345.27 6.22696 -1.70059 0
M  V30 24220 H 2346.04 7.4582 -3.37187 0
M  V30 24221 N 2348.7 0.100255 1.57281 0
M  V30 24222 C 2349.63 -0.886935 2.11344 0
M  V30 24223 C 2350.65 -1.24259 1.05184 0
M  V30 24224 O 2351.83 -1.1948 1.32615 0
M  V30 24225 C 2348.93 -2.19449 2.58254 0
M  V30 24226 C 2348.11 -2.01339 3.88306 0
M  V30 24227 C 2347.17 -3.15654 4.2101 0
M  V30 24228 O 2346.19 -2.8939 4.90145 0
M  V30 24229 N 2347.39 -4.41568 3.76826 0
M  V30 24230 H 2350.16 -0.425163 2.96669 0
M  V30 24231 H 2347.72 -0.084705 1.61678 0
M  V30 24232 H 2349.71 -2.94883 2.77175 0
M  V30 24233 H 2348.28 -2.57034 1.77912 0
M  V30 24234 H 2347.5 -1.10205 3.78482 0
M  V30 24235 H 2348.79 -1.86522 4.73378 0
M  V30 24236 H 2348.19 -4.65787 3.21029 0
M  V30 24237 H 2346.75 -5.13935 4.00892 0
M  V30 24238 N 2350.18 -1.56643 -0.17346 0
M  V30 24239 C 2351.14 -1.95364 -1.19856 0
M  V30 24240 C 2352.14 -0.837064 -1.37295 0
M  V30 24241 O 2353.33 -1.10415 -1.34737 0
M  V30 24242 C 2350.46 -2.24658 -2.56401 0
M  V30 24243 H 2351.66 -2.87094 -0.867012 0
M  V30 24244 H 2349.21 -1.50667 -0.415827 0
M  V30 24245 H 2349.95 -1.35636 -2.94573 0
M  V30 24246 H 2349.73 -3.06045 -2.4511 0
M  V30 24247 H 2351.22 -2.55546 -3.30282 0
M  V30 24248 N 2351.66 0.44194 -1.51277 0
M  V30 24249 C 2352.89 1.21431 -1.67518 0
M  V30 24250 C 2353.3 1.85127 -0.370582 0
M  V30 24251 O 2352.66 1.70514 0.650468 0
M  V30 24252 C 2352.71 2.30172 -2.78752 0
M  V30 24253 O 2352.43 1.69082 -4.04157 0
M  V30 24254 C 2353.93 3.20535 -3.06222 0
M  V30 24255 H 2351.15 0.366168 -0.562283 0
M  V30 24256 H 2353.69 0.524209 -1.97667 0
M  V30 24257 H 2351.85 2.94906 -2.51215 0
M  V30 24258 H 2352.26 2.40914 -4.65898 0
M  V30 24259 H 2353.74 3.92981 -3.87647 0
M  V30 24260 H 2354.21 3.81023 -2.18445 0
M  V30 24261 H 2354.82 2.61507 -3.35401 0
M  V30 24262 N 2353.14 1.41345 0.697083 0
M  V30 24263 C 2354.38 1.4083 1.45928 0
M  V30 24264 C 2354.71 0.0167439 1.94193 0
M  V30 24265 O 2353.99 -0.955233 1.69427 0
M  V30 24266 C 2354.27 2.41377 2.67224 0
M  V30 24267 C 2354.13 3.89634 2.24735 0
M  V30 24268 C 2355.44 2.39202 3.69419 0
M  V30 24269 H 2352.56 0.512852 0.529294 0
M  V30 24270 H 2355.21 1.7261 0.794082 0
M  V30 24271 H 2353.36 2.14407 3.23978 0
M  V30 24272 H 2355.03 4.27502 1.7332 0
M  V30 24273 H 2353.27 4.04573 1.56535 0
M  V30 24274 H 2353.94 4.55531 3.11762 0
M  V30 24275 H 2356.42 2.63133 3.22335 0
M  V30 24276 H 2355.29 3.11571 4.51901 0
M  V30 24277 H 2355.55 1.41008 4.1901 0
M  V30 24278 N 2354.61 -0.931187 1.27148 0
M  V30 24279 C 2355.85 -1.6931 1.14514 0
M  V30 24280 C 2356.22 -1.89568 -0.304605 0
M  V30 24281 O 2357.42 -2.63044 -0.553297 0
M  V30 24282 C 2355.69 -3.0249 1.90354 0
M  V30 24283 S 2357.25 -3.93639 1.93891 0
M  V30 24284 H 2354.07 -0.581677 0.408868 0
M  V30 24285 H 2356.67 -1.1089 1.61008 0
M  V30 24286 H 2355.37 -2.85434 2.94882 0
M  V30 24287 H 2354.9 -3.65964 1.4434 0
M  V30 24288 H 2356.92 -4.85332 1.03282 0
M  V30 24289 N 2356.09 -1.09114 -1.13719 0
M  V30 24290 C 2357.05 -0.73128 -2.17221 0
M  V30 24291 C 2358.05 0.237538 -1.59036 0
M  V30 24292 O 2359.24 0.0161398 -1.74193 0
M  V30 24293 C 2356.38 -0.0809042 -3.40804 0
M  V30 24294 H 2357.57 -1.64787 -2.5057 0
M  V30 24295 H 2355.12 -0.889919 -1.28492 0
M  V30 24296 H 2355.86 0.847072 -3.13042 0
M  V30 24297 H 2355.64 -0.777963 -3.84305 0
M  V30 24298 H 2357.13 0.155584 -4.1731 0
M  V30 24299 N 2357.57 1.30887 -0.877861 0
M  V30 24300 C 2358.99 1.49041 -0.57087 0
M  V30 24301 C 2359.19 1.80625 0.893127 0
M  V30 24302 O 2358.24 1.88961 1.67481 0
M  V30 24303 C 2359.55 2.61876 -1.47789 0
M  V30 24304 C 2361.1 2.75758 -1.48076 0
M  V30 24305 C 2361.58 3.91698 -2.37354 0
M  V30 24306 N 2363.07 3.98997 -2.35278 0
M  V30 24307 C 2363.8 4.87999 -3.01072 0
M  V30 24308 N 2363.3 5.81847 -3.76066 0
M  V30 24309 N 2365.09 4.8131 -2.9034 0
M  V30 24310 H 2357.24 1.08656 -1.82504 0
M  V30 24311 H 2359.51 0.53763 -0.780806 0
M  V30 24312 H 2359.21 2.45337 -2.51998 0
M  V30 24313 H 2359.09 3.58195 -1.18222 0
M  V30 24314 H 2361.47 2.91707 -0.446217 0
M  V30 24315 H 2361.55 1.80082 -1.81671 0
M  V30 24316 H 2361.2 3.76506 -3.40889 0
M  V30 24317 H 2361.13 4.86698 -2.01079 0
M  V30 24318 H 2363.62 3.31857 -1.80774 0
M  V30 24319 H 2363.93 6.46507 -4.23378 0
M  V30 24320 H 2362.28 5.81802 -3.80174 0
M  V30 24321 H 2365.47 4.0697 -2.31285 0
M  V30 24322 H 2365.64 5.50465 -3.41895 0
M  V30 24323 N 2359.05 0.638091 1.44105 0
M  V30 24324 C 2360.01 -0.053061 2.29139 0
M  V30 24325 C 2361.01 -0.765481 1.41411 0
M  V30 24326 O 2362.2 -0.609017 1.63207 0
M  V30 24327 C 2359.33 -1.08579 3.23146 0
M  V30 24328 H 2360.53 0.694934 2.91737 0
M  V30 24329 H 2358.08 0.398565 1.51133 0
M  V30 24330 H 2358.81 -1.86353 2.65411 0
M  V30 24331 H 2358.6 -0.578784 3.87805 0
M  V30 24332 H 2360.09 -1.56893 3.87007 0
M  V30 24333 N 2360.53 -1.52973 0.379063 0
M  V30 24334 C 2361.46 -2.23771 -0.495923 0
M  V30 24335 C 2362.47 -1.25652 -1.03515 0
M  V30 24336 O 2363.66 -1.51792 -0.939222 0
M  V30 24337 C 2360.76 -2.93242 -1.69889 0
M  V30 24338 C 2359.93 -4.17981 -1.28883 0
M  V30 24339 C 2358.99 -4.70542 -2.35535 0
M  V30 24340 O 2358.02 -5.33887 -1.97366 0
M  V30 24341 N 2359.22 -4.49515 -3.6731 0
M  V30 24342 H 2361.98 -2.99496 0.110575 0
M  V30 24343 H 2359.55 -1.60598 0.204906 0
M  V30 24344 H 2361.54 -3.25309 -2.40741 0
M  V30 24345 H 2360.11 -2.20887 -2.21196 0
M  V30 24346 H 2359.33 -3.92066 -0.409607 0
M  V30 24347 H 2360.62 -4.99049 -0.991356 0
M  V30 24348 H 2360.01 -3.9893 -4.01088 0
M  V30 24349 H 2358.57 -4.86097 -4.34227 0
M  V30 24350 N 2362 -0.108595 -1.57225 0
M  V30 24351 C 2362.97 0.831044 -2.13603 0
M  V30 24352 C 2363.97 1.20171 -1.06843 0
M  V30 24353 O 2365.16 1.12893 -1.32668 0
M  V30 24354 C 2362.29 2.12239 -2.66772 0
M  V30 24355 H 2363.48 0.341265 -2.97952 0
M  V30 24356 H 2361.03 0.140542 -1.55667 0
M  V30 24357 H 2361.77 2.65671 -1.85982 0
M  V30 24358 H 2361.55 1.86619 -3.44842 0
M  V30 24359 H 2363.04 2.79429 -3.10337 0
M  V30 24360 N 2363.48 1.56732 0.16515 0
M  V30 24361 C 2364.89 1.71963 0.727016 0
M  V30 24362 C 2365.24 0.72011 1.82507 0
M  V30 24363 O 2364.37 -0.117204 2.16082 0
M  V30 24364 C 2364.96 3.11793 1.32554 0
M  V30 24365 C 2363.52 3.28688 1.83416 0
M  V30 24366 C 2362.67 2.6791 0.71552 0
M  V30 24367 H 2365.62 1.58585 -0.0603175 0
M  V30 24368 H 2365.64 3.10786 2.19528 0
M  V30 24369 H 2365.15 3.84517 0.526127 0
M  V30 24370 H 2363.25 2.6093 2.65981 0
M  V30 24371 H 2363.37 4.36482 1.97536 0
M  V30 24372 H 2361.73 2.27886 1.13754 0
M  V30 24373 H 2362.51 3.43224 -0.0721439 0
M  V30 24374 N 2364.96 -0.433911 1.51509 0
M  V30 24375 C 2366.37 -1.01366 1.56786 0
M  V30 24376 C 2366.72 -1.92216 0.393383 0
M  V30 24377 O 2365.85 -2.10793 -0.489404 0
M  V30 24378 C 2366.44 -1.84515 2.84147 0
M  V30 24379 C 2365 -2.37533 2.91984 0
M  V30 24380 C 2364.15 -1.16839 2.51484 0
M  V30 24381 H 2367.1 -0.215053 1.57236 0
M  V30 24382 H 2367.12 -2.70002 2.68103 0
M  V30 24383 H 2366.63 -1.18366 3.69609 0
M  V30 24384 H 2364.73 -3.07126 2.1096 0
M  V30 24385 H 2364.85 -2.70096 3.95708 0
M  V30 24386 H 2363.21 -1.51477 2.0476 0
M  V30 24387 H 2363.99 -0.522955 3.39293 0
M  V30 24388 N 2366.44 -1.41713 -0.689577 0
M  V30 24389 C 2367.85 -1.36877 -1.26971 0
M  V30 24390 C 2368.2 -0.0547825 -1.96124 0
M  V30 24391 O 2367.33 0.846835 -1.99142 0
M  V30 24392 C 2367.92 -2.47926 -2.30907 0
M  V30 24393 C 2366.48 -2.46469 -2.84482 0
M  V30 24394 C 2365.63 -2.27468 -1.58599 0
M  V30 24395 H 2368.58 -1.51142 -0.483933 0
M  V30 24396 H 2368.6 -2.17329 -3.12328 0
M  V30 24397 H 2368.11 -3.43546 -1.80548 0
M  V30 24398 H 2366.21 -1.54623 -3.39002 0
M  V30 24399 H 2366.32 -3.42992 -3.34504 0
M  V30 24400 H 2364.69 -1.75455 -1.84629 0
M  V30 24401 H 2365.47 -3.25123 -1.10227 0
M  V30 24402 N 2367.92 0.924431 -1.2764 0
M  V30 24403 C 2369.14 1.71177 -1.17104 0
M  V30 24404 C 2369.57 1.8618 0.268101 0
M  V30 24405 O 2368.92 1.3642 1.19413 0
M  V30 24406 C 2368.97 3.08736 -1.86319 0
M  V30 24407 O 2368.08 3.9565 -1.16338 0
M  V30 24408 H 2367.42 0.524562 -0.4071 0
M  V30 24409 H 2369.95 1.15663 -1.68769 0
M  V30 24410 H 2369.96 3.59031 -1.93806 0
M  V30 24411 H 2368.63 2.97133 -2.91006 0
M  V30 24412 H 2367.21 3.54089 -1.16941 0
M  V30 24413 N 2369.39 1.09715 1.13139 0
M  V30 24414 C 2370.64 0.846136 1.84965 0
M  V30 24415 C 2371 -0.621569 1.82083 0
M  V30 24416 O 2370.29 -1.45198 1.25013 0
M  V30 24417 C 2370.48 1.31916 3.32164 0
M  V30 24418 C 2370.31 2.83131 3.49381 0
M  V30 24419 C 2369.08 3.51045 3.6345 0
M  V30 24420 C 2371.28 3.81262 3.45172 0
M  V30 24421 N 2369.26 4.90657 3.68957 0
M  V30 24422 C 2370.63 5.06843 3.57085 0
M  V30 24423 C 2372.69 3.74075 3.28591 0
M  V30 24424 C 2371.39 6.26087 3.54129 0
M  V30 24425 C 2373.42 4.9281 3.26945 0
M  V30 24426 C 2372.78 6.17235 3.39411 0
M  V30 24427 H 2368.88 0.362524 0.692893 0
M  V30 24428 H 2371.46 1.3981 1.35504 0
M  V30 24429 H 2369.63 0.794602 3.80185 0
M  V30 24430 H 2371.36 1.01315 3.91813 0
M  V30 24431 H 2368.12 3.01478 3.65251 0
M  V30 24432 H 2368.54 5.6339 3.75394 0
M  V30 24433 H 2373.19 2.788 3.17853 0
M  V30 24434 H 2370.9 7.21659 3.6364 0
M  V30 24435 H 2374.49 4.8895 3.15308 0
M  V30 24436 H 2373.37 7.07571 3.38102 0
M  V30 24437 N 2370.87 -1.30419 0.88479 0
M  V30 24438 C 2372.15 -1.90967 0.423219 0
M  V30 24439 C 2372.53 -1.80418 -1.09601 0
M  V30 24440 O 2371.88 -1.22128 -1.93124 0
M  V30 24441 C 2372.09 -3.36625 0.921115 0
M  V30 24442 C 2373.44 -4.13698 0.955976 0
M  V30 24443 O 2374.46 -3.45468 0.867767 0
M  V30 24444 O 2373.32 -5.35596 1.08623 0
M  V30 24445 H 2370.41 -0.816816 0.129383 0
M  V30 24446 H 2372.96 -1.38988 0.973678 0
M  V30 24447 H 2371.73 -3.38386 1.96495 0
M  V30 24448 H 2371.35 -3.96058 0.34981 0
M  V30 24449 N 2372.35 -0.645724 -1.43764 0
M  V30 24450 C 2373.28 0.0890203 -2.29027 0
M  V30 24451 C 2374.3 0.794538 -1.42095 0
M  V30 24452 O 2375.48 0.653546 -1.66105 0
M  V30 24453 C 2372.58 1.14886 -3.18833 0
M  V30 24454 C 2371.76 0.522967 -4.34262 0
M  V30 24455 C 2370.82 1.47869 -5.04996 0
M  V30 24456 O 2369.84 0.990179 -5.60521 0
M  V30 24457 N 2371.04 2.81282 -5.078 0
M  V30 24458 H 2373.81 -0.642771 -2.92726 0
M  V30 24459 H 2371.37 -0.487951 -1.54372 0
M  V30 24460 H 2373.36 1.78885 -3.63018 0
M  V30 24461 H 2371.93 1.7827 -2.56785 0
M  V30 24462 H 2371.15 -0.295965 -3.93087 0
M  V30 24463 H 2372.44 0.0857253 -5.08728 0
M  V30 24464 H 2371.84 3.23537 -4.64047 0
M  V30 24465 H 2370.4 3.40604 -5.55727 0
M  V30 24466 N 2373.83 1.5277 -0.38717 0
M  V30 24467 C 2374.76 2.22809 0.493084 0
M  V30 24468 C 2375.74 1.228 1.06578 0
M  V30 24469 O 2376.92 1.51779 1.11783 0
M  V30 24470 C 2374.05 2.93965 1.68232 0
M  V30 24471 C 2373.1 4.08225 1.23508 0
M  V30 24472 S 2373.93 5.35055 0.218386 0
M  V30 24473 C 2375.09 6.09731 1.41346 0
M  V30 24474 H 2375.32 2.97126 -0.101678 0
M  V30 24475 H 2372.85 1.53446 -0.17135 0
M  V30 24476 H 2374.81 3.35571 2.36437 0
M  V30 24477 H 2373.47 2.19332 2.24838 0
M  V30 24478 H 2372.66 4.57106 2.12296 0
M  V30 24479 H 2372.27 3.68622 0.631979 0
M  V30 24480 H 2374.56 6.35774 2.3409 0
M  V30 24481 H 2375.5 7.01485 0.965613 0
M  V30 24482 H 2375.91 5.40476 1.6293 0
M  V30 24483 N 2375.31 0.116931 1.57166 0
M  V30 24484 C 2376.55 -0.536132 1.96207 0
M  V30 24485 C 2376.91 -1.64421 0.999179 0
M  V30 24486 O 2376.2 -1.91578 0.0288532 0
M  V30 24487 C 2376.39 -1.11658 3.3951 0
M  V30 24488 C 2376.22 -0.0662684 4.49651 0
M  V30 24489 C 2374.99 0.364829 5.03981 0
M  V30 24490 C 2377.19 0.713918 5.09321 0
M  V30 24491 N 2375.17 1.40113 5.97697 0
M  V30 24492 C 2376.54 1.60147 5.9896 0
M  V30 24493 C 2378.6 0.765034 4.91987 0
M  V30 24494 C 2377.3 2.53568 6.73124 0
M  V30 24495 C 2379.33 1.68695 5.6683 0
M  V30 24496 C 2378.69 2.56208 6.56153 0
M  V30 24497 H 2374.79 -0.165872 0.764206 0
M  V30 24498 H 2377.37 0.204569 1.93622 0
M  V30 24499 H 2375.54 -1.82701 3.42746 0
M  V30 24500 H 2377.28 -1.73379 3.6568 0
M  V30 24501 H 2374.03 -0.0271687 4.73592 0
M  V30 24502 H 2374.46 1.91814 6.49258 0
M  V30 24503 H 2379.1 0.102575 4.22676 0
M  V30 24504 H 2376.82 3.20829 7.41684 0
M  V30 24505 H 2380.4 1.73191 5.55424 0
M  V30 24506 H 2379.28 3.26385 7.13052 0
M  V30 24507 N 2376.78 -1.56818 -0.156836 0
M  V30 24508 C 2377.73 -1.97521 -1.1939 0
M  V30 24509 C 2378.7 -0.84129 -1.43218 0
M  V30 24510 O 2379.89 -1.10258 -1.55717 0
M  V30 24511 C 2377.03 -2.35263 -2.52479 0
M  V30 24512 C 2376.14 -3.619 -2.35907 0
M  V30 24513 C 2375.27 -3.88789 -3.61962 0
M  V30 24514 C 2374.31 -5.08728 -3.40386 0
M  V30 24515 N 2373.45 -5.31676 -4.58547 0
M  V30 24516 H 2378.29 -2.85922 -0.839795 0
M  V30 24517 H 2375.83 -1.41465 -0.403239 0
M  V30 24518 H 2377.79 -2.55171 -3.30066 0
M  V30 24519 H 2376.42 -1.49954 -2.85856 0
M  V30 24520 H 2375.47 -3.49824 -1.49423 0
M  V30 24521 H 2376.78 -4.49645 -2.15918 0
M  V30 24522 H 2375.93 -4.09142 -4.47981 0
M  V30 24523 H 2374.67 -2.99447 -3.84945 0
M  V30 24524 H 2373.68 -4.88257 -2.52754 0
M  V30 24525 H 2374.9 -5.99613 -3.18811 0
M  V30 24526 H 2372.85 -4.45287 -4.81721 0
M  V30 24527 H 2372.77 -6.13671 -4.41524 0
M  V30 24528 H 2374.03 -5.5652 -5.45807 0
M  V30 24529 N 2378.26 0.425871 -1.51737 0
M  V30 24530 C 2379.5 1.18368 -1.66638 0
M  V30 24531 C 2379.87 1.88204 -0.379887 0
M  V30 24532 O 2381.07 2.65734 -0.404805 0
M  V30 24533 C 2379.34 2.16471 -2.84385 0
M  V30 24534 S 2380.9 3.00584 -3.19679 0
M  V30 24535 H 2377.72 0.40124 -0.586965 0
M  V30 24536 H 2380.32 0.473484 -1.8968 0
M  V30 24537 H 2379.02 1.63824 -3.76284 0
M  V30 24538 H 2378.55 2.92054 -2.63567 0
M  V30 24539 H 2380.57 4.1824 -2.67001 0
M  V30 24540 N 2379.74 1.42077 0.682052 0
M  V30 24541 C 2380.67 1.4777 1.80793 0
M  V30 24542 C 2381.65 0.334983 1.66769 0
M  V30 24543 O 2382.84 0.548297 1.86299 0
M  V30 24544 C 2379.97 1.37235 3.19036 0
M  V30 24545 C 2378.92 2.49459 3.47785 0
M  V30 24546 C 2378.25 2.23983 4.85526 0
M  V30 24547 C 2379.55 3.91783 3.45404 0
M  V30 24548 H 2381.24 2.42 1.76285 0
M  V30 24549 H 2378.79 1.16477 0.846701 0
M  V30 24550 H 2380.74 1.39828 3.97525 0
M  V30 24551 H 2379.46 0.394964 3.24203 0
M  V30 24552 H 2378.12 2.46171 2.71653 0
M  V30 24553 H 2377.77 1.24556 4.87334 0
M  V30 24554 H 2377.47 2.99193 5.05725 0
M  V30 24555 H 2378.99 2.28314 5.66308 0
M  V30 24556 H 2380.41 3.96712 4.13875 0
M  V30 24557 H 2378.81 4.66784 3.77137 0
M  V30 24558 H 2379.88 4.1897 2.44115 0
M  V30 24559 N 2381.22 -0.917649 1.28129 0
M  V30 24560 C 2382.47 -1.66095 1.14435 0
M  V30 24561 C 2382.78 -1.93172 -0.307213 0
M  V30 24562 O 2383.99 -2.65552 -0.565212 0
M  V30 24563 C 2382.44 -2.99199 2.0002 0
M  V30 24564 C 2382.05 -2.79783 3.49893 0
M  V30 24565 C 2383.8 -3.7706 1.95002 0
M  V30 24566 C 2381.7 -4.08503 4.27643 0
M  V30 24567 H 2380.63 -0.623032 0.424673 0
M  V30 24568 H 2383.28 -1.01865 1.52629 0
M  V30 24569 H 2381.67 -3.64542 1.54678 0
M  V30 24570 H 2382.84 -2.23145 4.03166 0
M  V30 24571 H 2381.15 -2.15339 3.56396 0
M  V30 24572 H 2383.75 -4.72465 2.50362 0
M  V30 24573 H 2384.09 -4.05873 0.92589 0
M  V30 24574 H 2384.63 -3.1853 2.38293 0
M  V30 24575 H 2381.37 -3.84865 5.30621 0
M  V30 24576 H 2380.89 -4.64768 3.79145 0
M  V30 24577 H 2382.57 -4.76791 4.37355 0
M  V30 24578 N 2382.7 -1.10314 -1.12555 0
M  V30 24579 C 2384.11 -0.834673 -1.36034 0
M  V30 24580 C 2384.31 0.546505 -1.93947 0
M  V30 24581 O 2383.37 1.29962 -2.16486 0
M  V30 24582 C 2384.68 -1.93335 -2.30309 0
M  V30 24583 C 2386.23 -1.96164 -2.43903 0
M  V30 24584 C 2386.71 -3.05201 -3.41491 0
M  V30 24585 N 2388.2 -3.045 -3.49047 0
M  V30 24586 C 2388.93 -3.8551 -4.24464 0
M  V30 24587 N 2388.43 -4.76451 -5.02957 0
M  V30 24588 N 2390.22 -3.73732 -4.19858 0
M  V30 24589 H 2382.37 -1.99343 -0.733211 0
M  V30 24590 H 2384.63 -0.866204 -0.385219 0
M  V30 24591 H 2384.34 -2.92739 -1.94928 0
M  V30 24592 H 2384.21 -1.81944 -3.30418 0
M  V30 24593 H 2386.6 -0.973935 -2.78565 0
M  V30 24594 H 2386.68 -2.11632 -1.43686 0
M  V30 24595 H 2386.33 -4.04191 -3.07558 0
M  V30 24596 H 2386.26 -2.86976 -4.41534 0
M  V30 24597 H 2388.75 -2.38601 -2.93049 0
M  V30 24598 H 2389.06 -5.34825 -5.57837 0
M  V30 24599 H 2387.41 -4.80481 -5.02158 0
M  V30 24600 H 2390.6 -3.02038 -3.57618 0
M  V30 24601 H 2390.77 -4.37102 -4.78378 0
M  V30 24602 N 2384.18 1.29948 -0.891694 0
M  V30 24603 C 2385.11 2.3039 -0.379838 0
M  V30 24604 C 2386.09 1.61271 0.540891 0
M  V30 24605 O 2387.27 1.88835 0.453319 0
M  V30 24606 C 2384.4 3.44982 0.400593 0
M  V30 24607 C 2383.36 4.25845 -0.42898 0
M  V30 24608 C 2382.68 5.32555 0.478463 0
M  V30 24609 C 2383.98 4.94724 -1.67467 0
M  V30 24610 H 2385.68 2.73452 -1.21919 0
M  V30 24611 H 2383.22 1.31461 -0.587698 0
M  V30 24612 H 2385.17 4.14317 0.769361 0
M  V30 24613 H 2383.9 3.00742 1.27365 0
M  V30 24614 H 2382.56 3.58207 -0.779974 0
M  V30 24615 H 2382.21 4.84561 1.34943 0
M  V30 24616 H 2381.91 5.87555 -0.0728465 0
M  V30 24617 H 2383.43 6.04744 0.843599 0
M  V30 24618 H 2384.84 5.5654 -1.3761 0
M  V30 24619 H 2383.24 5.5962 -2.16668 0
M  V30 24620 H 2384.31 4.20468 -2.41525 0
M  V30 24621 N 2385.65 0.653339 1.4342 0
M  V30 24622 C 2386.6 -0.0381866 2.30768 0
M  V30 24623 C 2387.57 -0.814551 1.44756 0
M  V30 24624 O 2388.76 -0.791131 1.73625 0
M  V30 24625 C 2385.9 -0.998541 3.30338 0
M  V30 24626 C 2385.01 -0.218266 4.31448 0
M  V30 24627 C 2384.14 -1.17243 5.181 0
M  V30 24628 C 2383.18 -0.382595 6.10903 0
M  V30 24629 N 2382.32 -1.28836 6.90178 0
M  V30 24630 H 2387.16 0.712562 2.89355 0
M  V30 24631 H 2384.7 0.363153 1.42547 0
M  V30 24632 H 2386.65 -1.56894 3.86575 0
M  V30 24633 H 2385.28 -1.71616 2.734 0
M  V30 24634 H 2384.34 0.468427 3.77505 0
M  V30 24635 H 2385.65 0.395899 4.97226 0
M  V30 24636 H 2384.8 -1.81346 5.78963 0
M  V30 24637 H 2383.54 -1.8205 4.52448 0
M  V30 24638 H 2382.55 0.271787 5.49128 0
M  V30 24639 H 2383.77 0.261076 6.78598 0
M  V30 24640 H 2381.72 -1.92323 6.27175 0
M  V30 24641 H 2381.63 -0.728755 7.52479 0
M  V30 24642 H 2382.9 -1.91753 7.55547 0
M  V30 24643 N 2387.13 -1.52563 0.395266 0
M  V30 24644 C 2388.54 -1.86539 -0.0774391 0
M  V30 24645 C 2388.89 -1.31468 -1.45638 0
M  V30 24646 O 2388.02 -0.648403 -2.06457 0
M  V30 24647 C 2388.61 -3.3848 -0.147297 0
M  V30 24648 C 2387.17 -3.72146 -0.564308 0
M  V30 24649 C 2386.32 -2.75983 0.269968 0
M  V30 24650 H 2389.27 -1.46387 0.612902 0
M  V30 24651 H 2389.29 -3.68052 -0.965278 0
M  V30 24652 H 2388.8 -3.78532 0.856454 0
M  V30 24653 H 2386.9 -3.37665 -1.57521 0
M  V30 24654 H 2387.02 -4.78041 -0.318318 0
M  V30 24655 H 2385.38 -2.53311 -0.265651 0
M  V30 24656 H 2386.16 -3.18873 1.27181 0
M  V30 24657 N 2388.61 -0.125265 -1.57101 0
M  V30 24658 C 2389.84 0.538761 -1.99762 0
M  V30 24659 C 2390.25 1.59825 -1.00506 0
M  V30 24660 O 2389.61 1.825 0.00116266 0
M  V30 24661 C 2389.66 1.15921 -3.4241 0
M  V30 24662 O 2389.38 0.142066 -4.3787 0
M  V30 24663 C 2390.88 1.90595 -4.00235 0
M  V30 24664 H 2388.1 0.142129 -0.655775 0
M  V30 24665 H 2390.65 -0.213449 -2.03383 0
M  V30 24666 H 2388.8 1.86217 -3.39709 0
M  V30 24667 H 2389.22 0.593683 -5.21129 0
M  V30 24668 H 2390.69 2.29326 -5.02109 0
M  V30 24669 H 2391.17 2.78357 -3.39726 0
M  V30 24670 H 2391.77 1.25048 -4.06501 0
M  V30 24671 N 2390.09 1.56899 0.148518 0
M  V30 24672 C 2391.02 2.01184 1.18521 0
M  V30 24673 C 2392 0.891148 1.44888 0
M  V30 24674 O 2393.18 1.15885 1.55834 0
M  V30 24675 C 2390.31 2.39116 2.51874 0
M  V30 24676 C 2389.27 3.54357 2.40031 0
M  V30 24677 C 2388.59 3.78098 3.78082 0
M  V30 24678 C 2389.89 4.87072 1.88568 0
M  V30 24679 H 2391.59 2.88038 0.816979 0
M  V30 24680 H 2389.13 1.38574 0.39155 0
M  V30 24681 H 2391.09 2.68698 3.24622 0
M  V30 24682 H 2389.81 1.49198 2.9053 0
M  V30 24683 H 2388.47 3.24939 1.69736 0
M  V30 24684 H 2388.12 2.85433 4.1417 0
M  V30 24685 H 2387.82 4.55651 3.7102 0
M  V30 24686 H 2389.34 4.10103 4.5238 0
M  V30 24687 H 2390.76 5.15381 2.51108 0
M  V30 24688 H 2389.15 5.68421 1.924 0
M  V30 24689 H 2390.22 4.77546 0.841276 0
M  V30 24690 N 2391.57 -0.417818 1.51961 0
M  V30 24691 C 2392.52 -1.50737 1.71062 0
M  V30 24692 C 2393.5 -1.50672 0.564513 0
M  V30 24693 O 2394.69 -1.56795 0.821233 0
M  V30 24694 C 2391.82 -2.88751 1.85682 0
M  V30 24695 C 2390.91 -2.93497 3.06138 0
M  V30 24696 N 2391.3 -2.67954 4.28992 0
M  V30 24697 C 2389.6 -3.24664 3.05793 0
M  V30 24698 C 2390.3 -2.79046 5.104 0
M  V30 24699 N 2389.27 -3.11554 4.45461 0
M  V30 24700 H 2393.07 -1.2977 2.63698 0
M  V30 24701 H 2390.59 -0.625409 1.49875 0
M  V30 24702 H 2392.59 -3.6716 1.97481 0
M  V30 24703 H 2391.25 -3.10723 0.942403 0
M  V30 24704 H 2392.26 -2.42512 4.57612 0
M  V30 24705 H 2388.93 -3.52286 2.24056 0
M  V30 24706 H 2390.32 -2.63086 6.18252 0
M  V30 24707 N 2393.04 -1.42436 -0.674508 0
M  V30 24708 C 2394.29 -1.42639 -1.43173 0
M  V30 24709 C 2394.61 -0.0439335 -1.94951 0
M  V30 24710 O 2393.88 0.917577 -1.73082 0
M  V30 24711 H 2392.46 -0.525101 -0.531298 0
M  V30 24712 H 2395.12 -1.7786 -0.796975 0
M  V30 24713 H 2394.22 -2.12633 -2.2846 0
M  V30 24714 N 2394.52 0.910841 -1.28614 0
M  V30 24715 C 2395.93 1.47539 -1.14408 0
M  V30 24716 C 2396.28 1.94404 0.264867 0
M  V30 24717 O 2395.41 1.82721 1.15939 0
M  V30 24718 C 2396 2.6815 -2.07078 0
M  V30 24719 C 2394.56 3.20774 -1.96928 0
M  V30 24720 C 2393.71 1.93477 -1.9865 0
M  V30 24721 H 2396.66 0.723266 -1.41261 0
M  V30 24722 H 2396.68 3.43511 -1.63648 0
M  V30 24723 H 2396.19 2.34009 -3.09615 0
M  V30 24724 H 2394.29 3.59634 -0.974393 0
M  V30 24725 H 2394.41 3.85827 -2.84032 0
M  V30 24726 H 2392.77 2.10702 -1.43096 0
M  V30 24727 H 2393.55 1.61629 -3.02871 0
M  V30 24728 N 2396 1.10909 1.11969 0
M  V30 24729 C 2397.23 0.876857 1.874 0
M  V30 24730 C 2397.64 -0.572993 1.79895 0
M  V30 24731 O 2397 -1.39532 1.17631 0
M  V30 24732 C 2397.05 1.32288 3.36426 0
M  V30 24733 O 2396.77 2.71588 3.43761 0
M  V30 24734 C 2398.27 1.12526 4.28781 0
M  V30 24735 H 2395.49 0.314395 0.592788 0
M  V30 24736 H 2398.04 1.47501 1.41646 0
M  V30 24737 H 2396.19 0.768295 3.79705 0
M  V30 24738 H 2396.61 2.90784 4.36515 0
M  V30 24739 H 2398.08 1.48642 5.3161 0
M  V30 24740 H 2398.56 0.0643166 4.39153 0
M  V30 24741 H 2399.16 1.66655 3.91288 0
M  V30 24742 N 2397.48 -1.29474 0.898573 0
M  V30 24743 C 2398.89 -1.77704 0.572568 0
M  V30 24744 C 2399.24 -1.73729 -0.911747 0
M  V30 24745 O 2398.37 -1.3225 -1.71286 0
M  V30 24746 C 2398.96 -3.22682 1.03257 0
M  V30 24747 C 2397.52 -3.68694 0.757752 0
M  V30 24748 C 2396.67 -2.49609 1.20791 0
M  V30 24749 H 2399.62 -1.16151 1.08141 0
M  V30 24750 H 2399.64 -3.78722 0.367374 0
M  V30 24751 H 2399.15 -3.25543 2.11291 0
M  V30 24752 H 2397.25 -3.71308 -0.310014 0
M  V30 24753 H 2397.36 -4.59544 1.35484 0
M  V30 24754 H 2395.73 -2.46864 0.626931 0
M  V30 24755 H 2396.51 -2.55199 2.29626 0
M  V30 24756 N 2398.96 -0.660936 -1.43071 0
M  V30 24757 C 2399.89 0.0122419 -2.33497 0
M  V30 24758 C 2400.87 0.803899 -1.49905 0
M  V30 24759 O 2402.05 0.763833 -1.78548 0
M  V30 24760 C 2399.18 0.973936 -3.33364 0
M  V30 24761 C 2398.14 0.291852 -4.27004 0
M  V30 24762 C 2397.46 1.36553 -5.16969 0
M  V30 24763 C 2398.76 -0.820552 -5.15814 0
M  V30 24764 H 2400.46 -0.742924 -2.90036 0
M  V30 24765 H 2398 -0.358713 -1.39461 0
M  V30 24766 H 2399.96 1.45385 -3.95527 0
M  V30 24767 H 2398.68 1.76036 -2.75098 0
M  V30 24768 H 2397.34 -0.167687 -3.66216 0
M  V30 24769 H 2396.99 2.14358 -4.55038 0
M  V30 24770 H 2396.69 0.914352 -5.80442 0
M  V30 24771 H 2398.21 1.84665 -5.82006 0
M  V30 24772 H 2399.62 -0.422467 -5.71741 0
M  V30 24773 H 2398.02 -1.19667 -5.88048 0
M  V30 24774 H 2399.09 -1.67526 -4.55042 0
M  V30 24775 N 2400.43 1.52351 -0.403352 0
M  V30 24776 C 2401.36 2.29761 0.416165 0
M  V30 24777 C 2402.35 1.3373 1.0512 0
M  V30 24778 O 2403.53 1.62634 1.06131 0
M  V30 24779 C 2400.66 3.11478 1.53619 0
M  V30 24780 C 2399.61 4.15509 1.02645 0
M  V30 24781 C 2398.94 4.85535 2.23963 0
M  V30 24782 C 2400.24 5.22232 0.0845382 0
M  V30 24783 H 2401.93 2.98517 -0.229754 0
M  V30 24784 H 2399.48 1.43564 -0.111938 0
M  V30 24785 H 2401.43 3.64397 2.11644 0
M  V30 24786 H 2400.16 2.40481 2.2099 0
M  V30 24787 H 2398.82 3.63592 0.468646 0
M  V30 24788 H 2398.46 4.11073 2.89876 0
M  V30 24789 H 2398.16 5.55859 1.90511 0
M  V30 24790 H 2399.69 5.41264 2.82605 0
M  V30 24791 H 2401.1 5.70425 0.573409 0
M  V30 24792 H 2399.5 5.99884 -0.160889 0
M  V30 24793 H 2400.57 4.77168 -0.862454 0
M  V30 24794 N 2401.91 0.133594 1.57033 0
M  V30 24795 C 2403.14 -0.527394 1.99755 0
M  V30 24796 C 2403.55 -1.5983 1.01247 0
M  V30 24797 O 2402.89 -1.837 -0.000613206 0
M  V30 24798 C 2402.96 -1.19933 3.38905 0
M  V30 24799 C 2402.62 -0.274629 4.56174 0
M  V30 24800 C 2403.62 0.492489 5.17562 0
M  V30 24801 C 2401.3 -0.181442 5.01972 0
M  V30 24802 C 2403.3 1.34038 6.23147 0
M  V30 24803 C 2400.98 0.670065 6.07415 0
M  V30 24804 C 2401.98 1.42959 6.67871 0
M  V30 24805 O 2401.67 2.26693 7.71275 0
M  V30 24806 H 2401.4 -0.142988 0.660705 0
M  V30 24807 H 2403.95 0.221135 2.04206 0
M  V30 24808 H 2402.18 -1.99522 3.31252 0
M  V30 24809 H 2403.87 -1.75869 3.65821 0
M  V30 24810 H 2404.64 0.430452 4.83086 0
M  V30 24811 H 2400.52 -0.762342 4.54653 0
M  V30 24812 H 2404.06 1.93369 6.70264 0
M  V30 24813 H 2399.96 0.733443 6.4132 0
M  V30 24814 H 2400.73 2.19794 7.88437 0
M  V30 24815 N 2403.39 -1.56975 -0.140195 0
M  V30 24816 C 2404.81 -1.51793 -0.493061 0
M  V30 24817 C 2405.01 -0.843148 -1.83012 0
M  V30 24818 O 2404.06 -0.416537 -2.49041 0
M  V30 24819 C 2405.38 -2.96563 -0.497092 0
M  V30 24820 C 2406.92 -3.07539 -0.582132 0
M  V30 24821 C 2407.4 -4.53828 -0.616759 0
M  V30 24822 N 2408.89 -4.58199 -0.678793 0
M  V30 24823 C 2409.62 -5.68777 -0.726682 0
M  V30 24824 N 2409.12 -6.88906 -0.733502 0
M  V30 24825 N 2410.91 -5.56828 -0.768081 0
M  V30 24826 H 2403.06 -1.99235 0.736143 0
M  V30 24827 H 2405.33 -0.908975 0.269198 0
M  V30 24828 H 2405.03 -3.49216 0.417278 0
M  V30 24829 H 2404.91 -3.52877 -1.33257 0
M  V30 24830 H 2407.29 -2.54901 -1.48692 0
M  V30 24831 H 2407.38 -2.54256 0.280625 0
M  V30 24832 H 2407.02 -5.07106 0.283901 0
M  V30 24833 H 2406.95 -5.049 -1.4961 0
M  V30 24834 H 2409.44 -3.71722 -0.680545 0
M  V30 24835 H 2409.75 -7.68934 -0.77208 0
M  V30 24836 H 2408.1 -6.91453 -0.701268 0
M  V30 24837 H 2411.29 -4.6189 -0.75997 0
M  V30 24838 H 2411.46 -6.43019 -0.801937 0
M  V30 24839 N 2404.87 0.409753 -1.5218 0
M  V30 24840 C 2405.8 1.50606 -1.78438 0
M  V30 24841 C 2406.78 1.5779 -0.635323 0
M  V30 24842 O 2407.96 1.73074 -0.880853 0
M  V30 24843 C 2405.09 2.88435 -1.93449 0
M  V30 24844 C 2404.05 2.96102 -3.09043 0
M  V30 24845 C 2403.37 4.36179 -3.09276 0
M  V30 24846 C 2404.67 2.67645 -4.48513 0
M  V30 24847 H 2406.37 1.28884 -2.70239 0
M  V30 24848 H 2403.91 0.618582 -1.30037 0
M  V30 24849 H 2405.87 3.65116 -2.10401 0
M  V30 24850 H 2404.59 3.1145 -0.983184 0
M  V30 24851 H 2403.25 2.21866 -2.9184 0
M  V30 24852 H 2402.9 4.56202 -2.11869 0
M  V30 24853 H 2402.6 4.42234 -3.86915 0
M  V30 24854 H 2404.12 5.14795 -3.28357 0
M  V30 24855 H 2405.54 3.34048 -4.65924 0
M  V30 24856 H 2403.93 2.85076 -5.28064 0
M  V30 24857 H 2405 1.63087 -4.56652 0
M  V30 24858 N 2406.35 1.42792 0.666944 0
M  V30 24859 C 2407.59 1.43397 1.42414 0
M  V30 24860 C 2407.92 0.0542716 1.94924 0
M  V30 24861 O 2407.19 -0.908385 1.73566 0
M  V30 24862 H 2405.77 0.527911 0.528506 0
M  V30 24863 H 2408.43 1.78281 0.787531 0
M  V30 24864 H 2407.52 2.13841 2.27329 0
M  V30 24865 N 2407.82 -0.904008 1.29095 0
M  V30 24866 C 2408.79 -1.98917 1.13863 0
M  V30 24867 C 2409.79 -1.60623 0.0753739 0
M  V30 24868 O 2410.98 -1.71199 0.321961 0
M  V30 24869 C 2408.11 -3.32766 0.740257 0
M  V30 24870 H 2409.3 -2.13858 2.1025 0
M  V30 24871 H 2406.86 -1.08795 1.1222 0
M  V30 24872 H 2407.59 -3.23526 -0.223941 0
M  V30 24873 H 2407.38 -3.61923 1.50844 0
M  V30 24874 H 2408.87 -4.12405 0.656619 0
M  V30 24875 N 2409.3 -1.11501 -1.11379 0
M  V30 24876 C 2410.55 -0.865544 -1.83402 0
M  V30 24877 C 2410.88 0.607296 -1.8446 0
M  V30 24878 O 2410.16 1.4484 -1.29814 0
M  V30 24879 C 2410.44 -1.42861 -3.30549 0
M  V30 24880 C 2410.29 -2.96912 -3.37881 0
M  V30 24881 C 2411.61 -1.08007 -4.26641 0
M  V30 24882 H 2408.73 -0.315882 -0.665874 0
M  V30 24883 H 2411.37 -1.38 -1.30598 0
M  V30 24884 H 2409.52 -0.991051 -3.75647 0
M  V30 24885 H 2411.19 -3.49276 -3.01337 0
M  V30 24886 H 2409.44 -3.32946 -2.78082 0
M  V30 24887 H 2410.11 -3.31397 -4.41452 0
M  V30 24888 H 2412.58 -1.45782 -3.89727 0
M  V30 24889 H 2411.46 -1.50081 -5.27984 0
M  V30 24890 H 2411.72 0.00907266 -4.42099 0
M  V30 24891 N 2410.78 1.28995 -0.905426 0
M  V30 24892 C 2411.71 2.26592 -0.344788 0
M  V30 24893 C 2412.73 1.54536 0.512108 0
M  V30 24894 O 2413.92 1.75454 0.328337 0
M  V30 24895 C 2411.02 3.34785 0.526528 0
M  V30 24896 C 2410.19 4.36329 -0.305948 0
M  V30 24897 C 2409.25 5.23828 0.499117 0
M  V30 24898 O 2408.27 5.69136 -0.0854004 0
M  V30 24899 N 2409.48 5.51758 1.80398 0
M  V30 24900 H 2412.24 2.75336 -1.18364 0
M  V30 24901 H 2409.8 1.4239 -0.770506 0
M  V30 24902 H 2411.79 3.90254 1.07164 0
M  V30 24903 H 2410.36 2.85813 1.26608 0
M  V30 24904 H 2409.58 3.80439 -1.03246 0
M  V30 24905 H 2410.87 5.01205 -0.875861 0
M  V30 24906 H 2410.27 5.16766 2.30151 0
M  V30 24907 H 2408.83 6.10019 2.2961 0
M  V30 24908 N 2412.26 0.668514 1.42719 0
M  V30 24909 C 2413.21 -0.0254448 2.32586 0
M  V30 24910 C 2414.2 -0.79715 1.49472 0
M  V30 24911 O 2415.41 -0.705823 1.65584 0
M  V30 24912 H 2411.78 -0.0270207 0.751514 0
M  V30 24913 H 2413.75 0.749987 2.88821 0
M  V30 24914 C 2412.5 -0.967368 3.33972 0
M  V30 24915 H 2411.83 -0.382978 3.97961 0
M  V30 24916 H 2413.27 -1.42174 3.99453 0
M  V30 24917 C 2411.72 -2.07075 2.65747 0
M  V30 24918 O 2412.25 -3.15644 2.48459 0
M  V30 24919 N 2410.46 -1.84066 2.24873 0
M  V30 24920 H 2410.01 -0.957738 2.39134 0
M  V30 24921 H 2409.97 -2.58083 1.79557 0
M  V30 24922 N 2413.74 -1.52135 0.411426 0
M  V30 24923 C 2414.65 -2.30815 -0.419734 0
M  V30 24924 C 2415.66 -1.38636 -1.05148 0
M  V30 24925 O 2416.84 -1.71711 -1.05249 0
M  V30 24926 C 2413.9 -3.11597 -1.52014 0
M  V30 24927 C 2412.97 -4.19518 -0.911216 0
M  V30 24928 C 2412.2 -4.96439 -1.95918 0
M  V30 24929 O 2412.42 -4.73688 -3.17767 0
M  V30 24930 O 2411.36 -5.81222 -1.56413 0
M  V30 24931 H 2415.18 -3.02889 0.221858 0
M  V30 24932 H 2412.77 -1.48377 0.174573 0
M  V30 24933 H 2414.65 -3.61896 -2.15891 0
M  V30 24934 H 2413.32 -2.42314 -2.14629 0
M  V30 24935 H 2412.23 -3.73361 -0.235091 0
M  V30 24936 H 2413.56 -4.911 -0.328954 0
M  V30 24937 N 2415.22 -0.14192 -1.5696 0
M  V30 24938 C 2416.46 0.510393 -1.95136 0
M  V30 24939 C 2416.78 1.66347 -1.02899 0
M  V30 24940 O 2417.98 2.38007 -1.30633 0
M  V30 24941 C 2416.44 0.959366 -3.46878 0
M  V30 24942 C 2416.05 -0.166497 -4.47691 0
M  V30 24943 C 2417.79 1.58176 -3.9393 0
M  V30 24944 C 2415.7 0.300461 -5.90636 0
M  V30 24945 H 2414.63 0.194441 -0.728498 0
M  V30 24946 H 2417.28 -0.225452 -1.8211 0
M  V30 24947 H 2415.66 1.75032 -3.55218 0
M  V30 24948 H 2416.84 -0.943329 -4.51041 0
M  V30 24949 H 2415.15 -0.696977 -4.10526 0
M  V30 24950 H 2417.75 1.94266 -4.98161 0
M  V30 24951 H 2418.09 2.46882 -3.35194 0
M  V30 24952 H 2418.62 0.855795 -3.88486 0
M  V30 24953 H 2415.36 -0.551104 -6.53179 0
M  V30 24954 H 2414.88 1.04328 -5.90657 0
M  V30 24955 H 2416.56 0.754152 -6.4259 0
M  V30 24956 N 2416.69 1.57047 0.131868 0
M  V30 24957 C 2417.92 1.88343 0.856428 0
M  V30 24958 C 2418.34 0.731787 1.74041 0
M  V30 24959 O 2417.69 -0.297914 1.80052 0
M  V30 24960 C 2417.74 3.19002 1.70058 0
M  V30 24961 O 2417.47 4.29731 0.852203 0
M  V30 24962 C 2418.97 3.63915 2.53141 0
M  V30 24963 H 2416.19 0.623934 0.246874 0
M  V30 24964 H 2418.73 2.04147 0.120117 0
M  V30 24965 H 2416.89 3.04906 2.38979 0
M  V30 24966 H 2417.3 5.04539 1.4332 0
M  V30 24967 H 2418.77 4.58135 3.07923 0
M  V30 24968 H 2419.25 2.8994 3.29896 0
M  V30 24969 H 2419.86 3.80756 1.89486 0
M  V30 24970 N 2418.17 -0.401677 1.52395 0
M  V30 24971 C 2419.1 -1.49658 1.79234 0
M  V30 24972 C 2420.08 -1.57451 0.643682 0
M  V30 24973 O 2421.27 -1.72604 0.89002 0
M  V30 24974 C 2418.4 -2.87405 1.94976 0
M  V30 24975 C 2417.35 -2.94459 3.10609 0
M  V30 24976 C 2416.68 -4.34533 3.11585 0
M  V30 24977 C 2417.98 -2.65262 4.49926 0
M  V30 24978 H 2419.67 -1.27449 2.70919 0
M  V30 24979 H 2417.22 -0.611677 1.30363 0
M  V30 24980 H 2419.17 -3.63995 2.12334 0
M  V30 24981 H 2417.89 -3.10924 0.999687 0
M  V30 24982 H 2416.55 -2.20316 2.93013 0
M  V30 24983 H 2416.2 -4.55072 2.14285 0
M  V30 24984 H 2415.9 -4.40176 3.89255 0
M  V30 24985 H 2417.43 -5.13047 3.31082 0
M  V30 24986 H 2418.84 -3.31573 4.67689 0
M  V30 24987 H 2417.24 -2.82271 5.29569 0
M  V30 24988 H 2418.31 -1.60663 4.5751 0
M  V30 24989 N 2419.65 -1.43144 -0.659362 0
M  V30 24990 C 2420.88 -1.47863 -1.44721 0
M  V30 24991 C 2421.29 -0.0946217 -1.88563 0
M  V30 24992 O 2420.65 0.893887 -1.5911 0
M  V30 24993 C 2420.7 -2.41918 -2.68623 0
M  V30 24994 O 2420.42 -3.74936 -2.26616 0
M  V30 24995 C 2421.92 -2.55816 -3.6204 0
M  V30 24996 H 2419.14 -0.502395 -0.444792 0
M  V30 24997 H 2421.69 -1.87823 -0.808883 0
M  V30 24998 H 2419.84 -2.0517 -3.28609 0
M  V30 24999 H 2420.26 -4.25455 -3.06738 0
M  V30 25000 H 2421.73 -3.25715 -4.45661 0
M  V30 25001 H 2422.21 -1.60106 -4.08978 0
M  V30 25002 H 2422.81 -2.93349 -3.07939 0
M  V30 25003 N 2421.13 0.897149 -1.29572 0
M  V30 25004 C 2422.08 1.98853 -1.11542 0
M  V30 25005 C 2423.06 1.60864 -0.0340998 0
M  V30 25006 O 2424.25 1.75138 -0.256093 0
M  V30 25007 C 2421.38 3.33928 -0.796661 0
M  V30 25008 C 2420.47 3.78269 -1.91765 0
M  V30 25009 N 2420.86 3.9482 -3.1615 0
M  V30 25010 C 2419.16 4.07565 -1.81126 0
M  V30 25011 C 2419.86 4.32226 -3.89301 0
M  V30 25012 N 2418.83 4.41413 -3.17263 0
M  V30 25013 H 2422.64 2.09722 -2.05897 0
M  V30 25014 H 2420.15 1.08614 -1.20734 0
M  V30 25015 H 2422.15 4.11825 -0.648531 0
M  V30 25016 H 2420.81 3.24403 0.138946 0
M  V30 25017 H 2421.82 3.80282 -3.51576 0
M  V30 25018 H 2418.5 4.06582 -0.948533 0
M  V30 25019 H 2419.89 4.52856 -4.96357 0
M  V30 25020 N 2422.61 1.1209 1.10786 0
M  V30 25021 C 2424.02 0.888939 1.64179 0
M  V30 25022 C 2424.37 -0.577465 1.87509 0
M  V30 25023 O 2423.49 -1.44109 1.61436 0
M  V30 25024 C 2424.09 1.60717 2.98254 0
M  V30 25025 C 2422.65 1.42145 3.48528 0
M  V30 25026 C 2421.79 1.64544 2.23205 0
M  V30 25027 H 2424.74 1.27619 0.943346 0
M  V30 25028 H 2424.77 1.05611 3.6555 0
M  V30 25029 H 2424.28 2.67441 2.81242 0
M  V30 25030 H 2422.38 0.376617 3.70692 0
M  V30 25031 H 2422.49 2.17512 4.26879 0
M  V30 25032 H 2420.86 1.06929 2.31167 0
M  V30 25033 H 2421.64 2.72557 2.08728 0
M  V30 25034 N 2424.08 -1.28513 0.912254 0
M  V30 25035 C 2425.33 -1.95327 0.54544 0
M  V30 25036 C 2425.66 -1.7165 -0.908283 0
M  V30 25037 O 2424.94 -1.03662 -1.64573 0
M  V30 25038 C 2425.22 -3.49838 0.853544 0
M  V30 25039 C 2425.07 -3.82922 2.35989 0
M  V30 25040 C 2426.39 -4.38717 0.348666 0
M  V30 25041 H 2423.51 -0.709446 0.199639 0
M  V30 25042 H 2426.15 -1.51908 1.14123 0
M  V30 25043 H 2424.3 -3.86952 0.346498 0
M  V30 25044 H 2425.98 -3.55686 2.93744 0
M  V30 25045 H 2424.22 -3.30019 2.81549 0
M  V30 25046 H 2424.89 -4.90812 2.52602 0
M  V30 25047 H 2427.37 -4.08666 0.783012 0
M  V30 25048 H 2426.24 -5.45684 0.593338 0
M  V30 25049 H 2426.5 -4.35675 -0.750973 0
M  V30 25050 N 2425.56 -0.676073 -1.42362 0
M  V30 25051 C 2426.79 -0.207304 -2.05859 0
M  V30 25052 C 2427.21 1.13602 -1.50798 0
M  V30 25053 O 2426.56 1.70597 -0.648295 0
M  V30 25054 C 2426.61 -0.135039 -3.61248 0
M  V30 25055 O 2426.33 -1.42528 -4.14267 0
M  V30 25056 C 2427.84 0.357073 -4.4186 0
M  V30 25057 H 2425.06 -0.100514 -0.663429 0
M  V30 25058 H 2427.6 -0.923168 -1.82477 0
M  V30 25059 H 2425.75 0.531521 -3.83736 0
M  V30 25060 H 2426.17 -1.29948 -5.08147 0
M  V30 25061 H 2427.64 0.356544 -5.50847 0
M  V30 25062 H 2428.12 1.39256 -4.16539 0
M  V30 25063 H 2428.73 -0.277794 -4.24392 0
M  V30 25064 N 2427.04 1.51915 -0.419488 0
M  V30 25065 C 2427.99 2.27292 0.400887 0
M  V30 25066 C 2428.96 1.30133 1.03221 0
M  V30 25067 O 2430.14 1.59011 1.05452 0
M  V30 25068 C 2427.28 3.10507 1.50597 0
M  V30 25069 C 2426.4 4.22637 0.894546 0
M  V30 25070 C 2425.53 4.93192 1.97319 0
M  V30 25071 C 2424.57 5.97269 1.33925 0
M  V30 25072 N 2423.71 6.61302 2.35848 0
M  V30 25073 H 2428.55 2.96964 -0.248304 0
M  V30 25074 H 2426.08 1.46486 -0.134292 0
M  V30 25075 H 2428.04 3.57066 2.15777 0
M  V30 25076 H 2426.67 2.42985 2.12505 0
M  V30 25077 H 2425.72 3.80173 0.131516 0
M  V30 25078 H 2427.04 4.97261 0.391553 0
M  V30 25079 H 2426.19 5.43209 2.70202 0
M  V30 25080 H 2424.93 4.18159 2.50987 0
M  V30 25081 H 2423.93 5.46562 0.5958 0
M  V30 25082 H 2425.16 6.7425 0.810133 0
M  V30 25083 H 2423.1 5.89092 2.88629 0
M  V30 25084 H 2423.02 7.31633 1.9039 0
M  V30 25085 H 2424.29 7.15954 3.08269 0
M  V30 25086 N 2428.52 0.150242 1.56882 0
M  V30 25087 C 2429.75 -0.506178 2.00303 0
M  V30 25088 C 2430.16 -1.58747 1.02937 0
M  V30 25089 O 2429.5 -1.8369 0.0188707 0
M  V30 25090 C 2429.56 -1.16331 3.40158 0
M  V30 25091 C 2429.23 -0.22623 4.5644 0
M  V30 25092 C 2430.22 0.547356 5.17011 0
M  V30 25093 C 2427.91 -0.128191 5.02136 0
M  V30 25094 C 2429.9 1.4064 6.21691 0
M  V30 25095 C 2427.59 0.734452 6.0667 0
M  V30 25096 C 2428.59 1.50035 6.66317 0
M  V30 25097 O 2428.27 2.34861 7.68827 0
M  V30 25098 H 2428.01 -0.135972 0.662184 0
M  V30 25099 H 2430.56 0.242782 2.0396 0
M  V30 25100 H 2428.79 -1.95998 3.33349 0
M  V30 25101 H 2430.48 -1.71979 3.67666 0
M  V30 25102 H 2431.25 0.481665 4.82602 0
M  V30 25103 H 2427.12 -0.714077 4.55436 0
M  V30 25104 H 2430.67 2.00467 6.68176 0
M  V30 25105 H 2426.57 0.801422 6.40506 0
M  V30 25106 H 2427.33 2.28144 7.86061 0
M  V30 25107 N 2430 -1.57115 -0.123538 0
M  V30 25108 C 2431.25 -1.83801 -0.830672 0
M  V30 25109 C 2431.56 -0.73519 -1.81258 0
M  V30 25110 O 2432.76 -0.888323 -2.56556 0
M  V30 25111 C 2431.22 -3.25855 -1.52796 0
M  V30 25112 C 2430.83 -4.44134 -0.587278 0
M  V30 25113 C 2432.57 -3.61793 -2.2205 0
M  V30 25114 C 2430.48 -5.77214 -1.28754 0
M  V30 25115 H 2429.41 -0.685528 -0.313955 0
M  V30 25116 H 2432.06 -1.8331 -0.0834037 0
M  V30 25117 H 2430.44 -3.20801 -2.32169 0
M  V30 25118 H 2431.62 -4.60475 0.17291 0
M  V30 25119 H 2429.93 -4.164 -0.00194572 0
M  V30 25120 H 2432.53 -4.58488 -2.75123 0
M  V30 25121 H 2432.87 -2.89002 -2.99639 0
M  V30 25122 H 2433.4 -3.68611 -1.4957 0
M  V30 25123 H 2430.14 -6.53163 -0.553025 0
M  V30 25124 H 2429.66 -5.64767 -2.01985 0
M  V30 25125 H 2431.34 -6.20816 -1.82199 0
M  V30 25126 N 2431.47 0.393589 -1.52606 0
M  V30 25127 C 2432.41 1.50199 -1.71801 0
M  V30 25128 C 2433.39 1.5244 -0.565769 0
M  V30 25129 O 2434.57 1.70914 -0.795017 0
M  V30 25130 C 2431.7 2.88682 -1.77145 0
M  V30 25131 C 2430.74 3.04287 -2.98851 0
M  V30 25132 S 2431.58 2.75968 -4.58914 0
M  V30 25133 C 2432.73 4.16652 -4.67067 0
M  V30 25134 H 2432.96 1.33691 -2.65545 0
M  V30 25135 H 2430.5 0.58617 -1.42841 0
M  V30 25136 H 2432.46 3.68486 -1.8091 0
M  V30 25137 H 2431.12 3.0252 -0.845022 0
M  V30 25138 H 2430.31 4.05641 -2.99118 0
M  V30 25139 H 2429.91 2.32369 -2.93054 0
M  V30 25140 H 2432.2 5.10515 -4.454 0
M  V30 25141 H 2433.15 4.21402 -5.69057 0
M  V30 25142 H 2433.55 4.02347 -3.95951 0
M  V30 25143 N 2432.95 1.43492 0.651762 0
M  V30 25144 C 2434.18 1.48629 1.43934 0
M  V30 25145 C 2434.6 0.10462 1.8851 0
M  V30 25146 O 2433.95 -0.885436 1.59582 0
M  V30 25147 C 2434 2.43339 2.67336 0
M  V30 25148 O 2433.72 3.76132 2.24624 0
M  V30 25149 C 2435.23 2.57732 3.60679 0
M  V30 25150 H 2432.45 0.504747 0.442121 0
M  V30 25151 H 2434.99 1.88249 0.798911 0
M  V30 25152 H 2433.14 2.0691 3.27516 0
M  V30 25153 H 2433.56 4.27076 3.04477 0
M  V30 25154 H 2435.03 3.28074 4.43927 0
M  V30 25155 H 2435.51 1.62272 4.08123 0
M  V30 25156 H 2436.12 2.94978 3.06379 0
M  V30 25157 N 2434.43 -0.890264 1.30046 0
M  V30 25158 C 2435.67 -1.65582 1.19842 0
M  V30 25159 C 2436.03 -1.90441 -0.244141 0
M  V30 25160 O 2437.24 -2.64671 -0.469331 0
M  V30 25161 C 2435.51 -2.96281 1.99881 0
M  V30 25162 S 2437.07 -3.87271 2.06316 0
M  V30 25163 H 2433.88 -0.568374 0.427167 0
M  V30 25164 H 2436.49 -1.05712 1.64455 0
M  V30 25165 H 2435.19 -2.75908 3.03814 0
M  V30 25166 H 2434.72 -3.61187 1.5591 0
M  V30 25167 H 2436.74 -4.81801 1.1867 0
M  V30 25168 N 2435.91 -1.12676 -1.1019 0
M  V30 25169 C 2436.84 -0.740663 -2.15846 0
M  V30 25170 C 2437.82 0.269393 -1.60353 0
M  V30 25171 O 2439 0.162747 -1.87796 0
M  V30 25172 C 2436.13 -0.0967005 -3.38562 0
M  V30 25173 C 2435.18 -1.07399 -4.12756 0
M  V30 25174 S 2436.01 -2.60275 -4.67993 0
M  V30 25175 C 2437.17 -1.97217 -5.94017 0
M  V30 25176 H 2437.4 -1.63562 -2.48263 0
M  V30 25177 H 2434.93 -0.946109 -1.22017 0
M  V30 25178 H 2436.89 0.268463 -4.09621 0
M  V30 25179 H 2435.55 0.775409 -3.04378 0
M  V30 25180 H 2434.74 -0.571085 -5.00754 0
M  V30 25181 H 2434.35 -1.38222 -3.47521 0
M  V30 25182 H 2436.64 -1.31645 -6.64587 0
M  V30 25183 H 2437.58 -2.83264 -6.48974 0
M  V30 25184 H 2437.99 -1.42695 -5.46167 0
M  V30 25185 N 2437.39 1.28028 -0.919057 0
M  V30 25186 C 2438.61 1.99402 -0.570392 0
M  V30 25187 C 2439.04 1.68179 0.842456 0
M  V30 25188 O 2438.39 0.917169 1.5639 0
M  V30 25189 C 2438.44 3.51781 -0.792603 0
M  V30 25190 O 2437.55 4.12142 0.145915 0
M  V30 25191 H 2436.89 0.626296 -0.220566 0
M  V30 25192 H 2439.42 1.63051 -1.23595 0
M  V30 25193 H 2439.43 4.01867 -0.704779 0
M  V30 25194 H 2438.1 3.7384 -1.82253 0
M  V30 25195 H 2436.68 3.72899 0.00890974 0
M  V30 25196 N 2438.86 0.683613 1.42002 0
M  V30 25197 C 2439.83 0.0198645 2.29191 0
M  V30 25198 C 2440.83 -0.720105 1.43775 0
M  V30 25199 O 2442.02 -0.556786 1.65062 0
M  V30 25200 C 2439.15 -0.98243 3.26437 0
M  V30 25201 H 2440.34 0.787396 2.89379 0
M  V30 25202 H 2437.9 0.446445 1.49788 0
M  V30 25203 H 2438.63 -1.77814 2.71206 0
M  V30 25204 H 2438.42 -0.455113 3.8945 0
M  V30 25205 H 2439.91 -1.44501 3.91803 0
M  V30 25206 N 2440.34 -1.5169 0.427538 0
M  V30 25207 C 2441.62 -1.94558 -0.20165 0
M  V30 25208 C 2442 -1.36562 -1.60979 0
M  V30 25209 O 2441.35 -0.548741 -2.21813 0
M  V30 25210 C 2441.56 -3.48486 -0.189333 0
M  V30 25211 C 2442.91 -4.22714 -0.399706 0
M  V30 25212 O 2443.93 -3.55191 -0.267882 0
M  V30 25213 O 2442.79 -5.42486 -0.661153 0
M  V30 25214 H 2439.88 -0.815866 -0.135247 0
M  V30 25215 H 2442.43 -1.62627 0.484811 0
M  V30 25216 H 2441.2 -3.83129 0.795498 0
M  V30 25217 H 2440.82 -3.86831 -0.919119 0
M  V30 25218 N 2441.82 -0.15856 -1.568 0
M  V30 25219 C 2442.75 0.77257 -2.20349 0
M  V30 25220 C 2443.73 1.24857 -1.1552 0
M  V30 25221 O 2444.92 1.30404 -1.43905 0
M  V30 25222 C 2442.05 2.00724 -2.83421 0
M  V30 25223 C 2441 1.66758 -3.94177 0
M  V30 25224 C 2440.33 2.97584 -4.44238 0
M  V30 25225 C 2441.63 0.905357 -5.14393 0
M  V30 25226 H 2443.32 0.242906 -2.98413 0
M  V30 25227 H 2440.87 0.115393 -1.43537 0
M  V30 25228 H 2442.82 2.66354 -3.26548 0
M  V30 25229 H 2441.54 2.56082 -2.02705 0
M  V30 25230 H 2440.2 1.03502 -3.51686 0
M  V30 25231 H 2439.85 3.50957 -3.60331 0
M  V30 25232 H 2439.55 2.75617 -5.1895 0
M  V30 25233 H 2441.08 3.64266 -4.90044 0
M  V30 25234 H 2442.49 1.46398 -5.54293 0
M  V30 25235 H 2440.89 0.785195 -5.94941 0
M  V30 25236 H 2441.96 -0.100753 -4.84795 0
M  V30 25237 N 2443.3 1.57178 0.115204 0
M  V30 25238 C 2444.21 2.0392 1.1599 0
M  V30 25239 C 2445.23 0.960293 1.45101 0
M  V30 25240 O 2446.4 1.27207 1.56142 0
M  V30 25241 C 2443.47 2.43736 2.46563 0
M  V30 25242 C 2442.53 3.65727 2.24815 0
M  V30 25243 C 2441.76 4.03635 3.49163 0
M  V30 25244 O 2441.98 3.41843 4.56617 0
M  V30 25245 O 2440.92 4.96714 3.3994 0
M  V30 25246 H 2444.74 2.93165 0.792968 0
M  V30 25247 H 2442.33 1.45794 0.326274 0
M  V30 25248 H 2444.21 2.70063 3.23487 0
M  V30 25249 H 2442.89 1.57636 2.82723 0
M  V30 25250 H 2441.79 3.44545 1.45738 0
M  V30 25251 H 2443.13 4.52544 1.93558 0
M  V30 25252 N 2444.78 -0.38549 1.52813 0
M  V30 25253 C 2446.02 -1.13185 1.68277 0
M  V30 25254 C 2446.36 -1.89532 0.423212 0
M  V30 25255 O 2445.63 -1.8568 -0.57908 0
M  V30 25256 C 2445.91 -2.10725 2.92005 0
M  V30 25257 C 2445.77 -1.38118 4.28069 0
M  V30 25258 C 2447.09 -3.11107 3.11288 0
M  V30 25259 H 2444.21 -0.410104 0.612359 0
M  V30 25260 H 2446.85 -0.414836 1.85416 0
M  V30 25261 H 2445 -2.7187 2.77523 0
M  V30 25262 H 2446.67 -0.799107 4.54326 0
M  V30 25263 H 2444.91 -0.683017 4.28389 0
M  V30 25264 H 2445.58 -2.09408 5.10737 0
M  V30 25265 H 2448.06 -2.60055 3.24824 0
M  V30 25266 H 2446.94 -3.76598 3.99331 0
M  V30 25267 H 2447.2 -3.80169 2.25663 0
M  V30 25268 N 2446.26 -1.43835 -0.644143 0
M  V30 25269 C 2447.5 -1.46149 -1.406 0
M  V30 25270 C 2447.83 -0.0888058 -1.93997 0
M  V30 25271 O 2447.11 0.891693 -1.72856 0
M  V30 25272 C 2447.39 -2.51129 -2.58082 0
M  V30 25273 C 2447.25 -3.97706 -2.10119 0
M  V30 25274 C 2448.56 -2.52748 -3.60287 0
M  V30 25275 H 2445.68 -0.532143 -0.509895 0
M  V30 25276 H 2448.33 -1.75439 -0.729472 0
M  V30 25277 H 2446.48 -2.26284 -3.15797 0
M  V30 25278 H 2448.15 -4.3364 -1.57334 0
M  V30 25279 H 2446.39 -4.10104 -1.41411 0
M  V30 25280 H 2447.06 -4.66788 -2.9464 0
M  V30 25281 H 2449.54 -2.74915 -3.12347 0
M  V30 25282 H 2448.41 -3.28128 -4.40026 0
M  V30 25283 H 2448.67 -1.56462 -4.13488 0
M  V30 25284 N 2447.73 0.883355 -1.30517 0
M  V30 25285 C 2448.96 1.66839 -1.22362 0
M  V30 25286 C 2449.38 1.87592 0.213263 0
M  V30 25287 O 2448.73 1.42456 1.14072 0
M  V30 25288 C 2448.78 3.04386 -1.95017 0
M  V30 25289 O 2448.51 2.84569 -3.33095 0
M  V30 25290 C 2450.01 3.9882 -1.93539 0
M  V30 25291 H 2447.23 0.520567 -0.42338 0
M  V30 25292 H 2449.77 1.10354 -1.72169 0
M  V30 25293 H 2447.93 3.57598 -1.49004 0
M  V30 25294 H 2448.34 3.71839 -3.69913 0
M  V30 25295 H 2449.81 4.92694 -2.48911 0
M  V30 25296 H 2450.29 4.29569 -0.914702 0
M  V30 25297 H 2450.9 3.51542 -2.3937 0
M  V30 25298 N 2449.21 1.13259 1.09591 0
M  V30 25299 C 2450.44 0.916765 1.86038 0
M  V30 25300 C 2450.86 -0.529114 1.80505 0
M  V30 25301 O 2450.22 -1.37532 1.1813 0
M  V30 25302 C 2450.27 1.40709 3.32014 0
M  V30 25303 O 2449.37 0.591225 4.0814 0
M  V30 25304 H 2448.71 0.328693 0.576937 0
M  V30 25305 H 2451.24 1.50685 1.38403 0
M  V30 25306 H 2451.25 1.40997 3.82863 0
M  V30 25307 H 2449.93 2.45985 3.35357 0
M  V30 25308 H 2448.5 0.656069 3.67083 0
M  V30 25309 N 2450.69 -1.27539 0.925834 0
M  V30 25310 C 2451.92 -1.98559 0.581544 0
M  V30 25311 C 2452.33 -1.69084 -0.840011 0
M  V30 25312 O 2451.69 -0.950339 -1.55804 0
M  V30 25313 C 2451.74 -3.52635 0.795651 0
M  V30 25314 O 2451.46 -3.81078 2.16128 0
M  V30 25315 C 2452.96 -4.40909 0.459822 0
M  V30 25316 H 2450.18 -0.633718 0.22055 0
M  V30 25317 H 2452.73 -1.62438 1.24234 0
M  V30 25318 H 2450.88 -3.86974 0.181678 0
M  V30 25319 H 2451.3 -4.75672 2.20989 0
M  V30 25320 H 2452.77 -5.48036 0.66034 0
M  V30 25321 H 2453.25 -4.35019 -0.604548 0
M  V30 25322 H 2453.85 -4.12088 1.05185 0
M  V30 25323 N 2452.17 -0.691135 -1.41637 0
M  V30 25324 C 2453.41 -0.229293 -2.02103 0
M  V30 25325 C 2453.77 1.15675 -1.53743 0
M  V30 25326 O 2453.06 1.76863 -0.73688 0
M  V30 25327 C 2453.26 -0.22134 -3.56714 0
M  V30 25328 C 2453.08 -1.60508 -4.2008 0
M  V30 25329 C 2451.85 -2.20684 -4.54562 0
M  V30 25330 C 2454.05 -2.55086 -4.46582 0
M  V30 25331 N 2452.03 -3.51668 -5.03192 0
M  V30 25332 C 2453.41 -3.70744 -4.9694 0
M  V30 25333 C 2455.46 -2.53409 -4.28589 0
M  V30 25334 C 2454.16 -4.85 -5.31195 0
M  V30 25335 C 2456.19 -3.66774 -4.6393 0
M  V30 25336 C 2455.55 -4.81161 -5.14455 0
M  V30 25337 H 2451.65 -0.129194 -0.771254 0
M  V30 25338 H 2454.23 -0.907656 -1.72249 0
M  V30 25339 H 2452.41 0.426494 -3.86051 0
M  V30 25340 H 2454.14 0.254912 -4.03896 0
M  V30 25341 H 2450.89 -1.73013 -4.40867 0
M  V30 25342 H 2451.32 -4.18798 -5.31919 0
M  V30 25343 H 2455.96 -1.66191 -3.88768 0
M  V30 25344 H 2453.68 -5.72881 -5.69941 0
M  V30 25345 H 2457.26 -3.66722 -4.5167 0
M  V30 25346 H 2456.14 -5.67429 -5.41289 0
M  V30 25347 N 2453.65 1.51461 -0.435577 0
M  V30 25348 C 2454.89 2.02372 0.131673 0
M  V30 25349 C 2455.22 1.31922 1.42514 0
M  V30 25350 O 2454.5 0.433606 1.89605 0
M  V30 25351 C 2454.78 3.58373 0.352238 0
M  V30 25352 C 2454.64 4.39441 -0.959754 0
M  V30 25353 C 2455.95 4.25537 1.12279 0
M  V30 25354 H 2453.07 0.735539 0.0463807 0
M  V30 25355 H 2455.72 1.81115 -0.574229 0
M  V30 25356 H 2453.87 3.76616 0.953534 0
M  V30 25357 H 2455.54 4.32852 -1.5949 0
M  V30 25358 H 2453.78 4.04596 -1.56475 0
M  V30 25359 H 2454.45 5.4675 -0.75949 0
M  V30 25360 H 2456.93 4.11553 0.613473 0
M  V30 25361 H 2455.8 5.34574 1.24588 0
M  V30 25362 H 2456.06 3.86277 2.15041 0
M  V30 25363 N 2455.12 0.166873 1.56714 0
M  V30 25364 C 2456.05 -0.760874 2.20755 0
M  V30 25365 C 2457.04 -1.24242 1.1618 0
M  V30 25366 O 2458.22 -1.29639 1.44594 0
M  V30 25367 C 2455.35 -1.99218 2.84481 0
M  V30 25368 C 2454.3 -1.64665 3.95056 0
M  V30 25369 C 2453.63 -2.95224 4.4581 0
M  V30 25370 C 2454.93 -0.878064 5.14866 0
M  V30 25371 H 2456.62 -0.227077 2.98538 0
M  V30 25372 H 2454.17 -0.10778 1.43596 0
M  V30 25373 H 2456.12 -2.64618 3.27956 0
M  V30 25374 H 2454.85 -2.55004 2.04061 0
M  V30 25375 H 2453.51 -1.01635 3.5223 0
M  V30 25376 H 2453.15 -3.49041 3.62187 0
M  V30 25377 H 2452.85 -2.72861 5.20404 0
M  V30 25378 H 2454.38 -3.61662 4.91969 0
M  V30 25379 H 2455.79 -1.43456 5.55061 0
M  V30 25380 H 2454.19 -0.753633 5.95349 0
M  V30 25381 H 2455.26 0.126462 4.84735 0
M  V30 25382 N 2456.6 -1.57237 -0.106866 0
M  V30 25383 C 2457.85 -1.8576 -0.813697 0
M  V30 25384 C 2458.18 -0.754346 -1.7895 0
M  V30 25385 O 2457.46 0.238757 -1.93029 0
M  V30 25386 C 2457.74 -3.24897 -1.55288 0
M  V30 25387 C 2457.59 -4.45836 -0.595851 0
M  V30 25388 C 2458.91 -3.61768 -2.50624 0
M  V30 25389 H 2456.03 -0.675665 -0.294357 0
M  V30 25390 H 2458.67 -1.89841 -0.0776138 0
M  V30 25391 H 2456.82 -3.21548 -2.18035 0
M  V30 25392 H 2458.49 -4.61294 0.0237073 0
M  V30 25393 H 2456.74 -4.33703 0.0916953 0
M  V30 25394 H 2457.41 -5.39889 -1.14995 0
M  V30 25395 H 2459.88 -3.65985 -1.97976 0
M  V30 25396 H 2458.76 -4.60076 -2.99368 0
M  V30 25397 H 2459.02 -2.89827 -3.33845 0
M  V30 25398 N 2458.08 0.377381 -1.53015 0
M  V30 25399 C 2459.33 1.11903 -1.68292 0
M  V30 25400 C 2459.65 1.90172 -0.431239 0
M  V30 25401 O 2458.92 1.87887 0.554561 0
M  V30 25402 H 2457.5 0.416101 -0.620378 0
M  V30 25403 H 2460.16 0.426859 -1.90168 0
M  V30 25404 H 2459.26 1.81545 -2.53866 0
M  V30 25405 N 2459.56 1.44175 0.636506 0
M  V30 25406 C 2460.81 1.46385 1.39341 0
M  V30 25407 C 2461.13 0.0956057 1.94765 0
M  V30 25408 O 2460.4 -0.871365 1.75454 0
M  V30 25409 H 2458.98 0.539003 0.517189 0
M  V30 25410 H 2461.64 1.79911 0.749538 0
M  V30 25411 H 2460.74 2.18615 2.22742 0
M  V30 25412 N 2461.04 -0.876421 1.30983 0
M  V30 25413 C 2462.28 -1.63136 1.20477 0
M  V30 25414 C 2462.62 -1.92735 -0.238063 0
M  V30 25415 O 2461.89 -1.55437 -1.16917 0
M  V30 25416 C 2462.17 -2.96571 2.04249 0
M  V30 25417 C 2462.03 -2.7389 3.56797 0
M  V30 25418 C 2463.35 -3.97597 1.88691 0
M  V30 25419 H 2460.46 -0.591978 0.439012 0
M  V30 25420 H 2463.11 -1.01358 1.60706 0
M  V30 25421 H 2461.26 -3.49297 1.70069 0
M  V30 25422 H 2462.93 -2.27885 4.01081 0
M  V30 25423 H 2461.17 -2.08238 3.80551 0
M  V30 25424 H 2461.84 -3.68807 4.10713 0
M  V30 25425 H 2464.32 -3.54059 2.1859 0
M  V30 25426 H 2463.19 -4.88858 2.49619 0
M  V30 25427 H 2463.46 -4.33883 0.848419 0
M  V30 25428 N 2462.51 -1.13839 -1.08989 0
M  V30 25429 C 2463.44 -0.842545 -2.17769 0
M  V30 25430 C 2464.43 0.199981 -1.6892 0
M  V30 25431 O 2465.61 0.0579389 -1.94114 0
M  V30 25432 C 2462.74 -0.312705 -3.45889 0
M  V30 25433 C 2461.69 -1.28999 -4.08097 0
M  V30 25434 C 2461.02 -0.619716 -5.31097 0
M  V30 25435 C 2462.32 -2.65013 -4.50073 0
M  V30 25436 H 2464.01 -1.75217 -2.42774 0
M  V30 25437 H 2461.56 -0.843895 -1.16681 0
M  V30 25438 H 2463.51 -0.0933784 -4.21297 0
M  V30 25439 H 2462.24 0.632326 -3.2042 0
M  V30 25440 H 2460.9 -1.49539 -3.34714 0
M  V30 25441 H 2460.54 0.330931 -5.0191 0
M  V30 25442 H 2460.24 -1.27177 -5.73672 0
M  V30 25443 H 2461.77 -0.409776 -6.09223 0
M  V30 25444 H 2463.18 -2.48416 -5.16684 0
M  V30 25445 H 2461.58 -3.26436 -5.03547 0
M  V30 25446 H 2462.65 -3.22338 -3.62252 0
M  V30 25447 N 2463.99 1.27046 -0.932584 0
M  V30 25448 C 2464.96 2.24935 -0.440104 0
M  V30 25449 C 2465.96 1.54547 0.444044 0
M  V30 25450 O 2467.15 1.72477 0.244434 0
M  V30 25451 C 2464.28 3.38922 0.36672 0
M  V30 25452 H 2465.47 2.70016 -1.30505 0
M  V30 25453 H 2463.02 1.39052 -0.713732 0
M  V30 25454 H 2463.76 2.9923 1.25028 0
M  V30 25455 H 2463.54 3.91188 -0.267272 0
M  V30 25456 H 2465.03 4.11666 0.701495 0
M  V30 25457 N 2465.47 0.698636 1.41269 0
M  V30 25458 C 2466.43 0.0441722 2.29157 0
M  V30 25459 C 2467.43 -0.704815 1.4453 0
M  V30 25460 O 2468.62 -0.539247 1.65643 0
M  V30 25461 C 2465.76 -0.947751 3.27461 0
M  V30 25462 H 2466.95 0.818044 2.88527 0
M  V30 25463 H 2464.5 0.462307 1.49306 0
M  V30 25464 H 2465.24 -1.74928 2.73076 0
M  V30 25465 H 2465.02 -0.413782 3.89911 0
M  V30 25466 H 2466.51 -1.40337 3.93313 0
M  V30 25467 N 2466.95 -1.51228 0.443603 0
M  V30 25468 C 2467.88 -2.30784 -0.355102 0
M  V30 25469 C 2468.86 -1.3647 -1.01538 0
M  V30 25470 O 2470.04 -1.65391 -1.01782 0
M  V30 25471 C 2467.17 -3.15442 -1.45306 0
M  V30 25472 C 2466.13 -4.18085 -0.915929 0
M  V30 25473 C 2465.45 -4.91303 -2.11011 0
M  V30 25474 C 2466.75 -5.22272 0.053952 0
M  V30 25475 H 2468.45 -2.97803 0.308819 0
M  V30 25476 H 2465.99 -1.43217 0.149963 0
M  V30 25477 H 2467.95 -3.6988 -2.01908 0
M  V30 25478 H 2466.67 -2.46255 -2.14536 0
M  V30 25479 H 2465.33 -3.64707 -0.372081 0
M  V30 25480 H 2464.98 -4.18614 -2.78875 0
M  V30 25481 H 2464.68 -5.60715 -1.75707 0
M  V30 25482 H 2466.2 -5.48567 -2.68155 0
M  V30 25483 H 2467.62 -5.71745 -0.421969 0
M  V30 25484 H 2466.01 -5.99247 0.319881 0
M  V30 25485 H 2467.08 -4.74714 0.988663 0
M  V30 25486 N 2468.43 -0.175182 -1.56623 0
M  V30 25487 C 2469.39 0.7397 -2.16936 0
M  V30 25488 C 2470.39 1.15532 -1.11844 0
M  V30 25489 O 2471.58 1.07164 -1.37337 0
M  V30 25490 C 2468.71 2.00733 -2.75534 0
M  V30 25491 H 2469.9 0.214586 -2.99131 0
M  V30 25492 H 2467.46 0.0743922 -1.56123 0
M  V30 25493 H 2468.19 2.57544 -1.97083 0
M  V30 25494 H 2467.98 1.71825 -3.52447 0
M  V30 25495 H 2469.47 2.66016 -3.21909 0
M  V30 25496 N 2469.91 1.57292 0.0985263 0
M  V30 25497 C 2470.87 2.0086 1.10398 0
M  V30 25498 C 2471.87 0.901616 1.33145 0
M  V30 25499 O 2473.06 1.16718 1.29316 0
M  V30 25500 C 2470.19 2.36636 2.4539 0
M  V30 25501 H 2471.38 2.90904 0.729048 0
M  V30 25502 H 2468.94 1.52479 0.343468 0
M  V30 25503 H 2469.67 1.49536 2.87766 0
M  V30 25504 H 2469.46 3.17391 2.30229 0
M  V30 25505 H 2470.95 2.71013 3.17713 0
M  V30 25506 N 2471.38 -0.369261 1.53213 0
M  V30 25507 C 2472.61 -1.13136 1.7287 0
M  V30 25508 C 2473.02 -1.83628 0.455787 0
M  V30 25509 O 2472.36 -1.74276 -0.580831 0
M  V30 25510 C 2472.43 -2.20842 2.83671 0
M  V30 25511 C 2472.09 -1.70148 4.24145 0
M  V30 25512 C 2473.09 -1.16754 5.06621 0
M  V30 25513 C 2470.77 -1.75772 4.70542 0
M  V30 25514 C 2472.77 -0.696566 6.33582 0
M  V30 25515 C 2470.45 -1.28287 5.97483 0
M  V30 25516 C 2471.45 -0.753188 6.78834 0
M  V30 25517 O 2471.14 -0.285334 8.03393 0
M  V30 25518 H 2470.87 -0.344362 0.581713 0
M  V30 25519 H 2473.43 -0.435207 2.00736 0
M  V30 25520 H 2471.66 -2.93939 2.5127 0
M  V30 25521 H 2473.34 -2.82416 2.91541 0
M  V30 25522 H 2474.11 -1.1175 4.7195 0
M  V30 25523 H 2469.99 -2.15941 4.07296 0
M  V30 25524 H 2473.53 -0.282459 6.97028 0
M  V30 25525 H 2469.43 -1.32983 6.31653 0
M  V30 25526 H 2470.2 -0.405001 8.17497 0
M  V30 25527 N 2472.86 -1.4451 -0.628851 0
M  V30 25528 C 2474.1 -1.48936 -1.3999 0
M  V30 25529 C 2474.47 -0.119637 -1.91627 0
M  V30 25530 O 2475.67 -0.0385755 -2.68772 0
M  V30 25531 C 2473.94 -2.52202 -2.53237 0
M  V30 25532 S 2475.5 -2.75693 -3.41378 0
M  V30 25533 H 2472.31 -0.526752 -0.477549 0
M  V30 25534 H 2474.92 -1.81449 -0.727772 0
M  V30 25535 H 2473.62 -3.50423 -2.13616 0
M  V30 25536 H 2473.15 -2.2127 -3.25274 0
M  V30 25537 H 2475.17 -2.07461 -4.50749 0
M  V30 25538 N 2474.34 0.869463 -1.31446 0
M  V30 25539 C 2475.27 1.99259 -1.2173 0
M  V30 25540 C 2476.25 1.69779 -0.104389 0
M  V30 25541 O 2477.44 1.92036 -0.289072 0
M  V30 25542 C 2474.57 3.34772 -0.924376 0
M  V30 25543 C 2473.52 3.78559 -1.99692 0
M  V30 25544 C 2472.85 5.11539 -1.55667 0
M  V30 25545 C 2474.15 3.95613 -3.4101 0
M  V30 25546 H 2475.84 2.07645 -2.15694 0
M  V30 25547 H 2473.39 0.997657 -1.0384 0
M  V30 25548 H 2475.34 4.12882 -0.843006 0
M  V30 25549 H 2474.06 3.2656 0.0509219 0
M  V30 25550 H 2472.72 3.02691 -2.06819 0
M  V30 25551 H 2472.37 4.99769 -0.569219 0
M  V30 25552 H 2472.07 5.41807 -2.27419 0
M  V30 25553 H 2473.59 5.92157 -1.48939 0
M  V30 25554 H 2475.01 4.64116 -3.36555 0
M  V30 25555 H 2473.4 4.37279 -4.10983 0
M  V30 25556 H 2474.47 2.98979 -3.81759 0
M  V30 25557 N 2475.82 1.14415 1.08383 0
M  V30 25558 C 2477.04 0.936445 1.85055 0
M  V30 25559 C 2477.47 -0.509939 1.81056 0
M  V30 25560 O 2476.83 -1.36271 1.19582 0
M  V30 25561 C 2476.87 1.44223 3.30503 0
M  V30 25562 O 2475.98 0.63448 4.0749 0
M  V30 25563 H 2475.32 0.334794 0.573419 0
M  V30 25564 H 2477.85 1.52144 1.36797 0
M  V30 25565 H 2477.86 1.4505 3.81346 0
M  V30 25566 H 2476.53 2.49528 3.32729 0
M  V30 25567 H 2475.11 0.694967 3.66367 0
M  V30 25568 N 2477.3 -1.26549 0.939309 0
M  V30 25569 C 2478.52 -1.97931 0.602571 0
M  V30 25570 C 2478.94 -1.69965 -0.82203 0
M  V30 25571 O 2478.3 -0.966811 -1.54787 0
M  V30 25572 C 2478.35 -3.51772 0.833008 0
M  V30 25573 O 2478.07 -3.78764 2.20158 0
M  V30 25574 C 2479.57 -4.40396 0.50656 0
M  V30 25575 H 2476.79 -0.631343 0.227259 0
M  V30 25576 H 2479.33 -1.61111 1.2595 0
M  V30 25577 H 2477.49 -3.86759 0.222712 0
M  V30 25578 H 2477.9 -4.73302 2.26022 0
M  V30 25579 H 2479.38 -5.47305 0.718429 0
M  V30 25580 H 2479.85 -4.35636 -0.558375 0
M  V30 25581 H 2480.46 -4.10949 1.0955 0
M  V30 25582 N 2478.77 -0.706118 -1.40896 0
M  V30 25583 C 2480.02 -0.241089 -2.00657 0
M  V30 25584 C 2480.34 1.16676 -1.56243 0
M  V30 25585 O 2479.61 1.78924 -0.797681 0
M  V30 25586 H 2478.19 -0.0861438 -0.742016 0
M  V30 25587 H 2480.85 -0.909635 -1.72371 0
M  V30 25588 H 2479.95 -0.266759 -3.10958 0
M  V30 25589 N 2480.25 1.50991 -0.451617 0
M  V30 25590 C 2481.49 2.04109 0.10903 0
M  V30 25591 C 2481.86 1.32749 1.38714 0
M  V30 25592 O 2483.06 1.76317 2.02893 0
M  V30 25593 C 2481.33 3.56068 0.308292 0
M  V30 25594 S 2482.89 4.30873 0.830294 0
M  V30 25595 H 2479.7 0.710555 0.0251406 0
M  V30 25596 H 2482.31 1.85598 -0.614297 0
M  V30 25597 H 2481.01 4.05566 -0.628033 0
M  V30 25598 H 2480.54 3.78898 1.05829 0
M  V30 25599 H 2482.56 4.49282 2.10618 0
M  V30 25600 N 2481.73 0.183486 1.56528 0
M  V30 25601 C 2482.98 -0.459002 1.97537 0
M  V30 25602 C 2483.31 -1.62069 1.06992 0
M  V30 25603 O 2482.58 -1.94132 0.119515 0
M  V30 25604 C 2482.87 -0.930307 3.47875 0
M  V30 25605 C 2482.72 0.232396 4.49199 0
M  V30 25606 C 2484.04 -1.79982 4.01615 0
M  V30 25607 H 2481.16 -0.165371 0.718207 0
M  V30 25608 H 2483.8 0.272072 1.88042 0
M  V30 25609 H 2481.95 -1.55327 3.56098 0
M  V30 25610 H 2483.62 0.869799 4.53026 0
M  V30 25611 H 2481.86 0.886002 4.24656 0
M  V30 25612 H 2482.54 -0.139699 5.51823 0
M  V30 25613 H 2485.01 -1.27454 3.96099 0
M  V30 25614 H 2483.89 -2.09858 5.07199 0
M  V30 25615 H 2484.15 -2.74992 3.46167 0
M  V30 25616 N 2483.21 -1.57342 -0.0901833 0
M  V30 25617 C 2484.45 -1.86613 -0.793949 0
M  V30 25618 C 2484.79 -0.773284 -1.7814 0
M  V30 25619 O 2484.06 0.21827 -1.93271 0
M  V30 25620 C 2484.34 -3.26525 -1.51833 0
M  V30 25621 C 2484.2 -4.46443 -0.548531 0
M  V30 25622 C 2485.52 -3.64405 -2.46773 0
M  V30 25623 H 2482.64 -0.678749 -0.287174 0
M  V30 25624 H 2485.28 -1.89913 -0.0574742 0
M  V30 25625 H 2483.43 -3.23843 -2.14612 0
M  V30 25626 H 2485.1 -4.61243 0.0726324 0
M  V30 25627 H 2483.34 -4.33581 0.13769 0
M  V30 25628 H 2484.01 -5.41078 -1.09262 0
M  V30 25629 H 2486.49 -3.68064 -1.94083 0
M  V30 25630 H 2485.37 -4.63226 -2.94471 0
M  V30 25631 H 2485.63 -2.93352 -3.30753 0
M  V30 25632 N 2484.69 0.36113 -1.53407 0
M  V30 25633 C 2485.94 1.10063 -1.69024 0
M  V30 25634 C 2486.25 1.90333 -0.450871 0
M  V30 25635 O 2487.45 2.67084 -0.487664 0
M  V30 25636 C 2485.91 2.00592 -2.98815 0
M  V30 25637 C 2485.52 1.25614 -4.30029 0
M  V30 25638 C 2487.26 2.74507 -3.23799 0
M  V30 25639 C 2485.17 2.15071 -5.50907 0
M  V30 25640 H 2484.1 0.414595 -0.629783 0
M  V30 25641 H 2486.75 0.361317 -1.79908 0
M  V30 25642 H 2485.13 2.78273 -2.81745 0
M  V30 25643 H 2486.31 0.529659 -4.57746 0
M  V30 25644 H 2484.62 0.635424 -4.11523 0
M  V30 25645 H 2487.22 3.41673 -4.11295 0
M  V30 25646 H 2487.56 3.40119 -2.40051 0
M  V30 25647 H 2488.09 2.03908 -3.41565 0
M  V30 25648 H 2484.83 1.54029 -6.37146 0
M  V30 25649 H 2484.35 2.85556 -5.27464 0
M  V30 25650 H 2486.03 2.74527 -5.8587 0
M  V30 25651 N 2486.16 1.44842 0.621179 0
M  V30 25652 C 2487.41 1.48367 1.38257 0
M  V30 25653 C 2487.74 0.119658 1.93831 0
M  V30 25654 O 2487.02 -0.864081 1.74252 0
M  V30 25655 C 2487.3 2.55203 2.54054 0
M  V30 25656 C 2487.15 4.00999 2.03765 0
M  V30 25657 C 2488.47 2.58448 3.5622 0
M  V30 25658 H 2485.59 0.540187 0.501365 0
M  V30 25659 H 2488.23 1.76577 0.701469 0
M  V30 25660 H 2486.38 2.31279 3.12157 0
M  V30 25661 H 2488.06 4.36088 1.50415 0
M  V30 25662 H 2486.3 4.12302 1.34869 0
M  V30 25663 H 2486.97 4.71416 2.87177 0
M  V30 25664 H 2489.45 2.7985 3.07934 0
M  V30 25665 H 2488.32 3.35087 4.3475 0
M  V30 25666 H 2488.58 1.63021 4.10946 0
M  V30 25667 N 2487.64 -0.862479 1.31905 0
M  V30 25668 C 2488.89 -1.6129 1.21778 0
M  V30 25669 C 2489.21 -1.93728 -0.222378 0
M  V30 25670 O 2488.48 -1.58949 -1.14508 0
M  V30 25671 H 2487.06 -0.597954 0.447728 0
M  V30 25672 H 2489.72 -1.03212 1.65328 0
M  V30 25673 H 2488.82 -2.55326 1.79485 0
M  V30 25674 N 2489.12 -1.14988 -1.07775 0
M  V30 25675 C 2490.54 -0.891619 -1.32372 0
M  V30 25676 C 2490.74 0.463754 -1.96091 0
M  V30 25677 O 2489.79 1.20663 -2.21803 0
M  V30 25678 C 2491.11 -2.02929 -2.21902 0
M  V30 25679 C 2492.65 -2.06333 -2.35363 0
M  V30 25680 C 2493.13 -3.19411 -3.28239 0
M  V30 25681 N 2494.62 -3.1903 -3.35818 0
M  V30 25682 C 2495.35 -4.03166 -4.07732 0
M  V30 25683 N 2494.85 -4.97355 -4.82297 0
M  V30 25684 N 2496.64 -3.91204 -4.03629 0
M  V30 25685 H 2488.79 -2.02274 -0.648003 0
M  V30 25686 H 2491.06 -0.881763 -0.348134 0
M  V30 25687 H 2490.76 -3.00743 -1.82336 0
M  V30 25688 H 2490.64 -1.95795 -3.22404 0
M  V30 25689 H 2493.02 -1.09121 -2.74184 0
M  V30 25690 H 2493.11 -2.17535 -1.34581 0
M  V30 25691 H 2492.75 -4.16872 -2.90138 0
M  V30 25692 H 2492.68 -3.05445 -4.28965 0
M  V30 25693 H 2495.17 -2.50816 -2.82666 0
M  V30 25694 H 2495.48 -5.58004 -5.34651 0
M  V30 25695 H 2493.83 -5.01347 -4.81328 0
M  V30 25696 H 2497.02 -3.16934 -3.44486 0
M  V30 25697 H 2497.19 -4.56998 -4.59409 0
M  V30 25698 N 2490.6 1.26049 -0.946007 0
M  V30 25699 C 2491.84 1.93813 -0.597036 0
M  V30 25700 C 2492.18 1.73998 0.862454 0
M  V30 25701 O 2491.45 1.07989 1.61767 0
M  V30 25702 C 2491.74 3.47452 -0.945998 0
M  V30 25703 C 2491.59 3.76531 -2.46058 0
M  V30 25704 C 2492.91 4.37638 -0.464862 0
M  V30 25705 H 2490.03 0.703903 -0.218378 0
M  V30 25706 H 2492.67 1.48829 -1.1811 0
M  V30 25707 H 2490.82 3.85897 -0.44897 0
M  V30 25708 H 2492.49 3.47772 -3.03071 0
M  V30 25709 H 2490.73 3.22438 -2.902 0
M  V30 25710 H 2491.4 4.83942 -2.65526 0
M  V30 25711 H 2493.88 4.06447 -0.891087 0
M  V30 25712 H 2492.76 5.43919 -0.737808 0
M  V30 25713 H 2493.02 4.37513 0.635197 0
M  V30 25714 N 2492.08 0.71358 1.4052 0
M  V30 25715 C 2493.32 0.252599 2.01221 0
M  V30 25716 C 2493.66 -1.15057 1.56446 0
M  V30 25717 O 2492.93 -1.78015 0.783628 0
M  V30 25718 C 2493.21 0.330395 3.58581 0
M  V30 25719 C 2493.07 1.7718 4.13434 0
M  V30 25720 C 2494.39 -0.299564 4.39079 0
M  V30 25721 H 2491.5 0.0932599 0.731076 0
M  V30 25722 H 2494.15 0.905702 1.67024 0
M  V30 25723 H 2492.3 -0.225669 3.87844 0
M  V30 25724 H 2493.97 2.38309 3.94976 0
M  V30 25725 H 2492.21 2.30017 3.67797 0
M  V30 25726 H 2492.88 1.77764 5.22593 0
M  V30 25727 H 2495.36 0.174212 4.15735 0
M  V30 25728 H 2494.23 -0.214674 5.4848 0
M  V30 25729 H 2494.5 -1.38281 4.19918 0
M  V30 25730 N 2493.55 -1.50749 0.459618 0
M  V30 25731 C 2494.48 -2.31148 -0.330604 0
M  V30 25732 C 2495.47 -1.37539 -1.00085 0
M  V30 25733 O 2496.65 -1.66461 -1.00022 0
M  V30 25734 C 2493.78 -3.16965 -1.41952 0
M  V30 25735 C 2492.73 -4.19033 -0.871534 0
M  V30 25736 C 2492.06 -4.93513 -2.05788 0
M  V30 25737 C 2493.36 -5.22186 0.109343 0
M  V30 25738 H 2495.05 -2.97459 0.340388 0
M  V30 25739 H 2492.6 -1.4305 0.165144 0
M  V30 25740 H 2494.55 -3.72001 -1.97973 0
M  V30 25741 H 2493.28 -2.48517 -2.11912 0
M  V30 25742 H 2491.94 -3.65081 -0.333378 0
M  V30 25743 H 2491.58 -4.21548 -2.74419 0
M  V30 25744 H 2491.28 -5.62547 -1.6975 0
M  V30 25745 H 2492.81 -5.5138 -2.62321 0
M  V30 25746 H 2494.22 -5.7216 -0.361304 0
M  V30 25747 H 2492.62 -5.98874 0.383421 0
M  V30 25748 H 2493.69 -4.73639 1.03896 0
M  V30 25749 N 2495.03 -0.191784 -1.56429 0
M  V30 25750 C 2496.26 0.45667 -2.0231 0
M  V30 25751 C 2496.68 1.54628 -1.07106 0
M  V30 25752 O 2496.04 1.8122 -0.0539996 0
M  V30 25753 C 2496.09 0.993098 -3.46655 0
M  V30 25754 O 2495.19 2.10616 -3.54563 0
M  V30 25755 H 2494.53 0.107103 -0.655305 0
M  V30 25756 H 2497.06 -0.301689 -2.02364 0
M  V30 25757 H 2497.07 1.31054 -3.86379 0
M  V30 25758 H 2495.75 0.195431 -4.15441 0
M  V30 25759 H 2494.33 1.79761 -3.26711 0
M  V30 25760 N 2496.51 1.57387 0.0818378 0
M  V30 25761 C 2497.76 1.86386 0.781335 0
M  V30 25762 C 2498.08 0.782374 1.78617 0
M  V30 25763 O 2497.35 -0.190027 1.94976 0
M  V30 25764 H 2495.93 0.687756 0.29155 0
M  V30 25765 H 2498.59 1.94807 0.0603137 0
M  V30 25766 H 2497.69 2.83564 1.30375 0
M  V30 25767 N 2497.99 -0.35299 1.53596 0
M  V30 25768 C 2498.94 -1.43304 1.80921 0
M  V30 25769 C 2499.91 -1.52669 0.654315 0
M  V30 25770 O 2501.09 -1.68358 0.897789 0
M  V30 25771 C 2498.23 -2.80085 2.0161 0
M  V30 25772 C 2497.34 -2.79587 3.29325 0
M  V30 25773 C 2496.48 -4.08024 3.40133 0
M  V30 25774 C 2495.52 -4.01717 4.61833 0
M  V30 25775 N 2494.65 -5.21826 4.69725 0
M  V30 25776 H 2499.49 -1.19303 2.73076 0
M  V30 25777 H 2497.03 -0.578107 1.35264 0
M  V30 25778 H 2498.99 -3.59561 2.11593 0
M  V30 25779 H 2497.62 -3.02458 1.12778 0
M  V30 25780 H 2496.67 -1.9227 3.28232 0
M  V30 25781 H 2497.98 -2.70802 4.18889 0
M  V30 25782 H 2497.14 -4.95921 3.49496 0
M  V30 25783 H 2495.88 -4.19577 2.48608 0
M  V30 25784 H 2494.88 -3.12205 4.52557 0
M  V30 25785 H 2496.11 -3.91754 5.54712 0
M  V30 25786 H 2494.05 -5.33942 3.81107 0
M  V30 25787 H 2493.97 -5.15261 5.53211 0
M  V30 25788 H 2495.24 -6.1152 4.83387 0
M  V30 25789 N 2499.47 -1.45169 -0.613489 0
M  V30 25790 C 2500.88 -1.43415 -1.19537 0
M  V30 25791 C 2501.23 -0.158666 -1.95557 0
M  V30 25792 O 2500.35 0.740083 -2.03351 0
M  V30 25793 C 2500.95 -2.59817 -2.17441 0
M  V30 25794 C 2499.51 -2.61202 -2.71017 0
M  V30 25795 C 2498.66 -2.35555 -1.46319 0
M  V30 25796 H 2501.61 -1.53494 -0.403136 0
M  V30 25797 H 2501.63 -2.33579 -3.00368 0
M  V30 25798 H 2501.14 -3.52634 -1.62083 0
M  V30 25799 H 2499.24 -1.72375 -3.30329 0
M  V30 25800 H 2499.35 -3.60241 -3.15853 0
M  V30 25801 H 2497.72 -1.84995 -1.75069 0
M  V30 25802 H 2498.5 -3.30509 -0.928382 0
M  V30 25803 N 2500.95 0.855472 -1.32361 0
M  V30 25804 C 2501.91 1.94553 -1.21168 0
M  V30 25805 C 2502.91 1.60233 -0.134936 0
M  V30 25806 O 2504.1 1.69886 -0.385279 0
M  V30 25807 C 2501.23 3.29789 -0.86325 0
M  V30 25808 H 2502.42 2.05907 -2.18042 0
M  V30 25809 H 2499.98 1.04555 -1.1618 0
M  V30 25810 H 2500.71 3.24134 0.103712 0
M  V30 25811 H 2500.5 3.56075 -1.64173 0
M  V30 25812 H 2501.99 4.09684 -0.809228 0
M  V30 25813 N 2502.42 1.15558 1.07164 0
M  V30 25814 C 2503.67 0.926164 1.79179 0
M  V30 25815 C 2503.99 -0.547934 1.87769 0
M  V30 25816 O 2505.19 -0.894991 2.56324 0
M  V30 25817 C 2503.65 1.60766 3.21997 0
M  V30 25818 C 2503.26 3.11891 3.21602 0
M  V30 25819 C 2505 1.45987 3.98608 0
M  V30 25820 C 2502.91 3.7282 4.59085 0
M  V30 25821 H 2501.84 0.342868 0.671534 0
M  V30 25822 H 2504.49 1.38593 1.20268 0
M  V30 25823 H 2502.87 1.0756 3.81113 0
M  V30 25824 H 2504.04 3.7187 2.7212 0
M  V30 25825 H 2502.36 3.26454 2.58489 0
M  V30 25826 H 2504.96 1.88897 5.00222 0
M  V30 25827 H 2505.3 0.407614 4.143 0
M  V30 25828 H 2505.83 1.96301 3.45992 0
M  V30 25829 H 2502.57 4.77954 4.48598 0
M  V30 25830 H 2502.09 3.17624 5.08797 0
M  V30 25831 H 2503.77 3.73858 5.28052 0
M  V30 25832 N 2503.9 -1.25546 0.952678 0
M  V30 25833 C 2505.15 -1.92504 0.602087 0
M  V30 25834 C 2505.46 -1.75452 -0.864633 0
M  V30 25835 O 2506.67 -2.36967 -1.3251 0
M  V30 25836 C 2505.13 -3.44962 1.02613 0
M  V30 25837 C 2504.73 -3.70727 2.51526 0
M  V30 25838 C 2506.48 -4.17858 0.747979 0
M  V30 25839 C 2504.38 -5.16681 2.87741 0
M  V30 25840 H 2503.31 -0.72074 0.221473 0
M  V30 25841 H 2505.97 -1.42439 1.15687 0
M  V30 25842 H 2504.35 -3.93977 0.399781 0
M  V30 25843 H 2505.52 -3.32372 3.19163 0
M  V30 25844 H 2503.84 -3.11087 2.76792 0
M  V30 25845 H 2506.43 -5.25366 0.994739 0
M  V30 25846 H 2506.78 -4.15102 -0.315556 0
M  V30 25847 H 2507.31 -3.74745 1.33459 0
M  V30 25848 H 2504.05 -5.24547 3.93104 0
M  V30 25849 H 2503.57 -5.5609 2.24775 0
M  V30 25850 H 2505.25 -5.84787 2.76827 0
M  V30 25851 N 2505.38 -0.721022 -1.40139 0
M  V30 25852 C 2506.79 -0.334585 -1.83677 0
M  V30 25853 C 2507.14 1.1317 -1.60272 0
M  V30 25854 O 2506.27 1.8715 -1.08646 0
M  V30 25855 C 2506.86 -0.600496 -3.33436 0
M  V30 25856 C 2505.42 -0.267708 -3.75447 0
M  V30 25857 C 2504.57 -0.870143 -2.63294 0
M  V30 25858 H 2507.52 -0.919755 -1.2933 0
M  V30 25859 H 2507.54 0.132451 -3.80269 0
M  V30 25860 H 2507.05 -1.66775 -3.5044 0
M  V30 25861 H 2505.15 0.794265 -3.64036 0
M  V30 25862 H 2505.27 -0.740503 -4.73343 0
M  V30 25863 H 2503.63 -0.297783 -2.52953 0
M  V30 25864 H 2504.41 -1.94177 -2.83108 0
M  V30 25865 N 2506.86 1.50503 -0.467606 0
M  V30 25866 C 2508.13 1.95024 0.149996 0
M  V30 25867 C 2508.51 1.40782 1.57301 0
M  V30 25868 O 2507.86 0.607358 2.2028 0
M  V30 25869 C 2508.07 3.48866 0.0968711 0
M  V30 25870 C 2509.42 4.23626 0.28749 0
M  V30 25871 O 2510.44 3.55777 0.173615 0
M  V30 25872 O 2509.3 5.44048 0.51709 0
M  V30 25873 H 2506.4 0.819165 0.113568 0
M  V30 25874 H 2508.94 1.61285 -0.527758 0
M  V30 25875 H 2507.72 3.80885 -0.896798 0
M  V30 25876 H 2507.34 3.89132 0.816234 0
M  V30 25877 N 2508.34 0.200077 1.56325 0
M  V30 25878 C 2509.75 -0.155688 1.58839 0
M  V30 25879 C 2509.95 -1.60643 1.21639 0
M  V30 25880 O 2509.01 -2.34291 0.941478 0
M  V30 25881 C 2510.32 0.151176 3.0032 0
M  V30 25882 C 2511.87 0.0916834 3.12866 0
M  V30 25883 C 2512.34 0.371926 4.56487 0
M  V30 25884 N 2513.83 0.320722 4.62088 0
M  V30 25885 C 2514.57 0.511343 5.71115 0
M  V30 25886 N 2514.07 0.762582 6.8859 0
M  V30 25887 N 2515.86 0.445256 5.60334 0
M  V30 25888 H 2508.01 1.14671 1.78786 0
M  V30 25889 H 2510.27 0.458065 0.829988 0
M  V30 25890 H 2509.98 1.15726 3.32115 0
M  V30 25891 H 2509.85 -0.543921 3.73258 0
M  V30 25892 H 2512.24 -0.905016 2.8088 0
M  V30 25893 H 2512.32 0.819933 2.42303 0
M  V30 25894 H 2511.96 1.36596 4.89187 0
M  V30 25895 H 2511.89 -0.37727 5.25247 0
M  V30 25896 H 2514.39 0.133356 3.77665 0
M  V30 25897 H 2514.7 0.896711 7.6758 0
M  V30 25898 H 2513.04 0.799533 6.90386 0
M  V30 25899 H 2516.23 0.249361 4.67435 0
M  V30 25900 H 2516.41 0.597229 6.45242 0
M  V30 25901 N 2509.81 -1.57429 -0.0734901 0
M  V30 25902 C 2510.72 -2.06924 -1.10543 0
M  V30 25903 C 2511.74 -0.998427 -1.42504 0
M  V30 25904 O 2512.92 -1.31302 -1.52715 0
M  V30 25905 C 2509.98 -2.50188 -2.40014 0
M  V30 25906 C 2509.04 -3.71559 -2.1504 0
M  V30 25907 C 2508.27 -4.12751 -3.38338 0
M  V30 25908 O 2508.5 -3.5383 -4.47393 0
M  V30 25909 O 2507.43 -5.05552 -3.26651 0
M  V30 25910 H 2511.26 -2.95164 -0.714962 0
M  V30 25911 H 2508.84 -1.46608 -0.287505 0
M  V30 25912 H 2510.72 -2.78545 -3.16213 0
M  V30 25913 H 2509.4 -1.65077 -2.78444 0
M  V30 25914 H 2508.31 -3.48288 -1.36552 0
M  V30 25915 H 2509.64 -4.57517 -1.81491 0
M  V30 25916 N 2511.29 0.344839 -1.53781 0
M  V30 25917 C 2512.54 1.08684 -1.71218 0
M  V30 25918 C 2512.87 1.88344 -0.473314 0
M  V30 25919 O 2512.15 1.8715 0.529647 0
M  V30 25920 C 2512.43 2.02909 -2.97489 0
M  V30 25921 C 2512.28 1.2672 -4.31581 0
M  V30 25922 C 2513.6 3.02745 -3.19427 0
M  V30 25923 H 2510.72 0.393724 -0.623017 0
M  V30 25924 H 2513.36 0.36553 -1.86451 0
M  V30 25925 H 2511.51 2.64416 -2.84634 0
M  V30 25926 H 2513.18 0.67837 -4.56285 0
M  V30 25927 H 2511.43 0.569197 -4.3005 0
M  V30 25928 H 2512.1 1.95793 -5.16109 0
M  V30 25929 H 2514.57 2.51351 -3.31605 0
M  V30 25930 H 2513.45 3.65878 -4.09176 0
M  V30 25931 H 2513.71 3.74053 -2.35663 0
M  V30 25932 N 2512.77 1.45492 0.605781 0
M  V30 25933 C 2513.7 1.57146 1.72706 0
M  V30 25934 C 2514.68 0.422913 1.64759 0
M  V30 25935 O 2515.87 0.646279 1.83131 0
M  V30 25936 C 2513 1.53953 3.11313 0
M  V30 25937 C 2511.95 2.67543 3.34073 0
M  V30 25938 C 2511.28 2.49405 4.72971 0
M  V30 25939 C 2512.58 4.09541 3.24151 0
M  V30 25940 H 2514.27 2.51004 1.6321 0
M  V30 25941 H 2511.82 1.20802 0.783769 0
M  V30 25942 H 2513.77 1.60703 3.89554 0
M  V30 25943 H 2512.49 0.566261 3.21654 0
M  V30 25944 H 2511.15 2.60225 2.58222 0
M  V30 25945 H 2510.8 1.50213 4.80047 0
M  V30 25946 H 2510.5 3.25579 4.89154 0
M  V30 25947 H 2512.02 2.58011 5.5341 0
M  V30 25948 H 2513.44 4.18093 3.92264 0
M  V30 25949 H 2511.83 4.86119 3.51863 0
M  V30 25950 H 2512.9 4.31321 2.21563 0
M  V30 25951 N 2514.25 -0.848441 1.32813 0
M  V30 25952 C 2515.48 -1.63299 1.26559 0
M  V30 25953 C 2515.89 -1.88457 -0.167567 0
M  V30 25954 O 2515.23 -1.4583 -1.1171 0
M  V30 25955 C 2515.29 -3.01236 1.96207 0
M  V30 25956 C 2514.96 -2.99092 3.45533 0
M  V30 25957 C 2515.95 -2.75493 4.40908 0
M  V30 25958 C 2513.64 -3.19531 3.87564 0
M  V30 25959 C 2515.63 -2.72346 5.76287 0
M  V30 25960 C 2513.32 -3.1601 5.2305 0
M  V30 25961 C 2514.32 -2.92447 6.17222 0
M  V30 25962 O 2514 -2.88812 7.50229 0
M  V30 25963 H 2513.74 -0.515148 0.437719 0
M  V30 25964 H 2516.29 -1.06567 1.75592 0
M  V30 25965 H 2514.52 -3.59782 1.41752 0
M  V30 25966 H 2516.21 -3.62013 1.8358 0
M  V30 25967 H 2516.98 -2.59463 4.09761 0
M  V30 25968 H 2512.85 -3.36894 3.1468 0
M  V30 25969 H 2516.4 -2.53874 6.49764 0
M  V30 25970 H 2512.3 -3.31586 5.53824 0
M  V30 25971 H 2513.06 -3.04722 7.59662 0
M  V30 25972 N 2515.73 -1.16125 -1.06549 0
M  V30 25973 C 2517.14 -0.905609 -1.31419 0
M  V30 25974 C 2517.34 0.44293 -1.96572 0
M  V30 25975 O 2516.4 1.18304 -2.23071 0
M  V30 25976 C 2517.71 -2.05271 -2.19737 0
M  V30 25977 C 2519.26 -2.08817 -2.33162 0
M  V30 25978 C 2519.73 -3.22874 -3.24833 0
M  V30 25979 N 2521.23 -3.22574 -3.32416 0
M  V30 25980 C 2521.96 -4.07467 -4.03433 0
M  V30 25981 N 2521.46 -5.02442 -4.76995 0
M  V30 25982 N 2523.25 -3.95463 -3.99457 0
M  V30 25983 H 2515.4 -2.0295 -0.626513 0
M  V30 25984 H 2517.66 -0.885406 -0.338762 0
M  V30 25985 H 2517.37 -3.0266 -1.79136 0
M  V30 25986 H 2517.24 -1.99203 -3.20309 0
M  V30 25987 H 2519.63 -1.12023 -2.73011 0
M  V30 25988 H 2519.71 -2.18951 -1.32266 0
M  V30 25989 H 2519.36 -4.19926 -2.857 0
M  V30 25990 H 2519.29 -3.09977 -4.25701 0
M  V30 25991 H 2521.78 -2.538 -2.79989 0
M  V30 25992 H 2522.09 -5.63643 -5.28703 0
M  V30 25993 H 2520.43 -5.06424 -4.75983 0
M  V30 25994 H 2523.63 -3.2057 -3.41105 0
M  V30 25995 H 2523.8 -4.61845 -4.54536 0
M  V30 25996 N 2517.2 1.25039 -0.959323 0
M  V30 25997 C 2518.11 2.29425 -0.490034 0
M  V30 25998 C 2519.13 1.68216 0.444915 0
M  V30 25999 O 2520.31 1.98841 0.320011 0
M  V30 26000 C 2517.37 3.46 0.220248 0
M  V30 26001 C 2516.43 4.22636 -0.753492 0
M  V30 26002 C 2515.67 5.33644 -0.0770118 0
M  V30 26003 O 2515.89 5.58965 1.13639 0
M  V30 26004 O 2514.82 5.9702 -0.764929 0
M  V30 26005 H 2518.65 2.71667 -1.3576 0
M  V30 26006 H 2516.23 1.30575 -0.725984 0
M  V30 26007 H 2518.12 4.1682 0.619604 0
M  V30 26008 H 2516.79 3.05751 1.06291 0
M  V30 26009 H 2515.7 3.54225 -1.20315 0
M  V30 26010 H 2517.03 4.6668 -1.56431 0
M  V30 26011 N 2518.68 0.728444 1.39755 0
M  V30 26012 C 2519.93 0.273522 2.00644 0
M  V30 26013 C 2520.26 -1.13725 1.57788 0
M  V30 26014 O 2519.51 -1.78828 0.794918 0
M  V30 26015 C 2519.81 0.315839 3.56002 0
M  V30 26016 C 2519.48 1.6787 4.18486 0
M  V30 26017 C 2518.14 2.05174 4.35267 0
M  V30 26018 C 2520.49 2.57383 4.53214 0
M  V30 26019 C 2517.82 3.31511 4.84063 0
M  V30 26020 C 2520.17 3.83086 5.03416 0
M  V30 26021 C 2518.84 4.2049 5.18405 0
M  V30 26022 H 2518.11 0.100089 0.734209 0
M  V30 26023 H 2520.75 0.934001 1.67179 0
M  V30 26024 H 2519.06 -0.428216 3.89453 0
M  V30 26025 H 2520.75 -0.054187 4.00963 0
M  V30 26026 H 2517.34 1.37865 4.05822 0
M  V30 26027 H 2521.53 2.29835 4.39874 0
M  V30 26028 H 2516.78 3.60443 4.93853 0
M  V30 26029 H 2520.96 4.52608 5.29262 0
M  V30 26030 H 2518.59 5.18452 5.55978 0
M  V30 26031 N 2520.16 -1.50253 0.475581 0
M  V30 26032 C 2521.44 -1.95101 -0.139651 0
M  V30 26033 C 2521.82 -1.41614 -1.56552 0
M  V30 26034 O 2521.17 -0.619032 -2.19955 0
M  V30 26035 C 2521.38 -3.48912 -0.0783685 0
M  V30 26036 C 2522.72 -4.23772 -0.26502 0
M  V30 26037 O 2523.75 -3.55864 -0.154745 0
M  V30 26038 O 2522.61 -5.44315 -0.488231 0
M  V30 26039 H 2519.7 -0.819756 -0.109222 0
M  V30 26040 H 2522.25 -1.61003 0.536304 0
M  V30 26041 H 2521.02 -3.80404 0.916985 0
M  V30 26042 H 2520.64 -3.89559 -0.795586 0
M  V30 26043 N 2521.64 -0.208365 -1.56217 0
M  V30 26044 C 2522.55 0.718796 -2.23317 0
M  V30 26045 C 2523.56 1.2242 -1.2365 0
M  V30 26046 O 2524.74 1.26858 -1.56426 0
M  V30 26047 C 2521.81 1.91563 -2.88971 0
M  V30 26048 C 2520.87 1.4535 -4.03945 0
M  V30 26049 C 2520.1 2.59329 -4.66459 0
M  V30 26050 O 2520.32 3.77141 -4.27926 0
M  V30 26051 O 2519.26 2.31283 -5.5569 0
M  V30 26052 H 2523.08 0.177262 -3.03182 0
M  V30 26053 H 2520.67 0.0215139 -1.49385 0
M  V30 26054 H 2522.55 2.61486 -3.30459 0
M  V30 26055 H 2521.22 2.44552 -2.12076 0
M  V30 26056 H 2520.13 0.722681 -3.67053 0
M  V30 26057 H 2521.46 0.970134 -4.82545 0
M  V30 26058 N 2523.12 1.57465 0.0651402 0
M  V30 26059 C 2524.05 1.99455 1.10873 0
M  V30 26060 C 2525.03 0.872579 1.37204 0
M  V30 26061 O 2526.21 1.13544 1.50466 0
M  V30 26062 C 2523.34 2.33694 2.45163 0
M  V30 26063 C 2522.38 3.55968 2.34924 0
M  V30 26064 S 2523.22 5.06546 1.737 0
M  V30 26065 C 2524.37 5.43992 3.09554 0
M  V30 26066 H 2524.61 2.8766 0.750916 0
M  V30 26067 H 2522.14 1.51951 0.273906 0
M  V30 26068 H 2524.1 2.54094 3.22407 0
M  V30 26069 H 2522.76 1.46006 2.78103 0
M  V30 26070 H 2521.95 3.77463 3.33973 0
M  V30 26071 H 2521.55 3.35232 1.65817 0
M  V30 26072 H 2523.85 5.4247 4.05873 0
M  V30 26073 H 2524.79 6.44713 2.92831 0
M  V30 26074 H 2525.2 4.71457 3.10466 0
M  V30 26075 N 2524.59 -0.336679 1.53962 0
M  V30 26076 C 2525.5 -1.43705 1.85435 0
M  V30 26077 C 2526.52 -1.5724 0.745081 0
M  V30 26078 O 2527.7 -1.72586 1.03807 0
M  V30 26079 C 2524.76 -2.78602 2.06354 0
M  V30 26080 C 2523.82 -2.74353 3.30196 0
M  V30 26081 C 2523.06 -4.02815 3.50108 0
M  V30 26082 O 2523.28 -5.00434 2.73719 0
M  V30 26083 O 2522.21 -4.0687 4.43554 0
M  V30 26084 H 2526.04 -1.20023 2.78977 0
M  V30 26085 H 2523.62 -0.529496 1.39702 0
M  V30 26086 H 2525.51 -3.58479 2.21519 0
M  V30 26087 H 2524.18 -3.02201 1.16 0
M  V30 26088 H 2523.09 -1.93072 3.20428 0
M  V30 26089 H 2524.42 -2.55707 4.20565 0
M  V30 26090 N 2526.07 -1.45812 -0.598057 0
M  V30 26091 C 2526.98 -1.57766 -1.73629 0
M  V30 26092 C 2528 -0.461705 -1.67763 0
M  V30 26093 O 2529.17 -0.723718 -1.87948 0
M  V30 26094 C 2526.24 -1.55023 -3.10111 0
M  V30 26095 C 2525.3 -2.77731 -3.27359 0
M  V30 26096 C 2524.53 -2.7511 -4.57329 0
M  V30 26097 O 2524.76 -1.82979 -5.40254 0
M  V30 26098 O 2523.69 -3.66445 -4.77495 0
M  V30 26099 H 2527.52 -2.53995 -1.66494 0
M  V30 26100 H 2525.1 -1.2843 -0.763285 0
M  V30 26101 H 2526.98 -1.56135 -3.91407 0
M  V30 26102 H 2525.66 -0.619486 -3.17717 0
M  V30 26103 H 2524.57 -2.82178 -2.45614 0
M  V30 26104 H 2525.9 -3.69964 -3.24635 0
M  V30 26105 N 2527.55 0.841385 -1.33261 0
M  V30 26106 C 2528.79 1.6102 -1.25905 0
M  V30 26107 C 2529.15 1.91216 0.173292 0
M  V30 26108 O 2530.36 2.66231 0.370777 0
M  V30 26109 C 2528.63 2.88658 -2.1074 0
M  V30 26110 S 2530.19 3.79347 -2.20547 0
M  V30 26111 H 2527 0.552129 -0.447967 0
M  V30 26112 H 2529.61 0.995352 -1.68265 0
M  V30 26113 H 2528.31 2.64442 -3.13845 0
M  V30 26114 H 2527.84 3.55151 -1.69208 0
M  V30 26115 H 2529.86 4.77064 -1.3647 0
M  V30 26116 N 2529.03 1.16688 1.05932 0
M  V30 26117 C 2530.25 0.975487 1.83027 0
M  V30 26118 C 2530.68 -0.47142 1.82097 0
M  V30 26119 O 2530.04 -1.33704 1.22446 0
M  V30 26120 C 2530.09 1.51201 3.27369 0
M  V30 26121 O 2529.19 0.720772 4.06053 0
M  V30 26122 H 2528.53 0.346882 0.566188 0
M  V30 26123 H 2531.06 1.55011 1.33539 0
M  V30 26124 H 2531.07 1.53106 3.78183 0
M  V30 26125 H 2529.75 2.56529 3.27362 0
M  V30 26126 H 2528.32 0.772522 3.6481 0
M  V30 26127 N 2530.51 -1.24529 0.96594 0
M  V30 26128 C 2531.44 -2.24689 0.452505 0
M  V30 26129 C 2532.45 -1.56803 -0.437794 0
M  V30 26130 O 2533.64 -1.76821 -0.244252 0
M  V30 26131 C 2530.74 -3.36916 -0.366199 0
M  V30 26132 C 2529.91 -4.34372 0.513778 0
M  V30 26133 C 2528.97 -5.25612 -0.248623 0
M  V30 26134 O 2528 -5.6808 0.356845 0
M  V30 26135 N 2529.2 -5.59737 -1.53867 0
M  V30 26136 H 2531.97 -2.69375 1.31366 0
M  V30 26137 H 2529.53 -1.38551 0.837565 0
M  V30 26138 H 2531.52 -3.94922 -0.884228 0
M  V30 26139 H 2530.09 -2.91528 -1.12827 0
M  V30 26140 H 2529.31 -3.7508 1.2128 0
M  V30 26141 H 2530.6 -4.96455 1.11399 0
M  V30 26142 H 2530 -5.27158 -2.05234 0
M  V30 26143 H 2528.55 -6.20279 -2.00244 0
M  V30 26144 N 2531.99 -0.735845 -1.39367 0
M  V30 26145 C 2532.94 -0.0724687 -2.27885 0
M  V30 26146 C 2533.92 0.711731 -1.44302 0
M  V30 26147 O 2535.11 0.580601 -1.67207 0
M  V30 26148 C 2532.24 0.833396 -3.33031 0
M  V30 26149 C 2531.33 0.0433003 -4.24078 0
M  V30 26150 N 2531.72 -0.98399 -4.96136 0
M  V30 26151 C 2530.02 0.272827 -4.45165 0
M  V30 26152 C 2530.72 -1.4605 -5.63067 0
M  V30 26153 N 2529.69 -0.778951 -5.3799 0
M  V30 26154 H 2533.49 -0.859516 -2.81051 0
M  V30 26155 H 2531.01 -0.570254 -1.52059 0
M  V30 26156 H 2533.01 1.32412 -3.95313 0
M  V30 26157 H 2531.67 1.61959 -2.81424 0
M  V30 26158 H 2532.68 -1.36537 -4.99578 0
M  V30 26159 H 2529.35 1.03376 -4.04499 0
M  V30 26160 H 2530.74 -2.31522 -6.30751 0
M  V30 26161 N 2533.46 1.49999 -0.483543 0
M  V30 26162 C 2534.39 2.31644 0.293788 0
M  V30 26163 C 2535.37 1.39114 0.97884 0
M  V30 26164 O 2536.56 1.68031 0.973614 0
M  V30 26165 C 2533.69 3.19183 1.36892 0
M  V30 26166 C 2532.64 4.20366 0.804759 0
M  V30 26167 C 2531.97 4.96725 1.97911 0
M  V30 26168 C 2533.27 5.21945 -0.192404 0
M  V30 26169 H 2534.96 2.9688 -0.387668 0
M  V30 26170 H 2532.51 1.42769 -0.187881 0
M  V30 26171 H 2534.46 3.75103 1.9203 0
M  V30 26172 H 2533.19 2.51857 2.07932 0
M  V30 26173 H 2531.85 3.65565 0.275254 0
M  V30 26174 H 2531.49 4.25861 2.67678 0
M  V30 26175 H 2531.19 5.65176 1.60779 0
M  V30 26176 H 2532.72 5.55483 2.53516 0
M  V30 26177 H 2534.13 5.72663 0.270232 0
M  V30 26178 H 2532.53 5.98188 -0.478648 0
M  V30 26179 H 2533.6 4.71926 -1.11418 0
M  V30 26180 N 2534.94 0.216646 1.56104 0
M  V30 26181 C 2536.35 -0.292096 1.84401 0
M  V30 26182 C 2536.7 -1.59831 1.13791 0
M  V30 26183 O 2535.83 -2.12559 0.405925 0
M  V30 26184 C 2536.42 -0.536751 3.34521 0
M  V30 26185 C 2534.98 -0.989813 3.63152 0
M  V30 26186 C 2534.13 -0.0501815 2.77255 0
M  V30 26187 H 2537.08 0.439953 1.5248 0
M  V30 26188 H 2537.1 -1.38338 3.54461 0
M  V30 26189 H 2536.61 0.414099 3.85884 0
M  V30 26190 H 2534.71 -1.95419 3.17241 0
M  V30 26191 H 2534.83 -0.867615 4.71179 0
M  V30 26192 H 2533.19 -0.556073 2.48556 0
M  V30 26193 H 2533.97 0.895498 3.31415 0
M  V30 26194 N 2536.42 -1.57498 -0.0567885 0
M  V30 26195 C 2537.65 -1.91936 -0.764482 0
M  V30 26196 C 2538.06 -0.8123 -1.70875 0
M  V30 26197 O 2537.4 0.222181 -1.82351 0
M  V30 26198 C 2537.46 -3.21965 -1.59935 0
M  V30 26199 C 2537.13 -4.49531 -0.822846 0
M  V30 26200 C 2538.12 -5.19724 -0.135373 0
M  V30 26201 C 2535.81 -4.96119 -0.785579 0
M  V30 26202 C 2537.8 -6.34765 0.578973 0
M  V30 26203 C 2535.49 -6.11063 -0.067471 0
M  V30 26204 C 2536.49 -6.80238 0.613591 0
M  V30 26205 O 2536.18 -7.92987 1.3201 0
M  V30 26206 H 2535.91 -0.638634 -0.221636 0
M  V30 26207 H 2538.46 -2.05383 -0.0267857 0
M  V30 26208 H 2536.69 -3.04768 -2.3802 0
M  V30 26209 H 2538.38 -3.41937 -2.18709 0
M  V30 26210 H 2539.15 -4.84751 -0.155373 0
M  V30 26211 H 2535.03 -4.42139 -1.30516 0
M  V30 26212 H 2538.57 -6.88694 1.11112 0
M  V30 26213 H 2534.47 -6.45484 -0.0454501 0
M  V30 26214 H 2535.23 -8.09191 1.23091 0
M  V30 26215 N 2537.9 0.328509 -1.54138 0
M  V30 26216 C 2539.15 1.06453 -1.7132 0
M  V30 26217 C 2539.46 1.89333 -0.491142 0
M  V30 26218 O 2540.67 2.6599 -0.544207 0
M  V30 26219 C 2539.12 1.94209 -3.03003 0
M  V30 26220 C 2538.73 1.16464 -4.32597 0
M  V30 26221 C 2540.47 2.67577 -3.29549 0
M  V30 26222 C 2538.38 2.03337 -5.55345 0
M  V30 26223 H 2537.31 0.401143 -0.638436 0
M  V30 26224 H 2539.96 0.323074 -1.80634 0
M  V30 26225 H 2538.34 2.72234 -2.87584 0
M  V30 26226 H 2539.52 0.432445 -4.58766 0
M  V30 26227 H 2537.83 0.54799 -4.12778 0
M  V30 26228 H 2540.43 3.32872 -4.1845 0
M  V30 26229 H 2540.77 3.34951 -2.47212 0
M  V30 26230 H 2541.31 1.96617 -3.45813 0
M  V30 26231 H 2538.04 1.4048 -6.4027 0
M  V30 26232 H 2537.56 2.74303 -5.33402 0
M  V30 26233 H 2539.24 2.62039 -5.91561 0
M  V30 26234 N 2539.38 1.46127 0.590316 0
M  V30 26235 C 2540.29 1.58684 1.7279 0
M  V30 26236 C 2541.3 0.470595 1.67515 0
M  V30 26237 O 2542.48 0.733675 1.87561 0
M  V30 26238 C 2539.54 1.56666 3.09284 0
M  V30 26239 C 2538.6 2.79463 3.25881 0
M  V30 26240 C 2537.84 2.77532 4.55864 0
M  V30 26241 O 2538.06 1.85842 5.39276 0
M  V30 26242 O 2536.99 3.68972 4.75545 0
M  V30 26243 H 2540.82 2.54875 1.65144 0
M  V30 26244 H 2538.4 1.28833 0.756463 0
M  V30 26245 H 2540.29 1.58209 3.90574 0
M  V30 26246 H 2538.96 0.636327 3.17384 0
M  V30 26247 H 2537.87 2.83477 2.44114 0
M  V30 26248 H 2539.2 3.7168 3.22668 0
M  V30 26249 N 2540.85 -0.834306 1.33705 0
M  V30 26250 C 2541.79 -1.95168 1.20176 0
M  V30 26251 C 2542.8 -1.62267 0.131601 0
M  V30 26252 O 2543.99 -1.74355 0.382437 0
M  V30 26253 C 2541.09 -3.28786 0.821774 0
M  V30 26254 C 2540.26 -3.89789 1.98453 0
M  V30 26255 C 2539.32 -5.01768 1.58478 0
M  V30 26256 O 2538.35 -5.20672 2.29977 0
M  V30 26257 N 2539.55 -5.78408 0.492392 0
M  V30 26258 H 2542.31 -2.07309 2.16432 0
M  V30 26259 H 2539.87 -1.01028 1.2651 0
M  V30 26260 H 2541.87 -4.0113 0.536361 0
M  V30 26261 H 2540.44 -3.1256 -0.0502509 0
M  V30 26262 H 2539.66 -3.09978 2.43531 0
M  V30 26263 H 2540.94 -4.27278 2.76244 0
M  V30 26264 H 2540.34 -5.65608 -0.102249 0
M  V30 26265 H 2538.9 -6.51254 0.266669 0
M  V30 26266 N 2542.33 -1.17248 -1.05312 0
M  V30 26267 C 2543.58 -0.958225 -1.77939 0
M  V30 26268 C 2543.9 0.514523 -1.8809 0
M  V30 26269 O 2543.17 1.37357 -1.39678 0
M  V30 26270 H 2541.75 -0.351545 -0.659109 0
M  V30 26271 H 2544.41 -1.47701 -1.27163 0
M  V30 26272 H 2543.51 -1.38551 -2.79661 0
M  V30 26273 N 2543.81 1.24015 -0.972531 0
M  V30 26274 C 2544.74 2.23695 -0.451209 0
M  V30 26275 C 2545.72 1.55435 0.477351 0
M  V30 26276 O 2546.91 1.8404 0.407615 0
M  V30 26277 C 2544.03 3.36906 0.34812 0
M  V30 26278 C 2543.08 4.23276 -0.523429 0
M  V30 26279 S 2543.91 4.98083 -1.96655 0
M  V30 26280 C 2545.07 6.1475 -1.17615 0
M  V30 26281 H 2545.3 2.67569 -1.29593 0
M  V30 26282 H 2542.83 1.3337 -0.777927 0
M  V30 26283 H 2544.79 4.02563 0.803316 0
M  V30 26284 H 2543.45 2.91581 1.16787 0
M  V30 26285 H 2542.65 5.03919 0.0905295 0
M  V30 26286 H 2542.25 3.62646 -0.914549 0
M  V30 26287 H 2544.54 6.76111 -0.433553 0
M  V30 26288 H 2545.48 6.80516 -1.95712 0
M  V30 26289 H 2545.89 5.60163 -0.698394 0
M  V30 26290 N 2545.29 0.743226 1.38974 0
M  V30 26291 C 2546.22 0.0572566 2.28128 0
M  V30 26292 C 2547.2 -0.739156 1.44828 0
M  V30 26293 O 2548.38 -0.719978 1.74208 0
M  V30 26294 C 2545.51 -0.925944 3.25797 0
M  V30 26295 C 2544.56 -0.217024 4.25947 0
M  V30 26296 S 2545.39 1.07486 5.24602 0
M  V30 26297 C 2546.55 0.0944645 6.25829 0
M  V30 26298 H 2546.78 0.813296 2.85959 0
M  V30 26299 H 2544.31 0.535366 1.44821 0
M  V30 26300 H 2546.27 -1.4879 3.82586 0
M  V30 26301 H 2544.93 -1.65488 2.66969 0
M  V30 26302 H 2544.12 -0.961285 4.94748 0
M  V30 26303 H 2543.73 0.273125 3.73001 0
M  V30 26304 H 2546.02 -0.743121 6.73412 0
M  V30 26305 H 2546.96 0.749837 7.04119 0
M  V30 26306 H 2547.37 -0.281607 5.63797 0
M  V30 26307 N 2546.77 -1.4974 0.491491 0
M  V30 26308 C 2547.7 -2.31797 -0.2815 0
M  V30 26309 C 2548.68 -1.39631 -0.971448 0
M  V30 26310 O 2549.86 -1.68545 -0.964689 0
M  V30 26311 C 2546.99 -3.19905 -1.35197 0
M  V30 26312 C 2545.95 -4.20787 -0.782455 0
M  V30 26313 C 2545.27 -4.97767 -1.95274 0
M  V30 26314 C 2546.57 -5.21836 0.220082 0
M  V30 26315 H 2548.27 -2.9667 0.403407 0
M  V30 26316 H 2545.81 -1.42667 0.19545 0
M  V30 26317 H 2547.77 -3.76116 -1.90038 0
M  V30 26318 H 2546.49 -2.52956 -2.06593 0
M  V30 26319 H 2545.15 -3.65706 -0.255864 0
M  V30 26320 H 2544.8 -4.27274 -2.65416 0
M  V30 26321 H 2544.5 -5.66021 -1.57779 0
M  V30 26322 H 2546.02 -5.5682 -2.50567 0
M  V30 26323 H 2547.43 -5.72798 -0.239859 0
M  V30 26324 H 2545.83 -5.97926 0.510365 0
M  V30 26325 H 2546.9 -4.71328 1.13919 0
M  V30 26326 N 2548.24 -0.224922 -1.55987 0
M  V30 26327 C 2549.21 0.670309 -2.19179 0
M  V30 26328 C 2550.21 1.11915 -1.15463 0
M  V30 26329 O 2551.4 1.02741 -1.40677 0
M  V30 26330 C 2548.53 1.91866 -2.81781 0
M  V30 26331 H 2549.72 0.119311 -2.99663 0
M  V30 26332 H 2547.28 0.0246853 -1.56281 0
M  V30 26333 H 2548.01 2.51144 -2.05176 0
M  V30 26334 H 2547.8 1.60525 -3.57735 0
M  V30 26335 H 2549.29 2.5564 -3.30209 0
M  V30 26336 N 2549.72 1.57526 0.0484352 0
M  V30 26337 C 2550.63 2.08656 1.07237 0
M  V30 26338 C 2551.65 1.02097 1.40898 0
M  V30 26339 O 2552.82 1.33715 1.50606 0
M  V30 26340 C 2549.89 2.53975 2.36004 0
M  V30 26341 C 2548.95 3.74933 2.09101 0
M  V30 26342 C 2548.18 4.18081 3.31729 0
M  V30 26343 O 2548.41 3.60903 4.41708 0
M  V30 26344 O 2547.34 5.10685 3.18567 0
M  V30 26345 H 2551.17 2.96264 0.667913 0
M  V30 26346 H 2548.75 1.47046 0.264144 0
M  V30 26347 H 2550.63 2.8354 3.11742 0
M  V30 26348 H 2549.31 1.69486 2.75783 0
M  V30 26349 H 2548.22 3.50416 1.30993 0
M  V30 26350 H 2549.55 4.60346 1.7419 0
M  V30 26351 N 2551.2 -0.32033 1.5431 0
M  V30 26352 C 2552.13 -1.41553 1.80265 0
M  V30 26353 C 2553.15 -1.47699 0.684749 0
M  V30 26354 O 2554.33 -1.50365 0.961913 0
M  V30 26355 C 2551.43 -2.80066 1.9083 0
M  V30 26356 C 2550.61 -2.97085 3.21028 0
M  V30 26357 C 2549.67 -4.15979 3.22254 0
M  V30 26358 O 2548.69 -4.08985 3.95878 0
M  V30 26359 N 2549.89 -5.25674 2.46267 0
M  V30 26360 H 2552.66 -1.19651 2.7478 0
M  V30 26361 H 2550.22 -0.510331 1.53646 0
M  V30 26362 H 2552.21 -3.57817 1.89074 0
M  V30 26363 H 2550.78 -2.95005 1.03397 0
M  V30 26364 H 2550 -2.06608 3.35718 0
M  V30 26365 H 2551.29 -3.05353 4.06985 0
M  V30 26366 H 2550.69 -5.34232 1.86046 0
M  V30 26367 H 2549.25 -6.01831 2.50285 0
M  V30 26368 N 2552.68 -1.46438 -0.582558 0
M  V30 26369 C 2553.93 -1.51756 -1.34076 0
M  V30 26370 C 2554.25 -0.169333 -1.93761 0
M  V30 26371 O 2553.51 0.835031 -1.76991 0
M  V30 26372 C 2553.81 -2.56426 -2.48959 0
M  V30 26373 C 2553.47 -4.00439 -2.07266 0
M  V30 26374 C 2552.14 -4.39648 -1.9561 0
M  V30 26375 C 2554.49 -4.90906 -1.75103 0
M  V30 26376 C 2551.82 -5.67188 -1.5005 0
M  V30 26377 C 2554.17 -6.18883 -1.31021 0
M  V30 26378 C 2552.83 -6.56998 -1.17942 0
M  V30 26379 H 2552.1 -0.555313 -0.49062 0
M  V30 26380 H 2554.75 -1.79914 -0.655975 0
M  V30 26381 H 2553.05 -2.21928 -3.22885 0
M  V30 26382 H 2554.75 -2.5777 -3.07174 0
M  V30 26383 H 2551.34 -3.69446 -2.17272 0
M  V30 26384 H 2555.52 -4.61332 -1.82993 0
M  V30 26385 H 2550.78 -5.95491 -1.38567 0
M  V30 26386 H 2554.95 -6.8841 -1.05188 0
M  V30 26387 H 2552.58 -7.55719 -0.824146 0
M  V30 26388 N 2554.16 0.827204 -1.34146 0
M  V30 26389 C 2555.1 1.93782 -1.25367 0
M  V30 26390 C 2556.07 1.65592 -0.129803 0
M  V30 26391 O 2557.26 1.88264 -0.310057 0
M  V30 26392 C 2554.4 3.29968 -1.0107 0
M  V30 26393 C 2553.51 3.7048 -2.22191 0
M  V30 26394 C 2552.65 4.95592 -1.91212 0
M  V30 26395 C 2551.69 5.28672 -3.085 0
M  V30 26396 N 2550.82 6.44962 -2.77432 0
M  V30 26397 H 2555.66 2.00623 -2.20351 0
M  V30 26398 H 2553.2 0.981589 -1.09559 0
M  V30 26399 H 2555.16 4.08445 -0.850211 0
M  V30 26400 H 2553.79 3.22653 -0.0975593 0
M  V30 26401 H 2552.84 2.8743 -2.49175 0
M  V30 26402 H 2554.15 3.909 -3.09837 0
M  V30 26403 H 2553.31 5.81845 -1.71875 0
M  V30 26404 H 2552.04 4.77165 -1.0082 0
M  V30 26405 H 2551.05 4.40918 -3.28438 0
M  V30 26406 H 2552.27 5.4904 -3.99664 0
M  V30 26407 H 2550.22 6.27999 -1.89612 0
M  V30 26408 H 2550.14 6.65534 -3.5861 0
M  V30 26409 H 2551.41 7.34296 -2.61589 0
M  V30 26410 N 2555.63 1.17805 1.04688 0
M  V30 26411 C 2556.57 0.857135 2.1257 0
M  V30 26412 C 2557.58 -0.142619 1.62174 0
M  V30 26413 O 2558.77 0.0843701 1.783 0
M  V30 26414 C 2555.87 0.258275 3.37914 0
M  V30 26415 C 2555.04 1.30215 4.17568 0
M  V30 26416 C 2554.1 0.72012 5.21249 0
M  V30 26417 O 2553.13 1.39324 5.51885 0
M  V30 26418 N 2554.33 -0.485405 5.78467 0
M  V30 26419 H 2557.09 1.78567 2.40695 0
M  V30 26420 H 2554.65 1.07759 1.20829 0
M  V30 26421 H 2556.65 -0.144513 4.04442 0
M  V30 26422 H 2555.22 -0.574145 3.07282 0
M  V30 26423 H 2554.44 1.88049 3.46455 0
M  V30 26424 H 2555.72 2.00609 4.67582 0
M  V30 26425 H 2555.12 -1.05013 5.55868 0
M  V30 26426 H 2553.68 -0.830193 6.46491 0
M  V30 26427 N 2557.11 -1.23497 0.979094 0
M  V30 26428 C 2558.06 -2.24913 0.517944 0
M  V30 26429 C 2559.03 -1.60097 -0.442496 0
M  V30 26430 O 2560.21 -1.87556 -0.350332 0
M  V30 26431 C 2557.35 -3.44657 -0.174753 0
M  V30 26432 C 2556.47 -4.24034 0.825795 0
M  V30 26433 C 2555.6 -5.3109 0.108039 0
M  V30 26434 C 2554.64 -6.02173 1.09789 0
M  V30 26435 N 2553.78 -7.00906 0.409374 0
M  V30 26436 H 2558.62 -2.63725 1.38756 0
M  V30 26437 H 2556.16 -1.29629 0.695326 0
M  V30 26438 H 2558.11 -4.12962 -0.59316 0
M  V30 26439 H 2556.74 -3.0665 -1.00825 0
M  V30 26440 H 2555.8 -3.55158 1.3626 0
M  V30 26441 H 2557.11 -4.7311 1.58013 0
M  V30 26442 H 2556.26 -6.05584 -0.367798 0
M  V30 26443 H 2555 -4.82951 -0.678909 0
M  V30 26444 H 2554.01 -5.26473 1.58449 0
M  V30 26445 H 2555.23 -6.52401 1.88548 0
M  V30 26446 H 2553.18 -6.5502 -0.35839 0
M  V30 26447 H 2553.09 -7.47919 1.10239 0
M  V30 26448 H 2554.36 -7.79488 -0.0441187 0
M  V30 26449 N 2558.59 -0.750586 -1.38578 0
M  V30 26450 C 2559.55 -0.129192 -2.28836 0
M  V30 26451 C 2560.55 0.650688 -1.47047 0
M  V30 26452 O 2561.74 0.477398 -1.67531 0
M  V30 26453 C 2558.88 0.825563 -3.30753 0
M  V30 26454 H 2560.07 -0.924566 -2.85292 0
M  V30 26455 H 2557.62 -0.517402 -1.47488 0
M  V30 26456 H 2558.36 1.64672 -2.79381 0
M  V30 26457 H 2558.14 0.268784 -3.91178 0
M  V30 26458 H 2559.63 1.25643 -3.98251 0
M  V30 26459 N 2560.07 1.49477 -0.499425 0
M  V30 26460 C 2561 2.31943 0.269203 0
M  V30 26461 C 2561.98 1.40144 0.96403 0
M  V30 26462 O 2563.17 1.69054 0.955737 0
M  V30 26463 C 2560.3 3.20617 1.33499 0
M  V30 26464 C 2559.25 4.21196 0.760128 0
M  V30 26465 C 2558.58 4.98796 1.92631 0
M  V30 26466 C 2559.88 5.21712 -0.247753 0
M  V30 26467 H 2561.57 2.96452 -0.419134 0
M  V30 26468 H 2559.12 1.42562 -0.203013 0
M  V30 26469 H 2561.07 3.77119 1.88041 0
M  V30 26470 H 2559.79 2.54048 2.05249 0
M  V30 26471 H 2558.45 3.65837 0.236466 0
M  V30 26472 H 2558.1 4.28676 2.63146 0
M  V30 26473 H 2557.8 5.6685 1.54775 0
M  V30 26474 H 2559.32 5.58141 2.4761 0
M  V30 26475 H 2560.74 5.72917 0.209479 0
M  V30 26476 H 2559.13 5.97647 -0.542067 0
M  V30 26477 H 2560.2 4.70718 -1.16417 0
M  V30 26478 N 2561.55 0.233191 1.55865 0
M  V30 26479 C 2562.8 -0.394558 1.98211 0
M  V30 26480 C 2563.12 -1.59461 1.12237 0
M  V30 26481 O 2562.39 -1.94856 0.202016 0
M  V30 26482 H 2560.97 -0.148765 0.732037 0
M  V30 26483 H 2563.63 0.328793 1.92107 0
M  V30 26484 H 2562.72 -0.71301 3.03846 0
M  V30 26485 N 2563.03 -1.57549 -0.0400806 0
M  V30 26486 C 2563.96 -2.08871 -1.0438 0
M  V30 26487 C 2564.94 -0.988842 -1.38405 0
M  V30 26488 O 2566.12 -1.26345 -1.47481 0
M  V30 26489 C 2563.25 -2.55899 -2.34804 0
M  V30 26490 C 2562.21 -3.70051 -2.1505 0
M  V30 26491 C 2561.53 -4.03245 -3.51137 0
M  V30 26492 C 2562.83 -4.98905 -1.54567 0
M  V30 26493 H 2564.53 -2.92982 -0.616615 0
M  V30 26494 H 2562.07 -1.40943 -0.295159 0
M  V30 26495 H 2564.02 -2.90422 -3.05341 0
M  V30 26496 H 2562.75 -1.68858 -2.79562 0
M  V30 26497 H 2561.41 -3.3586 -1.46948 0
M  V30 26498 H 2561.06 -3.13286 -3.93523 0
M  V30 26499 H 2560.76 -4.80128 -3.38749 0
M  V30 26500 H 2562.28 -4.40292 -4.23054 0
M  V30 26501 H 2563.69 -5.31455 -2.15008 0
M  V30 26502 H 2562.09 -5.80324 -1.52786 0
M  V30 26503 H 2563.16 -4.82207 -0.510306 0
M  V30 26504 N 2564.5 0.312142 -1.54478 0
M  V30 26505 C 2565.43 1.38954 -1.87654 0
M  V30 26506 C 2566.41 1.5343 -0.734385 0
M  V30 26507 O 2567.6 1.67122 -0.989139 0
M  V30 26508 C 2564.73 2.75549 -2.11401 0
M  V30 26509 C 2563.68 2.75849 -3.27248 0
M  V30 26510 C 2563.01 4.15628 -3.36389 0
M  V30 26511 C 2564.31 2.38579 -4.64626 0
M  V30 26512 H 2566 1.11437 -2.77889 0
M  V30 26513 H 2563.55 0.534631 -1.33707 0
M  V30 26514 H 2565.5 3.50996 -2.33195 0
M  V30 26515 H 2564.23 3.04567 -1.17926 0
M  V30 26516 H 2562.89 2.02857 -3.0536 0
M  V30 26517 H 2562.53 4.41805 -2.40452 0
M  V30 26518 H 2562.23 4.16732 -4.14256 0
M  V30 26519 H 2563.76 4.92871 -3.60431 0
M  V30 26520 H 2565.17 3.03741 -4.86225 0
M  V30 26521 H 2563.57 2.50916 -5.45125 0
M  V30 26522 H 2564.64 1.33715 -4.66099 0
M  V30 26523 N 2565.98 1.46745 0.574784 0
M  V30 26524 C 2566.91 1.53949 1.69801 0
M  V30 26525 C 2567.93 0.427134 1.57097 0
M  V30 26526 O 2569.12 0.695892 1.64376 0
M  V30 26527 C 2566.22 1.41116 3.08123 0
M  V30 26528 C 2565.39 2.66611 3.46753 0
M  V30 26529 C 2564.45 2.47864 4.64166 0
M  V30 26530 O 2563.47 3.21617 4.69629 0
M  V30 26531 N 2564.68 1.54544 5.5955 0
M  V30 26532 H 2567.44 2.50799 1.64073 0
M  V30 26533 H 2565 1.42901 0.760975 0
M  V30 26534 H 2566.99 1.26334 3.84476 0
M  V30 26535 H 2565.56 0.524163 3.08174 0
M  V30 26536 H 2564.78 2.96278 2.60025 0
M  V30 26537 H 2566.07 3.4996 3.69331 0
M  V30 26538 H 2565.47 0.937402 5.57879 0
M  V30 26539 H 2564.03 1.45722 6.35302 0
M  V30 26540 N 2567.46 -0.820078 1.34583 0
M  V30 26541 C 2568.69 -1.60811 1.30183 0
M  V30 26542 C 2569.1 -1.88396 -0.123518 0
M  V30 26543 O 2568.46 -1.47737 -1.07145 0
M  V30 26544 C 2568.51 -2.94735 2.09317 0
M  V30 26545 O 2568.23 -2.68352 3.46293 0
M  V30 26546 C 2569.73 -3.89132 2.12347 0
M  V30 26547 H 2566.95 -0.499774 0.447735 0
M  V30 26548 H 2569.5 -1.02014 1.77238 0
M  V30 26549 H 2567.65 -3.50082 1.65895 0
M  V30 26550 H 2568.07 -3.53767 3.87233 0
M  V30 26551 H 2569.54 -4.80257 2.72134 0
M  V30 26552 H 2570.02 -4.24716 1.11861 0
M  V30 26553 H 2570.62 -3.39721 2.5587 0
M  V30 26554 N 2568.94 -1.18359 -1.04062 0
M  V30 26555 C 2569.9 -0.912744 -2.10242 0
M  V30 26556 C 2570.9 0.1019 -1.60477 0
M  V30 26557 O 2572.09 -0.131547 -1.73703 0
M  V30 26558 C 2569.22 -0.369446 -3.38892 0
M  V30 26559 H 2570.42 -1.8543 -2.35702 0
M  V30 26560 H 2567.97 -0.995615 -1.20487 0
M  V30 26561 H 2568.7 0.57872 -3.19095 0
M  V30 26562 H 2568.49 -1.10086 -3.76329 0
M  V30 26563 H 2569.98 -0.198648 -4.17127 0
M  V30 26564 N 2570.42 1.22976 -0.98563 0
M  V30 26565 C 2571.64 1.96098 -0.675289 0
M  V30 26566 C 2572.07 1.72409 0.752124 0
M  V30 26567 O 2571.42 0.998778 1.51308 0
M  V30 26568 C 2571.47 3.47085 -0.97796 0
M  V30 26569 O 2570.58 4.12336 -0.0727575 0
M  V30 26570 H 2569.92 0.613724 -0.253454 0
M  V30 26571 H 2572.45 1.5627 -1.32064 0
M  V30 26572 H 2572.46 3.97566 -0.916809 0
M  V30 26573 H 2571.13 3.63654 -2.01813 0
M  V30 26574 H 2569.71 3.72422 -0.188768 0
M  V30 26575 N 2571.89 0.757924 1.38178 0
M  V30 26576 C 2573.31 0.435999 1.53529 0
M  V30 26577 C 2573.51 -1.05029 1.71962 0
M  V30 26578 O 2572.57 -1.83629 1.7331 0
M  V30 26579 C 2573.88 1.23903 2.73987 0
M  V30 26580 C 2575.43 1.22954 2.87839 0
M  V30 26581 C 2575.9 2.01562 4.11263 0
M  V30 26582 N 2577.39 1.98844 4.18348 0
M  V30 26583 C 2578.13 2.56459 5.12851 0
M  V30 26584 N 2577.62 3.22805 6.13 0
M  V30 26585 N 2579.42 2.46365 5.05233 0
M  V30 26586 H 2571.57 1.72112 1.24463 0
M  V30 26587 H 2573.83 0.729874 0.604969 0
M  V30 26588 H 2573.54 2.2917 2.66785 0
M  V30 26589 H 2573.41 0.858828 3.67293 0
M  V30 26590 H 2575.8 0.184906 2.9452 0
M  V30 26591 H 2575.88 1.64928 1.95531 0
M  V30 26592 H 2575.52 3.06038 4.05343 0
M  V30 26593 H 2575.45 1.56979 5.02658 0
M  V30 26594 H 2577.94 1.5053 3.46625 0
M  V30 26595 H 2578.26 3.64177 6.81612 0
M  V30 26596 H 2576.6 3.26901 6.1332 0
M  V30 26597 H 2579.79 1.94158 4.25935 0
M  V30 26598 H 2579.97 2.91562 5.78702 0
M  V30 26599 N 2573.37 -1.4921 0.507345 0
M  V30 26600 C 2574.3 -2.27168 -0.304492 0
M  V30 26601 C 2575.32 -1.33973 -0.924932 0
M  V30 26602 O 2576.51 -1.59206 -0.807199 0
M  V30 26603 C 2573.61 -3.06585 -1.44426 0
M  V30 26604 C 2572.78 -4.274 -0.929951 0
M  V30 26605 C 2571.84 -4.88811 -1.94809 0
M  V30 26606 O 2570.86 -5.48693 -1.51409 0
M  V30 26607 N 2572.07 -4.79027 -3.27892 0
M  V30 26608 H 2574.83 -2.97481 0.364002 0
M  V30 26609 H 2572.39 -1.58284 0.340277 0
M  V30 26610 H 2574.38 -3.44541 -2.12305 0
M  V30 26611 H 2572.95 -2.38839 -2.0168 0
M  V30 26612 H 2572.17 -3.94127 -0.0758551 0
M  V30 26613 H 2573.46 -5.05655 -0.564843 0
M  V30 26614 H 2572.86 -4.31487 -3.65836 0
M  V30 26615 H 2571.42 -5.21149 -3.91467 0
M  V30 26616 N 2574.85 -0.241454 -1.55739 0
M  V30 26617 C 2575.81 0.647025 -2.19878 0
M  V30 26618 C 2576.81 1.10684 -1.16644 0
M  V30 26619 O 2578 1.01243 -1.41759 0
M  V30 26620 C 2575.14 1.88866 -2.838 0
M  V30 26621 H 2576.33 0.0875213 -2.99772 0
M  V30 26622 H 2573.88 0.00810826 -1.56298 0
M  V30 26623 H 2574.62 2.48953 -2.07829 0
M  V30 26624 H 2574.4 1.56722 -3.59417 0
M  V30 26625 H 2575.89 2.52123 -3.32902 0
M  V30 26626 N 2576.33 1.57568 0.0317248 0
M  V30 26627 C 2577.24 2.09782 1.05018 0
M  V30 26628 C 2578.25 1.03586 1.39807 0
M  V30 26629 O 2579.43 1.35305 1.4918 0
M  V30 26630 C 2576.5 2.56463 2.33297 0
M  V30 26631 C 2575.56 3.7713 2.05113 0
M  V30 26632 C 2574.79 4.21576 3.27276 0
M  V30 26633 O 2575.01 3.65567 4.37855 0
M  V30 26634 O 2573.95 5.14035 3.13132 0
M  V30 26635 H 2577.77 2.96956 0.636453 0
M  V30 26636 H 2575.36 1.47318 0.248533 0
M  V30 26637 H 2577.24 2.86831 3.08717 0
M  V30 26638 H 2575.91 1.72401 2.7397 0
M  V30 26639 H 2574.82 3.51786 1.27269 0
M  V30 26640 H 2576.15 4.62168 1.69297 0
M  V30 26641 N 2577.81 -0.303946 1.54641 0
M  V30 26642 C 2579.05 -1.04106 1.7404 0
M  V30 26643 C 2579.39 -1.87023 0.523084 0
M  V30 26644 O 2578.66 -1.88488 -0.479841 0
M  V30 26645 C 2578.94 -1.9495 3.02765 0
M  V30 26646 C 2578.8 -1.15233 4.34789 0
M  V30 26647 C 2580.12 -2.94169 3.27342 0
M  V30 26648 H 2577.23 -0.377068 0.633237 0
M  V30 26649 H 2579.88 -0.315968 1.87354 0
M  V30 26650 H 2578.03 -2.56776 2.91544 0
M  V30 26651 H 2579.7 -0.557155 4.57923 0
M  V30 26652 H 2577.94 -0.454977 4.31407 0
M  V30 26653 H 2578.61 -1.82041 5.21119 0
M  V30 26654 H 2581.09 -2.42471 3.38152 0
M  V30 26655 H 2579.96 -3.549 4.18733 0
M  V30 26656 H 2580.23 -3.67673 2.45497 0
M  V30 26657 N 2579.28 -1.47047 -0.566994 0
M  V30 26658 C 2580.53 -1.52432 -1.32089 0
M  V30 26659 C 2580.85 -0.187055 -1.94704 0
M  V30 26660 O 2582.05 -0.118818 -2.7124 0
M  V30 26661 C 2580.51 -2.68663 -2.39475 0
M  V30 26662 C 2580.12 -4.08878 -1.83093 0
M  V30 26663 C 2581.86 -2.83332 -3.16106 0
M  V30 26664 C 2579.77 -5.16424 -2.88201 0
M  V30 26665 H 2578.7 -0.567349 -0.49662 0
M  V30 26666 H 2581.35 -1.73298 -0.603324 0
M  V30 26667 H 2579.73 -2.41157 -3.14101 0
M  V30 26668 H 2580.9 -4.46244 -1.14905 0
M  V30 26669 H 2579.22 -3.99011 -1.19078 0
M  V30 26670 H 2581.82 -3.60849 -3.94579 0
M  V30 26671 H 2582.16 -1.91418 -3.69682 0
M  V30 26672 H 2582.69 -3.10561 -2.4859 0
M  V30 26673 H 2579.43 -6.10183 -2.39493 0
M  V30 26674 H 2578.95 -4.83586 -3.5483 0
M  V30 26675 H 2580.63 -5.42951 -3.51871 0
M  V30 26676 N 2580.76 0.812929 -1.35016 0
M  V30 26677 C 2581.73 1.906 -1.27296 0
M  V30 26678 C 2582.73 1.59722 -0.185845 0
M  V30 26679 O 2583.92 1.68574 -0.439132 0
M  V30 26680 C 2581.05 3.26876 -0.967733 0
M  V30 26681 H 2582.24 1.98866 -2.24482 0
M  V30 26682 H 2579.79 1.00806 -1.19448 0
M  V30 26683 H 2580.53 3.243 0.000538396 0
M  V30 26684 H 2580.31 3.50672 -1.75418 0
M  V30 26685 H 2581.8 4.06902 -0.939156 0
M  V30 26686 N 2582.24 1.18909 1.03433 0
M  V30 26687 C 2583.65 0.991551 1.58193 0
M  V30 26688 C 2584 -0.457047 1.90802 0
M  V30 26689 O 2583.13 -1.3355 1.70274 0
M  V30 26690 C 2583.72 1.7936 2.87429 0
M  V30 26691 C 2582.28 1.64023 3.38782 0
M  V30 26692 C 2581.43 1.78406 2.12289 0
M  V30 26693 H 2584.38 1.3336 0.860275 0
M  V30 26694 H 2584.4 1.28645 3.58093 0
M  V30 26695 H 2583.91 2.84786 2.63664 0
M  V30 26696 H 2582.01 0.611601 3.67546 0
M  V30 26697 H 2582.13 2.4422 4.12181 0
M  V30 26698 H 2580.49 1.21414 2.23899 0
M  V30 26699 H 2581.27 2.8528 1.90972 0
M  V30 26700 N 2583.72 -1.22452 0.992137 0
M  V30 26701 C 2584.68 -2.22579 0.546922 0
M  V30 26702 C 2585.68 -1.5649 -0.369802 0
M  V30 26703 O 2586.87 -1.73446 -0.161865 0
M  V30 26704 C 2584 -3.40285 -0.204599 0
M  V30 26705 H 2585.2 -2.63482 1.43239 0
M  V30 26706 H 2582.75 -1.35489 0.779263 0
M  V30 26707 H 2583.48 -3.04854 -1.10609 0
M  V30 26708 H 2583.27 -3.89467 0.453609 0
M  V30 26709 H 2584.76 -4.14544 -0.504285 0
M  V30 26710 N 2585.2 -0.765242 -1.37774 0
M  V30 26711 C 2586.44 -0.327107 -2.00145 0
M  V30 26712 C 2586.78 1.09172 -1.60609 0
M  V30 26713 O 2586.05 1.74984 -0.849158 0
M  V30 26714 C 2586.33 -0.463252 -3.57108 0
M  V30 26715 C 2586.19 -1.92402 -4.06573 0
M  V30 26716 C 2587.51 0.136396 -4.39889 0
M  V30 26717 H 2584.62 -0.120329 -0.727111 0
M  V30 26718 H 2587.27 -0.967068 -1.63548 0
M  V30 26719 H 2585.42 0.0815675 -3.88414 0
M  V30 26720 H 2587.09 -2.52805 -3.85859 0
M  V30 26721 H 2585.33 -2.43509 -3.59007 0
M  V30 26722 H 2586 -1.97038 -5.15636 0
M  V30 26723 H 2588.48 -0.328389 -4.14802 0
M  V30 26724 H 2587.35 0.0109617 -5.48899 0
M  V30 26725 H 2587.62 1.226 -4.24761 0
M  V30 26726 N 2586.67 1.48939 -0.515251 0
M  V30 26727 C 2587.61 2.27327 0.292441 0
M  V30 26728 C 2588.62 1.34462 0.917814 0
M  V30 26729 O 2589.81 1.59632 0.798744 0
M  V30 26730 C 2586.91 3.07347 1.42798 0
M  V30 26731 C 2586.08 4.27887 0.907272 0
M  V30 26732 C 2585.14 4.89837 1.92214 0
M  V30 26733 O 2584.17 5.49488 1.48497 0
M  V30 26734 N 2585.37 4.80759 3.25347 0
M  V30 26735 H 2588.13 2.97284 -0.379773 0
M  V30 26736 H 2585.69 1.58101 -0.348666 0
M  V30 26737 H 2587.69 3.45662 2.10475 0
M  V30 26738 H 2586.26 2.39905 2.0041 0
M  V30 26739 H 2585.48 3.94162 0.0549525 0
M  V30 26740 H 2586.76 5.05947 0.538019 0
M  V30 26741 H 2586.16 4.33421 3.63542 0
M  V30 26742 H 2584.72 5.23218 3.88698 0
M  V30 26743 N 2588.15 0.249709 1.55609 0
M  V30 26744 C 2589.38 -0.378316 2.03412 0
M  V30 26745 C 2589.8 -1.51333 1.12889 0
M  V30 26746 O 2589.15 -1.81932 0.143865 0
M  V30 26747 C 2589.2 -0.883448 3.50539 0
M  V30 26748 O 2588.93 0.206337 4.37614 0
M  V30 26749 C 2590.43 -1.58188 4.14115 0
M  V30 26750 H 2587.65 -0.0895683 0.664995 0
M  V30 26751 H 2590.19 0.374393 2.01044 0
M  V30 26752 H 2588.35 -1.58633 3.53432 0
M  V30 26753 H 2588.76 -0.17769 5.24199 0
M  V30 26754 H 2590.23 -1.88701 5.18745 0
M  V30 26755 H 2590.71 -2.50481 3.60772 0
M  V30 26756 H 2591.32 -0.9235 4.15152 0
M  V30 26757 N 2589.63 -1.57583 -0.0233682 0
M  V30 26758 C 2590.58 -2.08025 -1.04059 0
M  V30 26759 C 2591.57 -0.995228 -1.37082 0
M  V30 26760 O 2592.78 -1.18007 -1.35921 0
M  V30 26761 H 2589.15 -0.663929 -0.353133 0
M  V30 26762 H 2591.13 -2.92521 -0.589402 0
M  V30 26763 C 2589.87 -2.57975 -2.33119 0
M  V30 26764 H 2589.2 -3.41084 -2.08571 0
M  V30 26765 H 2590.64 -2.96973 -3.02627 0
M  V30 26766 C 2589.1 -1.48348 -3.02481 0
M  V30 26767 O 2589.63 -0.852967 -3.9254 0
M  V30 26768 N 2587.83 -1.21662 -2.63906 0
M  V30 26769 H 2587.38 -1.73119 -1.90755 0
M  V30 26770 H 2587.34 -0.485272 -3.10632 0
M  V30 26771 N 2591.11 0.29574 -1.548 0
M  V30 26772 C 2592.36 1.02785 -1.75518 0
M  V30 26773 C 2592.71 1.84745 -0.537299 0
M  V30 26774 O 2592 1.85739 0.470266 0
M  V30 26775 C 2592.2 1.96094 -2.98801 0
M  V30 26776 C 2592.03 1.23314 -4.32462 0
M  V30 26777 C 2590.8 0.958133 -4.96133 0
M  V30 26778 C 2592.99 0.634934 -5.10366 0
M  V30 26779 N 2590.98 0.20115 -6.1357 0
M  V30 26780 C 2592.35 0.0109847 -6.19999 0
M  V30 26781 C 2594.4 0.540507 -4.94958 0
M  V30 26782 C 2593.11 -0.698262 -7.15903 0
M  V30 26783 C 2595.13 -0.155096 -5.91197 0
M  V30 26784 C 2594.49 -0.767875 -7.00202 0
M  V30 26785 H 2590.59 0.35887 -0.694792 0
M  V30 26786 H 2593.18 0.305909 -1.92282 0
M  V30 26787 H 2591.35 2.65535 -2.83453 0
M  V30 26788 H 2593.08 2.62497 -3.08022 0
M  V30 26789 H 2589.83 1.25763 -4.56597 0
M  V30 26790 H 2590.26 -0.164009 -6.76801 0
M  V30 26791 H 2594.9 0.999962 -4.10805 0
M  V30 26792 H 2592.62 -1.16947 -7.99593 0
M  V30 26793 H 2596.2 -0.228172 -5.81352 0
M  V30 26794 H 2595.08 -1.29757 -7.7339 0
M  V30 26795 N 2592.59 1.47346 0.559187 0
M  V30 26796 C 2593.52 1.55741 1.68158 0
M  V30 26797 C 2594.53 0.443772 1.56635 0
M  V30 26798 O 2595.72 0.713287 1.63629 0
M  V30 26799 C 2592.82 1.44376 3.06609 0
M  V30 26800 C 2591.99 2.70274 3.43905 0
M  V30 26801 C 2591.05 2.52773 4.61511 0
M  V30 26802 O 2590.08 3.2658 4.66191 0
M  V30 26803 N 2591.28 1.6047 5.5788 0
M  V30 26804 H 2594.05 2.52525 1.61403 0
M  V30 26805 H 2591.61 1.437 0.745775 0
M  V30 26806 H 2593.6 1.30405 3.83114 0
M  V30 26807 H 2592.17 0.55682 3.07601 0
M  V30 26808 H 2591.39 2.99019 2.56868 0
M  V30 26809 H 2592.68 3.53858 3.65598 0
M  V30 26810 H 2592.08 0.99652 5.56854 0
M  V30 26811 H 2590.63 1.52452 6.3372 0
M  V30 26812 N 2594.07 -0.805758 1.35445 0
M  V30 26813 C 2595.01 -1.91763 1.28434 0
M  V30 26814 C 2595.98 -1.65365 0.156131 0
M  V30 26815 O 2597.17 -1.87747 0.339969 0
M  V30 26816 C 2594.31 -3.28318 1.06306 0
M  V30 26817 C 2593.42 -3.66898 2.28057 0
M  V30 26818 C 2592.56 -4.92487 1.99072 0
M  V30 26819 C 2591.59 -5.23697 3.16872 0
M  V30 26820 N 2590.73 -6.40466 2.87658 0
M  V30 26821 H 2595.57 -1.97092 2.23515 0
M  V30 26822 H 2593.11 -0.964034 1.11107 0
M  V30 26823 H 2595.07 -4.07041 0.915084 0
M  V30 26824 H 2593.7 -3.22456 0.148878 0
M  V30 26825 H 2592.75 -2.8343 2.53716 0
M  V30 26826 H 2594.06 -3.85921 3.16016 0
M  V30 26827 H 2593.21 -5.79037 1.8111 0
M  V30 26828 H 2591.95 -4.75501 1.08399 0
M  V30 26829 H 2590.96 -4.35637 3.35411 0
M  V30 26830 H 2592.18 -5.42613 4.08348 0
M  V30 26831 H 2590.13 -6.24903 1.99579 0
M  V30 26832 H 2590.05 -6.59744 3.69153 0
M  V30 26833 H 2591.31 -7.30042 2.73238 0
M  V30 26834 N 2595.54 -1.19456 -1.02801 0
M  V30 26835 C 2596.47 -0.956795 -2.12997 0
M  V30 26836 C 2597.45 0.110159 -1.69743 0
M  V30 26837 O 2598.64 -0.0450379 -1.94148 0
M  V30 26838 C 2595.77 -0.495614 -3.43745 0
M  V30 26839 C 2594.72 -1.5045 -4.00685 0
M  V30 26840 C 2594.05 -0.900368 -5.27065 0
M  V30 26841 C 2595.35 -2.88498 -4.35392 0
M  V30 26842 H 2597.04 -1.8784 -2.33145 0
M  V30 26843 H 2594.59 -0.904559 -1.12043 0
M  V30 26844 H 2596.54 -0.316567 -4.20209 0
M  V30 26845 H 2595.27 0.461589 -3.23322 0
M  V30 26846 H 2593.93 -1.67071 -3.26317 0
M  V30 26847 H 2593.57 0.0644145 -5.02959 0
M  V30 26848 H 2593.27 -1.57407 -5.66124 0
M  V30 26849 H 2594.8 -0.732136 -6.06195 0
M  V30 26850 H 2596.21 -2.75455 -5.0279 0
M  V30 26851 H 2594.61 -3.52669 -4.85535 0
M  V30 26852 H 2595.68 -3.41087 -3.44656 0
M  V30 26853 N 2597.02 1.21924 -0.998617 0
M  V30 26854 C 2597.93 2.2775 -0.562776 0
M  V30 26855 C 2598.95 1.69546 0.391173 0
M  V30 26856 O 2600.12 1.99759 0.256589 0
M  V30 26857 C 2597.19 3.46525 0.110059 0
M  V30 26858 C 2596.25 4.20025 -0.887569 0
M  V30 26859 C 2595.48 5.33129 -0.246748 0
M  V30 26860 O 2595.71 5.62298 0.957989 0
M  V30 26861 O 2594.64 5.94284 -0.954479 0
M  V30 26862 H 2598.47 2.6721 -1.44334 0
M  V30 26863 H 2596.05 1.28199 -0.767158 0
M  V30 26864 H 2597.93 4.1858 0.486682 0
M  V30 26865 H 2596.61 3.08978 0.9651 0
M  V30 26866 H 2595.51 3.50218 -1.31523 0
M  V30 26867 H 2596.85 4.61467 -1.71199 0
M  V30 26868 N 2598.5 0.772537 1.37367 0
M  V30 26869 C 2599.73 0.348623 2.03942 0
M  V30 26870 C 2600.14 -1.02944 1.58265 0
M  V30 26871 O 2599.5 -1.65726 0.764275 0
M  V30 26872 C 2599.55 0.383574 3.59459 0
M  V30 26873 O 2599.27 1.70728 4.03465 0
M  V30 26874 C 2600.77 -0.0518373 4.4327 0
M  V30 26875 H 2597.99 0.145978 0.654929 0
M  V30 26876 H 2600.54 1.04668 1.75684 0
M  V30 26877 H 2598.69 -0.26591 3.86486 0
M  V30 26878 H 2599.11 1.64645 4.97988 0
M  V30 26879 H 2600.58 0.0237703 5.51995 0
M  V30 26880 H 2601.06 -1.10231 4.25142 0
M  V30 26881 H 2601.66 0.569489 4.2147 0
M  V30 26882 N 2599.98 -1.48664 0.523142 0
M  V30 26883 C 2601.22 -2.02496 -0.0134407 0
M  V30 26884 C 2601.55 -1.40088 -1.34928 0
M  V30 26885 O 2600.81 -0.5336 -1.88285 0
M  V30 26886 C 2601.11 -3.56886 -0.191608 0
M  V30 26887 C 2600.77 -4.38045 1.06901 0
M  V30 26888 C 2599.43 -4.5994 1.41451 0
M  V30 26889 C 2601.79 -4.85102 1.90592 0
M  V30 26890 C 2599.11 -5.2614 2.59603 0
M  V30 26891 C 2601.47 -5.52603 3.07916 0
M  V30 26892 C 2600.13 -5.72739 3.42821 0
M  V30 26893 H 2599.4 -0.740984 -0.00491831 0
M  V30 26894 H 2602.05 -1.78723 0.687782 0
M  V30 26895 H 2600.35 -3.79461 -0.975543 0
M  V30 26896 H 2602.05 -3.96153 -0.62159 0
M  V30 26897 H 2598.64 -4.21258 0.789922 0
M  V30 26898 H 2602.82 -4.67995 1.65211 0
M  V30 26899 H 2598.08 -5.39929 2.86857 0
M  V30 26900 H 2602.25 -5.88036 3.73077 0
M  V30 26901 H 2599.88 -6.23809 4.34473 0
M  V30 26902 N 2601.46 -0.257958 -1.55475 0
M  V30 26903 C 2602.7 0.357302 -2.00237 0
M  V30 26904 C 2603.06 1.54757 -1.14316 0
M  V30 26905 O 2602.35 1.9054 -0.201221 0
M  V30 26906 C 2602.54 0.806372 -3.48184 0
M  V30 26907 C 2602.37 -0.338837 -4.48422 0
M  V30 26908 C 2601.14 -0.817099 -4.9865 0
M  V30 26909 C 2603.34 -1.16958 -5.00825 0
M  V30 26910 N 2601.32 -1.93356 -5.82655 0
M  V30 26911 C 2602.69 -2.13423 -5.82109 0
M  V30 26912 C 2604.75 -1.20488 -4.83101 0
M  V30 26913 C 2603.45 -3.13142 -6.4756 0
M  V30 26914 C 2605.48 -2.19043 -5.4934 0
M  V30 26915 C 2604.84 -3.14243 -6.30421 0
M  V30 26916 H 2600.94 0.0963946 -0.776036 0
M  V30 26917 H 2603.52 -0.378064 -1.90994 0
M  V30 26918 H 2601.69 1.511 -3.57803 0
M  V30 26919 H 2603.43 1.39752 -3.79805 0
M  V30 26920 H 2600.18 -0.399333 -4.71913 0
M  V30 26921 H 2600.6 -2.4949 -6.29352 0
M  V30 26922 H 2605.25 -0.482708 -4.20035 0
M  V30 26923 H 2602.96 -3.86302 -7.09786 0
M  V30 26924 H 2606.55 -2.22495 -5.37575 0
M  V30 26925 H 2605.43 -3.89258 -6.8077 0
M  V30 26926 N 2602.93 1.57593 0.0150108 0
M  V30 26927 C 2603.9 2.0643 0.99596 0
M  V30 26928 C 2604.9 0.970926 1.28178 0
M  V30 26929 O 2606.09 1.23409 1.22947 0
M  V30 26930 C 2603.22 2.49311 2.32502 0
M  V30 26931 H 2604.41 2.94359 0.573822 0
M  V30 26932 H 2601.97 1.54086 0.262159 0
M  V30 26933 H 2602.7 1.6458 2.79435 0
M  V30 26934 H 2602.49 3.29149 2.13081 0
M  V30 26935 H 2603.98 2.87473 3.02901 0
M  V30 26936 N 2604.41 -0.287527 1.54955 0
M  V30 26937 C 2605.36 -1.35502 1.86836 0
M  V30 26938 C 2606.33 -1.49757 0.718479 0
M  V30 26939 O 2607.51 -1.64399 0.968387 0
M  V30 26940 C 2604.65 -2.71282 2.13308 0
M  V30 26941 C 2603.77 -2.65367 3.40887 0
M  V30 26942 C 2602.9 -3.9323 3.57132 0
M  V30 26943 C 2601.94 -3.81767 4.78456 0
M  V30 26944 N 2601.08 -5.01434 4.91435 0
M  V30 26945 H 2605.92 -1.07614 2.77891 0
M  V30 26946 H 2603.46 -0.520216 1.37594 0
M  V30 26947 H 2605.41 -3.50263 2.26653 0
M  V30 26948 H 2604.04 -2.97403 1.25504 0
M  V30 26949 H 2603.1 -1.78176 3.36092 0
M  V30 26950 H 2604.41 -2.52792 4.29997 0
M  V30 26951 H 2603.56 -4.80651 3.70215 0
M  V30 26952 H 2602.3 -4.08656 2.6618 0
M  V30 26953 H 2601.31 -2.9273 4.65391 0
M  V30 26954 H 2602.53 -3.67874 5.70829 0
M  V30 26955 H 2600.48 -5.17297 4.0341 0
M  V30 26956 H 2600.39 -4.91333 5.74567 0
M  V30 26957 H 2601.66 -5.90468 5.08889 0
M  V30 26958 N 2605.89 -1.47641 -0.551365 0
M  V30 26959 C 2606.84 -1.56972 -1.65359 0
M  V30 26960 C 2607.82 -0.428216 -1.55097 0
M  V30 26961 O 2609.02 -0.67847 -1.6348 0
M  V30 26962 C 2606.15 -1.59254 -3.04127 0
M  V30 26963 C 2605.23 -2.7881 -3.19571 0
M  V30 26964 N 2605.62 -4.0345 -3.0506 0
M  V30 26965 C 2603.92 -2.75694 -3.50584 0
M  V30 26966 C 2604.62 -4.83548 -3.23351 0
M  V30 26967 N 2603.6 -4.15974 -3.49952 0
M  V30 26968 H 2607.4 -2.51107 -1.52718 0
M  V30 26969 H 2604.91 -1.43716 -0.756278 0
M  V30 26970 H 2606.91 -1.6403 -3.83275 0
M  V30 26971 H 2605.57 -0.662204 -3.17876 0
M  V30 26972 H 2606.58 -4.3422 -2.82265 0
M  V30 26973 H 2603.26 -1.91823 -3.70823 0
M  V30 26974 H 2604.65 -5.92392 -3.1705 0
M  V30 26975 N 2607.37 0.798563 -1.3587 0
M  V30 26976 C 2608.3 1.91697 -1.23804 0
M  V30 26977 C 2609.28 1.62125 -0.124171 0
M  V30 26978 O 2610.46 1.86198 -0.293689 0
M  V30 26979 C 2607.59 3.26299 -0.908121 0
M  V30 26980 C 2606.64 3.74811 -2.03516 0
M  V30 26981 S 2607.47 3.91659 -3.6519 0
M  V30 26982 C 2608.63 5.2915 -3.34292 0
M  V30 26983 H 2608.86 2.01639 -2.1847 0
M  V30 26984 H 2606.39 0.956811 -1.2118 0
M  V30 26985 H 2608.35 4.04055 -0.724577 0
M  V30 26986 H 2607.01 3.14093 0.0206032 0
M  V30 26987 H 2606.2 4.72321 -1.75866 0
M  V30 26988 H 2605.81 3.04077 -2.17745 0
M  V30 26989 H 2608.1 6.13419 -2.87618 0
M  V30 26990 H 2609.04 5.61798 -4.31031 0
M  V30 26991 H 2609.45 4.95817 -2.69863 0
M  V30 26992 N 2608.85 1.19999 1.02166 0
M  V30 26993 C 2610.09 1.01858 1.76058 0
M  V30 26994 C 2610.45 -0.445189 1.87179 0
M  V30 26995 O 2609.74 -1.32621 1.38283 0
M  V30 26996 C 2609.93 1.62975 3.18079 0
M  V30 26997 C 2609.76 3.15143 3.20804 0
M  V30 26998 C 2608.53 3.84088 3.28336 0
M  V30 26999 C 2610.73 4.12426 3.07261 0
M  V30 27000 N 2608.71 5.23589 3.20511 0
M  V30 27001 C 2610.08 5.38571 3.0715 0
M  V30 27002 C 2612.14 4.03691 2.91441 0
M  V30 27003 C 2610.84 6.5699 2.92842 0
M  V30 27004 C 2612.87 5.21728 2.78484 0
M  V30 27005 C 2612.23 6.46776 2.79035 0
M  V30 27006 H 2608.33 0.426916 0.655184 0
M  V30 27007 H 2610.91 1.52089 1.21561 0
M  V30 27008 H 2609.08 1.15335 3.7088 0
M  V30 27009 H 2610.82 1.38199 3.80372 0
M  V30 27010 H 2607.57 3.34919 3.34853 0
M  V30 27011 H 2608 5.96605 3.19986 0
M  V30 27012 H 2612.64 3.07826 2.89832 0
M  V30 27013 H 2610.36 7.53033 2.932 0
M  V30 27014 H 2613.94 5.16777 2.67269 0
M  V30 27015 H 2612.82 7.36576 2.69121 0
M  V30 27016 N 2610.32 -1.21392 1.00507 0
M  V30 27017 C 2611.27 -2.25791 0.558663 0
M  V30 27018 C 2612.27 -1.64687 -0.396819 0
M  V30 27019 O 2613.47 -1.77994 -0.268004 0
M  V30 27020 H 2609.85 -0.734274 0.162313 0
M  V30 27021 H 2611.82 -2.60783 1.45034 0
M  V30 27022 C 2610.57 -3.47559 -0.0988963 0
M  V30 27023 H 2609.89 -3.94848 0.627295 0
M  V30 27024 H 2611.33 -4.22343 -0.374526 0
M  V30 27025 C 2609.79 -3.09186 -1.33811 0
M  V30 27026 O 2610.32 -3.19678 -2.43246 0
M  V30 27027 N 2608.53 -2.63848 -1.21789 0
M  V30 27028 H 2608.07 -2.55511 -0.327415 0
M  V30 27029 H 2608.03 -2.38542 -2.04805 0
M  V30 27030 N 2611.8 -0.779811 -1.36955 0
M  V30 27031 C 2613.05 -0.347801 -1.99491 0
M  V30 27032 C 2613.38 1.0779 -1.619 0
M  V30 27033 O 2612.63 1.75755 -0.860741 0
M  V30 27034 C 2612.93 -0.447749 -3.54584 0
M  V30 27035 C 2612.6 -1.83287 -4.11967 0
M  V30 27036 C 2611.26 -2.21187 -4.27352 0
M  V30 27037 C 2613.61 -2.74027 -4.4335 0
M  V30 27038 C 2610.94 -3.49249 -4.71426 0
M  V30 27039 C 2613.29 -4.01506 -4.88851 0
M  V30 27040 C 2611.96 -4.39441 -5.02442 0
M  V30 27041 H 2611.23 -0.127269 -0.729989 0
M  V30 27042 H 2613.87 -0.995405 -1.63597 0
M  V30 27043 H 2612.18 0.283378 -3.90774 0
M  V30 27044 H 2613.87 -0.0946653 -4.00888 0
M  V30 27045 H 2610.46 -1.52832 -4.00425 0
M  V30 27046 H 2614.65 -2.46002 -4.31041 0
M  V30 27047 H 2609.9 -3.78524 -4.80135 0
M  V30 27048 H 2614.08 -4.7194 -5.121 0
M  V30 27049 H 2611.71 -5.3873 -5.36353 0
M  V30 27050 N 2613.28 1.48384 -0.531019 0
M  V30 27051 C 2614.53 2.01699 0.00470803 0
M  V30 27052 C 2614.84 1.41328 1.35225 0
M  V30 27053 O 2616.05 1.86147 1.9764 0
M  V30 27054 C 2614.5 3.59852 0.0587841 0
M  V30 27055 C 2614.11 4.29208 -1.28392 0
M  V30 27056 C 2615.86 4.21009 0.543284 0
M  V30 27057 C 2613.76 5.79296 -1.19038 0
M  V30 27058 H 2612.69 0.75398 0.00552992 0
M  V30 27059 H 2615.34 1.70636 -0.674954 0
M  V30 27060 H 2613.73 3.87762 0.803544 0
M  V30 27061 H 2614.9 4.12969 -2.04433 0
M  V30 27062 H 2613.22 3.79927 -1.70425 0
M  V30 27063 H 2615.81 5.30961 0.631257 0
M  V30 27064 H 2616.16 3.86397 1.5493 0
M  V30 27065 H 2616.69 3.97533 -0.145824 0
M  V30 27066 H 2613.43 6.18484 -2.17158 0
M  V30 27067 H 2612.95 5.97945 -0.471351 0
M  V30 27068 H 2614.63 6.40967 -0.881478 0
M  V30 27069 N 2614.76 0.2662 1.55336 0
M  V30 27070 C 2615.98 -0.359625 2.04258 0
M  V30 27071 C 2616.41 -1.49342 1.14362 0
M  V30 27072 O 2615.77 -1.80756 0.1404 0
M  V30 27073 C 2615.81 -0.826573 3.50999 0
M  V30 27074 O 2614.92 -1.93459 3.64208 0
M  V30 27075 H 2614.26 -0.0757154 0.659669 0
M  V30 27076 H 2616.79 0.397896 2.00694 0
M  V30 27077 H 2616.8 -1.1247 3.92192 0
M  V30 27078 H 2615.47 0.00300343 4.159 0
M  V30 27079 H 2614.05 -1.63969 3.34916 0
M  V30 27080 N 2616.24 -1.57599 -0.0066531 0
M  V30 27081 C 2617.48 -1.89901 -0.691518 0
M  V30 27082 C 2617.81 -0.866703 -1.7468 0
M  V30 27083 O 2617.08 0.0967845 -1.95661 0
M  V30 27084 H 2615.66 -0.700883 -0.258404 0
M  V30 27085 H 2618.32 -1.94873 0.0326997 0
M  V30 27086 H 2617.41 -2.89462 -1.16697 0
M  V30 27087 N 2617.72 0.279305 -1.55105 0
M  V30 27088 C 2618.96 1.00949 -1.7462 0
M  V30 27089 C 2619.28 1.87675 -0.551129 0
M  V30 27090 O 2620.48 2.64124 -0.628554 0
M  V30 27091 C 2618.94 1.84471 -3.09028 0
M  V30 27092 C 2618.55 1.02642 -4.36083 0
M  V30 27093 C 2620.29 2.56957 -3.37895 0
M  V30 27094 C 2618.2 1.85566 -5.61533 0
M  V30 27095 H 2617.13 0.380629 -0.650875 0
M  V30 27096 H 2619.78 0.265444 -1.8157 0
M  V30 27097 H 2618.16 2.62947 -2.961 0
M  V30 27098 H 2619.34 0.286273 -4.5991 0
M  V30 27099 H 2617.65 0.416391 -4.14313 0
M  V30 27100 H 2620.25 3.19391 -4.28828 0
M  V30 27101 H 2620.59 3.26916 -2.57743 0
M  V30 27102 H 2621.12 1.85516 -3.51893 0
M  V30 27103 H 2617.86 1.20039 -6.44415 0
M  V30 27104 H 2617.38 2.57195 -5.41859 0
M  V30 27105 H 2619.06 2.43086 -5.99598 0
M  V30 27106 N 2619.19 1.47931 0.543528 0
M  V30 27107 C 2620.13 1.57516 1.66497 0
M  V30 27108 C 2621.14 0.46036 1.56155 0
M  V30 27109 O 2622.33 0.730602 1.62863 0
M  V30 27110 C 2619.43 1.4762 3.0506 0
M  V30 27111 C 2618.6 2.73906 3.4102 0
M  V30 27112 C 2617.66 2.57653 4.58804 0
M  V30 27113 O 2616.69 3.31506 4.62701 0
M  V30 27114 N 2617.89 1.66378 5.56146 0
M  V30 27115 H 2620.65 2.54223 1.58716 0
M  V30 27116 H 2618.21 1.44483 0.730492 0
M  V30 27117 H 2620.21 1.34461 3.8171 0
M  V30 27118 H 2618.78 0.589413 3.06993 0
M  V30 27119 H 2618 3.01727 2.53682 0
M  V30 27120 H 2619.28 3.57716 3.61825 0
M  V30 27121 H 2618.68 1.05553 5.55765 0
M  V30 27122 H 2617.24 1.59165 6.32068 0
M  V30 27123 N 2620.67 -0.791347 1.36292 0
M  V30 27124 C 2621.9 -1.57784 1.33371 0
M  V30 27125 C 2622.31 -1.88998 -0.0874856 0
M  V30 27126 O 2621.65 -1.50437 -1.05425 0
M  V30 27127 C 2621.71 -2.92643 2.08807 0
M  V30 27128 C 2621.38 -2.84167 3.57908 0
M  V30 27129 C 2622.38 -2.56545 4.52195 0
M  V30 27130 C 2620.06 -3.02805 4.00767 0
M  V30 27131 C 2622.05 -2.47659 5.87319 0
M  V30 27132 C 2619.74 -2.93541 5.35982 0
M  V30 27133 C 2620.74 -2.66006 6.29071 0
M  V30 27134 O 2620.43 -2.56732 7.61803 0
M  V30 27135 H 2620.16 -0.496119 0.459175 0
M  V30 27136 H 2622.71 -0.990238 1.79954 0
M  V30 27137 H 2620.94 -3.53446 1.56884 0
M  V30 27138 H 2622.63 -3.53901 1.98769 0
M  V30 27139 H 2623.4 -2.4185 4.20397 0
M  V30 27140 H 2619.28 -3.23244 3.28685 0
M  V30 27141 H 2622.82 -2.26087 6.59947 0
M  V30 27142 H 2618.72 -3.07798 5.67389 0
M  V30 27143 H 2619.49 -2.72228 7.71903 0
M  V30 27144 N 2622.15 -1.2054 -1.01528 0
M  V30 27145 C 2623.08 -0.979333 -2.1197 0
M  V30 27146 C 2624.06 0.0921489 -1.6985 0
M  V30 27147 O 2625.25 -0.0656273 -1.94089 0
M  V30 27148 C 2622.38 -0.532044 -3.432 0
M  V30 27149 C 2621.33 -1.54692 -3.99067 0
M  V30 27150 C 2620.66 -0.95622 -5.2608 0
M  V30 27151 C 2621.96 -2.931 -4.32308 0
M  V30 27152 H 2623.65 -1.90302 -2.3114 0
M  V30 27153 H 2621.2 -0.916392 -1.11078 0
M  V30 27154 H 2623.15 -0.361118 -4.1985 0
M  V30 27155 H 2621.87 0.427271 -3.23793 0
M  V30 27156 H 2620.53 -1.70523 -3.24527 0
M  V30 27157 H 2620.18 0.0110654 -5.02999 0
M  V30 27158 H 2619.88 -1.63403 -5.64423 0
M  V30 27159 H 2621.4 -0.79639 -6.05384 0
M  V30 27160 H 2622.82 -2.80772 -4.9984 0
M  V30 27161 H 2621.21 -3.57799 -4.81767 0
M  V30 27162 H 2622.28 -3.44723 -3.41019 0
M  V30 27163 N 2623.63 1.20858 -1.01149 0
M  V30 27164 C 2624.59 2.21681 -0.582263 0
M  V30 27165 C 2625.59 1.57058 0.344859 0
M  V30 27166 O 2626.78 1.73682 0.134251 0
M  V30 27167 C 2623.91 3.40568 0.150437 0
M  V30 27168 H 2625.11 2.6117 -1.47413 0
M  V30 27169 H 2622.66 1.34232 -0.800719 0
M  V30 27170 H 2623.39 3.06576 1.05745 0
M  V30 27171 H 2623.18 3.88696 -0.515512 0
M  V30 27172 H 2624.67 4.15294 0.438271 0
M  V30 27173 N 2625.11 0.787064 1.3654 0
M  V30 27174 C 2626.35 0.357668 1.9891 0
M  V30 27175 C 2626.67 -1.07368 1.6278 0
M  V30 27176 O 2625.94 -1.73969 0.900642 0
M  V30 27177 H 2624.52 0.129259 0.735732 0
M  V30 27178 H 2627.19 1.00858 1.66774 0
M  V30 27179 H 2626.28 0.447603 3.08874 0
M  V30 27180 N 2626.58 -1.48101 0.53888 0
M  V30 27181 C 2627.51 -2.32575 -0.207613 0
M  V30 27182 C 2628.49 -1.42651 -0.926534 0
M  V30 27183 O 2629.68 -1.71529 -0.91058 0
M  V30 27184 C 2626.81 -3.24044 -1.24951 0
M  V30 27185 C 2625.76 -4.23063 -0.648189 0
M  V30 27186 C 2625.09 -5.03728 -1.79339 0
M  V30 27187 C 2626.39 -5.20872 0.385988 0
M  V30 27188 H 2628.08 -2.95236 0.497586 0
M  V30 27189 H 2625.63 -1.41973 0.24074 0
M  V30 27190 H 2627.58 -3.81972 -1.77976 0
M  V30 27191 H 2626.31 -2.59401 -1.98441 0
M  V30 27192 H 2624.97 -3.66335 -0.139388 0
M  V30 27193 H 2624.61 -4.35502 -2.51688 0
M  V30 27194 H 2624.31 -5.70754 -1.39692 0
M  V30 27195 H 2625.84 -5.6451 -2.32725 0
M  V30 27196 H 2627.25 -5.73271 -0.0575062 0
M  V30 27197 H 2625.65 -5.95999 0.700332 0
M  V30 27198 H 2626.72 -4.67466 1.28856 0
M  V30 27199 N 2628.06 -0.274434 -1.55192 0
M  V30 27200 C 2629.29 0.348788 -2.04446 0
M  V30 27201 C 2629.71 1.48733 -1.15152 0
M  V30 27202 O 2629.07 1.80679 -0.149984 0
M  V30 27203 C 2629.12 0.807947 -3.51432 0
M  V30 27204 O 2628.22 1.91525 -3.65229 0
M  V30 27205 H 2627.56 0.072216 -0.660061 0
M  V30 27206 H 2630.09 -0.408533 -2.0048 0
M  V30 27207 H 2630.1 1.10388 -3.92783 0
M  V30 27208 H 2628.78 -0.0250596 -4.15892 0
M  V30 27209 H 2627.35 1.6219 -3.35781 0
M  V30 27210 N 2629.54 1.576 -0.00170483 0
M  V30 27211 C 2630.77 1.94923 0.693725 0
M  V30 27212 C 2631.18 0.876655 1.67213 0
M  V30 27213 O 2630.54 -0.144247 1.81929 0
M  V30 27214 C 2630.59 3.32267 1.42411 0
M  V30 27215 O 2630.31 4.35408 0.484937 0
M  V30 27216 C 2631.81 3.8406 2.21389 0
M  V30 27217 H 2629.03 0.642612 0.193107 0
M  V30 27218 H 2631.58 2.0443 -0.0533311 0
M  V30 27219 H 2629.73 3.24063 2.12278 0
M  V30 27220 H 2630.15 5.1487 1.00044 0
M  V30 27221 H 2631.62 4.82583 2.67988 0
M  V30 27222 H 2632.1 3.16856 3.04136 0
M  V30 27223 H 2632.7 3.95445 1.56535 0
M  V30 27224 N 2631.02 -0.271076 1.55251 0
M  V30 27225 C 2631.95 -1.33929 1.91272 0
M  V30 27226 C 2632.93 -1.51429 0.774806 0
M  V30 27227 O 2634.11 -1.6444 1.0331 0
M  V30 27228 C 2631.24 -2.69847 2.18632 0
M  V30 27229 C 2630.2 -2.67076 3.34447 0
M  V30 27230 C 2629.52 -4.06563 3.47291 0
M  V30 27231 C 2630.82 -2.26176 4.70788 0
M  V30 27232 H 2632.52 -1.0403 2.80746 0
M  V30 27233 H 2630.06 -0.498993 1.35078 0
M  V30 27234 H 2632.02 -3.4469 2.42419 0
M  V30 27235 H 2630.74 -3.01333 1.2596 0
M  V30 27236 H 2629.4 -1.9469 3.10631 0
M  V30 27237 H 2629.05 -4.35274 2.52082 0
M  V30 27238 H 2628.75 -4.05603 4.25159 0
M  V30 27239 H 2630.27 -4.83142 3.73372 0
M  V30 27240 H 2631.69 -2.90743 4.94107 0
M  V30 27241 H 2630.08 -2.36375 5.51586 0
M  V30 27242 H 2631.15 -1.2131 4.6948 0
M  V30 27243 N 2632.5 -1.48217 -0.535675 0
M  V30 27244 C 2633.91 -1.4955 -1.11767 0
M  V30 27245 C 2634.26 -0.262104 -1.94441 0
M  V30 27246 O 2633.38 0.63125 -2.06988 0
M  V30 27247 C 2633.98 -2.70978 -2.03363 0
M  V30 27248 C 2632.54 -2.75201 -2.56791 0
M  V30 27249 C 2631.68 -2.4298 -1.33627 0
M  V30 27250 H 2634.64 -1.55415 -0.321205 0
M  V30 27251 H 2634.66 -2.49172 -2.87565 0
M  V30 27252 H 2634.17 -3.6073 -1.43163 0
M  V30 27253 H 2632.27 -1.89643 -3.20728 0
M  V30 27254 H 2632.38 -3.76477 -2.96313 0
M  V30 27255 H 2630.75 -1.94015 -1.65017 0
M  V30 27256 H 2631.53 -3.34965 -0.751881 0
M  V30 27257 N 2633.97 0.784108 -1.3671 0
M  V30 27258 C 2635.22 1.53916 -1.30975 0
M  V30 27259 C 2635.54 1.94695 0.109051 0
M  V30 27260 O 2634.81 1.65355 1.05046 0
M  V30 27261 H 2633.39 0.570833 -0.481829 0
M  V30 27262 H 2636.06 0.933971 -1.71064 0
M  V30 27263 H 2635.15 2.44428 -1.94066 0
M  V30 27264 N 2635.45 1.21076 1.00888 0
M  V30 27265 C 2636.4 0.963513 2.11705 0
M  V30 27266 C 2637.39 -0.0878734 1.69172 0
M  V30 27267 O 2638.6 0.0631731 1.79889 0
M  V30 27268 H 2634.98 0.294299 0.69202 0
M  V30 27269 H 2636.95 1.90426 2.2974 0
M  V30 27270 C 2635.7 0.54057 3.43472 0
M  V30 27271 H 2635.02 1.34121 3.76632 0
M  V30 27272 H 2636.46 0.406851 4.22044 0
M  V30 27273 C 2634.92 -0.748021 3.28491 0
M  V30 27274 O 2635.45 -1.80453 3.58886 0
M  V30 27275 N 2633.65 -0.713032 2.81717 0
M  V30 27276 H 2633.2 0.147018 2.5718 0
M  V30 27277 H 2633.16 -1.57553 2.72074 0
M  V30 27278 N 2636.93 -1.2032 1.01789 0
M  V30 27279 C 2638.34 -1.71437 0.739337 0
M  V30 27280 C 2638.69 -1.81628 -0.742009 0
M  V30 27281 O 2637.82 -1.47974 -1.57901 0
M  V30 27282 C 2638.41 -3.11371 1.33543 0
M  V30 27283 C 2636.97 -3.59793 1.10572 0
M  V30 27284 C 2636.12 -2.3696 1.44032 0
M  V30 27285 H 2639.07 -1.05315 1.1872 0
M  V30 27286 H 2639.09 -3.73497 0.726676 0
M  V30 27287 H 2638.6 -3.03921 2.41357 0
M  V30 27288 H 2636.7 -3.72572 0.045306 0
M  V30 27289 H 2636.82 -4.44538 1.78668 0
M  V30 27290 H 2635.18 -2.39764 0.859373 0
M  V30 27291 H 2635.96 -2.32151 2.52905 0
M  V30 27292 N 2638.41 -0.794293 -1.3612 0
M  V30 27293 C 2639.37 -0.201929 -2.28309 0
M  V30 27294 C 2640.37 0.603577 -1.49042 0
M  V30 27295 O 2641.56 0.423858 -1.68965 0
M  V30 27296 C 2638.69 0.719919 -3.33212 0
M  V30 27297 H 2639.89 -1.01486 -2.82207 0
M  V30 27298 H 2637.44 -0.564062 -1.45767 0
M  V30 27299 H 2638.17 1.55701 -2.84478 0
M  V30 27300 H 2637.96 0.144197 -3.91835 0
M  V30 27301 H 2639.45 1.12909 -4.02046 0
M  V30 27302 N 2639.89 1.47813 -0.546727 0
M  V30 27303 C 2641.14 2.01693 -0.0166852 0
M  V30 27304 C 2641.45 1.42754 1.33718 0
M  V30 27305 O 2642.65 1.88233 1.95654 0
M  V30 27306 C 2641.11 3.59894 0.0206137 0
M  V30 27307 C 2640.72 4.27822 -1.32938 0
M  V30 27308 C 2642.46 4.21562 0.4986 0
M  V30 27309 C 2640.37 5.78001 -1.25175 0
M  V30 27310 H 2639.3 0.753996 -0.00246736 0
M  V30 27311 H 2641.95 1.6991 -0.693014 0
M  V30 27312 H 2640.33 3.88592 0.762372 0
M  V30 27313 H 2641.51 4.10778 -2.08802 0
M  V30 27314 H 2639.82 3.78098 -1.74445 0
M  V30 27315 H 2642.42 5.316 0.574906 0
M  V30 27316 H 2642.76 3.88018 1.50823 0
M  V30 27317 H 2643.29 3.97356 -0.187979 0
M  V30 27318 H 2640.03 6.16146 -2.23705 0
M  V30 27319 H 2639.55 5.97412 -0.534745 0
M  V30 27320 H 2641.23 6.39996 -0.949411 0
M  V30 27321 N 2641.36 0.28266 1.55044 0
M  V30 27322 C 2642.33 -0.588501 2.21516 0
M  V30 27323 C 2643.33 -1.07552 1.19537 0
M  V30 27324 O 2644.52 -0.974489 1.44393 0
M  V30 27325 C 2641.65 -1.81275 2.88708 0
M  V30 27326 H 2642.84 -0.00801126 2.99899 0
M  V30 27327 H 2640.4 0.0333342 1.56264 0
M  V30 27328 H 2641.13 -2.43356 2.14356 0
M  V30 27329 H 2640.92 -1.47137 3.63446 0
M  V30 27330 H 2642.41 -2.43208 3.3947 0
M  V30 27331 N 2642.84 -1.57597 0.0100627 0
M  V30 27332 C 2644.07 -1.95692 -0.686987 0
M  V30 27333 C 2644.49 -0.885548 -1.65951 0
M  V30 27334 O 2643.85 0.155398 -1.80633 0
M  V30 27335 C 2643.9 -3.32886 -1.38634 0
M  V30 27336 O 2643 -3.27901 -2.50109 0
M  V30 27337 H 2642.34 -0.638577 -0.181978 0
M  V30 27338 H 2644.87 -2.04493 0.0662482 0
M  V30 27339 H 2644.88 -3.68683 -1.74748 0
M  V30 27340 H 2643.56 -4.10413 -0.673339 0
M  V30 27341 H 2642.14 -3.03795 -2.16247 0
M  V30 27342 N 2644.32 0.262839 -1.55393 0
M  V30 27343 C 2645.25 1.32913 -1.9198 0
M  V30 27344 C 2646.23 1.51016 -0.782826 0
M  V30 27345 O 2647.42 1.6389 -1.04181 0
M  V30 27346 C 2644.55 2.68684 -2.2006 0
M  V30 27347 C 2643.5 2.65298 -3.35858 0
M  V30 27348 C 2642.83 4.04715 -3.49442 0
M  V30 27349 C 2644.13 2.23677 -4.71981 0
M  V30 27350 H 2645.82 1.02539 -2.81293 0
M  V30 27351 H 2643.37 0.491823 -1.35341 0
M  V30 27352 H 2645.32 3.43399 -2.44243 0
M  V30 27353 H 2644.04 3.00661 -1.27556 0
M  V30 27354 H 2642.7 1.9304 -3.11659 0
M  V30 27355 H 2642.35 4.33932 -2.54386 0
M  V30 27356 H 2642.05 4.03342 -4.27304 0
M  V30 27357 H 2643.57 4.81155 -3.75929 0
M  V30 27358 H 2644.99 2.88118 -4.95642 0
M  V30 27359 H 2643.39 2.33446 -5.52832 0
M  V30 27360 H 2644.46 1.18819 -4.70117 0
M  V30 27361 N 2645.8 1.48499 0.527807 0
M  V30 27362 C 2646.73 1.57756 1.64889 0
M  V30 27363 C 2647.71 0.427895 1.56869 0
M  V30 27364 O 2648.89 0.639796 1.7731 0
M  V30 27365 C 2646.02 1.50758 3.03298 0
M  V30 27366 C 2645.07 2.70592 3.2967 0
M  V30 27367 S 2645.9 4.3254 3.15704 0
M  V30 27368 C 2647.06 4.28144 4.56556 0
M  V30 27369 H 2647.29 2.52597 1.56787 0
M  V30 27370 H 2644.82 1.37059 0.710935 0
M  V30 27371 H 2646.78 1.47407 3.83121 0
M  V30 27372 H 2645.44 0.572508 3.08838 0
M  V30 27373 H 2644.63 2.6184 4.30646 0
M  V30 27374 H 2644.24 2.71217 2.57522 0
M  V30 27375 H 2646.53 3.98211 5.48119 0
M  V30 27376 H 2647.47 5.29306 4.70362 0
M  V30 27377 H 2647.88 3.58582 4.35981 0
M  V30 27378 N 2647.28 -0.776847 1.37123 0
M  V30 27379 C 2648.24 -1.87158 1.32304 0
M  V30 27380 C 2649.24 -1.59174 0.228127 0
M  V30 27381 O 2650.43 -1.67351 0.483672 0
M  V30 27382 C 2647.56 -3.24195 1.05406 0
M  V30 27383 H 2648.76 -1.92844 2.29676 0
M  V30 27384 H 2646.31 -0.976038 1.22079 0
M  V30 27385 H 2647.04 -3.24187 0.0854442 0
M  V30 27386 H 2646.83 -3.45898 1.84654 0
M  V30 27387 H 2648.32 -4.04269 1.04671 0
M  V30 27388 N 2648.76 -1.2161 -1.00244 0
M  V30 27389 C 2650 -1.03488 -1.74059 0
M  V30 27390 C 2650.33 0.431274 -1.89658 0
M  V30 27391 O 2649.59 1.33625 -1.42979 0
M  V30 27392 C 2649.88 -1.68015 -3.15446 0
M  V30 27393 C 2649.55 -3.17879 -3.19787 0
M  V30 27394 C 2648.21 -3.58774 -3.20679 0
M  V30 27395 C 2650.56 -4.13847 -3.16828 0
M  V30 27396 C 2647.89 -4.94136 -3.16301 0
M  V30 27397 C 2650.24 -5.49174 -3.13991 0
M  V30 27398 C 2648.91 -5.89462 -3.13194 0
M  V30 27399 H 2648.18 -0.378689 -0.636927 0
M  V30 27400 H 2650.83 -1.51238 -1.17471 0
M  V30 27401 H 2649.13 -1.12564 -3.75282 0
M  V30 27402 H 2650.83 -1.51493 -3.71283 0
M  V30 27403 H 2647.42 -2.85311 -3.19837 0
M  V30 27404 H 2651.6 -3.83278 -3.15297 0
M  V30 27405 H 2646.86 -5.24595 -3.14023 0
M  V30 27406 H 2651.03 -6.2327 -3.10656 0
M  V30 27407 H 2648.66 -6.94319 -3.09556 0
M  V30 27408 N 2650.23 1.19778 -1.02425 0
M  V30 27409 C 2651.46 1.9331 -0.73749 0
M  V30 27410 C 2651.88 1.75224 0.702992 0
M  V30 27411 O 2651.23 1.07114 1.47759 0
M  V30 27412 C 2651.28 3.45197 -1.07336 0
M  V30 27413 O 2651.01 3.62698 -2.45727 0
M  V30 27414 C 2652.51 4.3586 -0.808737 0
M  V30 27415 H 2649.73 0.614188 -0.270211 0
M  V30 27416 H 2652.27 1.52052 -1.3675 0
M  V30 27417 H 2650.43 3.84306 -0.488613 0
M  V30 27418 H 2650.84 4.56607 -2.58089 0
M  V30 27419 H 2652.31 5.41056 -1.09375 0
M  V30 27420 H 2652.79 4.38448 0.256948 0
M  V30 27421 H 2653.4 4.02426 -1.37599 0
M  V30 27422 N 2651.71 0.801501 1.35697 0
M  V30 27423 C 2652.67 0.214034 2.28198 0
M  V30 27424 C 2653.67 -0.595665 1.4936 0
M  V30 27425 O 2654.86 -0.414891 1.69187 0
M  V30 27426 C 2652 -0.702238 3.33589 0
M  V30 27427 H 2653.19 1.02981 2.81664 0
M  V30 27428 H 2650.74 0.571785 1.45466 0
M  V30 27429 H 2651.48 -1.5419 2.853 0
M  V30 27430 H 2651.26 -0.123415 3.91906 0
M  V30 27431 H 2652.75 -1.10775 4.02639 0
M  V30 27432 N 2653.19 -1.47521 0.554558 0
M  V30 27433 C 2654.15 -2.28459 -0.184134 0
M  V30 27434 C 2655.15 -1.36797 -0.84517 0
M  V30 27435 O 2656.34 -1.59454 -0.701439 0
M  V30 27436 C 2653.47 -3.16401 -1.26898 0
M  V30 27437 H 2654.67 -2.95237 0.526803 0
M  V30 27438 H 2652.22 -1.53167 0.311402 0
M  V30 27439 H 2652.96 -2.54309 -2.01239 0
M  V30 27440 H 2652.74 -3.83856 -0.799816 0
M  V30 27441 H 2654.23 -3.77392 -1.78788 0
M  V30 27442 N 2654.67 -0.290879 -1.54892 0
M  V30 27443 C 2655.91 0.321832 -2.0023 0
M  V30 27444 C 2656.25 1.54314 -1.17902 0
M  V30 27445 O 2655.52 1.92848 -0.252964 0
M  V30 27446 C 2655.8 0.688453 -3.53458 0
M  V30 27447 C 2655.66 -0.541287 -4.46531 0
M  V30 27448 C 2656.98 1.51888 -4.13059 0
M  V30 27449 H 2654.1 0.115502 -0.727893 0
M  V30 27450 H 2656.74 -0.400963 -1.85721 0
M  V30 27451 H 2654.89 1.30427 -3.65952 0
M  V30 27452 H 2656.56 -1.17981 -4.45958 0
M  V30 27453 H 2654.8 -1.17643 -4.17543 0
M  V30 27454 H 2655.47 -0.240772 -5.51475 0
M  V30 27455 H 2657.95 0.998649 -4.03938 0
M  V30 27456 H 2656.83 1.74419 -5.20451 0
M  V30 27457 H 2657.09 2.50492 -3.64289 0
M  V30 27458 N 2656.15 1.57589 -0.0184203 0
M  V30 27459 C 2657.37 1.95648 0.673012 0
M  V30 27460 C 2657.79 0.894341 1.66274 0
M  V30 27461 O 2657.15 -0.124943 1.82072 0
M  V30 27462 C 2657.2 3.33759 1.38878 0
M  V30 27463 O 2656.92 4.35898 0.438729 0
M  V30 27464 C 2658.42 3.86386 2.17303 0
M  V30 27465 H 2655.64 0.644624 0.18628 0
M  V30 27466 H 2658.18 2.04362 -0.0750107 0
M  V30 27467 H 2656.34 3.26296 2.08829 0
M  V30 27468 H 2656.75 5.15902 0.945778 0
M  V30 27469 H 2658.23 4.85398 2.62854 0
M  V30 27470 H 2658.7 3.20064 3.00759 0
M  V30 27471 H 2659.31 3.97083 1.52332 0
M  V30 27472 N 2657.62 -0.254594 1.5553 0
M  V30 27473 C 2658.85 -1.00569 1.81385 0
M  V30 27474 C 2659.27 -1.7846 0.59445 0
M  V30 27475 O 2658.63 -1.75462 -0.456372 0
M  V30 27476 C 2658.68 -1.92539 3.04895 0
M  V30 27477 O 2657.78 -3.01596 2.81271 0
M  V30 27478 H 2657.12 -0.286576 0.598974 0
M  V30 27479 H 2659.65 -0.277917 2.02704 0
M  V30 27480 H 2659.66 -2.3415 3.34123 0
M  V30 27481 H 2658.34 -1.35263 3.9329 0
M  V30 27482 H 2656.92 -2.64169 2.6319 0
M  V30 27483 N 2659.1 -1.48777 -0.519925 0
M  V30 27484 C 2660.51 -1.50727 -1.10174 0
M  V30 27485 C 2660.86 -0.282712 -1.94152 0
M  V30 27486 O 2659.99 0.609261 -2.07646 0
M  V30 27487 C 2660.58 -2.7312 -2.00477 0
M  V30 27488 C 2659.14 -2.77909 -2.53857 0
M  V30 27489 C 2658.29 -2.44383 -1.31042 0
M  V30 27490 H 2661.24 -1.55747 -0.304703 0
M  V30 27491 H 2661.26 -2.52208 -2.84906 0
M  V30 27492 H 2660.77 -3.62228 -1.39329 0
M  V30 27493 H 2658.87 -1.93034 -3.18698 0
M  V30 27494 H 2658.99 -3.79599 -2.92304 0
M  V30 27495 H 2657.35 -1.95754 -1.62949 0
M  V30 27496 H 2658.13 -3.35744 -0.716311 0
M  V30 27497 N 2660.58 0.769564 -1.37534 0
M  V30 27498 C 2661.51 1.8968 -1.36176 0
M  V30 27499 C 2662.49 1.68537 -0.23004 0
M  V30 27500 O 2663.68 1.89363 -0.430723 0
M  V30 27501 C 2660.81 3.26993 -1.17016 0
M  V30 27502 C 2659.76 3.62704 -2.27222 0
M  V30 27503 C 2659.09 4.98582 -1.93183 0
M  V30 27504 C 2660.39 3.69228 -3.69416 0
M  V30 27505 H 2662.08 1.91074 -2.30502 0
M  V30 27506 H 2659.63 0.917882 -1.10955 0
M  V30 27507 H 2661.58 4.05491 -1.14695 0
M  V30 27508 H 2660.3 3.26038 -0.191453 0
M  V30 27509 H 2658.96 2.86515 -2.28702 0
M  V30 27510 H 2658.61 4.9417 -0.938368 0
M  V30 27511 H 2658.31 5.23445 -2.66982 0
M  V30 27512 H 2659.83 5.79477 -1.92453 0
M  V30 27513 H 2661.25 4.37873 -3.70055 0
M  V30 27514 H 2659.64 4.05589 -4.42287 0
M  V30 27515 H 2660.71 2.69837 -4.02885 0
M  V30 27516 N 2662.06 1.22139 0.995977 0
M  V30 27517 C 2663.29 1.07032 1.77064 0
M  V30 27518 C 2663.7 -0.379324 1.8495 0
M  V30 27519 O 2663.06 -1.26295 1.31742 0
M  V30 27520 C 2663.11 1.67161 3.2053 0
M  V30 27521 O 2662.83 3.06455 3.13077 0
M  V30 27522 C 2664.33 1.57287 4.14458 0
M  V30 27523 H 2661.55 0.375384 0.556172 0
M  V30 27524 H 2664.1 1.61668 1.25235 0
M  V30 27525 H 2662.25 1.16596 3.69438 0
M  V30 27526 H 2662.66 3.35362 4.03277 0
M  V30 27527 H 2664.14 2.04087 5.12887 0
M  V30 27528 H 2664.62 0.528871 4.36004 0
M  V30 27529 H 2665.22 2.07143 3.71446 0
M  V30 27530 N 2663.54 -1.19233 1.03059 0
M  V30 27531 C 2664.76 -1.92916 0.747731 0
M  V30 27532 C 2665.18 -1.75594 -0.693689 0
M  V30 27533 O 2664.54 -1.07896 -1.47189 0
M  V30 27534 C 2664.59 -3.44623 1.09165 0
M  V30 27535 O 2664.31 -3.6139 2.47647 0
M  V30 27536 C 2665.81 -4.35425 0.83184 0
M  V30 27537 H 2663.03 -0.612747 0.273464 0
M  V30 27538 H 2665.57 -1.51324 1.37554 0
M  V30 27539 H 2663.73 -3.84042 0.508987 0
M  V30 27540 H 2664.14 -4.55232 2.60507 0
M  V30 27541 H 2665.62 -5.40468 1.12243 0
M  V30 27542 H 2666.09 -4.38578 -0.233692 0
M  V30 27543 H 2666.7 -4.0169 1.39732 0
M  V30 27544 N 2665.01 -0.808686 -1.3527 0
M  V30 27545 C 2666.24 -0.401511 -2.03476 0
M  V30 27546 C 2666.66 0.98025 -1.60539 0
M  V30 27547 O 2666.02 1.63517 -0.783068 0
M  V30 27548 C 2666.07 -0.495416 -3.57181 0
M  V30 27549 O 2665.17 0.490325 -4.09475 0
M  V30 27550 H 2664.52 -0.167377 -0.642558 0
M  V30 27551 H 2667.05 -1.09515 -1.72822 0
M  V30 27552 H 2667.06 -0.365983 -4.06355 0
M  V30 27553 H 2665.73 -1.50327 -3.87782 0
M  V30 27554 H 2664.31 0.320958 -3.71516 0
M  V30 27555 N 2666.49 1.47225 -0.562374 0
M  V30 27556 C 2667.42 2.28142 0.21997 0
M  V30 27557 C 2668.44 1.37314 0.874571 0
M  V30 27558 O 2669.63 1.62092 0.747554 0
M  V30 27559 C 2666.73 3.11734 1.32947 0
M  V30 27560 C 2665.9 4.30557 0.770683 0
M  V30 27561 C 2664.96 4.95704 1.76533 0
M  V30 27562 O 2663.98 5.53934 1.3094 0
M  V30 27563 N 2665.19 4.90867 3.09887 0
M  V30 27564 H 2667.95 2.95925 -0.474159 0
M  V30 27565 H 2665.51 1.56912 -0.398788 0
M  V30 27566 H 2667.5 3.52183 1.99372 0
M  V30 27567 H 2666.07 2.4616 1.92676 0
M  V30 27568 H 2665.29 3.94137 -0.0704749 0
M  V30 27569 H 2666.58 5.07403 0.376783 0
M  V30 27570 H 2665.98 4.44767 3.49569 0
M  V30 27571 H 2664.54 5.35319 3.71855 0
M  V30 27572 N 2667.97 0.299089 1.54736 0
M  V30 27573 C 2669.2 -0.313411 2.04512 0
M  V30 27574 C 2669.61 -1.47665 1.17646 0
M  V30 27575 O 2668.97 -1.81382 0.201672 0
M  V30 27576 C 2669.02 -0.77148 3.53172 0
M  V30 27577 O 2668.74 0.345456 4.36736 0
M  V30 27578 C 2670.24 -1.44933 4.18938 0
M  V30 27579 H 2667.46 -0.0683666 0.667508 0
M  V30 27580 H 2670.01 0.438164 1.99751 0
M  V30 27581 H 2668.16 -1.47308 3.583 0
M  V30 27582 H 2668.58 -0.0108297 5.24499 0
M  V30 27583 H 2670.05 -1.72102 5.24485 0
M  V30 27584 H 2670.53 -2.38876 3.68558 0
M  V30 27585 H 2671.13 -0.790955 4.1788 0
M  V30 27586 N 2669.45 -1.57577 0.0267774 0
M  V30 27587 C 2670.38 -2.1311 -0.95427 0
M  V30 27588 C 2671.36 -1.04665 -1.34086 0
M  V30 27589 O 2672.54 -1.32486 -1.4199 0
M  V30 27590 C 2669.67 -2.65628 -2.23739 0
M  V30 27591 C 2668.63 -3.78839 -1.99162 0
M  V30 27592 C 2667.95 -4.17775 -3.33719 0
M  V30 27593 C 2669.25 -5.05012 -1.33268 0
M  V30 27594 H 2670.95 -2.95333 -0.491796 0
M  V30 27595 H 2668.49 -1.42068 -0.235115 0
M  V30 27596 H 2670.45 -3.03111 -2.92748 0
M  V30 27597 H 2669.17 -1.80563 -2.72148 0
M  V30 27598 H 2667.83 -3.4179 -1.32571 0
M  V30 27599 H 2667.48 -3.29695 -3.79882 0
M  V30 27600 H 2667.18 -4.94063 -3.18081 0
M  V30 27601 H 2668.7 -4.57839 -4.03999 0
M  V30 27602 H 2670.12 -5.40096 -1.92273 0
M  V30 27603 H 2668.51 -5.86282 -1.28035 0
M  V30 27604 H 2669.58 -4.83938 -0.305326 0
M  V30 27605 N 2670.93 0.246342 -1.55663 0
M  V30 27606 C 2671.86 1.3087 -1.93379 0
M  V30 27607 C 2672.84 1.50177 -0.798799 0
M  V30 27608 O 2674.02 1.62776 -1.05913 0
M  V30 27609 C 2671.15 2.66334 -2.22897 0
M  V30 27610 C 2670.11 2.61721 -3.38653 0
M  V30 27611 C 2669.43 4.00986 -3.53715 0
M  V30 27612 C 2670.73 2.18658 -4.74327 0
M  V30 27613 H 2672.43 0.995502 -2.82365 0
M  V30 27614 H 2669.97 0.47744 -1.35855 0
M  V30 27615 H 2671.93 3.4079 -2.47872 0
M  V30 27616 H 2670.65 2.99291 -1.30738 0
M  V30 27617 H 2669.31 1.89723 -3.13689 0
M  V30 27618 H 2668.96 4.31209 -2.58975 0
M  V30 27619 H 2668.66 3.98787 -4.31558 0
M  V30 27620 H 2670.18 4.7714 -3.81011 0
M  V30 27621 H 2671.59 2.82845 -4.9867 0
M  V30 27622 H 2669.99 2.27569 -5.55277 0
M  V30 27623 H 2671.06 1.13826 -4.71351 0
M  V30 27624 N 2672.4 1.4905 0.512027 0
M  V30 27625 C 2673.65 1.5798 1.26683 0
M  V30 27626 C 2673.98 0.261586 1.92733 0
M  V30 27627 O 2673.23 -0.749635 1.80773 0
M  V30 27628 C 2673.53 2.68012 2.36441 0
M  V30 27629 C 2673.2 4.09872 1.87924 0
M  V30 27630 C 2671.86 4.4848 1.74411 0
M  V30 27631 C 2674.21 4.98701 1.51482 0
M  V30 27632 C 2671.54 5.73701 1.22817 0
M  V30 27633 C 2673.89 6.24429 1.01344 0
M  V30 27634 C 2672.56 6.61877 0.864618 0
M  V30 27635 H 2671.83 0.578089 0.463567 0
M  V30 27636 H 2674.47 1.82839 0.569388 0
M  V30 27637 H 2672.78 2.37081 3.11929 0
M  V30 27638 H 2674.48 2.72132 2.94525 0
M  V30 27639 H 2671.07 3.79392 1.99398 0
M  V30 27640 H 2675.25 4.69538 1.60774 0
M  V30 27641 H 2670.51 6.01424 1.09997 0
M  V30 27642 H 2674.68 6.92645 0.722229 0
M  V30 27643 H 2672.31 7.58791 0.462644 0
M  V30 27644 N 2673.88 -0.762259 1.3794 0
M  V30 27645 C 2674.83 -1.89719 1.34572 0
M  V30 27646 C 2675.82 -1.67791 0.232958 0
M  V30 27647 O 2677.03 -1.75465 0.401516 0
M  V30 27648 H 2673.41 -0.624047 0.419605 0
M  V30 27649 H 2675.38 -1.89675 2.3036 0
M  V30 27650 C 2674.13 -3.27099 1.17904 0
M  V30 27651 H 2673.45 -3.44554 2.02787 0
M  V30 27652 H 2674.89 -4.06782 1.196 0
M  V30 27653 C 2673.35 -3.36705 -0.114669 0
M  V30 27654 O 2673.88 -3.86492 -1.09484 0
M  V30 27655 N 2672.08 -2.90111 -0.168579 0
M  V30 27656 H 2671.63 -2.49785 0.629714 0
M  V30 27657 H 2671.59 -2.96918 -1.03378 0
M  V30 27658 N 2675.36 -1.22666 -0.989486 0
M  V30 27659 C 2676.61 -1.0474 -1.72373 0
M  V30 27660 C 2676.92 0.417282 -1.91097 0
M  V30 27661 O 2678.13 0.716288 -2.61881 0
M  V30 27662 C 2676.58 -1.82566 -3.10157 0
M  V30 27663 C 2676.19 -3.33305 -2.99352 0
M  V30 27664 C 2677.94 -1.73099 -3.87604 0
M  V30 27665 C 2675.84 -4.03559 -4.32312 0
M  V30 27666 H 2674.77 -0.388314 -0.646319 0
M  V30 27667 H 2677.42 -1.46548 -1.10435 0
M  V30 27668 H 2675.81 -1.33558 -3.72798 0
M  V30 27669 H 2676.98 -3.89732 -2.45856 0
M  V30 27670 H 2675.3 -3.43486 -2.35386 0
M  V30 27671 H 2677.89 -2.22907 -4.86021 0
M  V30 27672 H 2678.24 -0.692048 -4.10507 0
M  V30 27673 H 2678.77 -2.19669 -3.31648 0
M  V30 27674 H 2675.51 -5.07722 -4.14607 0
M  V30 27675 H 2675.03 -3.5192 -4.85708 0
M  V30 27676 H 2676.71 -4.09346 -5.01044 0
M  V30 27677 N 2676.84 1.18685 -1.0369 0
M  V30 27678 C 2677.77 2.24402 -0.645446 0
M  V30 27679 C 2678.75 1.66471 0.349482 0
M  V30 27680 O 2679.94 1.92828 0.230419 0
M  V30 27681 C 2677.07 3.473 -0.00371441 0
M  V30 27682 C 2676.02 4.17956 -0.921779 0
M  V30 27683 C 2675.35 5.34504 -0.144723 0
M  V30 27684 C 2676.65 4.71867 -2.23918 0
M  V30 27685 H 2678.34 2.57401 -1.52922 0
M  V30 27686 H 2675.89 1.23726 -0.736733 0
M  V30 27687 H 2677.84 4.20456 0.281835 0
M  V30 27688 H 2676.56 3.13524 0.914908 0
M  V30 27689 H 2675.22 3.46692 -1.19165 0
M  V30 27690 H 2674.87 4.96975 0.776186 0
M  V30 27691 H 2674.57 5.82712 -0.756308 0
M  V30 27692 H 2676.09 6.10453 0.133897 0
M  V30 27693 H 2677.51 5.36737 -2.01459 0
M  V30 27694 H 2675.9 5.30594 -2.80339 0
M  V30 27695 H 2676.97 3.89495 -2.88829 0
M  V30 27696 N 2678.32 0.815849 1.34839 0
M  V30 27697 C 2679.57 0.399779 1.98106 0
M  V30 27698 C 2679.89 -1.03891 1.6502 0
M  V30 27699 O 2679.16 -1.7202 0.937341 0
M  V30 27700 H 2677.74 0.144836 0.732824 0
M  V30 27701 H 2680.4 1.04373 1.64597 0
M  V30 27702 H 2679.49 0.513019 3.07855 0
M  V30 27703 N 2679.8 -1.46924 0.570174 0
M  V30 27704 C 2681.04 -2.02036 0.0508878 0
M  V30 27705 C 2681.36 -1.4455 -1.30883 0
M  V30 27706 O 2680.63 -0.625486 -1.85646 0
M  V30 27707 H 2679.21 -0.746832 0.0158219 0
M  V30 27708 H 2681.88 -1.80177 0.743118 0
M  V30 27709 H 2680.97 -3.12088 -0.0275201 0
M  V30 27710 N 2681.27 -0.307291 -1.54575 0
M  V30 27711 C 2682.52 0.293418 -2.01273 0
M  V30 27712 C 2682.87 1.51042 -1.19181 0
M  V30 27713 O 2682.17 1.89804 -0.261738 0
M  V30 27714 C 2682.36 0.695191 -3.50574 0
M  V30 27715 C 2682.19 -0.481328 -4.47117 0
M  V30 27716 C 2680.96 -0.975327 -4.95798 0
M  V30 27717 C 2683.16 -1.32832 -4.9685 0
M  V30 27718 N 2681.14 -2.11795 -5.76208 0
M  V30 27719 C 2682.51 -2.31834 -5.75024 0
M  V30 27720 C 2684.57 -1.35797 -4.79024 0
M  V30 27721 C 2683.27 -3.33585 -6.3727 0
M  V30 27722 C 2685.3 -2.36409 -5.42093 0
M  V30 27723 C 2684.66 -3.3414 -6.20105 0
M  V30 27724 H 2680.76 0.0716568 -0.77871 0
M  V30 27725 H 2683.34 -0.438635 -1.89695 0
M  V30 27726 H 2681.51 1.3964 -3.62429 0
M  V30 27727 H 2683.24 1.27598 -3.84059 0
M  V30 27728 H 2680 -0.549267 -4.70404 0
M  V30 27729 H 2680.42 -2.69386 -6.21096 0
M  V30 27730 H 2685.06 -0.616095 -4.18287 0
M  V30 27731 H 2682.78 -4.08688 -6.97137 0
M  V30 27732 H 2686.37 -2.39485 -5.30225 0
M  V30 27733 H 2685.25 -4.10719 -6.68042 0
M  V30 27734 N 2682.75 1.57561 -0.0351337 0
M  V30 27735 C 2684 1.92332 0.643146 0
M  V30 27736 C 2684.33 0.912398 1.71432 0
M  V30 27737 O 2683.61 -0.0639962 1.94395 0
M  V30 27738 C 2683.89 3.37558 1.25405 0
M  V30 27739 C 2683.74 4.4939 0.19203 0
M  V30 27740 C 2685.06 3.82863 2.17035 0
M  V30 27741 H 2682.18 0.699423 0.232329 0
M  V30 27742 H 2684.82 1.89769 -0.0936222 0
M  V30 27743 H 2682.97 3.39873 1.88199 0
M  V30 27744 H 2684.64 4.59207 -0.43893 0
M  V30 27745 H 2682.89 4.31116 -0.481801 0
M  V30 27746 H 2683.56 5.4805 0.659196 0
M  V30 27747 H 2686.03 3.82323 1.64221 0
M  V30 27748 H 2684.91 4.85161 2.56729 0
M  V30 27749 H 2685.17 3.18707 3.06395 0
M  V30 27750 N 2684.23 -0.238084 1.55791 0
M  V30 27751 C 2685.19 -1.27832 1.90241 0
M  V30 27752 C 2686.19 -1.40639 0.779577 0
M  V30 27753 O 2687.38 -1.39188 1.04749 0
M  V30 27754 C 2684.51 -2.65471 2.13864 0
M  V30 27755 H 2685.71 -0.984984 2.83263 0
M  V30 27756 H 2683.26 -0.477772 1.48819 0
M  V30 27757 H 2684 -2.9993 1.23339 0
M  V30 27758 H 2683.78 -2.57555 2.95648 0
M  V30 27759 H 2685.27 -3.40566 2.4167 0
M  V30 27760 N 2685.71 -1.4932 -0.504115 0
M  V30 27761 C 2686.67 -1.65247 -1.58827 0
M  V30 27762 C 2687.67 -0.524412 -1.52008 0
M  V30 27763 O 2688.86 -0.790797 -1.55216 0
M  V30 27764 C 2685.99 -1.64692 -2.98478 0
M  V30 27765 H 2687.19 -2.61942 -1.46036 0
M  V30 27766 H 2684.74 -1.38304 -0.72812 0
M  V30 27767 H 2685.47 -0.695699 -3.1675 0
M  V30 27768 H 2685.26 -2.46612 -3.04836 0
M  V30 27769 H 2686.75 -1.79082 -3.77252 0
M  V30 27770 N 2687.19 0.754933 -1.38342 0
M  V30 27771 C 2688.12 1.87829 -1.3135 0
M  V30 27772 C 2689.13 1.61224 -0.225983 0
M  V30 27773 O 2690.32 1.71829 -0.48344 0
M  V30 27774 C 2687.42 3.23435 -1.01207 0
M  V30 27775 C 2686.59 3.77555 -2.20841 0
M  V30 27776 C 2685.65 4.91675 -1.87463 0
M  V30 27777 O 2684.68 5.06378 -2.59942 0
M  V30 27778 N 2685.88 5.74553 -0.828783 0
M  V30 27779 H 2688.64 1.94338 -2.28151 0
M  V30 27780 H 2686.21 0.934805 -1.32186 0
M  V30 27781 H 2688.2 3.9732 -0.769319 0
M  V30 27782 H 2686.77 3.12321 -0.132066 0
M  V30 27783 H 2685.99 2.95252 -2.6119 0
M  V30 27784 H 2687.28 4.10446 -3.00685 0
M  V30 27785 H 2686.67 5.65242 -0.22769 0
M  V30 27786 H 2685.23 6.48592 -0.645916 0
M  V30 27787 N 2688.66 1.23189 0.982967 0
M  V30 27788 C 2689.59 1.03519 2.09299 0
M  V30 27789 C 2690.57 -0.0470837 1.70035 0
M  V30 27790 O 2691.76 0.117064 1.93847 0
M  V30 27791 C 2688.89 0.622851 3.41669 0
M  V30 27792 C 2687.84 1.65218 3.94825 0
M  V30 27793 C 2687.17 1.09536 5.2336 0
M  V30 27794 C 2688.47 3.04459 4.24385 0
M  V30 27795 H 2690.16 1.96363 2.26013 0
M  V30 27796 H 2687.71 0.94552 1.08609 0
M  V30 27797 H 2689.66 0.472307 4.18745 0
M  V30 27798 H 2688.39 -0.341272 3.24812 0
M  V30 27799 H 2687.05 1.79067 3.19891 0
M  V30 27800 H 2686.69 0.1223 5.02851 0
M  V30 27801 H 2686.39 1.7831 5.59892 0
M  V30 27802 H 2687.92 0.956617 6.0306 0
M  V30 27803 H 2689.33 2.93926 4.9222 0
M  V30 27804 H 2687.73 3.70447 4.72112 0
M  V30 27805 H 2688.8 3.53644 3.31759 0
M  V30 27806 N 2690.14 -1.18133 1.04318 0
M  V30 27807 C 2691.1 -2.20059 0.640833 0
M  V30 27808 C 2692.1 -1.57918 -0.303096 0
M  V30 27809 O 2693.29 -1.73977 -0.0881549 0
M  V30 27810 C 2690.43 -3.40847 -0.0600881 0
M  V30 27811 H 2691.62 -2.57169 1.54285 0
M  V30 27812 H 2689.17 -1.32062 0.836027 0
M  V30 27813 H 2689.91 -3.09271 -0.975791 0
M  V30 27814 H 2689.69 -3.87193 0.618387 0
M  V30 27815 H 2691.18 -4.1631 -0.328009 0
M  V30 27816 N 2691.62 -0.822988 -1.34405 0
M  V30 27817 C 2692.58 -0.250311 -2.27829 0
M  V30 27818 C 2693.58 0.571827 -1.50289 0
M  V30 27819 O 2694.77 0.387923 -1.69826 0
M  V30 27820 C 2691.91 0.649078 -3.34664 0
M  V30 27821 H 2693.1 -1.07449 -2.7999 0
M  V30 27822 H 2690.65 -0.594855 -1.44538 0
M  V30 27823 H 2691.39 1.49632 -2.87717 0
M  V30 27824 H 2691.17 0.061051 -3.92052 0
M  V30 27825 H 2692.66 1.04356 -4.04351 0
M  V30 27826 N 2693.1 1.4662 -0.577957 0
M  V30 27827 C 2694.51 1.86096 -0.150104 0
M  V30 27828 C 2694.86 1.48212 1.2856 0
M  V30 27829 O 2693.99 0.894788 1.97034 0
M  V30 27830 C 2694.58 3.37757 -0.265636 0
M  V30 27831 C 2693.14 3.76247 0.107314 0
M  V30 27832 C 2692.29 2.70647 -0.603758 0
M  V30 27833 H 2695.24 1.37842 -0.786462 0
M  V30 27834 H 2695.26 3.77063 0.510286 0
M  V30 27835 H 2694.77 3.65299 -1.31066 0
M  V30 27836 H 2692.87 3.54323 1.15266 0
M  V30 27837 H 2692.98 4.78363 -0.265694 0
M  V30 27838 H 2691.35 2.54661 -0.0445331 0
M  V30 27839 H 2692.13 3.01029 -1.65034 0
M  V30 27840 N 2694.58 0.315484 1.5441 0
M  V30 27841 C 2695.82 -0.288936 2.00024 0
M  V30 27842 C 2696.15 -1.53288 1.20532 0
M  V30 27843 O 2695.42 -1.93511 0.30502 0
M  V30 27844 H 2694 -0.109753 0.738893 0
M  V30 27845 H 2696.66 0.430163 1.90094 0
M  V30 27846 H 2695.75 -0.550945 3.07199 0
M  V30 27847 N 2696.05 -1.5754 0.0434891 0
M  V30 27848 C 2697.02 -2.09984 -0.918659 0
M  V30 27849 C 2698.02 -1.01783 -1.24486 0
M  V30 27850 O 2699.21 -1.27887 -1.18282 0
M  V30 27851 C 2696.34 -2.57768 -2.23088 0
M  V30 27852 H 2697.53 -2.96286 -0.464177 0
M  V30 27853 H 2695.09 -1.54953 -0.204791 0
M  V30 27854 H 2695.82 -1.74837 -2.73134 0
M  V30 27855 H 2695.61 -3.3683 -2.00718 0
M  V30 27856 H 2697.1 -2.98517 -2.92023 0
M  V30 27857 N 2697.53 0.229818 -1.55915 0
M  V30 27858 C 2698.5 1.26821 -1.90916 0
M  V30 27859 C 2699.5 1.40223 -0.787024 0
M  V30 27860 O 2700.69 1.3863 -1.05486 0
M  V30 27861 C 2697.82 2.64333 -2.15269 0
M  V30 27862 H 2699.01 0.969948 -2.83782 0
M  V30 27863 H 2696.56 0.469873 -1.4907 0
M  V30 27864 H 2697.3 2.99272 -1.24928 0
M  V30 27865 H 2697.08 2.55984 -2.9701 0
M  V30 27866 H 2698.57 3.3928 -2.43473 0
M  V30 27867 N 2699.01 1.49585 0.49619 0
M  V30 27868 C 2700.24 1.63031 1.27391 0
M  V30 27869 C 2700.65 0.303601 1.86343 0
M  V30 27870 O 2700.01 -0.711517 1.68059 0
M  V30 27871 C 2700.06 2.70273 2.40072 0
M  V30 27872 O 2699.78 3.97799 1.83542 0
M  V30 27873 C 2701.28 2.94468 3.31366 0
M  V30 27874 H 2698.5 0.548716 0.386201 0
M  V30 27875 H 2701.05 1.95649 0.595129 0
M  V30 27876 H 2699.2 2.4042 3.03771 0
M  V30 27877 H 2699.62 4.5691 2.57553 0
M  V30 27878 H 2701.09 3.73228 4.067 0
M  V30 27879 H 2701.57 2.04567 3.8865 0
M  V30 27880 H 2702.17 3.25756 2.73429 0
M  V30 27881 N 2700.49 -0.747586 1.3874 0
M  V30 27882 C 2701.45 -1.8431 1.36245 0
M  V30 27883 C 2702.45 -1.58654 0.261839 0
M  V30 27884 O 2703.64 -1.66287 0.51906 0
M  V30 27885 C 2700.77 -3.21886 1.12259 0
M  V30 27886 H 2701.97 -1.87929 2.33715 0
M  V30 27887 H 2699.52 -0.949924 1.24121 0
M  V30 27888 H 2700.25 -3.23933 0.15419 0
M  V30 27889 H 2700.04 -3.41903 1.91949 0
M  V30 27890 H 2701.53 -4.01958 1.13223 0
M  V30 27891 N 2701.97 -1.23709 -0.97642 0
M  V30 27892 C 2703.21 -1.07157 -1.71825 0
M  V30 27893 C 2703.54 0.390948 -1.9053 0
M  V30 27894 O 2702.8 1.30562 -1.45781 0
M  V30 27895 C 2703.1 -1.74668 -3.11811 0
M  V30 27896 C 2702.76 -3.24591 -3.12972 0
M  V30 27897 C 2701.42 -3.65495 -3.12996 0
M  V30 27898 C 2703.78 -4.20475 -3.07978 0
M  V30 27899 C 2701.1 -5.00734 -3.05748 0
M  V30 27900 C 2703.46 -5.55711 -3.02272 0
M  V30 27901 C 2702.12 -5.95973 -3.0062 0
M  V30 27902 H 2701.39 -0.392113 -0.628751 0
M  V30 27903 H 2704.04 -1.53695 -1.14236 0
M  V30 27904 H 2702.34 -1.20499 -3.7281 0
M  V30 27905 H 2704.04 -1.59335 -3.67986 0
M  V30 27906 H 2700.63 -2.92031 -3.13713 0
M  V30 27907 H 2704.81 -3.89879 -3.07096 0
M  V30 27908 H 2700.07 -5.31138 -3.02825 0
M  V30 27909 H 2704.24 -6.2972 -2.97365 0
M  V30 27910 H 2701.87 -7.00729 -2.94759 0
M  V30 27911 N 2703.44 1.17579 -1.04943 0
M  V30 27912 C 2704.69 1.88055 -0.759145 0
M  V30 27913 C 2705.02 1.80682 0.711887 0
M  V30 27914 O 2704.3 1.2131 1.52033 0
M  V30 27915 C 2704.58 3.38185 -1.23706 0
M  V30 27916 C 2704.43 3.54322 -2.77084 0
M  V30 27917 C 2705.75 4.32124 -0.83409 0
M  V30 27918 H 2702.87 0.682863 -0.277249 0
M  V30 27919 H 2705.51 1.38284 -1.30298 0
M  V30 27920 H 2703.66 3.80704 -0.774404 0
M  V30 27921 H 2705.34 3.20836 -3.31455 0
M  V30 27922 H 2703.58 2.96684 -3.16482 0
M  V30 27923 H 2704.25 4.59698 -3.05585 0
M  V30 27924 H 2706.73 3.97432 -1.23235 0
M  V30 27925 H 2705.6 5.35709 -1.19613 0
M  V30 27926 H 2705.86 4.41322 0.262117 0
M  V30 27927 N 2704.92 0.830104 1.33967 0
M  V30 27928 C 2706.17 0.420768 1.97671 0
M  V30 27929 C 2706.49 -1.02135 1.66113 0
M  V30 27930 O 2705.76 -1.71016 0.955533 0
M  V30 27931 H 2704.34 0.1526 0.731247 0
M  V30 27932 H 2707 1.06113 1.63481 0
M  V30 27933 H 2706.1 0.545642 3.07293 0
M  V30 27934 N 2706.4 -1.46311 0.585725 0
M  V30 27935 C 2707.36 -2.28798 -0.135633 0
M  V30 27936 C 2708.36 -1.38559 -0.815964 0
M  V30 27937 O 2709.55 -1.60906 -0.667459 0
M  V30 27938 C 2706.69 -3.19022 -1.20158 0
M  V30 27939 H 2707.88 -2.94053 0.589308 0
M  V30 27940 H 2705.43 -1.52472 0.343821 0
M  V30 27941 H 2706.17 -2.58521 -1.958 0
M  V30 27942 H 2705.95 -3.85466 -0.718214 0
M  V30 27943 H 2707.44 -3.81099 -1.70743 0
M  V30 27944 N 2707.88 -0.323668 -1.54241 0
M  V30 27945 C 2709.13 0.278324 -2.00174 0
M  V30 27946 C 2709.45 1.52646 -1.21343 0
M  V30 27947 O 2708.72 1.93346 -0.315278 0
M  V30 27948 H 2707.3 0.105832 -0.739465 0
M  V30 27949 H 2709.96 -0.440238 -1.89863 0
M  V30 27950 H 2709.06 0.534646 -3.07487 0
M  V30 27951 N 2709.36 1.57515 -0.0518432 0
M  V30 27952 C 2710.29 2.14601 0.920246 0
M  V30 27953 C 2711.27 1.06785 1.32404 0
M  V30 27954 O 2712.45 1.34728 1.39864 0
M  V30 27955 C 2709.58 2.69154 2.19485 0
M  V30 27956 C 2708.54 3.81959 1.93109 0
M  V30 27957 C 2707.86 4.23031 3.2703 0
M  V30 27958 C 2709.16 5.07068 1.25217 0
M  V30 27959 H 2710.86 2.96078 0.444749 0
M  V30 27960 H 2708.4 1.42424 0.212483 0
M  V30 27961 H 2710.36 3.0773 2.87889 0
M  V30 27962 H 2709.08 1.8487 2.69241 0
M  V30 27963 H 2707.74 3.43856 1.27117 0
M  V30 27964 H 2707.39 3.35697 3.74589 0
M  V30 27965 H 2707.09 4.99061 3.1018 0
M  V30 27966 H 2708.61 4.64209 3.96665 0
M  V30 27967 H 2710.03 5.43087 1.83656 0
M  V30 27968 H 2708.42 5.88245 1.18691 0
M  V30 27969 H 2709.49 4.84362 0.228297 0
M  V30 27970 N 2710.84 -0.221546 1.56035 0
M  V30 27971 C 2711.8 -1.25807 1.91586 0
M  V30 27972 C 2712.8 -1.39804 0.794449 0
M  V30 27973 O 2713.99 -1.38069 1.0622 0
M  V30 27974 C 2711.12 -2.63188 2.16668 0
M  V30 27975 H 2712.31 -0.954885 2.84292 0
M  V30 27976 H 2709.87 -0.461961 1.49317 0
M  V30 27977 H 2710.6 -2.98605 1.26514 0
M  V30 27978 H 2710.39 -2.54405 2.98363 0
M  V30 27979 H 2711.88 -3.37984 2.45268 0
M  V30 27980 N 2712.31 -1.49846 -0.48825 0
M  V30 27981 C 2713.56 -1.59659 -1.23909 0
M  V30 27982 C 2713.88 -0.291039 -1.92816 0
M  V30 27983 O 2713.15 0.690453 -1.83329 0
M  V30 27984 H 2711.73 -0.588294 -0.460347 0
M  V30 27985 H 2714.39 -1.86538 -0.564761 0
M  V30 27986 H 2713.49 -2.39912 -1.99621 0
M  V30 27987 N 2713.79 0.740218 -1.39135 0
M  V30 27988 C 2714.75 1.83585 -1.3722 0
M  V30 27989 C 2715.75 1.58513 -0.270249 0
M  V30 27990 O 2716.94 1.66009 -0.527872 0
M  V30 27991 C 2714.08 3.21286 -1.13964 0
M  V30 27992 H 2715.27 1.86687 -2.34708 0
M  V30 27993 H 2712.82 0.943328 -1.24623 0
M  V30 27994 H 2713.56 3.23847 -0.171367 0
M  V30 27995 H 2713.34 3.40881 -1.9376 0
M  V30 27996 H 2714.83 4.01352 -1.15353 0
M  V30 27997 N 2715.27 1.24225 0.969846 0
M  V30 27998 C 2716.23 1.03377 2.04563 0
M  V30 27999 C 2717.23 -0.0081638 1.60798 0
M  V30 28000 O 2718.42 0.232597 1.7264 0
M  V30 28001 C 2715.55 0.566402 3.36162 0
M  V30 28002 H 2716.75 1.98857 2.2449 0
M  V30 28003 H 2714.3 1.06417 1.14478 0
M  V30 28004 H 2715.04 -0.391694 3.21926 0
M  V30 28005 H 2714.82 1.3184 3.6927 0
M  V30 28006 H 2716.31 0.441508 4.1526 0
M  V30 28007 N 2716.75 -1.1702 1.05565 0
M  V30 28008 C 2718 -1.86709 0.763069 0
M  V30 28009 C 2718.31 -1.82149 -0.712825 0
M  V30 28010 O 2719.52 -2.47345 -1.1195 0
M  V30 28011 C 2717.97 -3.35024 1.3148 0
M  V30 28012 C 2717.58 -3.48077 2.8204 0
M  V30 28013 C 2719.32 -4.10016 1.09942 0
M  V30 28014 C 2717.23 -4.90436 3.30495 0
M  V30 28015 H 2716.16 -0.699377 0.281759 0
M  V30 28016 H 2718.81 -1.32122 1.27342 0
M  V30 28017 H 2717.19 -3.89171 0.73224 0
M  V30 28018 H 2718.37 -3.04127 3.46184 0
M  V30 28019 H 2716.68 -2.8651 3.02161 0
M  V30 28020 H 2719.28 -5.15045 1.43641 0
M  V30 28021 H 2719.62 -4.16283 0.0373804 0
M  V30 28022 H 2720.16 -3.62086 1.64738 0
M  V30 28023 H 2716.89 -4.89344 4.36145 0
M  V30 28024 H 2716.41 -5.3504 2.71095 0
M  V30 28025 H 2718.09 -5.59222 3.25392 0
M  V30 28026 N 2718.23 -0.837197 -1.33524 0
M  V30 28027 C 2719.47 -0.431246 -1.97445 0
M  V30 28028 C 2719.79 1.01252 -1.66652 0
M  V30 28029 O 2719.06 1.70507 -0.964589 0
M  V30 28030 H 2717.64 -0.156476 -0.730427 0
M  V30 28031 H 2720.31 -1.06979 -1.62916 0
M  V30 28032 H 2719.4 -0.561931 -3.07 0
M  V30 28033 N 2719.7 1.45999 -0.593476 0
M  V30 28034 C 2720.93 2.07216 -0.087273 0
M  V30 28035 C 2721.35 1.43757 1.21308 0
M  V30 28036 O 2720.71 0.525183 1.73527 0
M  V30 28037 C 2720.76 3.6056 0.0537564 0
M  V30 28038 O 2719.86 3.97249 1.10758 0
M  V30 28039 H 2719.2 0.660543 -0.0676714 0
M  V30 28040 H 2721.73 1.87472 -0.819478 0
M  V30 28041 H 2721.74 4.07193 0.256496 0
M  V30 28042 H 2720.42 4.06138 -0.89581 0
M  V30 28043 H 2719 3.62309 0.882437 0
M  V30 28044 N 2721.18 0.331843 1.54067 0
M  V30 28045 C 2722.43 -0.268631 2.01013 0
M  V30 28046 C 2722.76 -1.51133 1.21952 0
M  V30 28047 O 2722.04 -1.92109 0.304006 0
M  V30 28048 C 2722.32 -0.594498 3.55159 0
M  V30 28049 C 2722.17 0.659487 4.44939 0
M  V30 28050 C 2723.49 -1.40883 4.16941 0
M  V30 28051 H 2720.61 -0.0961627 0.730699 0
M  V30 28052 H 2723.25 0.450063 1.84593 0
M  V30 28053 H 2721.4 -1.20678 3.69282 0
M  V30 28054 H 2723.07 1.29764 4.42673 0
M  V30 28055 H 2721.32 1.28672 4.14277 0
M  V30 28056 H 2721.99 0.386901 5.50642 0
M  V30 28057 H 2724.46 -0.891201 4.06444 0
M  V30 28058 H 2723.34 -1.60559 5.24892 0
M  V30 28059 H 2723.6 -2.40745 3.70802 0
M  V30 28060 N 2722.66 -1.57485 0.0601958 0
M  V30 28061 C 2723.91 -1.92663 -0.610353 0
M  V30 28062 C 2724.23 -0.940011 -1.70847 0
M  V30 28063 O 2723.5 0.013711 -1.95895 0
M  V30 28064 H 2722.08 -0.711212 -0.228445 0
M  V30 28065 H 2724.74 -1.94559 0.115322 0
M  V30 28066 H 2723.84 -2.94151 -1.04315 0
M  V30 28067 N 2724.14 0.213268 -1.5615 0
M  V30 28068 C 2725.07 1.26738 -1.96111 0
M  V30 28069 C 2726.05 1.48449 -0.830475 0
M  V30 28070 O 2727.23 1.60493 -1.09342 0
M  V30 28071 C 2724.36 2.61547 -2.28497 0
M  V30 28072 C 2723.32 2.54479 -3.44129 0
M  V30 28073 C 2722.64 3.93393 -3.62141 0
M  V30 28074 C 2723.94 2.08548 -4.78858 0
M  V30 28075 H 2725.64 0.935384 -2.84413 0
M  V30 28076 H 2723.18 0.448516 -1.36837 0
M  V30 28077 H 2725.14 3.35455 -2.55045 0
M  V30 28078 H 2723.86 2.96451 -1.37057 0
M  V30 28079 H 2722.52 1.83027 -3.17642 0
M  V30 28080 H 2722.17 4.25619 -2.68063 0
M  V30 28081 H 2721.87 3.89544 -4.3992 0
M  V30 28082 H 2723.39 4.68951 -3.91046 0
M  V30 28083 H 2724.81 2.72204 -5.04557 0
M  V30 28084 H 2723.2 2.1574 -5.59979 0
M  V30 28085 H 2724.27 1.03802 -4.73659 0
M  V30 28086 N 2725.62 1.50103 0.480296 0
M  V30 28087 C 2726.86 1.60314 1.2306 0
M  V30 28088 C 2727.19 0.30126 1.92659 0
M  V30 28089 O 2726.46 -0.680721 1.83693 0
M  V30 28090 H 2725.04 0.590727 0.457221 0
M  V30 28091 H 2727.7 1.86835 0.55486 0
M  V30 28092 H 2726.79 2.40967 1.98346 0
M  V30 28093 N 2727.09 -0.732829 1.39526 0
M  V30 28094 C 2728.04 -1.84686 1.38419 0
M  V30 28095 C 2729.01 -1.64304 0.243568 0
M  V30 28096 O 2730.2 -1.85681 0.439011 0
M  V30 28097 C 2727.34 -3.22222 1.2356 0
M  V30 28098 C 2726.45 -3.54293 2.47185 0
M  V30 28099 C 2725.58 -4.81242 2.24898 0
M  V30 28100 C 2724.62 -5.06164 3.44187 0
M  V30 28101 N 2723.76 -6.24318 3.21203 0
M  V30 28102 H 2728.6 -1.84967 2.33648 0
M  V30 28103 H 2726.14 -0.903784 1.16061 0
M  V30 28104 H 2728.1 -4.01618 1.12956 0
M  V30 28105 H 2726.73 -3.21214 0.319596 0
M  V30 28106 H 2725.78 -2.69582 2.68383 0
M  V30 28107 H 2727.09 -3.68627 3.36029 0
M  V30 28108 H 2726.24 -5.68623 2.11548 0
M  V30 28109 H 2724.98 -4.69086 1.33452 0
M  V30 28110 H 2723.99 -4.17245 3.58032 0
M  V30 28111 H 2725.21 -5.20204 4.36537 0
M  V30 28112 H 2723.16 -6.13445 2.32424 0
M  V30 28113 H 2723.08 -6.39249 4.03605 0
M  V30 28114 H 2724.34 -7.14532 3.11552 0
M  V30 28115 N 2728.57 -1.24737 -0.963244 0
M  V30 28116 C 2729.82 -1.09134 -1.70931 0
M  V30 28117 C 2730.15 0.368239 -1.90677 0
M  V30 28118 O 2729.43 1.2719 -1.47149 0
M  V30 28119 C 2729.71 -1.83664 -3.09741 0
M  V30 28120 C 2729.56 -3.37399 -2.97459 0
M  V30 28121 C 2730.88 -1.61289 -4.0948 0
M  V30 28122 H 2728 -0.397849 -0.620391 0
M  V30 28123 H 2730.64 -1.53461 -1.12025 0
M  V30 28124 H 2728.79 -1.45986 -3.60028 0
M  V30 28125 H 2730.46 -3.84701 -2.54564 0
M  V30 28126 H 2728.71 -3.65551 -2.3357 0
M  V30 28127 H 2729.38 -3.84752 -3.95815 0
M  V30 28128 H 2731.85 -1.94073 -3.68069 0
M  V30 28129 H 2730.73 -2.15886 -5.04662 0
M  V30 28130 H 2730.99 -0.552179 -4.38638 0
M  V30 28131 N 2730.05 1.16459 -1.06184 0
M  V30 28132 C 2730.98 2.22982 -0.6929 0
M  V30 28133 C 2731.96 1.67175 0.314092 0
M  V30 28134 O 2733.15 1.93274 0.189465 0
M  V30 28135 C 2730.28 3.47214 -0.077381 0
M  V30 28136 C 2729.23 4.15907 -1.01023 0
M  V30 28137 C 2728.56 5.34077 -0.258067 0
M  V30 28138 C 2729.86 4.67011 -2.33876 0
M  V30 28139 H 2731.55 2.54099 -1.58347 0
M  V30 28140 H 2729.1 1.22136 -0.762812 0
M  V30 28141 H 2731.05 4.2096 0.192586 0
M  V30 28142 H 2729.77 3.15394 0.848199 0
M  V30 28143 H 2728.43 3.44086 -1.26492 0
M  V30 28144 H 2728.08 4.9851 0.670596 0
M  V30 28145 H 2727.78 5.80977 -0.87974 0
M  V30 28146 H 2729.3 6.106 0.00438055 0
M  V30 28147 H 2730.72 5.32343 -2.12799 0
M  V30 28148 H 2729.12 5.24528 -2.91531 0
M  V30 28149 H 2730.19 3.8328 -2.97025 0
M  V30 28150 N 2731.53 0.844266 1.33079 0
M  V30 28151 C 2732.78 0.438868 1.96868 0
M  V30 28152 C 2733.09 -1.00844 1.67601 0
M  V30 28153 O 2734.3 -1.51877 2.25046 0
M  V30 28154 C 2732.75 0.733832 3.52339 0
M  V30 28155 C 2732.36 2.19617 3.90477 0
M  V30 28156 C 2734.1 0.395649 4.22652 0
M  V30 28157 C 2732.01 2.4349 5.38949 0
M  V30 28158 H 2730.94 0.160377 0.736746 0
M  V30 28159 H 2733.59 1.0336 1.51621 0
M  V30 28160 H 2731.97 0.0686586 3.9594 0
M  V30 28161 H 2733.15 2.90227 3.57917 0
M  V30 28162 H 2731.46 2.49786 3.33161 0
M  V30 28163 H 2734.06 0.55157 5.31848 0
M  V30 28164 H 2734.4 -0.661849 4.11005 0
M  V30 28165 H 2734.94 1.01628 3.84599 0
M  V30 28166 H 2731.68 3.47825 5.55606 0
M  V30 28167 H 2731.2 1.77447 5.72951 0
M  V30 28168 H 2732.87 2.26915 6.05903 0
M  V30 28169 N 2733.01 -1.45682 0.60121 0
M  V30 28170 C 2734.28 -1.95582 0.0262003 0
M  V30 28171 C 2734.66 -1.54372 -1.43987 0
M  V30 28172 O 2734.01 -0.803217 -2.13917 0
M  V30 28173 C 2734.22 -3.48321 0.217618 0
M  V30 28174 C 2735.57 -4.24494 0.0950822 0
M  V30 28175 O 2736.59 -3.55895 0.147408 0
M  V30 28176 O 2735.45 -5.46494 -0.0251649 0
M  V30 28177 H 2732.55 -0.826063 -0.0393543 0
M  V30 28178 H 2735.09 -1.55878 0.670825 0
M  V30 28179 H 2733.86 -3.71264 1.23608 0
M  V30 28180 H 2733.49 -3.949 -0.462571 0
M  V30 28181 N 2734.48 -0.340009 -1.53889 0
M  V30 28182 C 2735.73 0.258569 -2.00036 0
M  V30 28183 C 2736.05 1.5194 -1.23182 0
M  V30 28184 O 2737.25 2.195 -1.59788 0
M  V30 28185 C 2735.71 0.511296 -3.5625 0
M  V30 28186 C 2735.32 -0.733427 -4.41956 0
M  V30 28187 C 2737.06 1.06893 -4.10821 0
M  V30 28188 C 2734.97 -0.451694 -5.89673 0
M  V30 28189 H 2733.9 0.100396 -0.747286 0
M  V30 28190 H 2736.55 -0.454789 -1.77775 0
M  V30 28191 H 2734.93 1.28526 -3.74562 0
M  V30 28192 H 2736.1 -1.50823 -4.35418 0
M  V30 28193 H 2734.42 -1.21244 -3.98358 0
M  V30 28194 H 2737.02 1.29461 -5.18791 0
M  V30 28195 H 2737.36 2.02337 -3.63821 0
M  V30 28196 H 2737.89 0.355748 -3.96206 0
M  V30 28197 H 2734.63 -1.37576 -6.409 0
M  V30 28198 H 2734.15 0.285088 -5.99122 0
M  V30 28199 H 2735.83 -0.0676204 -6.46965 0
M  V30 28200 N 2735.96 1.57451 -0.0685468 0
M  V30 28201 C 2736.89 2.15565 0.897432 0
M  V30 28202 C 2737.87 1.08184 1.31264 0
M  V30 28203 O 2739.06 1.36204 1.38427 0
M  V30 28204 C 2736.19 2.71466 2.16618 0
M  V30 28205 C 2735.14 3.83986 1.89047 0
M  V30 28206 C 2734.47 4.26476 3.22525 0
M  V30 28207 C 2735.77 5.08368 1.19831 0
M  V30 28208 H 2737.46 2.96533 0.413321 0
M  V30 28209 H 2735.01 1.42641 0.197365 0
M  V30 28210 H 2736.96 3.10766 2.84609 0
M  V30 28211 H 2735.69 1.87715 2.67265 0
M  V30 28212 H 2734.35 3.45185 1.23463 0
M  V30 28213 H 2733.99 3.39651 3.71007 0
M  V30 28214 H 2733.69 5.02323 3.0487 0
M  V30 28215 H 2735.22 4.6839 3.91719 0
M  V30 28216 H 2736.63 5.45004 1.77886 0
M  V30 28217 H 2735.03 5.89471 1.12445 0
M  V30 28218 H 2736.1 4.84577 0.176911 0
M  V30 28219 N 2737.44 -0.204984 1.56261 0
M  V30 28220 C 2738.4 -1.23768 1.9291 0
M  V30 28221 C 2739.4 -1.38953 0.809233 0
M  V30 28222 O 2740.59 -1.36935 1.07678 0
M  V30 28223 C 2737.73 -2.60875 2.19447 0
M  V30 28224 H 2738.92 -0.924678 2.85289 0
M  V30 28225 H 2736.47 -0.446098 1.49799 0
M  V30 28226 H 2737.21 -2.97246 1.29674 0
M  V30 28227 H 2736.99 -2.51226 3.01044 0
M  V30 28228 H 2738.48 -3.35364 2.48839 0
M  V30 28229 N 2738.92 -1.50356 -0.472329 0
M  V30 28230 C 2740.17 -1.60964 -1.22208 0
M  V30 28231 C 2740.49 -0.311473 -1.92496 0
M  V30 28232 O 2739.76 0.67097 -1.84051 0
M  V30 28233 H 2738.34 -0.593143 -0.454081 0
M  V30 28234 H 2741 -1.87127 -0.544944 0
M  V30 28235 H 2740.1 -2.42016 -1.97065 0
M  V30 28236 N 2740.4 0.725419 -1.39912 0
M  V30 28237 C 2741.63 1.51241 -1.40747 0
M  V30 28238 C 2742.04 1.892 -0.00278729 0
M  V30 28239 O 2741.38 1.55296 0.981272 0
M  V30 28240 C 2741.44 2.82347 -2.22532 0
M  V30 28241 C 2741.1 2.66768 -3.71058 0
M  V30 28242 C 2742.1 2.34678 -4.63921 0
M  V30 28243 C 2739.79 2.83339 -4.14758 0
M  V30 28244 C 2741.78 2.19355 -5.98466 0
M  V30 28245 C 2739.47 2.67635 -5.49377 0
M  V30 28246 C 2740.47 2.35689 -6.41046 0
M  V30 28247 O 2740.15 2.20093 -7.73184 0
M  V30 28248 H 2739.89 0.473647 -0.482322 0
M  V30 28249 H 2742.44 0.903252 -1.84474 0
M  V30 28250 H 2740.67 3.45559 -1.73569 0
M  V30 28251 H 2742.36 3.44014 -2.15427 0
M  V30 28252 H 2743.12 2.21517 -4.31457 0
M  V30 28253 H 2739 3.07194 -3.43733 0
M  V30 28254 H 2742.55 1.94343 -6.69983 0
M  V30 28255 H 2738.44 2.80377 -5.81429 0
M  V30 28256 H 2739.21 2.35089 -7.84012 0
M  V30 28257 N 2741.88 1.25246 0.956615 0
M  V30 28258 C 2743.12 1.09659 1.69762 0
M  V30 28259 C 2743.44 -0.36343 1.91583 0
M  V30 28260 O 2742.71 -1.25823 1.50151 0
M  V30 28261 H 2741.29 0.402809 0.62909 0
M  V30 28262 H 2743.96 1.57339 1.15024 0
M  V30 28263 H 2743.05 1.60336 2.67766 0
M  V30 28264 N 2743.35 -1.15894 1.068 0
M  V30 28265 C 2744.32 -2.1865 0.687366 0
M  V30 28266 C 2745.32 -1.58525 -0.269532 0
M  V30 28267 O 2746.51 -1.74125 -0.0512321 0
M  V30 28268 C 2743.64 -3.40898 0.0122241 0
M  V30 28269 H 2744.83 -2.53839 1.59705 0
M  V30 28270 H 2742.38 -1.30259 0.863851 0
M  V30 28271 H 2743.12 -3.11272 -0.90997 0
M  V30 28272 H 2742.9 -3.85794 0.700377 0
M  V30 28273 H 2744.39 -4.16912 -0.23963 0
M  V30 28274 N 2744.83 -0.851312 -1.32629 0
M  V30 28275 C 2746.08 -0.452163 -1.96977 0
M  V30 28276 C 2746.4 0.99479 -1.67717 0
M  V30 28277 O 2745.67 1.69474 -0.98262 0
M  V30 28278 H 2744.25 -0.164214 -0.728727 0
M  V30 28279 H 2746.91 -1.08701 -1.61772 0
M  V30 28280 H 2746.01 -0.594461 -3.06386 0
M  V30 28281 N 2746.31 1.45361 -0.608928 0
M  V30 28282 C 2747.56 2.02529 -0.104798 0
M  V30 28283 C 2747.89 1.47615 1.26188 0
M  V30 28284 O 2747.16 0.651373 1.83269 0
M  V30 28285 C 2747.45 3.60037 -0.0673294 0
M  V30 28286 C 2747.3 4.25282 -1.46477 0
M  V30 28287 C 2748.62 4.35714 0.619801 0
M  V30 28288 H 2745.74 0.735938 -0.0395568 0
M  V30 28289 H 2748.38 1.73199 -0.781156 0
M  V30 28290 H 2746.53 3.85156 0.508642 0
M  V30 28291 H 2748.2 4.11343 -2.08792 0
M  V30 28292 H 2746.44 3.83631 -2.02509 0
M  V30 28293 H 2747.12 5.34192 -1.39078 0
M  V30 28294 H 2749.59 4.15896 0.130224 0
M  V30 28295 H 2748.47 5.45442 0.615128 0
M  V30 28296 H 2748.73 4.08683 1.68613 0
M  V30 28297 N 2747.79 0.348166 1.53706 0
M  V30 28298 C 2748.75 -0.494019 2.23813 0
M  V30 28299 C 2749.75 -1.02386 1.23991 0
M  V30 28300 O 2750.94 -0.91237 1.48396 0
M  V30 28301 C 2748.07 -1.68867 2.96136 0
M  V30 28302 H 2749.27 0.119193 2.99663 0
M  V30 28303 H 2746.82 0.0995813 1.55982 0
M  V30 28304 H 2747.55 -2.34045 2.24485 0
M  V30 28305 H 2747.34 -1.3159 3.6936 0
M  V30 28306 H 2748.83 -2.28591 3.49479 0
M  V30 28307 N 2749.27 -1.57412 0.0768958 0
M  V30 28308 C 2750.51 -1.933 -0.589884 0
M  V30 28309 C 2750.83 -0.958079 -1.69841 0
M  V30 28310 O 2750.1 -0.00706705 -1.95899 0
M  V30 28311 H 2748.68 -0.713595 -0.220888 0
M  V30 28312 H 2751.35 -1.94425 0.135951 0
M  V30 28313 H 2750.44 -2.95241 -1.0119 0
M  V30 28314 N 2750.74 0.196695 -1.56368 0
M  V30 28315 C 2751.71 1.22743 -1.93563 0
M  V30 28316 C 2752.71 1.38522 -0.81659 0
M  V30 28317 O 2753.9 1.36362 -1.08403 0
M  V30 28318 C 2751.03 2.59708 -2.20827 0
M  V30 28319 H 2752.22 0.909536 -2.85775 0
M  V30 28320 H 2749.78 0.438148 -1.50033 0
M  V30 28321 H 2750.51 2.96554 -1.31248 0
M  V30 28322 H 2750.3 2.49626 -3.02372 0
M  V30 28323 H 2751.79 3.34039 -2.50614 0
M  V30 28324 N 2752.22 1.50604 0.464349 0
M  V30 28325 C 2753.15 1.72892 1.56941 0
M  V30 28326 C 2754.13 0.578025 1.59978 0
M  V30 28327 O 2755.32 0.817886 1.76137 0
M  V30 28328 C 2752.45 1.82925 2.95222 0
M  V30 28329 C 2751.4 2.98167 3.07051 0
M  V30 28330 C 2750.73 2.9335 4.47045 0
M  V30 28331 C 2752.03 4.38572 2.8364 0
M  V30 28332 H 2753.72 2.65417 1.38542 0
M  V30 28333 H 2751.27 1.27722 0.665059 0
M  V30 28334 H 2753.22 1.97101 3.72464 0
M  V30 28335 H 2751.95 0.870264 3.14792 0
M  V30 28336 H 2750.6 2.83652 2.32243 0
M  V30 28337 H 2750.25 1.95284 4.63544 0
M  V30 28338 H 2749.95 3.7072 4.55895 0
M  V30 28339 H 2751.48 3.09584 5.26298 0
M  V30 28340 H 2752.89 4.53578 3.50628 0
M  V30 28341 H 2751.29 5.17444 3.03928 0
M  V30 28342 H 2752.36 4.50475 1.79443 0
M  V30 28343 N 2753.7 -0.717989 1.40295 0
M  V30 28344 C 2754.95 -1.48002 1.38648 0
M  V30 28345 C 2755.28 -1.94196 -0.012086 0
M  V30 28346 O 2754.55 -1.6799 -0.98028 0
M  V30 28347 C 2754.84 -2.70778 2.37384 0
M  V30 28348 C 2754.69 -2.30494 3.86255 0
M  V30 28349 C 2756.01 -3.72929 2.33692 0
M  V30 28350 H 2753.13 -0.536849 0.504938 0
M  V30 28351 H 2755.77 -0.819619 1.71413 0
M  V30 28352 H 2753.92 -3.27125 2.09574 0
M  V30 28353 H 2755.59 -1.79647 4.24882 0
M  V30 28354 H 2753.84 -1.62523 4.02205 0
M  V30 28355 H 2754.51 -3.1849 4.50853 0
M  V30 28356 H 2756.98 -3.26206 2.58319 0
M  V30 28357 H 2755.86 -4.56477 3.04828 0
M  V30 28358 H 2756.12 -4.21057 1.34772 0
M  V30 28359 N 2755.18 -1.25752 -0.94996 0
M  V30 28360 C 2756.14 -1.06618 -2.02892 0
M  V30 28361 C 2757.14 -0.0174188 -1.60791 0
M  V30 28362 O 2758.33 -0.260033 -1.72248 0
M  V30 28363 C 2755.46 -0.61981 -3.35218 0
M  V30 28364 H 2756.66 -2.02403 -2.21298 0
M  V30 28365 H 2754.21 -1.08225 -1.1277 0
M  V30 28366 H 2754.94 0.340429 -3.22508 0
M  V30 28367 H 2754.73 -1.37698 -3.67126 0
M  V30 28368 H 2756.22 -0.507516 -4.14505 0
M  V30 28369 N 2756.66 1.15326 -1.07413 0
M  V30 28370 C 2757.9 1.86127 -0.797682 0
M  V30 28371 C 2758.23 1.82365 0.676265 0
M  V30 28372 O 2757.49 1.24221 1.51221 0
M  V30 28373 C 2757.79 3.34755 -1.25196 0
M  V30 28374 C 2757.45 3.58711 -2.73198 0
M  V30 28375 C 2756.11 3.64959 -3.13622 0
M  V30 28376 C 2758.47 3.68363 -3.68725 0
M  V30 28377 C 2755.79 3.78369 -4.4839 0
M  V30 28378 C 2758.15 3.83298 -5.03255 0
M  V30 28379 C 2756.81 3.87791 -5.433 0
M  V30 28380 H 2756.08 0.681087 -0.291892 0
M  V30 28381 H 2758.73 1.36289 -1.34527 0
M  V30 28382 H 2757.03 3.86803 -0.62378 0
M  V30 28383 H 2758.73 3.87943 -1.01495 0
M  V30 28384 H 2755.32 3.5449 -2.40904 0
M  V30 28385 H 2759.5 3.62836 -3.3862 0
M  V30 28386 H 2754.76 3.80105 -4.78884 0
M  V30 28387 H 2758.93 3.89708 -5.77149 0
M  V30 28388 H 2756.56 3.97935 -6.47728 0
M  V30 28389 N 2758.13 0.858334 1.32176 0
M  V30 28390 C 2759.08 0.303647 2.28794 0
M  V30 28391 C 2760.05 -0.591426 1.55214 0
M  V30 28392 O 2761.24 -0.525553 1.83419 0
M  V30 28393 C 2758.38 -0.49883 3.41476 0
M  V30 28394 C 2757.49 0.422448 4.2993 0
M  V30 28395 C 2756.62 -0.393018 5.29744 0
M  V30 28396 C 2755.66 0.525425 6.09841 0
M  V30 28397 N 2754.8 -0.253084 7.01644 0
M  V30 28398 H 2759.64 1.13281 2.75629 0
M  V30 28399 H 2757.18 0.570049 1.35605 0
M  V30 28400 H 2759.14 -0.979755 4.05533 0
M  V30 28401 H 2757.77 -1.29279 2.95782 0
M  V30 28402 H 2756.82 1.02178 3.6642 0
M  V30 28403 H 2758.13 1.12717 4.85897 0
M  V30 28404 H 2757.28 -0.936951 5.99421 0
M  V30 28405 H 2756.02 -1.13109 4.74402 0
M  V30 28406 H 2755.03 1.08121 5.39064 0
M  V30 28407 H 2756.25 1.26216 6.67268 0
M  V30 28408 H 2754.2 -0.974181 6.48726 0
M  V30 28409 H 2754.12 0.392531 7.5498 0
M  V30 28410 H 2755.38 -0.778625 7.75602 0
M  V30 28411 N 2759.61 -1.45036 0.616628 0
M  V30 28412 C 2760.86 -2.01384 0.112897 0
M  V30 28413 C 2761.17 -1.48971 -1.26755 0
M  V30 28414 O 2762.38 -1.97354 -1.86451 0
M  V30 28415 C 2760.84 -3.59583 0.15112 0
M  V30 28416 C 2760.44 -4.20992 1.53198 0
M  V30 28417 C 2762.19 -4.2346 -0.2969 0
M  V30 28418 C 2760.1 -5.7137 1.5261 0
M  V30 28419 H 2759.03 -0.75302 0.0384387 0
M  V30 28420 H 2761.68 -1.66411 0.773291 0
M  V30 28421 H 2760.06 -3.91787 -0.576101 0
M  V30 28422 H 2761.23 -4.00348 2.28163 0
M  V30 28423 H 2759.55 -3.69344 1.92286 0
M  V30 28424 H 2762.14 -5.33738 -0.320618 0
M  V30 28425 H 2762.49 -3.94772 -1.32138 0
M  V30 28426 H 2763.02 -3.96006 0.377349 0
M  V30 28427 H 2759.76 -6.04771 2.52848 0
M  V30 28428 H 2759.28 -5.9418 0.819168 0
M  V30 28429 H 2760.96 -6.34738 1.25368 0
M  V30 28430 N 2761.09 -0.356312 -1.53519 0
M  V30 28431 C 2762.02 0.537874 -2.2177 0
M  V30 28432 C 2763 1.0903 -1.20628 0
M  V30 28433 O 2764.19 1.14818 -1.49496 0
M  V30 28434 C 2761.31 1.74121 -2.90516 0
M  V30 28435 C 2760.36 1.31708 -4.05654 0
M  V30 28436 S 2761.19 0.326142 -5.34506 0
M  V30 28437 C 2762.35 1.53602 -6.0676 0
M  V30 28438 H 2762.58 -0.0417934 -2.97271 0
M  V30 28439 H 2760.11 -0.140399 -1.5376 0
M  V30 28440 H 2762.07 2.4315 -3.30739 0
M  V30 28441 H 2760.73 2.29211 -2.14758 0
M  V30 28442 H 2759.93 2.21463 -4.52736 0
M  V30 28443 H 2759.53 0.706119 -3.67274 0
M  V30 28444 H 2761.82 2.46852 -6.30928 0
M  V30 28445 H 2762.76 1.10675 -6.99397 0
M  V30 28446 H 2763.17 1.73786 -5.37083 0
M  V30 28447 N 2762.57 1.57369 -0.0852427 0
M  V30 28448 C 2763.79 1.98747 0.592838 0
M  V30 28449 C 2764.22 0.963717 1.61537 0
M  V30 28450 O 2763.58 -0.0690391 1.81169 0
M  V30 28451 C 2763.62 3.39121 1.22593 0
M  V30 28452 O 2762.73 3.39461 2.34179 0
M  V30 28453 H 2762.07 0.646532 0.151303 0
M  V30 28454 H 2764.6 2.03944 -0.163739 0
M  V30 28455 H 2764.61 3.76601 1.56959 0
M  V30 28456 H 2763.28 4.13158 0.476759 0
M  V30 28457 H 2761.86 3.13767 2.01507 0
M  V30 28458 N 2764.05 -0.188399 1.5647 0
M  V30 28459 C 2765.29 -0.905954 1.80657 0
M  V30 28460 C 2765.62 -1.83512 0.659423 0
M  V30 28461 O 2764.89 -1.93238 -0.321834 0
M  V30 28462 H 2763.47 -0.337526 0.666397 0
M  V30 28463 H 2766.13 -0.192305 1.93949 0
M  V30 28464 H 2765.22 -1.49308 2.74069 0
M  V30 28465 N 2765.53 -1.50848 -0.456355 0
M  V30 28466 C 2766.44 -1.73597 -1.57802 0
M  V30 28467 C 2767.45 -0.619504 -1.62598 0
M  V30 28468 O 2768.63 -0.899564 -1.80194 0
M  V30 28469 C 2765.69 -1.83875 -2.93923 0
M  V30 28470 C 2764.75 -3.07669 -2.99397 0
M  V30 28471 C 2763.99 -3.17448 -4.29025 0
M  V30 28472 O 2764.21 -2.3364 -5.20354 0
M  V30 28473 O 2763.14 -4.10289 -4.40394 0
M  V30 28474 H 2766.97 -2.68708 -1.41526 0
M  V30 28475 H 2764.55 -1.35121 -0.637398 0
M  V30 28476 H 2766.44 -1.92731 -3.74743 0
M  V30 28477 H 2765.11 -0.919494 -3.10366 0
M  V30 28478 H 2764.02 -3.04304 -2.17601 0
M  V30 28479 H 2765.35 -3.99221 -2.87894 0
M  V30 28480 N 2767 0.710538 -1.40674 0
M  V30 28481 C 2768.25 1.47265 -1.39431 0
M  V30 28482 C 2768.58 1.942 0.00178716 0
M  V30 28483 O 2767.86 1.68508 0.971357 0
M  V30 28484 C 2768.14 2.69516 -2.38817 0
M  V30 28485 C 2767.99 2.28442 -3.87471 0
M  V30 28486 C 2769.31 3.71685 -2.35666 0
M  V30 28487 H 2766.43 0.534164 -0.507778 0
M  V30 28488 H 2769.07 0.810517 -1.71845 0
M  V30 28489 H 2767.22 3.26009 -2.11306 0
M  V30 28490 H 2768.9 1.77391 -4.25829 0
M  V30 28491 H 2767.14 1.60388 -4.03061 0
M  V30 28492 H 2767.81 3.16095 -4.52535 0
M  V30 28493 H 2770.29 3.24831 -2.60046 0
M  V30 28494 H 2769.16 4.54854 -3.07245 0
M  V30 28495 H 2769.42 4.20336 -1.37003 0
M  V30 28496 N 2768.48 1.26254 0.943277 0
M  V30 28497 C 2769.89 1.10616 1.50403 0
M  V30 28498 C 2770.24 -0.314256 1.93667 0
M  V30 28499 O 2769.37 -1.20552 1.79711 0
M  V30 28500 C 2769.96 2.00187 2.73333 0
M  V30 28501 C 2768.52 1.88701 3.25682 0
M  V30 28502 C 2767.67 1.93662 1.9847 0
M  V30 28503 H 2770.62 1.39374 0.758982 0
M  V30 28504 H 2770.64 1.54853 3.47564 0
M  V30 28505 H 2770.15 3.03559 2.41813 0
M  V30 28506 H 2768.25 0.882553 3.61997 0
M  V30 28507 H 2768.37 2.74121 3.9293 0
M  V30 28508 H 2766.73 1.37688 2.14276 0
M  V30 28509 H 2767.51 2.9866 1.69284 0
M  V30 28510 N 2769.96 -1.14755 1.08024 0
M  V30 28511 C 2771.18 -1.90112 0.828983 0
M  V30 28512 C 2771.61 -1.7784 -0.612741 0
M  V30 28513 O 2770.97 -1.11586 -1.42893 0
M  V30 28514 C 2771.02 -3.38216 1.25068 0
M  V30 28515 O 2770.12 -4.10454 0.400191 0
M  V30 28516 H 2769.46 -0.591642 0.301422 0
M  V30 28517 H 2771.99 -1.45281 1.44064 0
M  V30 28518 H 2772 -3.89023 1.22984 0
M  V30 28519 H 2770.68 -3.46467 2.30073 0
M  V30 28520 H 2769.25 -3.69744 0.484117 0
M  V30 28521 N 2771.44 -0.865331 -1.31719 0
M  V30 28522 C 2772.67 -0.488286 -2.01056 0
M  V30 28523 C 2773.08 0.917971 -1.64981 0
M  V30 28524 O 2772.44 1.60067 -0.876625 0
M  V30 28525 C 2772.49 -0.630286 -3.55963 0
M  V30 28526 O 2772.21 -1.98116 -3.90745 0
M  V30 28527 C 2773.71 -0.253645 -4.42574 0
M  V30 28528 H 2770.93 -0.190748 -0.643317 0
M  V30 28529 H 2773.47 -1.16522 -1.68056 0
M  V30 28530 H 2771.63 -0.000963517 -3.874 0
M  V30 28531 H 2772.04 -1.98559 -4.85463 0
M  V30 28532 H 2773.52 -0.403971 -5.5052 0
M  V30 28533 H 2773.99 0.806819 -4.31726 0
M  V30 28534 H 2774.6 -0.858478 -4.16546 0
M  V30 28535 N 2772.92 1.44707 -0.624311 0
M  V30 28536 C 2773.83 2.34442 0.0860671 0
M  V30 28537 C 2774.84 1.52222 0.842883 0
M  V30 28538 O 2776.02 1.84972 0.79669 0
M  V30 28539 C 2773.08 3.301 1.05993 0
M  V30 28540 C 2772.14 4.28228 0.303241 0
M  V30 28541 C 2771.38 5.19316 1.23072 0
M  V30 28542 O 2771.6 5.14186 2.4692 0
M  V30 28543 O 2770.53 5.97593 0.718725 0
M  V30 28544 H 2774.36 2.96623 -0.651808 0
M  V30 28545 H 2771.94 1.44367 -0.384519 0
M  V30 28546 H 2773.83 3.89 1.6204 0
M  V30 28547 H 2772.5 2.70462 1.77854 0
M  V30 28548 H 2771.41 3.72894 -0.300098 0
M  V30 28549 H 2772.74 4.90768 -0.375209 0
M  V30 28550 N 2774.39 0.364449 1.53328 0
M  V30 28551 C 2775.67 -0.281928 1.93558 0
M  V30 28552 C 2776.05 -1.66488 1.29788 0
M  V30 28553 O 2775.4 -2.23893 0.456552 0
M  V30 28554 C 2775.61 -0.33327 3.47405 0
M  V30 28555 C 2776.96 -0.574157 4.207 0
M  V30 28556 O 2777.98 -0.414525 3.5378 0
M  V30 28557 O 2776.84 -0.884907 5.39288 0
M  V30 28558 H 2773.93 -0.168867 0.809576 0
M  V30 28559 H 2776.48 0.41715 1.64493 0
M  V30 28560 H 2775.25 0.636394 3.8609 0
M  V30 28561 H 2774.87 -1.07829 3.82699 0
M  V30 28562 N 2775.87 -1.57322 0.0935872 0
M  V30 28563 C 2776.8 -2.16966 -0.863024 0
M  V30 28564 C 2777.78 -1.10258 -1.29527 0
M  V30 28565 O 2778.97 -1.38389 -1.36243 0
M  V30 28566 C 2776.1 -2.74878 -2.12272 0
M  V30 28567 C 2775.05 -3.86945 -1.82915 0
M  V30 28568 C 2774.38 -4.31553 -3.15699 0
M  V30 28569 C 2775.68 -5.1021 -1.11728 0
M  V30 28570 H 2777.37 -2.97153 -0.366093 0
M  V30 28571 H 2774.92 -1.42937 -0.174647 0
M  V30 28572 H 2776.87 -3.15255 -2.79629 0
M  V30 28573 H 2775.59 -1.91943 -2.64245 0
M  V30 28574 H 2774.25 -3.47105 -1.17955 0
M  V30 28575 H 2773.9 -3.4551 -3.65557 0
M  V30 28576 H 2773.6 -5.07109 -2.9684 0
M  V30 28577 H 2775.13 -4.74562 -3.84217 0
M  V30 28578 H 2776.54 -5.47765 -1.69193 0
M  V30 28579 H 2774.94 -5.91185 -1.03053 0
M  V30 28580 H 2776.01 -4.84797 -0.0997966 0
M  V30 28581 N 2777.35 0.180099 -1.56568 0
M  V30 28582 C 2778.6 0.899465 -1.81762 0
M  V30 28583 C 2778.93 1.82275 -0.670048 0
M  V30 28584 O 2778.2 1.91705 0.328541 0
M  V30 28585 C 2778.49 1.70274 -3.17299 0
M  V30 28586 C 2778.34 0.803177 -4.42571 0
M  V30 28587 C 2779.66 2.67227 -3.49683 0
M  V30 28588 H 2776.78 0.325555 -0.661198 0
M  V30 28589 H 2779.42 0.166087 -1.89273 0
M  V30 28590 H 2777.57 2.32797 -3.11027 0
M  V30 28591 H 2779.24 0.191504 -4.60902 0
M  V30 28592 H 2777.48 0.11072 -4.33659 0
M  V30 28593 H 2778.16 1.40054 -5.33937 0
M  V30 28594 H 2780.63 2.14833 -3.56351 0
M  V30 28595 H 2779.51 3.20503 -4.45611 0
M  V30 28596 H 2779.77 3.47002 -2.73938 0
M  V30 28597 N 2778.83 1.51088 0.448349 0
M  V30 28598 C 2779.78 1.72164 1.56404 0
M  V30 28599 C 2780.77 0.587748 1.58877 0
M  V30 28600 O 2781.98 0.768851 1.62753 0
M  V30 28601 H 2778.35 0.543796 0.519413 0
M  V30 28602 H 2780.32 2.65709 1.35798 0
M  V30 28603 C 2779.07 1.85378 2.9416 0
M  V30 28604 H 2778.39 2.72029 2.92985 0
M  V30 28605 H 2779.83 2.04142 3.71621 0
M  V30 28606 C 2778.29 0.610861 3.31316 0
M  V30 28607 O 2778.82 -0.239566 4.00985 0
M  V30 28608 N 2777.03 0.458177 2.86965 0
M  V30 28609 H 2776.58 1.15128 2.30441 0
M  V30 28610 H 2776.53 -0.372234 3.12189 0
M  V30 28611 N 2780.31 -0.703068 1.41049 0
M  V30 28612 C 2781.24 -1.82967 1.4507 0
M  V30 28613 C 2782.22 -1.67248 0.310189 0
M  V30 28614 O 2783.4 -1.87092 0.52058 0
M  V30 28615 C 2780.53 -3.21038 1.32484 0
M  V30 28616 C 2779.49 -3.5145 2.44268 0
M  V30 28617 C 2778.81 -4.88798 2.16751 0
M  V30 28618 C 2780.11 -3.51182 3.86612 0
M  V30 28619 H 2781.81 -1.79858 2.39356 0
M  V30 28620 H 2779.35 -0.863899 1.15208 0
M  V30 28621 H 2781.31 -3.99557 1.33911 0
M  V30 28622 H 2780.03 -3.24754 0.346792 0
M  V30 28623 H 2778.69 -2.75277 2.42111 0
M  V30 28624 H 2778.34 -4.8913 1.17307 0
M  V30 28625 H 2778.04 -5.10111 2.91652 0
M  V30 28626 H 2779.56 -5.69635 2.19882 0
M  V30 28627 H 2780.97 -4.19718 3.90525 0
M  V30 28628 H 2779.37 -3.84025 4.61134 0
M  V30 28629 H 2780.44 -2.50308 4.153 0
M  V30 28630 N 2781.78 -1.26752 -0.936569 0
M  V30 28631 C 2782.71 -1.11216 -2.05313 0
M  V30 28632 C 2783.7 -0.0160561 -1.70092 0
M  V30 28633 O 2784.88 -0.188928 -1.93279 0
M  V30 28634 C 2782.01 -0.74923 -3.39122 0
M  V30 28635 C 2780.96 -1.79758 -3.88421 0
M  V30 28636 C 2780.29 -1.28885 -5.18934 0
M  V30 28637 C 2781.59 -3.2 -4.12792 0
M  V30 28638 H 2783.28 -2.04616 -2.18569 0
M  V30 28639 H 2780.83 -0.985178 -1.05025 0
M  V30 28640 H 2782.78 -0.627396 -4.16703 0
M  V30 28641 H 2781.51 0.220485 -3.25855 0
M  V30 28642 H 2780.17 -1.90816 -3.13025 0
M  V30 28643 H 2779.81 -0.308845 -5.02051 0
M  V30 28644 H 2779.51 -1.98967 -5.52889 0
M  V30 28645 H 2781.04 -1.17978 -5.99094 0
M  V30 28646 H 2782.45 -3.11992 -4.80972 0
M  V30 28647 H 2780.85 -3.87713 -4.58037 0
M  V30 28648 H 2781.92 -3.65713 -3.18405 0
M  V30 28649 N 2783.26 1.1418 -1.08631 0
M  V30 28650 C 2784.67 1.66835 -0.838032 0
M  V30 28651 C 2785.02 1.85645 0.634852 0
M  V30 28652 O 2784.15 1.56928 1.49005 0
M  V30 28653 C 2784.74 3.03055 -1.5147 0
M  V30 28654 C 2783.3 3.52734 -1.31361 0
M  V30 28655 C 2782.45 2.28159 -1.57603 0
M  V30 28656 H 2785.4 0.982143 -1.24658 0
M  V30 28657 H 2785.42 3.68624 -0.943199 0
M  V30 28658 H 2784.93 2.89333 -2.58666 0
M  V30 28659 H 2783.04 3.71675 -0.262449 0
M  V30 28660 H 2783.15 4.33365 -2.04282 0
M  V30 28661 H 2781.51 2.34346 -0.9977 0
M  V30 28662 H 2782.3 2.17011 -2.6601 0
M  V30 28663 N 2784.74 0.872304 1.31258 0
M  V30 28664 C 2785.7 0.334696 2.26743 0
M  V30 28665 C 2786.7 -0.515655 1.52308 0
M  V30 28666 O 2787.89 -0.324626 1.71149 0
M  V30 28667 C 2785.03 -0.524423 3.36842 0
M  V30 28668 H 2786.22 1.17767 2.7581 0
M  V30 28669 H 2783.77 0.648089 1.4223 0
M  V30 28670 H 2784.51 -1.3885 2.93072 0
M  V30 28671 H 2784.29 0.0844988 3.92009 0
M  V30 28672 H 2785.78 -0.892767 4.07945 0
M  V30 28673 N 2786.22 -1.44374 0.631976 0
M  V30 28674 C 2787.47 -2.01253 0.13425 0
M  V30 28675 C 2787.78 -1.50307 -1.25168 0
M  V30 28676 O 2788.99 -1.9932 -1.84347 0
M  V30 28677 C 2787.44 -3.59402 0.18925 0
M  V30 28678 C 2787.05 -4.19344 1.57655 0
M  V30 28679 C 2788.79 -4.23752 -0.25197 0
M  V30 28680 C 2786.7 -5.6972 1.58661 0
M  V30 28681 H 2785.63 -0.75257 0.0464233 0
M  V30 28682 H 2788.28 -1.65581 0.790898 0
M  V30 28683 H 2786.66 -3.92376 -0.534515 0
M  V30 28684 H 2787.84 -3.97905 2.32396 0
M  V30 28685 H 2786.15 -3.67284 1.96192 0
M  V30 28686 H 2788.75 -5.34048 -0.26399 0
M  V30 28687 H 2789.09 -3.96152 -1.27944 0
M  V30 28688 H 2789.63 -3.95584 0.419329 0
M  V30 28689 H 2786.37 -6.02055 2.59248 0
M  V30 28690 H 2785.89 -5.93278 0.882143 0
M  V30 28691 H 2787.56 -6.33372 1.32093 0
M  V30 28692 N 2787.7 -0.372575 -1.53133 0
M  V30 28693 C 2788.63 0.462372 -2.28876 0
M  V30 28694 C 2789.61 1.07793 -1.31585 0
M  V30 28695 O 2790.79 1.09387 -1.60462 0
M  V30 28696 C 2787.92 1.59863 -3.0832 0
M  V30 28697 C 2786.88 1.10996 -4.13357 0
M  V30 28698 C 2786.2 2.337 -4.80925 0
M  V30 28699 C 2787.5 0.189738 -5.21955 0
M  V30 28700 H 2789.2 -0.169563 -2.98919 0
M  V30 28701 H 2786.74 -0.0829911 -1.43761 0
M  V30 28702 H 2788.7 2.18942 -3.60059 0
M  V30 28703 H 2787.42 2.2579 -2.3598 0
M  V30 28704 H 2786.08 0.541805 -3.62574 0
M  V30 28705 H 2785.73 2.98099 -4.05149 0
M  V30 28706 H 2785.43 2.01672 -5.51908 0
M  V30 28707 H 2786.95 2.93453 -5.35461 0
M  V30 28708 H 2788.36 0.688219 -5.69154 0
M  V30 28709 H 2786.76 -0.0399942 -6.00087 0
M  V30 28710 H 2787.83 -0.766141 -4.78809 0
M  V30 28711 N 2789.17 1.5727 -0.101929 0
M  V30 28712 C 2790.4 1.99364 0.571724 0
M  V30 28713 C 2790.82 0.980796 1.60505 0
M  V30 28714 O 2790.18 -0.0498199 1.81232 0
M  V30 28715 C 2790.23 3.40402 1.1899 0
M  V30 28716 O 2789.33 3.41926 2.30566 0
M  V30 28717 H 2788.68 0.6481 0.144437 0
M  V30 28718 H 2791.21 2.03759 -0.185361 0
M  V30 28719 H 2791.22 3.78244 1.52955 0
M  V30 28720 H 2789.89 4.13641 0.432911 0
M  V30 28721 H 2788.47 3.15886 1.98167 0
M  V30 28722 N 2790.65 -0.171793 1.56661 0
M  V30 28723 C 2792.06 -0.734299 1.71654 0
M  V30 28724 C 2792.41 -1.82811 0.712367 0
M  V30 28725 O 2791.54 -2.16031 -0.126363 0
M  V30 28726 C 2792.13 -1.33874 3.11228 0
M  V30 28727 C 2790.69 -1.84808 3.27907 0
M  V30 28728 C 2789.84 -0.72687 2.67604 0
M  V30 28729 H 2792.79 0.0535944 1.58609 0
M  V30 28730 H 2792.81 -2.20843 3.09853 0
M  V30 28731 H 2792.32 -0.542423 3.84291 0
M  V30 28732 H 2790.43 -2.67085 2.59801 0
M  V30 28733 H 2790.54 -1.99384 4.35641 0
M  V30 28734 H 2788.9 -1.14719 2.27402 0
M  V30 28735 H 2789.69 0.0575937 3.43252 0
M  V30 28736 N 2792.13 -1.51324 -0.44033 0
M  V30 28737 C 2793.38 -1.6352 -1.18767 0
M  V30 28738 C 2793.7 -0.352234 -1.91792 0
M  V30 28739 O 2792.97 0.631779 -1.85433 0
M  V30 28740 H 2791.55 -0.602642 -0.441398 0
M  V30 28741 H 2794.21 -1.8824 -0.505129 0
M  V30 28742 H 2793.31 -2.46141 -1.91887 0
M  V30 28743 N 2793.61 0.695578 -1.41419 0
M  V30 28744 C 2794.57 1.79126 -1.42991 0
M  V30 28745 C 2795.57 1.57573 -0.320542 0
M  V30 28746 O 2796.76 1.64246 -0.580419 0
M  V30 28747 C 2793.89 3.17498 -1.24128 0
M  V30 28748 H 2795.09 1.79125 -2.40529 0
M  V30 28749 H 2792.64 0.903203 -1.27562 0
M  V30 28750 H 2793.37 3.23138 -0.274309 0
M  V30 28751 H 2793.16 3.34544 -2.04506 0
M  V30 28752 H 2794.65 3.97479 -1.28063 0
M  V30 28753 N 2795.09 1.27247 0.929833 0
M  V30 28754 C 2796.02 1.12303 2.0472 0
M  V30 28755 C 2797 0.0250762 1.70082 0
M  V30 28756 O 2798.18 0.199175 1.93176 0
M  V30 28757 C 2795.31 0.767204 3.3872 0
M  V30 28758 C 2794.27 1.81815 3.87463 0
M  V30 28759 C 2793.59 1.31635 5.18243 0
M  V30 28760 C 2794.89 3.22184 4.1109 0
M  V30 28761 H 2796.59 2.05773 2.17481 0
M  V30 28762 H 2794.13 0.990734 1.04501 0
M  V30 28763 H 2796.09 0.649486 4.16365 0
M  V30 28764 H 2794.81 -0.203201 3.25967 0
M  V30 28765 H 2793.47 1.92474 3.12009 0
M  V30 28766 H 2793.12 0.335466 5.0188 0
M  V30 28767 H 2792.82 2.01897 5.51826 0
M  V30 28768 H 2794.34 1.21153 5.9846 0
M  V30 28769 H 2795.76 3.14538 4.79311 0
M  V30 28770 H 2794.15 3.90137 4.55975 0
M  V30 28771 H 2795.22 3.67396 3.16462 0
M  V30 28772 N 2796.57 -1.13603 1.09235 0
M  V30 28773 C 2797.81 -1.85108 0.828417 0
M  V30 28774 C 2798.14 -1.83199 -0.644337 0
M  V30 28775 O 2797.42 -1.26869 -1.47426 0
M  V30 28776 C 2797.7 -3.3336 1.36172 0
M  V30 28777 C 2797.56 -3.43794 2.90044 0
M  V30 28778 C 2798.87 -4.2873 0.993895 0
M  V30 28779 H 2795.99 -0.672103 0.302402 0
M  V30 28780 H 2798.64 -1.33352 1.35341 0
M  V30 28781 H 2796.79 -3.77567 0.915166 0
M  V30 28782 H 2798.46 -3.08313 3.43134 0
M  V30 28783 H 2796.7 -2.84733 3.27276 0
M  V30 28784 H 2797.37 -4.48039 3.22436 0
M  V30 28785 H 2799.85 -3.92585 1.379 0
M  V30 28786 H 2798.72 -5.309 1.39413 0
M  V30 28787 H 2798.98 -4.41991 -0.0981429 0
M  V30 28788 N 2798.04 -0.879253 -1.30793 0
M  V30 28789 C 2799.29 -0.495553 -1.96652 0
M  V30 28790 C 2799.62 0.951673 -1.69283 0
M  V30 28791 O 2798.9 1.67158 -0.994403 0
M  V30 28792 C 2799.18 -0.764236 -3.51897 0
M  V30 28793 C 2799.03 -2.26167 -3.88804 0
M  V30 28794 C 2800.35 -0.236902 -4.39462 0
M  V30 28795 H 2797.47 -0.181519 -0.714297 0
M  V30 28796 H 2800.11 -1.1022 -1.54763 0
M  V30 28797 H 2798.26 -0.247909 -3.87708 0
M  V30 28798 H 2799.94 -2.84597 -3.63046 0
M  V30 28799 H 2798.18 -2.73059 -3.37078 0
M  V30 28800 H 2798.85 -2.40029 -4.97082 0
M  V30 28801 H 2801.33 -0.678755 -4.10527 0
M  V30 28802 H 2800.2 -0.454272 -5.47017 0
M  V30 28803 H 2800.46 0.861606 -4.33623 0
M  V30 28804 N 2799.52 1.44037 -0.639624 0
M  V30 28805 C 2800.77 2.01563 -0.147224 0
M  V30 28806 C 2801.09 1.5063 1.23837 0
M  V30 28807 O 2800.36 0.713348 1.8245 0
M  V30 28808 H 2798.94 0.745227 -0.0514362 0
M  V30 28809 H 2801.6 1.76426 -0.828236 0
M  V30 28810 H 2800.7 3.11864 -0.121412 0
M  V30 28811 N 2801 0.380691 1.52933 0
M  V30 28812 C 2802.25 -0.204545 2.01766 0
M  V30 28813 C 2802.58 -1.47177 1.26699 0
M  V30 28814 O 2801.85 -1.91045 0.36497 0
M  V30 28815 C 2802.14 -0.481206 3.5687 0
M  V30 28816 C 2801.99 0.800707 4.42616 0
M  V30 28817 C 2803.31 -1.27547 4.21212 0
M  V30 28818 H 2800.43 -0.0728674 0.733389 0
M  V30 28819 H 2803.07 0.508562 1.83067 0
M  V30 28820 H 2801.22 -1.08869 3.72934 0
M  V30 28821 H 2802.89 1.43781 4.3832 0
M  V30 28822 H 2801.13 1.41787 4.09974 0
M  V30 28823 H 2801.81 0.561888 5.49133 0
M  V30 28824 H 2804.28 -0.761442 4.09074 0
M  V30 28825 H 2803.16 -1.43779 5.29735 0
M  V30 28826 H 2803.42 -2.28827 3.78273 0
M  V30 28827 N 2802.48 -1.57214 0.110268 0
M  V30 28828 C 2803.72 -1.95181 -0.55065 0
M  V30 28829 C 2804.06 -0.993151 -1.66884 0
M  V30 28830 O 2803.33 -0.0288249 -1.94479 0
M  V30 28831 C 2803.61 -3.43157 -1.09157 0
M  V30 28832 C 2803.47 -4.49794 0.0225989 0
M  V30 28833 C 2804.79 -3.92782 -1.98521 0
M  V30 28834 H 2801.91 -0.709711 -0.198694 0
M  V30 28835 H 2804.55 -1.89106 0.184057 0
M  V30 28836 H 2802.7 -3.48465 -1.71769 0
M  V30 28837 H 2804.37 -4.5659 0.657524 0
M  V30 28838 H 2802.61 -4.28326 0.686943 0
M  V30 28839 H 2803.28 -5.50571 -0.396963 0
M  V30 28840 H 2805.76 -3.89723 -1.45793 0
M  V30 28841 H 2804.64 -4.96857 -2.33289 0
M  V30 28842 H 2804.9 -3.32963 -2.90841 0
M  V30 28843 N 2803.96 0.163482 -1.5675 0
M  V30 28844 C 2805.2 0.885238 -1.84236 0
M  V30 28845 C 2805.56 1.79085 -0.692291 0
M  V30 28846 O 2806.76 2.5508 -0.847792 0
M  V30 28847 C 2805.03 1.65331 -3.1686 0
M  V30 28848 S 2806.59 2.42276 -3.65852 0
M  V30 28849 H 2803.41 0.296343 -0.646299 0
M  V30 28850 H 2806.01 0.146331 -1.94952 0
M  V30 28851 H 2804.71 0.979196 -3.98547 0
M  V30 28852 H 2804.25 2.43345 -3.09107 0
M  V30 28853 H 2806.26 3.67138 -3.33803 0
M  V30 28854 N 2805.43 1.51555 0.432299 0
M  V30 28855 C 2806.4 1.72636 1.50762 0
M  V30 28856 C 2807.4 0.59634 1.49333 0
M  V30 28857 O 2808.59 0.863952 1.51266 0
M  V30 28858 C 2805.72 1.78746 2.90281 0
M  V30 28859 H 2806.91 2.68611 1.33372 0
M  V30 28860 H 2804.46 1.41621 0.661304 0
M  V30 28861 H 2805.2 0.846032 3.1307 0
M  V30 28862 H 2804.98 2.60875 2.92723 0
M  V30 28863 H 2806.47 1.96877 3.68279 0
M  V30 28864 N 2806.91 -0.688069 1.41786 0
M  V30 28865 C 2807.87 -1.78365 1.43939 0
M  V30 28866 C 2808.87 -1.57401 0.328894 0
M  V30 28867 O 2810.06 -1.63936 0.589121 0
M  V30 28868 C 2807.2 -3.16835 1.2581 0
M  V30 28869 H 2808.39 -1.77847 2.41475 0
M  V30 28870 H 2805.94 -0.896425 1.28039 0
M  V30 28871 H 2806.68 -3.22988 0.291442 0
M  V30 28872 H 2806.46 -3.33455 2.06278 0
M  V30 28873 H 2807.95 -3.96794 1.30169 0
M  V30 28874 N 2808.39 -1.27739 -0.923072 0
M  V30 28875 C 2809.64 -1.13729 -1.66579 0
M  V30 28876 C 2809.95 0.315399 -1.9304 0
M  V30 28877 O 2811.16 0.576464 -2.6531 0
M  V30 28878 C 2809.61 -1.9875 -3.00044 0
M  V30 28879 C 2809.22 -3.48704 -2.81264 0
M  V30 28880 C 2810.97 -1.93402 -3.77883 0
M  V30 28881 C 2808.87 -4.25908 -4.10313 0
M  V30 28882 H 2807.8 -0.422028 -0.624827 0
M  V30 28883 H 2810.45 -1.52196 -1.02511 0
M  V30 28884 H 2808.84 -1.53132 -3.65194 0
M  V30 28885 H 2810.01 -4.02217 -2.24852 0
M  V30 28886 H 2808.32 -3.5548 -2.16848 0
M  V30 28887 H 2810.92 -2.48357 -4.73522 0
M  V30 28888 H 2811.26 -0.908676 -4.06262 0
M  V30 28889 H 2811.8 -2.3694 -3.19537 0
M  V30 28890 H 2808.54 -5.28985 -3.87111 0
M  V30 28891 H 2808.06 -3.77171 -4.66371 0
M  V30 28892 H 2809.74 -4.3533 -4.78641 0
M  V30 28893 N 2809.87 1.13022 -1.09836 0
M  V30 28894 C 2810.8 2.20665 -0.76349 0
M  V30 28895 C 2811.78 1.6809 0.260748 0
M  V30 28896 O 2812.96 1.93778 0.127881 0
M  V30 28897 C 2810.09 3.46792 -0.187805 0
M  V30 28898 C 2809.05 4.12482 -1.14203 0
M  V30 28899 C 2808.37 5.32986 -0.427849 0
M  V30 28900 C 2809.67 4.59334 -2.48615 0
M  V30 28901 H 2811.37 2.48933 -1.66351 0
M  V30 28902 H 2808.91 1.19647 -0.801282 0
M  V30 28903 H 2810.87 4.21359 0.0585635 0
M  V30 28904 H 2809.59 3.17932 0.747429 0
M  V30 28905 H 2808.25 3.39888 -1.37375 0
M  V30 28906 H 2807.9 5.00391 0.511659 0
M  V30 28907 H 2807.6 5.77884 -1.06413 0
M  V30 28908 H 2809.12 6.10305 -0.189879 0
M  V30 28909 H 2810.54 5.25304 -2.29628 0
M  V30 28910 H 2808.93 5.14988 -3.08071 0
M  V30 28911 H 2810 3.73637 -3.09069 0
M  V30 28912 N 2811.35 0.886177 1.30325 0
M  V30 28913 C 2812.76 0.580349 1.48675 0
M  V30 28914 C 2812.96 -0.881608 1.8119 0
M  V30 28915 O 2812.02 -1.66275 1.90024 0
M  V30 28916 C 2813.33 1.49453 2.6093 0
M  V30 28917 C 2814.88 1.49829 2.7481 0
M  V30 28918 C 2815.35 2.39843 3.90179 0
M  V30 28919 N 2816.85 2.37813 3.97491 0
M  V30 28920 C 2817.58 3.04173 4.86072 0
M  V30 28921 N 2817.08 3.79763 5.79441 0
M  V30 28922 N 2818.87 2.93399 4.79451 0
M  V30 28923 H 2811.02 1.83192 1.07492 0
M  V30 28924 H 2813.28 0.784213 0.532647 0
M  V30 28925 H 2812.99 2.53555 2.43727 0
M  V30 28926 H 2812.86 1.205 3.57435 0
M  V30 28927 H 2815.25 0.464782 2.91417 0
M  V30 28928 H 2815.33 1.82814 1.78921 0
M  V30 28929 H 2814.98 3.4328 3.74328 0
M  V30 28930 H 2814.91 2.04174 4.85408 0
M  V30 28931 H 2817.4 1.82883 3.30699 0
M  V30 28932 H 2817.71 4.27486 6.43798 0
M  V30 28933 H 2816.05 3.8387 5.79369 0
M  V30 28934 H 2819.25 2.33872 4.05489 0
M  V30 28935 H 2819.42 3.45393 5.48277 0
M  V30 28936 N 2812.82 -1.43695 0.647253 0
M  V30 28937 C 2814.24 -1.56475 0.314283 0
M  V30 28938 C 2814.44 -1.63198 -1.18189 0
M  V30 28939 O 2813.5 -1.58379 -1.96652 0
M  V30 28940 C 2814.81 -2.82858 1.02039 0
M  V30 28941 C 2816.36 -2.96593 1.00007 0
M  V30 28942 C 2816.83 -4.258 1.68696 0
M  V30 28943 N 2818.32 -4.32651 1.65432 0
M  V30 28944 C 2819.06 -5.3138 2.1546 0
M  V30 28945 N 2818.55 -6.36422 2.7375 0
M  V30 28946 N 2820.35 -5.22994 2.05994 0
M  V30 28947 H 2812.5 -1.37575 1.61824 0
M  V30 28948 H 2814.76 -0.660332 0.680195 0
M  V30 28949 H 2814.47 -2.83931 2.07547 0
M  V30 28950 H 2814.34 -3.72896 0.568211 0
M  V30 28951 H 2816.73 -2.95063 -0.0465801 0
M  V30 28952 H 2816.81 -2.0786 1.4909 0
M  V30 28953 H 2816.45 -4.2809 2.73315 0
M  V30 28954 H 2816.38 -5.13419 1.17085 0
M  V30 28955 H 2818.87 -3.5736 1.2289 0
M  V30 28956 H 2819.19 -7.08067 3.09614 0
M  V30 28957 H 2817.53 -6.37062 2.77808 0
M  V30 28958 H 2820.72 -4.39846 1.60165 0
M  V30 28959 H 2820.9 -5.9978 2.45292 0
M  V30 28960 N 2814.3 -0.388796 -1.52729 0
M  V30 28961 C 2815.25 0.463528 -2.23238 0
M  V30 28962 C 2816.24 1.03005 -1.23608 0
M  V30 28963 O 2817.43 0.956235 -1.48947 0
M  V30 28964 C 2814.56 1.59055 -3.04231 0
M  V30 28965 C 2813.64 1.03579 -4.11257 0
M  V30 28966 N 2814.03 0.205949 -5.05381 0
M  V30 28967 C 2812.33 1.30834 -4.26378 0
M  V30 28968 C 2813.03 -0.100461 -5.81613 0
M  V30 28969 N 2812.01 0.503352 -5.41265 0
M  V30 28970 H 2815.81 -0.17703 -2.93366 0
M  V30 28971 H 2813.33 -0.198074 -1.61188 0
M  V30 28972 H 2815.32 2.21356 -3.53281 0
M  V30 28973 H 2813.98 2.23393 -2.35638 0
M  V30 28974 H 2814.99 -0.15675 -5.17663 0
M  V30 28975 H 2811.67 1.9528 -3.69015 0
M  V30 28976 H 2813.06 -0.772793 -6.67441 0
M  V30 28977 N 2815.78 1.57153 -0.118604 0
M  V30 28978 C 2817.03 1.9547 0.540291 0
M  V30 28979 C 2817.36 1.00199 1.66355 0
M  V30 28980 O 2816.63 0.0391382 1.94461 0
M  V30 28981 C 2816.92 3.43731 1.07336 0
M  V30 28982 C 2816.77 4.49776 -0.0464523 0
M  V30 28983 C 2818.09 3.93829 1.96435 0
M  V30 28984 H 2815.21 0.710755 0.194927 0
M  V30 28985 H 2817.85 1.89006 -0.194083 0
M  V30 28986 H 2816 3.49371 1.69918 0
M  V30 28987 H 2817.67 4.56235 -0.681729 0
M  V30 28988 H 2815.92 4.27956 -0.709649 0
M  V30 28989 H 2816.59 5.50774 0.36776 0
M  V30 28990 H 2819.06 3.9049 1.43724 0
M  V30 28991 H 2817.94 4.98088 2.30651 0
M  V30 28992 H 2818.2 3.345 2.89071 0
M  V30 28993 N 2817.26 -0.155167 1.56834 0
M  V30 28994 C 2818.51 -0.86743 1.82538 0
M  V30 28995 C 2818.83 -1.82072 0.6982 0
M  V30 28996 O 2818.1 -1.93877 -0.280773 0
M  V30 28997 H 2816.68 -0.323315 0.673407 0
M  V30 28998 H 2819.34 -0.151122 1.94313 0
M  V30 28999 H 2818.44 -1.43461 2.77174 0
M  V30 29000 N 2818.74 -1.51782 -0.424256 0
M  V30 29001 C 2820.15 -1.57428 -1.00365 0
M  V30 29002 C 2820.5 -0.405614 -1.91961 0
M  V30 29003 O 2819.62 0.475972 -2.11101 0
M  V30 29004 C 2820.22 -2.85316 -1.82702 0
M  V30 29005 C 2818.78 -2.93491 -2.35669 0
M  V30 29006 C 2817.92 -2.52222 -1.15235 0
M  V30 29007 H 2820.88 -1.5737 -0.205037 0
M  V30 29008 H 2820.9 -2.69817 -2.68289 0
M  V30 29009 H 2820.41 -3.70355 -1.16011 0
M  V30 29010 H 2818.51 -2.12912 -3.05777 0
M  V30 29011 H 2818.62 -3.9742 -2.67571 0
M  V30 29012 H 2816.99 -2.05721 -1.5017 0
M  V30 29013 H 2817.77 -3.3962 -0.501341 0
M  V30 29014 N 2820.21 0.68054 -1.42149 0
M  V30 29015 C 2821.46 1.43776 -1.42031 0
M  V30 29016 C 2821.78 1.94967 -0.035669 0
M  V30 29017 O 2821.05 1.72691 0.924906 0
M  V30 29018 H 2819.63 0.533519 -0.522844 0
M  V30 29019 H 2822.3 0.804507 -1.77521 0
M  V30 29020 H 2821.39 2.29359 -2.11662 0
M  V30 29021 N 2821.69 1.28226 0.916285 0
M  V30 29022 C 2822.6 1.13778 2.05163 0
M  V30 29023 C 2823.62 0.0649724 1.73879 0
M  V30 29024 O 2824.79 0.273757 1.99531 0
M  V30 29025 C 2821.86 0.798326 3.37384 0
M  V30 29026 C 2820.92 1.95323 3.82292 0
M  V30 29027 C 2820.15 1.62987 5.08204 0
M  V30 29028 O 2820.38 0.543048 5.67809 0
M  V30 29029 O 2819.31 2.4727 5.48763 0
M  V30 29030 H 2823.14 2.09082 2.20269 0
M  V30 29031 H 2820.72 1.07521 1.03728 0
M  V30 29032 H 2822.6 0.622853 4.16772 0
M  V30 29033 H 2821.28 -0.125082 3.23458 0
M  V30 29034 H 2820.19 2.18384 3.03742 0
M  V30 29035 H 2821.52 2.85725 4.00777 0
M  V30 29036 N 2823.17 -1.12438 1.10433 0
M  V30 29037 C 2824.42 -1.83583 0.845077 0
M  V30 29038 C 2824.74 -1.84504 -0.631136 0
M  V30 29039 O 2824.01 -1.30815 -1.45823 0
M  V30 29040 H 2822.59 -0.679803 0.30964 0
M  V30 29041 H 2825.25 -1.3615 1.3946 0
M  V30 29042 H 2824.35 -2.87778 1.20791 0
M  V30 29043 N 2824.65 -0.893076 -1.29853 0
M  V30 29044 C 2825.61 -0.370727 -2.26182 0
M  V30 29045 C 2826.61 0.491358 -1.53109 0
M  V30 29046 O 2827.8 0.297356 -1.71643 0
M  V30 29047 C 2824.93 0.470768 -3.37634 0
M  V30 29048 H 2826.13 -1.2214 -2.73901 0
M  V30 29049 H 2823.68 -0.670635 -1.41181 0
M  V30 29050 H 2824.42 1.3417 -2.95244 0
M  V30 29051 H 2824.2 -0.146853 -3.91825 0
M  V30 29052 H 2825.69 0.827753 -4.09314 0
M  V30 29053 N 2826.13 1.4335 -0.654865 0
M  V30 29054 C 2827.37 2.02093 -0.169178 0
M  V30 29055 C 2827.71 1.51555 1.21428 0
M  V30 29056 O 2826.98 0.709348 1.81104 0
M  V30 29057 C 2827.26 3.59641 -0.181838 0
M  V30 29058 C 2827.12 4.20406 -1.59933 0
M  V30 29059 C 2828.44 4.37465 0.480868 0
M  V30 29060 H 2825.56 0.734307 -0.0629501 0
M  V30 29061 H 2828.2 1.70626 -0.835863 0
M  V30 29062 H 2826.35 3.86579 0.38585 0
M  V30 29063 H 2828.02 4.04493 -2.21773 0
M  V30 29064 H 2826.26 3.76994 -2.14612 0
M  V30 29065 H 2826.93 5.29497 -1.56003 0
M  V30 29066 H 2829.41 4.161 -0.00215586 0
M  V30 29067 H 2828.29 5.47123 0.441288 0
M  V30 29068 H 2828.55 4.13841 1.55526 0
M  V30 29069 N 2827.61 0.39689 1.52521 0
M  V30 29070 C 2828.54 -0.469774 2.24334 0
M  V30 29071 C 2829.55 -1.02041 1.26852 0
M  V30 29072 O 2830.74 -0.921444 1.52878 0
M  V30 29073 C 2827.84 -1.66455 2.95205 0
M  V30 29074 C 2827.01 -1.23996 4.19456 0
M  V30 29075 C 2826.07 -2.30027 4.73259 0
M  V30 29076 O 2825.1 -1.91122 5.36154 0
M  V30 29077 N 2826.3 -3.62039 4.53771 0
M  V30 29078 H 2829.06 0.14552 2.99347 0
M  V30 29079 H 2826.63 0.223635 1.60348 0
M  V30 29080 H 2828.62 -2.36929 3.28096 0
M  V30 29081 H 2827.19 -2.18603 2.23454 0
M  V30 29082 H 2826.41 -0.363823 3.92517 0
M  V30 29083 H 2827.7 -0.933047 5.00172 0
M  V30 29084 H 2827.09 -3.96405 4.03583 0
M  V30 29085 H 2825.65 -4.28524 4.91132 0
M  V30 29086 N 2829.08 -1.57088 0.126936 0
M  V30 29087 C 2830.33 -1.96544 -0.523628 0
M  V30 29088 C 2830.68 -1.00963 -1.63781 0
M  V30 29089 O 2829.98 -0.0410512 -1.91556 0
M  V30 29090 C 2830.17 -3.40214 -1.09494 0
M  V30 29091 C 2830 -4.49684 -0.037636 0
M  V30 29092 C 2828.77 -5.03739 0.396912 0
M  V30 29093 C 2830.97 -5.08856 0.746334 0
M  V30 29094 N 2828.95 -5.96793 1.43916 0
M  V30 29095 C 2830.32 -5.97928 1.63957 0
M  V30 29096 C 2832.38 -4.9149 0.796346 0
M  V30 29097 C 2831.08 -6.71496 2.57849 0
M  V30 29098 C 2833.11 -5.65744 1.723 0
M  V30 29099 C 2832.47 -6.54509 2.6038 0
M  V30 29100 H 2828.57 -0.765246 -0.161003 0
M  V30 29101 H 2831.15 -1.93488 0.216894 0
M  V30 29102 H 2829.32 -3.43903 -1.80515 0
M  V30 29103 H 2831.05 -3.66776 -1.71047 0
M  V30 29104 H 2827.81 -4.736 0.00298731 0
M  V30 29105 H 2828.23 -6.48024 1.95944 0
M  V30 29106 H 2832.87 -4.22602 0.129487 0
M  V30 29107 H 2830.59 -7.39626 3.25545 0
M  V30 29108 H 2834.18 -5.5431 1.76724 0
M  V30 29109 H 2833.06 -7.10959 3.30919 0
M  V30 29110 N 2830.56 0.146848 -1.56914 0
M  V30 29111 C 2831.49 1.21084 -1.93427 0
M  V30 29112 C 2832.47 1.41551 -0.800131 0
M  V30 29113 O 2833.66 1.56161 -1.05575 0
M  V30 29114 C 2830.78 2.56971 -2.20643 0
M  V30 29115 C 2829.83 2.53098 -3.43284 0
M  V30 29116 S 2830.66 1.99778 -4.96839 0
M  V30 29117 C 2831.82 3.37394 -5.27178 0
M  V30 29118 H 2832.05 0.899328 -2.83371 0
M  V30 29119 H 2829.58 0.352468 -1.50323 0
M  V30 29120 H 2831.54 3.35171 -2.37004 0
M  V30 29121 H 2830.2 2.85312 -1.31363 0
M  V30 29122 H 2829.4 3.53129 -3.59605 0
M  V30 29123 H 2829 1.83007 -3.26166 0
M  V30 29124 H 2831.29 4.33503 -5.20654 0
M  V30 29125 H 2832.23 3.25926 -6.28632 0
M  V30 29126 H 2832.64 3.34536 -4.54693 0
M  V30 29127 N 2832.04 1.52005 0.4162 0
M  V30 29128 C 2832.99 1.75443 1.52717 0
M  V30 29129 C 2833.98 0.621316 1.57594 0
M  V30 29130 O 2835.19 0.8032 1.61086 0
M  V30 29131 H 2831.56 0.554691 0.507762 0
M  V30 29132 H 2833.53 2.6853 1.30131 0
M  V30 29133 C 2832.28 1.91576 2.90162 0
M  V30 29134 H 2831.61 2.78183 2.87149 0
M  V30 29135 H 2833.05 2.11978 3.67207 0
M  V30 29136 C 2831.5 0.681 3.29945 0
M  V30 29137 O 2832.03 -0.154457 4.01403 0
M  V30 29138 N 2830.24 0.518944 2.85929 0
M  V30 29139 H 2829.79 1.1999 2.27948 0
M  V30 29140 H 2829.75 -0.30593 3.12908 0
M  V30 29141 N 2833.52 -0.672992 1.42508 0
M  V30 29142 C 2834.93 -0.986333 1.25474 0
M  V30 29143 C 2835.13 -2.00862 0.160217 0
M  V30 29144 O 2834.19 -2.48126 -0.467949 0
M  V30 29145 C 2835.5 -1.48942 2.61222 0
M  V30 29146 C 2837.05 -1.6071 2.68591 0
M  V30 29147 C 2837.53 -2.14414 4.0471 0
M  V30 29148 N 2839.02 -2.21745 4.06674 0
M  V30 29149 C 2839.75 -2.64377 5.08814 0
M  V30 29150 N 2839.25 -3.06449 6.21338 0
M  V30 29151 N 2841.04 -2.64142 4.96171 0
M  V30 29152 H 2833.19 0.00382266 2.124 0
M  V30 29153 H 2835.45 -0.06082 0.946047 0
M  V30 29154 H 2835.16 -0.812752 3.4218 0
M  V30 29155 H 2835.03 -2.46786 2.85266 0
M  V30 29156 H 2837.42 -2.27483 1.87978 0
M  V30 29157 H 2837.5 -0.613509 2.48334 0
M  V30 29158 H 2837.15 -1.4825 4.85782 0
M  V30 29159 H 2837.08 -3.14568 4.22321 0
M  V30 29160 H 2839.57 -1.92084 3.25442 0
M  V30 29161 H 2839.88 -3.37672 6.95124 0
M  V30 29162 H 2838.23 -3.04302 6.2484 0
M  V30 29163 H 2841.42 -2.30637 4.07338 0
M  V30 29164 H 2841.59 -2.97047 5.75906 0
M  V30 29165 N 2835 -1.2871 -0.909472 0
M  V30 29166 C 2835.93 -1.15545 -2.02908 0
M  V30 29167 C 2836.91 -0.0521316 -1.7002 0
M  V30 29168 O 2838.09 -0.229883 -1.92835 0
M  V30 29169 C 2835.22 -0.820994 -3.37457 0
M  V30 29170 C 2834.18 -1.87956 -3.84521 0
M  V30 29171 C 2833.5 -1.39864 -5.16084 0
M  V30 29172 C 2834.8 -3.28683 -4.05912 0
M  V30 29173 H 2836.5 -2.09207 -2.1418 0
M  V30 29174 H 2834.04 -1.00723 -1.02912 0
M  V30 29175 H 2835.99 -0.715644 -4.15279 0
M  V30 29176 H 2834.72 0.151317 -3.26249 0
M  V30 29177 H 2833.38 -1.97413 -3.08907 0
M  V30 29178 H 2833.03 -0.415268 -5.01283 0
M  V30 29179 H 2832.73 -2.1065 -5.48544 0
M  V30 29180 H 2834.25 -1.30659 -5.96457 0
M  V30 29181 H 2835.66 -3.22124 -4.74246 0
M  V30 29182 H 2834.06 -3.97342 -4.4971 0
M  V30 29183 H 2835.13 -3.72385 -3.10576 0
M  V30 29184 N 2836.47 1.1185 -1.11028 0
M  V30 29185 C 2837.72 1.82855 -0.851281 0
M  V30 29186 C 2838.04 1.85342 0.625108 0
M  V30 29187 O 2839.24 2.52404 1.00022 0
M  V30 29188 C 2837.7 3.28369 -1.47314 0
M  V30 29189 C 2837.31 3.34224 -2.98326 0
M  V30 29190 C 2839.05 4.04303 -1.2938 0
M  V30 29191 C 2836.96 4.74109 -3.53517 0
M  V30 29192 H 2835.89 0.685137 -0.314806 0
M  V30 29193 H 2838.54 1.25896 -1.33501 0
M  V30 29194 H 2836.92 3.85234 -0.917085 0
M  V30 29195 H 2838.09 2.87264 -3.603 0
M  V30 29196 H 2836.41 2.71767 -3.15486 0
M  V30 29197 H 2839.01 5.07605 -1.68051 0
M  V30 29198 H 2839.35 4.15631 -0.235952 0
M  V30 29199 H 2839.88 3.53814 -1.81826 0
M  V30 29200 H 2836.62 4.67978 -4.58996 0
M  V30 29201 H 2836.14 5.21496 -2.96314 0
M  V30 29202 H 2837.82 5.4306 -3.51703 0
M  V30 29203 N 2837.95 0.89995 1.29378 0
M  V30 29204 C 2838.91 0.382716 2.25982 0
M  V30 29205 C 2839.91 -0.483232 1.53367 0
M  V30 29206 O 2841.1 -0.288249 1.71799 0
M  V30 29207 C 2838.24 -0.452855 3.37879 0
M  V30 29208 H 2839.43 1.23591 2.7325 0
M  V30 29209 H 2836.98 0.678113 1.40824 0
M  V30 29210 H 2837.72 -1.32602 2.95951 0
M  V30 29211 H 2837.5 0.167631 3.91742 0
M  V30 29212 H 2838.99 -0.806035 4.09747 0
M  V30 29213 N 2839.43 -1.43001 0.662458 0
M  V30 29214 C 2840.68 -2.01702 0.179627 0
M  V30 29215 C 2841.01 -1.52311 -1.20961 0
M  V30 29216 O 2840.26 -0.710632 -1.82342 0
M  V30 29217 C 2840.56 -3.57087 0.149426 0
M  V30 29218 C 2840.23 -4.25861 1.48166 0
M  V30 29219 C 2838.89 -4.44364 1.84646 0
M  V30 29220 C 2841.24 -4.64728 2.35961 0
M  V30 29221 C 2838.57 -4.99001 3.0857 0
M  V30 29222 C 2840.92 -5.20739 3.59185 0
M  V30 29223 C 2839.58 -5.37456 3.9585 0
M  V30 29224 H 2838.85 -0.738079 0.0657301 0
M  V30 29225 H 2841.5 -1.71354 0.854999 0
M  V30 29226 H 2839.81 -3.87031 -0.609423 0
M  V30 29227 H 2841.5 -4.00274 -0.241171 0
M  V30 29228 H 2838.09 -4.11811 1.18784 0
M  V30 29229 H 2842.28 -4.50117 2.09066 0
M  V30 29230 H 2837.53 -5.10129 3.37014 0
M  V30 29231 H 2841.71 -5.498 4.27426 0
M  V30 29232 H 2839.33 -5.79557 4.91953 0
M  V30 29233 N 2840.91 -0.404973 -1.52308 0
M  V30 29234 C 2841.87 0.410612 -2.25492 0
M  V30 29235 C 2842.87 0.977132 -1.27706 0
M  V30 29236 O 2844.06 0.856665 -1.5168 0
M  V30 29237 C 2841.19 1.5776 -3.022 0
M  V30 29238 H 2842.39 -0.230329 -2.99014 0
M  V30 29239 H 2839.94 -0.157405 -1.55505 0
M  V30 29240 H 2840.67 2.25552 -2.33016 0
M  V30 29241 H 2840.46 1.17791 -3.73989 0
M  V30 29242 H 2841.95 2.15463 -3.57723 0
M  V30 29243 N 2842.39 1.57018 -0.135265 0
M  V30 29244 C 2843.61 2.00532 0.529308 0
M  V30 29245 C 2844.04 1.01462 1.58389 0
M  V30 29246 O 2843.39 -0.0113668 1.81296 0
M  V30 29247 C 2843.44 3.4285 1.11742 0
M  V30 29248 O 2842.55 3.46739 2.23261 0
M  V30 29249 H 2841.89 0.651018 0.130658 0
M  V30 29250 H 2844.42 2.0332 -0.228539 0
M  V30 29251 H 2844.43 3.81403 1.44898 0
M  V30 29252 H 2843.1 4.14466 0.345074 0
M  V30 29253 H 2841.68 3.20019 1.91422 0
M  V30 29254 N 2843.86 -0.138524 1.5699 0
M  V30 29255 C 2845.28 -0.491446 1.51845 0
M  V30 29256 C 2845.48 -1.82922 0.845095 0
M  V30 29257 O 2844.54 -2.48996 0.419187 0
M  V30 29258 C 2845.85 -0.493935 2.96616 0
M  V30 29259 C 2847.4 -0.578859 3.07601 0
M  V30 29260 C 2847.87 -0.611929 4.53894 0
M  V30 29261 N 2849.36 -0.673916 4.58271 0
M  V30 29262 C 2850.1 -0.720629 5.68854 0
M  V30 29263 N 2849.59 -0.72617 6.88984 0
M  V30 29264 N 2851.39 -0.762155 5.56909 0
M  V30 29265 H 2843.54 0.738263 1.99157 0
M  V30 29266 H 2845.8 0.270165 0.908688 0
M  V30 29267 H 2845.51 0.420994 3.49171 0
M  V30 29268 H 2845.38 -1.32881 3.53019 0
M  V30 29269 H 2847.77 -1.48421 2.55059 0
M  V30 29270 H 2847.85 0.283331 2.54226 0
M  V30 29271 H 2847.49 0.289297 5.07075 0
M  V30 29272 H 2847.42 -1.49073 5.05059 0
M  V30 29273 H 2849.91 -0.676589 3.71794 0
M  V30 29274 H 2850.23 -0.763897 7.69015 0
M  V30 29275 H 2848.57 -0.693909 6.91527 0
M  V30 29276 H 2851.76 -0.755054 4.6197 0
M  V30 29277 H 2851.94 -0.795094 6.43104 0
M  V30 29278 N 2845.34 -1.52224 -0.408133 0
M  V30 29279 C 2846.59 -1.66003 -1.15271 0
M  V30 29280 C 2846.91 -0.392837 -1.91002 0
M  V30 29281 O 2846.18 0.592303 -1.86731 0
M  V30 29282 H 2844.76 -0.611869 -0.428515 0
M  V30 29283 H 2847.42 -1.8927 -0.465087 0
M  V30 29284 H 2846.52 -2.50156 -1.86623 0
M  V30 29285 N 2846.82 0.665425 -1.42863 0
M  V30 29286 C 2847.77 1.79997 -1.47322 0
M  V30 29287 C 2848.76 1.65787 -0.347992 0
M  V30 29288 O 2849.97 1.72282 -0.521436 0
M  V30 29289 H 2846.34 0.593659 -0.461598 0
M  V30 29290 H 2848.31 1.73356 -2.42879 0
M  V30 29291 C 2847.06 3.182 -1.40157 0
M  V30 29292 H 2846.39 3.29766 -2.26041 0
M  V30 29293 H 2847.83 3.97577 -1.47338 0
M  V30 29294 C 2846.29 3.36695 -0.117552 0
M  V30 29295 O 2846.82 3.93116 0.825989 0
M  V30 29296 N 2845.02 2.90583 -0.0316729 0
M  V30 29297 H 2844.57 2.44853 -0.80029 0
M  V30 29298 H 2844.53 3.03334 0.826782 0
M  V30 29299 N 2848.3 1.29191 0.902633 0
M  V30 29300 C 2849.25 1.10698 1.99324 0
M  V30 29301 C 2850.23 0.0272804 1.60877 0
M  V30 29302 O 2851.42 0.248666 1.75245 0
M  V30 29303 C 2848.55 0.782499 3.34263 0
M  V30 29304 C 2847.64 1.90159 3.79078 0
M  V30 29305 N 2848.03 3.14473 3.96157 0
M  V30 29306 C 2846.33 1.79396 4.08329 0
M  V30 29307 C 2847.03 3.87465 4.33873 0
M  V30 29308 N 2846.01 3.15389 4.42754 0
M  V30 29309 H 2849.81 2.05006 2.10593 0
M  V30 29310 H 2847.32 1.20273 1.09125 0
M  V30 29311 H 2849.32 0.631068 4.12096 0
M  V30 29312 H 2847.98 -0.152697 3.24341 0
M  V30 29313 H 2848.99 3.49961 3.81769 0
M  V30 29314 H 2845.67 0.931289 4.06981 0
M  V30 29315 H 2847.06 4.94433 4.54956 0
M  V30 29316 N 2849.78 -1.1126 1.1162 0
M  V30 29317 C 2851.02 -1.83309 0.867495 0
M  V30 29318 C 2851.36 -1.84525 -0.605333 0
M  V30 29319 O 2850.63 -1.29968 -1.44702 0
M  V30 29320 C 2850.91 -3.30397 1.43213 0
M  V30 29321 C 2850.77 -3.37565 2.97271 0
M  V30 29322 C 2852.09 -4.26526 1.08461 0
M  V30 29323 H 2849.2 -0.665537 0.31659 0
M  V30 29324 H 2851.85 -1.30452 1.38139 0
M  V30 29325 H 2850 -3.75541 0.995048 0
M  V30 29326 H 2851.67 -3.00965 3.49596 0
M  V30 29327 H 2849.91 -2.77727 3.33242 0
M  V30 29328 H 2850.58 -4.41099 3.31867 0
M  V30 29329 H 2853.06 -3.89571 1.46196 0
M  V30 29330 H 2851.93 -5.27824 1.50643 0
M  V30 29331 H 2852.2 -4.421 -0.00436797 0
M  V30 29332 N 2851.25 -0.906798 -1.28899 0
M  V30 29333 C 2852.48 -0.551338 -1.99938 0
M  V30 29334 C 2852.9 0.858466 -1.67368 0
M  V30 29335 O 2852.26 1.57258 -0.902204 0
M  V30 29336 C 2852.31 -0.758999 -3.52522 0
M  V30 29337 O 2851.41 0.185236 -4.11984 0
M  V30 29338 H 2850.76 -0.214579 -0.628372 0
M  V30 29339 H 2853.29 -1.22033 -1.64223 0
M  V30 29340 H 2853.3 -0.6664 -4.02521 0
M  V30 29341 H 2851.97 -1.78678 -3.75562 0
M  V30 29342 H 2850.55 0.0444922 -3.72873 0
M  V30 29343 N 2852.73 1.42648 -0.670032 0
M  V30 29344 C 2854.14 1.84764 -0.26815 0
M  V30 29345 C 2854.49 1.56088 1.18874 0
M  V30 29346 O 2853.62 1.01828 1.90945 0
M  V30 29347 C 2854.21 3.35384 -0.479899 0
M  V30 29348 C 2852.77 3.76168 -0.132182 0
M  V30 29349 C 2851.92 2.6626 -0.774658 0
M  V30 29350 H 2854.87 1.32562 -0.872532 0
M  V30 29351 H 2854.89 3.79545 0.269455 0
M  V30 29352 H 2854.4 3.56224 -1.54033 0
M  V30 29353 H 2852.51 3.60936 0.924987 0
M  V30 29354 H 2852.62 4.75705 -0.569377 0
M  V30 29355 H 2850.98 2.53862 -0.206398 0
M  V30 29356 H 2851.77 2.89924 -1.83844 0
M  V30 29357 N 2854.21 0.413044 1.52091 0
M  V30 29358 C 2855.44 -0.160845 2.06274 0
M  V30 29359 C 2855.85 -1.38531 1.28275 0
M  V30 29360 O 2855.21 -1.79387 0.335662 0
M  V30 29361 C 2855.26 -0.50738 3.57922 0
M  V30 29362 O 2854.98 0.668464 4.3297 0
M  V30 29363 C 2856.48 -1.13458 4.28535 0
M  V30 29364 H 2853.7 -0.0186642 0.67074 0
M  V30 29365 H 2856.25 0.585127 1.9595 0
M  V30 29366 H 2854.4 -1.20325 3.6824 0
M  V30 29367 H 2854.82 0.378261 5.23134 0
M  V30 29368 H 2856.29 -1.32723 5.35807 0
M  V30 29369 H 2856.77 -2.10879 3.85262 0
M  V30 29370 H 2857.37 -0.478802 4.22596 0
M  V30 29371 N 2855.69 -1.56945 0.143591 0
M  V30 29372 C 2856.64 -2.13162 -0.809077 0
M  V30 29373 C 2857.62 -1.05857 -1.21174 0
M  V30 29374 O 2858.82 -1.32042 -1.17873 0
M  V30 29375 C 2855.94 -2.75408 -2.04952 0
M  V30 29376 C 2855.03 -3.89831 -1.67011 0
M  V30 29377 N 2855.42 -4.95842 -0.998735 0
M  V30 29378 C 2853.72 -4.00475 -1.96306 0
M  V30 29379 C 2854.42 -5.75947 -0.816115 0
M  V30 29380 N 2853.4 -5.26598 -1.3489 0
M  V30 29381 H 2857.2 -2.92497 -0.286867 0
M  V30 29382 H 2854.71 -1.62296 -0.0580662 0
M  V30 29383 H 2856.71 -3.14042 -2.74196 0
M  V30 29384 H 2855.37 -1.97545 -2.57694 0
M  V30 29385 H 2856.38 -5.13679 -0.659884 0
M  V30 29386 H 2853.06 -3.33684 -2.50921 0
M  V30 29387 H 2854.45 -6.71286 -0.287235 0
M  V30 29388 N 2857.17 0.130197 -1.57061 0
M  V30 29389 C 2858.4 0.853184 -1.8816 0
M  V30 29390 C 2858.81 1.74478 -0.731705 0
M  V30 29391 O 2858.15 1.81116 0.307003 0
M  V30 29392 C 2858.21 1.7478 -3.14153 0
M  V30 29393 C 2857.87 1.03165 -4.45203 0
M  V30 29394 C 2858.87 0.377667 -5.18526 0
M  V30 29395 C 2856.56 1.01616 -4.91914 0
M  V30 29396 C 2858.55 -0.282235 -6.36775 0
M  V30 29397 C 2856.24 0.352448 -6.10083 0
M  V30 29398 C 2857.24 -0.295603 -6.8236 0
M  V30 29399 O 2856.92 -0.948746 -7.98282 0
M  V30 29400 H 2856.66 0.251186 -0.6276 0
M  V30 29401 H 2859.21 0.122564 -2.05034 0
M  V30 29402 H 2857.44 2.51978 -2.93333 0
M  V30 29403 H 2859.13 2.34422 -3.31363 0
M  V30 29404 H 2859.89 0.381332 -4.83499 0
M  V30 29405 H 2855.77 1.50999 -4.35569 0
M  V30 29406 H 2859.32 -0.788647 -6.93128 0
M  V30 29407 H 2855.21 0.346508 -6.44569 0
M  V30 29408 H 2855.98 -0.852097 -8.14053 0
M  V30 29409 N 2858.65 1.52438 0.400055 0
M  V30 29410 C 2859.89 1.67189 1.14786 0
M  V30 29411 C 2860.22 0.405107 1.89928 0
M  V30 29412 O 2859.5 -0.596772 1.85119 0
M  V30 29413 C 2859.78 2.89981 2.13502 0
M  V30 29414 C 2859.64 4.26732 1.42196 0
M  V30 29415 C 2860.95 3.08305 3.14063 0
M  V30 29416 H 2858.07 0.608418 0.415929 0
M  V30 29417 H 2860.72 1.85012 0.43251 0
M  V30 29418 H 2858.87 2.74916 2.74505 0
M  V30 29419 H 2860.54 4.53543 0.842424 0
M  V30 29420 H 2858.78 4.27718 0.723864 0
M  V30 29421 H 2859.45 5.08715 2.14272 0
M  V30 29422 H 2861.93 3.22328 2.63142 0
M  V30 29423 H 2860.8 3.9572 3.80391 0
M  V30 29424 H 2861.06 2.22025 3.82305 0
M  V30 29425 N 2860.12 -0.657839 1.43214 0
M  V30 29426 C 2861.53 -1.2389 1.39671 0
M  V30 29427 C 2861.89 -1.95953 0.0984561 0
M  V30 29428 O 2861.01 -2.00979 -0.802265 0
M  V30 29429 C 2861.61 -2.25327 2.53008 0
M  V30 29430 C 2860.16 -2.78921 2.52745 0
M  V30 29431 C 2859.31 -1.53493 2.30944 0
M  V30 29432 H 2862.26 -0.450146 1.52182 0
M  V30 29433 H 2862.28 -3.07409 2.24232 0
M  V30 29434 H 2861.8 -1.7285 3.47483 0
M  V30 29435 H 2859.9 -3.35474 1.62136 0
M  V30 29436 H 2860.01 -3.26781 3.50358 0
M  V30 29437 H 2858.37 -1.80675 1.79524 0
M  V30 29438 H 2859.16 -1.02958 3.27498 0
M  V30 29439 N 2861.6 -1.29668 -0.895769 0
M  V30 29440 C 2862.51 -1.17028 -2.03327 0
M  V30 29441 C 2863.53 -0.0926267 -1.73753 0
M  V30 29442 O 2864.7 -0.305466 -1.9907 0
M  V30 29443 C 2861.77 -0.8519 -3.36071 0
M  V30 29444 C 2860.83 -2.0138 -3.79137 0
M  V30 29445 C 2860.06 -1.71052 -5.05546 0
M  V30 29446 O 2860.29 -0.633312 -5.66873 0
M  V30 29447 O 2859.22 -2.55969 -5.4476 0
M  V30 29448 H 2863.05 -2.1256 -2.16915 0
M  V30 29449 H 2860.63 -1.09158 -1.02005 0
M  V30 29450 H 2862.51 -0.689079 -4.15728 0
M  V30 29451 H 2861.19 0.0736065 -3.23616 0
M  V30 29452 H 2860.09 -2.23188 -3.0023 0
M  V30 29453 H 2861.43 -2.92065 -3.96181 0
M  V30 29454 N 2863.08 1.10667 -1.12208 0
M  V30 29455 C 2864.3 1.86904 -0.898971 0
M  V30 29456 C 2864.73 1.79992 0.546314 0
M  V30 29457 O 2864.09 1.16812 1.38653 0
M  V30 29458 C 2864.14 3.33342 -1.37534 0
M  V30 29459 O 2863.24 4.08686 -0.552252 0
M  V30 29460 H 2862.58 0.580048 -0.323173 0
M  V30 29461 H 2865.11 1.39834 -1.49357 0
M  V30 29462 H 2865.12 3.84191 -1.37337 0
M  V30 29463 H 2863.8 3.37689 -2.42773 0
M  V30 29464 H 2862.37 3.67693 -0.621012 0
M  V30 29465 N 2864.56 0.913621 1.28416 0
M  V30 29466 C 2865.83 0.465652 1.89976 0
M  V30 29467 C 2866.21 -1.05555 1.82815 0
M  V30 29468 O 2865.56 -1.90356 1.264 0
M  V30 29469 C 2865.77 0.995871 3.3449 0
M  V30 29470 C 2867.12 1.04789 4.11466 0
M  V30 29471 O 2868.14 0.944506 3.43449 0
M  V30 29472 O 2867 1.20527 5.33044 0
M  V30 29473 H 2864.1 0.147546 0.813732 0
M  V30 29474 H 2866.64 1.0044 1.36784 0
M  V30 29475 H 2865.42 2.03984 3.33925 0
M  V30 29476 H 2865.04 0.437947 3.95181 0
M  V30 29477 N 2866.04 -1.4229 0.677588 0
M  V30 29478 C 2867 -2.29198 0.0101488 0
M  V30 29479 C 2868 -1.43468 -0.726193 0
M  V30 29480 O 2869.19 -1.64825 -0.563778 0
M  V30 29481 C 2866.32 -3.26018 -0.996259 0
M  V30 29482 H 2867.51 -2.8971 0.775122 0
M  V30 29483 H 2865.07 -1.49976 0.440091 0
M  V30 29484 H 2865.8 -2.70449 -1.78963 0
M  V30 29485 H 2865.59 -3.89253 -0.471618 0
M  V30 29486 H 2867.08 -3.91187 -1.4616 0
M  V30 29487 N 2867.51 -0.421104 -1.5187 0
M  V30 29488 C 2868.48 0.386672 -2.25915 0
M  V30 29489 C 2869.48 0.963532 -1.28735 0
M  V30 29490 O 2870.67 0.840529 -1.5258 0
M  V30 29491 C 2867.8 1.54546 -3.03856 0
M  V30 29492 H 2868.99 -0.262031 -2.98753 0
M  V30 29493 H 2866.54 -0.173889 -1.5533 0
M  V30 29494 H 2867.28 2.23068 -2.35396 0
M  V30 29495 H 2867.06 1.13817 -3.75217 0
M  V30 29496 H 2868.55 2.11657 -3.59988 0
M  V30 29497 N 2868.99 1.56866 -0.151912 0
M  V30 29498 C 2869.96 2.15814 0.771823 0
M  V30 29499 C 2870.96 1.10117 1.17179 0
M  V30 29500 O 2872.15 1.35731 1.09191 0
M  V30 29501 C 2869.28 2.72524 2.04801 0
M  V30 29502 H 2870.47 2.9878 0.258969 0
M  V30 29503 H 2868.02 1.55995 0.0975606 0
M  V30 29504 H 2868.76 1.93238 2.60441 0
M  V30 29505 H 2868.54 3.49857 1.77038 0
M  V30 29506 H 2870.03 3.17925 2.70765 0
M  V30 29507 N 2870.47 -0.121866 1.57128 0
M  V30 29508 C 2871.89 -0.475313 1.52358 0
M  V30 29509 C 2872.09 -1.82015 0.864449 0
M  V30 29510 O 2871.14 -2.48538 0.445572 0
M  V30 29511 C 2872.46 -0.462448 2.97123 0
M  V30 29512 C 2874 -0.546201 3.08197 0
M  V30 29513 C 2874.48 -0.563753 4.54517 0
M  V30 29514 N 2875.97 -0.625272 4.5896 0
M  V30 29515 C 2876.7 -0.660254 5.69586 0
M  V30 29516 N 2876.2 -0.653054 6.89715 0
M  V30 29517 N 2877.99 -0.703045 5.57686 0
M  V30 29518 H 2870.14 0.759344 1.98363 0
M  V30 29519 H 2872.41 0.279788 0.905772 0
M  V30 29520 H 2872.11 0.458005 3.48705 0
M  V30 29521 H 2871.99 -1.2913 3.54409 0
M  V30 29522 H 2874.37 -1.45707 2.56619 0
M  V30 29523 H 2874.46 0.310279 2.53911 0
M  V30 29524 H 2874.1 0.343063 5.0674 0
M  V30 29525 H 2874.03 -1.43708 5.06612 0
M  V30 29526 H 2876.52 -0.637117 3.72491 0
M  V30 29527 H 2876.83 -0.68229 7.69782 0
M  V30 29528 H 2875.18 -0.620524 6.92224 0
M  V30 29529 H 2878.37 -0.706013 4.62745 0
M  V30 29530 H 2878.54 -0.726839 6.43911 0
M  V30 29531 N 2871.95 -1.52648 -0.391965 0
M  V30 29532 C 2873.19 -1.67795 -1.13897 0
M  V30 29533 C 2873.53 -0.415174 -1.8971 0
M  V30 29534 O 2872.8 0.586946 -1.85432 0
M  V30 29535 C 2873.09 -2.91109 -2.11961 0
M  V30 29536 C 2872.94 -4.2748 -1.39931 0
M  V30 29537 C 2874.26 -3.09966 -3.12424 0
M  V30 29538 H 2871.38 -0.610615 -0.412696 0
M  V30 29539 H 2874.02 -1.85239 -0.422692 0
M  V30 29540 H 2872.17 -2.76368 -2.73044 0
M  V30 29541 H 2873.84 -4.53983 -0.818359 0
M  V30 29542 H 2872.08 -4.28096 -0.701171 0
M  V30 29543 H 2872.75 -5.09845 -2.11572 0
M  V30 29544 H 2875.23 -3.23719 -2.61429 0
M  V30 29545 H 2874.11 -3.97731 -3.78287 0
M  V30 29546 H 2874.37 -2.24049 -3.81123 0
M  V30 29547 N 2873.43 0.650235 -1.43561 0
M  V30 29548 C 2874.65 1.43776 -1.48782 0
M  V30 29549 C 2875.07 1.88499 -0.106626 0
M  V30 29550 O 2874.43 1.59676 0.883738 0
M  V30 29551 C 2874.48 2.67077 -2.43623 0
M  V30 29552 O 2874.2 2.24224 -3.76371 0
M  V30 29553 C 2875.7 3.60404 -2.58116 0
M  V30 29554 H 2872.92 0.441584 -0.505217 0
M  V30 29555 H 2875.46 0.796908 -1.88334 0
M  V30 29556 H 2873.62 3.27296 -2.07258 0
M  V30 29557 H 2874.03 3.04023 -4.274 0
M  V30 29558 H 2875.51 4.43578 -3.28547 0
M  V30 29559 H 2875.98 4.0795 -1.62707 0
M  V30 29560 H 2876.59 3.06065 -2.95304 0
M  V30 29561 N 2874.9 1.30141 0.88888 0
M  V30 29562 C 2875.87 1.16177 1.97574 0
M  V30 29563 C 2876.87 0.0941142 1.60524 0
M  V30 29564 O 2878.06 0.341919 1.70811 0
M  V30 29565 C 2875.19 0.779041 3.31879 0
M  V30 29566 H 2876.38 2.12731 2.11389 0
M  V30 29567 H 2873.94 1.13482 1.07478 0
M  V30 29568 H 2874.67 -0.186168 3.23765 0
M  V30 29569 H 2874.46 1.55058 3.60138 0
M  V30 29570 H 2875.95 0.704704 4.11611 0
M  V30 29571 N 2876.38 -1.1007 1.12794 0
M  V30 29572 C 2877.63 -1.81478 0.880264 0
M  V30 29573 C 2877.94 -1.86313 -0.595542 0
M  V30 29574 O 2879.15 -2.53964 -0.959934 0
M  V30 29575 C 2877.61 -3.25984 1.5252 0
M  V30 29576 C 2877.21 -3.29435 3.03606 0
M  V30 29577 C 2878.96 -4.02194 1.35795 0
M  V30 29578 C 2876.87 -4.68425 3.61015 0
M  V30 29579 H 2875.8 -0.680042 0.325666 0
M  V30 29580 H 2878.45 -1.23756 1.35487 0
M  V30 29581 H 2876.83 -3.83727 0.978256 0
M  V30 29582 H 2878 -2.81496 3.64824 0
M  V30 29583 H 2876.32 -2.66713 3.1977 0
M  V30 29584 H 2878.91 -5.04867 1.76105 0
M  V30 29585 H 2879.26 -4.15203 0.302045 0
M  V30 29586 H 2879.79 -3.50876 1.87432 0
M  V30 29587 H 2876.53 -4.60616 4.66383 0
M  V30 29588 H 2876.05 -5.16716 3.04573 0
M  V30 29589 H 2877.73 -5.37396 3.60298 0
M  V30 29590 N 2877.86 -0.920419 -1.2793 0
M  V30 29591 C 2878.79 -0.431064 -2.29487 0
M  V30 29592 C 2879.77 0.504833 -1.62436 0
M  V30 29593 O 2880.96 0.411142 -1.89798 0
M  V30 29594 C 2878.09 0.323648 -3.45789 0
M  V30 29595 C 2877.04 -0.523732 -4.24784 0
M  V30 29596 C 2876.37 0.359716 -5.33489 0
M  V30 29597 C 2877.67 -1.78445 -4.90871 0
M  V30 29598 H 2879.36 -1.2798 -2.70669 0
M  V30 29599 H 2876.91 -0.616836 -1.3012 0
M  V30 29600 H 2878.86 0.676879 -4.15928 0
M  V30 29601 H 2877.58 1.20634 -3.03504 0
M  V30 29602 H 2876.24 -0.859572 -3.5638 0
M  V30 29603 H 2875.89 1.24115 -4.87447 0
M  V30 29604 H 2875.59 -0.203709 -5.87247 0
M  V30 29605 H 2877.11 0.708681 -6.06473 0
M  V30 29606 H 2878.53 -1.49973 -5.53336 0
M  V30 29607 H 2876.93 -2.2908 -5.54655 0
M  V30 29608 H 2878 -2.50831 -4.14984 0
M  V30 29609 N 2879.34 1.41929 -0.685124 0
M  V30 29610 C 2880.56 2.06242 -0.218878 0
M  V30 29611 C 2880.99 1.5118 1.1192 0
M  V30 29612 O 2880.35 0.634476 1.69835 0
M  V30 29613 C 2880.39 3.60172 -0.175655 0
M  V30 29614 O 2879.5 4.03488 0.852705 0
M  V30 29615 H 2878.84 0.654902 -0.109542 0
M  V30 29616 H 2881.37 1.81881 -0.937045 0
M  V30 29617 H 2881.38 4.08 -0.00298323 0
M  V30 29618 H 2880.05 3.99619 -1.15229 0
M  V30 29619 H 2878.63 3.67187 0.650236 0
M  V30 29620 N 2880.82 0.429152 1.51644 0
M  V30 29621 C 2882.04 -0.141363 2.06918 0
M  V30 29622 C 2882.47 -1.36396 1.29529 0
M  V30 29623 O 2881.82 -1.78253 0.330971 0
M  V30 29624 C 2881.87 -0.450337 3.57777 0
M  V30 29625 O 2880.98 -1.53815 3.82642 0
M  V30 29626 H 2880.32 -0.00545303 0.663978 0
M  V30 29627 H 2882.85 0.608127 1.95353 0
M  V30 29628 H 2882.86 -0.703178 4.01895 0
M  V30 29629 H 2881.53 0.443286 4.13531 0
M  V30 29630 H 2880.11 -1.27591 3.50393 0
M  V30 29631 N 2882.29 -1.56783 0.160229 0
M  V30 29632 C 2883.22 -2.20431 -0.770225 0
M  V30 29633 C 2884.21 -1.15653 -1.24734 0
M  V30 29634 O 2885.39 -1.44043 -1.30251 0
M  V30 29635 C 2882.52 -2.83634 -2.00422 0
M  V30 29636 C 2881.47 -3.94355 -1.66338 0
M  V30 29637 C 2880.8 -4.44555 -2.97111 0
M  V30 29638 C 2882.1 -5.14489 -0.899882 0
M  V30 29639 H 2883.79 -2.98439 -0.239731 0
M  V30 29640 H 2881.34 -1.43549 -0.113866 0
M  V30 29641 H 2883.29 -3.26831 -2.66006 0
M  V30 29642 H 2882.02 -2.02978 -2.55866 0
M  V30 29643 H 2880.68 -3.51796 -1.03127 0
M  V30 29644 H 2880.32 -3.60704 -3.50573 0
M  V30 29645 H 2880.02 -5.19243 -2.75064 0
M  V30 29646 H 2881.55 -4.90431 -3.63744 0
M  V30 29647 H 2882.96 -5.54448 -1.45808 0
M  V30 29648 H 2881.36 -5.95024 -0.778864 0
M  V30 29649 H 2882.43 -4.84784 0.105912 0
M  V30 29650 N 2883.77 0.113531 -1.57191 0
M  V30 29651 C 2885 0.834389 -1.89329 0
M  V30 29652 C 2885.42 1.73175 -0.752049 0
M  V30 29653 O 2884.77 1.80387 0.276881 0
M  V30 29654 C 2884.82 1.66324 -3.20965 0
M  V30 29655 O 2884.55 0.801993 -4.30697 0
M  V30 29656 C 2886.05 2.48877 -3.66845 0
M  V30 29657 H 2883.27 0.239576 -0.626773 0
M  V30 29658 H 2885.81 0.0962836 -2.04273 0
M  V30 29659 H 2883.97 2.35404 -3.07675 0
M  V30 29660 H 2884.38 1.37422 -5.06177 0
M  V30 29661 H 2885.85 3.02555 -4.61697 0
M  V30 29662 H 2886.33 3.2649 -2.93771 0
M  V30 29663 H 2886.94 1.85029 -3.82942 0
M  V30 29664 N 2885.25 1.52854 0.383864 0
M  V30 29665 C 2886.5 1.68397 1.13006 0
M  V30 29666 C 2886.83 0.425229 1.89487 0
M  V30 29667 O 2886.11 -0.577104 1.85741 0
M  V30 29668 C 2886.39 2.92229 2.10414 0
M  V30 29669 C 2886.24 4.28216 1.37662 0
M  V30 29670 C 2887.56 3.11619 3.10776 0
M  V30 29671 H 2884.68 0.612795 0.409452 0
M  V30 29672 H 2887.32 1.8546 0.412863 0
M  V30 29673 H 2885.47 2.77812 2.71574 0
M  V30 29674 H 2887.14 4.54411 0.794272 0
M  V30 29675 H 2885.39 4.28462 0.678458 0
M  V30 29676 H 2886.06 5.10959 2.08865 0
M  V30 29677 H 2888.53 3.25101 2.59709 0
M  V30 29678 H 2887.41 3.99732 3.76172 0
M  V30 29679 H 2887.67 2.26067 3.79929 0
M  V30 29680 N 2886.73 -0.642612 1.43904 0
M  V30 29681 C 2887.96 -1.42985 1.49542 0
M  V30 29682 C 2888.37 -1.88439 0.116621 0
M  V30 29683 O 2887.73 -1.60142 -0.875257 0
M  V30 29684 C 2887.78 -2.65781 2.45036 0
M  V30 29685 O 2887.5 -2.22225 3.77555 0
M  V30 29686 C 2889 -3.5903 2.60024 0
M  V30 29687 H 2886.22 -0.438899 0.507552 0
M  V30 29688 H 2888.77 -0.786909 1.88754 0
M  V30 29689 H 2886.92 -3.26192 2.08991 0
M  V30 29690 H 2887.34 -3.01752 4.29006 0
M  V30 29691 H 2888.81 -4.41829 3.30894 0
M  V30 29692 H 2889.29 -4.07081 1.64868 0
M  V30 29693 H 2889.89 -3.04495 2.96923 0
M  V30 29694 N 2888.21 -1.30611 -0.881966 0
M  V30 29695 C 2889.14 -1.13062 -1.99373 0
M  V30 29696 C 2890.15 -0.0730165 -1.62636 0
M  V30 29697 O 2891.34 -0.319332 -1.7562 0
M  V30 29698 C 2888.44 -0.70271 -3.31535 0
M  V30 29699 C 2887.61 -1.84272 -3.9669 0
M  V30 29700 C 2886.67 -1.40286 -5.07155 0
M  V30 29701 O 2885.7 -2.11057 -5.28624 0
M  V30 29702 N 2886.9 -0.283551 -5.79807 0
M  V30 29703 H 2889.67 -2.08818 -2.14977 0
M  V30 29704 H 2887.23 -1.22786 -1.05523 0
M  V30 29705 H 2889.22 -0.391402 -4.02803 0
M  V30 29706 H 2887.79 0.162899 -3.12175 0
M  V30 29707 H 2887.01 -2.32198 -3.18556 0
M  V30 29708 H 2888.3 -2.6066 -4.3696 0
M  V30 29709 H 2887.7 0.306089 -5.64871 0
M  V30 29710 H 2886.25 -0.031713 -6.51792 0
M  V30 29711 N 2889.69 1.0947 -1.13376 0
M  V30 29712 C 2890.62 2.18124 -0.833306 0
M  V30 29713 C 2891.6 1.68834 0.20714 0
M  V30 29714 O 2892.78 1.94087 0.0661671 0
M  V30 29715 C 2889.91 3.46019 -0.298039 0
M  V30 29716 C 2888.87 4.0864 -1.27268 0
M  V30 29717 C 2888.19 5.31355 -0.597197 0
M  V30 29718 C 2889.49 4.51192 -2.63103 0
M  V30 29719 H 2891.19 2.43515 -1.74186 0
M  V30 29720 H 2888.73 1.17037 -0.838941 0
M  V30 29721 H 2890.68 4.21332 -0.0755184 0
M  V30 29722 H 2889.41 3.20149 0.645903 0
M  V30 29723 H 2888.07 3.35345 -1.48119 0
M  V30 29724 H 2887.72 5.01765 0.352205 0
M  V30 29725 H 2887.42 5.74206 -1.24744 0
M  V30 29726 H 2888.94 6.09392 -0.383947 0
M  V30 29727 H 2890.35 5.17732 -2.46223 0
M  V30 29728 H 2888.75 5.04926 -3.24299 0
M  V30 29729 H 2889.82 3.63615 -3.20799 0
M  V30 29730 N 2891.16 0.92719 1.2744 0
M  V30 29731 C 2892.09 0.443228 2.29255 0
M  V30 29732 C 2893.07 -0.496211 1.62701 0
M  V30 29733 O 2894.26 -0.401071 1.90013 0
M  V30 29734 C 2891.39 -0.305305 3.45955 0
M  V30 29735 C 2890.34 0.546252 4.245 0
M  V30 29736 C 2889.67 -0.331418 5.33672 0
M  V30 29737 C 2890.97 1.81046 4.89918 0
M  V30 29738 H 2892.66 1.29413 2.69986 0
M  V30 29739 H 2890.21 0.623727 1.29791 0
M  V30 29740 H 2892.16 -0.654812 4.16281 0
M  V30 29741 H 2890.89 -1.19023 3.0414 0
M  V30 29742 H 2889.55 0.87846 3.55919 0
M  V30 29743 H 2889.19 -1.21528 4.88098 0
M  V30 29744 H 2888.89 0.234849 5.8713 0
M  V30 29745 H 2890.42 -0.676508 6.06841 0
M  V30 29746 H 2891.83 1.52905 5.52533 0
M  V30 29747 H 2890.23 2.32019 5.53432 0
M  V30 29748 H 2891.3 2.53028 4.13648 0
M  V30 29749 N 2892.64 -1.41564 0.692641 0
M  V30 29750 C 2894.06 -1.55396 0.363906 0
M  V30 29751 C 2894.26 -1.66876 -1.12937 0
M  V30 29752 O 2893.31 -1.64556 -1.91514 0
M  V30 29753 C 2894.63 -2.79468 1.10987 0
M  V30 29754 C 2896.17 -2.93261 1.09393 0
M  V30 29755 C 2896.65 -4.20217 1.82157 0
M  V30 29756 N 2898.14 -4.27168 1.79113 0
M  V30 29757 C 2898.88 -5.24256 2.32256 0
M  V30 29758 N 2898.37 -6.27391 2.93858 0
M  V30 29759 N 2900.16 -5.16176 2.22529 0
M  V30 29760 H 2892.32 -1.32357 1.66119 0
M  V30 29761 H 2894.58 -0.638358 0.700859 0
M  V30 29762 H 2894.28 -2.77185 2.16475 0
M  V30 29763 H 2894.16 -3.70899 0.686557 0
M  V30 29764 H 2896.55 -2.95062 0.0473156 0
M  V30 29765 H 2896.63 -2.03012 1.55627 0
M  V30 29766 H 2896.27 -4.19178 2.86796 0
M  V30 29767 H 2896.2 -5.09434 1.33359 0
M  V30 29768 H 2898.69 -3.5327 1.34197 0
M  V30 29769 H 2899 -6.97858 3.31984 0
M  V30 29770 H 2897.35 -6.27901 2.97935 0
M  V30 29771 H 2900.54 -4.34528 1.74077 0
M  V30 29772 H 2900.71 -5.91673 2.64249 0
M  V30 29773 N 2894.12 -0.437188 -1.51415 0
M  V30 29774 C 2895.54 -0.0894739 -1.59349 0
M  V30 29775 C 2895.74 1.40113 -1.44812 0
M  V30 29776 O 2894.79 2.17104 -1.28928 0
M  V30 29777 C 2896.1 -0.609449 -2.94459 0
M  V30 29778 C 2897.65 -0.569878 -3.07768 0
M  V30 29779 C 2898.13 -1.06683 -4.45402 0
M  V30 29780 N 2899.62 -1.02481 -4.51721 0
M  V30 29781 C 2900.35 -1.38019 -5.56541 0
M  V30 29782 N 2899.85 -1.80843 -6.68781 0
M  V30 29783 N 2901.64 -1.29837 -5.46899 0
M  V30 29784 H 2893.79 -1.40705 -1.59109 0
M  V30 29785 H 2896.06 -0.579804 -0.750021 0
M  V30 29786 H 2895.76 -1.65237 -3.10467 0
M  V30 29787 H 2895.64 -0.0342899 -3.77184 0
M  V30 29788 H 2898.02 0.464056 -2.91428 0
M  V30 29789 H 2898.1 -1.18144 -2.26883 0
M  V30 29790 H 2897.75 -2.09922 -4.62488 0
M  V30 29791 H 2897.68 -0.431805 -5.24827 0
M  V30 29792 H 2900.17 -0.710323 -3.71164 0
M  V30 29793 H 2900.48 -2.06198 -7.44783 0
M  V30 29794 H 2898.83 -1.84769 -6.69989 0
M  V30 29795 H 2902.02 -0.962478 -4.58098 0
M  V30 29796 H 2902.19 -1.57862 -6.28477 0
M  V30 29797 N 2895.6 1.56696 -0.168541 0
M  V30 29798 C 2896.53 2.20836 0.758524 0
M  V30 29799 C 2897.51 1.16313 1.24118 0
M  V30 29800 O 2898.69 1.44732 1.29485 0
M  V30 29801 C 2895.82 2.84693 1.98915 0
M  V30 29802 C 2894.78 3.95231 1.64245 0
M  V30 29803 C 2894.1 4.46124 2.94749 0
M  V30 29804 C 2895.4 5.14959 0.872585 0
M  V30 29805 H 2897.1 2.98562 0.2239 0
M  V30 29806 H 2894.64 1.43607 0.106252 0
M  V30 29807 H 2896.6 3.28237 2.64269 0
M  V30 29808 H 2895.32 2.04332 2.54786 0
M  V30 29809 H 2893.98 3.52338 1.0126 0
M  V30 29810 H 2893.63 3.62558 3.48655 0
M  V30 29811 H 2893.33 5.20695 2.72307 0
M  V30 29812 H 2894.85 4.92353 3.61138 0
M  V30 29813 H 2896.27 5.55214 1.42866 0
M  V30 29814 H 2894.66 5.95429 0.747297 0
M  V30 29815 H 2895.73 4.84721 -0.13162 0
M  V30 29816 N 2897.08 -0.105193 1.57249 0
M  V30 29817 C 2898.03 -1.13446 1.97772 0
M  V30 29818 C 2899.01 -1.36323 0.854678 0
M  V30 29819 O 2900.2 -1.37184 1.11846 0
M  V30 29820 C 2897.33 -2.45741 2.39721 0
M  V30 29821 C 2896.42 -2.2628 3.58689 0
M  V30 29822 N 2896.81 -1.76663 4.73945 0
M  V30 29823 C 2895.11 -2.56885 3.6459 0
M  V30 29824 C 2895.81 -1.71235 5.55926 0
M  V30 29825 N 2894.78 -2.16084 4.98807 0
M  V30 29826 H 2898.58 -0.743614 2.84337 0
M  V30 29827 H 2896.1 -0.312759 1.5936 0
M  V30 29828 H 2898.1 -3.20202 2.66977 0
M  V30 29829 H 2896.76 -2.85571 1.54528 0
M  V30 29830 H 2897.77 -1.46007 4.96893 0
M  V30 29831 H 2894.44 -3.00308 2.90036 0
M  V30 29832 H 2895.83 -1.3401 6.584 0
M  V30 29833 N 2898.55 -1.53055 -0.375752 0
M  V30 29834 C 2899.49 -1.75045 -1.4796 0
M  V30 29835 C 2900.5 -0.631057 -1.50072 0
M  V30 29836 O 2901.69 -0.90708 -1.53735 0
M  V30 29837 C 2898.79 -1.80609 -2.86764 0
M  V30 29838 C 2897.96 -3.10109 -3.08465 0
M  V30 29839 C 2897.02 -3.07048 -4.27326 0
M  V30 29840 O 2896.05 -3.80877 -4.22991 0
M  V30 29841 N 2897.25 -2.27156 -5.3421 0
M  V30 29842 H 2900.01 -2.70288 -1.29479 0
M  V30 29843 H 2897.57 -1.51707 -0.56539 0
M  V30 29844 H 2899.57 -1.76051 -3.64401 0
M  V30 29845 H 2898.14 -0.92695 -2.9854 0
M  V30 29846 H 2897.36 -3.28052 -2.18577 0
M  V30 29847 H 2898.64 -3.95712 -3.19827 0
M  V30 29848 H 2898.04 -1.66666 -5.40591 0
M  V30 29849 H 2896.6 -2.28426 -6.10463 0
M  V30 29850 N 2900.03 0.634971 -1.44242 0
M  V30 29851 C 2901.28 1.39489 -1.48035 0
M  V30 29852 C 2901.63 1.92086 -0.109825 0
M  V30 29853 O 2900.93 1.70486 0.874364 0
M  V30 29854 C 2901.12 2.58042 -2.47284 0
M  V30 29855 C 2900.95 2.1705 -3.93852 0
M  V30 29856 C 2899.72 2.0451 -4.62065 0
M  V30 29857 C 2901.92 1.762 -4.83175 0
M  V30 29858 N 2899.9 1.57041 -5.93474 0
M  V30 29859 C 2901.27 1.39948 -6.03999 0
M  V30 29860 C 2903.33 1.63546 -4.70274 0
M  V30 29861 C 2902.03 0.923071 -7.13353 0
M  V30 29862 C 2904.05 1.1731 -5.79648 0
M  V30 29863 C 2903.42 0.820058 -6.9961 0
M  V30 29864 H 2899.52 0.505382 -0.596752 0
M  V30 29865 H 2902.1 0.728838 -1.80544 0
M  V30 29866 H 2900.27 3.2228 -2.16772 0
M  V30 29867 H 2902 3.24823 -2.41397 0
M  V30 29868 H 2898.76 2.24843 -4.16824 0
M  V30 29869 H 2899.18 1.35616 -6.63278 0
M  V30 29870 H 2903.82 1.89474 -3.77968 0
M  V30 29871 H 2901.54 0.6513 -8.05471 0
M  V30 29872 H 2905.13 1.07983 -5.71691 0
M  V30 29873 H 2904.01 0.467763 -7.82804 0
M  V30 29874 N 2901.51 1.31076 0.875027 0
M  V30 29875 C 2902.76 1.19834 1.62243 0
M  V30 29876 C 2903.07 -0.243536 1.94078 0
M  V30 29877 O 2904.28 -0.477599 2.67266 0
M  V30 29878 C 2902.73 2.09749 2.92461 0
M  V30 29879 C 2902.34 3.58903 2.68128 0
M  V30 29880 C 2904.09 2.07294 3.70445 0
M  V30 29881 C 2901.99 4.40843 3.94223 0
M  V30 29882 H 2900.92 0.444927 0.608733 0
M  V30 29883 H 2903.57 1.55896 0.96792 0
M  V30 29884 H 2901.96 1.6658 3.59259 0
M  V30 29885 H 2903.13 4.10285 2.09769 0
M  V30 29886 H 2901.45 3.63283 2.03505 0
M  V30 29887 H 2904.04 2.6576 4.63978 0
M  V30 29888 H 2904.39 1.05883 4.0261 0
M  V30 29889 H 2904.92 2.48637 3.10523 0
M  V30 29890 H 2901.66 5.42988 3.67211 0
M  V30 29891 H 2901.18 3.94221 4.52051 0
M  V30 29892 H 2902.86 4.52794 4.62154 0
M  V30 29893 N 2902.99 -1.08867 1.13955 0
M  V30 29894 C 2904.21 -1.85451 0.928592 0
M  V30 29895 C 2904.64 -1.80838 -0.51761 0
M  V30 29896 O 2904 -1.19003 -1.36777 0
M  V30 29897 C 2904.04 -3.31111 1.4282 0
M  V30 29898 O 2903.15 -4.07755 0.617201 0
M  V30 29899 H 2902.49 -0.574833 0.33236 0
M  V30 29900 H 2905.02 -1.3744 1.51563 0
M  V30 29901 H 2905.03 -3.81957 1.43432 0
M  V30 29902 H 2903.7 -3.33784 2.48115 0
M  V30 29903 H 2902.28 -3.66658 0.67943 0
M  V30 29904 N 2904.47 -0.933936 -1.26946 0
M  V30 29905 C 2905.69 -0.593624 -1.98723 0
M  V30 29906 C 2906.12 0.822772 -1.69151 0
M  V30 29907 O 2905.47 1.55309 -0.935357 0
M  V30 29908 C 2905.52 -0.833604 -3.50832 0
M  V30 29909 O 2904.63 0.0978064 -4.12284 0
M  V30 29910 H 2903.97 -0.22786 -0.623679 0
M  V30 29911 H 2906.5 -1.25489 -1.61597 0
M  V30 29912 H 2906.51 -0.75163 -4.01017 0
M  V30 29913 H 2905.18 -1.86604 -3.71688 0
M  V30 29914 H 2903.76 -0.0346098 -3.72884 0
M  V30 29915 N 2905.94 1.41194 -0.700139 0
M  V30 29916 C 2906.85 2.34569 -0.0383266 0
M  V30 29917 C 2907.87 1.56476 0.761009 0
M  V30 29918 O 2909.05 1.88935 0.69752 0
M  V30 29919 C 2906.11 3.35255 0.883463 0
M  V30 29920 C 2905.17 4.29233 0.0758202 0
M  V30 29921 C 2904.41 5.2511 0.953707 0
M  V30 29922 O 2904.63 5.26551 2.19317 0
M  V30 29923 O 2903.56 6.00563 0.400943 0
M  V30 29924 H 2907.39 2.92751 -0.808125 0
M  V30 29925 H 2904.97 1.42126 -0.460504 0
M  V30 29926 H 2906.86 3.97043 1.41192 0
M  V30 29927 H 2905.53 2.79509 1.63267 0
M  V30 29928 H 2904.44 3.70779 -0.49734 0
M  V30 29929 H 2905.77 4.88089 -0.634827 0
M  V30 29930 N 2907.42 0.445212 1.51181 0
M  V30 29931 C 2908.66 -0.117681 2.04061 0
M  V30 29932 C 2909.03 -1.39276 1.3216 0
M  V30 29933 O 2910.23 -2.03639 1.75455 0
M  V30 29934 C 2908.5 -0.323383 3.55934 0
M  V30 29935 S 2910.06 -0.848551 4.30517 0
M  V30 29936 H 2906.88 -0.0281525 0.710442 0
M  V30 29937 H 2909.48 0.606424 1.85857 0
M  V30 29938 H 2908.18 0.610835 4.05829 0
M  V30 29939 H 2907.71 -1.07434 3.78446 0
M  V30 29940 H 2909.73 -2.1252 4.48385 0
M  V30 29941 N 2908.9 -1.56605 0.176849 0
M  V30 29942 C 2910.13 -2.01426 -0.472793 0
M  V30 29943 C 2910.54 -1.05706 -1.56434 0
M  V30 29944 O 2909.9 -0.05884 -1.82405 0
M  V30 29945 C 2909.95 -3.46036 -1.04601 0
M  V30 29946 O 2909.67 -4.381 0.00197309 0
M  V30 29947 C 2911.17 -4.06285 -1.77333 0
M  V30 29948 H 2908.39 -0.660093 -0.120492 0
M  V30 29949 H 2910.94 -2.02571 0.280202 0
M  V30 29950 H 2909.09 -3.45648 -1.74947 0
M  V30 29951 H 2909.51 -5.22799 -0.422026 0
M  V30 29952 H 2910.98 -5.09377 -2.12694 0
M  V30 29953 H 2911.46 -3.48694 -2.67037 0
M  V30 29954 H 2912.06 -4.10393 -1.11616 0
M  V30 29955 N 2910.38 0.0968524 -1.57302 0
M  V30 29956 C 2911.61 0.814261 -1.90204 0
M  V30 29957 C 2912.02 1.72368 -0.770374 0
M  V30 29958 O 2911.38 1.80671 0.257732 0
M  V30 29959 C 2911.43 1.6291 -3.22711 0
M  V30 29960 O 2911.15 0.756267 -4.31523 0
M  V30 29961 C 2912.65 2.44972 -3.69464 0
M  V30 29962 H 2909.87 0.232914 -0.629279 0
M  V30 29963 H 2912.42 0.0746122 -2.04364 0
M  V30 29964 H 2910.57 2.32128 -3.10154 0
M  V30 29965 H 2910.98 1.32046 -5.07606 0
M  V30 29966 H 2912.46 2.97641 -4.6488 0
M  V30 29967 H 2912.94 3.23355 -2.97217 0
M  V30 29968 H 2913.54 1.80957 -3.84883 0
M  V30 29969 N 2911.86 1.53252 0.36763 0
M  V30 29970 C 2913.27 1.61045 0.944535 0
M  V30 29971 C 2913.62 0.476579 1.90324 0
M  V30 29972 O 2912.74 -0.397296 2.12722 0
M  V30 29973 C 2913.34 2.91901 1.71987 0
M  V30 29974 C 2911.9 3.02035 2.24614 0
M  V30 29975 C 2911.04 2.56326 1.05795 0
M  V30 29976 H 2914 1.58022 0.146489 0
M  V30 29977 H 2914.02 2.79588 2.5809 0
M  V30 29978 H 2913.53 3.74406 1.02185 0
M  V30 29979 H 2911.63 2.24114 2.97664 0
M  V30 29980 H 2911.74 4.07077 2.52636 0
M  V30 29981 H 2910.11 2.11152 1.42432 0
M  V30 29982 H 2910.89 3.41246 0.374948 0
M  V30 29983 N 2913.34 -0.627313 1.44577 0
M  V30 29984 C 2914.58 -1.39832 1.49085 0
M  V30 29985 C 2914.94 -1.91614 0.121677 0
M  V30 29986 O 2916.14 -2.68768 0.0414357 0
M  V30 29987 C 2914.41 -2.52968 2.52472 0
M  V30 29988 S 2915.97 -3.41084 2.76056 0
M  V30 29989 H 2912.79 -0.476988 0.52726 0
M  V30 29990 H 2915.39 -0.725841 1.81526 0
M  V30 29991 H 2914.09 -2.13243 3.5065 0
M  V30 29992 H 2913.63 -3.25039 2.21616 0
M  V30 29993 H 2915.64 -4.50528 2.0794 0
M  V30 29994 N 2914.81 -1.31539 -0.868063 0
M  V30 29995 C 2916.04 -1.24435 -1.65924 0
M  V30 29996 C 2916.46 0.186903 -1.87169 0
M  V30 29997 O 2915.82 1.13369 -1.41482 0
M  V30 29998 C 2915.87 -1.99565 -3.00343 0
M  V30 29999 O 2914.97 -1.33429 -3.90218 0
M  V30 30000 H 2914.31 -0.429521 -0.506367 0
M  V30 30001 H 2916.84 -1.73639 -1.08216 0
M  V30 30002 H 2916.85 -2.09233 -3.50265 0
M  V30 30003 H 2915.53 -3.0365 -2.842 0
M  V30 30004 H 2914.11 -1.32225 -3.4867 0
M  V30 30005 N 2916.29 1.08262 -1.1453 0
M  V30 30006 C 2917.54 1.8032 -0.91263 0
M  V30 30007 C 2917.86 1.86719 0.562224 0
M  V30 30008 O 2917.13 1.36137 1.40867 0
M  V30 30009 H 2915.71 0.667843 -0.334657 0
M  V30 30010 H 2918.37 1.30881 -1.44417 0
M  V30 30011 H 2917.47 2.83096 -1.31389 0
M  V30 30012 N 2917.77 0.940655 1.26449 0
M  V30 30013 C 2918.99 0.604155 1.98405 0
M  V30 30014 C 2919.42 -0.81379 1.69585 0
M  V30 30015 O 2918.78 -1.5481 0.943581 0
M  V30 30016 C 2918.83 0.852197 3.50385 0
M  V30 30017 O 2917.93 -0.0759406 4.1233 0
M  V30 30018 H 2917.27 0.231164 0.622462 0
M  V30 30019 H 2919.8 1.26344 1.60929 0
M  V30 30020 H 2919.81 0.772887 4.00613 0
M  V30 30021 H 2918.49 1.88572 3.70693 0
M  V30 30022 H 2917.06 0.0543843 3.7286 0
M  V30 30023 N 2919.25 -1.40821 0.707617 0
M  V30 30024 C 2920.49 -2.01822 0.252864 0
M  V30 30025 C 2920.85 -1.55083 -1.13873 0
M  V30 30026 O 2920.14 -0.75747 -1.75991 0
M  V30 30027 C 2920.34 -3.56431 0.262955 0
M  V30 30028 C 2920.16 -4.18178 1.65399 0
M  V30 30029 C 2918.93 -4.51956 2.25974 0
M  V30 30030 C 2921.13 -4.43575 2.6028 0
M  V30 30031 N 2919.11 -4.99054 3.57517 0
M  V30 30032 C 2920.49 -4.92579 3.76518 0
M  V30 30033 C 2922.54 -4.25602 2.58393 0
M  V30 30034 C 2921.24 -5.25499 4.91166 0
M  V30 30035 C 2923.27 -4.59618 3.72163 0
M  V30 30036 C 2922.63 -5.08804 4.87132 0
M  V30 30037 H 2918.73 -0.769694 0.138186 0
M  V30 30038 H 2921.31 -1.71178 0.927697 0
M  V30 30039 H 2919.49 -3.86523 -0.381411 0
M  V30 30040 H 2921.22 -4.04166 -0.207759 0
M  V30 30041 H 2917.97 -4.38818 1.78146 0
M  V30 30042 H 2918.4 -5.26995 4.24977 0
M  V30 30043 H 2923.04 -3.86802 1.70717 0
M  V30 30044 H 2920.76 -5.63217 5.79493 0
M  V30 30045 H 2924.34 -4.4736 3.71969 0
M  V30 30046 H 2923.22 -5.3463 5.73707 0
M  V30 30047 N 2920.73 -0.453223 -1.50943 0
M  V30 30048 C 2921.66 0.340399 -2.31005 0
M  V30 30049 C 2922.64 1.00667 -1.37114 0
M  V30 30050 O 2923.82 1.00727 -1.66035 0
M  V30 30051 C 2920.95 1.43295 -3.1636 0
M  V30 30052 C 2919.91 0.889289 -4.18659 0
M  V30 30053 C 2919.23 2.07879 -4.92636 0
M  V30 30054 C 2920.53 -0.087206 -5.22227 0
M  V30 30055 H 2922.23 -0.327775 -2.976 0
M  V30 30056 H 2919.77 -0.159079 -1.43119 0
M  V30 30057 H 2921.72 1.99549 -3.71158 0
M  V30 30058 H 2920.45 2.12964 -2.47617 0
M  V30 30059 H 2919.11 0.348851 -3.64936 0
M  V30 30060 H 2918.76 2.76204 -4.20381 0
M  V30 30061 H 2918.46 1.72133 -5.61822 0
M  V30 30062 H 2919.98 2.64656 -5.50263 0
M  V30 30063 H 2921.39 0.385555 -5.72002 0
M  V30 30064 H 2919.79 -0.358031 -5.99031 0
M  V30 30065 H 2920.86 -1.01887 -4.74075 0
M  V30 30066 N 2922.2 1.56509 -0.185151 0
M  V30 30067 C 2923.62 1.58683 0.170837 0
M  V30 30068 C 2923.82 1.201 1.61797 0
M  V30 30069 O 2922.88 0.919079 2.35179 0
M  V30 30070 C 2924.19 3.0045 -0.122512 0
M  V30 30071 C 2925.74 3.12939 -0.0618249 0
M  V30 30072 C 2926.21 4.56821 -0.32835 0
M  V30 30073 N 2927.7 4.62373 -0.276614 0
M  V30 30074 C 2928.44 5.71577 -0.456823 0
M  V30 30075 N 2927.93 6.89287 -0.696841 0
M  V30 30076 N 2929.73 5.60733 -0.391767 0
M  V30 30077 H 2921.88 1.79872 -1.1296 0
M  V30 30078 H 2924.14 0.834321 -0.450124 0
M  V30 30079 H 2923.85 3.33204 -1.12552 0
M  V30 30080 H 2923.72 3.72722 0.579513 0
M  V30 30081 H 2926.11 2.80003 0.931776 0
M  V30 30082 H 2926.19 2.43074 -0.796774 0
M  V30 30083 H 2925.83 4.90468 -1.31922 0
M  V30 30084 H 2925.76 5.24863 0.427373 0
M  V30 30085 H 2928.25 3.77775 -0.0973123 0
M  V30 30086 H 2928.57 7.68401 -0.823426 0
M  V30 30087 H 2926.91 6.91117 -0.733619 0
M  V30 30088 H 2930.1 4.67652 -0.204745 0
M  V30 30089 H 2930.28 6.45782 -0.535632 0
M  V30 30090 N 2923.68 -0.0885089 1.57351 0
M  V30 30091 C 2924.96 -0.822842 1.7745 0
M  V30 30092 C 2925.34 -1.96615 0.768497 0
M  V30 30093 O 2924.69 -2.27608 -0.201717 0
M  V30 30094 C 2924.9 -1.31132 3.23428 0
M  V30 30095 C 2926.24 -1.75145 3.86794 0
M  V30 30096 O 2927.27 -1.40739 3.27217 0
M  V30 30097 O 2926.13 -2.38786 4.91573 0
M  V30 30098 H 2923.22 -0.392989 0.727659 0
M  V30 30099 H 2925.77 -0.0698797 1.69556 0
M  V30 30100 H 2924.54 -0.492472 3.88189 0
M  V30 30101 H 2924.16 -2.12609 3.35981 0
M  V30 30102 N 2925.16 -1.53445 -0.359498 0
M  V30 30103 C 2926.41 -1.69141 -1.09883 0
M  V30 30104 C 2926.72 -0.452896 -1.90285 0
M  V30 30105 O 2927.93 -0.490506 -2.67032 0
M  V30 30106 C 2926.38 -2.99029 -2.00274 0
M  V30 30107 C 2925.99 -4.30163 -1.25156 0
M  V30 30108 C 2927.74 -3.24091 -2.74163 0
M  V30 30109 C 2925.64 -5.51136 -2.14484 0
M  V30 30110 H 2924.57 -0.630224 -0.413925 0
M  V30 30111 H 2927.22 -1.79946 -0.359402 0
M  V30 30112 H 2925.61 -2.82041 -2.77973 0
M  V30 30113 H 2926.78 -4.57802 -0.524787 0
M  V30 30114 H 2925.09 -4.11591 -0.631044 0
M  V30 30115 H 2927.69 -4.11658 -3.41236 0
M  V30 30116 H 2928.03 -2.40413 -3.39864 0
M  V30 30117 H 2928.57 -3.41781 -2.03544 0
M  V30 30118 H 2925.31 -6.3731 -1.53351 0
M  V30 30119 H 2924.83 -5.27767 -2.84995 0
M  V30 30120 H 2926.51 -5.86162 -2.73904 0
M  V30 30121 N 2926.64 0.619637 -1.44908 0
M  V30 30122 C 2927.88 1.37911 -1.49506 0
M  V30 30123 C 2928.24 1.91959 -0.130192 0
M  V30 30124 O 2927.53 1.71404 0.856233 0
M  V30 30125 C 2927.73 2.55404 -2.50007 0
M  V30 30126 C 2927.55 2.12861 -3.96132 0
M  V30 30127 C 2926.32 1.99598 -4.64208 0
M  V30 30128 C 2928.52 1.71065 -4.85017 0
M  V30 30129 N 2926.5 1.50737 -5.95106 0
M  V30 30130 C 2927.88 1.33533 -6.05449 0
M  V30 30131 C 2929.93 1.58548 -4.71982 0
M  V30 30132 C 2928.63 0.847358 -7.14291 0
M  V30 30133 C 2930.66 1.11155 -5.8086 0
M  V30 30134 C 2930.02 0.745809 -7.00441 0
M  V30 30135 H 2926.12 0.499024 -0.602079 0
M  V30 30136 H 2928.7 0.709648 -1.81307 0
M  V30 30137 H 2926.88 3.19963 -2.20178 0
M  V30 30138 H 2928.61 3.22244 -2.44828 0
M  V30 30139 H 2925.36 2.2041 -4.19186 0
M  V30 30140 H 2925.79 1.28574 -6.64679 0
M  V30 30141 H 2930.43 1.85454 -3.79956 0
M  V30 30142 H 2928.15 0.565832 -8.06117 0
M  V30 30143 H 2931.73 1.01913 -5.72804 0
M  V30 30144 H 2930.61 0.38471 -7.83256 0
M  V30 30145 N 2928.12 1.31997 0.861075 0
M  V30 30146 C 2929.39 1.12817 1.59786 0
M  V30 30147 C 2929.77 -0.313846 2.08754 0
M  V30 30148 O 2929.12 -1.30942 1.8726 0
M  V30 30149 C 2929.33 2.15017 2.74898 0
M  V30 30150 C 2930.68 2.4801 3.44639 0
M  V30 30151 O 2931.7 2.13513 2.85115 0
M  V30 30152 O 2930.56 3.07121 4.52039 0
M  V30 30153 H 2927.66 0.434921 0.703401 0
M  V30 30154 H 2930.2 1.43506 0.905763 0
M  V30 30155 H 2928.97 3.11976 2.36193 0
M  V30 30156 H 2928.6 1.85285 3.51788 0
M  V30 30157 N 2929.59 -1.07653 1.15103 0
M  V30 30158 C 2930.84 -1.80618 0.935345 0
M  V30 30159 C 2931.2 -1.84898 -0.53202 0
M  V30 30160 O 2930.49 -1.31946 -1.38928 0
M  V30 30161 C 2930.68 -3.25335 1.4796 0
M  V30 30162 C 2930.51 -3.35155 2.99835 0
M  V30 30163 C 2929.28 -3.45895 3.68354 0
M  V30 30164 C 2931.48 -3.26166 3.97644 0
M  V30 30165 N 2929.46 -3.44587 5.08068 0
M  V30 30166 C 2930.83 -3.31939 5.23657 0
M  V30 30167 C 2932.89 -3.09955 3.89657 0
M  V30 30168 C 2931.59 -3.23171 6.42614 0
M  V30 30169 C 2933.62 -3.02519 5.08169 0
M  V30 30170 C 2932.98 -3.08902 6.33055 0
M  V30 30171 H 2929.08 -0.674386 0.395888 0
M  V30 30172 H 2931.66 -1.28523 1.46253 0
M  V30 30173 H 2929.83 -3.75857 0.979088 0
M  V30 30174 H 2931.56 -3.86405 1.20305 0
M  V30 30175 H 2928.32 -3.50112 3.18934 0
M  V30 30176 H 2928.74 -3.47469 5.81029 0
M  V30 30177 H 2933.39 -3.03876 2.93971 0
M  V30 30178 H 2931.1 -3.28009 7.38536 0
M  V30 30179 H 2934.69 -2.91084 5.03747 0
M  V30 30180 H 2933.57 -3.03188 7.2322 0
M  V30 30181 N 2931.07 -0.947348 -1.25949 0
M  V30 30182 C 2932.32 -0.593921 -1.92758 0
M  V30 30183 C 2932.63 0.872062 -1.75084 0
M  V30 30184 O 2933.84 1.33513 -2.36403 0
M  V30 30185 C 2932.3 -1.0115 -3.45394 0
M  V30 30186 C 2931.9 -2.49952 -3.7179 0
M  V30 30187 C 2933.65 -0.730259 -4.18172 0
M  V30 30188 C 2931.56 -2.85548 -5.17896 0
M  V30 30189 H 2930.49 -0.218415 -0.721672 0
M  V30 30190 H 2933.14 -1.15082 -1.42928 0
M  V30 30191 H 2931.52 -0.383076 -3.94143 0
M  V30 30192 H 2932.69 -3.17751 -3.33722 0
M  V30 30193 H 2931.01 -2.75471 -3.12258 0
M  V30 30194 H 2933.6 -0.972459 -5.25783 0
M  V30 30195 H 2933.95 0.33315 -4.14965 0
M  V30 30196 H 2934.48 -1.31869 -3.75307 0
M  V30 30197 H 2931.22 -3.90877 -5.26209 0
M  V30 30198 H 2930.74 -2.22416 -5.57038 0
M  V30 30199 H 2932.42 -2.74346 -5.85955 0
M  V30 30200 N 2932.55 1.40444 -0.715075 0
M  V30 30201 C 2933.79 2.02755 -0.258778 0
M  V30 30202 C 2934.15 1.55474 1.12659 0
M  V30 30203 O 2935.36 2.09845 1.67984 0
M  V30 30204 C 2933.63 3.55824 -0.335263 0
M  V30 30205 S 2935.19 4.38778 0.0441239 0
M  V30 30206 H 2932 0.703544 -0.102695 0
M  V30 30207 H 2934.61 1.71573 -0.937181 0
M  V30 30208 H 2933.31 3.87728 -1.34518 0
M  V30 30209 H 2932.84 3.91734 0.361636 0
M  V30 30210 H 2934.86 4.7977 1.26631 0
M  V30 30211 N 2934.03 0.461222 1.507 0
M  V30 30212 C 2934.94 -0.34362 2.3207 0
M  V30 30213 C 2935.95 -1.00533 1.42018 0
M  V30 30214 O 2937.13 -0.995468 1.75078 0
M  V30 30215 C 2934.2 -1.41687 3.16426 0
M  V30 30216 C 2933.26 -0.772795 4.22287 0
M  V30 30217 C 2932.49 -1.7949 5.02612 0
M  V30 30218 O 2932.71 -3.02021 4.8388 0
M  V30 30219 O 2931.65 -1.37219 5.8605 0
M  V30 30220 H 2935.47 0.321321 3.01995 0
M  V30 30221 H 2933.06 0.223261 1.47722 0
M  V30 30222 H 2934.94 -2.03876 3.68799 0
M  V30 30223 H 2933.61 -2.06546 2.4924 0
M  V30 30224 H 2932.52 -0.112211 3.73932 0
M  V30 30225 H 2933.85 -0.167313 4.91916 0
M  V30 30226 N 2935.51 -1.56408 0.193449 0
M  V30 30227 C 2936.75 -1.97826 -0.446414 0
M  V30 30228 C 2937.09 -1.08022 -1.61385 0
M  V30 30229 O 2936.36 -0.131873 -1.94052 0
M  V30 30230 C 2936.64 -3.48461 -0.908137 0
M  V30 30231 C 2936.5 -4.49042 0.260993 0
M  V30 30232 C 2937.82 -4.02753 -1.77421 0
M  V30 30233 H 2934.93 -0.719246 -0.160794 0
M  V30 30234 H 2937.58 -1.87865 0.284039 0
M  V30 30235 H 2935.73 -3.5708 -1.53056 0
M  V30 30236 H 2937.4 -4.52463 0.898628 0
M  V30 30237 H 2935.64 -4.24083 0.913024 0
M  V30 30238 H 2936.31 -5.51901 -0.10456 0
M  V30 30239 H 2938.79 -3.96903 -1.24929 0
M  V30 30240 H 2937.66 -5.08525 -2.06624 0
M  V30 30241 H 2937.93 -3.47911 -2.72782 0
M  V30 30242 N 2936.98 0.0801629 -1.57396 0
M  V30 30243 C 2937.91 1.09662 -2.06147 0
M  V30 30244 C 2938.9 1.40877 -0.953298 0
M  V30 30245 O 2940.08 1.50649 -1.2255 0
M  V30 30246 C 2937.21 2.4124 -2.49841 0
M  V30 30247 C 2936.16 2.24398 -3.64458 0
M  V30 30248 C 2935.49 3.61286 -3.94178 0
M  V30 30249 C 2936.79 1.67214 -4.9481 0
M  V30 30250 H 2938.48 0.690977 -2.91317 0
M  V30 30251 H 2936.03 0.330932 -1.40146 0
M  V30 30252 H 2937.98 3.12633 -2.82557 0
M  V30 30253 H 2936.71 2.83768 -1.61688 0
M  V30 30254 H 2935.37 1.55448 -3.32011 0
M  V30 30255 H 2935.01 4.01369 -3.0317 0
M  V30 30256 H 2934.71 3.50859 -4.71351 0
M  V30 30257 H 2936.24 4.34123 -4.29383 0
M  V30 30258 H 2937.65 2.28463 -5.25811 0
M  V30 30259 H 2936.05 1.67505 -5.76248 0
M  V30 30260 H 2937.12 0.632859 -4.80752 0
M  V30 30261 N 2938.46 1.53634 0.351355 0
M  V30 30262 C 2939.69 1.74741 1.11715 0
M  V30 30263 C 2940.11 0.481688 1.81828 0
M  V30 30264 O 2939.47 -0.565202 1.72265 0
M  V30 30265 C 2939.52 2.92258 2.11229 0
M  V30 30266 O 2938.62 2.6186 3.18595 0
M  V30 30267 H 2937.96 0.579881 0.323472 0
M  V30 30268 H 2940.49 2.00569 0.404132 0
M  V30 30269 H 2940.5 3.18826 2.54585 0
M  V30 30270 H 2939.18 3.84061 1.59593 0
M  V30 30271 H 2937.76 2.46155 2.80111 0
M  V30 30272 N 2939.94 -0.611943 1.45234 0
M  V30 30273 C 2941.22 -1.37112 1.39498 0
M  V30 30274 C 2941.6 -2.11005 0.0633674 0
M  V30 30275 O 2940.95 -2.07605 -0.95458 0
M  V30 30276 C 2941.16 -2.32158 2.60583 0
M  V30 30277 C 2942.5 -2.949 3.05482 0
M  V30 30278 O 2943.53 -2.4248 2.60925 0
M  V30 30279 O 2942.39 -3.9004 3.82794 0
M  V30 30280 H 2939.48 -0.61459 0.553361 0
M  V30 30281 H 2942.03 -0.635395 1.57356 0
M  V30 30282 H 2940.8 -1.76787 3.49088 0
M  V30 30283 H 2940.42 -3.13118 2.45037 0
M  V30 30284 N 2941.42 -1.32452 -0.854063 0
M  V30 30285 C 2942.67 -1.23046 -1.60829 0
M  V30 30286 C 2942.99 0.207566 -1.93389 0
M  V30 30287 O 2942.25 1.16072 -1.57562 0
M  V30 30288 C 2942.55 -2.03592 -2.93743 0
M  V30 30289 C 2942.21 -3.52944 -2.80609 0
M  V30 30290 C 2940.88 -3.93664 -2.76735 0
M  V30 30291 C 2943.23 -4.47915 -2.66499 0
M  V30 30292 C 2940.56 -5.27597 -2.56629 0
M  V30 30293 C 2942.91 -5.81992 -2.47929 0
M  V30 30294 C 2941.57 -6.21913 -2.42447 0
M  V30 30295 H 2940.84 -0.450257 -0.588515 0
M  V30 30296 H 2943.49 -1.63884 -0.99067 0
M  V30 30297 H 2941.79 -1.55484 -3.59627 0
M  V30 30298 H 2943.49 -1.93683 -3.51124 0
M  V30 30299 H 2940.08 -3.20603 -2.8445 0
M  V30 30300 H 2944.26 -4.17375 -2.68537 0
M  V30 30301 H 2939.52 -5.57583 -2.50821 0
M  V30 30302 H 2943.69 -6.55196 -2.35991 0
M  V30 30303 H 2941.32 -7.25634 -2.26627 0
M  V30 30304 N 2942.9 1.07041 -1.15672 0
M  V30 30305 C 2943.84 2.14324 -0.856374 0
M  V30 30306 C 2944.81 1.64986 0.192022 0
M  V30 30307 O 2946 1.90709 0.0588813 0
M  V30 30308 C 2943.14 3.43266 -0.355288 0
M  V30 30309 C 2942.25 4.06379 -1.46562 0
M  V30 30310 C 2941.39 5.23167 -0.920337 0
M  V30 30311 C 2940.43 5.78247 -2.00739 0
M  V30 30312 N 2939.56 6.86361 -1.47825 0
M  V30 30313 H 2944.4 2.39356 -1.77518 0
M  V30 30314 H 2941.94 1.17447 -0.885696 0
M  V30 30315 H 2943.9 4.17174 -0.0464537 0
M  V30 30316 H 2942.53 3.18476 0.526593 0
M  V30 30317 H 2941.58 3.30093 -1.89058 0
M  V30 30318 H 2942.89 4.4332 -2.28624 0
M  V30 30319 H 2942.05 6.04071 -0.564233 0
M  V30 30320 H 2940.79 4.87651 -0.0689335 0
M  V30 30321 H 2939.79 4.95986 -2.37229 0
M  V30 30322 H 2941.02 6.15817 -2.86263 0
M  V30 30323 H 2938.96 6.52779 -0.64926 0
M  V30 30324 H 2938.88 7.22204 -2.23511 0
M  V30 30325 H 2940.15 7.70963 -1.15049 0
M  V30 30326 N 2944.38 0.954014 1.25445 0
M  V30 30327 C 2945.6 0.625629 1.97214 0
M  V30 30328 C 2946.02 -0.802138 1.70913 0
M  V30 30329 O 2945.38 -1.53648 0.984809 0
M  V30 30330 C 2945.43 0.874004 3.50775 0
M  V30 30331 O 2945.15 2.24563 3.76169 0
M  V30 30332 C 2946.65 0.557922 4.39775 0
M  V30 30333 H 2943.87 0.234611 0.628648 0
M  V30 30334 H 2946.41 1.27822 1.5963 0
M  V30 30335 H 2944.57 0.267833 3.86473 0
M  V30 30336 H 2944.98 2.3153 4.70632 0
M  V30 30337 H 2946.46 0.782253 5.46429 0
M  V30 30338 H 2946.93 -0.507496 4.36258 0
M  V30 30339 H 2947.54 1.14339 4.09642 0
M  V30 30340 N 2945.85 -1.40063 0.722513 0
M  V30 30341 C 2947.1 -2.01543 0.274256 0
M  V30 30342 C 2947.45 -1.56282 -1.12222 0
M  V30 30343 O 2946.75 -0.776094 -1.75178 0
M  V30 30344 C 2946.94 -3.56132 0.300745 0
M  V30 30345 C 2946.77 -4.16401 1.69825 0
M  V30 30346 C 2945.54 -4.49533 2.30755 0
M  V30 30347 C 2947.74 -4.40789 2.6497 0
M  V30 30348 N 2945.72 -4.95234 3.6279 0
M  V30 30349 C 2947.09 -4.88558 3.81721 0
M  V30 30350 C 2949.15 -4.22838 2.62893 0
M  V30 30351 C 2947.85 -5.20259 4.96712 0
M  V30 30352 C 2949.88 -4.55645 3.77017 0
M  V30 30353 C 2949.24 -5.03609 4.92501 0
M  V30 30354 H 2945.34 -0.768185 0.146342 0
M  V30 30355 H 2947.92 -1.70184 0.9458 0
M  V30 30356 H 2946.09 -3.86906 -0.340393 0
M  V30 30357 H 2947.82 -4.04364 -0.16488 0
M  V30 30358 H 2944.58 -4.36903 1.8279 0
M  V30 30359 H 2945 -5.22458 4.30543 0
M  V30 30360 H 2949.64 -3.84969 1.7481 0
M  V30 30361 H 2947.36 -5.57039 5.85434 0
M  V30 30362 H 2950.95 -4.43389 3.76693 0
M  V30 30363 H 2949.83 -5.28515 5.79346 0
M  V30 30364 N 2947.33 -0.469207 -1.50453 0
M  V30 30365 C 2948.26 0.315879 -2.31354 0
M  V30 30366 C 2949.24 0.99207 -1.38174 0
M  V30 30367 O 2950.43 0.989604 -1.67094 0
M  V30 30368 C 2947.56 1.39931 -3.17862 0
M  V30 30369 C 2946.51 0.844835 -4.19579 0
M  V30 30370 C 2945.84 2.02642 -4.94814 0
M  V30 30371 C 2947.14 -0.14259 -5.22105 0
M  V30 30372 H 2948.83 -0.359322 -2.97236 0
M  V30 30373 H 2946.38 -0.174249 -1.42942 0
M  V30 30374 H 2948.33 1.95601 -3.73254 0
M  V30 30375 H 2947.05 2.10326 -2.49861 0
M  V30 30376 H 2945.71 0.310125 -3.65286 0
M  V30 30377 H 2945.36 2.7173 -4.23287 0
M  V30 30378 H 2945.06 1.66164 -5.63616 0
M  V30 30379 H 2946.59 2.58805 -5.53039 0
M  V30 30380 H 2948 0.324865 -5.72379 0
M  V30 30381 H 2946.4 -0.421546 -5.98618 0
M  V30 30382 H 2947.47 -1.06909 -4.72968 0
M  V30 30383 N 2948.81 1.56303 -0.201741 0
M  V30 30384 C 2949.76 2.19398 0.71646 0
M  V30 30385 C 2950.73 1.14328 1.20492 0
M  V30 30386 O 2951.91 1.42606 1.2676 0
M  V30 30387 C 2949.05 2.8625 1.92757 0
M  V30 30388 C 2948.16 4.05862 1.47986 0
M  V30 30389 C 2947.3 4.60552 2.64698 0
M  V30 30390 C 2946.34 5.72508 2.16566 0
M  V30 30391 N 2945.48 6.21575 3.2648 0
M  V30 30392 H 2950.32 2.97505 0.171672 0
M  V30 30393 H 2947.85 1.46919 0.0729902 0
M  V30 30394 H 2949.81 3.23183 2.63835 0
M  V30 30395 H 2948.44 2.10695 2.44556 0
M  V30 30396 H 2947.49 3.74548 0.664704 0
M  V30 30397 H 2948.8 4.86817 1.08678 0
M  V30 30398 H 2947.96 4.99825 3.43889 0
M  V30 30399 H 2946.7 3.78719 3.07284 0
M  V30 30400 H 2945.7 5.32757 1.35831 0
M  V30 30401 H 2946.93 6.56164 1.75003 0
M  V30 30402 H 2944.87 5.42662 3.68584 0
M  V30 30403 H 2944.79 6.97599 2.91361 0
M  V30 30404 H 2946.06 6.65503 4.05865 0
M  V30 30405 N 2950.29 -0.0718147 1.57436 0
M  V30 30406 C 2951.25 -1.06973 2.02705 0
M  V30 30407 C 2952.25 -1.31595 0.924085 0
M  V30 30408 O 2953.44 -1.27316 1.18896 0
M  V30 30409 C 2950.57 -2.41338 2.40767 0
M  V30 30410 H 2951.77 -0.679568 2.92099 0
M  V30 30411 H 2949.32 -0.317538 1.5304 0
M  V30 30412 H 2950.05 -2.85187 1.54399 0
M  V30 30413 H 2949.84 -2.24809 3.21253 0
M  V30 30414 H 2951.33 -3.13068 2.76366 0
M  V30 30415 N 2951.77 -1.53818 -0.343203 0
M  V30 30416 C 2952.71 -1.8183 -1.4215 0
M  V30 30417 C 2953.68 -0.664023 -1.5225 0
M  V30 30418 O 2954.87 -0.908491 -1.67783 0
M  V30 30419 C 2952.01 -2.03389 -2.78796 0
M  V30 30420 C 2951.12 -3.31099 -2.77484 0
M  V30 30421 C 2950.26 -3.42724 -4.0585 0
M  V30 30422 C 2949.29 -4.64382 -3.98768 0
M  V30 30423 N 2948.43 -4.73038 -5.18825 0
M  V30 30424 H 2953.27 -2.73831 -1.17562 0
M  V30 30425 H 2950.81 -1.35629 -0.569482 0
M  V30 30426 H 2952.77 -2.13878 -3.58207 0
M  V30 30427 H 2951.4 -1.14701 -3.01734 0
M  V30 30428 H 2950.45 -3.2945 -1.90176 0
M  V30 30429 H 2951.76 -4.20605 -2.68129 0
M  V30 30430 H 2950.91 -3.52647 -4.93685 0
M  V30 30431 H 2949.65 -2.51275 -4.17986 0
M  V30 30432 H 2948.66 -4.54536 -3.09317 0
M  V30 30433 H 2949.88 -5.57195 -3.88214 0
M  V30 30434 H 2947.83 -3.84499 -5.31504 0
M  V30 30435 H 2947.75 -5.56481 -5.11728 0
M  V30 30436 H 2949.01 -4.87271 -6.0843 0
M  V30 30437 N 2953.24 0.604233 -1.45557 0
M  V30 30438 C 2954.17 1.72539 -1.5733 0
M  V30 30439 C 2955.15 1.64714 -0.424666 0
M  V30 30440 O 2956.34 1.83062 -0.648228 0
M  V30 30441 C 2953.47 3.11149 -1.54284 0
M  V30 30442 C 2952.42 3.33788 -2.67899 0
M  V30 30443 C 2951.75 4.72705 -2.49908 0
M  V30 30444 C 2953.05 3.23715 -4.09886 0
M  V30 30445 H 2954.74 1.62942 -2.51177 0
M  V30 30446 H 2952.29 0.782483 -1.20885 0
M  V30 30447 H 2954.24 3.89383 -1.61117 0
M  V30 30448 H 2952.97 3.21593 -0.569684 0
M  V30 30449 H 2951.63 2.57945 -2.60499 0
M  V30 30450 H 2951.27 4.79887 -1.50724 0
M  V30 30451 H 2950.97 4.88807 -3.261 0
M  V30 30452 H 2952.5 5.53135 -2.586 0
M  V30 30453 H 2953.91 3.91819 -4.1851 0
M  V30 30454 H 2952.31 3.51346 -4.86494 0
M  V30 30455 H 2953.38 2.21104 -4.31557 0
M  V30 30456 N 2954.72 1.32903 0.847027 0
M  V30 30457 C 2955.65 1.16813 1.96036 0
M  V30 30458 C 2956.63 0.065643 1.62467 0
M  V30 30459 O 2957.82 0.226372 1.87136 0
M  V30 30460 C 2954.94 0.789897 3.2936 0
M  V30 30461 C 2953.99 1.89872 3.81904 0
M  V30 30462 S 2954.82 3.50833 4.04569 0
M  V30 30463 C 2955.98 3.14998 5.40858 0
M  V30 30464 H 2956.21 2.11059 2.09384 0
M  V30 30465 H 2953.74 1.17651 0.999876 0
M  V30 30466 H 2955.7 0.578441 4.06404 0
M  V30 30467 H 2954.36 -0.133823 3.13815 0
M  V30 30468 H 2953.56 1.58724 4.78354 0
M  V30 30469 H 2953.16 2.06642 3.11729 0
M  V30 30470 H 2955.45 2.65316 6.23389 0
M  V30 30471 H 2956.39 4.10498 5.76972 0
M  V30 30472 H 2956.8 2.51813 5.05223 0
M  V30 30473 N 2956.2 -1.06426 1.16238 0
M  V30 30474 C 2957.61 -1.60666 0.950971 0
M  V30 30475 C 2957.96 -1.89577 -0.505457 0
M  V30 30476 O 2957.09 -1.6682 -1.3784 0
M  V30 30477 C 2957.68 -2.91901 1.71987 0
M  V30 30478 C 2956.24 -3.42847 1.55348 0
M  V30 30479 C 2955.39 -2.1676 1.72946 0
M  V30 30480 H 2958.34 -0.893936 1.31128 0
M  V30 30481 H 2958.36 -3.61251 1.1949 0
M  V30 30482 H 2957.87 -2.70826 2.77983 0
M  V30 30483 H 2955.97 -3.68984 0.517865 0
M  V30 30484 H 2956.09 -4.18263 2.33651 0
M  V30 30485 H 2954.45 -2.26916 1.15677 0
M  V30 30486 H 2955.23 -1.9817 2.80327 0
M  V30 30487 N 2957.68 -0.960653 -1.24937 0
M  V30 30488 C 2958.61 -0.442976 -2.24879 0
M  V30 30489 C 2959.62 0.444437 -1.56616 0
M  V30 30490 O 2960.81 0.251745 -1.76716 0
M  V30 30491 C 2957.91 0.380477 -3.36757 0
M  V30 30492 C 2957.09 -0.49536 -4.34586 0
M  V30 30493 C 2956.14 0.270902 -5.25502 0
M  V30 30494 O 2955.17 -0.332761 -5.68226 0
M  V30 30495 N 2956.37 1.56239 -5.59079 0
M  V30 30496 H 2959.14 -1.30223 -2.6993 0
M  V30 30497 H 2956.7 -0.831684 -1.38905 0
M  V30 30498 H 2958.69 0.900961 -3.94544 0
M  V30 30499 H 2957.26 1.14062 -2.91047 0
M  V30 30500 H 2956.48 -1.19689 -3.75591 0
M  V30 30501 H 2957.77 -1.09294 -4.96923 0
M  V30 30502 H 2957.17 2.07466 -5.26283 0
M  V30 30503 H 2955.72 2.02871 -6.19424 0
M  V30 30504 N 2959.16 1.39677 -0.729931 0
M  V30 30505 C 2960.09 2.33279 -0.101659 0
M  V30 30506 C 2961.07 1.53647 0.729827 0
M  V30 30507 O 2962.25 1.82061 0.675838 0
M  V30 30508 C 2959.38 3.37718 0.810181 0
M  V30 30509 C 2958.34 4.27919 0.0832374 0
M  V30 30510 C 2957.66 5.23014 1.11175 0
M  V30 30511 C 2958.96 5.11198 -1.07116 0
M  V30 30512 H 2960.66 2.86067 -0.883503 0
M  V30 30513 H 2958.2 1.37545 -0.426307 0
M  V30 30514 H 2960.16 4.02147 1.2592 0
M  V30 30515 H 2958.88 2.83357 1.62408 0
M  V30 30516 H 2957.54 3.64963 -0.346107 0
M  V30 30517 H 2957.19 4.64952 1.91909 0
M  V30 30518 H 2956.89 5.84211 0.630157 0
M  V30 30519 H 2958.41 5.9032 1.56058 0
M  V30 30520 H 2959.82 5.69 -0.700826 0
M  V30 30521 H 2958.22 5.81511 -1.48206 0
M  V30 30522 H 2959.29 4.46329 -1.89521 0
M  V30 30523 N 2960.63 0.47718 1.50202 0
M  V30 30524 C 2962.05 0.0235369 1.86685 0
M  V30 30525 C 2962.4 -1.38317 1.39151 0
M  V30 30526 O 2961.52 -2.0265 0.759087 0
M  V30 30527 C 2962.12 0.0359362 3.38781 0
M  V30 30528 C 2960.68 -0.362261 3.74653 0
M  V30 30529 C 2959.82 0.418798 2.74119 0
M  V30 30530 H 2962.77 0.691158 1.42859 0
M  V30 30531 H 2962.79 -0.764858 3.72733 0
M  V30 30532 H 2962.31 1.05988 3.73347 0
M  V30 30533 H 2960.41 -1.39033 3.45689 0
M  V30 30534 H 2960.52 -0.0593728 4.79063 0
M  V30 30535 H 2958.88 -0.128296 2.54377 0
M  V30 30536 H 2959.67 1.44236 3.1153 0
M  V30 30537 N 2962.11 -1.56194 0.210027 0
M  V30 30538 C 2963.36 -1.97604 -0.423939 0
M  V30 30539 C 2963.68 -1.09857 -1.6111 0
M  V30 30540 O 2962.95 -0.173067 -1.95134 0
M  V30 30541 H 2961.53 -0.729748 -0.159616 0
M  V30 30542 H 2964.19 -1.92574 0.300239 0
M  V30 30543 H 2963.29 -3.02754 -0.758037 0
M  V30 30544 N 2963.59 0.0634645 -1.57472 0
M  V30 30545 C 2964.84 0.759895 -1.86838 0
M  V30 30546 C 2965.15 1.78319 -0.803854 0
M  V30 30547 O 2966.36 2.52978 -0.985622 0
M  V30 30548 C 2964.81 1.40245 -3.31451 0
M  V30 30549 C 2964.42 0.41729 -4.46052 0
M  V30 30550 C 2966.17 2.08075 -3.70007 0
M  V30 30551 C 2964.07 1.06623 -5.81709 0
M  V30 30552 H 2963 0.287555 -0.697014 0
M  V30 30553 H 2965.65 0.0133591 -1.83495 0
M  V30 30554 H 2964.04 2.19753 -3.29431 0
M  V30 30555 H 2965.21 -0.348583 -4.5948 0
M  V30 30556 H 2963.53 -0.157028 -4.16104 0
M  V30 30557 H 2966.12 2.57418 -4.68658 0
M  V30 30558 H 2966.47 2.88387 -3.00231 0
M  V30 30559 H 2967 1.35388 -3.74052 0
M  V30 30560 H 2963.74 0.303259 -6.54798 0
M  V30 30561 H 2963.26 1.80276 -5.72067 0
M  V30 30562 H 2964.94 1.58365 -6.27319 0
M  V30 30563 N 2965.07 1.53998 0.33504 0
M  V30 30564 C 2966.48 1.63012 0.910162 0
M  V30 30565 C 2966.83 0.516843 1.8927 0
M  V30 30566 O 2965.96 -0.352085 2.13517 0
M  V30 30567 C 2966.55 2.95483 1.65756 0
M  V30 30568 C 2965.11 3.06732 2.18157 0
M  V30 30569 C 2964.26 2.58512 1.00334 0
M  V30 30570 H 2967.21 1.58298 0.112937 0
M  V30 30571 H 2967.23 2.85 2.52102 0
M  V30 30572 H 2966.74 3.76489 0.942204 0
M  V30 30573 H 2964.84 2.30377 2.92843 0
M  V30 30574 H 2964.95 4.12344 2.43945 0
M  V30 30575 H 2963.32 2.14126 1.37921 0
M  V30 30576 H 2964.1 3.41965 0.30248 0
M  V30 30577 N 2966.55 -0.596505 1.45875 0
M  V30 30578 C 2967.79 -1.35518 1.50469 0
M  V30 30579 C 2968.12 -1.93914 0.150836 0
M  V30 30580 O 2967.38 -1.76186 -0.851882 0
M  V30 30581 C 2967.68 -2.51395 2.54038 0
M  V30 30582 C 2967.34 -2.11078 3.98443 0
M  V30 30583 C 2966 -1.99796 4.37761 0
M  V30 30584 C 2968.36 -1.79779 4.89213 0
M  V30 30585 C 2965.68 -1.55455 5.6573 0
M  V30 30586 C 2968.04 -1.36921 6.17605 0
M  V30 30587 C 2966.7 -1.24206 6.55842 0
M  V30 30588 H 2965.97 -0.495897 0.550606 0
M  V30 30589 H 2968.62 -0.673113 1.7928 0
M  V30 30590 H 2966.92 -3.24988 2.18837 0
M  V30 30591 H 2968.62 -3.09619 2.54827 0
M  V30 30592 H 2965.21 -2.20788 3.67356 0
M  V30 30593 H 2969.39 -1.87387 4.59565 0
M  V30 30594 H 2964.65 -1.44243 5.94141 0
M  V30 30595 H 2968.82 -1.11752 6.87375 0
M  V30 30596 H 2966.45 -0.896221 7.54899 0
M  V30 30597 N 2968.02 -1.3335 -0.839967 0
M  V30 30598 C 2969.27 -1.2493 -1.59751 0
M  V30 30599 C 2969.6 0.184821 -1.93319 0
M  V30 30600 O 2968.88 1.12586 -1.58602 0
M  V30 30601 C 2969.16 -2.1235 -2.90825 0
M  V30 30602 C 2969.01 -3.64215 -2.63946 0
M  V30 30603 C 2970.33 -1.99584 -3.92243 0
M  V30 30604 H 2967.45 -0.45517 -0.579646 0
M  V30 30605 H 2970.09 -1.6344 -0.96888 0
M  V30 30606 H 2968.24 -1.79637 -3.44475 0
M  V30 30607 H 2969.92 -4.07213 -2.16738 0
M  V30 30608 H 2968.16 -3.86149 -1.97664 0
M  V30 30609 H 2968.83 -4.20727 -3.57341 0
M  V30 30610 H 2971.31 -2.28271 -3.47896 0
M  V30 30611 H 2970.18 -2.63005 -4.81788 0
M  V30 30612 H 2970.44 -0.967749 -4.31378 0
M  V30 30613 N 2969.5 1.05808 -1.16801 0
M  V30 30614 C 2970.73 1.82923 -0.977435 0
M  V30 30615 C 2971.15 1.82147 0.469482 0
M  V30 30616 O 2970.51 1.22588 1.33574 0
M  V30 30617 C 2970.56 3.27208 -1.51549 0
M  V30 30618 O 2969.66 4.05976 -0.725093 0
M  V30 30619 H 2969 0.565819 -0.347484 0
M  V30 30620 H 2971.53 1.33374 -1.55154 0
M  V30 30621 H 2971.54 3.7802 -1.53508 0
M  V30 30622 H 2970.22 3.27088 -2.56877 0
M  V30 30623 H 2968.8 3.64728 -0.776404 0
M  V30 30624 N 2970.98 0.967265 1.24426 0
M  V30 30625 C 2972.22 0.636758 1.94229 0
M  V30 30626 C 2972.58 -0.812941 1.7394 0
M  V30 30627 O 2973.79 -1.25365 2.37775 0
M  V30 30628 C 2972.06 1.00073 3.43104 0
M  V30 30629 S 2973.62 0.784709 4.31726 0
M  V30 30630 H 2970.43 0.233619 0.671523 0
M  V30 30631 H 2973.04 1.24413 1.50804 0
M  V30 30632 H 2971.74 2.05271 3.55376 0
M  V30 30633 H 2971.27 0.384123 3.9152 0
M  V30 30634 H 2973.29 -0.338157 4.95046 0
M  V30 30635 N 2972.46 -1.39288 0.737328 0
M  V30 30636 C 2973.39 -2.29123 0.0592509 0
M  V30 30637 C 2974.4 -1.46935 -0.701 0
M  V30 30638 O 2975.59 -1.69984 -0.544778 0
M  V30 30639 C 2972.69 -3.25594 -0.940301 0
M  V30 30640 C 2971.87 -4.36735 -0.241086 0
M  V30 30641 C 2970.93 -5.135 -1.14907 0
M  V30 30642 O 2969.95 -5.65751 -0.625684 0
M  V30 30643 N 2971.15 -5.24925 -2.4786 0
M  V30 30644 H 2973.92 -2.87957 0.830698 0
M  V30 30645 H 2971.48 -1.50894 0.586744 0
M  V30 30646 H 2973.47 -3.73825 -1.55039 0
M  V30 30647 H 2972.04 -2.67774 -1.61294 0
M  V30 30648 H 2971.26 -3.90351 0.549509 0
M  V30 30649 H 2972.55 -5.08218 0.243389 0
M  V30 30650 H 2971.95 -4.83996 -2.92856 0
M  V30 30651 H 2970.5 -5.76587 -3.03959 0
M  V30 30652 N 2973.94 -0.485139 -1.49947 0
M  V30 30653 C 2975.35 -0.140124 -1.58984 0
M  V30 30654 C 2975.55 1.35435 -1.49196 0
M  V30 30655 O 2974.61 2.12892 -1.35769 0
M  V30 30656 C 2975.92 -0.702821 -2.92371 0
M  V30 30657 C 2977.47 -0.667503 -3.058 0
M  V30 30658 C 2977.95 -1.20799 -4.41782 0
M  V30 30659 N 2979.44 -1.168 -4.48232 0
M  V30 30660 C 2980.17 -1.55656 -5.51869 0
M  V30 30661 N 2979.67 -2.02028 -6.62689 0
M  V30 30662 N 2981.46 -1.47171 -5.42492 0
M  V30 30663 H 2973.61 -1.45696 -1.54552 0
M  V30 30664 H 2975.87 -0.603372 -0.731195 0
M  V30 30665 H 2975.58 -1.75031 -3.05053 0
M  V30 30666 H 2975.45 -0.154271 -3.76884 0
M  V30 30667 H 2977.84 0.371105 -2.92757 0
M  V30 30668 H 2977.92 -1.25302 -2.23009 0
M  V30 30669 H 2977.57 -2.2453 -4.55575 0
M  V30 30670 H 2977.5 -0.598556 -5.23187 0
M  V30 30671 H 2979.99 -0.828047 -3.68716 0
M  V30 30672 H 2980.3 -2.29788 -7.37846 0
M  V30 30673 H 2978.65 -2.05991 -6.63772 0
M  V30 30674 H 2981.84 -1.10773 -4.54804 0
M  V30 30675 H 2982.01 -1.77777 -6.23137 0
M  V30 30676 N 2975.42 1.56081 -0.218307 0
M  V30 30677 C 2976.66 1.97826 0.413454 0
M  V30 30678 C 2976.98 1.1071 1.60525 0
M  V30 30679 O 2976.25 0.183413 1.9504 0
M  V30 30680 H 2974.83 0.730584 0.155744 0
M  V30 30681 H 2977.5 1.92412 -0.310447 0
M  V30 30682 H 2976.59 3.03152 0.741971 0
M  V30 30683 N 2976.89 -0.0551124 1.57504 0
M  V30 30684 C 2978.12 -0.762439 1.92017 0
M  V30 30685 C 2978.53 -1.70789 0.814118 0
M  V30 30686 O 2977.87 -1.82375 -0.220241 0
M  V30 30687 C 2977.94 -1.59592 3.22135 0
M  V30 30688 C 2977.6 -0.818062 4.49618 0
M  V30 30689 C 2978.6 -0.129842 5.19738 0
M  V30 30690 C 2976.28 -0.780299 4.96202 0
M  V30 30691 C 2978.28 0.585727 6.34703 0
M  V30 30692 C 2975.96 -0.0609682 6.1107 0
M  V30 30693 C 2976.96 0.620829 6.80173 0
M  V30 30694 O 2976.65 1.32854 7.92846 0
M  V30 30695 H 2976.38 -0.220956 0.63887 0
M  V30 30696 H 2978.94 -0.0246001 2.05385 0
M  V30 30697 H 2977.17 -2.37696 3.05021 0
M  V30 30698 H 2978.85 -2.18345 3.4217 0
M  V30 30699 H 2979.62 -0.150214 4.84767 0
M  V30 30700 H 2975.5 -1.30046 4.42277 0
M  V30 30701 H 2979.04 1.11845 6.88576 0
M  V30 30702 H 2974.94 -0.038581 6.45488 0
M  V30 30703 H 2975.71 1.23952 8.0906 0
M  V30 30704 N 2978.37 -1.54173 -0.326869 0
M  V30 30705 C 2979.32 -1.83327 -1.40213 0
M  V30 30706 C 2980.29 -0.680134 -1.51537 0
M  V30 30707 O 2981.47 -0.926235 -1.6681 0
M  V30 30708 C 2978.61 -2.06334 -2.76623 0
M  V30 30709 C 2977.73 -3.34023 -2.73957 0
M  V30 30710 C 2976.86 -3.47009 -4.02192 0
M  V30 30711 C 2975.9 -4.68585 -3.9382 0
M  V30 30712 N 2975.04 -4.78515 -5.13778 0
M  V30 30713 H 2979.88 -2.75062 -1.14651 0
M  V30 30714 H 2977.41 -1.36226 -0.555065 0
M  V30 30715 H 2979.37 -2.17665 -3.55918 0
M  V30 30716 H 2978 -1.17895 -3.00501 0
M  V30 30717 H 2977.05 -3.31448 -1.86671 0
M  V30 30718 H 2978.37 -4.23425 -2.63653 0
M  V30 30719 H 2977.52 -3.57863 -4.89917 0
M  V30 30720 H 2976.26 -2.55694 -4.15297 0
M  V30 30721 H 2975.26 -4.57791 -3.04479 0
M  V30 30722 H 2976.49 -5.61282 -3.82282 0
M  V30 30723 H 2974.44 -3.90114 -5.27396 0
M  V30 30724 H 2974.35 -5.61877 -5.05797 0
M  V30 30725 H 2975.62 -4.93697 -6.03228 0
M  V30 30726 N 2979.85 0.58876 -1.4619 0
M  V30 30727 C 2981.1 1.34452 -1.50887 0
M  V30 30728 C 2981.42 1.94346 -0.159589 0
M  V30 30729 O 2980.69 1.78224 0.813208 0
M  V30 30730 H 2979.27 0.499189 -0.555716 0
M  V30 30731 H 2981.93 0.689982 -1.82278 0
M  V30 30732 H 2981.03 2.15434 -2.2582 0
M  V30 30733 N 2981.33 1.33794 0.832883 0
M  V30 30734 C 2982.57 1.25775 1.59086 0
M  V30 30735 C 2982.91 -0.174567 1.93414 0
M  V30 30736 O 2982.18 -1.11743 1.59197 0
M  V30 30737 C 2982.46 2.1389 2.89695 0
M  V30 30738 C 2982.32 3.65609 2.62011 0
M  V30 30739 C 2983.64 2.01661 3.91179 0
M  V30 30740 H 2980.76 0.458237 0.577224 0
M  V30 30741 H 2983.4 1.63952 0.960199 0
M  V30 30742 H 2981.55 1.81462 3.43517 0
M  V30 30743 H 2983.22 4.08357 2.14575 0
M  V30 30744 H 2981.46 3.87192 1.95614 0
M  V30 30745 H 2982.13 4.22616 3.55105 0
M  V30 30746 H 2984.61 2.30113 3.4668 0
M  V30 30747 H 2983.49 2.65556 4.80386 0
M  V30 30748 H 2983.75 0.990612 4.30859 0
M  V30 30749 N 2982.81 -1.05187 1.1736 0
M  V30 30750 C 2984.05 -1.78593 0.973446 0
M  V30 30751 C 2984.41 -1.85985 -0.49268 0
M  V30 30752 O 2983.7 -1.34863 -1.36098 0
M  V30 30753 C 2983.89 -3.22123 1.54827 0
M  V30 30754 C 2983.72 -3.2872 3.06877 0
M  V30 30755 C 2982.49 -3.38004 3.75608 0
M  V30 30756 C 2984.69 -3.17658 4.04473 0
M  V30 30757 N 2982.67 -3.33732 5.15263 0
M  V30 30758 C 2984.04 -3.20757 5.3058 0
M  V30 30759 C 2986.1 -3.0162 3.96144 0
M  V30 30760 C 2984.8 -3.09467 6.49325 0
M  V30 30761 C 2986.83 -2.91672 5.14472 0
M  V30 30762 C 2986.19 -2.95404 6.39465 0
M  V30 30763 H 2982.29 -0.665837 0.410104 0
M  V30 30764 H 2984.87 -1.25392 1.48946 0
M  V30 30765 H 2983.04 -3.73696 1.05859 0
M  V30 30766 H 2984.78 -3.83766 1.28474 0
M  V30 30767 H 2981.53 -3.43268 3.26289 0
M  V30 30768 H 2981.95 -3.35066 5.88268 0
M  V30 30769 H 2986.6 -2.97572 3.00351 0
M  V30 30770 H 2984.31 -3.1227 7.45328 0
M  V30 30771 H 2987.9 -2.80334 5.09808 0
M  V30 30772 H 2986.78 -2.87779 7.29488 0
M  V30 30773 N 2984.28 -0.97385 -1.23911 0
M  V30 30774 C 2985.7 -0.681389 -1.44323 0
M  V30 30775 C 2985.9 0.754695 -1.86833 0
M  V30 30776 O 2984.96 1.52789 -2.01027 0
M  V30 30777 C 2986.27 -1.67073 -2.50014 0
M  V30 30778 C 2987.82 -1.68404 -2.63835 0
M  V30 30779 C 2988.29 -2.66152 -3.72729 0
M  V30 30780 N 2989.78 -2.64631 -3.80164 0
M  V30 30781 C 2990.52 -3.36935 -4.63964 0
M  V30 30782 N 2990.01 -4.18777 -5.51904 0
M  V30 30783 N 2991.81 -3.25731 -4.581 0
M  V30 30784 H 2983.96 -1.90161 -0.946171 0
M  V30 30785 H 2986.22 -0.819043 -0.477359 0
M  V30 30786 H 2985.93 -2.69742 -2.25681 0
M  V30 30787 H 2985.8 -1.44837 -3.48285 0
M  V30 30788 H 2988.19 -0.664429 -2.87523 0
M  V30 30789 H 2988.27 -1.94705 -1.65902 0
M  V30 30790 H 2987.91 -3.68251 -3.49791 0
M  V30 30791 H 2987.84 -2.37128 -4.70189 0
M  V30 30792 H 2990.33 -2.0523 -3.17315 0
M  V30 30793 H 2990.65 -4.7082 -6.1282 0
M  V30 30794 H 2988.99 -4.2287 -5.51549 0
M  V30 30795 H 2992.18 -2.61249 -3.88415 0
M  V30 30796 H 2992.36 -3.82342 -5.23181 0
M  V30 30797 N 2985.76 1.38895 -0.744705 0
M  V30 30798 C 2987.01 2.00608 -0.297359 0
M  V30 30799 C 2987.34 1.5897 1.11544 0
M  V30 30800 O 2986.62 0.823088 1.76226 0
M  V30 30801 C 2986.9 3.57756 -0.410188 0
M  V30 30802 C 2986.75 4.09384 -1.86345 0
M  V30 30803 C 2988.07 4.39638 0.201683 0
M  V30 30804 H 2985.19 0.728817 -0.109522 0
M  V30 30805 H 2987.83 1.64965 -0.942682 0
M  V30 30806 H 2985.98 3.8825 0.139219 0
M  V30 30807 H 2987.65 3.8957 -2.47049 0
M  V30 30808 H 2985.9 3.62582 -2.38153 0
M  V30 30809 H 2986.57 5.18504 -1.89361 0
M  V30 30810 H 2989.04 4.15244 -0.266776 0
M  V30 30811 H 2987.92 5.48822 0.0924451 0
M  V30 30812 H 2988.18 4.22894 1.28892 0
M  V30 30813 N 2987.24 0.493084 1.49688 0
M  V30 30814 C 2988.52 -0.116872 1.95251 0
M  V30 30815 C 2988.9 -1.54889 1.43431 0
M  V30 30816 O 2988.25 -2.19218 0.644659 0
M  V30 30817 C 2988.46 -0.0376436 3.4898 0
M  V30 30818 C 2989.8 -0.215546 4.24053 0
M  V30 30819 O 2990.83 -0.113204 3.5602 0
M  V30 30820 O 2989.69 -0.424674 5.44847 0
M  V30 30821 H 2986.78 -0.0996476 0.820975 0
M  V30 30822 H 2989.33 0.555057 1.60366 0
M  V30 30823 H 2988.1 0.961317 3.79308 0
M  V30 30824 H 2987.72 -0.750069 3.90461 0
M  V30 30825 N 2988.72 -1.55963 0.226582 0
M  V30 30826 C 2989.97 -1.98042 -0.402957 0
M  V30 30827 C 2990.29 -1.1156 -1.59936 0
M  V30 30828 O 2989.56 -0.193754 -1.94939 0
M  V30 30829 H 2988.14 -0.7314 -0.151867 0
M  V30 30830 H 2990.8 -1.92244 0.320647 0
M  V30 30831 H 2989.9 -3.03541 -0.725883 0
M  V30 30832 N 2990.2 0.0467589 -1.57531 0
M  V30 30833 C 2991.45 0.740036 -1.87634 0
M  V30 30834 C 2991.76 1.77456 -0.822722 0
M  V30 30835 O 2992.96 2.51918 -1.0124 0
M  V30 30836 C 2991.42 1.36721 -3.32919 0
M  V30 30837 C 2991.03 0.369956 -4.4647 0
M  V30 30838 C 2992.77 2.04139 -3.72193 0
M  V30 30839 C 2990.68 1.00447 -5.82807 0
M  V30 30840 H 2989.61 0.280146 -0.700025 0
M  V30 30841 H 2992.26 -0.00610376 -1.83499 0
M  V30 30842 H 2990.64 2.16246 -3.31743 0
M  V30 30843 H 2991.82 -0.397298 -4.59084 0
M  V30 30844 H 2990.13 -0.201152 -4.15914 0
M  V30 30845 H 2992.73 2.52433 -4.71362 0
M  V30 30846 H 2993.07 2.85187 -3.03273 0
M  V30 30847 H 2993.6 1.31413 -3.75467 0
M  V30 30848 H 2990.34 0.233791 -6.55083 0
M  V30 30849 H 2989.86 1.74198 -5.73947 0
M  V30 30850 H 2991.54 1.51702 -6.28964 0
M  V30 30851 N 2991.67 1.54344 0.318688 0
M  V30 30852 C 2992.61 1.78922 1.41641 0
M  V30 30853 C 2993.59 0.639447 1.49499 0
M  V30 30854 O 2994.77 0.877433 1.66833 0
M  V30 30855 C 2991.9 1.91015 2.79698 0
M  V30 30856 C 2990.94 3.13336 2.89348 0
M  V30 30857 S 2991.78 4.71828 2.53256 0
M  V30 30858 C 2992.93 4.86833 3.93375 0
M  V30 30859 H 2993.16 2.71749 1.2058 0
M  V30 30860 H 2990.7 1.4553 0.515803 0
M  V30 30861 H 2992.66 1.98667 3.59224 0
M  V30 30862 H 2991.32 0.991568 2.98038 0
M  V30 30863 H 2990.51 3.18547 3.90569 0
M  V30 30864 H 2990.11 3.04039 2.17799 0
M  V30 30865 H 2992.4 4.6977 4.88183 0
M  V30 30866 H 2993.35 5.88933 3.93145 0
M  V30 30867 H 2993.75 4.15104 3.82556 0
M  V30 30868 N 2993.15 -0.580999 1.465 0
M  V30 30869 C 2994.1 -1.68488 1.53609 0
M  V30 30870 C 2995.09 -1.55928 0.396881 0
M  V30 30871 O 2996.28 -1.64814 0.645395 0
M  V30 30872 C 2993.41 -3.07273 1.53095 0
M  V30 30873 C 2992.49 -3.25124 2.72315 0
M  V30 30874 N 2992.88 -3.13127 3.97222 0
M  V30 30875 C 2991.18 -3.56067 2.68575 0
M  V30 30876 C 2991.88 -3.33028 4.76935 0
M  V30 30877 N 2990.86 -3.58262 4.08839 0
M  V30 30878 H 2994.66 -1.57746 2.47979 0
M  V30 30879 H 2992.18 -0.785079 1.42163 0
M  V30 30880 H 2994.17 -3.86502 1.56275 0
M  V30 30881 H 2992.83 -3.19145 0.598025 0
M  V30 30882 H 2993.84 -2.90957 4.28444 0
M  V30 30883 H 2990.52 -3.74613 1.84313 0
M  V30 30884 H 2991.91 -3.28921 5.85884 0
M  V30 30885 N 2994.63 -1.34234 -0.825776 0
M  V30 30886 C 2995.86 -1.295 -1.61361 0
M  V30 30887 C 2996.27 0.131503 -1.88341 0
M  V30 30888 O 2995.63 1.07771 -1.47281 0
M  V30 30889 C 2995.68 -2.08066 -2.95619 0
M  V30 30890 O 2995.4 -3.45152 -2.69818 0
M  V30 30891 C 2996.9 -2.10695 -3.90029 0
M  V30 30892 H 2994.12 -0.445612 -0.501668 0
M  V30 30893 H 2996.67 -1.76804 -1.02764 0
M  V30 30894 H 2994.82 -1.6441 -3.50782 0
M  V30 30895 H 2995.24 -3.8573 -3.55405 0
M  V30 30896 H 2996.71 -2.70096 -4.81407 0
M  V30 30897 H 2997.19 -1.1006 -4.25186 0
M  V30 30898 H 2997.79 -2.54428 -3.40803 0
M  V30 30899 N 2996.11 1.04563 -1.17917 0
M  V30 30900 C 2997.52 1.29863 -0.927784 0
M  V30 30901 C 2997.72 1.97295 0.409501 0
M  V30 30902 O 2996.78 2.25046 1.14501 0
M  V30 30903 C 2998.09 2.16221 -2.08971 0
M  V30 30904 C 2999.64 2.29584 -2.12745 0
M  V30 30905 C 3000.12 3.19306 -3.28341 0
M  V30 30906 N 3001.61 3.26893 -3.2817 0
M  V30 30907 C 3002.34 3.96458 -4.14256 0
M  V30 30908 N 3001.84 4.68398 -5.10466 0
M  V30 30909 N 3003.63 3.92687 -4.02186 0
M  V30 30910 H 2995.78 0.591975 -2.03984 0
M  V30 30911 H 2998.05 0.323685 -0.891029 0
M  V30 30912 H 2997.75 1.73973 -3.05657 0
M  V30 30913 H 2997.63 3.16882 -2.04611 0
M  V30 30914 H 3000.01 2.7107 -1.1664 0
M  V30 30915 H 3000.09 1.28531 -2.21164 0
M  V30 30916 H 2999.74 2.78532 -4.24715 0
M  V30 30917 H 2999.67 4.20379 -3.17158 0
M  V30 30918 H 3002.16 2.75641 -2.58516 0
M  V30 30919 H 3002.47 5.1906 -5.72536 0
M  V30 30920 H 3000.82 4.67319 -5.1443 0
M  V30 30921 H 3004.01 3.35614 -3.26314 0
M  V30 30922 H 3004.18 4.46632 -4.69494 0
M  V30 30923 N 2997.59 0.980408 1.23393 0
M  V30 30924 C 2998.83 0.657322 1.93542 0
M  V30 30925 C 2999.19 -0.794446 1.74793 0
M  V30 30926 O 3000.39 -1.22836 2.39092 0
M  V30 30927 C 2998.66 1.03707 3.42023 0
M  V30 30928 S 3000.22 0.830455 4.3087 0
M  V30 30929 H 2997.04 0.240728 0.669007 0
M  V30 30930 H 2999.64 1.26005 1.49476 0
M  V30 30931 H 2998.35 2.09028 3.53179 0
M  V30 30932 H 2997.88 0.425628 3.91091 0
M  V30 30933 H 2999.89 -0.285632 4.95377 0
M  V30 30934 N 2999.06 -1.38498 0.75206 0
M  V30 30935 C 3000.01 -2.27785 0.099059 0
M  V30 30936 C 3001 -1.45123 -0.694842 0
M  V30 30937 O 3002.19 -1.67873 -0.561048 0
M  V30 30938 C 2999.32 -3.33981 -0.794473 0
M  V30 30939 C 2998.41 -4.241 0.00619438 0
M  V30 30940 N 2998.8 -4.94954 1.04182 0
M  V30 30941 C 2997.09 -4.45453 -0.220855 0
M  V30 30942 C 2997.8 -5.61324 1.52611 0
M  V30 30943 N 2996.77 -5.37044 0.841684 0
M  V30 30944 H 3000.57 -2.80029 0.892258 0
M  V30 30945 H 2998.09 -1.51383 0.587961 0
M  V30 30946 H 3000.08 -3.96832 -1.2779 0
M  V30 30947 H 2998.74 -2.83295 -1.58664 0
M  V30 30948 H 2999.76 -4.9795 1.42358 0
M  V30 30949 H 2996.43 -4.05678 -0.986484 0
M  V30 30950 H 2997.82 -6.28006 2.38868 0
M  V30 30951 N 3000.54 -0.501015 -1.49424 0
M  V30 30952 C 3001.78 0.0418645 -2.04357 0
M  V30 30953 C 3002.15 1.34275 -1.37238 0
M  V30 30954 O 3003.35 1.96987 -1.82892 0
M  V30 30955 C 3001.62 0.191057 -3.56889 0
M  V30 30956 S 3003.18 0.688183 -4.3337 0
M  V30 30957 H 3000 0.00176547 -0.710998 0
M  V30 30958 H 3002.6 -0.674985 -1.83478 0
M  V30 30959 H 3001.3 -0.761035 -4.03282 0
M  V30 30960 H 3000.83 0.933147 -3.82173 0
M  V30 30961 H 3002.85 1.95732 -4.55964 0
M  V30 30962 N 3002.02 1.5584 -0.234849 0
M  V30 30963 C 3003.27 1.98253 0.392448 0
M  V30 30964 C 3003.59 1.12406 1.59342 0
M  V30 30965 O 3002.86 0.204089 1.94834 0
M  V30 30966 H 3001.44 0.732195 0.147986 0
M  V30 30967 H 3004.1 1.92072 -0.330838 0
M  V30 30968 H 3003.2 3.03922 0.709776 0
M  V30 30969 N 3003.5 -0.038404 1.57553 0
M  V30 30970 C 3004.46 -1.0265 2.04929 0
M  V30 30971 C 3005.46 -1.29606 0.951791 0
M  V30 30972 O 3006.65 -1.24765 1.2157 0
M  V30 30973 C 3003.78 -2.36177 2.45832 0
M  V30 30974 H 3004.98 -0.617456 2.93475 0
M  V30 30975 H 3002.53 -0.285004 1.5368 0
M  V30 30976 H 3003.27 -2.81848 1.60413 0
M  V30 30977 H 3003.05 -2.17944 3.25949 0
M  V30 30978 H 3004.54 -3.07135 2.82945 0
M  V30 30979 N 3004.98 -1.54511 -0.310498 0
M  V30 30980 C 3005.89 -1.87847 -1.40537 0
M  V30 30981 C 3006.9 -0.771662 -1.55953 0
M  V30 30982 O 3008.08 -1.06722 -1.70799 0
M  V30 30983 C 3005.14 -2.11053 -2.75059 0
M  V30 30984 C 3004.21 -3.34805 -2.68709 0
M  V30 30985 C 3003.44 -3.56894 -3.96815 0
M  V30 30986 O 3003.66 -2.82173 -4.95716 0
M  V30 30987 O 3002.6 -4.50396 -3.99283 0
M  V30 30988 H 3006.42 -2.80974 -1.15271 0
M  V30 30989 H 3004.01 -1.40581 -0.505707 0
M  V30 30990 H 3005.89 -2.27572 -3.54667 0
M  V30 30991 H 3004.56 -1.21113 -3.00189 0
M  V30 30992 H 3003.47 -3.23659 -1.87605 0
M  V30 30993 H 3004.8 -4.24844 -2.48532 0
M  V30 30994 N 3006.46 0.573222 -1.46806 0
M  V30 30995 C 3007.7 1.32733 -1.51871 0
M  V30 30996 C 3008.02 1.94781 -0.178799 0
M  V30 30997 O 3009.22 2.71288 -0.107319 0
M  V30 30998 C 3007.68 2.40611 -2.67646 0
M  V30 30999 C 3007.29 1.84825 -4.08098 0
M  V30 31000 C 3009.03 3.17305 -2.8199 0
M  V30 31001 C 3006.94 2.90388 -5.15198 0
M  V30 31002 H 3005.87 0.49902 -0.565239 0
M  V30 31003 H 3008.52 0.610665 -1.73041 0
M  V30 31004 H 3006.9 3.1512 -2.39824 0
M  V30 31005 H 3008.08 1.16795 -4.45753 0
M  V30 31006 H 3006.39 1.20768 -3.98502 0
M  V30 31007 H 3008.99 3.96105 -3.59173 0
M  V30 31008 H 3009.33 3.7049 -1.89849 0
M  V30 31009 H 3009.86 2.49904 -3.09504 0
M  V30 31010 H 3006.6 2.42077 -6.09162 0
M  V30 31011 H 3006.12 3.56877 -4.82077 0
M  V30 31012 H 3007.8 3.5417 -5.41454 0
M  V30 31013 N 3007.93 1.3467 0.818645 0
M  V30 31014 C 3009.16 1.30354 1.60672 0
M  V30 31015 C 3009.58 -0.121513 1.88409 0
M  V30 31016 O 3008.93 -1.06988 1.47851 0
M  V30 31017 C 3008.98 2.09631 2.94512 0
M  V30 31018 O 3008.71 3.46578 2.67984 0
M  V30 31019 C 3010.21 2.12761 3.88906 0
M  V30 31020 H 3007.43 0.448266 0.499298 0
M  V30 31021 H 3009.97 1.77347 1.01825 0
M  V30 31022 H 3008.13 1.66268 3.49905 0
M  V30 31023 H 3008.54 3.87609 3.53355 0
M  V30 31024 H 3010.01 2.72645 4.79967 0
M  V30 31025 H 3010.49 1.12313 4.24597 0
M  V30 31026 H 3011.1 2.56231 3.39449 0
M  V30 31027 N 3009.41 -1.03936 1.1847 0
M  V30 31028 C 3010.66 -1.76809 0.978926 0
M  V30 31029 C 3010.98 -1.88677 -0.492537 0
M  V30 31030 O 3010.25 -1.41271 -1.35717 0
M  V30 31031 H 3008.83 -0.654962 0.359213 0
M  V30 31032 H 3011.49 -1.25431 1.49175 0
M  V30 31033 H 3010.59 -2.78025 1.41805 0
M  V30 31034 N 3010.89 -0.986938 -1.22871 0
M  V30 31035 C 3011.84 -0.503586 -2.22369 0
M  V30 31036 C 3012.82 0.424971 -1.55186 0
M  V30 31037 O 3014.02 0.252761 -1.75186 0
M  V30 31038 C 3011.14 0.186294 -3.42794 0
M  V30 31039 C 3010.23 -0.762216 -4.17194 0
M  V30 31040 N 3010.62 -1.90758 -4.6845 0
M  V30 31041 C 3008.92 -0.576875 -4.42253 0
M  V30 31042 C 3009.62 -2.50244 -5.25122 0
M  V30 31043 N 3008.6 -1.78569 -5.13434 0
M  V30 31044 H 3012.4 -1.37722 -2.59634 0
M  V30 31045 H 3009.91 -0.848439 -1.38475 0
M  V30 31046 H 3011.91 0.54992 -4.13257 0
M  V30 31047 H 3010.57 1.05614 -3.07044 0
M  V30 31048 H 3011.58 -2.28856 -4.64591 0
M  V30 31049 H 3008.26 0.247401 -4.16766 0
M  V30 31050 H 3009.65 -3.47007 -5.75357 0
M  V30 31051 N 3012.37 1.38098 -0.759394 0
M  V30 31052 C 3013.61 2.00281 -0.31862 0
M  V30 31053 C 3013.95 1.60145 1.09852 0
M  V30 31054 O 3013.22 0.841732 1.75343 0
M  V30 31055 C 3013.5 3.57301 -0.44811 0
M  V30 31056 C 3013.36 4.07385 -1.90677 0
M  V30 31057 C 3014.68 4.39827 0.155042 0
M  V30 31058 H 3011.8 0.727614 -0.117246 0
M  V30 31059 H 3014.44 1.63956 -0.960126 0
M  V30 31060 H 3012.59 3.88376 0.098032 0
M  V30 31061 H 3014.26 3.86928 -2.51167 0
M  V30 31062 H 3012.5 3.60036 -2.41985 0
M  V30 31063 H 3013.17 5.16466 -1.9485 0
M  V30 31064 H 3015.65 4.14938 -0.310803 0
M  V30 31065 H 3014.53 5.48889 0.0342299 0
M  V30 31066 H 3014.79 4.24237 1.244 0
M  V30 31067 N 3013.85 0.508932 1.49156 0
M  V30 31068 C 3014.79 -0.265248 2.29271 0
M  V30 31069 C 3015.76 -0.953138 1.36031 0
M  V30 31070 O 3016.95 -0.958262 1.64991 0
M  V30 31071 C 3014.09 -1.31898 3.18899 0
M  V30 31072 C 3013.2 -0.642069 4.27202 0
M  V30 31073 C 3012.34 -1.67693 5.04036 0
M  V30 31074 C 3011.37 -0.982315 6.04166 0
M  V30 31075 N 3010.51 -1.96174 6.74137 0
M  V30 31076 H 3015.35 0.424159 2.94966 0
M  V30 31077 H 3012.89 0.221016 1.4543 0
M  V30 31078 H 3014.85 -1.94199 3.69246 0
M  V30 31079 H 3013.48 -1.97705 2.55172 0
M  V30 31080 H 3012.53 0.0944063 3.80283 0
M  V30 31081 H 3013.84 -0.095663 4.98708 0
M  V30 31082 H 3012.99 -2.37478 5.58291 0
M  V30 31083 H 3011.73 -2.2572 4.32321 0
M  V30 31084 H 3010.74 -0.270282 5.49135 0
M  V30 31085 H 3011.96 -0.408434 6.77871 0
M  V30 31086 H 3009.91 -2.53148 6.05188 0
M  V30 31087 H 3009.83 -1.46621 7.41646 0
M  V30 31088 H 3011.09 -2.65223 7.32992 0
M  V30 31089 N 3015.32 -1.55714 0.243111 0
M  V30 31090 C 3016.27 -2.22611 -0.67431 0
M  V30 31091 C 3017.27 -1.21245 -1.18305 0
M  V30 31092 O 3018.47 -1.39267 -1.14038 0
M  V30 31093 H 3014.85 -0.714032 -0.235928 0
M  V30 31094 H 3016.82 -2.98273 -0.0868922 0
M  V30 31095 C 3015.57 -2.9364 -1.862 0
M  V30 31096 H 3014.89 -3.7141 -1.47969 0
M  V30 31097 H 3016.33 -3.43818 -2.48124 0
M  V30 31098 C 3014.79 -1.97303 -2.73081 0
M  V30 31099 O 3015.32 -1.50368 -3.72495 0
M  V30 31100 N 3013.52 -1.64486 -2.39568 0
M  V30 31101 H 3013.07 -2.02849 -1.58777 0
M  V30 31102 H 3013.03 -1.00293 -2.97974 0
M  V30 31103 N 3016.8 0.030048 -1.57571 0
M  V30 31104 C 3018.05 0.719633 -1.88854 0
M  V30 31105 C 3018.37 1.75948 -0.840676 0
M  V30 31106 O 3017.64 1.95496 0.12582 0
M  V30 31107 H 3016.22 0.26878 -0.696969 0
M  V30 31108 H 3018.88 -0.00376711 -1.949 0
M  V30 31109 H 3017.98 1.20982 -2.87698 0
M  V30 31110 N 3018.28 1.54674 0.3023 0
M  V30 31111 C 3019.51 1.77883 1.05666 0
M  V30 31112 C 3019.92 0.53768 1.80982 0
M  V30 31113 O 3019.28 -0.492436 1.75731 0
M  V30 31114 C 3019.33 2.98561 2.03823 0
M  V30 31115 O 3019.05 4.17879 1.31563 0
M  V30 31116 C 3020.55 3.34148 2.91308 0
M  V30 31117 H 3017.77 0.5933 0.313426 0
M  V30 31118 H 3020.32 2.01621 0.341968 0
M  V30 31119 H 3018.47 2.77035 2.70796 0
M  V30 31120 H 3018.89 4.85906 1.97472 0
M  V30 31121 H 3020.36 4.21833 3.56035 0
M  V30 31122 H 3020.84 2.52246 3.5954 0
M  V30 31123 H 3021.44 3.57828 2.29867 0
M  V30 31124 N 3019.76 -0.565428 1.47108 0
M  V30 31125 C 3020.69 -1.6885 1.53508 0
M  V30 31126 C 3021.67 -1.57907 0.387834 0
M  V30 31127 O 3022.85 -1.78881 0.594464 0
M  V30 31128 C 3019.98 -3.07037 1.4299 0
M  V30 31129 C 3019.03 -3.36449 2.62114 0
M  V30 31130 S 3019.86 -3.2661 4.24366 0
M  V30 31131 C 3021.02 -4.67304 4.16386 0
M  V30 31132 H 3021.25 -1.63165 2.48525 0
M  V30 31133 H 3018.78 -0.745586 1.35205 0
M  V30 31134 H 3020.74 -3.86748 1.37609 0
M  V30 31135 H 3019.4 -3.10195 0.493725 0
M  V30 31136 H 3018.59 -4.3717 2.50796 0
M  V30 31137 H 3018.2 -2.64341 2.64575 0
M  V30 31138 H 3020.49 -5.58075 3.84133 0
M  V30 31139 H 3021.43 -4.8368 5.17165 0
M  V30 31140 H 3021.84 -4.44965 3.4737 0
M  V30 31141 N 3021.24 -1.35102 -0.811492 0
M  V30 31142 C 3022.65 -1.15033 -1.10632 0
M  V30 31143 C 3022.85 0.0405025 -2.01459 0
M  V30 31144 O 3021.91 0.712592 -2.42236 0
M  V30 31145 C 3023.22 -2.451 -1.74203 0
M  V30 31146 C 3024.77 -2.51262 -1.86645 0
M  V30 31147 C 3025.24 -3.81359 -2.53632 0
M  V30 31148 N 3026.74 -3.82583 -2.61121 0
M  V30 31149 C 3027.47 -4.79974 -3.13708 0
M  V30 31150 N 3026.97 -5.87751 -3.66771 0
M  V30 31151 N 3028.76 -4.67416 -3.12216 0
M  V30 31152 H 3020.91 -2.11383 -0.207604 0
M  V30 31153 H 3023.17 -0.935296 -0.154681 0
M  V30 31154 H 3022.88 -3.32391 -1.1493 0
M  V30 31155 H 3022.75 -2.59286 -2.73954 0
M  V30 31156 H 3025.14 -1.64402 -2.45063 0
M  V30 31157 H 3025.22 -2.40994 -0.857636 0
M  V30 31158 H 3024.87 -4.68614 -1.95865 0
M  V30 31159 H 3024.8 -3.88914 -3.5504 0
M  V30 31160 H 3027.29 -3.04707 -2.23522 0
M  V30 31161 H 3027.6 -6.58063 -4.05183 0
M  V30 31162 H 3025.94 -5.91449 -3.64983 0
M  V30 31163 H 3029.14 -3.82359 -2.70035 0
M  V30 31164 H 3029.31 -5.4348 -3.52893 0
M  V30 31165 N 3022.71 1.03306 -1.19019 0
M  V30 31166 C 3023.96 1.76037 -0.984573 0
M  V30 31167 C 3024.28 1.89469 0.485903 0
M  V30 31168 O 3025.48 2.59128 0.810233 0
M  V30 31169 C 3023.94 3.16537 -1.71266 0
M  V30 31170 C 3023.55 3.11174 -3.22296 0
M  V30 31171 C 3025.29 3.93592 -1.59013 0
M  V30 31172 C 3023.2 4.4658 -3.87712 0
M  V30 31173 H 3022.13 0.659898 -0.364761 0
M  V30 31174 H 3024.78 1.15646 -1.42472 0
M  V30 31175 H 3023.16 3.7737 -1.20032 0
M  V30 31176 H 3024.33 2.59747 -3.80616 0
M  V30 31177 H 3022.65 2.47616 -3.34776 0
M  V30 31178 H 3025.25 4.93741 -2.05241 0
M  V30 31179 H 3025.59 4.12736 -0.543607 0
M  V30 31180 H 3026.12 3.39351 -2.0757 0
M  V30 31181 H 3022.86 4.32641 -4.92445 0
M  V30 31182 H 3022.38 4.98079 -3.34181 0
M  V30 31183 H 3024.06 5.15475 -3.91017 0
M  V30 31184 N 3024.19 0.99344 1.22346 0
M  V30 31185 C 3025.44 0.670594 1.91392 0
M  V30 31186 C 3025.77 -0.795397 1.77164 0
M  V30 31187 O 3025.05 -1.57526 1.14086 0
M  V30 31188 C 3025.33 1.07796 3.43587 0
M  V30 31189 C 3025.18 2.60254 3.66862 0
M  V30 31190 C 3026.5 0.631603 4.35544 0
M  V30 31191 H 3023.62 0.245093 0.695053 0
M  V30 31192 H 3026.26 1.23706 1.44211 0
M  V30 31193 H 3024.41 0.595969 3.83902 0
M  V30 31194 H 3026.08 3.16127 3.35948 0
M  V30 31195 H 3024.33 3.02298 3.11124 0
M  V30 31196 H 3025 2.83808 4.73452 0
M  V30 31197 H 3027.47 1.04561 4.02748 0
M  V30 31198 H 3026.35 0.944926 5.40705 0
M  V30 31199 H 3026.61 -0.467701 4.39619 0
M  V30 31200 N 3025.67 -1.37693 0.766707 0
M  V30 31201 C 3026.92 -1.99419 0.3281 0
M  V30 31202 C 3027.24 -1.61168 -1.09772 0
M  V30 31203 O 3026.51 -0.874717 -1.75287 0
M  V30 31204 H 3025.09 -0.737569 0.118323 0
M  V30 31205 H 3027.75 -1.68253 0.983715 0
M  V30 31206 H 3026.85 -3.09504 0.401701 0
M  V30 31207 N 3027.15 -0.516835 -1.48884 0
M  V30 31208 C 3028.56 -0.0730249 -1.86557 0
M  V30 31209 C 3028.91 1.34579 -1.42769 0
M  V30 31210 O 3028.04 2.00566 -0.812549 0
M  V30 31211 C 3028.63 -0.125745 -3.38567 0
M  V30 31212 C 3027.19 0.262801 -3.75481 0
M  V30 31213 C 3026.34 -0.491329 -2.72913 0
M  V30 31214 H 3029.29 -0.728791 -1.40976 0
M  V30 31215 H 3029.31 0.665766 -3.7463 0
M  V30 31216 H 3028.82 -1.15849 -3.70406 0
M  V30 31217 H 3026.92 1.29818 -3.49253 0
M  V30 31218 H 3027.03 -0.0676632 -4.79052 0
M  V30 31219 H 3025.4 0.0608078 -2.54627 0
M  V30 31220 H 3026.18 -1.52445 -3.07596 0
M  V30 31221 N 3028.63 1.55583 -0.251365 0
M  V30 31222 C 3030.04 1.59265 0.103381 0
M  V30 31223 C 3030.24 1.26855 1.56557 0
M  V30 31224 O 3029.3 1.018 2.31069 0
M  V30 31225 C 3030.61 2.9966 -0.249833 0
M  V30 31226 C 3032.16 3.12395 -0.194497 0
M  V30 31227 C 3032.63 4.55018 -0.521808 0
M  V30 31228 N 3034.13 4.60784 -0.472474 0
M  V30 31229 C 3034.86 5.69125 -0.698837 0
M  V30 31230 N 3034.36 6.85711 -0.988564 0
M  V30 31231 N 3036.15 5.58567 -0.629241 0
M  V30 31232 H 3028.3 1.74919 -1.20487 0
M  V30 31233 H 3030.56 0.814479 -0.485106 0
M  V30 31234 H 3030.27 3.2813 -1.26583 0
M  V30 31235 H 3030.14 3.74844 0.420907 0
M  V30 31236 H 3032.53 2.83703 0.812179 0
M  V30 31237 H 3032.61 2.39476 -0.899154 0
M  V30 31238 H 3032.26 4.84431 -1.52606 0
M  V30 31239 H 3032.19 5.26203 0.204376 0
M  V30 31240 H 3034.68 3.77022 -0.257452 0
M  V30 31241 H 3034.99 7.64217 -1.14859 0
M  V30 31242 H 3033.33 6.87384 -1.02608 0
M  V30 31243 H 3036.53 4.66363 -0.402908 0
M  V30 31244 H 3036.7 6.4293 -0.809048 0
M  V30 31245 N 3030.1 -0.0216912 1.57585 0
M  V30 31246 C 3031.33 -0.722585 1.93872 0
M  V30 31247 C 3031.75 -1.68496 0.851736 0
M  V30 31248 O 3031.1 -1.81695 -0.171239 0
M  V30 31249 C 3031.16 -1.47327 3.30116 0
M  V30 31250 O 3030.88 -0.54952 4.3464 0
M  V30 31251 C 3032.38 -2.27066 3.80731 0
M  V30 31252 H 3029.6 -0.202625 0.639675 0
M  V30 31253 H 3032.14 0.0229774 2.04487 0
M  V30 31254 H 3030.3 -2.17065 3.20876 0
M  V30 31255 H 3030.71 -1.07677 5.13328 0
M  V30 31256 H 3032.18 -2.75122 4.78552 0
M  V30 31257 H 3032.66 -3.08807 3.12306 0
M  V30 31258 H 3033.27 -1.62388 3.93078 0
M  V30 31259 N 3031.58 -1.54832 -0.294093 0
M  V30 31260 C 3032.82 -1.76181 -1.03632 0
M  V30 31261 C 3033.19 -0.539986 -1.8425 0
M  V30 31262 O 3034.39 -0.631341 -2.61281 0
M  V30 31263 C 3032.66 -3.01912 -1.91269 0
M  V30 31264 S 3034.22 -3.44293 -2.72044 0
M  V30 31265 H 3031.04 -0.61923 -0.349392 0
M  V30 31266 H 3033.64 -1.93043 -0.308972 0
M  V30 31267 H 3032.34 -3.88954 -1.30931 0
M  V30 31268 H 3031.87 -2.87657 -2.6836 0
M  V30 31269 H 3033.89 -3.01906 -3.93786 0
M  V30 31270 N 3033.06 0.557619 -1.47405 0
M  V30 31271 C 3034.48 0.883506 -1.32915 0
M  V30 31272 C 3034.68 1.98954 -0.319325 0
M  V30 31273 O 3033.73 2.5106 0.269295 0
M  V30 31274 C 3035.05 1.27713 -2.72231 0
M  V30 31275 C 3036.59 1.38858 -2.80513 0
M  V30 31276 C 3037.07 1.81576 -4.20469 0
M  V30 31277 N 3038.56 1.88727 -4.23009 0
M  V30 31278 C 3039.3 2.23108 -5.28214 0
M  V30 31279 N 3038.79 2.56106 -6.43725 0
M  V30 31280 N 3040.58 2.23878 -5.15592 0
M  V30 31281 H 3032.74 -0.172594 -2.11698 0
M  V30 31282 H 3035 -0.0145501 -0.947888 0
M  V30 31283 H 3034.7 0.538268 -3.47557 0
M  V30 31284 H 3034.58 2.23337 -3.03975 0
M  V30 31285 H 3036.97 2.11826 -2.0546 0
M  V30 31286 H 3037.05 0.41423 -2.52424 0
M  V30 31287 H 3036.69 1.09178 -4.96027 0
M  V30 31288 H 3036.62 2.80013 -4.45982 0
M  V30 31289 H 3039.11 1.65615 -3.39677 0
M  V30 31290 H 3039.42 2.81366 -7.19759 0
M  V30 31291 H 3037.77 2.53687 -6.47046 0
M  V30 31292 H 3040.96 1.97539 -4.24377 0
M  V30 31293 H 3041.13 2.50343 -5.97689 0
M  V30 31294 N 3034.54 1.35531 0.804316 0
M  V30 31295 C 3035.49 1.28674 1.93767 0
M  V30 31296 C 3036.48 0.181252 1.68428 0
M  V30 31297 O 3037.69 0.347369 1.76616 0
M  V30 31298 H 3034.06 0.400217 0.636655 0
M  V30 31299 H 3036.03 2.24419 1.96669 0
M  V30 31300 C 3034.78 1.0779 3.3057 0
M  V30 31301 H 3034.11 1.92096 3.50627 0
M  V30 31302 H 3035.55 1.07035 4.10268 0
M  V30 31303 C 3034 -0.218154 3.36193 0
M  V30 31304 O 3034.53 -1.21317 3.82943 0
M  V30 31305 N 3032.74 -0.25771 2.89455 0
M  V30 31306 H 3032.29 0.552606 2.51603 0
M  V30 31307 H 3032.25 -1.12459 2.93599 0
M  V30 31308 N 3036.02 -1.02674 1.19565 0
M  V30 31309 C 3036.95 -2.10605 0.878675 0
M  V30 31310 C 3037.93 -1.61759 -0.165148 0
M  V30 31311 O 3039.11 -1.88455 -0.0409809 0
M  V30 31312 C 3036.24 -3.37228 0.315406 0
M  V30 31313 C 3035.29 -4.04948 1.33862 0
M  V30 31314 S 3036.12 -4.50184 2.8999 0
M  V30 31315 C 3037.27 -5.80023 2.35212 0
M  V30 31316 H 3037.51 -2.37168 1.79272 0
M  V30 31317 H 3035.04 -1.15644 1.02302 0
M  V30 31318 H 3037 -4.105 -0.00304695 0
M  V30 31319 H 3035.66 -3.08755 -0.57698 0
M  V30 31320 H 3034.85 -4.96014 0.893669 0
M  V30 31321 H 3034.45 -3.37856 1.60403 0
M  V30 31322 H 3036.75 -6.54684 1.74341 0
M  V30 31323 H 3037.69 -6.293 3.24633 0
M  V30 31324 H 3038.1 -5.35798 1.77711 0
M  V30 31325 N 3037.5 -0.999914 -1.21817 0
M  V30 31326 C 3038.74 -0.690407 -1.91324 0
M  V30 31327 C 3039.1 0.769898 -1.76324 0
M  V30 31328 O 3038.39 1.55031 -1.12587 0
M  V30 31329 C 3038.58 -1.04018 -3.41928 0
M  V30 31330 C 3038.41 -2.53294 -3.71581 0
M  V30 31331 C 3037.18 -3.19813 -3.91214 0
M  V30 31332 C 3039.38 -3.51437 -3.75495 0
M  V30 31333 N 3037.36 -4.58492 -4.08238 0
M  V30 31334 C 3038.73 -4.75604 -3.97744 0
M  V30 31335 C 3040.79 -3.45644 -3.58377 0
M  V30 31336 C 3039.49 -5.94685 -4.04651 0
M  V30 31337 C 3041.52 -4.64109 -3.66547 0
M  V30 31338 C 3040.88 -5.87079 -3.89252 0
M  V30 31339 H 3036.98 -0.304031 -0.720478 0
M  V30 31340 H 3039.56 -1.28135 -1.46593 0
M  V30 31341 H 3037.73 -0.477739 -3.85451 0
M  V30 31342 H 3039.47 -0.685934 -3.98845 0
M  V30 31343 H 3036.22 -2.70266 -3.88913 0
M  V30 31344 H 3036.64 -5.30444 -4.20663 0
M  V30 31345 H 3041.29 -2.51582 -3.39803 0
M  V30 31346 H 3039 -6.89144 -4.22027 0
M  V30 31347 H 3042.59 -4.61224 -3.54631 0
M  V30 31348 H 3041.47 -6.77214 -3.95412 0
M  V30 31349 N 3038.97 1.37284 -0.773999 0
M  V30 31350 C 3040.2 2.04432 -0.349597 0
M  V30 31351 C 3040.62 1.57992 1.02079 0
M  V30 31352 O 3039.98 0.741201 1.65457 0
M  V30 31353 C 3040.03 3.58326 -0.404355 0
M  V30 31354 O 3039.13 4.08094 0.594375 0
M  V30 31355 H 3038.47 0.64661 -0.15097 0
M  V30 31356 H 3041 1.75553 -1.05082 0
M  V30 31357 H 3041.01 4.07155 -0.26245 0
M  V30 31358 H 3039.69 3.91482 -1.4041 0
M  V30 31359 H 3038.27 3.70579 0.415403 0
M  V30 31360 N 3040.45 0.524724 1.48608 0
M  V30 31361 C 3041.7 -0.0112635 2.02097 0
M  V30 31362 C 3042.02 -1.35266 1.40457 0
M  V30 31363 O 3041.29 -1.87482 0.568103 0
M  V30 31364 H 3039.87 -0.00715113 0.746966 0
M  V30 31365 H 3042.53 0.687361 1.82377 0
M  V30 31366 H 3041.63 -0.123476 3.11856 0
M  V30 31367 N 3041.93 -1.55447 0.259613 0
M  V30 31368 C 3043.16 -2.03649 -0.365357 0
M  V30 31369 C 3043.57 -1.1385 -1.50611 0
M  V30 31370 O 3042.93 -0.155446 -1.81837 0
M  V30 31371 C 3042.98 -3.51094 -0.86111 0
M  V30 31372 O 3042.7 -4.37474 0.234198 0
M  V30 31373 C 3044.2 -4.15114 -1.55548 0
M  V30 31374 H 3041.42 -0.665552 -0.0853322 0
M  V30 31375 H 3043.97 -2.00801 0.387186 0
M  V30 31376 H 3042.12 -3.54435 -1.56379 0
M  V30 31377 H 3042.54 -5.24301 -0.144308 0
M  V30 31378 H 3044.01 -5.19936 -1.85394 0
M  V30 31379 H 3044.49 -3.62359 -2.48178 0
M  V30 31380 H 3045.09 -4.15732 -0.897047 0
M  V30 31381 N 3043.41 0.0133338 -1.57594 0
M  V30 31382 C 3044.65 0.700947 -1.89982 0
M  V30 31383 C 3044.98 1.74512 -0.858833 0
M  V30 31384 O 3044.24 1.95212 0.138175 0
M  V30 31385 C 3044.54 1.3933 -3.29123 0
M  V30 31386 C 3044.2 0.483608 -4.48299 0
M  V30 31387 C 3042.86 0.233101 -4.80635 0
M  V30 31388 C 3045.22 -0.143517 -5.21002 0
M  V30 31389 C 3042.54 -0.653045 -5.83054 0
M  V30 31390 C 3044.9 -1.01746 -6.24364 0
M  V30 31391 C 3043.56 -1.27727 -6.55166 0
M  V30 31392 H 3042.83 0.256495 -0.695192 0
M  V30 31393 H 3045.48 -0.0393301 -1.9146 0
M  V30 31394 H 3043.78 2.20729 -3.23707 0
M  V30 31395 H 3045.48 1.93115 -3.51436 0
M  V30 31396 H 3042.07 0.689017 -4.23025 0
M  V30 31397 H 3046.25 0.0370267 -4.96286 0
M  V30 31398 H 3041.51 -0.862485 -6.05286 0
M  V30 31399 H 3045.68 -1.50982 -6.79836 0
M  V30 31400 H 3043.31 -1.96563 -7.34348 0
M  V30 31401 N 3044.89 1.54985 0.285878 0
M  V30 31402 C 3046.3 1.65825 0.85784 0
M  V30 31403 C 3046.65 0.576796 1.8753 0
M  V30 31404 O 3045.77 -0.283978 2.14529 0
M  V30 31405 C 3046.37 3.00607 1.56272 0
M  V30 31406 C 3044.93 3.13517 2.08288 0
M  V30 31407 C 3044.07 2.61573 0.920587 0
M  V30 31408 H 3047.02 1.58577 0.0625184 0
M  V30 31409 H 3047.05 2.92876 2.42907 0
M  V30 31410 H 3046.56 3.79296 0.82195 0
M  V30 31411 H 3044.66 2.39577 2.85366 0
M  V30 31412 H 3044.77 4.19896 2.30703 0
M  V30 31413 H 3043.14 2.18405 1.31039 0
M  V30 31414 H 3043.92 3.42754 0.193533 0
M  V30 31415 N 3046.36 -0.549794 1.47699 0
M  V30 31416 C 3047.61 -1.30301 1.53963 0
M  V30 31417 C 3047.93 -1.94472 0.209765 0
M  V30 31418 O 3049.13 -2.71083 0.150465 0
M  V30 31419 C 3047.59 -2.36323 2.7144 0
M  V30 31420 C 3047.2 -1.78309 4.10986 0
M  V30 31421 C 3048.94 -3.12778 2.87002 0
M  V30 31422 C 3046.85 -2.82155 5.19752 0
M  V30 31423 H 3045.78 -0.489964 0.573106 0
M  V30 31424 H 3048.43 -0.583058 1.7399 0
M  V30 31425 H 3046.81 -3.11265 2.44806 0
M  V30 31426 H 3047.98 -1.09689 4.47554 0
M  V30 31427 H 3046.3 -1.14413 4.00373 0
M  V30 31428 H 3048.9 -3.90341 3.65429 0
M  V30 31429 H 3049.24 -3.67423 1.95719 0
M  V30 31430 H 3049.77 -2.44949 3.13441 0
M  V30 31431 H 3046.51 -2.32356 6.12936 0
M  V30 31432 H 3046.03 -3.49163 4.87694 0
M  V30 31433 H 3047.71 -3.45511 5.4702 0
M  V30 31434 N 3047.84 -1.35955 -0.797117 0
M  V30 31435 C 3048.79 -1.297 -1.93082 0
M  V30 31436 C 3049.78 -0.190181 -1.68329 0
M  V30 31437 O 3050.99 -0.356731 -1.7643 0
M  V30 31438 H 3047.37 -0.403588 -0.634524 0
M  V30 31439 H 3049.34 -2.25458 -1.95477 0
M  V30 31440 C 3048.09 -1.09541 -3.29994 0
M  V30 31441 H 3047.41 -1.93952 -3.49603 0
M  V30 31442 H 3048.85 -1.09209 -4.09694 0
M  V30 31443 C 3047.31 0.200321 -3.36304 0
M  V30 31444 O 3047.84 1.19284 -3.83581 0
M  V30 31445 N 3046.04 0.242356 -2.89588 0
M  V30 31446 H 3045.59 -0.565942 -2.51306 0
M  V30 31447 H 3045.55 1.10901 -2.94191 0
M  V30 31448 N 3049.32 1.02038 -1.20108 0
M  V30 31449 C 3050.28 2.08662 -0.948298 0
M  V30 31450 C 3051.28 1.60627 0.0746471 0
M  V30 31451 O 3052.47 1.73454 -0.161011 0
M  V30 31452 C 3049.61 3.38216 -0.426914 0
M  V30 31453 H 3050.8 2.32521 -1.89404 0
M  V30 31454 H 3048.35 1.1878 -1.01592 0
M  V30 31455 H 3049.09 3.20031 0.524476 0
M  V30 31456 H 3048.87 3.74406 -1.16458 0
M  V30 31457 H 3050.36 4.1673 -0.26942 0
M  V30 31458 N 3050.8 1.00636 1.21285 0
M  V30 31459 C 3052.03 0.707684 1.94101 0
M  V30 31460 C 3052.44 -0.73396 1.74384 0
M  V30 31461 O 3051.78 -1.50841 1.04846 0
M  V30 31462 C 3051.84 0.950641 3.46703 0
M  V30 31463 C 3051.51 2.37939 3.90172 0
M  V30 31464 C 3052.5 3.35968 3.96763 0
M  V30 31465 C 3050.19 2.71741 4.22448 0
M  V30 31466 C 3052.18 4.65866 4.35026 0
M  V30 31467 C 3049.87 4.01854 4.60387 0
M  V30 31468 C 3050.87 4.98728 4.66647 0
M  V30 31469 O 3050.55 6.26514 5.03721 0
M  V30 31470 H 3050.29 0.259892 0.624045 0
M  V30 31471 H 3052.84 1.3476 1.55013 0
M  V30 31472 H 3051.07 0.25356 3.85868 0
M  V30 31473 H 3052.76 0.645139 4.0074 0
M  V30 31474 H 3053.53 3.11189 3.72003 0
M  V30 31475 H 3049.4 1.97032 4.16772 0
M  V30 31476 H 3052.95 5.41478 4.39827 0
M  V30 31477 H 3048.85 4.26417 4.84602 0
M  V30 31478 H 3049.61 6.3065 5.2175 0
M  V30 31479 N 3052.28 -1.36872 0.781268 0
M  V30 31480 C 3053.5 -2.03716 0.361602 0
M  V30 31481 C 3053.92 -1.58918 -1.01934 0
M  V30 31482 O 3053.28 -0.774812 -1.65236 0
M  V30 31483 C 3053.33 -3.59208 0.406454 0
M  V30 31484 O 3053.05 -4.02369 1.73293 0
M  V30 31485 C 3054.55 -4.43294 -0.0236115 0
M  V30 31486 H 3051.77 -0.653986 0.150145 0
M  V30 31487 H 3054.31 -1.75014 1.05784 0
M  V30 31488 H 3052.47 -3.86648 -0.241296 0
M  V30 31489 H 3052.88 -4.9693 1.67812 0
M  V30 31490 H 3054.36 -5.51969 0.0589175 0
M  V30 31491 H 3054.83 -4.25835 -1.07522 0
M  V30 31492 H 3055.44 -4.21099 0.596314 0
M  V30 31493 N 3053.75 -0.532597 -1.48328 0
M  V30 31494 C 3054.98 -0.00357936 -2.069 0
M  V30 31495 C 3055.4 1.279 -1.38878 0
M  V30 31496 O 3054.75 1.76152 -0.47715 0
M  V30 31497 C 3054.81 0.221353 -3.60822 0
M  V30 31498 O 3054.53 -1.01041 -4.26289 0
M  V30 31499 C 3056.03 0.790454 -4.36196 0
M  V30 31500 H 3053.25 -0.0346953 -0.670102 0
M  V30 31501 H 3055.79 -0.738989 -1.90681 0
M  V30 31502 H 3053.95 0.906818 -3.76637 0
M  V30 31503 H 3054.36 -0.792774 -5.18474 0
M  V30 31504 H 3055.83 0.897252 -5.44659 0
M  V30 31505 H 3056.31 1.79598 -4.00801 0
M  V30 31506 H 3056.92 0.141471 -4.25065 0
M  V30 31507 N 3055.23 1.55307 -0.267853 0
M  V30 31508 C 3056.48 1.99041 0.350308 0
M  V30 31509 C 3056.8 1.15761 1.56922 0
M  V30 31510 O 3056.07 0.24537 1.94357 0
M  V30 31511 H 3054.65 0.735169 0.132422 0
M  V30 31512 H 3057.31 1.91327 -0.371504 0
M  V30 31513 H 3056.41 3.05359 0.64515 0
M  V30 31514 N 3056.71 -0.00497598 1.57599 0
M  V30 31515 C 3058.12 -0.548449 1.78463 0
M  V30 31516 C 3058.47 -1.74242 0.901899 0
M  V30 31517 O 3057.6 -2.16154 0.103052 0
M  V30 31518 C 3058.19 -1.00173 3.23652 0
M  V30 31519 C 3056.75 -1.49055 3.45629 0
M  V30 31520 C 3055.9 -0.439482 2.73795 0
M  V30 31521 H 3058.85 0.221208 1.57151 0
M  V30 31522 H 3058.87 -1.86799 3.31491 0
M  V30 31523 H 3058.38 -0.132539 3.87874 0
M  V30 31524 H 3056.48 -2.3808 2.86616 0
M  V30 31525 H 3056.6 -1.52144 4.54301 0
M  V30 31526 H 3054.96 -0.900001 2.38269 0
M  V30 31527 H 3055.74 0.420659 3.40713 0
M  V30 31528 N 3058.19 -1.55135 -0.277654 0
M  V30 31529 C 3059.43 -1.7727 -1.01758 0
M  V30 31530 C 3059.79 -0.559498 -1.83667 0
M  V30 31531 O 3060.99 -0.659018 -2.60596 0
M  V30 31532 C 3059.26 -3.03924 -1.88056 0
M  V30 31533 S 3060.82 -3.47159 -2.68377 0
M  V30 31534 H 3057.64 -0.622901 -0.342805 0
M  V30 31535 H 3060.24 -1.9336 -0.28848 0
M  V30 31536 H 3058.95 -3.90321 -1.26798 0
M  V30 31537 H 3058.48 -2.90487 -2.65294 0
M  V30 31538 H 3060.49 -3.06066 -3.90561 0
M  V30 31539 N 3059.67 0.541953 -1.47989 0
M  V30 31540 C 3060.89 1.32344 -1.59037 0
M  V30 31541 C 3061.31 1.87188 -0.246156 0
M  V30 31542 O 3060.67 1.65791 0.762859 0
M  V30 31543 C 3060.72 2.4827 -2.62763 0
M  V30 31544 O 3060.44 1.95688 -3.91967 0
M  V30 31545 C 3061.94 3.40265 -2.84139 0
M  V30 31546 H 3059.16 0.402892 -0.536581 0
M  V30 31547 H 3061.7 0.655011 -1.93726 0
M  V30 31548 H 3059.86 3.1102 -2.30965 0
M  V30 31549 H 3060.27 2.71482 -4.48774 0
M  V30 31550 H 3061.75 4.17985 -3.60545 0
M  V30 31551 H 3062.22 3.94757 -1.92519 0
M  V30 31552 H 3062.83 2.83317 -3.17193 0
M  V30 31553 N 3061.15 1.36376 0.789896 0
M  V30 31554 C 3062.56 1.27372 1.36503 0
M  V30 31555 C 3062.91 -0.0866766 1.96008 0
M  V30 31556 O 3062.03 -0.988125 1.92523 0
M  V30 31557 C 3062.63 2.30644 2.48171 0
M  V30 31558 C 3061.19 2.2533 3.01502 0
M  V30 31559 C 3060.33 2.15448 1.74577 0
M  V30 31560 H 3063.28 1.47262 0.59158 0
M  V30 31561 H 3063.31 1.94259 3.27175 0
M  V30 31562 H 3062.82 3.29644 2.04833 0
M  V30 31563 H 3060.92 1.29794 3.49262 0
M  V30 31564 H 3061.03 3.17998 3.58349 0
M  V30 31565 H 3059.4 1.61695 1.96791 0
M  V30 31566 H 3060.18 3.16335 1.33367 0
M  V30 31567 N 3062.62 -1.014 1.20647 0
M  V30 31568 C 3063.55 -2.11866 0.981588 0
M  V30 31569 C 3064.53 -1.6986 -0.0903413 0
M  V30 31570 O 3065.72 -1.94082 0.0676927 0
M  V30 31571 C 3062.85 -3.43144 0.535696 0
M  V30 31572 C 3061.8 -3.98902 1.55116 0
M  V30 31573 C 3061.13 -5.25978 0.961817 0
M  V30 31574 C 3062.43 -4.31995 2.9356 0
M  V30 31575 H 3064.12 -2.30937 1.90548 0
M  V30 31576 H 3061.67 -1.1098 0.917573 0
M  V30 31577 H 3063.62 -4.19811 0.365586 0
M  V30 31578 H 3062.35 -3.23838 -0.423825 0
M  V30 31579 H 3061.01 -3.24345 1.70868 0
M  V30 31580 H 3060.65 -5.03 -0.00571266 0
M  V30 31581 H 3060.35 -5.64249 1.64003 0
M  V30 31582 H 3061.88 -6.05299 0.802832 0
M  V30 31583 H 3063.29 -4.99541 2.81304 0
M  V30 31584 H 3061.69 -4.81386 3.58312 0
M  V30 31585 H 3062.76 -3.40652 3.45086 0
M  V30 31586 N 3064.1 -1.01278 -1.2075 0
M  V30 31587 C 3065.51 -0.732063 -1.71749 0
M  V30 31588 C 3065.86 0.749701 -1.81312 0
M  V30 31589 O 3064.99 1.58527 -1.47303 0
M  V30 31590 C 3065.58 -1.32222 -3.11934 0
M  V30 31591 C 3064.14 -1.09046 -3.60258 0
M  V30 31592 C 3063.29 -1.43026 -2.37568 0
M  V30 31593 H 3066.24 -1.18272 -1.05818 0
M  V30 31594 H 3066.26 -0.710837 -3.73801 0
M  V30 31595 H 3065.77 -2.40067 -3.04942 0
M  V30 31596 H 3063.87 -0.0295119 -3.72588 0
M  V30 31597 H 3063.99 -1.76782 -4.45292 0
M  V30 31598 H 3062.35 -0.849201 -2.40126 0
M  V30 31599 H 3063.13 -2.51919 -2.33221 0
M  V30 31600 N 3065.58 1.36456 -0.788516 0
M  V30 31601 C 3066.54 2.28392 -0.192249 0
M  V30 31602 C 3067.54 1.48785 0.60989 0
M  V30 31603 O 3068.73 1.68784 0.431017 0
M  V30 31604 C 3065.86 3.32903 0.734038 0
M  V30 31605 H 3067.06 2.82634 -1.00289 0
M  V30 31606 H 3064.61 1.46005 -0.557878 0
M  V30 31607 H 3065.35 2.83815 1.56905 0
M  V30 31608 H 3065.13 3.9177 0.160806 0
M  V30 31609 H 3066.62 4.01564 1.14612 0
M  V30 31610 N 3067.06 0.540456 1.48043 0
M  V30 31611 C 3068.47 0.102695 1.86417 0
M  V30 31612 C 3068.82 -1.3229 1.44892 0
M  V30 31613 O 3067.94 -1.99248 0.844355 0
M  V30 31614 C 3068.54 0.179592 3.38324 0
M  V30 31615 C 3067.1 -0.203032 3.75852 0
M  V30 31616 C 3066.25 0.534684 2.72096 0
M  V30 31617 H 3069.2 0.751127 1.39799 0
M  V30 31618 H 3069.22 -0.606081 3.75642 0
M  V30 31619 H 3068.73 1.21727 3.68516 0
M  V30 31620 H 3066.83 -1.24246 3.51275 0
M  V30 31621 H 3066.94 0.143868 4.78884 0
M  V30 31622 H 3065.31 -0.0202911 2.54692 0
M  V30 31623 H 3066.09 1.5732 3.05132 0
M  V30 31624 N 3068.54 -1.55163 0.276085 0
M  V30 31625 C 3069.48 -2.23992 -0.626939 0
M  V30 31626 C 3070.48 -1.23727 -1.15706 0
M  V30 31627 O 3071.68 -1.41655 -1.11058 0
M  V30 31628 H 3068.06 -0.718876 -0.22073 0
M  V30 31629 H 3070.03 -2.98391 -0.0236044 0
M  V30 31630 C 3068.78 -2.97524 -1.7993 0
M  V30 31631 H 3068.1 -3.74465 -1.40057 0
M  V30 31632 H 3069.54 -3.49003 -2.40775 0
M  V30 31633 C 3068 -2.03051 -2.68834 0
M  V30 31634 O 3068.53 -1.58235 -3.69221 0
M  V30 31635 N 3066.74 -1.69531 -2.36025 0
M  V30 31636 H 3066.28 -2.06171 -1.54438 0
M  V30 31637 H 3066.24 -1.06591 -2.9578 0
M  V30 31638 N 3070.01 -0.00338196 -1.576 0
M  V30 31639 C 3071.24 0.690648 -1.94714 0
M  V30 31640 C 3071.65 1.67649 -0.876944 0
M  V30 31641 O 3070.99 1.83067 0.152402 0
M  V30 31642 C 3071.06 1.47526 -3.27836 0
M  V30 31643 C 3070.72 0.650625 -4.52345 0
M  V30 31644 C 3071.72 -0.0631451 -5.19862 0
M  V30 31645 C 3069.4 0.595599 -4.98756 0
M  V30 31646 C 3071.4 -0.82089 -6.32092 0
M  V30 31647 C 3069.08 -0.165868 -6.10875 0
M  V30 31648 C 3070.08 -0.872843 -6.774 0
M  V30 31649 O 3069.77 -1.62188 -7.87369 0
M  V30 31650 H 3069.5 0.197092 -0.64663 0
M  V30 31651 H 3072.06 -0.0516443 -2.05335 0
M  V30 31652 H 3070.29 2.26211 -3.13632 0
M  V30 31653 H 3071.97 2.05495 -3.50038 0
M  V30 31654 H 3072.74 -0.0298075 -4.84991 0
M  V30 31655 H 3068.62 1.13541 -4.46799 0
M  V30 31656 H 3072.16 -1.37324 -6.8395 0
M  V30 31657 H 3068.06 -0.201014 -6.45187 0
M  V30 31658 H 3068.83 -1.53894 -8.03902 0
M  V30 31659 N 3071.49 1.5528 0.269423 0
M  V30 31660 C 3072.72 1.80084 1.01869 0
M  V30 31661 C 3073.13 0.575948 1.79801 0
M  V30 31662 O 3072.49 -0.45505 1.76736 0
M  V30 31663 C 3072.54 3.02817 1.97444 0
M  V30 31664 O 3072.26 4.20576 1.2267 0
M  V30 31665 C 3073.76 3.40252 2.84154 0
M  V30 31666 H 3070.98 0.599815 0.30077 0
M  V30 31667 H 3073.53 2.02301 0.299124 0
M  V30 31668 H 3071.68 2.82716 2.64859 0
M  V30 31669 H 3072.1 4.89986 1.87121 0
M  V30 31670 H 3073.57 4.2929 3.47007 0
M  V30 31671 H 3074.05 2.59815 3.54108 0
M  V30 31672 H 3074.65 3.62624 2.22226 0
M  V30 31673 N 3072.97 -0.534097 1.48274 0
M  V30 31674 C 3074.22 -1.29015 1.56082 0
M  V30 31675 C 3074.54 -1.931 0.232946 0
M  V30 31676 O 3073.8 -1.7964 -0.776389 0
M  V30 31677 C 3074.1 -2.40394 2.64472 0
M  V30 31678 C 3073.76 -1.93988 4.07037 0
M  V30 31679 C 3072.43 -1.8105 4.45841 0
M  V30 31680 C 3074.78 -1.58868 4.96397 0
M  V30 31681 C 3072.11 -1.3132 5.71814 0
M  V30 31682 C 3074.46 -1.10603 6.22856 0
M  V30 31683 C 3073.12 -0.962779 6.6052 0
M  V30 31684 H 3072.39 -0.472098 0.571143 0
M  V30 31685 H 3075.04 -0.596468 1.81974 0
M  V30 31686 H 3073.34 -3.15414 2.32424 0
M  V30 31687 H 3075.04 -2.98533 2.6773 0
M  V30 31688 H 3071.63 -2.05008 3.7639 0
M  V30 31689 H 3075.82 -1.67726 4.67099 0
M  V30 31690 H 3071.07 -1.18914 5.99725 0
M  V30 31691 H 3075.25 -0.824974 6.91496 0
M  V30 31692 H 3072.87 -0.575236 7.5802 0
M  V30 31693 N 3074.45 -1.36793 -0.782652 0
M  V30 31694 C 3075.41 -1.3151 -1.87717 0
M  V30 31695 C 3076.41 -0.221377 -1.59269 0
M  V30 31696 O 3077.6 -0.476573 -1.67554 0
M  V30 31697 C 3074.73 -1.04031 -3.24639 0
M  V30 31698 H 3075.93 -2.28857 -1.93816 0
M  V30 31699 H 3073.48 -1.21664 -0.981205 0
M  V30 31700 H 3074.21 -0.0717009 -3.24221 0
M  V30 31701 H 3074 -1.83186 -3.46678 0
M  V30 31702 H 3075.49 -1.02956 -4.04709 0
M  V30 31703 N 3075.93 1.00759 -1.21184 0
M  V30 31704 C 3076.86 2.11342 -0.99281 0
M  V30 31705 C 3077.84 1.69905 0.081332 0
M  V30 31706 O 3079.02 1.94043 -0.0779844 0
M  V30 31707 C 3076.15 3.42855 -0.553887 0
M  V30 31708 C 3075.11 3.98074 -1.5723 0
M  V30 31709 C 3074.43 5.25461 -0.989698 0
M  V30 31710 C 3075.73 4.30433 -2.95846 0
M  V30 31711 H 3077.43 2.29923 -1.9177 0
M  V30 31712 H 3074.97 1.10492 -0.923446 0
M  V30 31713 H 3076.93 4.19611 -0.387844 0
M  V30 31714 H 3075.65 3.24059 0.406645 0
M  V30 31715 H 3074.31 3.23434 -1.72586 0
M  V30 31716 H 3073.96 5.02996 -0.0209627 0
M  V30 31717 H 3073.66 5.63371 -1.66993 0
M  V30 31718 H 3075.18 6.04865 -0.834921 0
M  V30 31719 H 3076.59 4.98042 -2.83949 0
M  V30 31720 H 3074.99 4.79479 -3.6086 0
M  V30 31721 H 3076.06 3.38817 -3.46888 0
M  V30 31722 N 3077.4 1.01917 1.20211 0
M  V30 31723 C 3078.65 0.720757 1.90202 0
M  V30 31724 C 3079.01 -0.741749 1.77527 0
M  V30 31725 O 3078.3 -1.5322 1.1504 0
M  V30 31726 C 3078.49 1.09444 3.4023 0
M  V30 31727 C 3078.32 2.59173 3.67504 0
M  V30 31728 C 3077.09 3.25996 3.86076 0
M  V30 31729 C 3079.29 3.57366 3.69857 0
M  V30 31730 N 3077.27 4.64929 4.00892 0
M  V30 31731 C 3078.64 4.81872 3.90128 0
M  V30 31732 C 3080.7 3.51302 3.52833 0
M  V30 31733 C 3079.4 6.01047 3.95139 0
M  V30 31734 C 3081.43 4.69882 3.59117 0
M  V30 31735 C 3080.79 5.93198 3.79863 0
M  V30 31736 H 3076.89 0.315455 0.71555 0
M  V30 31737 H 3079.47 1.30451 1.44536 0
M  V30 31738 H 3077.64 0.539 3.84642 0
M  V30 31739 H 3079.37 0.7493 3.97703 0
M  V30 31740 H 3076.13 2.76419 3.84564 0
M  V30 31741 H 3076.55 5.3707 4.12171 0
M  V30 31742 H 3081.2 2.56957 3.35758 0
M  V30 31743 H 3078.91 6.95771 4.1101 0
M  V30 31744 H 3082.5 4.66808 3.47249 0
M  V30 31745 H 3081.38 6.83419 3.84588 0
M  V30 31746 N 3078.88 -1.36036 0.795742 0
M  V30 31747 C 3080.3 -1.52268 0.478172 0
M  V30 31748 C 3080.5 -1.74793 -1.00247 0
M  V30 31749 O 3079.55 -1.78308 -1.7878 0
M  V30 31750 C 3080.87 -2.70466 1.31411 0
M  V30 31751 C 3082.42 -2.84339 1.30845 0
M  V30 31752 C 3082.89 -4.05548 2.12826 0
M  V30 31753 N 3084.38 -4.12706 2.10305 0
M  V30 31754 C 3085.12 -5.05584 2.70504 0
M  V30 31755 N 3084.61 -6.03865 3.39587 0
M  V30 31756 N 3086.41 -4.98247 2.60204 0
M  V30 31757 H 3078.56 -1.1967 1.75479 0
M  V30 31758 H 3080.82 -0.584611 0.74628 0
M  V30 31759 H 3080.53 -2.60363 2.3644 0
M  V30 31760 H 3080.4 -3.64785 0.95979 0
M  V30 31761 H 3082.79 -2.93898 0.266055 0
M  V30 31762 H 3082.87 -1.90909 1.70257 0
M  V30 31763 H 3082.51 -3.96749 3.171 0
M  V30 31764 H 3082.44 -4.98138 1.70781 0
M  V30 31765 H 3084.93 -3.42342 1.60032 0
M  V30 31766 H 3085.25 -6.7131 3.82835 0
M  V30 31767 H 3083.59 -6.04071 3.4369 0
M  V30 31768 H 3086.78 -4.20418 2.0583 0
M  V30 31769 H 3086.95 -5.70441 3.0741 0
M  V30 31770 N 3080.36 -0.5483 -1.47755 0
M  V30 31771 C 3081.61 -0.0209621 -2.02789 0
M  V30 31772 C 3081.94 1.32184 -1.42271 0
M  V30 31773 O 3081.21 1.85805 -0.575034 0
M  V30 31774 C 3081.5 0.0816042 -3.60008 0
M  V30 31775 C 3081.35 -1.28766 -4.30975 0
M  V30 31776 C 3082.67 0.799439 -4.32778 0
M  V30 31777 H 3079.79 -0.00909179 -0.736944 0
M  V30 31778 H 3082.43 -0.70887 -1.76281 0
M  V30 31779 H 3080.58 0.66747 -3.82723 0
M  V30 31780 H 3082.25 -1.91605 -4.19625 0
M  V30 31781 H 3080.5 -1.86473 -3.91676 0
M  V30 31782 H 3081.17 -1.16871 -5.39486 0
M  V30 31783 H 3083.64 0.302087 -4.15002 0
M  V30 31784 H 3082.52 0.840143 -5.42432 0
M  V30 31785 H 3082.78 1.85368 -4.01361 0
M  V30 31786 N 3081.84 1.55014 -0.28431 0
M  V30 31787 C 3083.06 2.04664 0.335763 0
M  V30 31788 C 3083.49 1.16097 1.47997 0
M  V30 31789 O 3082.85 0.161486 1.80579 0
M  V30 31790 C 3082.89 3.5194 0.785553 0
M  V30 31791 O 3082 3.66441 1.89196 0
M  V30 31792 H 3081.34 0.660508 0.0680117 0
M  V30 31793 H 3083.87 2.00216 -0.42129 0
M  V30 31794 H 3083.88 3.93478 1.07885 0
M  V30 31795 H 3082.55 4.15868 -0.0515406 0
M  V30 31796 H 3081.13 3.36807 1.60049 0
M  V30 31797 N 3083.32 0.0117398 1.57596 0
M  V30 31798 C 3084.28 -0.960779 2.08091 0
M  V30 31799 C 3085.28 -1.26512 0.992542 0
M  V30 31800 O 3086.47 -1.20835 1.25478 0
M  V30 31801 C 3083.6 -2.28236 2.53221 0
M  V30 31802 H 3084.79 -0.523777 2.95291 0
M  V30 31803 H 3082.35 -0.235968 1.54509 0
M  V30 31804 H 3083.08 -2.76602 1.69299 0
M  V30 31805 H 3082.87 -2.07464 3.32718 0
M  V30 31806 H 3084.36 -2.97978 2.92573 0
M  V30 31807 N 3084.79 -1.55421 -0.261185 0
M  V30 31808 C 3085.7 -1.92223 -1.3449 0
M  V30 31809 C 3086.72 -0.820887 -1.53419 0
M  V30 31810 O 3087.9 -1.12102 -1.67318 0
M  V30 31811 C 3084.96 -2.19697 -2.68205 0
M  V30 31812 C 3084.02 -3.43184 -2.57921 0
M  V30 31813 C 3083.26 -3.69338 -3.8526 0
M  V30 31814 O 3083.48 -2.97801 -4.86488 0
M  V30 31815 O 3082.41 -4.62871 -3.84752 0
M  V30 31816 H 3086.24 -2.84499 -1.06273 0
M  V30 31817 H 3083.82 -1.42119 -0.460727 0
M  V30 31818 H 3085.71 -2.3874 -3.47248 0
M  V30 31819 H 3084.38 -1.30602 -2.96184 0
M  V30 31820 H 3083.29 -3.29463 -1.77214 0
M  V30 31821 H 3084.62 -4.32536 -2.3489 0
M  V30 31822 N 3086.27 0.526227 -1.48555 0
M  V30 31823 C 3087.18 1.65728 -1.66046 0
M  V30 31824 C 3088.2 1.65311 -0.54298 0
M  V30 31825 O 3089.37 1.84194 -0.814527 0
M  V30 31826 C 3086.44 3.02181 -1.69964 0
M  V30 31827 C 3085.5 3.13423 -2.93367 0
M  V30 31828 C 3084.73 4.43367 -2.97089 0
M  V30 31829 O 3084.96 5.30687 -2.09112 0
M  V30 31830 O 3083.89 4.59054 -3.89298 0
M  V30 31831 H 3087.72 1.53907 -2.61813 0
M  V30 31832 H 3085.3 0.699736 -1.32 0
M  V30 31833 H 3087.18 3.83326 -1.7504 0
M  V30 31834 H 3085.86 3.14317 -0.773713 0
M  V30 31835 H 3084.77 2.31559 -2.93822 0
M  V30 31836 H 3086.1 3.06204 -3.85357 0
M  V30 31837 N 3087.75 1.37206 0.775387 0
M  V30 31838 C 3088.98 1.35203 1.56217 0
M  V30 31839 C 3089.39 -0.0654227 1.89087 0
M  V30 31840 O 3088.73 -1.03662 1.51657 0
M  V30 31841 C 3088.79 2.12208 2.90186 0
M  V30 31842 C 3088.46 3.612 2.79971 0
M  V30 31843 C 3089.45 4.55159 2.5125 0
M  V30 31844 C 3087.14 4.04274 2.98107 0
M  V30 31845 C 3089.13 5.90169 2.40788 0
M  V30 31846 C 3086.82 5.39371 2.87266 0
M  V30 31847 C 3087.82 6.32132 2.58646 0
M  V30 31848 O 3087.51 7.64747 2.47824 0
M  V30 31849 H 3087.24 0.464933 0.490727 0
M  V30 31850 H 3089.79 1.81097 0.969169 0
M  V30 31851 H 3088.02 1.60998 3.51591 0
M  V30 31852 H 3089.71 2.02885 3.51557 0
M  V30 31853 H 3090.48 4.23191 2.36928 0
M  V30 31854 H 3086.36 3.32435 3.19387 0
M  V30 31855 H 3089.9 6.62541 2.1837 0
M  V30 31856 H 3085.8 5.70943 3.01156 0
M  V30 31857 H 3086.57 7.75027 2.63201 0
M  V30 31858 N 3089.23 -1.00115 1.21716 0
M  V30 31859 C 3090.47 -1.74206 1.03827 0
M  V30 31860 C 3090.81 -1.89454 -0.4267 0
M  V30 31861 O 3090.08 -1.43168 -1.31655 0
M  V30 31862 C 3090.37 -3.15242 1.74052 0
M  V30 31863 C 3090.22 -3.07694 3.28092 0
M  V30 31864 C 3091.54 -4.14246 1.48621 0
M  V30 31865 H 3088.66 -0.632332 0.378584 0
M  V30 31866 H 3091.3 -1.16691 1.49944 0
M  V30 31867 H 3089.45 -3.64347 1.34846 0
M  V30 31868 H 3091.12 -2.66274 3.76691 0
M  V30 31869 H 3089.36 -2.447 3.58196 0
M  V30 31870 H 3090.03 -4.07459 3.72399 0
M  V30 31871 H 3092.51 -3.73863 1.82662 0
M  V30 31872 H 3091.39 -5.11062 2.00266 0
M  V30 31873 H 3091.65 -4.40129 0.417035 0
M  V30 31874 N 3090.71 -1.02553 -1.19669 0
M  V30 31875 C 3091.62 -0.613368 -2.2644 0
M  V30 31876 C 3092.63 0.353309 -1.70375 0
M  V30 31877 O 3093.81 0.212029 -2.00281 0
M  V30 31878 C 3090.87 0.0328419 -3.46684 0
M  V30 31879 C 3089.94 -0.980911 -4.17943 0
M  V30 31880 C 3089.17 -0.365443 -5.32447 0
M  V30 31881 O 3089.39 0.832497 -5.64292 0
M  V30 31882 O 3088.33 -1.08662 -5.9201 0
M  V30 31883 H 3092.15 -1.5025 -2.63929 0
M  V30 31884 H 3089.74 -0.795524 -1.26459 0
M  V30 31885 H 3091.62 0.393321 -4.1956 0
M  V30 31886 H 3090.29 0.896034 -3.11051 0
M  V30 31887 H 3089.2 -1.39292 -3.47201 0
M  V30 31888 H 3090.53 -1.81436 -4.57539 0
M  V30 31889 N 3092.19 1.35612 -0.802945 0
M  V30 31890 C 3093.43 1.98124 -0.378122 0
M  V30 31891 C 3093.75 1.6442 1.0595 0
M  V30 31892 O 3094.95 2.20269 1.58725 0
M  V30 31893 C 3093.41 3.54429 -0.625139 0
M  V30 31894 C 3093.02 3.97046 -2.07506 0
M  V30 31895 C 3094.76 4.23669 -0.265493 0
M  V30 31896 C 3092.67 5.46182 -2.26802 0
M  V30 31897 H 3091.6 0.74133 -0.137646 0
M  V30 31898 H 3094.25 1.54728 -0.986489 0
M  V30 31899 H 3092.63 3.95964 0.0531279 0
M  V30 31900 H 3093.81 3.66673 -2.79084 0
M  V30 31901 H 3092.12 3.40684 -2.39423 0
M  V30 31902 H 3094.72 5.33292 -0.387763 0
M  V30 31903 H 3095.06 4.08776 0.787922 0
M  V30 31904 H 3095.59 3.87543 -0.897532 0
M  V30 31905 H 3092.33 5.66039 -3.30576 0
M  V30 31906 H 3091.85 5.78136 -1.59745 0
M  V30 31907 H 3093.53 6.12594 -2.08176 0
M  V30 31908 N 3093.66 0.556128 1.47462 0
M  V30 31909 C 3095.08 0.215818 1.58134 0
M  V30 31910 C 3095.28 -1.28163 1.55488 0
M  V30 31911 O 3094.34 -2.06172 1.45772 0
M  V30 31912 C 3095.65 0.841515 2.88685 0
M  V30 31913 C 3097.2 0.812644 3.02267 0
M  V30 31914 C 3097.67 1.41739 4.35516 0
M  V30 31915 N 3099.16 1.38053 4.42149 0
M  V30 31916 C 3099.9 1.81809 5.43814 0
M  V30 31917 N 3099.39 2.33416 6.52295 0
M  V30 31918 N 3101.19 1.72886 5.34852 0
M  V30 31919 H 3093.34 1.52904 1.47425 0
M  V30 31920 H 3095.6 0.637571 0.701575 0
M  V30 31921 H 3095.31 1.89386 2.96354 0
M  V30 31922 H 3095.18 0.333912 3.75719 0
M  V30 31923 H 3097.57 -0.231004 2.94194 0
M  V30 31924 H 3097.65 1.35799 2.16777 0
M  V30 31925 H 3097.29 2.4601 4.44344 0
M  V30 31926 H 3097.22 0.847493 5.19736 0
M  V30 31927 H 3099.71 1.00302 3.64346 0
M  V30 31928 H 3100.03 2.6473 7.26043 0
M  V30 31929 H 3098.37 2.37426 6.53188 0
M  V30 31930 H 3101.56 1.32346 4.49001 0
M  V30 31931 H 3101.74 2.07305 6.13945 0
M  V30 31932 N 3095.14 -1.54861 0.292527 0
M  V30 31933 C 3096.07 -2.20631 -0.62085 0
M  V30 31934 C 3097.09 -1.19639 -1.1041 0
M  V30 31935 O 3098.28 -1.46276 -1.02301 0
M  V30 31936 C 3095.38 -2.83235 -1.86095 0
M  V30 31937 C 3094.55 -4.1008 -1.52161 0
M  V30 31938 C 3093.61 -4.56567 -2.61597 0
M  V30 31939 O 3092.63 -5.21956 -2.27047 0
M  V30 31940 N 3093.84 -4.2817 -3.91983 0
M  V30 31941 H 3096.6 -2.99644 -0.0578501 0
M  V30 31942 H 3094.16 -1.61496 0.114362 0
M  V30 31943 H 3096.15 -3.1127 -2.58636 0
M  V30 31944 H 3094.72 -2.08112 -2.33256 0
M  V30 31945 H 3093.94 -3.89146 -0.629215 0
M  V30 31946 H 3095.23 -4.92691 -1.27015 0
M  V30 31947 H 3094.63 -3.75767 -4.22866 0
M  V30 31948 H 3093.19 -4.60936 -4.60849 0
M  V30 31949 N 3096.62 -0.0200973 -1.57587 0
M  V30 31950 C 3097.87 0.66147 -1.91709 0
M  V30 31951 C 3098.2 1.72295 -0.895998 0
M  V30 31952 O 3097.47 1.94325 0.0825428 0
M  V30 31953 C 3097.76 1.28621 -3.36346 0
M  V30 31954 C 3097.61 0.234903 -4.49186 0
M  V30 31955 C 3098.93 2.20678 -3.80774 0
M  V30 31956 H 3096.05 0.238992 -0.697174 0
M  V30 31957 H 3098.69 -0.0755098 -1.8985 0
M  V30 31958 H 3096.84 1.91433 -3.38061 0
M  V30 31959 H 3098.51 -0.395091 -4.59605 0
M  V30 31960 H 3096.75 -0.440641 -4.31556 0
M  V30 31961 H 3097.43 0.711462 -5.47396 0
M  V30 31962 H 3099.9 1.67862 -3.80738 0
M  V30 31963 H 3098.78 2.61347 -4.82689 0
M  V30 31964 H 3099.04 3.09423 -3.15769 0
M  V30 31965 N 3098.1 1.55557 0.252939 0
M  V30 31966 C 3099.35 1.76756 0.979881 0
M  V30 31967 C 3099.67 0.582977 1.86082 0
M  V30 31968 O 3098.94 -0.401463 1.91742 0
M  V30 31969 H 3097.52 0.65187 0.364793 0
M  V30 31970 H 3100.18 1.92988 0.272339 0
M  V30 31971 H 3099.27 2.6766 1.60513 0
M  V30 31972 N 3099.58 -0.518341 1.48832 0
M  V30 31973 C 3100.85 -1.27963 1.47935 0
M  V30 31974 C 3101.23 -2.10175 0.19743 0
M  V30 31975 O 3100.58 -2.13256 -0.820619 0
M  V30 31976 C 3100.79 -2.15116 2.7482 0
M  V30 31977 C 3102.14 -2.74875 3.23618 0
M  V30 31978 O 3103.16 -2.25395 2.75818 0
M  V30 31979 O 3102.02 -3.64906 4.06824 0
M  V30 31980 H 3099.12 -0.578154 0.591327 0
M  V30 31981 H 3101.66 -0.534037 1.61078 0
M  V30 31982 H 3100.43 -1.54228 3.59624 0
M  V30 31983 H 3100.06 -2.96901 2.64454 0
M  V30 31984 N 3101.05 -1.37615 -0.7681 0
M  V30 31985 C 3102.3 -1.33025 -1.52678 0
M  V30 31986 C 3102.63 0.0841577 -1.94318 0
M  V30 31987 O 3101.88 1.05817 -1.64624 0
M  V30 31988 C 3102.18 -2.21861 -2.802 0
M  V30 31989 C 3101.85 -3.70075 -2.57595 0
M  V30 31990 C 3100.51 -4.10466 -2.51139 0
M  V30 31991 C 3102.86 -4.63957 -2.37474 0
M  V30 31992 C 3100.19 -5.42849 -2.22556 0
M  V30 31993 C 3102.54 -5.96581 -2.10414 0
M  V30 31994 C 3101.21 -6.36073 -2.02405 0
M  V30 31995 H 3100.48 -0.486773 -0.558689 0
M  V30 31996 H 3103.12 -1.69853 -0.884441 0
M  V30 31997 H 3101.43 -1.78041 -3.49011 0
M  V30 31998 H 3103.13 -2.15621 -3.38095 0
M  V30 31999 H 3099.72 -3.38044 -2.63485 0
M  V30 32000 H 3103.9 -4.33608 -2.4145 0
M  V30 32001 H 3099.16 -5.72406 -2.14853 0
M  V30 32002 H 3103.33 -6.68878 -1.93845 0
M  V30 32003 H 3100.96 -7.38577 -1.80021 0
M  V30 32004 N 3102.53 0.994677 -1.22245 0
M  V30 32005 C 3103.48 2.06884 -0.95828 0
M  V30 32006 C 3104.47 1.60646 0.0904198 0
M  V30 32007 O 3105.66 1.76594 -0.119868 0
M  V30 32008 C 3102.79 3.3909 -0.536003 0
M  V30 32009 C 3101.87 3.91967 -1.61934 0
M  V30 32010 N 3102.26 4.18089 -2.84666 0
M  V30 32011 C 3100.56 4.20353 -1.49061 0
M  V30 32012 C 3101.26 4.61042 -3.54705 0
M  V30 32013 N 3100.24 4.64629 -2.82172 0
M  V30 32014 H 3104.04 2.25019 -1.8906 0
M  V30 32015 H 3101.55 1.17627 -1.11972 0
M  V30 32016 H 3103.55 4.15607 -0.32807 0
M  V30 32017 H 3102.21 3.22356 0.389434 0
M  V30 32018 H 3103.22 4.06335 -3.21111 0
M  V30 32019 H 3099.9 4.12701 -0.631227 0
M  V30 32020 H 3101.29 4.8989 -4.59845 0
M  V30 32021 N 3104.01 1.03186 1.19123 0
M  V30 32022 C 3105.24 0.748697 1.92557 0
M  V30 32023 C 3105.65 -0.696806 1.75901 0
M  V30 32024 O 3104.99 -1.48583 1.08022 0
M  V30 32025 C 3105.05 1.02397 3.44609 0
M  V30 32026 C 3104.72 2.46162 3.85037 0
M  V30 32027 C 3105.71 3.44309 3.89548 0
M  V30 32028 C 3103.4 2.8064 4.16589 0
M  V30 32029 C 3105.39 4.74989 4.25047 0
M  V30 32030 C 3103.08 4.11529 4.5176 0
M  V30 32031 C 3104.08 5.08514 4.55963 0
M  V30 32032 O 3103.77 6.37058 4.90319 0
M  V30 32033 H 3103.5 0.27307 0.618392 0
M  V30 32034 H 3106.05 1.38017 1.5212 0
M  V30 32035 H 3104.28 0.335351 3.85243 0
M  V30 32036 H 3105.97 0.729997 3.99282 0
M  V30 32037 H 3106.74 3.1901 3.65319 0
M  V30 32038 H 3102.62 2.05828 4.12499 0
M  V30 32039 H 3106.16 5.50685 4.28242 0
M  V30 32040 H 3102.06 4.366 4.75448 0
M  V30 32041 H 3102.82 6.41575 5.08255 0
M  V30 32042 N 3105.49 -1.35184 0.810125 0
M  V30 32043 C 3106.73 -1.98961 0.392733 0
M  V30 32044 C 3107.07 -1.64111 -1.03832 0
M  V30 32045 O 3106.34 -0.90623 -1.72098 0
M  V30 32046 C 3106.63 -3.55392 0.580411 0
M  V30 32047 C 3106.48 -4.00027 2.05666 0
M  V30 32048 C 3107.8 -4.40099 0.00830353 0
M  V30 32049 H 3104.92 -0.722761 0.14417 0
M  V30 32050 H 3107.56 -1.6028 1.02032 0
M  V30 32051 H 3105.71 -3.88473 0.0461789 0
M  V30 32052 H 3107.38 -3.77339 2.65354 0
M  V30 32053 H 3105.62 -3.50807 2.55181 0
M  V30 32054 H 3106.29 -5.08879 2.13884 0
M  V30 32055 H 3108.77 -4.13498 0.46459 0
M  V30 32056 H 3107.65 -5.48638 0.16951 0
M  V30 32057 H 3107.91 -4.28562 -1.08569 0
M  V30 32058 N 3106.97 -0.56394 -1.47165 0
M  V30 32059 C 3108.19 -0.047465 -2.06846 0
M  V30 32060 C 3108.61 1.24925 -1.4156 0
M  V30 32061 O 3107.97 1.751 -0.514407 0
M  V30 32062 C 3108.02 0.144767 -3.6121 0
M  V30 32063 O 3107.74 -1.10061 -4.2405 0
M  V30 32064 C 3109.24 0.697753 -4.37774 0
M  V30 32065 H 3106.46 -0.0489014 -0.669216 0
M  V30 32066 H 3109 -0.779269 -1.8907 0
M  V30 32067 H 3107.16 0.826723 -3.78476 0
M  V30 32068 H 3107.57 -0.902571 -5.16676 0
M  V30 32069 H 3109.05 0.78152 -5.4644 0
M  V30 32070 H 3109.52 1.71056 -4.0452 0
M  V30 32071 H 3110.13 0.0512769 -4.25269 0
M  V30 32072 N 3108.44 1.54704 -0.300735 0
M  V30 32073 C 3109.69 1.99739 0.308009 0
M  V30 32074 C 3110.01 1.19064 1.54431 0
M  V30 32075 O 3109.28 0.286541 1.93793 0
M  V30 32076 H 3107.86 0.737812 0.116798 0
M  V30 32077 H 3110.53 1.90496 -0.412004 0
M  V30 32078 H 3109.62 3.06659 0.580233 0
M  V30 32079 N 3109.92 0.0284543 1.57574 0
M  V30 32080 C 3110.86 -0.988365 2.05686 0
M  V30 32081 C 3111.83 -1.31781 0.952491 0
M  V30 32082 O 3113.02 -1.4346 1.22277 0
M  V30 32083 C 3110.14 -2.30857 2.47836 0
M  V30 32084 C 3109.19 -2.13378 3.69286 0
M  V30 32085 S 3110.02 -1.43322 5.15964 0
M  V30 32086 C 3111.18 -2.76714 5.61409 0
M  V30 32087 H 3111.41 -0.578822 2.91611 0
M  V30 32088 H 3108.95 -0.183217 1.53309 0
M  V30 32089 H 3110.9 -3.06754 2.72786 0
M  V30 32090 H 3109.56 -2.68945 1.62258 0
M  V30 32091 H 3108.76 -3.10976 3.96623 0
M  V30 32092 H 3108.36 -1.45623 3.44485 0
M  V30 32093 H 3110.65 -3.72953 5.65608 0
M  V30 32094 H 3111.59 -2.54041 6.6096 0
M  V30 32095 H 3112 -2.8193 4.89056 0
M  V30 32096 N 3111.4 -1.55689 -0.244686 0
M  V30 32097 C 3112.63 -1.81682 -0.989912 0
M  V30 32098 C 3113.04 -0.60448 -1.78862 0
M  V30 32099 O 3112.4 0.426876 -1.77437 0
M  V30 32100 C 3112.45 -3.0592 -1.92602 0
M  V30 32101 O 3112.17 -4.22474 -1.15963 0
M  V30 32102 C 3113.67 -3.44729 -2.78705 0
M  V30 32103 H 3110.89 -0.604524 -0.29119 0
M  V30 32104 H 3113.44 -2.02751 -0.266902 0
M  V30 32105 H 3111.59 -2.86894 -2.60328 0
M  V30 32106 H 3112.01 -4.92901 -1.79302 0
M  V30 32107 H 3113.48 -4.34757 -3.40133 0
M  V30 32108 H 3113.96 -2.65416 -3.4993 0
M  V30 32109 H 3114.56 -3.66113 -2.16428 0
M  V30 32110 N 3112.88 0.510441 -1.49105 0
M  V30 32111 C 3114.11 1.28941 -1.61808 0
M  V30 32112 C 3114.52 1.86624 -0.285806 0
M  V30 32113 O 3113.88 1.67372 0.727521 0
M  V30 32114 C 3113.93 2.4264 -2.6797 0
M  V30 32115 O 3113.65 1.8733 -3.96029 0
M  V30 32116 C 3115.15 3.34161 -2.91292 0
M  V30 32117 H 3112.37 0.391419 -0.545006 0
M  V30 32118 H 3114.92 0.613771 -1.95072 0
M  V30 32119 H 3113.07 3.06051 -2.37511 0
M  V30 32120 H 3113.48 2.61901 -4.54431 0
M  V30 32121 H 3114.96 4.10243 -3.6933 0
M  V30 32122 H 3115.44 3.90584 -2.00849 0
M  V30 32123 H 3116.04 2.76525 -3.23132 0
M  V30 32124 N 3114.36 1.38021 0.760791 0
M  V30 32125 C 3115.63 1.24359 1.50978 0
M  V30 32126 C 3116.01 -0.158132 2.10507 0
M  V30 32127 O 3115.36 -1.16691 1.96457 0
M  V30 32128 C 3115.57 2.34816 2.58191 0
M  V30 32129 C 3116.92 2.72892 3.25293 0
M  V30 32130 O 3117.94 2.34074 2.68492 0
M  V30 32131 O 3116.8 3.39806 4.28012 0
M  V30 32132 H 3113.9 0.485899 0.669202 0
M  V30 32133 H 3116.44 1.4983 0.796818 0
M  V30 32134 H 3115.21 3.28636 2.124 0
M  V30 32135 H 3114.84 2.1087 3.37075 0
M  V30 32136 N 3115.83 -0.98818 1.22771 0
M  V30 32137 C 3116.78 -2.1004 0.999308 0
M  V30 32138 C 3117.78 -1.69297 -0.0591469 0
M  V30 32139 O 3118.98 -1.79756 0.0936969 0
M  V30 32140 H 3115.36 -0.686926 0.306002 0
M  V30 32141 H 3117.33 -2.26475 1.94298 0
M  V30 32142 C 3116.08 -3.42505 0.59879 0
M  V30 32143 H 3115.4 -3.74301 1.40494 0
M  V30 32144 H 3116.84 -4.21292 0.478427 0
M  V30 32145 C 3115.3 -3.29713 -0.692158 0
M  V30 32146 O 3115.83 -3.61898 -1.74336 0
M  V30 32147 N 3114.04 -2.82886 -0.665113 0
M  V30 32148 H 3113.58 -2.56894 0.190649 0
M  V30 32149 H 3113.54 -2.74709 -1.52913 0
M  V30 32150 N 3117.31 -1.03816 -1.18575 0
M  V30 32151 C 3118.24 -0.647834 -2.24333 0
M  V30 32152 C 3119.22 0.34771 -1.66508 0
M  V30 32153 O 3120.41 0.228367 -1.92853 0
M  V30 32154 C 3117.54 -0.00741027 -3.47299 0
M  V30 32155 C 3116.49 -0.926226 -4.17858 0
M  V30 32156 C 3115.82 -0.150411 -5.34488 0
M  V30 32157 C 3117.12 -2.2442 -4.71628 0
M  V30 32158 H 3118.81 -1.53196 -2.57238 0
M  V30 32159 H 3116.36 -0.738049 -1.23648 0
M  V30 32160 H 3118.31 0.27736 -4.20486 0
M  V30 32161 H 3117.04 0.911571 -3.13621 0
M  V30 32162 H 3115.69 -1.19534 -3.46565 0
M  V30 32163 H 3115.34 0.770897 -4.97058 0
M  V30 32164 H 3115.04 -0.762509 -5.82632 0
M  V30 32165 H 3116.57 0.127401 -6.10467 0
M  V30 32166 H 3117.98 -2.02031 -5.36523 0
M  V30 32167 H 3116.38 -2.80904 -5.30295 0
M  V30 32168 H 3117.45 -2.89243 -3.89187 0
M  V30 32169 N 3118.79 1.34753 -0.817283 0
M  V30 32170 C 3119.74 2.29619 -0.233148 0
M  V30 32171 C 3120.71 1.53322 0.638875 0
M  V30 32172 O 3121.89 1.81716 0.581707 0
M  V30 32173 C 3119.03 3.3978 0.6036 0
M  V30 32174 C 3118.15 4.31025 -0.290042 0
M  V30 32175 C 3117.28 5.28285 0.555732 0
M  V30 32176 C 3116.32 6.11168 -0.337647 0
M  V30 32177 N 3115.46 7.00534 0.468724 0
M  V30 32178 H 3120.3 2.78982 -1.04752 0
M  V30 32179 H 3117.83 1.37294 -0.52808 0
M  V30 32180 H 3119.79 4.02328 1.104 0
M  V30 32181 H 3118.42 2.91666 1.38313 0
M  V30 32182 H 3117.47 3.69389 -0.908617 0
M  V30 32183 H 3118.79 4.89134 -0.977222 0
M  V30 32184 H 3117.94 5.96257 1.12083 0
M  V30 32185 H 3116.68 4.707 1.27644 0
M  V30 32186 H 3115.68 5.42134 -0.914934 0
M  V30 32187 H 3116.91 6.70833 -1.05638 0
M  V30 32188 H 3114.85 6.45424 1.17321 0
M  V30 32189 H 3114.77 7.5583 -0.160184 0
M  V30 32190 H 3116.04 7.7284 1.01676 0
M  V30 32191 N 3120.27 0.571737 1.46864 0
M  V30 32192 C 3121.51 0.0556846 2.04324 0
M  V30 32193 C 3121.87 -1.27574 1.43488 0
M  V30 32194 O 3123.07 -1.88036 1.92083 0
M  V30 32195 C 3121.35 -0.0205635 3.57394 0
M  V30 32196 S 3122.9 -0.480633 4.3616 0
M  V30 32197 H 3119.72 0.0321592 0.710272 0
M  V30 32198 H 3122.32 0.761756 1.80049 0
M  V30 32199 H 3121.03 0.952579 3.99192 0
M  V30 32200 H 3120.56 -0.749745 3.8619 0
M  V30 32201 H 3122.57 -1.73755 4.64783 0
M  V30 32202 N 3121.75 -1.54542 0.308935 0
M  V30 32203 C 3123.16 -1.8581 -0.182111 0
M  V30 32204 C 3123.51 -1.23079 -1.52794 0
M  V30 32205 O 3122.63 -0.531395 -2.09774 0
M  V30 32206 C 3123.23 -3.37118 -0.337215 0
M  V30 32207 C 3121.79 -3.68388 -0.772481 0
M  V30 32208 C 3120.94 -2.77064 0.1145 0
M  V30 32209 H 3123.89 -1.49599 0.529697 0
M  V30 32210 H 3123.91 -3.62049 -1.17052 0
M  V30 32211 H 3123.42 -3.82746 0.64245 0
M  V30 32212 H 3121.52 -3.28283 -1.76241 0
M  V30 32213 H 3121.63 -4.75498 -0.586369 0
M  V30 32214 H 3120 -2.51418 -0.407537 0
M  V30 32215 H 3120.78 -3.25514 1.09066 0
M  V30 32216 N 3123.23 -0.0368104 -1.57557 0
M  V30 32217 C 3124.47 0.644218 -1.93982 0
M  V30 32218 C 3124.83 1.68849 -0.914012 0
M  V30 32219 O 3126.03 2.42255 -1.16472 0
M  V30 32220 C 3124.3 1.23773 -3.35283 0
M  V30 32221 S 3125.86 1.93876 -3.93646 0
M  V30 32222 H 3122.68 0.211908 -0.678687 0
M  V30 32223 H 3125.28 -0.102315 -1.95232 0
M  V30 32224 H 3123.98 0.46538 -4.07753 0
M  V30 32225 H 3123.52 2.0214 -3.37495 0
M  V30 32226 H 3125.53 3.21797 -3.77705 0
M  V30 32227 N 3124.7 1.55817 0.236426 0
M  V30 32228 C 3125.64 1.87655 1.31599 0
M  V30 32229 C 3126.65 0.763609 1.43781 0
M  V30 32230 O 3127.84 1.04181 1.44943 0
M  V30 32231 C 3124.94 2.05694 2.69339 0
M  V30 32232 C 3124.11 3.36622 2.79292 0
M  V30 32233 C 3123.17 3.44275 3.97946 0
M  V30 32234 O 3122.2 4.17413 3.86982 0
M  V30 32235 N 3123.4 2.7433 5.11589 0
M  V30 32236 H 3126.16 2.80847 1.04618 0
M  V30 32237 H 3123.72 1.56181 0.426507 0
M  V30 32238 H 3125.72 2.08144 3.47071 0
M  V30 32239 H 3124.29 1.19197 2.88982 0
M  V30 32240 H 3123.51 3.46399 1.88153 0
M  V30 32241 H 3124.79 4.229 2.82901 0
M  V30 32242 H 3124.19 2.1466 5.2339 0
M  V30 32243 H 3122.75 2.8246 5.87418 0
M  V30 32244 N 3126.18 -0.502526 1.49373 0
M  V30 32245 C 3127.43 -1.25861 1.59018 0
M  V30 32246 C 3127.76 -1.92238 0.275353 0
M  V30 32247 O 3127.04 -1.80645 -0.720956 0
M  V30 32248 C 3127.32 -2.32678 2.74832 0
M  V30 32249 C 3127.17 -1.70813 4.16105 0
M  V30 32250 C 3128.49 -3.34251 2.86294 0
M  V30 32251 H 3125.61 -0.456237 0.578806 0
M  V30 32252 H 3128.25 -0.557 1.81652 0
M  V30 32253 H 3126.4 -2.9252 2.55665 0
M  V30 32254 H 3128.07 -1.1481 4.46784 0
M  V30 32255 H 3126.32 -1.0123 4.21823 0
M  V30 32256 H 3126.99 -2.48283 4.93011 0
M  V30 32257 H 3129.46 -2.84399 3.03738 0
M  V30 32258 H 3128.34 -4.06355 3.69008 0
M  V30 32259 H 3128.6 -3.96484 1.95583 0
M  V30 32260 N 3127.66 -1.38422 -0.75346 0
M  V30 32261 C 3129.07 -1.30947 -1.33078 0
M  V30 32262 C 3129.42 0.0346779 -1.96169 0
M  V30 32263 O 3128.55 0.936734 -1.95075 0
M  V30 32264 C 3129.14 -2.37142 -2.41969 0
M  V30 32265 C 3127.7 -2.33244 -2.95422 0
M  V30 32266 C 3126.85 -2.20001 -1.68804 0
M  V30 32267 H 3129.8 -1.48778 -0.552328 0
M  V30 32268 H 3129.82 -2.02865 -3.2191 0
M  V30 32269 H 3129.33 -3.34959 -1.96021 0
M  V30 32270 H 3127.43 -1.39009 -3.45698 0
M  V30 32271 H 3127.55 -3.27387 -3.49792 0
M  V30 32272 H 3125.91 -1.66856 -1.92435 0
M  V30 32273 H 3126.69 -3.1976 -1.24933 0
M  V30 32274 N 3129.14 0.981655 -1.23294 0
M  V30 32275 C 3130.36 1.76337 -1.09179 0
M  V30 32276 C 3130.79 1.84764 0.352693 0
M  V30 32277 O 3130.15 1.30834 1.25507 0
M  V30 32278 C 3130.19 3.16908 -1.72051 0
M  V30 32279 O 3129.3 4.00542 -0.98181 0
M  V30 32280 H 3128.64 0.542575 -0.382764 0
M  V30 32281 H 3131.17 1.23237 -1.63322 0
M  V30 32282 H 3131.18 3.67492 -1.77238 0
M  V30 32283 H 3129.85 3.1009 -2.77159 0
M  V30 32284 H 3128.43 3.59052 -1.00679 0
M  V30 32285 N 3130.62 1.04444 1.18022 0
M  V30 32286 C 3132.03 0.777342 1.69748 0
M  V30 32287 C 3132.38 -0.701366 1.83236 0
M  V30 32288 O 3131.5 -1.54565 1.51455 0
M  V30 32289 C 3132.1 1.40446 3.08319 0
M  V30 32290 C 3130.66 1.18559 3.5724 0
M  V30 32291 C 3129.8 1.49275 2.33693 0
M  V30 32292 H 3132.75 1.21036 1.02645 0
M  V30 32293 H 3132.78 0.809694 3.71785 0
M  V30 32294 H 3132.29 2.48067 2.9847 0
M  V30 32295 H 3130.39 0.128287 3.72379 0
M  V30 32296 H 3130.5 1.88526 4.40448 0
M  V30 32297 H 3128.87 0.912568 2.3779 0
M  V30 32298 H 3129.65 2.58014 2.26459 0
M  V30 32299 N 3132.09 -1.34317 0.824418 0
M  V30 32300 C 3133 -2.33271 0.249361 0
M  V30 32301 C 3134.02 -1.62692 -0.617037 0
M  V30 32302 O 3135.2 -1.94448 -0.524582 0
M  V30 32303 C 3132.26 -3.41847 -0.578034 0
M  V30 32304 C 3131.32 -4.28172 0.310941 0
M  V30 32305 C 3130.55 -5.31564 -0.47706 0
M  V30 32306 O 3130.78 -5.44159 -1.71019 0
M  V30 32307 O 3129.71 -6.01734 0.141393 0
M  V30 32308 H 3133.54 -2.84286 1.06842 0
M  V30 32309 H 3131.12 -1.37402 0.586594 0
M  V30 32310 H 3133 -4.08142 -1.04871 0
M  V30 32311 H 3131.68 -2.93074 -1.37439 0
M  V30 32312 H 3130.59 -3.64796 0.829145 0
M  V30 32313 H 3131.92 -4.80391 1.07169 0
M  V30 32314 N 3133.57 -0.579517 -1.46558 0
M  V30 32315 C 3134.82 -0.0638773 -2.02399 0
M  V30 32316 C 3135.15 1.29481 -1.45137 0
M  V30 32317 O 3134.4 1.8611 -0.605094 0
M  V30 32318 C 3134.7 0.0552175 -3.57357 0
M  V30 32319 C 3134.37 -1.23547 -4.33644 0
M  V30 32320 C 3133.03 -1.58908 -4.54205 0
M  V30 32321 C 3135.38 -2.08973 -4.77472 0
M  V30 32322 C 3132.71 -2.79501 -5.15845 0
M  V30 32323 C 3135.06 -3.28789 -5.40445 0
M  V30 32324 C 3133.72 -3.64437 -5.59234 0
M  V30 32325 H 3132.99 -0.0233744 -0.740631 0
M  V30 32326 H 3135.64 -0.755513 -1.75967 0
M  V30 32327 H 3133.95 0.829963 -3.82908 0
M  V30 32328 H 3135.64 0.469894 -3.98237 0
M  V30 32329 H 3132.23 -0.950173 -4.17935 0
M  V30 32330 H 3136.42 -1.82958 -4.61346 0
M  V30 32331 H 3131.67 -3.07261 -5.28584 0
M  V30 32332 H 3135.85 -3.95255 -5.73364 0
M  V30 32333 H 3133.47 -4.57972 -6.06767 0
M  V30 32334 N 3135.05 1.54376 -0.317127 0
M  V30 32335 C 3136.3 2.00451 0.287375 0
M  V30 32336 C 3136.63 1.20538 1.52646 0
M  V30 32337 O 3135.88 0.273865 1.93774 0
M  V30 32338 C 3136.18 3.51009 0.672855 0
M  V30 32339 C 3135.85 4.48482 -0.466324 0
M  V30 32340 C 3134.51 4.74852 -0.779016 0
M  V30 32341 C 3136.86 5.06434 -1.23185 0
M  V30 32342 C 3134.19 5.56434 -1.86007 0
M  V30 32343 C 3136.54 5.89192 -2.30294 0
M  V30 32344 C 3135.2 6.13867 -2.62152 0
M  V30 32345 H 3134.47 0.7335 0.105158 0
M  V30 32346 H 3137.12 1.86387 -0.439571 0
M  V30 32347 H 3135.43 3.62766 1.48013 0
M  V30 32348 H 3137.12 3.84096 1.15202 0
M  V30 32349 H 3133.71 4.28073 -0.212524 0
M  V30 32350 H 3137.9 4.86048 -1.00353 0
M  V30 32351 H 3133.15 5.73784 -2.11144 0
M  V30 32352 H 3137.33 6.33118 -2.90059 0
M  V30 32353 H 3134.95 6.76871 -3.46049 0
M  V30 32354 N 3136.53 0.0451655 1.57535 0
M  V30 32355 C 3137.76 -0.639707 1.96762 0
M  V30 32356 C 3138.17 -1.64732 0.922434 0
M  V30 32357 O 3137.53 -1.82258 -0.0940214 0
M  V30 32358 C 3137.58 -1.33194 3.36068 0
M  V30 32359 O 3137.3 -0.36468 4.3658 0
M  V30 32360 C 3138.8 -2.10713 3.90019 0
M  V30 32361 H 3136.02 -0.175312 0.647693 0
M  V30 32362 H 3138.57 0.109687 2.04206 0
M  V30 32363 H 3136.72 -2.03261 3.29794 0
M  V30 32364 H 3137.13 -0.858077 5.17433 0
M  V30 32365 H 3138.61 -2.54578 4.8979 0
M  V30 32366 H 3139.09 -2.95283 3.25123 0
M  V30 32367 H 3139.69 -1.4557 3.99612 0
M  V30 32368 N 3138.01 -1.5594 -0.228159 0
M  V30 32369 C 3138.92 -1.95032 -1.30382 0
M  V30 32370 C 3139.93 -0.853245 -1.51643 0
M  V30 32371 O 3141.11 -1.15625 -1.64902 0
M  V30 32372 C 3138.17 -2.25337 -2.63485 0
M  V30 32373 C 3137.23 -3.48578 -2.50584 0
M  V30 32374 C 3136.47 -3.77427 -3.77339 0
M  V30 32375 O 3136.69 -3.08053 -4.80062 0
M  V30 32376 O 3135.62 -4.70928 -3.74847 0
M  V30 32377 H 3139.45 -2.86689 -1.00215 0
M  V30 32378 H 3137.04 -1.43064 -0.430478 0
M  V30 32379 H 3138.92 -2.46052 -3.42106 0
M  V30 32380 H 3137.59 -1.36855 -2.93347 0
M  V30 32381 H 3136.5 -3.33148 -1.70185 0
M  V30 32382 H 3137.83 -4.37421 -2.25663 0
M  V30 32383 N 3139.48 0.494597 -1.49638 0
M  V30 32384 C 3140.41 1.60393 -1.69695 0
M  V30 32385 C 3141.4 1.6111 -0.545676 0
M  V30 32386 O 3142.58 1.77749 -0.782233 0
M  V30 32387 C 3139.71 2.98847 -1.7694 0
M  V30 32388 C 3138.66 3.12996 -2.9192 0
M  V30 32389 C 3137.99 4.52865 -2.84284 0
M  V30 32390 C 3139.29 2.92418 -4.32769 0
M  V30 32391 H 3140.98 1.43862 -2.62572 0
M  V30 32392 H 3138.53 0.690657 -1.26356 0
M  V30 32393 H 3140.48 3.76359 -1.89557 0
M  V30 32394 H 3139.21 3.16481 -0.806664 0
M  V30 32395 H 3137.87 2.37911 -2.78916 0
M  V30 32396 H 3137.51 4.67384 -1.85905 0
M  V30 32397 H 3137.21 4.63272 -3.6146 0
M  V30 32398 H 3138.74 5.32429 -2.98918 0
M  V30 32399 H 3140.15 3.59695 -4.46422 0
M  V30 32400 H 3138.55 3.14291 -5.11215 0
M  V30 32401 H 3139.62 1.88483 -4.46769 0
M  V30 32402 N 3140.96 1.3882 0.746109 0
M  V30 32403 C 3142.24 1.25953 1.4965 0
M  V30 32404 C 3142.62 -0.135796 2.10663 0
M  V30 32405 O 3141.97 -1.14601 1.97684 0
M  V30 32406 C 3142.18 2.37541 2.55686 0
M  V30 32407 C 3143.53 2.76326 3.2238 0
M  V30 32408 O 3144.55 2.36909 2.65994 0
M  V30 32409 O 3143.41 3.44327 4.24384 0
M  V30 32410 H 3140.5 0.49297 0.66401 0
M  V30 32411 H 3143.05 1.50666 0.780882 0
M  V30 32412 H 3141.82 3.30871 2.08903 0
M  V30 32413 H 3141.44 2.14433 3.3482 0
M  V30 32414 N 3142.44 -0.975103 1.23812 0
M  V30 32415 C 3143.69 -1.71371 1.07127 0
M  V30 32416 C 3144.01 -1.91023 -0.391831 0
M  V30 32417 O 3143.28 -1.48267 -1.28038 0
M  V30 32418 H 3141.86 -0.635 0.393426 0
M  V30 32419 H 3144.52 -1.17347 1.55614 0
M  V30 32420 H 3143.62 -2.70117 1.56343 0
M  V30 32421 N 3143.92 -1.05068 -1.17467 0
M  V30 32422 C 3145.16 -0.761146 -1.87975 0
M  V30 32423 C 3145.5 0.709963 -1.80757 0
M  V30 32424 O 3144.77 1.51904 -1.21472 0
M  V30 32425 C 3145.06 -1.24066 -3.38053 0
M  V30 32426 C 3144.91 -2.77461 -3.54027 0
M  V30 32427 C 3146.23 -0.838688 -4.32035 0
M  V30 32428 H 3143.35 -0.277975 -0.682568 0
M  V30 32429 H 3145.99 -1.30445 -1.38145 0
M  V30 32430 H 3144.14 -0.778455 -3.80621 0
M  V30 32431 H 3145.81 -3.31796 -3.20483 0
M  V30 32432 H 3144.05 -3.16798 -2.96347 0
M  V30 32433 H 3144.72 -3.06074 -4.59372 0
M  V30 32434 H 3147.2 -1.23658 -3.97301 0
M  V30 32435 H 3146.08 -1.20183 -5.35581 0
M  V30 32436 H 3146.34 0.257421 -4.4135 0
M  V30 32437 N 3145.4 1.33878 -0.831529 0
M  V30 32438 C 3146.81 1.50947 -0.518375 0
M  V30 32439 C 3147.01 1.7739 0.955776 0
M  V30 32440 O 3146.07 1.82986 1.7399 0
M  V30 32441 C 3147.38 2.66886 -1.38536 0
M  V30 32442 C 3148.93 2.8077 -1.38337 0
M  V30 32443 C 3149.4 3.99762 -2.23504 0
M  V30 32444 N 3150.9 4.06985 -2.21174 0
M  V30 32445 C 3151.63 4.98234 -2.83814 0
M  V30 32446 N 3151.13 5.94649 -3.55478 0
M  V30 32447 N 3152.92 4.91173 -2.73323 0
M  V30 32448 H 3145.07 1.14975 -1.7859 0
M  V30 32449 H 3147.33 0.564619 -0.761518 0
M  V30 32450 H 3147.04 2.54003 -2.4326 0
M  V30 32451 H 3146.91 3.62112 -1.05617 0
M  V30 32452 H 3149.3 2.93089 -0.343884 0
M  V30 32453 H 3149.38 1.86328 -1.75259 0
M  V30 32454 H 3149.03 3.88203 -3.27507 0
M  V30 32455 H 3148.96 4.93435 -1.83928 0
M  V30 32456 H 3151.45 3.37979 -1.69052 0
M  V30 32457 H 3151.76 6.60924 -4.00499 0
M  V30 32458 H 3150.1 5.94747 -3.59585 0
M  V30 32459 H 3153.3 4.14813 -2.16904 0
M  V30 32460 H 3153.47 5.6209 -3.22426 0
M  V30 32461 N 3146.87 0.587281 1.46249 0
M  V30 32462 C 3147.8 -0.131035 2.33132 0
M  V30 32463 C 3148.79 -0.879133 1.4562 0
M  V30 32464 O 3149.97 -0.853692 1.7443 0
M  V30 32465 C 3147.1 -1.1423 3.27977 0
M  V30 32466 C 3146.05 -0.508744 4.24966 0
M  V30 32467 C 3145.38 -1.62681 5.09352 0
M  V30 32468 C 3146.68 0.557031 5.19321 0
M  V30 32469 H 3148.37 0.594384 2.93441 0
M  V30 32470 H 3145.92 0.287287 1.41105 0
M  V30 32471 H 3147.87 -1.65322 3.87617 0
M  V30 32472 H 3146.6 -1.89805 2.65785 0
M  V30 32473 H 3145.26 -0.0188693 3.66595 0
M  V30 32474 H 3144.9 -2.37234 4.43542 0
M  V30 32475 H 3144.6 -1.20851 5.75038 0
M  V30 32476 H 3146.13 -2.14039 5.71856 0
M  V30 32477 H 3147.54 0.131004 5.7315 0
M  V30 32478 H 3145.94 0.895905 5.93375 0
M  V30 32479 H 3147.01 1.44156 4.62976 0
M  V30 32480 N 3148.35 -1.54206 0.325309 0
M  V30 32481 C 3149.3 -2.21131 -0.555441 0
M  V30 32482 C 3150.29 -1.19243 -1.08028 0
M  V30 32483 O 3151.48 -1.44865 -1.01701 0
M  V30 32484 C 3148.61 -2.97394 -1.71499 0
M  V30 32485 C 3147.69 -4.06622 -1.20496 0
M  V30 32486 N 3148.08 -5.04097 -0.414749 0
M  V30 32487 C 3146.38 -4.20604 -1.48353 0
M  V30 32488 C 3147.08 -5.81531 -0.140123 0
M  V30 32489 N 3146.06 -5.3872 -0.726735 0
M  V30 32490 H 3149.86 -2.93847 0.0555708 0
M  V30 32491 H 3147.38 -1.61869 0.131253 0
M  V30 32492 H 3149.37 -3.43825 -2.35775 0
M  V30 32493 H 3148.03 -2.262 -2.32946 0
M  V30 32494 H 3149.04 -5.17868 -0.0574381 0
M  V30 32495 H 3145.72 -3.60624 -2.10372 0
M  V30 32496 H 3147.11 -6.70066 0.496144 0
M  V30 32497 N 3149.83 -0.0535194 -1.57509 0
M  V30 32498 C 3151.25 0.30304 -1.56697 0
M  V30 32499 C 3151.45 1.7128 -1.06138 0
M  V30 32500 O 3150.5 2.42046 -0.719033 0
M  V30 32501 C 3151.82 0.129365 -3.00422 0
M  V30 32502 C 3153.36 0.200291 -3.12359 0
M  V30 32503 C 3153.84 0.0551166 -4.57967 0
M  V30 32504 N 3155.33 0.111317 -4.63066 0
M  V30 32505 C 3156.07 0.0231336 -5.73395 0
M  V30 32506 N 3155.56 -0.117532 -6.927 0
M  V30 32507 N 3157.35 0.0788852 -5.62045 0
M  V30 32508 H 3149.51 -0.975098 -1.88694 0
M  V30 32509 H 3151.77 -0.378721 -0.869065 0
M  V30 32510 H 3151.47 -0.842713 -3.41455 0
M  V30 32511 H 3151.35 0.889411 -3.66564 0
M  V30 32512 H 3153.74 1.16284 -2.71223 0
M  V30 32513 H 3153.82 -0.59055 -2.4889 0
M  V30 32514 H 3153.46 -0.904121 -4.99788 0
M  V30 32515 H 3153.39 0.865132 -5.19445 0
M  V30 32516 H 3155.88 0.219189 -3.77264 0
M  V30 32517 H 3156.19 -0.177462 -7.72596 0
M  V30 32518 H 3154.54 -0.152648 -6.94832 0
M  V30 32519 H 3157.73 0.187351 -4.67725 0
M  V30 32520 H 3157.9 0.00670341 -6.48 0
M  V30 32521 N 3151.31 1.56059 0.219886 0
M  V30 32522 C 3152.56 1.79149 0.944033 0
M  V30 32523 C 3152.88 0.622563 1.84267 0
M  V30 32524 O 3152.14 -0.39298 1.91714 0
M  V30 32525 C 3152.44 3.08009 1.81287 0
M  V30 32526 C 3152.1 4.38086 1.06733 0
M  V30 32527 C 3150.77 4.73427 0.861387 0
M  V30 32528 C 3153.12 5.18385 0.540958 0
M  V30 32529 C 3150.45 5.86583 0.117204 0
M  V30 32530 C 3152.8 6.32315 -0.18989 0
M  V30 32531 C 3151.46 6.66258 -0.407068 0
M  V30 32532 H 3150.73 0.655552 0.345446 0
M  V30 32533 H 3153.38 1.90322 0.212087 0
M  V30 32534 H 3151.68 2.91965 2.61273 0
M  V30 32535 H 3153.38 3.23077 2.37534 0
M  V30 32536 H 3149.97 4.10337 1.23782 0
M  V30 32537 H 3154.16 4.91515 0.68753 0
M  V30 32538 H 3149.41 6.11369 -0.0612726 0
M  V30 32539 H 3153.59 6.93765 -0.605256 0
M  V30 32540 H 3151.21 7.53783 -0.985643 0
M  V30 32541 N 3152.79 -0.486655 1.49898 0
M  V30 32542 C 3153.75 -1.56888 1.67089 0
M  V30 32543 C 3154.75 -1.51386 0.542117 0
M  V30 32544 O 3155.94 -1.54283 0.808858 0
M  V30 32545 C 3153.07 -2.96536 1.68165 0
M  V30 32546 H 3154.27 -1.42969 2.63628 0
M  V30 32547 H 3151.82 -0.71193 1.39145 0
M  V30 32548 H 3152.55 -3.15916 0.732618 0
M  V30 32549 H 3152.34 -3.01937 2.50153 0
M  V30 32550 H 3153.83 -3.75137 1.83472 0
M  V30 32551 N 3154.27 -1.39214 -0.738737 0
M  V30 32552 C 3155.68 -1.32351 -1.31682 0
M  V30 32553 C 3156.03 0.0138696 -1.96195 0
M  V30 32554 O 3155.15 0.915991 -1.96058 0
M  V30 32555 C 3155.75 -2.39695 -2.3944 0
M  V30 32556 C 3154.31 -2.36365 -2.92931 0
M  V30 32557 C 3153.45 -2.21779 -1.66461 0
M  V30 32558 H 3156.4 -1.49356 -0.536517 0
M  V30 32559 H 3156.43 -2.06268 -3.1974 0
M  V30 32560 H 3155.94 -3.37019 -1.92457 0
M  V30 32561 H 3154.04 -1.42668 -3.44204 0
M  V30 32562 H 3154.15 -3.31079 -3.463 0
M  V30 32563 H 3152.52 -1.68887 -1.90654 0
M  V30 32564 H 3153.3 -3.21067 -1.21535 0
M  V30 32565 N 3155.74 0.968523 -1.24328 0
M  V30 32566 C 3157.15 1.52601 -1.07564 0
M  V30 32567 C 3157.51 1.92994 0.353211 0
M  V30 32568 O 3156.63 1.77246 1.24148 0
M  V30 32569 C 3157.23 2.77311 -1.94639 0
M  V30 32570 C 3155.78 3.29418 -1.82101 0
M  V30 32571 C 3154.93 2.02332 -1.89624 0
M  V30 32572 H 3157.88 0.786908 -1.37817 0
M  V30 32573 H 3157.9 3.50614 -1.47819 0
M  V30 32574 H 3157.42 2.4788 -2.98625 0
M  V30 32575 H 3155.52 3.63702 -0.80944 0
M  V30 32576 H 3155.63 3.98373 -2.66149 0
M  V30 32577 H 3153.99 2.17006 -1.33343 0
M  V30 32578 H 3154.78 1.75267 -2.95188 0
M  V30 32579 N 3157.22 1.0569 1.16908 0
M  V30 32580 C 3158.46 0.779077 1.8897 0
M  V30 32581 C 3158.83 -0.681676 1.79491 0
M  V30 32582 O 3160.03 -1.07382 2.46419 0
M  V30 32583 C 3158.3 1.25248 3.34735 0
M  V30 32584 S 3159.86 1.10279 4.24716 0
M  V30 32585 H 3156.67 0.282787 0.652344 0
M  V30 32586 H 3159.28 1.35256 1.4116 0
M  V30 32587 H 3157.98 2.31066 3.3917 0
M  V30 32588 H 3157.51 0.673485 3.87592 0
M  V30 32589 H 3159.53 0.0299876 4.96191 0
M  V30 32590 N 3158.7 -1.33435 0.838617 0
M  V30 32591 C 3159.65 -2.29219 0.269649 0
M  V30 32592 C 3160.62 -1.54319 -0.614402 0
M  V30 32593 O 3161.8 -1.82619 -0.552724 0
M  V30 32594 C 3158.94 -3.40698 -0.549467 0
M  V30 32595 C 3158.05 -4.30509 0.358578 0
M  V30 32596 C 3157.19 -5.29102 -0.471616 0
M  V30 32597 C 3156.23 -6.10554 0.434835 0
M  V30 32598 N 3155.37 -7.01191 -0.357216 0
M  V30 32599 H 3160.21 -2.7728 1.09177 0
M  V30 32600 H 3157.74 -1.36437 0.549856 0
M  V30 32601 H 3159.7 -4.04033 -1.03985 0
M  V30 32602 H 3158.33 -2.9383 -1.33656 0
M  V30 32603 H 3157.38 -3.67897 0.967269 0
M  V30 32604 H 3158.69 -4.87517 1.05492 0
M  V30 32605 H 3157.85 -5.97965 -1.02583 0
M  V30 32606 H 3156.59 -4.72671 -1.20139 0
M  V30 32607 H 3155.59 -5.4061 1.00107 0
M  V30 32608 H 3156.82 -6.69068 1.16297 0
M  V30 32609 H 3154.76 -6.47209 -1.07038 0
M  V30 32610 H 3154.68 -7.5548 0.28041 0
M  V30 32611 H 3155.95 -7.7436 -0.893678 0
M  V30 32612 N 3160.18 -0.595029 -1.45935 0
M  V30 32613 C 3161.59 -0.171812 -1.85908 0
M  V30 32614 C 3161.94 1.26822 -1.49702 0
M  V30 32615 O 3161.06 1.95977 -0.917722 0
M  V30 32616 C 3161.66 -0.305035 -3.37424 0
M  V30 32617 C 3160.22 0.0633973 -3.76347 0
M  V30 32618 C 3159.37 -0.635303 -2.69924 0
M  V30 32619 H 3162.32 -0.802495 -1.36915 0
M  V30 32620 H 3162.34 0.466246 -3.77633 0
M  V30 32621 H 3161.85 -1.3532 -3.63744 0
M  V30 32622 H 3159.95 1.11123 -3.55644 0
M  V30 32623 H 3160.06 -0.321503 -4.7802 0
M  V30 32624 H 3158.43 -0.0742502 -2.54592 0
M  V30 32625 H 3159.21 -1.68536 -2.99083 0
M  V30 32626 N 3161.66 1.54031 -0.333483 0
M  V30 32627 C 3162.59 2.27625 0.52047 0
M  V30 32628 C 3163.57 1.28799 1.11107 0
M  V30 32629 O 3164.75 1.57627 1.13435 0
M  V30 32630 C 3161.88 3.04152 1.67658 0
M  V30 32631 C 3160.84 4.10398 1.2148 0
M  V30 32632 C 3160.16 4.74821 2.45863 0
M  V30 32633 C 3161.46 5.21303 0.322511 0
M  V30 32634 H 3163.16 2.99254 -0.0934349 0
M  V30 32635 H 3160.7 1.43925 -0.0463779 0
M  V30 32636 H 3162.65 3.5437 2.28035 0
M  V30 32637 H 3161.38 2.30157 2.31722 0
M  V30 32638 H 3160.04 3.61078 0.633903 0
M  V30 32639 H 3159.69 3.97432 3.08313 0
M  V30 32640 H 3159.39 5.46597 2.15652 0
M  V30 32641 H 3160.91 5.27819 3.06985 0
M  V30 32642 H 3162.32 5.67218 0.832842 0
M  V30 32643 H 3160.72 5.99994 0.112737 0
M  V30 32644 H 3161.79 4.80604 -0.644038 0
M  V30 32645 N 3163.13 0.0618717 1.57479 0
M  V30 32646 C 3164.06 -0.906562 2.15183 0
M  V30 32647 C 3165.04 -1.31722 1.07626 0
M  V30 32648 O 3166.23 -1.39003 1.35616 0
M  V30 32649 C 3163.36 -2.17767 2.70546 0
M  V30 32650 C 3162.31 -1.90673 3.83181 0
M  V30 32651 C 3161.64 -3.2433 4.25105 0
M  V30 32652 C 3162.94 -1.21985 5.07855 0
M  V30 32653 H 3164.63 -0.425888 2.96355 0
M  V30 32654 H 3162.18 -0.20341 1.42556 0
M  V30 32655 H 3164.13 -2.85924 3.09557 0
M  V30 32656 H 3162.86 -2.68059 1.8658 0
M  V30 32657 H 3161.52 -1.24925 3.44658 0
M  V30 32658 H 3161.16 -3.72443 3.38075 0
M  V30 32659 H 3160.86 -3.06996 5.01026 0
M  V30 32660 H 3162.39 -3.93701 4.66725 0
M  V30 32661 H 3163.8 -1.80195 5.44245 0
M  V30 32662 H 3162.2 -1.14943 5.88989 0
M  V30 32663 H 3163.27 -0.197451 4.84498 0
M  V30 32664 N 3164.61 -1.56173 -0.211607 0
M  V30 32665 C 3166.03 -1.49387 -0.561744 0
M  V30 32666 C 3166.23 -0.758845 -1.86665 0
M  V30 32667 O 3165.28 -0.302578 -2.50681 0
M  V30 32668 C 3166.6 -2.93988 -0.631764 0
M  V30 32669 C 3168.15 -3.04566 -0.721719 0
M  V30 32670 C 3168.62 -4.50545 -0.822996 0
M  V30 32671 N 3170.11 -4.54629 -0.886958 0
M  V30 32672 C 3170.85 -5.64873 -0.985205 0
M  V30 32673 N 3170.34 -6.84846 -1.04678 0
M  V30 32674 N 3172.14 -5.52747 -1.02111 0
M  V30 32675 H 3164.29 -2.02384 0.644556 0
M  V30 32676 H 3166.55 -0.920302 0.227483 0
M  V30 32677 H 3166.26 -3.50755 0.257653 0
M  V30 32678 H 3166.13 -3.46436 -1.49204 0
M  V30 32679 H 3168.52 -2.47858 -1.60157 0
M  V30 32680 H 3168.6 -2.55271 0.16443 0
M  V30 32681 H 3168.24 -5.07873 0.0524403 0
M  V30 32682 H 3168.17 -4.97555 -1.72471 0
M  V30 32683 H 3170.66 -3.68233 -0.849288 0
M  V30 32684 H 3170.98 -7.64615 -1.1218 0
M  V30 32685 H 3169.32 -6.87537 -1.01574 0
M  V30 32686 H 3172.51 -4.57945 -0.969733 0
M  V30 32687 H 3172.68 -6.38695 -1.09423 0
M  V30 32688 N 3166.09 0.478699 -1.50154 0
M  V30 32689 C 3167 1.60361 -1.71235 0
M  V30 32690 C 3168.02 1.635 -0.595298 0
M  V30 32691 O 3169.19 1.81509 -0.872715 0
M  V30 32692 C 3166.26 2.9662 -1.79492 0
M  V30 32693 C 3165.32 3.03931 -3.0319 0
M  V30 32694 C 3164.55 4.33691 -3.11044 0
M  V30 32695 O 3164.77 5.23765 -2.25889 0
M  V30 32696 O 3163.71 4.46436 -4.03706 0
M  V30 32697 H 3167.53 1.455 -2.66577 0
M  V30 32698 H 3165.12 0.657387 -1.3416 0
M  V30 32699 H 3167 3.77563 -1.87147 0
M  V30 32700 H 3165.68 3.11697 -0.873319 0
M  V30 32701 H 3164.58 2.22094 -3.0104 0
M  V30 32702 H 3165.92 2.93789 -3.94904 0
M  V30 32703 N 3167.57 1.39603 0.731343 0
M  V30 32704 C 3168.48 1.40898 1.87577 0
M  V30 32705 C 3169.49 0.303349 1.71335 0
M  V30 32706 O 3170.67 0.545411 1.93874 0
M  V30 32707 C 3167.74 1.25448 3.23209 0
M  V30 32708 C 3166.8 2.46014 3.51817 0
M  V30 32709 C 3166.03 2.31292 4.80978 0
M  V30 32710 O 3166.25 1.31834 5.54956 0
M  V30 32711 O 3165.19 3.2035 5.09568 0
M  V30 32712 H 3169.01 2.37373 1.8944 0
M  V30 32713 H 3166.6 1.20758 0.879654 0
M  V30 32714 H 3168.48 1.18979 4.04255 0
M  V30 32715 H 3167.15 0.320694 3.22108 0
M  V30 32716 H 3166.06 2.5806 2.70843 0
M  V30 32717 H 3167.39 3.38099 3.57701 0
M  V30 32718 N 3169.05 -0.961916 1.2484 0
M  V30 32719 C 3170.29 -1.70815 1.09316 0
M  V30 32720 C 3170.63 -1.90716 -0.36621 0
M  V30 32721 O 3169.9 -1.47284 -1.27034 0
M  V30 32722 C 3170.18 -3.09546 1.83993 0
M  V30 32723 C 3170.04 -2.971 3.37715 0
M  V30 32724 C 3171.36 -4.09308 1.61725 0
M  V30 32725 H 3168.47 -0.619967 0.398509 0
M  V30 32726 H 3171.12 -1.11862 1.53581 0
M  V30 32727 H 3169.27 -3.59873 1.46369 0
M  V30 32728 H 3170.94 -2.54155 3.84972 0
M  V30 32729 H 3169.18 -2.33181 3.65799 0
M  V30 32730 H 3169.85 -3.95406 3.85173 0
M  V30 32731 H 3172.33 -3.67863 1.94464 0
M  V30 32732 H 3171.2 -5.04432 2.16423 0
M  V30 32733 H 3171.47 -4.38579 0.556847 0
M  V30 32734 N 3170.52 -1.06308 -1.16346 0
M  V30 32735 C 3171.75 -0.80067 -1.91322 0
M  V30 32736 C 3172.17 0.639074 -1.76911 0
M  V30 32737 O 3171.53 1.44533 -1.09452 0
M  V30 32738 C 3171.58 -1.20033 -3.40036 0
M  V30 32739 O 3170.68 -0.339214 -4.11003 0
M  V30 32740 H 3170.03 -0.292606 -0.596052 0
M  V30 32741 H 3172.56 -1.41892 -1.47404 0
M  V30 32742 H 3172.57 -1.17195 -3.90806 0
M  V30 32743 H 3171.24 -2.24904 -3.49844 0
M  V30 32744 H 3169.82 -0.429175 -3.70422 0
M  V30 32745 N 3172 1.32989 -0.845682 0
M  V30 32746 C 3173.25 1.97557 -0.444687 0
M  V30 32747 C 3173.58 1.66964 0.997653 0
M  V30 32748 O 3172.83 0.94544 1.71347 0
M  V30 32749 C 3173.13 3.51978 -0.620162 0
M  V30 32750 C 3172.8 4.02537 -2.03162 0
M  V30 32751 C 3171.46 4.16055 -2.41768 0
M  V30 32752 C 3173.81 4.29456 -2.95325 0
M  V30 32753 C 3171.14 4.5383 -3.71826 0
M  V30 32754 C 3173.49 4.68686 -4.24871 0
M  V30 32755 C 3172.16 4.8041 -4.63424 0
M  V30 32756 H 3171.43 0.722912 -0.162723 0
M  V30 32757 H 3174.07 1.58547 -1.07401 0
M  V30 32758 H 3172.38 3.91691 0.0924442 0
M  V30 32759 H 3174.07 3.99949 -0.290083 0
M  V30 32760 H 3170.66 3.92494 -1.72181 0
M  V30 32761 H 3174.85 4.1853 -2.66733 0
M  V30 32762 H 3170.1 4.61101 -4.01492 0
M  V30 32763 H 3174.28 4.88472 -4.96355 0
M  V30 32764 H 3171.91 5.09438 -5.64249 0
M  V30 32765 N 3173.48 0.60276 1.45618 0
M  V30 32766 C 3174.9 0.266018 1.57367 0
M  V30 32767 C 3175.1 -1.23151 1.59487 0
M  V30 32768 O 3174.15 -2.0143 1.52257 0
M  V30 32769 C 3175.47 0.932931 2.85862 0
M  V30 32770 C 3177.01 0.908397 2.99528 0
M  V30 32771 C 3177.49 1.55523 4.30786 0
M  V30 32772 N 3178.98 1.52049 4.37533 0
M  V30 32773 C 3179.71 1.99018 5.37754 0
M  V30 32774 N 3179.21 2.5405 6.44539 0
M  V30 32775 N 3181 1.89814 5.29081 0
M  V30 32776 H 3173.15 1.57517 1.42486 0
M  V30 32777 H 3175.42 0.659568 0.680936 0
M  V30 32778 H 3175.12 1.98718 2.90179 0
M  V30 32779 H 3175 0.453275 3.74467 0
M  V30 32780 H 3177.38 -0.137292 2.9478 0
M  V30 32781 H 3177.47 1.42627 2.12347 0
M  V30 32782 H 3177.11 2.60022 4.36292 0
M  V30 32783 H 3177.04 1.01241 5.16776 0
M  V30 32784 H 3179.53 1.11843 3.6097 0
M  V30 32785 H 3179.84 2.87694 7.17253 0
M  V30 32786 H 3178.19 2.58086 6.45303 0
M  V30 32787 H 3181.38 1.46564 4.44563 0
M  V30 32788 H 3181.55 2.26732 6.07039 0
M  V30 32789 N 3174.96 -1.53852 0.341647 0
M  V30 32790 C 3176.2 -2.0118 -0.255827 0
M  V30 32791 C 3176.54 -1.22912 -1.50354 0
M  V30 32792 O 3175.81 -0.316232 -1.91912 0
M  V30 32793 C 3176.1 -3.5553 -0.571871 0
M  V30 32794 C 3175.95 -4.4451 0.687805 0
M  V30 32795 C 3177.27 -4.1783 -1.38225 0
M  V30 32796 H 3174.39 -0.731297 -0.0915081 0
M  V30 32797 H 3177.03 -1.84302 0.461808 0
M  V30 32798 H 3175.18 -3.70043 -1.18324 0
M  V30 32799 H 3176.85 -4.41837 1.3258 0
M  V30 32800 H 3175.09 -4.1345 1.31308 0
M  V30 32801 H 3175.76 -5.50385 0.421955 0
M  V30 32802 H 3178.24 -4.07003 -0.865303 0
M  V30 32803 H 3177.12 -5.25904 -1.57214 0
M  V30 32804 H 3177.38 -3.72327 -2.38379 0
M  V30 32805 N 3176.44 -0.0702223 -1.57443 0
M  V30 32806 C 3177.68 0.598073 -1.93048 0
M  V30 32807 C 3178.01 1.70245 -0.950871 0
M  V30 32808 O 3177.28 1.959 0.00123733 0
M  V30 32809 H 3175.86 0.223911 -0.712652 0
M  V30 32810 H 3178.52 -0.127708 -1.94481 0
M  V30 32811 H 3177.61 1.0244 -2.94809 0
M  V30 32812 N 3177.91 1.56283 0.203321 0
M  V30 32813 C 3178.84 1.96914 1.25487 0
M  V30 32814 C 3179.83 0.83991 1.47917 0
M  V30 32815 O 3181.01 1.10362 1.59793 0
M  V30 32816 C 3178.14 2.30157 2.60086 0
M  V30 32817 C 3177.09 3.45742 2.52282 0
M  V30 32818 C 3176.42 3.64638 3.91079 0
M  V30 32819 C 3177.72 4.80176 2.05494 0
M  V30 32820 H 3179.41 2.85003 0.917256 0
M  V30 32821 H 3176.96 1.3712 0.439794 0
M  V30 32822 H 3178.91 2.57176 3.33824 0
M  V30 32823 H 3177.64 1.38942 2.95572 0
M  V30 32824 H 3176.3 3.18801 1.81001 0
M  V30 32825 H 3175.94 2.70767 4.23903 0
M  V30 32826 H 3175.64 4.42391 3.86735 0
M  V30 32827 H 3177.17 3.94024 4.66452 0
M  V30 32828 H 3178.58 5.0628 2.68986 0
M  V30 32829 H 3176.98 5.61341 2.1217 0
M  V30 32830 H 3178.05 4.74311 1.00784 0
M  V30 32831 N 3179.39 -0.470729 1.50406 0
M  V30 32832 C 3180.34 -1.5663 1.65684 0
M  V30 32833 C 3181.33 -1.52555 0.511451 0
M  V30 32834 O 3182.52 -1.59573 0.765872 0
M  V30 32835 C 3179.65 -2.95071 1.75466 0
M  V30 32836 C 3178.73 -3.04028 2.95682 0
M  V30 32837 N 3179.13 -2.82799 4.19355 0
M  V30 32838 C 3177.42 -3.35164 2.94247 0
M  V30 32839 C 3178.12 -2.96732 5.00325 0
M  V30 32840 N 3177.1 -3.26948 4.34288 0
M  V30 32841 H 3180.9 -1.38917 2.58997 0
M  V30 32842 H 3178.42 -0.677464 1.47595 0
M  V30 32843 H 3180.41 -3.73845 1.84514 0
M  V30 32844 H 3179.07 -3.1383 0.833112 0
M  V30 32845 H 3180.08 -2.58374 4.48847 0
M  V30 32846 H 3176.76 -3.59909 2.11593 0
M  V30 32847 H 3178.15 -2.84556 6.08669 0
M  V30 32848 N 3180.87 -1.39989 -0.72393 0
M  V30 32849 C 3181.78 -1.4189 -1.86827 0
M  V30 32850 C 3182.8 -0.312431 -1.71172 0
M  V30 32851 O 3183.97 -0.555685 -1.93582 0
M  V30 32852 C 3181.04 -1.2716 -3.22539 0
M  V30 32853 C 3180.1 -2.47877 -3.50508 0
M  V30 32854 C 3179.33 -2.3384 -4.79744 0
M  V30 32855 O 3179.56 -1.34775 -5.54249 0
M  V30 32856 O 3178.49 -3.23048 -5.07862 0
M  V30 32857 H 3182.32 -2.38375 -1.88179 0
M  V30 32858 H 3179.9 -1.21223 -0.873237 0
M  V30 32859 H 3181.78 -1.21121 -4.03618 0
M  V30 32860 H 3180.46 -0.337771 -3.21933 0
M  V30 32861 H 3179.36 -2.59493 -2.69471 0
M  V30 32862 H 3180.7 -3.39991 -3.55903 0
M  V30 32863 N 3182.35 0.955282 -1.25348 0
M  V30 32864 C 3183.58 1.73198 -1.12632 0
M  V30 32865 C 3183.99 1.86427 0.322715 0
M  V30 32866 O 3183.33 1.36101 1.23378 0
M  V30 32867 C 3183.39 3.16418 -1.70645 0
M  V30 32868 C 3183.06 3.2662 -3.19638 0
M  V30 32869 C 3184.05 3.10983 -4.16636 0
M  V30 32870 C 3181.74 3.50462 -3.59835 0
M  V30 32871 C 3183.73 3.19033 -5.51812 0
M  V30 32872 C 3181.42 3.58149 -4.95149 0
M  V30 32873 C 3182.42 3.42448 -5.90947 0
M  V30 32874 O 3182.11 3.49815 -7.23799 0
M  V30 32875 H 3181.84 0.549555 -0.393656 0
M  V30 32876 H 3184.39 1.20712 -1.66186 0
M  V30 32877 H 3182.62 3.70265 -1.11538 0
M  V30 32878 H 3184.31 3.75944 -1.53039 0
M  V30 32879 H 3185.08 2.92434 -3.8692 0
M  V30 32880 H 3180.96 3.61744 -2.85766 0
M  V30 32881 H 3184.5 3.06696 -6.26565 0
M  V30 32882 H 3180.4 3.76214 -5.24531 0
M  V30 32883 H 3181.16 3.66451 -7.31885 0
M  V30 32884 N 3183.83 1.06924 1.1578 0
M  V30 32885 C 3185.24 0.813173 1.68061 0
M  V30 32886 C 3185.59 -0.662342 1.84682 0
M  V30 32887 O 3184.71 -1.51318 1.54699 0
M  V30 32888 C 3185.31 1.46954 3.0527 0
M  V30 32889 C 3183.87 1.2611 3.54645 0
M  V30 32890 C 3183.02 1.54198 2.30474 0
M  V30 32891 H 3185.97 1.23186 1.00054 0
M  V30 32892 H 3185.99 0.888373 3.69984 0
M  V30 32893 H 3185.5 2.54343 2.93141 0
M  V30 32894 H 3183.6 0.207245 3.72023 0
M  V30 32895 H 3183.71 1.97827 4.3635 0
M  V30 32896 H 3182.08 0.962801 2.35801 0
M  V30 32897 H 3182.86 2.62759 2.20936 0
M  V30 32898 N 3185.31 -1.32538 0.852723 0
M  V30 32899 C 3186.55 -1.97611 0.455832 0
M  V30 32900 C 3186.88 -1.67332 -0.985586 0
M  V30 32901 O 3186.16 -0.960523 -1.69128 0
M  V30 32902 C 3186.44 -3.53365 0.693183 0
M  V30 32903 C 3186.3 -3.93282 2.18288 0
M  V30 32904 C 3187.61 -4.3985 0.148314 0
M  V30 32905 H 3184.73 -0.717809 0.167091 0
M  V30 32906 H 3187.38 -1.56952 1.07079 0
M  V30 32907 H 3185.53 -3.88129 0.169745 0
M  V30 32908 H 3187.2 -3.68706 2.77225 0
M  V30 32909 H 3185.44 -3.42511 2.66212 0
M  V30 32910 H 3186.11 -5.01817 2.29965 0
M  V30 32911 H 3188.59 -4.11811 0.595906 0
M  V30 32912 H 3187.46 -5.47821 0.34397 0
M  V30 32913 H 3187.72 -4.31799 -0.948796 0
M  V30 32914 N 3186.78 -0.610474 -1.45296 0
M  V30 32915 C 3188.03 -0.106584 -2.01819 0
M  V30 32916 C 3188.35 1.26847 -1.48104 0
M  V30 32917 O 3187.62 1.83851 -0.676444 0
M  V30 32918 H 3186.2 -0.0364113 -0.746112 0
M  V30 32919 H 3188.86 -0.792523 -1.78059 0
M  V30 32920 H 3187.96 -0.0585549 -3.12045 0
M  V30 32921 N 3188.26 1.53669 -0.349801 0
M  V30 32922 C 3189.49 2.05904 0.248656 0
M  V30 32923 C 3189.91 1.22269 1.4294 0
M  V30 32924 O 3189.27 0.23793 1.79732 0
M  V30 32925 C 3189.32 3.54955 0.635577 0
M  V30 32926 O 3188.42 3.74135 1.73483 0
M  V30 32927 H 3187.76 0.662798 0.0399361 0
M  V30 32928 H 3190.29 1.98249 -0.50583 0
M  V30 32929 H 3190.3 3.977 0.910994 0
M  V30 32930 H 3188.98 4.15275 -0.227878 0
M  V30 32931 H 3187.55 3.43292 1.4562 0
M  V30 32932 N 3189.74 0.0785709 1.57404 0
M  V30 32933 C 3190.67 -0.915976 2.10101 0
M  V30 32934 C 3191.68 -1.25696 1.03461 0
M  V30 32935 O 3192.87 -1.21296 1.30956 0
M  V30 32936 C 3189.97 -2.22987 2.55206 0
M  V30 32937 C 3189.15 -2.06671 3.85494 0
M  V30 32938 C 3188.21 -3.21425 4.1662 0
M  V30 32939 O 3187.23 -2.96117 4.8611 0
M  V30 32940 N 3188.43 -4.4672 3.70705 0
M  V30 32941 H 3191.2 -0.466007 2.96055 0
M  V30 32942 H 3188.76 -0.106978 1.61546 0
M  V30 32943 H 3190.75 -2.98675 2.73085 0
M  V30 32944 H 3189.32 -2.59461 1.74352 0
M  V30 32945 H 3188.54 -1.15411 3.76927 0
M  V30 32946 H 3189.83 -1.93028 4.70763 0
M  V30 32947 H 3189.23 -4.70166 3.14579 0
M  V30 32948 H 3187.78 -5.19411 3.93771 0
M  V30 32949 N 3191.22 -1.56389 -0.19503 0
M  V30 32950 C 3192.15 -1.97577 -1.24441 0
M  V30 32951 C 3193.13 -0.847743 -1.4747 0
M  V30 32952 O 3194.31 -1.11208 -1.59206 0
M  V30 32953 C 3191.44 -2.31533 -2.58862 0
M  V30 32954 C 3190.4 -3.47075 -2.50445 0
M  V30 32955 C 3189.72 -3.66707 -3.8914 0
M  V30 32956 C 3191.02 -4.81259 -2.02945 0
M  V30 32957 H 3192.72 -2.85486 -0.902128 0
M  V30 32958 H 3190.26 -1.37351 -0.432516 0
M  V30 32959 H 3192.22 -2.58942 -3.32456 0
M  V30 32960 H 3190.94 -1.40507 -2.94831 0
M  V30 32961 H 3189.6 -3.19757 -1.79307 0
M  V30 32962 H 3189.25 -2.73012 -4.22461 0
M  V30 32963 H 3188.95 -4.44436 -3.84383 0
M  V30 32964 H 3190.47 -3.96492 -4.64356 0
M  V30 32965 H 3191.89 -5.07699 -2.66297 0
M  V30 32966 H 3190.28 -5.62458 -2.0919 0
M  V30 32967 H 3191.35 -4.74838 -0.982674 0
M  V30 32968 N 3192.7 0.462746 -1.50653 0
M  V30 32969 C 3194.11 1.04339 -1.54823 0
M  V30 32970 C 3194.46 1.92932 -0.356629 0
M  V30 32971 O 3193.58 2.09821 0.529542 0
M  V30 32972 C 3194.18 1.89904 -2.80574 0
M  V30 32973 C 3192.74 2.43062 -2.87398 0
M  V30 32974 C 3191.88 1.21617 -2.49208 0
M  V30 32975 H 3194.83 0.24502 -1.56797 0
M  V30 32976 H 3194.86 2.75069 -2.62902 0
M  V30 32977 H 3194.37 1.25398 -3.67283 0
M  V30 32978 H 3192.47 3.11096 -2.05061 0
M  V30 32979 H 3192.58 2.77598 -3.90482 0
M  V30 32980 H 3190.95 1.55357 -2.01832 0
M  V30 32981 H 3191.73 0.58761 -3.38234 0
M  V30 32982 N 3194.17 1.40371 0.716495 0
M  V30 32983 C 3195.41 1.40049 1.48881 0
M  V30 32984 C 3195.78 0.00161402 1.92 0
M  V30 32985 O 3196.98 -0.126717 2.68501 0
M  V30 32986 C 3195.25 2.36158 2.68261 0
M  V30 32987 S 3196.81 2.54186 3.5768 0
M  V30 32988 H 3193.63 0.4964 0.509026 0
M  V30 32989 H 3196.23 1.76632 0.837936 0
M  V30 32990 H 3194.93 3.36629 2.34753 0
M  V30 32991 H 3194.46 2.00856 3.38261 0
M  V30 32992 H 3196.48 1.7936 4.62649 0
M  V30 32993 N 3195.65 -0.948621 1.25853 0
M  V30 32994 C 3196.56 -2.07992 1.0852 0
M  V30 32995 C 3197.58 -1.73988 0.0207002 0
M  V30 32996 O 3198.75 -2.00163 0.222889 0
M  V30 32997 C 3195.82 -3.39306 0.712205 0
M  V30 32998 C 3194.88 -3.8714 1.8553 0
M  V30 32999 C 3194.11 -5.12187 1.50001 0
M  V30 33000 O 3194.34 -5.69007 0.398368 0
M  V30 33001 O 3193.27 -5.54878 2.33224 0
M  V30 33002 H 3197.1 -2.25519 2.03409 0
M  V30 33003 H 3194.68 -1.06431 1.04846 0
M  V30 33004 H 3196.56 -4.18222 0.516585 0
M  V30 33005 H 3195.24 -3.23035 -0.207359 0
M  V30 33006 H 3194.15 -3.09202 2.10583 0
M  V30 33007 H 3195.48 -4.07919 2.75433 0
M  V30 33008 N 3197.13 -1.07536 -1.15212 0
M  V30 33009 C 3198.54 -0.822074 -1.67627 0
M  V30 33010 C 3198.89 0.652538 -1.85031 0
M  V30 33011 O 3198.02 1.50495 -1.55499 0
M  V30 33012 C 3198.61 -1.48571 -3.04487 0
M  V30 33013 C 3197.17 -1.27989 -3.53971 0
M  V30 33014 C 3196.32 -1.55418 -2.29653 0
M  V30 33015 H 3199.27 -1.23715 -0.993994 0
M  V30 33016 H 3199.29 -0.907981 -3.69508 0
M  V30 33017 H 3198.8 -2.55894 -2.91788 0
M  V30 33018 H 3196.9 -0.226971 -3.71908 0
M  V30 33019 H 3197.02 -2.00138 -4.35295 0
M  V30 33020 H 3195.38 -0.975293 -2.35287 0
M  V30 33021 H 3196.16 -2.63927 -2.19539 0
M  V30 33022 N 3198.61 1.32084 -0.85974 0
M  V30 33023 C 3199.52 2.32528 -0.311121 0
M  V30 33024 C 3200.53 1.64271 0.573686 0
M  V30 33025 O 3201.71 1.95771 0.472843 0
M  V30 33026 C 3198.78 3.4326 0.487196 0
M  V30 33027 C 3197.84 4.27198 -0.424354 0
M  V30 33028 C 3197.07 5.32642 0.335957 0
M  V30 33029 O 3197.29 5.48502 1.56531 0
M  V30 33030 O 3196.23 6.01147 -0.300882 0
M  V30 33031 H 3200.05 2.81353 -1.14341 0
M  V30 33032 H 3197.64 1.35799 -0.622818 0
M  V30 33033 H 3199.52 4.10779 0.940131 0
M  V30 33034 H 3198.19 2.96615 1.2962 0
M  V30 33035 H 3197.1 3.62469 -0.925573 0
M  V30 33036 H 3198.43 4.77381 -1.19868 0
M  V30 33037 N 3200.09 0.618171 1.4497 0
M  V30 33038 C 3201.5 0.201367 1.85611 0
M  V30 33039 C 3201.85 -1.24424 1.51701 0
M  V30 33040 O 3200.97 -1.94492 0.948784 0
M  V30 33041 C 3201.57 0.358678 3.36896 0
M  V30 33042 C 3200.13 -0.0035158 3.764 0
M  V30 33043 C 3199.27 0.678165 2.6888 0
M  V30 33044 H 3202.23 0.824176 1.35621 0
M  V30 33045 H 3202.25 -0.406109 3.78327 0
M  V30 33046 H 3201.76 1.4109 3.61546 0
M  V30 33047 H 3199.86 -1.05451 3.57367 0
M  V30 33048 H 3199.97 0.397511 4.77448 0
M  V30 33049 H 3198.34 0.114744 2.54441 0
M  V30 33050 H 3199.12 1.73273 2.96364 0
M  V30 33051 N 3201.56 -1.53481 0.357946 0
M  V30 33052 C 3202.84 -1.93436 -0.29013 0
M  V30 33053 C 3203.22 -1.29082 -1.67036 0
M  V30 33054 O 3202.57 -0.447057 -2.24084 0
M  V30 33055 C 3202.78 -3.47261 -0.347994 0
M  V30 33056 C 3204.13 -4.20453 -0.591986 0
M  V30 33057 O 3205.15 -3.53601 -0.429519 0
M  V30 33058 O 3204.01 -5.38908 -0.90776 0
M  V30 33059 H 3201.1 -0.808853 -0.172297 0
M  V30 33060 H 3203.65 -1.64668 0.410173 0
M  V30 33061 H 3202.42 -3.86357 0.620021 0
M  V30 33062 H 3202.05 -3.82239 -1.0945 0
M  V30 33063 N 3203.04 -0.0869173 -1.5736 0
M  V30 33064 C 3204.29 0.579564 -1.94342 0
M  V30 33065 C 3204.62 1.6834 -0.968268 0
M  V30 33066 O 3203.9 1.945 4.87768e-05 0
M  V30 33067 C 3204.18 1.14239 -3.41499 0
M  V30 33068 C 3204.03 0.044176 -4.49778 0
M  V30 33069 C 3205.35 2.0433 -3.89792 0
M  V30 33070 H 3202.47 0.209208 -0.706683 0
M  V30 33071 H 3205.11 -0.155964 -1.89359 0
M  V30 33072 H 3203.26 1.76923 -3.45876 0
M  V30 33073 H 3204.93 -0.58967 -4.57516 0
M  V30 33074 H 3203.18 -0.623282 -4.29299 0
M  V30 33075 H 3203.85 0.478652 -5.49921 0
M  V30 33076 H 3206.32 1.51562 -3.87515 0
M  V30 33077 H 3205.2 2.4064 -4.93339 0
M  V30 33078 H 3205.46 2.95751 -3.28608 0
M  V30 33079 N 3204.52 1.5649 0.186734 0
M  V30 33080 C 3205.48 1.94341 1.21508 0
M  V30 33081 C 3206.48 0.825394 1.38 0
M  V30 33082 O 3207.67 1.09269 1.35669 0
M  V30 33083 C 3204.81 2.22477 2.58296 0
M  V30 33084 H 3206 2.86349 0.891321 0
M  V30 33085 H 3203.55 1.50309 0.428586 0
M  V30 33086 H 3204.29 1.33134 2.95713 0
M  V30 33087 H 3204.07 3.03956 2.47696 0
M  V30 33088 H 3205.56 2.52736 3.32437 0
M  V30 33089 N 3206 -0.45475 1.50897 0
M  V30 33090 C 3207.24 -1.20738 1.62942 0
M  V30 33091 C 3207.58 -1.91265 0.336373 0
M  V30 33092 O 3206.85 -1.82847 -0.663121 0
M  V30 33093 C 3207.14 -2.23817 2.82096 0
M  V30 33094 C 3206.99 -1.57488 4.21328 0
M  V30 33095 C 3208.31 -3.24974 2.96783 0
M  V30 33096 H 3205.43 -0.437592 0.593028 0
M  V30 33097 H 3208.07 -0.498927 1.83332 0
M  V30 33098 H 3206.22 -2.84238 2.64842 0
M  V30 33099 H 3207.89 -1.00538 4.50211 0
M  V30 33100 H 3206.13 -0.877589 4.2483 0
M  V30 33101 H 3206.8 -2.32473 5.0066 0
M  V30 33102 H 3209.28 -2.74592 3.12632 0
M  V30 33103 H 3208.16 -3.9441 3.81749 0
M  V30 33104 H 3208.42 -3.90061 2.08098 0
M  V30 33105 N 3207.48 -1.40749 -0.709041 0
M  V30 33106 C 3208.41 -1.44293 -1.8358 0
M  V30 33107 C 3209.39 -0.303096 -1.67378 0
M  V30 33108 O 3210.57 -0.512645 -1.87311 0
M  V30 33109 C 3207.7 -1.31121 -3.21597 0
M  V30 33110 C 3206.66 -2.42776 -3.52482 0
M  V30 33111 C 3205.98 -2.14677 -4.89712 0
M  V30 33112 C 3207.28 -3.8512 -3.52817 0
M  V30 33113 H 3208.98 -2.38591 -1.80871 0
M  V30 33114 H 3206.52 -1.1484 -0.868775 0
M  V30 33115 H 3208.48 -1.32216 -4.00121 0
M  V30 33116 H 3207.2 -0.333022 -3.24898 0
M  V30 33117 H 3205.86 -2.40942 -2.76301 0
M  V30 33118 H 3205.51 -1.15233 -4.89623 0
M  V30 33119 H 3205.21 -2.89487 -5.11342 0
M  V30 33120 H 3206.73 -2.17465 -5.70562 0
M  V30 33121 H 3208.14 -3.88742 -4.2137 0
M  V30 33122 H 3206.54 -4.59502 -3.85976 0
M  V30 33123 H 3207.61 -4.14235 -2.52066 0
M  V30 33124 N 3208.96 0.941933 -1.26354 0
M  V30 33125 C 3210.18 1.72243 -1.14629 0
M  V30 33126 C 3210.6 1.86424 0.298555 0
M  V30 33127 O 3209.96 1.37108 1.20447 0
M  V30 33128 C 3210.01 3.12959 -1.80938 0
M  V30 33129 O 3209.73 2.99457 -3.19777 0
M  V30 33130 C 3211.23 4.07228 -1.75157 0
M  V30 33131 H 3208.45 0.539326 -0.39921 0
M  V30 33132 H 3210.99 1.18088 -1.6696 0
M  V30 33133 H 3209.15 3.64019 -1.32548 0
M  V30 33134 H 3209.56 3.88315 -3.52578 0
M  V30 33135 H 3211.04 5.03529 -2.26192 0
M  V30 33136 H 3211.51 4.33292 -0.717931 0
M  V30 33137 H 3212.12 3.62089 -2.23096 0
M  V30 33138 N 3210.43 1.08146 1.1464 0
M  V30 33139 C 3211.66 0.831006 1.90024 0
M  V30 33140 C 3212.08 -0.610848 1.77905 0
M  V30 33141 O 3211.44 -1.42774 1.11738 0
M  V30 33142 C 3211.49 1.25428 3.38083 0
M  V30 33143 O 3210.59 0.404558 4.10411 0
M  V30 33144 H 3209.93 0.302052 0.591321 0
M  V30 33145 H 3212.46 1.44219 1.45128 0
M  V30 33146 H 3212.47 1.23397 3.88892 0
M  V30 33147 H 3211.15 2.30442 3.46222 0
M  V30 33148 H 3209.73 0.488051 3.69692 0
M  V30 33149 N 3211.91 -1.31626 0.866732 0
M  V30 33150 C 3212.84 -2.26658 0.264828 0
M  V30 33151 C 3213.82 -1.50959 -0.604154 0
M  V30 33152 O 3215.01 -1.80043 -0.558293 0
M  V30 33153 C 3212.13 -3.32878 -0.625314 0
M  V30 33154 C 3211.18 -4.26153 0.171888 0
M  V30 33155 S 3212.01 -5.12629 1.54827 0
M  V30 33156 C 3213.17 -6.22366 0.66416 0
M  V30 33157 H 3213.4 -2.77362 1.0704 0
M  V30 33158 H 3210.93 -1.39342 0.665063 0
M  V30 33159 H 3212.89 -3.94549 -1.13321 0
M  V30 33160 H 3211.55 -2.80934 -1.40481 0
M  V30 33161 H 3210.75 -5.01447 -0.506606 0
M  V30 33162 H 3210.35 -3.68963 0.611769 0
M  V30 33163 H 3212.64 -6.77382 -0.126598 0
M  V30 33164 H 3213.58 -6.94361 1.38812 0
M  V30 33165 H 3213.99 -5.64018 0.233145 0
M  V30 33166 N 3213.39 -0.62585 -1.4464 0
M  V30 33167 C 3214.32 0.0691778 -2.33398 0
M  V30 33168 C 3215.3 0.840215 -1.479 0
M  V30 33169 O 3216.49 0.807145 -1.76632 0
M  V30 33170 C 3213.62 1.05494 -3.3089 0
M  V30 33171 C 3212.57 0.395893 -4.26165 0
M  V30 33172 C 3211.9 1.49119 -5.13486 0
M  V30 33173 C 3213.2 -0.694524 -5.17662 0
M  V30 33174 H 3214.89 -0.671976 -2.91762 0
M  V30 33175 H 3212.44 -0.324598 -1.40294 0
M  V30 33176 H 3214.39 1.54986 -3.91864 0
M  V30 33177 H 3213.11 1.82692 -2.70724 0
M  V30 33178 H 3211.77 -0.0783336 -3.66516 0
M  V30 33179 H 3211.42 2.25391 -4.49675 0
M  V30 33180 H 3211.12 1.05562 -5.7804 0
M  V30 33181 H 3212.64 1.98802 -5.7733 0
M  V30 33182 H 3214.06 -0.282919 -5.72601 0
M  V30 33183 H 3212.45 -1.05291 -5.90791 0
M  V30 33184 H 3213.52 -1.5638 -4.58992 0
M  V30 33185 N 3214.87 1.53289 -0.36608 0
M  V30 33186 C 3216.1 2.05682 0.224199 0
M  V30 33187 C 3216.51 1.23955 1.4241 0
M  V30 33188 O 3215.87 0.280341 1.80334 0
M  V30 33189 C 3215.92 3.56192 0.617203 0
M  V30 33190 O 3215.64 4.34821 -0.535007 0
M  V30 33191 C 3217.14 4.24843 1.26582 0
M  V30 33192 H 3214.36 0.669849 0.039281 0
M  V30 33193 H 3216.9 1.97657 -0.524594 0
M  V30 33194 H 3215.06 3.64366 1.31591 0
M  V30 33195 H 3215.47 5.2405 -0.217215 0
M  V30 33196 H 3216.95 5.31472 1.49136 0
M  V30 33197 H 3217.42 3.78595 2.22627 0
M  V30 33198 H 3218.03 4.20924 0.608526 0
M  V30 33199 N 3216.35 0.0952613 1.57312 0
M  V30 33200 C 3217.62 -0.610682 1.85823 0
M  V30 33201 C 3218 -1.86332 0.992147 0
M  V30 33202 O 3217.35 -2.28409 0.0646071 0
M  V30 33203 C 3217.56 -0.925907 3.36494 0
M  V30 33204 C 3218.91 -1.28929 4.04552 0
M  V30 33205 O 3219.93 -1.01692 3.41376 0
M  V30 33206 O 3218.79 -1.7994 5.16027 0
M  V30 33207 H 3215.89 -0.305613 0.768459 0
M  V30 33208 H 3218.43 0.127971 1.69217 0
M  V30 33209 H 3217.2 -0.0372439 3.91282 0
M  V30 33210 H 3216.83 -1.72053 3.58446 0
M  V30 33211 N 3217.82 -1.56587 -0.178432 0
M  V30 33212 C 3219.23 -1.71341 -0.741569 0
M  V30 33213 C 3219.59 -0.704611 -1.83111 0
M  V30 33214 O 3218.71 0.135519 -2.15975 0
M  V30 33215 C 3219.31 -3.10658 -1.35192 0
M  V30 33216 C 3217.86 -3.27121 -1.86196 0
M  V30 33217 C 3217.01 -2.67293 -0.738208 0
M  V30 33218 H 3219.96 -1.58631 0.0468703 0
M  V30 33219 H 3219.98 -3.08914 -2.22155 0
M  V30 33220 H 3219.5 -3.84057 -0.558708 0
M  V30 33221 H 3217.6 -2.58666 -2.68184 0
M  V30 33222 H 3217.71 -4.34791 -2.01229 0
M  V30 33223 H 3216.07 -2.26914 -1.15682 0
M  V30 33224 H 3216.86 -3.43273 0.0430425 0
M  V30 33225 N 3219.3 0.446741 -1.51136 0
M  V30 33226 C 3220.53 1.22424 -1.67413 0
M  V30 33227 C 3220.95 1.84484 -0.367041 0
M  V30 33228 O 3220.31 1.68393 0.671821 0
M  V30 33229 C 3220.36 2.29092 -2.78477 0
M  V30 33230 O 3219.46 3.34347 -2.41425 0
M  V30 33231 H 3218.8 0.359101 -0.558518 0
M  V30 33232 H 3221.33 0.528765 -1.97649 0
M  V30 33233 H 3221.34 2.74025 -3.02282 0
M  V30 33234 H 3220.02 1.83297 -3.7333 0
M  V30 33235 H 3218.59 2.94956 -2.28157 0
M  V30 33236 N 3220.78 1.41123 0.701567 0
M  V30 33237 C 3221.73 1.38969 1.80753 0
M  V30 33238 C 3222.71 0.264992 1.58703 0
M  V30 33239 O 3223.91 0.505198 1.69637 0
M  V30 33240 C 3221.03 1.26842 3.19008 0
M  V30 33241 C 3220.12 2.4415 3.46773 0
M  V30 33242 N 3220.51 3.69623 3.45272 0
M  V30 33243 C 3218.81 2.37833 3.77295 0
M  V30 33244 C 3219.51 4.47391 3.71774 0
M  V30 33245 N 3218.49 3.77422 3.91221 0
M  V30 33246 H 3222.29 2.33907 1.77946 0
M  V30 33247 H 3219.8 1.35094 0.901301 0
M  V30 33248 H 3221.8 1.2338 3.98225 0
M  V30 33249 H 3220.46 0.328834 3.23031 0
M  V30 33250 H 3221.47 4.02591 3.25792 0
M  V30 33251 H 3218.15 1.52315 3.88724 0
M  V30 33252 H 3219.54 5.56301 3.768 0
M  V30 33253 N 3222.26 -0.935219 1.26852 0
M  V30 33254 C 3223.51 -1.67656 1.12135 0
M  V30 33255 C 3223.82 -1.92731 -0.333805 0
M  V30 33256 O 3225.03 -2.64747 -0.601754 0
M  V30 33257 C 3223.48 -3.01927 1.95878 0
M  V30 33258 C 3223.09 -2.84578 3.46005 0
M  V30 33259 C 3224.83 -3.79712 1.89787 0
M  V30 33260 C 3222.74 -4.14358 4.21973 0
M  V30 33261 H 3221.67 -0.628826 0.416046 0
M  V30 33262 H 3224.32 -1.03959 1.51211 0
M  V30 33263 H 3222.7 -3.66639 1.4964 0
M  V30 33264 H 3223.88 -2.2868 4.00053 0
M  V30 33265 H 3222.19 -2.2023 3.53395 0
M  V30 33266 H 3224.79 -4.7587 2.43827 0
M  V30 33267 H 3225.13 -4.07111 0.869868 0
M  V30 33268 H 3225.67 -3.21784 2.3388 0
M  V30 33269 H 3222.4 -3.92141 5.25267 0
M  V30 33270 H 3221.92 -4.69949 3.72704 0
M  V30 33271 H 3223.6 -4.82773 4.30743 0
M  V30 33272 N 3223.74 -1.08752 -1.14065 0
M  V30 33273 C 3224.96 -0.840935 -1.89039 0
M  V30 33274 C 3225.38 0.607219 -1.78769 0
M  V30 33275 O 3224.74 1.41751 -1.14947 0
M  V30 33276 C 3224.79 -1.25844 -3.38889 0
M  V30 33277 O 3224.51 -2.64979 -3.48881 0
M  V30 33278 C 3226.01 -1.04323 -4.3085 0
M  V30 33279 H 3223.23 -0.303025 -0.598679 0
M  V30 33280 H 3225.77 -1.44771 -1.44435 0
M  V30 33281 H 3223.93 -0.695694 -3.81102 0
M  V30 33282 H 3224.34 -2.82401 -4.41984 0
M  V30 33283 H 3225.82 -1.3847 -5.3435 0
M  V30 33284 H 3226.29 0.0195012 -4.39196 0
M  V30 33285 H 3226.9 -1.59157 -3.94397 0
M  V30 33286 N 3225.21 1.31165 -0.873701 0
M  V30 33287 C 3226.18 2.26707 -0.337109 0
M  V30 33288 C 3227.18 1.52363 0.514033 0
M  V30 33289 O 3228.37 1.71183 0.322804 0
M  V30 33290 C 3225.5 3.36898 0.520838 0
M  V30 33291 H 3226.69 2.75684 -1.1806 0
M  V30 33292 H 3224.25 1.42161 -0.649602 0
M  V30 33293 H 3224.98 2.9322 1.38538 0
M  V30 33294 H 3224.77 3.92 -0.0886704 0
M  V30 33295 H 3226.26 4.0804 0.888425 0
M  V30 33296 N 3226.69 0.633512 1.44307 0
M  V30 33297 C 3227.6 -0.0711375 2.34492 0
M  V30 33298 C 3228.62 -0.833173 1.52755 0
M  V30 33299 O 3229.79 -0.784896 1.85476 0
M  V30 33300 C 3226.86 -1.03889 3.30769 0
M  V30 33301 C 3225.92 -0.275968 4.28412 0
M  V30 33302 C 3225.15 -1.19762 5.20089 0
M  V30 33303 O 3225.38 -2.43641 5.15747 0
M  V30 33304 O 3224.31 -0.680659 5.98039 0
M  V30 33305 H 3228.14 0.670682 2.96202 0
M  V30 33306 H 3225.72 0.393703 1.44119 0
M  V30 33307 H 3227.6 -1.59559 3.90024 0
M  V30 33308 H 3226.28 -1.76128 2.71589 0
M  V30 33309 H 3225.19 0.323836 3.72696 0
M  V30 33310 H 3226.52 0.406451 4.90519 0
M  V30 33311 N 3228.17 -1.53093 0.374204 0
M  V30 33312 C 3229.13 -2.24619 -0.455959 0
M  V30 33313 C 3230.13 -1.25711 -1.00266 0
M  V30 33314 O 3231.32 -1.49923 -0.887051 0
M  V30 33315 C 3228.46 -2.9896 -1.63816 0
M  V30 33316 H 3229.65 -2.99418 0.170038 0
M  V30 33317 H 3227.2 -1.55791 0.126042 0
M  V30 33318 H 3227.94 -2.28425 -2.30201 0
M  V30 33319 H 3227.72 -3.7154 -1.25302 0
M  V30 33320 H 3229.21 -3.53309 -2.22626 0
M  V30 33321 N 3229.65 -0.103603 -1.57259 0
M  V30 33322 C 3230.61 0.837822 -2.13338 0
M  V30 33323 C 3231.61 1.2051 -1.06461 0
M  V30 33324 O 3232.8 1.13313 -1.32309 0
M  V30 33325 C 3229.93 2.13085 -2.66097 0
M  V30 33326 H 3231.13 0.350723 -2.97842 0
M  V30 33327 H 3228.68 0.145484 -1.55621 0
M  V30 33328 H 3229.41 2.6626 -1.85137 0
M  V30 33329 H 3229.2 1.87713 -3.44248 0
M  V30 33330 H 3230.69 2.80413 -3.09448 0
M  V30 33331 N 3231.13 1.56679 0.170126 0
M  V30 33332 C 3232.37 1.81702 0.884809 0
M  V30 33333 C 3232.7 0.680795 1.8273 0
M  V30 33334 O 3231.97 -0.29926 1.93601 0
M  V30 33335 H 3230.55 0.670291 0.329726 0
M  V30 33336 H 3233.21 1.9416 0.169657 0
M  V30 33337 H 3232.3 2.75792 1.46099 0
M  V30 33338 N 3232.6 -0.43872 1.5137 0
M  V30 33339 C 3234.02 -0.775091 1.39515 0
M  V30 33340 C 3234.22 -1.95787 0.476414 0
M  V30 33341 O 3233.28 -2.52406 -0.0689388 0
M  V30 33342 C 3234.59 -1.05676 2.81519 0
M  V30 33343 C 3236.14 -1.16128 2.9066 0
M  V30 33344 C 3236.61 -1.47589 4.33568 0
M  V30 33345 N 3238.1 -1.54516 4.36668 0
M  V30 33346 C 3238.84 -1.80428 5.44273 0
M  V30 33347 N 3238.33 -2.04142 6.62041 0
M  V30 33348 N 3240.13 -1.82199 5.31752 0
M  V30 33349 H 3232.28 0.340274 2.09657 0
M  V30 33350 H 3234.54 0.0898281 0.943735 0
M  V30 33351 H 3234.25 -0.260379 3.50735 0
M  V30 33352 H 3234.12 -1.98475 3.20761 0
M  V30 33353 H 3236.51 -1.94829 2.21643 0
M  V30 33354 H 3236.59 -0.212331 2.54917 0
M  V30 33355 H 3236.23 -0.694163 5.03134 0
M  V30 33356 H 3236.16 -2.43688 4.66823 0
M  V30 33357 H 3238.65 -1.38099 3.51763 0
M  V30 33358 H 3238.97 -2.2328 7.39842 0
M  V30 33359 H 3237.31 -2.01467 6.65159 0
M  V30 33360 H 3240.5 -1.63191 4.38733 0
M  V30 33361 H 3240.68 -2.02056 6.15693 0
M  V30 33362 N 3234.08 -1.41493 -0.694073 0
M  V30 33363 C 3235.5 -1.23996 -1.00485 0
M  V30 33364 C 3235.7 -0.130381 -2.01078 0
M  V30 33365 O 3234.75 0.504732 -2.47404 0
M  V30 33366 C 3236.07 -2.58982 -1.52803 0
M  V30 33367 C 3237.62 -2.66176 -1.64679 0
M  V30 33368 C 3238.09 -4.01483 -2.20399 0
M  V30 33369 N 3239.58 -4.03337 -2.27757 0
M  V30 33370 C 3240.32 -5.04834 -2.71902 0
M  V30 33371 N 3239.81 -6.1672 -3.1564 0
M  V30 33372 N 3241.61 -4.92195 -2.71479 0
M  V30 33373 H 3233.76 -2.12382 -0.0277087 0
M  V30 33374 H 3236.02 -0.94504 -0.0748575 0
M  V30 33375 H 3235.73 -3.40936 -0.863459 0
M  V30 33376 H 3235.6 -2.81571 -2.50993 0
M  V30 33377 H 3237.99 -1.8458 -2.30248 0
M  V30 33378 H 3238.07 -2.47396 -0.650307 0
M  V30 33379 H 3237.71 -4.83528 -1.55445 0
M  V30 33380 H 3237.64 -4.17604 -3.20802 0
M  V30 33381 H 3240.13 -3.22554 -1.96894 0
M  V30 33382 H 3240.45 -6.90035 -3.47954 0
M  V30 33383 H 3238.79 -6.20254 -3.13545 0
M  V30 33384 H 3241.98 -4.03869 -2.36659 0
M  V30 33385 H 3242.15 -5.71432 -3.05563 0
M  V30 33386 N 3235.56 0.928479 -1.27346 0
M  V30 33387 C 3236.49 2.04601 -1.12521 0
M  V30 33388 C 3237.47 1.70079 -0.0268862 0
M  V30 33389 O 3238.66 1.93155 -0.201231 0
M  V30 33390 C 3235.79 3.38638 -0.770808 0
M  V30 33391 C 3234.74 3.87269 -1.82227 0
M  V30 33392 C 3234.07 5.18103 -1.32187 0
M  V30 33393 C 3235.37 4.10746 -3.22621 0
M  V30 33394 H 3237.06 2.17262 -2.06004 0
M  V30 33395 H 3234.61 1.04396 -0.991845 0
M  V30 33396 H 3236.56 4.16295 -0.653916 0
M  V30 33397 H 3235.28 3.25989 0.199732 0
M  V30 33398 H 3233.94 3.11804 -1.92805 0
M  V30 33399 H 3233.59 5.01844 -0.340807 0
M  V30 33400 H 3233.29 5.5161 -2.02484 0
M  V30 33401 H 3234.81 5.98331 -1.2179 0
M  V30 33402 H 3236.23 4.78976 -3.15048 0
M  V30 33403 H 3234.63 4.55559 -3.90622 0
M  V30 33404 H 3235.7 3.1607 -3.67733 0
M  V30 33405 N 3237.04 1.09355 1.13486 0
M  V30 33406 C 3238 0.735901 2.17065 0
M  V30 33407 C 3239 -0.234153 1.59086 0
M  V30 33408 O 3240.19 -0.0124324 1.74196 0
M  V30 33409 C 3237.32 0.0881575 3.40786 0
M  V30 33410 H 3238.52 1.6532 2.50218 0
M  V30 33411 H 3236.07 0.892652 1.28302 0
M  V30 33412 H 3236.8 -0.840407 3.13221 0
M  V30 33413 H 3236.59 0.786141 3.84138 0
M  V30 33414 H 3238.08 -0.146702 4.17342 0
M  V30 33415 N 3238.52 -1.307 0.880644 0
M  V30 33416 C 3239.93 -1.48919 0.574041 0
M  V30 33417 C 3240.13 -1.80815 -0.88928 0
M  V30 33418 O 3239.19 -1.89317 -1.67079 0
M  V30 33419 C 3240.5 -2.61561 1.48346 0
M  V30 33420 C 3242.05 -2.75442 1.48663 0
M  V30 33421 C 3242.53 -3.91192 2.38187 0
M  V30 33422 N 3244.02 -3.98495 2.36126 0
M  V30 33423 C 3244.75 -4.87357 3.0211 0
M  V30 33424 N 3244.25 -5.81046 3.77303 0
M  V30 33425 N 3246.04 -4.80691 2.91364 0
M  V30 33426 H 3238.19 -1.08268 1.82734 0
M  V30 33427 H 3240.45 -0.535967 0.781948 0
M  V30 33428 H 3240.16 -2.448 2.52519 0
M  V30 33429 H 3240.03 -3.57942 1.18984 0
M  V30 33430 H 3242.42 -2.91611 0.452425 0
M  V30 33431 H 3242.5 -1.79695 1.82054 0
M  V30 33432 H 3242.15 -3.7578 3.4169 0
M  V30 33433 H 3242.08 -4.86269 2.02115 0
M  V30 33434 H 3244.57 -3.31472 1.8148 0
M  V30 33435 H 3244.88 -6.45604 4.24753 0
M  V30 33436 H 3243.23 -5.80991 3.81411 0
M  V30 33437 H 3246.42 -4.06477 2.3215 0
M  V30 33438 H 3246.59 -5.49736 3.43066 0
M  V30 33439 N 3240 -0.641156 -1.43969 0
M  V30 33440 C 3241.24 -0.149369 -2.01547 0
M  V30 33441 C 3241.56 1.23677 -1.50762 0
M  V30 33442 O 3240.83 1.82374 -0.715289 0
M  V30 33443 H 3239.41 -0.0522292 -0.745172 0
M  V30 33444 H 3242.08 -0.830113 -1.76338 0
M  V30 33445 H 3241.17 -0.124731 -3.11851 0
M  V30 33446 N 3241.47 1.52892 -0.382318 0
M  V30 33447 C 3242.7 2.06385 0.204925 0
M  V30 33448 C 3243.12 1.25274 1.40314 0
M  V30 33449 O 3242.48 0.276001 1.79187 0
M  V30 33450 C 3242.53 3.56223 0.560143 0
M  V30 33451 O 3241.63 3.77731 1.65508 0
M  V30 33452 H 3240.97 0.663496 0.0258682 0
M  V30 33453 H 3243.5 1.97131 -0.547767 0
M  V30 33454 H 3243.51 3.99542 0.826431 0
M  V30 33455 H 3242.19 4.14698 -0.315913 0
M  V30 33456 H 3240.77 3.46303 1.38305 0
M  V30 33457 N 3242.95 0.111941 1.57202 0
M  V30 33458 C 3244.36 -0.414559 1.82039 0
M  V30 33459 C 3244.71 -1.67072 1.02866 0
M  V30 33460 O 3243.84 -2.14795 0.263106 0
M  V30 33461 C 3244.43 -0.758895 3.30191 0
M  V30 33462 C 3242.99 -1.23006 3.55734 0
M  V30 33463 C 3242.14 -0.235177 2.76301 0
M  V30 33464 H 3245.09 0.337169 1.55077 0
M  V30 33465 H 3245.11 -1.61695 3.44434 0
M  V30 33466 H 3244.62 0.155541 3.87788 0
M  V30 33467 H 3242.72 -2.16164 3.03487 0
M  V30 33468 H 3242.84 -1.18026 4.64335 0
M  V30 33469 H 3241.2 -0.720779 2.44288 0
M  V30 33470 H 3241.98 0.672233 3.36654 0
M  V30 33471 N 3244.43 -1.56767 -0.161814 0
M  V30 33472 C 3245.84 -1.72118 -0.723354 0
M  V30 33473 C 3246.19 -0.723993 -1.82353 0
M  V30 33474 O 3245.32 0.112605 -2.16107 0
M  V30 33475 C 3245.91 -3.12075 -1.3189 0
M  V30 33476 C 3244.47 -3.29077 -1.82716 0
M  V30 33477 C 3243.62 -2.68061 -0.709816 0
M  V30 33478 H 3246.57 -1.58572 0.0636926 0
M  V30 33479 H 3246.59 -3.11252 -2.18866 0
M  V30 33480 H 3246.1 -3.84628 -0.517942 0
M  V30 33481 H 3244.2 -2.61496 -2.65425 0
M  V30 33482 H 3244.32 -4.36901 -1.96606 0
M  V30 33483 H 3242.68 -2.28128 -1.13269 0
M  V30 33484 H 3243.46 -3.43208 0.0794488 0
M  V30 33485 N 3245.91 0.430686 -1.51601 0
M  V30 33486 C 3247.13 1.20642 -1.68702 0
M  V30 33487 C 3247.56 1.84085 -0.386587 0
M  V30 33488 O 3246.92 1.69096 0.653923 0
M  V30 33489 C 3246.96 2.26125 -2.80891 0
M  V30 33490 O 3246.07 3.31767 -2.44957 0
M  V30 33491 H 3245.41 0.353157 -0.562295 0
M  V30 33492 H 3247.94 0.507772 -1.98199 0
M  V30 33493 H 3247.95 2.70803 -3.05172 0
M  V30 33494 H 3246.62 1.79327 -3.75253 0
M  V30 33495 H 3245.2 2.92519 -2.31273 0
M  V30 33496 N 3247.39 1.4186 0.686559 0
M  V30 33497 C 3248.63 1.4191 1.44877 0
M  V30 33498 C 3248.96 0.031175 1.94175 0
M  V30 33499 O 3248.24 -0.942616 1.70132 0
M  V30 33500 C 3248.52 2.43357 2.65423 0
M  V30 33501 C 3248.38 3.91293 2.21833 0
M  V30 33502 C 3249.69 2.41941 3.67631 0
M  V30 33503 H 3246.81 0.516771 0.525468 0
M  V30 33504 H 3249.46 1.73196 0.781232 0
M  V30 33505 H 3247.61 2.16809 3.22376 0
M  V30 33506 H 3249.28 4.28778 1.70138 0
M  V30 33507 H 3247.52 4.05725 1.53524 0
M  V30 33508 H 3248.19 4.57835 3.08368 0
M  V30 33509 H 3250.67 2.65522 3.20371 0
M  V30 33510 H 3249.54 3.14921 4.49573 0
M  V30 33511 H 3249.8 1.44118 4.1795 0
M  V30 33512 N 3248.86 -0.921712 1.27837 0
M  V30 33513 C 3249.83 -2.00467 1.11111 0
M  V30 33514 C 3250.83 -1.60712 0.0532312 0
M  V30 33515 O 3252.02 -1.71626 0.298338 0
M  V30 33516 C 3249.15 -3.33754 0.694328 0
M  V30 33517 H 3250.34 -2.16735 2.07283 0
M  V30 33518 H 3247.89 -1.10331 1.1071 0
M  V30 33519 H 3248.63 -3.23187 -0.268504 0
M  V30 33520 H 3248.41 -3.63968 1.45842 0
M  V30 33521 H 3249.9 -4.13271 0.599723 0
M  V30 33522 N 3250.34 -1.09956 -1.12905 0
M  V30 33523 C 3251.57 -0.861132 -1.88678 0
M  V30 33524 C 3251.99 0.582467 -1.78854 0
M  V30 33525 O 3251.35 1.40978 -1.13995 0
M  V30 33526 C 3251.4 -1.30791 -3.36045 0
M  V30 33527 O 3250.5 -0.4698 -4.09715 0
M  V30 33528 H 3249.84 -0.311421 -0.586441 0
M  V30 33529 H 3252.37 -1.46509 -1.42815 0
M  V30 33530 H 3252.38 -1.29569 -3.8688 0
M  V30 33531 H 3251.06 -2.35921 -3.42512 0
M  V30 33532 H 3249.63 -0.546805 -3.68869 0
M  V30 33533 N 3251.82 1.30231 -0.887563 0
M  V30 33534 C 3253.04 2.00734 -0.521597 0
M  V30 33535 C 3253.47 1.66075 0.883217 0
M  V30 33536 O 3252.83 0.878759 1.5858 0
M  V30 33537 C 3252.88 3.5361 -0.706583 0
M  V30 33538 O 3251.98 4.11663 0.246375 0
M  V30 33539 H 3251.32 0.631489 -0.205227 0
M  V30 33540 H 3253.85 1.66016 -1.19582 0
M  V30 33541 H 3253.86 4.03466 -0.606572 0
M  V30 33542 H 3252.54 3.78174 -1.73083 0
M  V30 33543 H 3251.11 3.72766 0.0998407 0
M  V30 33544 N 3253.3 0.648782 1.43627 0
M  V30 33545 C 3254.52 0.16632 2.06732 0
M  V30 33546 C 3254.95 -1.15731 1.48283 0
M  V30 33547 O 3254.31 -1.71395 0.591048 0
M  V30 33548 C 3254.35 0.0839365 3.60502 0
M  V30 33549 O 3253.46 -0.955114 4.01187 0
M  V30 33550 H 3252.8 0.0928401 0.657478 0
M  V30 33551 H 3255.33 0.890453 1.84207 0
M  V30 33552 H 3255.34 -0.100851 4.07875 0
M  V30 33553 H 3254.01 1.05021 4.02422 0
M  V30 33554 H 3252.59 -0.743473 3.65413 0
M  V30 33555 N 3254.78 -1.52688 0.390421 0
M  V30 33556 C 3255.74 -2.2509 -0.43211 0
M  V30 33557 C 3256.74 -1.26768 -0.989273 0
M  V30 33558 O 3257.93 -1.50856 -0.871099 0
M  V30 33559 C 3255.06 -3.00681 -1.60636 0
M  V30 33560 H 3256.25 -2.9922 0.201786 0
M  V30 33561 H 3253.81 -1.55649 0.142559 0
M  V30 33562 H 3254.54 -2.30854 -2.27765 0
M  V30 33563 H 3254.33 -3.72848 -1.21354 0
M  V30 33564 H 3255.82 -3.5565 -2.18867 0
M  V30 33565 N 3256.25 -0.120276 -1.5714 0
M  V30 33566 C 3257.48 0.548419 -2.00018 0
M  V30 33567 C 3257.9 1.5935 -0.999461 0
M  V30 33568 O 3257.26 1.81277 0.028666 0
M  V30 33569 C 3257.31 1.15009 -3.41768 0
M  V30 33570 O 3256.41 2.2656 -3.44593 0
M  V30 33571 H 3255.76 0.136864 -0.649742 0
M  V30 33572 H 3258.29 -0.209127 -2.03528 0
M  V30 33573 H 3258.3 1.48531 -3.80003 0
M  V30 33574 H 3256.97 0.384608 -4.14118 0
M  V30 33575 H 3255.55 1.94467 -3.18177 0
M  V30 33576 N 3257.73 1.56851 0.153498 0
M  V30 33577 C 3258.66 1.94367 1.21467 0
M  V30 33578 C 3259.68 0.83875 1.39531 0
M  V30 33579 O 3260.87 1.11717 1.39217 0
M  V30 33580 C 3257.97 2.19682 2.58056 0
M  V30 33581 C 3257.14 3.50954 2.61056 0
M  V30 33582 C 3256.2 3.64885 3.79138 0
M  V30 33583 O 3255.22 4.37339 3.64312 0
M  V30 33584 N 3256.43 3.01063 4.96328 0
M  V30 33585 H 3259.19 2.85998 0.895838 0
M  V30 33586 H 3256.75 1.58222 0.343119 0
M  V30 33587 H 3258.74 2.26249 3.35549 0
M  V30 33588 H 3257.31 1.34348 2.82258 0
M  V30 33589 H 3256.53 3.55885 1.69527 0
M  V30 33590 H 3257.82 4.37302 2.60086 0
M  V30 33591 H 3257.22 2.42102 5.11276 0
M  V30 33592 H 3255.78 3.13201 5.71619 0
M  V30 33593 N 3259.21 -0.42264 1.51827 0
M  V30 33594 C 3260.14 -1.52114 1.77154 0
M  V30 33595 C 3261.12 -1.58323 0.621922 0
M  V30 33596 O 3262.31 -1.73815 0.866148 0
M  V30 33597 C 3259.44 -2.90065 1.90997 0
M  V30 33598 C 3258.39 -2.98712 3.06521 0
M  V30 33599 C 3257.72 -4.38786 3.05567 0
M  V30 33600 C 3259.02 -2.71437 4.46227 0
M  V30 33601 H 3260.71 -1.3117 2.69137 0
M  V30 33602 H 3258.26 -0.629584 1.29508 0
M  V30 33603 H 3260.21 -3.66886 2.07298 0
M  V30 33604 H 3258.93 -3.12272 0.956743 0
M  V30 33605 H 3257.59 -2.24333 2.89949 0
M  V30 33606 H 3257.24 -4.57982 2.07993 0
M  V30 33607 H 3256.94 -4.45498 3.83151 0
M  V30 33608 H 3258.46 -5.17561 3.2398 0
M  V30 33609 H 3259.88 -3.37986 4.63075 0
M  V30 33610 H 3258.28 -2.89542 5.25628 0
M  V30 33611 H 3259.35 -1.66952 4.55253 0
M  V30 33612 N 3260.69 -1.42222 -0.679027 0
M  V30 33613 C 3261.91 -1.4606 -1.47245 0
M  V30 33614 C 3262.34 -0.0721318 -1.87962 0
M  V30 33615 O 3261.7 0.928461 -1.55722 0
M  V30 33616 C 3261.74 -2.38953 -2.70063 0
M  V30 33617 O 3260.85 -1.85798 -3.68175 0
M  V30 33618 H 3260.19 -0.495044 -0.442524 0
M  V30 33619 H 3262.72 -1.86865 -0.83323 0
M  V30 33620 H 3262.73 -2.5539 -3.18182 0
M  V30 33621 H 3261.4 -3.39831 -2.39767 0
M  V30 33622 H 3259.98 -1.78895 -3.27187 0
M  V30 33623 N 3262.17 0.91492 -1.28324 0
M  V30 33624 C 3263.13 1.99875 -1.12173 0
M  V30 33625 C 3264.13 1.60681 -0.0617534 0
M  V30 33626 O 3265.32 1.71466 -0.307435 0
M  V30 33627 C 3262.45 3.33381 -0.712018 0
M  V30 33628 H 3263.64 2.15632 -2.08429 0
M  V30 33629 H 3261.2 1.09743 -1.11293 0
M  V30 33630 H 3261.93 3.23324 0.251361 0
M  V30 33631 H 3261.72 3.63189 -1.4777 0
M  V30 33632 H 3263.21 4.12947 -0.621631 0
M  V30 33633 N 3263.64 1.10553 1.1232 0
M  V30 33634 C 3265.06 0.866229 1.65389 0
M  V30 33635 C 3265.41 -0.603251 1.86696 0
M  V30 33636 O 3264.53 -1.4632 1.59435 0
M  V30 33637 C 3265.13 1.56592 3.0044 0
M  V30 33638 C 3263.69 1.37329 3.50454 0
M  V30 33639 C 3262.83 1.61453 2.25451 0
M  V30 33640 H 3265.78 1.26307 0.960844 0
M  V30 33641 H 3265.8 1.00563 3.6697 0
M  V30 33642 H 3265.32 2.6354 2.84901 0
M  V30 33643 H 3263.42 0.325496 3.71176 0
M  V30 33644 H 3263.53 2.11609 4.29836 0
M  V30 33645 H 3261.89 1.03733 2.32619 0
M  V30 33646 H 3262.68 2.69655 2.12464 0
M  V30 33647 N 3265.12 -1.29758 0.894457 0
M  V30 33648 C 3266.35 -2.00455 0.532235 0
M  V30 33649 C 3266.77 -1.66541 -0.874398 0
M  V30 33650 O 3266.13 -0.887157 -1.58111 0
M  V30 33651 C 3266.18 -3.5323 0.725326 0
M  V30 33652 O 3265.28 -4.11788 -0.22454 0
M  V30 33653 H 3264.62 -0.630391 0.208573 0
M  V30 33654 H 3267.15 -1.6538 1.20461 0
M  V30 33655 H 3267.16 -4.03139 0.62796 0
M  V30 33656 H 3265.84 -3.7725 1.75086 0
M  V30 33657 H 3264.42 -3.72814 -0.0800706 0
M  V30 33658 N 3266.6 -0.65639 -1.4328 0
M  V30 33659 C 3267.53 0.0196551 -2.33492 0
M  V30 33660 C 3268.51 0.808654 -1.49649 0
M  V30 33661 O 3269.7 0.769498 -1.78304 0
M  V30 33662 C 3266.83 0.984515 -3.33053 0
M  V30 33663 C 3265.78 0.305408 -4.26909 0
M  V30 33664 C 3265.11 1.38193 -5.16533 0
M  V30 33665 C 3266.41 -0.804172 -5.16072 0
M  V30 33666 H 3268.1 -0.733712 -2.90271 0
M  V30 33667 H 3265.65 -0.354283 -1.39574 0
M  V30 33668 H 3267.6 1.4664 -3.95063 0
M  V30 33669 H 3266.32 1.76908 -2.74538 0
M  V30 33670 H 3264.98 -0.156059 -3.66268 0
M  V30 33671 H 3264.63 2.15802 -4.54355 0
M  V30 33672 H 3264.33 0.932776 -5.80149 0
M  V30 33673 H 3265.85 1.86512 -5.81417 0
M  V30 33674 H 3267.27 -0.404312 -5.71873 0
M  V30 33675 H 3265.67 -1.17799 -5.88424 0
M  V30 33676 H 3266.74 -1.66081 -4.55571 0
M  V30 33677 N 3268.08 1.52478 -0.398513 0
M  V30 33678 C 3269.03 2.26718 0.432172 0
M  V30 33679 C 3270 1.28698 1.05005 0
M  V30 33680 O 3271.18 1.57543 1.07633 0
M  V30 33681 C 3268.32 3.08402 1.54862 0
M  V30 33682 C 3267.43 4.21364 0.952705 0
M  V30 33683 C 3266.57 4.90426 2.04097 0
M  V30 33684 C 3265.61 5.95367 1.42143 0
M  V30 33685 N 3264.75 6.57989 2.44939 0
M  V30 33686 H 3269.59 2.97278 -0.207355 0
M  V30 33687 H 3267.12 1.46657 -0.114092 0
M  V30 33688 H 3269.08 3.54058 2.20677 0
M  V30 33689 H 3267.71 2.40033 2.15833 0
M  V30 33690 H 3266.76 3.79955 0.183895 0
M  V30 33691 H 3268.07 4.96674 0.460044 0
M  V30 33692 H 3267.23 5.39434 2.77662 0
M  V30 33693 H 3265.97 4.1466 2.56725 0
M  V30 33694 H 3264.97 5.45689 0.671065 0
M  V30 33695 H 3266.2 6.7307 0.902975 0
M  V30 33696 H 3264.14 5.85058 2.9672 0
M  V30 33697 H 3264.06 7.2894 2.00455 0
M  V30 33698 H 3265.33 7.11638 3.18106 0
M  V30 33699 N 3269.56 0.128608 1.57074 0
M  V30 33700 C 3270.52 -0.803776 2.14644 0
M  V30 33701 C 3271.52 -1.18801 1.08365 0
M  V30 33702 O 3272.71 -1.11194 1.34095 0
M  V30 33703 C 3269.84 -2.08824 2.69454 0
M  V30 33704 H 3271.04 -0.303294 2.98362 0
M  V30 33705 H 3268.59 -0.120708 1.55833 0
M  V30 33706 H 3269.32 -2.63281 1.8935 0
M  V30 33707 H 3269.11 -1.82212 3.4719 0
M  V30 33708 H 3270.6 -2.75455 3.1387 0
M  V30 33709 N 3271.04 -1.5693 -0.145178 0
M  V30 33710 C 3272.26 -1.8761 -0.872365 0
M  V30 33711 C 3272.68 -0.717006 -1.74655 0
M  V30 33712 O 3272.04 0.313168 -1.79793 0
M  V30 33713 C 3272.09 -3.17549 -1.72756 0
M  V30 33714 O 3271.81 -4.28993 -0.888605 0
M  V30 33715 C 3273.31 -3.61756 -2.56218 0
M  V30 33716 H 3270.53 -0.621819 -0.252155 0
M  V30 33717 H 3273.07 -2.04038 -0.13742 0
M  V30 33718 H 3271.23 -3.02869 -2.41555 0
M  V30 33719 H 3271.64 -5.03306 -1.47592 0
M  V30 33720 H 3273.12 -4.55508 -3.11796 0
M  V30 33721 H 3273.59 -2.87133 -3.32342 0
M  V30 33722 H 3274.2 -3.79136 -1.92707 0
M  V30 33723 N 3272.51 0.414582 -1.52049 0
M  V30 33724 C 3273.75 1.17126 -1.67514 0
M  V30 33725 C 3274.12 1.87917 -0.393863 0
M  V30 33726 O 3275.32 2.65426 -0.424542 0
M  V30 33727 C 3273.59 2.14352 -2.85986 0
M  V30 33728 S 3275.15 2.982 -3.21904 0
M  V30 33729 H 3271.97 0.396867 -0.58993 0
M  V30 33730 H 3274.57 0.459375 -1.90026 0
M  V30 33731 H 3273.27 1.61023 -3.77491 0
M  V30 33732 H 3272.8 2.90088 -2.6573 0
M  V30 33733 H 3274.82 4.16244 -2.70102 0
M  V30 33734 N 3273.99 1.4258 0.671475 0
M  V30 33735 C 3275.22 1.46631 1.45969 0
M  V30 33736 C 3275.63 0.0786318 1.88636 0
M  V30 33737 O 3274.99 -0.907344 1.58346 0
M  V30 33738 C 3275.04 2.39632 2.70664 0
M  V30 33739 O 3274.76 3.73001 2.29787 0
M  V30 33740 C 3276.26 2.52737 3.64196 0
M  V30 33741 H 3273.48 0.498606 0.449035 0
M  V30 33742 H 3276.03 1.8713 0.824778 0
M  V30 33743 H 3274.18 2.02377 3.30337 0
M  V30 33744 H 3274.6 4.22839 3.10334 0
M  V30 33745 H 3276.07 3.21925 4.48406 0
M  V30 33746 H 3276.55 1.56633 4.1032 0
M  V30 33747 H 3277.15 2.90728 3.10415 0
M  V30 33748 N 3275.47 -0.908102 1.28807 0
M  V30 33749 C 3276.43 -1.99277 1.13231 0
M  V30 33750 C 3277.43 -1.60646 0.0702739 0
M  V30 33751 O 3278.62 -1.713 0.316524 0
M  V30 33752 C 3275.75 -3.32999 0.729688 0
M  V30 33753 H 3276.95 -2.14524 2.0957 0
M  V30 33754 H 3274.5 -1.09151 1.11874 0
M  V30 33755 H 3275.24 -3.23453 -0.234211 0
M  V30 33756 H 3275.02 -3.624 1.49694 0
M  V30 33757 H 3276.51 -4.12612 0.643522 0
M  V30 33758 N 3276.95 -1.11147 -1.11732 0
M  V30 33759 C 3277.9 -0.762021 -2.19764 0
M  V30 33760 C 3278.89 0.245151 -1.67617 0
M  V30 33761 O 3280.1 0.10475 -1.79695 0
M  V30 33762 H 3276.47 -0.228525 -0.716436 0
M  V30 33763 H 3278.44 -1.68187 -2.46487 0
M  V30 33764 C 3277.19 -0.218118 -3.47015 0
M  V30 33765 H 3276.51 -0.984367 -3.87492 0
M  V30 33766 H 3277.95 -0.0117571 -4.23998 0
M  V30 33767 C 3276.41 1.0509 -3.2009 0
M  V30 33768 O 3276.94 2.13114 -3.40507 0
M  V30 33769 N 3275.15 0.972475 -2.73845 0
M  V30 33770 H 3274.7 0.0933006 -2.57431 0
M  V30 33771 H 3274.65 1.82224 -2.56207 0
M  V30 33772 N 3278.43 1.29282 -0.901326 0
M  V30 33773 C 3279.38 2.25273 -0.351602 0
M  V30 33774 C 3280.36 1.51947 0.529249 0
M  V30 33775 O 3281.55 1.73068 0.371001 0
M  V30 33776 C 3278.68 3.40741 0.41837 0
M  V30 33777 C 3277.77 4.21403 -0.477494 0
M  V30 33778 N 3278.16 4.80309 -1.58546 0
M  V30 33779 C 3276.46 4.45148 -0.275583 0
M  V30 33780 C 3277.16 5.40886 -2.1405 0
M  V30 33781 N 3276.13 5.24363 -1.43333 0
M  V30 33782 H 3279.93 2.68377 -1.19795 0
M  V30 33783 H 3277.45 1.43911 -0.752563 0
M  V30 33784 H 3279.45 4.08576 0.82895 0
M  V30 33785 H 3278.11 2.99173 1.26196 0
M  V30 33786 H 3279.12 4.79044 -1.96818 0
M  V30 33787 H 3275.79 4.14129 0.529508 0
M  V30 33788 H 3277.18 5.97568 -3.07184 0
M  V30 33789 N 3279.9 0.663979 1.4293 0
M  V30 33790 C 3281.18 0.111208 1.95284 0
M  V30 33791 C 3281.56 -1.3714 1.60487 0
M  V30 33792 O 3280.91 -2.10223 0.895462 0
M  V30 33793 C 3281.12 0.36885 3.47045 0
M  V30 33794 C 3282.47 0.279548 4.23679 0
M  V30 33795 O 3283.49 0.301999 3.54917 0
M  V30 33796 O 3282.35 0.212456 5.46087 0
M  V30 33797 H 3279.44 -0.00340264 0.826993 0
M  V30 33798 H 3281.99 0.737962 1.52814 0
M  V30 33799 H 3280.76 1.39632 3.65539 0
M  V30 33800 H 3280.38 -0.290444 3.96538 0
M  V30 33801 N 3281.38 -1.52265 0.406593 0
M  V30 33802 C 3282.61 -2.06685 -0.172065 0
M  V30 33803 C 3283.03 -1.2749 -1.38303 0
M  V30 33804 O 3282.39 -0.304473 -1.78725 0
M  V30 33805 C 3282.44 -3.57069 -0.5034 0
M  V30 33806 O 3281.54 -3.80316 -1.59478 0
M  V30 33807 H 3280.88 -0.663823 -0.0153092 0
M  V30 33808 H 3283.41 -1.96235 0.57906 0
M  V30 33809 H 3283.42 -4.00807 -0.762763 0
M  V30 33810 H 3282.1 -4.14143 0.381848 0
M  V30 33811 H 3280.67 -3.4846 -1.32778 0
M  V30 33812 N 3282.86 -0.136936 -1.57004 0
M  V30 33813 C 3284.27 0.385545 -1.82676 0
M  V30 33814 C 3284.62 1.65414 -1.05511 0
M  V30 33815 O 3283.75 2.14349 -0.297245 0
M  V30 33816 C 3284.34 0.706268 -3.31357 0
M  V30 33817 C 3282.9 1.17331 -3.57646 0
M  V30 33818 C 3282.05 0.19119 -2.7664 0
M  V30 33819 H 3285 -0.361798 -1.54521 0
M  V30 33820 H 3285.02 1.56195 -3.46963 0
M  V30 33821 H 3284.53 -0.217215 -3.87492 0
M  V30 33822 H 3282.63 2.11308 -3.06887 0
M  V30 33823 H 3282.75 1.10624 -4.66154 0
M  V30 33824 H 3281.11 0.681824 -2.45404 0
M  V30 33825 H 3281.89 -0.725706 -3.35542 0
M  V30 33826 N 3284.34 1.57005 0.136853 0
M  V30 33827 C 3285.62 1.74836 0.87702 0
M  V30 33828 C 3286 0.707674 1.98885 0
M  V30 33829 O 3285.34 -0.271612 2.2688 0
M  V30 33830 C 3285.55 3.19242 1.41015 0
M  V30 33831 C 3286.9 3.81225 1.86956 0
M  V30 33832 O 3287.93 3.22734 1.50735 0
M  V30 33833 O 3286.78 4.83997 2.53789 0
M  V30 33834 H 3283.88 0.715231 0.41518 0
M  V30 33835 H 3286.42 1.69261 0.121986 0
M  V30 33836 H 3285.2 3.86491 0.61161 0
M  V30 33837 H 3284.82 3.29284 2.2284 0
M  V30 33838 N 3285.82 -0.406513 1.52267 0
M  V30 33839 C 3286.78 -1.47811 1.7517 0
M  V30 33840 C 3287.78 -1.483 0.621601 0
M  V30 33841 O 3288.97 -1.49778 0.889502 0
M  V30 33842 C 3286.1 -2.87205 1.83647 0
M  V30 33843 H 3287.29 -1.28794 2.70836 0
M  V30 33844 H 3284.85 -0.637171 1.42723 0
M  V30 33845 H 3285.58 -3.11589 0.899048 0
M  V30 33846 H 3285.37 -2.88253 2.65806 0
M  V30 33847 H 3286.86 -3.64884 2.031 0
M  V30 33848 N 3287.29 -1.42934 -0.663904 0
M  V30 33849 C 3288.2 -1.49687 -1.80641 0
M  V30 33850 C 3289.22 -0.38475 -1.69693 0
M  V30 33851 O 3290.4 -0.63729 -1.91051 0
M  V30 33852 C 3287.46 -1.40726 -3.16855 0
M  V30 33853 C 3286.52 -2.6252 -3.39679 0
M  V30 33854 C 3285.76 -2.53977 -4.69395 0
M  V30 33855 O 3285.98 -1.58161 -5.48034 0
M  V30 33856 O 3284.91 -3.44297 -4.93703 0
M  V30 33857 H 3288.74 -2.46141 -1.77899 0
M  V30 33858 H 3286.32 -1.24817 -0.821037 0
M  V30 33859 H 3288.21 -1.38131 -3.98118 0
M  V30 33860 H 3286.88 -0.47401 -3.20211 0
M  V30 33861 H 3285.79 -2.70688 -2.58222 0
M  V30 33862 H 3287.12 -3.5478 -3.41162 0
M  V30 33863 N 3288.77 0.901258 -1.29287 0
M  V30 33864 C 3289.7 2.02168 -1.16835 0
M  V30 33865 C 3290.68 1.69983 -0.0629564 0
M  V30 33866 O 3291.87 1.92684 -0.242157 0
M  V30 33867 C 3289 3.36927 -0.842465 0
M  V30 33868 C 3287.95 3.83316 -1.90401 0
M  V30 33869 C 3287.28 5.15183 -1.43147 0
M  V30 33870 C 3288.58 4.03811 -3.31261 0
M  V30 33871 H 3290.27 2.12843 -2.10566 0
M  V30 33872 H 3287.82 1.02268 -1.01377 0
M  V30 33873 H 3289.77 4.14815 -0.742072 0
M  V30 33874 H 3288.5 3.26339 0.13054 0
M  V30 33875 H 3287.15 3.07644 -1.99376 0
M  V30 33876 H 3286.8 5.01008 -0.447179 0
M  V30 33877 H 3286.5 5.47191 -2.14139 0
M  V30 33878 H 3288.03 5.95613 -1.34454 0
M  V30 33879 H 3289.44 4.72185 -3.25137 0
M  V30 33880 H 3287.84 4.47171 -4.00197 0
M  V30 33881 H 3288.91 3.08199 -3.74355 0
M  V30 33882 N 3290.25 1.11738 1.11141 0
M  V30 33883 C 3291.5 0.862907 1.8231 0
M  V30 33884 C 3291.81 -0.613294 1.85737 0
M  V30 33885 O 3293.02 -0.984124 2.53036 0
M  V30 33886 C 3291.47 1.49402 3.27425 0
M  V30 33887 C 3291.08 3.00448 3.32317 0
M  V30 33888 C 3292.83 1.31951 4.03471 0
M  V30 33889 C 3290.73 3.56529 4.71848 0
M  V30 33890 H 3289.66 0.319162 0.683119 0
M  V30 33891 H 3292.31 1.343 1.25043 0
M  V30 33892 H 3290.7 0.941595 3.84643 0
M  V30 33893 H 3291.87 3.62122 2.84964 0
M  V30 33894 H 3290.19 3.17211 2.69753 0
M  V30 33895 H 3292.78 1.7128 5.06525 0
M  V30 33896 H 3293.13 0.262412 4.15472 0
M  V30 33897 H 3293.66 1.84075 3.52649 0
M  V30 33898 H 3290.4 4.61966 4.65046 0
M  V30 33899 H 3289.92 2.99628 5.19599 0
M  V30 33900 H 3291.6 3.55154 5.40809 0
M  V30 33901 N 3291.73 -1.28802 0.90817 0
M  V30 33902 C 3292.64 -2.31213 0.397208 0
M  V30 33903 C 3293.65 -1.66287 -0.512322 0
M  V30 33904 O 3294.83 -1.97391 -0.399859 0
M  V30 33905 C 3291.9 -3.44832 -0.359462 0
M  V30 33906 C 3290.96 -4.25328 0.582613 0
M  V30 33907 C 3290.19 -5.33521 -0.13804 0
M  V30 33908 O 3290.41 -5.53933 -1.36066 0
M  V30 33909 O 3289.35 -5.99617 0.523787 0
M  V30 33910 H 3293.17 -2.76916 1.24705 0
M  V30 33911 H 3290.76 -1.33394 0.67279 0
M  V30 33912 H 3292.64 -4.13985 -0.787025 0
M  V30 33913 H 3291.31 -3.01221 -1.18523 0
M  V30 33914 H 3290.22 -3.58784 1.05946 0
M  V30 33915 H 3291.55 -4.72603 1.37503 0
M  V30 33916 N 3293.21 -0.67155 -1.42576 0
M  V30 33917 C 3294.17 -0.000432769 -2.292 0
M  V30 33918 C 3295.17 0.732268 -1.43159 0
M  V30 33919 O 3296.36 0.57076 -1.64584 0
M  V30 33920 C 3293.49 1.01007 -3.25592 0
M  V30 33921 H 3294.68 -0.762834 -2.90036 0
M  V30 33922 H 3292.24 -0.433729 -1.50162 0
M  V30 33923 H 3292.97 1.80107 -2.69688 0
M  V30 33924 H 3292.76 0.488115 -3.8905 0
M  V30 33925 H 3294.25 1.47817 -3.90563 0
M  V30 33926 N 3294.68 1.52047 -0.414663 0
M  V30 33927 C 3295.63 2.28726 0.422725 0
M  V30 33928 C 3296.63 1.33642 1.04097 0
M  V30 33929 O 3297.83 1.51079 0.978532 0
M  V30 33930 H 3294.21 0.735829 0.15511 0
M  V30 33931 H 3296.18 2.97391 -0.245143 0
M  V30 33932 C 3294.93 3.12515 1.52412 0
M  V30 33933 H 3294.25 3.85554 1.05774 0
M  V30 33934 H 3295.69 3.69264 2.08375 0
M  V30 33935 C 3294.15 2.26431 2.49461 0
M  V30 33936 O 3294.68 1.90835 3.53476 0
M  V30 33937 N 3292.89 1.90092 2.19803 0
M  V30 33938 H 3292.43 2.19239 1.35249 0
M  V30 33939 H 3292.39 1.32788 2.84982 0
M  V30 33940 N 3296.16 0.145261 1.56929 0
M  V30 33941 C 3297.09 -0.791224 2.19686 0
M  V30 33942 C 3298.07 -1.25831 1.14457 0
M  V30 33943 O 3299.26 -1.31619 1.42794 0
M  V30 33944 C 3296.39 -2.03119 2.81709 0
M  V30 33945 C 3295.34 -1.70094 3.92749 0
M  V30 33946 C 3294.67 -3.0134 4.417 0
M  V30 33947 C 3295.97 -0.948935 5.13607 0
M  V30 33948 H 3297.66 -0.268197 2.98196 0
M  V30 33949 H 3295.21 -0.127558 1.43434 0
M  V30 33950 H 3297.16 -2.69113 3.24278 0
M  V30 33951 H 3295.89 -2.57791 2.00527 0
M  V30 33952 H 3294.54 -1.06479 3.50796 0
M  V30 33953 H 3294.19 -3.53999 3.57342 0
M  V30 33954 H 3293.89 -2.80006 5.16595 0
M  V30 33955 H 3295.42 -3.68407 4.86938 0
M  V30 33956 H 3296.83 -1.51092 5.53032 0
M  V30 33957 H 3295.23 -0.835607 5.94254 0
M  V30 33958 H 3296.3 0.0596483 4.84863 0
M  V30 33959 N 3297.64 -1.57075 -0.128525 0
M  V30 33960 C 3298.57 -2.02677 -1.15949 0
M  V30 33961 C 3299.55 -0.909527 -1.43742 0
M  V30 33962 O 3300.74 -1.1786 -1.54346 0
M  V30 33963 C 3297.87 -2.42304 -2.48809 0
M  V30 33964 C 3296.82 -3.57385 -2.35499 0
M  V30 33965 C 3296.15 -3.82882 -3.73236 0
M  V30 33966 C 3297.45 -4.89434 -1.8235 0
M  V30 33967 H 3299.14 -2.89055 -0.780232 0
M  V30 33968 H 3296.69 -1.39062 -0.373872 0
M  V30 33969 H 3298.64 -2.7281 -3.21174 0
M  V30 33970 H 3297.36 -1.52886 -2.88606 0
M  V30 33971 H 3296.02 -3.27074 -1.65584 0
M  V30 33972 H 3295.67 -2.90684 -4.10502 0
M  V30 33973 H 3295.37 -4.60339 -3.65187 0
M  V30 33974 H 3296.9 -4.15831 -4.47121 0
M  V30 33975 H 3298.31 -5.18537 -2.44524 0
M  V30 33976 H 3296.71 -5.70825 -1.85146 0
M  V30 33977 H 3297.78 -4.78579 -0.780394 0
M  V30 33978 N 3299.12 0.398432 -1.5248 0
M  V30 33979 C 3300.37 1.14274 -1.68264 0
M  V30 33980 C 3300.72 1.8792 -0.412755 0
M  V30 33981 O 3300.01 1.82185 0.593225 0
M  V30 33982 C 3300.21 2.15606 -2.85042 0
M  V30 33983 C 3300.04 1.51912 -4.23265 0
M  V30 33984 C 3298.81 1.28724 -4.88629 0
M  V30 33985 C 3301 0.97426 -5.04988 0
M  V30 33986 N 3298.99 0.610348 -6.10858 0
M  V30 33987 C 3300.36 0.424899 -6.18542 0
M  V30 33988 C 3302.41 0.869757 -4.90244 0
M  V30 33989 C 3301.12 -0.218735 -7.18967 0
M  V30 33990 C 3303.14 0.239959 -5.90913 0
M  V30 33991 C 3302.5 -0.298676 -7.03767 0
M  V30 33992 H 3298.6 0.404457 -0.669282 0
M  V30 33993 H 3301.19 0.433602 -1.8981 0
M  V30 33994 H 3299.36 2.83867 -2.65092 0
M  V30 33995 H 3301.09 2.82476 -2.89809 0
M  V30 33996 H 3297.84 1.55967 -4.47181 0
M  V30 33997 H 3298.27 0.288219 -6.76386 0
M  V30 33998 H 3302.91 1.272 -4.03212 0
M  V30 33999 H 3300.63 -0.633015 -8.05617 0
M  V30 34000 H 3304.21 0.160474 -5.81579 0
M  V30 34001 H 3303.09 -0.778322 -7.80328 0
M  V30 34002 N 3300.6 1.43284 0.656314 0
M  V30 34003 C 3302.01 1.26616 0.971623 0
M  V30 34004 C 3302.21 0.183647 2.00661 0
M  V30 34005 O 3301.27 -0.43896 2.48655 0
M  V30 34006 C 3302.58 2.62942 1.45883 0
M  V30 34007 C 3304.13 2.70449 1.57564 0
M  V30 34008 C 3304.61 4.07185 2.09677 0
M  V30 34009 N 3306.1 4.09234 2.16984 0
M  V30 34010 C 3306.83 5.11865 2.58421 0
M  V30 34011 N 3306.33 6.24872 2.99177 0
M  V30 34012 N 3308.12 4.9922 2.58334 0
M  V30 34013 H 3300.27 2.12381 -0.0286104 0
M  V30 34014 H 3302.53 0.946692 0.0497751 0
M  V30 34015 H 3302.24 3.43105 0.772762 0
M  V30 34016 H 3302.11 2.88126 2.4344 0
M  V30 34017 H 3304.5 1.9062 2.25273 0
M  V30 34018 H 3304.58 2.49033 0.584485 0
M  V30 34019 H 3304.23 4.87479 1.42571 0
M  V30 34020 H 3304.16 4.25963 3.09618 0
M  V30 34021 H 3306.65 3.27661 1.88272 0
M  V30 34022 H 3306.96 6.99018 3.29536 0
M  V30 34023 H 3305.31 6.28349 2.96989 0
M  V30 34024 H 3308.5 4.10002 2.25868 0
M  V30 34025 H 3308.67 5.79333 2.90305 0
M  V30 34026 N 3302.08 -0.894389 1.29763 0
M  V30 34027 C 3303.01 -2.00443 1.11154 0
M  V30 34028 C 3304.02 -1.62698 0.0574941 0
M  V30 34029 O 3305.21 -1.75917 0.302559 0
M  V30 34030 C 3302.31 -3.3219 0.671042 0
M  V30 34031 C 3301.48 -3.9843 1.80478 0
M  V30 34032 C 3300.54 -5.08471 1.3544 0
M  V30 34033 O 3299.57 -5.30614 2.06003 0
M  V30 34034 N 3300.77 -5.80051 0.228212 0
M  V30 34035 H 3303.53 -2.1696 2.06757 0
M  V30 34036 H 3301.1 -1.0669 1.21774 0
M  V30 34037 H 3303.09 -4.03158 0.352948 0
M  V30 34038 H 3301.66 -3.12006 -0.19268 0
M  V30 34039 H 3300.88 -3.20757 2.29148 0
M  V30 34040 H 3302.17 -4.39427 2.56479 0
M  V30 34041 H 3301.56 -5.64554 -0.359977 0
M  V30 34042 H 3300.12 -6.51793 -0.0304839 0
M  V30 34043 N 3303.55 -1.12326 -1.10547 0
M  V30 34044 C 3304.46 -0.803071 -2.20427 0
M  V30 34045 C 3305.48 0.207644 -1.72757 0
M  V30 34046 O 3306.66 0.0415269 -2.01357 0
M  V30 34047 C 3303.72 -0.261093 -3.45715 0
M  V30 34048 C 3302.78 -1.33159 -4.08126 0
M  V30 34049 C 3302.01 -0.81538 -5.27435 0
M  V30 34050 O 3302.24 0.351261 -5.69317 0
M  V30 34051 O 3301.17 -1.58444 -5.80671 0
M  V30 34052 H 3305 -1.72078 -2.50246 0
M  V30 34053 H 3302.58 -0.899836 -1.19261 0
M  V30 34054 H 3304.46 0.0363266 -4.21384 0
M  V30 34055 H 3303.14 0.629193 -3.17526 0
M  V30 34056 H 3302.05 -1.68216 -3.34147 0
M  V30 34057 H 3303.38 -2.1956 -4.40516 0
M  V30 34058 N 3305.03 1.28319 -0.914988 0
M  V30 34059 C 3305.96 2.25519 -0.348768 0
M  V30 34060 C 3306.94 1.53098 0.54771 0
M  V30 34061 O 3308.13 1.81991 0.491087 0
M  V30 34062 C 3305.25 3.34969 0.501338 0
M  V30 34063 C 3304.3 4.25222 -0.329934 0
M  V30 34064 S 3305.13 5.0653 -1.73746 0
M  V30 34065 C 3306.29 6.19472 -0.894689 0
M  V30 34066 H 3306.52 2.73198 -1.17261 0
M  V30 34067 H 3304.05 1.36778 -0.716321 0
M  V30 34068 H 3306.01 3.98483 0.985991 0
M  V30 34069 H 3304.67 2.85954 1.29957 0
M  V30 34070 H 3303.87 5.02982 0.320148 0
M  V30 34071 H 3303.47 3.66438 -0.748285 0
M  V30 34072 H 3305.76 6.77385 -0.124895 0
M  V30 34073 H 3306.7 6.8873 -1.64488 0
M  V30 34074 H 3307.11 5.62764 -0.442316 0
M  V30 34075 N 3306.51 0.679102 1.42218 0
M  V30 34076 C 3307.76 0.202753 2.0108 0
M  V30 34077 C 3308.08 -1.19636 1.53988 0
M  V30 34078 O 3307.35 -1.80414 0.763391 0
M  V30 34079 H 3305.93 0.0719678 0.743525 0
M  V30 34080 H 3308.59 0.876574 1.74075 0
M  V30 34081 H 3307.69 0.207369 3.1141 0
M  V30 34082 N 3307.99 -1.51825 0.42272 0
M  V30 34083 C 3309.24 -2.01555 -0.148312 0
M  V30 34084 C 3309.56 -1.30959 -1.44481 0
M  V30 34085 O 3308.83 -0.439633 -1.90903 0
M  V30 34086 H 3307.41 -0.744761 -0.0577985 0
M  V30 34087 H 3310.07 -1.86619 0.562079 0
M  V30 34088 H 3309.16 -3.103 -0.334711 0
M  V30 34089 N 3309.47 -0.153581 -1.5685 0
M  V30 34090 C 3310.41 0.800628 -2.18387 0
M  V30 34091 C 3311.41 1.25051 -1.14275 0
M  V30 34092 O 3312.61 1.21822 -1.32511 0
M  V30 34093 H 3308.99 0.276413 -0.699357 0
M  V30 34094 H 3310.96 0.257483 -2.97287 0
M  V30 34095 C 3309.71 2.02703 -2.82501 0
M  V30 34096 H 3309.03 1.68986 -3.62331 0
M  V30 34097 H 3310.47 2.67397 -3.29051 0
M  V30 34098 C 3308.93 2.83927 -1.81348 0
M  V30 34099 O 3309.46 3.80491 -1.288 0
M  V30 34100 N 3307.67 2.4859 -1.50503 0
M  V30 34101 H 3307.21 1.70128 -1.93428 0
M  V30 34102 H 3307.17 3.03226 -0.830726 0
M  V30 34103 N 3310.94 1.57141 0.120193 0
M  V30 34104 C 3312.19 1.83977 0.826758 0
M  V30 34105 C 3312.51 0.739046 1.81101 0
M  V30 34106 O 3313.71 0.893781 2.56367 0
M  V30 34107 C 3312.17 3.26179 1.52102 0
M  V30 34108 C 3311.78 4.44258 0.577824 0
M  V30 34109 C 3313.52 3.62265 2.21279 0
M  V30 34110 C 3311.43 5.77487 1.27525 0
M  V30 34111 H 3310.36 0.686194 0.312496 0
M  V30 34112 H 3313.01 1.83328 0.0795021 0
M  V30 34113 H 3311.39 3.21294 2.31486 0
M  V30 34114 H 3312.56 4.60438 -0.18271 0
M  V30 34115 H 3310.88 4.16399 -0.00691667 0
M  V30 34116 H 3313.48 4.59073 2.74146 0
M  V30 34117 H 3313.82 2.89639 2.99023 0
M  V30 34118 H 3314.35 3.68928 1.48785 0
M  V30 34119 H 3311.09 6.53279 0.539122 0
M  V30 34120 H 3310.61 5.65196 2.00782 0
M  V30 34121 H 3312.29 6.21202 1.80877 0
M  V30 34122 N 3312.42 -0.39034 1.5269 0
M  V30 34123 C 3313.65 -1.15675 1.71543 0
M  V30 34124 C 3314.07 -1.83763 0.433204 0
M  V30 34125 O 3313.42 -1.72624 -0.592218 0
M  V30 34126 C 3313.47 -2.20579 2.86404 0
M  V30 34127 O 3313.19 -1.55267 4.09663 0
M  V30 34128 C 3314.7 -3.09957 3.16925 0
M  V30 34129 H 3311.92 -0.346873 0.574387 0
M  V30 34130 H 3314.46 -0.456816 1.99332 0
M  V30 34131 H 3312.61 -2.8621 2.6108 0
M  V30 34132 H 3313.03 -2.24962 4.73806 0
M  V30 34133 H 3314.5 -3.79597 4.00762 0
M  V30 34134 H 3314.98 -3.73389 2.31252 0
M  V30 34135 H 3315.59 -2.49973 3.44084 0
M  V30 34136 N 3313.9 -1.4363 -0.648706 0
M  V30 34137 C 3315.32 -1.2713 -0.964894 0
M  V30 34138 C 3315.52 -0.194286 -2.00561 0
M  V30 34139 O 3314.57 0.425767 -2.48884 0
M  V30 34140 C 3315.89 -2.63712 -1.44487 0
M  V30 34141 C 3317.43 -2.7128 -1.56128 0
M  V30 34142 C 3317.91 -4.08291 -2.07514 0
M  V30 34143 N 3319.4 -4.10379 -2.1481 0
M  V30 34144 C 3320.13 -5.13229 -2.55703 0
M  V30 34145 N 3319.63 -6.2645 -2.95859 0
M  V30 34146 N 3321.42 -5.00583 -2.55682 0
M  V30 34147 H 3313.57 -2.12363 0.039873 0
M  V30 34148 H 3315.84 -0.946943 -0.0447539 0
M  V30 34149 H 3315.54 -3.4351 -0.754556 0
M  V30 34150 H 3315.42 -2.89413 -2.41908 0
M  V30 34151 H 3317.8 -1.91812 -2.24259 0
M  V30 34152 H 3317.89 -2.49339 -0.57127 0
M  V30 34153 H 3317.53 -4.88229 -1.39983 0
M  V30 34154 H 3317.46 -4.27599 -3.07354 0
M  V30 34155 H 3319.95 -3.28655 -1.86532 0
M  V30 34156 H 3320.26 -7.00755 -3.25825 0
M  V30 34157 H 3318.61 -6.29915 -2.93653 0
M  V30 34158 H 3321.8 -4.11194 -2.2369 0
M  V30 34159 H 3321.97 -5.80864 -2.87229 0
M  V30 34160 N 3315.38 0.887495 -1.30236 0
M  V30 34161 C 3316.62 1.64151 -1.19089 0
M  V30 34162 C 3316.96 1.92527 0.254394 0
M  V30 34163 O 3316.23 1.5444 1.1823 0
M  V30 34164 C 3316.52 2.98292 -2.01728 0
M  V30 34165 C 3316.37 2.76905 -3.54463 0
M  V30 34166 C 3317.69 3.99183 -1.85314 0
M  V30 34167 H 3314.81 0.595678 -0.433977 0
M  V30 34168 H 3317.45 1.02717 -1.59841 0
M  V30 34169 H 3315.6 3.50727 -1.67102 0
M  V30 34170 H 3317.27 2.31277 -3.99135 0
M  V30 34171 H 3315.51 2.11457 -3.78772 0
M  V30 34172 H 3316.18 3.72276 -4.07571 0
M  V30 34173 H 3318.66 3.55899 -2.15581 0
M  V30 34174 H 3317.54 4.90956 -2.45465 0
M  V30 34175 H 3317.8 4.34586 -0.811604 0
M  V30 34176 N 3316.86 1.12911 1.0995 0
M  V30 34177 C 3317.77 0.814749 2.19998 0
M  V30 34178 C 3318.78 -0.198479 1.72864 0
M  V30 34179 O 3319.96 -0.0308478 2.01376 0
M  V30 34180 C 3317.02 0.279424 3.45572 0
M  V30 34181 C 3316.08 1.35322 4.07414 0
M  V30 34182 C 3315.32 0.84334 5.26995 0
M  V30 34183 O 3315.54 -0.321064 5.69496 0
M  V30 34184 O 3314.47 1.61522 5.79823 0
M  V30 34185 H 3318.3 1.73403 2.4933 0
M  V30 34186 H 3315.89 0.906149 1.18783 0
M  V30 34187 H 3317.77 -0.0139791 4.21398 0
M  V30 34188 H 3316.44 -0.612345 3.17855 0
M  V30 34189 H 3315.35 1.69986 3.3325 0
M  V30 34190 H 3316.68 2.21893 4.39345 0
M  V30 34191 N 3318.33 -1.27832 0.92178 0
M  V30 34192 C 3319.56 -1.9928 0.574635 0
M  V30 34193 C 3319.98 -1.68358 -0.838875 0
M  V30 34194 O 3319.34 -0.920495 -1.56194 0
M  V30 34195 C 3319.39 -3.51612 0.800088 0
M  V30 34196 O 3318.49 -4.12172 -0.137143 0
M  V30 34197 H 3317.84 -0.625825 0.221898 0
M  V30 34198 H 3320.37 -1.62787 1.23941 0
M  V30 34199 H 3320.38 -4.01716 0.71333 0
M  V30 34200 H 3319.05 -3.73452 1.83048 0
M  V30 34201 H 3317.63 -3.729 -0.000973171 0
M  V30 34202 N 3319.81 -0.686634 -1.41856 0
M  V30 34203 C 3320.72 -0.0159418 -2.34595 0
M  V30 34204 C 3321.74 0.775905 -1.55742 0
M  V30 34205 O 3322.91 0.715517 -1.88261 0
M  V30 34206 C 3319.98 0.915414 -3.34397 0
M  V30 34207 C 3319.04 0.116775 -4.29141 0
M  V30 34208 C 3318.27 1.00377 -5.24176 0
M  V30 34209 O 3318.5 2.24331 -5.24435 0
M  V30 34210 O 3317.43 0.458232 -6.00153 0
M  V30 34211 H 3321.26 -0.780153 -2.93509 0
M  V30 34212 H 3318.84 -0.446921 -1.42559 0
M  V30 34213 H 3320.72 1.44974 -3.95677 0
M  V30 34214 H 3319.4 1.65927 -2.77939 0
M  V30 34215 H 3318.31 -0.461936 -3.71237 0
M  V30 34216 H 3319.64 -0.588223 -4.88672 0
M  V30 34217 N 3321.29 1.51599 -0.430766 0
M  V30 34218 C 3322.24 2.29162 0.398442 0
M  V30 34219 C 3323.23 1.34739 1.02673 0
M  V30 34220 O 3324.44 1.52108 0.962453 0
M  V30 34221 H 3320.81 0.737433 0.147297 0
M  V30 34222 H 3322.78 2.97115 -0.276671 0
M  V30 34223 C 3321.53 3.14114 1.49089 0
M  V30 34224 H 3320.86 3.86654 1.01679 0
M  V30 34225 H 3322.3 3.71453 2.04447 0
M  V30 34226 C 3320.76 2.29064 2.47045 0
M  V30 34227 O 3321.29 1.94573 3.51432 0
M  V30 34228 N 3319.49 1.92413 2.17774 0
M  V30 34229 H 3319.04 2.20661 1.32916 0
M  V30 34230 H 3319 1.35803 2.83557 0
M  V30 34231 N 3322.77 0.161897 1.56766 0
M  V30 34232 C 3323.72 -0.772064 2.17504 0
M  V30 34233 C 3324.69 -1.23362 1.11225 0
M  V30 34234 O 3325.87 -1.30348 1.39334 0
M  V30 34235 C 3323.01 -1.99979 2.81252 0
M  V30 34236 C 3322.12 -1.58267 4.01965 0
M  V30 34237 C 3321.26 -2.76333 4.53667 0
M  V30 34238 C 3320.3 -2.31066 5.66811 0
M  V30 34239 N 3319.43 -3.42193 6.13065 0
M  V30 34240 H 3324.27 -0.247329 2.96972 0
M  V30 34241 H 3321.81 -0.110357 1.46685 0
M  V30 34242 H 3323.77 -2.71974 3.16364 0
M  V30 34243 H 3322.4 -2.49839 2.04403 0
M  V30 34244 H 3321.45 -0.759809 3.72735 0
M  V30 34245 H 3322.76 -1.21032 4.83893 0
M  V30 34246 H 3321.92 -3.56498 4.90911 0
M  V30 34247 H 3320.66 -3.16822 3.70776 0
M  V30 34248 H 3319.66 -1.49345 5.29128 0
M  V30 34249 H 3320.89 -1.91646 6.51497 0
M  V30 34250 H 3318.83 -3.82275 5.33106 0
M  V30 34251 H 3318.75 -3.09021 6.89958 0
M  V30 34252 H 3320.02 -4.2267 6.54958 0
M  V30 34253 N 3324.25 -1.57203 -0.111858 0
M  V30 34254 C 3325.49 -1.85501 -0.819591 0
M  V30 34255 C 3325.83 -0.748661 -1.79189 0
M  V30 34256 O 3325.1 0.244884 -1.92952 0
M  V30 34257 C 3325.38 -3.24402 -1.56318 0
M  V30 34258 C 3325.24 -4.45644 -0.610003 0
M  V30 34259 C 3326.56 -3.6097 -2.51771 0
M  V30 34260 H 3323.67 -0.674727 -0.2965 0
M  V30 34261 H 3326.32 -1.89816 -0.0836407 0
M  V30 34262 H 3324.47 -3.20854 -2.19054 0
M  V30 34263 H 3326.14 -4.61299 0.00906146 0
M  V30 34264 H 3324.38 -4.3373 0.0779251 0
M  V30 34265 H 3325.05 -5.39521 -1.16708 0
M  V30 34266 H 3327.53 -3.65354 -1.99137 0
M  V30 34267 H 3326.4 -4.59124 -3.00827 0
M  V30 34268 H 3326.67 -2.88766 -3.34764 0
M  V30 34269 N 3325.72 0.382237 -1.52894 0
M  V30 34270 C 3326.97 1.12827 -1.68517 0
M  V30 34271 C 3327.3 1.89442 -0.427245 0
M  V30 34272 O 3326.58 1.85802 0.575127 0
M  V30 34273 C 3326.86 2.10103 -2.92453 0
M  V30 34274 C 3326.71 1.37207 -4.28362 0
M  V30 34275 C 3328.03 3.10444 -3.1195 0
M  V30 34276 H 3325.15 0.4088 -0.613231 0
M  V30 34277 H 3327.79 0.410889 -1.85504 0
M  V30 34278 H 3325.94 2.71278 -2.78101 0
M  V30 34279 H 3327.62 0.789436 -4.54495 0
M  V30 34280 H 3325.86 0.673898 -4.28534 0
M  V30 34281 H 3326.53 2.08321 -5.11181 0
M  V30 34282 H 3329.01 2.59363 -3.25377 0
M  V30 34283 H 3327.88 3.75747 -4.00132 0
M  V30 34284 H 3328.14 3.79688 -2.26471 0
M  V30 34285 N 3327.2 1.43972 0.64108 0
M  V30 34286 C 3328.45 1.45514 1.39674 0
M  V30 34287 C 3328.77 0.0877427 1.95403 0
M  V30 34288 O 3329.97 -0.0193488 2.71493 0
M  V30 34289 C 3328.43 2.5613 2.52835 0
M  V30 34290 C 3328.04 3.99032 2.03661 0
M  V30 34291 C 3329.78 2.66881 3.30113 0
M  V30 34292 C 3327.69 5.01091 3.14105 0
M  V30 34293 H 3326.62 0.541345 0.524844 0
M  V30 34294 H 3329.27 1.70004 0.69072 0
M  V30 34295 H 3327.65 2.24863 3.25964 0
M  V30 34296 H 3328.82 4.39819 1.37462 0
M  V30 34297 H 3327.14 3.92435 1.39226 0
M  V30 34298 H 3329.74 3.40304 4.12428 0
M  V30 34299 H 3330.08 1.72359 3.78943 0
M  V30 34300 H 3330.61 2.97509 2.6407 0
M  V30 34301 H 3327.35 5.97207 2.7023 0
M  V30 34302 H 3326.87 4.64905 3.78977 0
M  V30 34303 H 3328.55 5.24344 3.79042 0
M  V30 34304 N 3328.68 -0.880575 1.30704 0
M  V30 34305 C 3329.61 -2.00283 1.20037 0
M  V30 34306 C 3330.59 -1.69862 0.0899913 0
M  V30 34307 O 3331.78 -1.92275 0.27278 0
M  V30 34308 C 3328.91 -3.35544 0.89596 0
M  V30 34309 C 3327.86 -3.80239 1.96475 0
M  V30 34310 C 3327.19 -5.1284 1.51325 0
M  V30 34311 C 3328.49 -3.9849 3.37644 0
M  V30 34312 H 3330.18 -2.09466 2.13926 0
M  V30 34313 H 3327.73 -1.00642 1.02991 0
M  V30 34314 H 3329.68 -4.13582 0.807971 0
M  V30 34315 H 3328.4 -3.26505 -0.0786062 0
M  V30 34316 H 3327.06 -3.04433 2.04245 0
M  V30 34317 H 3326.71 -5.00233 0.526828 0
M  V30 34318 H 3326.41 -5.43715 2.22817 0
M  V30 34319 H 3327.94 -5.93398 1.43913 0
M  V30 34320 H 3329.35 -4.66953 3.32608 0
M  V30 34321 H 3327.75 -4.40748 4.07261 0
M  V30 34322 H 3328.82 -3.02204 3.7921 0
M  V30 34323 N 3330.16 -1.13492 -1.09349 0
M  V30 34324 C 3331.44 -0.808256 -1.7812 0
M  V30 34325 C 3331.82 0.700037 -1.99155 0
M  V30 34326 O 3331.16 1.63759 -1.59359 0
M  V30 34327 C 3331.37 -1.59607 -3.10365 0
M  V30 34328 C 3332.72 -1.78925 -3.8506 0
M  V30 34329 O 3333.75 -1.56212 -3.20119 0
M  V30 34330 O 3332.61 -2.1683 -5.01644 0
M  V30 34331 H 3329.7 -0.295186 -0.772524 0
M  V30 34332 H 3332.25 -1.23958 -1.15899 0
M  V30 34333 H 3331.02 -2.62106 -2.90544 0
M  V30 34334 H 3330.64 -1.15973 -3.8031 0
M  V30 34335 N 3331.64 1.27341 -0.928546 0
M  V30 34336 C 3332.86 1.98973 -0.585195 0
M  V30 34337 C 3333.29 1.68801 0.829935 0
M  V30 34338 O 3332.65 0.928765 1.55704 0
M  V30 34339 C 3332.69 3.51183 -0.818724 0
M  V30 34340 O 3331.8 4.12239 0.115283 0
M  V30 34341 H 3331.14 0.62464 -0.225214 0
M  V30 34342 H 3333.67 1.62128 -1.24803 0
M  V30 34343 H 3333.68 4.01332 -0.734624 0
M  V30 34344 H 3332.35 3.72476 -1.85026 0
M  V30 34345 H 3330.93 3.72895 -0.0188026 0
M  V30 34346 N 3333.12 0.694147 1.4149 0
M  V30 34347 C 3334.36 0.224512 2.01252 0
M  V30 34348 C 3334.69 -1.17539 1.54968 0
M  V30 34349 O 3333.95 -1.80714 0.751073 0
M  V30 34350 C 3334.24 0.228932 3.56666 0
M  V30 34351 C 3333.91 1.57615 4.22455 0
M  V30 34352 C 3332.57 1.94499 4.40141 0
M  V30 34353 C 3334.92 2.46255 4.59356 0
M  V30 34354 C 3332.25 3.19609 4.92003 0
M  V30 34355 C 3334.6 3.70696 5.12608 0
M  V30 34356 C 3333.27 4.07724 5.28505 0
M  V30 34357 H 3332.54 0.0821548 0.736432 0
M  V30 34358 H 3335.19 0.892956 1.69406 0
M  V30 34359 H 3333.49 -0.523059 3.88293 0
M  V30 34360 H 3335.19 -0.151948 4.00712 0
M  V30 34361 H 3331.78 1.27928 4.09063 0
M  V30 34362 H 3335.96 2.1904 4.45348 0
M  V30 34363 H 3331.22 3.48293 5.02495 0
M  V30 34364 H 3335.39 4.39567 5.40142 0
M  V30 34365 H 3333.02 5.0474 5.68455 0
M  V30 34366 N 3334.59 -1.51368 0.438799 0
M  V30 34367 C 3335.87 -1.94702 -0.187186 0
M  V30 34368 C 3336.25 -1.37754 -1.59959 0
M  V30 34369 O 3335.6 -0.56521 -2.21399 0
M  V30 34370 C 3335.81 -3.48617 -0.163429 0
M  V30 34371 C 3337.16 -4.23 -0.368281 0
M  V30 34372 O 3338.18 -3.55381 -0.241479 0
M  V30 34373 O 3337.04 -5.42962 -0.62082 0
M  V30 34374 H 3334.13 -0.816849 -0.12918 0
M  V30 34375 H 3336.68 -1.62263 0.496883 0
M  V30 34376 H 3335.45 -3.82527 0.823949 0
M  V30 34377 H 3335.07 -3.87503 -0.890346 0
M  V30 34378 N 3336.07 -0.170208 -1.56678 0
M  V30 34379 C 3337.48 0.34671 -1.83452 0
M  V30 34380 C 3337.83 1.63139 -1.08996 0
M  V30 34381 O 3336.96 2.1367 -0.342644 0
M  V30 34382 C 3337.55 0.635824 -3.3278 0
M  V30 34383 C 3336.11 1.09718 -3.60054 0
M  V30 34384 C 3335.26 0.132468 -2.76983 0
M  V30 34385 H 3338.21 -0.394492 -1.53719 0
M  V30 34386 H 3338.23 1.488 -3.50198 0
M  V30 34387 H 3337.74 -0.299359 -3.86944 0
M  V30 34388 H 3335.84 2.04751 -3.113 0
M  V30 34389 H 3335.96 1.00711 -4.68395 0
M  V30 34390 H 3334.32 0.629616 -2.46795 0
M  V30 34391 H 3335.1 -0.796716 -3.33927 0
M  V30 34392 N 3337.55 1.5726 0.10352 0
M  V30 34393 C 3338.48 2.04496 1.1271 0
M  V30 34394 C 3339.46 0.93228 1.42276 0
M  V30 34395 O 3340.65 1.20301 1.52451 0
M  V30 34396 C 3337.78 2.46232 2.44923 0
M  V30 34397 C 3336.73 3.61086 2.29784 0
M  V30 34398 C 3336.06 3.88771 3.67098 0
M  V30 34399 C 3337.36 4.92273 1.74541 0
M  V30 34400 H 3339.05 2.9026 0.734147 0
M  V30 34401 H 3336.6 1.39639 0.351701 0
M  V30 34402 H 3338.55 2.77885 3.16793 0
M  V30 34403 H 3337.27 1.57458 2.86137 0
M  V30 34404 H 3335.93 3.29667 1.6036 0
M  V30 34405 H 3335.58 2.97178 4.05825 0
M  V30 34406 H 3335.28 4.66091 3.57817 0
M  V30 34407 H 3336.8 4.22891 4.40449 0
M  V30 34408 H 3338.22 5.22362 2.36244 0
M  V30 34409 H 3336.61 5.73698 1.76041 0
M  V30 34410 H 3337.68 4.7976 0.704158 0
M  V30 34411 N 3339.03 -0.374123 1.53095 0
M  V30 34412 C 3340.27 -1.11931 1.69113 0
M  V30 34413 C 3340.61 -1.89213 0.437285 0
M  V30 34414 O 3339.88 -1.86105 -0.565265 0
M  V30 34415 C 3340.16 -2.08549 2.93563 0
M  V30 34416 C 3340.02 -1.34933 4.29084 0
M  V30 34417 C 3341.34 -3.08785 3.13591 0
M  V30 34418 H 3338.46 -0.405542 0.61539 0
M  V30 34419 H 3341.1 -0.401045 1.85719 0
M  V30 34420 H 3339.25 -2.698 2.79536 0
M  V30 34421 H 3340.92 -0.765322 4.54907 0
M  V30 34422 H 3339.16 -0.651162 4.28885 0
M  V30 34423 H 3339.83 -2.05607 5.12279 0
M  V30 34424 H 3342.31 -2.57634 3.26748 0
M  V30 34425 H 3341.19 -3.73619 4.02119 0
M  V30 34426 H 3341.45 -3.78482 2.28482 0
M  V30 34427 N 3340.51 -1.4431 -0.633436 0
M  V30 34428 C 3341.47 -1.50644 -1.7274 0
M  V30 34429 C 3342.47 -0.388746 -1.5603 0
M  V30 34430 O 3343.66 -0.651279 -1.61567 0
M  V30 34431 C 3340.79 -1.37814 -3.11801 0
M  V30 34432 H 3341.98 -2.48089 -1.68499 0
M  V30 34433 H 3339.54 -1.31368 -0.846889 0
M  V30 34434 H 3340.27 -0.414539 -3.2164 0
M  V30 34435 H 3340.06 -2.18858 -3.25336 0
M  V30 34436 H 3341.55 -1.45223 -3.91536 0
M  V30 34437 N 3341.98 0.873632 -1.3117 0
M  V30 34438 C 3342.89 2.01311 -1.20462 0
M  V30 34439 C 3343.91 1.73571 -0.122105 0
M  V30 34440 O 3345.09 1.98523 -0.33921 0
M  V30 34441 C 3342.15 3.34576 -0.908819 0
M  V30 34442 C 3341.21 3.75664 -2.07786 0
M  V30 34443 C 3340.45 5.0257 -1.79608 0
M  V30 34444 O 3340.67 5.65717 -0.729438 0
M  V30 34445 O 3339.6 5.40337 -2.65179 0
M  V30 34446 H 3343.43 2.13276 -2.16211 0
M  V30 34447 H 3341.01 1.00137 -1.10873 0
M  V30 34448 H 3342.9 4.14498 -0.759542 0
M  V30 34449 H 3341.57 3.23695 0.018668 0
M  V30 34450 H 3340.48 2.96398 -2.28252 0
M  V30 34451 H 3341.81 3.91166 -2.98747 0
M  V30 34452 N 3343.46 1.1407 1.08746 0
M  V30 34453 C 3344.37 0.838037 2.19121 0
M  V30 34454 C 3345.39 -0.180133 1.73065 0
M  V30 34455 O 3346.56 -0.00948744 2.01398 0
M  V30 34456 C 3343.63 0.31606 3.45256 0
M  V30 34457 C 3342.69 1.39635 4.05956 0
M  V30 34458 C 3341.92 0.899187 5.26071 0
M  V30 34459 O 3342.15 -0.260643 5.69804 0
M  V30 34460 O 3341.08 1.67662 5.78077 0
M  V30 34461 H 3344.91 1.76037 2.47476 0
M  V30 34462 H 3342.49 0.918696 1.17815 0
M  V30 34463 H 3344.37 0.0307166 4.21389 0
M  V30 34464 H 3343.05 -0.578598 3.18487 0
M  V30 34465 H 3341.96 1.73511 3.31428 0
M  V30 34466 H 3343.29 2.2654 4.36967 0
M  V30 34467 N 3344.94 -1.26847 0.935286 0
M  V30 34468 C 3346.22 -1.89159 0.49783 0
M  V30 34469 C 3346.6 -1.8458 -1.02437 0
M  V30 34470 O 3345.95 -1.29613 -1.88183 0
M  V30 34471 C 3346.16 -3.32751 1.0525 0
M  V30 34472 C 3347.5 -4.09628 1.11758 0
M  V30 34473 O 3348.53 -3.41797 1.00266 0
M  V30 34474 O 3347.39 -5.30921 1.29557 0
M  V30 34475 H 3344.48 -0.81111 0.161336 0
M  V30 34476 H 3347.03 -1.3506 1.02747 0
M  V30 34477 H 3345.8 -3.30415 2.09622 0
M  V30 34478 H 3345.42 -3.9438 0.504959 0
M  V30 34479 N 3346.42 -0.701641 -1.4112 0
M  V30 34480 C 3347.33 -0.0408228 -2.34564 0
M  V30 34481 C 3348.34 0.759343 -1.56557 0
M  V30 34482 O 3349.52 0.695509 -1.8901 0
M  V30 34483 C 3346.59 0.879895 -3.35349 0
M  V30 34484 C 3345.65 0.0712524 -4.29241 0
M  V30 34485 C 3344.88 0.948119 -5.25211 0
M  V30 34486 O 3345.1 2.18756 -5.26784 0
M  V30 34487 O 3344.04 0.394552 -6.00605 0
M  V30 34488 H 3347.86 -0.81124 -2.92665 0
M  V30 34489 H 3345.45 -0.462016 -1.42077 0
M  V30 34490 H 3347.33 1.40769 -3.97193 0
M  V30 34491 H 3346 1.6297 -2.79683 0
M  V30 34492 H 3344.91 -0.501285 -3.70726 0
M  V30 34493 H 3346.24 -0.640021 -4.88021 0
M  V30 34494 N 3347.9 1.51133 -0.446821 0
M  V30 34495 C 3349.31 1.59289 -0.0996185 0
M  V30 34496 C 3349.51 1.45701 1.39188 0
M  V30 34497 O 3348.57 1.30307 2.16278 0
M  V30 34498 C 3349.88 2.94065 -0.628186 0
M  V30 34499 C 3351.43 3.07399 -0.589463 0
M  V30 34500 C 3351.9 4.44714 -1.09516 0
M  V30 34501 N 3353.4 4.51059 -1.05355 0
M  V30 34502 C 3354.13 5.55651 -1.4156 0
M  V30 34503 N 3353.63 6.67616 -1.85097 0
M  V30 34504 N 3355.42 5.46061 -1.33317 0
M  V30 34505 H 3347.57 1.5821 -1.41716 0
M  V30 34506 H 3349.83 0.746314 -0.584568 0
M  V30 34507 H 3349.54 3.09408 -1.6721 0
M  V30 34508 H 3349.41 3.77155 -0.0583061 0
M  V30 34509 H 3351.8 2.91718 0.44549 0
M  V30 34510 H 3351.88 2.26126 -1.19586 0
M  V30 34511 H 3351.53 4.61142 -2.12863 0
M  V30 34512 H 3351.46 5.24541 -0.465214 0
M  V30 34513 H 3353.95 3.70704 -0.733942 0
M  V30 34514 H 3354.26 7.43455 -2.10936 0
M  V30 34515 H 3352.6 6.68799 -1.89032 0
M  V30 34516 H 3355.8 4.57476 -0.991627 0
M  V30 34517 H 3355.97 6.27459 -1.61861 0
M  V30 34518 N 3349.37 0.178515 1.56586 0
M  V30 34519 C 3350.28 -0.761282 2.21905 0
M  V30 34520 C 3351.3 -1.24758 1.21291 0
M  V30 34521 O 3352.48 -1.2982 1.53976 0
M  V30 34522 C 3349.54 -1.97043 2.85263 0
M  V30 34523 C 3348.6 -1.53032 4.01098 0
M  V30 34524 C 3347.84 -2.68183 4.61426 0
M  V30 34525 O 3348.06 -3.85239 4.20651 0
M  V30 34526 O 3346.99 -2.41846 5.51175 0
M  V30 34527 H 3350.82 -0.235088 3.02789 0
M  V30 34528 H 3348.4 -0.0500179 1.49316 0
M  V30 34529 H 3350.29 -2.67744 3.25409 0
M  V30 34530 H 3348.96 -2.48555 2.0737 0
M  V30 34531 H 3347.87 -0.792596 3.65607 0
M  V30 34532 H 3349.2 -1.06204 4.80605 0
M  V30 34533 N 3350.85 -1.57312 -0.0951784 0
M  V30 34534 C 3352.1 -1.85269 -0.797384 0
M  V30 34535 C 3352.41 -0.767764 -1.79902 0
M  V30 34536 O 3353.62 -0.934454 -2.54912 0
M  V30 34537 C 3352.08 -3.28558 -1.46894 0
M  V30 34538 C 3351.68 -4.45121 -0.507074 0
M  V30 34539 C 3353.43 -3.65739 -2.15488 0
M  V30 34540 C 3351.34 -5.79443 -1.18321 0
M  V30 34541 H 3350.27 -0.691079 -0.301539 0
M  V30 34542 H 3352.92 -1.83431 -0.0503261 0
M  V30 34543 H 3351.3 -3.24937 -2.26345 0
M  V30 34544 H 3352.47 -4.60089 0.255939 0
M  V30 34545 H 3350.79 -4.16336 0.0731613 0
M  V30 34546 H 3353.38 -4.63376 -2.66808 0
M  V30 34547 H 3353.73 -2.94359 -2.94378 0
M  V30 34548 H 3354.26 -3.71248 -1.42897 0
M  V30 34549 H 3351 -6.54054 -0.435123 0
M  V30 34550 H 3350.52 -5.68319 -1.91765 0
M  V30 34551 H 3352.2 -6.24001 -1.70972 0
M  V30 34552 N 3352.33 0.365999 -1.53291 0
M  V30 34553 C 3353.56 1.13378 -1.73667 0
M  V30 34554 C 3353.98 1.82279 -0.464316 0
M  V30 34555 O 3353.34 1.71718 0.581615 0
M  V30 34556 C 3353.39 2.14008 -2.90229 0
M  V30 34557 O 3352.49 3.21079 -2.58808 0
M  V30 34558 H 3351.83 0.32899 -0.576768 0
M  V30 34559 H 3354.36 0.423252 -2.00174 0
M  V30 34560 H 3354.37 2.57616 -3.16383 0
M  V30 34561 H 3353.05 1.6325 -3.82521 0
M  V30 34562 H 3351.62 2.82447 -2.43471 0
M  V30 34563 N 3353.81 1.44644 0.625774 0
M  V30 34564 C 3355.05 1.47927 1.38728 0
M  V30 34565 C 3355.39 0.113503 1.93868 0
M  V30 34566 O 3354.66 -0.869609 1.73977 0
M  V30 34567 C 3354.95 2.54395 2.54863 0
M  V30 34568 C 3354.8 4.0035 2.05037 0
M  V30 34569 C 3356.12 2.57316 3.57039 0
M  V30 34570 H 3353.24 0.538593 0.503077 0
M  V30 34571 H 3355.88 1.76353 0.707071 0
M  V30 34572 H 3354.03 2.30287 3.1289 0
M  V30 34573 H 3355.7 4.35608 1.51799 0
M  V30 34574 H 3353.94 4.11872 1.36177 0
M  V30 34575 H 3354.61 4.70502 2.88672 0
M  V30 34576 H 3357.09 2.78871 3.08821 0
M  V30 34577 H 3355.97 3.33705 4.35812 0
M  V30 34578 H 3356.23 1.61715 4.11462 0
M  V30 34579 N 3355.29 -0.866663 1.31631 0
M  V30 34580 C 3356.7 -1.4357 1.1935 0
M  V30 34581 C 3357.05 -1.95191 -0.198731 0
M  V30 34582 O 3356.17 -1.86551 -1.09671 0
M  V30 34583 C 3356.77 -2.60967 2.1606 0
M  V30 34584 C 3355.33 -3.13906 2.07702 0
M  V30 34585 C 3354.47 -1.86623 2.05102 0
M  V30 34586 H 3357.43 -0.674903 1.43634 0
M  V30 34587 H 3357.45 -3.37758 1.75213 0
M  V30 34588 H 3356.96 -2.23366 3.17379 0
M  V30 34589 H 3355.06 -3.56119 1.0959 0
M  V30 34590 H 3355.17 -3.75964 2.96964 0
M  V30 34591 H 3353.54 -2.05724 1.50165 0
M  V30 34592 H 3354.32 -1.51256 3.08183 0
M  V30 34593 N 3356.77 -1.14645 -1.0814 0
M  V30 34594 C 3357.73 -0.838627 -2.13307 0
M  V30 34595 C 3358.73 0.157984 -1.60022 0
M  V30 34596 O 3359.92 -0.0706927 -1.74057 0
M  V30 34597 C 3357.05 -0.25065 -3.39977 0
M  V30 34598 H 3358.24 -1.7707 -2.42046 0
M  V30 34599 H 3355.8 -0.95285 -1.23897 0
M  V30 34600 H 3356.53 0.690008 -3.16874 0
M  V30 34601 H 3356.32 -0.968523 -3.7995 0
M  V30 34602 H 3357.81 -0.0525849 -4.17567 0
M  V30 34603 N 3358.24 1.26349 -0.942 0
M  V30 34604 C 3359.15 2.30079 -0.458371 0
M  V30 34605 C 3360.17 1.67587 0.468054 0
M  V30 34606 O 3361.35 1.98381 0.347383 0
M  V30 34607 C 3358.41 3.45663 0.267909 0
M  V30 34608 C 3357.47 4.23634 -0.695177 0
M  V30 34609 C 3356.7 5.337 -0.00346281 0
M  V30 34610 O 3356.93 5.57346 1.21332 0
M  V30 34611 O 3355.86 5.98017 -0.682581 0
M  V30 34612 H 3359.69 2.73512 -1.32003 0
M  V30 34613 H 3357.27 1.31563 -0.70792 0
M  V30 34614 H 3359.15 4.15926 0.676987 0
M  V30 34615 H 3357.83 3.04258 1.10495 0
M  V30 34616 H 3356.74 3.55849 -1.15422 0
M  V30 34617 H 3358.07 4.68791 -1.49985 0
M  V30 34618 N 3359.72 0.709115 1.40746 0
M  V30 34619 C 3360.97 0.242872 2.00232 0
M  V30 34620 C 3361.28 -1.16858 1.56855 0
M  V30 34621 O 3362.49 -1.733 2.08996 0
M  V30 34622 C 3360.95 0.383304 3.57853 0
M  V30 34623 C 3360.55 1.80098 4.10206 0
M  V30 34624 C 3362.3 -0.0224765 4.24494 0
M  V30 34625 C 3360.2 1.89234 5.60307 0
M  V30 34626 H 3359.13 0.0870472 0.748958 0
M  V30 34627 H 3361.79 0.879271 1.61062 0
M  V30 34628 H 3360.17 -0.321573 3.94692 0
M  V30 34629 H 3361.34 2.53571 3.84757 0
M  V30 34630 H 3359.66 2.15764 3.56139 0
M  V30 34631 H 3362.25 0.0251584 5.34694 0
M  V30 34632 H 3362.6 -1.06336 4.0249 0
M  V30 34633 H 3363.13 0.63261 3.92738 0
M  V30 34634 H 3359.87 2.91422 5.87157 0
M  V30 34635 H 3359.39 1.20164 5.8764 0
M  V30 34636 H 3361.07 1.66147 6.25303 0
M  V30 34637 N 3361.2 -1.50894 0.454829 0
M  V30 34638 C 3362.13 -2.31042 -0.337941 0
M  V30 34639 C 3363.11 -1.37221 -1.00521 0
M  V30 34640 O 3364.3 -1.66142 -1.0055 0
M  V30 34641 C 3361.43 -3.16513 -1.42958 0
M  V30 34642 C 3360.38 -4.18754 -0.884833 0
M  V30 34643 C 3359.71 -4.92857 -2.07354 0
M  V30 34644 C 3361.01 -5.22218 0.0927634 0
M  V30 34645 H 3362.7 -2.97565 0.330942 0
M  V30 34646 H 3360.25 -1.43102 0.160602 0
M  V30 34647 H 3362.2 -3.7137 -1.99154 0
M  V30 34648 H 3360.92 -2.47843 -2.127 0
M  V30 34649 H 3359.58 -3.64973 -0.344967 0
M  V30 34650 H 3359.23 -4.20675 -2.75756 0
M  V30 34651 H 3358.93 -5.62005 -1.71535 0
M  V30 34652 H 3360.45 -5.50544 -2.64071 0
M  V30 34653 H 3361.87 -5.72043 -0.379468 0
M  V30 34654 H 3360.26 -5.98993 0.364405 0
M  V30 34655 H 3361.33 -4.73966 1.02391 0
M  V30 34656 N 3362.68 -0.186817 -1.56489 0
M  V30 34657 C 3364.09 0.169149 -1.58701 0
M  V30 34658 C 3364.29 1.61669 -1.20273 0
M  V30 34659 O 3363.35 2.35081 -0.921581 0
M  V30 34660 C 3364.66 -0.12571 -3.00437 0
M  V30 34661 C 3366.21 -0.065155 -3.12932 0
M  V30 34662 C 3366.69 -0.333211 -4.56786 0
M  V30 34663 N 3368.18 -0.281534 -4.62344 0
M  V30 34664 C 3368.91 -0.462905 -5.71528 0
M  V30 34665 N 3368.41 -0.704176 -6.89212 0
M  V30 34666 N 3370.2 -0.397734 -5.60691 0
M  V30 34667 H 3362.35 -1.13151 -1.79752 0
M  V30 34668 H 3364.61 -0.451012 -0.833842 0
M  V30 34669 H 3364.32 -1.12907 -3.33084 0
M  V30 34670 H 3364.19 0.575546 -3.72783 0
M  V30 34671 H 3366.58 0.928796 -2.80102 0
M  V30 34672 H 3366.66 -0.799361 -2.42989 0
M  V30 34673 H 3366.31 -1.32444 -4.90327 0
M  V30 34674 H 3366.24 0.421787 -5.24908 0
M  V30 34675 H 3368.73 -0.101332 -3.77764 0
M  V30 34676 H 3369.04 -0.831603 -7.68313 0
M  V30 34677 H 3367.39 -0.740973 -6.91039 0
M  V30 34678 H 3370.58 -0.209722 -4.6763 0
M  V30 34679 H 3370.75 -0.542504 -6.45725 0
M  V30 34680 N 3364.16 1.57361 0.0868344 0
M  V30 34681 C 3365.1 2.02643 1.10474 0
M  V30 34682 C 3366.07 0.904244 1.39329 0
M  V30 34683 O 3367.26 1.17084 1.50652 0
M  V30 34684 C 3364.4 2.46275 2.41749 0
M  V30 34685 C 3363.51 3.72048 2.19554 0
M  V30 34686 C 3362.65 4.04525 3.44286 0
M  V30 34687 C 3361.68 5.23383 3.1739 0
M  V30 34688 N 3360.82 5.51572 4.34411 0
M  V30 34689 H 3365.66 2.89379 0.711612 0
M  V30 34690 H 3363.2 1.43121 0.33983 0
M  V30 34691 H 3365.16 2.69619 3.18373 0
M  V30 34692 H 3363.79 1.62537 2.78894 0
M  V30 34693 H 3362.84 3.56132 1.33694 0
M  V30 34694 H 3364.15 4.58816 1.95677 0
M  V30 34695 H 3363.3 4.28689 4.29314 0
M  V30 34696 H 3362.04 3.16295 3.71226 0
M  V30 34697 H 3361.05 4.9903 2.30757 0
M  V30 34698 H 3362.27 6.13218 2.91788 0
M  V30 34699 H 3360.22 4.66301 4.6141 0
M  V30 34700 H 3360.14 6.32728 4.13753 0
M  V30 34701 H 3361.4 5.80278 5.20479 0
M  V30 34702 N 3365.63 -0.357865 1.53483 0
M  V30 34703 C 3366.86 -1.12455 1.74266 0
M  V30 34704 C 3367.28 -1.8203 0.473976 0
M  V30 34705 O 3366.64 -1.72024 -0.5725 0
M  V30 34706 C 3366.69 -2.12466 2.9136 0
M  V30 34707 O 3365.79 -3.19702 2.60508 0
M  V30 34708 H 3365.13 -0.325927 0.578505 0
M  V30 34709 H 3367.66 -0.412631 2.00396 0
M  V30 34710 H 3367.67 -2.55935 3.17744 0
M  V30 34711 H 3366.35 -1.61219 3.83381 0
M  V30 34712 H 3364.93 -2.81152 2.44966 0
M  V30 34713 N 3367.11 -1.44974 -0.618094 0
M  V30 34714 C 3368.53 -1.29148 -0.937711 0
M  V30 34715 C 3368.73 -0.236785 -2.00104 0
M  V30 34716 O 3367.78 0.372879 -2.49732 0
M  V30 34717 C 3369.1 -2.66718 -1.38861 0
M  V30 34718 C 3370.64 -2.74531 -1.50338 0
M  V30 34719 C 3371.12 -4.12601 -1.98807 0
M  V30 34720 N 3372.61 -4.14843 -2.06057 0
M  V30 34721 C 3373.35 -5.18537 -2.44759 0
M  V30 34722 N 3372.84 -6.32584 -2.82505 0
M  V30 34723 N 3374.63 -5.05893 -2.45007 0
M  V30 34724 H 3366.79 -2.1223 0.0849093 0
M  V30 34725 H 3369.05 -0.947679 -0.0246577 0
M  V30 34726 H 3368.75 -3.45034 -0.681522 0
M  V30 34727 H 3368.63 -2.9448 -2.35715 0
M  V30 34728 H 3371.02 -1.96525 -2.2014 0
M  V30 34729 H 3371.1 -2.50495 -0.518253 0
M  V30 34730 H 3370.74 -4.91088 -1.29596 0
M  V30 34731 H 3370.67 -4.34022 -2.98215 0
M  V30 34732 H 3373.16 -3.32538 -1.79519 0
M  V30 34733 H 3373.47 -7.07509 -3.10887 0
M  V30 34734 H 3371.82 -6.36002 -2.80225 0
M  V30 34735 H 3375.01 -4.15846 -2.14918 0
M  V30 34736 H 3375.18 -5.86826 -2.74843 0
M  V30 34737 N 3368.59 0.85967 -1.32089 0
M  V30 34738 C 3370.01 1.14707 -1.1097 0
M  V30 34739 C 3370.21 2.01182 0.113104 0
M  V30 34740 O 3369.26 2.3951 0.799457 0
M  V30 34741 C 3370.57 1.82925 -2.3866 0
M  V30 34742 C 3372.12 1.95582 -2.4437 0
M  V30 34743 C 3372.6 2.67215 -3.71968 0
M  V30 34744 N 3374.09 2.74744 -3.72921 0
M  V30 34745 C 3374.82 3.30808 -4.68352 0
M  V30 34746 N 3374.32 3.87722 -5.74146 0
M  V30 34747 N 3376.11 3.28864 -4.55857 0
M  V30 34748 H 3368.26 0.283674 -2.10497 0
M  V30 34749 H 3370.53 0.188298 -0.929111 0
M  V30 34750 H 3370.23 1.26838 -3.28032 0
M  V30 34751 H 3370.11 2.83123 -2.49241 0
M  V30 34752 H 3372.49 2.50831 -1.55461 0
M  V30 34753 H 3372.57 0.943959 -2.37746 0
M  V30 34754 H 3372.22 2.12632 -4.61248 0
M  V30 34755 H 3372.15 3.6883 -3.75861 0
M  V30 34756 H 3374.64 2.34361 -2.96451 0
M  V30 34757 H 3374.95 4.28643 -6.43028 0
M  V30 34758 H 3373.3 3.86068 -5.77907 0
M  V30 34759 H 3376.49 2.83644 -3.72376 0
M  V30 34760 H 3376.66 3.72257 -5.30404 0
M  V30 34761 N 3370.07 1.15217 1.0753 0
M  V30 34762 C 3371.31 0.925923 1.80091 0
M  V30 34763 C 3371.64 -0.547046 1.86648 0
M  V30 34764 O 3370.9 -1.42161 1.34494 0
M  V30 34765 C 3371.2 1.48306 3.25177 0
M  V30 34766 C 3370.86 2.9762 3.38723 0
M  V30 34767 C 3369.52 3.38382 3.42127 0
M  V30 34768 C 3371.88 3.93589 3.41669 0
M  V30 34769 C 3369.2 4.73758 3.46078 0
M  V30 34770 C 3371.56 5.28834 3.47156 0
M  V30 34771 C 3370.22 5.69095 3.48837 0
M  V30 34772 H 3369.49 0.338819 0.659001 0
M  V30 34773 H 3372.14 1.43731 1.26546 0
M  V30 34774 H 3370.44 0.892818 3.81492 0
M  V30 34775 H 3372.14 1.28383 3.79893 0
M  V30 34776 H 3368.73 2.6511 3.36771 0
M  V30 34777 H 3372.91 3.63171 3.38261 0
M  V30 34778 H 3368.17 5.04299 3.45677 0
M  V30 34779 H 3372.34 6.02995 3.48382 0
M  V30 34780 H 3369.97 6.73977 3.51652 0
M  V30 34781 N 3371.55 -1.25848 0.948687 0
M  V30 34782 C 3372.51 -2.24356 0.468712 0
M  V30 34783 C 3373.51 -1.551 -0.424327 0
M  V30 34784 O 3374.7 -1.72774 -0.22245 0
M  V30 34785 C 3371.83 -3.39361 -0.323531 0
M  V30 34786 H 3373.02 -2.68332 1.33933 0
M  V30 34787 H 3370.58 -1.38132 0.731382 0
M  V30 34788 H 3371.31 -3.00798 -1.21207 0
M  V30 34789 H 3371.1 -3.90816 0.317067 0
M  V30 34790 H 3372.59 -4.12526 -0.649015 0
M  V30 34791 N 3373.02 -0.716569 -1.40368 0
M  V30 34792 C 3373.96 -0.0252308 -2.29186 0
M  V30 34793 C 3374.97 0.722735 -1.45878 0
M  V30 34794 O 3376.16 0.569952 -1.69156 0
M  V30 34795 C 3373.26 0.988532 -3.24162 0
M  V30 34796 C 3372.43 0.305893 -4.36329 0
M  V30 34797 C 3371.49 1.22518 -5.11738 0
M  V30 34798 O 3370.52 0.709601 -5.6476 0
M  V30 34799 N 3371.72 2.55625 -5.21187 0
M  V30 34800 H 3374.48 -0.787858 -2.89159 0
M  V30 34801 H 3372.04 -0.564279 -1.51748 0
M  V30 34802 H 3374.04 1.60571 -3.71482 0
M  V30 34803 H 3372.61 1.65251 -2.6535 0
M  V30 34804 H 3371.83 -0.491501 -3.91124 0
M  V30 34805 H 3373.11 -0.167916 -5.08523 0
M  V30 34806 H 3372.51 3.00009 -4.79595 0
M  V30 34807 H 3371.07 3.12485 -5.72011 0
M  V30 34808 N 3374.5 1.50651 -0.462825 0
M  V30 34809 C 3375.47 2.26895 0.324224 0
M  V30 34810 C 3376.47 1.31343 0.927664 0
M  V30 34811 O 3377.66 1.5484 0.798132 0
M  V30 34812 C 3374.79 3.08002 1.46107 0
M  V30 34813 H 3375.98 2.97917 -0.344318 0
M  V30 34814 H 3373.53 1.54791 -0.216658 0
M  V30 34815 H 3374.27 2.41458 2.16492 0
M  V30 34816 H 3374.05 3.78213 1.03427 0
M  V30 34817 H 3375.54 3.65688 2.01649 0
M  V30 34818 N 3375.98 0.195113 1.56388 0
M  V30 34819 C 3376.91 -0.720932 2.22092 0
M  V30 34820 C 3377.89 -1.22126 1.18403 0
M  V30 34821 O 3379.08 -1.2701 1.46909 0
M  V30 34822 C 3376.21 -1.94054 2.88028 0
M  V30 34823 C 3375.16 -1.57513 3.97962 0
M  V30 34824 C 3374.49 -2.87135 4.51063 0
M  V30 34825 C 3375.79 -0.785054 5.16366 0
M  V30 34826 H 3377.48 -0.173193 2.98899 0
M  V30 34827 H 3375.03 -0.0818615 1.43767 0
M  V30 34828 H 3376.98 -2.5866 3.32676 0
M  V30 34829 H 3375.7 -2.51281 2.08627 0
M  V30 34830 H 3374.36 -0.952653 3.54006 0
M  V30 34831 H 3374.01 -3.42451 3.68424 0
M  V30 34832 H 3373.71 -2.6343 5.25241 0
M  V30 34833 H 3375.23 -3.52729 4.98412 0
M  V30 34834 H 3376.65 -1.33421 5.57559 0
M  V30 34835 H 3375.05 -0.646126 5.96611 0
M  V30 34836 H 3376.12 0.213874 4.84428 0
M  V30 34837 N 3377.46 -1.57404 -0.0784879 0
M  V30 34838 C 3378.87 -1.7571 -0.631101 0
M  V30 34839 C 3379.22 -0.819637 -1.78259 0
M  V30 34840 O 3378.35 -0.00210716 -2.164 0
M  V30 34841 C 3378.94 -3.18627 -1.15162 0
M  V30 34842 C 3377.5 -3.383 -1.65015 0
M  V30 34843 C 3376.65 -2.71447 -0.566725 0
M  V30 34844 H 3379.6 -1.58012 0.147659 0
M  V30 34845 H 3379.62 -3.22416 -2.02059 0
M  V30 34846 H 3379.13 -3.86833 -0.313331 0
M  V30 34847 H 3377.23 -2.75198 -2.51191 0
M  V30 34848 H 3377.34 -4.46709 -1.73171 0
M  V30 34849 H 3375.71 -2.33811 -1.01017 0
M  V30 34850 H 3376.49 -3.42304 0.261264 0
M  V30 34851 N 3378.94 0.34972 -1.53671 0
M  V30 34852 C 3380.18 1.09227 -1.70872 0
M  V30 34853 C 3380.52 1.88493 -0.467332 0
M  V30 34854 O 3379.79 1.86981 0.535586 0
M  V30 34855 C 3380.07 2.03852 -2.96844 0
M  V30 34856 C 3379.93 1.28089 -4.31176 0
M  V30 34857 C 3381.25 3.03757 -3.18464 0
M  V30 34858 H 3378.36 0.3957 -0.621764 0
M  V30 34859 H 3381.01 0.371448 -1.86334 0
M  V30 34860 H 3379.16 2.65318 -2.83793 0
M  V30 34861 H 3380.83 0.692853 -4.56067 0
M  V30 34862 H 3379.07 0.582848 -4.29867 0
M  V30 34863 H 3379.74 1.97431 -5.15485 0
M  V30 34864 H 3382.22 2.52403 -3.30805 0
M  V30 34865 H 3381.09 3.67175 -4.08012 0
M  V30 34866 H 3381.36 3.74799 -2.34474 0
M  V30 34867 N 3380.41 1.45299 0.610397 0
M  V30 34868 C 3381.66 1.50381 1.36956 0
M  V30 34869 C 3382.02 0.142412 1.91872 0
M  V30 34870 O 3381.31 -0.845302 1.71945 0
M  V30 34871 C 3381.5 2.51628 2.53807 0
M  V30 34872 C 3381.33 3.97479 2.10334 0
M  V30 34873 C 3380.1 4.65469 1.96638 0
M  V30 34874 C 3382.3 4.86096 1.67973 0
M  V30 34875 N 3380.28 5.96054 1.46945 0
M  V30 34876 C 3381.65 6.06287 1.29676 0
M  V30 34877 C 3383.71 4.72982 1.5554 0
M  V30 34878 C 3382.41 7.14817 0.801859 0
M  V30 34879 C 3384.44 5.81556 1.07454 0
M  V30 34880 C 3383.8 7.00901 0.701194 0
M  V30 34881 H 3379.9 0.605244 0.49518 0
M  V30 34882 H 3382.48 1.81755 0.698089 0
M  V30 34883 H 3380.65 2.22211 3.18554 0
M  V30 34884 H 3382.38 2.46875 3.20678 0
M  V30 34885 H 3379.14 4.20581 2.17736 0
M  V30 34886 H 3379.56 6.65484 1.24339 0
M  V30 34887 H 3384.21 3.81129 1.83031 0
M  V30 34888 H 3381.92 8.06461 0.514492 0
M  V30 34889 H 3385.51 5.73442 0.98264 0
M  V30 34890 H 3384.39 7.83485 0.33483 0
M  V30 34891 N 3381.89 -0.852653 1.32543 0
M  V30 34892 C 3382.86 -1.94295 1.21581 0
M  V30 34893 C 3383.86 -1.60204 0.138346 0
M  V30 34894 O 3385.05 -1.69804 0.388894 0
M  V30 34895 C 3382.18 -3.29605 0.870267 0
M  V30 34896 H 3383.37 -2.05442 2.1848 0
M  V30 34897 H 3380.92 -1.04308 1.16403 0
M  V30 34898 H 3381.66 -3.24155 -0.0968128 0
M  V30 34899 H 3381.44 -3.55725 1.6493 0
M  V30 34900 H 3382.93 -4.09511 0.817946 0
M  V30 34901 N 3383.37 -1.15786 -1.06918 0
M  V30 34902 C 3384.79 -0.901432 -1.31706 0
M  V30 34903 C 3384.99 0.449168 -1.9643 0
M  V30 34904 O 3384.04 1.19011 -2.22694 0
M  V30 34905 C 3385.36 -2.04572 -2.20388 0
M  V30 34906 C 3386.9 -2.08076 -2.33823 0
M  V30 34907 C 3387.38 -3.21841 -3.25856 0
M  V30 34908 N 3388.87 -3.21517 -3.33438 0
M  V30 34909 C 3389.6 -4.06185 -4.04724 0
M  V30 34910 N 3389.1 -5.00925 -4.78587 0
M  V30 34911 N 3390.89 -3.94193 -4.0071 0
M  V30 34912 H 3383.04 -2.0275 -0.632953 0
M  V30 34913 H 3385.31 -0.884326 -0.341571 0
M  V30 34914 H 3385.01 -3.0209 -1.80096 0
M  V30 34915 H 3384.89 -1.98185 -3.2094 0
M  V30 34916 H 3387.27 -1.11155 -2.73365 0
M  V30 34917 H 3387.36 -2.18529 -1.32961 0
M  V30 34918 H 3387 -4.19017 -2.87032 0
M  V30 34919 H 3386.93 -3.08624 -4.26683 0
M  V30 34920 H 3389.42 -2.5291 -2.80794 0
M  V30 34921 H 3389.73 -5.61962 -5.30489 0
M  V30 34922 H 3388.08 -5.0491 -4.77589 0
M  V30 34923 H 3391.27 -3.19486 -3.42121 0
M  V30 34924 H 3391.44 -4.604 -4.56 0
M  V30 34925 N 3384.85 1.25343 -0.955348 0
M  V30 34926 C 3386.26 1.74977 -0.651148 0
M  V30 34927 C 3386.61 1.77617 0.833464 0
M  V30 34928 O 3385.74 1.39748 1.65225 0
M  V30 34929 C 3386.33 3.17762 -1.17527 0
M  V30 34930 C 3384.89 3.64953 -0.921215 0
M  V30 34931 C 3384.04 2.43982 -1.31789 0
M  V30 34932 H 3386.99 1.1122 -1.13207 0
M  V30 34933 H 3387.01 3.7671 -0.535691 0
M  V30 34934 H 3386.52 3.15809 -2.2558 0
M  V30 34935 H 3384.62 3.7232 0.144326 0
M  V30 34936 H 3384.73 4.53054 -1.55818 0
M  V30 34937 H 3383.1 2.43826 -0.736262 0
M  V30 34938 H 3383.88 2.44718 -2.40765 0
M  V30 34939 N 3386.33 0.724003 1.39986 0
M  V30 34940 C 3387.6 0.193935 1.94636 0
M  V30 34941 C 3387.98 -1.30209 1.66159 0
M  V30 34942 O 3387.33 -2.06236 0.983819 0
M  V30 34943 C 3387.54 0.515712 3.45169 0
M  V30 34944 C 3388.89 0.458993 4.22112 0
M  V30 34945 O 3389.91 0.45226 3.53317 0
M  V30 34946 O 3388.77 0.443879 5.44694 0
M  V30 34947 H 3385.87 0.031676 0.826393 0
M  V30 34948 H 3388.41 0.802111 1.49547 0
M  V30 34949 H 3387.19 1.55011 3.59287 0
M  V30 34950 H 3386.81 -0.121998 3.97413 0
M  V30 34951 N 3387.81 -1.50403 0.470808 0
M  V30 34952 C 3389.04 -2.06438 -0.0818582 0
M  V30 34953 C 3389.44 -1.33485 -1.34083 0
M  V30 34954 O 3388.79 -0.397596 -1.79346 0
M  V30 34955 C 3388.85 -3.56844 -0.43619 0
M  V30 34956 C 3388.51 -4.51281 0.72072 0
M  V30 34957 C 3389.51 -4.94581 1.60267 0
M  V30 34958 C 3387.19 -4.9397 0.910965 0
M  V30 34959 C 3389.19 -5.79277 2.65927 0
M  V30 34960 C 3386.88 -5.78449 1.97079 0
M  V30 34961 C 3387.87 -6.21003 2.8433 0
M  V30 34962 O 3387.56 -7.03798 3.88488 0
M  V30 34963 H 3387.29 -0.67599 0.00362876 0
M  V30 34964 H 3389.85 -1.94558 0.658522 0
M  V30 34965 H 3388.08 -3.66625 -1.22975 0
M  V30 34966 H 3389.77 -3.95245 -0.923906 0
M  V30 34967 H 3390.53 -4.6227 1.46737 0
M  V30 34968 H 3386.41 -4.60368 0.241306 0
M  V30 34969 H 3389.96 -6.12413 3.3406 0
M  V30 34970 H 3385.85 -6.10173 2.10615 0
M  V30 34971 H 3386.62 -7.22048 3.85473 0
M  V30 34972 N 3389.28 -0.203404 -1.56282 0
M  V30 34973 C 3390.23 0.730745 -2.20823 0
M  V30 34974 C 3391.23 1.21352 -1.18195 0
M  V30 34975 O 3392.43 1.17545 -1.3632 0
M  V30 34976 H 3388.81 0.254024 -0.707797 0
M  V30 34977 H 3390.78 0.162773 -2.97956 0
M  V30 34978 C 3389.53 1.93613 -2.88807 0
M  V30 34979 H 3388.85 1.57373 -3.67524 0
M  V30 34980 H 3390.29 2.56793 -3.37392 0
M  V30 34981 C 3388.75 2.78014 -1.90289 0
M  V30 34982 O 3389.28 3.76201 -1.40839 0
M  V30 34983 N 3387.48 2.43676 -1.58336 0
M  V30 34984 H 3387.03 1.63888 -1.98743 0
M  V30 34985 H 3386.99 3.0043 -0.926774 0
M  V30 34986 N 3390.76 1.57444 0.0701393 0
M  V30 34987 C 3392.17 1.76042 0.621774 0
M  V30 34988 C 3392.52 0.829079 1.77822 0
M  V30 34989 O 3391.65 0.0135833 2.16396 0
M  V30 34990 C 3392.24 3.19233 1.13471 0
M  V30 34991 C 3390.8 3.3917 1.63219 0
M  V30 34992 C 3389.95 2.71744 0.552321 0
M  V30 34993 H 3392.9 1.57931 -0.156036 0
M  V30 34994 H 3392.92 3.23483 2.00346 0
M  V30 34995 H 3392.43 3.86994 0.292812 0
M  V30 34996 H 3390.53 2.76526 2.49728 0
M  V30 34997 H 3390.65 4.47621 1.70799 0
M  V30 34998 H 3389.01 2.34344 0.997756 0
M  V30 34999 H 3389.79 3.42161 -0.279414 0
M  V30 35000 N 3392.24 -0.341566 1.53854 0
M  V30 35001 C 3393.65 -0.917064 1.62625 0
M  V30 35002 C 3394 -1.89488 0.508815 0
M  V30 35003 O 3393.13 -2.13365 -0.361133 0
M  V30 35004 C 3393.72 -1.67007 2.94778 0
M  V30 35005 C 3392.28 -2.19455 3.05804 0
M  V30 35006 C 3391.43 -1.01429 2.58084 0
M  V30 35007 H 3394.38 -0.119646 1.58248 0
M  V30 35008 H 3394.4 -2.53308 2.83929 0
M  V30 35009 H 3393.91 -0.958155 3.76086 0
M  V30 35010 H 3392.01 -2.93817 2.29134 0
M  V30 35011 H 3392.13 -2.45691 4.11306 0
M  V30 35012 H 3390.49 -1.38827 2.13539 0
M  V30 35013 H 3391.27 -0.316973 3.41834 0
M  V30 35014 N 3393.72 -1.45621 -0.602683 0
M  V30 35015 C 3394.65 -1.57513 -1.72371 0
M  V30 35016 C 3395.63 -0.426418 -1.64668 0
M  V30 35017 O 3396.81 -0.650176 -1.82993 0
M  V30 35018 C 3393.94 -1.54615 -3.10984 0
M  V30 35019 C 3392.9 -2.68254 -3.33502 0
M  V30 35020 C 3392.22 -2.50411 -4.72439 0
M  V30 35021 C 3393.52 -4.1023 -3.23278 0
M  V30 35022 H 3395.22 -2.51351 -1.62675 0
M  V30 35023 H 3392.76 -1.20968 -0.781196 0
M  V30 35024 H 3394.72 -1.61532 -3.89211 0
M  V30 35025 H 3393.44 -0.573106 -3.21532 0
M  V30 35026 H 3392.1 -2.60774 -2.57668 0
M  V30 35027 H 3391.75 -1.51234 -4.79726 0
M  V30 35028 H 3391.45 -3.2662 -4.8846 0
M  V30 35029 H 3392.97 -2.59189 -5.52859 0
M  V30 35030 H 3394.39 -4.18927 -3.91373 0
M  V30 35031 H 3392.78 -4.86867 -3.50828 0
M  V30 35032 H 3393.85 -4.31792 -2.20644 0
M  V30 35033 N 3395.2 0.845612 -1.32993 0
M  V30 35034 C 3396.44 1.60279 -1.24251 0
M  V30 35035 C 3396.77 1.93238 0.193015 0
M  V30 35036 O 3396.05 1.58124 1.13257 0
M  V30 35037 C 3396.33 2.91723 -2.11116 0
M  V30 35038 C 3396.19 2.65488 -3.63093 0
M  V30 35039 C 3397.5 3.93085 -1.97919 0
M  V30 35040 H 3394.62 0.58157 -0.452709 0
M  V30 35041 H 3397.27 0.975799 -1.63028 0
M  V30 35042 H 3395.42 3.45233 -1.78175 0
M  V30 35043 H 3397.09 2.18462 -4.06291 0
M  V30 35044 H 3395.33 1.993 -3.85308 0
M  V30 35045 H 3396 3.59121 -4.19209 0
M  V30 35046 H 3398.48 3.4886 -2.26794 0
M  V30 35047 H 3397.35 4.82898 -2.6096 0
M  V30 35048 H 3397.61 4.31784 -0.949453 0
M  V30 35049 N 3396.67 1.16351 1.06302 0
M  V30 35050 C 3397.58 0.884327 2.17294 0
M  V30 35051 C 3398.6 -0.143383 1.73408 0
M  V30 35052 O 3399.78 0.0332341 2.01373 0
M  V30 35053 C 3396.84 0.389223 3.44508 0
M  V30 35054 C 3395.9 1.48215 4.02903 0
M  V30 35055 C 3395.13 1.01057 5.24045 0
M  V30 35056 O 3395.36 -0.139721 5.70229 0
M  V30 35057 O 3394.29 1.79886 5.74391 0
M  V30 35058 H 3398.12 1.81247 2.43687 0
M  V30 35059 H 3395.7 0.94348 1.1584 0
M  V30 35060 H 3397.58 0.120092 4.21229 0
M  V30 35061 H 3396.26 -0.510912 3.19643 0
M  V30 35062 H 3395.17 1.80502 3.27673 0
M  V30 35063 H 3396.5 2.35758 4.32064 0
M  V30 35064 N 3398.15 -1.24835 0.961982 0
M  V30 35065 C 3399.38 -1.96812 0.638174 0
M  V30 35066 C 3399.79 -1.7142 -0.791239 0
M  V30 35067 O 3399.15 -0.994573 -1.53018 0
M  V30 35068 C 3399.2 -3.50212 0.896322 0
M  V30 35069 O 3398.92 -3.74731 2.26954 0
M  V30 35070 C 3400.42 -4.39411 0.585913 0
M  V30 35071 H 3397.64 -0.627142 0.238609 0
M  V30 35072 H 3400.19 -1.58813 1.28836 0
M  V30 35073 H 3398.34 -3.86295 0.292436 0
M  V30 35074 H 3398.76 -4.69148 2.34522 0
M  V30 35075 H 3400.23 -5.4592 0.817031 0
M  V30 35076 H 3400.71 -4.36572 -0.479708 0
M  V30 35077 H 3401.31 -4.08906 1.16945 0
M  V30 35078 N 3399.63 -0.731417 -1.396 0
M  V30 35079 C 3400.88 -0.287083 -2.01364 0
M  V30 35080 C 3401.23 1.11224 -1.56993 0
M  V30 35081 O 3400.52 1.7468 -0.787232 0
M  V30 35082 C 3400.72 -0.323415 -3.55934 0
M  V30 35083 C 3400.55 -1.72473 -4.15311 0
M  V30 35084 C 3399.32 -2.33613 -4.48055 0
M  V30 35085 C 3401.51 -2.67772 -4.39093 0
M  V30 35086 N 3399.5 -3.65936 -4.92914 0
M  V30 35087 C 3400.87 -3.84824 -4.86118 0
M  V30 35088 C 3402.92 -2.6558 -4.21155 0
M  V30 35089 C 3401.63 -5.00014 -5.17086 0
M  V30 35090 C 3403.65 -3.7991 -4.53235 0
M  V30 35091 C 3403.01 -4.95698 -5.00463 0
M  V30 35092 H 3399.11 -0.15123 -0.767238 0
M  V30 35093 H 3401.7 -0.956618 -1.69579 0
M  V30 35094 H 3399.87 0.315751 -3.87114 0
M  V30 35095 H 3401.6 0.139129 -4.04461 0
M  V30 35096 H 3398.35 -1.85569 -4.35731 0
M  V30 35097 H 3398.78 -4.33861 -5.19706 0
M  V30 35098 H 3403.42 -1.77257 -3.83849 0
M  V30 35099 H 3401.14 -5.88969 -5.533 0
M  V30 35100 H 3404.72 -3.79508 -4.40982 0
M  V30 35101 H 3403.6 -5.82699 -5.24816 0
M  V30 35102 N 3401.11 1.50152 -0.478778 0
M  V30 35103 C 3402.06 2.2869 0.311386 0
M  V30 35104 C 3403.03 1.34083 0.980352 0
M  V30 35105 O 3404.21 1.63027 0.991309 0
M  V30 35106 C 3401.35 3.16177 1.38297 0
M  V30 35107 C 3400.46 4.25822 0.728009 0
M  V30 35108 C 3399.6 5.00555 1.77814 0
M  V30 35109 C 3398.64 6.02065 1.10384 0
M  V30 35110 N 3397.77 6.70047 2.09716 0
M  V30 35111 H 3402.61 2.95761 -0.364644 0
M  V30 35112 H 3400.15 1.45846 -0.191671 0
M  V30 35113 H 3402.11 3.65258 2.01599 0
M  V30 35114 H 3400.74 2.51137 2.02806 0
M  V30 35115 H 3399.79 3.80396 -0.0177695 0
M  V30 35116 H 3401.1 4.98414 0.196121 0
M  V30 35117 H 3400.26 5.53393 2.48678 0
M  V30 35118 H 3399 4.27686 2.34384 0
M  V30 35119 H 3398 5.48479 0.380864 0
M  V30 35120 H 3399.23 6.7691 0.544926 0
M  V30 35121 H 3397.17 5.99964 2.6529 0
M  V30 35122 H 3397.09 7.38541 1.61533 0
M  V30 35123 H 3398.36 7.275 2.79937 0
M  V30 35124 N 3402.59 0.211689 1.56172 0
M  V30 35125 C 3403.53 -0.702476 2.1985 0
M  V30 35126 C 3404.5 -1.19761 1.15093 0
M  V30 35127 O 3405.69 -1.2585 1.4341 0
M  V30 35128 C 3402.83 -1.9093 2.87471 0
M  V30 35129 C 3401.94 -1.45398 4.06796 0
M  V30 35130 C 3401.08 -2.6176 4.62228 0
M  V30 35131 C 3400.12 -2.12916 5.73875 0
M  V30 35132 N 3399.25 -3.22515 6.23641 0
M  V30 35133 H 3404.09 -0.152725 2.97608 0
M  V30 35134 H 3401.63 -0.0636338 1.46962 0
M  V30 35135 H 3403.59 -2.61772 3.24856 0
M  V30 35136 H 3402.22 -2.43209 2.12248 0
M  V30 35137 H 3401.27 -0.640842 3.74963 0
M  V30 35138 H 3402.58 -1.05576 4.87499 0
M  V30 35139 H 3401.74 -3.407 5.02005 0
M  V30 35140 H 3400.47 -3.04866 3.80668 0
M  V30 35141 H 3399.48 -1.32436 5.33611 0
M  V30 35142 H 3400.7 -1.70822 6.57265 0
M  V30 35143 H 3398.65 -3.65121 5.44998 0
M  V30 35144 H 3398.57 -2.86914 6.9944 0
M  V30 35145 H 3399.84 -4.01619 6.68073 0
M  V30 35146 N 3404.06 -1.57479 -0.0617887 0
M  V30 35147 C 3405.48 -1.76369 -0.61243 0
M  V30 35148 C 3405.83 -0.838497 -1.7738 0
M  V30 35149 O 3404.95 -0.0250591 -2.16385 0
M  V30 35150 C 3405.55 -3.19831 -1.11776 0
M  V30 35151 C 3404.11 -3.40031 -1.61418 0
M  V30 35152 C 3403.25 -2.72033 -0.537902 0
M  V30 35153 H 3406.2 -1.57846 0.16441 0
M  V30 35154 H 3406.22 -3.24541 -1.98628 0
M  V30 35155 H 3405.74 -3.87144 -0.272285 0
M  V30 35156 H 3403.84 -2.77847 -2.48258 0
M  V30 35157 H 3403.95 -4.4852 -1.68423 0
M  V30 35158 H 3402.31 -2.34869 -0.985314 0
M  V30 35159 H 3403.1 -3.42008 0.297555 0
M  V30 35160 N 3405.54 0.333401 -1.54033 0
M  V30 35161 C 3406.82 1.09013 -1.62406 0
M  V30 35162 C 3407.2 2.06211 -0.451689 0
M  V30 35163 O 3406.55 2.21656 0.555047 0
M  V30 35164 C 3406.76 1.8008 -2.98952 0
M  V30 35165 C 3408.11 2.33457 -3.54659 0
M  V30 35166 O 3409.13 1.90161 -3.01193 0
M  V30 35167 O 3407.99 3.12696 -4.48201 0
M  V30 35168 H 3405.08 0.50191 -0.657279 0
M  V30 35169 H 3407.63 0.334081 -1.66379 0
M  V30 35170 H 3406.4 1.09326 -3.75717 0
M  V30 35171 H 3406.02 2.62518 -2.98614 0
M  V30 35172 N 3407.02 1.45939 0.594952 0
M  V30 35173 C 3408.25 1.53939 1.37791 0
M  V30 35174 C 3408.66 0.175124 1.88388 0
M  V30 35175 O 3408 -0.835728 1.63589 0
M  V30 35176 C 3408.06 2.47326 2.60902 0
M  V30 35177 C 3407.73 3.93816 2.31858 0
M  V30 35178 C 3408.72 4.83369 1.91442 0
M  V30 35179 C 3406.41 4.38844 2.4438 0
M  V30 35180 C 3408.4 6.1596 1.63927 0
M  V30 35181 C 3406.09 5.71472 2.16477 0
M  V30 35182 C 3407.09 6.5985 1.76314 0
M  V30 35183 O 3406.78 7.90019 1.48746 0
M  V30 35184 H 3406.51 0.523463 0.427741 0
M  V30 35185 H 3409.06 1.91935 0.731453 0
M  V30 35186 H 3407.29 2.04325 3.28311 0
M  V30 35187 H 3408.98 2.45869 3.2296 0
M  V30 35188 H 3409.75 4.49842 1.81293 0
M  V30 35189 H 3405.63 3.70288 2.74605 0
M  V30 35190 H 3409.17 6.849 1.32504 0
M  V30 35191 H 3405.07 6.04552 2.26247 0
M  V30 35192 H 3405.84 8.02168 1.62694 0
M  V30 35193 N 3408.5 -0.838547 1.3344 0
M  V30 35194 C 3409.41 -1.98046 1.25757 0
M  V30 35195 C 3410.42 -1.73186 0.168081 0
M  V30 35196 O 3411.6 -1.97554 0.391726 0
M  V30 35197 C 3408.67 -3.32049 0.997206 0
M  V30 35198 C 3407.73 -3.70023 2.17673 0
M  V30 35199 C 3406.96 -4.97631 1.92869 0
M  V30 35200 O 3407.18 -5.63584 0.879171 0
M  V30 35201 O 3406.12 -5.33116 2.79412 0
M  V30 35202 H 3409.94 -2.07468 2.2179 0
M  V30 35203 H 3407.53 -0.971625 1.13489 0
M  V30 35204 H 3409.41 -4.12339 0.869172 0
M  V30 35205 H 3408.08 -3.2363 0.0671605 0
M  V30 35206 H 3406.99 -2.90242 2.3603 0
M  V30 35207 H 3408.32 -3.83108 3.09013 0
M  V30 35208 N 3409.98 -1.16914 -1.05683 0
M  V30 35209 C 3411.39 -0.961182 -1.60057 0
M  V30 35210 C 3411.74 0.493376 -1.89895 0
M  V30 35211 O 3410.86 1.36775 -1.67695 0
M  V30 35212 C 3411.46 -1.73842 -2.908 0
M  V30 35213 C 3410.02 -1.57528 -3.41851 0
M  V30 35214 C 3409.16 -1.74322 -2.15655 0
M  V30 35215 H 3412.12 -1.31694 -0.885568 0
M  V30 35216 H 3412.14 -1.21787 -3.60483 0
M  V30 35217 H 3411.65 -2.79702 -2.69051 0
M  V30 35218 H 3409.75 -0.541349 -3.68646 0
M  V30 35219 H 3409.86 -2.36309 -4.16767 0
M  V30 35220 H 3408.23 -1.17119 -2.26175 0
M  V30 35221 H 3409.01 -2.81584 -1.96381 0
M  V30 35222 N 3411.45 1.24323 -0.968589 0
M  V30 35223 C 3412.87 1.74277 -0.66967 0
M  V30 35224 C 3413.22 1.78491 0.814579 0
M  V30 35225 O 3412.34 1.41493 1.63734 0
M  V30 35226 C 3412.94 3.16498 -1.20891 0
M  V30 35227 C 3411.5 3.63955 -0.959872 0
M  V30 35228 C 3410.64 2.4257 -1.34369 0
M  V30 35229 H 3413.59 1.10013 -1.14381 0
M  V30 35230 H 3413.61 3.76121 -0.575616 0
M  V30 35231 H 3413.13 3.13398 -2.28917 0
M  V30 35232 H 3411.23 3.72453 0.104829 0
M  V30 35233 H 3411.34 4.51375 -1.60614 0
M  V30 35234 H 3409.7 2.43032 -0.762081 0
M  V30 35235 H 3410.49 2.42151 -2.43347 0
M  V30 35236 N 3412.93 0.73881 1.3921 0
M  V30 35237 C 3414.18 0.288852 2.00732 0
M  V30 35238 C 3414.51 -1.12217 1.58496 0
M  V30 35239 O 3413.79 -1.76573 0.81561 0
M  V30 35240 C 3414.07 0.395019 3.57927 0
M  V30 35241 C 3413.92 1.84608 4.1017 0
M  V30 35242 C 3415.24 -0.220318 4.39548 0
M  V30 35243 H 3412.36 0.106431 0.729275 0
M  V30 35244 H 3415 0.935681 1.65363 0
M  V30 35245 H 3413.15 -0.155676 3.88188 0
M  V30 35246 H 3414.82 2.45395 3.90614 0
M  V30 35247 H 3413.07 2.36613 3.63588 0
M  V30 35248 H 3413.74 1.87161 5.19302 0
M  V30 35249 H 3416.21 0.249171 4.15353 0
M  V30 35250 H 3415.09 -0.115709 5.48778 0
M  V30 35251 H 3415.35 -1.30684 4.22344 0
M  V30 35252 N 3414.41 -1.49895 0.486734 0
M  V30 35253 C 3415.66 -2.02702 -0.0629095 0
M  V30 35254 C 3415.99 -1.36683 -1.37954 0
M  V30 35255 O 3415.26 -0.497711 -1.88024 0
M  V30 35256 C 3415.55 -3.59362 -0.230398 0
M  V30 35257 C 3415.4 -4.35931 1.10835 0
M  V30 35258 C 3416.72 -4.29102 -0.97771 0
M  V30 35259 H 3413.84 -0.73669 -0.0213887 0
M  V30 35260 H 3416.48 -1.79062 0.635371 0
M  V30 35261 H 3414.63 -3.79636 -0.825155 0
M  V30 35262 H 3416.3 -4.27189 1.74089 0
M  V30 35263 H 3414.55 -3.99052 1.70117 0
M  V30 35264 H 3415.22 -5.43857 0.944627 0
M  V30 35265 H 3417.69 -4.13398 -0.473432 0
M  V30 35266 H 3416.57 -5.38494 -1.06372 0
M  V30 35267 H 3416.83 -3.93353 -2.01806 0
M  V30 35268 N 3415.89 -0.219968 -1.56057 0
M  V30 35269 C 3416.84 0.704146 -2.16854 0
M  V30 35270 C 3417.82 1.15867 -1.11641 0
M  V30 35271 O 3419.02 1.11292 -1.37634 0
M  V30 35272 C 3416.14 1.91275 -2.85077 0
M  V30 35273 C 3415.23 1.47798 -3.97513 0
M  V30 35274 N 3415.62 0.755704 -5.00123 0
M  V30 35275 C 3413.92 1.76539 -4.09573 0
M  V30 35276 C 3414.62 0.53423 -5.79242 0
M  V30 35277 N 3413.6 1.09046 -5.32551 0
M  V30 35278 H 3417.4 0.143863 -2.93548 0
M  V30 35279 H 3414.91 -0.0211616 -1.62386 0
M  V30 35280 H 3416.91 2.58552 -3.27042 0
M  V30 35281 H 3415.57 2.47752 -2.09879 0
M  V30 35282 H 3416.58 0.408556 -5.16286 0
M  V30 35283 H 3413.26 2.34347 -3.45525 0
M  V30 35284 H 3414.65 -0.0405213 -6.71888 0
M  V30 35285 N 3417.37 1.57509 0.0534363 0
M  V30 35286 C 3418.62 1.87765 0.747589 0
M  V30 35287 C 3418.94 0.814464 1.77176 0
M  V30 35288 O 3418.21 -0.154828 1.95287 0
M  V30 35289 H 3416.79 0.692902 0.279097 0
M  V30 35290 H 3419.45 1.94884 0.0251663 0
M  V30 35291 H 3418.54 2.8587 1.25239 0
M  V30 35292 N 3418.85 -0.325228 1.54208 0
M  V30 35293 C 3420.09 -1.07161 1.74057 0
M  V30 35294 C 3420.45 -1.85301 0.502754 0
M  V30 35295 O 3421.65 -2.625 0.578571 0
M  V30 35296 C 3419.92 -1.97313 2.97997 0
M  V30 35297 S 3421.48 -2.78925 3.38742 0
M  V30 35298 H 3418.3 -0.361797 0.612065 0
M  V30 35299 H 3420.9 -0.347803 1.92381 0
M  V30 35300 H 3419.6 -1.3874 3.86237 0
M  V30 35301 H 3419.14 -2.74101 2.82191 0
M  V30 35302 H 3421.15 -3.99788 2.93911 0
M  V30 35303 N 3420.32 -1.46252 -0.587204 0
M  V30 35304 C 3421.73 -1.45548 -1.16931 0
M  V30 35305 C 3422.09 -0.193913 -1.95239 0
M  V30 35306 O 3421.21 0.703284 -2.04653 0
M  V30 35307 C 3421.81 -2.63697 -2.12719 0
M  V30 35308 C 3420.36 -2.66048 -2.66262 0
M  V30 35309 C 3419.51 -2.38156 -1.42046 0
M  V30 35310 H 3422.46 -1.54196 -0.375384 0
M  V30 35311 H 3422.48 -2.38959 -2.96106 0
M  V30 35312 H 3422 -3.555 -1.55696 0
M  V30 35313 H 3420.1 -1.78306 -3.27166 0
M  V30 35314 H 3420.21 -3.6588 -3.09304 0
M  V30 35315 H 3418.57 -1.88122 -1.71704 0
M  V30 35316 H 3419.36 -3.32129 -0.868616 0
M  V30 35317 N 3421.8 0.831459 -1.33883 0
M  V30 35318 C 3422.73 1.9569 -1.27387 0
M  V30 35319 C 3423.71 1.69411 -0.152972 0
M  V30 35320 O 3424.9 1.9113 -0.343954 0
M  V30 35321 C 3422.03 3.31988 -1.01988 0
M  V30 35322 C 3420.98 3.72685 -2.10452 0
M  V30 35323 C 3420.31 5.0687 -1.70254 0
M  V30 35324 C 3421.61 3.85684 -3.52201 0
M  V30 35325 H 3423.3 2.01382 -2.21552 0
M  V30 35326 H 3420.85 0.967507 -1.06655 0
M  V30 35327 H 3422.8 4.10298 -0.960913 0
M  V30 35328 H 3421.52 3.26572 -0.0426283 0
M  V30 35329 H 3420.18 2.96643 -2.15403 0
M  V30 35330 H 3419.83 4.97934 -0.712124 0
M  V30 35331 H 3419.53 5.35071 -2.42843 0
M  V30 35332 H 3421.06 5.87648 -1.65837 0
M  V30 35333 H 3422.47 4.54287 -3.49709 0
M  V30 35334 H 3420.87 4.25329 -4.23338 0
M  V30 35335 H 3421.94 2.87922 -3.90165 0
M  V30 35336 N 3423.28 1.17472 1.05062 0
M  V30 35337 C 3424.69 0.969656 1.59545 0
M  V30 35338 C 3425.04 -0.483298 1.90154 0
M  V30 35339 O 3424.17 -1.35884 1.68418 0
M  V30 35340 C 3424.76 1.75382 2.89874 0
M  V30 35341 C 3423.32 1.59338 3.41011 0
M  V30 35342 C 3422.47 1.75464 2.14727 0
M  V30 35343 H 3425.42 1.32162 0.878572 0
M  V30 35344 H 3425.44 1.23697 3.59832 0
M  V30 35345 H 3424.95 2.81125 2.67564 0
M  V30 35346 H 3423.05 0.560891 3.68354 0
M  V30 35347 H 3423.17 2.38516 4.15508 0
M  V30 35348 H 3421.53 1.18317 2.25551 0
M  V30 35349 H 3422.31 2.82621 1.94885 0
M  V30 35350 N 3424.76 -1.23807 0.975168 0
M  V30 35351 C 3426.17 -1.73919 0.678903 0
M  V30 35352 C 3426.52 -1.78921 -0.805101 0
M  V30 35353 O 3425.64 -1.42359 -1.62981 0
M  V30 35354 C 3426.24 -3.15852 1.22567 0
M  V30 35355 C 3424.8 -3.63441 0.97916 0
M  V30 35356 C 3423.95 -2.41854 1.35653 0
M  V30 35357 H 3426.9 -1.09404 1.14962 0
M  V30 35358 H 3426.92 -3.7581 0.595555 0
M  V30 35359 H 3426.43 -3.1218 2.30576 0
M  V30 35360 H 3424.53 -3.72503 -0.0850752 0
M  V30 35361 H 3424.64 -4.50517 1.63006 0
M  V30 35362 H 3423.01 -2.42624 0.774959 0
M  V30 35363 H 3423.79 -2.40857 2.44628 0
M  V30 35364 N 3426.24 -0.746182 -1.38816 0
M  V30 35365 C 3427.65 -0.367661 -1.83044 0
M  V30 35366 C 3428 1.10261 -1.62287 0
M  V30 35367 O 3427.12 1.8516 -1.12004 0
M  V30 35368 C 3427.72 -0.660541 -3.32299 0
M  V30 35369 C 3426.28 -0.335384 -3.74903 0
M  V30 35370 C 3425.42 -0.917492 -2.61682 0
M  V30 35371 H 3428.37 -0.942933 -1.2765 0
M  V30 35372 H 3428.4 0.0638392 -3.80446 0
M  V30 35373 H 3427.91 -1.73068 -3.47374 0
M  V30 35374 H 3426.01 0.728474 -3.65409 0
M  V30 35375 H 3426.12 -0.82576 -4.7193 0
M  V30 35376 H 3424.49 -0.343361 -2.52375 0
M  V30 35377 H 3425.27 -1.99252 -2.7956 0
M  V30 35378 N 3427.71 1.49635 -0.494676 0
M  V30 35379 C 3428.66 2.29007 0.287113 0
M  V30 35380 C 3429.63 1.35115 0.966075 0
M  V30 35381 O 3430.82 1.64069 0.973962 0
M  V30 35382 C 3427.96 3.17626 1.34935 0
M  V30 35383 C 3427.07 4.2657 0.682804 0
M  V30 35384 C 3426.2 5.02413 1.72495 0
M  V30 35385 C 3425.24 6.03201 1.03992 0
M  V30 35386 N 3424.38 6.72234 2.02598 0
M  V30 35387 H 3429.22 2.95357 -0.395993 0
M  V30 35388 H 3426.76 1.45634 -0.207129 0
M  V30 35389 H 3428.71 3.67376 1.97714 0
M  V30 35390 H 3427.34 2.53274 2.00131 0
M  V30 35391 H 3426.4 3.80356 -0.0581146 0
M  V30 35392 H 3427.71 4.98594 0.143247 0
M  V30 35393 H 3426.86 5.56 2.42794 0
M  V30 35394 H 3425.6 4.30148 2.29835 0
M  V30 35395 H 3424.61 5.48852 0.322669 0
M  V30 35396 H 3425.83 6.7745 0.4731 0
M  V30 35397 H 3423.78 6.02744 2.58912 0
M  V30 35398 H 3423.69 7.40213 1.53691 0
M  V30 35399 H 3424.96 7.30428 2.72205 0
M  V30 35400 N 3429.19 0.228241 1.55939 0
M  V30 35401 C 3430.42 -0.409328 2.03321 0
M  V30 35402 C 3430.84 -1.52086 1.10686 0
M  V30 35403 O 3430.2 -1.81044 0.0962802 0
M  V30 35404 C 3430.25 -0.91192 3.48879 0
M  V30 35405 O 3429.35 -2.02283 3.59382 0
M  V30 35406 H 3428.69 -0.0917793 0.657626 0
M  V30 35407 H 3431.22 0.348837 2.01604 0
M  V30 35408 H 3431.23 -1.22 3.89333 0
M  V30 35409 H 3429.91 -0.0984171 4.15784 0
M  V30 35410 H 3428.48 -1.72087 3.30818 0
M  V30 35411 N 3430.67 -1.57536 -0.0450825 0
M  V30 35412 C 3432.08 -1.77009 -0.593689 0
M  V30 35413 C 3432.43 -0.857264 -1.76481 0
M  V30 35414 O 3431.56 -0.0480083 -2.16347 0
M  V30 35415 C 3432.15 -3.20998 -1.08377 0
M  V30 35416 C 3430.71 -3.41724 -1.57802 0
M  V30 35417 C 3429.86 -2.72588 -0.509019 0
M  V30 35418 H 3432.81 -1.57663 0.181142 0
M  V30 35419 H 3432.83 -3.2663 -1.95175 0
M  V30 35420 H 3432.34 -3.87411 -0.231208 0
M  V30 35421 H 3430.44 -2.80464 -2.45297 0
M  V30 35422 H 3430.56 -4.50281 -1.63656 0
M  V30 35423 H 3428.92 -2.35901 -0.960347 0
M  V30 35424 H 3429.7 -3.41673 0.333813 0
M  V30 35425 N 3432.15 0.317045 -1.54378 0
M  V30 35426 C 3433.56 0.891076 -1.64063 0
M  V30 35427 C 3433.91 1.88654 -0.538896 0
M  V30 35428 O 3433.04 2.13913 0.327143 0
M  V30 35429 C 3433.63 1.62297 -2.97398 0
M  V30 35430 C 3432.19 2.14563 -3.09257 0
M  V30 35431 C 3431.34 0.973101 -2.59665 0
M  V30 35432 H 3434.29 0.0944551 -1.58419 0
M  V30 35433 H 3434.31 2.48759 -2.87923 0
M  V30 35434 H 3433.82 0.898202 -3.77563 0
M  V30 35435 H 3431.92 2.90135 -2.33779 0
M  V30 35436 H 3432.03 2.39116 -4.15163 0
M  V30 35437 H 3430.4 1.35412 -2.15721 0
M  V30 35438 H 3431.18 0.262551 -3.42295 0
M  V30 35439 N 3433.63 1.46561 0.57944 0
M  V30 35440 C 3434.87 1.52266 1.33951 0
M  V30 35441 C 3435.21 0.175123 1.93409 0
M  V30 35442 O 3434.48 -0.813819 1.76656 0
M  V30 35443 C 3434.76 2.62375 2.4664 0
M  V30 35444 C 3434.62 4.0667 1.92197 0
M  V30 35445 C 3435.94 2.68544 3.48672 0
M  V30 35446 H 3433.05 0.554325 0.485688 0
M  V30 35447 H 3435.7 1.78514 0.650608 0
M  V30 35448 H 3433.85 2.40125 3.05405 0
M  V30 35449 H 3435.52 4.40217 1.37864 0
M  V30 35450 H 3433.76 4.15995 1.23005 0
M  V30 35451 H 3434.43 4.79448 2.73557 0
M  V30 35452 H 3436.91 2.88554 2.99792 0
M  V30 35453 H 3435.78 3.47401 4.24975 0
M  V30 35454 H 3436.05 1.74724 4.06108 0
M  V30 35455 N 3435.1 -0.824347 1.34322 0
M  V30 35456 C 3436.52 -1.39701 1.23857 0
M  V30 35457 C 3436.87 -1.95724 -0.136532 0
M  V30 35458 O 3435.99 -1.89946 -1.0368 0
M  V30 35459 C 3436.59 -2.53961 2.24253 0
M  V30 35460 C 3435.15 -3.07139 2.17584 0
M  V30 35461 C 3434.29 -1.80004 2.10936 0
M  V30 35462 H 3437.24 -0.628866 1.45709 0
M  V30 35463 H 3437.26 -3.32013 1.8587 0
M  V30 35464 H 3436.78 -2.13156 3.24324 0
M  V30 35465 H 3434.88 -3.52452 1.20864 0
M  V30 35466 H 3434.99 -3.66326 3.08775 0
M  V30 35467 H 3433.35 -2.00843 1.56634 0
M  V30 35468 H 3434.14 -1.41375 3.12839 0
M  V30 35469 N 3436.58 -1.18028 -1.04437 0
M  V30 35470 C 3437.99 -0.978104 -1.59028 0
M  V30 35471 C 3438.34 0.473207 -1.90408 0
M  V30 35472 O 3437.47 1.34989 -1.69136 0
M  V30 35473 C 3438.06 -1.76917 -2.88939 0
M  V30 35474 C 3436.62 -1.61145 -3.40161 0
M  V30 35475 C 3435.77 -1.766 -2.13794 0
M  V30 35476 H 3438.72 -1.32626 -0.871551 0
M  V30 35477 H 3438.74 -1.25604 -3.59171 0
M  V30 35478 H 3438.25 -2.8254 -2.66069 0
M  V30 35479 H 3436.36 -0.580418 -3.68052 0
M  V30 35480 H 3436.47 -2.40716 -4.14237 0
M  V30 35481 H 3434.83 -1.19511 -2.2492 0
M  V30 35482 H 3435.62 -2.83651 -1.93384 0
M  V30 35483 N 3438.06 1.23288 -0.98172 0
M  V30 35484 C 3439.47 1.73556 -0.688117 0
M  V30 35485 C 3439.82 1.79345 0.795601 0
M  V30 35486 O 3438.95 1.43221 1.62224 0
M  V30 35487 C 3439.54 3.15198 -1.24241 0
M  V30 35488 C 3438.1 3.62917 -0.99842 0
M  V30 35489 C 3437.25 2.41131 -1.36934 0
M  V30 35490 H 3440.2 1.08793 -1.15541 0
M  V30 35491 H 3440.22 3.75489 -0.615476 0
M  V30 35492 H 3439.73 3.10953 -2.32228 0
M  V30 35493 H 3437.83 3.72543 0.0653193 0
M  V30 35494 H 3437.95 4.49647 -1.65393 0
M  V30 35495 H 3436.31 2.4221 -0.787815 0
M  V30 35496 H 3437.09 2.39556 -2.45902 0
M  V30 35497 N 3439.54 0.753533 1.38418 0
M  V30 35498 C 3440.95 0.431122 1.53667 0
M  V30 35499 C 3441.15 -1.05575 1.71628 0
M  V30 35500 O 3440.21 -1.84179 1.72726 0
M  V30 35501 C 3441.52 1.23032 2.74379 0
M  V30 35502 C 3443.07 1.22039 2.88228 0
M  V30 35503 C 3443.55 2.00255 4.119 0
M  V30 35504 N 3445.04 1.97515 4.18977 0
M  V30 35505 C 3445.77 2.54829 5.13663 0
M  V30 35506 N 3445.27 3.20857 6.14022 0
M  V30 35507 N 3447.06 2.4476 5.06013 0
M  V30 35508 H 3439.21 1.71716 1.25009 0
M  V30 35509 H 3441.48 0.72795 0.607283 0
M  V30 35510 H 3441.18 2.28322 2.67511 0
M  V30 35511 H 3441.06 0.847163 3.67564 0
M  V30 35512 H 3443.44 0.175554 2.94577 0
M  V30 35513 H 3443.52 1.64306 1.96054 0
M  V30 35514 H 3443.17 3.0475 4.06313 0
M  V30 35515 H 3443.1 1.55382 5.03154 0
M  V30 35516 H 3445.59 1.49429 3.47101 0
M  V30 35517 H 3445.9 3.62011 6.82765 0
M  V30 35518 H 3444.25 3.24952 6.14354 0
M  V30 35519 H 3447.44 1.92805 4.26549 0
M  V30 35520 H 3447.61 2.89723 5.79624 0
M  V30 35521 N 3441.02 -1.49371 0.502605 0
M  V30 35522 C 3441.96 -2.29156 -0.274964 0
M  V30 35523 C 3442.93 -1.35626 -0.958896 0
M  V30 35524 O 3444.12 -1.64583 -0.965247 0
M  V30 35525 C 3441.26 -3.18337 -1.33249 0
M  V30 35526 C 3440.37 -4.26926 -0.660173 0
M  V30 35527 C 3439.51 -5.03321 -1.69828 0
M  V30 35528 C 3438.55 -6.03745 -1.00792 0
M  V30 35529 N 3437.68 -6.73299 -1.9903 0
M  V30 35530 H 3442.52 -2.95143 0.411651 0
M  V30 35531 H 3440.06 -1.45523 0.214849 0
M  V30 35532 H 3442.02 -3.68419 -1.95763 0
M  V30 35533 H 3440.65 -2.54331 -1.98785 0
M  V30 35534 H 3439.7 -3.80319 0.0782849 0
M  V30 35535 H 3441.01 -4.98663 -0.116803 0
M  V30 35536 H 3440.17 -5.5728 -2.39842 0
M  V30 35537 H 3438.9 -4.31361 -2.27551 0
M  V30 35538 H 3437.91 -5.49016 -0.293557 0
M  V30 35539 H 3439.13 -6.77691 -0.437166 0
M  V30 35540 H 3437.08 -6.04109 -2.55712 0
M  V30 35541 H 3437 -7.41017 -1.49763 0
M  V30 35542 H 3438.27 -7.31861 -2.68328 0
M  V30 35543 N 3442.49 -0.236508 -1.55815 0
M  V30 35544 C 3443.44 0.667411 -2.2094 0
M  V30 35545 C 3444.41 1.17915 -1.16984 0
M  V30 35546 O 3445.6 1.23552 -1.45394 0
M  V30 35547 C 3442.74 1.86332 -2.90472 0
M  V30 35548 C 3441.85 1.38908 -4.09058 0
M  V30 35549 C 3440.98 2.54374 -4.66334 0
M  V30 35550 C 3440.02 2.0376 -5.7719 0
M  V30 35551 N 3439.16 3.12553 -6.28693 0
M  V30 35552 H 3444 0.105359 -2.97814 0
M  V30 35553 H 3441.54 0.0402453 -1.47045 0
M  V30 35554 H 3443.5 2.5657 -3.2898 0
M  V30 35555 H 3442.13 2.39802 -2.1609 0
M  V30 35556 H 3441.18 0.581107 -3.75935 0
M  V30 35557 H 3442.49 0.978066 -4.89117 0
M  V30 35558 H 3441.64 3.3267 -5.07361 0
M  V30 35559 H 3440.38 2.98771 -3.8547 0
M  V30 35560 H 3439.39 1.2393 -5.35651 0
M  V30 35561 H 3440.61 1.60344 -6.59899 0
M  V30 35562 H 3438.56 3.56405 -5.50737 0
M  V30 35563 H 3438.48 2.7575 -7.03916 0
M  V30 35564 H 3439.74 3.9094 -6.74378 0
M  V30 35565 N 3443.97 1.57557 0.0367273 0
M  V30 35566 C 3445.39 1.54705 0.392237 0
M  V30 35567 C 3445.59 0.961601 1.77075 0
M  V30 35568 O 3444.64 0.579306 2.45765 0
M  V30 35569 C 3445.96 2.99189 0.301115 0
M  V30 35570 C 3447.51 3.107 0.378758 0
M  V30 35571 C 3447.98 4.569 0.317169 0
M  V30 35572 N 3449.47 4.6167 0.376196 0
M  V30 35573 C 3450.21 5.72323 0.35131 0
M  V30 35574 N 3449.7 6.92237 0.279166 0
M  V30 35575 N 3451.5 5.60672 0.400473 0
M  V30 35576 H 3443.65 1.93967 -0.865489 0
M  V30 35577 H 3445.91 0.889319 -0.328354 0
M  V30 35578 H 3445.62 3.45718 -0.645881 0
M  V30 35579 H 3445.49 3.60872 1.09778 0
M  V30 35580 H 3447.88 2.64122 1.31619 0
M  V30 35581 H 3447.96 2.51862 -0.447116 0
M  V30 35582 H 3447.6 5.04144 -0.616558 0
M  V30 35583 H 3447.53 5.13641 1.16105 0
M  V30 35584 H 3450.02 3.75391 0.434777 0
M  V30 35585 H 3450.34 7.72345 0.265067 0
M  V30 35586 H 3448.68 6.94567 0.245327 0
M  V30 35587 H 3451.87 4.65886 0.454772 0
M  V30 35588 H 3452.04 6.46899 0.37761 0
M  V30 35589 N 3445.45 -0.308854 1.54544 0
M  V30 35590 C 3446.68 -1.06419 1.77433 0
M  V30 35591 C 3447.09 -1.81208 0.530003 0
M  V30 35592 O 3446.45 -1.7552 -0.499881 0
M  V30 35593 C 3446.5 -2.05087 2.97694 0
M  V30 35594 O 3446.22 -1.33333 4.17317 0
M  V30 35595 C 3447.72 -2.92722 3.3291 0
M  V30 35596 H 3444.94 -0.315938 0.591966 0
M  V30 35597 H 3447.49 -0.350512 2.01474 0
M  V30 35598 H 3445.64 -2.71968 2.75884 0
M  V30 35599 H 3446.06 -1.9953 4.85065 0
M  V30 35600 H 3447.53 -3.5782 4.2032 0
M  V30 35601 H 3448.01 -3.60606 2.50719 0
M  V30 35602 H 3448.61 -2.31382 3.56851 0
M  V30 35603 N 3446.93 -1.46867 -0.571659 0
M  V30 35604 C 3448.18 -1.52974 -1.33142 0
M  V30 35605 C 3448.51 -0.185378 -1.93313 0
M  V30 35606 O 3447.78 0.804439 -1.77085 0
M  V30 35607 C 3448.07 -2.63679 -2.45246 0
M  V30 35608 C 3447.92 -4.07684 -1.90037 0
M  V30 35609 C 3449.24 -2.7039 -3.47243 0
M  V30 35610 H 3446.36 -0.556893 -0.482741 0
M  V30 35611 H 3449 -1.78856 -0.641132 0
M  V30 35612 H 3447.15 -2.41741 -3.04128 0
M  V30 35613 H 3448.82 -4.40942 -1.35527 0
M  V30 35614 H 3447.06 -4.16642 -1.20797 0
M  V30 35615 H 3447.74 -4.80892 -2.71011 0
M  V30 35616 H 3450.21 -2.9014 -2.98258 0
M  V30 35617 H 3449.09 -3.4965 -4.23126 0
M  V30 35618 H 3449.35 -1.76875 -4.05176 0
M  V30 35619 N 3448.41 0.817212 -1.34757 0
M  V30 35620 C 3449.65 1.57608 -1.27623 0
M  V30 35621 C 3449.99 1.93604 0.151983 0
M  V30 35622 O 3449.26 1.6049 1.09878 0
M  V30 35623 C 3449.54 2.87179 -2.17256 0
M  V30 35624 C 3449.4 2.57726 -3.68642 0
M  V30 35625 C 3450.72 3.88798 -2.06213 0
M  V30 35626 H 3447.84 0.571837 -0.464943 0
M  V30 35627 H 3450.48 0.940999 -1.65061 0
M  V30 35628 H 3448.63 3.41376 -1.85458 0
M  V30 35629 H 3450.3 2.09795 -4.10833 0
M  V30 35630 H 3448.54 1.91082 -3.89449 0
M  V30 35631 H 3449.21 3.50148 -4.26732 0
M  V30 35632 H 3451.69 3.43971 -2.34143 0
M  V30 35633 H 3450.57 4.77254 -2.71145 0
M  V30 35634 H 3450.83 4.29673 -1.04083 0
M  V30 35635 N 3449.89 1.1858 1.0381 0
M  V30 35636 C 3450.82 0.938703 2.138 0
M  V30 35637 C 3451.8 -0.124546 1.69643 0
M  V30 35638 O 3452.98 0.0285762 1.94179 0
M  V30 35639 C 3450.11 0.466453 3.44153 0
M  V30 35640 C 3449.07 1.47048 4.01946 0
M  V30 35641 C 3448.39 0.855651 5.27809 0
M  V30 35642 C 3449.69 2.84796 4.37822 0
M  V30 35643 H 3451.39 1.85856 2.34729 0
M  V30 35644 H 3448.93 0.895027 1.12806 0
M  V30 35645 H 3450.88 0.28093 4.20463 0
M  V30 35646 H 3449.61 -0.488984 3.22919 0
M  V30 35647 H 3448.27 1.64299 3.27722 0
M  V30 35648 H 3447.92 -0.107054 5.02886 0
M  V30 35649 H 3447.62 1.52602 5.67438 0
M  V30 35650 H 3449.14 0.680716 6.06794 0
M  V30 35651 H 3450.55 2.71182 5.05107 0
M  V30 35652 H 3448.95 3.4854 4.88508 0
M  V30 35653 H 3450.02 3.38153 3.47535 0
M  V30 35654 N 3451.36 -1.22766 0.988245 0
M  V30 35655 C 3452.59 -1.95414 0.679777 0
M  V30 35656 C 3453.01 -1.7306 -0.754701 0
M  V30 35657 O 3452.36 -1.02681 -1.50874 0
M  V30 35658 C 3452.41 -3.48232 0.970405 0
M  V30 35659 O 3452.14 -3.69833 2.34851 0
M  V30 35660 C 3453.64 -4.38069 0.678987 0
M  V30 35661 H 3450.86 -0.621939 0.251858 0
M  V30 35662 H 3453.4 -1.56044 1.32176 0
M  V30 35663 H 3451.56 -3.85587 0.374309 0
M  V30 35664 H 3451.97 -4.64068 2.4442 0
M  V30 35665 H 3453.44 -5.44064 0.932645 0
M  V30 35666 H 3453.92 -4.37492 -0.386996 0
M  V30 35667 H 3454.53 -4.06333 1.25592 0
M  V30 35668 N 3452.84 -0.760864 -1.38017 0
M  V30 35669 C 3453.75 -0.140273 -2.3418 0
M  V30 35670 C 3454.77 0.692259 -1.59636 0
M  V30 35671 O 3455.94 0.614718 -1.91789 0
M  V30 35672 C 3453.01 0.736871 -3.38779 0
M  V30 35673 C 3452.07 -0.110867 -4.29157 0
M  V30 35674 C 3451.3 0.724506 -5.28759 0
M  V30 35675 O 3451.53 1.96217 -5.35589 0
M  V30 35676 O 3450.46 0.13946 -6.01738 0
M  V30 35677 H 3454.29 -0.934639 -2.88961 0
M  V30 35678 H 3451.87 -0.52186 -1.39989 0
M  V30 35679 H 3453.75 1.23796 -4.02806 0
M  V30 35680 H 3452.43 1.50961 -2.86343 0
M  V30 35681 H 3451.33 -0.658072 -3.68267 0
M  V30 35682 H 3452.67 -0.846431 -4.84867 0
M  V30 35683 N 3454.32 1.49102 -0.510519 0
M  V30 35684 C 3455.54 2.07379 0.0292749 0
M  V30 35685 C 3455.97 1.36715 1.29192 0
M  V30 35686 O 3455.33 0.426869 1.76203 0
M  V30 35687 C 3455.38 3.59689 0.256227 0
M  V30 35688 O 3454.48 3.90399 1.329 0
M  V30 35689 H 3453.82 0.663301 -0.0304565 0
M  V30 35690 H 3456.35 1.9178 -0.712866 0
M  V30 35691 H 3456.36 4.05109 0.484843 0
M  V30 35692 H 3455.04 4.10529 -0.666235 0
M  V30 35693 H 3453.61 3.56779 1.08458 0
M  V30 35694 N 3455.8 0.244768 1.55688 0
M  V30 35695 C 3457.03 -0.384773 2.03291 0
M  V30 35696 C 3457.44 -1.5169 1.12408 0
M  V30 35697 O 3456.8 -1.81977 0.138088 0
M  V30 35698 C 3456.85 -0.894573 3.50257 0
M  V30 35699 O 3456.57 0.192442 4.37677 0
M  V30 35700 C 3458.07 -1.59502 4.13611 0
M  V30 35701 H 3455.29 -0.0916791 0.664707 0
M  V30 35702 H 3457.83 0.368008 2.01162 0
M  V30 35703 H 3455.99 -1.59754 3.52927 0
M  V30 35704 H 3456.4 -0.194332 5.2414 0
M  V30 35705 H 3457.88 -1.90347 5.18143 0
M  V30 35706 H 3458.35 -2.51625 3.59974 0
M  V30 35707 H 3458.96 -0.936676 4.14857 0
M  V30 35708 N 3457.28 -1.57574 -0.0283712 0
M  V30 35709 C 3458.21 -2.09641 -1.02825 0
M  V30 35710 C 3459.19 -0.9991 -1.37666 0
M  V30 35711 O 3460.37 -1.27437 -1.46538 0
M  V30 35712 C 3457.5 -2.57637 -2.32896 0
M  V30 35713 C 3456.46 -3.71638 -2.12294 0
M  V30 35714 C 3455.78 -4.05843 -3.48131 0
M  V30 35715 C 3457.08 -5.0004 -1.50855 0
M  V30 35716 H 3458.78 -2.93432 -0.594825 0
M  V30 35717 H 3456.32 -1.41158 -0.284677 0
M  V30 35718 H 3458.27 -2.92683 -3.03174 0
M  V30 35719 H 3457 -1.7093 -2.78299 0
M  V30 35720 H 3455.66 -3.36943 -1.44448 0
M  V30 35721 H 3455.31 -3.16202 -3.91184 0
M  V30 35722 H 3455.01 -4.82632 -3.35172 0
M  V30 35723 H 3456.53 -4.43424 -4.19771 0
M  V30 35724 H 3457.94 -5.33038 -2.11052 0
M  V30 35725 H 3456.34 -5.81444 -1.48469 0
M  V30 35726 H 3457.41 -4.82573 -0.474456 0
M  V30 35727 N 3458.75 0.300654 -1.54706 0
M  V30 35728 C 3459.98 1.0591 -1.7832 0
M  V30 35729 C 3460.4 1.80146 -0.541209 0
M  V30 35730 O 3459.76 1.7403 0.50826 0
M  V30 35731 C 3459.81 2.01506 -2.99045 0
M  V30 35732 O 3458.91 3.09814 -2.72194 0
M  V30 35733 H 3458.25 0.304232 -0.590203 0
M  V30 35734 H 3460.78 0.337971 -2.01789 0
M  V30 35735 H 3460.79 2.43965 -3.27024 0
M  V30 35736 H 3459.47 1.46879 -3.89101 0
M  V30 35737 H 3458.05 2.71866 -2.55232 0
M  V30 35738 N 3460.23 1.47168 0.563863 0
M  V30 35739 C 3461.46 1.57055 1.3469 0
M  V30 35740 C 3461.88 0.218341 1.87533 0
M  V30 35741 O 3461.23 -0.787387 1.6464 0
M  V30 35742 C 3461.28 2.59049 2.52143 0
M  V30 35743 O 3461 3.89018 2.01485 0
M  V30 35744 C 3462.51 2.79056 3.44445 0
M  V30 35745 H 3459.73 0.530541 0.410813 0
M  V30 35746 H 3462.27 1.92733 0.683697 0
M  V30 35747 H 3460.42 2.26323 3.14415 0
M  V30 35748 H 3460.84 4.44694 2.78114 0
M  V30 35749 H 3462.31 3.543 4.23291 0
M  V30 35750 H 3462.79 1.86638 3.97571 0
M  V30 35751 H 3463.4 3.12953 2.87994 0
M  V30 35752 N 3461.71 -0.810054 1.35188 0
M  V30 35753 C 3462.67 -1.90329 1.27701 0
M  V30 35754 C 3463.67 -1.59683 0.189244 0
M  V30 35755 O 3464.86 -1.6848 0.442718 0
M  V30 35756 C 3462 -3.26669 0.974688 0
M  V30 35757 H 3463.19 -1.98388 2.24905 0
M  V30 35758 H 3460.74 -1.00552 1.19662 0
M  V30 35759 H 3461.48 -3.24299 0.0063638 0
M  V30 35760 H 3461.26 -3.50298 1.76164 0
M  V30 35761 H 3462.75 -4.06702 0.947814 0
M  V30 35762 N 3463.19 -1.19129 -1.0318 0
M  V30 35763 C 3464.12 -0.950028 -2.133 0
M  V30 35764 C 3465.1 0.115547 -1.69707 0
M  V30 35765 O 3466.28 -0.0388736 -1.94161 0
M  V30 35766 C 3463.41 -0.484697 -3.43901 0
M  V30 35767 C 3462.37 -1.49177 -4.01161 0
M  V30 35768 C 3461.69 -0.883629 -5.27348 0
M  V30 35769 C 3462.99 -2.87114 -4.36306 0
M  V30 35770 H 3464.69 -1.87099 -2.3374 0
M  V30 35771 H 3462.23 -0.900997 -1.1233 0
M  V30 35772 H 3464.19 -0.303224 -4.20308 0
M  V30 35773 H 3462.91 0.471852 -3.23174 0
M  V30 35774 H 3461.57 -1.66034 -3.26846 0
M  V30 35775 H 3461.22 0.0803828 -5.02936 0
M  V30 35776 H 3460.92 -1.55609 -5.66621 0
M  V30 35777 H 3462.44 -0.712886 -6.06424 0
M  V30 35778 H 3463.86 -2.73857 -5.03662 0
M  V30 35779 H 3462.25 -3.51126 -4.86652 0
M  V30 35780 H 3463.32 -3.39991 -3.45737 0
M  V30 35781 N 3464.67 1.2224 -0.994741 0
M  V30 35782 C 3465.63 2.22462 -0.551658 0
M  V30 35783 C 3466.63 1.56568 0.36647 0
M  V30 35784 O 3467.82 1.7348 0.158173 0
M  V30 35785 C 3464.95 3.40328 0.197356 0
M  V30 35786 H 3466.14 2.63176 -1.43799 0
M  V30 35787 H 3463.7 1.35323 -0.782144 0
M  V30 35788 H 3464.43 3.05089 1.09959 0
M  V30 35789 H 3464.22 3.8937 -0.461897 0
M  V30 35790 H 3465.71 4.1465 0.495461 0
M  V30 35791 N 3466.14 0.768172 1.37611 0
M  V30 35792 C 3467.05 0.15269 2.34103 0
M  V30 35793 C 3468.07 -0.683783 1.60001 0
M  V30 35794 O 3469.25 -0.604538 1.92113 0
M  V30 35795 C 3466.31 -0.718894 3.39165 0
M  V30 35796 C 3465.37 0.133625 4.29092 0
M  V30 35797 C 3464.61 -0.696454 5.29136 0
M  V30 35798 O 3464.83 -1.93374 5.36622 0
M  V30 35799 O 3463.76 -0.107546 6.01804 0
M  V30 35800 H 3467.59 0.94995 2.88461 0
M  V30 35801 H 3465.17 0.529277 1.3971 0
M  V30 35802 H 3467.06 -1.21658 4.03457 0
M  V30 35803 H 3465.73 -1.4944 2.8714 0
M  V30 35804 H 3464.64 0.677592 3.67912 0
M  V30 35805 H 3465.97 0.872133 4.84412 0
M  V30 35806 N 3467.62 -1.48829 0.518419 0
M  V30 35807 C 3468.55 -2.32267 -0.239644 0
M  V30 35808 C 3469.53 -1.41361 -0.946105 0
M  V30 35809 O 3470.72 -1.70258 -0.934132 0
M  V30 35810 C 3467.85 -3.22291 -1.29405 0
M  V30 35811 C 3466.8 -4.2213 -0.706429 0
M  V30 35812 C 3466.13 -5.01208 -1.86264 0
M  V30 35813 C 3467.43 -5.21354 0.31417 0
M  V30 35814 H 3469.12 -2.95894 0.456852 0
M  V30 35815 H 3466.67 -1.42292 0.221151 0
M  V30 35816 H 3468.62 -3.79483 -1.83223 0
M  V30 35817 H 3467.35 -2.56641 -2.01997 0
M  V30 35818 H 3466 -3.66108 -0.189859 0
M  V30 35819 H 3465.65 -4.31992 -2.57666 0
M  V30 35820 H 3465.35 -5.68775 -1.47544 0
M  V30 35821 H 3466.88 -5.61249 -2.40483 0
M  V30 35822 H 3468.29 -5.73137 -0.136503 0
M  V30 35823 H 3466.69 -5.96908 0.618131 0
M  V30 35824 H 3467.76 -4.69197 1.22402 0
M  V30 35825 N 3469.1 -0.253021 -1.55556 0
M  V30 35826 C 3470.06 0.630667 -2.20353 0
M  V30 35827 C 3471.06 1.09814 -1.17463 0
M  V30 35828 O 3472.25 1.00187 -1.42507 0
M  V30 35829 C 3469.39 1.86752 -2.85196 0
M  V30 35830 H 3470.58 0.0652412 -2.99829 0
M  V30 35831 H 3468.13 -0.0035073 -1.563 0
M  V30 35832 H 3468.87 2.47402 -2.09673 0
M  V30 35833 H 3468.65 1.54046 -3.60572 0
M  V30 35834 H 3470.14 2.49642 -3.34767 0
M  V30 35835 N 3470.58 1.57587 0.0200142 0
M  V30 35836 C 3471.81 1.93949 0.720522 0
M  V30 35837 C 3472.22 0.853528 1.68405 0
M  V30 35838 O 3471.58 -0.169305 1.81713 0
M  V30 35839 C 3471.63 3.30273 1.46976 0
M  V30 35840 O 3471.35 4.34698 0.544895 0
M  V30 35841 C 3472.85 3.80972 2.2666 0
M  V30 35842 H 3470.07 0.63989 0.201945 0
M  V30 35843 H 3472.62 2.04485 -0.0251534 0
M  V30 35844 H 3470.77 3.21107 2.16724 0
M  V30 35845 H 3471.18 5.13443 1.0713 0
M  V30 35846 H 3472.66 4.78844 2.74613 0
M  V30 35847 H 3473.14 3.12635 3.08474 0
M  V30 35848 H 3473.74 3.93251 1.61969 0
M  V30 35849 N 3472.06 -0.292445 1.54863 0
M  V30 35850 C 3473.47 -0.638585 1.46268 0
M  V30 35851 C 3473.67 -1.90355 0.660858 0
M  V30 35852 O 3472.73 -2.51914 0.171953 0
M  V30 35853 C 3474.04 -0.783624 2.9031 0
M  V30 35854 C 3475.59 -0.878952 3.00405 0
M  V30 35855 C 3476.06 -1.05592 4.45662 0
M  V30 35856 N 3477.56 -1.12192 4.49408 0
M  V30 35857 C 3478.29 -1.2773 5.58993 0
M  V30 35858 N 3477.79 -1.40111 6.78484 0
M  V30 35859 N 3479.58 -1.30686 5.46697 0
M  V30 35860 H 3471.73 0.538557 2.05459 0
M  V30 35861 H 3473.99 0.17937 0.930876 0
M  V30 35862 H 3473.7 0.0751055 3.5162 0
M  V30 35863 H 3473.57 -1.66999 3.38218 0
M  V30 35864 H 3475.96 -1.72816 2.39204 0
M  V30 35865 H 3476.04 0.0316074 2.5578 0
M  V30 35866 H 3475.69 -0.211446 5.0746 0
M  V30 35867 H 3475.62 -1.98083 4.87925 0
M  V30 35868 H 3478.11 -1.03942 3.63324 0
M  V30 35869 H 3478.42 -1.51746 7.57755 0
M  V30 35870 H 3476.76 -1.37151 6.81333 0
M  V30 35871 H 3479.96 -1.2063 4.5229 0
M  V30 35872 H 3480.13 -1.42452 6.32148 0
M  V30 35873 N 3473.53 -1.47465 -0.55605 0
M  V30 35874 C 3474.76 -1.58014 -1.34337 0
M  V30 35875 C 3475.18 -0.231171 -1.86674 0
M  V30 35876 O 3474.54 0.793145 -1.6303 0
M  V30 35877 C 3474.59 -2.60981 -2.4884 0
M  V30 35878 O 3473.69 -2.16332 -3.51104 0
M  V30 35879 H 3473.04 -0.530767 -0.398977 0
M  V30 35880 H 3475.57 -1.93254 -0.671864 0
M  V30 35881 H 3475.58 -2.81437 -2.95393 0
M  V30 35882 H 3474.25 -3.58928 -2.10103 0
M  V30 35883 H 3472.83 -2.0598 -3.10848 0
M  V30 35884 N 3475.01 0.802873 -1.35616 0
M  V30 35885 C 3476.26 1.56014 -1.29096 0
M  V30 35886 C 3476.59 1.94041 0.133583 0
M  V30 35887 O 3475.84 1.61878 1.09972 0
M  V30 35888 C 3476.14 2.85756 -2.14659 0
M  V30 35889 C 3475.81 2.6693 -3.63399 0
M  V30 35890 C 3474.47 2.61504 -4.03942 0
M  V30 35891 C 3476.82 2.49204 -4.57763 0
M  V30 35892 C 3474.15 2.363 -5.3701 0
M  V30 35893 C 3476.5 2.25529 -5.91033 0
M  V30 35894 C 3475.17 2.18527 -6.30716 0
M  V30 35895 H 3474.44 0.570896 -0.472397 0
M  V30 35896 H 3477.08 0.927381 -1.67547 0
M  V30 35897 H 3475.39 3.53429 -1.69101 0
M  V30 35898 H 3477.09 3.43473 -2.06947 0
M  V30 35899 H 3473.68 2.72003 -3.31229 0
M  V30 35900 H 3477.86 2.52407 -4.27323 0
M  V30 35901 H 3473.12 2.29351 -5.66752 0
M  V30 35902 H 3477.29 2.10805 -6.63728 0
M  V30 35903 H 3474.92 1.98759 -7.33757 0
M  V30 35904 N 3476.49 1.19674 1.02547 0
M  V30 35905 C 3477.74 0.999494 1.75655 0
M  V30 35906 C 3478.06 -0.470484 1.89239 0
M  V30 35907 O 3477.33 -1.34059 1.42846 0
M  V30 35908 H 3475.91 0.366832 0.650725 0
M  V30 35909 H 3478.57 1.50629 1.23681 0
M  V30 35910 H 3477.67 1.4504 2.76351 0
M  V30 35911 N 3477.97 -1.21711 1.00121 0
M  V30 35912 C 3479.19 -1.95223 0.700206 0
M  V30 35913 C 3479.62 -1.73352 -0.730107 0
M  V30 35914 O 3478.98 -1.01797 -1.50024 0
M  V30 35915 C 3479.03 -3.45812 1.02208 0
M  V30 35916 O 3478.13 -4.1221 0.125261 0
M  V30 35917 H 3477.47 -0.610447 0.261249 0
M  V30 35918 H 3480 -1.54575 1.34043 0
M  V30 35919 H 3480.01 -3.96366 0.967362 0
M  V30 35920 H 3478.69 -3.61054 2.06428 0
M  V30 35921 H 3477.26 -3.72151 0.236179 0
M  V30 35922 N 3479.45 -0.775459 -1.37202 0
M  V30 35923 C 3480.67 -0.351772 -2.04395 0
M  V30 35924 C 3481.1 1.01911 -1.58101 0
M  V30 35925 O 3480.46 1.65378 -0.742961 0
M  V30 35926 C 3480.5 -0.408168 -3.58282 0
M  V30 35927 O 3479.61 0.590032 -4.08157 0
M  V30 35928 H 3478.95 -0.151658 -0.646449 0
M  V30 35929 H 3481.48 -1.05268 -1.75441 0
M  V30 35930 H 3481.49 -0.266783 -4.07127 0
M  V30 35931 H 3480.16 -1.40826 -3.91332 0
M  V30 35932 H 3478.74 0.411459 -3.70623 0
M  V30 35933 N 3480.93 1.48552 -0.526305 0
M  V30 35934 C 3482.15 2.07399 0.00727787 0
M  V30 35935 C 3482.58 1.38077 1.27735 0
M  V30 35936 O 3481.93 0.445534 1.7574 0
M  V30 35937 C 3481.98 3.5994 0.218063 0
M  V30 35938 O 3481.09 3.91787 1.28752 0
M  V30 35939 H 3480.43 0.662941 -0.03749 0
M  V30 35940 H 3482.96 1.91013 -0.733167 0
M  V30 35941 H 3482.97 4.056 0.441849 0
M  V30 35942 H 3481.64 4.09799 -0.70974 0
M  V30 35943 H 3480.22 3.57909 1.04668 0
M  V30 35944 N 3482.4 0.261267 1.55419 0
M  V30 35945 C 3483.63 -0.363189 2.03687 0
M  V30 35946 C 3484.05 -1.5049 1.1401 0
M  V30 35947 O 3483.4 -1.8182 0.157381 0
M  V30 35948 C 3483.45 -0.857373 3.51186 0
M  V30 35949 O 3483.18 0.238853 4.37448 0
M  V30 35950 C 3484.68 -1.55106 4.15279 0
M  V30 35951 H 3481.9 -0.0846239 0.665642 0
M  V30 35952 H 3484.44 0.389323 2.0076 0
M  V30 35953 H 3482.6 -1.56002 3.54601 0
M  V30 35954 H 3483.01 -0.138729 5.24317 0
M  V30 35955 H 3484.48 -1.84841 5.20133 0
M  V30 35956 H 3484.96 -2.47793 3.62623 0
M  V30 35957 H 3485.57 -0.892622 4.15827 0
M  V30 35958 N 3483.88 -1.57596 -0.0116567 0
M  V30 35959 C 3485.11 -1.94726 -0.71389 0
M  V30 35960 C 3485.53 -0.862594 -1.67155 0
M  V30 35961 O 3484.89 0.180277 -1.80401 0
M  V30 35962 C 3484.94 -3.30944 -1.43208 0
M  V30 35963 O 3484.04 -3.24424 -2.54604 0
M  V30 35964 H 3483.38 -0.636008 -0.190761 0
M  V30 35965 H 3485.91 -2.04565 0.0380607 0
M  V30 35966 H 3485.92 -3.6624 -1.79812 0
M  V30 35967 H 3484.6 -4.09446 -0.729834 0
M  V30 35968 H 3483.17 -3.00786 -2.20414 0
M  V30 35969 N 3485.36 0.284228 -1.55016 0
M  V30 35970 C 3486.61 1.01529 -1.74746 0
M  V30 35971 C 3486.93 1.87218 -0.545367 0
M  V30 35972 O 3486.2 1.90894 0.440013 0
M  V30 35973 H 3484.78 0.377853 -0.644388 0
M  V30 35974 H 3487.44 0.311166 -1.924 0
M  V30 35975 H 3486.54 1.65873 -2.64372 0
M  V30 35976 N 3486.84 1.47758 0.548222 0
M  V30 35977 C 3488.09 1.54102 1.30137 0
M  V30 35978 C 3488.4 0.211834 1.9445 0
M  V30 35979 O 3489.61 0.15335 2.71067 0
M  V30 35980 C 3488.06 2.71691 2.36034 0
M  V30 35981 C 3487.67 4.11176 1.77872 0
M  V30 35982 C 3489.41 2.87335 3.12473 0
M  V30 35983 C 3487.32 5.20052 2.81602 0
M  V30 35984 H 3486.25 0.573627 0.489354 0
M  V30 35985 H 3488.9 1.74052 0.581206 0
M  V30 35986 H 3487.28 2.45138 3.11004 0
M  V30 35987 H 3488.46 4.47671 1.09213 0
M  V30 35988 H 3486.77 4.00495 1.13987 0
M  V30 35989 H 3489.37 3.65844 3.89951 0
M  V30 35990 H 3489.71 1.9611 3.67215 0
M  V30 35991 H 3490.25 3.13701 2.44615 0
M  V30 35992 H 3486.98 6.13183 2.31703 0
M  V30 35993 H 3486.5 4.88065 3.48643 0
M  V30 35994 H 3488.18 5.47388 3.44928 0
M  V30 35995 N 3488.32 -0.79567 1.3604 0
M  V30 35996 C 3489.54 -1.58436 1.33062 0
M  V30 35997 C 3489.96 -1.88588 -0.0895164 0
M  V30 35998 O 3489.32 -1.49645 -1.04463 0
M  V30 35999 C 3489.37 -2.90911 2.14599 0
M  V30 36000 O 3489.09 -2.62062 3.51077 0
M  V30 36001 C 3490.59 -3.85239 2.19331 0
M  V30 36002 H 3487.81 -0.491617 0.456677 0
M  V30 36003 H 3490.35 -0.988003 1.7905 0
M  V30 36004 H 3488.51 -3.47033 1.72183 0
M  V30 36005 H 3488.92 -3.46725 3.93551 0
M  V30 36006 H 3490.4 -4.75271 2.80752 0
M  V30 36007 H 3490.87 -4.22629 1.19504 0
M  V30 36008 H 3491.48 -3.35051 2.61956 0
M  V30 36009 N 3489.79 -1.20217 -1.0191 0
M  V30 36010 C 3491.04 -1.0088 -1.75122 0
M  V30 36011 C 3491.36 0.460441 -1.89486 0
M  V30 36012 O 3490.63 1.333 -1.43555 0
M  V30 36013 H 3489.21 -0.370278 -0.648771 0
M  V30 36014 H 3491.88 -1.51282 -1.22881 0
M  V30 36015 H 3490.97 -1.46504 -2.75578 0
M  V30 36016 N 3491.27 1.21178 -1.00765 0
M  V30 36017 C 3492.55 1.85934 -0.607268 0
M  V30 36018 C 3492.93 1.90239 0.915015 0
M  V30 36019 O 3492.28 1.40364 1.80306 0
M  V30 36020 C 3492.49 3.26049 -1.24471 0
M  V30 36021 C 3493.84 4.02416 -1.3545 0
M  V30 36022 O 3494.86 3.3537 -1.20024 0
M  V30 36023 O 3493.72 5.22464 -1.60291 0
M  V30 36024 H 3490.81 0.800324 -0.208352 0
M  V30 36025 H 3493.36 1.2884 -1.10446 0
M  V30 36026 H 3492.13 3.17631 -2.2853 0
M  V30 36027 H 3491.75 3.90766 -0.734035 0
M  V30 36028 N 3492.75 0.782725 1.36789 0
M  V30 36029 C 3493.7 0.164399 2.32018 0
M  V30 36030 C 3494.69 -0.672543 1.55477 0
M  V30 36031 O 3495.9 -0.568376 1.70791 0
M  V30 36032 H 3492.27 0.0343829 0.751214 0
M  V30 36033 H 3494.24 0.983126 2.8174 0
M  V30 36034 C 3492.99 -0.691667 3.40751 0
M  V30 36035 H 3492.32 -0.0570182 3.99759 0
M  V30 36036 H 3493.76 -1.0911 4.09721 0
M  V30 36037 C 3492.22 -1.84703 2.81756 0
M  V30 36038 O 3492.75 -2.9432 2.73383 0
M  V30 36039 N 3490.95 -1.65106 2.39141 0
M  V30 36040 H 3490.5 -0.759444 2.46151 0
M  V30 36041 H 3490.46 -2.42573 2.00014 0
M  V30 36042 N 3494.23 -1.48271 0.534176 0
M  V30 36043 C 3495.46 -2.06899 0.00578112 0
M  V30 36044 C 3495.87 -1.39014 -1.27752 0
M  V30 36045 O 3495.23 -0.479024 -1.76101 0
M  V30 36046 C 3495.28 -3.60845 -0.217513 0
M  V30 36047 O 3495 -4.26181 1.01495 0
M  V30 36048 C 3496.5 -4.3628 -0.785812 0
M  V30 36049 H 3493.72 -0.670065 0.0354084 0
M  V30 36050 H 3496.27 -1.90602 0.741017 0
M  V30 36051 H 3494.42 -3.76733 -0.902809 0
M  V30 36052 H 3494.83 -5.18389 0.798291 0
M  V30 36053 H 3496.31 -5.44754 -0.891455 0
M  V30 36054 H 3496.79 -4.00992 -1.79171 0
M  V30 36055 H 3497.39 -4.25079 -0.136948 0
M  V30 36056 N 3495.71 -0.269505 -1.55279 0
M  V30 36057 C 3496.93 0.352382 -2.03877 0
M  V30 36058 C 3497.35 1.49883 -1.14807 0
M  V30 36059 O 3496.71 1.81734 -0.167021 0
M  V30 36060 C 3496.76 0.838737 -3.51635 0
M  V30 36061 O 3496.48 -0.262048 -4.37316 0
M  V30 36062 C 3497.98 1.52901 -4.16096 0
M  V30 36063 H 3495.2 0.0810926 -0.666082 0
M  V30 36064 H 3497.74 -0.399964 -2.00551 0
M  V30 36065 H 3495.9 1.54119 -3.55424 0
M  V30 36066 H 3496.31 0.110921 -5.24383 0
M  V30 36067 H 3497.79 1.8208 -5.21106 0
M  V30 36068 H 3498.26 2.45866 -3.63932 0
M  V30 36069 H 3498.87 0.870557 -4.16295 0
M  V30 36070 N 3497.18 1.576 0.00329885 0
M  V30 36071 C 3498.41 1.94702 0.69991 0
M  V30 36072 C 3498.83 0.871342 1.67491 0
M  V30 36073 O 3498.18 -0.150022 1.81882 0
M  V30 36074 C 3498.24 3.31813 1.43465 0
M  V30 36075 O 3497.96 4.35252 0.498759 0
M  V30 36076 C 3499.46 3.83355 2.22607 0
M  V30 36077 H 3496.68 0.641996 0.195146 0
M  V30 36078 H 3499.22 2.04446 -0.0468403 0
M  V30 36079 H 3497.38 3.23387 2.13306 0
M  V30 36080 H 3497.79 5.1455 1.01678 0
M  V30 36081 H 3499.26 4.8173 2.69519 0
M  V30 36082 H 3499.74 3.15889 3.05141 0
M  V30 36083 H 3500.35 3.94946 1.57789 0
M  V30 36084 N 3498.66 -0.276003 1.55164 0
M  V30 36085 C 3499.89 -1.0306 1.79982 0
M  V30 36086 C 3500.31 -1.79262 0.5698 0
M  V30 36087 O 3499.67 -1.74816 -0.480509 0
M  V30 36088 C 3499.72 -1.96723 3.02213 0
M  V30 36089 O 3498.82 -3.05444 2.77088 0
M  V30 36090 H 3498.16 -0.294803 0.594968 0
M  V30 36091 H 3500.69 -0.305825 2.02301 0
M  V30 36092 H 3500.7 -2.38732 3.30864 0
M  V30 36093 H 3499.38 -1.4067 3.91388 0
M  V30 36094 H 3497.96 -2.67771 2.59524 0
M  V30 36095 N 3500.14 -1.48046 -0.540378 0
M  V30 36096 C 3501.37 -1.5943 -1.32653 0
M  V30 36097 C 3501.79 -0.250957 -1.86418 0
M  V30 36098 O 3501.15 0.775809 -1.63862 0
M  V30 36099 C 3501.2 -2.63606 -2.46058 0
M  V30 36100 O 3500.3 -2.20044 -3.4879 0
M  V30 36101 H 3499.64 -0.534969 -0.393325 0
M  V30 36102 H 3502.17 -1.93956 -0.651329 0
M  V30 36103 H 3502.18 -2.84555 -2.92391 0
M  V30 36104 H 3500.86 -3.61136 -2.06284 0
M  V30 36105 H 3499.43 -2.09266 -3.08646 0
M  V30 36106 N 3501.62 0.788444 -1.3646 0
M  V30 36107 C 3502.53 1.93242 -1.33021 0
M  V30 36108 C 3503.54 1.72443 -0.232242 0
M  V30 36109 O 3504.72 1.95964 -0.464777 0
M  V30 36110 C 3501.79 3.28119 -1.11976 0
M  V30 36111 C 3500.85 3.61689 -2.31256 0
M  V30 36112 C 3500.08 4.9013 -2.11206 0
M  V30 36113 O 3500.3 5.59933 -1.08774 0
M  V30 36114 O 3499.24 5.22379 -2.99005 0
M  V30 36115 H 3503.06 1.99094 -2.29337 0
M  V30 36116 H 3500.65 0.928835 -1.17017 0
M  V30 36117 H 3502.53 4.08829 -1.02161 0
M  V30 36118 H 3501.2 3.23158 -0.187228 0
M  V30 36119 H 3500.11 2.81282 -2.4664 0
M  V30 36120 H 3501.44 3.71375 -3.23019 0
M  V30 36121 N 3503.1 1.20755 1.01271 0
M  V30 36122 C 3504.51 1.01992 1.56379 0
M  V30 36123 C 3504.86 -0.422558 1.91596 0
M  V30 36124 O 3503.98 -1.30457 1.72655 0
M  V30 36125 C 3504.58 1.84515 2.84147 0
M  V30 36126 C 3503.14 1.70107 3.35769 0
M  V30 36127 C 3502.28 1.82206 2.09036 0
M  V30 36128 H 3505.24 1.3489 0.836081 0
M  V30 36129 H 3505.26 1.35083 3.55715 0
M  V30 36130 H 3504.77 2.89495 2.58485 0
M  V30 36131 H 3502.87 0.677796 3.66383 0
M  V30 36132 H 3502.98 2.51614 4.07709 0
M  V30 36133 H 3501.35 1.25433 2.21673 0
M  V30 36134 H 3502.13 2.88678 1.85795 0
M  V30 36135 N 3504.58 -1.20642 1.01406 0
M  V30 36136 C 3505.54 -2.21556 0.58698 0
M  V30 36137 C 3506.54 -1.57132 -0.341515 0
M  V30 36138 O 3507.73 -1.7371 -0.130554 0
M  V30 36139 C 3504.86 -3.40599 -0.143188 0
M  V30 36140 H 3506.05 -2.60855 1.47968 0
M  V30 36141 H 3503.61 -1.34061 0.803574 0
M  V30 36142 H 3504.34 -3.068 -1.05092 0
M  V30 36143 H 3504.13 -3.88586 0.523784 0
M  V30 36144 H 3505.62 -4.15386 -0.429431 0
M  V30 36145 N 3506.05 -0.789968 -1.36372 0
M  V30 36146 C 3507.46 -0.425709 -1.81782 0
M  V30 36147 C 3507.82 1.05042 -1.65713 0
M  V30 36148 O 3506.94 1.81503 -1.17838 0
M  V30 36149 C 3507.54 -0.765924 -3.30029 0
M  V30 36150 C 3506.09 -0.454487 -3.73646 0
M  V30 36151 C 3505.24 -1.00028 -2.5863 0
M  V30 36152 H 3508.19 -0.983066 -1.24585 0
M  V30 36153 H 3508.21 -0.0572292 -3.80457 0
M  V30 36154 H 3507.73 -1.84032 -3.41692 0
M  V30 36155 H 3505.83 0.611853 -3.67542 0
M  V30 36156 H 3505.94 -0.975483 -4.69064 0
M  V30 36157 H 3504.3 -0.423478 -2.51155 0
M  V30 36158 H 3505.09 -2.08045 -2.73079 0
M  V30 36159 N 3507.53 1.47986 -0.542031 0
M  V30 36160 C 3508.76 2.07395 -0.0147199 0
M  V30 36161 C 3509.18 1.39424 1.26263 0
M  V30 36162 O 3508.54 0.464149 1.75258 0
M  V30 36163 C 3508.59 3.60151 0.179874 0
M  V30 36164 O 3507.69 3.9313 1.24589 0
M  V30 36165 H 3507.03 0.662506 -0.0445193 0
M  V30 36166 H 3509.56 1.90224 -0.753385 0
M  V30 36167 H 3509.57 4.06046 0.398805 0
M  V30 36168 H 3508.25 4.09024 -0.753165 0
M  V30 36169 H 3506.82 3.58999 1.00866 0
M  V30 36170 N 3509.01 0.277736 1.55133 0
M  V30 36171 C 3510.26 -0.337627 1.9926 0
M  V30 36172 C 3510.58 -1.56181 1.16758 0
M  V30 36173 O 3509.85 -1.94197 0.257741 0
M  V30 36174 H 3508.43 -0.127738 0.735997 0
M  V30 36175 H 3511.09 0.383679 1.91086 0
M  V30 36176 H 3510.19 -0.625693 3.05764 0
M  V30 36177 N 3510.49 -1.57599 0.00505908 0
M  V30 36178 C 3511.73 -1.92645 -0.68317 0
M  V30 36179 C 3512.09 -0.879808 -1.70656 0
M  V30 36180 O 3513.29 -1.11568 -2.44553 0
M  V30 36181 C 3511.56 -3.32722 -1.30503 0
M  V30 36182 S 3513.12 -3.8966 -2.01768 0
M  V30 36183 H 3509.94 -0.67428 -0.225539 0
M  V30 36184 H 3512.54 -1.95399 0.0629598 0
M  V30 36185 H 3511.25 -4.06732 -0.547437 0
M  V30 36186 H 3510.78 -3.33354 -2.08899 0
M  V30 36187 H 3512.79 -3.71145 -3.29341 0
M  V30 36188 N 3511.97 0.267771 -1.55309 0
M  V30 36189 C 3513.38 0.838429 -1.66815 0
M  V30 36190 C 3513.73 1.86844 -0.598642 0
M  V30 36191 O 3512.85 2.14845 0.258922 0
M  V30 36192 C 3513.45 1.52753 -3.0241 0
M  V30 36193 C 3512.01 2.04615 -3.15927 0
M  V30 36194 C 3511.15 0.889998 -2.6263 0
M  V30 36195 H 3514.1 0.0440076 -1.58639 0
M  V30 36196 H 3514.13 2.39473 -2.95691 0
M  V30 36197 H 3513.64 0.777628 -3.8023 0
M  V30 36198 H 3511.74 2.8255 -2.42891 0
M  V30 36199 H 3511.85 2.25787 -4.2256 0
M  V30 36200 H 3510.22 1.28481 -2.1992 0
M  V30 36201 H 3511 0.153519 -3.42957 0
M  V30 36202 N 3513.44 1.48331 0.532519 0
M  V30 36203 C 3514.85 1.49787 1.11448 0
M  V30 36204 C 3515.21 0.266242 1.94385 0
M  V30 36205 O 3514.33 -0.626844 2.07122 0
M  V30 36206 C 3514.93 2.7141 2.02785 0
M  V30 36207 C 3513.48 2.75747 2.56204 0
M  V30 36208 C 3512.63 2.43264 1.33109 0
M  V30 36209 H 3515.58 1.55483 0.317897 0
M  V30 36210 H 3515.6 2.49784 2.87034 0
M  V30 36211 H 3515.12 3.61034 1.42395 0
M  V30 36212 H 3513.22 1.90325 3.20323 0
M  V30 36213 H 3513.33 3.77107 2.95511 0
M  V30 36214 H 3511.69 1.94365 1.64603 0
M  V30 36215 H 3512.48 3.35124 0.74475 0
M  V30 36216 N 3514.92 -0.781196 1.36876 0
M  V30 36217 C 3516.2 -1.52807 1.22104 0
M  V30 36218 C 3516.58 -2.10249 -0.189365 0
M  V30 36219 O 3515.93 -1.94703 -1.19595 0
M  V30 36220 C 3516.14 -2.61648 2.30957 0
M  V30 36221 C 3517.48 -3.29308 2.68033 0
M  V30 36222 O 3518.51 -2.71937 2.30062 0
M  V30 36223 O 3517.37 -4.33009 3.33415 0
M  V30 36224 H 3514.46 -0.676341 0.475911 0
M  V30 36225 H 3517.01 -0.818972 1.4863 0
M  V30 36226 H 3515.78 -2.17255 3.25447 0
M  V30 36227 H 3515.4 -3.40168 2.05843 0
M  V30 36228 N 3516.4 -1.21291 -1.0063 0
M  V30 36229 C 3517.62 -1.05604 -1.78501 0
M  V30 36230 C 3518.05 0.389847 -1.84016 0
M  V30 36231 O 3517.41 1.28118 -1.28279 0
M  V30 36232 C 3517.46 -1.65631 -3.2031 0
M  V30 36233 O 3516.56 -0.900912 -4.02439 0
M  V30 36234 H 3515.9 -0.371755 -0.550176 0
M  V30 36235 H 3518.43 -1.60805 -1.26502 0
M  V30 36236 H 3518.44 -1.69798 -3.70989 0
M  V30 36237 H 3517.12 -2.70855 -3.15611 0
M  V30 36238 H 3515.69 -0.934241 -3.61007 0
M  V30 36239 N 3517.88 1.20103 -1.02045 0
M  V30 36240 C 3519.15 1.8528 -0.626955 0
M  V30 36241 C 3519.53 1.91198 0.894786 0
M  V30 36242 O 3518.88 1.42268 1.78807 0
M  V30 36243 C 3519.09 3.2471 -1.27923 0
M  V30 36244 C 3520.44 4.00956 -1.39711 0
M  V30 36245 O 3521.46 3.34078 -1.23574 0
M  V30 36246 O 3520.32 5.20735 -1.65823 0
M  V30 36247 H 3517.42 0.798069 -0.216829 0
M  V30 36248 H 3519.96 1.27661 -1.11807 0
M  V30 36249 H 3518.74 3.1519 -2.31886 0
M  V30 36250 H 3518.36 3.89965 -0.775439 0
M  V30 36251 N 3519.36 0.797189 1.35951 0
M  V30 36252 C 3520.32 0.206788 2.28265 0
M  V30 36253 C 3521.32 -0.600404 1.4917 0
M  V30 36254 O 3522.51 -0.420261 1.69055 0
M  V30 36255 C 3519.64 -0.712826 3.33364 0
M  V30 36256 H 3520.83 1.02087 2.8199 0
M  V30 36257 H 3518.39 0.567163 1.45647 0
M  V30 36258 H 3519.12 -1.55095 2.84809 0
M  V30 36259 H 3518.91 -0.135858 3.91865 0
M  V30 36260 H 3520.4 -1.12053 4.02286 0
M  V30 36261 N 3520.83 -1.47696 0.549872 0
M  V30 36262 C 3521.74 -2.337 -0.205245 0
M  V30 36263 C 3522.76 -1.47736 -0.919245 0
M  V30 36264 O 3523.94 -1.80679 -0.889776 0
M  V30 36265 C 3521 -3.2428 -1.22652 0
M  V30 36266 C 3520.06 -4.2613 -0.52074 0
M  V30 36267 C 3519.3 -5.12381 -1.49336 0
M  V30 36268 O 3519.52 -5.00956 -2.72763 0
M  V30 36269 O 3518.45 -5.93162 -1.02186 0
M  V30 36270 H 3522.28 -2.99555 0.500035 0
M  V30 36271 H 3519.86 -1.46136 0.310563 0
M  V30 36272 H 3521.75 -3.80251 -1.81623 0
M  V30 36273 H 3520.42 -2.61062 -1.91385 0
M  V30 36274 H 3519.33 -3.73938 0.109972 0
M  V30 36275 H 3520.66 -4.92041 0.125009 0
M  V30 36276 N 3522.31 -0.285959 -1.54984 0
M  V30 36277 C 3523.54 0.333585 -2.047 0
M  V30 36278 C 3523.96 1.47873 -1.16254 0
M  V30 36279 O 3523.32 1.80562 -0.163407 0
M  V30 36280 C 3523.37 0.781808 -3.52023 0
M  V30 36281 O 3522.47 1.88805 -3.66642 0
M  V30 36282 H 3521.81 0.0673087 -0.66058 0
M  V30 36283 H 3524.34 -0.423421 -2.00171 0
M  V30 36284 H 3524.35 1.07466 -3.93592 0
M  V30 36285 H 3523.03 -0.0559661 -4.15862 0
M  V30 36286 H 3521.61 1.5969 -3.36977 0
M  V30 36287 N 3523.79 1.57594 -0.0134169 0
M  V30 36288 C 3525.02 1.9515 0.678235 0
M  V30 36289 C 3525.43 0.887601 1.67088 0
M  V30 36290 O 3524.77 -0.140742 1.8316 0
M  V30 36291 C 3524.83 3.28768 1.45436 0
M  V30 36292 C 3524.5 4.5275 0.621809 0
M  V30 36293 C 3525.49 5.19811 -0.0962454 0
M  V30 36294 C 3523.18 4.99125 0.56383 0
M  V30 36295 C 3525.17 6.31556 -0.861121 0
M  V30 36296 C 3522.86 6.10757 -0.204762 0
M  V30 36297 C 3523.86 6.7683 -0.915958 0
M  V30 36298 O 3523.55 7.86321 -1.67198 0
M  V30 36299 H 3523.28 0.647872 0.192971 0
M  V30 36300 H 3525.83 2.05298 -0.0647177 0
M  V30 36301 H 3524.06 3.15066 2.2421 0
M  V30 36302 H 3525.75 3.51339 2.03262 0
M  V30 36303 H 3526.52 4.84962 -0.0606882 0
M  V30 36304 H 3522.4 4.47513 1.10694 0
M  V30 36305 H 3525.94 6.83062 -1.41676 0
M  V30 36306 H 3521.84 6.45046 -0.242092 0
M  V30 36307 H 3522.61 8.02906 -1.5901 0
M  V30 36308 N 3525.27 -0.259531 1.55448 0
M  V30 36309 C 3526.49 -1.01145 1.81065 0
M  V30 36310 C 3526.92 -1.78648 0.588781 0
M  V30 36311 O 3526.28 -1.75316 -0.46194 0
M  V30 36312 C 3526.32 -1.93506 3.04282 0
M  V30 36313 O 3525.43 -3.02488 2.80312 0
M  V30 36314 H 3524.77 -0.288476 0.598061 0
M  V30 36315 H 3527.3 -0.284351 2.02614 0
M  V30 36316 H 3527.31 -2.35209 3.33378 0
M  V30 36317 H 3525.98 -1.36511 3.92858 0
M  V30 36318 H 3524.56 -2.65004 2.6235 0
M  V30 36319 N 3526.75 -1.48611 -0.524645 0
M  V30 36320 C 3527.97 -1.60828 -1.30955 0
M  V30 36321 C 3528.4 -0.270715 -1.86142 0
M  V30 36322 O 3527.75 0.758386 -1.64676 0
M  V30 36323 C 3527.8 -2.66201 -2.43248 0
M  V30 36324 O 3526.91 -2.23731 -3.46436 0
M  V30 36325 H 3526.25 -0.539111 -0.387629 0
M  V30 36326 H 3528.78 -1.94636 -0.630721 0
M  V30 36327 H 3528.79 -2.8764 -2.89357 0
M  V30 36328 H 3527.46 -3.63304 -2.02442 0
M  V30 36329 H 3526.04 -2.12527 -3.06409 0
M  V30 36330 N 3528.22 0.773926 -1.37289 0
M  V30 36331 C 3529.16 1.89433 -1.27242 0
M  V30 36332 C 3530.14 1.61875 -0.153394 0
M  V30 36333 O 3531.32 1.85638 -0.327226 0
M  V30 36334 C 3528.45 3.24608 -0.966828 0
M  V30 36335 C 3527.49 3.71079 -2.10244 0
M  V30 36336 S 3528.33 3.85008 -3.72195 0
M  V30 36337 C 3529.48 5.23034 -3.43782 0
M  V30 36338 H 3529.71 1.97665 -2.22071 0
M  V30 36339 H 3527.25 0.934798 -1.22886 0
M  V30 36340 H 3529.21 4.02682 -0.797339 0
M  V30 36341 H 3527.87 3.14079 -0.0360537 0
M  V30 36342 H 3527.06 4.69072 -1.84357 0
M  V30 36343 H 3526.66 3.001 -2.23195 0
M  V30 36344 H 3528.95 6.08131 -2.98635 0
M  V30 36345 H 3529.9 5.53933 -4.41095 0
M  V30 36346 H 3530.3 4.90869 -2.78762 0
M  V30 36347 N 3529.7 1.21823 0.99985 0
M  V30 36348 C 3531.11 1.03645 1.55289 0
M  V30 36349 C 3531.46 -0.402213 1.92033 0
M  V30 36350 O 3530.59 -1.28619 1.74029 0
M  V30 36351 C 3531.18 1.87519 2.82174 0
M  V30 36352 C 3529.74 1.73658 3.33946 0
M  V30 36353 C 3528.89 1.84413 2.07092 0
M  V30 36354 H 3531.84 1.35769 0.821727 0
M  V30 36355 H 3531.86 1.38848 3.54262 0
M  V30 36356 H 3531.37 2.9222 2.554 0
M  V30 36357 H 3529.48 0.716618 3.65644 0
M  V30 36358 H 3529.59 2.55925 4.05018 0
M  V30 36359 H 3527.95 1.27777 2.2033 0
M  V30 36360 H 3528.74 2.90632 1.82723 0
M  V30 36361 N 3531.18 -1.1956 1.0268 0
M  V30 36362 C 3532.59 -1.70883 0.752057 0
M  V30 36363 C 3532.94 -1.82174 -0.728491 0
M  V30 36364 O 3532.07 -1.49143 -1.56797 0
M  V30 36365 C 3532.66 -3.1037 1.35854 0
M  V30 36366 C 3531.22 -3.58961 1.13243 0
M  V30 36367 C 3530.37 -2.35883 1.45789 0
M  V30 36368 H 3533.32 -1.0443 1.19499 0
M  V30 36369 H 3533.34 -3.72946 0.754413 0
M  V30 36370 H 3532.85 -3.02119 2.43609 0
M  V30 36371 H 3530.95 -3.72528 0.0729926 0
M  V30 36372 H 3531.07 -4.43198 1.81967 0
M  V30 36373 H 3529.43 -2.39119 0.877167 0
M  V30 36374 H 3530.21 -2.30265 2.54623 0
M  V30 36375 N 3532.66 -0.804387 -1.35526 0
M  V30 36376 C 3533.59 -0.227645 -2.32388 0
M  V30 36377 C 3534.57 0.645681 -1.57369 0
M  V30 36378 O 3535.75 0.576409 -1.85449 0
M  V30 36379 C 3532.88 0.62639 -3.41605 0
M  V30 36380 C 3531.84 -0.148262 -4.27743 0
M  V30 36381 C 3531.16 0.827332 -5.28261 0
M  V30 36382 C 3532.46 -1.346 -5.04658 0
M  V30 36383 H 3534.16 -1.03689 -2.80872 0
M  V30 36384 H 3531.7 -0.500054 -1.35039 0
M  V30 36385 H 3533.66 1.03992 -4.08367 0
M  V30 36386 H 3532.38 1.4685 -2.91724 0
M  V30 36387 H 3531.04 -0.542938 -3.62557 0
M  V30 36388 H 3530.69 1.66488 -4.74648 0
M  V30 36389 H 3530.39 0.31335 -5.86764 0
M  V30 36390 H 3531.91 1.23911 -5.97895 0
M  V30 36391 H 3533.33 -1.00746 -5.64378 0
M  V30 36392 H 3531.72 -1.79432 -5.72647 0
M  V30 36393 H 3532.79 -2.13377 -4.35429 0
M  V30 36394 N 3534.14 1.47403 -0.557697 0
M  V30 36395 C 3535.05 2.33806 0.192849 0
M  V30 36396 C 3536.06 1.48221 0.911398 0
M  V30 36397 O 3537.24 1.81148 0.880182 0
M  V30 36398 C 3534.3 3.24926 1.20931 0
M  V30 36399 C 3533.37 4.264 0.498134 0
M  V30 36400 C 3532.6 5.13166 1.46617 0
M  V30 36401 O 3532.82 5.02395 2.70102 0
M  V30 36402 O 3531.76 5.93696 0.990392 0
M  V30 36403 H 3535.58 2.99286 -0.515914 0
M  V30 36404 H 3533.17 1.4597 -0.318309 0
M  V30 36405 H 3535.05 3.81209 1.79604 0
M  V30 36406 H 3533.72 2.62073 1.89998 0
M  V30 36407 H 3532.63 3.73875 -0.129801 0
M  V30 36408 H 3533.96 4.91968 -0.151101 0
M  V30 36409 N 3535.62 0.294175 1.5483 0
M  V30 36410 C 3536.86 -0.316474 1.99607 0
M  V30 36411 C 3537.18 -1.54934 1.18408 0
M  V30 36412 O 3536.45 -1.93913 0.278323 0
M  V30 36413 H 3535.03 -0.119925 0.737311 0
M  V30 36414 H 3537.7 0.403925 1.90668 0
M  V30 36415 H 3536.79 -0.593228 3.0641 0
M  V30 36416 N 3537.09 -1.57585 0.0217743 0
M  V30 36417 C 3538 -2.13225 -0.97837 0
M  V30 36418 C 3539.02 -1.08271 -1.36211 0
M  V30 36419 O 3540.2 -1.4029 -1.44501 0
M  V30 36420 C 3537.26 -2.64234 -2.24458 0
M  V30 36421 C 3536.32 -3.83875 -1.92194 0
M  V30 36422 C 3535.55 -4.32441 -3.12778 0
M  V30 36423 O 3535.78 -3.80218 -4.25195 0
M  V30 36424 O 3534.71 -5.24367 -2.95505 0
M  V30 36425 H 3538.54 -2.98945 -0.535295 0
M  V30 36426 H 3536.12 -1.48077 -0.198388 0
M  V30 36427 H 3538 -2.97144 -2.98804 0
M  V30 36428 H 3536.68 -1.81601 -2.6796 0
M  V30 36429 H 3535.59 -3.55903 -1.15256 0
M  V30 36430 H 3536.92 -4.67648 -1.53513 0
M  V30 36431 N 3538.57 0.251283 -1.55584 0
M  V30 36432 C 3539.98 0.820689 -1.67695 0
M  V30 36433 C 3540.33 1.86199 -0.618426 0
M  V30 36434 O 3539.46 2.15108 0.236121 0
M  V30 36435 C 3540.05 1.49537 -3.04013 0
M  V30 36436 C 3538.61 2.01253 -3.18079 0
M  V30 36437 C 3537.76 0.862092 -2.63559 0
M  V30 36438 H 3540.71 0.0271793 -1.58677 0
M  V30 36439 H 3540.73 2.36323 -2.98214 0
M  V30 36440 H 3540.24 0.737256 -3.81033 0
M  V30 36441 H 3538.34 2.79958 -2.45874 0
M  V30 36442 H 3538.46 2.21292 -4.24931 0
M  V30 36443 H 3536.82 1.26141 -2.2127 0
M  V30 36444 H 3537.6 0.117135 -3.431 0
M  V30 36445 N 3540.05 1.48887 0.516757 0
M  V30 36446 C 3541.3 1.57265 1.26933 0
M  V30 36447 C 3541.62 0.254189 1.93336 0
M  V30 36448 O 3540.89 -0.725313 1.81978 0
M  V30 36449 H 3539.47 0.579402 0.47149 0
M  V30 36450 H 3542.13 1.85426 0.600256 0
M  V30 36451 H 3541.23 2.36059 2.04163 0
M  V30 36452 N 3541.53 -0.766635 1.37697 0
M  V30 36453 C 3542.8 -1.51503 1.23718 0
M  V30 36454 C 3543.18 -2.10438 -0.167054 0
M  V30 36455 O 3542.53 -1.95961 -1.17523 0
M  V30 36456 C 3542.74 -2.59184 2.33719 0
M  V30 36457 C 3544.09 -3.26447 2.7151 0
M  V30 36458 O 3545.11 -2.69482 2.32934 0
M  V30 36459 O 3543.97 -4.29448 3.37989 0
M  V30 36460 H 3541.07 -0.671255 0.483058 0
M  V30 36461 H 3543.61 -0.803162 1.4949 0
M  V30 36462 H 3542.39 -2.13791 3.27733 0
M  V30 36463 H 3542.01 -3.37966 2.09439 0
M  V30 36464 N 3543.01 -1.22351 -0.993375 0
M  V30 36465 C 3544.42 -1.04467 -1.54737 0
M  V30 36466 C 3544.77 0.392023 -1.92244 0
M  V30 36467 O 3543.89 1.27694 -1.74709 0
M  V30 36468 C 3544.49 -1.89012 -2.81176 0
M  V30 36469 C 3543.05 -1.75427 -3.3302 0
M  V30 36470 C 3542.19 -1.85509 -2.06111 0
M  V30 36471 H 3545.14 -1.36203 -0.814515 0
M  V30 36472 H 3545.17 -1.40725 -3.53521 0
M  V30 36473 H 3544.68 -2.93571 -2.53846 0
M  V30 36474 H 3542.78 -0.735999 -3.65259 0
M  V30 36475 H 3542.89 -2.58069 -4.03655 0
M  V30 36476 H 3541.26 -1.28944 -2.19649 0
M  V30 36477 H 3542.04 -2.91597 -1.81179 0
M  V30 36478 N 3544.48 1.19014 -1.03313 0
M  V30 36479 C 3545.76 1.84604 -0.646571 0
M  V30 36480 C 3546.14 1.92137 0.874456 0
M  V30 36481 O 3545.49 1.44157 1.77288 0
M  V30 36482 C 3545.7 3.23335 -1.31359 0
M  V30 36483 C 3547.05 3.99452 -1.43956 0
M  V30 36484 O 3548.07 3.32748 -1.2711 0
M  V30 36485 O 3546.93 5.18947 -1.71337 0
M  V30 36486 H 3544.02 0.795724 -0.225281 0
M  V30 36487 H 3546.57 1.26468 -1.13154 0
M  V30 36488 H 3545.34 3.12713 -2.35216 0
M  V30 36489 H 3544.96 3.89121 -0.816757 0
M  V30 36490 N 3545.96 0.811563 1.35098 0
M  V30 36491 C 3546.89 0.239966 2.32264 0
M  V30 36492 C 3547.87 -0.637327 1.57709 0
M  V30 36493 O 3549.06 -0.566566 1.85752 0
M  V30 36494 C 3546.19 -0.608265 3.41932 0
M  V30 36495 C 3545.14 0.170944 4.27658 0
M  V30 36496 C 3544.47 -0.799305 5.28692 0
M  V30 36497 C 3545.77 1.37274 5.03938 0
M  V30 36498 H 3547.46 1.05177 2.80318 0
M  V30 36499 H 3545.01 0.507209 1.34772 0
M  V30 36500 H 3546.96 -1.01824 4.08913 0
M  V30 36501 H 3545.68 -1.453 2.92498 0
M  V30 36502 H 3544.34 0.562157 3.62264 0
M  V30 36503 H 3543.99 -1.63968 4.75524 0
M  V30 36504 H 3543.69 -0.282228 5.86922 0
M  V30 36505 H 3545.22 -1.20738 5.98544 0
M  V30 36506 H 3546.63 1.03738 5.63836 0
M  V30 36507 H 3545.03 1.82466 5.71687 0
M  V30 36508 H 3546.1 2.15684 4.34291 0
M  V30 36509 N 3547.44 -1.47105 0.565506 0
M  V30 36510 C 3548.66 -2.07345 0.0477128 0
M  V30 36511 C 3549.09 -1.41416 -1.24029 0
M  V30 36512 O 3548.45 -0.491972 -1.74497 0
M  V30 36513 C 3548.5 -3.60392 -0.122554 0
M  V30 36514 O 3547.6 -3.95063 -1.18319 0
M  V30 36515 H 3546.94 -0.661714 0.0550535 0
M  V30 36516 H 3549.47 -1.89002 0.783553 0
M  V30 36517 H 3549.48 -4.06629 -0.334156 0
M  V30 36518 H 3548.16 -4.07774 0.818141 0
M  V30 36519 H 3546.73 -3.60559 -0.951418 0
M  V30 36520 N 3548.92 -0.302382 -1.54672 0
M  V30 36521 C 3550.2 0.359677 -1.92265 0
M  V30 36522 C 3550.58 1.71581 -1.22976 0
M  V30 36523 O 3549.92 2.2555 -0.365982 0
M  V30 36524 C 3550.13 0.472958 -3.4578 0
M  V30 36525 C 3551.48 0.743178 -4.18045 0
M  V30 36526 O 3552.51 0.556716 -3.51823 0
M  V30 36527 O 3551.36 1.10145 -5.35285 0
M  V30 36528 H 3548.46 0.201345 -0.802115 0
M  V30 36529 H 3551 -0.350542 -1.6604 0
M  V30 36530 H 3549.78 -0.480333 -3.88341 0
M  V30 36531 H 3549.4 1.23159 -3.78044 0
M  V30 36532 N 3550.4 1.57571 -0.0301311 0
M  V30 36533 C 3551.64 1.91463 0.647008 0
M  V30 36534 C 3551.97 0.907236 1.7261 0
M  V30 36535 O 3551.24 -0.0510923 1.95833 0
M  V30 36536 H 3549.82 0.706723 0.241975 0
M  V30 36537 H 3552.48 1.94743 -0.0781727 0
M  V30 36538 H 3551.57 2.92107 1.0991 0
M  V30 36539 N 3551.87 -0.243029 1.55715 0
M  V30 36540 C 3553.1 -0.992187 1.82127 0
M  V30 36541 C 3553.52 -1.78013 0.607696 0
M  V30 36542 O 3552.88 -1.75796 -0.44332 0
M  V30 36543 C 3552.93 -1.90268 3.06317 0
M  V30 36544 O 3552.03 -2.99498 2.83505 0
M  V30 36545 H 3551.38 -0.282117 0.601087 0
M  V30 36546 H 3553.91 -0.262845 2.02905 0
M  V30 36547 H 3553.92 -2.3166 3.35854 0
M  V30 36548 H 3552.59 -1.32337 3.94284 0
M  V30 36549 H 3551.17 -2.62206 2.65146 0
M  V30 36550 N 3553.35 -1.49159 -0.508854 0
M  V30 36551 C 3554.6 -1.59459 -1.26271 0
M  V30 36552 C 3554.95 -0.27425 -1.90435 0
M  V30 36553 O 3554.25 0.724844 -1.7736 0
M  V30 36554 C 3554.44 -2.68514 -2.3587 0
M  V30 36555 C 3554.27 -4.11024 -1.82453 0
M  V30 36556 C 3553.04 -4.77909 -1.64106 0
M  V30 36557 C 3555.24 -4.96513 -1.34088 0
M  V30 36558 N 3553.22 -6.04761 -1.05535 0
M  V30 36559 C 3554.59 -6.1378 -0.876017 0
M  V30 36560 C 3556.65 -4.82573 -1.22588 0
M  V30 36561 C 3555.35 -7.18642 -0.307533 0
M  V30 36562 C 3557.37 -5.87577 -0.67137 0
M  V30 36563 C 3556.74 -7.04067 -0.216692 0
M  V30 36564 H 3552.84 -0.637918 -0.45231 0
M  V30 36565 H 3555.42 -1.86132 -0.571224 0
M  V30 36566 H 3553.59 -2.43627 -3.0249 0
M  V30 36567 H 3555.32 -2.6838 -3.0291 0
M  V30 36568 H 3552.08 -4.34581 -1.88246 0
M  V30 36569 H 3552.5 -6.72468 -0.781996 0
M  V30 36570 H 3557.14 -3.92832 -1.56341 0
M  V30 36571 H 3554.86 -8.08089 0.042284 0
M  V30 36572 H 3558.45 -5.78849 -0.585273 0
M  V30 36573 H 3557.33 -7.8393 0.205692 0
M  V30 36574 N 3554.83 0.759322 -1.38102 0
M  V30 36575 C 3556.06 1.55365 -1.37392 0
M  V30 36576 C 3556.48 1.88066 0.0355766 0
M  V30 36577 O 3555.84 1.50152 1.01607 0
M  V30 36578 C 3555.89 2.83298 -2.23103 0
M  V30 36579 O 3554.99 3.78207 -1.64419 0
M  V30 36580 H 3554.33 0.470135 -0.468902 0
M  V30 36581 H 3556.86 0.938826 -1.81789 0
M  V30 36582 H 3556.87 3.32279 -2.36758 0
M  V30 36583 H 3555.55 2.58826 -3.25549 0
M  V30 36584 H 3554.12 3.3689 -1.59873 0
M  V30 36585 N 3556.31 1.22876 0.986873 0
M  V30 36586 C 3557.54 1.08345 1.76264 0
M  V30 36587 C 3557.95 -0.365569 1.85227 0
M  V30 36588 O 3557.31 -1.25312 1.32677 0
M  V30 36589 C 3557.36 1.69538 3.19279 0
M  V30 36590 O 3557.08 3.08773 3.10791 0
M  V30 36591 C 3558.58 1.60363 4.13278 0
M  V30 36592 H 3555.8 0.379507 0.553367 0
M  V30 36593 H 3558.35 1.62594 1.2403 0
M  V30 36594 H 3556.5 1.19338 3.68561 0
M  V30 36595 H 3556.91 3.3835 4.00774 0
M  V30 36596 H 3558.39 2.07893 5.11356 0
M  V30 36597 H 3558.87 0.561259 4.35599 0
M  V30 36598 H 3559.47 2.09897 3.69896 0
M  V30 36599 N 3557.79 -1.18464 1.03942 0
M  V30 36600 C 3559.03 -1.88692 0.743174 0
M  V30 36601 C 3559.37 -1.80071 -0.727179 0
M  V30 36602 O 3558.64 -1.20017 -1.53056 0
M  V30 36603 C 3558.92 -3.39221 1.20835 0
M  V30 36604 C 3558.78 -3.56659 2.7407 0
M  V30 36605 C 3560.1 -4.32815 0.797424 0
M  V30 36606 H 3557.21 -0.685189 0.271449 0
M  V30 36607 H 3559.86 -1.39383 1.29121 0
M  V30 36608 H 3558.01 -3.81346 0.7421 0
M  V30 36609 H 3559.68 -3.23634 3.28723 0
M  V30 36610 H 3557.92 -2.99356 3.13956 0
M  V30 36611 H 3558.59 -4.62272 3.01677 0
M  V30 36612 H 3561.07 -3.98463 1.19861 0
M  V30 36613 H 3559.94 -5.36704 1.15067 0
M  V30 36614 H 3560.21 -4.41084 -0.299524 0
M  V30 36615 N 3559.26 -0.818716 -1.34665 0
M  V30 36616 C 3560.49 -0.416621 -2.03172 0
M  V30 36617 C 3560.91 0.968293 -1.61263 0
M  V30 36618 O 3560.27 1.6293 -0.795199 0
M  V30 36619 C 3560.32 -0.521947 -3.56803 0
M  V30 36620 O 3559.42 0.459881 -4.09828 0
M  V30 36621 H 3558.77 -0.172148 -0.641297 0
M  V30 36622 H 3561.3 -1.10797 -1.72004 0
M  V30 36623 H 3561.31 -0.396172 -4.06072 0
M  V30 36624 H 3559.98 -1.53205 -3.86654 0
M  V30 36625 H 3558.56 0.29334 -3.71744 0
M  V30 36626 N 3560.74 1.46803 -0.573299 0
M  V30 36627 C 3561.97 2.07317 -0.0587081 0
M  V30 36628 C 3562.39 1.42071 1.23278 0
M  V30 36629 O 3561.75 0.501219 1.74234 0
M  V30 36630 C 3561.8 3.60452 0.10344 0
M  V30 36631 O 3560.9 3.95684 1.16222 0
M  V30 36632 H 3560.24 0.661412 -0.058562 0
M  V30 36633 H 3562.77 1.88583 -0.793565 0
M  V30 36634 H 3562.78 4.06801 0.312587 0
M  V30 36635 H 3561.46 4.07334 -0.839755 0
M  V30 36636 H 3560.04 3.61058 0.932283 0
M  V30 36637 N 3562.22 0.31058 1.54509 0
M  V30 36638 C 3563.13 -0.570478 2.27558 0
M  V30 36639 C 3564.15 -1.14029 1.31428 0
M  V30 36640 O 3565.32 -1.16304 1.64425 0
M  V30 36641 C 3562.39 -1.72158 3.00936 0
M  V30 36642 C 3561.45 -1.18488 4.12625 0
M  V30 36643 C 3560.68 -2.28112 4.82494 0
M  V30 36644 O 3560.9 -3.48203 4.51786 0
M  V30 36645 O 3559.84 -1.94263 5.69689 0
M  V30 36646 H 3563.66 0.0223729 3.03692 0
M  V30 36647 H 3561.25 0.0767083 1.49203 0
M  V30 36648 H 3563.13 -2.39202 3.4693 0
M  V30 36649 H 3561.81 -2.30086 2.27689 0
M  V30 36650 H 3560.71 -0.479891 3.71009 0
M  V30 36651 H 3562.05 -0.650908 4.87877 0
M  V30 36652 N 3563.7 -1.57553 0.0384871 0
M  V30 36653 C 3564.66 -2.09691 -0.925321 0
M  V30 36654 C 3565.66 -1.01387 -1.24809 0
M  V30 36655 O 3566.85 -1.2751 -1.18688 0
M  V30 36656 C 3563.98 -2.57059 -2.23906 0
M  V30 36657 H 3565.18 -2.96137 -0.473581 0
M  V30 36658 H 3562.73 -1.54887 -0.209709 0
M  V30 36659 H 3563.47 -1.73969 -2.73688 0
M  V30 36660 H 3563.25 -3.36191 -2.01787 0
M  V30 36661 H 3564.74 -2.97588 -2.92969 0
M  V30 36662 N 3565.18 0.234767 -1.55842 0
M  V30 36663 C 3566.13 1.31052 -1.92167 0
M  V30 36664 C 3567.12 1.49205 -0.802132 0
M  V30 36665 O 3568.33 1.50536 -0.986858 0
M  V30 36666 H 3564.7 0.43909 -0.610495 0
M  V30 36667 H 3566.67 0.976877 -2.81957 0
M  V30 36668 C 3565.42 2.6565 -2.24334 0
M  V30 36669 H 3564.74 2.52484 -3.09987 0
M  V30 36670 H 3566.18 3.39765 -2.53645 0
M  V30 36671 C 3564.64 3.19662 -1.06385 0
M  V30 36672 O 3565.17 4.00438 -0.318117 0
M  V30 36673 N 3563.38 2.77854 -0.851216 0
M  V30 36674 H 3562.93 2.12275 -1.45935 0
M  V30 36675 H 3562.88 3.14335 -0.0637428 0
M  V30 36676 N 3566.66 1.49427 0.500936 0
M  V30 36677 C 3567.62 1.65584 1.58475 0
M  V30 36678 C 3568.62 0.527646 1.51896 0
M  V30 36679 O 3569.81 0.794099 1.55047 0
M  V30 36680 C 3566.94 1.65327 2.98127 0
M  V30 36681 H 3568.13 2.62252 1.45478 0
M  V30 36682 H 3565.69 1.38459 0.725175 0
M  V30 36683 H 3566.42 0.702439 3.16601 0
M  V30 36684 H 3566.21 2.4726 3.0431 0
M  V30 36685 H 3567.7 1.79884 3.7687 0
M  V30 36686 N 3568.13 -0.751987 1.38502 0
M  V30 36687 C 3569.04 -1.89648 1.38097 0
M  V30 36688 C 3570.06 -1.71767 0.277881 0
M  V30 36689 O 3571.24 -1.94663 0.51657 0
M  V30 36690 C 3568.3 -3.25035 1.20636 0
M  V30 36691 C 3567.36 -3.55431 2.40764 0
M  V30 36692 C 3566.59 -4.84358 2.24126 0
M  V30 36693 O 3566.82 -5.56852 1.23581 0
M  V30 36694 O 3565.75 -5.14267 3.1275 0
M  V30 36695 H 3569.58 -1.92943 2.34535 0
M  V30 36696 H 3567.16 -0.897483 1.19439 0
M  V30 36697 H 3569.04 -4.05977 1.12964 0
M  V30 36698 H 3567.72 -3.22548 0.272841 0
M  V30 36699 H 3566.63 -2.74644 2.54011 0
M  V30 36700 H 3567.96 -3.6268 3.32752 0
M  V30 36701 N 3569.61 -1.23398 -0.980343 0
M  V30 36702 C 3570.89 -0.974349 -1.69605 0
M  V30 36703 C 3571.27 0.507028 -2.04921 0
M  V30 36704 O 3570.62 1.47824 -1.74242 0
M  V30 36705 C 3570.83 -1.88462 -2.9374 0
M  V30 36706 C 3572.17 -2.14812 -3.66252 0
M  V30 36707 O 3573.2 -1.86013 -3.03773 0
M  V30 36708 O 3572.06 -2.63657 -4.78693 0
M  V30 36709 H 3569.15 -0.367475 -0.740872 0
M  V30 36710 H 3571.7 -1.3444 -1.03556 0
M  V30 36711 H 3570.47 -2.88606 -2.64239 0
M  V30 36712 H 3570.09 -1.51694 -3.67525 0
M  V30 36713 N 3571.09 1.17911 -1.04569 0
M  V30 36714 C 3572.34 1.88295 -0.75317 0
M  V30 36715 C 3572.67 1.80455 0.71762 0
M  V30 36716 O 3571.94 1.20827 1.52417 0
M  V30 36717 C 3572.23 3.38576 -1.22632 0
M  V30 36718 C 3572.08 3.552 -2.75958 0
M  V30 36719 C 3573.4 4.32386 -0.820366 0
M  V30 36720 H 3570.52 0.68374 -0.275079 0
M  V30 36721 H 3573.16 1.38697 -1.29859 0
M  V30 36722 H 3571.31 3.80948 -0.762313 0
M  V30 36723 H 3572.98 3.21886 -3.30434 0
M  V30 36724 H 3571.22 2.97687 -3.15539 0
M  V30 36725 H 3571.9 4.60665 -3.04124 0
M  V30 36726 H 3574.37 3.97822 -1.21972 0
M  V30 36727 H 3573.25 5.36086 -1.17911 0
M  V30 36728 H 3573.51 4.41237 0.276128 0
M  V30 36729 N 3572.57 0.825847 1.34229 0
M  V30 36730 C 3573.81 0.415926 1.98489 0
M  V30 36731 C 3574.15 -1.0191 1.65312 0
M  V30 36732 O 3573.42 -1.71029 0.926253 0
M  V30 36733 C 3573.7 0.621847 3.5469 0
M  V30 36734 C 3573.56 2.1032 3.976 0
M  V30 36735 C 3574.88 0.0596645 4.4006 0
M  V30 36736 H 3572 0.152595 0.72103 0
M  V30 36737 H 3574.64 1.03895 1.59078 0
M  V30 36738 H 3572.79 0.0915122 3.88392 0
M  V30 36739 H 3574.46 2.6974 3.74217 0
M  V30 36740 H 3572.7 2.59257 3.47805 0
M  V30 36741 H 3573.37 2.19808 5.06348 0
M  V30 36742 H 3575.85 0.512815 4.12928 0
M  V30 36743 H 3574.73 0.233527 5.48403 0
M  V30 36744 H 3574.99 -1.0356 4.298 0
M  V30 36745 N 3574.05 -1.46497 0.581077 0
M  V30 36746 C 3575.29 -2.04285 0.0686936 0
M  V30 36747 C 3575.65 -1.44298 -1.26658 0
M  V30 36748 O 3576.85 -1.93276 -1.86809 0
M  V30 36749 C 3575.12 -3.574 0.00219362 0
M  V30 36750 S 3576.68 -4.36457 -0.452851 0
M  V30 36751 H 3573.5 -0.710053 0.0366811 0
M  V30 36752 H 3576.1 -1.7956 0.773205 0
M  V30 36753 H 3574.8 -3.98577 0.977978 0
M  V30 36754 H 3574.34 -3.86659 -0.725139 0
M  V30 36755 H 3576.35 -4.6588 -1.70792 0
M  V30 36756 N 3575.52 -0.31877 -1.54343 0
M  V30 36757 C 3576.76 0.285894 -2.02391 0
M  V30 36758 C 3577.13 1.4972 -1.202 0
M  V30 36759 O 3578.33 2.1744 -1.58029 0
M  V30 36760 C 3576.6 0.616384 -3.52045 0
M  V30 36761 S 3578.16 1.20138 -4.22033 0
M  V30 36762 H 3574.98 0.0867598 -0.705687 0
M  V30 36763 H 3577.58 -0.450777 -1.90232 0
M  V30 36764 H 3576.28 -0.273411 -4.09488 0
M  V30 36765 H 3575.81 1.38338 -3.68275 0
M  V30 36766 H 3577.83 2.48844 -4.29292 0
M  V30 36767 N 3577 1.5753 -0.0468419 0
M  V30 36768 C 3578.23 1.97242 0.641127 0
M  V30 36769 C 3578.65 0.924039 1.63839 0
M  V30 36770 O 3578.01 -0.113198 1.80946 0
M  V30 36771 C 3578.06 3.36031 1.30827 0
M  V30 36772 O 3577.16 3.3365 2.42388 0
M  V30 36773 H 3576.5 0.64265 0.167024 0
M  V30 36774 H 3579.03 2.04282 -0.113957 0
M  V30 36775 H 3579.04 3.72661 1.66096 0
M  V30 36776 H 3577.72 4.11873 0.577368 0
M  V30 36777 H 3576.29 3.08759 2.09098 0
M  V30 36778 N 3578.48 -0.226499 1.55964 0
M  V30 36779 C 3579.41 -1.30769 1.87015 0
M  V30 36780 C 3580.39 -1.45439 0.72707 0
M  V30 36781 O 3581.58 -1.6133 0.974927 0
M  V30 36782 C 3578.7 -2.67865 2.07282 0
M  V30 36783 C 3577.75 -2.70237 3.29961 0
M  V30 36784 S 3578.58 -2.24799 4.8603 0
M  V30 36785 C 3579.74 -3.63781 5.09328 0
M  V30 36786 H 3579.97 -1.04235 2.78428 0
M  V30 36787 H 3577.5 -0.428499 1.48335 0
M  V30 36788 H 3579.46 -3.46796 2.19642 0
M  V30 36789 H 3578.12 -2.91626 1.16675 0
M  V30 36790 H 3577.32 -3.70969 3.41171 0
M  V30 36791 H 3576.92 -1.99366 3.16432 0
M  V30 36792 H 3579.21 -4.59434 4.97922 0
M  V30 36793 H 3580.15 -3.5749 6.11234 0
M  V30 36794 H 3580.56 -3.57239 4.37082 0
M  V30 36795 N 3579.96 -1.4969 -0.493005 0
M  V30 36796 C 3581.18 -1.63569 -1.27514 0
M  V30 36797 C 3581.61 -0.310138 -1.85526 0
M  V30 36798 O 3580.97 0.723285 -1.66248 0
M  V30 36799 C 3581.01 -2.71301 -2.37547 0
M  V30 36800 O 3580.12 -2.31029 -3.41613 0
M  V30 36801 H 3579.46 -0.547211 -0.376106 0
M  V30 36802 H 3581.99 -1.9593 -0.589294 0
M  V30 36803 H 3582 -2.93713 -2.8319 0
M  V30 36804 H 3580.67 -3.67516 -1.94691 0
M  V30 36805 H 3579.25 -2.18979 -3.01832 0
M  V30 36806 N 3581.44 0.744631 -1.38899 0
M  V30 36807 C 3582.67 1.53166 -1.38649 0
M  V30 36808 C 3583.07 1.89186 0.0232867 0
M  V30 36809 O 3582.42 1.53929 1.00258 0
M  V30 36810 C 3582.48 2.85387 -2.1862 0
M  V30 36811 C 3582.14 2.71856 -3.67346 0
M  V30 36812 C 3583.14 2.41049 -4.60642 0
M  V30 36813 C 3580.83 2.89028 -4.10814 0
M  V30 36814 C 3582.82 2.27582 -5.95387 0
M  V30 36815 C 3580.51 2.7518 -5.45636 0
M  V30 36816 C 3581.5 2.44501 -6.37737 0
M  V30 36817 O 3581.19 2.30728 -7.70078 0
M  V30 36818 H 3580.92 0.480249 -0.475749 0
M  V30 36819 H 3583.48 0.928588 -1.83211 0
M  V30 36820 H 3581.71 3.47918 -1.6879 0
M  V30 36821 H 3583.4 3.46951 -2.10666 0
M  V30 36822 H 3584.16 2.27442 -4.28363 0
M  V30 36823 H 3580.04 3.11902 -3.39467 0
M  V30 36824 H 3583.59 2.03557 -6.67241 0
M  V30 36825 H 3579.48 2.88363 -5.77509 0
M  V30 36826 H 3580.25 2.45872 -7.80698 0
M  V30 36827 N 3582.91 1.23916 0.973785 0
M  V30 36828 C 3584.14 1.10299 1.75638 0
M  V30 36829 C 3584.56 -0.340921 1.84985 0
M  V30 36830 O 3583.92 -1.24672 1.31631 0
M  V30 36831 C 3583.97 1.74066 3.15806 0
M  V30 36832 O 3583.07 1.00729 3.99909 0
M  V30 36833 H 3582.42 0.386212 0.540127 0
M  V30 36834 H 3584.95 1.64103 1.22194 0
M  V30 36835 H 3584.96 1.79575 3.66356 0
M  V30 36836 H 3583.63 2.79128 3.08319 0
M  V30 36837 H 3582.21 1.02963 3.58404 0
M  V30 36838 N 3584.39 -1.17355 1.05193 0
M  V30 36839 C 3585.64 -1.88142 0.772935 0
M  V30 36840 C 3585.99 -1.79505 -0.69251 0
M  V30 36841 O 3585.29 -1.19221 -1.4999 0
M  V30 36842 C 3585.48 -3.37083 1.18785 0
M  V30 36843 C 3585.31 -3.60217 2.69209 0
M  V30 36844 C 3584.08 -3.76939 3.36519 0
M  V30 36845 C 3586.28 -3.59861 3.6743 0
M  V30 36846 N 3584.26 -3.87919 4.75807 0
M  V30 36847 C 3585.63 -3.76691 4.92447 0
M  V30 36848 C 3587.69 -3.43011 3.60899 0
M  V30 36849 C 3586.39 -3.78414 6.11715 0
M  V30 36850 C 3588.41 -3.46023 4.79606 0
M  V30 36851 C 3587.78 -3.6336 6.03447 0
M  V30 36852 H 3583.88 -0.706579 0.335067 0
M  V30 36853 H 3586.46 -1.40883 1.34387 0
M  V30 36854 H 3584.63 -3.83009 0.644868 0
M  V30 36855 H 3586.36 -3.95485 0.858689 0
M  V30 36856 H 3583.12 -3.76795 2.86919 0
M  V30 36857 H 3583.54 -3.97204 5.48232 0
M  V30 36858 H 3588.18 -3.28544 2.66118 0
M  V30 36859 H 3585.9 -3.91666 7.0684 0
M  V30 36860 H 3589.49 -3.34244 4.76206 0
M  V30 36861 H 3588.37 -3.65595 6.93765 0
M  V30 36862 N 3585.87 -0.832954 -1.3379 0
M  V30 36863 C 3587.1 -0.439113 -2.02187 0
M  V30 36864 C 3587.51 0.95793 -1.62693 0
M  V30 36865 O 3586.87 1.62157 -0.837331 0
M  V30 36866 C 3586.92 -0.543295 -3.57394 0
M  V30 36867 O 3586.64 -1.88529 -3.9546 0
M  V30 36868 C 3588.14 -0.145645 -4.43061 0
M  V30 36869 H 3585.36 -0.175003 -0.647777 0
M  V30 36870 H 3587.91 -1.12389 -1.70848 0
M  V30 36871 H 3586.06 0.0935065 -3.87287 0
M  V30 36872 H 3586.48 -1.86662 -4.90161 0
M  V30 36873 H 3587.95 -0.269604 -5.51341 0
M  V30 36874 H 3588.43 0.911858 -4.2963 0
M  V30 36875 H 3589.03 -0.756645 -4.18515 0
M  V30 36876 N 3587.35 1.46186 -0.588837 0
M  V30 36877 C 3588.6 2.01955 -0.076612 0
M  V30 36878 C 3588.92 1.46205 1.29031 0
M  V30 36879 O 3588.19 0.649076 1.84835 0
M  V30 36880 H 3586.77 0.74657 -0.0253312 0
M  V30 36881 H 3589.43 1.79216 -0.766002 0
M  V30 36882 H 3588.53 3.12098 -0.012225 0
M  V30 36883 N 3588.83 0.32695 1.54171 0
M  V30 36884 C 3589.79 -0.524815 2.23111 0
M  V30 36885 C 3590.79 -1.04085 1.22569 0
M  V30 36886 O 3591.98 -0.932734 1.47125 0
M  V30 36887 C 3589.11 -1.72932 2.93781 0
M  V30 36888 H 3590.3 0.0778854 2.99799 0
M  V30 36889 H 3587.86 0.0780759 1.56105 0
M  V30 36890 H 3588.59 -2.37116 2.21238 0
M  V30 36891 H 3588.38 -1.36668 3.67511 0
M  V30 36892 H 3589.87 -2.33386 3.46296 0
M  V30 36893 N 3590.3 -1.57503 0.0551955 0
M  V30 36894 C 3591.23 -2.14797 -0.915676 0
M  V30 36895 C 3592.22 -1.07067 -1.32177 0
M  V30 36896 O 3593.4 -1.35026 -1.39577 0
M  V30 36897 C 3590.53 -2.6962 -2.18911 0
M  V30 36898 C 3589.48 -3.82369 -1.92296 0
M  V30 36899 C 3588.81 -4.23726 -3.26129 0
M  V30 36900 C 3590.11 -5.07334 -1.24137 0
M  V30 36901 H 3591.8 -2.96172 -0.438447 0
M  V30 36902 H 3589.35 -1.42469 -0.209452 0
M  V30 36903 H 3591.3 -3.08342 -2.87233 0
M  V30 36904 H 3590.03 -1.85442 -2.68847 0
M  V30 36905 H 3588.69 -3.44126 -1.26385 0
M  V30 36906 H 3588.33 -3.36493 -3.73873 0
M  V30 36907 H 3588.03 -4.9972 -3.09117 0
M  V30 36908 H 3589.56 -4.65052 -3.95676 0
M  V30 36909 H 3590.97 -5.43476 -1.825 0
M  V30 36910 H 3589.37 -5.88496 -1.17439 0
M  V30 36911 H 3590.44 -4.8441 -0.217988 0
M  V30 36912 N 3591.78 0.218225 -1.56082 0
M  V30 36913 C 3593.03 0.943522 -1.79515 0
M  V30 36914 C 3593.36 1.83854 -0.6254 0
M  V30 36915 O 3592.64 1.90847 0.375192 0
M  V30 36916 C 3592.92 1.77961 -3.13052 0
M  V30 36917 C 3592.77 0.910862 -4.40481 0
M  V30 36918 C 3594.09 2.75674 -3.43062 0
M  V30 36919 H 3591.21 0.341582 -0.653063 0
M  V30 36920 H 3593.85 0.212193 -1.88811 0
M  V30 36921 H 3592 2.40312 -3.05258 0
M  V30 36922 H 3593.67 0.303841 -4.60298 0
M  V30 36923 H 3591.92 0.216437 -4.3326 0
M  V30 36924 H 3592.59 1.53033 -5.30363 0
M  V30 36925 H 3595.06 2.23459 -3.51006 0
M  V30 36926 H 3593.94 3.31275 -4.37662 0
M  V30 36927 H 3594.2 3.53579 -2.65395 0
M  V30 36928 N 3593.26 1.4995 0.485059 0
M  V30 36929 C 3594.49 1.63973 1.26176 0
M  V30 36930 C 3594.9 0.317441 1.86112 0
M  V30 36931 O 3594.26 -0.699008 1.68583 0
M  V30 36932 C 3594.31 2.7205 2.38057 0
M  V30 36933 O 3594.03 3.99152 1.80581 0
M  V30 36934 C 3595.53 2.96922 3.29169 0
M  V30 36935 H 3592.75 0.551571 0.382113 0
M  V30 36936 H 3595.3 1.96086 0.580573 0
M  V30 36937 H 3593.45 2.42671 3.01976 0
M  V30 36938 H 3593.87 4.58811 2.54151 0
M  V30 36939 H 3595.34 3.7624 4.03915 0
M  V30 36940 H 3595.82 2.0745 3.87119 0
M  V30 36941 H 3596.42 3.27779 2.71 0
M  V30 36942 N 3594.74 -0.737255 1.39292 0
M  V30 36943 C 3596.15 -1.31541 1.32491 0
M  V30 36944 C 3596.5 -1.96196 -0.0117817 0
M  V30 36945 O 3595.63 -1.96155 -0.913904 0
M  V30 36946 C 3596.22 -2.39185 2.3995 0
M  V30 36947 C 3594.78 -2.9268 2.36676 0
M  V30 36948 C 3593.93 -1.66225 2.21956 0
M  V30 36949 H 3596.88 -0.534928 1.49413 0
M  V30 36950 H 3596.9 -3.1952 2.06608 0
M  V30 36951 H 3596.41 -1.92098 3.37224 0
M  V30 36952 H 3594.51 -3.44052 1.43034 0
M  V30 36953 H 3594.63 -3.45948 3.31447 0
M  V30 36954 H 3592.99 -1.90475 1.6909 0
M  V30 36955 H 3593.77 -1.21193 3.21196 0
M  V30 36956 N 3596.22 -1.24431 -0.967199 0
M  V30 36957 C 3597.46 -1.0962 -1.72519 0
M  V30 36958 C 3597.82 0.358741 -1.88619 0
M  V30 36959 O 3599.02 0.628362 -2.61352 0
M  V30 36960 C 3597.29 -1.81618 -3.07815 0
M  V30 36961 S 3598.85 -1.82544 -3.99028 0
M  V30 36962 H 3595.67 -0.392051 -0.593141 0
M  V30 36963 H 3598.27 -1.57768 -1.15453 0
M  V30 36964 H 3596.98 -2.86592 -2.93757 0
M  V30 36965 H 3596.51 -1.33806 -3.69945 0
M  V30 36966 H 3598.52 -0.893477 -4.8809 0
M  V30 36967 N 3597.7 1.16795 -1.05814 0
M  V30 36968 C 3598.66 2.19225 -0.668804 0
M  V30 36969 C 3599.66 1.58291 0.282962 0
M  V30 36970 O 3600.85 1.74075 0.0659927 0
M  V30 36971 C 3597.98 3.40896 0.0166779 0
M  V30 36972 H 3599.17 2.55184 -1.57548 0
M  V30 36973 H 3596.73 1.30986 -0.852776 0
M  V30 36974 H 3597.46 3.10489 0.936327 0
M  V30 36975 H 3597.25 3.86374 -0.667644 0
M  V30 36976 H 3598.74 4.16694 0.274967 0
M  V30 36977 N 3599.17 0.840037 1.33346 0
M  V30 36978 C 3600.14 0.279304 2.27492 0
M  V30 36979 C 3601.14 -0.552642 1.51005 0
M  V30 36980 O 3602.33 -0.366265 1.70306 0
M  V30 36981 C 3599.46 -0.606408 3.35463 0
M  V30 36982 H 3600.65 1.11006 2.78599 0
M  V30 36983 H 3598.2 0.613213 1.43769 0
M  V30 36984 H 3598.94 -1.45955 2.89599 0
M  V30 36985 H 3598.72 -0.01112 3.92098 0
M  V30 36986 H 3600.21 -0.991981 4.05647 0
M  V30 36987 N 3600.65 -1.45872 0.596582 0
M  V30 36988 C 3601.56 -2.34235 -0.130791 0
M  V30 36989 C 3602.58 -1.50586 -0.871779 0
M  V30 36990 O 3603.75 -1.83418 -0.831844 0
M  V30 36991 C 3600.82 -3.28018 -1.12273 0
M  V30 36992 C 3599.88 -4.27571 -0.384907 0
M  V30 36993 C 3599.11 -5.16873 -1.3296 0
M  V30 36994 O 3599.34 -5.0938 -2.56687 0
M  V30 36995 O 3598.27 -5.96113 -0.832636 0
M  V30 36996 H 3602.1 -2.97813 0.595083 0
M  V30 36997 H 3599.68 -1.45074 0.356898 0
M  V30 36998 H 3601.56 -3.85837 -1.69434 0
M  V30 36999 H 3600.24 -2.67019 -1.82983 0
M  V30 37000 H 3599.14 -3.73399 0.228882 0
M  V30 37001 H 3600.48 -4.91394 0.281485 0
M  V30 37002 N 3602.13 -0.335122 -1.53996 0
M  V30 37003 C 3603.04 0.534203 -2.28437 0
M  V30 37004 C 3604.06 1.11924 -1.33226 0
M  V30 37005 O 3605.23 1.13673 -1.66254 0
M  V30 37006 C 3602.3 1.67349 -3.03637 0
M  V30 37007 C 3601.36 1.11909 -4.14457 0
M  V30 37008 C 3600.59 2.20407 -4.86062 0
M  V30 37009 O 3600.81 3.40971 -4.57269 0
M  V30 37010 O 3599.75 1.85175 -5.72707 0
M  V30 37011 H 3603.57 -0.0706848 -3.03618 0
M  V30 37012 H 3601.16 -0.100435 -1.49062 0
M  V30 37013 H 3603.04 2.33653 -3.50691 0
M  V30 37014 H 3601.72 2.26434 -2.31321 0
M  V30 37015 H 3600.62 0.420806 -3.71726 0
M  V30 37016 H 3601.96 0.573209 -4.88851 0
M  V30 37017 N 3603.61 1.57472 -0.0635475 0
M  V30 37018 C 3604.54 2.09218 0.935983 0
M  V30 37019 C 3605.55 1.02257 1.26678 0
M  V30 37020 O 3606.74 1.29792 1.22541 0
M  V30 37021 C 3603.84 2.53066 2.25412 0
M  V30 37022 C 3603.01 3.83504 2.1034 0
M  V30 37023 C 3602.07 4.13534 3.25386 0
M  V30 37024 O 3601.1 4.83263 3.00742 0
M  V30 37025 N 3602.3 3.66425 4.50237 0
M  V30 37026 H 3605.07 2.95597 0.494236 0
M  V30 37027 H 3602.63 1.61437 0.122388 0
M  V30 37028 H 3604.62 2.70223 3.01267 0
M  V30 37029 H 3603.19 1.71869 2.61113 0
M  V30 37030 H 3602.41 3.75809 1.19002 0
M  V30 37031 H 3603.7 4.689 1.97511 0
M  V30 37032 H 3603.1 3.10078 4.73147 0
M  V30 37033 H 3601.65 3.88797 5.23145 0
M  V30 37034 N 3605.09 -0.209945 1.56195 0
M  V30 37035 C 3606.03 -1.26022 1.93357 0
M  V30 37036 C 3607 -1.4599 0.79222 0
M  V30 37037 O 3608.19 -1.59368 1.04912 0
M  V30 37038 C 3605.33 -2.60314 2.26562 0
M  V30 37039 C 3604.44 -2.48049 3.53689 0
M  V30 37040 C 3603.58 -3.74943 3.76286 0
M  V30 37041 C 3602.61 -3.57448 4.96888 0
M  V30 37042 N 3601.75 -4.76319 5.15814 0
M  V30 37043 H 3606.59 -0.936307 2.82909 0
M  V30 37044 H 3604.13 -0.450997 1.40016 0
M  V30 37045 H 3606.09 -3.38532 2.43827 0
M  V30 37046 H 3604.72 -2.90779 1.4017 0
M  V30 37047 H 3603.77 -1.61205 3.44554 0
M  V30 37048 H 3605.08 -2.31048 4.42061 0
M  V30 37049 H 3604.23 -4.61603 3.9371 0
M  V30 37050 H 3602.97 -3.94882 2.86216 0
M  V30 37051 H 3601.98 -2.69172 4.79402 0
M  V30 37052 H 3603.2 -3.38969 5.88453 0
M  V30 37053 H 3601.15 -4.9655 4.28689 0
M  V30 37054 H 3601.07 -4.62088 5.9834 0
M  V30 37055 H 3602.33 -5.64373 5.37684 0
M  V30 37056 N 3606.56 -1.50205 -0.4771 0
M  V30 37057 C 3607.49 -1.71555 -1.58402 0
M  V30 37058 C 3608.47 -0.564441 -1.60462 0
M  V30 37059 O 3609.66 -0.802924 -1.76824 0
M  V30 37060 C 3606.79 -1.80415 -2.96762 0
M  V30 37061 C 3605.74 -2.95553 -3.09568 0
M  V30 37062 C 3605.07 -2.8955 -4.49516 0
M  V30 37063 C 3606.37 -4.36152 -2.87348 0
M  V30 37064 H 3608.06 -2.64233 -1.40788 0
M  V30 37065 H 3605.61 -1.27154 -0.675864 0
M  V30 37066 H 3607.56 -1.93936 -3.74121 0
M  V30 37067 H 3606.29 -0.843544 -3.15518 0
M  V30 37068 H 3604.95 -2.81673 -2.3464 0
M  V30 37069 H 3604.59 -1.91347 -4.65183 0
M  V30 37070 H 3604.29 -3.66842 -4.59022 0
M  V30 37071 H 3605.82 -3.05111 -5.28904 0
M  V30 37072 H 3607.23 -4.50589 -3.54461 0
M  V30 37073 H 3605.63 -5.14848 -3.08304 0
M  V30 37074 H 3606.7 -4.48938 -1.83256 0
M  V30 37075 N 3608.04 0.729857 -1.39681 0
M  V30 37076 C 3609.45 1.30837 -1.33187 0
M  V30 37077 C 3609.8 1.962 0.0013768 0
M  V30 37078 O 3608.93 1.96637 0.903489 0
M  V30 37079 C 3609.52 2.37909 -2.41215 0
M  V30 37080 C 3608.08 2.9142 -2.38225 0
M  V30 37081 C 3607.23 1.65045 -2.22835 0
M  V30 37082 H 3610.18 0.526996 -1.49694 0
M  V30 37083 H 3610.2 3.1842 -2.083 0
M  V30 37084 H 3609.71 1.90307 -3.38238 0
M  V30 37085 H 3607.82 3.43289 -1.44856 0
M  V30 37086 H 3607.93 3.44185 -3.33277 0
M  V30 37087 H 3606.29 1.89575 -1.70098 0
M  V30 37088 H 3607.08 1.19488 -3.21835 0
M  V30 37089 N 3609.52 1.24942 0.960587 0
M  V30 37090 C 3610.77 1.08734 1.69882 0
M  V30 37091 C 3611.08 -0.372568 1.92019 0
M  V30 37092 O 3612.29 -0.654972 2.63481 0
M  V30 37093 C 3610.74 1.89755 3.05812 0
M  V30 37094 C 3610.35 3.40201 2.91492 0
M  V30 37095 C 3612.1 1.82099 3.83458 0
M  V30 37096 C 3610 4.13539 4.22776 0
M  V30 37097 H 3608.93 0.403292 0.63708 0
M  V30 37098 H 3611.58 1.49086 1.06984 0
M  V30 37099 H 3609.97 1.42223 3.69579 0
M  V30 37100 H 3611.14 3.95364 2.36693 0
M  V30 37101 H 3609.46 3.48886 2.27305 0
M  V30 37102 H 3612.05 2.3419 4.80686 0
M  V30 37103 H 3612.4 0.787669 4.0878 0
M  V30 37104 H 3612.93 2.2735 3.26431 0
M  V30 37105 H 3609.67 5.1726 4.02644 0
M  V30 37106 H 3609.19 3.6316 4.77362 0
M  V30 37107 H 3610.87 4.20929 4.91353 0
M  V30 37108 N 3611 -1.16233 1.06432 0
M  V30 37109 C 3611.95 -2.22727 0.670497 0
M  V30 37110 C 3612.94 -1.6646 -0.314251 0
M  V30 37111 O 3614.15 -1.79108 -0.178964 0
M  V30 37112 H 3610.52 -0.725273 0.198705 0
M  V30 37113 H 3612.49 -2.5323 1.57851 0
M  V30 37114 C 3611.24 -3.4762 0.0744401 0
M  V30 37115 H 3610.56 -3.91231 0.823296 0
M  V30 37116 H 3612 -4.23684 -0.163577 0
M  V30 37117 C 3610.46 -3.15471 -1.18236 0
M  V30 37118 O 3610.99 -3.31404 -2.27012 0
M  V30 37119 N 3609.2 -2.6959 -1.08488 0
M  V30 37120 H 3608.75 -2.56825 -0.199669 0
M  V30 37121 H 3608.7 -2.48453 -1.92662 0
M  V30 37122 N 3612.48 -0.847097 -1.32899 0
M  V30 37123 C 3613.44 -0.291364 -2.27341 0
M  V30 37124 C 3614.44 0.544626 -1.51296 0
M  V30 37125 O 3615.63 0.357228 -1.70498 0
M  V30 37126 C 3612.76 0.588609 -3.3578 0
M  V30 37127 H 3613.95 -1.12482 -2.78007 0
M  V30 37128 H 3611.51 -0.620829 -1.43441 0
M  V30 37129 H 3612.24 1.44418 -2.90369 0
M  V30 37130 H 3612.03 -0.00967407 -3.92099 0
M  V30 37131 H 3613.52 0.970455 -4.06167 0
M  V30 37132 N 3613.95 1.45554 -0.604309 0
M  V30 37133 C 3614.88 2.33269 0.103818 0
M  V30 37134 C 3615.87 1.46636 0.862078 0
M  V30 37135 O 3617.05 1.75414 0.833278 0
M  V30 37136 C 3614.18 3.29288 1.10394 0
M  V30 37137 C 3613.13 4.2553 0.459114 0
M  V30 37138 C 3612.46 5.11216 1.56725 0
M  V30 37139 C 3613.76 5.18636 -0.6176 0
M  V30 37140 H 3615.45 2.92727 -0.62859 0
M  V30 37141 H 3613 1.4076 -0.303735 0
M  V30 37142 H 3614.95 3.8952 1.60787 0
M  V30 37143 H 3613.68 2.67982 1.8669 0
M  V30 37144 H 3612.34 3.66592 -0.0239153 0
M  V30 37145 H 3611.98 4.4628 2.32041 0
M  V30 37146 H 3611.68 5.76409 1.14132 0
M  V30 37147 H 3613.21 5.74315 2.07351 0
M  V30 37148 H 3614.62 5.72958 -0.197884 0
M  V30 37149 H 3613.02 5.92289 -0.965094 0
M  V30 37150 H 3614.09 4.61262 -1.49549 0
M  V30 37151 N 3615.43 0.343284 1.53816 0
M  V30 37152 C 3616.66 -0.257382 2.05797 0
M  V30 37153 C 3617.08 -1.43457 1.21662 0
M  V30 37154 O 3616.44 -1.79831 0.230309 0
M  V30 37155 C 3616.49 -0.650618 3.54682 0
M  V30 37156 O 3615.59 -1.75068 3.73397 0
M  V30 37157 H 3614.93 -0.0427454 0.662623 0
M  V30 37158 H 3617.46 0.497421 1.98461 0
M  V30 37159 H 3617.47 -0.927844 3.9731 0
M  V30 37160 H 3616.15 0.210272 4.15368 0
M  V30 37161 H 3614.73 -1.47074 3.42672 0
M  V30 37162 N 3616.91 -1.57436 0.0718977 0
M  V30 37163 C 3617.86 -2.13933 -0.912988 0
M  V30 37164 C 3618.85 -1.07624 -1.30818 0
M  V30 37165 O 3620.06 -1.26005 -1.28541 0
M  V30 37166 H 3616.43 -0.684054 -0.312368 0
M  V30 37167 H 3618.4 -2.95548 -0.411561 0
M  V30 37168 C 3617.15 -2.7159 -2.17104 0
M  V30 37169 H 3616.48 -3.53064 -1.87579 0
M  V30 37170 H 3617.92 -3.14717 -2.84129 0
M  V30 37171 C 3616.38 -1.66355 -2.92964 0
M  V30 37172 O 3616.91 -1.08861 -3.86668 0
M  V30 37173 N 3615.11 -1.37387 -2.56072 0
M  V30 37174 H 3614.66 -1.8433 -1.79945 0
M  V30 37175 H 3614.62 -0.672093 -3.07132 0
M  V30 37176 N 3618.39 0.201658 -1.56305 0
M  V30 37177 C 3619.61 0.94355 -1.84694 0
M  V30 37178 C 3620.04 1.76339 -0.65468 0
M  V30 37179 O 3619.4 1.7691 0.396555 0
M  V30 37180 C 3619.44 1.8208 -3.11254 0
M  V30 37181 O 3618.55 2.91876 -2.91346 0
M  V30 37182 H 3617.89 0.266081 -0.608356 0
M  V30 37183 H 3620.42 0.208956 -2.0353 0
M  V30 37184 H 3620.43 2.22674 -3.41878 0
M  V30 37185 H 3619.1 1.21837 -3.97654 0
M  V30 37186 H 3617.68 2.55084 -2.72005 0
M  V30 37187 N 3619.87 1.50456 0.469128 0
M  V30 37188 C 3620.8 1.72393 1.5749 0
M  V30 37189 C 3621.78 0.572943 1.6016 0
M  V30 37190 O 3622.96 0.81229 1.76396 0
M  V30 37191 C 3620.09 1.81987 2.95801 0
M  V30 37192 C 3619.05 2.97191 3.07996 0
M  V30 37193 C 3618.37 2.9193 4.47975 0
M  V30 37194 C 3619.67 4.3767 2.85031 0
M  V30 37195 H 3621.37 2.64976 1.39384 0
M  V30 37196 H 3618.91 1.2751 0.669111 0
M  V30 37197 H 3620.87 1.95918 3.73087 0
M  V30 37198 H 3619.59 0.860265 3.15067 0
M  V30 37199 H 3618.25 2.82913 2.33143 0
M  V30 37200 H 3617.9 1.93812 4.64162 0
M  V30 37201 H 3617.6 3.69271 4.5707 0
M  V30 37202 H 3619.12 3.07912 5.27279 0
M  V30 37203 H 3620.53 4.52462 3.52066 0
M  V30 37204 H 3618.93 5.16476 3.05569 0
M  V30 37205 H 3620 4.49903 1.80873 0
M  V30 37206 N 3621.34 -0.722439 1.40066 0
M  V30 37207 C 3622.27 -1.84949 1.42535 0
M  V30 37208 C 3623.26 -1.67659 0.287111 0
M  V30 37209 O 3624.44 -1.87792 0.494748 0
M  V30 37210 C 3621.57 -3.22833 1.28047 0
M  V30 37211 C 3620.52 -3.54783 2.39402 0
M  V30 37212 C 3619.85 -4.91738 2.09994 0
M  V30 37213 C 3621.15 -3.56476 3.81735 0
M  V30 37214 H 3622.84 -1.8314 2.36855 0
M  V30 37215 H 3620.39 -0.879694 1.14006 0
M  V30 37216 H 3622.34 -4.01365 1.28392 0
M  V30 37217 H 3621.07 -3.25201 0.302005 0
M  V30 37218 H 3619.73 -2.78588 2.38295 0
M  V30 37219 H 3619.37 -4.907 1.10556 0
M  V30 37220 H 3619.07 -5.14081 2.84595 0
M  V30 37221 H 3620.6 -5.72611 2.12011 0
M  V30 37222 H 3622.01 -4.2506 3.84703 0
M  V30 37223 H 3620.41 -3.90343 4.55798 0
M  V30 37224 H 3621.48 -2.56007 4.11811 0
M  V30 37225 N 3622.82 -1.2545 -0.953947 0
M  V30 37226 C 3624.24 -1.02286 -1.22514 0
M  V30 37227 C 3624.44 0.259898 -1.99817 0
M  V30 37228 O 3623.5 0.972438 -2.33023 0
M  V30 37229 C 3624.81 -2.24647 -1.99886 0
M  V30 37230 C 3626.36 -2.29415 -2.12926 0
M  V30 37231 C 3626.83 -3.51434 -2.93697 0
M  V30 37232 N 3628.32 -3.51835 -3.01275 0
M  V30 37233 C 3629.06 -4.42911 -3.64167 0
M  V30 37234 N 3628.55 -5.44261 -4.28663 0
M  V30 37235 N 3630.35 -4.30591 -3.61314 0
M  V30 37236 H 3622.5 -2.0786 -0.436823 0
M  V30 37237 H 3624.76 -0.912857 -0.255728 0
M  V30 37238 H 3624.47 -3.1788 -1.50483 0
M  V30 37239 H 3624.34 -2.27873 -3.00589 0
M  V30 37240 H 3626.73 -1.36705 -2.61526 0
M  V30 37241 H 3626.81 -2.30208 -1.11526 0
M  V30 37242 H 3626.45 -4.44467 -2.45787 0
M  V30 37243 H 3626.38 -3.47888 -3.95325 0
M  V30 37244 H 3628.87 -2.78522 -2.5541 0
M  V30 37245 H 3629.19 -6.09966 -4.74511 0
M  V30 37246 H 3627.53 -5.48132 -4.27289 0
M  V30 37247 H 3630.72 -3.5064 -3.10112 0
M  V30 37248 H 3630.9 -5.01767 -4.10042 0
M  V30 37249 N 3624.3 1.15667 -1.07047 0
M  V30 37250 C 3625.25 2.18302 -0.657899 0
M  V30 37251 C 3626.24 1.57779 0.315378 0
M  V30 37252 O 3627.43 1.76525 0.1296 0
M  V30 37253 C 3624.56 3.43258 -0.0539446 0
M  V30 37254 C 3623.64 4.10841 -1.05217 0
M  V30 37255 N 3624.03 4.53959 -2.23059 0
M  V30 37256 C 3622.33 4.37135 -0.884816 0
M  V30 37257 C 3623.03 5.06331 -2.86363 0
M  V30 37258 N 3622.01 4.99685 -2.14046 0
M  V30 37259 H 3625.81 2.49364 -1.55546 0
M  V30 37260 H 3623.32 1.32201 -0.943223 0
M  V30 37261 H 3625.32 4.16092 0.259502 0
M  V30 37262 H 3623.98 3.13679 0.838775 0
M  V30 37263 H 3624.99 4.47445 -2.60794 0
M  V30 37264 H 3621.67 4.17476 -0.0447309 0
M  V30 37265 H 3623.06 5.49675 -3.86403 0
M  V30 37266 N 3625.78 0.854133 1.32447 0
M  V30 37267 C 3626.73 0.270161 2.26394 0
M  V30 37268 C 3627.71 -0.583683 1.4994 0
M  V30 37269 O 3628.91 -0.433152 1.71618 0
M  V30 37270 C 3626.03 -0.540938 3.39011 0
M  V30 37271 C 3625.12 0.325264 4.22851 0
M  V30 37272 N 3625.51 1.41127 4.85713 0
M  V30 37273 C 3623.81 0.114924 4.45852 0
M  V30 37274 C 3624.51 1.94412 5.48251 0
M  V30 37275 N 3623.49 1.24336 5.29189 0
M  V30 37276 H 3627.29 1.10042 2.72522 0
M  V30 37277 H 3624.8 0.700193 1.4653 0
M  V30 37278 H 3626.8 -0.975707 4.05322 0
M  V30 37279 H 3625.46 -1.369 2.94429 0
M  V30 37280 H 3626.47 1.7942 4.85828 0
M  V30 37281 H 3623.15 -0.678461 4.1195 0
M  V30 37282 H 3624.54 2.85441 6.08254 0
M  V30 37283 N 3627.26 -1.45231 0.61202 0
M  V30 37284 C 3628.21 -2.32307 -0.116654 0
M  V30 37285 C 3629.2 -1.4623 -0.855165 0
M  V30 37286 O 3630.41 -1.62688 -0.770228 0
M  V30 37287 H 3626.78 -0.749876 -0.056477 0
M  V30 37288 H 3628.75 -2.91541 0.636124 0
M  V30 37289 C 3627.5 -3.29921 -1.09762 0
M  V30 37290 H 3626.82 -3.96153 -0.538778 0
M  V30 37291 H 3628.26 -3.93569 -1.57732 0
M  V30 37292 C 3626.72 -2.57421 -2.17339 0
M  V30 37293 O 3627.25 -2.35887 -3.25146 0
M  V30 37294 N 3625.46 -2.17481 -1.92745 0
M  V30 37295 H 3625.01 -2.35194 -1.0508 0
M  V30 37296 H 3624.96 -1.69296 -2.64927 0
M  V30 37297 N 3628.74 -0.351436 -1.53632 0
M  V30 37298 C 3629.67 0.493869 -2.28217 0
M  V30 37299 C 3630.65 1.09597 -1.30087 0
M  V30 37300 O 3631.83 1.11588 -1.5894 0
M  V30 37301 C 3628.96 1.64097 -3.06088 0
M  V30 37302 C 3627.92 1.16682 -4.11788 0
M  V30 37303 C 3627.24 2.40305 -4.77658 0
M  V30 37304 C 3628.54 0.261651 -5.21644 0
M  V30 37305 H 3630.24 -0.128353 -2.99125 0
M  V30 37306 H 3627.78 -0.0631715 -1.43861 0
M  V30 37307 H 3629.73 2.23884 -3.57007 0
M  V30 37308 H 3628.46 2.29021 -2.32846 0
M  V30 37309 H 3627.12 0.59172 -3.61793 0
M  V30 37310 H 3626.77 3.03654 -4.01003 0
M  V30 37311 H 3626.47 2.09259 -5.49076 0
M  V30 37312 H 3627.99 3.00804 -5.31366 0
M  V30 37313 H 3629.4 0.766589 -5.68152 0
M  V30 37314 H 3627.8 0.0427077 -6.00085 0
M  V30 37315 H 3628.87 -0.700083 -4.7982 0
M  V30 37316 N 3630.21 1.57396 -0.0802459 0
M  V30 37317 C 3631.46 1.94095 0.587797 0
M  V30 37318 C 3631.79 0.961123 1.68749 0
M  V30 37319 O 3631.07 -0.0082938 1.94498 0
M  V30 37320 C 3631.35 3.41011 1.15686 0
M  V30 37321 C 3631.2 4.49756 0.0632421 0
M  V30 37322 C 3632.52 3.88922 2.0598 0
M  V30 37323 H 3629.64 0.70579 0.212202 0
M  V30 37324 H 3632.28 1.89423 -0.147935 0
M  V30 37325 H 3630.43 3.45123 1.78387 0
M  V30 37326 H 3632.11 4.57762 -0.57027 0
M  V30 37327 H 3630.35 4.29559 -0.605078 0
M  V30 37328 H 3631.02 5.49713 0.50196 0
M  V30 37329 H 3633.5 3.86869 1.53203 0
M  V30 37330 H 3632.37 4.92315 2.42729 0
M  V30 37331 H 3632.63 3.27352 2.97142 0
M  V30 37332 N 3631.69 -0.193366 1.56409 0
M  V30 37333 C 3632.92 -0.928295 1.8457 0
M  V30 37334 C 3633.33 -1.77285 0.660819 0
M  V30 37335 O 3632.67 -1.79733 -0.37972 0
M  V30 37336 C 3632.73 -1.87294 3.06857 0
M  V30 37337 C 3632.4 -1.21017 4.40686 0
M  V30 37338 C 3633.4 -0.586259 5.16584 0
M  V30 37339 C 3631.08 -1.21351 4.87421 0
M  V30 37340 C 3633.07 0.0254693 6.37395 0
M  V30 37341 C 3630.76 -0.597945 6.08168 0
M  V30 37342 C 3631.76 0.0204614 6.82997 0
M  V30 37343 O 3631.45 0.626373 8.01456 0
M  V30 37344 H 3631.18 -0.276266 0.616971 0
M  V30 37345 H 3633.73 -0.205066 2.04374 0
M  V30 37346 H 3631.96 -2.63591 2.82943 0
M  V30 37347 H 3633.65 -2.47581 3.2165 0
M  V30 37348 H 3634.42 -0.575809 4.8157 0
M  V30 37349 H 3630.3 -1.68424 4.29132 0
M  V30 37350 H 3633.84 0.508767 6.95742 0
M  V30 37351 H 3629.74 -0.605904 6.4265 0
M  V30 37352 H 3630.51 0.523448 8.16825 0
M  V30 37353 N 3633.17 -1.50702 -0.461142 0
M  V30 37354 C 3634.39 -1.66237 -1.24016 0
M  V30 37355 C 3634.82 -0.34942 -1.84826 0
M  V30 37356 O 3634.18 0.687859 -1.67744 0
M  V30 37357 C 3634.23 -2.76278 -2.31738 0
M  V30 37358 O 3633.33 -2.38223 -3.36635 0
M  V30 37359 H 3632.67 -0.555066 -0.364414 0
M  V30 37360 H 3635.2 -1.97136 -0.547601 0
M  V30 37361 H 3635.21 -2.99654 -2.76897 0
M  V30 37362 H 3633.89 -3.71563 -1.86851 0
M  V30 37363 H 3632.46 -2.25332 -2.97119 0
M  V30 37364 N 3634.65 0.715001 -1.40447 0
M  V30 37365 C 3635.88 1.50409 -1.42073 0
M  V30 37366 C 3636.29 1.88789 -0.0205879 0
M  V30 37367 O 3635.65 1.55481 0.955608 0
M  V30 37368 C 3635.7 2.77905 -2.31195 0
M  V30 37369 O 3635.42 2.41148 -3.65759 0
M  V30 37370 C 3636.92 3.71796 -2.41418 0
M  V30 37371 H 3634.14 0.464155 -0.484562 0
M  V30 37372 H 3636.68 0.881932 -1.84505 0
M  V30 37373 H 3634.84 3.36404 -1.92123 0
M  V30 37374 H 3635.25 3.2319 -4.13096 0
M  V30 37375 H 3636.73 4.58093 -3.07984 0
M  V30 37376 H 3637.2 4.14943 -1.43941 0
M  V30 37377 H 3637.81 3.19208 -2.81045 0
M  V30 37378 N 3636.13 1.25954 0.947281 0
M  V30 37379 C 3637.35 1.13898 1.72728 0
M  V30 37380 C 3637.77 -0.306455 1.86296 0
M  V30 37381 O 3637.13 -1.21028 1.36596 0
M  V30 37382 C 3637.18 1.7961 3.13724 0
M  V30 37383 O 3636.9 3.18504 3.0081 0
M  V30 37384 C 3638.4 1.7343 4.07967 0
M  V30 37385 H 3635.62 0.39692 0.541014 0
M  V30 37386 H 3638.16 1.66458 1.18794 0
M  V30 37387 H 3636.32 1.31003 3.64578 0
M  V30 37388 H 3636.73 3.50929 3.89807 0
M  V30 37389 H 3638.21 2.24056 5.04483 0
M  V30 37390 H 3638.68 0.699557 4.33593 0
M  V30 37391 H 3639.29 2.21559 3.63031 0
M  V30 37392 N 3637.6 -1.15097 1.07659 0
M  V30 37393 C 3638.83 -1.90374 0.822943 0
M  V30 37394 C 3639.25 -1.77645 -0.618384 0
M  V30 37395 O 3638.61 -1.11131 -1.43246 0
M  V30 37396 C 3638.66 -3.38612 1.23994 0
M  V30 37397 O 3637.76 -4.10579 0.387157 0
M  V30 37398 H 3637.11 -0.592596 0.299542 0
M  V30 37399 H 3639.64 -1.45738 1.43602 0
M  V30 37400 H 3639.65 -3.89412 1.21748 0
M  V30 37401 H 3638.32 -3.47195 2.28972 0
M  V30 37402 H 3636.9 -3.69896 0.472376 0
M  V30 37403 N 3639.08 -0.861145 -1.31993 0
M  V30 37404 C 3640.5 -0.551871 -1.49755 0
M  V30 37405 C 3640.7 0.916025 -1.79475 0
M  V30 37406 O 3639.75 1.69871 -1.86816 0
M  V30 37407 C 3641.07 -1.44447 -2.63734 0
M  V30 37408 C 3642.62 -1.44557 -2.77619 0
M  V30 37409 C 3643.09 -2.32353 -3.94685 0
M  V30 37410 N 3644.58 -2.30185 -4.01957 0
M  V30 37411 C 3645.32 -2.94842 -4.91788 0
M  V30 37412 N 3644.81 -3.68636 -5.86583 0
M  V30 37413 N 3646.61 -2.84196 -4.84963 0
M  V30 37414 H 3638.76 -1.81107 -1.10969 0
M  V30 37415 H 3641.02 -0.773906 -0.547516 0
M  V30 37416 H 3640.73 -2.48857 -2.48521 0
M  V30 37417 H 3640.6 -1.13657 -3.59669 0
M  V30 37418 H 3642.99 -0.409085 -2.92251 0
M  V30 37419 H 3643.07 -1.79366 -1.82377 0
M  V30 37420 H 3642.71 -3.36074 -3.80811 0
M  V30 37421 H 3642.64 -1.94874 -4.89216 0
M  V30 37422 H 3645.13 -1.76539 -3.34129 0
M  V30 37423 H 3645.45 -4.15122 -6.51839 0
M  V30 37424 H 3643.79 -3.72744 -5.86589 0
M  V30 37425 H 3646.98 -2.26091 -4.09879 0
M  V30 37426 H 3647.15 -3.34867 -5.54769 0
M  V30 37427 N 3640.56 1.44905 -0.619713 0
M  V30 37428 C 3641.79 2.07025 -0.124635 0
M  V30 37429 C 3642.21 1.45921 1.18695 0
M  V30 37430 O 3641.57 0.556396 1.72551 0
M  V30 37431 C 3641.62 3.60598 -0.0112872 0
M  V30 37432 O 3640.72 3.99182 1.03575 0
M  V30 37433 H 3640.06 0.659215 -0.0795747 0
M  V30 37434 H 3642.59 1.85963 -0.85316 0
M  V30 37435 H 3642.6 4.07589 0.183008 0
M  V30 37436 H 3641.28 4.04456 -0.96892 0
M  V30 37437 H 3639.85 3.63841 0.816944 0
M  V30 37438 N 3642.04 0.359579 1.53443 0
M  V30 37439 C 3643 -0.477372 2.24174 0
M  V30 37440 C 3644 -1.01461 1.24749 0
M  V30 37441 O 3645.19 -0.901316 1.4907 0
M  V30 37442 C 3642.32 -1.66662 2.97383 0
M  V30 37443 H 3643.52 0.14146 2.99566 0
M  V30 37444 H 3641.07 0.11117 1.55904 0
M  V30 37445 H 3641.8 -2.3237 2.26218 0
M  V30 37446 H 3641.59 -1.28841 3.70327 0
M  V30 37447 H 3643.08 -2.25988 3.51169 0
M  V30 37448 N 3643.52 -1.57351 0.0885919 0
M  V30 37449 C 3644.76 -1.95996 -0.580092 0
M  V30 37450 C 3645.12 -0.969032 -1.65752 0
M  V30 37451 O 3646.32 -1.24374 -2.38295 0
M  V30 37452 C 3644.59 -3.39172 -1.12683 0
M  V30 37453 S 3646.15 -3.99808 -1.80829 0
M  V30 37454 H 3642.97 -0.685287 -0.18948 0
M  V30 37455 H 3645.57 -1.9479 0.166448 0
M  V30 37456 H 3644.28 -4.09062 -0.331068 0
M  V30 37457 H 3643.81 -3.43959 -1.90935 0
M  V30 37458 H 3645.82 -3.88081 -3.09204 0
M  V30 37459 N 3644.99 0.185069 -1.5651 0
M  V30 37460 C 3645.93 1.25358 -1.9188 0
M  V30 37461 C 3646.94 1.41192 -0.810468 0
M  V30 37462 O 3648.13 1.4144 -1.0889 0
M  V30 37463 C 3645.23 2.6243 -2.14438 0
M  V30 37464 C 3644.4 2.68074 -3.45623 0
M  V30 37465 C 3643.46 3.86412 -3.57172 0
M  V30 37466 O 3642.49 3.73049 -4.29911 0
M  V30 37467 N 3643.69 5.02293 -2.91002 0
M  V30 37468 H 3646.45 0.953278 -2.84135 0
M  V30 37469 H 3644.01 0.374927 -1.57499 0
M  V30 37470 H 3646.01 3.4004 -2.19443 0
M  V30 37471 H 3644.58 2.84907 -1.28634 0
M  V30 37472 H 3643.8 1.76663 -3.52397 0
M  V30 37473 H 3645.08 2.68844 -4.31973 0
M  V30 37474 H 3644.48 5.1605 -2.31752 0
M  V30 37475 H 3643.04 5.77813 -3.01621 0
M  V30 37476 N 3646.47 1.50945 0.453144 0
M  V30 37477 C 3647.89 1.38769 0.788369 0
M  V30 37478 C 3648.09 0.45771 1.96233 0
M  V30 37479 O 3647.14 -0.0930208 2.52329 0
M  V30 37480 C 3648.46 2.80498 1.08358 0
M  V30 37481 C 3650.01 2.89539 1.18896 0
M  V30 37482 C 3650.48 4.3214 1.5172 0
M  V30 37483 N 3651.97 4.35174 1.58676 0
M  V30 37484 C 3652.71 5.42527 1.85613 0
M  V30 37485 N 3652.2 6.60063 2.1045 0
M  V30 37486 N 3654 5.29989 1.87265 0
M  V30 37487 H 3646.15 2.09972 -0.320253 0
M  V30 37488 H 3648.41 0.944549 -0.0808187 0
M  V30 37489 H 3648.12 3.5047 0.293835 0
M  V30 37490 H 3647.99 3.18852 2.01527 0
M  V30 37491 H 3650.38 2.19774 1.96935 0
M  V30 37492 H 3650.46 2.54703 0.236646 0
M  V30 37493 H 3650.1 5.02449 0.742141 0
M  V30 37494 H 3650.03 4.64477 2.48131 0
M  V30 37495 H 3652.52 3.50429 1.41449 0
M  V30 37496 H 3652.84 7.37677 2.3033 0
M  V30 37497 H 3651.18 6.63206 2.07805 0
M  V30 37498 H 3654.37 4.37156 1.6737 0
M  V30 37499 H 3654.54 6.13737 2.07922 0
M  V30 37500 N 3647.95 -0.707543 1.40825 0
M  V30 37501 C 3648.88 -1.83263 1.3765 0
M  V30 37502 C 3649.9 -1.60364 0.280575 0
M  V30 37503 O 3651.08 -1.70089 0.541483 0
M  V30 37504 C 3648.18 -3.19814 1.12126 0
M  V30 37505 C 3647.36 -3.69842 2.33529 0
M  V30 37506 C 3646.42 -4.85029 2.04043 0
M  V30 37507 O 3645.44 -4.97263 2.7698 0
M  V30 37508 N 3646.64 -5.71409 1.02332 0
M  V30 37509 H 3649.41 -1.86482 2.34615 0
M  V30 37510 H 3646.97 -0.889401 1.35282 0
M  V30 37511 H 3648.96 -3.9448 0.903732 0
M  V30 37512 H 3647.53 -3.11693 0.237996 0
M  V30 37513 H 3646.75 -2.86217 2.7106 0
M  V30 37514 H 3648.04 -4.00004 3.14443 0
M  V30 37515 H 3647.44 -5.64143 0.41941 0
M  V30 37516 H 3646 -6.46026 0.865685 0
M  V30 37517 N 3649.43 -1.26454 -0.940588 0
M  V30 37518 C 3650.38 -1.08063 -2.03939 0
M  V30 37519 C 3651.35 0.0145096 -1.66094 0
M  V30 37520 O 3652.53 -0.145371 -1.90245 0
M  V30 37521 C 3649.67 -0.720287 -3.37499 0
M  V30 37522 C 3648.78 -1.89174 -3.88378 0
M  V30 37523 C 3647.92 -1.47445 -5.10327 0
M  V30 37524 C 3646.96 -2.61418 -5.53468 0
M  V30 37525 N 3646.09 -2.20367 -6.6662 0
M  V30 37526 H 3650.93 -2.02094 -2.19003 0
M  V30 37527 H 3648.47 -1.0062 -1.07304 0
M  V30 37528 H 3650.43 -0.49225 -4.14286 0
M  V30 37529 H 3649.06 0.183044 -3.22281 0
M  V30 37530 H 3648.11 -2.23269 -3.07986 0
M  V30 37531 H 3649.42 -2.74715 -4.16333 0
M  V30 37532 H 3648.58 -1.2069 -5.94575 0
M  V30 37533 H 3647.32 -0.589958 -4.84119 0
M  V30 37534 H 3646.32 -2.88902 -4.67777 0
M  V30 37535 H 3647.55 -3.50468 -5.81678 0
M  V30 37536 H 3645.49 -1.34352 -6.42095 0
M  V30 37537 H 3645.41 -2.99451 -6.94165 0
M  V30 37538 H 3646.68 -1.96825 -7.54242 0
M  V30 37539 N 3650.91 1.14525 -1.08268 0
M  V30 37540 C 3651.85 2.19564 -0.71137 0
M  V30 37541 C 3652.82 1.63336 0.301745 0
M  V30 37542 O 3654.01 1.8989 0.186076 0
M  V30 37543 C 3651.15 3.44872 -0.125315 0
M  V30 37544 C 3650.26 4.15257 -1.19104 0
M  V30 37545 C 3649.4 5.28144 -0.568994 0
M  V30 37546 C 3648.44 5.90359 -1.61685 0
M  V30 37547 N 3647.57 6.947 -1.01671 0
M  V30 37548 H 3652.41 2.50674 -1.61142 0
M  V30 37549 H 3649.95 1.23098 -0.805307 0
M  V30 37550 H 3651.91 4.16553 0.232174 0
M  V30 37551 H 3650.54 3.14249 0.738046 0
M  V30 37552 H 3649.59 3.41979 -1.66597 0
M  V30 37553 H 3650.9 4.57595 -1.98516 0
M  V30 37554 H 3650.06 6.0649 -0.159669 0
M  V30 37555 H 3648.79 4.87023 0.256798 0
M  V30 37556 H 3647.8 5.10718 -2.03585 0
M  V30 37557 H 3649.02 6.33555 -2.44509 0
M  V30 37558 H 3646.97 6.55657 -0.211987 0
M  V30 37559 H 3646.89 7.35515 -1.74794 0
M  V30 37560 H 3648.16 7.76924 -0.633197 0
M  V30 37561 N 3652.39 0.868133 1.31534 0
M  V30 37562 C 3653.63 0.478863 1.97065 0
M  V30 37563 C 3653.96 -0.965991 1.6847 0
M  V30 37564 O 3653.24 -1.67995 0.980195 0
M  V30 37565 C 3653.52 0.734375 3.52532 0
M  V30 37566 C 3653.38 2.22863 3.90707 0
M  V30 37567 C 3654.69 0.199636 4.39647 0
M  V30 37568 H 3651.81 0.175457 0.71581 0
M  V30 37569 H 3654.46 1.08904 1.55692 0
M  V30 37570 H 3652.61 0.21503 3.87904 0
M  V30 37571 H 3654.28 2.81509 3.65446 0
M  V30 37572 H 3652.52 2.70191 3.39381 0
M  V30 37573 H 3653.19 2.35806 4.99099 0
M  V30 37574 H 3655.67 0.643926 4.11087 0
M  V30 37575 H 3654.54 0.407879 5.47382 0
M  V30 37576 H 3654.8 -0.898338 4.32877 0
M  V30 37577 N 3653.86 -1.44574 0.627389 0
M  V30 37578 C 3655.09 -2.06444 0.13735 0
M  V30 37579 C 3655.51 -1.46857 -1.18652 0
M  V30 37580 O 3654.86 -0.590048 -1.72698 0
M  V30 37581 C 3654.91 -3.61498 0.0124116 0
M  V30 37582 O 3654.64 -4.18864 1.28393 0
M  V30 37583 C 3656.14 -4.40394 -0.506764 0
M  V30 37584 H 3653.36 -0.666457 0.0779504 0
M  V30 37585 H 3655.9 -1.85504 0.860733 0
M  V30 37586 H 3654.06 -3.81712 -0.661393 0
M  V30 37587 H 3654.47 -5.12263 1.12635 0
M  V30 37588 H 3655.94 -5.49321 -0.543207 0
M  V30 37589 H 3656.42 -4.11575 -1.53307 0
M  V30 37590 H 3657.03 -4.2509 0.133664 0
M  V30 37591 N 3655.34 -0.367711 -1.5325 0
M  V30 37592 C 3656.59 0.221315 -2.01287 0
M  V30 37593 C 3656.92 1.48601 -1.25492 0
M  V30 37594 O 3656.17 1.92769 -0.337426 0
M  V30 37595 C 3656.47 0.557087 -3.53032 0
M  V30 37596 C 3656.14 -0.613523 -4.46707 0
M  V30 37597 C 3654.8 -0.934716 -4.72034 0
M  V30 37598 C 3657.15 -1.39769 -5.0211 0
M  V30 37599 C 3654.48 -2.04201 -5.50017 0
M  V30 37600 C 3656.83 -2.49541 -5.81302 0
M  V30 37601 C 3655.49 -2.82193 -6.04916 0
M  V30 37602 H 3654.76 0.080985 -0.736561 0
M  V30 37603 H 3657.41 -0.500613 -1.84841 0
M  V30 37604 H 3655.72 1.36006 -3.67437 0
M  V30 37605 H 3657.41 1.02512 -3.87676 0
M  V30 37606 H 3654 -0.35315 -4.27143 0
M  V30 37607 H 3658.19 -1.16279 -4.82486 0
M  V30 37608 H 3653.44 -2.29894 -5.66532 0
M  V30 37609 H 3657.62 -3.10718 -6.23239 0
M  V30 37610 H 3655.24 -3.68116 -6.65127 0
M  V30 37611 N 3656.82 1.57302 -0.0969353 0
M  V30 37612 C 3658.1 1.85887 0.608704 0
M  V30 37613 C 3658.48 0.994129 1.86226 0
M  V30 37614 O 3657.82 0.0670377 2.28402 0
M  V30 37615 C 3658.03 3.36592 0.922326 0
M  V30 37616 C 3659.38 4.04689 1.28498 0
M  V30 37617 O 3660.41 3.41484 1.01328 0
M  V30 37618 O 3659.27 5.16218 1.79391 0
M  V30 37619 H 3656.36 0.768784 0.304795 0
M  V30 37620 H 3658.91 1.69203 -0.129772 0
M  V30 37621 H 3657.68 3.91286 0.03308 0
M  V30 37622 H 3657.3 3.58629 1.71672 0
M  V30 37623 N 3658.3 -0.176766 1.56606 0
M  V30 37624 C 3659.71 -0.528328 1.50602 0
M  V30 37625 C 3659.91 -1.84928 0.800238 0
M  V30 37626 O 3658.97 -2.49944 0.358343 0
M  V30 37627 C 3660.28 -0.56612 2.95323 0
M  V30 37628 C 3661.83 -0.653697 3.06098 0
M  V30 37629 C 3662.31 -0.722431 4.52266 0
M  V30 37630 N 3663.8 -0.785468 4.56492 0
M  V30 37631 C 3664.53 -0.859133 5.66927 0
M  V30 37632 N 3664.03 -0.893967 6.87008 0
M  V30 37633 N 3665.82 -0.897734 5.54885 0
M  V30 37634 H 3657.97 0.689478 2.00898 0
M  V30 37635 H 3660.23 0.247926 0.915006 0
M  V30 37636 H 3659.94 0.335722 3.50094 0
M  V30 37637 H 3659.81 -1.4145 3.49674 0
M  V30 37638 H 3662.2 -1.54596 2.51364 0
M  V30 37639 H 3662.28 0.221252 2.54841 0
M  V30 37640 H 3661.93 0.165558 5.0763 0
M  V30 37641 H 3661.86 -1.61345 5.01274 0
M  V30 37642 H 3664.35 -0.767052 3.70033 0
M  V30 37643 H 3664.66 -0.951199 7.66924 0
M  V30 37644 H 3663.01 -0.862336 6.89629 0
M  V30 37645 H 3666.2 -0.867484 4.59992 0
M  V30 37646 H 3666.37 -0.951682 6.40973 0
M  V30 37647 N 3659.78 -1.51183 -0.445132 0
M  V30 37648 C 3660.71 -1.74877 -1.54727 0
M  V30 37649 C 3661.69 -0.598351 -1.59229 0
M  V30 37650 O 3662.87 -0.84025 -1.75081 0
M  V30 37651 C 3660 -1.86669 -2.92868 0
M  V30 37652 C 3658.96 -3.02053 -3.03229 0
M  V30 37653 C 3658.28 -2.9902 -4.43274 0
M  V30 37654 C 3659.58 -4.42149 -2.78032 0
M  V30 37655 H 3661.28 -2.6716 -1.35151 0
M  V30 37656 H 3658.82 -1.28559 -0.648741 0
M  V30 37657 H 3660.77 -2.01828 -3.69923 0
M  V30 37658 H 3659.5 -0.910281 -3.13658 0
M  V30 37659 H 3658.16 -2.86587 -2.28612 0
M  V30 37660 H 3657.81 -2.01171 -4.6102 0
M  V30 37661 H 3657.51 -3.76496 -4.51137 0
M  V30 37662 H 3659.03 -3.16261 -5.22313 0
M  V30 37663 H 3660.44 -4.58006 -3.44823 0
M  V30 37664 H 3658.84 -5.21272 -2.97314 0
M  V30 37665 H 3659.91 -4.52724 -1.73692 0
M  V30 37666 N 3661.25 0.700065 -1.41198 0
M  V30 37667 C 3662.19 1.8253 -1.3862 0
M  V30 37668 C 3663.2 1.60213 -0.289075 0
M  V30 37669 O 3664.39 1.69799 -0.550495 0
M  V30 37670 C 3661.49 3.19215 -1.13821 0
M  V30 37671 C 3660.66 3.68598 -2.35487 0
M  V30 37672 C 3659.72 4.8394 -2.06612 0
M  V30 37673 O 3658.75 4.95787 -2.79613 0
M  V30 37674 N 3659.95 5.70858 -1.05361 0
M  V30 37675 H 3662.71 1.85236 -2.35601 0
M  V30 37676 H 3660.27 0.882214 -1.35752 0
M  V30 37677 H 3662.27 3.93996 -0.92464 0
M  V30 37678 H 3660.84 3.11562 -0.254522 0
M  V30 37679 H 3660.06 2.84775 -2.72574 0
M  V30 37680 H 3661.34 3.9833 -3.1656 0
M  V30 37681 H 3660.74 5.63913 -0.449322 0
M  V30 37682 H 3659.3 6.45557 -0.899933 0
M  V30 37683 N 3662.73 1.26951 0.933869 0
M  V30 37684 C 3663.98 1.13094 1.68338 0
M  V30 37685 C 3664.31 -0.323637 1.91484 0
M  V30 37686 O 3663.59 -1.23721 1.50078 0
M  V30 37687 C 3663.87 1.90843 3.0537 0
M  V30 37688 C 3663.72 3.44249 2.89504 0
M  V30 37689 C 3665.04 1.70802 4.05604 0
M  V30 37690 H 3662.16 0.41222 0.610937 0
M  V30 37691 H 3664.8 1.56034 1.08413 0
M  V30 37692 H 3662.95 1.54349 3.56523 0
M  V30 37693 H 3664.62 3.90537 2.45516 0
M  V30 37694 H 3662.87 3.70903 2.24975 0
M  V30 37695 H 3663.54 3.93886 3.86728 0
M  V30 37696 H 3666.01 2.0261 3.6344 0
M  V30 37697 H 3664.89 2.27606 4.99486 0
M  V30 37698 H 3665.15 0.654404 4.3723 0
M  V30 37699 N 3664.21 -1.13949 1.08873 0
M  V30 37700 C 3665.14 -2.21304 0.744754 0
M  V30 37701 C 3666.12 -1.67862 -0.274989 0
M  V30 37702 O 3667.31 -1.93663 -0.144305 0
M  V30 37703 C 3664.44 -3.46939 0.158397 0
M  V30 37704 C 3663.39 -4.13436 1.10702 0
M  V30 37705 C 3662.72 -5.33329 0.382646 0
M  V30 37706 C 3664.02 -4.61425 2.44712 0
M  V30 37707 H 3665.71 -2.50334 1.64235 0
M  V30 37708 H 3663.26 -1.20322 0.79111 0
M  V30 37709 H 3665.21 -4.21295 -0.0942846 0
M  V30 37710 H 3663.93 -3.17287 -0.774357 0
M  V30 37711 H 3662.59 -3.4104 1.34488 0
M  V30 37712 H 3662.24 -4.99939 -0.554065 0
M  V30 37713 H 3661.94 -5.78766 1.0151 0
M  V30 37714 H 3663.46 -6.10444 0.13813 0
M  V30 37715 H 3664.88 -5.27232 2.25166 0
M  V30 37716 H 3663.27 -5.17581 3.03694 0
M  V30 37717 H 3664.34 -3.76244 3.0589 0
M  V30 37718 N 3665.69 -0.875096 -1.31072 0
M  V30 37719 C 3666.96 -0.409049 -1.91275 0
M  V30 37720 C 3667.34 1.10936 -1.79601 0
M  V30 37721 O 3666.69 1.94024 -1.20693 0
M  V30 37722 C 3666.9 -0.896133 -3.37299 0
M  V30 37723 C 3668.25 -0.925278 -4.14396 0
M  V30 37724 O 3669.27 -0.84213 -3.46102 0
M  V30 37725 O 3668.13 -1.04649 -5.36387 0
M  V30 37726 H 3665.23 -0.123324 -0.817753 0
M  V30 37727 H 3667.77 -0.963346 -1.39706 0
M  V30 37728 H 3666.55 -1.93981 -3.39834 0
M  V30 37729 H 3666.17 -0.320437 -3.96307 0
M  V30 37730 N 3667.17 1.44239 -0.635047 0
M  V30 37731 C 3668.39 2.06881 -0.146585 0
M  V30 37732 C 3668.82 1.47172 1.17141 0
M  V30 37733 O 3668.17 0.574666 1.71951 0
M  V30 37734 C 3668.22 3.60566 -0.0495328 0
M  V30 37735 O 3667.33 4.00258 0.993353 0
M  V30 37736 H 3666.67 0.658334 -0.0865621 0
M  V30 37737 H 3669.2 1.85048 -0.872836 0
M  V30 37738 H 3669.21 4.07761 0.139767 0
M  V30 37739 H 3667.88 4.03406 -1.01176 0
M  V30 37740 H 3666.46 3.64687 0.778307 0
M  V30 37741 N 3668.64 0.375833 1.53053 0
M  V30 37742 C 3669.59 -0.482437 2.22837 0
M  V30 37743 C 3670.58 -1.04049 1.2273 0
M  V30 37744 O 3671.77 -0.968828 1.48131 0
M  V30 37745 C 3668.9 -1.61629 3.02871 0
M  V30 37746 C 3667.99 -1.07062 4.10364 0
M  V30 37747 N 3668.38 -0.248789 5.05188 0
M  V30 37748 C 3666.67 -1.34444 4.25254 0
M  V30 37749 C 3667.38 0.0511481 5.81678 0
M  V30 37750 N 3666.35 -0.549223 5.40818 0
M  V30 37751 H 3670.15 0.152152 2.93506 0
M  V30 37752 H 3667.67 0.184401 1.6135 0
M  V30 37753 H 3669.66 -2.24343 3.51391 0
M  V30 37754 H 3668.32 -2.25383 2.33736 0
M  V30 37755 H 3669.34 0.112857 5.17777 0
M  V30 37756 H 3666.01 -1.98402 3.67346 0
M  V30 37757 H 3667.4 0.716179 6.68072 0
M  V30 37758 N 3670.12 -1.57248 0.105276 0
M  V30 37759 C 3671.35 -1.98772 -0.563304 0
M  V30 37760 C 3671.76 -0.983508 -1.61628 0
M  V30 37761 O 3671.1 0.0337151 -1.83669 0
M  V30 37762 C 3671.17 -3.36689 -1.2602 0
M  V30 37763 C 3670.83 -4.55605 -0.356785 0
M  V30 37764 C 3671.83 -5.18366 0.399146 0
M  V30 37765 C 3669.51 -5.01564 -0.271866 0
M  V30 37766 C 3671.51 -6.25461 1.22787 0
M  V30 37767 C 3669.19 -6.08524 0.560502 0
M  V30 37768 C 3670.19 -6.70339 1.30901 0
M  V30 37769 O 3669.88 -7.75235 2.12759 0
M  V30 37770 H 3669.61 -0.658021 -0.15487 0
M  V30 37771 H 3672.16 -2.04571 0.184302 0
M  V30 37772 H 3670.39 -3.27603 -2.05459 0
M  V30 37773 H 3672.08 -3.62592 -1.82432 0
M  V30 37774 H 3672.85 -4.83783 0.343332 0
M  V30 37775 H 3668.73 -4.53205 -0.844145 0
M  V30 37776 H 3672.27 -6.7364 1.8126 0
M  V30 37777 H 3668.17 -6.42537 0.61776 0
M  V30 37778 H 3668.94 -7.92269 2.05551 0
M  V30 37779 N 3671.6 0.168458 -1.56697 0
M  V30 37780 C 3672.53 1.23316 -1.93199 0
M  V30 37781 C 3673.55 1.40325 -0.825398 0
M  V30 37782 O 3674.73 1.40277 -1.10384 0
M  V30 37783 C 3671.83 2.60141 -2.17209 0
M  V30 37784 C 3671.01 2.64393 -3.48447 0
M  V30 37785 C 3670.07 3.82602 -3.61251 0
M  V30 37786 O 3669.09 3.68468 -4.33843 0
M  V30 37787 N 3670.29 4.99178 -2.96313 0
M  V30 37788 H 3673.06 0.923088 -2.8513 0
M  V30 37789 H 3670.62 0.358201 -1.57888 0
M  V30 37790 H 3672.61 3.37693 -2.23037 0
M  V30 37791 H 3671.18 2.83527 -1.31648 0
M  V30 37792 H 3670.4 1.72915 -3.54251 0
M  V30 37793 H 3671.69 2.64247 -4.348 0
M  V30 37794 H 3671.09 5.13563 -2.37212 0
M  V30 37795 H 3669.65 5.74582 -3.07732 0
M  V30 37796 N 3673.08 1.51417 0.437109 0
M  V30 37797 C 3674.36 1.54638 1.19777 0
M  V30 37798 C 3674.74 0.310784 2.088 0
M  V30 37799 O 3674.08 -0.70411 2.17381 0
M  V30 37800 C 3674.29 2.8605 1.99942 0
M  V30 37801 C 3675.64 3.38007 2.56975 0
M  V30 37802 O 3676.67 2.87601 2.10152 0
M  V30 37803 O 3675.52 4.25959 3.42375 0
M  V30 37804 H 3672.62 0.621723 0.545335 0
M  V30 37805 H 3675.16 1.6373 0.44616 0
M  V30 37806 H 3673.94 3.67437 1.34557 0
M  V30 37807 H 3673.56 2.8012 2.82167 0
M  V30 37808 N 3674.56 -0.692567 1.41567 0
M  V30 37809 C 3675.8 -1.45477 1.41295 0
M  V30 37810 C 3676.14 -1.94186 0.0229434 0
M  V30 37811 O 3675.41 -1.69731 -0.949819 0
M  V30 37812 C 3675.69 -2.66453 2.42229 0
M  V30 37813 C 3675.55 -2.2349 3.90349 0
M  V30 37814 C 3676.87 -3.68653 2.4038 0
M  V30 37815 H 3673.98 -0.527654 0.514539 0
M  V30 37816 H 3676.63 -0.788567 1.72863 0
M  V30 37817 H 3674.78 -3.23292 2.1544 0
M  V30 37818 H 3676.45 -1.71954 4.28053 0
M  V30 37819 H 3674.69 -1.55242 4.05071 0
M  V30 37820 H 3675.36 -3.10306 4.56524 0
M  V30 37821 H 3677.84 -3.21494 2.64161 0
M  V30 37822 H 3676.71 -4.50904 3.13012 0
M  V30 37823 H 3676.98 -4.18557 1.42345 0
M  V30 37824 N 3676.03 -1.27445 -0.927123 0
M  V30 37825 C 3676.96 -1.12738 -2.04481 0
M  V30 37826 C 3677.95 -0.0286961 -1.70076 0
M  V30 37827 O 3679.13 -0.203286 -1.93133 0
M  V30 37828 C 3676.26 -0.774411 -3.38556 0
M  V30 37829 C 3675.21 -1.82639 -3.87075 0
M  V30 37830 C 3674.54 -1.32738 -5.17962 0
M  V30 37831 C 3675.84 -3.23058 -4.10403 0
M  V30 37832 H 3677.53 -2.06235 -2.17043 0
M  V30 37833 H 3675.08 -0.992956 -1.0429 0
M  V30 37834 H 3677.03 -0.658346 -4.16226 0
M  V30 37835 H 3675.76 0.196263 -3.2601 0
M  V30 37836 H 3674.42 -1.93137 -3.11598 0
M  V30 37837 H 3674.06 -0.346147 -5.01808 0
M  V30 37838 H 3673.76 -2.03071 -5.51395 0
M  V30 37839 H 3675.29 -1.22427 -5.98201 0
M  V30 37840 H 3676.7 -3.15558 -4.7864 0
M  V30 37841 H 3675.1 -3.91107 -4.55143 0
M  V30 37842 H 3676.17 -3.68069 -3.15679 0
M  V30 37843 N 3677.51 1.1337 -1.09476 0
M  V30 37844 C 3678.46 2.18797 -0.734618 0
M  V30 37845 C 3679.43 1.63647 0.284404 0
M  V30 37846 O 3680.61 1.90077 0.165925 0
M  V30 37847 C 3677.75 3.4472 -0.161887 0
M  V30 37848 C 3676.87 4.1397 -1.23501 0
M  V30 37849 C 3676 5.27511 -0.624979 0
M  V30 37850 C 3675.04 5.88611 -1.67938 0
M  V30 37851 N 3674.18 6.93582 -1.09033 0
M  V30 37852 H 3679.02 2.48951 -1.63791 0
M  V30 37853 H 3676.56 1.22237 -0.818318 0
M  V30 37854 H 3678.51 4.16776 0.18798 0
M  V30 37855 H 3677.14 3.15015 0.704674 0
M  V30 37856 H 3676.2 3.40193 -1.70215 0
M  V30 37857 H 3677.51 4.55464 -2.03358 0
M  V30 37858 H 3676.66 6.06286 -0.223987 0
M  V30 37859 H 3675.4 4.87268 0.205128 0
M  V30 37860 H 3674.41 5.0853 -2.08991 0
M  V30 37861 H 3675.63 6.30926 -2.51215 0
M  V30 37862 H 3673.58 6.55396 -0.281516 0
M  V30 37863 H 3673.49 7.3362 -1.82586 0
M  V30 37864 H 3674.76 7.76209 -0.715564 0
M  V30 37865 N 3678.99 0.882035 1.30606 0
M  V30 37866 C 3679.9 0.350544 2.31966 0
M  V30 37867 C 3680.92 -0.545721 1.65221 0
M  V30 37868 O 3682.09 -0.439547 1.96545 0
M  V30 37869 C 3679.16 -0.428864 3.44037 0
M  V30 37870 C 3678.22 0.496802 4.26416 0
M  V30 37871 C 3677.45 -0.245503 5.33135 0
M  V30 37872 O 3677.67 -1.47199 5.5108 0
M  V30 37873 O 3676.61 0.402873 6.0055 0
M  V30 37874 H 3680.43 1.191 2.79372 0
M  V30 37875 H 3678.02 0.645778 1.34722 0
M  V30 37876 H 3679.9 -0.870273 4.12316 0
M  V30 37877 H 3678.58 -1.24567 2.98772 0
M  V30 37878 H 3677.48 0.986962 3.60846 0
M  V30 37879 H 3678.82 1.27954 4.75278 0
M  V30 37880 N 3680.47 -1.439 0.642688 0
M  V30 37881 C 3681.71 -2.02229 0.152038 0
M  V30 37882 C 3682.05 -1.5052 -1.22709 0
M  V30 37883 O 3681.32 -0.693969 -1.81698 0
M  V30 37884 C 3681.61 -3.59782 0.151341 0
M  V30 37885 C 3681.46 -4.21747 1.56363 0
M  V30 37886 C 3682.78 -4.37042 -0.517939 0
M  V30 37887 H 3679.9 -0.734814 0.0567223 0
M  V30 37888 H 3682.54 -1.71329 0.821367 0
M  V30 37889 H 3680.69 -3.86238 -0.418611 0
M  V30 37890 H 3682.36 -4.06358 2.18336 0
M  V30 37891 H 3680.6 -3.788 2.11408 0
M  V30 37892 H 3681.27 -5.30801 1.51508 0
M  V30 37893 H 3683.75 -4.16087 -0.0331216 0
M  V30 37894 H 3682.63 -5.46729 -0.487658 0
M  V30 37895 H 3682.89 -4.12507 -1.59029 0
M  V30 37896 N 3681.95 -0.383945 -1.52852 0
M  V30 37897 C 3682.89 0.453786 -2.26295 0
M  V30 37898 C 3683.86 1.06228 -1.2769 0
M  V30 37899 O 3685.05 1.09132 -1.56509 0
M  V30 37900 C 3682.19 1.57798 -3.0691 0
M  V30 37901 C 3681.3 0.992869 -4.20436 0
M  V30 37902 C 3680.44 2.08767 -4.88456 0
M  V30 37903 C 3679.48 1.47818 -5.93983 0
M  V30 37904 N 3678.61 2.51207 -6.55622 0
M  V30 37905 H 3683.45 -0.178979 -2.97462 0
M  V30 37906 H 3680.99 -0.100092 -1.46759 0
M  V30 37907 H 3682.95 2.24046 -3.51936 0
M  V30 37908 H 3681.58 2.18114 -2.37963 0
M  V30 37909 H 3680.63 0.220143 -3.79762 0
M  V30 37910 H 3681.94 0.507417 -4.96212 0
M  V30 37911 H 3681.1 2.82797 -5.3676 0
M  V30 37912 H 3679.84 2.60671 -4.12192 0
M  V30 37913 H 3678.84 0.723106 -5.45024 0
M  V30 37914 H 3680.07 0.96716 -6.72178 0
M  V30 37915 H 3678.01 3.02289 -5.822 0
M  V30 37916 H 3677.93 2.07401 -7.26994 0
M  V30 37917 H 3679.2 3.24883 -7.0857 0
M  V30 37918 N 3683.43 1.5719 -0.113614 0
M  V30 37919 C 3684.39 2.13867 0.824221 0
M  V30 37920 C 3685.39 1.07227 1.1983 0
M  V30 37921 O 3686.58 1.33028 1.12469 0
M  V30 37922 C 3683.71 2.67449 2.11386 0
M  V30 37923 H 3684.9 2.98059 0.331751 0
M  V30 37924 H 3682.46 1.55711 0.135572 0
M  V30 37925 H 3683.19 1.86829 2.65076 0
M  V30 37926 H 3682.98 3.45436 1.85517 0
M  V30 37927 H 3684.47 3.11227 2.78437 0
M  V30 37928 N 3684.9 -0.160146 1.56784 0
M  V30 37929 C 3685.87 -1.18192 1.96375 0
M  V30 37930 C 3686.87 -1.36579 0.848698 0
M  V30 37931 O 3688.06 -1.33794 1.11556 0
M  V30 37932 C 3685.19 -2.54483 2.26829 0
M  V30 37933 H 3686.38 -0.84259 2.8782 0
M  V30 37934 H 3683.93 -0.403012 1.51015 0
M  V30 37935 H 3684.67 -2.9341 1.38134 0
M  V30 37936 H 3684.45 -2.42501 3.08116 0
M  V30 37937 H 3685.94 -3.28099 2.58342 0
M  V30 37938 N 3686.38 -1.51647 -0.429072 0
M  V30 37939 C 3687.34 -1.72957 -1.50395 0
M  V30 37940 C 3688.34 -0.599517 -1.49206 0
M  V30 37941 O 3689.53 -0.867169 -1.51082 0
M  V30 37942 C 3686.67 -1.79363 -2.899 0
M  V30 37943 H 3687.86 -2.68894 -1.328 0
M  V30 37944 H 3685.41 -1.41761 -0.658288 0
M  V30 37945 H 3686.15 -0.852694 -3.12889 0
M  V30 37946 H 3685.93 -2.61498 -2.92167 0
M  V30 37947 H 3687.42 -1.97661 -3.67859 0
M  V30 37948 N 3687.86 0.685049 -1.41932 0
M  V30 37949 C 3689.08 1.47863 -1.45435 0
M  V30 37950 C 3689.51 1.87991 -0.0641633 0
M  V30 37951 O 3688.87 1.55327 0.935054 0
M  V30 37952 C 3688.92 2.71073 -2.37806 0
M  V30 37953 O 3688.02 3.68959 -1.84235 0
M  V30 37954 H 3687.36 0.444619 -0.493164 0
M  V30 37955 H 3689.89 0.841144 -1.8651 0
M  V30 37956 H 3689.9 3.19262 -2.54039 0
M  V30 37957 H 3688.58 2.41205 -3.38811 0
M  V30 37958 H 3687.15 3.27942 -1.77506 0
M  V30 37959 N 3689.34 1.27935 0.920351 0
M  V30 37960 C 3690.28 1.11294 2.02194 0
M  V30 37961 C 3691.25 0.0119162 1.66096 0
M  V30 37962 O 3692.44 0.175619 1.8999 0
M  V30 37963 C 3689.58 0.77389 3.36311 0
M  V30 37964 C 3688.69 1.95329 3.85319 0
M  V30 37965 C 3687.83 1.55546 5.07916 0
M  V30 37966 C 3686.87 2.7019 5.49239 0
M  V30 37967 N 3686 2.30944 6.6303 0
M  V30 37968 H 3690.84 2.05552 2.1576 0
M  V30 37969 H 3688.38 1.02314 1.05689 0
M  V30 37970 H 3690.34 0.558097 4.1345 0
M  V30 37971 H 3688.97 -0.131749 3.22531 0
M  V30 37972 H 3688.02 2.28141 3.04395 0
M  V30 37973 H 3689.33 2.81304 4.1191 0
M  V30 37974 H 3688.49 1.30134 5.92579 0
M  V30 37975 H 3687.23 0.666902 4.83119 0
M  V30 37976 H 3686.23 2.96307 4.63122 0
M  V30 37977 H 3687.46 3.59677 5.76029 0
M  V30 37978 H 3685.4 1.4455 6.39876 0
M  V30 37979 H 3685.32 3.10456 6.89313 0
M  V30 37980 H 3686.59 2.08799 7.51015 0
M  V30 37981 N 3690.82 -1.12788 1.10076 0
M  V30 37982 C 3692.06 -1.84488 0.842151 0
M  V30 37983 C 3692.39 -1.83673 -0.630705 0
M  V30 37984 O 3691.67 -1.27962 -1.46479 0
M  V30 37985 C 3691.95 -3.32339 1.38646 0
M  V30 37986 C 3691.81 -3.41629 2.92591 0
M  V30 37987 C 3693.12 -4.2798 1.02573 0
M  V30 37988 H 3690.24 -0.669837 0.307388 0
M  V30 37989 H 3692.89 -1.32343 1.36328 0
M  V30 37990 H 3691.04 -3.76877 0.9432 0
M  V30 37991 H 3692.71 -3.05754 3.45416 0
M  V30 37992 H 3690.95 -2.82293 3.29383 0
M  V30 37993 H 3691.62 -4.45631 3.25757 0
M  V30 37994 H 3694.1 -3.91549 1.40814 0
M  V30 37995 H 3692.97 -5.2985 1.43354 0
M  V30 37996 H 3693.23 -4.42052 -0.0652935 0
M  V30 37997 N 3692.29 -0.888949 -1.30136 0
M  V30 37998 C 3693.24 -0.356963 -2.28023 0
M  V30 37999 C 3694.21 0.555039 -1.56552 0
M  V30 38000 O 3695.4 0.482601 -1.84596 0
M  V30 38001 C 3692.54 0.418996 -3.42547 0
M  V30 38002 C 3691.65 -0.522676 -4.28826 0
M  V30 38003 C 3690.78 0.269273 -5.30517 0
M  V30 38004 C 3689.82 -0.667614 -6.08448 0
M  V30 38005 N 3688.96 0.0892566 -7.02043 0
M  V30 38006 H 3693.8 -1.19683 -2.7291 0
M  V30 38007 H 3691.34 -0.601544 -1.34238 0
M  V30 38008 H 3693.29 0.88484 -4.07709 0
M  V30 38009 H 3691.92 1.22341 -2.98718 0
M  V30 38010 H 3690.98 -1.10702 -3.63936 0
M  V30 38011 H 3692.29 -1.24027 -4.83134 0
M  V30 38012 H 3691.44 0.796795 -6.01445 0
M  V30 38013 H 3690.18 1.02006 -4.76913 0
M  V30 38014 H 3689.19 -1.20673 -5.36394 0
M  V30 38015 H 3690.41 -1.41756 -6.6414 0
M  V30 38016 H 3688.36 0.822508 -6.50823 0
M  V30 38017 H 3688.27 -0.568631 -7.53858 0
M  V30 38018 H 3689.54 0.597393 -7.77207 0
M  V30 38019 N 3693.77 1.43557 -0.65031 0
M  V30 38020 C 3694.73 2.29175 0.0335922 0
M  V30 38021 C 3695.73 1.42056 0.75344 0
M  V30 38022 O 3696.92 1.63719 0.595129 0
M  V30 38023 C 3694.06 3.24057 1.05829 0
M  V30 38024 H 3695.25 2.91136 -0.719694 0
M  V30 38025 H 3692.8 1.50789 -0.41139 0
M  V30 38026 H 3693.54 2.66985 1.84091 0
M  V30 38027 H 3693.32 3.88282 0.545816 0
M  V30 38028 H 3694.81 3.88326 1.53599 0
M  V30 38029 N 3695.25 0.392045 1.52646 0
M  V30 38030 C 3696.2 -0.456634 2.28074 0
M  V30 38031 C 3697.19 -1.06069 1.32082 0
M  V30 38032 O 3698.4 -1.00085 1.49609 0
M  V30 38033 H 3694.77 -0.166017 0.733446 0
M  V30 38034 H 3696.74 0.200968 2.97722 0
M  V30 38035 C 3695.49 -1.57035 3.10218 0
M  V30 38036 H 3694.82 -1.11486 3.83941 0
M  V30 38037 H 3696.26 -2.13834 3.6613 0
M  V30 38038 C 3694.71 -2.52795 2.22702 0
M  V30 38039 O 3695.24 -3.5627 1.85566 0
M  V30 38040 N 3693.45 -2.22601 1.86808 0
M  V30 38041 H 3693 -1.38488 2.17207 0
M  V30 38042 H 3692.96 -2.86922 1.28543 0
M  V30 38043 N 3696.73 -1.57127 0.121948 0
M  V30 38044 C 3697.66 -2.18487 -0.823749 0
M  V30 38045 C 3698.64 -1.12577 -1.27517 0
M  V30 38046 O 3699.82 -1.40824 -1.33724 0
M  V30 38047 C 3696.95 -2.78662 -2.07279 0
M  V30 38048 C 3695.91 -3.90181 -1.75905 0
M  V30 38049 C 3695.23 -4.37177 -3.07864 0
M  V30 38050 C 3696.53 -5.12142 -1.02508 0
M  V30 38051 H 3698.23 -2.97765 -0.312435 0
M  V30 38052 H 3695.77 -1.43229 -0.148837 0
M  V30 38053 H 3697.73 -3.20247 -2.73897 0
M  V30 38054 H 3696.45 -1.96678 -2.6074 0
M  V30 38055 H 3695.11 -3.49176 -1.11675 0
M  V30 38056 H 3694.76 -3.52048 -3.59265 0
M  V30 38057 H 3694.46 -5.12381 -2.87644 0
M  V30 38058 H 3695.98 -4.81415 -3.75595 0
M  V30 38059 H 3697.4 -5.50728 -1.59285 0
M  V30 38060 H 3695.79 -5.92948 -0.923732 0
M  V30 38061 H 3696.86 -4.84898 -0.0123366 0
M  V30 38062 N 3698.21 0.151829 -1.56867 0
M  V30 38063 C 3699.14 1.18945 -2.00934 0
M  V30 38064 C 3700.12 1.45076 -0.888088 0
M  V30 38065 O 3701.3 1.56079 -1.15556 0
M  V30 38066 C 3698.43 2.52379 -2.38584 0
M  V30 38067 C 3697.39 2.40779 -3.5385 0
M  V30 38068 C 3696.71 3.78879 -3.77299 0
M  V30 38069 C 3698.01 1.89596 -4.86673 0
M  V30 38070 H 3699.71 0.823057 -2.87865 0
M  V30 38071 H 3697.25 0.394474 -1.38492 0
M  V30 38072 H 3699.21 3.25188 -2.68012 0
M  V30 38073 H 3697.93 2.90844 -1.48584 0
M  V30 38074 H 3696.59 1.70421 -3.2458 0
M  V30 38075 H 3696.24 4.14772 -2.84558 0
M  V30 38076 H 3695.94 3.71981 -4.54867 0
M  V30 38077 H 3697.46 4.53245 -4.09147 0
M  V30 38078 H 3698.87 2.52195 -5.1485 0
M  V30 38079 H 3697.27 1.936 -5.68013 0
M  V30 38080 H 3698.34 0.851354 -4.77368 0
M  V30 38081 N 3699.68 1.51872 0.421024 0
M  V30 38082 C 3700.91 1.69467 1.19565 0
M  V30 38083 C 3701.33 0.398301 1.83835 0
M  V30 38084 O 3700.69 -0.643142 1.69509 0
M  V30 38085 C 3700.74 2.82325 2.24332 0
M  V30 38086 O 3699.84 2.47065 3.30201 0
M  V30 38087 H 3699.19 0.564533 0.349569 0
M  V30 38088 H 3701.72 1.98518 0.495142 0
M  V30 38089 H 3701.73 3.0689 2.68855 0
M  V30 38090 H 3700.4 3.76387 1.76934 0
M  V30 38091 H 3698.98 2.3313 2.91041 0
M  V30 38092 N 3701.16 -0.677513 1.42294 0
M  V30 38093 C 3702.41 -1.4397 1.4283 0
M  V30 38094 C 3702.74 -1.94151 0.0435382 0
M  V30 38095 O 3702.02 -1.70729 -0.931764 0
M  V30 38096 C 3702.3 -2.63868 2.45042 0
M  V30 38097 C 3702.15 -2.19337 3.92698 0
M  V30 38098 C 3703.47 -3.66083 2.44277 0
M  V30 38099 H 3700.59 -0.522167 0.520106 0
M  V30 38100 H 3703.23 -0.770188 1.7369 0
M  V30 38101 H 3701.38 -3.20989 2.18857 0
M  V30 38102 H 3703.05 -1.67404 4.29853 0
M  V30 38103 H 3701.3 -1.50937 4.06694 0
M  V30 38104 H 3701.97 -3.05447 4.59789 0
M  V30 38105 H 3704.44 -3.18674 2.67556 0
M  V30 38106 H 3703.32 -4.47559 3.17777 0
M  V30 38107 H 3703.58 -4.17024 1.46776 0
M  V30 38108 N 3702.64 -1.28421 -0.913554 0
M  V30 38109 C 3703.55 -1.14215 -2.0492 0
M  V30 38110 C 3704.57 -0.068673 -1.73864 0
M  V30 38111 O 3705.74 -0.278003 -1.99472 0
M  V30 38112 C 3702.81 -0.805505 -3.37213 0
M  V30 38113 C 3701.87 -1.96136 -3.81876 0
M  V30 38114 C 3701.1 -1.64068 -5.07856 0
M  V30 38115 O 3701.32 -0.555131 -5.67692 0
M  V30 38116 O 3700.26 -2.48438 -5.48236 0
M  V30 38117 H 3704.08 -2.0955 -2.19823 0
M  V30 38118 H 3701.67 -1.07742 -1.03499 0
M  V30 38119 H 3703.55 -0.631722 -4.16638 0
M  V30 38120 H 3702.23 0.118197 -3.23484 0
M  V30 38121 H 3701.13 -2.1903 -3.03277 0
M  V30 38122 H 3702.47 -2.86577 -4.00168 0
M  V30 38123 N 3704.12 1.12202 -1.10672 0
M  V30 38124 C 3705.03 2.21595 -0.770259 0
M  V30 38125 C 3706.04 1.72429 0.233267 0
M  V30 38126 O 3707.22 2.01273 0.071414 0
M  V30 38127 C 3704.29 3.46065 -0.209743 0
M  V30 38128 C 3703.35 4.10058 -1.27086 0
M  V30 38129 C 3702.58 5.28587 -0.736992 0
M  V30 38130 O 3702.8 5.68733 0.435738 0
M  V30 38131 O 3701.74 5.82959 -1.49807 0
M  V30 38132 H 3705.56 2.52773 -1.68344 0
M  V30 38133 H 3703.15 1.20584 -0.882033 0
M  V30 38134 H 3705.03 4.21284 0.0988775 0
M  V30 38135 H 3703.7 3.16557 0.676261 0
M  V30 38136 H 3702.61 3.36607 -1.63237 0
M  V30 38137 H 3703.94 4.43727 -2.12996 0
M  V30 38138 N 3705.6 0.895838 1.29663 0
M  V30 38139 C 3706.56 0.37554 2.26102 0
M  V30 38140 C 3707.56 -0.488099 1.53213 0
M  V30 38141 O 3708.75 -0.293702 1.71706 0
M  V30 38142 C 3705.88 -0.46358 3.37733 0
M  V30 38143 H 3707.07 1.22723 2.73641 0
M  V30 38144 H 3704.63 0.673638 1.41038 0
M  V30 38145 H 3705.36 -1.33541 2.95529 0
M  V30 38146 H 3705.15 0.155192 3.91793 0
M  V30 38147 H 3706.64 -0.81904 4.09489 0
M  V30 38148 N 3707.07 -1.43211 0.657914 0
M  V30 38149 C 3708.31 -2.03633 0.176884 0
M  V30 38150 C 3708.68 -1.50809 -1.18831 0
M  V30 38151 O 3709.88 -2.02907 -1.76302 0
M  V30 38152 C 3708.15 -3.56886 0.19164 0
M  V30 38153 S 3709.71 -4.38244 -0.220858 0
M  V30 38154 H 3706.53 -0.707111 0.0742679 0
M  V30 38155 H 3709.13 -1.75209 0.867299 0
M  V30 38156 H 3707.83 -3.92833 1.18788 0
M  V30 38157 H 3707.36 -3.89959 -0.51916 0
M  V30 38158 H 3709.38 -4.74279 -1.45856 0
M  V30 38159 N 3708.55 -0.400135 -1.52436 0
M  V30 38160 C 3709.78 0.180825 -2.0661 0
M  V30 38161 C 3710.2 1.38843 -1.26903 0
M  V30 38162 O 3709.56 1.78853 -0.296894 0
M  V30 38163 C 3709.61 0.518532 -3.56852 0
M  V30 38164 O 3708.71 1.61089 -3.79637 0
M  V30 38165 H 3708.05 0.0181231 -0.663753 0
M  V30 38166 H 3710.58 -0.570736 -1.96478 0
M  V30 38167 H 3710.59 0.779746 -4.0048 0
M  V30 38168 H 3709.27 -0.364288 -4.14302 0
M  V30 38169 H 3707.85 1.34254 -3.47894 0
M  V30 38170 N 3710.03 1.57061 -0.13028 0
M  V30 38171 C 3710.96 2.18921 0.812151 0
M  V30 38172 C 3711.94 1.13251 1.26918 0
M  V30 38173 O 3713.13 1.41531 1.32976 0
M  V30 38174 C 3710.26 2.79758 2.05798 0
M  V30 38175 C 3709.21 3.91108 1.73834 0
M  V30 38176 C 3708.54 4.38804 3.05541 0
M  V30 38177 C 3709.84 5.12678 0.997901 0
M  V30 38178 H 3711.53 2.97927 0.29664 0
M  V30 38179 H 3709.08 1.43306 0.141239 0
M  V30 38180 H 3711.03 3.21695 2.72195 0
M  V30 38181 H 3709.75 1.98058 2.59693 0
M  V30 38182 H 3708.41 3.49764 1.09822 0
M  V30 38183 H 3708.06 3.53948 3.57393 0
M  V30 38184 H 3707.76 5.13899 2.84923 0
M  V30 38185 H 3709.28 4.834 3.73037 0
M  V30 38186 H 3710.7 5.51565 1.56362 0
M  V30 38187 H 3709.1 5.93429 0.892274 0
M  V30 38188 H 3710.17 4.84898 -0.0133789 0
M  V30 38189 N 3711.51 -0.143508 1.56945 0
M  V30 38190 C 3712.74 -0.870368 1.87702 0
M  V30 38191 C 3713.15 -1.74579 0.718864 0
M  V30 38192 O 3712.51 -1.79826 -0.311255 0
M  V30 38193 C 3712.56 -1.72418 3.17733 0
M  V30 38194 O 3712.28 -0.884039 4.29088 0
M  V30 38195 C 3713.78 -2.55833 3.62028 0
M  V30 38196 H 3711 -0.251493 0.622087 0
M  V30 38197 H 3713.55 -0.135249 2.04052 0
M  V30 38198 H 3711.7 -2.41233 3.03126 0
M  V30 38199 H 3712.12 -1.47057 5.03463 0
M  V30 38200 H 3713.59 -3.11311 4.55839 0
M  V30 38201 H 3714.07 -3.32036 2.87486 0
M  V30 38202 H 3714.67 -1.92303 3.79341 0
M  V30 38203 N 3712.99 -1.52093 -0.412964 0
M  V30 38204 C 3714.4 -1.5817 -0.991927 0
M  V30 38205 C 3714.75 -0.419868 -1.91655 0
M  V30 38206 O 3713.87 0.460271 -2.11448 0
M  V30 38207 C 3714.47 -2.86666 -1.80576 0
M  V30 38208 C 3713.03 -2.95234 -2.33482 0
M  V30 38209 C 3712.18 -2.53072 -1.13358 0
M  V30 38210 H 3715.13 -1.57518 -0.193336 0
M  V30 38211 H 3715.15 -2.71803 -2.66277 0
M  V30 38212 H 3714.66 -3.71207 -1.13255 0
M  V30 38213 H 3712.76 -2.15178 -3.04186 0
M  V30 38214 H 3712.87 -3.99398 -2.6461 0
M  V30 38215 H 3711.24 -2.06831 -1.48637 0
M  V30 38216 H 3712.02 -3.39983 -0.476088 0
M  V30 38217 N 3714.47 0.669957 -1.42651 0
M  V30 38218 C 3715.88 1.2507 -1.38616 0
M  V30 38219 C 3716.23 1.96029 -0.0818395 0
M  V30 38220 O 3715.35 2.00292 0.819275 0
M  V30 38221 C 3715.95 2.27464 -2.51089 0
M  V30 38222 C 3714.51 2.81054 -2.50371 0
M  V30 38223 C 3713.65 1.55446 -2.29634 0
M  V30 38224 H 3716.6 0.463032 -1.51795 0
M  V30 38225 H 3716.63 3.09299 -2.21618 0
M  V30 38226 H 3716.14 1.7579 -3.46005 0
M  V30 38227 H 3714.24 3.36836 -1.59286 0
M  V30 38228 H 3714.35 3.2974 -3.47575 0
M  V30 38229 H 3712.72 1.8219 -1.77985 0
M  V30 38230 H 3713.5 1.0573 -3.26613 0
M  V30 38231 N 3715.94 1.28904 0.90673 0
M  V30 38232 C 3716.89 1.10065 1.99674 0
M  V30 38233 C 3717.88 0.0221725 1.60885 0
M  V30 38234 O 3719.07 0.243101 1.75323 0
M  V30 38235 C 3716.2 0.771882 3.3451 0
M  V30 38236 C 3715.28 1.88955 3.7968 0
M  V30 38237 N 3715.68 3.13214 3.97153 0
M  V30 38238 C 3713.97 1.78099 4.08897 0
M  V30 38239 C 3714.67 3.86086 4.35101 0
M  V30 38240 N 3713.65 3.13981 4.43753 0
M  V30 38241 H 3717.45 2.04337 2.11243 0
M  V30 38242 H 3714.97 1.19926 1.09506 0
M  V30 38243 H 3716.96 0.617981 4.12294 0
M  V30 38244 H 3715.62 -0.162993 3.24291 0
M  V30 38245 H 3716.63 3.48747 3.82878 0
M  V30 38246 H 3713.31 0.918363 4.07274 0
M  V30 38247 H 3714.7 4.92986 4.56524 0
M  V30 38248 N 3717.42 -1.11614 1.11266 0
M  V30 38249 C 3718.65 -1.8766 0.883093 0
M  V30 38250 C 3719.07 -1.79522 -0.561554 0
M  V30 38251 O 3718.43 -1.15632 -1.39638 0
M  V30 38252 C 3718.48 -3.34496 1.34703 0
M  V30 38253 O 3717.58 -4.09139 0.517584 0
M  V30 38254 H 3716.92 -0.582767 0.318244 0
M  V30 38255 H 3719.45 -1.41096 1.48166 0
M  V30 38256 H 3719.46 -3.85341 1.34075 0
M  V30 38257 H 3718.14 -3.39735 2.39902 0
M  V30 38258 H 3716.71 -3.68206 0.589816 0
M  V30 38259 N 3718.9 -0.902701 -1.29186 0
M  V30 38260 C 3719.86 -0.387525 -2.259 0
M  V30 38261 C 3720.86 0.479967 -1.5347 0
M  V30 38262 O 3722.05 0.284592 -1.7186 0
M  V30 38263 C 3719.18 0.445663 -3.37974 0
M  V30 38264 H 3720.38 -1.24172 -2.72986 0
M  V30 38265 H 3717.93 -0.681108 -1.40679 0
M  V30 38266 H 3718.67 1.31972 -2.96233 0
M  V30 38267 H 3718.45 -0.175968 -3.91705 0
M  V30 38268 H 3719.94 0.797312 -4.09918 0
M  V30 38269 N 3720.38 1.4286 -0.6655 0
M  V30 38270 C 3721.32 2.30793 0.0185798 0
M  V30 38271 C 3722.29 1.45443 0.802223 0
M  V30 38272 O 3723.48 1.74291 0.776352 0
M  V30 38273 C 3720.62 3.31174 0.970441 0
M  V30 38274 C 3719.73 4.31618 0.181604 0
M  V30 38275 C 3718.87 5.19077 1.12837 0
M  V30 38276 C 3717.91 6.11206 0.330681 0
M  V30 38277 N 3717.04 6.91248 1.22967 0
M  V30 38278 H 3721.88 2.8874 -0.737119 0
M  V30 38279 H 3719.42 1.42233 -0.37525 0
M  V30 38280 H 3721.38 3.87894 1.53605 0
M  V30 38281 H 3720.01 2.74848 1.69287 0
M  V30 38282 H 3719.06 3.77093 -0.500481 0
M  V30 38283 H 3720.37 4.96872 -0.438128 0
M  V30 38284 H 3719.53 5.80483 1.76421 0
M  V30 38285 H 3718.27 4.53978 1.782 0
M  V30 38286 H 3717.27 5.48877 -0.318429 0
M  V30 38287 H 3718.5 6.78352 -0.318718 0
M  V30 38288 H 3716.44 6.28786 1.86988 0
M  V30 38289 H 3716.36 7.53071 0.6648 0
M  V30 38290 H 3717.63 7.57149 1.85327 0
M  V30 38291 N 3721.86 0.408213 1.52221 0
M  V30 38292 C 3723.08 -0.169865 2.06703 0
M  V30 38293 C 3723.51 -1.38168 1.27637 0
M  V30 38294 O 3722.86 -1.78693 0.306374 0
M  V30 38295 C 3722.91 -0.4996 3.57122 0
M  V30 38296 O 3722.02 -1.59073 3.80486 0
M  V30 38297 H 3721.36 -0.0146028 0.663839 0
M  V30 38298 H 3723.89 0.581148 1.96173 0
M  V30 38299 H 3723.9 -0.758497 4.00888 0
M  V30 38300 H 3722.57 0.386255 4.14103 0
M  V30 38301 H 3721.15 -1.32407 3.48601 0
M  V30 38302 N 3723.33 -1.56989 0.138607 0
M  V30 38303 C 3724.28 -2.16333 -0.804267 0
M  V30 38304 C 3725.25 -1.09381 -1.25 0
M  V30 38305 O 3726.44 -1.37383 -1.32403 0
M  V30 38306 C 3723.58 -2.78252 -2.04132 0
M  V30 38307 C 3722.69 -3.99571 -1.64216 0
M  V30 38308 C 3721.82 -4.49514 -2.83038 0
M  V30 38309 C 3720.86 -5.63319 -2.39455 0
M  V30 38310 N 3720 -6.07917 -3.51256 0
M  V30 38311 H 3724.84 -2.96572 -0.291388 0
M  V30 38312 H 3722.38 -1.46505 -0.13212 0
M  V30 38313 H 3724.33 -3.12291 -2.76641 0
M  V30 38314 H 3722.96 -2.00671 -2.52845 0
M  V30 38315 H 3722.02 -3.71566 -0.815058 0
M  V30 38316 H 3723.33 -4.82043 -1.28202 0
M  V30 38317 H 3722.48 -4.85565 -3.63746 0
M  V30 38318 H 3721.22 -3.66032 -3.22292 0
M  V30 38319 H 3720.23 -5.26852 -1.57184 0
M  V30 38320 H 3721.45 -6.48581 -2.01296 0
M  V30 38321 H 3719.4 -5.27372 -3.90147 0
M  V30 38322 H 3719.31 -6.85295 -3.19229 0
M  V30 38323 H 3720.58 -6.48611 -4.32347 0
M  V30 38324 N 3724.81 0.135183 -1.57019 0
M  V30 38325 C 3726.06 0.845785 -1.83991 0
M  V30 38326 C 3726.39 1.80631 -0.721287 0
M  V30 38327 O 3725.64 1.93558 0.288744 0
M  V30 38328 C 3725.94 1.64368 -3.17361 0
M  V30 38329 C 3725.61 0.828889 -4.43216 0
M  V30 38330 C 3724.27 0.604142 -4.77392 0
M  V30 38331 C 3726.62 0.259874 -5.20552 0
M  V30 38332 C 3723.95 -0.200136 -5.86359 0
M  V30 38333 C 3726.3 -0.531508 -6.30363 0
M  V30 38334 C 3724.96 -0.766721 -6.63082 0
M  V30 38335 H 3724.23 0.309495 -0.673271 0
M  V30 38336 H 3726.88 0.108869 -1.9119 0
M  V30 38337 H 3725.19 2.45104 -3.05665 0
M  V30 38338 H 3726.88 2.19718 -3.35448 0
M  V30 38339 H 3723.47 1.01414 -4.16429 0
M  V30 38340 H 3727.66 0.42076 -4.94513 0
M  V30 38341 H 3722.91 -0.391753 -6.10144 0
M  V30 38342 H 3727.09 -0.979492 -6.89477 0
M  V30 38343 H 3724.71 -1.39178 -7.47351 0
M  V30 38344 N 3726.29 1.5231 0.404892 0
M  V30 38345 C 3727.54 1.66248 1.14918 0
M  V30 38346 C 3727.86 0.396901 1.90918 0
M  V30 38347 O 3727.13 -0.588328 1.86857 0
M  V30 38348 H 3725.71 0.612779 0.427212 0
M  V30 38349 H 3728.37 1.89368 0.461058 0
M  V30 38350 H 3727.47 2.50553 1.8609 0
M  V30 38351 N 3727.77 -0.662382 1.43004 0
M  V30 38352 C 3729 -1.44822 1.47343 0
M  V30 38353 C 3729.41 -1.89 0.0870536 0
M  V30 38354 O 3728.75 -1.59512 -0.91113 0
M  V30 38355 C 3728.81 -2.72155 2.34887 0
M  V30 38356 C 3728.48 -2.49976 3.82572 0
M  V30 38357 C 3729.47 -2.13782 4.73913 0
M  V30 38358 C 3727.16 -2.64585 4.26966 0
M  V30 38359 C 3729.15 -1.92482 6.07643 0
M  V30 38360 C 3726.84 -2.429 5.60752 0
M  V30 38361 C 3727.84 -2.06903 6.50907 0
M  V30 38362 O 3727.52 -1.85438 7.8222 0
M  V30 38363 H 3727.26 -0.451694 0.50294 0
M  V30 38364 H 3729.81 -0.820191 1.88314 0
M  V30 38365 H 3728.04 -3.37485 1.88787 0
M  V30 38366 H 3729.73 -3.34078 2.30536 0
M  V30 38367 H 3730.5 -2.0208 4.40895 0
M  V30 38368 H 3726.37 -2.9158 3.57075 0
M  V30 38369 H 3729.92 -1.64309 6.77974 0
M  V30 38370 H 3725.82 -2.54202 5.93339 0
M  V30 38371 H 3726.58 -1.99936 7.93705 0
M  V30 38372 N 3729.25 -1.29383 -0.899882 0
M  V30 38373 C 3730.49 -1.17112 -1.6471 0
M  V30 38374 C 3730.82 0.277738 -1.93012 0
M  V30 38375 O 3730.09 1.1901 -1.55606 0
M  V30 38376 H 3728.67 -0.430429 -0.610524 0
M  V30 38377 H 3731.33 -1.62306 -1.07902 0
M  V30 38378 H 3730.42 -1.72103 -2.60359 0
M  V30 38379 N 3730.72 1.11022 -1.11856 0
M  V30 38380 C 3731.69 2.15372 -0.784071 0
M  V30 38381 C 3732.69 1.59568 0.198657 0
M  V30 38382 O 3733.88 1.7418 -0.0263735 0
M  V30 38383 C 3731.01 3.40505 -0.164047 0
M  V30 38384 H 3732.2 2.46474 -1.70853 0
M  V30 38385 H 3729.76 1.26282 -0.92101 0
M  V30 38386 H 3730.49 3.15016 0.770428 0
M  V30 38387 H 3730.28 3.82292 -0.871514 0
M  V30 38388 H 3731.77 4.17565 0.0537005 0
M  V30 38389 N 3732.2 0.90954 1.28706 0
M  V30 38390 C 3733.15 0.393195 2.27426 0
M  V30 38391 C 3734.12 -0.530062 1.57415 0
M  V30 38392 O 3735.3 -0.453172 1.8534 0
M  V30 38393 C 3732.44 -0.364446 3.4317 0
M  V30 38394 C 3731.56 0.590832 4.27941 0
M  V30 38395 C 3730.69 -0.184838 5.30878 0
M  V30 38396 C 3729.73 0.764328 6.07309 0
M  V30 38397 N 3728.87 0.0224437 7.02096 0
M  V30 38398 H 3733.71 1.2401 2.70972 0
M  V30 38399 H 3731.25 0.622824 1.33264 0
M  V30 38400 H 3733.2 -0.819865 4.09065 0
M  V30 38401 H 3731.83 -1.17573 3.00627 0
M  V30 38402 H 3730.89 1.16478 3.62129 0
M  V30 38403 H 3732.2 1.31697 4.811 0
M  V30 38404 H 3731.35 -0.70101 6.02636 0
M  V30 38405 H 3730.09 -0.944058 4.78476 0
M  V30 38406 H 3729.1 1.29191 5.34406 0
M  V30 38407 H 3730.32 1.52304 6.61801 0
M  V30 38408 H 3728.27 -0.718863 6.52049 0
M  V30 38409 H 3728.18 0.688491 7.52858 0
M  V30 38410 H 3729.45 -0.47367 7.7806 0
M  V30 38411 N 3733.68 -1.42505 0.673067 0
M  V30 38412 C 3734.96 -1.95209 0.12364 0
M  V30 38413 C 3735.34 -1.61357 -1.36115 0
M  V30 38414 O 3734.69 -0.90883 -2.09649 0
M  V30 38415 C 3734.9 -3.46803 0.390941 0
M  V30 38416 C 3736.24 -4.23492 0.306519 0
M  V30 38417 O 3737.27 -3.54718 0.324592 0
M  V30 38418 O 3736.13 -5.45941 0.247223 0
M  V30 38419 H 3733.22 -0.826998 0.00186322 0
M  V30 38420 H 3735.77 -1.52341 0.747677 0
M  V30 38421 H 3734.54 -3.64642 1.41957 0
M  V30 38422 H 3734.16 -3.96715 -0.265189 0
M  V30 38423 N 3735.16 -0.41628 -1.52003 0
M  V30 38424 C 3736.4 0.157398 -2.02188 0
M  V30 38425 C 3736.74 1.4418 -1.30099 0
M  V30 38426 O 3736.01 1.90141 -0.409459 0
M  V30 38427 C 3736.3 0.397784 -3.57896 0
M  V30 38428 C 3736.15 -0.903792 -4.40626 0
M  V30 38429 C 3737.47 1.17681 -4.24074 0
M  V30 38430 H 3734.59 0.0557308 -0.73489 0
M  V30 38431 H 3737.23 -0.55115 -1.81831 0
M  V30 38432 H 3735.38 1.00135 -3.75373 0
M  V30 38433 H 3737.05 -1.53972 -4.34845 0
M  V30 38434 H 3735.29 -1.51317 -4.06553 0
M  V30 38435 H 3735.96 -0.689899 -5.47672 0
M  V30 38436 H 3738.44 0.66576 -4.10739 0
M  V30 38437 H 3737.32 1.31376 -5.32946 0
M  V30 38438 H 3737.58 2.19936 -3.83511 0
M  V30 38439 N 3736.64 1.56914 -0.146931 0
M  V30 38440 C 3738.05 1.58219 0.209482 0
M  V30 38441 C 3738.25 1.16119 1.64677 0
M  V30 38442 O 3737.31 0.861456 2.3735 0
M  V30 38443 C 3738.62 3.0066 -0.0492093 0
M  V30 38444 C 3740.17 3.12997 0.0145055 0
M  V30 38445 C 3740.64 4.57486 -0.216854 0
M  V30 38446 N 3742.14 4.6291 -0.163779 0
M  V30 38447 C 3742.87 5.72521 -0.317304 0
M  V30 38448 N 3742.37 6.90781 -0.528547 0
M  V30 38449 N 3744.16 5.61522 -0.254913 0
M  V30 38450 H 3736.31 1.82573 -1.0854 0
M  V30 38451 H 3738.57 0.84505 -0.429645 0
M  V30 38452 H 3738.28 3.3585 -1.04393 0
M  V30 38453 H 3738.15 3.71198 0.670231 0
M  V30 38454 H 3740.54 2.77648 0.99978 0
M  V30 38455 H 3740.62 2.44945 -0.737262 0
M  V30 38456 H 3740.27 4.93539 -1.19923 0
M  V30 38457 H 3740.2 5.23665 0.555237 0
M  V30 38458 H 3742.69 3.779 -0.00516075 0
M  V30 38459 H 3743 7.7018 -0.635802 0
M  V30 38460 H 3741.34 6.92701 -0.564867 0
M  V30 38461 H 3744.54 4.68012 -0.0906449 0
M  V30 38462 H 3744.71 6.46897 -0.377995 0
M  V30 38463 N 3738.11 -0.126854 1.57089 0
M  V30 38464 C 3739.35 -0.841998 1.86252 0
M  V30 38465 C 3739.72 -1.7742 0.733899 0
M  V30 38466 O 3740.92 -2.53032 0.907095 0
M  V30 38467 C 3739.19 -1.57891 3.20633 0
M  V30 38468 S 3740.75 -2.33671 3.71407 0
M  V30 38469 H 3737.57 -0.281178 0.653039 0
M  V30 38470 H 3740.17 -0.10079 1.9524 0
M  V30 38471 H 3738.87 -0.885912 4.00724 0
M  V30 38472 H 3738.4 -2.36064 3.14702 0
M  V30 38473 H 3740.42 -3.59247 3.42281 0
M  V30 38474 N 3739.59 -1.52523 -0.396809 0
M  V30 38475 C 3740.54 -1.73126 -1.48362 0
M  V30 38476 C 3741.53 -0.58525 -1.49879 0
M  V30 38477 O 3742.72 -0.842791 -1.55647 0
M  V30 38478 C 3739.85 -1.89649 -2.86161 0
M  V30 38479 C 3738.93 -3.10158 -2.89245 0
M  V30 38480 N 3739.32 -4.32649 -2.62009 0
M  V30 38481 C 3737.62 -3.10244 -3.20413 0
M  V30 38482 C 3738.32 -5.14202 -2.71976 0
M  V30 38483 N 3737.3 -4.49717 -3.05377 0
M  V30 38484 H 3741.1 -2.65464 -1.26119 0
M  V30 38485 H 3738.62 -1.50723 -0.604669 0
M  V30 38486 H 3740.61 -2.02529 -3.64401 0
M  V30 38487 H 3739.27 -0.985189 -3.09393 0
M  V30 38488 H 3740.28 -4.60914 -2.36174 0
M  V30 38489 H 3736.96 -2.28896 -3.4916 0
M  V30 38490 H 3738.35 -6.21823 -2.5453 0
M  V30 38491 N 3741.07 0.654789 -1.43354 0
M  V30 38492 C 3742.03 1.74957 -1.48063 0
M  V30 38493 C 3743.03 1.5659 -0.36554 0
M  V30 38494 O 3744.22 1.62516 -0.627222 0
M  V30 38495 C 3741.36 3.13813 -1.3317 0
M  V30 38496 H 3742.55 1.72163 -2.4556 0
M  V30 38497 H 3740.1 0.866298 -1.30096 0
M  V30 38498 H 3740.84 3.2222 -0.366746 0
M  V30 38499 H 3740.62 3.28549 -2.14004 0
M  V30 38500 H 3742.11 3.93648 -1.39394 0
M  V30 38501 N 3742.55 1.29858 0.893007 0
M  V30 38502 C 3743.97 1.08015 1.17494 0
M  V30 38503 C 3744.17 -0.164267 2.00829 0
M  V30 38504 O 3743.22 -0.860152 2.37398 0
M  V30 38505 C 3744.53 2.33928 1.8894 0
M  V30 38506 C 3746.08 2.39313 2.01738 0
M  V30 38507 C 3746.56 3.65047 2.76595 0
M  V30 38508 N 3748.05 3.65808 2.84145 0
M  V30 38509 C 3748.78 4.59782 3.4262 0
M  V30 38510 N 3748.28 5.64093 4.02208 0
M  V30 38511 N 3750.07 4.4734 3.40358 0
M  V30 38512 H 3742.22 2.09707 0.337153 0
M  V30 38513 H 3744.49 0.924018 0.211883 0
M  V30 38514 H 3744.19 3.24698 1.35145 0
M  V30 38515 H 3744.07 2.41955 2.89374 0
M  V30 38516 H 3746.45 1.49027 2.54706 0
M  V30 38517 H 3746.53 2.35266 1.00416 0
M  V30 38518 H 3746.18 4.55688 2.24301 0
M  V30 38519 H 3746.11 3.66353 3.78276 0
M  V30 38520 H 3748.6 2.9039 2.4183 0
M  V30 38521 H 3748.91 6.31911 4.44869 0
M  V30 38522 H 3747.26 5.67894 4.00651 0
M  V30 38523 H 3750.45 3.65036 2.93029 0
M  V30 38524 H 3750.62 5.20759 3.85635 0
M  V30 38525 N 3744.03 -1.10427 1.12443 0
M  V30 38526 C 3744.97 -2.16772 0.79237 0
M  V30 38527 C 3745.94 -1.64344 -0.240916 0
M  V30 38528 O 3747.13 -1.9045 -0.115471 0
M  V30 38529 C 3744.27 -3.4417 0.253226 0
M  V30 38530 C 3743.38 -4.1055 1.34434 0
M  V30 38531 C 3742.52 -5.25668 0.764619 0
M  V30 38532 C 3741.56 -5.83952 1.83485 0
M  V30 38533 N 3740.69 -6.90447 1.27384 0
M  V30 38534 H 3745.53 -2.44521 1.70334 0
M  V30 38535 H 3743.07 -1.20025 0.85044 0
M  V30 38536 H 3745.03 -4.17128 -0.0774129 0
M  V30 38537 H 3743.66 -3.16772 -0.620906 0
M  V30 38538 H 3742.71 -3.3556 1.79175 0
M  V30 38539 H 3744.02 -4.49912 2.15362 0
M  V30 38540 H 3743.18 -6.05479 0.384654 0
M  V30 38541 H 3741.92 -4.87641 -0.0758655 0
M  V30 38542 H 3740.92 -5.0281 2.224 0
M  V30 38543 H 3742.15 -6.24044 2.67855 0
M  V30 38544 H 3740.09 -6.54419 0.455184 0
M  V30 38545 H 3740.01 -7.28521 2.01972 0
M  V30 38546 H 3741.28 -7.74039 0.921111 0
M  V30 38547 N 3745.51 -0.916353 -1.28221 0
M  V30 38548 C 3746.47 -0.411463 -2.25476 0
M  V30 38549 C 3747.47 0.463662 -1.5397 0
M  V30 38550 O 3748.66 0.266348 -1.72152 0
M  V30 38551 C 3745.79 0.409791 -3.38428 0
M  V30 38552 H 3746.98 -1.2706 -2.71654 0
M  V30 38553 H 3744.54 -0.695991 -1.39949 0
M  V30 38554 H 3745.27 1.28823 -2.97616 0
M  V30 38555 H 3745.06 -0.217504 -3.91496 0
M  V30 38556 H 3746.55 0.75379 -4.10741 0
M  V30 38557 N 3746.98 1.42146 -0.680615 0
M  V30 38558 C 3748.23 2.01755 -0.205602 0
M  V30 38559 C 3748.56 1.5372 1.18675 0
M  V30 38560 O 3747.84 0.741899 1.79795 0
M  V30 38561 C 3748.12 3.59254 -0.246678 0
M  V30 38562 C 3747.97 4.17453 -1.6749 0
M  V30 38563 C 3749.29 4.38261 0.401883 0
M  V30 38564 H 3746.41 0.733052 -0.0761846 0
M  V30 38565 H 3749.05 1.69091 -0.866503 0
M  V30 38566 H 3747.2 3.87212 0.316059 0
M  V30 38567 H 3748.88 4.00427 -2.29033 0
M  V30 38568 H 3747.12 3.73061 -2.21377 0
M  V30 38569 H 3747.79 5.26597 -1.65528 0
M  V30 38570 H 3750.27 4.16028 -0.0772081 0
M  V30 38571 H 3749.14 5.4783 0.342531 0
M  V30 38572 H 3749.4 4.16579 1.48036 0
M  V30 38573 N 3748.46 0.424336 1.5178 0
M  V30 38574 C 3749.69 -0.145511 2.06388 0
M  V30 38575 C 3750.1 -1.37574 1.29301 0
M  V30 38576 O 3749.46 -1.79132 0.348984 0
M  V30 38577 C 3749.51 -0.480767 3.58289 0
M  V30 38578 O 3749.23 0.700622 4.32461 0
M  V30 38579 C 3750.73 -1.1027 4.29366 0
M  V30 38580 H 3747.95 -0.013679 0.670861 0
M  V30 38581 H 3750.5 0.599673 1.9551 0
M  V30 38582 H 3748.65 -1.17585 3.69124 0
M  V30 38583 H 3749.07 0.417127 5.22839 0
M  V30 38584 H 3750.54 -1.28737 5.36778 0
M  V30 38585 H 3751.02 -2.0801 3.86818 0
M  V30 38586 H 3751.62 -0.447383 4.2294 0
M  V30 38587 N 3749.94 -1.56833 0.15525 0
M  V30 38588 C 3750.89 -2.13757 -0.793214 0
M  V30 38589 C 3751.87 -1.06755 -1.20384 0
M  V30 38590 O 3753.07 -1.32914 -1.16888 0
M  V30 38591 C 3750.19 -2.76924 -2.02899 0
M  V30 38592 C 3749.28 -3.91061 -1.64109 0
M  V30 38593 N 3749.67 -4.9657 -0.961859 0
M  V30 38594 C 3747.97 -4.01923 -1.93324 0
M  V30 38595 C 3748.67 -5.76537 -0.773291 0
M  V30 38596 N 3747.65 -5.27586 -1.30973 0
M  V30 38597 H 3751.45 -2.92702 -0.265122 0
M  V30 38598 H 3748.96 -1.62335 -0.0460035 0
M  V30 38599 H 3750.96 -3.16071 -2.71854 0
M  V30 38600 H 3749.62 -1.99455 -2.56219 0
M  V30 38601 H 3750.63 -5.14155 -0.621692 0
M  V30 38602 H 3747.31 -3.35539 -2.48434 0
M  V30 38603 H 3748.7 -6.71481 -0.23734 0
M  V30 38604 N 3751.42 0.118521 -1.57154 0
M  V30 38605 C 3752.67 0.8248 -1.84065 0
M  V30 38606 C 3752.98 1.81022 -0.740973 0
M  V30 38607 O 3754.19 2.56271 -0.896509 0
M  V30 38608 C 3752.64 1.51755 -3.26341 0
M  V30 38609 C 3752.25 0.573096 -4.44319 0
M  V30 38610 C 3753.99 2.20894 -3.625 0
M  V30 38611 C 3751.9 1.2691 -5.77623 0
M  V30 38612 H 3750.83 0.311765 -0.686526 0
M  V30 38613 H 3753.48 0.0775511 -1.83336 0
M  V30 38614 H 3751.86 2.31144 -3.21541 0
M  V30 38615 H 3753.04 -0.18761 -4.60418 0
M  V30 38616 H 3751.35 -0.0113479 -4.16398 0
M  V30 38617 H 3753.95 2.73658 -4.59364 0
M  V30 38618 H 3754.29 2.98715 -2.89957 0
M  V30 38619 H 3754.83 1.48392 -3.69086 0
M  V30 38620 H 3751.56 0.53217 -6.53336 0
M  V30 38621 H 3751.08 2.00181 -5.65409 0
M  V30 38622 H 3752.76 1.80216 -6.21395 0
M  V30 38623 N 3752.9 1.52731 0.388715 0
M  V30 38624 C 3753.84 1.78169 1.49528 0
M  V30 38625 C 3754.84 0.649641 1.56448 0
M  V30 38626 O 3756.04 0.832125 1.59611 0
M  V30 38627 H 3752.42 0.563759 0.497674 0
M  V30 38628 H 3754.39 2.70834 1.25267 0
M  V30 38629 C 3753.14 1.96779 2.86659 0
M  V30 38630 H 3752.46 2.83317 2.82084 0
M  V30 38631 H 3753.9 2.18567 3.63324 0
M  V30 38632 C 3752.36 0.740402 3.28663 0
M  V30 38633 O 3752.89 -0.0820299 4.01616 0
M  V30 38634 N 3751.1 0.570433 2.84946 0
M  V30 38635 H 3750.64 1.24082 2.25746 0
M  V30 38636 H 3750.6 -0.249441 3.13409 0
M  V30 38637 N 3754.37 -0.647178 1.43699 0
M  V30 38638 C 3755.6 -1.43955 1.49304 0
M  V30 38639 C 3756.02 -1.87754 0.113983 0
M  V30 38640 O 3755.38 -1.57751 -0.893543 0
M  V30 38641 C 3755.43 -2.64673 2.44909 0
M  V30 38642 O 3754.53 -3.63945 1.93953 0
M  V30 38643 H 3753.87 -0.431387 0.504779 0
M  V30 38644 H 3756.4 -0.791399 1.88674 0
M  V30 38645 H 3756.41 -3.12414 2.62414 0
M  V30 38646 H 3755.09 -2.32137 3.45087 0
M  V30 38647 H 3753.67 -3.23121 1.86138 0
M  V30 38648 N 3755.85 -1.3033 -0.886108 0
M  V30 38649 C 3757.1 -1.19264 -1.64024 0
M  V30 38650 C 3757.43 0.252345 -1.92554 0
M  V30 38651 O 3756.71 1.18066 -1.54566 0
M  V30 38652 C 3756.99 -2.02045 -2.98077 0
M  V30 38653 C 3756.84 -3.54757 -2.76528 0
M  V30 38654 C 3758.16 -1.85738 -3.98985 0
M  V30 38655 H 3755.28 -0.434611 -0.595216 0
M  V30 38656 H 3757.92 -1.5995 -1.02547 0
M  V30 38657 H 3756.07 -1.67475 -3.50549 0
M  V30 38658 H 3757.74 -3.99381 -2.30853 0
M  V30 38659 H 3755.99 -3.78997 -2.11054 0
M  V30 38660 H 3756.66 -4.07967 -3.71842 0
M  V30 38661 H 3759.13 -2.15959 -3.55669 0
M  V30 38662 H 3758.01 -2.45987 -4.90695 0
M  V30 38663 H 3758.27 -0.816228 -4.345 0
M  V30 38664 N 3757.33 1.0983 -1.13028 0
M  V30 38665 C 3758.58 1.8237 -0.900706 0
M  V30 38666 C 3758.93 1.83849 0.567208 0
M  V30 38667 O 3758.22 1.2927 1.4142 0
M  V30 38668 C 3758.42 3.28099 -1.41724 0
M  V30 38669 C 3758.25 3.40816 -2.93384 0
M  V30 38670 C 3757.02 3.52862 -3.61686 0
M  V30 38671 C 3759.22 3.33695 -3.91347 0
M  V30 38672 N 3757.2 3.5422 -5.014 0
M  V30 38673 C 3758.57 3.41872 -5.17227 0
M  V30 38674 C 3760.62 3.17335 -3.83671 0
M  V30 38675 C 3759.33 3.35375 -6.3633 0
M  V30 38676 C 3761.35 3.12162 -5.02304 0
M  V30 38677 C 3760.71 3.20927 -6.27045 0
M  V30 38678 H 3756.81 0.681818 -0.382946 0
M  V30 38679 H 3759.4 1.31291 -1.43773 0
M  V30 38680 H 3757.57 3.77657 -0.907183 0
M  V30 38681 H 3759.3 3.8863 -1.12909 0
M  V30 38682 H 3756.06 3.56134 -3.12194 0
M  V30 38683 H 3756.48 3.58494 -5.74292 0
M  V30 38684 H 3761.12 3.09431 -2.88119 0
M  V30 38685 H 3758.84 3.42043 -7.32142 0
M  V30 38686 H 3762.43 3.00645 -4.981 0
M  V30 38687 H 3761.31 3.16934 -7.17302 0
M  V30 38688 N 3758.81 0.92314 1.27734 0
M  V30 38689 C 3759.76 0.417294 2.26996 0
M  V30 38690 C 3760.73 -0.513337 1.57969 0
M  V30 38691 O 3761.91 -0.433489 1.8581 0
M  V30 38692 C 3759.05 -0.328028 3.43537 0
M  V30 38693 C 3758.16 0.636188 4.2729 0
M  V30 38694 C 3757.3 -0.128521 5.31045 0
M  V30 38695 C 3756.34 0.828699 6.06464 0
M  V30 38696 N 3755.47 0.0969092 7.02033 0
M  V30 38697 H 3760.31 1.26877 2.69641 0
M  V30 38698 H 3757.85 0.636923 1.32596 0
M  V30 38699 H 3759.81 -0.776432 4.09911 0
M  V30 38700 H 3758.44 -1.14378 3.01857 0
M  V30 38701 H 3757.49 1.20312 3.60873 0
M  V30 38702 H 3758.8 1.36793 4.79676 0
M  V30 38703 H 3757.96 -0.637053 6.03346 0
M  V30 38704 H 3756.7 -0.893257 4.7945 0
M  V30 38705 H 3755.7 1.34852 5.33006 0
M  V30 38706 H 3756.93 1.59314 6.60148 0
M  V30 38707 H 3754.87 -0.649664 6.52775 0
M  V30 38708 H 3754.79 0.768303 7.52086 0
M  V30 38709 H 3756.06 -0.39112 7.78518 0
M  V30 38710 N 3760.29 -1.41783 0.688143 0
M  V30 38711 C 3761.56 -1.95067 0.144338 0
M  V30 38712 C 3761.94 -1.62791 -1.34396 0
M  V30 38713 O 3761.29 -0.931015 -2.08673 0
M  V30 38714 C 3761.5 -3.46369 0.427702 0
M  V30 38715 C 3762.85 -4.23143 0.351419 0
M  V30 38716 O 3763.87 -3.54354 0.362197 0
M  V30 38717 O 3762.73 -5.45648 0.305114 0
M  V30 38718 H 3759.83 -0.826932 0.0106345 0
M  V30 38719 H 3762.37 -1.5154 0.763793 0
M  V30 38720 H 3761.14 -3.63116 1.45817 0
M  V30 38721 H 3760.77 -3.96974 -0.223097 0
M  V30 38722 N 3761.76 -0.432379 -1.51553 0
M  V30 38723 C 3762.69 0.372202 -2.30514 0
M  V30 38724 C 3763.68 1.02547 -1.35713 0
M  V30 38725 O 3764.86 1.03006 -1.64631 0
M  V30 38726 C 3761.99 1.47641 -3.14356 0
M  V30 38727 C 3760.94 0.9469 -4.17394 0
M  V30 38728 C 3760.27 2.14648 -4.89725 0
M  V30 38729 C 3761.57 -0.0152295 -5.22298 0
M  V30 38730 H 3763.26 -0.286732 -2.98024 0
M  V30 38731 H 3760.81 -0.13934 -1.43324 0
M  V30 38732 H 3762.76 2.04645 -3.68373 0
M  V30 38733 H 3761.49 2.16356 -2.44658 0
M  V30 38734 H 3760.15 0.39911 -3.64421 0
M  V30 38735 H 3759.79 2.81971 -4.16535 0
M  V30 38736 H 3759.49 1.79859 -5.59397 0
M  V30 38737 H 3761.02 2.72214 -5.46564 0
M  V30 38738 H 3762.43 0.464346 -5.71416 0
M  V30 38739 H 3760.83 -0.275444 -5.99468 0
M  V30 38740 H 3761.9 -0.953441 -4.75434 0
M  V30 38741 N 3763.24 1.56749 -0.163565 0
M  V30 38742 C 3764.17 2.20594 0.765532 0
M  V30 38743 C 3765.15 1.15918 1.24487 0
M  V30 38744 O 3766.34 1.4432 1.29944 0
M  V30 38745 C 3763.47 2.8406 1.99818 0
M  V30 38746 C 3762.42 3.94708 1.65499 0
M  V30 38747 C 3761.75 4.45186 2.96164 0
M  V30 38748 C 3763.05 5.1468 0.88893 0
M  V30 38749 H 3764.74 2.98489 0.233378 0
M  V30 38750 H 3762.29 1.43573 0.11081 0
M  V30 38751 H 3764.24 3.27397 2.6531 0
M  V30 38752 H 3762.97 2.03522 2.55434 0
M  V30 38753 H 3761.62 3.52015 1.02378 0
M  V30 38754 H 3761.27 3.61449 3.49805 0
M  V30 38755 H 3760.97 5.19827 2.73958 0
M  V30 38756 H 3762.5 4.91204 3.62699 0
M  V30 38757 H 3763.91 5.54757 1.44628 0
M  V30 38758 H 3762.31 5.95189 0.766198 0
M  V30 38759 H 3763.38 4.84761 -0.11623 0
M  V30 38760 N 3764.72 -0.110185 1.57214 0
M  V30 38761 C 3765.63 -1.15339 2.04289 0
M  V30 38762 C 3766.65 -1.44794 0.964921 0
M  V30 38763 O 3767.82 -1.55735 1.27705 0
M  V30 38764 C 3764.89 -2.45784 2.44522 0
M  V30 38765 C 3763.95 -2.23647 3.66443 0
M  V30 38766 C 3763.18 -3.47872 4.04748 0
M  V30 38767 O 3763.4 -4.55523 3.43299 0
M  V30 38768 O 3762.34 -3.38352 4.97796 0
M  V30 38769 H 3766.16 -0.783605 2.93417 0
M  V30 38770 H 3763.75 -0.321618 1.45897 0
M  V30 38771 H 3765.63 -3.22623 2.71094 0
M  V30 38772 H 3764.31 -2.82219 1.58538 0
M  V30 38773 H 3763.21 -1.44637 3.45009 0
M  V30 38774 H 3764.55 -1.92112 4.5316 0
M  V30 38775 N 3766.2 -1.52935 -0.38061 0
M  V30 38776 C 3767.48 -1.58977 -1.13955 0
M  V30 38777 C 3767.86 -0.388065 -2.07502 0
M  V30 38778 O 3767.2 0.622945 -2.19845 0
M  V30 38779 C 3767.41 -2.93273 -1.89187 0
M  V30 38780 C 3768.76 -3.47312 -2.44253 0
M  V30 38781 O 3769.79 -2.95203 -1.99333 0
M  V30 38782 O 3768.64 -4.38373 -3.2633 0
M  V30 38783 H 3765.74 -0.641534 -0.521884 0
M  V30 38784 H 3768.28 -1.65273 -0.385085 0
M  V30 38785 H 3767.06 -3.72178 -1.20828 0
M  V30 38786 H 3766.68 -2.904 -2.71576 0
M  V30 38787 N 3767.68 0.639548 -1.4404 0
M  V30 38788 C 3768.62 1.77311 -1.50544 0
M  V30 38789 C 3769.62 1.65132 -0.377839 0
M  V30 38790 O 3770.82 1.71313 -0.552426 0
M  V30 38791 H 3767.2 0.585237 -0.472231 0
M  V30 38792 H 3769.17 1.68947 -2.45967 0
M  V30 38793 C 3767.92 3.1562 -1.45874 0
M  V30 38794 H 3767.24 3.25635 -2.31952 0
M  V30 38795 H 3768.68 3.94855 -1.54485 0
M  V30 38796 C 3767.14 3.36428 -0.178263 0
M  V30 38797 O 3767.67 3.94542 0.754948 0
M  V30 38798 N 3765.88 2.90478 -0.0840806 0
M  V30 38799 H 3765.42 2.4337 -0.844324 0
M  V30 38800 H 3765.38 3.04776 0.771935 0
M  V30 38801 N 3769.15 1.30798 0.879184 0
M  V30 38802 C 3770.4 1.20132 1.63389 0
M  V30 38803 C 3770.73 -0.24213 1.92685 0
M  V30 38804 O 3770.01 -1.17245 1.5519 0
M  V30 38805 C 3770.29 2.03623 2.97001 0
M  V30 38806 C 3770.14 3.56218 2.74642 0
M  V30 38807 C 3771.46 1.87852 3.97995 0
M  V30 38808 H 3768.58 0.437761 0.592903 0
M  V30 38809 H 3771.22 1.60492 1.01697 0
M  V30 38810 H 3769.37 1.69332 3.49656 0
M  V30 38811 H 3771.05 4.00599 2.28731 0
M  V30 38812 H 3769.29 3.80111 2.09041 0
M  V30 38813 H 3769.96 4.09934 3.69673 0
M  V30 38814 H 3772.44 2.17843 3.54519 0
M  V30 38815 H 3771.31 2.48586 4.89383 0
M  V30 38816 H 3771.57 0.839259 4.34061 0
M  V30 38817 N 3770.63 -1.09229 1.13608 0
M  V30 38818 C 3771.86 -1.85205 0.922328 0
M  V30 38819 C 3772.28 -1.8124 -0.528922 0
M  V30 38820 O 3771.63 -1.21001 -1.3662 0
M  V30 38821 C 3771.68 -3.33097 1.40458 0
M  V30 38822 O 3771.41 -3.37031 2.79896 0
M  V30 38823 C 3772.91 -4.25907 1.22956 0
M  V30 38824 H 3770.13 -0.584939 0.328767 0
M  V30 38825 H 3772.67 -1.38005 1.50914 0
M  V30 38826 H 3770.83 -3.77717 0.860727 0
M  V30 38827 H 3771.24 -4.29288 3.0135 0
M  V30 38828 H 3772.71 -5.27825 1.61571 0
M  V30 38829 H 3773.19 -4.38865 0.171465 0
M  V30 38830 H 3773.8 -3.87104 1.76154 0
M  V30 38831 N 3772.11 -0.929901 -1.27242 0
M  V30 38832 C 3773.52 -0.615763 -1.76253 0
M  V30 38833 C 3773.87 0.86908 -1.75902 0
M  V30 38834 O 3773 1.68008 -1.36391 0
M  V30 38835 C 3773.59 -1.11101 -3.20066 0
M  V30 38836 C 3772.15 -0.847499 -3.66735 0
M  V30 38837 C 3771.3 -1.26846 -2.46587 0
M  V30 38838 H 3774.25 -1.10944 -1.13478 0
M  V30 38839 H 3774.27 -0.459684 -3.77713 0
M  V30 38840 H 3773.78 -2.19172 -3.20289 0
M  V30 38841 H 3771.88 0.21931 -3.71954 0
M  V30 38842 H 3772 -1.46658 -4.56101 0
M  V30 38843 H 3770.36 -0.686987 -2.4526 0
M  V30 38844 H 3771.14 -2.35786 -2.4952 0
M  V30 38845 N 3773.59 1.41416 -0.695653 0
M  V30 38846 C 3774.84 2.00455 -0.223754 0
M  V30 38847 C 3775.15 1.55733 1.18349 0
M  V30 38848 O 3776.36 2.07333 1.75286 0
M  V30 38849 C 3774.81 3.58202 -0.349139 0
M  V30 38850 C 3774.42 4.11906 -1.76176 0
M  V30 38851 C 3776.17 4.24453 0.0629816 0
M  V30 38852 C 3774.07 5.62088 -1.83879 0
M  V30 38853 H 3773 0.749755 -0.0798965 0
M  V30 38854 H 3775.65 1.61894 -0.863862 0
M  V30 38855 H 3774.04 3.94367 0.359221 0
M  V30 38856 H 3775.21 3.8716 -2.49888 0
M  V30 38857 H 3773.52 3.58181 -2.12356 0
M  V30 38858 H 3776.12 5.34694 0.0258645 0
M  V30 38859 H 3776.46 4.01457 1.10172 0
M  V30 38860 H 3777 3.93323 -0.595105 0
M  V30 38861 H 3773.74 5.89911 -2.85806 0
M  V30 38862 H 3773.26 5.8876 -1.14551 0
M  V30 38863 H 3774.94 6.2686 -1.60172 0
M  V30 38864 N 3775.07 0.44041 1.51321 0
M  V30 38865 C 3776.34 -0.185114 1.94722 0
M  V30 38866 C 3776.72 -1.59813 1.37924 0
M  V30 38867 O 3776.07 -2.21339 0.567566 0
M  V30 38868 C 3776.28 -0.159719 3.48634 0
M  V30 38869 C 3777.63 -0.363779 4.23039 0
M  V30 38870 O 3778.65 -0.237697 3.55406 0
M  V30 38871 O 3777.51 -0.615042 5.43028 0
M  V30 38872 H 3774.61 -0.12831 0.816986 0
M  V30 38873 H 3777.15 0.49861 1.6221 0
M  V30 38874 H 3775.93 0.828019 3.82439 0
M  V30 38875 H 3775.55 -0.886222 3.87598 0
M  V30 38876 N 3776.55 -1.5666 0.171876 0
M  V30 38877 C 3777.77 -2.01274 -0.479185 0
M  V30 38878 C 3778.19 -1.05209 -1.56769 0
M  V30 38879 O 3777.55 -0.0530485 -1.82423 0
M  V30 38880 C 3777.6 -3.45702 -1.05699 0
M  V30 38881 O 3777.32 -4.38098 -0.0119363 0
M  V30 38882 C 3778.82 -4.0572 -1.78622 0
M  V30 38883 H 3776.04 -0.659707 -0.122587 0
M  V30 38884 H 3778.58 -2.02659 0.273769 0
M  V30 38885 H 3776.74 -3.4509 -1.76044 0
M  V30 38886 H 3777.15 -5.22663 -0.438622 0
M  V30 38887 H 3778.63 -5.08699 -2.1431 0
M  V30 38888 H 3779.1 -3.47845 -2.68143 0
M  V30 38889 H 3779.71 -4.10036 -1.12918 0
M  V30 38890 N 3778.02 0.101846 -1.57271 0
M  V30 38891 C 3779.25 0.820296 -1.89944 0
M  V30 38892 C 3779.67 1.72612 -0.764898 0
M  V30 38893 O 3779.02 1.80588 0.263467 0
M  V30 38894 C 3779.07 1.63934 -3.22192 0
M  V30 38895 O 3778.8 0.769964 -4.31281 0
M  V30 38896 C 3780.3 2.46144 -3.68684 0
M  V30 38897 H 3777.52 0.234911 -0.628536 0
M  V30 38898 H 3780.06 0.0811003 -2.04339 0
M  V30 38899 H 3778.22 2.33111 -3.09416 0
M  V30 38900 H 3778.63 1.33656 -5.07185 0
M  V30 38901 H 3780.1 2.99116 -4.63933 0
M  V30 38902 H 3780.58 3.24297 -2.96189 0
M  V30 38903 H 3781.19 1.82178 -3.84306 0
M  V30 38904 N 3779.5 1.53135 0.372494 0
M  V30 38905 C 3780.75 1.68203 1.11313 0
M  V30 38906 C 3781.06 0.436748 1.90662 0
M  V30 38907 O 3782.27 0.467849 2.67439 0
M  V30 38908 C 3780.73 2.9732 2.02802 0
M  V30 38909 C 3780.33 4.29086 1.28798 0
M  V30 38910 C 3782.08 3.21755 2.769 0
M  V30 38911 C 3779.98 5.49297 2.19149 0
M  V30 38912 H 3778.91 0.626692 0.419253 0
M  V30 38913 H 3781.57 1.79635 0.374645 0
M  V30 38914 H 3779.95 2.79674 2.80354 0
M  V30 38915 H 3781.12 4.57341 0.563581 0
M  V30 38916 H 3779.44 4.11041 0.665916 0
M  V30 38917 H 3782.03 4.0875 3.44713 0
M  V30 38918 H 3782.38 2.37523 3.4189 0
M  V30 38919 H 3782.91 3.40043 2.06435 0
M  V30 38920 H 3779.65 6.35987 1.58749 0
M  V30 38921 H 3779.17 5.25332 2.89459 0
M  V30 38922 H 3780.85 5.83819 2.78864 0
M  V30 38923 N 3780.98 -0.6319 1.44377 0
M  V30 38924 C 3781.91 -1.75672 1.45652 0
M  V30 38925 C 3782.89 -1.59511 0.315448 0
M  V30 38926 O 3784.07 -1.81405 0.512303 0
M  V30 38927 C 3781.2 -3.13236 1.28845 0
M  V30 38928 C 3780.25 -3.48048 2.46505 0
M  V30 38929 S 3781.08 -3.45615 4.09036 0
M  V30 38930 C 3782.24 -4.858 3.94651 0
M  V30 38931 H 3782.47 -1.74324 2.40828 0
M  V30 38932 H 3780 -0.806444 1.31666 0
M  V30 38933 H 3781.96 -3.92619 1.19836 0
M  V30 38934 H 3780.62 -3.12124 0.351808 0
M  V30 38935 H 3779.81 -4.48148 2.30606 0
M  V30 38936 H 3779.42 -2.76127 2.5225 0
M  V30 38937 H 3781.71 -5.75006 3.58293 0
M  V30 38938 H 3782.65 -5.06752 4.94578 0
M  V30 38939 H 3783.06 -4.60338 3.26725 0
M  V30 38940 N 3782.46 -1.31262 -0.872235 0
M  V30 38941 C 3783.42 -1.18684 -1.96079 0
M  V30 38942 C 3784.42 -0.114549 -1.60391 0
M  V30 38943 O 3785.61 -0.363643 -1.70362 0
M  V30 38944 C 3782.74 -0.821241 -3.3086 0
M  V30 38945 H 3783.94 -2.15406 -2.08663 0
M  V30 38946 H 3781.49 -1.14841 -1.06024 0
M  V30 38947 H 3782.22 0.144923 -3.23976 0
M  V30 38948 H 3782.01 -1.59631 -3.58134 0
M  V30 38949 H 3783.5 -0.757063 -4.1068 0
M  V30 38950 N 3783.94 1.08625 -1.14186 0
M  V30 38951 C 3784.88 2.15484 -0.826756 0
M  V30 38952 C 3785.85 1.64706 0.21474 0
M  V30 38953 O 3787.04 1.9061 0.0851574 0
M  V30 38954 C 3784.18 3.43723 -0.307948 0
M  V30 38955 C 3783.29 4.0836 -1.40948 0
M  V30 38956 C 3782.43 5.24385 -0.848152 0
M  V30 38957 C 3781.46 5.80959 -1.92752 0
M  V30 38958 N 3780.6 6.88333 -1.38353 0
M  V30 38959 H 3785.44 2.4178 -1.74203 0
M  V30 38960 H 3782.98 1.18657 -0.869427 0
M  V30 38961 H 3784.94 4.17199 0.0110416 0
M  V30 38962 H 3783.57 3.1772 0.570432 0
M  V30 38963 H 3782.62 3.32667 -1.84491 0
M  V30 38964 H 3783.93 4.46429 -2.22493 0
M  V30 38965 H 3783.08 6.04791 -0.480932 0
M  V30 38966 H 3781.82 4.877 -0.00172355 0
M  V30 38967 H 3780.83 4.99209 -2.30371 0
M  V30 38968 H 3782.05 6.19703 -2.77749 0
M  V30 38969 H 3780 6.53612 -0.559239 0
M  V30 38970 H 3779.92 7.25216 -2.13537 0
M  V30 38971 H 3781.18 7.72475 -1.04414 0
M  V30 38972 N 3785.41 0.936635 1.26747 0
M  V30 38973 C 3786.36 0.433368 2.28527 0
M  V30 38974 C 3787.36 -0.486984 1.62249 0
M  V30 38975 O 3788.56 -0.365699 1.76246 0
M  V30 38976 H 3784.94 0.121596 0.742104 0
M  V30 38977 H 3786.91 1.30441 2.6838 0
M  V30 38978 C 3785.66 -0.290305 3.46486 0
M  V30 38979 H 3784.98 0.408719 3.97705 0
M  V30 38980 H 3786.42 -0.606733 4.19636 0
M  V30 38981 C 3784.88 -1.50649 3.01341 0
M  V30 38982 O 3785.41 -2.60496 3.05786 0
M  V30 38983 N 3783.62 -1.36146 2.56735 0
M  V30 38984 H 3783.16 -0.467743 2.53318 0
M  V30 38985 H 3783.12 -2.17641 2.26892 0
M  V30 38986 N 3786.89 -1.41045 0.703143 0
M  V30 38987 C 3787.8 -2.3456 0.0433189 0
M  V30 38988 C 3788.82 -1.56637 -0.757676 0
M  V30 38989 O 3789.99 -1.89084 -0.693497 0
M  V30 38990 C 3787.06 -3.35442 -0.876326 0
M  V30 38991 C 3786.12 -4.29248 -0.0666845 0
M  V30 38992 C 3785.35 -5.25311 -0.942529 0
M  V30 38993 O 3785.58 -5.27017 -2.18196 0
M  V30 38994 O 3784.51 -6.00647 -0.38816 0
M  V30 38995 H 3788.34 -2.92578 0.814354 0
M  V30 38996 H 3785.92 -1.42027 0.463528 0
M  V30 38997 H 3787.8 -3.97342 -1.40346 0
M  V30 38998 H 3786.48 -2.79856 -1.62672 0
M  V30 38999 H 3785.39 -3.70673 0.50523 0
M  V30 39000 H 3786.72 -4.87953 0.645214 0
M  V30 39001 N 3788.37 -0.448429 -1.51086 0
M  V30 39002 C 3789.62 0.114476 -2.02477 0
M  V30 39003 C 3789.95 1.41388 -1.33128 0
M  V30 39004 O 3789.22 1.8923 -0.449699 0
M  V30 39005 C 3789.51 0.321779 -3.58659 0
M  V30 39006 C 3789.36 -0.997053 -4.3861 0
M  V30 39007 C 3790.68 1.0866 -4.26475 0
M  V30 39008 H 3787.8 0.0401301 -0.735907 0
M  V30 39009 H 3790.44 -0.589595 -1.80621 0
M  V30 39010 H 3788.59 0.921503 -3.77413 0
M  V30 39011 H 3790.26 -1.63161 -4.31481 0
M  V30 39012 H 3788.51 -1.59907 -4.03252 0
M  V30 39013 H 3789.18 -0.805913 -5.46085 0
M  V30 39014 H 3791.65 0.578486 -4.12059 0
M  V30 39015 H 3790.53 1.20042 -5.35613 0
M  V30 39016 H 3790.79 2.11751 -3.8809 0
M  V30 39017 N 3789.85 1.56567 -0.180181 0
M  V30 39018 C 3791.1 1.97148 0.462485 0
M  V30 39019 C 3791.42 1.06652 1.62652 0
M  V30 39020 O 3790.68 0.102451 1.95432 0
M  V30 39021 C 3790.98 3.43735 0.978834 0
M  V30 39022 C 3790.64 4.50845 -0.0702416 0
M  V30 39023 C 3789.31 4.79862 -0.35854 0
M  V30 39024 C 3791.66 5.15302 -0.781854 0
M  V30 39025 C 3788.99 5.70632 -1.36369 0
M  V30 39026 C 3791.34 6.07157 -1.77604 0
M  V30 39027 C 3790 6.34537 -2.0717 0
M  V30 39028 H 3789.27 0.721416 0.169235 0
M  V30 39029 H 3791.92 1.8953 -0.27401 0
M  V30 39030 H 3790.22 3.48349 1.79332 0
M  V30 39031 H 3791.92 3.72481 1.48524 0
M  V30 39032 H 3788.51 4.28284 0.164633 0
M  V30 39033 H 3792.69 4.92989 -0.572341 0
M  V30 39034 H 3787.95 5.90125 -1.59883 0
M  V30 39035 H 3792.12 6.56167 -2.33277 0
M  V30 39036 H 3789.75 7.04672 -2.85203 0
M  V30 39037 N 3791.33 -0.0935042 1.57322 0
M  V30 39038 C 3792.57 -0.802302 1.87996 0
M  V30 39039 C 3792.93 -1.75824 0.771368 0
M  V30 39040 O 3794.13 -2.51051 0.960563 0
M  V30 39041 C 3792.4 -1.51054 3.23909 0
M  V30 39042 S 3793.96 -2.2574 3.7628 0
M  V30 39043 H 3790.78 -0.267263 0.658856 0
M  V30 39044 H 3793.38 -0.0593544 1.9541 0
M  V30 39045 H 3792.09 -0.800713 4.02513 0
M  V30 39046 H 3791.62 -2.29336 3.19638 0
M  V30 39047 H 3793.63 -3.51906 3.49824 0
M  V30 39048 N 3792.8 -1.5333 -0.364368 0
M  V30 39049 C 3794.05 -1.69822 -1.10852 0
M  V30 39050 C 3794.38 -0.449324 -1.8893 0
M  V30 39051 O 3793.66 0.553404 -1.86461 0
M  V30 39052 C 3793.94 -2.94885 -2.06676 0
M  V30 39053 C 3793.79 -4.29935 -1.32198 0
M  V30 39054 C 3795.11 -3.15551 -3.06782 0
M  V30 39055 H 3792.23 -0.61796 -0.401615 0
M  V30 39056 H 3794.87 -1.85971 -0.389212 0
M  V30 39057 H 3793.02 -2.81248 -2.68014 0
M  V30 39058 H 3794.7 -4.55385 -0.73634 0
M  V30 39059 H 3792.94 -4.29291 -0.62384 0
M  V30 39060 H 3793.61 -5.13578 -2.02341 0
M  V30 39061 H 3796.09 -3.28382 -2.55548 0
M  V30 39062 H 3794.96 -4.0449 -3.71051 0
M  V30 39063 H 3795.22 -2.30887 -3.77019 0
M  V30 39064 N 3794.28 0.624234 -1.4471 0
M  V30 39065 C 3795.21 1.74926 -1.481 0
M  V30 39066 C 3796.23 1.58455 -0.373594 0
M  V30 39067 O 3797.42 1.66643 -0.639728 0
M  V30 39068 C 3794.52 3.12733 -1.30582 0
M  V30 39069 C 3793.69 3.55598 -2.54694 0
M  V30 39070 C 3792.75 4.72307 -2.31975 0
M  V30 39071 O 3791.77 4.80269 -3.05501 0
M  V30 39072 N 3792.98 5.64471 -1.35472 0
M  V30 39073 H 3795.74 1.72486 -2.45089 0
M  V30 39074 H 3793.3 0.809014 -1.40238 0
M  V30 39075 H 3795.29 3.8854 -1.13219 0
M  V30 39076 H 3793.86 3.09775 -0.419317 0
M  V30 39077 H 3793.08 2.69926 -2.87287 0
M  V30 39078 H 3794.37 3.8099 -3.3723 0
M  V30 39079 H 3793.77 5.60738 -0.747608 0
M  V30 39080 H 3792.33 6.3988 -1.24086 0
M  V30 39081 N 3795.76 1.31723 0.865262 0
M  V30 39082 C 3797.17 1.19503 1.43443 0
M  V30 39083 C 3797.52 -0.196653 1.95212 0
M  V30 39084 O 3796.65 -1.09472 1.86668 0
M  V30 39085 C 3797.24 2.16338 2.60736 0
M  V30 39086 C 3795.8 2.08036 3.13684 0
M  V30 39087 C 3794.95 2.05301 1.86405 0
M  V30 39088 H 3797.9 1.43706 0.673375 0
M  V30 39089 H 3797.92 1.75572 3.37572 0
M  V30 39090 H 3797.43 3.17616 2.23028 0
M  V30 39091 H 3795.53 1.09969 3.56002 0
M  V30 39092 H 3795.65 2.97364 3.75648 0
M  V30 39093 H 3794.01 1.50384 2.05564 0
M  V30 39094 H 3794.79 3.08343 1.50928 0
M  V30 39095 N 3797.24 -1.08018 1.14761 0
M  V30 39096 C 3798.15 -2.18583 0.851972 0
M  V30 39097 C 3799.16 -1.73176 -0.16911 0
M  V30 39098 O 3800.34 -2.014 0.00333654 0
M  V30 39099 C 3797.41 -3.45048 0.338038 0
M  V30 39100 C 3796.47 -4.05059 1.42217 0
M  V30 39101 C 3795.7 -5.25487 0.932666 0
M  V30 39102 O 3795.92 -5.69959 -0.224356 0
M  V30 39103 O 3794.86 -5.76998 1.7134 0
M  V30 39104 H 3798.68 -2.4635 1.77609 0
M  V30 39105 H 3796.27 -1.17227 0.926179 0
M  V30 39106 H 3798.15 -4.21361 0.0575474 0
M  V30 39107 H 3796.82 -3.18849 -0.558307 0
M  V30 39108 H 3795.73 -3.30317 1.75618 0
M  V30 39109 H 3797.06 -4.35516 2.29318 0
M  V30 39110 N 3798.72 -0.943344 -1.26249 0
M  V30 39111 C 3799.66 -0.453354 -2.26304 0
M  V30 39112 C 3800.63 0.48814 -1.58765 0
M  V30 39113 O 3801.82 0.403873 -1.86477 0
M  V30 39114 C 3798.96 0.273333 -3.44016 0
M  V30 39115 C 3798.07 -0.704085 -4.26224 0
M  V30 39116 C 3797.21 0.04402 -5.31182 0
M  V30 39117 C 3796.25 -0.925077 -6.05069 0
M  V30 39118 N 3795.38 -0.208584 -7.0179 0
M  V30 39119 H 3800.22 -1.31151 -2.67588 0
M  V30 39120 H 3797.76 -0.657937 -1.31566 0
M  V30 39121 H 3799.72 0.71112 -4.11095 0
M  V30 39122 H 3798.35 1.09561 -3.03638 0
M  V30 39123 H 3797.4 -1.26038 -3.58913 0
M  V30 39124 H 3798.71 -1.44407 -4.77439 0
M  V30 39125 H 3797.87 0.540985 -6.04283 0
M  V30 39126 H 3796.6 0.816867 -4.8081 0
M  V30 39127 H 3795.61 -1.43315 -5.30793 0
M  V30 39128 H 3796.83 -1.69797 -6.5753 0
M  V30 39129 H 3794.78 0.545731 -6.53726 0
M  V30 39130 H 3794.7 -0.887857 -7.50768 0
M  V30 39131 H 3795.97 0.267215 -7.79042 0
M  V30 39132 N 3800.2 1.4067 -0.710613 0
M  V30 39133 C 3801.44 2.00579 -0.247494 0
M  V30 39134 C 3801.76 1.56614 1.16176 0
M  V30 39135 O 3801.03 0.803389 1.78669 0
M  V30 39136 H 3799.61 0.741738 -0.0885122 0
M  V30 39137 H 3802.28 1.72079 -0.915133 0
M  V30 39138 H 3801.37 3.10871 -0.276685 0
M  V30 39139 N 3801.67 0.456435 1.50846 0
M  V30 39140 C 3802.92 -0.103378 2.01835 0
M  V30 39141 C 3803.24 -1.41528 1.34145 0
M  V30 39142 O 3802.51 -1.89877 0.482048 0
M  V30 39143 H 3801.09 -0.0411943 0.745863 0
M  V30 39144 H 3803.75 0.603509 1.85321 0
M  V30 39145 H 3802.85 -0.265508 3.10969 0
M  V30 39146 N 3803.15 -1.56469 0.188482 0
M  V30 39147 C 3804.57 -1.58719 -0.16746 0
M  V30 39148 C 3804.77 -1.20444 -1.61541 0
M  V30 39149 O 3803.82 -0.924082 -2.34983 0
M  V30 39150 C 3805.14 -3.00424 0.128907 0
M  V30 39151 C 3806.68 -3.12925 0.0684851 0
M  V30 39152 C 3807.16 -4.56751 0.338072 0
M  V30 39153 N 3808.65 -4.62313 0.286454 0
M  V30 39154 C 3809.39 -5.71479 0.468987 0
M  V30 39155 N 3808.88 -6.89137 0.71151 0
M  V30 39156 N 3810.67 -5.60648 0.403701 0
M  V30 39157 H 3802.83 -1.79631 1.13342 0
M  V30 39158 H 3805.09 -0.833361 0.451899 0
M  V30 39159 H 3804.79 -3.32964 1.13261 0
M  V30 39160 H 3804.67 -3.72844 -0.571579 0
M  V30 39161 H 3807.06 -2.80201 -0.925815 0
M  V30 39162 H 3807.14 -2.42904 0.801946 0
M  V30 39163 H 3806.78 -4.90186 1.32966 0
M  V30 39164 H 3806.71 -5.24953 -0.416201 0
M  V30 39165 H 3809.2 -3.77753 0.105352 0
M  V30 39166 H 3809.51 -7.68224 0.839778 0
M  V30 39167 H 3807.86 -6.9096 0.748326 0
M  V30 39168 H 3811.05 -4.67607 0.214698 0
M  V30 39169 H 3811.22 -6.45667 0.549375 0
M  V30 39170 N 3804.63 0.0851597 -1.5737 0
M  V30 39171 C 3805.58 1.10259 -2.0276 0
M  V30 39172 C 3806.55 1.39233 -0.905726 0
M  V30 39173 O 3807.73 1.50527 -1.17244 0
M  V30 39174 C 3804.87 2.41487 -2.46532 0
M  V30 39175 C 3803.98 2.19158 -3.72282 0
M  V30 39176 C 3803.12 3.43856 -4.04891 0
M  V30 39177 C 3802.16 3.16832 -5.23721 0
M  V30 39178 N 3801.3 4.33824 -5.52034 0
M  V30 39179 H 3806.14 0.708532 -2.89454 0
M  V30 39180 H 3803.67 0.338307 -1.43157 0
M  V30 39181 H 3805.63 3.18086 -2.69957 0
M  V30 39182 H 3804.26 2.7872 -1.62834 0
M  V30 39183 H 3803.31 1.33315 -3.56274 0
M  V30 39184 H 3804.62 1.95189 -4.59024 0
M  V30 39185 H 3803.78 4.28857 -4.29146 0
M  V30 39186 H 3802.52 3.70889 -3.1669 0
M  V30 39187 H 3801.52 2.30225 -4.99276 0
M  V30 39188 H 3802.75 2.91135 -6.13528 0
M  V30 39189 H 3800.69 4.60914 -4.66792 0
M  V30 39190 H 3800.61 4.1308 -6.33168 0
M  V30 39191 H 3801.88 5.19861 -5.80831 0
M  V30 39192 N 3806.11 1.53521 0.356231 0
M  V30 39193 C 3807.52 1.61742 0.93254 0
M  V30 39194 C 3807.87 0.49071 1.89964 0
M  V30 39195 O 3806.99 -0.381476 2.13011 0
M  V30 39196 C 3807.59 2.93171 1.69813 0
M  V30 39197 C 3806.15 3.03696 2.22364 0
M  V30 39198 C 3805.3 2.57105 1.03887 0
M  V30 39199 H 3808.25 1.58127 0.134741 0
M  V30 39200 H 3808.27 2.81498 2.56006 0
M  V30 39201 H 3807.78 3.75155 0.993999 0
M  V30 39202 H 3805.88 2.26319 2.9599 0
M  V30 39203 H 3805.99 4.08943 2.49604 0
M  V30 39204 H 3804.36 2.12205 1.40859 0
M  V30 39205 H 3805.14 3.41516 0.349577 0
M  V30 39206 N 3807.59 -0.616551 1.45039 0
M  V30 39207 C 3808.55 -1.7097 1.5265 0
M  V30 39208 C 3809.55 -1.55566 0.406929 0
M  V30 39209 O 3810.74 -1.60796 0.67009 0
M  V30 39210 C 3807.87 -3.10172 1.41444 0
M  V30 39211 H 3809.06 -1.65592 2.50039 0
M  V30 39212 H 3806.62 -0.8315 1.32347 0
M  V30 39213 H 3807.35 -3.21134 0.452048 0
M  V30 39214 H 3807.14 -3.2276 2.2264 0
M  V30 39215 H 3808.63 -3.89814 1.49782 0
M  V30 39216 N 3809.06 -1.3218 -0.858264 0
M  V30 39217 C 3810.48 -1.11092 -1.14589 0
M  V30 39218 C 3810.68 0.110963 -2.01194 0
M  V30 39219 O 3809.74 0.796908 -2.39595 0
M  V30 39220 C 3811.05 -2.38855 -1.82671 0
M  V30 39221 C 3812.6 -2.44578 -1.95322 0
M  V30 39222 C 3813.07 -3.72252 -2.66819 0
M  V30 39223 N 3814.56 -3.73213 -2.74347 0
M  V30 39224 C 3815.3 -4.68704 -3.30309 0
M  V30 39225 N 3814.79 -5.74558 -3.87111 0
M  V30 39226 N 3816.59 -4.56206 -3.28378 0
M  V30 39227 H 3808.74 -2.10527 -0.281434 0
M  V30 39228 H 3811 -0.929311 -0.18731 0
M  V30 39229 H 3810.71 -3.28167 -1.26489 0
M  V30 39230 H 3810.58 -2.49542 -2.82858 0
M  V30 39231 H 3812.97 -1.55728 -2.50665 0
M  V30 39232 H 3813.05 -2.37846 -0.941429 0
M  V30 39233 H 3812.69 -4.61475 -2.12141 0
M  V30 39234 H 3812.62 -3.76254 -3.6843 0
M  V30 39235 H 3815.11 -2.967 -2.34046 0
M  V30 39236 H 3815.43 -6.43484 -4.27958 0
M  V30 39237 H 3813.77 -5.78317 -3.85453 0
M  V30 39238 H 3816.96 -3.72677 -2.83248 0
M  V30 39239 H 3817.14 -5.308 -3.71692 0
M  V30 39240 N 3810.54 1.07407 -1.15332 0
M  V30 39241 C 3811.47 2.16586 -0.872514 0
M  V30 39242 C 3812.45 1.6918 0.176653 0
M  V30 39243 O 3813.64 1.94175 0.0311485 0
M  V30 39244 C 3810.77 3.45425 -0.360403 0
M  V30 39245 C 3809.72 4.06278 -1.34618 0
M  V30 39246 C 3809.05 5.30191 -0.692941 0
M  V30 39247 C 3810.35 4.46373 -2.71198 0
M  V30 39248 H 3812.04 2.40333 -1.7855 0
M  V30 39249 H 3809.59 1.15505 -0.859915 0
M  V30 39250 H 3811.54 4.21128 -0.151503 0
M  V30 39251 H 3810.26 3.21262 0.588052 0
M  V30 39252 H 3808.92 3.32619 -1.54143 0
M  V30 39253 H 3808.57 5.02319 0.261643 0
M  V30 39254 H 3808.27 5.71863 -1.35081 0
M  V30 39255 H 3809.8 6.086 -0.493802 0
M  V30 39256 H 3811.21 5.13207 -2.55522 0
M  V30 39257 H 3809.61 4.98994 -3.33353 0
M  V30 39258 H 3810.68 3.57769 -3.27306 0
M  V30 39259 N 3812.02 0.950026 1.25747 0
M  V30 39260 C 3813.27 0.598022 1.92631 0
M  V30 39261 C 3813.58 -0.868334 1.75269 0
M  V30 39262 O 3814.79 -1.3301 2.36687 0
M  V30 39263 C 3813.24 1.01885 3.45178 0
M  V30 39264 C 3812.85 2.50743 3.71257 0
M  V30 39265 C 3814.6 0.739157 4.18015 0
M  V30 39266 C 3812.5 2.8665 5.17287 0
M  V30 39267 H 3811.43 0.219951 0.721206 0
M  V30 39268 H 3814.08 1.15386 1.42683 0
M  V30 39269 H 3812.47 0.391464 3.9406 0
M  V30 39270 H 3813.64 3.18461 3.33045 0
M  V30 39271 H 3811.95 2.76135 3.11671 0
M  V30 39272 H 3814.55 0.983648 5.25574 0
M  V30 39273 H 3814.89 -0.324317 4.15035 0
M  V30 39274 H 3815.43 1.32667 3.75026 0
M  V30 39275 H 3812.17 3.91996 5.25376 0
M  V30 39276 H 3811.69 2.23601 5.56563 0
M  V30 39277 H 3813.37 2.75592 5.8537 0
M  V30 39278 N 3813.5 -1.40291 0.718063 0
M  V30 39279 C 3814.74 -2.01139 0.259022 0
M  V30 39280 C 3815.08 -1.56813 -1.14557 0
M  V30 39281 O 3814.35 -0.789308 -1.77764 0
M  V30 39282 C 3814.63 -3.58474 0.341841 0
M  V30 39283 C 3814.49 -4.12866 1.78499 0
M  V30 39284 C 3815.81 -4.39173 -0.285545 0
M  V30 39285 H 3812.93 -0.730774 0.0955934 0
M  V30 39286 H 3815.57 -1.66734 0.91103 0
M  V30 39287 H 3813.72 -3.87914 -0.213286 0
M  V30 39288 H 3815.39 -3.94213 2.39569 0
M  V30 39289 H 3813.63 -3.67061 2.3119 0
M  V30 39290 H 3814.3 -5.22023 1.79432 0
M  V30 39291 H 3816.78 -4.15677 0.187484 0
M  V30 39292 H 3815.66 -5.48546 -0.197163 0
M  V30 39293 H 3815.92 -4.20357 -1.36939 0
M  V30 39294 N 3814.98 -0.464428 -1.50602 0
M  V30 39295 C 3816.22 0.0928564 -2.02287 0
M  V30 39296 C 3816.55 1.40319 -1.34688 0
M  V30 39297 O 3815.81 1.90233 -0.459337 0
M  V30 39298 C 3816.11 0.331444 -3.5586 0
M  V30 39299 C 3815.77 -0.89637 -4.419 0
M  V30 39300 C 3814.43 -1.23302 -4.65134 0
M  V30 39301 C 3816.79 -1.71418 -4.92205 0
M  V30 39302 C 3814.11 -2.38766 -5.35917 0
M  V30 39303 C 3816.47 -2.86004 -5.64255 0
M  V30 39304 C 3815.13 -3.20092 -5.85745 0
M  V30 39305 H 3814.4 0.0339786 -0.740221 0
M  V30 39306 H 3817.05 -0.617152 -1.81283 0
M  V30 39307 H 3815.35 1.12363 -3.75342 0
M  V30 39308 H 3817.05 0.776497 -3.9341 0
M  V30 39309 H 3813.64 -0.624082 -4.24032 0
M  V30 39310 H 3817.82 -1.46728 -4.74115 0
M  V30 39311 H 3813.08 -2.65458 -5.50765 0
M  V30 39312 H 3817.25 -3.49725 -6.02217 0
M  V30 39313 H 3814.88 -4.09671 -6.4037 0
M  V30 39314 N 3816.45 1.56367 -0.196777 0
M  V30 39315 C 3817.87 1.84015 0.315523 0
M  V30 39316 C 3818.22 1.11749 1.61265 0
M  V30 39317 O 3817.34 0.378862 2.13058 0
M  V30 39318 C 3817.94 3.33812 0.579249 0
M  V30 39319 C 3816.5 3.61864 1.03591 0
M  V30 39320 C 3815.64 2.77168 0.0854358 0
M  V30 39321 H 3818.59 1.53027 -0.420526 0
M  V30 39322 H 3818.61 3.52673 1.42835 0
M  V30 39323 H 3818.13 3.8638 -0.364993 0
M  V30 39324 H 3816.23 3.14731 1.99438 0
M  V30 39325 H 3816.34 4.70037 0.927465 0
M  V30 39326 H 3814.7 2.47828 0.587637 0
M  V30 39327 H 3815.49 3.32527 -0.85328 0
M  V30 39328 N 3817.93 -0.0768128 1.57413 0
M  V30 39329 C 3819.21 -0.809632 1.78057 0
M  V30 39330 C 3819.59 -1.96038 0.783087 0
M  V30 39331 O 3818.94 -2.27752 -0.184796 0
M  V30 39332 C 3819.15 -1.28724 3.24393 0
M  V30 39333 C 3820.5 -1.72266 3.88085 0
M  V30 39334 O 3821.52 -1.38303 3.28254 0
M  V30 39335 O 3820.38 -2.35126 4.93334 0
M  V30 39336 H 3817.47 -0.387571 0.73056 0
M  V30 39337 H 3820.02 -0.0572772 1.69603 0
M  V30 39338 H 3818.79 -0.46361 3.88544 0
M  V30 39339 H 3818.41 -2.10107 3.37551 0
M  V30 39340 N 3819.41 -1.53708 -0.348084 0
M  V30 39341 C 3820.34 -1.84363 -1.43292 0
M  V30 39342 C 3821.32 -0.698403 -1.55101 0
M  V30 39343 O 3822.51 -0.949894 -1.69383 0
M  V30 39344 C 3819.64 -2.04917 -2.80404 0
M  V30 39345 C 3818.59 -3.20726 -2.83406 0
M  V30 39346 C 3817.92 -3.26605 -4.2336 0
M  V30 39347 C 3819.22 -4.58936 -2.4935 0
M  V30 39348 H 3820.91 -2.75214 -1.17887 0
M  V30 39349 H 3818.46 -1.32424 -0.565669 0
M  V30 39350 H 3820.41 -2.24946 -3.56339 0
M  V30 39351 H 3819.13 -1.10791 -3.07234 0
M  V30 39352 H 3817.79 -3.00546 -2.09924 0
M  V30 39353 H 3817.44 -2.30083 -4.47293 0
M  V30 39354 H 3817.14 -4.04424 -4.2628 0
M  V30 39355 H 3818.66 -3.48838 -5.01143 0
M  V30 39356 H 3820.08 -4.79009 -3.14998 0
M  V30 39357 H 3818.48 -5.39125 -2.63561 0
M  V30 39358 H 3819.55 -4.62854 -1.44549 0
M  V30 39359 N 3820.89 0.608851 -1.45364 0
M  V30 39360 C 3822.14 1.36519 -1.4902 0
M  V30 39361 C 3822.46 1.94547 -0.132791 0
M  V30 39362 O 3821.73 1.77086 0.837692 0
M  V30 39363 H 3820.31 0.506799 -0.548784 0
M  V30 39364 H 3822.97 0.715036 -1.8131 0
M  V30 39365 H 3822.07 2.18525 -2.2283 0
M  V30 39366 N 3822.37 1.32633 0.851242 0
M  V30 39367 C 3823.61 1.23571 1.60805 0
M  V30 39368 C 3823.95 -0.201205 1.93155 0
M  V30 39369 O 3823.22 -1.13926 1.57642 0
M  V30 39370 C 3823.5 2.09877 2.92615 0
M  V30 39371 C 3823.36 3.61964 2.67025 0
M  V30 39372 C 3824.68 1.96251 3.93921 0
M  V30 39373 H 3821.79 0.450239 0.583484 0
M  V30 39374 H 3824.44 1.62613 0.982702 0
M  V30 39375 H 3822.59 1.7671 3.45985 0
M  V30 39376 H 3824.26 4.05361 2.20182 0
M  V30 39377 H 3822.5 3.8446 2.00931 0
M  V30 39378 H 3823.17 4.17683 3.60895 0
M  V30 39379 H 3825.65 2.25313 3.49819 0
M  V30 39380 H 3824.52 2.58911 4.84 0
M  V30 39381 H 3824.79 0.931141 4.32183 0
M  V30 39382 N 3823.84 -1.06794 1.159 0
M  V30 39383 C 3825.26 -1.3161 0.902833 0
M  V30 39384 C 3825.46 -1.96478 -0.447078 0
M  V30 39385 O 3824.52 -2.2282 -1.18774 0
M  V30 39386 C 3825.83 -2.2017 2.04807 0
M  V30 39387 C 3827.38 -2.33602 2.08325 0
M  V30 39388 C 3827.85 -3.25514 3.22188 0
M  V30 39389 N 3829.34 -3.33096 3.21872 0
M  V30 39390 C 3830.08 -4.04292 4.06615 0
M  V30 39391 N 3829.57 -4.78054 5.01434 0
M  V30 39392 N 3831.37 -4.0029 3.94619 0
M  V30 39393 H 3823.52 -0.630795 2.02817 0
M  V30 39394 H 3825.78 -0.34063 0.884689 0
M  V30 39395 H 3825.49 -1.79775 3.02281 0
M  V30 39396 H 3825.36 -3.20729 1.98527 0
M  V30 39397 H 3827.75 -2.73247 1.11446 0
M  V30 39398 H 3827.83 -1.32728 2.18671 0
M  V30 39399 H 3827.47 -2.86586 4.19322 0
M  V30 39400 H 3827.4 -4.26355 3.09078 0
M  V30 39401 H 3829.89 -2.80524 2.53208 0
M  V30 39402 H 3830.21 -5.29891 5.62526 0
M  V30 39403 H 3828.55 -4.77051 5.05418 0
M  V30 39404 H 3831.74 -3.41781 3.19849 0
M  V30 39405 H 3831.92 -4.5551 4.60885 0
M  V30 39406 N 3825.32 -0.956681 -1.25241 0
M  V30 39407 C 3826.57 -0.61348 -1.93298 0
M  V30 39408 C 3826.9 0.84764 -1.74725 0
M  V30 39409 O 3826.18 1.60844 -1.0936 0
M  V30 39410 C 3826.46 -0.975482 -3.46636 0
M  V30 39411 C 3826.31 -2.49248 -3.74427 0
M  V30 39412 C 3827.63 -0.502025 -4.37227 0
M  V30 39413 H 3824.75 -0.224351 -0.702023 0
M  V30 39414 H 3827.39 -1.1937 -1.4782 0
M  V30 39415 H 3825.54 -0.481738 -3.85502 0
M  V30 39416 H 3827.21 -3.06015 -3.45185 0
M  V30 39417 H 3825.46 -2.92929 -3.19961 0
M  V30 39418 H 3826.13 -2.69628 -4.81669 0
M  V30 39419 H 3828.6 -0.925585 -4.05675 0
M  V30 39420 H 3827.48 -0.783991 -5.43272 0
M  V30 39421 H 3827.74 0.598005 -4.38037 0
M  V30 39422 N 3826.8 1.39908 -0.725493 0
M  V30 39423 C 3828.04 2.02557 -0.273838 0
M  V30 39424 C 3828.4 1.56307 1.115 0
M  V30 39425 O 3829.61 2.11087 1.6642 0
M  V30 39426 C 3827.88 3.55565 -0.361697 0
M  V30 39427 S 3829.44 4.38798 0.0115147 0
M  V30 39428 H 3826.25 0.702762 -0.10792 0
M  V30 39429 H 3828.86 1.70871 -0.949906 0
M  V30 39430 H 3827.56 3.86718 -1.37395 0
M  V30 39431 H 3827.09 3.91992 0.332514 0
M  V30 39432 H 3829.11 4.80698 1.23062 0
M  V30 39433 N 3828.28 0.472408 1.50353 0
M  V30 39434 C 3829.19 -0.326364 2.32319 0
M  V30 39435 C 3830.2 -0.994746 1.42761 0
M  V30 39436 O 3831.38 -0.982429 1.75813 0
M  V30 39437 C 3828.45 -1.39331 3.17471 0
M  V30 39438 C 3827.51 -0.741391 4.2285 0
M  V30 39439 C 3826.74 -1.7575 5.03932 0
M  V30 39440 O 3826.96 -2.98417 4.86111 0
M  V30 39441 O 3825.9 -1.3286 5.87053 0
M  V30 39442 H 3829.72 0.343755 3.01748 0
M  V30 39443 H 3827.31 0.234233 1.47552 0
M  V30 39444 H 3829.19 -2.0113 3.70304 0
M  V30 39445 H 3827.86 -2.04688 2.50768 0
M  V30 39446 H 3826.77 -0.084419 3.74005 0
M  V30 39447 H 3828.1 -0.130751 4.92026 0
M  V30 39448 N 3829.76 -1.5626 0.205067 0
M  V30 39449 C 3830.7 -2.1955 -0.711789 0
M  V30 39450 C 3831.67 -1.14584 -1.20248 0
M  V30 39451 O 3832.86 -1.42875 -1.26456 0
M  V30 39452 C 3830 -2.86659 -1.92147 0
M  V30 39453 C 3829.11 -4.06176 -1.47122 0
M  V30 39454 C 3828.25 -4.61114 -2.63717 0
M  V30 39455 C 3827.29 -5.72968 -2.15347 0
M  V30 39456 N 3826.42 -6.22268 -3.25156 0
M  V30 39457 H 3831.26 -2.97541 -0.165339 0
M  V30 39458 H 3828.8 -1.46934 -0.0698631 0
M  V30 39459 H 3830.76 -3.23743 -2.63146 0
M  V30 39460 H 3829.39 -2.11215 -2.44107 0
M  V30 39461 H 3828.44 -3.74688 -0.656731 0
M  V30 39462 H 3829.75 -4.87047 -1.07641 0
M  V30 39463 H 3828.91 -5.00556 -3.42825 0
M  V30 39464 H 3827.65 -3.79372 -3.06477 0
M  V30 39465 H 3826.65 -5.33045 -1.34697 0
M  V30 39466 H 3827.88 -6.56535 -1.73606 0
M  V30 39467 H 3825.82 -5.43445 -3.67428 0
M  V30 39468 H 3825.74 -6.98218 -2.89876 0
M  V30 39469 H 3827.01 -6.66365 -4.04448 0
M  V30 39470 N 3831.24 0.0684638 -1.57451 0
M  V30 39471 C 3832.17 1.11294 -1.99221 0
M  V30 39472 C 3833.15 1.37387 -0.869681 0
M  V30 39473 O 3834.33 1.50705 -1.13227 0
M  V30 39474 C 3831.46 2.45656 -2.33176 0
M  V30 39475 C 3830.5 2.35675 -3.55471 0
M  V30 39476 S 3831.34 1.74768 -5.06178 0
M  V30 39477 C 3832.49 3.10701 -5.43337 0
M  V30 39478 H 3832.73 0.756986 -2.87501 0
M  V30 39479 H 3830.26 0.277113 -1.51893 0
M  V30 39480 H 3832.22 3.22943 -2.53413 0
M  V30 39481 H 3830.88 2.7841 -1.45418 0
M  V30 39482 H 3830.07 3.34769 -3.76757 0
M  V30 39483 H 3829.67 1.66524 -3.34882 0
M  V30 39484 H 3831.96 4.07017 -5.41612 0
M  V30 39485 H 3832.91 2.94192 -6.44094 0
M  V30 39486 H 3833.32 3.1146 -4.708 0
M  V30 39487 N 3832.71 1.5389 0.339928 0
M  V30 39488 C 3833.68 1.81431 1.40055 0
M  V30 39489 C 3834.68 0.685489 1.45457 0
M  V30 39490 O 3835.87 0.95378 1.45769 0
M  V30 39491 C 3833 1.9596 2.78949 0
M  V30 39492 H 3834.19 2.7618 1.16897 0
M  V30 39493 H 3831.74 1.45358 0.574518 0
M  V30 39494 H 3832.48 1.03367 3.07385 0
M  V30 39495 H 3832.26 2.78087 2.76424 0
M  V30 39496 H 3833.75 2.18772 3.55709 0
M  V30 39497 N 3834.19 -0.601133 1.45685 0
M  V30 39498 C 3835.12 -1.72203 1.57697 0
M  V30 39499 C 3836.1 -1.64623 0.42817 0
M  V30 39500 O 3837.29 -1.82923 0.652123 0
M  V30 39501 C 3834.42 -3.1082 1.54946 0
M  V30 39502 C 3833.37 -3.33217 2.68609 0
M  V30 39503 C 3832.7 -4.72172 2.50914 0
M  V30 39504 C 3834 -3.22841 4.10574 0
M  V30 39505 H 3835.69 -1.62407 2.51524 0
M  V30 39506 H 3833.24 -0.779908 1.21051 0
M  V30 39507 H 3835.19 -3.89039 1.61946 0
M  V30 39508 H 3833.91 -3.21471 0.576527 0
M  V30 39509 H 3832.57 -2.5739 2.61048 0
M  V30 39510 H 3832.22 -4.79565 1.51745 0
M  V30 39511 H 3831.92 -4.88112 3.27139 0
M  V30 39512 H 3833.45 -5.52583 2.59777 0
M  V30 39513 H 3834.86 -3.90927 4.19343 0
M  V30 39514 H 3833.26 -3.5031 4.8724 0
M  V30 39515 H 3834.33 -2.20185 4.32026 0
M  V30 39516 N 3835.67 -1.33083 -0.844196 0
M  V30 39517 C 3836.9 -1.27079 -1.62894 0
M  V30 39518 C 3837.31 0.16155 -1.88509 0
M  V30 39519 O 3836.65 1.11244 -1.46186 0
M  V30 39520 C 3836.71 -1.97168 -3.00608 0
M  V30 39521 C 3836.38 -3.46486 -2.97987 0
M  V30 39522 C 3837.37 -4.41785 -2.74084 0
M  V30 39523 C 3835.06 -3.88582 -3.18292 0
M  V30 39524 C 3837.05 -5.77153 -2.70505 0
M  V30 39525 C 3834.74 -5.24056 -3.14338 0
M  V30 39526 C 3835.74 -6.18153 -2.90475 0
M  V30 39527 O 3835.43 -7.51147 -2.86415 0
M  V30 39528 H 3835.16 -0.439362 -0.513748 0
M  V30 39529 H 3837.71 -1.75931 -1.06006 0
M  V30 39530 H 3835.94 -1.429 -3.59328 0
M  V30 39531 H 3837.63 -1.84734 -3.61425 0
M  V30 39532 H 3838.4 -4.10587 -2.58154 0
M  V30 39533 H 3834.28 -3.15754 -3.35888 0
M  V30 39534 H 3837.82 -6.50571 -2.51799 0
M  V30 39535 H 3833.72 -5.5488 -3.29816 0
M  V30 39536 H 3834.48 -7.60631 -3.02295 0
M  V30 39537 N 3837.15 1.06178 -1.16464 0
M  V30 39538 C 3838.42 1.75823 -0.857069 0
M  V30 39539 C 3838.8 2.0101 0.64485 0
M  V30 39540 O 3838.15 1.63814 1.59302 0
M  V30 39541 C 3838.36 3.05846 -1.68105 0
M  V30 39542 C 3839.71 3.79979 -1.89476 0
M  V30 39543 O 3840.73 3.1569 -1.6498 0
M  V30 39544 O 3839.59 4.95474 -2.30581 0
M  V30 39545 H 3836.69 0.76409 -0.316378 0
M  V30 39546 H 3839.23 1.12436 -1.27107 0
M  V30 39547 H 3838.01 2.83206 -2.70019 0
M  V30 39548 H 3837.63 3.76968 -1.26417 0
M  V30 39549 N 3838.63 0.96331 1.24732 0
M  V30 39550 C 3839.87 0.623722 1.9297 0
M  V30 39551 C 3840.2 -0.838362 1.75172 0
M  V30 39552 O 3839.48 -1.60262 1.10211 0
M  V30 39553 C 3839.76 0.993851 3.46114 0
M  V30 39554 C 3839.62 2.51231 3.73099 0
M  V30 39555 C 3840.93 0.525205 4.36955 0
M  V30 39556 H 3838.05 0.22807 0.700823 0
M  V30 39557 H 3840.7 1.20152 1.47185 0
M  V30 39558 H 3838.85 0.502176 3.85241 0
M  V30 39559 H 3840.52 3.07841 3.43557 0
M  V30 39560 H 3838.76 2.94621 3.18403 0
M  V30 39561 H 3839.43 2.72178 4.80232 0
M  V30 39562 H 3841.91 0.947086 4.05178 0
M  V30 39563 H 3840.78 0.812791 5.42849 0
M  V30 39564 H 3841.04 -0.574766 4.38348 0
M  V30 39565 N 3840.1 -1.39522 0.732902 0
M  V30 39566 C 3841.35 -2.00853 0.280341 0
M  V30 39567 C 3841.68 -1.58019 -1.12888 0
M  V30 39568 O 3840.96 -0.808117 -1.76917 0
M  V30 39569 C 3841.24 -3.58091 0.379843 0
M  V30 39570 C 3841.09 -4.10949 1.82868 0
M  V30 39571 C 3842.41 -4.39451 -0.238949 0
M  V30 39572 H 3839.53 -0.729719 0.103339 0
M  V30 39573 H 3842.17 -1.65758 0.928663 0
M  V30 39574 H 3840.32 -3.88118 -0.17213 0
M  V30 39575 H 3842 -3.9165 2.43737 0
M  V30 39576 H 3840.24 -3.64588 2.3507 0
M  V30 39577 H 3840.91 -5.20091 1.84958 0
M  V30 39578 H 3843.39 -4.15455 0.231561 0
M  V30 39579 H 3842.26 -5.48724 -0.138971 0
M  V30 39580 H 3842.52 -4.21786 -1.32473 0
M  V30 39581 N 3841.58 -0.480375 -1.501 0
M  V30 39582 C 3842.81 0.0688116 -2.06786 0
M  V30 39583 C 3843.22 1.3268 -1.34318 0
M  V30 39584 O 3842.58 1.77714 -0.415227 0
M  V30 39585 C 3842.63 0.347459 -3.59826 0
M  V30 39586 O 3842.35 -0.860645 -4.29563 0
M  V30 39587 C 3843.85 0.942584 -4.33163 0
M  V30 39588 H 3841.07 -0.011229 -0.670906 0
M  V30 39589 H 3843.62 -0.671822 -1.9315 0
M  V30 39590 H 3841.77 1.03804 -3.73234 0
M  V30 39591 H 3842.19 -0.610888 -5.2093 0
M  V30 39592 H 3843.66 1.08726 -5.41186 0
M  V30 39593 H 3844.14 1.93511 -3.94272 0
M  V30 39594 H 3844.74 0.290104 -4.24309 0
M  V30 39595 N 3843.06 1.56149 -0.213351 0
M  V30 39596 C 3844.01 2.19924 0.700136 0
M  V30 39597 C 3844.98 1.15221 1.19639 0
M  V30 39598 O 3846.16 1.43544 1.25697 0
M  V30 39599 C 3843.3 2.87674 1.90624 0
M  V30 39600 C 3842.41 4.06951 1.44965 0
M  V30 39601 C 3841.55 4.62507 2.61268 0
M  V30 39602 C 3840.59 5.74102 2.12306 0
M  V30 39603 N 3839.73 6.23984 3.21851 0
M  V30 39604 H 3844.57 2.97624 0.149558 0
M  V30 39605 H 3842.1 1.46969 0.0620699 0
M  V30 39606 H 3844.06 3.25134 2.61426 0
M  V30 39607 H 3842.69 2.12507 2.42983 0
M  V30 39608 H 3841.74 3.75031 0.636851 0
M  V30 39609 H 3843.05 4.87611 1.05057 0
M  V30 39610 H 3842.21 5.02367 3.40165 0
M  V30 39611 H 3840.95 3.80992 3.04461 0
M  V30 39612 H 3839.95 5.33752 1.31868 0
M  V30 39613 H 3841.18 6.57446 1.70122 0
M  V30 39614 H 3839.12 5.45386 3.64541 0
M  V30 39615 H 3839.04 6.99745 2.86169 0
M  V30 39616 H 3840.31 6.685 4.00908 0
M  V30 39617 N 3844.54 -0.0601128 1.57485 0
M  V30 39618 C 3845.47 -1.07028 2.07527 0
M  V30 39619 C 3846.45 -1.39651 0.971161 0
M  V30 39620 O 3847.63 -1.49076 1.24459 0
M  V30 39621 C 3844.76 -2.38039 2.52893 0
M  V30 39622 C 3843.72 -2.19739 3.67286 0
M  V30 39623 C 3843.04 -3.56237 3.98747 0
M  V30 39624 C 3844.34 -1.60899 4.96899 0
M  V30 39625 H 3846.04 -0.653823 2.92174 0
M  V30 39626 H 3843.58 -0.313059 1.40556 0
M  V30 39627 H 3845.54 -3.09009 2.86515 0
M  V30 39628 H 3844.26 -2.81686 1.65289 0
M  V30 39629 H 3842.92 -1.51208 3.33964 0
M  V30 39630 H 3842.57 -3.97476 3.08256 0
M  V30 39631 H 3842.27 -3.44828 4.75781 0
M  V30 39632 H 3843.79 -4.28619 4.34877 0
M  V30 39633 H 3845.21 -2.21749 5.28678 0
M  V30 39634 H 3843.6 -1.60153 5.78335 0
M  V30 39635 H 3844.67 -0.571586 4.81519 0
M  V30 39636 N 3846.02 -1.54068 -0.331762 0
M  V30 39637 C 3847.43 -1.63205 -0.906691 0
M  V30 39638 C 3847.78 -0.52087 -1.8916 0
M  V30 39639 O 3846.9 0.34754 -2.13591 0
M  V30 39640 C 3847.5 -2.95835 -1.65127 0
M  V30 39641 C 3846.06 -3.07195 -2.17504 0
M  V30 39642 C 3845.2 -2.58725 -0.997834 0
M  V30 39643 H 3848.16 -1.58321 -0.109567 0
M  V30 39644 H 3848.18 -2.85536 -2.51495 0
M  V30 39645 H 3847.69 -3.76689 -0.934189 0
M  V30 39646 H 3845.79 -2.31 -2.92352 0
M  V30 39647 H 3845.9 -4.12862 -2.43067 0
M  V30 39648 H 3844.27 -2.14419 -1.37465 0
M  V30 39649 H 3845.05 -3.42028 -0.295201 0
M  V30 39650 N 3847.49 0.593399 -1.46002 0
M  V30 39651 C 3848.42 1.71365 -1.58608 0
M  V30 39652 C 3849.41 1.64394 -0.436895 0
M  V30 39653 O 3850.59 1.82575 -0.661814 0
M  V30 39654 C 3847.72 3.09994 -1.56593 0
M  V30 39655 C 3846.67 3.31788 -2.70372 0
M  V30 39656 C 3846 4.70835 -2.53414 0
M  V30 39657 C 3847.3 3.2066 -4.1228 0
M  V30 39658 H 3848.99 1.61071 -2.52381 0
M  V30 39659 H 3846.54 0.773477 -1.21463 0
M  V30 39660 H 3848.49 3.88175 -1.64007 0
M  V30 39661 H 3847.22 3.21161 -0.593568 0
M  V30 39662 H 3845.88 2.56002 -2.62409 0
M  V30 39663 H 3845.52 4.78753 -1.54286 0
M  V30 39664 H 3845.22 4.86371 -3.29723 0
M  V30 39665 H 3846.75 5.51198 -2.62704 0
M  V30 39666 H 3848.16 3.88698 -4.21411 0
M  V30 39667 H 3846.56 3.47721 -4.89091 0
M  V30 39668 H 3847.63 2.17891 -4.33188 0
M  V30 39669 N 3848.97 1.33529 0.837127 0
M  V30 39670 C 3849.94 1.23841 1.92863 0
M  V30 39671 C 3850.94 0.157033 1.60031 0
M  V30 39672 O 3852.13 0.408684 1.69338 0
M  V30 39673 C 3849.26 0.908674 3.28566 0
M  V30 39674 H 3850.45 2.20863 2.02879 0
M  V30 39675 H 3848 1.17612 1.02942 0
M  V30 39676 H 3848.74 -0.0589758 3.24246 0
M  V30 39677 H 3848.52 1.6907 3.53776 0
M  V30 39678 H 3850.01 0.865682 4.08529 0
M  V30 39679 N 3850.45 -1.05559 1.17026 0
M  V30 39680 C 3851.7 -1.78758 0.957773 0
M  V30 39681 C 3852.03 -1.87312 -0.512619 0
M  V30 39682 O 3851.3 -1.37018 -1.38045 0
M  V30 39683 C 3851.59 -3.22849 1.59501 0
M  V30 39684 C 3851.44 -3.2233 3.13725 0
M  V30 39685 C 3852.76 -4.2059 1.29583 0
M  V30 39686 H 3849.88 -0.648932 0.349365 0
M  V30 39687 H 3852.52 -1.23405 1.44469 0
M  V30 39688 H 3850.67 -3.70115 1.18097 0
M  V30 39689 H 3852.34 -2.83168 3.64161 0
M  V30 39690 H 3850.59 -2.60774 3.46669 0
M  V30 39691 H 3851.26 -4.24012 3.53438 0
M  V30 39692 H 3853.73 -3.81801 1.6543 0
M  V30 39693 H 3852.61 -5.1966 1.76761 0
M  V30 39694 H 3852.87 -4.41572 0.215967 0
M  V30 39695 N 3851.93 -0.969911 -1.2422 0
M  V30 39696 C 3852.86 -0.446486 -2.23789 0
M  V30 39697 C 3853.84 0.480631 -1.55334 0
M  V30 39698 O 3855.02 0.411499 -1.83954 0
M  V30 39699 C 3852.15 0.355231 -3.36832 0
M  V30 39700 C 3851.2 -0.514494 -4.23385 0
M  V30 39701 S 3852.03 -1.95604 -4.98497 0
M  V30 39702 C 3853.19 -1.16317 -6.14997 0
M  V30 39703 H 3853.42 -1.29028 -2.67842 0
M  V30 39704 H 3850.95 -0.77511 -1.33534 0
M  V30 39705 H 3852.91 0.811812 -4.02393 0
M  V30 39706 H 3851.57 1.17402 -2.91334 0
M  V30 39707 H 3850.76 0.101166 -5.03898 0
M  V30 39708 H 3850.37 -0.906892 -3.62838 0
M  V30 39709 H 3852.66 -0.419281 -6.76201 0
M  V30 39710 H 3853.6 -1.94276 -6.80928 0
M  V30 39711 H 3854.01 -0.686569 -5.60309 0
M  V30 39712 N 3853.41 1.39131 -0.740291 0
M  V30 39713 C 3854.65 2.00009 -0.289984 0
M  V30 39714 C 3854.98 1.59044 1.12828 0
M  V30 39715 O 3854.25 0.841107 1.76924 0
M  V30 39716 H 3852.83 0.739693 -0.104226 0
M  V30 39717 H 3855.49 1.701 -0.951428 0
M  V30 39718 H 3854.58 3.10214 -0.342563 0
M  V30 39719 N 3854.88 0.488329 1.49844 0
M  V30 39720 C 3856.11 -0.0600573 2.07313 0
M  V30 39721 C 3856.53 -1.31208 1.34782 0
M  V30 39722 O 3855.89 -1.76817 0.400665 0
M  V30 39723 C 3855.94 -0.309595 3.59269 0
M  V30 39724 O 3855.04 -1.38681 3.88383 0
M  V30 39725 H 3854.39 0.0206064 0.66368 0
M  V30 39726 H 3856.92 0.684318 1.92817 0
M  V30 39727 H 3856.93 -0.544929 4.04345 0
M  V30 39728 H 3855.6 0.605218 4.11473 0
M  V30 39729 H 3854.18 -1.13743 3.5513 0
M  V30 39730 N 3856.36 -1.56034 0.221629 0
M  V30 39731 C 3857.59 -2.03145 -0.417943 0
M  V30 39732 C 3858.01 -1.1004 -1.52554 0
M  V30 39733 O 3857.37 -0.0886048 -1.81083 0
M  V30 39734 C 3857.42 -3.48489 -0.926701 0
M  V30 39735 O 3856.52 -3.58521 -2.03805 0
M  V30 39736 H 3855.86 -0.657231 -0.0945662 0
M  V30 39737 H 3858.39 -2.0175 0.340288 0
M  V30 39738 H 3858.4 -3.88812 -1.2365 0
M  V30 39739 H 3857.08 -4.15738 -0.116042 0
M  V30 39740 H 3855.66 -3.30085 -1.73488 0
M  V30 39741 N 3857.84 0.0517601 -1.57515 0
M  V30 39742 C 3859.07 0.75835 -1.92179 0
M  V30 39743 C 3859.48 1.70615 -0.817751 0
M  V30 39744 O 3858.82 1.82421 0.216359 0
M  V30 39745 C 3858.88 1.58906 -3.22473 0
M  V30 39746 C 3858.55 0.80849 -4.49792 0
M  V30 39747 C 3859.54 0.11878 -5.19764 0
M  V30 39748 C 3857.23 0.769737 -4.96367 0
M  V30 39749 C 3859.22 -0.599235 -6.34577 0
M  V30 39750 C 3856.91 0.0479624 -6.11081 0
M  V30 39751 C 3857.91 -0.635304 -6.80039 0
M  V30 39752 O 3857.6 -1.34541 -7.92562 0
M  V30 39753 H 3857.33 0.219596 -0.639339 0
M  V30 39754 H 3859.88 0.0202287 -2.0539 0
M  V30 39755 H 3858.11 2.37046 -3.05526 0
M  V30 39756 H 3859.8 2.17616 -3.42634 0
M  V30 39757 H 3860.57 0.139896 -4.84798 0
M  V30 39758 H 3856.45 1.29104 -4.42553 0
M  V30 39759 H 3859.99 -1.1331 -6.88336 0
M  V30 39760 H 3855.89 0.0248428 -6.45495 0
M  V30 39761 H 3856.66 -1.25674 -8.08794 0
M  V30 39762 N 3859.32 1.54242 0.323587 0
M  V30 39763 C 3860.57 1.72106 1.05944 0
M  V30 39764 C 3860.89 0.497545 1.88546 0
M  V30 39765 O 3860.16 -0.488452 1.89713 0
M  V30 39766 H 3858.74 0.634564 0.39413 0
M  V30 39767 H 3861.4 1.91546 0.36003 0
M  V30 39768 H 3860.5 2.60065 1.72548 0
M  V30 39769 N 3860.8 -0.585648 1.46314 0
M  V30 39770 C 3862.04 -1.34396 1.51472 0
M  V30 39771 C 3862.37 -1.93797 0.165243 0
M  V30 39772 O 3861.63 -1.76814 -0.838765 0
M  V30 39773 C 3861.93 -2.495 2.559 0
M  V30 39774 C 3861.59 -2.08111 4.00001 0
M  V30 39775 C 3860.25 -1.96538 4.39234 0
M  V30 39776 C 3862.61 -1.76139 4.90535 0
M  V30 39777 C 3859.93 -1.51246 5.6687 0
M  V30 39778 C 3862.29 -1.32327 6.18605 0
M  V30 39779 C 3860.95 -1.19329 6.56747 0
M  V30 39780 H 3860.22 -0.491791 0.554276 0
M  V30 39781 H 3862.87 -0.659771 1.79776 0
M  V30 39782 H 3861.17 -3.23353 2.21246 0
M  V30 39783 H 3862.87 -3.07717 2.57121 0
M  V30 39784 H 3859.46 -2.18052 3.68987 0
M  V30 39785 H 3863.64 -1.83966 4.60945 0
M  V30 39786 H 3858.9 -1.39824 5.95197 0
M  V30 39787 H 3863.07 -1.0664 6.88187 0
M  V30 39788 H 3860.7 -0.840095 7.55544 0
M  V30 39789 N 3862.28 -1.33971 -0.830033 0
M  V30 39790 C 3863.21 -1.20798 -1.94783 0
M  V30 39791 C 3864.22 -0.136781 -1.62224 0
M  V30 39792 O 3865.41 -0.388001 -1.74232 0
M  V30 39793 C 3862.51 -0.832266 -3.28522 0
M  V30 39794 C 3861.68 -1.99696 -3.89153 0
M  V30 39795 C 3860.74 -1.60079 -5.0126 0
M  V30 39796 O 3859.77 -2.31638 -5.19935 0
M  V30 39797 N 3860.97 -0.510856 -5.78248 0
M  V30 39798 H 3863.73 -2.17093 -2.06617 0
M  V30 39799 H 3861.3 -1.26832 -1.00624 0
M  V30 39800 H 3863.29 -0.549165 -4.00957 0
M  V30 39801 H 3861.86 0.0402721 -3.12574 0
M  V30 39802 H 3861.08 -2.4452 -3.09199 0
M  V30 39803 H 3862.37 -2.77606 -4.26394 0
M  V30 39804 H 3861.76 0.0841918 -5.65637 0
M  V30 39805 H 3860.32 -0.287459 -6.51166 0
M  V30 39806 N 3863.75 1.04937 -1.17584 0
M  V30 39807 C 3864.98 1.8139 -0.988993 0
M  V30 39808 C 3865.39 1.83373 0.465938 0
M  V30 39809 O 3864.73 1.26151 1.33535 0
M  V30 39810 C 3864.8 3.28669 -1.45661 0
M  V30 39811 C 3864.46 3.50364 -2.93418 0
M  V30 39812 C 3865.46 3.42276 -3.91335 0
M  V30 39813 C 3863.14 3.77243 -3.31652 0
M  V30 39814 C 3865.14 3.60757 -5.25484 0
M  V30 39815 C 3862.82 3.95372 -4.65966 0
M  V30 39816 C 3863.82 3.87128 -5.62691 0
M  V30 39817 O 3863.51 4.04749 -6.94575 0
M  V30 39818 H 3863.24 0.578356 -0.349972 0
M  V30 39819 H 3865.8 1.33204 -1.56352 0
M  V30 39820 H 3864.03 3.77782 -0.825668 0
M  V30 39821 H 3865.71 3.86654 -1.23504 0
M  V30 39822 H 3866.48 3.21484 -3.63143 0
M  V30 39823 H 3862.36 3.82763 -2.56932 0
M  V30 39824 H 3865.9 3.54238 -6.00967 0
M  V30 39825 H 3861.8 4.15657 -4.93862 0
M  V30 39826 H 3862.57 4.21959 -7.01351 0
M  V30 39827 N 3865.23 0.976485 1.23703 0
M  V30 39828 C 3866.46 0.660732 1.96594 0
M  V30 39829 C 3866.88 -0.764885 1.71846 0
M  V30 39830 O 3866.24 -1.52044 0.987532 0
M  V30 39831 C 3866.29 0.952201 3.47801 0
M  V30 39832 O 3865.39 0.0421851 4.12378 0
M  V30 39833 H 3864.73 0.248897 0.615586 0
M  V30 39834 H 3867.26 1.30902 1.57245 0
M  V30 39835 H 3867.27 0.887308 3.98235 0
M  V30 39836 H 3865.95 1.99112 3.6514 0
M  V30 39837 H 3864.52 0.161152 3.72552 0
M  V30 39838 N 3866.71 -1.38737 0.747659 0
M  V30 39839 C 3868.12 -1.83005 0.369608 0
M  V30 39840 C 3868.47 -1.62404 -1.10088 0
M  V30 39841 O 3867.6 -1.12201 -1.8504 0
M  V30 39842 C 3868.19 -3.32228 0.664076 0
M  V30 39843 C 3866.75 -3.74867 0.339374 0
M  V30 39844 C 3865.9 -2.61584 0.920277 0
M  V30 39845 H 3868.85 -1.27549 0.944291 0
M  V30 39846 H 3868.87 -3.80453 -0.0597906 0
M  V30 39847 H 3868.38 -3.4719 1.73438 0
M  V30 39848 H 3866.48 -3.65487 -0.724585 0
M  V30 39849 H 3866.6 -4.71842 0.830782 0
M  V30 39850 H 3864.96 -2.52338 0.346046 0
M  V30 39851 H 3865.74 -2.79347 1.99549 0
M  V30 39852 N 3868.19 -0.496268 -1.49583 0
M  V30 39853 C 3869.44 0.0498288 -2.02039 0
M  V30 39854 C 3869.76 1.37922 -1.3785 0
M  V30 39855 O 3869.03 1.88532 -0.532221 0
M  V30 39856 H 3867.61 0.0214046 -0.746693 0
M  V30 39857 H 3870.27 -0.652432 -1.83655 0
M  V30 39858 H 3869.36 0.182967 -3.11563 0
M  V30 39859 N 3869.67 1.55914 -0.2299 0
M  V30 39860 C 3870.6 2.17951 0.709231 0
M  V30 39861 C 3871.61 1.15094 1.1514 0
M  V30 39862 O 3872.8 1.42036 1.08111 0
M  V30 39863 C 3869.9 2.75508 1.97354 0
M  V30 39864 C 3869.07 4.03617 1.68558 0
M  V30 39865 C 3868.13 4.45657 2.79778 0
M  V30 39866 O 3867.16 5.12385 2.47891 0
M  V30 39867 N 3868.36 4.12031 4.08914 0
M  V30 39868 H 3871.12 2.99168 0.17852 0
M  V30 39869 H 3868.69 1.61825 -0.0492073 0
M  V30 39870 H 3870.68 3.00598 2.70967 0
M  V30 39871 H 3869.25 1.98546 2.4145 0
M  V30 39872 H 3868.47 3.86295 0.785479 0
M  V30 39873 H 3869.76 4.87174 1.4676 0
M  V30 39874 H 3869.15 3.58426 4.37661 0
M  V30 39875 H 3867.71 4.41995 4.79044 0
M  V30 39876 N 3871.14 -0.043406 1.5754 0
M  V30 39877 C 3872.56 -0.398792 1.54537 0
M  V30 39878 C 3872.76 -1.77481 0.954086 0
M  V30 39879 O 3871.82 -2.46008 0.568883 0
M  V30 39880 C 3873.13 -0.313796 2.99058 0
M  V30 39881 C 3874.68 -0.391925 3.10537 0
M  V30 39882 C 3875.15 -0.336534 4.56762 0
M  V30 39883 N 3876.64 -0.395763 4.61506 0
M  V30 39884 C 3877.38 -0.375568 5.72169 0
M  V30 39885 N 3876.87 -0.308508 6.92113 0
M  V30 39886 N 3878.67 -0.424237 5.60497 0
M  V30 39887 H 3870.82 0.857259 1.94332 0
M  V30 39888 H 3873.08 0.324581 0.890702 0
M  V30 39889 H 3872.79 0.63122 3.45989 0
M  V30 39890 H 3872.66 -1.11306 3.60404 0
M  V30 39891 H 3875.05 -1.32737 2.63562 0
M  V30 39892 H 3875.13 0.436435 2.52049 0
M  V30 39893 H 3874.77 0.595181 5.04401 0
M  V30 39894 H 3874.7 -1.18281 5.13144 0
M  V30 39895 H 3877.19 -0.450687 3.75203 0
M  V30 39896 H 3877.51 -0.297805 7.72226 0
M  V30 39897 H 3875.85 -0.274769 6.94457 0
M  V30 39898 H 3879.04 -0.474517 4.65689 0
M  V30 39899 H 3879.22 -0.40503 6.46733 0
M  V30 39900 N 3872.62 -1.54412 -0.315402 0
M  V30 39901 C 3873.87 -1.73263 -1.05393 0
M  V30 39902 C 3874.2 -0.509204 -1.87405 0
M  V30 39903 O 3873.48 0.493802 -1.88127 0
M  V30 39904 C 3873.76 -3.01311 -1.97189 0
M  V30 39905 C 3873.61 -4.33923 -1.18453 0
M  V30 39906 C 3874.93 -3.25152 -2.96588 0
M  V30 39907 H 3872.05 -0.630424 -0.381752 0
M  V30 39908 H 3874.69 -1.87115 -0.329849 0
M  V30 39909 H 3872.84 -2.89633 -2.58931 0
M  V30 39910 H 3874.51 -4.57497 -0.59109 0
M  V30 39911 H 3872.76 -4.31058 -0.486949 0
M  V30 39912 H 3873.43 -5.19755 -1.85899 0
M  V30 39913 H 3875.9 -3.36345 -2.44971 0
M  V30 39914 H 3874.78 -4.1609 -3.57995 0
M  V30 39915 H 3875.04 -2.42765 -3.69483 0
M  V30 39916 N 3874.1 0.57788 -1.46623 0
M  V30 39917 C 3875.01 1.71436 -1.60146 0
M  V30 39918 C 3876.03 1.6711 -0.48481 0
M  V30 39919 O 3877.2 1.86931 -0.749584 0
M  V30 39920 C 3874.27 3.07942 -1.59288 0
M  V30 39921 C 3873.33 3.23495 -2.82222 0
M  V30 39922 C 3872.56 4.5349 -2.81395 0
M  V30 39923 O 3872.78 5.37678 -1.90417 0
M  V30 39924 O 3871.72 4.72393 -3.72999 0
M  V30 39925 H 3875.54 1.62973 -2.56268 0
M  V30 39926 H 3873.13 0.745491 -1.29471 0
M  V30 39927 H 3875.01 3.89216 -1.61521 0
M  V30 39928 H 3873.69 3.16832 -0.663268 0
M  V30 39929 H 3872.59 2.41697 -2.8554 0
M  V30 39930 H 3873.93 3.19499 -3.74408 0
M  V30 39931 N 3875.58 1.34409 0.822917 0
M  V30 39932 C 3876.83 1.26766 1.57913 0
M  V30 39933 C 3877.15 -0.162374 1.93821 0
M  V30 39934 O 3876.41 -1.12363 1.60228 0
M  V30 39935 C 3876.71 2.10393 2.88911 0
M  V30 39936 C 3876.37 3.59397 2.72295 0
M  V30 39937 C 3875.04 4.00016 2.67472 0
M  V30 39938 C 3877.39 4.54013 2.55972 0
M  V30 39939 C 3874.72 5.33443 2.44245 0
M  V30 39940 C 3877.07 5.87619 2.34278 0
M  V30 39941 C 3875.73 6.27402 2.27866 0
M  V30 39942 H 3875 0.46387 0.577846 0
M  V30 39943 H 3877.65 1.66152 0.952151 0
M  V30 39944 H 3875.95 1.63836 3.55901 0
M  V30 39945 H 3877.65 2.01826 3.46508 0
M  V30 39946 H 3874.24 3.27154 2.7689 0
M  V30 39947 H 3878.42 4.23529 2.58722 0
M  V30 39948 H 3873.68 5.63285 2.37739 0
M  V30 39949 H 3877.85 6.60525 2.20634 0
M  V30 39950 H 3875.48 7.30725 2.0963 0
M  V30 39951 N 3877.06 -1.04312 1.18139 0
M  V30 39952 C 3877.99 -2.14196 0.929631 0
M  V30 39953 C 3878.97 -1.69589 -0.131736 0
M  V30 39954 O 3880.15 -1.94189 0.0203446 0
M  V30 39955 C 3877.28 -3.44348 0.451859 0
M  V30 39956 C 3876.24 -4.02566 1.45343 0
M  V30 39957 C 3875.56 -5.28167 0.833269 0
M  V30 39958 C 3876.86 -4.39026 2.82938 0
M  V30 39959 H 3878.56 -2.35515 1.8486 0
M  V30 39960 H 3876.1 -1.13185 0.890237 0
M  V30 39961 H 3878.06 -4.20578 0.263104 0
M  V30 39962 H 3876.78 -3.22709 -0.502668 0
M  V30 39963 H 3875.44 -3.28415 1.62908 0
M  V30 39964 H 3875.09 -5.02836 -0.12837 0
M  V30 39965 H 3874.79 -5.6808 1.50195 0
M  V30 39966 H 3876.31 -6.07077 0.654987 0
M  V30 39967 H 3877.72 -5.06252 2.69039 0
M  V30 39968 H 3876.12 -4.89981 3.46466 0
M  V30 39969 H 3877.19 -3.48966 3.36676 0
M  V30 39970 N 3878.53 -0.983032 -1.23184 0
M  V30 39971 C 3879.78 -0.654343 -1.91954 0
M  V30 39972 C 3880.11 0.810388 -1.76483 0
M  V30 39973 O 3879.39 1.58488 -1.12747 0
M  V30 39974 C 3879.67 -1.04879 -3.44489 0
M  V30 39975 C 3879.52 -2.57135 -3.69055 0
M  V30 39976 C 3880.84 -0.594655 -4.36064 0
M  V30 39977 H 3877.96 -0.239191 -0.697106 0
M  V30 39978 H 3880.6 -1.22479 -1.45255 0
M  V30 39979 H 3878.75 -0.5634 -3.84393 0
M  V30 39980 H 3880.43 -3.13268 -3.38616 0
M  V30 39981 H 3878.67 -2.9965 -3.13676 0
M  V30 39982 H 3879.34 -2.79784 -4.75841 0
M  V30 39983 H 3881.82 -1.01143 -4.0362 0
M  V30 39984 H 3880.69 -0.89905 -5.41487 0
M  V30 39985 H 3880.95 0.504956 -4.39207 0
M  V30 39986 N 3880.01 1.38338 -0.755006 0
M  V30 39987 C 3880.94 2.29029 -0.0884239 0
M  V30 39988 C 3881.96 1.47816 0.682232 0
M  V30 39989 O 3883.15 1.70664 0.523087 0
M  V30 39990 C 3880.25 3.26765 0.898762 0
M  V30 39991 C 3879.42 4.37007 0.18545 0
M  V30 39992 C 3878.48 5.14922 1.08359 0
M  V30 39993 O 3877.5 5.66502 0.553587 0
M  V30 39994 N 3878.71 5.28038 2.41155 0
M  V30 39995 H 3881.47 2.86876 -0.8673 0
M  V30 39996 H 3879.03 1.50134 -0.605912 0
M  V30 39997 H 3881.02 3.75769 1.50266 0
M  V30 39998 H 3879.59 2.69807 1.57871 0
M  V30 39999 H 3878.81 3.8962 -0.599174 0
M  V30 40000 H 3880.1 5.07866 -0.308088 0
M  V30 40001 H 3879.5 4.87686 2.86669 0
M  V30 40002 H 3878.06 5.80411 2.96592 0
M  V30 40003 N 3881.49 0.504194 1.49317 0
M  V30 40004 C 3882.45 -0.26153 2.27703 0
M  V30 40005 C 3883.45 -0.891091 1.33851 0
M  V30 40006 O 3884.64 -0.755128 1.56982 0
M  V30 40007 C 3881.78 -1.37558 3.11914 0
M  V30 40008 H 3882.97 0.426344 2.96854 0
M  V30 40009 H 3880.52 0.259263 1.54135 0
M  V30 40010 H 3881.26 -2.09751 2.47336 0
M  V30 40011 H 3881.04 -0.929574 3.80922 0
M  V30 40012 H 3882.53 -1.91487 3.7111 0
M  V30 40013 N 3882.97 -1.5579 0.238166 0
M  V30 40014 C 3884.21 -1.99767 -0.382738 0
M  V30 40015 C 3884.57 -1.12338 -1.56198 0
M  V30 40016 O 3883.86 -0.176973 -1.90781 0
M  V30 40017 C 3884.06 -3.47131 -0.850585 0
M  V30 40018 C 3883.89 -4.48816 0.281784 0
M  V30 40019 C 3882.66 -4.99649 0.75362 0
M  V30 40020 C 3884.85 -5.02272 1.10579 0
M  V30 40021 N 3882.84 -5.85066 1.85931 0
M  V30 40022 C 3884.21 -5.84776 2.06003 0
M  V30 40023 C 3886.26 -4.84595 1.14335 0
M  V30 40024 C 3884.96 -6.5149 3.04882 0
M  V30 40025 C 3886.99 -5.52081 2.1204 0
M  V30 40026 C 3886.35 -6.34366 3.062 0
M  V30 40027 H 3882.45 -0.774748 -0.106256 0
M  V30 40028 H 3885.04 -1.91459 0.353744 0
M  V30 40029 H 3883.21 -3.55853 -1.55638 0
M  V30 40030 H 3884.94 -3.77997 -1.4457 0
M  V30 40031 H 3881.69 -4.72383 0.339288 0
M  V30 40032 H 3882.12 -6.32474 2.41466 0
M  V30 40033 H 3886.76 -4.20615 0.429253 0
M  V30 40034 H 3884.48 -7.14641 3.77244 0
M  V30 40035 H 3888.06 -5.40361 2.1564 0
M  V30 40036 H 3886.94 -6.85665 3.80569 0
M  V30 40037 N 3884.45 0.0350506 -1.57561 0
M  V30 40038 C 3885.39 1.03752 -2.06165 0
M  V30 40039 C 3886.36 1.36281 -0.949564 0
M  V30 40040 O 3887.55 1.46721 -1.21974 0
M  V30 40041 C 3884.69 2.33522 -2.5409 0
M  V30 40042 C 3883.8 2.07204 -3.79066 0
M  V30 40043 C 3882.94 3.308 -4.15625 0
M  V30 40044 C 3881.98 3.0001 -5.33536 0
M  V30 40045 N 3881.11 4.16041 -5.65556 0
M  V30 40046 H 3885.95 0.616086 -2.91562 0
M  V30 40047 H 3883.49 0.292592 -1.44161 0
M  V30 40048 H 3885.45 3.09337 -2.7994 0
M  V30 40049 H 3884.08 2.73399 -1.71618 0
M  V30 40050 H 3883.13 1.21913 -3.60335 0
M  V30 40051 H 3884.44 1.80486 -4.65001 0
M  V30 40052 H 3883.6 4.14987 -4.42573 0
M  V30 40053 H 3882.33 3.60626 -3.28329 0
M  V30 40054 H 3881.34 2.14225 -5.06347 0
M  V30 40055 H 3882.56 2.71469 -6.2248 0
M  V30 40056 H 3880.51 4.4583 -4.81219 0
M  V30 40057 H 3880.43 3.92727 -6.45989 0
M  V30 40058 H 3881.7 5.01119 -5.97076 0
M  V30 40059 N 3885.92 1.54577 0.307209 0
M  V30 40060 C 3887.15 1.77869 1.06665 0
M  V30 40061 C 3887.57 0.533568 1.80374 0
M  V30 40062 O 3886.93 -0.515633 1.73813 0
M  V30 40063 C 3886.98 2.98188 2.02772 0
M  V30 40064 O 3886.08 2.70878 3.10965 0
M  V30 40065 H 3885.43 0.588908 0.306731 0
M  V30 40066 H 3887.96 2.01644 0.346522 0
M  V30 40067 H 3887.97 3.25987 2.4535 0
M  V30 40068 H 3886.64 3.88474 1.48527 0
M  V30 40069 H 3885.22 2.54077 2.72946 0
M  V30 40070 N 3887.4 -0.570096 1.46927 0
M  V30 40071 C 3888.35 -1.67821 1.58445 0
M  V30 40072 C 3889.32 -1.60489 0.428081 0
M  V30 40073 O 3890.5 -1.79514 0.646477 0
M  V30 40074 C 3887.64 -3.06155 1.59258 0
M  V30 40075 C 3886.76 -3.24019 2.85719 0
M  V30 40076 C 3885.89 -4.52676 2.77953 0
M  V30 40077 C 3884.93 -4.63927 3.99297 0
M  V30 40078 N 3884.07 -5.83924 3.89843 0
M  V30 40079 H 3888.91 -1.57315 2.53093 0
M  V30 40080 H 3886.45 -0.766526 1.2555 0
M  V30 40081 H 3888.4 -3.86241 1.57714 0
M  V30 40082 H 3887.03 -3.15528 0.681326 0
M  V30 40083 H 3886.09 -2.37452 2.97188 0
M  V30 40084 H 3887.4 -3.28199 3.75615 0
M  V30 40085 H 3886.55 -5.41006 2.74586 0
M  V30 40086 H 3885.29 -4.50954 1.85719 0
M  V30 40087 H 3884.3 -3.74012 4.02983 0
M  V30 40088 H 3885.52 -4.67418 4.92643 0
M  V30 40089 H 3883.47 -5.83176 3.00403 0
M  V30 40090 H 3883.38 -5.89426 4.73406 0
M  V30 40091 H 3884.65 -6.7465 3.90471 0
M  V30 40092 N 3888.88 -1.34844 -0.815777 0
M  V30 40093 C 3889.83 -1.27009 -1.9271 0
M  V30 40094 C 3890.8 -0.143867 -1.65476 0
M  V30 40095 O 3891.98 -0.32604 -1.87994 0
M  V30 40096 C 3889.12 -1.03869 -3.29098 0
M  V30 40097 C 3888.24 -2.2533 -3.68579 0
M  V30 40098 C 3887.37 -1.95415 -4.9395 0
M  V30 40099 C 3886.41 -3.12981 -5.26032 0
M  V30 40100 N 3885.55 -2.82902 -6.42581 0
M  V30 40101 H 3890.39 -2.22047 -1.98743 0
M  V30 40102 H 3887.92 -1.10389 -0.972245 0
M  V30 40103 H 3889.88 -0.884881 -4.07708 0
M  V30 40104 H 3888.51 -0.124967 -3.22558 0
M  V30 40105 H 3887.56 -2.51608 -2.85303 0
M  V30 40106 H 3888.88 -3.13147 -3.88253 0
M  V30 40107 H 3888.03 -1.76812 -5.80364 0
M  V30 40108 H 3886.77 -1.0487 -4.76291 0
M  V30 40109 H 3885.77 -3.32172 -4.38111 0
M  V30 40110 H 3887 -4.04314 -5.45625 0
M  V30 40111 H 3884.95 -1.94941 -6.26366 0
M  V30 40112 H 3884.86 -3.64251 -6.62463 0
M  V30 40113 H 3886.13 -2.67818 -7.32048 0
M  V30 40114 N 3890.36 1.03684 -1.1869 0
M  V30 40115 C 3891.59 1.80593 -1.00964 0
M  V30 40116 C 3892 1.83557 0.441848 0
M  V30 40117 O 3891.36 1.27382 1.30691 0
M  V30 40118 C 3891.41 3.26016 -1.56191 0
M  V30 40119 O 3891.13 3.23293 -2.95658 0
M  V30 40120 C 3892.63 4.19556 -1.43136 0
M  V30 40121 H 3889.85 0.568587 -0.356301 0
M  V30 40122 H 3892.4 1.30647 -1.57326 0
M  V30 40123 H 3890.55 3.7318 -1.03996 0
M  V30 40124 H 3890.97 4.14422 -3.21488 0
M  V30 40125 H 3892.44 5.19515 -1.8657 0
M  V30 40126 H 3892.92 4.37547 -0.380658 0
M  V30 40127 H 3893.52 3.78259 -1.94423 0
M  V30 40128 N 3891.84 0.989551 1.22661 0
M  V30 40129 C 3893.25 0.699154 1.73115 0
M  V30 40130 C 3893.6 -0.784166 1.79848 0
M  V30 40131 O 3892.72 -1.61309 1.44251 0
M  V30 40132 C 3893.32 1.26245 3.144 0
M  V30 40133 C 3891.88 1.02151 3.62274 0
M  V30 40134 C 3891.03 1.38467 2.40255 0
M  V30 40135 H 3893.98 1.16231 1.08055 0
M  V30 40136 H 3894 0.639373 3.7509 0
M  V30 40137 H 3893.51 2.34204 3.09468 0
M  V30 40138 H 3891.61 -0.0415967 3.72577 0
M  V30 40139 H 3891.72 1.68252 4.48584 0
M  V30 40140 H 3890.09 0.803222 2.41703 0
M  V30 40141 H 3890.87 2.47422 2.37986 0
M  V30 40142 N 3893.32 -1.37936 0.762332 0
M  V30 40143 C 3894.25 -2.28027 0.0887296 0
M  V30 40144 C 3895.23 -1.45834 -0.719101 0
M  V30 40145 O 3896.41 -1.75185 -0.695871 0
M  V30 40146 C 3893.54 -3.27044 -0.8809 0
M  V30 40147 C 3892.58 -4.26206 -0.158228 0
M  V30 40148 S 3893.42 -5.23069 1.14714 0
M  V30 40149 C 3894.57 -6.25639 0.180811 0
M  V30 40150 H 3894.81 -2.8481 0.852677 0
M  V30 40151 H 3892.34 -1.44069 0.555299 0
M  V30 40152 H 3894.3 -3.84602 -1.43497 0
M  V30 40153 H 3892.96 -2.69227 -1.61788 0
M  V30 40154 H 3892.15 -4.96027 -0.892925 0
M  V30 40155 H 3891.75 -3.72589 0.324568 0
M  V30 40156 H 3894.04 -6.74373 -0.650128 0
M  V30 40157 H 3894.99 -7.03017 0.846924 0
M  V30 40158 H 3895.4 -5.64132 -0.203784 0
M  V30 40159 N 3894.79 -0.512106 -1.49048 0
M  V30 40160 C 3896.04 0.0283971 -2.0208 0
M  V30 40161 C 3896.36 1.36452 -1.39305 0
M  V30 40162 O 3895.63 1.87957 -0.552188 0
M  V30 40163 H 3894.21 0.0134837 -0.746878 0
M  V30 40164 H 3896.87 -0.671874 -1.82953 0
M  V30 40165 H 3895.97 0.149911 -3.1174 0
M  V30 40166 N 3896.27 1.55662 -0.246424 0
M  V30 40167 C 3897.52 1.98932 0.378452 0
M  V30 40168 C 3897.85 1.13454 1.57982 0
M  V30 40169 O 3897.1 0.185248 1.94821 0
M  V30 40170 C 3897.4 3.47577 0.832164 0
M  V30 40171 C 3897.07 4.50142 -0.261397 0
M  V30 40172 C 3895.73 4.7791 -0.561744 0
M  V30 40173 C 3898.08 5.11523 -0.999708 0
M  V30 40174 C 3895.41 5.64334 -1.60448 0
M  V30 40175 C 3897.76 5.99078 -2.03196 0
M  V30 40176 C 3896.42 6.25179 -2.33896 0
M  V30 40177 H 3895.69 0.727944 0.138485 0
M  V30 40178 H 3898.34 1.88197 -0.354149 0
M  V30 40179 H 3896.65 3.55642 1.64396 0
M  V30 40180 H 3898.34 3.78445 1.32592 0
M  V30 40181 H 3894.93 4.28597 -0.0171648 0
M  V30 40182 H 3899.12 4.90118 -0.780919 0
M  V30 40183 H 3894.37 5.82813 -1.84768 0
M  V30 40184 H 3898.55 6.45682 -2.60897 0
M  V30 40185 H 3896.17 6.91942 -3.14834 0
M  V30 40186 N 3897.75 -0.0266943 1.57577 0
M  V30 40187 C 3898.97 -0.732439 1.94036 0
M  V30 40188 C 3899.4 -1.67971 0.846605 0
M  V30 40189 O 3898.76 -1.80221 -0.197483 0
M  V30 40190 C 3898.81 -1.46359 3.29562 0
M  V30 40191 O 3897.91 -2.57688 3.21979 0
M  V30 40192 H 3897.25 -0.196821 0.634159 0
M  V30 40193 H 3899.78 0.0185389 2.04592 0
M  V30 40194 H 3899.79 -1.83299 3.64507 0
M  V30 40195 H 3898.47 -0.768871 4.08731 0
M  V30 40196 H 3897.04 -2.23274 2.98669 0
M  V30 40197 N 3899.23 -1.54738 -0.299007 0
M  V30 40198 C 3900.46 -1.77849 -1.05134 0
M  V30 40199 C 3900.87 -0.539052 -1.81358 0
M  V30 40200 O 3900.21 0.500752 -1.76743 0
M  V30 40201 C 3900.27 -2.93447 -2.07676 0
M  V30 40202 C 3899.93 -4.31463 -1.50628 0
M  V30 40203 C 3900.93 -5.11418 -0.935288 0
M  V30 40204 C 3898.62 -4.78068 -1.54131 0
M  V30 40205 C 3900.61 -6.361 -0.40691 0
M  V30 40206 C 3898.3 -6.02711 -1.00907 0
M  V30 40207 C 3899.3 -6.81563 -0.442837 0
M  V30 40208 O 3898.98 -8.03859 0.0813333 0
M  V30 40209 H 3898.72 -0.596812 -0.317476 0
M  V30 40210 H 3901.27 -2.02512 -0.343213 0
M  V30 40211 H 3899.5 -2.64413 -2.82175 0
M  V30 40212 H 3901.19 -3.04117 -2.68827 0
M  V30 40213 H 3901.95 -4.76555 -0.901113 0
M  V30 40214 H 3897.83 -4.1672 -1.97143 0
M  V30 40215 H 3901.38 -6.97591 0.0356996 0
M  V30 40216 H 3897.27 -6.3706 -1.04039 0
M  V30 40217 H 3898.04 -8.18494 -0.0317781 0
M  V30 40218 N 3900.71 0.562296 -1.47228 0
M  V30 40219 C 3901.98 1.32298 -1.44071 0
M  V30 40220 C 3902.36 2.10668 -0.134949 0
M  V30 40221 O 3901.71 2.10726 0.883566 0
M  V30 40222 C 3901.92 2.2318 -2.68313 0
M  V30 40223 C 3903.27 2.84361 -3.15315 0
M  V30 40224 O 3904.29 2.33484 -2.69005 0
M  V30 40225 O 3903.15 3.76823 -3.95812 0
M  V30 40226 H 3900.25 0.595454 -0.573902 0
M  V30 40227 H 3902.79 0.58162 -1.59422 0
M  V30 40228 H 3901.56 1.64836 -3.54887 0
M  V30 40229 H 3901.19 3.04621 -2.55523 0
M  V30 40230 N 3902.18 1.35274 0.808615 0
M  V30 40231 C 3903.41 1.31544 1.59699 0
M  V30 40232 C 3903.83 -0.107508 1.88494 0
M  V30 40233 O 3903.18 -1.05886 1.48642 0
M  V30 40234 C 3903.23 2.11813 2.92946 0
M  V30 40235 O 3902.96 3.4856 2.65401 0
M  V30 40236 C 3904.46 2.15645 3.87314 0
M  V30 40237 H 3901.68 0.451965 0.495953 0
M  V30 40238 H 3904.22 1.78099 1.00504 0
M  V30 40239 H 3902.38 1.68864 3.4866 0
M  V30 40240 H 3902.79 3.90224 3.50464 0
M  V30 40241 H 3904.26 2.76204 4.77928 0
M  V30 40242 H 3904.74 1.15466 4.2375 0
M  V30 40243 H 3905.35 2.58747 3.37535 0
M  V30 40244 N 3903.66 -1.03053 1.19239 0
M  V30 40245 C 3905.08 -1.28671 0.944246 0
M  V30 40246 C 3905.28 -1.97801 -0.384344 0
M  V30 40247 O 3904.33 -2.26486 -1.11625 0
M  V30 40248 C 3905.65 -2.13543 2.11707 0
M  V30 40249 C 3907.2 -2.26856 2.15651 0
M  V30 40250 C 3907.67 -3.15099 3.32381 0
M  V30 40251 N 3909.16 -3.22687 3.32306 0
M  V30 40252 C 3909.9 -3.91151 4.19271 0
M  V30 40253 N 3909.39 -4.61859 5.16389 0
M  V30 40254 N 3911.19 -3.87533 4.07154 0
M  V30 40255 H 3903.34 -0.565951 2.04721 0
M  V30 40256 H 3905.6 -0.312312 0.895078 0
M  V30 40257 H 3905.31 -1.70067 3.07848 0
M  V30 40258 H 3905.18 -3.1425 2.0863 0
M  V30 40259 H 3907.57 -2.69563 1.20083 0
M  V30 40260 H 3907.65 -1.25704 2.22783 0
M  V30 40261 H 3907.29 -2.73101 4.28227 0
M  V30 40262 H 3907.22 -4.16306 3.22486 0
M  V30 40263 H 3909.71 -2.72327 2.62005 0
M  V30 40264 H 3910.03 -5.11726 5.79099 0
M  V30 40265 H 3908.37 -4.6073 5.20339 0
M  V30 40266 H 3911.56 -3.31432 3.30561 0
M  V30 40267 H 3911.73 -4.40617 4.75143 0
M  V30 40268 N 3905.14 -0.996042 -1.22134 0
M  V30 40269 C 3906.38 -0.681916 -1.9269 0
M  V30 40270 C 3906.74 0.772123 -1.7579 0
M  V30 40271 O 3907.95 1.19781 -2.40636 0
M  V30 40272 C 3906.22 -1.08054 -3.40675 0
M  V30 40273 S 3907.78 -0.885257 -4.29777 0
M  V30 40274 H 3904.59 -0.249228 -0.665888 0
M  V30 40275 H 3907.2 -1.27898 -1.47859 0
M  V30 40276 H 3905.9 -2.13509 -3.50488 0
M  V30 40277 H 3905.43 -0.475397 -3.90517 0
M  V30 40278 H 3907.45 0.222525 -4.95701 0
M  V30 40279 N 3906.62 1.37529 -0.769636 0
M  V30 40280 C 3907.87 1.99743 -0.333001 0
M  V30 40281 C 3908.19 1.61096 1.08987 0
M  V30 40282 O 3907.45 0.847687 1.76388 0
M  V30 40283 C 3907.75 3.54906 -0.421448 0
M  V30 40284 C 3907.41 4.13315 -1.80227 0
M  V30 40285 C 3906.08 4.2898 -2.18013 0
M  V30 40286 C 3908.43 4.45369 -2.70732 0
M  V30 40287 C 3905.76 4.74002 -3.45744 0
M  V30 40288 C 3908.11 4.91815 -3.97871 0
M  V30 40289 C 3906.77 5.05686 -4.35704 0
M  V30 40290 H 3906.04 0.730912 -0.121854 0
M  V30 40291 H 3908.69 1.6433 -0.983249 0
M  V30 40292 H 3906.99 3.90553 0.312342 0
M  V30 40293 H 3908.69 4.00947 -0.064941 0
M  V30 40294 H 3905.28 4.01547 -1.49859 0
M  V30 40295 H 3909.46 4.32853 -2.428 0
M  V30 40296 H 3904.72 4.82928 -3.74954 0
M  V30 40297 H 3908.89 5.15584 -4.6813 0
M  V30 40298 H 3906.52 5.40332 -5.34739 0
M  V30 40299 N 3908.1 0.520003 1.48774 0
M  V30 40300 C 3909.37 -0.0816358 1.9543 0
M  V30 40301 C 3909.75 -1.52277 1.46202 0
M  V30 40302 O 3909.1 -2.18019 0.684095 0
M  V30 40303 C 3909.31 0.0253085 3.48991 0
M  V30 40304 C 3910.66 -0.139024 4.24372 0
M  V30 40305 O 3911.68 -0.0489696 3.56166 0
M  V30 40306 O 3910.54 -0.32633 5.45525 0
M  V30 40307 H 3907.64 -0.0848233 0.822638 0
M  V30 40308 H 3910.18 0.583893 1.59339 0
M  V30 40309 H 3908.95 1.02958 3.77512 0
M  V30 40310 H 3908.58 -0.679519 3.9175 0
M  V30 40311 N 3909.57 -1.55529 0.254676 0
M  V30 40312 C 3910.8 -2.03986 -0.374759 0
M  V30 40313 C 3911.22 -1.13251 -1.50186 0
M  V30 40314 O 3910.58 -0.126995 -1.80855 0
M  V30 40315 C 3910.63 -3.50376 -0.852573 0
M  V30 40316 O 3909.73 -3.62763 -1.96154 0
M  V30 40317 H 3909.08 -0.65909 -0.0806041 0
M  V30 40318 H 3911.61 -2.00983 0.383005 0
M  V30 40319 H 3911.62 -3.91347 -1.15375 0
M  V30 40320 H 3910.29 -4.15891 -0.0278313 0
M  V30 40321 H 3908.87 -3.33691 -1.66447 0
M  V30 40322 N 3911.05 0.0183372 -1.57589 0
M  V30 40323 C 3912.28 0.718457 -1.94025 0
M  V30 40324 C 3912.7 1.68314 -0.85532 0
M  V30 40325 O 3912.05 1.81731 0.167371 0
M  V30 40326 C 3912.1 1.46625 -3.30429 0
M  V30 40327 O 3911.82 0.540268 -4.34756 0
M  V30 40328 C 3913.33 2.26255 -3.81213 0
M  V30 40329 H 3910.55 0.201263 -0.640105 0
M  V30 40330 H 3913.09 -0.0273295 -2.04482 0
M  V30 40331 H 3911.24 2.16382 -3.21337 0
M  V30 40332 H 3911.66 1.06584 -5.13556 0
M  V30 40333 H 3913.13 2.74103 -4.79136 0
M  V30 40334 H 3913.61 3.08141 -3.12963 0
M  V30 40335 H 3914.22 1.61551 -3.93423 0
M  V30 40336 N 3912.53 1.54894 0.290797 0
M  V30 40337 C 3913.78 1.74918 1.02623 0
M  V30 40338 C 3914.11 0.538954 1.86572 0
M  V30 40339 O 3913.38 -0.463811 1.88889 0
M  V30 40340 C 3913.67 3.0441 1.92371 0
M  V30 40341 C 3913.52 4.35752 1.11535 0
M  V30 40342 C 3914.84 3.29829 2.91378 0
M  V30 40343 H 3911.96 0.636418 0.371674 0
M  V30 40344 H 3914.6 1.87616 0.300039 0
M  V30 40345 H 3912.75 2.93715 2.5429 0
M  V30 40346 H 3914.42 4.5838 0.518232 0
M  V30 40347 H 3912.67 4.31778 0.41831 0
M  V30 40348 H 3913.34 5.22647 1.77607 0
M  V30 40349 H 3915.81 3.402 2.39589 0
M  V30 40350 H 3914.69 4.21733 3.5133 0
M  V30 40351 H 3914.95 2.48612 3.65574 0
M  V30 40352 N 3914.01 -0.55448 1.47524 0
M  V30 40353 C 3915.24 -1.33687 1.57909 0
M  V30 40354 C 3915.65 -1.8739 0.230277 0
M  V30 40355 O 3915.01 -1.65138 -0.776888 0
M  V30 40356 C 3915.06 -2.50488 2.60649 0
M  V30 40357 O 3914.78 -1.99004 3.90293 0
M  V30 40358 C 3916.28 -3.42661 2.81244 0
M  V30 40359 H 3913.5 -0.407426 0.533146 0
M  V30 40360 H 3916.05 -0.671411 1.93164 0
M  V30 40361 H 3914.2 -3.12967 2.2832 0
M  V30 40362 H 3914.61 -2.75277 4.46456 0
M  V30 40363 H 3916.09 -4.21027 3.56988 0
M  V30 40364 H 3916.57 -3.96375 1.89165 0
M  V30 40365 H 3917.17 -2.85996 3.1478 0
M  V30 40366 N 3915.49 -1.35701 -0.80143 0
M  V30 40367 C 3916.4 -1.31171 -1.94503 0
M  V30 40368 C 3917.41 -0.215777 -1.72657 0
M  V30 40369 O 3918.59 -0.446057 -1.96398 0
M  V30 40370 C 3915.65 -1.0884 -3.29173 0
M  V30 40371 C 3914.71 -2.27794 -3.63879 0
M  V30 40372 C 3913.95 -2.06519 -4.92123 0
M  V30 40373 O 3914.17 -1.03426 -5.60945 0
M  V30 40374 O 3913.1 -2.94007 -5.25208 0
M  V30 40375 H 3916.93 -2.27427 -2.01273 0
M  V30 40376 H 3914.52 -1.16126 -0.939959 0
M  V30 40377 H 3916.4 -0.982552 -4.09785 0
M  V30 40378 H 3915.07 -0.156383 -3.23322 0
M  V30 40379 H 3913.98 -2.43945 -2.83623 0
M  V30 40380 H 3915.31 -3.1946 -3.74441 0
M  V30 40381 N 3916.96 1.02419 -1.19783 0
M  V30 40382 C 3918.19 1.80049 -1.02942 0
M  V30 40383 C 3918.61 1.83417 0.417121 0
M  V30 40384 O 3917.97 1.26363 1.30008 0
M  V30 40385 C 3918.02 3.22734 -1.60858 0
M  V30 40386 O 3917.12 4.03732 -0.84107 0
M  V30 40387 H 3916.47 0.555634 -0.363547 0
M  V30 40388 H 3919 1.28875 -1.5891 0
M  V30 40389 H 3919.01 3.73468 -1.64272 0
M  V30 40390 H 3917.68 3.19597 -2.6614 0
M  V30 40391 H 3916.26 3.62355 -0.880546 0
M  V30 40392 N 3918.44 1.0025 1.21604 0
M  V30 40393 C 3919.72 0.599381 1.8619 0
M  V30 40394 C 3920.1 -0.923071 1.89849 0
M  V30 40395 O 3919.45 -1.80899 1.39598 0
M  V30 40396 C 3919.66 1.23088 3.26574 0
M  V30 40397 C 3921.01 1.33743 4.02986 0
M  V30 40398 O 3922.03 1.18601 3.35875 0
M  V30 40399 O 3920.89 1.58075 5.23139 0
M  V30 40400 H 3917.98 0.204958 0.8012 0
M  V30 40401 H 3920.53 1.09899 1.29307 0
M  V30 40402 H 3919.3 2.27181 3.18597 0
M  V30 40403 H 3918.92 0.717463 3.91073 0
M  V30 40404 N 3919.92 -1.37119 0.776919 0
M  V30 40405 C 3921.17 -1.9881 0.340244 0
M  V30 40406 C 3921.48 -1.62368 -1.09068 0
M  V30 40407 O 3922.69 -2.172 -1.629 0
M  V30 40408 C 3921.15 -3.55558 0.557387 0
M  V30 40409 C 3920.75 -4.00933 1.99891 0
M  V30 40410 C 3922.5 -4.24098 0.184594 0
M  V30 40411 C 3920.4 -5.50411 2.16338 0
M  V30 40412 H 3919.33 -0.743821 0.123473 0
M  V30 40413 H 3921.99 -1.56582 0.956781 0
M  V30 40414 H 3920.37 -3.95791 -0.128682 0
M  V30 40415 H 3921.54 -3.71932 2.72036 0
M  V30 40416 H 3919.86 -3.45191 2.32878 0
M  V30 40417 H 3922.45 -5.33935 0.285921 0
M  V30 40418 H 3922.8 -4.07198 -0.865788 0
M  V30 40419 H 3923.33 -3.89185 0.823412 0
M  V30 40420 H 3920.07 -5.72244 3.19713 0
M  V30 40421 H 3919.59 -5.8108 1.48683 0
M  V30 40422 H 3921.27 -6.16455 1.96448 0
M  V30 40423 N 3921.4 -0.527886 -1.48496 0
M  V30 40424 C 3922.82 -0.185601 -1.58517 0
M  V30 40425 C 3923.02 1.31107 -1.53014 0
M  V30 40426 O 3922.07 2.08916 -1.41811 0
M  V30 40427 C 3923.38 -0.78627 -2.90238 0
M  V30 40428 C 3924.93 -0.754813 -3.03762 0
M  V30 40429 C 3925.41 -1.33402 -4.38141 0
M  V30 40430 N 3926.9 -1.2959 -4.44703 0
M  V30 40431 C 3927.63 -1.71398 -5.47184 0
M  V30 40432 N 3927.13 -2.20925 -6.56631 0
M  V30 40433 N 3928.92 -1.62648 -5.38054 0
M  V30 40434 H 3921.07 -1.50063 -1.50316 0
M  V30 40435 H 3923.34 -0.624066 -0.713614 0
M  V30 40436 H 3923.04 -1.83696 -2.99915 0
M  V30 40437 H 3922.92 -0.26215 -3.76288 0
M  V30 40438 H 3925.3 0.287105 -2.937 0
M  V30 40439 H 3925.38 -1.31638 -2.19329 0
M  V30 40440 H 3925.03 -2.37486 -4.48958 0
M  V30 40441 H 3924.96 -0.748155 -5.21258 0
M  V30 40442 H 3927.45 -0.93331 -3.66194 0
M  V30 40443 H 3927.76 -2.50826 -7.30962 0
M  V30 40444 H 3926.11 -2.24917 -6.576 0
M  V30 40445 H 3929.3 -1.23754 -4.51445 0
M  V30 40446 H 3929.47 -1.95551 -6.17789 0
M  V30 40447 N 3922.88 1.55391 -0.26292 0
M  V30 40448 C 3924.11 2.03726 0.361021 0
M  V30 40449 C 3924.52 1.1417 1.50368 0
M  V30 40450 O 3923.88 0.159316 1.81803 0
M  V30 40451 C 3923.93 3.51277 0.853636 0
M  V30 40452 O 3923.65 4.37423 -0.243508 0
M  V30 40453 C 3925.15 4.15444 1.54664 0
M  V30 40454 H 3922.37 0.665732 0.0839155 0
M  V30 40455 H 3924.91 2.00718 -0.391459 0
M  V30 40456 H 3923.07 3.54767 1.55624 0
M  V30 40457 H 3923.48 5.24331 0.133149 0
M  V30 40458 H 3924.96 5.20329 1.84287 0
M  V30 40459 H 3925.43 3.62887 2.47407 0
M  V30 40460 H 3926.04 4.15922 0.888196 0
M  V30 40461 N 3924.36 -0.00997961 1.57597 0
M  V30 40462 C 3925.27 -1.02113 2.11211 0
M  V30 40463 C 3926.28 -1.38364 1.05505 0
M  V30 40464 O 3927.46 -1.47298 1.3735 0
M  V30 40465 C 3924.52 -2.29736 2.59658 0
M  V30 40466 C 3923.58 -1.9989 3.79925 0
M  V30 40467 C 3922.82 -3.21428 4.26052 0
M  V30 40468 O 3923.04 -4.32769 3.71574 0
M  V30 40469 O 3921.97 -3.06009 5.18307 0
M  V30 40470 H 3925.8 -0.595416 2.97806 0
M  V30 40471 H 3923.38 -0.228182 1.47647 0
M  V30 40472 H 3925.27 -3.0473 2.91063 0
M  V30 40473 H 3923.94 -2.71565 1.76165 0
M  V30 40474 H 3922.85 -1.22403 3.53509 0
M  V30 40475 H 3924.18 -1.62904 4.6446 0
M  V30 40476 N 3925.83 -1.55046 -0.282578 0
M  V30 40477 C 3926.74 -1.90351 -1.37126 0
M  V30 40478 C 3927.76 -0.799666 -1.54536 0
M  V30 40479 O 3928.94 -1.09785 -1.68847 0
M  V30 40480 C 3926 -2.1598 -2.71207 0
M  V30 40481 C 3925.06 -3.39597 -2.62626 0
M  V30 40482 C 3924.29 -3.63994 -3.90313 0
M  V30 40483 O 3924.52 -2.91069 -4.90546 0
M  V30 40484 O 3923.45 -4.57525 -3.91094 0
M  V30 40485 H 3927.28 -2.83007 -1.10184 0
M  V30 40486 H 3924.86 -1.4147 -0.480268 0
M  V30 40487 H 3926.74 -2.33932 -3.50505 0
M  V30 40488 H 3925.42 -1.26508 -2.97955 0
M  V30 40489 H 3924.33 -3.2699 -1.81737 0
M  V30 40490 H 3925.66 -4.29258 -2.40829 0
M  V30 40491 N 3927.31 0.546649 -1.47816 0
M  V30 40492 C 3928.27 1.63492 -1.60633 0
M  V30 40493 C 3929.27 1.53447 -0.480688 0
M  V30 40494 O 3930.46 1.57416 -0.746045 0
M  V30 40495 C 3927.6 3.0307 -1.56081 0
M  V30 40496 H 3928.79 1.53474 -2.57655 0
M  V30 40497 H 3926.34 0.767409 -1.36164 0
M  V30 40498 H 3927.08 3.18611 -0.60475 0
M  V30 40499 H 3926.86 3.1177 -2.37785 0
M  V30 40500 H 3928.35 3.82224 -1.6821 0
M  V30 40501 N 3928.79 1.36124 0.794222 0
M  V30 40502 C 3930.04 1.29419 1.54705 0
M  V30 40503 C 3930.35 -0.125815 1.95195 0
M  V30 40504 O 3931.56 -0.315224 2.69664 0
M  V30 40505 C 3930.01 2.27039 2.79252 0
M  V30 40506 C 3929.62 3.74449 2.4595 0
M  V30 40507 C 3931.37 2.293 3.57242 0
M  V30 40508 C 3929.27 4.63859 3.66863 0
M  V30 40509 H 3928.2 0.480898 0.580735 0
M  V30 40510 H 3930.85 1.6146 0.871947 0
M  V30 40511 H 3929.24 1.87985 3.48537 0
M  V30 40512 H 3930.41 4.22211 1.84593 0
M  V30 40513 H 3928.72 3.74917 1.81181 0
M  V30 40514 H 3931.32 2.93311 4.47071 0
M  V30 40515 H 3931.66 1.30018 3.95476 0
M  V30 40516 H 3932.2 2.66946 2.94931 0
M  V30 40517 H 3928.94 5.64186 3.33729 0
M  V30 40518 H 3928.46 4.20817 4.27403 0
M  V30 40519 H 3930.14 4.79894 4.33948 0
M  V30 40520 N 3930.27 -1.01782 1.20325 0
M  V30 40521 C 3931.5 -1.78705 1.03674 0
M  V30 40522 C 3931.91 -1.84544 -0.417156 0
M  V30 40523 O 3931.25 -1.29647 -1.30144 0
M  V30 40524 C 3931.31 -3.24691 1.54324 0
M  V30 40525 C 3930.97 -3.42461 3.02604 0
M  V30 40526 C 3931.97 -3.3178 4.00273 0
M  V30 40527 C 3929.66 -3.68317 3.41537 0
M  V30 40528 C 3931.65 -3.46698 5.34864 0
M  V30 40529 C 3929.34 -3.82879 4.76284 0
M  V30 40530 C 3930.34 -3.72073 5.72757 0
M  V30 40531 O 3930.02 -3.86191 7.05062 0
M  V30 40532 H 3929.76 -0.568873 0.365184 0
M  V30 40533 H 3932.31 -1.29011 1.59829 0
M  V30 40534 H 3930.54 -3.75461 0.92554 0
M  V30 40535 H 3932.23 -3.83244 1.33712 0
M  V30 40536 H 3932.99 -3.11743 3.71539 0
M  V30 40537 H 3928.87 -3.75816 2.6699 0
M  V30 40538 H 3932.42 -3.3818 6.10148 0
M  V30 40539 H 3928.31 -4.02417 5.04709 0
M  V30 40540 H 3929.08 -4.03216 7.12291 0
M  V30 40541 N 3931.75 -1.00894 -1.21071 0
M  V30 40542 C 3932.68 -0.53088 -2.22967 0
M  V30 40543 C 3933.69 0.382637 -1.58239 0
M  V30 40544 O 3934.88 0.182206 -1.77568 0
M  V30 40545 C 3931.98 0.248037 -3.37991 0
M  V30 40546 C 3931.15 -0.665515 -4.32307 0
M  V30 40547 C 3930.21 0.0644806 -5.2616 0
M  V30 40548 O 3929.24 -0.555483 -5.66483 0
M  V30 40549 N 3930.44 1.3418 -5.6478 0
M  V30 40550 H 3933.2 -1.40715 -2.64612 0
M  V30 40551 H 3930.77 -0.885551 -1.35534 0
M  V30 40552 H 3932.76 0.745443 -3.97775 0
M  V30 40553 H 3931.33 1.02553 -2.95299 0
M  V30 40554 H 3930.55 -1.34335 -3.70604 0
M  V30 40555 H 3931.84 -1.2871 -4.92251 0
M  V30 40556 H 3931.23 1.86655 -5.34019 0
M  V30 40557 H 3929.79 1.78408 -6.26908 0
M  V30 40558 N 3933.22 1.36705 -0.78418 0
M  V30 40559 C 3934.46 2.01214 -0.359503 0
M  V30 40560 C 3934.83 1.60895 1.0477 0
M  V30 40561 O 3936.03 2.17956 1.57317 0
M  V30 40562 C 3934.3 3.53711 -0.512179 0
M  V30 40563 S 3935.86 4.38452 -0.174605 0
M  V30 40564 H 3932.68 0.697552 -0.13763 0
M  V30 40565 H 3935.28 1.66689 -1.02152 0
M  V30 40566 H 3933.98 3.80542 -1.53674 0
M  V30 40567 H 3933.51 3.9305 0.165958 0
M  V30 40568 H 3935.53 4.85485 1.02563 0
M  V30 40569 N 3934.7 0.535753 1.48214 0
M  V30 40570 C 3935.94 0.00584242 2.04399 0
M  V30 40571 C 3936.31 -1.31035 1.40335 0
M  V30 40572 O 3937.51 -1.92665 1.8744 0
M  V30 40573 C 3935.78 -0.10771 3.57238 0
M  V30 40574 S 3937.34 -0.58685 4.34858 0
M  V30 40575 H 3934.16 0.0148292 0.710845 0
M  V30 40576 H 3936.76 0.717624 1.81853 0
M  V30 40577 H 3935.46 0.854951 4.01396 0
M  V30 40578 H 3934.99 -0.843696 3.84246 0
M  V30 40579 H 3937.01 -1.85037 4.60408 0
M  V30 40580 N 3936.18 -1.5525 0.271158 0
M  V30 40581 C 3937.46 -1.91501 -0.398341 0
M  V30 40582 C 3937.84 -1.19494 -1.74024 0
M  V30 40583 O 3937.19 -0.320465 -2.26242 0
M  V30 40584 C 3937.4 -3.44757 -0.542529 0
M  V30 40585 C 3938.74 -4.16463 -0.827253 0
M  V30 40586 O 3939.77 -3.5063 -0.627486 0
M  V30 40587 O 3938.63 -5.32957 -1.20907 0
M  V30 40588 H 3935.72 -0.797896 -0.217465 0
M  V30 40589 H 3938.27 -1.66713 0.317018 0
M  V30 40590 H 3937.04 -3.8923 0.401995 0
M  V30 40591 H 3936.66 -3.75486 -1.30751 0
M  V30 40592 N 3937.66 0.00162173 -1.576 0
M  V30 40593 C 3938.59 0.992517 -2.11356 0
M  V30 40594 C 3939.57 1.35951 -1.02232 0
M  V30 40595 O 3940.75 1.44354 -1.29906 0
M  V30 40596 C 3937.88 2.28489 -2.61553 0
M  V30 40597 C 3936.84 2.05956 -3.75188 0
M  V30 40598 C 3936.16 3.41192 -4.11694 0
M  V30 40599 C 3937.46 1.42346 -5.02528 0
M  V30 40600 H 3939.16 0.544934 -2.94399 0
M  V30 40601 H 3936.7 0.260677 -1.41621 0
M  V30 40602 H 3938.66 2.98163 -2.97787 0
M  V30 40603 H 3937.38 2.75358 -1.75629 0
M  V30 40604 H 3936.04 1.38708 -3.39346 0
M  V30 40605 H 3935.69 3.85761 -3.22796 0
M  V30 40606 H 3935.39 3.26932 -4.88251 0
M  V30 40607 H 3936.91 4.12184 -4.50485 0
M  V30 40608 H 3938.33 2.01974 -5.36544 0
M  V30 40609 H 3936.72 1.38579 -5.8388 0
M  V30 40610 H 3937.79 0.39248 -4.83309 0
M  V30 40611 N 3939.14 1.55194 0.274352 0
M  V30 40612 C 3940.41 1.66449 1.02733 0
M  V30 40613 C 3940.79 0.530087 2.04336 0
M  V30 40614 O 3940.14 -0.470019 2.23614 0
M  V30 40615 C 3940.35 3.05609 1.68535 0
M  V30 40616 C 3941.7 3.63313 2.19747 0
M  V30 40617 O 3942.72 3.08233 1.78524 0
M  V30 40618 O 3941.58 4.59812 2.95356 0
M  V30 40619 H 3938.68 0.675961 0.476451 0
M  V30 40620 H 3941.22 1.67533 0.270317 0
M  V30 40621 H 3939.99 3.79617 0.949019 0
M  V30 40622 H 3939.62 3.08418 2.50926 0
M  V30 40623 N 3940.61 -0.538802 1.48104 0
M  V30 40624 C 3942.03 -1.12082 1.49313 0
M  V30 40625 C 3942.38 -1.94496 0.257999 0
M  V30 40626 O 3941.5 -2.06855 -0.635618 0
M  V30 40627 C 3942.1 -2.03934 2.70548 0
M  V30 40628 C 3940.66 -2.57371 2.74658 0
M  V30 40629 C 3939.8 -1.3414 2.42697 0
M  V30 40630 H 3942.75 -0.324485 1.55347 0
M  V30 40631 H 3942.77 -2.8809 2.48565 0
M  V30 40632 H 3942.29 -1.43924 3.60427 0
M  V30 40633 H 3940.39 -3.21127 1.88966 0
M  V30 40634 H 3940.5 -2.97107 3.75851 0
M  V30 40635 H 3938.86 -1.65426 1.93666 0
M  V30 40636 H 3939.65 -0.75895 3.34806 0
M  V30 40637 N 3942.09 -1.36544 -0.786992 0
M  V30 40638 C 3943.02 -1.26934 -1.90841 0
M  V30 40639 C 3944.04 -0.188322 -1.61707 0
M  V30 40640 O 3945.23 -0.443235 -1.72909 0
M  V30 40641 C 3942.33 -0.936362 -3.25708 0
M  V30 40642 C 3941.5 -2.11976 -3.82603 0
M  V30 40643 C 3940.56 -1.75945 -4.95913 0
M  V30 40644 O 3939.58 -2.48062 -5.12302 0
M  V30 40645 N 3940.79 -0.694562 -5.7633 0
M  V30 40646 H 3943.55 -2.23556 -1.99606 0
M  V30 40647 H 3941.11 -1.29969 -0.965378 0
M  V30 40648 H 3943.1 -0.676448 -3.99007 0
M  V30 40649 H 3941.67 -0.0591913 -3.12544 0
M  V30 40650 H 3940.89 -2.54233 -3.01263 0
M  V30 40651 H 3942.18 -2.91031 -4.17347 0
M  V30 40652 H 3941.58 -0.095804 -5.65619 0
M  V30 40653 H 3940.14 -0.494477 -6.49922 0
M  V30 40654 N 3943.57 1.01143 -1.20863 0
M  V30 40655 C 3944.53 2.07952 -0.963778 0
M  V30 40656 C 3945.53 1.60678 0.062708 0
M  V30 40657 O 3946.72 1.7333 -0.173897 0
M  V30 40658 C 3943.86 3.3789 -0.452037 0
M  V30 40659 H 3945.05 2.31107 -1.91127 0
M  V30 40660 H 3942.6 1.18022 -1.02472 0
M  V30 40661 H 3943.34 3.20412 0.500678 0
M  V30 40662 H 3943.12 3.7353 -1.19237 0
M  V30 40663 H 3944.61 4.16518 -0.300382 0
M  V30 40664 N 3945.05 1.01535 1.20534 0
M  V30 40665 C 3946.46 0.729982 1.41928 0
M  V30 40666 C 3946.66 -0.690846 1.89287 0
M  V30 40667 O 3945.72 -1.45878 2.06097 0
M  V30 40668 C 3947.03 1.75463 2.44199 0
M  V30 40669 C 3948.58 1.77262 2.57967 0
M  V30 40670 C 3949.06 2.78649 3.63481 0
M  V30 40671 N 3950.55 2.77382 3.70963 0
M  V30 40672 C 3951.28 3.52489 4.5226 0
M  V30 40673 N 3950.78 4.37268 5.37372 0
M  V30 40674 N 3952.57 3.41091 4.46781 0
M  V30 40675 H 3944.72 1.93263 0.881082 0
M  V30 40676 H 3946.99 0.834774 0.449285 0
M  V30 40677 H 3946.69 2.77247 2.16396 0
M  V30 40678 H 3946.57 1.56574 3.43168 0
M  V30 40679 H 3948.95 0.761636 2.85102 0
M  V30 40680 H 3949.03 2.00224 1.59198 0
M  V30 40681 H 3948.68 3.79911 3.37091 0
M  V30 40682 H 3948.61 2.5295 4.6187 0
M  V30 40683 H 3951.1 2.15882 3.10167 0
M  V30 40684 H 3951.41 4.91349 5.96486 0
M  V30 40685 H 3949.76 4.41347 5.36878 0
M  V30 40686 H 3952.95 2.74282 3.79324 0
M  V30 40687 H 3953.12 3.99879 5.09903 0
M  V30 40688 N 3946.53 -1.36288 0.791419 0
M  V30 40689 C 3947.77 -1.99483 0.365277 0
M  V30 40690 C 3948.11 -1.62665 -1.06084 0
M  V30 40691 O 3947.38 -0.882427 -1.73331 0
M  V30 40692 C 3947.66 -3.56158 0.531379 0
M  V30 40693 C 3947.52 -4.02823 2.00133 0
M  V30 40694 C 3948.84 -4.40069 -0.0523475 0
M  V30 40695 H 3945.95 -0.72468 0.134196 0
M  V30 40696 H 3948.6 -1.6167 0.998131 0
M  V30 40697 H 3946.75 -3.88499 -0.00736101 0
M  V30 40698 H 3948.42 -3.8096 2.60129 0
M  V30 40699 H 3946.66 -3.5429 2.50322 0
M  V30 40700 H 3947.33 -5.11778 2.06851 0
M  V30 40701 H 3949.81 -4.14099 0.407562 0
M  V30 40702 H 3948.68 -5.4882 0.0938863 0
M  V30 40703 H 3948.95 -4.27025 -1.14465 0
M  V30 40704 N 3948.01 -0.543606 -1.47928 0
M  V30 40705 C 3948.97 0.201067 -2.28316 0
M  V30 40706 C 3949.97 0.855289 -1.36167 0
M  V30 40707 O 3951.16 0.713242 -1.58929 0
M  V30 40708 C 3948.29 1.2924 -3.15452 0
M  V30 40709 H 3949.48 -0.5049 -2.95619 0
M  V30 40710 H 3947.04 -0.300038 -1.53393 0
M  V30 40711 H 3947.77 2.03119 -2.5281 0
M  V30 40712 H 3947.56 0.828253 -3.83252 0
M  V30 40713 H 3949.05 1.81581 -3.76056 0
M  V30 40714 N 3949.48 1.55104 -0.279387 0
M  V30 40715 C 3950.73 1.98868 0.336831 0
M  V30 40716 C 3951.05 1.17127 1.56654 0
M  V30 40717 O 3952.25 1.51055 2.25598 0
M  V30 40718 C 3950.71 3.5397 0.650636 0
M  V30 40719 C 3950.32 4.44492 -0.559511 0
M  V30 40720 C 3952.06 4.06313 1.22924 0
M  V30 40721 C 3949.97 5.9099 -0.220056 0
M  V30 40722 H 3948.9 0.742773 0.12963 0
M  V30 40723 H 3951.55 1.79422 -0.384709 0
M  V30 40724 H 3949.93 3.69233 1.43119 0
M  V30 40725 H 3951.1 4.40999 -1.33628 0
M  V30 40726 H 3949.42 4.02807 -1.05526 0
M  V30 40727 H 3952.02 5.13314 1.4971 0
M  V30 40728 H 3952.36 3.55604 2.16452 0
M  V30 40729 H 3952.89 3.94506 0.51088 0
M  V30 40730 H 3949.63 6.45803 -1.12332 0
M  V30 40731 H 3949.15 5.97543 0.519866 0
M  V30 40732 H 3950.83 6.46732 0.186194 0
M  V30 40733 N 3950.96 0.0067362 1.57599 0
M  V30 40734 C 3951.91 -0.982496 2.08844 0
M  V30 40735 C 3952.88 -1.33715 0.985362 0
M  V30 40736 O 3954.06 -1.43436 1.25821 0
M  V30 40737 C 3951.2 -2.26703 2.60192 0
M  V30 40738 C 3950.32 -1.97081 3.84426 0
M  V30 40739 C 3949.45 -3.19665 4.2425 0
M  V30 40740 C 3948.49 -2.85759 5.41302 0
M  V30 40741 N 3947.63 -4.009 5.76388 0
M  V30 40742 H 3952.47 -0.538567 2.93093 0
M  V30 40743 H 3950 -0.254267 1.44886 0
M  V30 40744 H 3951.96 -3.01806 2.88044 0
M  V30 40745 H 3950.59 -2.68753 1.78807 0
M  V30 40746 H 3949.64 -1.12316 3.63441 0
M  V30 40747 H 3950.96 -1.68094 4.69623 0
M  V30 40748 H 3950.11 -4.03107 4.5342 0
M  V30 40749 H 3948.85 -3.51794 3.37775 0
M  V30 40750 H 3947.85 -2.00725 5.11849 0
M  V30 40751 H 3949.08 -2.5487 6.29459 0
M  V30 40752 H 3947.03 -4.32914 4.92871 0
M  V30 40753 H 3946.94 -3.75461 6.56174 0
M  V30 40754 H 3948.21 -4.85112 6.10153 0
M  V30 40755 N 3952.44 -1.55337 -0.266118 0
M  V30 40756 C 3953.66 -1.80634 -1.01911 0
M  V30 40757 C 3954.09 -0.581203 -1.78896 0
M  V30 40758 O 3953.45 0.469368 -1.75119 0
M  V30 40759 C 3953.5 -3.03459 -1.94795 0
M  V30 40760 O 3952.6 -2.79027 -3.03673 0
M  V30 40761 H 3951.94 -0.596833 -0.291009 0
M  V30 40762 H 3954.47 -2.02492 -0.292937 0
M  V30 40763 H 3954.48 -3.32378 -2.3662 0
M  V30 40764 H 3953.16 -3.92276 -1.38175 0
M  V30 40765 H 3951.73 -2.61224 -2.66113 0
M  V30 40766 N 3953.92 0.53094 -1.48387 0
M  V30 40767 C 3954.85 1.64483 -1.65733 0
M  V30 40768 C 3955.83 1.62393 -0.506226 0
M  V30 40769 O 3957.01 1.79604 -0.738655 0
M  V30 40770 C 3954.14 3.03073 -1.69599 0
M  V30 40771 C 3953.1 3.20022 -2.84201 0
M  V30 40772 C 3952.42 4.59663 -2.73156 0
M  V30 40773 C 3953.72 3.02885 -4.25509 0
M  V30 40774 H 3955.42 1.50222 -2.58986 0
M  V30 40775 H 3952.96 0.721265 -1.24635 0
M  V30 40776 H 3954.92 3.8087 -1.80323 0
M  V30 40777 H 3953.64 3.18354 -0.729249 0
M  V30 40778 H 3952.3 2.44642 -2.73031 0
M  V30 40779 H 3951.95 4.71779 -1.74453 0
M  V30 40780 H 3951.65 4.71948 -3.50055 0
M  V30 40781 H 3953.17 5.3956 -2.85845 0
M  V30 40782 H 3954.59 3.70475 -4.37517 0
M  V30 40783 H 3952.98 3.26664 -5.03399 0
M  V30 40784 H 3954.05 1.99321 -4.4204 0
M  V30 40785 N 3955.4 1.36959 0.779739 0
M  V30 40786 C 3956.62 1.34902 1.56873 0
M  V30 40787 C 3957.04 -0.0675013 1.88679 0
M  V30 40788 O 3956.4 -1.0271 1.50854 0
M  V30 40789 C 3956.45 2.1798 2.88387 0
M  V30 40790 O 3956.17 3.54111 2.57947 0
M  V30 40791 C 3957.67 2.23812 3.82653 0
M  V30 40792 H 3954.89 0.462383 0.486254 0
M  V30 40793 H 3957.43 1.8019 0.96704 0
M  V30 40794 H 3955.59 1.76221 3.45 0
M  V30 40795 H 3956 3.9757 3.42108 0
M  V30 40796 H 3957.48 2.8628 4.71962 0
M  V30 40797 H 3957.95 1.24428 4.21206 0
M  V30 40798 H 3958.56 2.65848 3.31971 0
M  V30 40799 N 3956.87 -1.00501 1.21398 0
M  V30 40800 C 3957.78 -2.12722 0.989258 0
M  V30 40801 C 3958.8 -1.73901 -0.0586341 0
M  V30 40802 O 3959.98 -2.00971 0.131412 0
M  V30 40803 C 3957.04 -3.422 0.556791 0
M  V30 40804 C 3956.1 -3.95195 1.6769 0
M  V30 40805 C 3955.33 -5.18492 1.26497 0
M  V30 40806 O 3955.56 -5.70232 0.13857 0
M  V30 40807 O 3954.49 -5.64933 2.07688 0
M  V30 40808 H 3958.32 -2.34557 1.92917 0
M  V30 40809 H 3955.9 -1.111 0.998857 0
M  V30 40810 H 3957.78 -4.20142 0.325401 0
M  V30 40811 H 3956.46 -3.21754 -0.3544 0
M  V30 40812 H 3955.37 -3.1848 1.96269 0
M  V30 40813 H 3956.7 -4.2005 2.56551 0
M  V30 40814 N 3958.35 -1.02172 -1.19994 0
M  V30 40815 C 3959.77 -0.737498 -1.41538 0
M  V30 40816 C 3959.97 0.680798 -1.89651 0
M  V30 40817 O 3959.02 1.44783 -2.06867 0
M  V30 40818 C 3960.34 -1.76755 -2.43265 0
M  V30 40819 C 3961.88 -1.78628 -2.57024 0
M  V30 40820 C 3962.36 -2.80573 -3.61998 0
M  V30 40821 N 3963.85 -2.79345 -3.69487 0
M  V30 40822 C 3964.59 -3.54882 -4.50385 0
M  V30 40823 N 3964.08 -4.40112 -5.35045 0
M  V30 40824 N 3965.87 -3.43456 -4.44966 0
M  V30 40825 H 3958.03 -1.93728 -0.870821 0
M  V30 40826 H 3960.29 -0.837145 -0.444851 0
M  V30 40827 H 3959.99 -2.7839 -2.14922 0
M  V30 40828 H 3959.87 -1.58392 -3.42333 0
M  V30 40829 H 3962.26 -0.776745 -2.84694 0
M  V30 40830 H 3962.34 -2.01065 -1.58134 0
M  V30 40831 H 3961.98 -3.81693 -3.35071 0
M  V30 40832 H 3961.91 -2.55396 -4.60522 0
M  V30 40833 H 3964.4 -2.17524 -3.09018 0
M  V30 40834 H 3964.71 -4.94505 -5.93872 0
M  V30 40835 H 3963.06 -4.44188 -5.3453 0
M  V30 40836 H 3966.25 -2.7629 -3.77864 0
M  V30 40837 H 3966.42 -4.02578 -5.07775 0
M  V30 40838 N 3959.83 1.35866 -0.798635 0
M  V30 40839 C 3960.76 2.32482 -0.217792 0
M  V30 40840 C 3961.74 1.57094 0.652347 0
M  V30 40841 O 3962.93 1.85203 0.584265 0
M  V30 40842 C 3960.06 3.41336 0.640865 0
M  V30 40843 C 3959.01 4.27802 -0.130129 0
M  V30 40844 C 3958.34 5.27905 0.849718 0
M  V30 40845 C 3959.64 5.05224 -1.3246 0
M  V30 40846 H 3961.33 2.81309 -1.02497 0
M  V30 40847 H 3958.88 1.35249 -0.494325 0
M  V30 40848 H 3960.83 4.07923 1.05722 0
M  V30 40849 H 3959.55 2.91099 1.48085 0
M  V30 40850 H 3958.21 3.62784 -0.527564 0
M  V30 40851 H 3957.86 4.73938 1.68498 0
M  V30 40852 H 3957.56 5.86626 0.33822 0
M  V30 40853 H 3959.08 5.97364 1.26444 0
M  V30 40854 H 3960.5 5.648 -0.983529 0
M  V30 40855 H 3958.89 5.73402 -1.77003 0
M  V30 40856 H 3959.96 4.36329 -2.1153 0
M  V30 40857 N 3961.31 0.551443 1.47638 0
M  V30 40858 C 3962.54 0.0298834 2.06578 0
M  V30 40859 C 3962.95 -1.26669 1.4054 0
M  V30 40860 O 3962.29 -1.76933 0.493988 0
M  V30 40861 C 3962.35 -0.242604 3.5868 0
M  V30 40862 C 3962.01 0.963676 4.46724 0
M  V30 40863 C 3963.01 1.86774 4.85192 0
M  V30 40864 C 3960.7 1.17672 4.88322 0
M  V30 40865 C 3962.69 2.96859 5.64051 0
M  V30 40866 C 3960.38 2.28068 5.66947 0
M  V30 40867 C 3961.38 3.17492 6.04721 0
M  V30 40868 O 3961.06 4.25974 6.81763 0
M  V30 40869 H 3960.8 0.0401746 0.674805 0
M  V30 40870 H 3963.35 0.762757 1.90712 0
M  V30 40871 H 3961.58 -1.02972 3.72738 0
M  V30 40872 H 3963.27 -0.708844 3.99663 0
M  V30 40873 H 3964.03 1.71518 4.53659 0
M  V30 40874 H 3959.91 0.489876 4.5839 0
M  V30 40875 H 3963.46 3.66685 5.93454 0
M  V30 40876 H 3959.35 2.433 5.97893 0
M  V30 40877 H 3960.12 4.23951 7.00149 0
M  V30 40878 N 3962.79 -1.54953 0.287609 0
M  V30 40879 C 3964.03 -2.00162 -0.326058 0
M  V30 40880 C 3964.37 -1.17576 -1.54562 0
M  V30 40881 O 3963.64 -0.248893 -1.92901 0
M  V30 40882 C 3963.92 -3.53312 -0.695912 0
M  V30 40883 C 3963.78 -4.46644 0.531861 0
M  V30 40884 C 3965.1 -4.12738 -1.52759 0
M  V30 40885 H 3962.21 -0.727648 -0.117038 0
M  V30 40886 H 3964.86 -1.85805 0.397042 0
M  V30 40887 H 3963.01 -3.65676 -1.31199 0
M  V30 40888 H 3964.68 -4.46206 1.1704 0
M  V30 40889 H 3962.92 -4.17791 1.16762 0
M  V30 40890 H 3963.59 -5.51524 0.229131 0
M  V30 40891 H 3966.07 -4.03727 -1.00717 0
M  V30 40892 H 3964.94 -5.20082 -1.75518 0
M  V30 40893 H 3965.21 -3.63759 -2.5126 0
M  V30 40894 N 3964.26 -0.0150939 -1.57593 0
M  V30 40895 C 3965.51 0.665249 -1.90837 0
M  V30 40896 C 3965.83 1.73468 -0.890724 0
M  V30 40897 O 3965.1 1.95776 0.0697769 0
M  V30 40898 H 3963.68 0.248708 -0.704381 0
M  V30 40899 H 3966.35 -0.0595863 -1.94809 0
M  V30 40900 H 3965.44 1.12692 -2.91044 0
M  V30 40901 N 3965.74 1.55476 0.257876 0
M  V30 40902 C 3966.99 1.76444 0.985488 0
M  V30 40903 C 3967.31 0.577066 1.86266 0
M  V30 40904 O 3966.58 -0.407549 1.91614 0
M  V30 40905 H 3965.16 0.650709 0.366861 0
M  V30 40906 H 3967.82 1.929 0.278464 0
M  V30 40907 H 3966.92 2.67149 1.61362 0
M  V30 40908 N 3967.22 -0.523064 1.48667 0
M  V30 40909 C 3968.63 -1.10492 1.50494 0
M  V30 40910 C 3968.98 -1.94212 0.278614 0
M  V30 40911 O 3968.11 -2.07517 -0.613643 0
M  V30 40912 C 3968.7 -2.01053 2.72696 0
M  V30 40913 C 3967.26 -2.54443 2.77373 0
M  V30 40914 C 3966.41 -1.31558 2.44106 0
M  V30 40915 H 3969.36 -0.30799 1.55683 0
M  V30 40916 H 3969.38 -2.85437 2.51606 0
M  V30 40917 H 3968.89 -1.40093 3.61933 0
M  V30 40918 H 3966.99 -3.19105 1.92361 0
M  V30 40919 H 3967.11 -2.93104 3.78981 0
M  V30 40920 H 3965.47 -1.63362 1.95409 0
M  V30 40921 H 3966.25 -0.723396 3.35592 0
M  V30 40922 N 3968.7 -1.37371 -0.772465 0
M  V30 40923 C 3969.63 -1.35775 -1.89967 0
M  V30 40924 C 3970.61 -0.226482 -1.68585 0
M  V30 40925 O 3971.79 -0.426725 -1.89454 0
M  V30 40926 C 3968.92 -1.16325 -3.2724 0
M  V30 40927 C 3967.88 -2.26456 -3.63183 0
M  V30 40928 C 3967.2 -1.9213 -4.98989 0
M  V30 40929 C 3968.5 -3.68636 -3.70006 0
M  V30 40930 H 3970.2 -2.30098 -1.9156 0
M  V30 40931 H 3967.74 -1.10761 -0.920222 0
M  V30 40932 H 3969.7 -1.13839 -4.05732 0
M  V30 40933 H 3968.42 -0.18457 -3.26078 0
M  V30 40934 H 3967.08 -2.28097 -2.86997 0
M  V30 40935 H 3966.73 -0.927935 -4.94367 0
M  V30 40936 H 3966.43 -2.65876 -5.24007 0
M  V30 40937 H 3967.95 -1.9123 -5.79882 0
M  V30 40938 H 3969.37 -3.69129 -4.38653 0
M  V30 40939 H 3967.76 -4.4143 -4.06521 0
M  V30 40940 H 3968.83 -4.02314 -2.70687 0
M  V30 40941 N 3970.18 0.998553 -1.21929 0
M  V30 40942 C 3971.4 1.7729 -1.06658 0
M  V30 40943 C 3971.82 1.8487 0.383227 0
M  V30 40944 O 3971.18 1.31475 1.26572 0
M  V30 40945 C 3971.23 3.20882 -1.66484 0
M  V30 40946 O 3970.95 3.13723 -3.05793 0
M  V30 40947 C 3972.45 4.14789 -1.56412 0
M  V30 40948 H 3969.67 0.556963 -0.374209 0
M  V30 40949 H 3972.21 1.25576 -1.61403 0
M  V30 40950 H 3970.37 3.69683 -1.15816 0
M  V30 40951 H 3970.78 4.03984 -3.3451 0
M  V30 40952 H 3972.26 5.13316 -2.03004 0
M  V30 40953 H 3972.73 4.36115 -0.519667 0
M  V30 40954 H 3973.34 3.71882 -2.06358 0
M  V30 40955 N 3971.65 1.02807 1.1945 0
M  V30 40956 C 3972.6 0.60169 2.24683 0
M  V30 40957 C 3973.6 -0.36529 1.65415 0
M  V30 40958 O 3974.8 -0.233956 1.78473 0
M  V30 40959 H 3971.18 0.176308 0.73104 0
M  V30 40960 H 3973.15 1.49989 2.57965 0
M  V30 40961 C 3971.9 -0.0324904 3.47685 0
M  V30 40962 H 3971.22 0.702601 3.93578 0
M  V30 40963 H 3972.66 -0.293785 4.22981 0
M  V30 40964 C 3971.12 -1.27881 3.11686 0
M  V30 40965 O 3971.65 -2.37096 3.24266 0
M  V30 40966 N 3969.86 -1.16727 2.66126 0
M  V30 40967 H 3969.4 -0.27855 2.5609 0
M  V30 40968 H 3969.36 -2.00211 2.42411 0
M  V30 40969 N 3973.13 -1.35441 0.805829 0
M  V30 40970 C 3974.36 -2.03561 0.397215 0
M  V30 40971 C 3974.78 -1.60332 -0.983637 0
M  V30 40972 O 3974.14 -0.779615 -1.63682 0
M  V30 40973 C 3974.19 -3.57284 0.487876 0
M  V30 40974 O 3973.29 -4.0937 -0.498967 0
M  V30 40975 H 3972.63 -0.64291 0.16602 0
M  V30 40976 H 3975.16 -1.73053 1.0915 0
M  V30 40977 H 3975.17 -4.06432 0.357405 0
M  V30 40978 H 3973.85 -3.88098 1.49508 0
M  V30 40979 H 3972.43 -3.71448 -0.328799 0
M  V30 40980 N 3974.61 -0.559265 -1.47343 0
M  V30 40981 C 3976.03 -0.219183 -1.58088 0
M  V30 40982 C 3976.23 1.27832 -1.55761 0
M  V30 40983 O 3975.28 2.05861 -1.4621 0
M  V30 40984 C 3976.6 -0.847657 -2.88505 0
M  V30 40985 C 3978.14 -0.819076 -3.02093 0
M  V30 40986 C 3978.62 -1.42666 -4.35213 0
M  V30 40987 N 3980.11 -1.38993 -4.41854 0
M  V30 40988 C 3980.84 -1.82966 -5.43425 0
M  V30 40989 N 3980.34 -2.34803 -6.51797 0
M  V30 40990 N 3982.13 -1.74024 -5.34483 0
M  V30 40991 H 3974.28 -1.53217 -1.47099 0
M  V30 40992 H 3976.55 -0.639063 -0.700216 0
M  V30 40993 H 3976.25 -1.90016 -2.95951 0
M  V30 40994 H 3976.13 -0.341907 -3.75647 0
M  V30 40995 H 3978.51 0.224742 -2.94243 0
M  V30 40996 H 3978.6 -1.3626 -2.16487 0
M  V30 40997 H 3978.24 -2.46955 -4.43819 0
M  V30 40998 H 3978.17 -0.858553 -5.19554 0
M  V30 40999 H 3980.66 -1.01078 -3.64131 0
M  V30 41000 H 3980.97 -2.66275 -7.25478 0
M  V30 41001 H 3979.32 -2.38815 -6.52681 0
M  V30 41002 H 3982.51 -1.33302 -4.48719 0
M  V30 41003 H 3982.68 -2.08611 -6.13503 0
M  V30 41004 N 3976.09 1.54799 -0.295822 0
M  V30 41005 C 3977.34 1.9964 0.314349 0
M  V30 41006 C 3977.66 1.18573 1.54808 0
M  V30 41007 O 3976.93 0.280387 1.93883 0
M  V30 41008 H 3975.51 0.737438 0.11914 0
M  V30 41009 H 3978.17 1.90625 -0.405954 0
M  V30 41010 H 3977.27 3.06473 0.589967 0
M  V30 41011 N 3977.57 0.0234513 1.57583 0
M  V30 41012 C 3978.48 -0.9761 2.13329 0
M  V30 41013 C 3979.49 -1.36095 1.08416 0
M  V30 41014 O 3980.67 -1.44352 1.40444 0
M  V30 41015 C 3977.73 -2.24176 2.64473 0
M  V30 41016 C 3976.8 -1.91786 3.84079 0
M  V30 41017 C 3976.03 -3.12318 4.32774 0
M  V30 41018 O 3976.25 -4.2479 3.8067 0
M  V30 41019 O 3975.19 -2.94946 5.24681 0
M  V30 41020 H 3979.01 -0.532113 2.99002 0
M  V30 41021 H 3976.6 -0.196812 1.48098 0
M  V30 41022 H 3978.48 -2.98487 2.97462 0
M  V30 41023 H 3977.15 -2.67767 1.81886 0
M  V30 41024 H 3976.06 -1.14877 3.56025 0
M  V30 41025 H 3977.39 -1.53015 4.67811 0
M  V30 41026 N 3979.05 -1.5561 -0.249627 0
M  V30 41027 C 3979.99 -1.90908 -1.32879 0
M  V30 41028 C 3980.99 -0.787858 -1.49964 0
M  V30 41029 O 3982.19 -0.972449 -1.51471 0
M  V30 41030 H 3978.57 -0.606277 -0.444896 0
M  V30 41031 H 3980.54 -2.81012 -1.00374 0
M  V30 41032 C 3979.29 -2.21788 -2.67778 0
M  V30 41033 H 3978.61 -3.07563 -2.55431 0
M  V30 41034 H 3980.05 -2.50391 -3.4217 0
M  V30 41035 C 3978.51 -1.0333 -3.20663 0
M  V30 41036 O 3979.04 -0.279892 -4.00724 0
M  V30 41037 N 3977.25 -0.824663 -2.78653 0
M  V30 41038 H 3976.79 -1.43903 -2.13658 0
M  V30 41039 H 3976.75 -0.0337453 -3.14382 0
M  V30 41040 N 3980.52 0.515172 -1.48942 0
M  V30 41041 C 3981.76 1.28049 -1.5932 0
M  V30 41042 C 3982.13 1.90127 -0.267523 0
M  V30 41043 O 3983.33 2.67668 -0.246385 0
M  V30 41044 C 3981.6 2.32967 -2.71037 0
M  V30 41045 S 3983.16 3.19027 -3.01276 0
M  V30 41046 H 3979.98 0.435368 -0.562117 0
M  V30 41047 H 3982.58 0.58522 -1.86535 0
M  V30 41048 H 3981.28 1.85867 -3.65898 0
M  V30 41049 H 3980.81 3.07182 -2.4577 0
M  V30 41050 H 3982.83 4.33349 -2.41709 0
M  V30 41051 N 3982 1.37779 0.765169 0
M  V30 41052 C 3983.25 1.33086 1.52094 0
M  V30 41053 C 3983.57 -0.0821758 1.94827 0
M  V30 41054 O 3982.84 -1.02754 1.66789 0
M  V30 41055 H 3981.42 0.489659 0.56413 0
M  V30 41056 H 3984.08 1.72337 0.910278 0
M  V30 41057 H 3983.18 1.9742 2.41727 0
M  V30 41058 N 3983.48 -0.992073 1.22457 0
M  V30 41059 C 3984.71 -1.76465 1.07441 0
M  V30 41060 C 3985.12 -1.85387 -0.377917 0
M  V30 41061 O 3984.46 -1.32378 -1.27364 0
M  V30 41062 C 3984.52 -3.21345 1.61177 0
M  V30 41063 C 3984.19 -3.35965 3.098 0
M  V30 41064 C 3985.18 -3.23215 4.0722 0
M  V30 41065 C 3982.87 -3.6099 3.49273 0
M  V30 41066 C 3984.86 -3.35274 5.42098 0
M  V30 41067 C 3982.55 -3.7269 4.84299 0
M  V30 41068 C 3983.55 -3.59841 5.8052 0
M  V30 41069 O 3983.24 -3.71149 7.13095 0
M  V30 41070 H 3982.97 -0.560999 0.377168 0
M  V30 41071 H 3985.52 -1.25592 1.62529 0
M  V30 41072 H 3983.75 -3.73413 1.00497 0
M  V30 41073 H 3985.44 -3.80322 1.41811 0
M  V30 41074 H 3986.21 -3.03792 3.78068 0
M  V30 41075 H 3982.09 -3.70068 2.74901 0
M  V30 41076 H 3985.63 -3.25161 6.17184 0
M  V30 41077 H 3981.53 -3.9162 5.13131 0
M  V30 41078 H 3982.29 -3.88016 7.20684 0
M  V30 41079 N 3984.96 -1.03439 -1.18904 0
M  V30 41080 C 3986.37 -0.752469 -1.40748 0
M  V30 41081 C 3986.57 0.660645 -1.90362 0
M  V30 41082 O 3985.63 1.42581 -2.08391 0
M  V30 41083 C 3986.94 -1.79325 -2.41377 0
M  V30 41084 C 3988.49 -1.81344 -2.55115 0
M  V30 41085 C 3988.97 -2.84397 -3.59002 0
M  V30 41086 N 3990.46 -2.83248 -3.66503 0
M  V30 41087 C 3991.19 -3.59639 -4.46595 0
M  V30 41088 N 3990.69 -4.45762 -5.30347 0
M  V30 41089 N 3992.48 -3.48156 -4.41298 0
M  V30 41090 H 3984.63 -1.94641 -0.850224 0
M  V30 41091 H 3986.89 -0.841816 -0.435947 0
M  V30 41092 H 3986.6 -2.80654 -2.11958 0
M  V30 41093 H 3986.47 -1.62014 -3.40634 0
M  V30 41094 H 3988.86 -0.806897 -2.83854 0
M  V30 41095 H 3988.94 -2.02731 -1.55993 0
M  V30 41096 H 3988.59 -3.85226 -3.31004 0
M  V30 41097 H 3988.52 -2.60266 -4.57787 0
M  V30 41098 H 3991.01 -2.20789 -3.06693 0
M  V30 41099 H 3991.32 -5.00776 -5.88594 0
M  V30 41100 H 3989.67 -4.49832 -5.29789 0
M  V30 41101 H 3992.86 -2.80282 -3.74913 0
M  V30 41102 H 3993.03 -4.07941 -5.03476 0
M  V30 41103 N 3986.44 1.35011 -0.813001 0
M  V30 41104 C 3987.85 1.51647 -0.497524 0
M  V30 41105 C 3988.05 1.76056 0.980131 0
M  V30 41106 O 3987.11 1.80571 1.76495 0
M  V30 41107 C 3988.42 2.6877 -1.34845 0
M  V30 41108 C 3989.97 2.8265 -1.34455 0
M  V30 41109 C 3990.44 4.02805 -2.17973 0
M  V30 41110 N 3991.93 4.09994 -2.15544 0
M  V30 41111 C 3992.67 5.02098 -2.76921 0
M  V30 41112 N 3992.17 5.99491 -3.47249 0
M  V30 41113 N 3993.96 4.94893 -2.66528 0
M  V30 41114 H 3986.11 1.17425 -1.76989 0
M  V30 41115 H 3988.37 0.57506 -0.753664 0
M  V30 41116 H 3988.08 2.57331 -2.39736 0
M  V30 41117 H 3987.95 3.63533 -1.00617 0
M  V30 41118 H 3990.34 2.93536 -0.30346 0
M  V30 41119 H 3990.42 1.88725 -1.72675 0
M  V30 41120 H 3990.06 3.92679 -3.22127 0
M  V30 41121 H 3989.99 4.95923 -1.7711 0
M  V30 41122 H 3992.49 3.40276 -1.64379 0
M  V30 41123 H 3992.8 6.6638 -3.91353 0
M  V30 41124 H 3991.14 5.99646 -3.51355 0
M  V30 41125 H 3994.33 4.17763 -2.11167 0
M  V30 41126 H 3994.51 5.6648 -3.14649 0
M  V30 41127 N 3987.91 0.567071 1.47044 0
M  V30 41128 C 3989.15 0.0491972 2.04341 0
M  V30 41129 C 3989.52 -1.28029 1.43083 0
M  V30 41130 O 3990.72 -1.88645 1.91485 0
M  V30 41131 C 3988.99 -0.0319104 3.57386 0
M  V30 41132 S 3990.55 -0.494478 4.36005 0
M  V30 41133 H 3987.37 0.0299039 0.710371 0
M  V30 41134 H 3989.97 0.756036 1.8029 0
M  V30 41135 H 3988.67 0.9399 3.99492 0
M  V30 41136 H 3988.2 -0.762002 3.8595 0
M  V30 41137 H 3990.22 -1.7523 4.64229 0
M  V30 41138 N 3989.39 -1.5464 0.304027 0
M  V30 41139 C 3990.81 -1.59524 -0.0492643 0
M  V30 41140 C 3991.01 -1.32095 -1.52161 0
M  V30 41141 O 3990.06 -1.09584 -2.27481 0
M  V30 41142 C 3991.38 -2.9864 0.351398 0
M  V30 41143 C 3992.92 -3.11555 0.300417 0
M  V30 41144 C 3993.4 -4.52985 0.675947 0
M  V30 41145 N 3994.89 -4.58915 0.628598 0
M  V30 41146 C 3995.63 -5.66426 0.891604 0
M  V30 41147 N 3995.12 -6.8196 1.22073 0
M  V30 41148 N 3996.91 -5.56109 0.818464 0
M  V30 41149 H 3989.07 -1.70729 1.26354 0
M  V30 41150 H 3991.33 -0.797545 0.512471 0
M  V30 41151 H 3991.03 -3.23645 1.37647 0
M  V30 41152 H 3990.91 -3.76057 -0.293437 0
M  V30 41153 H 3993.3 -2.86297 -0.715418 0
M  V30 41154 H 3993.38 -2.36286 0.979917 0
M  V30 41155 H 3993.02 -4.78973 1.6896 0
M  V30 41156 H 3992.95 -5.26594 -0.0256573 0
M  V30 41157 H 3995.44 -3.75931 0.38527 0
M  V30 41158 H 3995.75 -7.59878 1.40731 0
M  V30 41159 H 3994.1 -6.83505 1.2588 0
M  V30 41160 H 3997.29 -4.64727 0.560966 0
M  V30 41161 H 3997.46 -6.39813 1.0268 0
M  V30 41162 N 3990.87 -0.0318079 -1.57568 0
M  V30 41163 C 3991.83 0.934202 -2.09297 0
M  V30 41164 C 3992.83 1.25238 -1.00857 0
M  V30 41165 O 3994.02 1.19227 -1.27006 0
M  V30 41166 C 3991.15 2.24993 -2.56107 0
M  V30 41167 H 3992.35 0.486131 -2.95934 0
M  V30 41168 H 3989.9 0.216273 -1.54796 0
M  V30 41169 H 3990.64 2.74423 -1.72807 0
M  V30 41170 H 3990.42 2.0321 -3.35333 0
M  V30 41171 H 3991.91 2.94228 -2.96344 0
M  V30 41172 N 3992.35 1.55741 0.241371 0
M  V30 41173 C 3993.57 1.82233 0.990248 0
M  V30 41174 C 3994 0.60959 1.77948 0
M  V30 41175 O 3993.36 -0.441449 1.75843 0
M  V30 41176 C 3993.4 3.0652 1.89942 0
M  V30 41177 O 3992.51 2.83823 2.99196 0
M  V30 41178 H 3991.85 0.601387 0.281477 0
M  V30 41179 H 3994.38 2.02932 0.260686 0
M  V30 41180 H 3994.39 3.361 2.31303 0
M  V30 41181 H 3993.06 3.94424 1.31917 0
M  V30 41182 H 3991.64 2.65425 2.61924 0
M  V30 41183 N 3993.83 -0.507266 1.49213 0
M  V30 41184 C 3995.07 -1.25929 1.58071 0
M  V30 41185 C 3995.4 -1.9317 0.266495 0
M  V30 41186 O 3994.67 -1.82436 -0.713711 0
M  V30 41187 H 3993.25 -0.467791 0.582392 0
M  V30 41188 H 3995.91 -0.588437 1.85805 0
M  V30 41189 H 3995 -2.02656 2.37354 0
M  V30 41190 N 3995.3 -1.38182 -0.757851 0
M  V30 41191 C 3996.55 -1.34355 -1.5191 0
M  V30 41192 C 3996.88 0.0676662 -1.94082 0
M  V30 41193 O 3996.16 1.02796 -1.65116 0
M  V30 41194 C 3996.44 -2.29536 -2.77462 0
M  V30 41195 C 3996.29 -3.79499 -2.41455 0
M  V30 41196 C 3997.61 -2.22922 -3.79465 0
M  V30 41197 H 3994.73 -0.489365 -0.551082 0
M  V30 41198 H 3997.37 -1.68996 -0.868346 0
M  V30 41199 H 3995.52 -2.00125 -3.3299 0
M  V30 41200 H 3997.2 -4.19566 -1.91735 0
M  V30 41201 H 3995.44 -3.97388 -1.73969 0
M  V30 41202 H 3996.11 -4.41552 -3.31264 0
M  V30 41203 H 3998.59 -2.48876 -3.33466 0
M  V30 41204 H 3997.46 -2.91638 -4.65015 0
M  V30 41205 H 3997.72 -1.22665 -4.24742 0
M  V30 41206 N 3996.78 0.985565 -1.22981 0
M  V30 41207 C 3997.71 2.09517 -1.03077 0
M  V30 41208 C 3998.69 1.70025 0.0506726 0
M  V30 41209 O 3999.88 1.93871 -0.112972 0
M  V30 41210 C 3997.01 3.418 -0.615638 0
M  V30 41211 C 3995.96 3.95173 -1.64384 0
M  V30 41212 C 3995.29 5.2359 -1.08432 0
M  V30 41213 C 3996.59 4.25026 -3.03562 0
M  V30 41214 H 3998.28 2.26427 -1.95886 0
M  V30 41215 H 3995.83 1.08808 -0.943225 0
M  V30 41216 H 3997.78 4.18844 -0.463467 0
M  V30 41217 H 3996.51 3.24739 0.348128 0
M  V30 41218 H 3995.16 3.20269 -1.78391 0
M  V30 41219 H 3994.81 5.02876 -0.111685 0
M  V30 41220 H 3994.51 5.60267 -1.77128 0
M  V30 41221 H 3996.04 6.0326 -0.943886 0
M  V30 41222 H 3997.45 4.92839 -2.92886 0
M  V30 41223 H 3995.85 4.72892 -3.69449 0
M  V30 41224 H 3996.92 3.32505 -3.52943 0
M  V30 41225 N 3998.26 1.04068 1.18353 0
M  V30 41226 C 3999.49 0.764094 1.92274 0
M  V30 41227 C 3999.9 -0.678747 1.76177 0
M  V30 41228 O 3999.26 -1.46267 1.09143 0
M  V30 41229 C 3999.31 1.12089 3.43684 0
M  V30 41230 O 3999.03 2.50708 3.59273 0
M  V30 41231 C 4000.53 0.868802 4.34703 0
M  V30 41232 H 3997.75 0.27866 0.610401 0
M  V30 41233 H 4000.3 1.38835 1.5015 0
M  V30 41234 H 3998.45 0.541595 3.83595 0
M  V30 41235 H 3998.87 2.64365 4.53002 0
M  V30 41236 H 4000.34 1.1683 5.39495 0
M  V30 41237 H 4000.82 -0.196424 4.38761 0
M  V30 41238 H 4001.42 1.43139 4.00489 0
M  V30 41239 N 3999.74 -1.34578 0.820149 0
M  V30 41240 C 4000.97 -2.02596 0.4198 0
M  V30 41241 C 4001.38 -1.61772 -0.973411 0
M  V30 41242 O 4000.74 -0.821819 -1.62949 0
M  V30 41243 C 4000.79 -3.57896 0.509167 0
M  V30 41244 O 4000.51 -3.97241 1.84746 0
M  V30 41245 C 4002.01 -4.43179 0.103361 0
M  V30 41246 H 3999.23 -0.649417 0.168814 0
M  V30 41247 H 4001.78 -1.71912 1.10754 0
M  V30 41248 H 3999.93 -3.8718 -0.130458 0
M  V30 41249 H 4000.34 -4.9192 1.81976 0
M  V30 41250 H 4001.82 -5.51573 0.216981 0
M  V30 41251 H 4002.3 -4.2874 -0.952813 0
M  V30 41252 H 4002.9 -4.19218 0.716675 0
M  V30 41253 N 4001.22 -0.574861 -1.46742 0
M  V30 41254 C 4002.44 -0.0609143 -2.07311 0
M  V30 41255 C 4002.87 1.23126 -1.42202 0
M  V30 41256 O 4002.22 1.74181 -0.503073 0
M  V30 41257 C 4002.27 0.0996043 -3.60462 0
M  V30 41258 O 4001.38 1.15801 -3.95808 0
M  V30 41259 H 4000.72 -0.0592658 -0.66135 0
M  V30 41260 H 4003.25 -0.795571 -1.88499 0
M  V30 41261 H 4003.26 0.308257 -4.06834 0
M  V30 41262 H 4001.93 -0.844089 -4.07244 0
M  V30 41263 H 4000.51 0.928441 -3.61157 0
M  V30 41264 N 4002.69 1.54476 -0.312224 0
M  V30 41265 C 4003.93 2.02268 0.294471 0
M  V30 41266 C 4004.3 1.19564 1.50228 0
M  V30 41267 O 4005.5 1.57106 2.18108 0
M  V30 41268 C 4003.77 3.5178 0.631302 0
M  V30 41269 S 4005.33 4.2152 1.21926 0
M  V30 41270 H 4002.15 0.705313 0.0897505 0
M  V30 41271 H 4004.75 1.90421 -0.442709 0
M  V30 41272 H 4003.45 4.096 -0.25605 0
M  V30 41273 H 4002.98 3.67685 1.39898 0
M  V30 41274 H 4005 4.28233 2.50661 0
M  V30 41275 N 4004.17 0.0401637 1.57549 0
M  V30 41276 C 4005.42 -0.634804 1.91871 0
M  V30 41277 C 4005.74 -1.72029 0.918208 0
M  V30 41278 O 4005.01 -1.95862 -0.0386218 0
M  V30 41279 H 4003.59 -0.237471 0.708249 0
M  V30 41280 H 4006.25 0.0905712 1.94689 0
M  V30 41281 H 4005.35 -1.08048 2.928 0
M  V30 41282 N 4005.65 -1.55866 -0.233109 0
M  V30 41283 C 4006.6 -1.92307 -1.30847 0
M  V30 41284 C 4007.59 -0.80372 -1.4912 0
M  V30 41285 O 4008.8 -0.98846 -1.50431 0
M  V30 41286 H 4005.17 -0.610961 -0.43844 0
M  V30 41287 H 4007.14 -2.82061 -0.973876 0
M  V30 41288 C 4005.89 -2.24616 -2.65411 0
M  V30 41289 H 4005.22 -3.10255 -2.52154 0
M  V30 41290 H 4006.66 -2.54006 -3.39495 0
M  V30 41291 C 4005.12 -1.06726 -3.19549 0
M  V30 41292 O 4005.65 -0.322379 -4.00404 0
M  V30 41293 N 4003.85 -0.854172 -2.77763 0
M  V30 41294 H 4003.4 -1.46161 -2.12119 0
M  V30 41295 H 4003.36 -0.0670878 -3.14328 0
M  V30 41296 N 4007.13 0.499346 -1.4948 0
M  V30 41297 C 4008.36 1.27735 -1.62762 0
M  V30 41298 C 4008.77 1.86407 -0.299668 0
M  V30 41299 O 4008.13 1.67908 0.715063 0
M  V30 41300 C 4008.18 2.40642 -2.69766 0
M  V30 41301 O 4007.9 1.84381 -3.9741 0
M  V30 41302 C 4009.4 3.31987 -2.93768 0
M  V30 41303 H 4006.62 0.387358 -0.5479 0
M  V30 41304 H 4009.17 0.599257 -1.95523 0
M  V30 41305 H 4007.32 3.04278 -2.39779 0
M  V30 41306 H 4007.74 2.58517 -4.56365 0
M  V30 41307 H 4009.21 4.07487 -3.72368 0
M  V30 41308 H 4009.69 3.89081 -2.03746 0
M  V30 41309 H 4010.29 2.74116 -3.25178 0
M  V30 41310 N 4008.61 1.38582 0.750513 0
M  V30 41311 C 4009.54 1.3878 1.87783 0
M  V30 41312 C 4010.52 0.253274 1.68204 0
M  V30 41313 O 4011.7 0.456812 1.88751 0
M  V30 41314 C 4008.83 1.21516 3.25348 0
M  V30 41315 C 4007.79 2.32205 3.59534 0
M  V30 41316 C 4007.11 2.00044 4.95869 0
M  V30 41317 C 4008.41 3.74476 3.64095 0
M  V30 41318 H 4010.11 2.33117 1.87875 0
M  V30 41319 H 4007.65 1.12211 0.902484 0
M  V30 41320 H 4009.61 1.20279 4.0387 0
M  V30 41321 H 4008.33 0.236423 3.25743 0
M  V30 41322 H 4006.99 2.32634 2.83332 0
M  V30 41323 H 4006.64 1.00647 4.92828 0
M  V30 41324 H 4006.34 2.74179 5.19711 0
M  V30 41325 H 4007.86 2.00431 5.76767 0
M  V30 41326 H 4009.28 3.76061 4.32725 0
M  V30 41327 H 4007.67 4.47841 3.99447 0
M  V30 41328 H 4008.74 4.0657 2.64252 0
M  V30 41329 N 4010.09 -0.979029 1.23502 0
M  V30 41330 C 4011.31 -1.7557 1.09465 0
M  V30 41331 C 4011.73 -1.85456 -0.353768 0
M  V30 41332 O 4011.09 -1.33472 -1.24465 0
M  V30 41333 C 4011.14 -3.18193 1.71568 0
M  V30 41334 O 4010.86 -3.08818 3.10746 0
M  V30 41335 C 4012.36 -4.12249 1.62991 0
M  V30 41336 H 4009.58 -0.55094 0.383023 0
M  V30 41337 H 4012.12 -1.22992 1.63381 0
M  V30 41338 H 4010.28 -3.67794 1.21682 0
M  V30 41339 H 4010.69 -3.98611 3.40895 0
M  V30 41340 H 4012.17 -5.10022 2.11144 0
M  V30 41341 H 4012.64 -4.35233 0.588984 0
M  V30 41342 H 4013.25 -3.68552 2.12248 0
M  V30 41343 N 4011.56 -1.04695 -1.178 0
M  V30 41344 C 4012.8 -0.763028 -1.89624 0
M  V30 41345 C 4013.17 0.696869 -1.78907 0
M  V30 41346 O 4014.37 1.09467 -2.455 0
M  V30 41347 C 4012.64 -1.22406 -3.35785 0
M  V30 41348 S 4014.2 -1.06674 -4.25636 0
M  V30 41349 H 4011.02 -0.277247 -0.654718 0
M  V30 41350 H 4013.62 -1.34054 -1.42301 0
M  V30 41351 H 4012.32 -2.28182 -3.41117 0
M  V30 41352 H 4011.85 -0.640601 -3.88149 0
M  V30 41353 H 4013.87 0.012081 -4.96199 0
M  V30 41354 N 4013.04 1.34141 -0.827275 0
M  V30 41355 C 4014.27 2.02077 -0.429914 0
M  V30 41356 C 4014.68 1.62436 0.970112 0
M  V30 41357 O 4014.02 0.82772 1.63995 0
M  V30 41358 C 4014.08 3.56576 -0.457555 0
M  V30 41359 C 4013.75 4.19556 -1.81167 0
M  V30 41360 C 4014.75 4.39762 -2.77318 0
M  V30 41361 C 4012.43 4.56233 -2.10134 0
M  V30 41362 C 4014.42 4.95776 -4.00605 0
M  V30 41363 C 4012.11 5.11957 -3.33681 0
M  V30 41364 C 4013.11 5.31674 -4.28733 0
M  V30 41365 O 4012.8 5.86216 -5.50096 0
M  V30 41366 H 4012.53 0.654205 -0.17027 0
M  V30 41367 H 4015.08 1.72301 -1.11811 0
M  V30 41368 H 4013.31 3.85631 0.287356 0
M  V30 41369 H 4015 4.05822 -0.079639 0
M  V30 41370 H 4015.77 4.11787 -2.56236 0
M  V30 41371 H 4011.65 4.40189 -1.36949 0
M  V30 41372 H 4015.19 5.11081 -4.74807 0
M  V30 41373 H 4011.09 5.39362 -3.54625 0
M  V30 41374 H 4011.86 6.04645 -5.51676 0
M  V30 41375 N 4014.52 0.582635 1.46435 0
M  V30 41376 C 4015.77 0.0658997 2.01592 0
M  V30 41377 C 4016.08 -1.30195 1.45975 0
M  V30 41378 O 4017.29 -1.91003 1.92952 0
M  V30 41379 C 4015.74 0.067218 3.59837 0
M  V30 41380 C 4015.35 1.43338 4.2445 0
M  V30 41381 C 4017.1 -0.395577 4.22653 0
M  V30 41382 C 4015 1.39243 5.74774 0
M  V30 41383 H 4013.93 0.0208665 0.753711 0
M  V30 41384 H 4016.58 0.734271 1.68169 0
M  V30 41385 H 4014.97 -0.667316 3.90337 0
M  V30 41386 H 4016.14 2.18764 4.0556 0
M  V30 41387 H 4014.45 1.83619 3.73728 0
M  V30 41388 H 4017.05 -0.445008 5.32845 0
M  V30 41389 H 4017.39 -1.41309 3.91583 0
M  V30 41390 H 4017.93 0.284891 3.96779 0
M  V30 41391 H 4014.67 2.38675 6.10504 0
M  V30 41392 H 4014.19 0.680373 5.95929 0
M  V30 41393 H 4015.87 1.10531 6.37489 0
M  V30 41394 N 4016 -1.54309 0.320412 0
M  V30 41395 C 4016.94 -2.24225 -0.546971 0
M  V30 41396 C 4017.91 -1.23188 -1.11417 0
M  V30 41397 O 4019.1 -1.51862 -1.1551 0
M  V30 41398 C 4016.24 -3.00123 -1.70354 0
M  V30 41399 C 4015.35 -4.15971 -1.16587 0
M  V30 41400 C 4014.49 -4.79406 -2.28787 0
M  V30 41401 C 4013.53 -5.87363 -1.72253 0
M  V30 41402 N 4012.66 -6.44673 -2.78102 0
M  V30 41403 H 4017.5 -2.97948 0.0558248 0
M  V30 41404 H 4015.04 -1.47047 0.0393214 0
M  V30 41405 H 4017 -3.42371 -2.38407 0
M  V30 41406 H 4015.63 -2.2874 -2.27767 0
M  V30 41407 H 4014.68 -3.78527 -0.376987 0
M  V30 41408 H 4015.99 -4.9369 -0.712167 0
M  V30 41409 H 4015.15 -5.24607 -3.0475 0
M  V30 41410 H 4013.89 -4.01061 -2.77492 0
M  V30 41411 H 4012.89 -5.41568 -0.947856 0
M  V30 41412 H 4014.12 -6.67604 -1.24428 0
M  V30 41413 H 4012.06 -5.69203 -3.26105 0
M  V30 41414 H 4011.98 -7.17796 -2.37285 0
M  V30 41415 H 4013.25 -6.9453 -3.53904 0
M  V30 41416 N 4017.48 -0.0485183 -1.57525 0
M  V30 41417 C 4018.44 0.91195 -2.10276 0
M  V30 41418 C 4019.44 1.24161 -1.0218 0
M  V30 41419 O 4020.63 1.17873 -1.28264 0
M  V30 41420 C 4017.76 2.22264 -2.58479 0
M  V30 41421 H 4018.95 0.454715 -2.96433 0
M  V30 41422 H 4016.51 0.199843 -1.55017 0
M  V30 41423 H 4017.24 2.72575 -1.75708 0
M  V30 41424 H 4017.03 1.99642 -3.37469 0
M  V30 41425 H 4018.52 2.91068 -2.99448 0
M  V30 41426 N 4018.95 1.55988 0.224839 0
M  V30 41427 C 4020.37 1.48906 0.574389 0
M  V30 41428 C 4020.57 0.742993 1.87302 0
M  V30 41429 O 4019.63 0.281314 2.50928 0
M  V30 41430 C 4020.94 2.93442 0.656666 0
M  V30 41431 C 4022.49 3.03943 0.747514 0
M  V30 41432 C 4022.96 4.49831 0.861164 0
M  V30 41433 N 4024.45 4.5386 0.92547 0
M  V30 41434 C 4025.19 5.64017 1.03306 0
M  V30 41435 N 4024.68 6.83934 1.1048 0
M  V30 41436 N 4026.48 5.51862 1.06794 0
M  V30 41437 H 4018.63 2.02923 -0.627374 0
M  V30 41438 H 4020.89 0.922198 -0.219672 0
M  V30 41439 H 4020.6 3.50961 -0.227907 0
M  V30 41440 H 4020.47 3.45159 1.52136 0
M  V30 41441 H 4022.86 2.46491 1.62253 0
M  V30 41442 H 4022.94 2.55401 -0.142782 0
M  V30 41443 H 4022.58 5.07899 -0.0093805 0
M  V30 41444 H 4022.51 4.96075 1.76683 0
M  V30 41445 H 4025 3.675 0.880476 0
M  V30 41446 H 4025.32 7.63636 1.18658 0
M  V30 41447 H 4023.66 6.86652 1.07399 0
M  V30 41448 H 4026.85 4.57107 1.00852 0
M  V30 41449 H 4027.03 6.37744 1.14833 0
M  V30 41450 N 4020.43 -0.491412 1.49743 0
M  V30 41451 C 4021.39 -1.57418 1.6659 0
M  V30 41452 C 4022.39 -1.51557 0.537308 0
M  V30 41453 O 4023.58 -1.54539 0.803955 0
M  V30 41454 C 4020.72 -2.97068 1.67222 0
M  V30 41455 H 4021.91 -1.43805 2.63173 0
M  V30 41456 H 4019.46 -0.716344 1.38918 0
M  V30 41457 H 4020.2 -3.16147 0.722584 0
M  V30 41458 H 4019.98 -3.0273 2.49193 0
M  V30 41459 H 4021.47 -3.75717 1.8228 0
M  V30 41460 N 4021.91 -1.38978 -0.743153 0
M  V30 41461 C 4022.87 -1.36832 -1.83874 0
M  V30 41462 C 4023.87 -0.266902 -1.58569 0
M  V30 41463 O 4025.06 -0.524367 -1.66121 0
M  V30 41464 C 4022.2 -1.13286 -3.21526 0
M  V30 41465 H 4023.39 -2.34314 -1.87182 0
M  V30 41466 H 4020.94 -1.24424 -0.945957 0
M  V30 41467 H 4021.68 -0.164531 -3.23882 0
M  V30 41468 H 4021.46 -1.9304 -3.41289 0
M  V30 41469 H 4022.95 -1.14505 -4.01595 0
M  V30 41470 N 4023.39 0.972465 -1.2402 0
M  V30 41471 C 4024.63 1.72982 -1.08888 0
M  V30 41472 C 4024.99 1.88465 0.366733 0
M  V30 41473 O 4026.19 2.61084 0.639435 0
M  V30 41474 C 4024.46 3.08582 -1.80311 0
M  V30 41475 S 4026.02 3.99798 -1.80851 0
M  V30 41476 H 4022.84 0.594798 -0.389533 0
M  V30 41477 H 4025.44 1.16121 -1.57277 0
M  V30 41478 H 4024.15 2.9497 -2.85344 0
M  V30 41479 H 4023.68 3.70509 -1.32236 0
M  V30 41480 H 4025.69 4.88464 -0.872778 0
M  V30 41481 N 4024.87 1.05318 1.17243 0
M  V30 41482 C 4026.28 0.774765 1.39533 0
M  V30 41483 C 4026.48 -0.630277 1.91389 0
M  V30 41484 O 4025.54 -1.39247 2.10633 0
M  V30 41485 C 4026.85 1.83143 2.38494 0
M  V30 41486 C 4028.4 1.85379 2.52197 0
M  V30 41487 C 4028.87 2.90072 3.54432 0
M  V30 41488 N 4030.37 2.89043 3.61951 0
M  V30 41489 C 4031.1 3.66698 4.40817 0
M  V30 41490 N 4030.6 4.54143 5.23188 0
M  V30 41491 N 4032.39 3.55133 4.35703 0
M  V30 41492 H 4024.54 1.95969 0.819151 0
M  V30 41493 H 4026.8 0.848645 0.4225 0
M  V30 41494 H 4026.51 2.83991 2.07466 0
M  V30 41495 H 4026.38 1.67413 3.38013 0
M  V30 41496 H 4028.77 0.851953 2.82535 0
M  V30 41497 H 4028.85 2.05187 1.52748 0
M  V30 41498 H 4028.5 3.90443 3.24833 0
M  V30 41499 H 4028.43 2.67516 4.53589 0
M  V30 41500 H 4030.92 2.2564 3.03142 0
M  V30 41501 H 4031.23 5.10077 5.80553 0
M  V30 41502 H 4029.57 4.58204 5.22565 0
M  V30 41503 H 4032.77 2.86211 3.70406 0
M  V30 41504 H 4032.94 4.15899 4.96923 0
M  V30 41505 N 4026.34 -1.33701 0.834377 0
M  V30 41506 C 4027.31 -2.27608 0.269658 0
M  V30 41507 C 4028.31 -1.50769 -0.559039 0
M  V30 41508 O 4029.5 -1.70149 -0.373481 0
M  V30 41509 C 4026.63 -3.35203 -0.620623 0
M  V30 41510 H 4027.82 -2.79067 1.09824 0
M  V30 41511 H 4025.38 -1.44027 0.607113 0
M  V30 41512 H 4026.11 -2.88978 -1.47182 0
M  V30 41513 H 4025.9 -3.9209 -0.0277413 0
M  V30 41514 H 4027.39 -4.05223 -1.00917 0
M  V30 41515 N 4027.82 -0.590393 -1.46124 0
M  V30 41516 C 4028.79 0.128328 -2.2884 0
M  V30 41517 C 4029.79 0.811536 -1.38819 0
M  V30 41518 O 4030.98 0.662318 -1.61118 0
M  V30 41519 C 4028.11 1.19139 -3.19404 0
M  V30 41520 H 4029.3 -0.598693 -2.93863 0
M  V30 41521 H 4026.85 -0.348687 -1.52361 0
M  V30 41522 H 4027.59 1.94974 -2.59144 0
M  V30 41523 H 4027.37 0.705905 -3.85693 0
M  V30 41524 H 4028.86 1.69525 -3.81643 0
M  V30 41525 N 4029.3 1.54136 -0.328591 0
M  V30 41526 C 4030.55 2.00262 0.271932 0
M  V30 41527 C 4030.87 1.2183 1.52258 0
M  V30 41528 O 4030.14 0.321449 1.93245 0
M  V30 41529 H 4028.72 0.739799 0.103471 0
M  V30 41530 H 4031.38 1.89721 -0.446297 0
M  V30 41531 H 4030.48 3.07656 0.524826 0
M  V30 41532 N 4030.78 0.0568716 1.57497 0
M  V30 41533 C 4031.71 -0.91339 2.14894 0
M  V30 41534 C 4032.69 -1.32063 1.07208 0
M  V30 41535 O 4033.87 -1.39433 1.35174 0
M  V30 41536 C 4031 -2.18624 2.69853 0
M  V30 41537 C 4029.96 -1.91889 3.82574 0
M  V30 41538 C 4029.28 -3.25678 4.24073 0
M  V30 41539 C 4030.58 -1.23597 5.07465 0
M  V30 41540 H 4032.28 -0.435295 2.96219 0
M  V30 41541 H 4029.82 -0.207935 1.42491 0
M  V30 41542 H 4031.78 -2.86905 3.08648 0
M  V30 41543 H 4030.5 -2.6865 1.85728 0
M  V30 41544 H 4029.16 -1.26018 3.4426 0
M  V30 41545 H 4028.81 -3.73515 3.36891 0
M  V30 41546 H 4028.51 -3.08586 5.00049 0
M  V30 41547 H 4030.03 -3.95181 4.65473 0
M  V30 41548 H 4031.45 -1.81922 5.4367 0
M  V30 41549 H 4029.84 -1.16813 5.88621 0
M  V30 41550 H 4030.91 -0.212832 4.84433 0
M  V30 41551 N 4032.26 -1.56105 -0.216564 0
M  V30 41552 C 4033.19 -1.89316 -1.29198 0
M  V30 41553 C 4034.2 -0.781857 -1.42797 0
M  V30 41554 O 4035.39 -1.06018 -1.43605 0
M  V30 41555 C 4032.49 -2.09107 -2.66697 0
M  V30 41556 C 4031.66 -3.40152 -2.74983 0
M  V30 41557 C 4030.72 -3.49315 -3.9353 0
M  V30 41558 O 4029.75 -4.22307 -3.81635 0
M  V30 41559 N 4030.95 -2.80823 -5.08054 0
M  V30 41560 H 4033.72 -2.82157 -1.01033 0
M  V30 41561 H 4031.28 -1.56712 -0.406583 0
M  V30 41562 H 4033.27 -2.12547 -3.44392 0
M  V30 41563 H 4031.84 -1.22868 -2.87441 0
M  V30 41564 H 4031.06 -3.48766 -1.83727 0
M  V30 41565 H 4032.35 -4.26468 -2.77493 0
M  V30 41566 H 4031.74 -2.21308 -5.20614 0
M  V30 41567 H 4030.3 -2.89918 -5.83773 0
M  V30 41568 N 4033.73 0.483463 -1.50001 0
M  V30 41569 C 4035.01 1.24476 -1.50881 0
M  V30 41570 C 4035.39 2.09657 -0.24643 0
M  V30 41571 O 4034.74 2.15113 0.770623 0
M  V30 41572 C 4034.95 2.08643 -2.79766 0
M  V30 41573 C 4036.3 2.67247 -3.29945 0
M  V30 41574 O 4037.32 2.18897 -2.81003 0
M  V30 41575 O 4036.18 3.55312 -4.1523 0
M  V30 41576 H 4033.27 0.564195 -0.604659 0
M  V30 41577 H 4035.82 0.496297 -1.62281 0
M  V30 41578 H 4034.59 1.45793 -3.63126 0
M  V30 41579 H 4034.22 2.90648 -2.71311 0
M  V30 41580 N 4035.21 1.39371 0.735772 0
M  V30 41581 C 4036.45 1.37984 1.50797 0
M  V30 41582 C 4036.82 -0.0248457 1.91984 0
M  V30 41583 O 4038.02 -0.163708 2.68301 0
M  V30 41584 C 4036.29 2.32439 2.7149 0
M  V30 41585 S 4037.85 2.49233 3.61149 0
M  V30 41586 H 4034.67 0.489338 0.515819 0
M  V30 41587 H 4037.27 1.75461 0.862198 0
M  V30 41588 H 4035.97 3.33362 2.3937 0
M  V30 41589 H 4035.5 1.96175 3.40997 0
M  V30 41590 H 4037.52 1.72967 4.65077 0
M  V30 41591 N 4036.69 -0.965875 1.24534 0
M  V30 41592 C 4037.92 -1.74399 1.11321 0
M  V30 41593 C 4038.33 -1.85821 -0.334078 0
M  V30 41594 O 4037.69 -1.34785 -1.23042 0
M  V30 41595 C 4037.74 -3.16355 1.74933 0
M  V30 41596 O 4037.46 -3.05505 3.14004 0
M  V30 41597 C 4038.96 -4.10497 1.67354 0
M  V30 41598 H 4036.18 -0.546846 0.388845 0
M  V30 41599 H 4038.73 -1.21252 1.64676 0
M  V30 41600 H 4036.88 -3.66482 1.25577 0
M  V30 41601 H 4037.3 -3.94973 3.45104 0
M  V30 41602 H 4038.77 -5.07753 2.16542 0
M  V30 41603 H 4039.25 -4.34584 0.635113 0
M  V30 41604 H 4039.85 -3.6628 2.16146 0
M  V30 41605 N 4038.17 -1.05938 -1.16683 0
M  V30 41606 C 4039.1 -0.611258 -2.19861 0
M  V30 41607 C 4040.08 0.364083 -1.58471 0
M  V30 41608 O 4041.26 0.273913 -1.86499 0
M  V30 41609 C 4038.39 0.104398 -3.38539 0
M  V30 41610 C 4037.44 -0.827133 -4.18403 0
M  V30 41611 S 4038.27 -2.32042 -4.82614 0
M  V30 41612 C 4039.43 -1.61615 -6.04675 0
M  V30 41613 H 4039.66 -1.4854 -2.57533 0
M  V30 41614 H 4037.19 -0.872027 -1.27417 0
M  V30 41615 H 4039.15 0.51109 -4.07306 0
M  V30 41616 H 4037.81 0.954683 -2.9924 0
M  V30 41617 H 4037 -0.272892 -5.03261 0
M  V30 41618 H 4036.61 -1.17354 -3.55111 0
M  V30 41619 H 4038.9 -0.919716 -6.71228 0
M  V30 41620 H 4039.84 -2.4425 -6.64641 0
M  V30 41621 H 4040.25 -1.1003 -5.53673 0
M  V30 41622 N 4039.65 1.33256 -0.841456 0
M  V30 41623 C 4040.58 2.31672 -0.291644 0
M  V30 41624 C 4041.56 1.5909 0.602038 0
M  V30 41625 O 4042.74 1.86968 0.525048 0
M  V30 41626 C 4039.87 3.43202 0.531947 0
M  V30 41627 C 4038.83 4.27172 -0.266165 0
M  V30 41628 C 4038.15 5.30341 0.681339 0
M  V30 41629 C 4039.45 5.00755 -1.48466 0
M  V30 41630 H 4041.15 2.77906 -1.11395 0
M  V30 41631 H 4038.69 1.33608 -0.537104 0
M  V30 41632 H 4040.65 4.1108 0.926905 0
M  V30 41633 H 4039.37 2.95663 1.38749 0
M  V30 41634 H 4038.03 3.60922 -0.642714 0
M  V30 41635 H 4037.68 4.79059 1.53335 0
M  V30 41636 H 4037.38 5.87405 0.151419 0
M  V30 41637 H 4038.9 6.01085 1.07376 0
M  V30 41638 H 4040.32 5.61386 -1.16272 0
M  V30 41639 H 4038.71 5.67481 -1.95155 0
M  V30 41640 H 4039.78 4.29379 -2.25304 0
M  V30 41641 N 4041.13 0.598134 1.45809 0
M  V30 41642 C 4042.37 0.0897796 2.02601 0
M  V30 41643 C 4042.7 -1.27279 1.46675 0
M  V30 41644 O 4041.98 -1.83747 0.637767 0
M  V30 41645 C 4042.26 0.0406345 3.60077 0
M  V30 41646 C 4042.12 1.4332 4.26356 0
M  V30 41647 C 4043.43 -0.652087 4.35242 0
M  V30 41648 H 4040.55 0.0340995 0.736211 0
M  V30 41649 H 4043.2 0.768294 1.73774 0
M  V30 41650 H 4041.35 -0.537183 3.84768 0
M  V30 41651 H 4043.02 2.05737 4.1288 0
M  V30 41652 H 4041.26 1.99659 3.85121 0
M  V30 41653 H 4041.93 1.35114 5.35209 0
M  V30 41654 H 4044.41 -0.161055 4.15788 0
M  V30 41655 H 4043.28 -0.65555 5.44971 0
M  V30 41656 H 4043.54 -1.71639 4.07422 0
M  V30 41657 N 4042.6 -1.5396 0.33676 0
M  V30 41658 C 4043.84 -2.02711 -0.262254 0
M  V30 41659 C 4044.21 -1.21939 -1.48307 0
M  V30 41660 O 4045.41 -1.60556 -2.15581 0
M  V30 41661 C 4043.68 -3.5274 -0.575257 0
M  V30 41662 S 4045.24 -4.23407 -1.15205 0
M  V30 41663 H 4042.06 -0.706651 -0.0785182 0
M  V30 41664 H 4044.66 -1.89693 0.472947 0
M  V30 41665 H 4043.36 -4.09141 0.321182 0
M  V30 41666 H 4042.89 -3.69864 -1.34031 0
M  V30 41667 H 4044.91 -4.32167 -2.43817 0
M  V30 41668 N 4044.08 -0.0652232 -1.57465 0
M  V30 41669 C 4045.33 0.604199 -1.92857 0
M  V30 41670 C 4045.65 1.70546 -0.945461 0
M  V30 41671 O 4044.92 1.95899 0.007457 0
M  V30 41672 H 4043.5 0.226173 -0.711937 0
M  V30 41673 H 4046.16 -0.121533 -1.94521 0
M  V30 41674 H 4045.26 1.03376 -2.94482 0
M  V30 41675 N 4045.56 1.56218 0.208282 0
M  V30 41676 C 4046.84 1.70657 0.955808 0
M  V30 41677 C 4047.22 0.616276 2.01904 0
M  V30 41678 O 4046.56 -0.374754 2.25406 0
M  V30 41679 C 4046.77 3.12482 1.55421 0
M  V30 41680 C 4048.12 3.72306 2.0414 0
M  V30 41681 O 4049.15 3.15528 1.6529 0
M  V30 41682 O 4048.01 4.71925 2.75588 0
M  V30 41683 H 4045.1 0.695561 0.447352 0
M  V30 41684 H 4047.65 1.68529 0.199017 0
M  V30 41685 H 4046.42 3.83301 0.787157 0
M  V30 41686 H 4046.04 3.18783 2.37619 0
M  V30 41687 N 4047.04 -0.475502 1.50256 0
M  V30 41688 C 4048.31 -1.23674 1.51539 0
M  V30 41689 C 4048.69 -2.09523 0.257545 0
M  V30 41690 O 4048.04 -2.15519 -0.759204 0
M  V30 41691 C 4048.25 -2.07157 2.80869 0
M  V30 41692 C 4049.6 -2.65494 3.31358 0
M  V30 41693 O 4050.62 -2.17403 2.8216 0
M  V30 41694 O 4049.48 -3.53105 4.17108 0
M  V30 41695 H 4046.58 -0.560981 0.607643 0
M  V30 41696 H 4049.12 -0.487684 1.62541 0
M  V30 41697 H 4047.9 -1.43865 3.63894 0
M  V30 41698 H 4047.52 -2.89205 2.72849 0
M  V30 41699 N 4048.52 -1.39759 -0.72837 0
M  V30 41700 C 4049.45 -1.4175 -1.85551 0
M  V30 41701 C 4050.43 -0.280001 -1.6778 0
M  V30 41702 O 4051.61 -0.486783 -1.88 0
M  V30 41703 C 4048.74 -1.26677 -3.23373 0
M  V30 41704 C 4047.7 -2.37896 -3.55794 0
M  V30 41705 C 4047.02 -2.07908 -4.92624 0
M  V30 41706 C 4048.32 -3.80221 -3.58091 0
M  V30 41707 H 4050.02 -2.36076 -1.84142 0
M  V30 41708 H 4047.56 -1.13632 -0.884519 0
M  V30 41709 H 4049.51 -1.26689 -4.01905 0
M  V30 41710 H 4048.24 -0.288216 -3.25326 0
M  V30 41711 H 4046.9 -2.37112 -2.79595 0
M  V30 41712 H 4046.55 -1.08474 -4.91164 0
M  V30 41713 H 4046.25 -2.82413 -5.15283 0
M  V30 41714 H 4047.77 -2.09581 -5.73505 0
M  V30 41715 H 4049.18 -3.82898 -4.26687 0
M  V30 41716 H 4047.58 -4.5414 -3.92272 0
M  V30 41717 H 4048.65 -4.10722 -2.5775 0
M  V30 41718 N 4049.99 0.959257 -1.25044 0
M  V30 41719 C 4051.24 1.70582 -1.0968 0
M  V30 41720 C 4051.57 1.90793 0.36215 0
M  V30 41721 O 4050.85 1.47554 1.2672 0
M  V30 41722 C 4051.13 3.09153 -1.84652 0
M  V30 41723 C 4050.98 2.96381 -3.38347 0
M  V30 41724 C 4052.3 4.08963 -1.62596 0
M  V30 41725 H 4049.42 0.619118 -0.399828 0
M  V30 41726 H 4052.06 1.11535 -1.53818 0
M  V30 41727 H 4050.21 3.5956 -1.47135 0
M  V30 41728 H 4051.89 2.53335 -3.85512 0
M  V30 41729 H 4050.13 2.32402 -3.66295 0
M  V30 41730 H 4050.8 3.94585 -3.86014 0
M  V30 41731 H 4053.28 3.67448 -1.95247 0
M  V30 41732 H 4052.15 5.03971 -2.17497 0
M  V30 41733 H 4052.41 4.3846 -0.56618 0
M  V30 41734 N 4051.47 1.06556 1.16119 0
M  V30 41735 C 4052.72 0.785022 1.8699 0
M  V30 41736 C 4053.05 -0.686887 1.81647 0
M  V30 41737 O 4052.33 -1.50345 1.23397 0
M  V30 41738 C 4052.61 1.28361 3.36445 0
M  V30 41739 C 4052.46 2.81947 3.50465 0
M  V30 41740 C 4053.78 0.893637 4.30932 0
M  V30 41741 H 4050.9 0.286645 0.678973 0
M  V30 41742 H 4053.54 1.32194 1.36472 0
M  V30 41743 H 4051.69 0.826862 3.79599 0
M  V30 41744 H 4053.36 3.3585 3.16232 0
M  V30 41745 H 4051.61 3.20546 2.92289 0
M  V30 41746 H 4052.28 3.11899 4.55437 0
M  V30 41747 H 4054.75 1.28707 3.95694 0
M  V30 41748 H 4053.63 1.26993 5.34007 0
M  V30 41749 H 4053.89 -0.201196 4.41642 0
M  V30 41750 N 4052.95 -1.32808 0.848511 0
M  V30 41751 C 4054.2 -1.96726 0.445151 0
M  V30 41752 C 4054.51 -1.67922 -1.00308 0
M  V30 41753 O 4055.72 -2.2553 -1.51158 0
M  V30 41754 C 4054.17 -3.52103 0.745077 0
M  V30 41755 C 4053.78 -3.89774 2.20863 0
M  V30 41756 C 4055.53 -4.22524 0.40914 0
M  V30 41757 C 4053.43 -5.38169 2.4521 0
M  V30 41758 H 4052.36 -0.736231 0.162728 0
M  V30 41759 H 4055.01 -1.5129 1.03844 0
M  V30 41760 H 4053.4 -3.95917 0.0812987 0
M  V30 41761 H 4054.57 -3.56989 2.91368 0
M  V30 41762 H 4052.89 -3.32361 2.50848 0
M  V30 41763 H 4055.48 -5.31669 0.568547 0
M  V30 41764 H 4055.83 -4.11214 -0.648724 0
M  V30 41765 H 4056.36 -3.84273 1.02855 0
M  V30 41766 H 4053.1 -5.54493 3.49597 0
M  V30 41767 H 4052.62 -5.72381 1.79275 0
M  V30 41768 H 4054.3 -6.05175 2.28848 0
M  V30 41769 N 4054.43 -0.605858 -1.45489 0
M  V30 41770 C 4055.67 -0.103357 -2.04139 0
M  V30 41771 C 4056.03 1.2419 -1.46427 0
M  V30 41772 O 4057.23 1.83502 -1.96419 0
M  V30 41773 C 4055.5 -0.0628554 -3.57345 0
M  V30 41774 S 4057.06 0.378705 -4.37163 0
M  V30 41775 H 4053.88 -0.0487277 -0.709328 0
M  V30 41776 H 4056.48 -0.803571 -1.78222 0
M  V30 41777 H 4055.19 -1.04549 -3.9686 0
M  V30 41778 H 4054.72 0.659406 -3.87834 0
M  V30 41779 H 4056.73 1.6286 -4.68712 0
M  V30 41780 N 4055.91 1.53779 -0.34492 0
M  V30 41781 C 4056.82 2.28772 0.519647 0
M  V30 41782 C 4057.83 1.33935 1.11073 0
M  V30 41783 O 4059.01 1.66974 1.12612 0
M  V30 41784 C 4056.07 3.04696 1.65412 0
M  V30 41785 C 4055.13 4.15162 1.09267 0
M  V30 41786 C 4054.37 4.87456 2.17308 0
M  V30 41787 O 4054.59 4.59431 3.38053 0
M  V30 41788 O 4053.52 5.73875 1.81525 0
M  V30 41789 H 4057.35 3.03567 -0.0900159 0
M  V30 41790 H 4054.94 1.48995 -0.109925 0
M  V30 41791 H 4056.82 3.52172 2.31415 0
M  V30 41792 H 4055.49 2.32758 2.24957 0
M  V30 41793 H 4054.4 3.71986 0.397128 0
M  V30 41794 H 4055.73 4.89206 0.54207 0
M  V30 41795 N 4057.38 0.0735731 1.57428 0
M  V30 41796 C 4058.61 -0.607556 1.98302 0
M  V30 41797 C 4059.03 -1.62247 0.951714 0
M  V30 41798 O 4058.39 -1.81112 -0.082469 0
M  V30 41799 C 4058.44 -1.25104 3.38203 0
M  V30 41800 O 4057.54 -2.3669 3.37716 0
M  V30 41801 H 4056.89 -0.156092 0.645392 0
M  V30 41802 H 4059.42 0.148614 2.0406 0
M  V30 41803 H 4059.43 -1.59746 3.75427 0
M  V30 41804 H 4058.1 -0.507377 4.12794 0
M  V30 41805 H 4056.68 -2.03827 3.12264 0
M  V30 41806 N 4058.86 -1.56326 -0.199995 0
M  V30 41807 C 4059.83 -1.93304 -1.23151 0
M  V30 41808 C 4060.83 -0.813665 -1.38694 0
M  V30 41809 O 4062.02 -1.08115 -1.3659 0
M  V30 41810 C 4059.15 -2.20279 -2.60173 0
M  V30 41811 H 4060.34 -2.85583 -0.915566 0
M  V30 41812 H 4057.89 -1.4994 -0.441314 0
M  V30 41813 H 4058.63 -1.30622 -2.96831 0
M  V30 41814 H 4058.41 -3.01845 -2.50264 0
M  V30 41815 H 4059.9 -2.49909 -3.34567 0
M  V30 41816 N 4060.34 0.467527 -1.50506 0
M  V30 41817 C 4061.59 1.21694 -1.61354 0
M  V30 41818 C 4061.91 1.92396 -0.317617 0
M  V30 41819 O 4061.18 1.84264 0.66509 0
M  V30 41820 H 4059.76 0.452185 -0.59459 0
M  V30 41821 H 4062.42 0.538967 -1.873 0
M  V30 41822 H 4061.52 1.96292 -2.42644 0
M  V30 41823 N 4061.82 1.40143 0.720948 0
M  V30 41824 C 4063.06 1.38335 1.48294 0
M  V30 41825 C 4063.4 -0.016185 1.94193 0
M  V30 41826 O 4062.67 -0.983823 1.67783 0
M  V30 41827 C 4062.96 2.36812 2.71279 0
M  V30 41828 C 4062.81 3.85767 2.31309 0
M  V30 41829 C 4064.13 2.32904 3.73422 0
M  V30 41830 H 4061.25 0.503803 0.537914 0
M  V30 41831 H 4063.89 1.71239 0.823235 0
M  V30 41832 H 4062.04 2.08883 3.27567 0
M  V30 41833 H 4063.71 4.24502 1.80544 0
M  V30 41834 H 4061.95 4.01861 1.63372 0
M  V30 41835 H 4062.62 4.50179 3.19441 0
M  V30 41836 H 4065.1 2.5763 3.2675 0
M  V30 41837 H 4063.98 3.03864 4.57119 0
M  V30 41838 H 4064.24 1.33883 4.2134 0
M  V30 41839 N 4063.3 -0.952612 1.25551 0
M  V30 41840 C 4064.23 -2.05302 1.01901 0
M  V30 41841 C 4065.24 -1.62791 -0.0167322 0
M  V30 41842 O 4066.43 -1.77113 0.222052 0
M  V30 41843 C 4063.53 -3.34904 0.518915 0
M  V30 41844 C 4062.7 -4.06243 1.62128 0
M  V30 41845 C 4061.76 -5.14116 1.12121 0
M  V30 41846 O 4060.79 -5.39453 1.81601 0
M  V30 41847 N 4061.99 -5.80489 -0.0364434 0
M  V30 41848 H 4064.76 -2.2616 1.96652 0
M  V30 41849 H 4062.32 -1.1213 1.16783 0
M  V30 41850 H 4064.31 -4.04348 0.1688 0
M  V30 41851 H 4062.88 -3.10803 -0.334708 0
M  V30 41852 H 4062.1 -3.30869 2.14288 0
M  V30 41853 H 4063.39 -4.50662 2.36181 0
M  V30 41854 H 4062.78 -5.62326 -0.616956 0
M  V30 41855 H 4061.34 -6.50976 -0.327574 0
M  V30 41856 N 4064.77 -1.0717 -1.15553 0
M  V30 41857 C 4065.68 -0.701754 -2.23858 0
M  V30 41858 C 4066.7 0.286179 -1.7163 0
M  V30 41859 O 4067.88 0.133273 -2.00959 0
M  V30 41860 C 4064.94 -0.103226 -3.46546 0
M  V30 41861 C 4064 -1.14416 -4.13772 0
M  V30 41862 C 4063.24 -0.5741 -5.30603 0
M  V30 41863 O 4063.46 0.610421 -5.67124 0
M  V30 41864 O 4062.39 -1.3181 -5.8729 0
M  V30 41865 H 4066.22 -1.60491 -2.5783 0
M  V30 41866 H 4063.8 -0.844535 -1.23239 0
M  V30 41867 H 4065.69 0.228378 -4.20781 0
M  V30 41868 H 4064.36 0.773284 -3.14328 0
M  V30 41869 H 4063.27 -1.52809 -3.41468 0
M  V30 41870 H 4064.6 -1.99251 -4.50067 0
M  V30 41871 N 4066.25 1.32356 -0.855542 0
M  V30 41872 C 4067.53 1.91861 -0.380609 0
M  V30 41873 C 4067.91 1.77934 1.1359 0
M  V30 41874 O 4067.26 1.178 1.95795 0
M  V30 41875 C 4067.47 3.38592 -0.845962 0
M  V30 41876 C 4068.82 4.15724 -0.863659 0
M  V30 41877 O 4069.84 3.47314 -0.790658 0
M  V30 41878 O 4068.7 5.37881 -0.966752 0
M  V30 41879 H 4065.79 0.819494 -0.111171 0
M  V30 41880 H 4068.34 1.41121 -0.942501 0
M  V30 41881 H 4067.11 3.42676 -1.88915 0
M  V30 41882 H 4066.73 3.96739 -0.26157 0
M  V30 41883 N 4067.73 0.613565 1.45166 0
M  V30 41884 C 4068.69 -0.0919052 2.29016 0
M  V30 41885 C 4069.69 -0.789348 1.40093 0
M  V30 41886 O 4070.88 -0.636602 1.62151 0
M  V30 41887 C 4068.02 -1.14042 3.21259 0
M  V30 41888 H 4069.21 0.645368 2.92874 0
M  V30 41889 H 4066.76 0.372882 1.51787 0
M  V30 41890 H 4067.5 -1.90826 2.62213 0
M  V30 41891 H 4067.28 -0.644455 3.86768 0
M  V30 41892 H 4068.77 -1.63432 3.84291 0
M  V30 41893 N 4069.21 -1.53594 0.353071 0
M  V30 41894 C 4070.17 -2.23969 -0.486871 0
M  V30 41895 C 4071.17 -1.24317 -1.01989 0
M  V30 41896 O 4072.36 -1.48687 -0.907627 0
M  V30 41897 C 4069.49 -2.96674 -1.67921 0
M  V30 41898 H 4070.69 -2.99623 0.128759 0
M  V30 41899 H 4068.24 -1.5595 0.104561 0
M  V30 41900 H 4068.98 -2.25231 -2.33327 0
M  V30 41901 H 4068.76 -3.69778 -1.3041 0
M  V30 41902 H 4070.25 -3.50207 -2.27474 0
M  V30 41903 N 4070.69 -0.0819208 -1.57387 0
M  V30 41904 C 4071.91 0.597031 -1.98621 0
M  V30 41905 C 4072.34 1.6174 -0.960305 0
M  V30 41906 O 4071.7 1.81154 0.072863 0
M  V30 41907 C 4071.74 1.23309 -3.38862 0
M  V30 41908 O 4070.85 2.34895 -3.38966 0
M  V30 41909 H 4070.19 0.152667 -0.646211 0
M  V30 41910 H 4072.72 -0.159434 -2.03978 0
M  V30 41911 H 4072.73 1.57753 -3.76268 0
M  V30 41912 H 4071.4 0.485478 -4.13057 0
M  V30 41913 H 4069.98 2.02169 -3.13341 0
M  V30 41914 N 4072.17 1.5643 0.191702 0
M  V30 41915 C 4073.1 1.97842 1.2402 0
M  V30 41916 C 4074.08 0.850879 1.47289 0
M  V30 41917 O 4075.26 1.11546 1.58969 0
M  V30 41918 C 4072.39 2.32084 2.58369 0
M  V30 41919 C 4071.35 3.47607 2.49706 0
M  V30 41920 C 4070.67 3.67535 3.88359 0
M  V30 41921 C 4071.97 4.8169 2.0192 0
M  V30 41922 H 4073.67 2.85677 0.89605 0
M  V30 41923 H 4071.21 1.37443 0.429592 0
M  V30 41924 H 4073.16 2.59649 3.31904 0
M  V30 41925 H 4071.89 1.41135 2.94531 0
M  V30 41926 H 4070.55 3.20138 1.78627 0
M  V30 41927 H 4070.2 2.7391 4.21879 0
M  V30 41928 H 4069.9 4.45253 3.83436 0
M  V30 41929 H 4071.42 3.9748 4.63511 0
M  V30 41930 H 4072.83 5.08265 2.65216 0
M  V30 41931 H 4071.23 5.62902 2.07992 0
M  V30 41932 H 4072.3 4.75046 0.972565 0
M  V30 41933 N 4073.64 -0.459538 1.50751 0
M  V30 41934 C 4075.06 -0.794244 1.38434 0
M  V30 41935 C 4075.26 -1.96425 0.449388 0
M  V30 41936 O 4074.32 -2.52287 -0.103716 0
M  V30 41937 C 4075.63 -1.09546 2.80036 0
M  V30 41938 C 4077.18 -1.20122 2.89032 0
M  V30 41939 C 4077.65 -1.5355 4.31493 0
M  V30 41940 N 4079.14 -1.60519 4.34497 0
M  V30 41941 C 4079.88 -1.87912 5.41735 0
M  V30 41942 N 4079.37 -2.13246 6.59165 0
M  V30 41943 N 4081.17 -1.8951 5.2919 0
M  V30 41944 H 4073.32 0.311349 2.10106 0
M  V30 41945 H 4075.58 0.076814 0.944883 0
M  V30 41946 H 4075.29 -0.308689 3.50343 0
M  V30 41947 H 4075.16 -2.02877 3.17995 0
M  V30 41948 H 4077.55 -1.97865 2.18937 0
M  V30 41949 H 4077.63 -0.247441 2.546 0
M  V30 41950 H 4077.27 -0.763434 5.0213 0
M  V30 41951 H 4077.2 -2.50098 4.63421 0
M  V30 41952 H 4079.69 -1.42933 3.49826 0
M  V30 41953 H 4080.01 -2.33455 7.36694 0
M  V30 41954 H 4078.35 -2.10615 6.62319 0
M  V30 41955 H 4081.54 -1.69221 4.36442 0
M  V30 41956 H 4081.72 -2.10522 6.1285 0
M  V30 41957 N 4075.12 -1.40523 -0.713506 0
M  V30 41958 C 4076.08 -1.40702 -1.8093 0
M  V30 41959 C 4077.08 -0.300477 -1.57968 0
M  V30 41960 O 4078.27 -0.559485 -1.64971 0
M  V30 41961 C 4075.41 -1.2008 -3.19051 0
M  V30 41962 H 4076.6 -2.38231 -1.8217 0
M  V30 41963 H 4074.15 -1.26403 -0.919352 0
M  V30 41964 H 4074.89 -0.233194 -3.23461 0
M  V30 41965 H 4074.67 -2.00235 -3.37117 0
M  V30 41966 H 4076.16 -1.22998 -3.99076 0
M  V30 41967 N 4076.6 0.94594 -1.26054 0
M  V30 41968 C 4077.85 1.69159 -1.11318 0
M  V30 41969 C 4078.17 1.91428 0.344336 0
M  V30 41970 O 4077.43 1.48924 1.26965 0
M  V30 41971 C 4077.73 3.07455 -1.82225 0
M  V30 41972 C 4077.39 3.04958 -3.32132 0
M  V30 41973 C 4076.06 3.03984 -3.73024 0
M  V30 41974 C 4078.41 2.97626 -4.27865 0
M  V30 41975 C 4075.74 2.93438 -5.08047 0
M  V30 41976 C 4078.09 2.88621 -5.62922 0
M  V30 41977 C 4076.75 2.85987 -6.03132 0
M  V30 41978 H 4076.02 0.618995 -0.40734 0
M  V30 41979 H 4078.67 1.10452 -1.56437 0
M  V30 41980 H 4076.97 3.69758 -1.29561 0
M  V30 41981 H 4078.67 3.63988 -1.68267 0
M  V30 41982 H 4075.26 3.06493 -2.996 0
M  V30 41983 H 4079.45 2.9749 -3.97257 0
M  V30 41984 H 4074.7 2.89773 -5.38369 0
M  V30 41985 H 4078.88 2.8191 -6.36789 0
M  V30 41986 H 4076.5 2.77571 -7.07714 0
M  V30 41987 N 4078.08 1.07781 1.14983 0
M  V30 41988 C 4079.31 0.824878 1.89746 0
M  V30 41989 C 4079.72 -0.622353 1.78248 0
M  V30 41990 O 4079.08 -1.42721 1.13741 0
M  V30 41991 C 4079.13 1.22966 3.39944 0
M  V30 41992 O 4078.85 2.62011 3.51115 0
M  V30 41993 C 4080.35 1.00666 4.31719 0
M  V30 41994 H 4077.57 0.297938 0.601227 0
M  V30 41995 H 4080.11 1.43541 1.45657 0
M  V30 41996 H 4078.27 0.663359 3.81678 0
M  V30 41997 H 4078.68 2.78643 4.44363 0
M  V30 41998 H 4080.16 1.33935 5.35505 0
M  V30 41999 H 4080.63 -0.0567359 4.39163 0
M  V30 42000 H 4081.24 1.55808 3.95732 0
M  V30 42001 N 4079.56 -1.31901 0.862549 0
M  V30 42002 C 4080.47 -2.32461 0.31607 0
M  V30 42003 C 4081.48 -1.64392 -0.570188 0
M  V30 42004 O 4082.66 -1.95871 -0.468676 0
M  V30 42005 C 4079.72 -3.43363 -0.479889 0
M  V30 42006 C 4078.78 -4.27106 0.433445 0
M  V30 42007 C 4078.02 -5.32712 -0.32462 0
M  V30 42008 O 4078.24 -5.48834 -1.55364 0
M  V30 42009 O 4077.17 -6.01082 0.313676 0
M  V30 42010 H 4081 -2.81109 1.1494 0
M  V30 42011 H 4078.58 -1.35666 0.625707 0
M  V30 42012 H 4080.47 -4.10978 -0.931386 0
M  V30 42013 H 4079.14 -2.9689 -1.28989 0
M  V30 42014 H 4078.05 -3.62271 0.933286 0
M  V30 42015 H 4079.38 -4.77125 1.20884 0
M  V30 42016 N 4081.03 -0.621255 -1.44838 0
M  V30 42017 C 4082 0.0797586 -2.29061 0
M  V30 42018 C 4083 0.781908 -1.40509 0
M  V30 42019 O 4084.19 0.627994 -1.62487 0
M  V30 42020 C 4081.32 1.12337 -3.21859 0
M  V30 42021 H 4082.51 -0.660891 -2.92527 0
M  V30 42022 H 4080.07 -0.380926 -1.51587 0
M  V30 42023 H 4080.8 1.89433 -2.63222 0
M  V30 42024 H 4080.59 0.623935 -3.87104 0
M  V30 42025 H 4082.08 1.61392 -3.85153 0
M  V30 42026 N 4082.51 1.53405 -0.361211 0
M  V30 42027 C 4083.45 2.21941 0.530792 0
M  V30 42028 C 4084.42 1.20975 1.08645 0
M  V30 42029 O 4085.61 1.49862 1.1434 0
M  V30 42030 C 4082.73 2.9107 1.73193 0
M  V30 42031 C 4081.78 4.06073 1.30412 0
M  V30 42032 S 4082.61 5.34607 0.309076 0
M  V30 42033 C 4083.77 6.07247 1.51664 0
M  V30 42034 H 4084 2.97256 -0.0512835 0
M  V30 42035 H 4081.54 1.53715 -0.145308 0
M  V30 42036 H 4083.49 3.31514 2.42092 0
M  V30 42037 H 4082.15 2.15489 2.28525 0
M  V30 42038 H 4081.35 4.53441 2.20016 0
M  V30 42039 H 4080.95 3.67497 0.69439 0
M  V30 42040 H 4083.24 6.31713 2.44836 0
M  V30 42041 H 4084.18 6.99747 1.08442 0
M  V30 42042 H 4084.59 5.37635 1.72071 0
M  V30 42043 N 4083.99 0.0902663 1.57341 0
M  V30 42044 C 4085.22 -0.583091 1.98514 0
M  V30 42045 C 4085.63 -1.62022 0.969236 0
M  V30 42046 O 4084.99 -1.82452 -0.0417829 0
M  V30 42047 C 4085.04 -1.23514 3.39745 0
M  V30 42048 O 4084.76 -0.239491 4.37445 0
M  V30 42049 C 4086.26 -1.99456 3.95894 0
M  V30 42050 H 4083.48 -0.15669 0.652449 0
M  V30 42051 H 4086.03 0.168128 2.03808 0
M  V30 42052 H 4084.18 -1.93732 3.3548 0
M  V30 42053 H 4084.6 -0.709528 5.19679 0
M  V30 42054 H 4086.07 -2.40445 4.9688 0
M  V30 42055 H 4086.55 -2.8585 3.33446 0
M  V30 42056 H 4087.15 -1.34065 4.03617 0
M  V30 42057 N 4085.47 -1.56529 -0.183403 0
M  V30 42058 C 4086.88 -1.50376 -0.534707 0
M  V30 42059 C 4087.08 -0.792391 -1.85266 0
M  V30 42060 O 4086.14 -0.347744 -2.50094 0
M  V30 42061 C 4087.45 -2.9508 -0.578634 0
M  V30 42062 C 4089 -3.05818 -0.666667 0
M  V30 42063 C 4089.48 -4.51956 -0.741597 0
M  V30 42064 N 4090.97 -4.56155 -0.804812 0
M  V30 42065 C 4091.7 -5.66558 -0.883157 0
M  V30 42066 N 4091.2 -6.86623 -0.923082 0
M  V30 42067 N 4092.99 -5.54499 -0.921248 0
M  V30 42068 H 4085.14 -2.01188 0.680955 0
M  V30 42069 H 4087.41 -0.916049 0.244045 0
M  V30 42070 H 4087.11 -3.50233 0.320878 0
M  V30 42071 H 4086.99 -3.49071 -1.42931 0
M  V30 42072 H 4089.37 -2.50707 -1.55661 0
M  V30 42073 H 4089.45 -2.54933 0.210447 0
M  V30 42074 H 4089.1 -5.07696 0.144038 0
M  V30 42075 H 4089.03 -5.00585 -1.63468 0
M  V30 42076 H 4091.52 -3.69705 -0.782731 0
M  V30 42077 H 4091.83 -7.66514 -0.983701 0
M  V30 42078 H 4090.18 -6.89258 -0.891562 0
M  V30 42079 H 4093.37 -4.5962 -0.886975 0
M  V30 42080 H 4093.54 -6.40564 -0.978845 0
M  V30 42081 N 4086.95 0.451537 -1.50993 0
M  V30 42082 C 4088.18 1.22314 -1.66502 0
M  V30 42083 C 4088.58 1.85823 -0.355864 0
M  V30 42084 O 4087.93 1.70881 0.674183 0
M  V30 42085 C 4087.99 2.35852 -2.71319 0
M  V30 42086 C 4087.65 1.92825 -4.14328 0
M  V30 42087 C 4088.65 1.43967 -4.99569 0
M  V30 42088 C 4086.34 2.00949 -4.60353 0
M  V30 42089 C 4088.33 1.03802 -6.28891 0
M  V30 42090 C 4086.02 1.60395 -5.89675 0
M  V30 42091 C 4087.01 1.11902 -6.73771 0
M  V30 42092 O 4086.7 0.719174 -8.00677 0
M  V30 42093 H 4086.43 0.375302 -0.562249 0
M  V30 42094 H 4088.99 0.543075 -1.98091 0
M  V30 42095 H 4087.22 3.07091 -2.35014 0
M  V30 42096 H 4088.91 2.97762 -2.75849 0
M  V30 42097 H 4089.67 1.37097 -4.6522 0
M  V30 42098 H 4085.55 2.37641 -3.95029 0
M  V30 42099 H 4089.1 0.65881 -6.94482 0
M  V30 42100 H 4084.99 1.66931 -6.23542 0
M  V30 42101 H 4085.76 0.84629 -8.14113 0
M  V30 42102 N 4088.42 1.409 0.706044 0
M  V30 42103 C 4089.65 1.43224 1.50006 0
M  V30 42104 C 4090.07 0.0362488 1.88065 0
M  V30 42105 O 4089.43 -0.958009 1.53922 0
M  V30 42106 C 4089.48 2.33756 2.74573 0
M  V30 42107 O 4088.58 1.78738 3.71654 0
M  V30 42108 H 4087.93 0.486509 0.451891 0
M  V30 42109 H 4090.46 1.85241 0.868739 0
M  V30 42110 H 4090.47 2.49272 3.22998 0
M  V30 42111 H 4089.14 3.35193 2.46208 0
M  V30 42112 H 4087.72 1.72618 3.30541 0
M  V30 42113 N 4089.9 -0.939242 1.26554 0
M  V30 42114 C 4090.87 -2.01979 1.08338 0
M  V30 42115 C 4091.87 -1.6077 0.0310784 0
M  V30 42116 O 4093.06 -1.72021 0.274657 0
M  V30 42117 C 4090.19 -3.34679 0.648267 0
M  V30 42118 H 4091.38 -2.19571 2.04276 0
M  V30 42119 H 4088.93 -1.11847 1.09179 0
M  V30 42120 H 4089.67 -3.22786 -0.313017 0
M  V30 42121 H 4089.45 -3.65943 1.40812 0
M  V30 42122 H 4090.94 -4.14058 0.542713 0
M  V30 42123 N 4091.38 -1.08389 -1.14409 0
M  V30 42124 C 4092.79 -0.834509 -1.67011 0
M  V30 42125 C 4093.14 0.638769 -1.85511 0
M  V30 42126 O 4092.27 1.49336 -1.56614 0
M  V30 42127 C 4092.86 -1.5083 -3.03374 0
M  V30 42128 C 4091.42 -1.30616 -3.53011 0
M  V30 42129 C 4090.57 -1.57121 -2.28491 0
M  V30 42130 H 4093.52 -1.2445 -0.984772 0
M  V30 42131 H 4093.54 -0.935416 -3.68823 0
M  V30 42132 H 4093.05 -2.58055 -2.89878 0
M  V30 42133 H 4091.15 -0.254604 -3.71729 0
M  V30 42134 H 4091.27 -2.03367 -4.33796 0
M  V30 42135 H 4089.63 -0.992751 -2.34556 0
M  V30 42136 H 4090.41 -2.65551 -2.17572 0
M  V30 42137 N 4092.86 1.31442 -0.869532 0
M  V30 42138 C 4094.27 1.78934 -0.532873 0
M  V30 42139 C 4094.62 1.71656 0.95019 0
M  V30 42140 O 4093.75 1.28405 1.74187 0
M  V30 42141 C 4094.34 3.249 -0.960496 0
M  V30 42142 C 4092.9 3.70289 -0.675501 0
M  V30 42143 C 4092.05 2.52236 -1.15205 0
M  V30 42144 H 4095 1.1853 -1.05529 0
M  V30 42145 H 4095.02 3.79446 -0.282987 0
M  V30 42146 H 4094.53 3.30165 -2.03992 0
M  V30 42147 H 4092.63 3.70526 0.392582 0
M  V30 42148 H 4092.74 4.62446 -1.25222 0
M  V30 42149 H 4091.11 2.48198 -0.57183 0
M  V30 42150 H 4091.89 2.60247 -2.23889 0
M  V30 42151 N 4094.34 0.628927 1.44507 0
M  V30 42152 C 4095.58 0.132276 2.01667 0
M  V30 42153 C 4095.91 -1.2495 1.49708 0
M  V30 42154 O 4095.18 -1.82974 0.699801 0
M  V30 42155 H 4093.76 0.0459097 0.745588 0
M  V30 42156 H 4096.42 0.815133 1.77036 0
M  V30 42157 H 4095.51 0.0982876 3.11945 0
M  V30 42158 N 4095.82 -1.53211 0.369342 0
M  V30 42159 C 4097.09 -1.93647 -0.275747 0
M  V30 42160 C 4097.47 -1.30319 -1.66073 0
M  V30 42161 O 4096.82 -0.463697 -2.23746 0
M  V30 42162 C 4097.03 -3.4751 -0.322178 0
M  V30 42163 C 4098.38 -4.20881 -0.560724 0
M  V30 42164 O 4099.4 -3.5391 -0.403229 0
M  V30 42165 O 4098.26 -5.39568 -0.867686 0
M  V30 42166 H 4095.36 -0.810111 -0.166282 0
M  V30 42167 H 4097.9 -1.64359 0.422399 0
M  V30 42168 H 4096.67 -3.85885 0.648716 0
M  V30 42169 H 4096.3 -3.83042 -1.06606 0
M  V30 42170 N 4097.29 -0.0986092 -1.57291 0
M  V30 42171 C 4098.7 0.429977 -1.81681 0
M  V30 42172 C 4099.06 1.67938 -1.01446 0
M  V30 42173 O 4098.18 2.1501 -0.244886 0
M  V30 42174 C 4098.78 0.786861 -3.29536 0
M  V30 42175 C 4097.33 1.26018 -3.54678 0
M  V30 42176 C 4096.48 0.258594 -2.76092 0
M  V30 42177 H 4099.43 -0.324009 -1.55357 0
M  V30 42178 H 4099.45 1.6461 -3.43051 0
M  V30 42179 H 4098.97 -0.122659 -3.87906 0
M  V30 42180 H 4097.07 2.18729 -3.01643 0
M  V30 42181 H 4097.18 1.21958 -4.63317 0
M  V30 42182 H 4095.54 0.741464 -2.43669 0
M  V30 42183 H 4096.33 -0.643667 -3.37212 0
M  V30 42184 N 4098.77 1.56624 0.175099 0
M  V30 42185 C 4100.18 1.71498 0.737921 0
M  V30 42186 C 4100.53 0.708507 1.82961 0
M  V30 42187 O 4099.66 -0.130922 2.16004 0
M  V30 42188 C 4100.25 3.10945 1.34531 0
M  V30 42189 C 4098.81 3.27516 1.85499 0
M  V30 42190 C 4097.96 2.6745 0.732517 0
M  V30 42191 H 4100.91 1.5862 -0.0502464 0
M  V30 42192 H 4100.93 3.09386 2.21497 0
M  V30 42193 H 4100.44 3.84175 0.550533 0
M  V30 42194 H 4098.54 2.59236 2.67633 0
M  V30 42195 H 4098.66 4.35219 2.00303 0
M  V30 42196 H 4097.02 2.27159 1.15199 0
M  V30 42197 H 4097.8 3.43263 -0.0503484 0
M  V30 42198 N 4100.25 -0.443523 1.5123 0
M  V30 42199 C 4101.18 -1.55606 1.68284 0
M  V30 42200 C 4102.19 -1.52732 0.563616 0
M  V30 42201 O 4103.38 -1.57621 0.837734 0
M  V30 42202 C 4100.48 -2.94521 1.67663 0
M  V30 42203 C 4099.66 -3.21966 2.96068 0
M  V30 42204 C 4098.72 -4.40573 2.87718 0
M  V30 42205 O 4097.74 -4.39529 3.61666 0
M  V30 42206 N 4098.94 -5.43794 2.03147 0
M  V30 42207 H 4101.71 -1.41384 2.64255 0
M  V30 42208 H 4099.27 -0.632372 1.49039 0
M  V30 42209 H 4101.26 -3.71878 1.59652 0
M  V30 42210 H 4099.83 -3.02371 0.793114 0
M  V30 42211 H 4099.05 -2.32966 3.17995 0
M  V30 42212 H 4100.34 -3.37128 3.8108 0
M  V30 42213 H 4099.74 -5.47476 1.42432 0
M  V30 42214 H 4098.29 -6.20027 2.0102 0
M  V30 42215 N 4101.73 -1.41272 -0.698562 0
M  V30 42216 C 4103.14 -1.36068 -1.27837 0
M  V30 42217 C 4103.49 -0.0423279 -1.96154 0
M  V30 42218 O 4102.61 0.859463 -1.98601 0
M  V30 42219 C 4103.21 -2.46455 -2.32477 0
M  V30 42220 C 4101.77 -2.44657 -2.86041 0
M  V30 42221 C 4100.92 -2.26456 -1.60041 0
M  V30 42222 H 4103.87 -1.50831 -0.49352 0
M  V30 42223 H 4103.89 -2.15341 -3.13701 0
M  V30 42224 H 4103.4 -3.42393 -1.82726 0
M  V30 42225 H 4101.5 -1.52467 -3.39977 0
M  V30 42226 H 4101.61 -3.40861 -3.36676 0
M  V30 42227 H 4099.98 -1.74279 -1.85739 0
M  V30 42228 H 4100.76 -3.24416 -1.12289 0
M  V30 42229 N 4103.21 0.932517 -1.27051 0
M  V30 42230 C 4104.12 2.06593 -1.1116 0
M  V30 42231 C 4105.13 1.73947 -0.0428551 0
M  V30 42232 O 4106.31 1.99863 -0.248361 0
M  V30 42233 C 4103.37 3.38371 -0.755356 0
M  V30 42234 C 4102.43 3.84745 -1.90445 0
M  V30 42235 C 4101.67 5.10235 -1.56511 0
M  V30 42236 O 4101.89 5.68454 -0.470796 0
M  V30 42237 O 4100.82 5.51863 -2.40272 0
M  V30 42238 H 4104.65 2.2291 -2.06264 0
M  V30 42239 H 4102.23 1.05087 -1.06193 0
M  V30 42240 H 4104.12 4.1753 -0.569802 0
M  V30 42241 H 4102.79 3.23273 0.166206 0
M  V30 42242 H 4101.7 3.06495 -2.14503 0
M  V30 42243 H 4103.03 4.04378 -2.80605 0
M  V30 42244 N 4104.68 1.08995 1.13833 0
M  V30 42245 C 4105.91 0.843731 1.88586 0
M  V30 42246 C 4106.32 -0.608276 1.79155 0
M  V30 42247 O 4105.66 -1.43015 1.15293 0
M  V30 42248 C 4105.73 1.19444 3.39077 0
M  V30 42249 C 4105.39 2.65045 3.7229 0
M  V30 42250 C 4106.39 3.63295 3.71904 0
M  V30 42251 C 4104.07 3.01053 4.02085 0
M  V30 42252 C 4106.07 4.95581 4.00846 0
M  V30 42253 C 4103.75 4.33532 4.30689 0
M  V30 42254 C 4104.75 5.30606 4.30054 0
M  V30 42255 O 4104.44 6.60702 4.5796 0
M  V30 42256 H 4104.17 0.30355 0.604015 0
M  V30 42257 H 4106.73 1.45427 1.45052 0
M  V30 42258 H 4104.96 0.526929 3.83093 0
M  V30 42259 H 4106.64 0.92808 3.95147 0
M  V30 42260 H 4107.41 3.3682 3.48966 0
M  V30 42261 H 4103.29 2.2613 4.01729 0
M  V30 42262 H 4106.83 5.71343 4.00266 0
M  V30 42263 H 4102.73 4.59753 4.53098 0
M  V30 42264 H 4103.5 6.66108 4.75649 0
M  V30 42265 N 4106.16 -1.30979 0.87649 0
M  V30 42266 C 4107.44 -1.91231 0.411084 0
M  V30 42267 C 4107.82 -1.79719 -1.10745 0
M  V30 42268 O 4107.17 -1.209 -1.93896 0
M  V30 42269 C 4107.38 -3.37203 0.899722 0
M  V30 42270 C 4108.72 -4.14297 0.929688 0
M  V30 42271 O 4109.75 -3.46012 0.845813 0
M  V30 42272 O 4108.61 -5.36275 1.0522 0
M  V30 42273 H 4105.7 -0.817621 0.124194 0
M  V30 42274 H 4108.25 -1.39603 0.964833 0
M  V30 42275 H 4107.02 -3.39627 1.94342 0
M  V30 42276 H 4106.64 -3.96272 0.324654 0
M  V30 42277 N 4107.64 -0.636582 -1.44171 0
M  V30 42278 C 4108.57 0.0518308 -2.33442 0
M  V30 42279 C 4109.55 0.8292 -1.4852 0
M  V30 42280 O 4110.74 0.793997 -1.77227 0
M  V30 42281 C 4107.87 1.03032 -3.31665 0
M  V30 42282 C 4106.82 0.364212 -4.26448 0
M  V30 42283 C 4106.15 1.45299 -5.1458 0
M  V30 42284 C 4107.45 -0.732975 -5.17131 0
M  V30 42285 H 4109.14 -0.69364 -2.91254 0
M  V30 42286 H 4106.69 -0.335015 -1.40049 0
M  V30 42287 H 4108.64 1.5207 -3.93005 0
M  V30 42288 H 4107.36 1.80675 -2.72074 0
M  V30 42289 H 4106.02 -0.105569 -3.66448 0
M  V30 42290 H 4105.67 2.22043 -4.51338 0
M  V30 42291 H 4105.37 1.01264 -5.78809 0
M  V30 42292 H 4106.89 1.94507 -5.78791 0
M  V30 42293 H 4108.31 -0.325464 -5.72375 0
M  V30 42294 H 4106.7 -1.09679 -5.89992 0
M  V30 42295 H 4107.77 -1.59787 -4.57817 0
M  V30 42296 N 4109.12 1.53013 -0.377462 0
M  V30 42297 C 4110.03 2.29823 0.471004 0
M  V30 42298 C 4111.04 1.36261 1.08207 0
M  V30 42299 O 4112.22 1.69326 1.09045 0
M  V30 42300 C 4109.28 3.08136 1.58911 0
M  V30 42301 C 4108.35 4.17386 1.00437 0
M  V30 42302 C 4107.58 4.91955 2.06919 0
M  V30 42303 O 4107.8 4.66498 3.28231 0
M  V30 42304 O 4106.74 5.77596 1.69311 0
M  V30 42305 H 4110.56 3.03307 -0.154387 0
M  V30 42306 H 4108.15 1.48728 -0.141504 0
M  V30 42307 H 4110.03 3.57001 2.23893 0
M  V30 42308 H 4108.7 2.37477 2.19969 0
M  V30 42309 H 4107.61 3.72745 0.318135 0
M  V30 42310 H 4108.94 4.90246 0.43818 0
M  V30 42311 N 4110.6 0.106949 1.57237 0
M  V30 42312 C 4111.53 -0.84456 2.17691 0
M  V30 42313 C 4112.51 -1.28585 1.11355 0
M  V30 42314 O 4113.69 -1.35062 1.39542 0
M  V30 42315 C 4110.82 -2.09929 2.76672 0
M  V30 42316 C 4109.78 -1.79621 3.88485 0
M  V30 42317 C 4109.1 -3.12021 4.3422 0
M  V30 42318 C 4110.4 -1.0739 5.11141 0
M  V30 42319 H 4112.1 -0.340835 2.97454 0
M  V30 42320 H 4109.64 -0.162498 1.4308 0
M  V30 42321 H 4111.6 -2.76941 3.17619 0
M  V30 42322 H 4110.32 -2.62605 1.94181 0
M  V30 42323 H 4108.98 -1.15002 3.48095 0
M  V30 42324 H 4108.63 -3.62608 3.48604 0
M  V30 42325 H 4108.33 -2.92521 5.09613 0
M  V30 42326 H 4109.85 -3.80172 4.77809 0
M  V30 42327 H 4111.26 -1.64533 5.49183 0
M  V30 42328 H 4109.66 -0.980271 5.92039 0
M  V30 42329 H 4110.73 -0.0586062 4.84865 0
M  V30 42330 N 4112.07 -1.56715 -0.166791 0
M  V30 42331 C 4113.32 -1.81442 -0.881011 0
M  V30 42332 C 4113.64 -0.684957 -1.83215 0
M  V30 42333 O 4114.84 -0.81728 -2.58907 0
M  V30 42334 C 4113.3 -3.2152 -1.61719 0
M  V30 42335 C 4112.91 -4.42347 -0.709456 0
M  V30 42336 C 4114.65 -3.55536 -2.31936 0
M  V30 42337 C 4112.56 -5.73447 -1.44612 0
M  V30 42338 H 4111.49 -0.676615 -0.332729 0
M  V30 42339 H 4114.14 -1.83011 -0.133891 0
M  V30 42340 H 4112.52 -3.14281 -2.40922 0
M  V30 42341 H 4113.69 -4.60777 0.0459401 0
M  V30 42342 H 4112.01 -4.16236 -0.116702 0
M  V30 42343 H 4114.61 -4.50732 -2.87654 0
M  V30 42344 H 4114.95 -2.80634 -3.0749 0
M  V30 42345 H 4115.48 -3.64348 -1.59672 0
M  V30 42346 H 4112.22 -6.51391 -0.732823 0
M  V30 42347 H 4111.74 -5.58986 -2.17473 0
M  V30 42348 H 4113.42 -6.15559 -1.99239 0
M  V30 42349 N 4113.55 0.435497 -1.51463 0
M  V30 42350 C 4114.78 1.20716 -1.68033 0
M  V30 42351 C 4115.2 1.84968 -0.378459 0
M  V30 42352 O 4114.55 1.7079 0.643204 0
M  V30 42353 C 4114.6 2.28984 -2.7973 0
M  V30 42354 O 4114.32 1.6736 -4.04873 0
M  V30 42355 C 4115.83 3.19229 -3.07584 0
M  V30 42356 H 4113.05 0.363771 -0.563836 0
M  V30 42357 H 4115.59 0.51579 -1.97888 0
M  V30 42358 H 4113.74 2.93834 -2.52468 0
M  V30 42359 H 4114.16 2.38928 -4.66919 0
M  V30 42360 H 4115.63 3.91327 -3.89316 0
M  V30 42361 H 4116.11 3.80089 -2.20065 0
M  V30 42362 H 4116.72 2.60077 -3.36511 0
M  V30 42363 N 4115.03 1.41641 0.69106 0
M  V30 42364 C 4116.26 1.44806 1.48478 0
M  V30 42365 C 4116.68 0.0561936 1.88016 0
M  V30 42366 O 4116.04 -0.94163 1.54929 0
M  V30 42367 C 4116.09 2.36655 2.72079 0
M  V30 42368 O 4115.19 1.8267 3.69737 0
M  V30 42369 H 4114.53 0.491274 0.446705 0
M  V30 42370 H 4117.06 1.86152 0.849043 0
M  V30 42371 H 4117.07 2.52683 3.20336 0
M  V30 42372 H 4115.75 3.37786 2.42639 0
M  V30 42373 H 4114.32 1.76114 3.28692 0
M  V30 42374 N 4116.51 -0.925766 1.27543 0
M  V30 42375 C 4117.75 -1.68821 1.15233 0
M  V30 42376 C 4118.11 -1.89696 -0.296533 0
M  V30 42377 O 4119.31 -2.63277 -0.542095 0
M  V30 42378 C 4117.58 -3.01677 1.9164 0
M  V30 42379 S 4119.14 -3.9281 1.95565 0
M  V30 42380 H 4115.96 -0.579931 0.411341 0
M  V30 42381 H 4118.56 -1.10204 1.61479 0
M  V30 42382 H 4117.27 -2.84176 2.96095 0
M  V30 42383 H 4116.8 -3.65346 1.45896 0
M  V30 42384 H 4118.81 -4.84888 1.05347 0
M  V30 42385 N 4117.99 -1.09597 -1.13253 0
M  V30 42386 C 4119.21 -0.855137 -1.8895 0
M  V30 42387 C 4119.64 0.588143 -1.78669 0
M  V30 42388 O 4118.99 1.41339 -1.13547 0
M  V30 42389 C 4119.04 -1.29723 -3.36458 0
M  V30 42390 O 4118.15 -0.456789 -4.09862 0
M  V30 42391 H 4117.49 -0.309557 -0.587427 0
M  V30 42392 H 4120.02 -1.46055 -1.4328 0
M  V30 42393 H 4120.03 -1.2834 -3.87289 0
M  V30 42394 H 4118.7 -2.34832 -3.43259 0
M  V30 42395 H 4117.28 -0.535091 -3.69041 0
M  V30 42396 N 4119.46 1.30512 -0.883424 0
M  V30 42397 C 4120.69 2.00899 -0.515221 0
M  V30 42398 C 4121.11 1.65794 0.888486 0
M  V30 42399 O 4120.47 0.87372 1.58858 0
M  V30 42400 C 4120.52 3.53832 -0.695353 0
M  V30 42401 O 4119.62 4.11583 0.259444 0
M  V30 42402 H 4118.97 0.632137 -0.203221 0
M  V30 42403 H 4121.5 1.66395 -1.19054 0
M  V30 42404 H 4121.51 4.03656 -0.593759 0
M  V30 42405 H 4120.18 3.78721 -1.71881 0
M  V30 42406 H 4118.76 3.72733 0.111675 0
M  V30 42407 N 4120.94 0.644219 1.43832 0
M  V30 42408 C 4121.89 -0.0648775 2.3251 0
M  V30 42409 C 4122.88 -0.822379 1.48099 0
M  V30 42410 O 4124.09 -0.733798 1.64364 0
M  V30 42411 H 4120.47 -0.0397592 0.750948 0
M  V30 42412 H 4122.44 0.700908 2.90051 0
M  V30 42413 C 4121.19 -1.02386 3.32284 0
M  V30 42414 H 4120.51 -0.4504 3.97255 0
M  V30 42415 H 4121.95 -1.48926 3.96985 0
M  V30 42416 C 4120.41 -2.11551 2.62198 0
M  V30 42417 O 4120.94 -3.19811 2.43072 0
M  V30 42418 N 4119.14 -1.87853 2.2172 0
M  V30 42419 H 4118.69 -0.998147 2.37476 0
M  V30 42420 H 4118.65 -2.6109 1.75155 0
M  V30 42421 N 4122.42 -1.52811 0.385571 0
M  V30 42422 C 4123.67 -2.0183 -0.198102 0
M  V30 42423 C 4124 -1.27168 -1.46772 0
M  V30 42424 O 4123.27 -0.371067 -1.90928 0
M  V30 42425 C 4123.56 -3.57022 -0.46981 0
M  V30 42426 C 4123.41 -4.42358 0.814834 0
M  V30 42427 C 4124.73 -4.21617 -1.26202 0
M  V30 42428 H 4121.85 -0.733618 -0.0705257 0
M  V30 42429 H 4124.49 -1.82904 0.514404 0
M  V30 42430 H 4122.64 -3.7328 -1.07678 0
M  V30 42431 H 4124.31 -4.37859 1.4518 0
M  V30 42432 H 4122.56 -4.09519 1.43095 0
M  V30 42433 H 4123.23 -5.48951 0.579416 0
M  V30 42434 H 4125.7 -4.09315 -0.748379 0
M  V30 42435 H 4124.58 -5.30191 -1.42087 0
M  V30 42436 H 4124.84 -3.79002 -2.27618 0
M  V30 42437 N 4123.9 -0.115287 -1.57178 0
M  V30 42438 C 4125.12 0.554766 -1.99843 0
M  V30 42439 C 4125.55 1.59666 -0.994397 0
M  V30 42440 O 4124.91 1.81267 0.0344212 0
M  V30 42441 C 4124.95 1.16093 -3.41401 0
M  V30 42442 O 4124.06 2.27653 -3.43872 0
M  V30 42443 H 4123.4 0.138926 -0.649304 0
M  V30 42444 H 4125.93 -0.202665 -2.03594 0
M  V30 42445 H 4125.94 1.49737 -3.7953 0
M  V30 42446 H 4124.61 0.397754 -4.13994 0
M  V30 42447 H 4123.19 1.95477 -3.17558 0
M  V30 42448 N 4125.38 1.56801 0.158477 0
M  V30 42449 C 4126.62 1.82986 0.874299 0
M  V30 42450 C 4126.96 0.695135 1.81333 0
M  V30 42451 O 4126.23 -0.302057 1.9214 0
M  V30 42452 C 4126.51 3.19618 1.6588 0
M  V30 42453 C 4126.37 4.43637 0.742032 0
M  V30 42454 C 4127.69 3.53337 2.62376 0
M  V30 42455 H 4124.81 0.665627 0.3164 0
M  V30 42456 H 4127.45 1.89484 0.139954 0
M  V30 42457 H 4125.6 3.1421 2.28483 0
M  V30 42458 H 4127.27 4.61123 0.127888 0
M  V30 42459 H 4125.51 4.3377 0.0508703 0
M  V30 42460 H 4126.18 5.35819 1.32673 0
M  V30 42461 H 4128.66 3.59282 2.09895 0
M  V30 42462 H 4127.54 4.49991 3.14324 0
M  V30 42463 H 4127.8 2.787 3.43189 0
M  V30 42464 N 4126.86 -0.427458 1.51692 0
M  V30 42465 C 4127.82 -1.5021 1.73117 0
M  V30 42466 C 4128.82 -1.49142 0.601105 0
M  V30 42467 O 4130.01 -1.5099 0.868777 0
M  V30 42468 C 4127.14 -2.89708 1.79671 0
M  V30 42469 H 4128.33 -1.32514 2.69036 0
M  V30 42470 H 4125.89 -0.65678 1.41831 0
M  V30 42471 H 4126.62 -3.12798 0.856023 0
M  V30 42472 H 4126.41 -2.91888 2.61808 0
M  V30 42473 H 4127.9 -3.67648 1.98052 0
M  V30 42474 N 4128.33 -1.42005 -0.683539 0
M  V30 42475 C 4129.28 -1.4126 -1.78968 0
M  V30 42476 C 4130.27 -0.28518 -1.58353 0
M  V30 42477 O 4131.46 -0.526759 -1.6898 0
M  V30 42478 C 4128.59 -1.30894 -3.17367 0
M  V30 42479 C 4127.67 -2.48546 -3.43636 0
M  V30 42480 N 4128.07 -3.7399 -3.40537 0
M  V30 42481 C 4126.36 -2.42618 -3.74236 0
M  V30 42482 C 4127.06 -4.52089 -3.66047 0
M  V30 42483 N 4126.04 -3.82373 -3.86383 0
M  V30 42484 H 4129.84 -2.36154 -1.74953 0
M  V30 42485 H 4127.36 -1.36231 -0.884025 0
M  V30 42486 H 4129.35 -1.28442 -3.96621 0
M  V30 42487 H 4128.01 -0.369944 -3.22586 0
M  V30 42488 H 4129.02 -4.06707 -3.20639 0
M  V30 42489 H 4125.7 -1.57253 -3.86753 0
M  V30 42490 H 4127.09 -5.61055 -3.69685 0
M  V30 42491 N 4129.81 0.918989 -1.28033 0
M  V30 42492 C 4131.09 1.64651 -1.05591 0
M  V30 42493 C 4131.47 2.0715 0.406476 0
M  V30 42494 O 4130.82 1.81245 1.3915 0
M  V30 42495 C 4131.03 2.84198 -2.02565 0
M  V30 42496 C 4132.37 3.55339 -2.3242 0
M  V30 42497 O 4133.4 2.94338 -2.00607 0
M  V30 42498 O 4132.26 4.65264 -2.86691 0
M  V30 42499 H 4129.35 0.722067 -0.403173 0
M  V30 42500 H 4131.9 0.968756 -1.39331 0
M  V30 42501 H 4130.67 2.49848 -3.0115 0
M  V30 42502 H 4130.29 3.59689 -1.69439 0
M  V30 42503 N 4131.29 1.10196 1.12671 0
M  V30 42504 C 4132.54 0.8412 1.83761 0
M  V30 42505 C 4132.86 -0.635029 1.8437 0
M  V30 42506 O 4132.13 -1.46098 1.30507 0
M  V30 42507 H 4130.71 0.308204 0.680455 0
M  V30 42508 H 4133.37 1.39172 1.36444 0
M  V30 42509 H 4132.47 1.20184 2.88032 0
M  V30 42510 N 4132.77 -1.30042 0.890333 0
M  V30 42511 C 4133.73 -2.2626 0.365952 0
M  V30 42512 C 4134.73 -1.53005 -0.494589 0
M  V30 42513 O 4135.92 -1.7158 -0.300979 0
M  V30 42514 C 4133.05 -3.37534 -0.477893 0
M  V30 42515 H 4134.25 -2.74158 1.21562 0
M  V30 42516 H 4131.8 -1.41323 0.667653 0
M  V30 42517 H 4132.53 -2.9496 -1.34793 0
M  V30 42518 H 4132.32 -3.91855 0.138582 0
M  V30 42519 H 4133.81 -4.09138 -0.836391 0
M  V30 42520 N 4134.25 -0.651838 -1.43488 0
M  V30 42521 C 4135.49 -0.164343 -2.01431 0
M  V30 42522 C 4135.81 1.22553 -1.51677 0
M  V30 42523 O 4135.08 1.81838 -0.728822 0
M  V30 42524 H 4133.66 -0.0577656 -0.744763 0
M  V30 42525 H 4136.33 -0.843195 -1.75716 0
M  V30 42526 H 4135.42 -0.147903 -3.11749 0
M  V30 42527 N 4135.72 1.52604 -0.39367 0
M  V30 42528 C 4136.67 2.26579 0.439368 0
M  V30 42529 C 4137.64 1.28364 1.05413 0
M  V30 42530 O 4138.83 1.572 1.08133 0
M  V30 42531 C 4135.97 3.07909 1.55841 0
M  V30 42532 C 4135.08 4.21059 0.966078 0
M  V30 42533 C 4134.21 4.89776 2.05653 0
M  V30 42534 C 4133.25 5.94913 1.44033 0
M  V30 42535 N 4132.39 6.57208 2.47027 0
M  V30 42536 H 4137.23 2.97342 -0.197916 0
M  V30 42537 H 4134.77 1.46692 -0.109435 0
M  V30 42538 H 4136.72 3.53356 2.218 0
M  V30 42539 H 4135.35 2.39347 2.16594 0
M  V30 42540 H 4134.41 3.79895 0.195957 0
M  V30 42541 H 4135.72 4.96525 0.475811 0
M  V30 42542 H 4134.87 5.38549 2.79373 0
M  V30 42543 H 4133.61 4.13843 2.58041 0
M  V30 42544 H 4132.62 5.45473 0.688387 0
M  V30 42545 H 4133.84 6.7278 0.92434 0
M  V30 42546 H 4131.79 5.84113 2.98576 0
M  V30 42547 H 4131.7 7.283 2.02768 0
M  V30 42548 H 4132.97 7.10624 3.20364 0
M  V30 42549 N 4137.2 0.12362 1.57114 0
M  V30 42550 C 4138.62 -0.232947 1.57891 0
M  V30 42551 C 4138.82 -1.66383 1.13662 0
M  V30 42552 O 4137.87 -2.38603 0.826126 0
M  V30 42553 C 4139.19 0.00457065 3.007 0
M  V30 42554 C 4140.73 -0.0609685 3.12941 0
M  V30 42555 C 4141.21 0.148915 4.57758 0
M  V30 42556 N 4142.7 0.095042 4.63102 0
M  V30 42557 C 4143.44 0.232278 5.72929 0
M  V30 42558 N 4142.93 0.425942 6.91489 0
M  V30 42559 N 4144.72 0.171526 5.61838 0
M  V30 42560 H 4136.88 1.05817 1.84164 0
M  V30 42561 H 4139.14 0.417053 0.851335 0
M  V30 42562 H 4138.84 0.99396 3.37362 0
M  V30 42563 H 4138.72 -0.725262 3.70162 0
M  V30 42564 H 4141.11 -1.04089 2.76133 0
M  V30 42565 H 4141.19 0.700819 2.46013 0
M  V30 42566 H 4140.83 1.12583 4.95265 0
M  V30 42567 H 4140.76 -0.632914 5.22783 0
M  V30 42568 H 4143.25 -0.0509394 3.77866 0
M  V30 42569 H 4143.56 0.521398 7.71039 0
M  V30 42570 H 4141.91 0.461973 6.93463 0
M  V30 42571 H 4145.1 0.0211581 4.68095 0
M  V30 42572 H 4145.27 0.281921 6.47386 0
M  V30 42573 N 4138.68 -1.56883 -0.15016 0
M  V30 42574 C 4139.93 -1.83447 -0.864583 0
M  V30 42575 C 4140.26 -0.704742 -1.80961 0
M  V30 42576 O 4139.53 0.291864 -1.92298 0
M  V30 42577 C 4139.82 -3.20494 -1.64183 0
M  V30 42578 C 4139.67 -4.44024 -0.718495 0
M  V30 42579 C 4140.99 -3.54723 -2.60499 0
M  V30 42580 H 4138.11 -0.667296 -0.312866 0
M  V30 42581 H 4140.75 -1.89555 -0.129904 0
M  V30 42582 H 4138.9 -3.15417 -2.26813 0
M  V30 42583 H 4140.57 -4.61184 -0.103432 0
M  V30 42584 H 4138.81 -4.33791 -0.0278657 0
M  V30 42585 H 4139.49 -5.36515 -1.2983 0
M  V30 42586 H 4141.96 -3.6039 -2.07987 0
M  V30 42587 H 4140.84 -4.51651 -3.11933 0
M  V30 42588 H 4141.1 -2.80516 -3.41706 0
M  V30 42589 N 4140.16 0.419408 -1.51917 0
M  V30 42590 C 4141.39 1.18755 -1.69059 0
M  V30 42591 C 4141.8 1.85027 -0.3952 0
M  V30 42592 O 4141.14 1.72273 0.637785 0
M  V30 42593 C 4141.2 2.30044 -2.76261 0
M  V30 42594 C 4140.87 1.83993 -4.18325 0
M  V30 42595 C 4141.86 1.33338 -5.02511 0
M  V30 42596 C 4139.55 1.91139 -4.64512 0
M  V30 42597 C 4141.54 0.904387 -6.30951 0
M  V30 42598 C 4139.23 1.47851 -5.92945 0
M  V30 42599 C 4140.23 0.975848 -6.75993 0
M  V30 42600 O 4139.91 0.549177 -8.02022 0
M  V30 42601 H 4139.65 0.363292 -0.570083 0
M  V30 42602 H 4142.2 0.500935 -1.99198 0
M  V30 42603 H 4140.43 3.02037 -2.41475 0
M  V30 42604 H 4142.12 2.91843 -2.82103 0
M  V30 42605 H 4142.89 1.27198 -4.68023 0
M  V30 42606 H 4138.76 2.29209 -3.9998 0
M  V30 42607 H 4142.31 0.511352 -6.95723 0
M  V30 42608 H 4138.21 1.53667 -6.26942 0
M  V30 42609 H 4138.97 0.673415 -8.15725 0
M  V30 42610 N 4141.64 1.42366 0.675998 0
M  V30 42611 C 4142.87 1.45955 1.46222 0
M  V30 42612 C 4143.27 0.0690149 1.89074 0
M  V30 42613 O 4142.62 -0.92631 1.58635 0
M  V30 42614 C 4142.68 2.32279 2.74384 0
M  V30 42615 C 4142.34 3.80169 2.53615 0
M  V30 42616 C 4143.34 4.71851 2.18295 0
M  V30 42617 C 4141.03 4.24422 2.68647 0
M  V30 42618 C 4143.02 6.05778 1.98271 0
M  V30 42619 C 4140.71 5.58409 2.4824 0
M  V30 42620 C 4141.7 6.48903 2.13105 0
M  V30 42621 O 4141.39 7.80415 1.92893 0
M  V30 42622 H 4141.12 0.498607 0.456473 0
M  V30 42623 H 4143.68 1.87522 0.838123 0
M  V30 42624 H 4141.91 1.85559 3.39271 0
M  V30 42625 H 4143.6 2.27337 3.36263 0
M  V30 42626 H 4144.36 4.38947 2.06278 0
M  V30 42627 H 4140.24 3.54276 2.94974 0
M  V30 42628 H 4143.79 6.76375 1.70771 0
M  V30 42629 H 4139.68 5.90887 2.59852 0
M  V30 42630 H 4140.45 7.91761 2.07501 0
M  V30 42631 N 4143.11 -0.912187 1.28518 0
M  V30 42632 C 4144.04 -2.03151 1.15117 0
M  V30 42633 C 4145.03 -1.70031 0.0485427 0
M  V30 42634 O 4146.21 -1.92883 0.225812 0
M  V30 42635 C 4143.34 -3.37629 0.81387 0
M  V30 42636 C 4142.29 -3.84917 1.87144 0
M  V30 42637 C 4141.62 -5.16378 1.38774 0
M  V30 42638 C 4142.92 -4.06605 3.27826 0
M  V30 42639 H 4144.61 -2.14621 2.08754 0
M  V30 42640 H 4142.16 -1.03124 1.00506 0
M  V30 42641 H 4144.11 -4.15429 0.706877 0
M  V30 42642 H 4142.84 -3.26217 -0.158203 0
M  V30 42643 H 4141.5 -3.09323 1.96761 0
M  V30 42644 H 4141.14 -5.01369 0.404687 0
M  V30 42645 H 4140.84 -5.48987 2.09492 0
M  V30 42646 H 4142.37 -5.96731 1.294 0
M  V30 42647 H 4143.78 -4.74925 3.21122 0
M  V30 42648 H 4142.18 -4.50548 3.96392 0
M  V30 42649 H 4143.25 -3.11362 3.71728 0
M  V30 42650 N 4144.59 -1.10792 -1.12085 0
M  V30 42651 C 4145.82 -0.874895 -1.87492 0
M  V30 42652 C 4146.24 0.574875 -1.79835 0
M  V30 42653 O 4145.59 1.39655 -1.17485 0
M  V30 42654 C 4145.64 -1.31936 -3.36564 0
M  V30 42655 O 4145.36 -2.71228 -3.44045 0
M  V30 42656 C 4146.87 -1.12077 -4.28898 0
M  V30 42657 H 4144.09 -0.313774 -0.593116 0
M  V30 42658 H 4146.63 -1.47353 -1.418 0
M  V30 42659 H 4144.78 -0.764321 -3.79785 0
M  V30 42660 H 4145.2 -2.90327 -4.36819 0
M  V30 42661 H 4146.67 -1.48086 -5.31766 0
M  V30 42662 H 4147.15 -0.0597204 -4.39159 0
M  V30 42663 H 4147.76 -1.66245 -3.91462 0
M  V30 42664 N 4146.07 1.29568 -0.897217 0
M  V30 42665 C 4147.49 1.48176 -0.592959 0
M  V30 42666 C 4147.69 1.81933 0.866182 0
M  V30 42667 O 4146.74 1.91429 1.64654 0
M  V30 42668 C 4148.06 2.5965 -1.51665 0
M  V30 42669 C 4149.6 2.73527 -1.52158 0
M  V30 42670 C 4150.08 3.88127 -2.43149 0
M  V30 42671 N 4151.57 3.95456 -2.41182 0
M  V30 42672 C 4152.3 4.83471 -3.08292 0
M  V30 42673 N 4151.8 5.76194 -3.84672 0
M  V30 42674 N 4153.59 4.76941 -2.97462 0
M  V30 42675 H 4145.74 1.05932 -1.84098 0
M  V30 42676 H 4148.01 0.525966 -0.78871 0
M  V30 42677 H 4147.71 2.41564 -2.55616 0
M  V30 42678 H 4147.59 3.56398 -1.23532 0
M  V30 42679 H 4149.97 2.91011 -0.489523 0
M  V30 42680 H 4150.06 1.77362 -1.84327 0
M  V30 42681 H 4149.7 3.71398 -3.46447 0
M  V30 42682 H 4149.63 4.83655 -2.08291 0
M  V30 42683 H 4152.12 3.29134 -1.85686 0
M  V30 42684 H 4152.43 6.40143 -4.3294 0
M  V30 42685 H 4150.78 5.76087 -3.88779 0
M  V30 42686 H 4153.97 4.03488 -2.37308 0
M  V30 42687 H 4154.14 5.45323 -3.50038 0
M  V30 42688 N 4147.55 0.659438 1.4314 0
M  V30 42689 C 4148.83 0.105007 1.95318 0
M  V30 42690 C 4149.21 -1.37648 1.6005 0
M  V30 42691 O 4148.55 -2.10506 0.888783 0
M  V30 42692 C 4148.76 0.35783 3.47161 0
M  V30 42693 C 4150.11 0.266095 4.23765 0
M  V30 42694 O 4151.14 0.290729 3.55012 0
M  V30 42695 O 4149.99 0.195117 5.46152 0
M  V30 42696 H 4147.09 -0.00602826 0.826978 0
M  V30 42697 H 4149.63 0.733106 1.53048 0
M  V30 42698 H 4148.41 1.38471 3.6598 0
M  V30 42699 H 4148.03 -0.303032 3.96444 0
M  V30 42700 N 4149.03 -1.52393 0.401757 0
M  V30 42701 C 4150.44 -1.86571 -0.0694981 0
M  V30 42702 C 4150.79 -1.32087 -1.45077 0
M  V30 42703 O 4149.91 -0.657185 -2.0618 0
M  V30 42704 C 4150.51 -3.38539 -0.132887 0
M  V30 42705 C 4149.07 -3.72383 -0.548462 0
M  V30 42706 C 4148.21 -2.75865 0.281713 0
M  V30 42707 H 4151.17 -1.46125 0.619128 0
M  V30 42708 H 4151.19 -3.6846 -0.949602 0
M  V30 42709 H 4150.7 -3.78164 0.872559 0
M  V30 42710 H 4148.8 -3.38333 -1.56082 0
M  V30 42711 H 4148.91 -4.78173 -0.297966 0
M  V30 42712 H 4147.28 -2.53422 -0.254866 0
M  V30 42713 H 4148.06 -3.18329 1.28537 0
M  V30 42714 N 4150.5 -0.131951 -1.57047 0
M  V30 42715 C 4151.73 0.530253 -1.9999 0
M  V30 42716 C 4152.15 1.59396 -1.01185 0
M  V30 42717 O 4151.5 1.82499 -0.00660576 0
M  V30 42718 C 4151.56 1.14462 -3.429 0
M  V30 42719 O 4151.28 0.123426 -4.37926 0
M  V30 42720 C 4152.78 1.8889 -4.01043 0
M  V30 42721 H 4150 0.139336 -0.656374 0
M  V30 42722 H 4152.54 -0.222105 -2.0329 0
M  V30 42723 H 4150.7 1.84769 -3.40498 0
M  V30 42724 H 4151.11 0.571495 -5.21377 0
M  V30 42725 H 4152.58 2.27187 -5.03081 0
M  V30 42726 H 4153.06 2.76909 -3.40908 0
M  V30 42727 H 4153.67 1.23317 -4.0703 0
M  V30 42728 N 4151.98 1.5696 0.141838 0
M  V30 42729 C 4153.21 1.87795 0.86837 0
M  V30 42730 C 4153.63 0.720721 1.74502 0
M  V30 42731 O 4152.98 -0.309341 1.79859 0
M  V30 42732 C 4153.03 3.17916 1.7208 0
M  V30 42733 O 4152.75 4.29182 0.879473 0
M  V30 42734 C 4154.26 3.62301 2.55447 0
M  V30 42735 H 4151.48 0.622354 0.250831 0
M  V30 42736 H 4154.02 2.04067 0.133077 0
M  V30 42737 H 4152.17 3.03383 2.4091 0
M  V30 42738 H 4152.59 5.03619 1.46521 0
M  V30 42739 H 4154.06 4.5617 3.10826 0
M  V30 42740 H 4154.54 2.8784 3.3173 0
M  V30 42741 H 4155.15 3.79545 1.91899 0
M  V30 42742 N 4153.46 -0.411345 1.52137 0
M  V30 42743 C 4154.87 -0.990244 1.58275 0
M  V30 42744 C 4155.22 -1.9161 0.421907 0
M  V30 42745 O 4154.35 -2.11497 -0.458021 0
M  V30 42746 C 4154.94 -1.80271 2.86858 0
M  V30 42747 C 4153.5 -2.33168 2.95482 0
M  V30 42748 C 4152.65 -1.13088 2.53192 0
M  V30 42749 H 4155.6 -0.19166 1.57538 0
M  V30 42750 H 4155.62 -2.65987 2.72086 0
M  V30 42751 H 4155.13 -1.1286 3.71328 0
M  V30 42752 H 4153.23 -3.03957 2.15502 0
M  V30 42753 H 4153.35 -2.64185 3.99679 0
M  V30 42754 H 4151.71 -1.48417 2.06989 0
M  V30 42755 H 4152.49 -0.47247 3.40033 0
M  V30 42756 N 4154.94 -1.42722 -0.668439 0
M  V30 42757 C 4155.87 -1.49492 -1.79372 0
M  V30 42758 C 4156.85 -0.35091 -1.66441 0
M  V30 42759 O 4158.04 -0.566082 -1.85766 0
M  V30 42760 C 4155.17 -1.40278 -3.17709 0
M  V30 42761 C 4154.12 -2.52772 -3.45384 0
M  V30 42762 C 4153.45 -2.28615 -4.83363 0
M  V30 42763 C 4154.75 -3.95067 -3.41643 0
M  V30 42764 H 4156.44 -2.43674 -1.73964 0
M  V30 42765 H 4153.99 -1.17281 -0.835527 0
M  V30 42766 H 4155.94 -1.43621 -3.9617 0
M  V30 42767 H 4154.66 -0.425939 -3.23811 0
M  V30 42768 H 4153.32 -2.48757 -2.69287 0
M  V30 42769 H 4152.97 -1.29209 -4.86121 0
M  V30 42770 H 4152.67 -3.04014 -5.02841 0
M  V30 42771 H 4154.19 -2.33717 -5.641 0
M  V30 42772 H 4155.61 -4.00651 -4.10063 0
M  V30 42773 H 4154 -4.70368 -3.72657 0
M  V30 42774 H 4155.07 -4.21285 -2.40098 0
M  V30 42775 N 4156.42 0.905358 -1.29 0
M  V30 42776 C 4157.38 1.99036 -1.13655 0
M  V30 42777 C 4158.38 1.60631 -0.0736928 0
M  V30 42778 O 4159.57 1.71232 -0.320169 0
M  V30 42779 C 4156.7 3.32843 -0.736773 0
M  V30 42780 H 4157.9 2.14077 -2.10026 0
M  V30 42781 H 4155.45 1.08913 -1.12106 0
M  V30 42782 H 4156.18 3.23502 0.227326 0
M  V30 42783 H 4155.97 3.62081 -1.50465 0
M  V30 42784 H 4157.46 4.12474 -0.652302 0
M  V30 42785 N 4157.9 1.11385 1.11495 0
M  V30 42786 C 4159.31 0.84764 1.3523 0
M  V30 42787 C 4159.51 -0.527939 1.94461 0
M  V30 42788 O 4158.57 -1.27886 2.17718 0
M  V30 42789 C 4159.88 1.95527 2.2845 0
M  V30 42790 C 4161.43 1.98487 2.42016 0
M  V30 42791 C 4161.9 3.08452 3.38558 0
M  V30 42792 N 4163.39 3.07823 3.4612 0
M  V30 42793 C 4164.13 3.8955 4.2076 0
M  V30 42794 N 4163.63 4.81238 4.9838 0
M  V30 42795 N 4165.42 3.77729 4.16266 0
M  V30 42796 H 4157.57 2.00035 0.714121 0
M  V30 42797 H 4159.83 0.869848 0.376921 0
M  V30 42798 H 4159.54 2.94589 1.9212 0
M  V30 42799 H 4159.41 1.85095 3.28664 0
M  V30 42800 H 4161.8 1.00052 2.77621 0
M  V30 42801 H 4161.88 2.12995 1.41657 0
M  V30 42802 H 4161.52 4.07113 3.0368 0
M  V30 42803 H 4161.45 2.91184 4.38771 0
M  V30 42804 H 4163.95 2.41392 2.90755 0
M  V30 42805 H 4164.26 5.40134 5.52698 0
M  V30 42806 H 4162.6 4.8526 4.97542 0
M  V30 42807 H 4165.79 3.05443 3.54714 0
M  V30 42808 H 4165.97 4.41655 4.74178 0
M  V30 42809 N 4159.37 -1.2909 0.904076 0
M  V30 42810 C 4160.34 -2.25859 0.389929 0
M  V30 42811 C 4161.34 -1.53521 -0.478333 0
M  V30 42812 O 4162.53 -1.7189 -0.282763 0
M  V30 42813 C 4159.66 -3.38022 -0.442066 0
M  V30 42814 H 4160.85 -2.72854 1.24463 0
M  V30 42815 H 4158.4 -1.40607 0.682605 0
M  V30 42816 H 4159.14 -2.96373 -1.31657 0
M  V30 42817 H 4158.92 -3.91686 0.180136 0
M  V30 42818 H 4160.41 -4.10003 -0.792949 0
M  V30 42819 N 4160.85 -0.66702 -1.42789 0
M  V30 42820 C 4161.81 0.00684416 -2.29199 0
M  V30 42821 C 4162.81 0.73681 -1.42926 0
M  V30 42822 O 4164 0.575982 -1.64402 0
M  V30 42823 C 4161.14 1.0204 -3.2527 0
M  V30 42824 H 4162.33 -0.753622 -2.90277 0
M  V30 42825 H 4159.88 -0.42896 -1.50298 0
M  V30 42826 H 4160.62 1.80963 -2.69115 0
M  V30 42827 H 4160.4 0.500465 -3.88893 0
M  V30 42828 H 4161.89 1.49057 -3.90092 0
M  V30 42829 N 4162.33 1.52178 -0.409833 0
M  V30 42830 C 4163.58 2.02783 0.158349 0
M  V30 42831 C 4163.93 1.29002 1.42745 0
M  V30 42832 O 4163.22 0.387908 1.87632 0
M  V30 42833 C 4163.42 3.54434 0.459519 0
M  V30 42834 C 4163.25 4.42904 -0.778847 0
M  V30 42835 C 4162.02 4.88178 -1.30425 0
M  V30 42836 C 4164.21 4.8687 -1.65716 0
M  V30 42837 N 4162.2 5.60778 -2.49803 0
M  V30 42838 C 4163.57 5.58258 -2.69718 0
M  V30 42839 C 4165.62 4.68886 -1.67484 0
M  V30 42840 C 4164.33 6.1357 -3.75399 0
M  V30 42841 C 4166.35 5.25095 -2.72083 0
M  V30 42842 C 4165.71 5.96406 -3.74806 0
M  V30 42843 H 4161.81 0.781757 0.0194931 0
M  V30 42844 H 4164.4 1.86342 -0.564338 0
M  V30 42845 H 4162.57 3.70946 1.15125 0
M  V30 42846 H 4164.3 3.91722 1.01665 0
M  V30 42847 H 4161.05 4.65686 -0.862186 0
M  V30 42848 H 4161.48 6.01719 -3.10262 0
M  V30 42849 H 4166.12 4.13239 -0.89406 0
M  V30 42850 H 4163.84 6.68288 -4.54332 0
M  V30 42851 H 4167.42 5.13048 -2.74359 0
M  V30 42852 H 4166.3 6.39122 -4.54415 0
M  V30 42853 N 4163.81 0.140278 1.56974 0
M  V30 42854 C 4164.72 -0.815169 2.19982 0
M  V30 42855 C 4165.73 -1.27678 1.18213 0
M  V30 42856 O 4166.91 -1.33536 1.50765 0
M  V30 42857 C 4163.97 -2.03941 2.80373 0
M  V30 42858 C 4163.04 -1.62767 3.97247 0
M  V30 42859 C 4162.27 -2.79355 4.54749 0
M  V30 42860 O 4162.49 -3.95382 4.11131 0
M  V30 42861 O 4161.43 -2.55214 5.45114 0
M  V30 42862 H 4165.25 -0.308855 3.02125 0
M  V30 42863 H 4162.84 -0.0864147 1.4915 0
M  V30 42864 H 4164.72 -2.756 3.18783 0
M  V30 42865 H 4163.39 -2.53537 2.01247 0
M  V30 42866 H 4162.3 -0.881516 3.63566 0
M  V30 42867 H 4163.63 -1.17893 4.77873 0
M  V30 42868 N 4165.29 -1.57033 -0.133512 0
M  V30 42869 C 4166.51 -1.88253 -0.858398 0
M  V30 42870 C 4166.93 -0.729965 -1.74118 0
M  V30 42871 O 4166.29 0.299798 -1.80021 0
M  V30 42872 C 4166.34 -3.18824 -1.70392 0
M  V30 42873 O 4166.06 -4.29642 -0.8567 0
M  V30 42874 C 4167.56 -3.6365 -2.53522 0
M  V30 42875 H 4164.78 -0.623676 -0.247527 0
M  V30 42876 H 4167.32 -2.04134 -0.122253 0
M  V30 42877 H 4165.48 -3.04656 -2.39298 0
M  V30 42878 H 4165.89 -5.04389 -1.43848 0
M  V30 42879 H 4167.37 -4.57812 -3.08402 0
M  V30 42880 H 4167.84 -2.89595 -3.30199 0
M  V30 42881 H 4168.45 -3.80558 -1.89884 0
M  V30 42882 N 4166.76 0.403271 -1.52353 0
M  V30 42883 C 4167.73 1.47437 -1.75485 0
M  V30 42884 C 4168.73 1.48167 -0.624756 0
M  V30 42885 O 4169.92 1.49589 -0.892688 0
M  V30 42886 C 4167.05 2.86813 -1.84258 0
M  V30 42887 H 4168.24 1.28217 -2.7111 0
M  V30 42888 H 4165.79 0.634132 -1.42858 0
M  V30 42889 H 4166.53 3.11397 -0.905678 0
M  V30 42890 H 4166.31 2.87686 -2.66419 0
M  V30 42891 H 4167.8 3.64451 -2.03876 0
M  V30 42892 N 4168.24 1.43075 0.66086 0
M  V30 42893 C 4169.66 1.26307 0.975638 0
M  V30 42894 C 4169.86 0.177276 2.00719 0
M  V30 42895 O 4168.91 -0.446852 2.48515 0
M  V30 42896 C 4170.23 2.62478 1.46717 0
M  V30 42897 C 4171.77 2.69947 1.58422 0
M  V30 42898 C 4172.25 4.06517 2.10968 0
M  V30 42899 N 4173.74 4.08543 2.18282 0
M  V30 42900 C 4174.48 5.11042 2.60045 0
M  V30 42901 N 4173.97 6.23919 3.0116 0
M  V30 42902 N 4175.76 4.98397 2.59917 0
M  V30 42903 H 4167.92 2.12389 -0.0218673 0
M  V30 42904 H 4170.18 0.94653 0.0527805 0
M  V30 42905 H 4169.88 3.42858 0.783652 0
M  V30 42906 H 4169.76 2.87352 2.44353 0
M  V30 42907 H 4172.15 1.89904 2.25877 0
M  V30 42908 H 4172.23 2.48846 0.592389 0
M  V30 42909 H 4171.87 4.87024 1.44118 0
M  V30 42910 H 4171.8 4.24978 3.10968 0
M  V30 42911 H 4174.29 3.27062 1.89312 0
M  V30 42912 H 4174.6 6.97968 3.31754 0
M  V30 42913 H 4172.95 6.27403 2.98983 0
M  V30 42914 H 4176.14 4.09283 2.27168 0
M  V30 42915 H 4176.31 5.78408 2.92143 0
M  V30 42916 N 4169.72 -0.898504 1.29478 0
M  V30 42917 C 4170.67 -1.98969 1.11334 0
M  V30 42918 C 4171.65 -1.60867 0.0324162 0
M  V30 42919 O 4172.85 -1.75164 0.25426 0
M  V30 42920 C 4169.98 -3.34012 0.793166 0
M  V30 42921 C 4169.06 -3.78469 1.91369 0
M  V30 42922 N 4169.45 -3.95151 3.15737 0
M  V30 42923 C 4167.75 -4.07755 1.80699 0
M  V30 42924 C 4168.45 -4.32634 3.88848 0
M  V30 42925 N 4167.43 -4.41745 3.168 0
M  V30 42926 H 4171.23 -2.09938 2.05678 0
M  V30 42927 H 4168.74 -1.0874 1.2062 0
M  V30 42928 H 4170.74 -4.11892 0.644221 0
M  V30 42929 H 4169.4 -3.24388 -0.142341 0
M  V30 42930 H 4170.41 -3.8065 3.51178 0
M  V30 42931 H 4167.09 -4.06681 0.944277 0
M  V30 42932 H 4168.48 -4.53376 4.95883 0
M  V30 42933 N 4171.2 -1.11974 -1.10903 0
M  V30 42934 C 4172.43 -0.894732 -1.86553 0
M  V30 42935 C 4172.84 0.555769 -1.80435 0
M  V30 42936 O 4172.2 1.38401 -1.1896 0
M  V30 42937 C 4172.25 -1.35498 -3.35146 0
M  V30 42938 O 4171.97 -2.74862 -3.41149 0
M  V30 42939 C 4173.47 -1.1662 -4.27685 0
M  V30 42940 H 4170.69 -0.320047 -0.589755 0
M  V30 42941 H 4173.24 -1.48849 -1.4023 0
M  V30 42942 H 4171.39 -0.804559 -3.78953 0
M  V30 42943 H 4171.8 -2.94944 -4.33715 0
M  V30 42944 H 4173.28 -1.53717 -5.30165 0
M  V30 42945 H 4173.76 -0.106296 -4.39071 0
M  V30 42946 H 4174.36 -1.70388 -3.89677 0
M  V30 42947 N 4172.68 1.28609 -0.910909 0
M  V30 42948 C 4174.09 1.77148 -0.58953 0
M  V30 42949 C 4174.44 1.74592 0.895097 0
M  V30 42950 O 4173.56 1.33882 1.70014 0
M  V30 42951 C 4174.16 3.2168 -1.06337 0
M  V30 42952 C 4172.72 3.67953 -0.792964 0
M  V30 42953 C 4171.86 2.48443 -1.23172 0
M  V30 42954 H 4174.82 1.15112 -1.09247 0
M  V30 42955 H 4174.84 3.78354 -0.403562 0
M  V30 42956 H 4174.35 3.23508 -2.14393 0
M  V30 42957 H 4172.45 3.71587 0.274503 0
M  V30 42958 H 4172.56 4.58228 -1.39871 0
M  V30 42959 H 4170.93 2.46253 -0.650502 0
M  V30 42960 H 4171.71 2.52992 -2.32056 0
M  V30 42961 N 4174.15 0.674583 1.42433 0
M  V30 42962 C 4175.4 0.197048 2.0184 0
M  V30 42963 C 4175.73 -1.19325 1.53216 0
M  V30 42964 O 4175.01 -1.80108 0.734271 0
M  V30 42965 C 4175.29 0.231446 3.59355 0
M  V30 42966 C 4175.14 1.65719 4.18159 0
M  V30 42967 C 4176.46 -0.420458 4.38087 0
M  V30 42968 H 4173.58 0.0730765 0.733368 0
M  V30 42969 H 4176.22 0.859327 1.69457 0
M  V30 42970 H 4174.37 -0.332471 3.87075 0
M  V30 42971 H 4176.05 2.27334 4.01394 0
M  V30 42972 H 4174.29 2.19793 3.73997 0
M  V30 42973 H 4174.96 1.63294 5.27294 0
M  V30 42974 H 4177.44 0.0595716 4.16057 0
M  V30 42975 H 4176.31 -0.365751 5.4768 0
M  V30 42976 H 4176.57 -1.49801 4.15947 0
M  V30 42977 N 4175.63 -1.51958 0.417898 0
M  V30 42978 C 4176.58 -2.28816 -0.417856 0
M  V30 42979 C 4177.57 -1.33863 -1.03812 0
M  V30 42980 O 4178.78 -1.51287 -0.975315 0
M  V30 42981 H 4175.16 -0.736158 -0.153544 0
M  V30 42982 H 4177.13 -2.97338 0.251472 0
M  V30 42983 C 4175.88 -3.12839 -1.51747 0
M  V30 42984 H 4175.2 -3.85778 -1.04953 0
M  V30 42985 H 4176.64 -3.69707 -2.07589 0
M  V30 42986 C 4175.1 -2.26961 -2.48979 0
M  V30 42987 O 4175.63 -1.91587 -3.53069 0
M  V30 42988 N 4173.83 -1.9056 -2.19398 0
M  V30 42989 H 4173.38 -2.19526 -1.34782 0
M  V30 42990 H 4173.34 -1.33395 -2.84699 0
M  V30 42991 N 4177.11 -0.1486 -1.56898 0
M  V30 42992 C 4178.34 0.512252 -2.00974 0
M  V30 42993 C 4178.76 1.57521 -1.02804 0
M  V30 42994 O 4178.12 1.813 -0.00403598 0
M  V30 42995 C 4178.17 1.08826 -3.43787 0
M  V30 42996 O 4177.27 2.20307 -3.48624 0
M  V30 42997 H 4176.61 0.125122 -0.652105 0
M  V30 42998 H 4179.14 -0.245804 -2.03118 0
M  V30 42999 H 4179.15 1.41652 -3.82621 0
M  V30 43000 H 4177.83 0.30985 -4.14744 0
M  V30 43001 H 4176.4 1.88697 -3.21633 0
M  V30 43002 N 4178.59 1.57102 0.125182 0
M  V30 43003 C 4179.83 1.8568 0.830339 0
M  V30 43004 C 4180.19 0.735542 1.77785 0
M  V30 43005 O 4179.48 -0.264931 1.8976 0
M  V30 43006 C 4179.68 3.18401 1.62344 0
M  V30 43007 C 4179.51 4.4333 0.754225 0
M  V30 43008 C 4178.28 5.03622 0.411434 0
M  V30 43009 C 4180.47 5.14246 0.0746422 0
M  V30 43010 N 4178.46 6.12105 -0.469091 0
M  V30 43011 C 4179.83 6.16422 -0.665132 0
M  V30 43012 C 4181.88 4.979 -0.00242047 0
M  V30 43013 C 4180.58 7.0402 -1.47472 0
M  V30 43014 C 4182.61 5.8598 -0.798816 0
M  V30 43015 C 4181.97 6.87654 -1.5268 0
M  V30 43016 H 4178.07 0.729781 0.28097 0
M  V30 43017 H 4180.66 1.94471 0.0944194 0
M  V30 43018 H 4178.83 3.10717 2.33044 0
M  V30 43019 H 4180.56 3.34808 2.27345 0
M  V30 43020 H 4177.31 4.67587 0.752258 0
M  V30 43021 H 4177.74 6.70977 -0.90102 0
M  V30 43022 H 4182.38 4.19259 0.546055 0
M  V30 43023 H 4180.1 7.82073 -2.03438 0
M  V30 43024 H 4183.68 5.75398 -0.860721 0
M  V30 43025 H 4182.56 7.5463 -2.13314 0
M  V30 43026 N 4180.07 -0.395186 1.52565 0
M  V30 43027 C 4181 -1.48894 1.79869 0
M  V30 43028 C 4181.98 -1.57175 0.650378 0
M  V30 43029 O 4183.16 -1.72224 0.897359 0
M  V30 43030 C 4180.29 -2.86573 1.96197 0
M  V30 43031 C 4179.25 -2.93134 3.11859 0
M  V30 43032 C 4178.57 -4.33203 3.13432 0
M  V30 43033 C 4179.87 -2.63345 4.51051 0
M  V30 43034 H 4181.57 -1.26294 2.71459 0
M  V30 43035 H 4179.11 -0.606122 1.30622 0
M  V30 43036 H 4181.07 -3.63088 2.13882 0
M  V30 43037 H 4179.79 -3.10496 1.01291 0
M  V30 43038 H 4178.45 -2.19066 2.93948 0
M  V30 43039 H 4178.1 -4.54156 2.1622 0
M  V30 43040 H 4177.8 -4.38515 3.91125 0
M  V30 43041 H 4179.32 -5.11633 3.33263 0
M  V30 43042 H 4180.73 -3.29579 4.69096 0
M  V30 43043 H 4179.13 -2.80015 5.30765 0
M  V30 43044 H 4180.2 -1.58714 4.5819 0
M  V30 43045 N 4181.54 -1.43423 -0.653263 0
M  V30 43046 C 4182.79 -1.44752 -1.41037 0
M  V30 43047 C 4183.11 -0.0729035 -1.94864 0
M  V30 43048 O 4182.38 0.891751 -1.74427 0
M  V30 43049 H 4180.96 -0.53294 -0.523435 0
M  V30 43050 H 4183.63 -1.79025 -0.770452 0
M  V30 43051 H 4182.72 -2.16005 -2.25274 0
M  V30 43052 N 4183.02 0.891625 -1.29953 0
M  V30 43053 C 4183.97 2.01803 -1.15665 0
M  V30 43054 C 4184.96 1.69254 -0.0701986 0
M  V30 43055 O 4186.17 1.78517 -0.230577 0
M  V30 43056 H 4182.55 0.661575 -0.357523 0
M  V30 43057 H 4184.52 2.10989 -2.11012 0
M  V30 43058 C 4183.27 3.36938 -0.858375 0
M  V30 43059 H 4182.59 3.62491 -1.68644 0
M  V30 43060 H 4184.03 4.16414 -0.798478 0
M  V30 43061 C 4182.49 3.34033 0.43857 0
M  V30 43062 O 4183.02 3.74144 1.46215 0
M  V30 43063 N 4181.22 2.87136 0.447332 0
M  V30 43064 H 4180.77 2.5469 -0.386102 0
M  V30 43065 H 4180.73 2.85576 1.31507 0
M  V30 43066 N 4184.5 1.12561 1.10308 0
M  V30 43067 C 4185.75 0.876431 1.81663 0
M  V30 43068 C 4186.06 -0.599474 1.86187 0
M  V30 43069 O 4187.27 -0.965292 2.5376 0
M  V30 43070 C 4185.73 1.51831 3.26305 0
M  V30 43071 C 4185.33 3.0291 3.30075 0
M  V30 43072 C 4187.08 1.34946 4.0248 0
M  V30 43073 C 4184.98 3.60026 4.69186 0
M  V30 43074 H 4183.91 0.32423 0.680728 0
M  V30 43075 H 4186.57 1.35225 1.24042 0
M  V30 43076 H 4184.95 0.970154 3.83932 0
M  V30 43077 H 4186.12 3.64229 2.82265 0
M  V30 43078 H 4184.44 3.19206 2.67388 0
M  V30 43079 H 4187.03 1.75039 5.05238 0
M  V30 43080 H 4187.38 0.293281 4.15266 0
M  V30 43081 H 4187.91 1.86691 3.51271 0
M  V30 43082 H 4184.65 4.65409 4.616 0
M  V30 43083 H 4184.17 3.03482 5.17358 0
M  V30 43084 H 4185.85 3.59163 5.38155 0
M  V30 43085 N 4185.98 -1.28124 0.917717 0
M  V30 43086 C 4187.23 -1.9409 0.548805 0
M  V30 43087 C 4187.54 -1.73003 -0.912658 0
M  V30 43088 O 4188.75 -2.33225 -1.3899 0
M  V30 43089 C 4187.2 -3.47659 0.930672 0
M  V30 43090 C 4186.81 -3.77518 2.41213 0
M  V30 43091 C 4188.56 -4.19761 0.632535 0
M  V30 43092 C 4186.46 -5.24415 2.73392 0
M  V30 43093 H 4185.39 -0.72657 0.201525 0
M  V30 43094 H 4188.04 -1.45573 1.11717 0
M  V30 43095 H 4186.43 -3.94929 0.291051 0
M  V30 43096 H 4187.6 -3.41042 3.09882 0
M  V30 43097 H 4185.91 -3.18597 2.68113 0
M  V30 43098 H 4188.51 -5.27908 0.849573 0
M  V30 43099 H 4188.85 -4.14075 -0.429836 0
M  V30 43100 H 4189.39 -3.7828 1.2308 0
M  V30 43101 H 4186.13 -5.35182 3.78498 0
M  V30 43102 H 4185.65 -5.62074 2.09364 0
M  V30 43103 H 4187.33 -5.92194 2.60606 0
M  V30 43104 N 4187.46 -0.682127 -1.42073 0
M  V30 43105 C 4188.39 0.0419398 -2.28161 0
M  V30 43106 C 4189.37 0.801399 -1.41479 0
M  V30 43107 O 4190.55 0.795007 -1.70915 0
M  V30 43108 C 4187.68 1.06666 -3.21466 0
M  V30 43109 C 4186.73 0.401932 -4.24602 0
M  V30 43110 S 4187.56 -0.845855 -5.28777 0
M  V30 43111 C 4188.71 0.177604 -6.25648 0
M  V30 43112 H 4188.95 -0.688253 -2.89224 0
M  V30 43113 H 4186.48 -0.471923 -1.47011 0
M  V30 43114 H 4188.44 1.65276 -3.75758 0
M  V30 43115 H 4187.1 1.76934 -2.59525 0
M  V30 43116 H 4186.29 1.17539 -4.90103 0
M  V30 43117 H 4185.89 -0.110764 -3.73836 0
M  V30 43118 H 4188.19 1.03508 -6.69546 0
M  V30 43119 H 4189.13 -0.443125 -7.06712 0
M  V30 43120 H 4189.54 0.526362 -5.62041 0
M  V30 43121 N 4188.94 1.51735 -0.425951 0
M  V30 43122 C 4190.18 2.01985 0.144307 0
M  V30 43123 C 4190.51 1.31073 1.43701 0
M  V30 43124 O 4189.77 0.410775 1.9134 0
M  V30 43125 C 4190.06 3.54901 0.421901 0
M  V30 43126 C 4189.73 4.44039 -0.783618 0
M  V30 43127 C 4188.39 4.68122 -1.11425 0
M  V30 43128 C 4190.74 4.96408 -1.58836 0
M  V30 43129 C 4188.07 5.4182 -2.2505 0
M  V30 43130 C 4190.42 5.71351 -2.71552 0
M  V30 43131 C 4189.09 5.93702 -3.05082 0
M  V30 43132 H 4188.36 0.739116 0.0528057 0
M  V30 43133 H 4191.01 1.82795 -0.570816 0
M  V30 43134 H 4189.31 3.72361 1.21879 0
M  V30 43135 H 4191.01 3.91307 0.876366 0
M  V30 43136 H 4187.6 4.25483 -0.515966 0
M  V30 43137 H 4191.78 4.77695 -1.34614 0
M  V30 43138 H 4187.04 5.57342 -2.51356 0
M  V30 43139 H 4191.21 6.10922 -3.34285 0
M  V30 43140 H 4188.84 6.50589 -3.93241 0
M  V30 43141 N 4190.41 0.156919 1.56817 0
M  V30 43142 C 4191.38 -0.764929 2.16059 0
M  V30 43143 C 4192.38 -1.16827 1.1049 0
M  V30 43144 O 4193.57 -1.08757 1.36079 0
M  V30 43145 C 4190.7 -2.0393 2.73176 0
M  V30 43146 H 4191.89 -0.249429 2.98861 0
M  V30 43147 H 4189.44 -0.09258 1.56026 0
M  V30 43148 H 4190.18 -2.59823 1.94068 0
M  V30 43149 H 4189.96 -1.7592 3.5042 0
M  V30 43150 H 4191.45 -2.69749 3.18787 0
M  V30 43151 N 4191.89 -1.57166 -0.116849 0
M  V30 43152 C 4193.3 -1.74119 -0.673762 0
M  V30 43153 C 4193.65 -0.775923 -1.80205 0
M  V30 43154 O 4192.78 0.0506638 -2.16341 0
M  V30 43155 C 4193.37 -3.15724 -1.22898 0
M  V30 43156 C 4191.93 -3.34175 -1.73216 0
M  V30 43157 C 4191.08 -2.69984 -0.63275 0
M  V30 43158 H 4194.03 -1.58325 0.109083 0
M  V30 43159 H 4194.05 -3.17393 -2.09861 0
M  V30 43160 H 4193.56 -3.85954 -0.407569 0
M  V30 43161 H 4191.66 -2.68991 -2.57827 0
M  V30 43162 H 4191.78 -4.42353 -1.84012 0
M  V30 43163 H 4190.14 -2.31278 -1.06689 0
M  V30 43164 H 4190.92 -3.4284 0.177714 0
M  V30 43165 N 4193.37 0.38709 -1.52772 0
M  V30 43166 C 4194.6 1.15309 -1.71789 0
M  V30 43167 C 4195.01 1.8367 -0.437114 0
M  V30 43168 O 4194.37 1.7275 0.588543 0
M  V30 43169 C 4194.42 2.19969 -2.86873 0
M  V30 43170 O 4194.14 1.54395 -4.09993 0
M  V30 43171 C 4195.64 3.09282 -3.17584 0
M  V30 43172 H 4192.86 0.345649 -0.575124 0
M  V30 43173 H 4195.41 0.452572 -1.99429 0
M  V30 43174 H 4193.56 2.85653 -2.61689 0
M  V30 43175 H 4193.98 2.23953 -4.74284 0
M  V30 43176 H 4195.45 3.78743 -4.01569 0
M  V30 43177 H 4195.93 3.72896 -2.32046 0
M  V30 43178 H 4196.53 2.4924 -3.44615 0
M  V30 43179 N 4194.85 1.43768 0.645648 0
M  V30 43180 C 4195.78 1.52327 1.76971 0
M  V30 43181 C 4196.76 0.377345 1.65862 0
M  V30 43182 O 4197.94 0.595564 1.84842 0
M  V30 43183 C 4195.07 1.45315 3.15437 0
M  V30 43184 C 4194.03 2.58235 3.41319 0
M  V30 43185 C 4193.35 2.36276 4.79664 0
M  V30 43186 C 4194.65 4.00452 3.35314 0
M  V30 43187 H 4196.35 2.46411 1.70065 0
M  V30 43188 H 4193.89 1.18596 0.816763 0
M  V30 43189 H 4195.85 1.49906 3.93835 0
M  V30 43190 H 4194.57 0.4774 3.23092 0
M  V30 43191 H 4193.23 2.5301 2.65296 0
M  V30 43192 H 4192.88 1.36926 4.84004 0
M  V30 43193 H 4192.58 3.11975 4.97941 0
M  V30 43194 H 4194.1 2.42662 5.6031 0
M  V30 43195 H 4195.52 4.07124 4.03637 0
M  V30 43196 H 4193.91 4.76238 3.65127 0
M  V30 43197 H 4194.98 4.25051 2.33366 0
M  V30 43198 N 4196.33 -0.884721 1.30424 0
M  V30 43199 C 4197.57 -1.63902 1.20448 0
M  V30 43200 C 4197.93 -1.90917 -0.238433 0
M  V30 43201 O 4197.22 -1.51919 -1.16752 0
M  V30 43202 C 4197.41 -2.98411 1.96687 0
M  V30 43203 C 4197.24 -2.84528 3.48244 0
M  V30 43204 C 4196.01 -2.84497 4.176 0
M  V30 43205 C 4198.21 -2.60458 4.43471 0
M  V30 43206 N 4196.19 -2.61507 5.55416 0
M  V30 43207 C 4197.56 -2.46593 5.68852 0
M  V30 43208 C 4199.62 -2.45684 4.33063 0
M  V30 43209 C 4198.32 -2.19457 6.85004 0
M  V30 43210 C 4200.35 -2.19934 5.48983 0
M  V30 43211 C 4199.71 -2.06846 6.73345 0
M  V30 43212 H 4195.81 -0.604727 0.495812 0
M  V30 43213 H 4198.39 -1.04252 1.64437 0
M  V30 43214 H 4196.56 -3.56093 1.55089 0
M  V30 43215 H 4198.3 -3.63035 1.78851 0
M  V30 43216 H 4195.05 -2.96336 3.69434 0
M  V30 43217 H 4195.47 -2.53024 6.27939 0
M  V30 43218 H 4200.12 -2.54538 3.37594 0
M  V30 43219 H 4197.83 -2.09341 7.80514 0
M  V30 43220 H 4201.42 -2.09325 5.42839 0
M  V30 43221 H 4200.3 -1.872 7.61529 0
M  V30 43222 N 4197.8 -1.13144 -1.09709 0
M  V30 43223 C 4198.77 -0.809152 -2.14442 0
M  V30 43224 C 4199.77 0.180022 -1.59789 0
M  V30 43225 O 4200.96 -0.0466992 -1.74137 0
M  V30 43226 C 4198.09 -0.203774 -3.4029 0
M  V30 43227 H 4199.28 -1.73718 -2.44463 0
M  V30 43228 H 4196.83 -0.935685 -1.25198 0
M  V30 43229 H 4197.57 0.733611 -3.15893 0
M  V30 43230 H 4197.35 -0.91607 -3.81249 0
M  V30 43231 H 4198.84 0.00496511 -4.176 0
M  V30 43232 N 4199.28 1.27635 -0.924498 0
M  V30 43233 C 4200.7 1.46885 -0.624256 0
M  V30 43234 C 4200.9 1.83729 0.827397 0
M  V30 43235 O 4199.95 1.94879 1.60557 0
M  V30 43236 C 4201.27 2.56375 -1.57138 0
M  V30 43237 C 4202.82 2.70238 -1.57926 0
M  V30 43238 C 4203.29 3.82882 -2.51327 0
M  V30 43239 N 4204.78 3.90251 -2.49516 0
M  V30 43240 C 4205.52 4.76822 -3.18478 0
M  V30 43241 N 4205.01 5.67905 -3.96807 0
M  V30 43242 N 4206.81 4.70524 -3.07512 0
M  V30 43243 H 4198.96 1.02003 -1.86304 0
M  V30 43244 H 4201.22 0.509118 -0.799689 0
M  V30 43245 H 4200.93 2.36088 -2.60683 0
M  V30 43246 H 4200.8 3.53698 -1.31064 0
M  V30 43247 H 4203.19 2.89908 -0.551141 0
M  V30 43248 H 4203.27 1.73412 -1.88048 0
M  V30 43249 H 4202.91 3.63966 -3.54247 0
M  V30 43250 H 4202.84 4.79128 -2.18503 0
M  V30 43251 H 4205.33 3.25121 -1.92626 0
M  V30 43252 H 4205.65 6.30816 -4.46421 0
M  V30 43253 H 4203.99 5.67711 -4.00911 0
M  V30 43254 H 4207.18 3.98364 -2.45813 0
M  V30 43255 H 4207.35 5.37775 -3.61527 0
M  V30 43256 N 4200.76 0.689652 1.41709 0
M  V30 43257 C 4201.69 -0.0298393 2.2818 0
M  V30 43258 C 4202.67 -0.793884 1.41902 0
M  V30 43259 O 4203.86 -0.785932 1.71334 0
M  V30 43260 C 4200.98 -1.04959 3.22027 0
M  V30 43261 C 4200.03 -0.379408 4.24809 0
M  V30 43262 S 4200.86 0.873885 5.28321 0
M  V30 43263 C 4202.02 -0.144422 6.25733 0
M  V30 43264 H 4202.25 0.703581 2.88855 0
M  V30 43265 H 4199.78 0.479712 1.46759 0
M  V30 43266 H 4201.74 -1.63281 3.76629 0
M  V30 43267 H 4200.4 -1.75555 2.6046 0
M  V30 43268 H 4199.6 -1.14938 4.90719 0
M  V30 43269 H 4199.2 0.130588 3.73772 0
M  V30 43270 H 4201.49 -0.999555 6.70086 0
M  V30 43271 H 4202.43 0.480598 7.06467 0
M  V30 43272 H 4202.84 -0.496548 5.62312 0
M  V30 43273 N 4202.24 -1.51507 0.433991 0
M  V30 43274 C 4203.49 -2.01247 -0.135078 0
M  V30 43275 C 4203.8 -1.32291 -1.44078 0
M  V30 43276 O 4205.01 -1.72982 -2.09259 0
M  V30 43277 C 4203.46 -3.58719 -0.291272 0
M  V30 43278 C 4203.07 -4.3661 1.0038 0
M  V30 43279 C 4204.81 -4.16617 -0.814291 0
M  V30 43280 C 4202.72 -5.85779 0.813427 0
M  V30 43281 H 4201.65 -0.752045 -0.0542561 0
M  V30 43282 H 4204.3 -1.74642 0.563242 0
M  V30 43283 H 4202.68 -3.81757 -1.05252 0
M  V30 43284 H 4203.86 -4.2532 1.77311 0
M  V30 43285 H 4202.17 -3.90149 1.45509 0
M  V30 43286 H 4204.77 -5.2577 -0.973154 0
M  V30 43287 H 4205.11 -3.75574 -1.79583 0
M  V30 43288 H 4205.65 -3.97644 -0.111449 0
M  V30 43289 H 4202.39 -6.31228 1.76724 0
M  V30 43290 H 4201.91 -5.99741 0.0838494 0
M  V30 43291 H 4203.58 -6.45325 0.465309 0
M  V30 43292 N 4203.72 -0.165233 -1.56731 0
M  V30 43293 C 4204.65 0.763184 -2.20676 0
M  V30 43294 C 4205.63 1.24364 -1.1605 0
M  V30 43295 O 4206.81 1.2979 -1.44458 0
M  V30 43296 C 4203.94 1.99515 -2.84273 0
M  V30 43297 C 4202.9 1.65079 -3.94884 0
M  V30 43298 C 4202.22 2.9569 -4.45501 0
M  V30 43299 C 4203.52 0.883452 -5.14774 0
M  V30 43300 H 4205.22 0.230202 -2.98514 0
M  V30 43301 H 4202.76 0.109282 -1.43585 0
M  V30 43302 H 4204.72 2.64961 -3.27679 0
M  V30 43303 H 4203.44 2.55217 -2.03794 0
M  V30 43304 H 4202.1 1.02004 -3.52123 0
M  V30 43305 H 4201.75 3.4942 -3.61821 0
M  V30 43306 H 4201.45 2.73405 -5.20119 0
M  V30 43307 H 4202.97 3.62176 -4.9159 0
M  V30 43308 H 4204.38 1.44037 -5.54911 0
M  V30 43309 H 4202.78 0.759864 -5.9527 0
M  V30 43310 H 4203.85 -0.121389 -4.84748 0
M  V30 43311 N 4205.19 1.57226 0.108512 0
M  V30 43312 C 4206.13 1.96324 1.16328 0
M  V30 43313 C 4207.11 0.834435 1.39556 0
M  V30 43314 O 4208.29 1.09355 1.53538 0
M  V30 43315 C 4205.42 2.26849 2.5151 0
M  V30 43316 C 4204.46 3.49358 2.44645 0
M  V30 43317 S 4205.3 5.01566 1.87594 0
M  V30 43318 C 4206.45 5.35254 3.24428 0
M  V30 43319 H 4206.68 2.85482 0.829909 0
M  V30 43320 H 4204.22 1.51138 0.315679 0
M  V30 43321 H 4206.18 2.45112 3.29288 0
M  V30 43322 H 4204.84 1.38286 2.82021 0
M  V30 43323 H 4204.03 3.68115 3.44249 0
M  V30 43324 H 4203.63 3.30535 1.74993 0
M  V30 43325 H 4205.92 5.31078 4.20669 0
M  V30 43326 H 4206.87 6.36398 3.10488 0
M  V30 43327 H 4207.27 4.62721 3.23341 0
M  V30 43328 N 4206.67 -0.378982 1.52975 0
M  V30 43329 C 4207.9 -1.14397 1.72398 0
M  V30 43330 C 4208.32 -1.83436 0.446848 0
M  V30 43331 O 4207.67 -1.73059 -0.579373 0
M  V30 43332 C 4207.72 -2.18444 2.88035 0
M  V30 43333 O 4207.44 -1.52218 4.10806 0
M  V30 43334 C 4208.95 -3.07593 3.1922 0
M  V30 43335 H 4206.17 -0.342594 0.576949 0
M  V30 43336 H 4208.71 -0.44199 1.99666 0
M  V30 43337 H 4206.86 -2.84262 2.632 0
M  V30 43338 H 4207.28 -2.21434 4.75465 0
M  V30 43339 H 4208.75 -3.76608 4.03572 0
M  V30 43340 H 4209.23 -3.7166 2.3402 0
M  V30 43341 H 4209.84 -2.47409 3.45932 0
M  V30 43342 N 4208.15 -1.44108 -0.638015 0
M  V30 43343 C 4209.1 -1.46882 -1.74384 0
M  V30 43344 C 4210.08 -0.335415 -1.57365 0
M  V30 43345 O 4211.28 -0.580252 -1.67219 0
M  V30 43346 C 4208.41 -1.40924 -3.13042 0
M  V30 43347 C 4207.49 -2.59353 -3.35555 0
M  V30 43348 N 4207.88 -3.84634 -3.28466 0
M  V30 43349 C 4206.18 -2.54402 -3.66327 0
M  V30 43350 C 4206.88 -4.63506 -3.51479 0
M  V30 43351 N 4205.86 -3.94472 -3.74023 0
M  V30 43352 H 4209.66 -2.416 -1.67351 0
M  V30 43353 H 4207.17 -1.38974 -0.840237 0
M  V30 43354 H 4209.17 -1.40995 -3.92334 0
M  V30 43355 H 4207.83 -0.472385 -3.21245 0
M  V30 43356 H 4208.84 -4.16702 -3.07538 0
M  V30 43357 H 4205.52 -1.69478 -3.81554 0
M  V30 43358 H 4206.91 -5.72532 -3.51649 0
M  V30 43359 N 4209.63 0.877792 -1.30891 0
M  V30 43360 C 4210.88 1.6302 -1.20128 0
M  V30 43361 C 4211.2 1.92984 0.24238 0
M  V30 43362 O 4210.46 1.55444 1.18893 0
M  V30 43363 C 4210.76 2.97364 -1.98266 0
M  V30 43364 C 4210.42 2.86924 -3.4783 0
M  V30 43365 C 4209.09 2.83783 -3.88613 0
M  V30 43366 C 4211.44 2.74527 -4.4304 0
M  V30 43367 C 4208.77 2.66095 -5.22887 0
M  V30 43368 C 4211.12 2.58376 -5.77429 0
M  V30 43369 C 4209.78 2.53614 -6.17443 0
M  V30 43370 H 4209.05 0.596533 -0.439579 0
M  V30 43371 H 4211.7 1.02004 -1.62072 0
M  V30 43372 H 4210 3.62371 -1.48979 0
M  V30 43373 H 4211.7 3.54557 -1.87325 0
M  V30 43374 H 4208.29 2.90181 -3.15425 0
M  V30 43375 H 4212.47 2.76014 -4.12468 0
M  V30 43376 H 4207.73 2.60828 -5.52973 0
M  V30 43377 H 4211.9 2.47759 -6.50837 0
M  V30 43378 H 4209.53 2.39666 -7.21432 0
M  V30 43379 N 4211.11 1.13725 1.09108 0
M  V30 43380 C 4212.35 0.901016 1.8135 0
M  V30 43381 C 4212.68 -0.572716 1.85877 0
M  V30 43382 O 4211.94 -1.44001 1.32522 0
M  V30 43383 C 4212.24 1.4381 3.2719 0
M  V30 43384 C 4211.9 2.92924 3.42792 0
M  V30 43385 C 4210.56 3.33635 3.46758 0
M  V30 43386 C 4212.92 3.88843 3.4706 0
M  V30 43387 C 4210.24 4.68944 3.52574 0
M  V30 43388 C 4212.6 5.23999 3.54411 0
M  V30 43389 C 4211.26 5.64233 3.56647 0
M  V30 43390 H 4210.53 0.329705 0.663608 0
M  V30 43391 H 4213.18 1.41973 1.28514 0
M  V30 43392 H 4211.48 0.84016 3.82686 0
M  V30 43393 H 4213.18 1.23136 3.81626 0
M  V30 43394 H 4209.77 2.60444 3.40392 0
M  V30 43395 H 4213.95 3.58475 3.43234 0
M  V30 43396 H 4209.21 4.99487 3.52594 0
M  V30 43397 H 4213.38 5.98137 3.56659 0
M  V30 43398 H 4211.01 6.69067 3.60906 0
M  V30 43399 N 4212.58 -1.27143 0.931254 0
M  V30 43400 C 4213.81 -1.98848 0.589428 0
M  V30 43401 C 4214.23 -1.68977 -0.82634 0
M  V30 43402 O 4213.59 -0.932077 -1.55506 0
M  V30 43403 C 4213.64 -3.51008 0.826197 0
M  V30 43404 O 4212.74 -4.12262 -0.106508 0
M  V30 43405 H 4212.09 -0.624159 0.226543 0
M  V30 43406 H 4214.62 -1.61862 1.25148 0
M  V30 43407 H 4214.63 -4.01175 0.743164 0
M  V30 43408 H 4213.3 -3.72081 1.85819 0
M  V30 43409 H 4211.88 -3.7289 0.0267391 0
M  V30 43410 N 4214.06 -0.697157 -1.41342 0
M  V30 43411 C 4215.31 -0.229134 -2.01501 0
M  V30 43412 C 4215.64 1.16873 -1.55095 0
M  V30 43413 O 4214.92 1.78917 -0.762831 0
M  V30 43414 C 4215.2 -0.288587 -3.58942 0
M  V30 43415 C 4215.05 -1.7235 -4.1547 0
M  V30 43416 C 4216.37 0.350709 -4.387 0
M  V30 43417 H 4213.49 -0.0847345 -0.732113 0
M  V30 43418 H 4216.13 -0.886177 -1.68068 0
M  V30 43419 H 4214.28 0.270848 -3.87555 0
M  V30 43420 H 4215.96 -2.33691 -3.97726 0
M  V30 43421 H 4214.2 -2.25715 -3.70452 0
M  V30 43422 H 4214.87 -1.71663 -5.24629 0
M  V30 43423 H 4217.35 -0.125755 -4.1591 0
M  V30 43424 H 4216.22 0.278573 -5.48193 0
M  V30 43425 H 4216.48 1.43164 -4.18278 0
M  V30 43426 N 4215.54 1.51274 -0.44202 0
M  V30 43427 C 4216.47 2.30747 0.357517 0
M  V30 43428 C 4217.45 1.36364 1.01681 0
M  V30 43429 O 4218.64 1.65284 1.01955 0
M  V30 43430 C 4215.77 3.15289 1.45636 0
M  V30 43431 C 4214.72 4.17989 0.920304 0
M  V30 43432 C 4214.05 4.91082 2.11525 0
M  V30 43433 C 4215.35 5.22277 -0.0484859 0
M  V30 43434 H 4217.04 2.97835 -0.305702 0
M  V30 43435 H 4214.59 1.43233 -0.148464 0
M  V30 43436 H 4216.54 3.69668 2.02295 0
M  V30 43437 H 4215.26 2.46031 2.14794 0
M  V30 43438 H 4213.92 3.64668 0.375898 0
M  V30 43439 H 4213.57 4.18322 2.79313 0
M  V30 43440 H 4213.27 5.6053 1.76293 0
M  V30 43441 H 4214.8 5.48286 2.68729 0
M  V30 43442 H 4216.21 5.717 0.427952 0
M  V30 43443 H 4214.61 5.9928 -0.313609 0
M  V30 43444 H 4215.68 4.74817 -0.983694 0
M  V30 43445 N 4217.02 0.173543 1.56642 0
M  V30 43446 C 4218.27 -0.47094 1.96125 0
M  V30 43447 C 4218.58 -1.64238 1.06232 0
M  V30 43448 O 4219.79 -2.35324 1.35406 0
M  V30 43449 C 4218.24 -0.889223 3.48742 0
M  V30 43450 C 4217.85 0.256741 4.47264 0
M  V30 43451 C 4219.6 -1.502 3.97039 0
M  V30 43452 C 4217.5 -0.181297 5.91122 0
M  V30 43453 H 4216.43 -0.179711 0.73227 0
M  V30 43454 H 4219.08 0.262128 1.81618 0
M  V30 43455 H 4217.47 -1.67833 3.58675 0
M  V30 43456 H 4218.64 1.03409 4.49047 0
M  V30 43457 H 4216.95 0.779618 4.09037 0
M  V30 43458 H 4219.55 -1.84181 5.01977 0
M  V30 43459 H 4219.89 -2.40072 3.40104 0
M  V30 43460 H 4220.43 -0.777282 3.90132 0
M  V30 43461 H 4217.17 0.682706 6.51935 0
M  V30 43462 H 4216.69 -0.923959 5.92641 0
M  V30 43463 H 4218.37 -0.624419 6.4398 0
M  V30 43464 N 4218.5 -1.57281 -0.100172 0
M  V30 43465 C 4219.46 -2.00745 -1.10609 0
M  V30 43466 C 4220.46 -0.900222 -1.33239 0
M  V30 43467 O 4221.65 -1.16582 -1.29438 0
M  V30 43468 C 4218.78 -2.36379 -2.45638 0
M  V30 43469 H 4219.98 -2.90827 -0.732092 0
M  V30 43470 H 4217.53 -1.52443 -0.345064 0
M  V30 43471 H 4218.26 -1.49235 -2.87923 0
M  V30 43472 H 4218.05 -3.1715 -2.30561 0
M  V30 43473 H 4219.54 -2.7068 -3.17997 0
M  V30 43474 N 4219.98 0.370864 -1.53174 0
M  V30 43475 C 4221.39 0.712182 -1.42829 0
M  V30 43476 C 4221.59 1.93471 -0.563145 0
M  V30 43477 O 4220.65 2.52462 -0.0435505 0
M  V30 43478 C 4221.96 0.930325 -2.85947 0
M  V30 43479 C 4223.51 1.03067 -2.95544 0
M  V30 43480 C 4223.98 1.28132 -4.39712 0
M  V30 43481 N 4225.47 1.34913 -4.43117 0
M  V30 43482 C 4226.21 1.56007 -5.51769 0
M  V30 43483 N 4225.71 1.74452 -6.70476 0
M  V30 43484 N 4227.5 1.58334 -5.39339 0
M  V30 43485 H 4219.65 -0.433317 -2.07933 0
M  V30 43486 H 4221.91 -0.131773 -0.938797 0
M  V30 43487 H 4221.62 0.103904 -3.51546 0
M  V30 43488 H 4221.49 1.83992 -3.29282 0
M  V30 43489 H 4223.88 1.84764 -2.30101 0
M  V30 43490 H 4223.96 0.0985807 -2.5561 0
M  V30 43491 H 4223.6 0.469379 -5.05726 0
M  V30 43492 H 4223.53 2.22654 -4.77214 0
M  V30 43493 H 4226.03 1.22294 -3.57565 0
M  V30 43494 H 4226.34 1.90106 -7.49052 0
M  V30 43495 H 4224.68 1.71641 -6.73472 0
M  V30 43496 H 4227.87 1.43488 -4.45566 0
M  V30 43497 H 4228.05 1.74433 -6.24081 0
M  V30 43498 N 4221.45 1.44444 0.630363 0
M  V30 43499 C 4222.73 1.37743 1.38875 0
M  V30 43500 C 4223.11 0.0365289 2.11068 0
M  V30 43501 O 4222.46 -0.980904 2.06375 0
M  V30 43502 C 4222.67 2.5761 2.35453 0
M  V30 43503 C 4224.02 3.01707 2.98761 0
M  V30 43504 O 4225.04 2.5782 2.45779 0
M  V30 43505 O 4223.9 3.77803 3.94876 0
M  V30 43506 H 4220.99 0.545501 0.621577 0
M  V30 43507 H 4223.54 1.56535 0.655355 0
M  V30 43508 H 4222.31 3.46811 1.81212 0
M  V30 43509 H 4221.93 2.41035 3.16209 0
M  V30 43510 N 4222.93 -0.870838 1.31355 0
M  V30 43511 C 4223.86 -1.98406 1.14751 0
M  V30 43512 C 4224.88 -1.62568 0.0868309 0
M  V30 43513 O 4226.07 -1.75343 0.33424 0
M  V30 43514 C 4223.17 -3.30926 0.73085 0
M  V30 43515 C 4222.34 -3.9511 1.87635 0
M  V30 43516 C 4221.4 -5.05945 1.44589 0
M  V30 43517 O 4220.42 -5.26812 2.1554 0
M  V30 43518 N 4221.63 -5.79545 0.332799 0
M  V30 43519 H 4224.39 -2.13195 2.10637 0
M  V30 43520 H 4221.95 -1.04476 1.23678 0
M  V30 43521 H 4223.94 -4.02456 0.425608 0
M  V30 43522 H 4222.51 -3.12302 -0.136371 0
M  V30 43523 H 4221.73 -3.16572 2.34896 0
M  V30 43524 H 4223.02 -4.34729 2.64363 0
M  V30 43525 H 4222.42 -5.65111 -0.258089 0
M  V30 43526 H 4220.98 -6.51742 0.087086 0
M  V30 43527 N 4224.41 -1.14302 -1.08503 0
M  V30 43528 C 4225.34 -0.851807 -2.17409 0
M  V30 43529 C 4226.32 0.192789 -1.69004 0
M  V30 43530 O 4227.51 0.0496757 -1.94136 0
M  V30 43531 C 4224.64 -0.327425 -3.45753 0
M  V30 43532 C 4223.59 -1.30735 -4.07544 0
M  V30 43533 C 4222.92 -0.642318 -5.30828 0
M  V30 43534 C 4224.22 -2.66927 -4.4894 0
M  V30 43535 H 4225.91 -1.76249 -2.42026 0
M  V30 43536 H 4223.46 -0.848854 -1.16321 0
M  V30 43537 H 4225.41 -0.111311 -4.21253 0
M  V30 43538 H 4224.13 0.618681 -3.20687 0
M  V30 43539 H 4222.79 -1.50962 -3.34075 0
M  V30 43540 H 4222.44 0.309564 -5.02047 0
M  V30 43541 H 4222.14 -1.29618 -5.73126 0
M  V30 43542 H 4223.66 -0.435705 -6.09043 0
M  V30 43543 H 4225.08 -2.50613 -5.15622 0
M  V30 43544 H 4223.47 -3.28577 -5.02153 0
M  V30 43545 H 4224.54 -3.23877 -3.60876 0
M  V30 43546 N 4225.89 1.26648 -0.937984 0
M  V30 43547 C 4226.8 2.30223 -0.451063 0
M  V30 43548 C 4227.81 1.67437 0.473373 0
M  V30 43549 O 4228.99 1.9827 0.35368 0
M  V30 43550 C 4226.05 3.45577 0.278882 0
M  V30 43551 C 4225.12 4.23853 -0.681723 0
M  V30 43552 C 4224.35 5.33698 0.0134818 0
M  V30 43553 O 4224.57 5.56958 1.23101 0
M  V30 43554 O 4223.51 5.98231 -0.663591 0
M  V30 43555 H 4227.33 2.7393 -1.31134 0
M  V30 43556 H 4224.92 1.31787 -0.70374 0
M  V30 43557 H 4226.8 4.15709 0.690189 0
M  V30 43558 H 4225.47 3.03905 1.1146 0
M  V30 43559 H 4224.38 3.56214 -1.14291 0
M  V30 43560 H 4225.71 4.69265 -1.48496 0
M  V30 43561 N 4227.37 0.704643 1.4097 0
M  V30 43562 C 4228.3 0.00579927 2.29199 0
M  V30 43563 C 4229.31 -0.735077 1.4526 0
M  V30 43564 O 4230.5 -0.584273 1.68667 0
M  V30 43565 C 4227.6 -1.01598 3.23313 0
M  V30 43566 C 4226.77 -0.342875 4.36054 0
M  V30 43567 C 4225.83 -1.26852 5.10681 0
M  V30 43568 O 4224.86 -0.757456 5.64138 0
M  V30 43569 N 4226.06 -2.60034 5.19001 0
M  V30 43570 H 4228.82 0.763315 2.89816 0
M  V30 43571 H 4226.39 0.551394 1.52221 0
M  V30 43572 H 4228.38 -1.63715 3.70107 0
M  V30 43573 H 4226.95 -1.67495 2.6394 0
M  V30 43574 H 4226.17 0.458323 3.91527 0
M  V30 43575 H 4227.46 0.124797 5.08647 0
M  V30 43576 H 4226.85 -3.04064 4.77034 0
M  V30 43577 H 4225.41 -3.17323 5.69341 0
M  V30 43578 N 4228.84 -1.51038 0.450036 0
M  V30 43579 C 4229.81 -2.26612 -0.343449 0
M  V30 43580 C 4230.81 -1.30552 -0.938766 0
M  V30 43581 O 4232 -1.54158 -0.811231 0
M  V30 43582 C 4229.13 -3.06753 -1.48713 0
M  V30 43583 H 4230.32 -2.98198 0.319048 0
M  V30 43584 H 4227.88 -1.54969 0.203527 0
M  V30 43585 H 4228.61 -2.39614 -2.18531 0
M  V30 43586 H 4228.4 -3.77323 -1.0663 0
M  V30 43587 H 4229.89 -3.63965 -2.04742 0
M  V30 43588 N 4230.32 -0.181847 -1.56547 0
M  V30 43589 C 4231.25 0.739735 -2.21473 0
M  V30 43590 C 4232.23 1.23126 -1.17363 0
M  V30 43591 O 4233.42 1.28251 -1.45827 0
M  V30 43592 C 4230.55 1.96489 -2.86373 0
M  V30 43593 C 4229.5 1.60881 -3.96612 0
M  V30 43594 C 4228.83 2.90949 -4.48612 0
M  V30 43595 C 4230.13 0.828804 -5.15682 0
M  V30 43596 H 4231.82 0.198527 -2.98741 0
M  V30 43597 H 4229.37 0.0940473 -1.43693 0
M  V30 43598 H 4231.32 2.61471 -3.30471 0
M  V30 43599 H 4230.05 2.53041 -2.06489 0
M  V30 43600 H 4228.7 0.982631 -3.53185 0
M  V30 43601 H 4228.35 3.45563 -3.65507 0
M  V30 43602 H 4228.05 2.67873 -5.22989 0
M  V30 43603 H 4229.58 3.56942 -4.95404 0
M  V30 43604 H 4230.99 1.38144 -5.56407 0
M  V30 43605 H 4229.39 0.696685 -5.96042 0
M  V30 43606 H 4230.46 -0.172796 -4.84592 0
M  V30 43607 N 4231.8 1.57332 0.09183 0
M  V30 43608 C 4233.08 1.77276 0.826585 0
M  V30 43609 C 4233.46 0.764345 1.96776 0
M  V30 43610 O 4232.81 -0.20652 2.27565 0
M  V30 43611 C 4233.02 3.2315 1.31814 0
M  V30 43612 C 4234.36 3.86423 1.75961 0
M  V30 43613 O 4235.39 3.26919 1.41429 0
M  V30 43614 O 4234.25 4.91067 2.39823 0
M  V30 43615 H 4231.34 0.726828 0.394524 0
M  V30 43616 H 4233.89 1.69541 0.0734585 0
M  V30 43617 H 4232.66 3.88084 0.500665 0
M  V30 43618 H 4232.28 3.35531 2.13318 0
M  V30 43619 N 4233.28 -0.362736 1.53369 0
M  V30 43620 C 4234.52 -1.11373 1.71392 0
M  V30 43621 C 4234.88 -1.86472 0.457418 0
M  V30 43622 O 4236.08 -2.63832 0.514387 0
M  V30 43623 C 4234.35 -2.04521 2.93097 0
M  V30 43624 S 4235.91 -2.87103 3.31839 0
M  V30 43625 H 4232.73 -0.376615 0.60306 0
M  V30 43626 H 4235.33 -0.394613 1.91476 0
M  V30 43627 H 4234.04 -1.48118 3.82739 0
M  V30 43628 H 4233.57 -2.80901 2.75423 0
M  V30 43629 H 4235.58 -4.06837 2.84075 0
M  V30 43630 N 4234.76 -1.44777 -0.622694 0
M  V30 43631 C 4235.67 -1.54799 -1.7628 0
M  V30 43632 C 4236.68 -0.433194 -1.68521 0
M  V30 43633 O 4237.86 -0.691747 -1.89148 0
M  V30 43634 C 4234.92 -1.49743 -3.12695 0
M  V30 43635 C 4233.98 -2.72141 -3.32021 0
M  V30 43636 C 4233.22 -2.67316 -4.61928 0
M  V30 43637 O 4233.44 -1.73793 -5.43279 0
M  V30 43638 O 4232.37 -3.58296 -4.8364 0
M  V30 43639 H 4236.2 -2.51136 -1.70776 0
M  V30 43640 H 4233.79 -1.27118 -0.784951 0
M  V30 43641 H 4235.67 -1.49476 -3.93998 0
M  V30 43642 H 4234.34 -0.565527 -3.18722 0
M  V30 43643 H 4233.25 -2.77973 -2.50363 0
M  V30 43644 H 4234.58 -3.64406 -3.30861 0
M  V30 43645 N 4236.23 0.863859 -1.31815 0
M  V30 43646 C 4237.48 1.61219 -1.21208 0
M  V30 43647 C 4237.8 1.94278 0.227039 0
M  V30 43648 O 4239 2.67662 0.454875 0
M  V30 43649 C 4237.46 2.90668 -2.12226 0
M  V30 43650 C 4237.07 2.65069 -3.61168 0
M  V30 43651 C 4238.81 3.68671 -2.10433 0
M  V30 43652 C 4236.72 3.90463 -4.44176 0
M  V30 43653 H 4235.65 0.604931 -0.450082 0
M  V30 43654 H 4238.3 0.95464 -1.56713 0
M  V30 43655 H 4236.68 3.57831 -1.69626 0
M  V30 43656 H 4237.85 2.06276 -4.12052 0
M  V30 43657 H 4236.17 2.00411 -3.64999 0
M  V30 43658 H 4238.77 4.61704 -2.69692 0
M  V30 43659 H 4239.11 4.01695 -1.093 0
M  V30 43660 H 4239.64 3.084 -2.51266 0
M  V30 43661 H 4236.38 3.62585 -5.46088 0
M  V30 43662 H 4235.9 4.48686 -3.98047 0
M  V30 43663 H 4237.58 4.58291 -4.56704 0
M  V30 43664 N 4237.71 1.14875 1.07895 0
M  V30 43665 C 4238.94 0.94251 1.83849 0
M  V30 43666 C 4239.35 -0.512454 1.82128 0
M  V30 43667 O 4238.69 -1.36703 1.22711 0
M  V30 43668 C 4238.76 1.3725 3.32269 0
M  V30 43669 C 4238.42 2.84407 3.57718 0
M  V30 43670 C 4239.42 3.82498 3.52124 0
M  V30 43671 C 4237.1 3.21944 3.85561 0
M  V30 43672 C 4239.1 5.16133 3.74013 0
M  V30 43673 C 4236.78 4.55753 4.07103 0
M  V30 43674 C 4237.78 5.52656 4.01323 0
M  V30 43675 O 4237.47 6.84049 4.22294 0
M  V30 43676 H 4237.2 0.33514 0.587075 0
M  V30 43677 H 4239.75 1.52911 1.3714 0
M  V30 43678 H 4237.98 0.729257 3.79761 0
M  V30 43679 H 4239.67 1.13623 3.89672 0
M  V30 43680 H 4240.44 3.54844 3.30622 0
M  V30 43681 H 4236.32 2.47107 3.89177 0
M  V30 43682 H 4239.86 5.91757 3.69417 0
M  V30 43683 H 4235.76 4.83124 4.2809 0
M  V30 43684 H 4236.53 6.90385 4.39672 0
M  V30 43685 N 4239.19 -1.26148 0.944687 0
M  V30 43686 C 4240.44 -1.93206 0.592953 0
M  V30 43687 C 4240.76 -1.7445 -0.871326 0
M  V30 43688 O 4240.03 -1.10221 -1.61951 0
M  V30 43689 H 4238.61 -0.714996 0.216309 0
M  V30 43690 H 4241.27 -1.53517 1.20077 0
M  V30 43691 H 4240.37 -3.01305 0.813735 0
M  V30 43692 N 4240.67 -0.712109 -1.40594 0
M  V30 43693 C 4241.63 -0.0660772 -2.29105 0
M  V30 43694 C 4242.63 0.690966 -1.45197 0
M  V30 43695 O 4243.82 0.523387 -1.66151 0
M  V30 43696 C 4240.95 0.916403 -3.28352 0
M  V30 43697 H 4242.15 -0.84559 -2.87732 0
M  V30 43698 H 4239.7 -0.476559 -1.48858 0
M  V30 43699 H 4240.43 1.72309 -2.74736 0
M  V30 43700 H 4240.22 0.376488 -3.90288 0
M  V30 43701 H 4241.71 1.36571 -3.94637 0
M  V30 43702 N 4242.15 1.50797 -0.45804 0
M  V30 43703 C 4243.39 2.04154 0.100341 0
M  V30 43704 C 4243.75 1.33339 1.38148 0
M  V30 43705 O 4244.95 1.77179 2.02141 0
M  V30 43706 C 4243.22 3.56196 0.293132 0
M  V30 43707 S 4244.78 4.31223 0.811945 0
M  V30 43708 H 4241.6 0.710656 0.0221158 0
M  V30 43709 H 4244.2 1.85335 -0.622192 0
M  V30 43710 H 4242.91 4.05295 -0.645291 0
M  V30 43711 H 4242.44 3.79345 1.04215 0
M  V30 43712 H 4244.45 4.50175 2.08703 0
M  V30 43713 N 4243.63 0.190147 1.56449 0
M  V30 43714 C 4244.86 -0.455002 2.01527 0
M  V30 43715 C 4245.26 -1.56074 1.06946 0
M  V30 43716 O 4244.61 -1.83583 0.0656449 0
M  V30 43717 C 4244.67 -1.07631 3.4301 0
M  V30 43718 C 4244.33 -0.109916 4.56868 0
M  V30 43719 C 4245.33 0.678845 5.15449 0
M  V30 43720 C 4243.01 -0.000270495 5.023 0
M  V30 43721 C 4245.01 1.56427 6.17907 0
M  V30 43722 C 4242.7 0.888714 6.04603 0
M  V30 43723 C 4243.69 1.66955 6.6228 0
M  V30 43724 O 4243.38 2.54365 7.62597 0
M  V30 43725 H 4243.11 -0.119064 0.665432 0
M  V30 43726 H 4245.67 0.294645 2.03276 0
M  V30 43727 H 4243.9 -1.87445 3.38233 0
M  V30 43728 H 4245.59 -1.6256 3.71926 0
M  V30 43729 H 4246.35 0.604413 4.81219 0
M  V30 43730 H 4242.23 -0.59786 4.57107 0
M  V30 43731 H 4245.78 2.17418 6.62854 0
M  V30 43732 H 4241.67 0.964279 6.38257 0
M  V30 43733 H 4242.44 2.48089 7.79996 0
M  V30 43734 N 4245.1 -1.57379 -0.083485 0
M  V30 43735 C 4246.33 -1.9127 -0.801914 0
M  V30 43736 C 4246.75 -0.785499 -1.70914 0
M  V30 43737 O 4246.11 0.262326 -1.79392 0
M  V30 43738 C 4246.16 -3.24072 -1.58145 0
M  V30 43739 O 4245.26 -3.1248 -2.69128 0
M  V30 43740 H 4244.6 -0.626651 -0.219555 0
M  V30 43741 H 4247.13 -2.04525 -0.0552302 0
M  V30 43742 H 4247.14 -3.57662 -1.9632 0
M  V30 43743 H 4245.82 -4.05694 -0.915723 0
M  V30 43744 H 4244.4 -2.90426 -2.33896 0
M  V30 43745 N 4246.58 0.354597 -1.53559 0
M  V30 43746 C 4247.83 1.09343 -1.69491 0
M  V30 43747 C 4248.14 1.90139 -0.458969 0
M  V30 43748 O 4249.35 2.66874 -0.499028 0
M  V30 43749 C 4247.81 1.99319 -2.99667 0
M  V30 43750 C 4247.41 1.23782 -4.3056 0
M  V30 43751 C 4249.16 2.73126 -3.24965 0
M  V30 43752 C 4247.06 2.12724 -5.51818 0
M  V30 43753 H 4245.99 0.411911 -0.631542 0
M  V30 43754 H 4248.65 0.353655 -1.8006 0
M  V30 43755 H 4247.03 2.77071 -2.82927 0
M  V30 43756 H 4248.2 0.510169 -4.57967 0
M  V30 43757 H 4246.52 0.617901 -4.1179 0
M  V30 43758 H 4249.11 3.3992 -4.12745 0
M  V30 43759 H 4249.46 3.39094 -2.41497 0
M  V30 43760 H 4249.99 2.02452 -3.42429 0
M  V30 43761 H 4246.73 1.51316 -6.37796 0
M  V30 43762 H 4246.25 2.83308 -5.28674 0
M  V30 43763 H 4247.93 2.72031 -5.87033 0
M  V30 43764 N 4248.06 1.45105 0.615008 0
M  V30 43765 C 4248.97 1.55732 1.75456 0
M  V30 43766 C 4249.99 0.442125 1.68289 0
M  V30 43767 O 4251.16 0.701768 1.88778 0
M  V30 43768 C 4248.23 1.51399 3.11896 0
M  V30 43769 C 4247.29 2.73898 3.30573 0
M  V30 43770 C 4246.52 2.69762 4.60504 0
M  V30 43771 O 4246.74 1.76671 5.4235 0
M  V30 43772 O 4245.68 3.60856 4.81733 0
M  V30 43773 H 4249.5 2.52038 1.69442 0
M  V30 43774 H 4247.09 1.27532 0.778199 0
M  V30 43775 H 4248.97 1.51564 3.932 0
M  V30 43776 H 4247.65 0.582421 3.18417 0
M  V30 43777 H 4246.55 2.79297 2.48886 0
M  V30 43778 H 4247.89 3.66156 3.28924 0
M  V30 43779 N 4249.54 -0.856857 1.32271 0
M  V30 43780 C 4250.95 -1.4268 1.20414 0
M  V30 43781 C 4251.3 -1.95333 -0.184219 0
M  V30 43782 O 4250.42 -1.87361 -1.08281 0
M  V30 43783 C 4251.02 -2.59354 2.17993 0
M  V30 43784 C 4249.58 -3.12353 2.10029 0
M  V30 43785 C 4248.73 -1.85094 2.06484 0
M  V30 43786 H 4251.68 -0.664211 1.44132 0
M  V30 43787 H 4251.7 -3.36447 1.77718 0
M  V30 43788 H 4251.21 -2.21001 3.1903 0
M  V30 43789 H 4249.31 -3.55295 1.12233 0
M  V30 43790 H 4249.42 -3.73747 2.9975 0
M  V30 43791 H 4247.79 -2.04602 1.5169 0
M  V30 43792 H 4248.57 -1.48961 3.09298 0
M  V30 43793 N 4251.02 -1.15446 -1.07285 0
M  V30 43794 C 4251.95 -0.874818 -2.16493 0
M  V30 43795 C 4252.93 0.174853 -1.69199 0
M  V30 43796 O 4254.11 0.0290821 -1.94178 0
M  V30 43797 C 4251.24 -0.364079 -3.45386 0
M  V30 43798 C 4250.2 -1.3505 -4.06135 0
M  V30 43799 C 4249.52 -0.698583 -5.30117 0
M  V30 43800 C 4250.82 -2.71673 -4.46084 0
M  V30 43801 H 4252.52 -1.78806 -2.40143 0
M  V30 43802 H 4250.06 -0.861144 -1.15414 0
M  V30 43803 H 4252.01 -0.155984 -4.21111 0
M  V30 43804 H 4250.74 0.584633 -3.21325 0
M  V30 43805 H 4249.4 -1.54497 -3.32455 0
M  V30 43806 H 4249.05 0.256298 -5.02347 0
M  V30 43807 H 4248.75 -1.35689 -5.71719 0
M  V30 43808 H 4250.27 -0.500278 -6.08547 0
M  V30 43809 H 4251.68 -2.56068 -5.12935 0
M  V30 43810 H 4250.08 -3.33884 -4.98639 0
M  V30 43811 H 4251.15 -3.27686 -3.57421 0
M  V30 43812 N 4252.49 1.25646 -0.951364 0
M  V30 43813 C 4253.77 1.88509 -0.521878 0
M  V30 43814 C 4254.15 1.8587 1.00078 0
M  V30 43815 O 4253.5 1.31999 1.86517 0
M  V30 43816 C 4253.71 3.31384 -1.09479 0
M  V30 43817 C 4255.06 4.08172 -1.16965 0
M  V30 43818 O 4256.08 3.40492 -1.04611 0
M  V30 43819 O 4254.94 5.29228 -1.36308 0
M  V30 43820 H 4252.03 0.80899 -0.171652 0
M  V30 43821 H 4254.58 1.33741 -1.04458 0
M  V30 43822 H 4253.35 3.27719 -2.13813 0
M  V30 43823 H 4252.97 3.93705 -0.55514 0
M  V30 43824 N 4253.97 0.719555 1.40215 0
M  V30 43825 C 4254.9 0.084361 2.33348 0
M  V30 43826 C 4255.88 -0.741198 1.53102 0
M  V30 43827 O 4257.07 -0.689318 1.81555 0
M  V30 43828 C 4254.2 -0.835197 3.37108 0
M  V30 43829 C 4253.15 -0.114961 4.27846 0
M  V30 43830 C 4252.48 -1.1505 5.22176 0
M  V30 43831 C 4253.78 1.03323 5.11978 0
M  V30 43832 H 4255.47 0.862269 2.86715 0
M  V30 43833 H 4253.02 0.416098 1.37857 0
M  V30 43834 H 4254.97 -1.28898 4.01202 0
M  V30 43835 H 4253.69 -1.64505 2.82145 0
M  V30 43836 H 4252.35 0.319039 3.65209 0
M  V30 43837 H 4252 -1.95351 4.63516 0
M  V30 43838 H 4251.7 -0.673453 5.83728 0
M  V30 43839 H 4253.23 -1.6043 5.89147 0
M  V30 43840 H 4254.64 0.658622 5.69504 0
M  V30 43841 H 4253.04 1.43891 5.82594 0
M  V30 43842 H 4254.11 1.86207 4.47722 0
M  V30 43843 N 4255.45 -1.50552 0.466031 0
M  V30 43844 C 4256.86 -1.86697 0.00969546 0
M  V30 43845 C 4257.21 -1.38121 -1.39345 0
M  V30 43846 O 4256.34 -0.744042 -2.03207 0
M  V30 43847 C 4256.93 -3.38798 0.0108182 0
M  V30 43848 C 4255.49 -3.74374 -0.390028 0
M  V30 43849 C 4254.64 -2.74422 0.398463 0
M  V30 43850 H 4257.59 -1.43368 0.680547 0
M  V30 43851 H 4257.61 -3.72156 -0.792471 0
M  V30 43852 H 4257.12 -3.74123 1.03217 0
M  V30 43853 H 4255.22 -3.44648 -1.41592 0
M  V30 43854 H 4255.34 -4.79006 -0.0948887 0
M  V30 43855 H 4253.7 -2.54275 -0.147152 0
M  V30 43856 H 4254.48 -3.1259 1.41923 0
M  V30 43857 N 4256.93 -0.198441 -1.56346 0
M  V30 43858 C 4258.34 0.313564 -1.84048 0
M  V30 43859 C 4258.69 1.61146 -1.11921 0
M  V30 43860 O 4257.81 2.13017 -0.381129 0
M  V30 43861 C 4258.41 0.575696 -3.33873 0
M  V30 43862 C 4256.97 1.03206 -3.61974 0
M  V30 43863 C 4256.12 0.0824862 -2.77177 0
M  V30 43864 H 4259.07 -0.422155 -1.52982 0
M  V30 43865 H 4259.09 1.4246 -3.52825 0
M  V30 43866 H 4258.6 -0.369104 -3.86341 0
M  V30 43867 H 4256.7 1.99103 -3.14943 0
M  V30 43868 H 4256.81 0.922462 -4.70136 0
M  V30 43869 H 4255.18 0.584999 -2.47891 0
M  V30 43870 H 4255.96 -0.856818 -3.32436 0
M  V30 43871 N 4258.41 1.57421 0.0751377 0
M  V30 43872 C 4259.66 1.8627 0.773727 0
M  V30 43873 C 4259.97 0.790612 1.7891 0
M  V30 43874 O 4261.17 0.96684 2.53702 0
M  V30 43875 C 4259.63 3.30402 1.42698 0
M  V30 43876 C 4259.24 4.45731 0.450348 0
M  V30 43877 C 4260.98 3.68454 2.10813 0
M  V30 43878 C 4258.89 5.80903 1.10933 0
M  V30 43879 H 4257.82 0.694863 0.292714 0
M  V30 43880 H 4260.47 1.8348 0.026963 0
M  V30 43881 H 4258.85 3.27793 2.22189 0
M  V30 43882 H 4260.03 4.59725 -0.314508 0
M  V30 43883 H 4258.34 4.16209 -0.126174 0
M  V30 43884 H 4260.94 4.66736 2.60886 0
M  V30 43885 H 4261.28 2.98084 2.90605 0
M  V30 43886 H 4261.81 3.73038 1.38157 0
M  V30 43887 H 4258.55 6.54555 0.351797 0
M  V30 43888 H 4258.07 5.70715 1.84512 0
M  V30 43889 H 4259.75 6.26128 1.63011 0
M  V30 43890 N 4259.88 -0.346449 1.53745 0
M  V30 43891 C 4261.13 -1.08442 1.70068 0
M  V30 43892 C 4261.45 -1.89893 0.469046 0
M  V30 43893 O 4262.65 -2.66606 0.513174 0
M  V30 43894 C 4261.11 -1.97727 3.00719 0
M  V30 43895 C 4260.72 -1.21497 4.31211 0
M  V30 43896 C 4262.46 -2.71399 3.26409 0
M  V30 43897 C 4260.37 -2.09794 5.52938 0
M  V30 43898 H 4259.3 -0.408556 0.633718 0
M  V30 43899 H 4261.95 -0.344101 1.80245 0
M  V30 43900 H 4260.33 -2.75567 2.84392 0
M  V30 43901 H 4261.5 -0.485875 4.58231 0
M  V30 43902 H 4259.82 -0.596054 4.12112 0
M  V30 43903 H 4262.42 -3.37726 4.14542 0
M  V30 43904 H 4262.76 -3.37809 2.43292 0
M  V30 43905 H 4263.29 -2.00633 3.43498 0
M  V30 43906 H 4260.03 -1.47931 6.3859 0
M  V30 43907 H 4259.55 -2.80501 5.30169 0
M  V30 43908 H 4261.23 -2.68914 5.88468 0
M  V30 43909 N 4261.36 -1.45429 -0.607304 0
M  V30 43910 C 4262.29 -1.50132 -1.73185 0
M  V30 43911 C 4263.31 -0.392061 -1.58009 0
M  V30 43912 O 4264.5 -0.659133 -1.65885 0
M  V30 43913 C 4261.6 -1.34222 -3.11187 0
M  V30 43914 C 4260.77 -2.58827 -3.52601 0
M  V30 43915 C 4259.83 -2.37471 -4.69568 0
M  V30 43916 O 4258.85 -3.11085 -4.76671 0
M  V30 43917 N 4260.06 -1.42051 -5.62851 0
M  V30 43918 H 4262.82 -2.47085 -1.69614 0
M  V30 43919 H 4260.38 -1.41172 -0.792593 0
M  V30 43920 H 4262.37 -1.17746 -3.87193 0
M  V30 43921 H 4260.94 -0.45544 -3.09264 0
M  V30 43922 H 4260.16 -2.90417 -2.66555 0
M  V30 43923 H 4261.45 -3.41653 -3.77029 0
M  V30 43924 H 4260.85 -0.812998 -5.59828 0
M  V30 43925 H 4259.41 -1.31546 -6.38388 0
M  V30 43926 N 4262.84 0.84983 -1.32724 0
M  V30 43927 C 4264.26 1.1388 -1.1182 0
M  V30 43928 C 4264.46 2.01261 0.09815 0
M  V30 43929 O 4263.51 2.40097 0.781636 0
M  V30 43930 C 4264.83 1.81147 -2.40013 0
M  V30 43931 C 4266.37 1.93761 -2.45816 0
M  V30 43932 C 4266.85 2.64443 -3.73943 0
M  V30 43933 N 4268.34 2.71965 -3.74953 0
M  V30 43934 C 4269.07 3.27318 -4.70798 0
M  V30 43935 N 4268.57 3.83444 -5.77012 0
M  V30 43936 N 4270.36 3.25467 -4.58288 0
M  V30 43937 H 4262.51 0.268023 -2.10702 0
M  V30 43938 H 4264.78 0.181389 -0.930485 0
M  V30 43939 H 4264.48 1.24397 -3.28966 0
M  V30 43940 H 4264.36 2.81263 -2.51338 0
M  V30 43941 H 4266.74 2.49668 -1.5732 0
M  V30 43942 H 4266.83 0.926265 -2.38441 0
M  V30 43943 H 4266.47 2.09198 -4.62816 0
M  V30 43944 H 4266.4 3.66027 -3.78592 0
M  V30 43945 H 4268.89 2.32152 -2.98184 0
M  V30 43946 H 4269.2 4.23852 -6.46196 0
M  V30 43947 H 4267.55 3.81763 -5.8076 0
M  V30 43948 H 4270.74 2.80869 -3.74473 0
M  V30 43949 H 4270.91 3.68305 -5.33156 0
M  V30 43950 N 4264.32 1.16013 1.06671 0
M  V30 43951 C 4265.25 0.886287 2.16026 0
M  V30 43952 C 4266.23 -0.165877 1.69289 0
M  V30 43953 O 4267.41 -0.0187839 1.94191 0
M  V30 43954 C 4264.54 0.38239 3.45188 0
M  V30 43955 C 4263.5 1.37202 4.05413 0
M  V30 43956 C 4262.82 0.726687 5.29739 0
M  V30 43957 C 4264.12 2.74035 4.44637 0
M  V30 43958 H 4265.82 1.80077 2.39192 0
M  V30 43959 H 4263.36 0.867252 1.14955 0
M  V30 43960 H 4265.32 0.178314 4.21023 0
M  V30 43961 H 4264.04 -0.567584 3.2163 0
M  V30 43962 H 4262.7 1.56258 3.31631 0
M  V30 43963 H 4262.35 -0.229653 5.02475 0
M  V30 43964 H 4262.05 1.38719 5.70991 0
M  V30 43965 H 4263.57 0.532543 6.08273 0
M  V30 43966 H 4264.99 2.58784 5.1157 0
M  V30 43967 H 4263.38 3.36524 4.96862 0
M  V30 43968 H 4264.45 3.29577 3.55678 0
M  V30 43969 N 4265.8 -1.25139 0.958014 0
M  V30 43970 C 4266.75 -2.23483 0.451589 0
M  V30 43971 C 4267.73 -1.54153 -0.461047 0
M  V30 43972 O 4268.92 -1.74549 -0.293548 0
M  V30 43973 C 4266.05 -3.42266 -0.266189 0
M  V30 43974 C 4265.14 -4.18858 0.664712 0
M  V30 43975 N 4265.53 -4.72771 1.79781 0
M  V30 43976 C 4263.83 -4.43479 0.473577 0
M  V30 43977 C 4264.53 -5.30815 2.37929 0
M  V30 43978 N 4263.5 -5.17459 1.66546 0
M  V30 43979 H 4267.31 -2.62775 1.3163 0
M  V30 43980 H 4264.82 -1.40416 0.815914 0
M  V30 43981 H 4266.82 -4.11862 -0.646149 0
M  V30 43982 H 4265.48 -3.04497 -1.12746 0
M  V30 43983 H 4266.49 -4.69802 2.17959 0
M  V30 43984 H 4263.16 -4.16076 -0.344531 0
M  V30 43985 H 4264.55 -5.83293 3.33494 0
M  V30 43986 N 4267.27 -0.726981 -1.39831 0
M  V30 43987 C 4268.52 -0.270886 -2.00276 0
M  V30 43988 C 4268.84 1.14341 -1.5796 0
M  V30 43989 O 4268.11 1.77719 -0.824186 0
M  V30 43990 H 4266.69 -0.0971626 -0.740654 0
M  V30 43991 H 4269.36 -0.935153 -1.71 0
M  V30 43992 H 4268.45 -0.312947 -3.10527 0
M  V30 43993 N 4268.75 1.50303 -0.474008 0
M  V30 43994 C 4269.68 2.31453 0.308491 0
M  V30 43995 C 4270.66 1.3849 0.987654 0
M  V30 43996 O 4271.85 1.67409 0.984264 0
M  V30 43997 C 4268.98 3.18308 1.38916 0
M  V30 43998 C 4267.93 4.19847 0.831435 0
M  V30 43999 C 4267.26 4.95458 2.01061 0
M  V30 44000 C 4268.56 5.22057 -0.159258 0
M  V30 44001 H 4270.25 2.9712 -0.368809 0
M  V30 44002 H 4267.8 1.42885 -0.178812 0
M  V30 44003 H 4269.75 3.73876 1.94408 0
M  V30 44004 H 4268.48 2.50532 2.09527 0
M  V30 44005 H 4267.13 3.65383 0.298462 0
M  V30 44006 H 4266.78 4.24152 2.70377 0
M  V30 44007 H 4266.48 5.64144 1.64364 0
M  V30 44008 H 4268.01 5.53862 2.57038 0
M  V30 44009 H 4269.42 5.7248 0.30659 0
M  V30 44010 H 4267.82 5.9848 -0.440655 0
M  V30 44011 H 4268.89 4.72624 -1.08419 0
M  V30 44012 N 4270.23 0.20673 1.56238 0
M  V30 44013 C 4271.46 -0.437309 2.02737 0
M  V30 44014 C 4271.88 -1.53597 1.0858 0
M  V30 44015 O 4271.24 -1.8116 0.0713213 0
M  V30 44016 C 4271.29 -0.959913 3.47589 0
M  V30 44017 O 4270.39 -2.07217 3.5656 0
M  V30 44018 H 4269.73 -0.100833 0.656299 0
M  V30 44019 H 4272.26 0.321021 2.02066 0
M  V30 44020 H 4272.27 -1.27354 3.87614 0
M  V30 44021 H 4270.95 -0.155707 4.15608 0
M  V30 44022 H 4269.52 -1.7663 3.28415 0
M  V30 44023 N 4271.71 -1.57458 -0.0667882 0
M  V30 44024 C 4272.67 -2.03046 -1.06326 0
M  V30 44025 C 4273.67 -0.928282 -1.313 0
M  V30 44026 O 4274.86 -1.19302 -1.26936 0
M  V30 44027 C 4271.99 -2.41536 -2.40568 0
M  V30 44028 H 4273.19 -2.92315 -0.670239 0
M  V30 44029 H 4270.74 -1.53141 -0.312651 0
M  V30 44030 H 4271.47 -1.55308 -2.84692 0
M  V30 44031 H 4271.26 -3.21969 -2.23782 0
M  V30 44032 H 4272.75 -2.77364 -3.12184 0
M  V30 44033 N 4273.19 0.33829 -1.53926 0
M  V30 44034 C 4274.43 1.07794 -1.71425 0
M  V30 44035 C 4274.76 1.88479 -0.480186 0
M  V30 44036 O 4274.02 1.88157 0.538078 0
M  V30 44037 C 4274.32 2.04255 -2.93283 0
M  V30 44038 C 4273.98 1.3984 -4.28667 0
M  V30 44039 C 4272.64 1.22002 -4.65477 0
M  V30 44040 C 4275 0.934818 -5.12748 0
M  V30 44041 C 4272.32 0.564322 -5.8398 0
M  V30 44042 C 4274.68 0.293008 -6.31921 0
M  V30 44043 C 4273.34 0.102355 -6.67422 0
M  V30 44044 H 4272.61 0.394447 -0.62729 0
M  V30 44045 H 4275.26 0.356651 -1.8815 0
M  V30 44046 H 4273.56 2.82784 -2.71184 0
M  V30 44047 H 4275.26 2.61487 -3.04016 0
M  V30 44048 H 4271.85 1.54722 -3.99699 0
M  V30 44049 H 4276.03 1.06047 -4.84838 0
M  V30 44050 H 4271.29 0.405273 -6.10055 0
M  V30 44051 H 4275.46 -0.074272 -6.9636 0
M  V30 44052 H 4273.09 -0.407768 -7.59106 0
M  V30 44053 N 4274.67 1.45749 0.599583 0
M  V30 44054 C 4275.89 1.53956 1.38969 0
M  V30 44055 C 4276.32 0.175651 1.87278 0
M  V30 44056 O 4275.67 -0.841194 1.60604 0
M  V30 44057 C 4275.72 2.53479 2.56478 0
M  V30 44058 O 4274.83 2.05814 3.57372 0
M  V30 44059 H 4274.17 0.518689 0.414558 0
M  V30 44060 H 4276.7 1.91174 0.728939 0
M  V30 44061 H 4276.71 2.72544 3.03618 0
M  V30 44062 H 4275.38 3.52533 2.20666 0
M  V30 44063 H 4273.96 1.96661 3.16826 0
M  V30 44064 N 4276.14 -0.84278 1.33173 0
M  V30 44065 C 4277.07 -1.96763 1.25724 0
M  V30 44066 C 4278.05 -1.69534 0.138604 0
M  V30 44067 O 4279.24 -1.91415 0.327737 0
M  V30 44068 C 4276.37 -3.3284 0.991695 0
M  V30 44069 C 4275.32 -3.74456 2.07285 0
M  V30 44070 C 4274.65 -5.08296 1.65951 0
M  V30 44071 C 4275.95 -3.88656 3.48918 0
M  V30 44072 H 4277.64 -2.03254 2.19837 0
M  V30 44073 H 4275.19 -0.976514 1.05831 0
M  V30 44074 H 4277.14 -4.11098 0.926093 0
M  V30 44075 H 4275.87 -3.26597 0.0149397 0
M  V30 44076 H 4274.53 -2.98458 2.1288 0
M  V30 44077 H 4274.17 -4.98519 0.669883 0
M  V30 44078 H 4273.87 -5.37111 2.38298 0
M  V30 44079 H 4275.4 -5.89033 1.60849 0
M  V30 44080 H 4276.81 -4.57235 3.45845 0
M  V30 44081 H 4275.21 -4.28903 4.19717 0
M  V30 44082 H 4276.28 -2.9122 3.8771 0
M  V30 44083 N 4277.62 -1.16577 -1.06054 0
M  V30 44084 C 4278.57 -0.842798 -2.11851 0
M  V30 44085 C 4279.56 0.178823 -1.59903 0
M  V30 44086 O 4280.75 -0.0223556 -1.76986 0
M  V30 44087 C 4277.88 -0.348298 -3.41529 0
M  V30 44088 C 4276.96 -1.40084 -4.00297 0
M  V30 44089 N 4277.35 -2.6119 -4.33143 0
M  V30 44090 C 4275.65 -1.25666 -4.2793 0
M  V30 44091 C 4276.35 -3.28755 -4.7989 0
M  V30 44092 N 4275.33 -2.56135 -4.79475 0
M  V30 44093 H 4279.13 -1.7637 -2.35097 0
M  V30 44094 H 4276.64 -1.05319 -1.23619 0
M  V30 44095 H 4278.64 -0.098507 -4.16784 0
M  V30 44096 H 4277.3 0.56651 -3.1972 0
M  V30 44097 H 4278.31 -2.98227 -4.23416 0
M  V30 44098 H 4274.99 -0.402805 -4.15552 0
M  V30 44099 H 4276.38 -4.32146 -5.1449 0
M  V30 44100 N 4279.1 1.2463 -0.964637 0
M  V30 44101 C 4280.32 1.97215 -0.641942 0
M  V30 44102 C 4280.75 1.71108 0.781249 0
M  V30 44103 O 4280.11 0.972979 1.5298 0
M  V30 44104 C 4280.16 3.48694 -0.91897 0
M  V30 44105 O 4279.26 4.124 -0.00283307 0
M  V30 44106 H 4278.6 0.617933 -0.243012 0
M  V30 44107 H 4281.13 1.58487 -1.29395 0
M  V30 44108 H 4281.14 3.99063 -0.849267 0
M  V30 44109 H 4279.82 3.67023 -1.95618 0
M  V30 44110 H 4278.39 3.72688 -0.125595 0
M  V30 44111 N 4280.58 0.734386 1.39444 0
M  V30 44112 C 4281.81 0.291862 2.04528 0
M  V30 44113 C 4282.22 -1.07805 1.55482 0
M  V30 44114 O 4281.56 -1.69232 0.714582 0
M  V30 44115 C 4281.62 0.214649 3.58859 0
M  V30 44116 C 4281.28 1.52293 4.30878 0
M  V30 44117 C 4282.28 2.46852 4.57559 0
M  V30 44118 C 4279.97 1.78706 4.69435 0
M  V30 44119 C 4281.96 3.66056 5.21806 0
M  V30 44120 C 4279.65 2.98188 5.33411 0
M  V30 44121 C 4280.65 3.91684 5.59529 0
M  V30 44122 O 4280.33 5.09068 6.22177 0
M  V30 44123 H 4280.07 0.125506 0.664247 0
M  V30 44124 H 4282.62 0.998668 1.79488 0
M  V30 44125 H 4280.85 -0.548253 3.82794 0
M  V30 44126 H 4282.54 -0.195798 4.05427 0
M  V30 44127 H 4283.3 2.27716 4.28218 0
M  V30 44128 H 4279.18 1.06777 4.48464 0
M  V30 44129 H 4282.73 4.39049 5.42109 0
M  V30 44130 H 4278.62 3.17225 5.62173 0
M  V30 44131 H 4279.39 5.09395 6.40671 0
M  V30 44132 N 4282.06 -1.50049 0.481972 0
M  V30 44133 C 4283.28 -2.07286 -0.0688449 0
M  V30 44134 C 4283.71 -1.34225 -1.31778 0
M  V30 44135 O 4283.06 -0.393166 -1.76986 0
M  V30 44136 C 4283.11 -3.59134 -0.324822 0
M  V30 44137 O 4282.22 -3.87792 -1.40326 0
M  V30 44138 H 4281.56 -0.663762 0.0177928 0
M  V30 44139 H 4284.09 -1.93105 0.676138 0
M  V30 44140 H 4284.1 -4.0411 -0.562064 0
M  V30 44141 H 4282.77 -4.11726 0.58777 0
M  V30 44142 H 4281.35 -3.54644 -1.15247 0
M  V30 44143 N 4283.53 -0.215012 -1.56126 0
M  V30 44144 C 4284.94 0.294026 -1.8437 0
M  V30 44145 C 4285.3 1.5995 -1.13624 0
M  V30 44146 O 4284.42 2.12601 -0.4037 0
M  V30 44147 C 4285.02 0.540252 -3.34465 0
M  V30 44148 C 4283.57 0.993613 -3.63049 0
M  V30 44149 C 4282.72 0.0530832 -2.77249 0
M  V30 44150 H 4285.67 -0.438357 -1.52526 0
M  V30 44151 H 4285.69 1.38709 -3.54316 0
M  V30 44152 H 4285.21 -0.41006 -3.85928 0
M  V30 44153 H 4283.31 1.95751 -3.17037 0
M  V30 44154 H 4283.42 0.872546 -4.71088 0
M  V30 44155 H 4281.78 0.558674 -2.48497 0
M  V30 44156 H 4282.57 -0.892029 -3.31508 0
M  V30 44157 N 4285.01 1.57492 0.0584368 0
M  V30 44158 C 4286.26 1.87526 0.753547 0
M  V30 44159 C 4286.58 0.808834 1.77434 0
M  V30 44160 O 4285.85 -0.161027 1.95237 0
M  V30 44161 H 4284.43 0.692013 0.281296 0
M  V30 44162 H 4287.09 1.94875 0.0313536 0
M  V30 44163 H 4286.19 2.85471 1.26146 0
M  V30 44164 N 4286.49 -0.330122 1.54104 0
M  V30 44165 C 4287.4 -1.42915 1.86045 0
M  V30 44166 C 4288.42 -1.56922 0.751767 0
M  V30 44167 O 4289.59 -1.72143 1.04541 0
M  V30 44168 C 4286.66 -2.77721 2.07538 0
M  V30 44169 C 4285.72 -2.72945 3.3136 0
M  V30 44170 C 4284.95 -4.01321 3.51819 0
M  V30 44171 O 4285.17 -4.99264 2.75846 0
M  V30 44172 O 4284.11 -4.04978 4.45282 0
M  V30 44173 H 4287.93 -1.18834 2.79485 0
M  V30 44174 H 4285.52 -0.523544 1.39926 0
M  V30 44175 H 4287.4 -3.57533 2.23043 0
M  V30 44176 H 4286.08 -3.01705 1.17286 0
M  V30 44177 H 4284.98 -1.91706 3.21247 0
M  V30 44178 H 4286.32 -2.53915 4.21649 0
M  V30 44179 N 4287.97 -1.46065 -0.591845 0
M  V30 44180 C 4289.22 -1.5017 -1.34654 0
M  V30 44181 C 4289.53 -0.154015 -1.94993 0
M  V30 44182 O 4290.74 -0.072811 -2.71402 0
M  V30 44183 C 4289.19 -2.64564 -2.43995 0
M  V30 44184 C 4288.8 -4.05714 -1.9 0
M  V30 44185 C 4290.54 -2.77932 -3.20865 0
M  V30 44186 C 4288.45 -5.11463 -2.96916 0
M  V30 44187 H 4287.38 -0.558847 -0.506168 0
M  V30 44188 H 4290.03 -1.7225 -0.632621 0
M  V30 44189 H 4288.41 -2.35797 -3.18144 0
M  V30 44190 H 4289.59 -4.44231 -1.22455 0
M  V30 44191 H 4287.9 -3.96934 -1.25826 0
M  V30 44192 H 4290.5 -3.54107 -4.0064 0
M  V30 44193 H 4290.84 -1.85122 -3.72875 0
M  V30 44194 H 4291.38 -3.06301 -2.5382 0
M  V30 44195 H 4288.12 -6.06035 -2.49805 0
M  V30 44196 H 4287.64 -4.775 -3.62979 0
M  V30 44197 H 4289.31 -5.36907 -3.61027 0
M  V30 44198 N 4289.45 0.835705 -1.33618 0
M  V30 44199 C 4290.39 1.96715 -1.2412 0
M  V30 44200 C 4291.39 1.68804 -0.141922 0
M  V30 44201 O 4292.59 1.77378 -0.306085 0
M  V30 44202 H 4288.97 0.645816 -0.38526 0
M  V30 44203 H 4290.94 2.0185 -2.19771 0
M  V30 44204 C 4289.69 3.32994 -1.00051 0
M  V30 44205 H 4289.01 3.55012 -1.83866 0
M  V30 44206 H 4290.45 4.12652 -0.974374 0
M  V30 44207 C 4288.91 3.35593 0.2965 0
M  V30 44208 O 4289.44 3.80009 1.30215 0
M  V30 44209 N 4287.65 2.88775 0.325145 0
M  V30 44210 H 4287.19 2.52823 -0.493778 0
M  V30 44211 H 4287.15 2.90896 1.19276 0
M  V30 44212 N 4290.92 1.17138 1.05434 0
M  V30 44213 C 4292.34 0.918131 1.30547 0
M  V30 44214 C 4292.54 -0.424118 1.96986 0
M  V30 44215 O 4291.6 -1.16166 2.24191 0
M  V30 44216 C 4292.91 2.07362 2.17765 0
M  V30 44217 C 4294.46 2.11037 2.31155 0
M  V30 44218 C 4294.93 3.25965 3.21731 0
M  V30 44219 N 4296.42 3.25737 3.29317 0
M  V30 44220 C 4297.16 4.11306 3.99519 0
M  V30 44221 N 4296.65 5.06979 4.7217 0
M  V30 44222 N 4298.45 3.99263 3.95658 0
M  V30 44223 H 4290.6 2.03539 0.607082 0
M  V30 44224 H 4292.86 0.888604 0.330282 0
M  V30 44225 H 4292.57 3.04359 1.76235 0
M  V30 44226 H 4292.44 2.02256 3.1839 0
M  V30 44227 H 4294.83 1.14628 2.71927 0
M  V30 44228 H 4294.91 2.20205 1.30167 0
M  V30 44229 H 4294.55 4.22638 2.81673 0
M  V30 44230 H 4294.48 3.14033 4.22719 0
M  V30 44231 H 4296.97 2.56465 2.7755 0
M  V30 44232 H 4297.29 5.68672 5.2329 0
M  V30 44233 H 4295.63 5.10951 4.7112 0
M  V30 44234 H 4298.82 3.23816 3.38024 0
M  V30 44235 H 4299 4.66169 4.501 0
M  V30 44236 N 4292.4 -1.24116 0.971232 0
M  V30 44237 C 4293.65 -1.92569 0.635997 0
M  V30 44238 C 4293.98 -1.75702 -0.827192 0
M  V30 44239 O 4293.26 -1.11229 -1.59557 0
M  V30 44240 C 4293.54 -3.45474 1.01587 0
M  V30 44241 C 4293.39 -3.71492 2.53601 0
M  V30 44242 C 4294.71 -4.36612 0.553017 0
M  V30 44243 H 4291.83 -0.699357 0.232528 0
M  V30 44244 H 4294.47 -1.46417 1.21087 0
M  V30 44245 H 4292.62 -3.84913 0.526695 0
M  V30 44246 H 4294.29 -3.4159 3.10022 0
M  V30 44247 H 4292.54 -3.16521 2.96643 0
M  V30 44248 H 4293.21 -4.78489 2.75231 0
M  V30 44249 H 4295.68 -4.04567 0.972866 0
M  V30 44250 H 4294.56 -5.4232 0.847339 0
M  V30 44251 H 4294.82 -4.38705 -0.546843 0
M  V30 44252 N 4293.88 -0.741771 -1.39052 0
M  V30 44253 C 4294.84 -0.114659 -2.28913 0
M  V30 44254 C 4295.84 0.660012 -1.4663 0
M  V30 44255 O 4297.03 0.488026 -1.67224 0
M  V30 44256 C 4294.17 0.846549 -3.30222 0
M  V30 44257 H 4295.36 -0.906432 -2.85874 0
M  V30 44258 H 4292.91 -0.508026 -1.47813 0
M  V30 44259 H 4293.65 1.66443 -2.78329 0
M  V30 44260 H 4293.43 0.293617 -3.90999 0
M  V30 44261 H 4294.92 1.28169 -3.97445 0
M  V30 44262 N 4295.36 1.49792 -0.489923 0
M  V30 44263 C 4296.32 2.27443 0.283246 0
M  V30 44264 C 4297.32 1.32995 0.903823 0
M  V30 44265 O 4298.51 1.56255 0.770073 0
M  V30 44266 C 4295.64 3.10588 1.40528 0
M  V30 44267 H 4296.84 2.97247 -0.397998 0
M  V30 44268 H 4294.39 1.54375 -0.244543 0
M  V30 44269 H 4295.12 2.45323 2.12101 0
M  V30 44270 H 4294.91 3.80017 0.96588 0
M  V30 44271 H 4296.4 3.69265 1.9502 0
M  V30 44272 N 4296.84 0.223289 1.5601 0
M  V30 44273 C 4298.08 -0.409767 2.00251 0
M  V30 44274 C 4298.44 -1.56825 1.10769 0
M  V30 44275 O 4299.64 -2.26744 1.44363 0
M  V30 44276 C 4297.91 -0.831627 3.4759 0
M  V30 44277 S 4299.47 -1.45854 4.1385 0
M  V30 44278 H 4296.29 -0.129976 0.699019 0
M  V30 44279 H 4298.89 0.332985 1.92643 0
M  V30 44280 H 4297.6 0.0211733 4.10395 0
M  V30 44281 H 4297.13 -1.60715 3.59074 0
M  V30 44282 H 4299.14 -2.74762 4.13183 0
M  V30 44283 N 4298.31 -1.5752 -0.0500839 0
M  V30 44284 C 4299.24 -2.08204 -1.05704 0
M  V30 44285 C 4300.23 -0.980033 -1.3903 0
M  V30 44286 O 4301.41 -1.25406 -1.4828 0
M  V30 44287 C 4298.54 -2.54403 -2.36424 0
M  V30 44288 C 4297.49 -3.68678 -2.17396 0
M  V30 44289 C 4296.82 -4.01007 -3.53691 0
M  V30 44290 C 4298.12 -4.97914 -1.57732 0
M  V30 44291 H 4299.81 -2.92584 -0.635206 0
M  V30 44292 H 4297.36 -1.40752 -0.304103 0
M  V30 44293 H 4299.31 -2.88477 -3.07179 0
M  V30 44294 H 4298.04 -1.67079 -2.80628 0
M  V30 44295 H 4296.7 -3.3492 -1.49078 0
M  V30 44296 H 4296.34 -3.10781 -3.95505 0
M  V30 44297 H 4296.04 -4.77967 -3.41791 0
M  V30 44298 H 4297.57 -4.37597 -4.25842 0
M  V30 44299 H 4298.98 -5.30079 -2.18378 0
M  V30 44300 H 4297.38 -5.79343 -1.56468 0
M  V30 44301 H 4298.45 -4.81874 -0.540915 0
M  V30 44302 N 4299.79 0.321945 -1.54277 0
M  V30 44303 C 4301.21 0.666382 -1.45022 0
M  V30 44304 C 4301.41 1.91581 -0.624411 0
M  V30 44305 O 4300.46 2.52196 -0.123847 0
M  V30 44306 C 4301.78 0.838882 -2.88762 0
M  V30 44307 C 4303.33 0.93612 -2.98673 0
M  V30 44308 C 4303.8 1.14078 -4.43565 0
M  V30 44309 N 4305.29 1.20748 -4.47185 0
M  V30 44310 C 4306.03 1.38374 -5.56453 0
M  V30 44311 N 4305.52 1.53033 -6.75687 0
M  V30 44312 N 4307.32 1.41095 -5.44103 0
M  V30 44313 H 4299.47 -0.49925 -2.06449 0
M  V30 44314 H 4301.73 -0.161573 -0.93413 0
M  V30 44315 H 4301.44 -0.00799017 -3.51699 0
M  V30 44316 H 4301.31 1.73423 -3.34969 0
M  V30 44317 H 4303.7 1.7735 -2.35863 0
M  V30 44318 H 4303.78 0.0172104 -2.55794 0
M  V30 44319 H 4303.42 0.308249 -5.06964 0
M  V30 44320 H 4303.35 2.07359 -4.84056 0
M  V30 44321 H 4305.84 1.10857 -3.61274 0
M  V30 44322 H 4306.16 1.66179 -7.54721 0
M  V30 44323 H 4304.5 1.50128 -6.78592 0
M  V30 44324 H 4307.69 1.2924 -4.49905 0
M  V30 44325 H 4307.86 1.5449 -6.29315 0
M  V30 44326 N 4301.27 1.46377 0.58409 0
M  V30 44327 C 4302.22 1.56836 1.69325 0
M  V30 44328 C 4303.19 0.412747 1.6089 0
M  V30 44329 O 4304.37 0.629318 1.80123 0
M  V30 44330 C 4301.51 1.56329 3.07661 0
M  V30 44331 C 4300.63 2.82614 3.26731 0
M  V30 44332 C 4299.76 2.73621 4.55307 0
M  V30 44333 C 4298.8 3.94852 4.67716 0
M  V30 44334 N 4297.94 3.84253 5.87617 0
M  V30 44335 H 4302.78 2.5158 1.59723 0
M  V30 44336 H 4300.31 1.24813 0.778471 0
M  V30 44337 H 4302.27 1.54021 3.87728 0
M  V30 44338 H 4300.9 0.651186 3.16164 0
M  V30 44339 H 4299.95 2.94908 2.40277 0
M  V30 44340 H 4301.27 3.72466 3.31768 0
M  V30 44341 H 4300.42 2.69411 5.43602 0
M  V30 44342 H 4299.16 1.81407 4.52706 0
M  V30 44343 H 4298.16 3.99396 3.7784 0
M  V30 44344 H 4299.39 4.88161 4.72097 0
M  V30 44345 H 4297.33 2.94825 5.86016 0
M  V30 44346 H 4297.25 4.6776 5.93917 0
M  V30 44347 H 4298.52 3.84015 6.78345 0
M  V30 44348 N 4302.75 -0.828607 1.34059 0
M  V30 44349 C 4303.68 -1.95419 1.27804 0
M  V30 44350 C 4304.66 -1.69378 0.156578 0
M  V30 44351 O 4305.85 -1.91056 0.348021 0
M  V30 44352 C 4302.98 -3.3177 1.02694 0
M  V30 44353 C 4301.93 -3.72236 2.11245 0
M  V30 44354 C 4301.26 -5.06507 1.71333 0
M  V30 44355 C 4302.56 -3.84933 3.53021 0
M  V30 44356 H 4304.25 -2.0091 2.21981 0
M  V30 44357 H 4301.8 -0.965235 1.06861 0
M  V30 44358 H 4303.75 -4.10093 0.969643 0
M  V30 44359 H 4302.47 -3.26562 0.0495788 0
M  V30 44360 H 4301.13 -2.96184 2.16034 0
M  V30 44361 H 4300.78 -4.97781 0.72272 0
M  V30 44362 H 4300.48 -5.34553 2.43981 0
M  V30 44363 H 4302 -5.87294 1.67088 0
M  V30 44364 H 4303.42 -4.53541 3.50675 0
M  V30 44365 H 4301.81 -4.24427 4.24243 0
M  V30 44366 H 4302.88 -2.87091 3.90777 0
M  V30 44367 N 4304.23 -1.17696 -1.04812 0
M  V30 44368 C 4305.48 -0.965791 -1.7753 0
M  V30 44369 C 4305.8 0.506512 -1.88307 0
M  V30 44370 O 4305.07 1.36761 -1.40261 0
M  V30 44371 H 4303.65 -0.354347 -0.657607 0
M  V30 44372 H 4306.31 -1.48241 -1.26533 0
M  V30 44373 H 4305.4 -1.3974 -2.79068 0
M  V30 44374 N 4305.71 1.23599 -0.977801 0
M  V30 44375 C 4306.95 1.92229 -0.6462 0
M  V30 44376 C 4307.28 1.76138 0.817862 0
M  V30 44377 O 4306.56 1.12074 1.58965 0
M  V30 44378 C 4306.84 3.4493 -1.03418 0
M  V30 44379 C 4306.7 3.70142 -2.55568 0
M  V30 44380 C 4308.01 4.36312 -0.576164 0
M  V30 44381 H 4305.13 0.698114 -0.236234 0
M  V30 44382 H 4307.78 1.45773 -1.21862 0
M  V30 44383 H 4305.93 3.84628 -0.547101 0
M  V30 44384 H 4307.6 3.39941 -3.11829 0
M  V30 44385 H 4305.84 3.14943 -2.98317 0
M  V30 44386 H 4306.51 4.77023 -2.77764 0
M  V30 44387 H 4308.99 4.04045 -0.994308 0
M  V30 44388 H 4307.86 5.41863 -0.876088 0
M  V30 44389 H 4308.12 4.38989 0.52357 0
M  V30 44390 N 4307.18 0.749135 1.38657 0
M  V30 44391 C 4308.59 0.371556 1.82965 0
M  V30 44392 C 4308.95 -1.09915 1.62521 0
M  V30 44393 O 4308.07 -1.84921 1.12398 0
M  V30 44394 C 4308.67 0.667611 3.32157 0
M  V30 44395 C 4307.22 0.343363 3.74831 0
M  V30 44396 C 4306.37 0.92306 2.61486 0
M  V30 44397 H 4309.32 0.945647 1.27449 0
M  V30 44398 H 4309.34 -0.0557419 3.80459 0
M  V30 44399 H 4308.86 1.73807 3.47005 0
M  V30 44400 H 4306.96 -0.720695 3.65564 0
M  V30 44401 H 4307.07 0.835802 4.71753 0
M  V30 44402 H 4305.43 0.348731 2.52301 0
M  V30 44403 H 4306.22 1.99846 2.79135 0
M  V30 44404 N 4308.66 -1.4953 0.49786 0
M  V30 44405 C 4310.07 -1.86635 0.0492946 0
M  V30 44406 C 4310.42 -1.41046 -1.36384 0
M  V30 44407 O 4309.55 -0.786978 -2.01583 0
M  V30 44408 C 4310.14 -3.38699 0.0826799 0
M  V30 44409 C 4308.7 -3.75117 -0.31053 0
M  V30 44410 C 4307.85 -2.73515 0.456583 0
M  V30 44411 H 4310.8 -1.41892 0.710805 0
M  V30 44412 H 4310.82 -3.73753 -0.713353 0
M  V30 44413 H 4310.33 -3.71849 1.11129 0
M  V30 44414 H 4308.43 -3.47574 -1.34249 0
M  V30 44415 H 4308.55 -4.791 0.00673692 0
M  V30 44416 H 4306.91 -2.54529 -0.0931837 0
M  V30 44417 H 4307.69 -3.0951 1.48521 0
M  V30 44418 N 4310.14 -0.23156 -1.5589 0
M  V30 44419 C 4311.07 0.668901 -2.23714 0
M  V30 44420 C 4312.05 1.1933 -1.21221 0
M  V30 44421 O 4313.24 1.23546 -1.49833 0
M  V30 44422 C 4310.37 1.87279 -2.92479 0
M  V30 44423 C 4309.32 1.48182 -4.0153 0
M  V30 44424 C 4308.65 2.76529 -4.57641 0
M  V30 44425 C 4309.95 0.664324 -5.18058 0
M  V30 44426 H 4311.64 0.103385 -2.99221 0
M  V30 44427 H 4309.19 0.048285 -1.43919 0
M  V30 44428 H 4311.14 2.50825 -3.38622 0
M  V30 44429 H 4309.86 2.46344 -2.14435 0
M  V30 44430 H 4308.52 0.869771 -3.56133 0
M  V30 44431 H 4308.17 3.33759 -3.76316 0
M  V30 44432 H 4307.87 2.51099 -5.31247 0
M  V30 44433 H 4309.39 3.41 -5.06509 0
M  V30 44434 H 4310.81 1.20372 -5.60521 0
M  V30 44435 H 4309.2 0.506706 -5.97957 0
M  V30 44436 H 4310.27 -0.326878 -4.83797 0
M  V30 44437 N 4311.62 1.57545 0.0417295 0
M  V30 44438 C 4313.03 1.5458 0.397147 0
M  V30 44439 C 4313.23 0.955974 1.77379 0
M  V30 44440 O 4312.29 0.5715 2.45947 0
M  V30 44441 C 4313.6 2.99091 0.310613 0
M  V30 44442 C 4315.15 3.10578 0.388621 0
M  V30 44443 C 4315.63 4.56797 0.331673 0
M  V30 44444 N 4317.12 4.61548 0.390852 0
M  V30 44445 C 4317.85 5.72208 0.369479 0
M  V30 44446 N 4317.35 6.92145 0.301143 0
M  V30 44447 N 4319.14 5.60542 0.418272 0
M  V30 44448 H 4311.29 1.9424 -0.859327 0
M  V30 44449 H 4313.55 0.890357 -0.325529 0
M  V30 44450 H 4313.26 3.45922 -0.634902 0
M  V30 44451 H 4313.13 3.60522 1.10923 0
M  V30 44452 H 4315.52 2.63703 1.32456 0
M  V30 44453 H 4315.6 2.52003 -0.439117 0
M  V30 44454 H 4315.25 5.04337 -0.600549 0
M  V30 44455 H 4315.18 5.1327 1.17735 0
M  V30 44456 H 4317.67 3.75251 0.446694 0
M  V30 44457 H 4317.98 7.72257 0.289587 0
M  V30 44458 H 4316.33 6.94485 0.267378 0
M  V30 44459 H 4319.52 4.65739 0.469561 0
M  V30 44460 H 4319.69 6.46776 0.398147 0
M  V30 44461 N 4313.1 -0.313759 1.54445 0
M  V30 44462 C 4314.06 -1.36955 1.83782 0
M  V30 44463 C 4315.06 -1.44272 0.710079 0
M  V30 44464 O 4316.25 -1.44129 0.978384 0
M  V30 44465 C 4313.38 -2.75583 2.00666 0
M  V30 44466 H 4314.57 -1.12192 2.78124 0
M  V30 44467 H 4312.13 -0.549763 1.46312 0
M  V30 44468 H 4312.86 -3.05587 1.08569 0
M  V30 44469 H 4312.65 -2.71664 2.82739 0
M  V30 44470 H 4314.14 -3.51944 2.24777 0
M  V30 44471 N 4314.57 -1.46684 -0.576319 0
M  V30 44472 C 4315.82 -1.53537 -1.33409 0
M  V30 44473 C 4316.17 -0.187155 -1.91488 0
M  V30 44474 O 4315.47 0.804941 -1.73871 0
M  V30 44475 C 4315.66 -2.57483 -2.47865 0
M  V30 44476 C 4315.49 -4.0228 -2.01 0
M  V30 44477 C 4314.26 -4.69932 -1.85721 0
M  V30 44478 C 4316.46 -4.89884 -1.56582 0
M  V30 44479 N 4314.44 -5.99321 -1.32994 0
M  V30 44480 C 4315.81 -6.09149 -1.1549 0
M  V30 44481 C 4317.87 -4.76483 -1.44459 0
M  V30 44482 C 4316.57 -7.16493 -0.634808 0
M  V30 44483 C 4318.6 -5.83906 -0.938521 0
M  V30 44484 C 4317.96 -7.02347 -0.537417 0
M  V30 44485 H 4314.06 -0.616637 -0.480919 0
M  V30 44486 H 4316.64 -1.83335 -0.655479 0
M  V30 44487 H 4314.81 -2.29585 -3.13281 0
M  V30 44488 H 4316.54 -2.54292 -3.14829 0
M  V30 44489 H 4313.3 -4.25548 -2.07861 0
M  V30 44490 H 4313.72 -6.68205 -1.08773 0
M  V30 44491 H 4318.36 -3.85297 -1.74086 0
M  V30 44492 H 4316.08 -8.07442 -0.32613 0
M  V30 44493 H 4319.67 -5.75579 -0.848535 0
M  V30 44494 H 4318.55 -7.84053 -0.151879 0
M  V30 44495 N 4316.05 0.821486 -1.34497 0
M  V30 44496 C 4317.47 1.11482 -1.1421 0
M  V30 44497 C 4317.67 2.01424 0.0554375 0
M  V30 44498 O 4316.72 2.41701 0.730532 0
M  V30 44499 C 4318.04 1.76015 -2.43802 0
M  V30 44500 C 4319.58 1.88503 -2.49871 0
M  V30 44501 C 4320.06 2.56452 -3.79468 0
M  V30 44502 N 4321.55 2.6395 -3.80637 0
M  V30 44503 C 4322.29 3.17258 -4.77635 0
M  V30 44504 N 4321.78 3.71119 -5.85015 0
M  V30 44505 N 4323.57 3.15673 -4.65088 0
M  V30 44506 H 4315.73 0.22327 -2.11223 0
M  V30 44507 H 4317.99 0.161611 -0.934123 0
M  V30 44508 H 4317.69 1.17391 -3.3153 0
M  V30 44509 H 4317.57 2.75869 -2.57248 0
M  V30 44510 H 4319.96 2.46275 -1.62581 0
M  V30 44511 H 4320.04 0.87548 -2.40352 0
M  V30 44512 H 4319.68 1.99334 -4.67149 0
M  V30 44513 H 4319.61 3.57914 -3.86271 0
M  V30 44514 H 4322.1 2.25775 -3.03042 0
M  V30 44515 H 4322.41 4.1005 -6.55041 0
M  V30 44516 H 4320.76 3.69358 -5.88727 0
M  V30 44517 H 4323.95 2.72863 -3.80347 0
M  V30 44518 H 4324.12 3.56913 -5.40849 0
M  V30 44519 N 4317.53 1.1825 1.04186 0
M  V30 44520 C 4318.48 0.876395 2.10484 0
M  V30 44521 C 4319.46 -0.153361 1.60167 0
M  V30 44522 O 4320.66 0.0505097 1.76928 0
M  V30 44523 C 4317.79 0.402588 3.40931 0
M  V30 44524 C 4316.87 1.46435 3.98017 0
M  V30 44525 N 4317.26 2.68048 4.28933 0
M  V30 44526 C 4315.56 1.32458 4.25877 0
M  V30 44527 C 4316.26 3.36348 4.746 0
M  V30 44528 N 4315.24 2.6373 4.75339 0
M  V30 44529 H 4319.04 1.80088 2.32262 0
M  V30 44530 H 4316.55 1.07272 1.21928 0
M  V30 44531 H 4318.55 0.164801 4.16574 0
M  V30 44532 H 4317.21 -0.515574 3.20581 0
M  V30 44533 H 4318.22 3.04926 4.18618 0
M  V30 44534 H 4314.9 0.468865 4.14859 0
M  V30 44535 H 4316.29 4.40276 5.0755 0
M  V30 44536 N 4319.01 -1.23079 0.984342 0
M  V30 44537 C 4320.42 -1.43739 0.693625 0
M  V30 44538 C 4320.62 -1.87468 -0.738795 0
M  V30 44539 O 4319.68 -2.02317 -1.51076 0
M  V30 44540 C 4320.99 -2.48586 1.69191 0
M  V30 44541 C 4322.54 -2.62395 1.70639 0
M  V30 44542 C 4323.02 -3.70455 2.69309 0
M  V30 44543 N 4324.51 -3.77902 2.67851 0
M  V30 44544 C 4325.24 -4.61084 3.40865 0
M  V30 44545 N 4324.74 -5.48326 4.23451 0
M  V30 44546 N 4326.53 -4.55317 3.29611 0
M  V30 44547 H 4318.68 -0.929981 1.90958 0
M  V30 44548 H 4320.95 -0.470384 0.823069 0
M  V30 44549 H 4320.65 -2.23381 2.7165 0
M  V30 44550 H 4320.53 -3.47042 1.4779 0
M  V30 44551 H 4322.91 -2.86948 0.688832 0
M  V30 44552 H 4322.99 -1.64242 1.96107 0
M  V30 44553 H 4322.64 -3.4665 3.71209 0
M  V30 44554 H 4322.57 -4.68158 2.41114 0
M  V30 44555 H 4325.06 -3.1556 2.07918 0
M  V30 44556 H 4325.37 -6.08798 4.76009 0
M  V30 44557 H 4323.72 -5.47936 4.27541 0
M  V30 44558 H 4326.91 -3.86182 2.6454 0
M  V30 44559 H 4327.08 -5.19914 3.86773 0
M  V30 44560 N 4320.49 -0.756478 -1.38258 0
M  V30 44561 C 4321.45 -0.138932 -2.28779 0
M  V30 44562 C 4322.45 0.644423 -1.47322 0
M  V30 44563 O 4323.64 0.470263 -1.67732 0
M  V30 44564 C 4320.77 0.811477 -3.31101 0
M  V30 44565 H 4321.96 -0.936701 -2.84896 0
M  V30 44566 H 4319.52 -0.523676 -1.47266 0
M  V30 44567 H 4320.25 1.63482 -2.80079 0
M  V30 44568 H 4320.04 0.25213 -3.91289 0
M  V30 44569 H 4321.53 1.23946 -3.98782 0
M  V30 44570 N 4321.96 1.49264 -0.505783 0
M  V30 44571 C 4323.38 1.58775 -0.162049 0
M  V30 44572 C 4323.58 1.51051 1.33364 0
M  V30 44573 O 4322.64 1.38694 2.10998 0
M  V30 44574 C 4323.95 2.91374 -0.743097 0
M  V30 44575 C 4325.5 3.04849 -0.709636 0
M  V30 44576 C 4325.97 4.40073 -1.26883 0
M  V30 44577 N 4327.46 4.46578 -1.22974 0
M  V30 44578 C 4328.2 5.49668 -1.63256 0
M  V30 44579 N 4327.69 6.59838 -2.11153 0
M  V30 44580 N 4329.49 5.40409 -1.54642 0
M  V30 44581 H 4321.64 1.52527 -1.47815 0
M  V30 44582 H 4323.9 0.7228 -0.613404 0
M  V30 44583 H 4323.61 3.02609 -1.79223 0
M  V30 44584 H 4323.48 3.76636 -0.206261 0
M  V30 44585 H 4325.87 2.93241 0.330674 0
M  V30 44586 H 4325.95 2.21259 -1.28367 0
M  V30 44587 H 4325.59 4.52434 -2.30795 0
M  V30 44588 H 4325.52 5.22311 -0.670691 0
M  V30 44589 H 4328.01 3.67539 -0.878846 0
M  V30 44590 H 4328.33 7.34605 -2.39947 0
M  V30 44591 H 4326.67 6.60866 -2.1513 0
M  V30 44592 H 4329.86 4.53232 -1.17038 0
M  V30 44593 H 4330.04 6.20624 -1.86358 0
M  V30 44594 N 4323.44 0.239823 1.55765 0
M  V30 44595 C 4324.67 -0.394207 2.03619 0
M  V30 44596 C 4325.09 -1.5126 1.11813 0
M  V30 44597 O 4324.45 -1.80968 0.109732 0
M  V30 44598 C 4324.5 -0.885968 3.49547 0
M  V30 44599 O 4323.6 -1.99607 3.60875 0
M  V30 44600 H 4322.94 -0.0868896 0.65829 0
M  V30 44601 H 4325.47 0.36381 2.01339 0
M  V30 44602 H 4325.48 -1.19104 3.90229 0
M  V30 44603 H 4324.16 -0.0675153 4.15845 0
M  V30 44604 H 4322.74 -1.69624 3.32088 0
M  V30 44605 N 4324.92 -1.57565 -0.0333739 0
M  V30 44606 C 4326.17 -1.89355 -0.726124 0
M  V30 44607 C 4326.5 -0.837033 -1.75235 0
M  V30 44608 O 4325.77 0.148418 -1.93933 0
M  V30 44609 C 4326.06 -3.31789 -1.39957 0
M  V30 44610 C 4325.91 -4.48131 -0.387149 0
M  V30 44611 C 4327.23 -3.73069 -2.33468 0
M  V30 44612 H 4324.35 -0.688665 -0.262506 0
M  V30 44613 H 4326.99 -1.89997 0.0110619 0
M  V30 44614 H 4325.14 -3.31373 -2.02792 0
M  V30 44615 H 4326.81 -4.60681 0.238948 0
M  V30 44616 H 4325.06 -4.32803 0.293987 0
M  V30 44617 H 4325.73 -5.44667 -0.89675 0
M  V30 44618 H 4328.2 -3.74825 -1.80681 0
M  V30 44619 H 4327.08 -4.73545 -2.77572 0
M  V30 44620 H 4327.34 -3.0509 -3.19957 0
M  V30 44621 N 4326.4 0.305564 -1.54609 0
M  V30 44622 C 4327.81 0.650963 -1.45721 0
M  V30 44623 C 4328.01 1.90908 -0.644695 0
M  V30 44624 O 4327.07 2.52051 -0.150589 0
M  V30 44625 C 4328.38 0.808208 -2.89635 0
M  V30 44626 C 4329.93 0.904389 -2.99649 0
M  V30 44627 C 4330.41 1.09367 -4.4475 0
M  V30 44628 N 4331.9 1.15998 -4.4844 0
M  V30 44629 C 4332.63 1.32464 -5.5789 0
M  V30 44630 N 4332.13 1.45858 -6.77272 0
M  V30 44631 N 4333.92 1.35316 -5.45569 0
M  V30 44632 H 4326.07 -0.521119 -2.05908 0
M  V30 44633 H 4328.34 -0.171472 -0.932363 0
M  V30 44634 H 4328.04 -0.0452921 -3.51671 0
M  V30 44635 H 4327.92 1.6986 -3.3679 0
M  V30 44636 H 4330.3 1.74838 -2.3773 0
M  V30 44637 H 4330.38 -0.00992095 -2.55798 0
M  V30 44638 H 4330.03 0.254461 -5.07262 0
M  V30 44639 H 4329.96 2.02213 -4.86228 0
M  V30 44640 H 4332.45 1.07019 -3.6243 0
M  V30 44641 H 4332.76 1.58165 -7.56441 0
M  V30 44642 H 4331.11 1.42922 -6.80146 0
M  V30 44643 H 4334.3 1.24461 -4.51251 0
M  V30 44644 H 4334.47 1.47806 -6.30918 0
M  V30 44645 N 4327.88 1.46988 0.568532 0
M  V30 44646 C 4328.84 1.58188 1.65859 0
M  V30 44647 C 4329.84 0.457856 1.54144 0
M  V30 44648 O 4331.03 0.722594 1.58506 0
M  V30 44649 C 4328.16 1.51565 3.05354 0
M  V30 44650 H 4329.35 2.55348 1.57282 0
M  V30 44651 H 4326.91 1.35009 0.787538 0
M  V30 44652 H 4327.64 0.557385 3.19474 0
M  V30 44653 H 4327.43 2.33131 3.15266 0
M  V30 44654 H 4328.92 1.62518 3.84679 0
M  V30 44655 N 4329.35 -0.814342 1.3493 0
M  V30 44656 C 4330.77 -1.10875 1.148 0
M  V30 44657 C 4330.97 -2.0145 -0.0447547 0
M  V30 44658 O 4330.03 -2.42085 -0.717704 0
M  V30 44659 C 4331.34 -1.74719 2.44732 0
M  V30 44660 C 4332.89 -1.87175 2.50867 0
M  V30 44661 C 4333.36 -2.54436 3.80823 0
M  V30 44662 N 4334.85 -2.61928 3.82031 0
M  V30 44663 C 4335.59 -3.14721 4.7931 0
M  V30 44664 N 4335.08 -3.68011 5.86975 0
M  V30 44665 N 4336.88 -3.13202 4.66756 0
M  V30 44666 H 4329.03 -0.212065 2.11339 0
M  V30 44667 H 4331.29 -0.156655 0.934967 0
M  V30 44668 H 4331 -1.15631 3.32148 0
M  V30 44669 H 4330.87 -2.745 2.58707 0
M  V30 44670 H 4333.26 -2.4541 1.63885 0
M  V30 44671 H 4333.34 -0.862721 2.40813 0
M  V30 44672 H 4332.98 -1.96854 4.682 0
M  V30 44673 H 4332.91 -3.55861 3.88163 0
M  V30 44674 H 4335.4 -2.24165 3.04235 0
M  V30 44675 H 4335.72 -4.06571 6.57206 0
M  V30 44676 H 4334.06 -3.66231 5.90678 0
M  V30 44677 H 4337.25 -2.70842 3.81788 0
M  V30 44678 H 4337.43 -3.5404 5.42734 0
M  V30 44679 N 4330.83 -1.18801 -1.03557 0
M  V30 44680 C 4331.76 -0.943251 -2.136 0
M  V30 44681 C 4332.74 0.120935 -1.6967 0
M  V30 44682 O 4333.93 -0.032709 -1.94172 0
M  V30 44683 C 4331.06 -0.473776 -3.44053 0
M  V30 44684 C 4330.01 -1.47903 -4.01633 0
M  V30 44685 C 4329.34 -0.866882 -5.27626 0
M  V30 44686 C 4330.64 -2.85728 -4.37215 0
M  V30 44687 H 4332.33 -1.86356 -2.34333 0
M  V30 44688 H 4329.88 -0.897426 -1.12616 0
M  V30 44689 H 4331.83 -0.289878 -4.20402 0
M  V30 44690 H 4330.56 0.48211 -3.23022 0
M  V30 44691 H 4329.21 -1.64996 -3.27371 0
M  V30 44692 H 4328.86 0.0963502 -5.02908 0
M  V30 44693 H 4328.56 -1.53809 -5.67112 0
M  V30 44694 H 4330.09 -0.693629 -6.06647 0
M  V30 44695 H 4331.5 -2.72257 -5.04529 0
M  V30 44696 H 4329.9 -3.49579 -4.87765 0
M  V30 44697 H 4330.97 -3.38892 -3.46815 0
M  V30 44698 N 4332.31 1.22555 -0.990855 0
M  V30 44699 C 4333.24 2.26702 -0.559344 0
M  V30 44700 C 4334.22 1.65016 0.412753 0
M  V30 44701 O 4335.41 1.91808 0.303835 0
M  V30 44702 C 4332.54 3.47061 0.128819 0
M  V30 44703 C 4331.49 4.21169 -0.761614 0
M  V30 44704 C 4330.82 5.34667 0.0593502 0
M  V30 44705 C 4332.12 4.80068 -2.05748 0
M  V30 44706 H 4333.81 2.63049 -1.42988 0
M  V30 44707 H 4331.36 1.26448 -0.688982 0
M  V30 44708 H 4333.31 4.19075 0.442076 0
M  V30 44709 H 4332.03 3.09804 1.03388 0
M  V30 44710 H 4330.69 3.50987 -1.05848 0
M  V30 44711 H 4330.34 4.93651 0.965268 0
M  V30 44712 H 4330.04 5.85174 -0.533393 0
M  V30 44713 H 4331.57 6.09498 0.366749 0
M  V30 44714 H 4332.98 5.44034 -1.80831 0
M  V30 44715 H 4331.38 5.40905 -2.59888 0
M  V30 44716 H 4332.45 4.00233 -2.73755 0
M  V30 44717 N 4333.79 0.763799 1.37855 0
M  V30 44718 C 4334.75 0.151062 2.28702 0
M  V30 44719 C 4335.75 -0.636601 1.47662 0
M  V30 44720 O 4336.94 -0.461361 1.67979 0
M  V30 44721 C 4334.07 -0.793906 3.31527 0
M  V30 44722 H 4335.27 0.951797 2.84396 0
M  V30 44723 H 4332.82 0.531478 1.46986 0
M  V30 44724 H 4333.56 -1.61994 2.80942 0
M  V30 44725 H 4333.34 -0.231376 3.91417 0
M  V30 44726 H 4334.83 -1.2183 3.99434 0
M  V30 44727 N 4335.27 -1.48993 0.513692 0
M  V30 44728 C 4336.68 -1.58687 0.170466 0
M  V30 44729 C 4336.88 -1.51756 -1.32561 0
M  V30 44730 O 4335.94 -1.39811 -2.1026 0
M  V30 44731 C 4337.25 -2.90975 0.758539 0
M  V30 44732 C 4338.8 -3.04469 0.725793 0
M  V30 44733 C 4339.28 -4.39394 1.29215 0
M  V30 44734 N 4340.77 -4.45919 1.2534 0
M  V30 44735 C 4341.5 -5.48795 1.66168 0
M  V30 44736 N 4341 -6.58709 2.14649 0
M  V30 44737 N 4342.79 -5.39582 1.57506 0
M  V30 44738 H 4334.94 -1.51741 1.48622 0
M  V30 44739 H 4337.2 -0.719537 0.617228 0
M  V30 44740 H 4336.91 -3.01654 1.80825 0
M  V30 44741 H 4336.78 -3.76521 0.226232 0
M  V30 44742 H 4339.17 -2.93413 -0.315118 0
M  V30 44743 H 4339.25 -2.20575 1.29539 0
M  V30 44744 H 4338.9 -4.51203 2.33191 0
M  V30 44745 H 4338.83 -5.21948 0.698381 0
M  V30 44746 H 4341.32 -3.67067 0.898325 0
M  V30 44747 H 4341.63 -7.33323 2.4384 0
M  V30 44748 H 4339.98 -6.59716 2.18632 0
M  V30 44749 H 4343.17 -4.52605 1.1944 0
M  V30 44750 H 4343.34 -6.19627 1.89647 0
M  V30 44751 N 4336.75 -0.248081 -1.55635 0
M  V30 44752 C 4337.99 0.375591 -1.98579 0
M  V30 44753 C 4338.31 1.58381 -1.13756 0
M  V30 44754 O 4337.58 1.94654 -0.220634 0
M  V30 44755 H 4336.16 0.14176 -0.733426 0
M  V30 44756 H 4338.83 -0.347143 -1.91784 0
M  V30 44757 H 4337.92 0.68393 -3.04514 0
M  V30 44758 N 4338.22 1.5758 0.0250174 0
M  V30 44759 C 4339.47 1.89082 0.7136 0
M  V30 44760 C 4339.79 0.846289 1.75679 0
M  V30 44761 O 4339.06 -0.119578 1.95535 0
M  V30 44762 H 4337.64 0.697824 0.266554 0
M  V30 44763 H 4340.3 1.94897 -0.00998927 0
M  V30 44764 H 4339.4 2.88082 1.20063 0
M  V30 44765 N 4339.7 -0.29736 1.54769 0
M  V30 44766 C 4341.12 -0.643226 1.46064 0
M  V30 44767 C 4341.32 -1.90564 0.654811 0
M  V30 44768 O 4340.37 -2.51967 0.163954 0
M  V30 44769 C 4341.69 -0.792837 2.9006 0
M  V30 44770 C 4343.23 -0.888485 3.00125 0
M  V30 44771 C 4343.71 -1.07007 4.45324 0
M  V30 44772 N 4345.2 -1.13618 4.49049 0
M  V30 44773 C 4345.94 -1.29504 5.58584 0
M  V30 44774 N 4345.43 -1.42264 6.78036 0
M  V30 44775 N 4347.22 -1.32421 5.46279 0
M  V30 44776 H 4339.38 0.532031 2.05629 0
M  V30 44777 H 4341.64 0.176414 0.931441 0
M  V30 44778 H 4341.34 0.0639414 3.51642 0
M  V30 44779 H 4341.22 -1.68072 3.37686 0
M  V30 44780 H 4343.61 -1.73575 2.38654 0
M  V30 44781 H 4343.69 0.0234864 2.55789 0
M  V30 44782 H 4343.33 -0.227556 5.0739 0
M  V30 44783 H 4343.26 -1.99632 4.87293 0
M  V30 44784 H 4345.75 -1.05095 3.62992 0
M  V30 44785 H 4346.06 -1.54151 7.5727 0
M  V30 44786 H 4344.41 -1.39313 6.80894 0
M  V30 44787 H 4347.6 -1.22066 4.51904 0
M  V30 44788 H 4347.77 -1.44458 6.31693 0
M  V30 44789 N 4341.18 -1.47287 -0.560729 0
M  V30 44790 C 4342.14 -1.59066 -1.65018 0
M  V30 44791 C 4343.14 -0.466024 -1.53899 0
M  V30 44792 O 4344.33 -0.73099 -1.58121 0
M  V30 44793 C 4341.46 -1.53182 -3.04545 0
M  V30 44794 H 4342.66 -2.56178 -1.55925 0
M  V30 44795 H 4340.21 -1.35425 -0.780367 0
M  V30 44796 H 4340.95 -0.57432 -3.19174 0
M  V30 44797 H 4340.73 -2.348 -3.14025 0
M  V30 44798 H 4342.22 -1.64555 -3.83812 0
M  V30 44799 N 4342.66 0.807175 -1.3536 0
M  V30 44800 C 4343.62 1.90057 -1.28106 0
M  V30 44801 C 4344.62 1.59642 -0.192642 0
M  V30 44802 O 4345.81 1.68386 -0.446303 0
M  V30 44803 C 4342.94 3.26461 -0.981638 0
M  V30 44804 H 4344.14 1.97909 -2.25327 0
M  V30 44805 H 4341.69 1.00297 -1.19876 0
M  V30 44806 H 4342.42 3.24297 -0.013266 0
M  V30 44807 H 4342.21 3.49922 -1.76909 0
M  V30 44808 H 4343.7 4.06499 -0.956468 0
M  V30 44809 N 4344.14 1.19348 1.02926 0
M  V30 44810 C 4345.38 0.990188 1.75722 0
M  V30 44811 C 4345.7 -0.479852 1.89623 0
M  V30 44812 O 4346.9 -0.801956 2.59386 0
M  V30 44813 C 4345.36 1.72276 3.15989 0
M  V30 44814 C 4344.97 3.23288 3.10143 0
M  V30 44815 C 4346.71 1.60269 3.93083 0
M  V30 44816 C 4344.62 3.89136 4.4534 0
M  V30 44817 H 4343.55 0.366866 0.65873 0
M  V30 44818 H 4346.2 1.4284 1.15191 0
M  V30 44819 H 4344.58 1.21236 3.76985 0
M  V30 44820 H 4345.76 3.81443 2.5853 0
M  V30 44821 H 4344.07 3.35565 2.46546 0
M  V30 44822 H 4346.67 2.06816 4.93083 0
M  V30 44823 H 4347.01 0.55678 4.1256 0
M  V30 44824 H 4347.54 2.08653 3.38687 0
M  V30 44825 H 4344.28 4.93823 4.31067 0
M  V30 44826 H 4343.8 3.35769 4.9701 0
M  V30 44827 H 4345.48 3.92661 5.14224 0
M  V30 44828 N 4345.61 -1.22028 0.997341 0
M  V30 44829 C 4346.85 -1.92617 0.683966 0
M  V30 44830 C 4347.22 -1.75872 -0.770252 0
M  V30 44831 O 4348.42 -2.40764 -1.19525 0
M  V30 44832 C 4346.69 -3.40559 1.08416 0
M  V30 44833 S 4348.25 -4.29683 0.88983 0
M  V30 44834 H 4345.07 -0.665622 0.249937 0
M  V30 44835 H 4347.67 -1.47723 1.28056 0
M  V30 44836 H 4346.37 -3.50261 2.13882 0
M  V30 44837 H 4345.9 -3.90466 0.479552 0
M  V30 44838 H 4347.92 -4.95724 -0.21725 0
M  V30 44839 N 4347.09 -0.771099 -1.37448 0
M  V30 44840 C 4348.34 -0.334465 -1.99313 0
M  V30 44841 C 4348.66 1.09257 -1.61517 0
M  V30 44842 O 4347.93 1.75007 -0.880309 0
M  V30 44843 H 4346.51 -0.120677 -0.737188 0
M  V30 44844 H 4349.17 -0.989082 -1.67938 0
M  V30 44845 H 4348.27 -0.41158 -3.09374 0
M  V30 44846 N 4348.57 1.48719 -0.521586 0
M  V30 44847 C 4349.52 2.29488 0.24576 0
M  V30 44848 C 4350.49 1.36836 0.941547 0
M  V30 44849 O 4351.67 1.65799 0.94421 0
M  V30 44850 C 4348.81 3.20008 1.29184 0
M  V30 44851 C 4347.93 4.27732 0.605752 0
M  V30 44852 C 4347.06 5.05443 1.63404 0
M  V30 44853 C 4346.1 6.04979 0.930952 0
M  V30 44854 N 4345.24 6.75779 1.9044 0
M  V30 44855 H 4350.08 2.94595 -0.449203 0
M  V30 44856 H 4347.61 1.45237 -0.233364 0
M  V30 44857 H 4349.57 3.70882 1.91055 0
M  V30 44858 H 4348.2 2.56842 1.9553 0
M  V30 44859 H 4347.25 3.80189 -0.12671 0
M  V30 44860 H 4348.57 4.98772 0.053291 0
M  V30 44861 H 4347.72 5.60289 2.32726 0
M  V30 44862 H 4346.46 4.34223 2.22039 0
M  V30 44863 H 4345.46 5.49345 0.223619 0
M  V30 44864 H 4346.69 6.78193 0.35083 0
M  V30 44865 H 4344.63 6.07316 2.47998 0
M  V30 44866 H 4344.55 7.42865 1.40315 0
M  V30 44867 H 4345.82 7.35219 2.58986 0
M  V30 44868 N 4350.05 0.256331 1.55501 0
M  V30 44869 C 4351.28 -0.369118 2.03276 0
M  V30 44870 C 4351.69 -1.51398 1.1347 0
M  V30 44871 O 4351.03 -1.83139 0.14345 0
M  V30 44872 C 4351.09 -0.929858 3.47266 0
M  V30 44873 C 4350.76 0.0839567 4.56923 0
M  V30 44874 C 4351.75 0.896854 5.12106 0
M  V30 44875 C 4349.44 0.212772 5.01849 0
M  V30 44876 C 4351.43 1.82493 6.10717 0
M  V30 44877 C 4349.12 1.14435 6.0029 0
M  V30 44878 C 4350.12 1.94895 6.54603 0
M  V30 44879 O 4349.8 2.8648 7.51122 0
M  V30 44880 H 4349.54 -0.0907337 0.669883 0
M  V30 44881 H 4352.09 0.380596 2.01843 0
M  V30 44882 H 4350.32 -1.72931 3.45878 0
M  V30 44883 H 4352.01 -1.46639 3.78486 0
M  V30 44884 H 4352.78 0.807971 4.78223 0
M  V30 44885 H 4348.65 -0.403447 4.59231 0
M  V30 44886 H 4352.2 2.45337 6.53036 0
M  V30 44887 H 4348.1 1.23412 6.33593 0
M  V30 44888 H 4348.86 2.80948 7.68772 0
M  V30 44889 N 4351.53 -1.57591 -0.0166602 0
M  V30 44890 C 4352.46 -2.10399 -1.01264 0
M  V30 44891 C 4353.44 -1.0093 -1.3692 0
M  V30 44892 O 4354.62 -1.28523 -1.45587 0
M  V30 44893 C 4351.75 -2.59361 -2.30975 0
M  V30 44894 C 4350.71 -3.73206 -2.09527 0
M  V30 44895 C 4350.03 -4.08419 -3.45105 0
M  V30 44896 C 4351.33 -5.01147 -1.47135 0
M  V30 44897 H 4353.03 -2.93866 -0.573002 0
M  V30 44898 H 4350.57 -1.41366 -0.274179 0
M  V30 44899 H 4352.53 -2.94928 -3.00991 0
M  V30 44900 H 4351.25 -1.72994 -2.77021 0
M  V30 44901 H 4349.91 -3.38007 -1.4194 0
M  V30 44902 H 4349.56 -3.191 -3.88824 0
M  V30 44903 H 4349.26 -4.85109 -3.31576 0
M  V30 44904 H 4350.78 -4.46531 -4.16464 0
M  V30 44905 H 4352.19 -5.34592 -2.07085 0
M  V30 44906 H 4350.59 -5.82531 -1.44144 0
M  V30 44907 H 4351.66 -4.82912 -0.43858 0
M  V30 44908 N 4353 0.289148 -1.54925 0
M  V30 44909 C 4354.25 1.02286 -1.74768 0
M  V30 44910 C 4354.58 1.86856 -0.539906 0
M  V30 44911 O 4353.83 1.89774 0.477945 0
M  V30 44912 C 4354.13 1.94821 -2.99633 0
M  V30 44913 C 4353.8 1.26131 -4.32899 0
M  V30 44914 C 4352.46 1.07131 -4.69123 0
M  V30 44915 C 4354.81 0.771218 -5.15463 0
M  V30 44916 C 4352.14 0.378247 -5.85479 0
M  V30 44917 C 4354.49 0.091819 -6.32533 0
M  V30 44918 C 4353.16 -0.110032 -6.67409 0
M  V30 44919 H 4352.43 0.37429 -0.639522 0
M  V30 44920 H 4355.07 0.296612 -1.89189 0
M  V30 44921 H 4353.38 2.74013 -2.80043 0
M  V30 44922 H 4355.08 2.51683 -3.12181 0
M  V30 44923 H 4351.67 1.41928 -4.04419 0
M  V30 44924 H 4355.85 0.905682 -4.87966 0
M  V30 44925 H 4351.11 0.210983 -6.11036 0
M  V30 44926 H 4355.28 -0.295776 -6.95772 0
M  V30 44927 H 4352.91 -0.649065 -7.57424 0
M  V30 44928 N 4354.48 1.47583 0.55291 0
M  V30 44929 C 4355.43 1.60805 1.68061 0
M  V30 44930 C 4356.42 0.475204 1.62598 0
M  V30 44931 O 4357.63 0.653152 1.67732 0
M  V30 44932 H 4354.01 0.506141 0.556171 0
M  V30 44933 H 4355.98 2.55562 1.54047 0
M  V30 44934 C 4354.73 1.64353 3.06404 0
M  V30 44935 H 4354.05 2.50874 3.11291 0
M  V30 44936 H 4355.49 1.77654 3.84987 0
M  V30 44937 C 4353.95 0.37767 3.34776 0
M  V30 44938 O 4354.48 -0.519396 3.98328 0
M  V30 44939 N 4352.68 0.256375 2.89467 0
M  V30 44940 H 4352.23 0.987312 2.37928 0
M  V30 44941 H 4352.19 -0.589642 3.08821 0
M  V30 44942 N 4355.96 -0.799985 1.35787 0
M  V30 44943 C 4357.21 -1.5591 1.30628 0
M  V30 44944 C 4357.56 -1.92047 -0.116535 0
M  V30 44945 O 4356.85 -1.59037 -1.06854 0
M  V30 44946 C 4357.05 -2.85298 2.15266 0
M  V30 44947 C 4356.88 -2.61805 3.65634 0
M  V30 44948 C 4355.65 -2.57363 4.34848 0
M  V30 44949 C 4357.85 -2.31728 4.59137 0
M  V30 44950 N 4355.83 -2.25656 5.70923 0
M  V30 44951 C 4357.2 -2.09917 5.83382 0
M  V30 44952 C 4359.25 -2.17646 4.47811 0
M  V30 44953 C 4357.96 -1.75449 6.97574 0
M  V30 44954 C 4359.98 -1.84576 5.61859 0
M  V30 44955 C 4359.34 -1.63605 6.85137 0
M  V30 44956 H 4355.44 -0.571971 0.533267 0
M  V30 44957 H 4358.03 -0.935837 1.70734 0
M  V30 44958 H 4356.2 -3.45509 1.77421 0
M  V30 44959 H 4357.93 -3.50926 2.01577 0
M  V30 44960 H 4354.69 -2.72242 3.87532 0
M  V30 44961 H 4355.11 -2.12577 6.4276 0
M  V30 44962 H 4359.75 -2.32553 3.53099 0
M  V30 44963 H 4357.47 -1.59279 7.92247 0
M  V30 44964 H 4361.06 -1.74379 5.55052 0
M  V30 44965 H 4359.94 -1.3839 7.71892 0
M  V30 44966 N 4357.44 -1.19892 -1.02292 0
M  V30 44967 C 4358.4 -0.943891 -2.08862 0
M  V30 44968 C 4359.4 0.0780373 -1.60611 0
M  V30 44969 O 4360.59 -0.15735 -1.73488 0
M  V30 44970 C 4357.72 -0.419774 -3.38306 0
M  V30 44971 H 4358.92 -1.88913 -2.3292 0
M  V30 44972 H 4356.47 -1.01341 -1.18994 0
M  V30 44973 H 4357.2 0.53123 -3.19919 0
M  V30 44974 H 4356.99 -1.15668 -3.74651 0
M  V30 44975 H 4358.48 -0.260623 -4.16786 0
M  V30 44976 N 4358.92 1.21498 -1.0038 0
M  V30 44977 C 4360.16 1.90815 -0.68683 0
M  V30 44978 C 4360.5 1.77833 0.780317 0
M  V30 44979 O 4359.77 1.1542 1.56551 0
M  V30 44980 C 4360.05 3.42659 -1.10711 0
M  V30 44981 C 4359.91 3.64638 -2.63362 0
M  V30 44982 C 4361.23 4.34992 -0.668583 0
M  V30 44983 H 4358.34 0.692946 -0.250989 0
M  V30 44984 H 4360.99 1.43155 -1.24927 0
M  V30 44985 H 4359.14 3.83381 -0.628563 0
M  V30 44986 H 4360.81 3.3325 -3.1897 0
M  V30 44987 H 4359.05 3.08545 -3.0493 0
M  V30 44988 H 4359.72 4.71024 -2.8782 0
M  V30 44989 H 4362.2 4.01845 -1.07979 0
M  V30 44990 H 4361.07 5.39883 -0.990828 0
M  V30 44991 H 4361.34 4.40001 0.430336 0
M  V30 44992 N 4360.39 0.778378 1.37037 0
M  V30 44993 C 4361.81 0.458769 1.52864 0
M  V30 44994 C 4362.01 -1.02462 1.73504 0
M  V30 44995 O 4361.07 -1.81033 1.7602 0
M  V30 44996 C 4362.38 1.27961 2.72115 0
M  V30 44997 C 4363.93 1.27218 2.8598 0
M  V30 44998 C 4364.4 2.07652 4.08221 0
M  V30 44999 N 4365.89 2.0504 4.15347 0
M  V30 45000 C 4366.63 2.64053 5.08983 0
M  V30 45001 N 4366.12 3.3188 6.08134 0
M  V30 45002 N 4367.92 2.53847 5.01516 0
M  V30 45003 H 4360.07 1.73943 1.21892 0
M  V30 45004 H 4362.33 0.738785 0.594054 0
M  V30 45005 H 4362.04 2.3311 2.63349 0
M  V30 45006 H 4361.91 0.913323 3.65976 0
M  V30 45007 H 4364.3 0.228659 2.94213 0
M  V30 45008 H 4364.38 1.67816 1.93058 0
M  V30 45009 H 4364.02 3.12029 4.0075 0
M  V30 45010 H 4363.95 1.64432 5.0027 0
M  V30 45011 H 4366.44 1.55666 3.4435 0
M  V30 45012 H 4366.76 3.74267 6.76124 0
M  V30 45013 H 4365.1 3.3598 6.08393 0
M  V30 45014 H 4368.29 2.00467 4.23002 0
M  V30 45015 H 4368.47 3.00131 5.74304 0
M  V30 45016 N 4361.87 -1.4844 0.529465 0
M  V30 45017 C 4363.1 -2.069 -0.000787806 0
M  V30 45018 C 4363.52 -1.38608 -1.28193 0
M  V30 45019 O 4362.87 -0.473431 -1.76252 0
M  V30 45020 C 4362.92 -3.60774 -0.228968 0
M  V30 45021 O 4362.65 -4.26501 1.00141 0
M  V30 45022 C 4364.15 -4.36028 -0.799659 0
M  V30 45023 H 4361.37 -0.670174 0.0332808 0
M  V30 45024 H 4363.91 -1.90836 0.734962 0
M  V30 45025 H 4362.07 -3.76445 -0.914766 0
M  V30 45026 H 4362.48 -5.1864 0.781828 0
M  V30 45027 H 4363.95 -5.44468 -0.908746 0
M  V30 45028 H 4364.43 -4.00421 -1.80443 0
M  V30 45029 H 4365.04 -4.25034 -0.150443 0
M  V30 45030 N 4363.35 -0.264574 -1.55363 0
M  V30 45031 C 4364.3 0.627451 -2.22107 0
M  V30 45032 C 4365.27 1.15786 -1.19092 0
M  V30 45033 O 4366.45 1.2091 -1.47599 0
M  V30 45034 C 4363.59 1.81063 -2.93786 0
M  V30 45035 C 4362.71 1.31507 -4.11497 0
M  V30 45036 C 4361.84 2.45921 -4.70846 0
M  V30 45037 C 4360.88 1.93316 -5.80771 0
M  V30 45038 N 4360.02 3.01162 -6.34228 0
M  V30 45039 H 4364.86 0.0516242 -2.97955 0
M  V30 45040 H 4362.39 0.0137161 -1.47094 0
M  V30 45041 H 4364.35 2.50595 -3.33554 0
M  V30 45042 H 4362.98 2.35865 -2.2038 0
M  V30 45043 H 4362.03 0.513204 -3.76922 0
M  V30 45044 H 4363.35 0.889684 -4.90801 0
M  V30 45045 H 4362.5 3.23465 -5.13279 0
M  V30 45046 H 4361.24 2.9177 -3.90796 0
M  V30 45047 H 4360.24 1.14248 -5.37799 0
M  V30 45048 H 4361.47 1.48415 -6.62684 0
M  V30 45049 H 4359.42 3.46413 -5.57076 0
M  V30 45050 H 4359.33 2.63008 -7.08775 0
M  V30 45051 H 4360.6 3.78713 -6.8132 0
M  V30 45052 N 4364.83 1.57598 0.00830251 0
M  V30 45053 C 4365.76 2.10933 1.00147 0
M  V30 45054 C 4366.74 1.01655 1.36383 0
M  V30 45055 O 4367.93 1.29293 1.44903 0
M  V30 45056 C 4365.06 2.60582 2.29596 0
M  V30 45057 C 4364.01 3.74312 2.07544 0
M  V30 45058 C 4363.34 4.10244 3.42935 0
M  V30 45059 C 4364.64 5.01921 1.44475 0
M  V30 45060 H 4366.33 2.94165 0.557409 0
M  V30 45061 H 4363.88 1.41509 0.266678 0
M  V30 45062 H 4365.83 2.9652 2.99422 0
M  V30 45063 H 4364.55 1.74461 2.761 0
M  V30 45064 H 4363.21 3.38755 1.40146 0
M  V30 45065 H 4362.86 3.21158 3.87126 0
M  V30 45066 H 4362.56 4.86861 3.28999 0
M  V30 45067 H 4364.08 4.48734 4.1409 0
M  V30 45068 H 4365.5 5.35683 2.04247 0
M  V30 45069 H 4363.89 5.83287 1.41052 0
M  V30 45070 H 4364.96 4.83138 0.412964 0
M  V30 45071 N 4366.31 -0.280928 1.55076 0
M  V30 45072 C 4367.25 -1.34706 1.87411 0
M  V30 45073 C 4368.22 -1.4945 0.724847 0
M  V30 45074 O 4369.41 -1.63985 0.975376 0
M  V30 45075 C 4366.55 -2.70372 2.1446 0
M  V30 45076 C 4365.66 -2.63914 3.42014 0
M  V30 45077 C 4364.8 -3.91706 3.58803 0
M  V30 45078 C 4363.84 -3.79727 4.80077 0
M  V30 45079 N 4362.97 -4.99337 4.93565 0
M  V30 45080 H 4367.81 -1.0643 2.78346 0
M  V30 45081 H 4365.35 -0.514355 1.37814 0
M  V30 45082 H 4367.31 -3.49295 2.28141 0
M  V30 45083 H 4365.94 -2.96866 1.26769 0
M  V30 45084 H 4364.99 -1.76744 3.36847 0
M  V30 45085 H 4366.3 -2.50959 4.3107 0
M  V30 45086 H 4365.46 -4.79071 3.72258 0
M  V30 45087 H 4364.2 -4.07519 2.67917 0
M  V30 45088 H 4363.2 -2.90746 4.66633 0
M  V30 45089 H 4364.43 -3.65441 5.72389 0
M  V30 45090 H 4362.37 -5.15575 4.05608 0
M  V30 45091 H 4362.29 -4.88883 5.76653 0
M  V30 45092 H 4363.56 -5.88296 5.11398 0
M  V30 45093 N 4367.79 -1.47874 -0.545076 0
M  V30 45094 C 4368.72 -1.64156 -1.66057 0
M  V30 45095 C 4369.7 -0.490708 -1.62868 0
M  V30 45096 O 4370.88 -0.721483 -1.803 0
M  V30 45097 C 4368.01 -1.667 -3.04678 0
M  V30 45098 C 4366.97 -2.81134 -3.22719 0
M  V30 45099 C 4366.29 -2.68757 -4.62248 0
M  V30 45100 C 4367.59 -4.226 -3.06931 0
M  V30 45101 H 4369.29 -2.57541 -1.52686 0
M  V30 45102 H 4366.83 -1.23941 -0.733125 0
M  V30 45103 H 4368.78 -1.7668 -3.82573 0
M  V30 45104 H 4367.51 -0.698837 -3.19036 0
M  V30 45105 H 4366.17 -2.70684 -2.47236 0
M  V30 45106 H 4365.82 -1.69943 -4.73422 0
M  V30 45107 H 4365.52 -3.45536 -4.75267 0
M  V30 45108 H 4367.04 -2.80684 -5.42263 0
M  V30 45109 H 4368.45 -4.33962 -3.74633 0
M  V30 45110 H 4366.85 -5.00259 -3.31453 0
M  V30 45111 H 4367.92 -4.40117 -2.0353 0
M  V30 45112 N 4369.26 0.792773 -1.36209 0
M  V30 45113 C 4370.49 1.58153 -1.33399 0
M  V30 45114 C 4370.91 1.88606 0.0855024 0
M  V30 45115 O 4370.26 1.49867 1.04144 0
M  V30 45116 C 4370.31 2.90454 -2.15218 0
M  V30 45117 O 4370.04 2.61315 -3.51634 0
M  V30 45118 C 4371.54 3.84771 -2.2015 0
M  V30 45119 H 4368.76 0.490644 -0.457722 0
M  V30 45120 H 4371.3 0.98419 -1.79259 0
M  V30 45121 H 4369.46 3.46666 -1.72921 0
M  V30 45122 H 4369.87 3.45886 -3.94288 0
M  V30 45123 H 4371.34 4.74672 -2.81763 0
M  V30 45124 H 4371.82 4.22374 -1.20403 0
M  V30 45125 H 4372.43 3.34493 -2.62669 0
M  V30 45126 N 4370.74 1.20433 1.01654 0
M  V30 45127 C 4372.15 1.01495 1.56702 0
M  V30 45128 C 4372.5 -0.428638 1.91461 0
M  V30 45129 O 4371.63 -1.31005 1.7224 0
M  V30 45130 C 4372.22 1.83612 2.84732 0
M  V30 45131 C 4370.78 1.6904 3.36307 0
M  V30 45132 C 4369.93 1.81542 2.09614 0
M  V30 45133 H 4372.88 1.34624 0.840359 0
M  V30 45134 H 4372.9 1.33953 3.56142 0
M  V30 45135 H 4372.41 2.88673 2.59402 0
M  V30 45136 H 4370.51 0.666161 3.66597 0
M  V30 45137 H 4370.63 2.50319 4.08506 0
M  V30 45138 H 4368.99 1.24728 2.2207 0
M  V30 45139 H 4369.77 2.88087 1.86711 0
M  V30 45140 N 4372.22 -1.20963 1.01023 0
M  V30 45141 C 4373.47 -1.89485 0.691265 0
M  V30 45142 C 4373.78 -1.79296 -0.781814 0
M  V30 45143 O 4374.99 -2.42893 -1.21307 0
M  V30 45144 C 4373.44 -3.39797 1.18599 0
M  V30 45145 C 4373.05 -3.58586 2.68552 0
M  V30 45146 C 4374.8 -4.13913 0.942161 0
M  V30 45147 C 4372.7 -5.0269 3.11539 0
M  V30 45148 H 4371.63 -0.709619 0.254865 0
M  V30 45149 H 4374.28 -1.36885 1.22208 0
M  V30 45150 H 4372.67 -3.91682 0.583198 0
M  V30 45151 H 4373.84 -3.17116 3.34326 0
M  V30 45152 H 4372.15 -2.97831 2.91008 0
M  V30 45153 H 4374.75 -5.20151 1.23882 0
M  V30 45154 H 4375.09 -4.16123 -0.121501 0
M  V30 45155 H 4375.63 -3.68109 1.50801 0
M  V30 45156 H 4372.37 -5.05631 4.17154 0
M  V30 45157 H 4371.89 -5.44995 2.50481 0
M  V30 45158 H 4373.57 -5.71231 3.03815 0
M  V30 45159 N 4373.7 -0.785634 -1.36622 0
M  V30 45160 C 4374.66 -0.187428 -2.28432 0
M  V30 45161 C 4375.66 0.613029 -1.48656 0
M  V30 45162 O 4376.85 0.434578 -1.68692 0
M  V30 45163 C 4373.98 0.741063 -3.32748 0
M  V30 45164 H 4375.18 -0.996921 -2.82845 0
M  V30 45165 H 4372.73 -0.554795 -1.46122 0
M  V30 45166 H 4373.46 1.57504 -2.83484 0
M  V30 45167 H 4373.25 0.169075 -3.91735 0
M  V30 45168 H 4374.74 1.1546 -4.01321 0
M  V30 45169 N 4375.18 1.48157 -0.53733 0
M  V30 45170 C 4376.14 2.28229 0.210744 0
M  V30 45171 C 4377.14 1.35803 0.861054 0
M  V30 45172 O 4378.33 1.58625 0.719972 0
M  V30 45173 C 4375.46 3.14901 1.30576 0
M  V30 45174 H 4376.65 2.95831 -0.492363 0
M  V30 45175 H 4374.21 1.53519 -0.293532 0
M  V30 45176 H 4374.94 2.51947 2.04189 0
M  V30 45177 H 4374.73 3.82898 0.844492 0
M  V30 45178 H 4376.22 3.75283 1.83173 0
M  V30 45179 N 4376.65 0.272809 1.55221 0
M  V30 45180 C 4377.62 -0.602555 2.21138 0
M  V30 45181 C 4378.62 -1.08309 1.18852 0
M  V30 45182 O 4379.81 -0.983638 1.43771 0
M  V30 45183 C 4376.94 -1.83105 2.87551 0
M  V30 45184 H 4378.13 -0.0270541 2.99888 0
M  V30 45185 H 4375.69 0.023411 1.56282 0
M  V30 45186 H 4376.42 -2.44712 2.12806 0
M  V30 45187 H 4376.21 -1.49442 3.62504 0
M  V30 45188 H 4377.7 -2.45359 3.37918 0
M  V30 45189 N 4378.13 -1.576 5.54043e-05 0
M  V30 45190 C 4379.38 -1.90194 -0.683429 0
M  V30 45191 C 4379.7 -0.874131 -1.7431 0
M  V30 45192 O 4378.97 0.088455 -1.957 0
M  V30 45193 H 4377.55 -0.701976 -0.255418 0
M  V30 45194 H 4380.21 -1.94857 0.0409945 0
M  V30 45195 H 4379.31 -2.89956 -1.15464 0
M  V30 45196 N 4379.61 0.2727 -1.55223 0
M  V30 45197 C 4380.54 1.35939 -1.84535 0
M  V30 45198 C 4381.56 1.45522 -0.729869 0
M  V30 45199 O 4382.74 1.47334 -1.00772 0
M  V30 45200 C 4379.84 2.74062 -1.99356 0
M  V30 45201 C 4379.02 2.87067 -3.30017 0
M  V30 45202 C 4378.08 4.05867 -3.349 0
M  V30 45203 O 4377.1 3.96611 -4.08275 0
M  V30 45204 N 4378.3 5.17847 -2.62325 0
M  V30 45205 H 4381.07 1.11139 -2.78331 0
M  V30 45206 H 4378.63 0.462815 -1.55144 0
M  V30 45207 H 4380.62 3.51831 -1.99993 0
M  V30 45208 H 4379.19 2.91684 -1.12425 0
M  V30 45209 H 4378.41 1.96181 -3.41916 0
M  V30 45210 H 4379.7 2.92687 -4.16187 0
M  V30 45211 H 4379.1 5.28254 -2.02395 0
M  V30 45212 H 4377.66 5.93845 -2.68684 0
M  V30 45213 N 4381.09 1.48161 0.537226 0
M  V30 45214 C 4382.02 1.65034 1.65184 0
M  V30 45215 C 4383 0.499338 1.62606 0
M  V30 45216 O 4384.18 0.731035 1.79915 0
M  V30 45217 C 4381.31 1.68313 3.03789 0
M  V30 45218 C 4380.27 2.82842 3.21224 0
M  V30 45219 C 4379.59 2.71205 4.60817 0
M  V30 45220 C 4380.89 4.24221 3.04686 0
M  V30 45221 H 4382.59 2.58347 1.51318 0
M  V30 45222 H 4380.13 1.24328 0.726541 0
M  V30 45223 H 4382.09 1.78707 3.81631 0
M  V30 45224 H 4380.81 0.715747 3.18661 0
M  V30 45225 H 4379.47 2.71991 2.45797 0
M  V30 45226 H 4379.12 1.72451 4.72514 0
M  V30 45227 H 4378.82 3.48051 4.73428 0
M  V30 45228 H 4380.34 2.83556 5.40767 0
M  V30 45229 H 4381.76 4.35943 3.72326 0
M  V30 45230 H 4380.15 5.0201 3.28795 0
M  V30 45231 H 4381.22 4.41191 2.01194 0
M  V30 45232 N 4382.57 -0.785538 1.36627 0
M  V30 45233 C 4383.84 -1.53194 1.21618 0
M  V30 45234 C 4384.22 -2.10188 -0.196039 0
M  V30 45235 O 4383.57 -1.94323 -1.20212 0
M  V30 45236 C 4383.78 -2.6238 2.30125 0
M  V30 45237 C 4385.13 -3.30157 2.66986 0
M  V30 45238 O 4386.15 -2.72666 2.29198 0
M  V30 45239 O 4385.01 -4.34065 3.32038 0
M  V30 45240 H 4382.11 -0.677849 0.473762 0
M  V30 45241 H 4384.65 -0.823687 1.48369 0
M  V30 45242 H 4383.42 -2.18288 3.24756 0
M  V30 45243 H 4383.05 -3.4082 2.04762 0
M  V30 45244 N 4384.04 -1.20971 -1.01014 0
M  V30 45245 C 4384.97 -0.988347 -2.11551 0
M  V30 45246 C 4385.96 0.0849181 -1.69888 0
M  V30 45247 O 4387.14 -0.0738884 -1.94059 0
M  V30 45248 C 4384.27 -0.546649 -3.42971 0
M  V30 45249 C 4383.22 -1.56389 -3.98405 0
M  V30 45250 C 4382.55 -0.978604 -5.25669 0
M  V30 45251 C 4383.85 -2.94937 -4.31056 0
M  V30 45252 H 4385.54 -1.91284 -2.30327 0
M  V30 45253 H 4383.09 -0.921111 -1.10687 0
M  V30 45254 H 4385.04 -0.378987 -4.19692 0
M  V30 45255 H 4383.77 0.413484 -3.23972 0
M  V30 45256 H 4382.43 -1.71903 -3.23798 0
M  V30 45257 H 4382.07 -0.0103456 -5.02999 0
M  V30 45258 H 4381.77 -1.65804 -5.63722 0
M  V30 45259 H 4383.3 -0.822152 -6.0504 0
M  V30 45260 H 4384.71 -2.82897 -4.9864 0
M  V30 45261 H 4383.11 -3.59847 -4.8024 0
M  V30 45262 H 4384.18 -3.46172 -3.39548 0
M  V30 45263 N 4385.52 1.20426 -1.01663 0
M  V30 45264 C 4386.75 1.94315 -0.72501 0
M  V30 45265 C 4387.17 1.74268 0.707973 0
M  V30 45266 O 4386.53 1.03699 1.48715 0
M  V30 45267 C 4386.58 3.44482 -1.06604 0
M  V30 45268 O 4385.68 4.12017 -0.177743 0
M  V30 45269 H 4385.02 0.60707 -0.269002 0
M  V30 45270 H 4387.55 1.52856 -1.36001 0
M  V30 45271 H 4387.56 3.95102 -1.01776 0
M  V30 45272 H 4386.24 3.58396 -2.11009 0
M  V30 45273 H 4384.82 3.7182 -0.283552 0
M  V30 45274 N 4387 0.792868 1.36203 0
M  V30 45275 C 4388.25 0.366132 1.98756 0
M  V30 45276 C 4388.57 -1.06674 1.63235 0
M  V30 45277 O 4387.84 -1.73584 0.908039 0
M  V30 45278 H 4386.42 0.13239 0.735175 0
M  V30 45279 H 4389.08 1.01567 1.66343 0
M  V30 45280 H 4388.18 0.460747 3.0868 0
M  V30 45281 N 4388.48 -1.4787 0.54518 0
M  V30 45282 C 4389.72 -2.03385 0.0248666 0
M  V30 45283 C 4390.08 -1.4133 -1.30551 0
M  V30 45284 O 4389.37 -0.555265 -1.83378 0
M  V30 45285 C 4389.57 -3.57131 -0.138544 0
M  V30 45286 C 4389.4 -4.34093 1.17445 0
M  V30 45287 C 4388.17 -4.74452 1.73848 0
M  V30 45288 C 4390.36 -4.69973 2.08878 0
M  V30 45289 N 4388.35 -5.3601 2.99277 0
M  V30 45290 C 4389.72 -5.31707 3.18884 0
M  V30 45291 C 4391.77 -4.51902 2.09019 0
M  V30 45292 C 4390.47 -5.7728 4.29116 0
M  V30 45293 C 4392.5 -4.98466 3.18255 0
M  V30 45294 C 4391.86 -5.60238 4.2698 0
M  V30 45295 H 4387.96 -0.780337 0.0509704 0
M  V30 45296 H 4390.55 -1.80504 0.729816 0
M  V30 45297 H 4388.72 -3.79804 -0.812599 0
M  V30 45298 H 4390.45 -3.99285 -0.659835 0
M  V30 45299 H 4387.2 -4.56032 1.27796 0
M  V30 45300 H 4387.63 -5.71342 3.63177 0
M  V30 45301 H 4392.27 -4.03511 1.26248 0
M  V30 45302 H 4389.99 -6.24669 5.12655 0
M  V30 45303 H 4393.57 -4.86263 3.19437 0
M  V30 45304 H 4392.45 -5.95613 5.10112 0
M  V30 45305 N 4389.96 -0.281037 -1.55074 0
M  V30 45306 C 4391.2 0.334045 -1.99726 0
M  V30 45307 C 4391.53 1.55416 -1.16945 0
M  V30 45308 O 4390.79 1.9436 -0.228599 0
M  V30 45309 C 4391.09 0.754533 -3.49344 0
M  V30 45310 C 4390.75 -0.361603 -4.49448 0
M  V30 45311 C 4389.41 -0.668061 -4.7654 0
M  V30 45312 C 4391.77 -1.1134 -5.09169 0
M  V30 45313 C 4389.09 -1.72979 -5.6062 0
M  V30 45314 C 4391.45 -2.1649 -5.94403 0
M  V30 45315 C 4390.11 -2.47764 -6.19814 0
M  V30 45316 H 4389.38 0.122236 -0.730848 0
M  V30 45317 H 4392.03 -0.395983 -1.87361 0
M  V30 45318 H 4390.33 1.56433 -3.59216 0
M  V30 45319 H 4392.03 1.24129 -3.81304 0
M  V30 45320 H 4388.62 -0.112632 -4.28452 0
M  V30 45321 H 4392.8 -0.889901 -4.88257 0
M  V30 45322 H 4388.06 -1.97705 -5.78552 0
M  V30 45323 H 4392.23 -2.75215 -6.39711 0
M  V30 45324 H 4389.86 -3.30169 -6.84757 0
M  V30 45325 N 4391.44 1.57598 -0.00841331 0
M  V30 45326 C 4392.66 1.95217 0.685422 0
M  V30 45327 C 4393.08 0.883765 1.66838 0
M  V30 45328 O 4392.44 -0.136501 1.81989 0
M  V30 45329 C 4392.49 3.3287 1.40995 0
M  V30 45330 O 4392.21 4.3561 0.466399 0
M  V30 45331 C 4393.71 3.84999 2.19752 0
M  V30 45332 H 4390.93 0.643429 0.19037 0
M  V30 45333 H 4393.47 2.04406 -0.0620326 0
M  V30 45334 H 4391.63 3.24964 2.10897 0
M  V30 45335 H 4392.04 5.15291 0.978518 0
M  V30 45336 H 4393.52 4.83719 2.65931 0
M  V30 45337 H 4393.99 3.18148 3.02785 0
M  V30 45338 H 4394.6 3.96108 1.5485 0
M  V30 45339 N 4392.91 -0.264465 1.55365 0
M  V30 45340 C 4393.88 -1.31039 1.88046 0
M  V30 45341 C 4394.88 -1.4194 0.755618 0
M  V30 45342 O 4396.07 -1.40944 1.02374 0
M  V30 45343 C 4393.2 -2.69059 2.09332 0
M  V30 45344 H 4394.39 -1.03287 2.81552 0
M  V30 45345 H 4391.94 -0.502937 1.47987 0
M  V30 45346 H 4392.68 -3.01978 1.18236 0
M  V30 45347 H 4392.46 -2.62531 2.91238 0
M  V30 45348 H 4393.95 -3.44615 2.35861 0
M  V30 45349 N 4394.39 -1.48444 -0.529361 0
M  V30 45350 C 4395.64 -1.56184 -1.28262 0
M  V30 45351 C 4395.96 -0.237789 -1.93545 0
M  V30 45352 O 4395.23 0.740715 -1.81357 0
M  V30 45353 H 4393.81 -0.575384 -0.476385 0
M  V30 45354 H 4396.47 -1.84911 -0.615955 0
M  V30 45355 H 4395.57 -2.3432 -2.06157 0
M  V30 45356 N 4395.87 0.778281 -1.37042 0
M  V30 45357 C 4397.1 1.56502 -1.34873 0
M  V30 45358 C 4397.51 1.89073 0.0694138 0
M  V30 45359 O 4396.85 1.51438 1.03982 0
M  V30 45360 C 4396.91 2.90633 -2.11595 0
M  V30 45361 C 4396.58 2.80733 -3.60608 0
M  V30 45362 C 4397.57 2.5221 -4.54627 0
M  V30 45363 C 4395.26 2.9896 -4.03644 0
M  V30 45364 C 4397.25 2.42033 -5.8966 0
M  V30 45365 C 4394.94 2.88404 -5.38764 0
M  V30 45366 C 4395.94 2.5998 -6.31585 0
M  V30 45367 O 4395.63 2.49438 -7.64222 0
M  V30 45368 H 4395.36 0.491707 -0.463897 0
M  V30 45369 H 4397.91 0.972989 -1.80892 0
M  V30 45370 H 4396.14 3.5193 -1.60256 0
M  V30 45371 H 4397.83 3.51985 -2.02143 0
M  V30 45372 H 4398.6 2.3782 -4.2269 0
M  V30 45373 H 4394.48 3.20087 -3.3176 0
M  V30 45374 H 4398.02 2.19768 -6.62078 0
M  V30 45375 H 4393.92 3.0236 -5.70306 0
M  V30 45376 H 4394.68 2.64836 -7.7447 0
M  V30 45377 N 4397.35 1.21505 1.00371 0
M  V30 45378 C 4398.57 1.05984 1.78276 0
M  V30 45379 C 4399 -0.385929 1.84098 0
M  V30 45380 O 4398.36 -1.27844 1.28552 0
M  V30 45381 C 4398.4 1.66313 3.19957 0
M  V30 45382 O 4397.51 0.909475 4.02247 0
M  V30 45383 H 4396.85 0.372925 0.549384 0
M  V30 45384 H 4399.38 1.61074 1.2616 0
M  V30 45385 H 4399.39 1.70588 3.70626 0
M  V30 45386 H 4398.06 2.71526 3.15034 0
M  V30 45387 H 4396.64 0.941922 3.60808 0
M  V30 45388 N 4398.83 -1.19885 1.023 0
M  V30 45389 C 4400.07 -1.89044 0.714625 0
M  V30 45390 C 4400.39 -1.79638 -0.758618 0
M  V30 45391 O 4399.66 -1.20297 -1.54614 0
M  V30 45392 H 4398.24 -0.699792 0.261342 0
M  V30 45393 H 4400.91 -1.4557 1.29597 0
M  V30 45394 H 4400 -2.9552 1.00371 0
M  V30 45395 N 4400.3 -0.80008 -1.35781 0
M  V30 45396 C 4401.55 -0.376667 -1.98559 0
M  V30 45397 C 4401.87 1.05807 -1.63798 0
M  V30 45398 O 4401.14 1.731 -0.917232 0
M  V30 45399 H 4399.72 -0.136286 -0.734462 0
M  V30 45400 H 4402.38 -1.02448 -1.65802 0
M  V30 45401 H 4401.48 -0.47711 -3.08432 0
M  V30 45402 N 4401.78 1.47579 -0.553014 0
M  V30 45403 C 4403.06 1.95563 0.0380828 0
M  V30 45404 C 4403.44 1.49558 1.48982 0
M  V30 45405 O 4402.79 0.73249 2.16441 0
M  V30 45406 C 4403 3.48848 -0.103041 0
M  V30 45407 C 4404.34 4.24577 0.0444589 0
M  V30 45408 O 4405.37 3.56187 -0.0303801 0
M  V30 45409 O 4404.23 5.46116 0.204731 0
M  V30 45410 H 4401.32 0.824324 0.0664777 0
M  V30 45411 H 4403.87 1.57998 -0.619241 0
M  V30 45412 H 4402.64 3.75125 -1.11341 0
M  V30 45413 H 4402.26 3.93167 0.592086 0
M  V30 45414 N 4403.26 0.289257 1.54923 0
M  V30 45415 C 4404.51 -0.324161 1.99078 0
M  V30 45416 C 4404.82 -1.55905 1.18122 0
M  V30 45417 O 4406.03 -2.24632 1.52489 0
M  V30 45418 C 4404.48 -0.628085 3.54377 0
M  V30 45419 C 4404.09 0.587803 4.44127 0
M  V30 45420 C 4405.84 -1.20335 4.07087 0
M  V30 45421 C 4403.74 0.257682 5.90838 0
M  V30 45422 H 4402.67 -0.124898 0.743583 0
M  V30 45423 H 4405.32 0.396126 1.79173 0
M  V30 45424 H 4403.71 -1.40765 3.70137 0
M  V30 45425 H 4404.88 1.36433 4.40139 0
M  V30 45426 H 4403.19 1.08088 4.02127 0
M  V30 45427 H 4405.79 -1.46438 5.14257 0
M  V30 45428 H 4406.13 -2.14183 3.56975 0
M  V30 45429 H 4406.67 -0.48575 3.94823 0
M  V30 45430 H 4403.41 1.16441 6.45075 0
M  V30 45431 H 4402.93 -0.481807 5.97862 0
M  V30 45432 H 4404.61 -0.145011 6.46837 0
M  V30 45433 N 4404.74 -1.57591 0.016771 0
M  V30 45434 C 4405.97 -1.95294 -0.67408 0
M  V30 45435 C 4406.38 -0.891155 -1.66898 0
M  V30 45436 O 4405.72 0.136843 -1.8319 0
M  V30 45437 C 4405.78 -3.29077 -1.44736 0
M  V30 45438 C 4405.44 -4.52881 -0.612172 0
M  V30 45439 C 4406.44 -5.19789 0.107309 0
M  V30 45440 C 4404.13 -4.99244 -0.553205 0
M  V30 45441 C 4406.12 -6.31372 0.874561 0
M  V30 45442 C 4403.81 -6.10712 0.21776 0
M  V30 45443 C 4404.81 -6.76634 0.930361 0
M  V30 45444 O 4404.49 -7.85963 1.68871 0
M  V30 45445 H 4404.23 -0.648281 -0.191592 0
M  V30 45446 H 4406.78 -2.05284 0.069087 0
M  V30 45447 H 4405.01 -3.15543 -2.23539 0
M  V30 45448 H 4406.7 -3.51771 -2.02514 0
M  V30 45449 H 4407.46 -4.84948 0.0710097 0
M  V30 45450 H 4403.34 -4.47748 -1.09741 0
M  V30 45451 H 4406.89 -6.82759 1.4313 0
M  V30 45452 H 4402.78 -6.44993 0.25582 0
M  V30 45453 H 4403.55 -8.02566 1.60719 0
M  V30 45454 N 4406.22 0.256222 -1.55503 0
M  V30 45455 C 4407.17 1.31975 -1.85921 0
M  V30 45456 C 4408.15 1.43924 -0.719346 0
M  V30 45457 O 4409.34 1.47323 -0.981071 0
M  V30 45458 C 4406.47 2.67696 -2.14928 0
M  V30 45459 C 4405.56 2.59789 -3.35217 0
M  V30 45460 N 4405.95 2.21508 -4.54717 0
M  V30 45461 C 4404.25 2.9082 -3.38142 0
M  V30 45462 C 4404.95 2.24005 -5.36839 0
M  V30 45463 N 4403.92 2.63141 -4.75665 0
M  V30 45464 H 4407.73 1.01413 -2.75849 0
M  V30 45465 H 4405.24 0.464856 -1.55605 0
M  V30 45466 H 4407.24 3.44436 -2.34881 0
M  V30 45467 H 4405.9 2.99132 -1.26293 0
M  V30 45468 H 4406.91 1.93206 -4.80512 0
M  V30 45469 H 4403.58 3.26858 -2.5975 0
M  V30 45470 H 4404.97 1.96827 -6.42424 0
M  V30 45471 N 4407.69 1.48722 0.521481 0
M  V30 45472 C 4408.92 1.61106 1.30612 0
M  V30 45473 C 4409.34 0.274676 1.86084 0
M  V30 45474 O 4408.7 -0.754879 1.64837 0
M  V30 45475 C 4408.75 2.66718 2.42681 0
M  V30 45476 O 4407.85 2.24468 3.45959 0
M  V30 45477 H 4407.2 0.539934 0.38648 0
M  V30 45478 H 4409.73 1.9477 0.626577 0
M  V30 45479 H 4409.74 2.88255 2.88744 0
M  V30 45480 H 4408.41 3.63734 2.01669 0
M  V30 45481 H 4406.99 2.13179 3.05956 0
M  V30 45482 N 4409.17 -0.771003 1.37453 0
M  V30 45483 C 4410.42 -1.53185 1.32899 0
M  V30 45484 C 4410.75 -1.94009 -0.0861829 0
M  V30 45485 O 4410.03 -1.64127 -1.04367 0
M  V30 45486 C 4410.31 -2.7964 2.26878 0
M  V30 45487 C 4410.16 -2.45066 3.77178 0
M  V30 45488 C 4411.48 -3.81575 2.1929 0
M  V30 45489 H 4408.6 -0.555727 0.484084 0
M  V30 45490 H 4411.24 -0.884433 1.6816 0
M  V30 45491 H 4409.39 -3.34885 1.96938 0
M  V30 45492 H 4411.06 -1.9573 4.17717 0
M  V30 45493 H 4409.31 -1.77753 3.9571 0
M  V30 45494 H 4409.98 -3.35463 4.38371 0
M  V30 45495 H 4412.45 -3.35826 2.45683 0
M  V30 45496 H 4411.33 -4.67776 2.87187 0
M  V30 45497 H 4411.59 -4.25893 1.18607 0
M  V30 45498 N 4410.65 -1.22035 -0.997255 0
M  V30 45499 C 4411.88 -1.06928 -1.77711 0
M  V30 45500 C 4412.3 0.376161 -1.843 0
M  V30 45501 O 4411.66 1.27161 -1.29228 0
M  V30 45502 C 4411.71 -1.68007 -3.1907 0
M  V30 45503 O 4410.81 -0.930794 -4.01759 0
M  V30 45504 H 4410.15 -0.375834 -0.547398 0
M  V30 45505 H 4412.68 -1.61741 -1.25304 0
M  V30 45506 H 4412.69 -1.72551 -3.69716 0
M  V30 45507 H 4411.37 -2.73193 -3.13589 0
M  V30 45508 H 4409.94 -0.961044 -3.60303 0
M  V30 45509 N 4412.13 1.19341 -1.02934 0
M  V30 45510 C 4413.08 2.2047 -0.581118 0
M  V30 45511 C 4414.06 1.56579 0.370387 0
M  V30 45512 O 4415.25 1.75963 0.191282 0
M  V30 45513 C 4412.38 3.43236 0.0661853 0
M  V30 45514 C 4411.47 4.1427 -0.907788 0
M  V30 45515 N 4411.86 4.61485 -2.07039 0
M  V30 45516 C 4410.16 4.39963 -0.731332 0
M  V30 45517 C 4410.86 5.1604 -2.68472 0
M  V30 45518 N 4409.84 5.06868 -1.96432 0
M  V30 45519 H 4413.64 2.54654 -1.46726 0
M  V30 45520 H 4411.15 1.3542 -0.896392 0
M  V30 45521 H 4413.15 4.14929 0.404922 0
M  V30 45522 H 4411.81 3.10553 0.948009 0
M  V30 45523 H 4412.82 4.56296 -2.44979 0
M  V30 45524 H 4409.5 4.17377 0.10136 0
M  V30 45525 H 4410.89 5.62857 -3.66935 0
M  V30 45526 N 4413.61 0.80727 1.35355 0
M  V30 45527 C 4414.57 0.223746 2.28105 0
M  V30 45528 C 4415.57 -0.589301 1.49612 0
M  V30 45529 O 4416.76 -0.407686 1.69362 0
M  V30 45530 C 4413.89 -0.688032 3.33885 0
M  V30 45531 H 4415.08 1.04179 2.81224 0
M  V30 45532 H 4412.64 0.577972 1.45221 0
M  V30 45533 H 4413.37 -1.52974 2.85954 0
M  V30 45534 H 4413.16 -0.106732 3.91955 0
M  V30 45535 H 4414.65 -1.09061 4.03107 0
M  V30 45536 N 4415.08 -1.47283 0.560833 0
M  V30 45537 C 4416.5 -1.58064 0.220865 0
M  V30 45538 C 4416.7 -1.55896 -1.27666 0
M  V30 45539 O 4415.76 -1.46429 -2.05705 0
M  V30 45540 C 4417.07 -2.88415 0.850727 0
M  V30 45541 C 4418.62 -3.02006 0.82229 0
M  V30 45542 C 4419.09 -4.35061 1.43129 0
M  V30 45543 N 4420.58 -4.41706 1.39463 0
M  V30 45544 C 4421.32 -5.4323 1.83544 0
M  V30 45545 N 4420.81 -6.51547 2.35497 0
M  V30 45546 N 4422.61 -5.34298 1.74593 0
M  V30 45547 H 4414.76 -1.46936 1.53374 0
M  V30 45548 H 4417.02 -0.699536 0.639807 0
M  V30 45549 H 4416.73 -2.95748 1.90331 0
M  V30 45550 H 4416.6 -3.75611 0.345905 0
M  V30 45551 H 4418.99 -2.94267 -0.221611 0
M  V30 45552 H 4419.07 -2.16342 1.36491 0
M  V30 45553 H 4418.71 -4.43556 2.47427 0
M  V30 45554 H 4418.64 -5.19462 0.864082 0
M  V30 45555 H 4421.13 -3.64024 1.01465 0
M  V30 45556 H 4421.45 -7.25194 2.67046 0
M  V30 45557 H 4419.79 -6.52426 2.3951 0
M  V30 45558 H 4422.98 -4.48576 1.33779 0
M  V30 45559 H 4423.16 -6.1328 2.09264 0
M  V30 45560 N 4416.56 -0.297469 -1.54767 0
M  V30 45561 C 4417.97 0.195882 -1.8567 0
M  V30 45562 C 4418.32 1.53702 -1.21943 0
M  V30 45563 O 4417.45 2.10162 -0.515828 0
M  V30 45564 C 4418.04 0.3622 -3.36858 0
M  V30 45565 C 4416.6 0.799772 -3.67805 0
M  V30 45566 C 4415.75 -0.0939552 -2.77141 0
M  V30 45567 H 4418.7 -0.518591 -1.49988 0
M  V30 45568 H 4418.72 1.19733 -3.61171 0
M  V30 45569 H 4418.23 -0.614055 -3.83211 0
M  V30 45570 H 4416.34 1.7867 -3.26967 0
M  V30 45571 H 4416.45 0.621606 -4.7505 0
M  V30 45572 H 4414.81 0.426166 -2.51109 0
M  V30 45573 H 4415.6 -1.0665 -3.26314 0
M  V30 45574 N 4418.04 1.5758 -0.0251282 0
M  V30 45575 C 4419.46 1.56125 0.331227 0
M  V30 45576 C 4419.66 1.03035 1.73165 0
M  V30 45577 O 4418.71 0.675301 2.43302 0
M  V30 45578 C 4420.03 3.0014 0.183478 0
M  V30 45579 C 4421.57 3.11947 0.256544 0
M  V30 45580 C 4422.05 4.57793 0.137631 0
M  V30 45581 N 4423.54 4.6279 0.194742 0
M  V30 45582 C 4424.27 5.73261 0.126453 0
M  V30 45583 N 4423.77 6.928 0.00730932 0
M  V30 45584 N 4425.56 5.61811 0.180151 0
M  V30 45585 H 4417.71 1.90421 -0.940937 0
M  V30 45586 H 4419.98 0.875749 -0.362999 0
M  V30 45587 H 4419.68 3.42918 -0.781048 0
M  V30 45588 H 4419.56 3.64902 0.95532 0
M  V30 45589 H 4421.94 2.69084 1.21153 0
M  V30 45590 H 4422.03 2.49914 -0.545605 0
M  V30 45591 H 4421.67 5.01336 -0.813915 0
M  V30 45592 H 4421.6 5.17802 0.958593 0
M  V30 45593 H 4424.09 3.76808 0.287135 0
M  V30 45594 H 4424.4 7.72791 -0.0382145 0
M  V30 45595 H 4422.75 6.94995 -0.0274174 0
M  V30 45596 H 4425.94 4.67311 0.271603 0
M  V30 45597 H 4426.11 6.47882 0.123469 0
M  V30 45598 N 4419.52 -0.247971 1.55637 0
M  V30 45599 C 4420.76 -0.973364 1.78598 0
M  V30 45600 C 4421.12 -1.83005 0.593887 0
M  V30 45601 O 4420.41 -1.87098 -0.412895 0
M  V30 45602 C 4420.61 -1.86808 3.04693 0
M  V30 45603 C 4420.44 -1.09949 4.36052 0
M  V30 45604 C 4419.21 -0.805028 4.98846 0
M  V30 45605 C 4421.4 -0.477603 5.12078 0
M  V30 45606 N 4419.39 -0.0122701 6.13899 0
M  V30 45607 C 4420.76 0.179783 6.19739 0
M  V30 45608 C 4422.81 -0.387962 4.96386 0
M  V30 45609 C 4421.51 0.918201 7.13415 0
M  V30 45610 C 4423.54 0.336923 5.90439 0
M  V30 45611 C 4422.9 0.982951 6.97508 0
M  V30 45612 H 4419 -0.337323 0.705505 0
M  V30 45613 H 4421.59 -0.246602 1.93132 0
M  V30 45614 H 4419.76 -2.56688 2.91489 0
M  V30 45615 H 4421.49 -2.52896 3.15952 0
M  V30 45616 H 4418.24 -1.11655 4.6025 0
M  V30 45617 H 4418.67 0.372171 6.75976 0
M  V30 45618 H 4423.31 -0.873091 4.13687 0
M  V30 45619 H 4421.03 1.41493 7.95616 0
M  V30 45620 H 4424.61 0.406935 5.80375 0
M  V30 45621 H 4423.49 1.53491 7.69032 0
M  V30 45622 N 4421 -1.48997 -0.513587 0
M  V30 45623 C 4422.25 -1.57097 -1.26505 0
M  V30 45624 C 4422.56 -0.25716 -1.93902 0
M  V30 45625 O 4423.77 -0.216573 -2.70635 0
M  V30 45626 C 4422.22 -2.77126 -2.29628 0
M  V30 45627 C 4421.83 -4.15215 -1.68227 0
M  V30 45628 C 4423.57 -2.94549 -3.05681 0
M  V30 45629 C 4421.48 -5.26483 -2.69387 0
M  V30 45630 H 4420.41 -0.584892 -0.475833 0
M  V30 45631 H 4423.06 -1.75361 -0.540425 0
M  V30 45632 H 4421.44 -2.52329 -3.05198 0
M  V30 45633 H 4422.62 -4.50098 -0.987347 0
M  V30 45634 H 4420.93 -4.03046 -1.04609 0
M  V30 45635 H 4423.53 -3.74846 -3.81307 0
M  V30 45636 H 4423.87 -2.04627 -3.62538 0
M  V30 45637 H 4424.41 -3.19325 -2.37227 0
M  V30 45638 H 4421.14 -6.18424 -2.17329 0
M  V30 45639 H 4420.66 -4.9607 -3.37157 0
M  V30 45640 H 4422.34 -5.55289 -3.32059 0
M  V30 45641 N 4422.48 0.763702 -1.3786 0
M  V30 45642 C 4423.72 1.52392 -1.34716 0
M  V30 45643 C 4424.08 1.92288 0.0655759 0
M  V30 45644 O 4423.37 1.61814 1.026 0
M  V30 45645 C 4423.56 2.79491 -2.22755 0
M  V30 45646 C 4423.39 2.52018 -3.72447 0
M  V30 45647 C 4422.16 2.45743 -4.41518 0
M  V30 45648 C 4424.36 2.19473 -4.65119 0
M  V30 45649 N 4422.34 2.10439 -5.76705 0
M  V30 45650 C 4423.71 1.94376 -5.88743 0
M  V30 45651 C 4425.77 2.05696 -4.53424 0
M  V30 45652 C 4424.47 1.56893 -7.01981 0
M  V30 45653 C 4426.5 1.69614 -5.66555 0
M  V30 45654 C 4425.86 1.45382 -6.89234 0
M  V30 45655 H 4421.96 0.557631 -0.548244 0
M  V30 45656 H 4424.54 0.890241 -1.73155 0
M  V30 45657 H 4422.71 3.40683 -1.86519 0
M  V30 45658 H 4424.45 3.45458 -2.1081 0
M  V30 45659 H 4421.2 2.61871 -3.94614 0
M  V30 45660 H 4421.62 1.95461 -6.4817 0
M  V30 45661 H 4426.27 2.2311 -3.5914 0
M  V30 45662 H 4423.98 1.38218 -7.96192 0
M  V30 45663 H 4427.57 1.59601 -5.59481 0
M  V30 45664 H 4426.45 1.17876 -7.7529 0
M  V30 45665 N 4423.95 1.22562 0.990769 0
M  V30 45666 C 4425.2 1.05147 1.73062 0
M  V30 45667 C 4425.53 -0.413124 1.90062 0
M  V30 45668 O 4424.78 -1.32252 1.4425 0
M  V30 45669 C 4425.08 1.71022 3.13825 0
M  V30 45670 C 4424.75 3.20922 3.16733 0
M  V30 45671 C 4423.41 3.61823 3.17234 0
M  V30 45672 C 4425.76 4.16857 3.12857 0
M  V30 45673 C 4423.09 4.97138 3.11562 0
M  V30 45674 C 4425.44 5.52151 3.08727 0
M  V30 45675 C 4424.11 5.92429 3.07545 0
M  V30 45676 H 4423.38 0.38476 0.633278 0
M  V30 45677 H 4426.02 1.52354 1.1602 0
M  V30 45678 H 4424.33 1.16147 3.74189 0
M  V30 45679 H 4426.03 1.55036 3.69817 0
M  V30 45680 H 4422.62 2.88356 3.17095 0
M  V30 45681 H 4426.8 3.86274 3.11618 0
M  V30 45682 H 4422.06 5.27573 3.08993 0
M  V30 45683 H 4426.23 6.26212 3.04683 0
M  V30 45684 H 4423.86 6.97247 3.02904 0
M  V30 45685 N 4425.43 -1.18793 1.03566 0
M  V30 45686 C 4426.67 -1.90343 0.744899 0
M  V30 45687 C 4427.04 -1.78234 -0.713909 0
M  V30 45688 O 4428.24 -2.44444 -1.11805 0
M  V30 45689 C 4426.51 -3.36938 1.19196 0
M  V30 45690 S 4428.07 -4.26635 1.02608 0
M  V30 45691 H 4424.88 -0.657333 0.270987 0
M  V30 45692 H 4427.49 -1.43574 1.3269 0
M  V30 45693 H 4426.19 -3.43279 2.24917 0
M  V30 45694 H 4425.72 -3.88743 0.603533 0
M  V30 45695 H 4427.74 -4.96164 -0.0594289 0
M  V30 45696 N 4426.91 -0.814437 -1.34925 0
M  V30 45697 C 4427.84 -0.244909 -2.32212 0
M  V30 45698 C 4428.82 0.633969 -1.57844 0
M  V30 45699 O 4430.01 0.562611 -1.85872 0
M  V30 45700 C 4427.14 0.600986 -3.42061 0
M  V30 45701 C 4426.09 -0.180046 -4.27621 0
M  V30 45702 C 4425.42 0.788051 -5.28861 0
M  V30 45703 C 4426.72 -1.38347 -5.03644 0
M  V30 45704 H 4428.41 -1.05773 -2.80094 0
M  V30 45705 H 4425.96 -0.510076 -1.34663 0
M  V30 45706 H 4427.91 1.00954 -4.09129 0
M  V30 45707 H 4426.63 1.44678 -2.92807 0
M  V30 45708 H 4425.29 -0.569866 -3.62144 0
M  V30 45709 H 4424.94 1.62956 -4.75872 0
M  V30 45710 H 4424.64 0.269736 -5.86981 0
M  V30 45711 H 4426.16 1.19464 -5.98799 0
M  V30 45712 H 4427.58 -1.04938 -5.63614 0
M  V30 45713 H 4425.97 -1.83682 -5.71297 0
M  V30 45714 H 4427.04 -2.16607 -4.33831 0
M  V30 45715 N 4428.39 1.46984 -0.568636 0
M  V30 45716 C 4429.32 2.32947 0.160671 0
M  V30 45717 C 4430.3 1.44491 0.89758 0
M  V30 45718 O 4431.48 1.7333 0.875806 0
M  V30 45719 C 4428.61 3.26498 1.18391 0
M  V30 45720 C 4427.57 4.24284 0.562746 0
M  V30 45721 C 4426.89 5.07242 1.69145 0
M  V30 45722 C 4428.19 5.19988 -0.490944 0
M  V30 45723 H 4429.89 2.94173 -0.557019 0
M  V30 45724 H 4427.43 1.41459 -0.26932 0
M  V30 45725 H 4429.39 3.85483 1.70238 0
M  V30 45726 H 4428.11 2.6335 1.9317 0
M  V30 45727 H 4426.77 3.66542 0.0654875 0
M  V30 45728 H 4426.42 4.40489 2.42855 0
M  V30 45729 H 4426.12 5.73455 1.28154 0
M  V30 45730 H 4427.64 5.69088 2.21294 0
M  V30 45731 H 4429.06 5.73271 -0.0581062 0
M  V30 45732 H 4427.45 5.94466 -0.820374 0
M  V30 45733 H 4428.52 4.64772 -1.38257 0
M  V30 45734 N 4429.87 0.305673 1.54607 0
M  V30 45735 C 4430.8 -0.561402 2.26651 0
M  V30 45736 C 4431.78 -1.1341 1.26776 0
M  V30 45737 O 4432.96 -1.16257 1.55557 0
M  V30 45738 C 4430.09 -1.73111 3.01081 0
M  V30 45739 C 4429.05 -1.28855 4.08143 0
M  V30 45740 C 4428.37 -2.5438 4.70314 0
M  V30 45741 C 4429.67 -0.416395 5.20638 0
M  V30 45742 H 4431.37 0.0394954 2.99374 0
M  V30 45743 H 4428.91 0.0204356 1.43985 0
M  V30 45744 H 4430.86 -2.34383 3.50203 0
M  V30 45745 H 4429.59 -2.35832 2.25944 0
M  V30 45746 H 4428.25 -0.698865 3.59877 0
M  V30 45747 H 4427.9 -3.15425 3.91811 0
M  V30 45748 H 4427.6 -2.25467 5.42622 0
M  V30 45749 H 4429.12 -3.16446 5.22201 0
M  V30 45750 H 4430.53 -0.934918 5.65625 0
M  V30 45751 H 4428.93 -0.220836 5.99694 0
M  V30 45752 H 4430 0.557331 4.81686 0
M  V30 45753 N 4431.34 -1.57564 0.0334847 0
M  V30 45754 C 4432.27 -2.13514 -0.94519 0
M  V30 45755 C 4433.25 -1.05235 -1.3364 0
M  V30 45756 O 4434.44 -1.33089 -1.41424 0
M  V30 45757 C 4431.57 -2.66578 -2.22606 0
M  V30 45758 C 4430.52 -3.79683 -1.97547 0
M  V30 45759 C 4429.85 -4.19192 -3.31937 0
M  V30 45760 C 4431.15 -5.05575 -1.31117 0
M  V30 45761 H 4432.84 -2.9554 -0.479221 0
M  V30 45762 H 4430.39 -1.42166 -0.229065 0
M  V30 45763 H 4432.34 -3.04355 -2.91455 0
M  V30 45764 H 4431.07 -1.8172 -2.71377 0
M  V30 45765 H 4429.73 -3.42351 -1.31115 0
M  V30 45766 H 4429.37 -3.31309 -3.78475 0
M  V30 45767 H 4429.07 -4.95413 -3.15975 0
M  V30 45768 H 4430.6 -4.59555 -4.02047 0
M  V30 45769 H 4432.01 -5.4091 -1.89973 0
M  V30 45770 H 4430.41 -5.86822 -1.25538 0
M  V30 45771 H 4431.48 -4.84063 -0.284723 0
M  V30 45772 N 4432.82 0.239714 -1.55766 0
M  V30 45773 C 4433.78 1.28031 -1.90107 0
M  V30 45774 C 4434.78 1.4072 -0.778104 0
M  V30 45775 O 4435.97 1.39297 -1.04604 0
M  V30 45776 C 4433.11 2.65695 -2.13586 0
M  V30 45777 H 4434.3 0.987948 -2.8316 0
M  V30 45778 H 4431.85 0.47933 -1.48769 0
M  V30 45779 H 4432.59 3.00059 -1.23025 0
M  V30 45780 H 4432.37 2.57865 -2.95378 0
M  V30 45781 H 4433.86 3.40819 -2.41313 0
M  V30 45782 N 4434.3 1.49267 0.505678 0
M  V30 45783 C 4435.26 1.6508 1.59 0
M  V30 45784 C 4436.26 0.522821 1.52063 0
M  V30 45785 O 4437.45 0.789172 1.55299 0
M  V30 45786 C 4434.58 1.6438 2.9865 0
M  V30 45787 H 4435.78 2.61789 1.4631 0
M  V30 45788 H 4433.33 1.38228 0.729567 0
M  V30 45789 H 4434.07 0.692384 3.16823 0
M  V30 45790 H 4433.85 2.46293 3.05094 0
M  V30 45791 H 4435.34 1.78687 3.7744 0
M  V30 45792 N 4435.78 -0.756381 1.38263 0
M  V30 45793 C 4437.03 -1.51243 1.34052 0
M  V30 45794 C 4437.35 -1.94875 -0.0697687 0
M  V30 45795 O 4436.62 -1.6744 -1.0169 0
M  V30 45796 H 4435.2 -0.561001 0.493242 0
M  V30 45797 H 4437.86 -0.899286 1.72913 0
M  V30 45798 H 4436.96 -2.40465 1.98955 0
M  V30 45799 N 4437.26 -1.23086 -0.984255 0
M  V30 45800 C 4438.5 -1.0622 -1.72757 0
M  V30 45801 C 4438.84 0.400517 -1.90025 0
M  V30 45802 O 4438.11 1.29667 -1.44971 0
M  V30 45803 C 4438.39 -1.78386 -3.12811 0
M  V30 45804 C 4438.25 -3.32307 -3.03137 0
M  V30 45805 C 4439.57 -1.54323 -4.12156 0
M  V30 45806 H 4436.68 -0.387273 -0.627048 0
M  V30 45807 H 4439.33 -1.5154 -1.14611 0
M  V30 45808 H 4437.48 -1.39861 -3.62452 0
M  V30 45809 H 4439.15 -3.80329 -2.6105 0
M  V30 45810 H 4437.39 -3.61538 -2.39734 0
M  V30 45811 H 4438.06 -3.77986 -4.02282 0
M  V30 45812 H 4440.54 -1.87804 -3.71307 0
M  V30 45813 H 4439.41 -2.07299 -5.0825 0
M  V30 45814 H 4439.68 -0.477726 -4.39511 0
M  V30 45815 N 4438.73 1.18243 -1.04194 0
M  V30 45816 C 4439.98 1.87883 -0.744609 0
M  V30 45817 C 4440.3 1.80823 0.729943 0
M  V30 45818 O 4439.57 1.22742 1.5268 0
M  V30 45819 H 4438.15 0.695546 -0.272442 0
M  V30 45820 H 4440.82 1.4349 -1.31897 0
M  V30 45821 H 4439.91 2.93886 -1.05059 0
M  V30 45822 N 4440.21 0.821581 1.34491 0
M  V30 45823 C 4441.46 0.405425 1.97583 0
M  V30 45824 C 4441.77 -1.03671 1.65867 0
M  V30 45825 O 4442.98 -1.55671 2.22438 0
M  V30 45826 C 4441.44 0.673986 3.53533 0
M  V30 45827 C 4441.04 2.12965 3.94145 0
M  V30 45828 C 4442.79 0.323929 4.23262 0
M  V30 45829 C 4440.7 2.34317 5.43 0
M  V30 45830 H 4439.63 0.147862 0.73936 0
M  V30 45831 H 4442.28 1.00774 1.53352 0
M  V30 45832 H 4440.66 0.00151476 3.96 0
M  V30 45833 H 4441.83 2.84117 3.62787 0
M  V30 45834 H 4440.15 2.44101 3.37348 0
M  V30 45835 H 4442.74 0.461313 5.32706 0
M  V30 45836 H 4443.09 -0.731442 4.09824 0
M  V30 45837 H 4443.62 0.950922 3.86267 0
M  V30 45838 H 4440.36 3.38355 5.61423 0
M  V30 45839 H 4439.88 1.67707 5.75877 0
M  V30 45840 H 4441.56 2.16609 6.09663 0
M  V30 45841 N 4441.69 -1.4668 0.576422 0
M  V30 45842 C 4442.92 -2.06498 0.0649419 0
M  V30 45843 C 4443.33 -1.4267 -1.24266 0
M  V30 45844 O 4442.67 -0.523948 -1.7607 0
M  V30 45845 C 4442.73 -3.59041 -0.18169 0
M  V30 45846 C 4442.4 -4.45024 1.03936 0
M  V30 45847 C 4443.39 -4.81952 1.94983 0
M  V30 45848 C 4441.08 -4.86254 1.25944 0
M  V30 45849 C 4443.07 -5.58931 3.0639 0
M  V30 45850 C 4440.76 -5.62994 2.37658 0
M  V30 45851 C 4441.76 -5.99245 3.27711 0
M  V30 45852 O 4441.45 -6.74435 4.37485 0
M  V30 45853 H 4441.18 -0.674026 0.0516224 0
M  V30 45854 H 4443.73 -1.8939 0.795017 0
M  V30 45855 H 4441.96 -3.74432 -0.966304 0
M  V30 45856 H 4443.65 -4.00808 -0.640906 0
M  V30 45857 H 4444.42 -4.50683 1.79193 0
M  V30 45858 H 4440.3 -4.57492 0.567609 0
M  V30 45859 H 4443.84 -5.87145 3.76705 0
M  V30 45860 H 4439.74 -5.93677 2.53413 0
M  V30 45861 H 4440.51 -6.92852 4.35773 0
M  V30 45862 N 4443.17 -0.313868 -1.54443 0
M  V30 45863 C 4444.1 0.549375 -2.26945 0
M  V30 45864 C 4445.08 1.12736 -1.27376 0
M  V30 45865 O 4446.26 1.1543 -1.56171 0
M  V30 45866 C 4443.39 1.71512 -3.01995 0
M  V30 45867 C 4442.35 1.26689 -4.0882 0
M  V30 45868 C 4441.67 2.51882 -4.71656 0
M  V30 45869 C 4442.97 0.388779 -5.20851 0
M  V30 45870 H 4444.67 -0.0553714 -2.99349 0
M  V30 45871 H 4442.21 -0.0280713 -1.43973 0
M  V30 45872 H 4444.17 2.32523 -3.51441 0
M  V30 45873 H 4442.89 2.34631 -2.27192 0
M  V30 45874 H 4441.55 0.67977 -3.60243 0
M  V30 45875 H 4441.2 3.13343 -3.93479 0
M  V30 45876 H 4440.9 2.22586 -5.4381 0
M  V30 45877 H 4442.42 3.13672 -5.23872 0
M  V30 45878 H 4443.84 0.904908 -5.66113 0
M  V30 45879 H 4442.23 0.189029 -5.99802 0
M  V30 45880 H 4443.3 -0.582868 -4.81384 0
M  V30 45881 N 4444.65 1.57544 -0.0418402 0
M  V30 45882 C 4445.58 2.14013 0.933854 0
M  V30 45883 C 4446.56 1.05942 1.3308 0
M  V30 45884 O 4447.74 1.33837 1.40717 0
M  V30 45885 C 4444.87 2.67755 2.21189 0
M  V30 45886 C 4443.83 3.80725 1.95531 0
M  V30 45887 C 4443.15 4.20946 3.29709 0
M  V30 45888 C 4444.45 5.06263 1.28434 0
M  V30 45889 H 4446.15 2.9579 0.463541 0
M  V30 45890 H 4443.69 1.42286 0.221523 0
M  V30 45891 H 4445.65 3.05896 2.89837 0
M  V30 45892 H 4444.37 1.83156 2.7041 0
M  V30 45893 H 4443.03 3.43042 1.29298 0
M  V30 45894 H 4442.68 3.33312 3.76713 0
M  V30 45895 H 4442.38 4.97081 3.13343 0
M  V30 45896 H 4443.9 4.6168 3.99604 0
M  V30 45897 H 4445.31 5.4191 1.87101 0
M  V30 45898 H 4443.71 5.8748 1.22424 0
M  V30 45899 H 4444.78 4.84208 0.259048 0
M  V30 45900 N 4446.12 -0.23145 1.55891 0
M  V30 45901 C 4447.54 -0.799268 1.68726 0
M  V30 45902 C 4447.89 -1.85396 0.642087 0
M  V30 45903 O 4447.01 -2.15391 -0.208709 0
M  V30 45904 C 4447.61 -1.45653 3.05893 0
M  V30 45905 C 4446.17 -1.97186 3.20616 0
M  V30 45906 C 4445.31 -0.828459 2.64635 0
M  V30 45907 H 4448.26 -0.00697036 1.58698 0
M  V30 45908 H 4448.28 -2.32506 3.01199 0
M  V30 45909 H 4447.8 -0.688674 3.81941 0
M  V30 45910 H 4445.9 -2.76805 2.49419 0
M  V30 45911 H 4446.01 -2.15863 4.27715 0
M  V30 45912 H 4444.37 -1.23313 2.22859 0
M  V30 45913 H 4445.16 -0.0734337 3.43221 0
M  V30 45914 N 4447.6 -1.49533 -0.497755 0
M  V30 45915 C 4448.55 -1.66932 -1.61977 0
M  V30 45916 C 4449.54 -0.535224 -1.60722 0
M  V30 45917 O 4450.75 -0.714954 -1.65192 0
M  V30 45918 H 4447.13 -0.526434 -0.537002 0
M  V30 45919 H 4449.1 -2.61104 -1.44456 0
M  V30 45920 C 4447.85 -1.75612 -3.00093 0
M  V30 45921 H 4447.17 -2.62255 -3.01766 0
M  V30 45922 H 4448.61 -1.9182 -3.78129 0
M  V30 45923 C 4447.07 -0.50166 -3.33144 0
M  V30 45924 O 4447.6 0.371201 -3.99981 0
M  V30 45925 N 4445.8 -0.363632 -2.88316 0
M  V30 45926 H 4445.35 -1.07494 -2.341 0
M  V30 45927 H 4445.31 0.474619 -3.10797 0
M  V30 45928 N 4449.08 0.749038 -1.38662 0
M  V30 45929 C 4450.5 1.05271 -1.19959 0
M  V30 45930 C 4450.7 2.01434 -0.0514108 0
M  V30 45931 O 4449.75 2.45234 0.601384 0
M  V30 45932 C 4451.07 1.62844 -2.52789 0
M  V30 45933 C 4452.61 1.74993 -2.59512 0
M  V30 45934 C 4453.09 2.35977 -3.92529 0
M  V30 45935 N 4454.58 2.43402 -3.94093 0
M  V30 45936 C 4455.31 2.91494 -4.9378 0
M  V30 45937 N 4454.81 3.39587 -6.03865 0
M  V30 45938 N 4456.6 2.90575 -4.81168 0
M  V30 45939 H 4448.75 0.110991 -2.1211 0
M  V30 45940 H 4451.02 0.111868 -0.941376 0
M  V30 45941 H 4450.72 0.996522 -3.37287 0
M  V30 45942 H 4450.6 2.61845 -2.71509 0
M  V30 45943 H 4452.98 2.37311 -1.75407 0
M  V30 45944 H 4453.07 0.746844 -2.44655 0
M  V30 45945 H 4452.71 1.74291 -4.77059 0
M  V30 45946 H 4452.64 3.36935 -4.047 0
M  V30 45947 H 4455.13 2.09394 -3.14583 0
M  V30 45948 H 4455.44 3.74751 -6.75856 0
M  V30 45949 H 4453.79 3.37632 -6.07478 0
M  V30 45950 H 4456.98 2.52318 -3.94276 0
M  V30 45951 H 4457.15 3.27742 -5.59007 0
M  V30 45952 O 4450.6 1.3478 0.889759 0
M  V30 45953 H 4451.29 1.19267 1.52627 0
M  V30 END ATOM
M  V30 BEGIN BOND
M  V30 END BOND
M  V30 END CTAB
M  END
$$$$
