drugbank_target|P11226 Mannose-binding protein C (DB01818; DB01979; DB02837; DB03194; DB03721; DB03879; DB04426)
 OpenBabel12092120543D

  0  0  0     0  0            999 V3000
M  V30 BEGIN CTAB
M  V30 COUNTS 3644 3682 0 0 0
M  V30 BEGIN ATOM
M  V30 1 H -0.908 1.98254 -0.117106 0
M  V30 2 N 0 1.576 0 0
M  V30 3 C 0.933 2.03868 1.02534 0
M  V30 4 C 1.911 0.928543 1.3348 0
M  V30 5 O 3.095 1.19667 1.45644 0
M  V30 6 C 0.222 2.43627 2.35294 0
M  V30 7 C -0.732 3.65373 2.2001 0
M  V30 8 S 0.101 5.13292 1.52614 0
M  V30 9 C 1.257 5.56322 2.86805 0
M  V30 10 H 1.49 2.90518 0.631377 0
M  V30 11 H -0.977 1.52953 0.210867 0
M  V30 12 H 0.981 2.67203 3.11629 0
M  V30 13 H -0.358 1.57376 2.7183 0
M  V30 14 H -1.165 3.90944 3.18086 0
M  V30 15 H -1.563 3.418 1.51819 0
M  V30 16 H 0.729 5.58782 3.83104 0
M  V30 17 H 1.672 6.56266 2.65933 0
M  V30 18 H 2.08 4.83886 2.90714 0
M  V30 19 N 1.4781 -0.272755 1.55222 0
M  V30 20 C 2.7031 -1.02683 1.80197 0
M  V30 21 C 3.1281 -1.79142 0.573551 0
M  V30 22 O 2.4861 -1.74917 -0.476849 0
M  V30 23 C 2.5341 -1.9609 3.02624 0
M  V30 24 O 1.6381 -3.04863 2.77727 0
M  V30 25 H 0.9791 -0.293557 0.595584 0
M  V30 26 H 3.5091 -0.30159 2.02365 0
M  V30 27 H 3.5191 -2.38039 3.31363 0
M  V30 28 H 2.1941 -1.39851 3.91682 0
M  V30 29 H 0.7711 -2.67228 2.60084 0
M  V30 30 N 2.9562 -1.48159 -0.537278 0
M  V30 31 C 3.8862 -1.65029 -1.6519 0
M  V30 32 C 4.8672 -0.499281 -1.62607 0
M  V30 33 O 6.0522 -0.730972 -1.79918 0
M  V30 34 C 3.1822 -1.68303 -3.03795 0
M  V30 35 C 2.1362 -2.8283 -3.21234 0
M  V30 36 C 1.4622 -2.71189 -4.60826 0
M  V30 37 C 2.7622 -4.24211 -3.04701 0
M  V30 38 H 4.4562 -2.58341 -1.51328 0
M  V30 39 H 2.0022 -1.24325 -0.726585 0
M  V30 40 H 3.9552 -1.78693 -3.81637 0
M  V30 41 H 2.6792 -0.715635 -3.18663 0
M  V30 42 H 1.3382 -2.71983 -2.45807 0
M  V30 43 H 0.9862 -1.72435 -4.7252 0
M  V30 44 H 0.6862 -3.48035 -4.7344 0
M  V30 45 H 2.2102 -2.83537 -5.40777 0
M  V30 46 H 3.6242 -4.3593 -3.72341 0
M  V30 47 H 2.0212 -5.01998 -3.28813 0
M  V30 48 H 3.0912 -4.41184 -2.01209 0
M  V30 49 N 4.4343 0.785586 -1.36625 0
M  V30 50 C 5.6813 1.54362 -1.31067 0
M  V30 51 C 6.0093 1.94195 0.10893 0
M  V30 52 O 5.2643 1.63262 1.07908 0
M  V30 53 C 5.5633 2.83007 -2.1827 0
M  V30 54 C 5.2293 2.62294 -3.6676 0
M  V30 55 C 3.8913 2.56353 -4.0723 0
M  V30 56 C 6.2433 2.43371 -4.6089 0
M  V30 57 C 3.5713 2.29461 -5.39967 0
M  V30 58 C 5.9233 2.18005 -5.93849 0
M  V30 59 C 4.5873 2.105 -6.3344 0
M  V30 60 H 3.8573 0.564851 -0.479609 0
M  V30 61 H 6.5043 0.906028 -1.68711 0
M  V30 62 H 4.8093 3.51253 -1.73576 0
M  V30 63 H 6.5063 3.40817 -2.11292 0
M  V30 64 H 3.0963 2.67774 -3.34656 0
M  V30 65 H 7.2803 2.46959 -4.30494 0
M  V30 66 H 2.5363 2.22135 -5.69619 0
M  V30 67 H 6.7103 2.02359 -6.66351 0
M  V30 68 H 4.3373 1.89425 -7.36222 0
M  V30 69 N 5.9124 1.20967 1.01018 0
M  V30 70 C 7.3234 1.02319 1.56165 0
M  V30 71 C 7.6744 -0.418546 1.91684 0
M  V30 72 O 6.7994 -1.30096 1.72928 0
M  V30 73 C 7.3944 1.85109 2.8376 0
M  V30 74 C 5.9534 1.70809 3.35412 0
M  V30 75 C 5.1004 1.82643 2.08655 0
M  V30 76 H 8.0514 1.35065 0.833255 0
M  V30 77 H 8.0724 1.35827 3.55431 0
M  V30 78 H 7.5844 2.90035 2.57878 0
M  V30 79 H 5.6854 0.685464 3.66241 0
M  V30 80 H 5.7984 2.52467 4.07182 0
M  V30 81 H 4.1624 1.25896 2.21409 0
M  V30 82 H 4.9454 2.89066 1.85191 0
M  V30 83 N 7.3905 -1.2043 1.01659 0
M  V30 84 C 8.6155 -1.94318 0.724942 0
M  V30 85 C 9.0405 -1.74266 -0.708034 0
M  V30 86 O 8.3985 -1.03694 -1.48719 0
M  V30 87 C 8.4465 -3.44486 1.06591 0
M  V30 88 O 7.5505 -4.12017 0.177599 0
M  V30 89 H 6.8915 -0.60708 0.26898 0
M  V30 90 H 9.4215 -1.52861 1.35995 0
M  V30 91 H 9.4315 -3.95106 1.01762 0
M  V30 92 H 8.1065 -3.58404 2.10997 0
M  V30 93 H 6.6835 -3.71821 0.283421 0
M  V30 94 N 8.8686 -0.792821 -1.36206 0
M  V30 95 C 9.7986 -0.207853 -2.32573 0
M  V30 96 C 10.7796 0.659055 -1.56813 0
M  V30 97 O 11.9646 0.592176 -1.84951 0
M  V30 98 C 9.0946 0.655449 -3.41059 0
M  V30 99 C 8.0486 -0.111842 -4.27854 0
M  V30 100 C 7.3746 0.872274 -5.27537 0
M  V30 101 C 8.6746 -1.30299 -5.05786 0
M  V30 102 H 10.3686 -1.01294 -2.81744 0
M  V30 103 H 7.9146 -0.48854 -1.3546 0
M  V30 104 H 9.8676 1.07464 -4.07467 0
M  V30 105 H 8.5916 1.49328 -2.90463 0
M  V30 106 H 7.2506 -0.512053 -3.63006 0
M  V30 107 H 6.8986 1.70523 -4.73214 0
M  V30 108 H 6.5986 0.363291 -5.86476 0
M  V30 109 H 8.1226 1.28996 -5.96818 0
M  V30 110 H 9.5366 -0.959379 -5.65216 0
M  V30 111 H 7.9336 -1.7455 -5.74154 0
M  V30 112 H 9.0036 -2.09663 -4.37229 0
M  V30 113 N 10.3467 1.47872 -0.545128 0
M  V30 114 C 11.7577 1.86384 -0.108581 0
M  V30 115 C 12.1087 1.45309 1.31832 0
M  V30 116 O 11.2337 0.850641 1.9898 0
M  V30 117 C 11.8287 3.38265 -0.190274 0
M  V30 118 C 10.3877 3.75914 0.191164 0
M  V30 119 C 9.5347 2.71926 -0.543273 0
M  V30 120 H 12.4857 1.39561 -0.755537 0
M  V30 121 H 12.5067 3.75831 0.594217 0
M  V30 122 H 12.0187 3.6813 -1.2289 0
M  V30 123 H 10.1197 3.51665 1.23136 0
M  V30 124 H 10.2327 4.78836 -0.158987 0
M  V30 125 H 8.5967 2.54697 0.0122495 0
M  V30 126 H 9.3797 3.04634 -1.58282 0
M  V30 127 N 11.8248 0.280983 1.55075 0
M  V30 128 C 12.7548 -0.597469 2.25727 0
M  V30 129 C 13.7358 -1.15417 1.24952 0
M  V30 130 O 14.9208 -1.18722 1.53684 0
M  V30 131 C 12.0508 -1.7789 2.98283 0
M  V30 132 C 11.0048 -1.35347 4.06036 0
M  V30 133 C 10.3308 -2.61846 4.66198 0
M  V30 134 C 11.6308 -0.499354 5.19907 0
M  V30 135 H 13.3248 -0.00824265 2.99399 0
M  V30 136 H 10.8708 -0.0025244 1.44 0
M  V30 137 H 12.8238 -2.39937 3.46422 0
M  V30 138 H 11.5478 -2.39405 2.22155 0
M  V30 139 H 10.2068 -0.756156 3.58717 0
M  V30 140 H 9.8548 -3.21632 3.86732 0
M  V30 141 H 9.5548 -2.3409 5.38958 0
M  V30 142 H 11.0788 -3.24732 5.1709 0
M  V30 143 H 12.4928 -1.02498 5.64063 0
M  V30 144 H 10.8898 -0.316424 5.99265 0
M  V30 145 H 11.9598 0.480459 4.82514 0
M  V30 146 N 13.3029 -1.57598 0.00835791 0
M  V30 147 C 14.2329 -2.1198 -0.979113 0
M  V30 148 C 15.2139 -1.03091 -1.35301 0
M  V30 149 O 16.3989 -1.30818 -1.43528 0
M  V30 150 C 13.5289 -2.62995 -2.26828 0
M  V30 151 C 12.4829 -3.76485 -2.03576 0
M  V30 152 C 11.8089 -4.13846 -3.38579 0
M  V30 153 C 13.1089 -5.0342 -1.39161 0
M  V30 154 H 14.8029 -2.94738 -0.526281 0
M  V30 155 H 12.3489 -1.41783 -0.251704 0
M  V30 156 H 14.3019 -2.99669 -2.96271 0
M  V30 157 H 13.0259 -1.7737 -2.7424 0
M  V30 158 H 11.6849 -3.40217 -1.36557 0
M  V30 159 H 11.3329 -3.25232 -3.83709 0
M  V30 160 H 11.0329 -4.90312 -3.23834 0
M  V30 161 H 12.5569 -4.53086 -4.09323 0
M  V30 162 H 13.9709 -5.37812 -1.98573 0
M  V30 163 H 12.3679 -5.84746 -1.34878 0
M  V30 164 H 13.4379 -4.83548 -0.361868 0
M  V30 165 N 14.781 0.264519 -1.55364 0
M  V30 166 C 15.711 1.33121 -1.91836 0
M  V30 167 C 16.692 1.51101 -0.781192 0
M  V30 168 O 17.877 1.64003 -1.04003 0
M  V30 169 C 15.007 2.68921 -2.19769 0
M  V30 170 C 13.961 2.65661 -3.35571 0
M  V30 171 C 13.287 4.05093 -3.49004 0
M  V30 172 C 14.587 2.24187 -4.71739 0
M  V30 173 H 16.281 1.02844 -2.81182 0
M  V30 174 H 13.827 0.493286 -1.35287 0
M  V30 175 H 15.78 3.43663 -2.43872 0
M  V30 176 H 14.504 3.00799 -1.27231 0
M  V30 177 H 13.163 1.93377 -3.1145 0
M  V30 178 H 12.811 4.34206 -2.53917 0
M  V30 179 H 12.511 4.03804 -4.26868 0
M  V30 180 H 14.035 4.81561 -3.75408 0
M  V30 181 H 15.449 2.88654 -4.9533 0
M  V30 182 H 13.846 2.34044 -5.52579 0
M  V30 183 H 14.916 1.19327 -4.69988 0
M  V30 184 N 16.2591 1.48442 0.529413 0
M  V30 185 C 17.1891 1.65902 1.64313 0
M  V30 186 C 18.1701 0.507897 1.6234 0
M  V30 187 O 19.3551 0.740503 1.79528 0
M  V30 188 C 16.4851 1.69911 3.02898 0
M  V30 189 C 15.4391 2.8453 3.19729 0
M  V30 190 C 14.7651 2.73629 4.59381 0
M  V30 191 C 16.0651 4.25821 3.02447 0
M  V30 192 H 17.7591 2.5914 1.49955 0
M  V30 193 H 15.3051 1.24709 0.719982 0
M  V30 194 H 17.2581 1.80715 3.80684 0
M  V30 195 H 15.9821 0.732524 3.18279 0
M  V30 196 H 14.6411 2.73283 2.44361 0
M  V30 197 H 14.2891 1.74938 4.71599 0
M  V30 198 H 13.9891 3.50541 4.71588 0
M  V30 199 H 15.5131 2.86401 5.39265 0
M  V30 200 H 16.9271 4.37898 3.70024 0
M  V30 201 H 15.3241 5.03735 3.26146 0
M  V30 202 H 16.3941 4.42244 1.98867 0
M  V30 203 N 17.7372 -0.778329 1.37039 0
M  V30 204 C 18.9622 -1.57248 1.35233 0
M  V30 205 C 19.3872 -1.87999 -0.0615568 0
M  V30 206 O 18.7452 -1.48734 -1.03672 0
M  V30 207 C 18.7932 -2.86353 2.19167 0
M  V30 208 O 17.8972 -3.80442 1.59178 0
M  V30 209 H 17.2382 -0.476569 0.462362 0
M  V30 210 H 19.7682 -0.963853 1.80474 0
M  V30 211 H 19.7782 -3.35519 2.32145 0
M  V30 212 H 18.4532 -2.63299 3.21942 0
M  V30 213 H 17.0302 -3.39067 1.55203 0
M  V30 214 N 19.2153 -1.21501 -1.00376 0
M  V30 215 C 20.1483 -0.918669 -2.08892 0
M  V30 216 C 21.1263 0.134277 -1.62045 0
M  V30 217 O 22.3103 0.00504255 -1.88499 0
M  V30 218 C 19.4373 -0.379645 -3.36566 0
M  V30 219 C 18.4833 -1.41559 -4.02323 0
M  V30 220 S 19.3163 -2.98521 -4.44574 0
M  V30 221 C 20.4723 -2.46228 -5.75433 0
M  V30 222 H 20.7053 -1.83761 -2.33707 0
M  V30 223 H 18.2383 -1.04489 -1.13673 0
M  V30 224 H 20.1963 -0.0752195 -4.10431 0
M  V30 225 H 18.8573 0.518008 -3.09799 0
M  V30 226 H 18.0503 -0.988076 -4.9422 0
M  V30 227 H 17.6523 -1.66815 -3.34737 0
M  V30 228 H 19.9443 -1.86791 -6.51241 0
M  V30 229 H 20.8873 -3.36572 -6.22997 0
M  V30 230 H 21.2953 -1.87894 -5.32312 0
M  V30 231 N 20.6934 1.19889 -1.02296 0
M  V30 232 C 21.9394 1.89701 -0.717033 0
M  V30 233 C 22.2724 1.7905 0.751989 0
M  V30 234 O 21.5474 1.17891 1.547 0
M  V30 235 C 21.8304 3.40858 -1.16136 0
M  V30 236 C 21.6834 3.60411 -2.69117 0
M  V30 237 C 23.0024 4.33876 -0.737549 0
M  V30 238 H 20.1214 0.688874 -0.261957 0
M  V30 239 H 22.7634 1.41154 -1.27183 0
M  V30 240 H 20.9134 3.82335 -0.689342 0
M  V30 241 H 22.5854 3.28145 -3.2422 0
M  V30 242 H 20.8284 3.03665 -3.0979 0
M  V30 243 H 21.4994 4.66396 -2.95261 0
M  V30 244 H 23.9754 4.00081 -1.14344 0
M  V30 245 H 22.8514 5.38242 -1.0764 0
M  V30 246 H 23.1124 4.40628 0.360436 0
M  V30 247 N 22.1715 0.800033 1.35784 0
M  V30 248 C 23.1345 0.211565 2.28221 0
M  V30 249 C 24.1345 -0.59728 1.49296 0
M  V30 250 O 25.3245 -0.416721 1.69142 0
M  V30 251 C 22.4565 -0.705846 3.33513 0
M  V30 252 H 23.6495 1.02677 2.81776 0
M  V30 253 H 21.2025 0.570211 1.45528 0
M  V30 254 H 21.9375 -1.54498 2.85133 0
M  V30 255 H 21.7225 -0.127655 3.91892 0
M  V30 256 H 23.2125 -1.11211 4.02519 0
M  V30 257 N 23.6496 -1.47581 0.552962 0
M  V30 258 C 24.6126 -2.28439 -0.186605 0
M  V30 259 C 25.6126 -1.36706 -0.84665 0
M  V30 260 O 26.8026 -1.59378 -0.703164 0
M  V30 261 C 23.9346 -3.16264 -1.2724 0
M  V30 262 H 25.1276 -2.95294 0.523609 0
M  V30 263 H 22.6806 -1.532 0.309745 0
M  V30 264 H 23.4156 -2.54091 -2.01514 0
M  V30 265 H 23.2006 -3.83769 -0.803968 0
M  V30 266 H 24.6906 -3.77198 -1.79196 0
M  V30 267 N 25.1277 -0.289203 -1.54924 0
M  V30 268 C 26.3527 0.329299 -2.04769 0
M  V30 269 C 26.7777 1.4763 -1.16564 0
M  V30 270 O 26.1357 1.80527 -0.167186 0
M  V30 271 C 26.1837 0.774438 -3.52186 0
M  V30 272 O 25.2877 1.88038 -3.67036 0
M  V30 273 H 24.6287 0.0659259 -0.660719 0
M  V30 274 H 27.1587 -0.42761 -2.00082 0
M  V30 275 H 27.1687 1.06642 -3.93816 0
M  V30 276 H 25.8437 -0.0646707 -4.1585 0
M  V30 277 H 24.4207 1.58985 -3.3731 0
M  V30 278 N 26.6058 1.57591 -0.0167156 0
M  V30 279 C 27.8358 1.95292 0.674149 0
M  V30 280 C 28.2438 0.891097 1.66901 0
M  V30 281 O 27.5868 -0.136908 1.83189 0
M  V30 282 C 27.6488 3.29072 1.44747 0
M  V30 283 C 27.3128 4.52879 0.612331 0
M  V30 284 C 28.3098 5.1979 -0.107126 0
M  V30 285 C 25.9948 4.99242 0.553381 0
M  V30 286 C 27.9888 6.31375 -0.874339 0
M  V30 287 C 25.6758 6.10713 -0.217546 0
M  V30 288 C 26.6738 6.76637 -0.930123 0
M  V30 289 O 26.3618 7.85969 -1.68844 0
M  V30 290 H 26.0938 0.648275 0.191615 0
M  V30 291 H 28.6478 2.05284 -0.0690148 0
M  V30 292 H 26.8778 3.15535 2.2355 0
M  V30 293 H 28.5668 3.51764 2.02526 0
M  V30 294 H 29.3328 4.84948 -0.0708392 0
M  V30 295 H 25.2118 4.47744 1.09757 0
M  V30 296 H 28.7558 6.82764 -1.43106 0
M  V30 297 H 24.6528 6.44994 -0.255593 0
M  V30 298 H 25.4208 8.02571 -1.6069 0
M  V30 299 N 28.0839 -0.256276 1.55502 0
M  V30 300 C 29.3089 -1.00766 1.81276 0
M  V30 301 C 29.7339 -1.78524 0.59252 0
M  V30 302 O 29.0919 -1.75413 -0.45827 0
M  V30 303 C 29.1399 -1.92869 3.04687 0
M  V30 304 O 28.2439 -3.019 2.80945 0
M  V30 305 H 27.5849 -0.287224 0.598664 0
M  V30 306 H 30.1149 -0.280109 2.02674 0
M  V30 307 H 30.1249 -2.34511 3.33869 0
M  V30 308 H 28.7999 -1.35689 3.93143 0
M  V30 309 H 27.3769 -2.64454 2.62904 0
M  V30 310 N 29.562 -1.4872 -0.521534 0
M  V30 311 C 30.472 -1.66569 -1.65203 0
M  V30 312 C 31.488 -0.548197 -1.65139 0
M  V30 313 O 32.664 -0.820339 -1.83936 0
M  V30 314 C 29.729 -1.70917 -3.01642 0
M  V30 315 C 28.79 -2.94356 -3.12495 0
M  V30 316 C 28.023 -2.98487 -4.42426 0
M  V30 317 O 28.246 -2.10786 -5.30024 0
M  V30 318 O 27.18 -3.90746 -4.57822 0
M  V30 319 H 31.006 -2.62298 -1.5308 0
M  V30 320 H 28.591 -1.3222 -0.695565 0
M  V30 321 H 30.473 -1.7625 -3.82771 0
M  V30 322 H 29.148 -0.783633 -3.14071 0
M  V30 323 H 28.055 -2.94552 -2.3063 0
M  V30 324 H 29.388 -3.86322 -3.04986 0
M  V30 325 N 31.0401 0.771051 -1.3745 0
M  V30 326 C 32.2681 1.56015 -1.35893 0
M  V30 327 C 32.6831 1.88718 0.0555523 0
M  V30 328 O 32.0401 1.51502 1.01752 0
M  V30 329 C 32.0911 2.87001 -2.19801 0
M  V30 330 O 31.8121 2.557 -3.55738 0
M  V30 331 C 33.3131 3.81228 -2.26231 0
M  V30 332 H 30.5331 0.483317 -0.465453 0
M  V30 333 H 33.0771 0.955611 -1.80799 0
M  V30 334 H 31.2321 3.43877 -1.78402 0
M  V30 335 H 31.6461 3.39584 -3.99729 0
M  V30 336 H 33.1201 4.70139 -2.89263 0
M  V30 337 H 33.5971 4.20409 -1.27093 0
M  V30 338 H 34.2031 3.30281 -2.67945 0
M  V30 339 N 32.5182 1.22032 0.997298 0
M  V30 340 C 33.7642 1.04376 1.73878 0
M  V30 341 C 34.0972 -0.420716 1.89588 0
M  V30 342 O 33.3722 -1.31202 1.43583 0
M  V30 343 C 33.6552 1.75047 3.14691 0
M  V30 344 C 33.5082 3.29062 3.06656 0
M  V30 345 C 34.8272 1.49928 4.13775 0
M  V30 346 H 31.9462 0.380578 0.631133 0
M  V30 347 H 34.5882 1.50312 1.16217 0
M  V30 348 H 32.7382 1.35996 3.63919 0
M  V30 349 H 34.4102 3.7753 2.65083 0
M  V30 350 H 32.6532 3.58967 2.43568 0
M  V30 351 H 33.3242 3.73683 4.06282 0
M  V30 352 H 35.8002 1.83842 3.73285 0
M  V30 353 H 34.6762 2.01878 5.10428 0
M  V30 354 H 34.9372 0.430929 4.39995 0
M  V30 355 N 33.9963 -1.19345 1.0293 0
M  V30 356 C 35.2243 -1.92997 0.745644 0
M  V30 357 C 35.6393 -1.75519 -0.695589 0
M  V30 358 O 34.9963 -1.07737 -1.47306 0
M  V30 359 C 35.0473 -3.44741 1.08792 0
M  V30 360 O 34.7683 -3.61658 2.47256 0
M  V30 361 C 36.2693 -4.35515 0.827129 0
M  V30 362 H 33.4893 -0.613042 0.272801 0
M  V30 363 H 36.0333 -1.51473 1.3739 0
M  V30 364 H 34.1883 -3.84097 0.504832 0
M  V30 365 H 34.6023 -4.55514 2.60015 0
M  V30 366 H 36.0763 -5.40589 1.11658 0
M  V30 367 H 36.5533 -4.38552 -0.238436 0
M  V30 368 H 37.1593 -4.01841 1.39297 0
M  V30 369 N 35.4744 -0.807222 -1.35358 0
M  V30 370 C 36.7144 -0.393534 -2.00576 0
M  V30 371 C 37.0784 1.0203 -1.62647 0
M  V30 372 O 38.2794 1.53603 -2.20589 0
M  V30 373 C 36.5504 -0.572017 -3.52793 0
M  V30 374 S 38.1094 -0.248845 -4.38094 0
M  V30 375 H 34.9274 -0.149425 -0.695121 0
M  V30 376 H 37.5294 -1.04961 -1.64935 0
M  V30 377 H 36.2334 -1.60097 -3.77885 0
M  V30 378 H 35.7644 0.099359 -3.93275 0
M  V30 379 H 37.7794 0.943253 -4.87152 0
M  V30 380 N 36.9525 1.47285 -0.560781 0
M  V30 381 C 37.8625 2.33846 0.187954 0
M  V30 382 C 38.8785 1.48412 0.908293 0
M  V30 383 O 40.0545 1.81332 0.876388 0
M  V30 384 C 37.1195 3.25178 1.2025 0
M  V30 385 C 36.1805 4.26504 0.489208 0
M  V30 386 C 35.4135 5.13472 1.45542 0
M  V30 387 O 35.6365 5.02959 2.6905 0
M  V30 388 O 34.5705 5.93902 0.977963 0
M  V30 389 H 38.3965 2.99177 -0.522177 0
M  V30 390 H 35.9815 1.45903 -0.321364 0
M  V30 391 H 37.8635 3.81584 1.78805 0
M  V30 392 H 36.5385 2.6247 1.89449 0
M  V30 393 H 35.4455 3.73847 -0.137627 0
M  V30 394 H 36.7785 4.91935 -0.161399 0
M  V30 395 N 38.4306 0.297415 1.54768 0
M  V30 396 C 39.7076 -0.365847 1.92148 0
M  V30 397 C 40.0876 -1.71975 1.22424 0
M  V30 398 O 39.4356 -2.25666 0.358739 0
M  V30 399 C 39.6456 -0.484056 3.45627 0
M  V30 400 C 40.9936 -0.756594 4.17805 0
M  V30 401 O 42.0176 -0.568007 3.51642 0
M  V30 402 O 40.8766 -1.11863 5.34929 0
M  V30 403 H 37.9706 -0.203919 0.801465 0
M  V30 404 H 40.5166 0.34521 1.66152 0
M  V30 405 H 39.2886 0.467865 3.88493 0
M  V30 406 H 38.9116 -1.24372 3.77647 0
M  V30 407 N 39.9087 -1.5758 0.0250728 0
M  V30 408 C 40.8717 -2.08896 -0.943139 0
M  V30 409 C 41.8717 -1.00321 -1.25668 0
M  V30 410 O 43.0617 -1.26495 -1.19769 0
M  V30 411 C 40.1937 -2.55143 -2.26086 0
M  V30 412 H 41.3867 -2.95723 -0.498775 0
M  V30 413 H 38.9397 -1.54703 -0.222888 0
M  V30 414 H 39.6747 -1.71633 -2.75159 0
M  V30 415 H 39.4597 -3.34461 -2.04641 0
M  V30 416 H 40.9497 -2.95083 -2.95492 0
M  V30 417 N 41.3868 0.248026 -1.55636 0
M  V30 418 C 42.3188 1.32993 -1.8667 0
M  V30 419 C 43.3318 1.44345 -0.752877 0
M  V30 420 O 44.5208 1.45715 -1.03098 0
M  V30 421 C 41.6208 2.70863 -2.03682 0
M  V30 422 C 40.7938 2.81792 -3.34532 0
M  V30 423 C 39.8528 4.005 -3.41301 0
M  V30 424 O 38.8788 3.9008 -4.14519 0
M  V30 425 N 40.0808 5.13618 -2.70512 0
M  V30 426 H 42.8458 1.06707 -2.8006 0
M  V30 427 H 40.4068 0.438129 -1.55859 0
M  V30 428 H 42.3988 3.48612 -2.05553 0
M  V30 429 H 40.9688 2.89862 -1.17041 0
M  V30 430 H 40.1888 1.90729 -3.44987 0
M  V30 431 H 41.4768 2.86043 -4.20781 0
M  V30 432 H 40.8748 5.24975 -2.10755 0
M  V30 433 H 39.4318 5.89505 -2.78077 0
M  V30 434 N 42.8649 1.48995 0.513639 0
M  V30 435 C 43.8119 1.6473 1.61656 0
M  V30 436 C 44.7819 0.488984 1.58739 0
M  V30 437 O 45.9669 0.714478 1.76918 0
M  V30 438 C 43.1069 1.7082 2.99858 0
M  V30 439 C 42.2199 2.9787 3.12885 0
M  V30 440 C 41.3549 2.95017 4.41744 0
M  V30 441 C 40.3939 4.16702 4.48359 0
M  V30 442 N 39.5309 4.11832 5.68629 0
M  V30 443 H 44.3709 2.58909 1.47547 0
M  V30 444 H 41.9079 1.28382 0.71808 0
M  V30 445 H 43.8659 1.72331 3.79944 0
M  V30 446 H 42.4959 0.801181 3.12699 0
M  V30 447 H 41.5479 3.06029 2.25944 0
M  V30 448 H 42.8599 3.8786 3.13633 0
M  V30 449 H 42.0139 2.95021 5.30139 0
M  V30 450 H 40.7529 2.02784 4.43542 0
M  V30 451 H 39.7579 4.16955 3.58369 0
M  V30 452 H 40.9829 5.10113 4.48287 0
M  V30 453 H 38.9289 3.22428 5.71293 0
M  V30 454 H 38.8459 4.95543 5.7094 0
M  V30 455 H 40.1139 4.1592 6.59266 0
M  V30 456 N 44.343 -0.763751 1.37857 0
M  V30 457 C 45.571 -1.55293 1.36718 0
M  V30 458 C 45.986 -1.88745 -0.0455434 0
M  V30 459 O 45.343 -1.52039 -1.00947 0
M  V30 460 C 45.394 -2.85831 2.2132 0
M  V30 461 O 45.115 -2.5381 3.57089 0
M  V30 462 C 46.616 -3.80023 2.28249 0
M  V30 463 H 43.836 -0.480841 0.468009 0
M  V30 464 H 46.38 -0.946009 1.81303 0
M  V30 465 H 44.535 -3.42926 1.80223 0
M  V30 466 H 44.949 -3.37459 4.01524 0
M  V30 467 H 46.423 -4.68599 2.91752 0
M  V30 468 H 46.9 -4.1973 1.2932 0
M  V30 469 H 47.506 -3.28855 2.69693 0
M  V30 470 N 45.8211 -1.22559 -0.990812 0
M  V30 471 C 47.0611 -1.06302 -1.74583 0
M  V30 472 C 47.4251 0.394737 -1.87898 0
M  V30 473 O 48.6261 0.678214 -2.60103 0
M  V30 474 C 46.8971 -1.75699 -3.11231 0
M  V30 475 S 48.4561 -1.74882 -4.02445 0
M  V30 476 H 45.2741 -0.380639 -0.600529 0
M  V30 477 H 47.8761 -1.55532 -1.18449 0
M  V30 478 H 46.5801 -2.80923 -2.99183 0
M  V30 479 H 46.1111 -1.26708 -3.72436 0
M  V30 480 H 48.1261 -0.799997 -4.89709 0
M  V30 481 N 47.2992 1.18797 -1.03562 0
M  V30 482 C 48.7102 1.70322 -0.764676 0
M  V30 483 C 49.0612 1.82708 0.714996 0
M  V30 484 O 48.1862 1.50299 1.55689 0
M  V30 485 C 48.7812 3.09356 -1.38145 0
M  V30 486 C 47.3402 3.58114 -1.15895 0
M  V30 487 C 46.4872 2.34798 -1.4753 0
M  V30 488 H 49.4382 1.03543 -1.20268 0
M  V30 489 H 49.4592 3.72378 -0.781977 0
M  V30 490 H 48.9712 3.00309 -2.45837 0
M  V30 491 H 47.0722 3.72464 -0.100544 0
M  V30 492 H 47.1852 4.4184 -1.8524 0
M  V30 493 H 45.5492 2.38464 -0.894829 0
M  V30 494 H 46.3322 2.28375 -2.56319 0
M  V30 495 N 48.7773 0.814389 1.34928 0
M  V30 496 C 49.7403 0.235759 2.27984 0
M  V30 497 C 50.7403 -0.581412 1.49921 0
M  V30 498 O 51.9303 -0.398758 1.69575 0
M  V30 499 C 49.0623 -0.670433 3.34242 0
M  V30 500 H 50.2553 1.05659 2.80671 0
M  V30 501 H 47.8083 0.585614 1.44915 0
M  V30 502 H 48.5433 -1.51466 2.86755 0
M  V30 503 H 48.3283 -0.0860822 3.92005 0
M  V30 504 H 49.8183 -1.06935 4.03676 0
M  V30 505 N 50.2554 -1.46986 0.568584 0
M  V30 506 C 51.5014 -2.02741 0.0488709 0
M  V30 507 C 51.8344 -1.44077 -1.30214 0
M  V30 508 O 51.1094 -0.600552 -1.84996 0
M  V30 509 C 51.3924 -3.60086 -0.032047 0
M  V30 510 C 51.2454 -4.29162 1.34686 0
M  V30 511 C 52.5644 -4.33838 -0.739798 0
M  V30 512 H 49.6834 -0.736749 0.0192338 0
M  V30 513 H 52.3254 -1.75289 0.733065 0
M  V30 514 H 50.4754 -3.83606 -0.61473 0
M  V30 515 H 52.1474 -4.16948 1.97362 0
M  V30 516 H 50.3904 -3.89073 1.91846 0
M  V30 517 H 51.0614 -5.37826 1.24285 0
M  V30 518 H 53.5374 -4.15378 -0.244939 0
M  V30 519 H 52.4134 -5.43537 -0.765406 0
M  V30 520 H 52.6744 -4.03875 -1.79827 0
M  V30 521 N 51.7335 -0.305618 -1.54608 0
M  V30 522 C 52.9825 0.303098 -1.9941 0
M  V30 523 C 53.2955 1.54648 -1.19764 0
M  V30 524 O 54.5015 2.23007 -1.54855 0
M  V30 525 C 52.9575 0.590588 -3.55021 0
M  V30 526 C 52.5655 -0.634719 -4.43481 0
M  V30 527 C 54.3095 1.16025 -4.08336 0
M  V30 528 C 52.2165 -0.320126 -5.90533 0
M  V30 529 H 51.1465 0.117031 -0.744862 0
M  V30 530 H 53.7975 -0.415045 -1.78745 0
M  V30 531 H 52.1795 1.36845 -3.71604 0
M  V30 532 H 53.3535 -1.41079 -4.38672 0
M  V30 533 H 51.6685 -1.12333 -4.00962 0
M  V30 534 H 54.2655 1.40994 -5.15776 0
M  V30 535 H 54.6085 2.10397 -3.5922 0
M  V30 536 H 55.1415 0.443985 -3.95315 0
M  V30 537 H 51.8805 -1.23254 -6.43808 0
M  V30 538 H 51.4005 0.418579 -5.98338 0
M  V30 539 H 53.0795 0.0766241 -6.46955 0
M  V30 540 N 53.2116 1.57565 -0.0334293 0
M  V30 541 C 54.1746 2.09393 0.932048 0
M  V30 542 C 55.1746 1.00986 1.25134 0
M  V30 543 O 56.3646 1.27129 1.19096 0
M  V30 544 C 53.4966 2.56338 2.2473 0
M  V30 545 H 54.6896 2.95984 0.483085 0
M  V30 546 H 52.2426 1.54819 0.21468 0
M  V30 547 H 52.9776 1.7309 2.74245 0
M  V30 548 H 52.7626 3.35542 2.02865 0
M  V30 549 H 54.2526 2.96646 2.93923 0
M  V30 550 N 54.6897 -0.239769 1.55765 0
M  V30 551 C 55.9297 -0.974076 1.79697 0
M  V30 552 C 56.2937 -1.82249 0.604088 0
M  V30 553 O 57.4947 -2.58913 0.722324 0
M  V30 554 C 55.7657 -1.80595 3.08416 0
M  V30 555 S 57.3247 -2.59838 3.53596 0
M  V30 556 H 54.1427 -0.327524 0.63107 0
M  V30 557 H 56.7447 -0.241277 1.94005 0
M  V30 558 H 55.4487 -1.17249 3.93295 0
M  V30 559 H 54.9797 -2.58137 2.96865 0
M  V30 560 H 56.9947 -3.82987 3.15492 0
M  V30 561 N 56.1678 -1.49265 -0.50573 0
M  V30 562 C 57.3928 -1.62478 -1.28902 0
M  V30 563 C 57.8178 -0.294332 -1.85783 0
M  V30 564 O 57.1758 0.737412 -1.65626 0
M  V30 565 C 57.2238 -2.69268 -2.39848 0
M  V30 566 O 56.3278 -2.28113 -3.43567 0
M  V30 567 H 55.6688 -0.54399 -0.380751 0
M  V30 568 H 58.1988 -1.95421 -0.605952 0
M  V30 569 H 58.2088 -2.91291 -2.85681 0
M  V30 570 H 56.8838 -3.65846 -1.97812 0
M  V30 571 H 55.4608 -2.16401 -3.03685 0
M  V30 572 N 57.6459 0.756429 -1.3826 0
M  V30 573 C 58.8709 1.55077 -1.37717 0
M  V30 574 C 59.2959 1.88073 0.03164 0
M  V30 575 O 58.6539 1.50364 1.01293 0
M  V30 576 C 58.7019 2.8283 -2.23695 0
M  V30 577 O 57.8059 3.77862 -1.6521 0
M  V30 578 H 57.1469 0.469152 -0.469885 0
M  V30 579 H 59.6769 0.935019 -1.81985 0
M  V30 580 H 59.6869 3.31783 -2.37453 0
M  V30 581 H 58.3619 2.58144 -3.2609 0
M  V30 582 H 56.9389 3.36555 -1.60578 0
M  V30 583 N 59.124 1.23083 0.984299 0
M  V30 584 C 60.535 1.05609 1.5396 0
M  V30 585 C 60.886 -0.377793 1.92528 0
M  V30 586 O 60.011 -1.26398 1.75649 0
M  V30 587 C 60.606 1.91087 2.7977 0
M  V30 588 C 59.165 1.77885 3.31713 0
M  V30 589 C 58.312 1.87028 2.04733 0
M  V30 590 H 61.263 1.36802 0.804419 0
M  V30 591 H 61.284 1.43336 3.5247 0
M  V30 592 H 60.796 2.9544 2.51668 0
M  V30 593 H 58.897 0.762995 3.64704 0
M  V30 594 H 59.01 2.61047 4.01735 0
M  V30 595 H 57.374 1.30565 2.18689 0
M  V30 596 H 58.157 2.92929 1.79017 0
M  V30 597 N 60.6021 -1.18246 1.0419 0
M  V30 598 C 61.8501 -1.87886 0.744543 0
M  V30 599 C 62.1711 -1.8082 -0.730006 0
M  V30 600 O 61.4411 -1.22736 -1.52685 0
M  V30 601 H 60.0211 -0.695556 0.272417 0
M  V30 602 H 62.6831 -1.43494 1.31892 0
M  V30 603 H 61.7791 -2.9389 1.05049 0
M  V30 604 N 62.0802 -0.821533 -1.34494 0
M  V30 605 C 63.3292 -0.405355 -1.97585 0
M  V30 606 C 63.6422 1.03677 -1.65863 0
M  V30 607 O 64.8482 1.55679 -2.22433 0
M  V30 608 C 63.3042 -0.673861 -3.53535 0
M  V30 609 C 62.9122 -2.12951 -3.94152 0
M  V30 610 C 64.6562 -0.32378 -4.23263 0
M  V30 611 C 62.5632 -2.34298 -5.43009 0
M  V30 612 H 61.4932 -0.147836 -0.739365 0
M  V30 613 H 64.1442 -1.00769 -1.53355 0
M  V30 614 H 62.5262 -0.00137554 -3.96 0
M  V30 615 H 63.7002 -2.84104 -3.62797 0
M  V30 616 H 62.0152 -2.44089 -3.37356 0
M  V30 617 H 64.6122 -0.461126 -5.32708 0
M  V30 618 H 64.9552 0.731586 -4.09821 0
M  V30 619 H 65.4882 -0.950786 -3.8627 0
M  V30 620 H 62.2272 -3.38335 -5.61435 0
M  V30 621 H 61.7472 -1.67687 -5.75883 0
M  V30 622 H 63.4262 -2.16588 -6.09671 0
M  V30 623 N 63.5583 1.46682 -0.576371 0
M  V30 624 C 64.5063 2.31953 0.17335 0
M  V30 625 C 65.5003 1.44098 0.89062 0
M  V30 626 O 66.7063 1.60759 0.809728 0
M  V30 627 H 63.0813 0.748273 0.0747727 0
M  V30 628 H 65.0523 2.93007 -0.564738 0
M  V30 629 C 63.8013 3.27142 1.17786 0
M  V30 630 H 63.1243 3.94719 0.635361 0
M  V30 631 H 64.5643 3.896 1.67296 0
M  V30 632 C 63.0233 2.52036 2.23561 0
M  V30 633 O 63.5533 2.27877 3.3081 0
M  V30 634 N 61.7593 2.12709 1.97998 0
M  V30 635 H 61.3063 2.32557 1.10792 0
M  V30 636 H 61.2643 1.62776 2.68982 0
M  V30 637 N 65.0364 0.313813 1.54444 0
M  V30 638 C 66.2844 -0.291099 1.99993 0
M  V30 639 C 66.6054 -1.53418 1.20366 0
M  V30 640 O 65.8754 -1.93544 0.302927 0
M  V30 641 H 64.4554 -0.110552 0.738774 0
M  V30 642 H 67.1174 0.428106 1.9014 0
M  V30 643 H 66.2134 -0.554268 3.07139 0
M  V30 644 N 66.5145 -1.57545 0.0417849 0
M  V30 645 C 67.7615 -1.92317 -0.634082 0
M  V30 646 C 68.0895 -0.919334 -1.71402 0
M  V30 647 O 67.3445 0.0698253 -1.95575 0
M  V30 648 C 67.6435 -3.33794 -1.27735 0
M  V30 649 C 67.3095 -4.49716 -0.326543 0
M  V30 650 C 65.9715 -4.81156 -0.0648814 0
M  V30 651 C 68.3235 -5.20182 0.325623 0
M  V30 652 C 65.6515 -5.80414 0.856539 0
M  V30 653 C 68.0035 -6.20424 1.23518 0
M  V30 654 C 66.6675 -6.50298 1.5056 0
M  V30 655 H 65.9375 -0.703736 -0.232027 0
M  V30 656 H 68.5845 -1.91205 0.106259 0
M  V30 657 H 66.8895 -3.31228 -2.09274 0
M  V30 658 H 68.5865 -3.57975 -1.80707 0
M  V30 659 H 65.1765 -4.25176 -0.540665 0
M  V30 660 H 69.3605 -4.96112 0.136546 0
M  V30 661 H 64.6165 -6.019 1.07363 0
M  V30 662 H 68.7905 -6.74141 1.74664 0
M  V30 663 H 66.4175 -7.27025 2.22123 0
M  V30 664 N 67.9926 0.231505 -1.5589 0
M  V30 665 C 69.4036 0.799327 -1.68724 0
M  V30 666 C 69.7546 1.85398 -0.642022 0
M  V30 667 O 68.8796 2.1539 0.208784 0
M  V30 668 C 69.4746 1.45664 -3.05888 0
M  V30 669 C 68.0336 1.97197 -3.20609 0
M  V30 670 C 67.1806 0.828552 -2.64632 0
M  V30 671 H 70.1316 0.00702616 -1.58698 0
M  V30 672 H 70.1526 2.32517 -3.01191 0
M  V30 673 H 69.6646 0.688808 -3.81939 0
M  V30 674 H 67.7656 2.76813 -2.4941 0
M  V30 675 H 67.8786 2.15878 -4.27707 0
M  V30 676 H 66.2426 1.23321 -2.22854 0
M  V30 677 H 67.0256 0.0735544 -3.43221 0
M  V30 678 N 69.4707 1.49531 0.497807 0
M  V30 679 C 70.7187 1.58865 1.24926 0
M  V30 680 C 71.0397 0.278721 1.92998 0
M  V30 681 O 70.3097 -0.702144 1.82885 0
M  V30 682 H 68.8897 0.585343 0.464094 0
M  V30 683 H 71.5517 1.86174 0.57666 0
M  V30 684 H 70.6477 2.38633 2.01149 0
M  V30 685 N 70.9488 -0.749086 1.3866 0
M  V30 686 C 71.8958 -1.86291 1.36251 0
M  V30 687 C 72.8658 -1.64578 0.224347 0
M  V30 688 O 74.0508 -1.86181 0.417279 0
M  V30 689 C 71.1908 -3.23644 1.19786 0
M  V30 690 C 70.3038 -3.57158 2.43027 0
M  V30 691 C 69.4388 -4.83838 2.19258 0
M  V30 692 C 68.4778 -5.10152 3.38247 0
M  V30 693 N 67.6148 -6.28029 3.13884 0
M  V30 694 H 72.4548 -1.87685 2.3147 0
M  V30 695 H 69.9918 -0.917287 1.14997 0
M  V30 696 H 71.9498 -4.0291 1.08254 0
M  V30 697 H 70.5798 -3.21566 0.282031 0
M  V30 698 H 69.6318 -2.72701 2.65214 0
M  V30 699 H 70.9438 -3.7253 3.31697 0
M  V30 700 H 70.0978 -5.71057 2.04888 0
M  V30 701 H 68.8368 -4.70614 1.2796 0
M  V30 702 H 67.8418 -4.21401 3.53131 0
M  V30 703 H 69.0668 -5.25271 4.30427 0
M  V30 704 H 67.0128 -6.1612 2.25238 0
M  V30 705 H 66.9298 -6.43922 3.96106 0
M  V30 706 H 68.1978 -7.18124 3.03179 0
M  V30 707 N 72.4269 -1.23603 -0.977757 0
M  V30 708 C 73.7039 -0.977897 -1.69401 0
M  V30 709 C 74.0839 0.502738 -2.05026 0
M  V30 710 O 73.4319 1.47459 -1.74551 0
M  V30 711 C 73.6419 -1.89077 -2.93345 0
M  V30 712 C 74.9899 -2.15579 -3.65802 0
M  V30 713 O 76.0139 -1.86648 -3.03383 0
M  V30 714 O 74.8729 -2.64658 -4.78141 0
M  V30 715 H 71.9669 -0.369025 -0.740101 0
M  V30 716 H 74.5129 -1.34657 -1.03274 0
M  V30 717 H 73.2849 -2.89158 -2.63634 0
M  V30 718 H 72.9079 -1.52463 -3.67207 0
M  V30 719 N 73.905 1.17692 -1.04816 0
M  V30 720 C 75.153 1.87488 -0.754497 0
M  V30 721 C 75.474 1.81205 0.720407 0
M  V30 722 O 74.744 1.23544 1.52032 0
M  V30 723 H 73.324 0.694101 -0.276102 0
M  V30 724 H 75.986 1.42793 -1.32651 0
M  V30 725 H 75.082 2.93328 -1.06606 0
M  V30 726 N 75.3831 0.828654 1.34056 0
M  V30 727 C 76.7991 0.515135 1.51058 0
M  V30 728 C 76.9991 -0.959581 1.77184 0
M  V30 729 O 76.0551 -1.74382 1.82612 0
M  V30 730 C 77.3681 1.37963 2.67183 0
M  V30 731 C 78.9161 1.37735 2.81066 0
M  V30 732 C 79.3911 2.22645 4.00241 0
M  V30 733 N 80.8821 2.203 4.07458 0
M  V30 734 C 81.6171 2.82744 4.98842 0
M  V30 735 N 81.1131 3.54201 5.9541 0
M  V30 736 N 82.9061 2.72268 4.91759 0
M  V30 737 H 75.0571 1.78343 1.15358 0
M  V30 738 H 77.3201 0.760304 0.566252 0
M  V30 739 H 77.0261 2.42714 2.54525 0
M  V30 740 H 76.9001 1.0484 3.62338 0
M  V30 741 H 79.2871 0.337593 2.93163 0
M  V30 742 H 79.3681 1.74859 1.86703 0
M  V30 743 H 79.0121 3.26674 3.88905 0
M  V30 744 H 78.9421 1.82869 4.93829 0
M  V30 745 H 81.4331 1.68327 3.38341 0
M  V30 746 H 81.7461 3.9908 6.61782 0
M  V30 747 H 80.0911 3.58308 5.95517 0
M  V30 748 H 83.2821 2.16014 4.15278 0
M  V30 749 H 83.4551 3.21219 5.62781 0
M  V30 750 N 76.8612 -1.46375 0.584142 0
M  V30 751 C 78.1382 -1.956 0.0033388 0
M  V30 752 C 78.5182 -1.52679 -1.45782 0
M  V30 753 O 77.8662 -0.77816 -2.14842 0
M  V30 754 C 78.0762 -3.48551 0.176891 0
M  V30 755 C 79.4242 -4.24576 0.0454609 0
M  V30 756 O 80.4482 -3.56043 0.105801 0
M  V30 757 O 79.3072 -5.46427 -0.0890376 0
M  V30 758 H 76.4012 -0.825547 -0.0490066 0
M  V30 759 H 78.9472 -1.56652 0.65256 0
M  V30 760 H 77.7192 -3.72683 1.1926 0
M  V30 761 H 77.3422 -3.94332 -0.508695 0
M  V30 762 N 78.3393 -0.321999 -1.54275 0
M  V30 763 C 79.5873 0.280489 -2.00144 0
M  V30 764 C 79.9083 1.52777 -1.21178 0
M  V30 765 O 79.1783 1.9338 -0.313187 0
M  V30 766 H 77.7583 0.106632 -0.73935 0
M  V30 767 H 80.4203 -0.438184 -1.8991 0
M  V30 768 H 79.5163 0.537972 -3.07428 0
M  V30 769 N 79.8174 1.5752 -0.0501392 0
M  V30 770 C 81.0454 1.96963 0.633492 0
M  V30 771 C 81.4604 0.927631 1.6444 0
M  V30 772 O 80.8174 -0.0882665 1.82286 0
M  V30 773 C 80.8684 3.36487 1.32132 0
M  V30 774 O 80.5894 4.36693 0.350894 0
M  V30 775 C 82.0904 3.90682 2.09481 0
M  V30 776 H 79.3104 0.648244 0.173266 0
M  V30 777 H 81.8544 2.0417 -0.116134 0
M  V30 778 H 80.0094 3.30434 2.02218 0
M  V30 779 H 80.4234 5.17702 0.841735 0
M  V30 780 H 81.8974 4.90591 2.5303 0
M  V30 781 H 82.3744 3.26053 2.94255 0
M  V30 782 H 82.9804 4.00069 1.44307 0
M  V30 783 N 81.2955 -0.223234 1.56011 0
M  V30 784 C 82.2425 -1.27664 1.92277 0
M  V30 785 C 83.2125 -1.46659 0.779763 0
M  V30 786 O 84.3975 -1.60256 1.03551 0
M  V30 787 C 81.5375 -2.62234 2.24338 0
M  V30 788 C 80.6505 -2.51051 3.51564 0
M  V30 789 C 79.7855 -3.78133 3.7308 0
M  V30 790 C 78.8245 -3.61665 4.93827 0
M  V30 791 N 77.9615 -4.80693 5.11741 0
M  V30 792 H 82.8015 -0.960358 2.82101 0
M  V30 793 H 80.3385 -0.462901 1.39627 0
M  V30 794 H 82.2965 -3.40596 2.40936 0
M  V30 795 H 80.9265 -2.91961 1.3769 0
M  V30 796 H 79.9785 -1.64132 3.43169 0
M  V30 797 H 81.2905 -2.34803 4.40079 0
M  V30 798 H 80.4445 -4.64938 3.89766 0
M  V30 799 H 79.1835 -3.97304 2.82844 0
M  V30 800 H 78.1885 -2.73244 4.77093 0
M  V30 801 H 79.4135 -3.43966 5.85546 0
M  V30 802 H 77.3595 -5.00181 4.24446 0
M  V30 803 H 77.2765 -4.67165 5.94384 0
M  V30 804 H 78.5445 -5.6893 5.3286 0
M  V30 805 N 82.7736 -1.49793 -0.48987 0
M  V30 806 C 84.0216 -1.59525 -1.24081 0
M  V30 807 C 84.3426 -0.288953 -1.92847 0
M  V30 808 O 83.6126 0.692436 -1.83254 0
M  V30 809 H 82.1926 -0.587796 -0.460983 0
M  V30 810 H 84.8546 -1.86477 -0.566778 0
M  V30 811 H 83.9506 -2.39696 -1.99881 0
M  V30 812 N 84.2517 0.741722 -1.39055 0
M  V30 813 C 85.1617 1.88621 -1.39496 0
M  V30 814 C 86.1777 1.71557 -0.290578 0
M  V30 815 O 87.3537 1.94275 -0.530954 0
M  V30 816 C 84.4187 3.24134 -1.23037 0
M  V30 817 C 83.4797 3.5364 -2.43387 0
M  V30 818 C 82.7127 4.82687 -2.27703 0
M  V30 819 O 82.9357 5.55922 -1.27696 0
M  V30 820 O 81.8697 5.1194 -3.16545 0
M  V30 821 H 85.6957 1.91203 -2.35956 0
M  V30 822 H 83.2807 0.888625 -1.20099 0
M  V30 823 H 85.1627 4.0513 -1.15964 0
M  V30 824 H 83.8377 3.22337 -0.296691 0
M  V30 825 H 82.7447 2.72758 -2.56035 0
M  V30 826 H 84.0777 3.60209 -3.35425 0
M  V30 827 N 85.7298 1.2412 0.971189 0
M  V30 828 C 86.6768 1.0305 2.06517 0
M  V30 829 C 87.6468 -0.0550666 1.66009 0
M  V30 830 O 88.8318 0.0988688 1.90544 0
M  V30 831 C 85.9718 0.637653 3.39158 0
M  V30 832 C 85.0848 1.79633 3.92882 0
M  V30 833 C 84.2198 1.34939 5.13775 0
M  V30 834 C 83.2588 2.47823 5.59687 0
M  V30 835 N 82.3958 2.04022 6.71803 0
M  V30 836 H 87.2358 1.96685 2.23873 0
M  V30 837 H 84.7728 0.979694 1.09729 0
M  V30 838 H 86.7308 0.390931 4.15364 0
M  V30 839 H 85.3608 -0.261693 3.21737 0
M  V30 840 H 84.4128 2.15681 3.13346 0
M  V30 841 H 85.7248 2.64466 4.22918 0
M  V30 842 H 84.8788 1.06134 5.97345 0
M  V30 843 H 83.6178 0.471557 4.85415 0
M  V30 844 H 82.6228 2.77392 4.74693 0
M  V30 845 H 83.8478 3.36158 5.90063 0
M  V30 846 H 81.7938 1.18632 6.45184 0
M  V30 847 H 81.7108 2.82409 7.01271 0
M  V30 848 H 82.9788 1.78347 7.58823 0
M  V30 849 N 87.2079 -1.17134 1.05439 0
M  V30 850 C 88.4559 -1.87085 0.764429 0
M  V30 851 C 88.7769 -1.81584 -0.710787 0
M  V30 852 O 88.0469 -1.24349 -1.51374 0
M  V30 853 H 86.6269 -0.692627 0.279779 0
M  V30 854 H 89.2889 -1.42087 1.33406 0
M  V30 855 H 88.3849 -2.92759 1.0816 0
M  V30 856 N 88.686 -0.835752 -1.33615 0
M  V30 857 C 89.596 -0.269088 -2.33052 0
M  V30 858 C 90.612 0.603251 -1.63208 0
M  V30 859 O 91.788 0.508112 -1.94885 0
M  V30 860 C 88.853 0.549091 -3.42324 0
M  V30 861 C 87.914 -0.347156 -4.27894 0
M  V30 862 C 87.147 0.43207 -5.31948 0
M  V30 863 O 87.37 1.66409 -5.45586 0
M  V30 864 O 86.304 -0.192298 -6.01593 0
M  V30 865 H 90.13 -1.09243 -2.83372 0
M  V30 866 H 87.715 -0.598198 -1.36901 0
M  V30 867 H 89.597 1.01414 -4.09015 0
M  V30 868 H 88.272 1.34955 -2.94226 0
M  V30 869 H 87.179 -0.859979 -3.64081 0
M  V30 870 H 88.512 -1.1123 -4.79467 0
M  V30 871 N 90.1641 1.46063 -0.591896 0
M  V30 872 C 91.5751 1.85944 -0.167822 0
M  V30 873 C 91.9261 1.49429 1.27143 0
M  V30 874 O 91.0511 0.913515 1.96173 0
M  V30 875 C 91.6461 3.37489 -0.297794 0
M  V30 876 C 90.2051 3.76332 0.0714732 0
M  V30 877 C 89.3521 2.7006 -0.629509 0
M  V30 878 H 92.3031 1.37087 -0.799555 0
M  V30 879 H 92.3241 3.77532 0.474349 0
M  V30 880 H 91.8361 3.64034 -1.3454 0
M  V30 881 H 89.9371 3.55405 1.11886 0
M  V30 882 H 90.0501 4.78088 -0.311245 0
M  V30 883 H 88.4141 2.54607 -0.0687867 0
M  V30 884 H 89.1971 2.99444 -1.67894 0
M  V30 885 N 91.6422 0.330177 1.54103 0
M  V30 886 C 92.8902 -0.269871 2.0029 0
M  V30 887 C 93.2112 -1.52133 1.21986 0
M  V30 888 O 92.4812 -1.93212 0.323438 0
M  V30 889 H 91.0612 -0.10271 0.739905 0
M  V30 890 H 93.7232 0.448249 1.89675 0
M  V30 891 H 92.8192 -0.52166 3.07709 0
M  V30 892 N 93.1203 -1.57491 0.0584922 0
M  V30 893 C 94.0523 -2.08916 -0.942694 0
M  V30 894 C 95.0653 -1.0185 -1.27006 0
M  V30 895 O 96.2543 -1.29398 -1.22957 0
M  V30 896 C 93.3543 -2.52341 -2.26224 0
M  V30 897 C 92.5273 -3.82827 -2.1157 0
M  V30 898 C 91.5863 -4.12487 -3.26712 0
M  V30 899 O 90.6123 -4.82295 -3.02292 0
M  V30 900 N 91.8143 -3.64978 -4.5141 0
M  V30 901 H 94.5793 -2.95437 -0.503722 0
M  V30 902 H 92.1403 -1.61397 -0.12757 0
M  V30 903 H 94.1323 -2.69254 -3.02133 0
M  V30 904 H 92.7023 -1.7103 -2.61663 0
M  V30 905 H 91.9223 -3.75425 -1.20208 0
M  V30 906 H 93.2103 -4.68263 -1.99015 0
M  V30 907 H 92.6083 -3.08558 -4.7414 0
M  V30 908 H 91.1653 -3.87115 -5.2439 0
M  V30 909 N 94.5984 0.214957 -1.56127 0
M  V30 910 C 95.8464 0.936518 -1.79091 0
M  V30 911 C 96.1674 1.84606 -0.628148 0
M  V30 912 O 95.4374 1.92664 0.35462 0
M  V30 913 H 94.0174 0.3488 -0.660566 0
M  V30 914 H 96.6794 0.22523 -1.93594 0
M  V30 915 H 95.7754 1.53943 -2.71492 0
M  V30 916 N 96.0765 1.50051 0.48192 0
M  V30 917 C 97.0065 1.71046 1.58951 0
M  V30 918 C 97.9875 0.559288 1.60642 0
M  V30 919 O 99.1725 0.797243 1.77081 0
M  V30 920 C 96.3025 1.79462 2.97339 0
M  V30 921 C 95.2565 2.94558 3.10515 0
M  V30 922 C 94.5825 2.88105 4.50444 0
M  V30 923 C 95.8825 4.35227 2.88747 0
M  V30 924 H 97.5765 2.6378 1.41635 0
M  V30 925 H 95.1225 1.26936 0.679942 0
M  V30 926 H 97.0755 1.92734 3.74742 0
M  V30 927 H 95.7995 0.833412 3.15788 0
M  V30 928 H 94.4585 2.80918 2.35543 0
M  V30 929 H 94.1065 1.89853 4.65795 0
M  V30 930 H 93.8065 3.65366 4.60197 0
M  V30 931 H 95.3305 3.03412 5.29881 0
M  V30 932 H 96.7445 4.49449 3.55905 0
M  V30 933 H 95.1415 5.13856 3.09955 0
M  V30 934 H 96.2115 4.48347 1.84696 0
M  V30 935 N 97.5546 -0.734337 1.39446 0
M  V30 936 C 98.9706 -1.03997 1.21065 0
M  V30 937 C 99.1706 -2.01369 0.0727019 0
M  V30 938 O 98.2266 -2.45856 -0.575426 0
M  V30 939 C 99.5396 -1.60163 2.54496 0
M  V30 940 C 101.088 -1.7224 2.61347 0
M  V30 941 C 101.563 -2.31814 3.95002 0
M  V30 942 N 103.054 -2.39223 3.96644 0
M  V30 943 C 103.789 -2.86258 4.96834 0
M  V30 944 N 103.285 -3.33184 6.07421 0
M  V30 945 N 105.078 -2.85473 4.84213 0
M  V30 946 H 97.2286 -0.0885624 2.12215 0
M  V30 947 H 99.4916 -0.10191 0.942506 0
M  V30 948 H 99.1976 -0.960811 3.38321 0
M  V30 949 H 99.0716 -2.5896 2.74262 0
M  V30 950 H 101.459 -2.35443 1.77906 0
M  V30 951 H 101.54 -0.720939 2.4543 0
M  V30 952 H 101.184 -1.69238 4.78875 0
M  V30 953 H 101.114 -3.32638 4.08239 0
M  V30 954 H 103.605 -2.06057 3.16779 0
M  V30 955 H 103.918 -3.67586 6.7978 0
M  V30 956 H 102.263 -3.31191 6.11013 0
M  V30 957 H 105.454 -2.48136 3.96921 0
M  V30 958 H 105.627 -3.21814 5.62441 0
M  V30 959 N 99.0327 -1.24633 -0.964593 0
M  V30 960 C 100.281 -1.08573 -1.70459 0
M  V30 961 C 100.602 0.375655 -1.91347 0
M  V30 962 O 99.8717 1.26779 -1.49345 0
M  V30 963 H 98.4517 -0.398784 -0.631649 0
M  V30 964 H 101.114 -1.56601 -1.16026 0
M  V30 965 H 100.21 -1.58623 -2.68785 0
M  V30 966 N 100.511 1.16574 -1.06058 0
M  V30 967 C 101.441 2.23057 -0.690488 0
M  V30 968 C 102.422 1.67141 0.315901 0
M  V30 969 O 103.607 1.93253 0.191556 0
M  V30 970 C 100.737 3.47222 -0.073625 0
M  V30 971 C 99.6908 4.16016 -1.00573 0
M  V30 972 C 99.0168 5.34104 -0.252289 0
M  V30 973 C 100.317 4.67264 -2.33371 0
M  V30 974 H 102.011 2.54271 -1.58072 0
M  V30 975 H 99.5568 1.22218 -0.76149 0
M  V30 976 H 101.51 4.20939 0.19714 0
M  V30 977 H 100.234 3.15302 0.85161 0
M  V30 978 H 98.8928 3.44223 -1.2612 0
M  V30 979 H 98.5408 4.98437 0.675988 0
M  V30 980 H 98.2408 5.81072 -0.873455 0
M  V30 981 H 99.7648 6.10599 0.0109857 0
M  V30 982 H 101.179 5.32573 -2.12223 0
M  V30 983 H 99.5758 5.24843 -2.90963 0
M  V30 984 H 100.646 3.83602 -2.96611 0
M  V30 985 N 101.989 0.842826 1.3317 0
M  V30 986 C 102.921 0.236245 2.27979 0
M  V30 987 C 103.934 -0.585282 1.51915 0
M  V30 988 O 105.123 -0.411705 1.73687 0
M  V30 989 C 102.223 -0.685717 3.3189 0
M  V30 990 C 101.396 0.0973448 4.37292 0
M  V30 991 C 100.455 -0.748565 5.20848 0
M  V30 992 O 99.4809 -0.186339 5.68895 0
M  V30 993 N 100.683 -2.06527 5.42519 0
M  V30 994 H 103.448 1.05088 2.80672 0
M  V30 995 H 101.009 0.701667 1.45905 0
M  V30 996 H 103.001 -1.25669 3.84694 0
M  V30 997 H 101.571 -1.40105 2.79445 0
M  V30 998 H 100.791 0.849706 3.84933 0
M  V30 999 H 102.079 0.635643 5.04814 0
M  V30 1000 H 101.477 -2.54554 5.05192 0
M  V30 1001 H 100.034 -2.58464 5.98364 0
M  V30 1002 N 103.467 -1.45747 0.599634 0
M  V30 1003 C 104.715 -2.01893 0.0915472 0
M  V30 1004 C 105.036 -1.47155 -1.27946 0
M  V30 1005 O 104.306 -0.66273 -1.84349 0
M  V30 1006 H 102.886 -0.746363 0.0308524 0
M  V30 1007 H 105.548 -1.78645 0.779237 0
M  V30 1008 H 104.644 -3.1208 0.0353086 0
M  V30 1009 N 104.945 -0.338344 -1.53925 0
M  V30 1010 C 106.356 0.146651 -1.86123 0
M  V30 1011 C 106.707 1.5042 -1.2597 0
M  V30 1012 O 105.832 2.08723 -0.571294 0
M  V30 1013 C 106.427 0.272879 -3.37699 0
M  V30 1014 C 104.986 0.702103 -3.69794 0
M  V30 1015 C 104.133 -0.167304 -2.76795 0
M  V30 1016 H 107.084 -0.558123 -1.48562 0
M  V30 1017 H 107.105 1.10128 -3.64214 0
M  V30 1018 H 106.617 -0.715307 -3.81451 0
M  V30 1019 H 104.718 1.6995 -3.31584 0
M  V30 1020 H 104.831 0.495604 -4.7653 0
M  V30 1021 H 103.195 0.359527 -2.5215 0
M  V30 1022 H 103.978 -1.15253 -3.23375 0
M  V30 1023 N 106.423 1.57458 -0.0668435 0
M  V30 1024 C 107.834 1.80776 0.466558 0
M  V30 1025 C 108.185 0.980361 1.69951 0
M  V30 1026 O 107.31 0.201441 2.1546 0
M  V30 1027 C 107.905 3.27881 0.85321 0
M  V30 1028 C 106.464 3.52062 1.3315 0
M  V30 1029 C 105.611 2.75513 0.314264 0
M  V30 1030 H 108.562 1.5598 -0.292588 0
M  V30 1031 H 108.583 3.39659 1.715 0
M  V30 1032 H 108.095 3.88075 -0.0443439 0
M  V30 1033 H 106.196 2.97167 2.24772 0
M  V30 1034 H 106.309 4.60762 1.31285 0
M  V30 1035 H 104.673 2.42123 0.790492 0
M  V30 1036 H 105.456 3.38442 -0.575477 0
M  V30 1037 N 107.901 -0.206675 1.56239 0
M  V30 1038 C 109.149 -0.927007 1.79586 0
M  V30 1039 C 109.47 -1.8427 0.637929 0
M  V30 1040 O 108.74 -1.92849 -0.344398 0
M  V30 1041 H 107.32 -0.345292 0.662407 0
M  V30 1042 H 109.982 -0.21496 1.93711 0
M  V30 1043 H 109.078 -1.52501 2.72305 0
M  V30 1044 N 109.379 -1.50304 -0.473955 0
M  V30 1045 C 110.326 -1.68959 -1.57231 0
M  V30 1046 C 111.296 -0.530899 -1.57387 0
M  V30 1047 O 112.481 -0.761133 -1.74961 0
M  V30 1048 C 109.621 -1.7871 -2.95223 0
M  V30 1049 C 108.734 -3.06061 -3.04878 0
M  V30 1050 C 107.869 -3.06626 -4.33767 0
M  V30 1051 C 106.908 -4.28443 -4.37154 0
M  V30 1052 N 106.045 -4.26763 -5.5751 0
M  V30 1053 H 110.885 -2.6273 -1.40631 0
M  V30 1054 H 108.422 -1.30241 -0.683789 0
M  V30 1055 H 110.38 -1.82344 -3.75242 0
M  V30 1056 H 109.01 -0.883806 -3.10465 0
M  V30 1057 H 108.062 -3.11911 -2.17751 0
M  V30 1058 H 109.374 -3.96039 -3.0324 0
M  V30 1059 H 108.528 -3.08973 -5.22131 0
M  V30 1060 H 107.267 -2.14473 -4.3801 0
M  V30 1061 H 106.272 -4.2631 -3.47188 0
M  V30 1062 H 107.497 -5.2182 -4.34605 0
M  V30 1063 H 105.443 -3.37462 -5.62544 0
M  V30 1064 H 105.36 -5.10507 -5.57601 0
M  V30 1065 H 106.628 -4.33253 -6.48006 0
M  V30 1066 N 110.857 0.726932 -1.39834 0
M  V30 1067 C 111.787 1.85405 -1.41941 0
M  V30 1068 C 112.768 1.67751 -0.281728 0
M  V30 1069 O 113.953 1.8795 -0.488717 0
M  V30 1070 C 111.083 3.23243 -1.2701 0
M  V30 1071 C 110.037 3.55549 -2.38262 0
M  V30 1072 C 109.363 4.9241 -2.08415 0
M  V30 1073 C 110.663 3.577 -3.80589 0
M  V30 1074 H 112.357 1.83899 -2.36266 0
M  V30 1075 H 109.903 0.883349 -1.13723 0
M  V30 1076 H 111.856 4.01775 -1.27103 0
M  V30 1077 H 110.58 3.25296 -0.291564 0
M  V30 1078 H 109.239 2.79351 -2.37399 0
M  V30 1079 H 108.887 4.91052 -1.0898 0
M  V30 1080 H 108.587 5.14992 -2.82943 0
M  V30 1081 H 110.111 5.73289 -2.10171 0
M  V30 1082 H 111.525 4.26293 -3.83337 0
M  V30 1083 H 109.922 3.91804 -4.54543 0
M  V30 1084 H 110.992 2.57328 -4.10987 0
M  V30 1085 N 112.336 1.25143 0.95797 0
M  V30 1086 C 113.584 1.09476 1.69881 0
M  V30 1087 C 113.905 -0.365502 1.91544 0
M  V30 1088 O 113.175 -1.25985 1.50015 0
M  V30 1089 H 111.755 0.402128 0.629525 0
M  V30 1090 H 114.417 1.57214 1.15194 0
M  V30 1091 H 113.513 1.60046 2.6794 0
M  V30 1092 N 113.814 -1.1601 1.06675 0
M  V30 1093 C 115.225 -1.68235 0.809565 0
M  V30 1094 C 115.576 -1.8454 -0.666303 0
M  V30 1095 O 114.701 -1.54374 -1.5165 0
M  V30 1096 C 115.296 -3.05585 1.46299 0
M  V30 1097 C 113.855 -3.54915 1.25349 0
M  V30 1098 C 113.002 -2.30804 1.53703 0
M  V30 1099 H 115.953 -1.00318 1.22971 0
M  V30 1100 H 115.974 -3.70174 0.880431 0
M  V30 1101 H 115.486 -2.93686 2.53713 0
M  V30 1102 H 113.587 -3.72067 0.199261 0
M  V30 1103 H 113.7 -4.36774 1.9689 0
M  V30 1104 H 112.064 -2.36007 0.957739 0
M  V30 1105 H 112.847 -2.21499 2.62284 0
M  V30 1106 N 115.292 -0.849877 -1.32721 0
M  V30 1107 C 116.703 -0.506188 -1.79707 0
M  V30 1108 C 117.054 0.975627 -1.70223 0
M  V30 1109 O 116.179 1.76078 -1.25799 0
M  V30 1110 C 116.774 -0.912044 -3.26293 0
M  V30 1111 C 115.333 -0.620326 -3.71253 0
M  V30 1112 C 114.48 -1.11439 -2.53922 0
M  V30 1113 H 117.431 -1.03754 -1.20087 0
M  V30 1114 H 117.452 -0.226493 -3.79825 0
M  V30 1115 H 116.964 -1.99057 -3.33164 0
M  V30 1116 H 115.065 0.447674 -3.69901 0
M  V30 1117 H 115.178 -1.18327 -4.64258 0
M  V30 1118 H 113.542 -0.534834 -2.49021 0
M  V30 1119 H 114.325 -2.19992 -2.6355 0
M  V30 1120 N 116.77 1.45427 -0.607355 0
M  V30 1121 C 118.018 2.01841 -0.102253 0
M  V30 1122 C 118.339 1.47832 1.27164 0
M  V30 1123 O 117.609 0.672497 1.83995 0
M  V30 1124 H 116.189 0.746188 -0.0348101 0
M  V30 1125 H 118.851 1.78229 -0.7887 0
M  V30 1126 H 117.947 3.12057 -0.0518585 0
M  V30 1127 N 118.248 0.346503 1.53744 0
M  V30 1128 C 119.196 -0.52422 2.26616 0
M  V30 1129 C 120.19 -1.09948 1.28871 0
M  V30 1130 O 121.396 -1.04488 1.46568 0
M  V30 1131 H 117.771 -0.187743 0.728187 0
M  V30 1132 H 119.742 0.11239 2.98188 0
M  V30 1133 C 118.491 -1.66186 3.05414 0
M  V30 1134 H 117.814 -1.22848 3.80458 0
M  V30 1135 H 119.254 -2.24622 3.59612 0
M  V30 1136 C 117.713 -2.59302 2.1509 0
M  V30 1137 O 118.243 -3.61628 1.74895 0
M  V30 1138 N 116.449 -2.28055 1.8011 0
M  V30 1139 H 115.996 -1.44883 2.12994 0
M  V30 1140 H 115.954 -2.90615 1.19958 0
M  V30 1141 N 119.726 -1.57421 0.075193 0
M  V30 1142 C 121.137 -1.81021 -0.456964 0
M  V30 1143 C 121.488 -0.98936 -1.69429 0
M  V30 1144 O 120.613 -0.212865 -2.15351 0
M  V30 1145 C 121.208 -3.28329 -0.83581 0
M  V30 1146 C 119.767 -3.52764 -1.31281 0
M  V30 1147 C 118.914 -2.75676 -0.299648 0
M  V30 1148 H 121.865 -1.55822 0.300856 0
M  V30 1149 H 121.886 -3.40564 -1.69696 0
M  V30 1150 H 121.398 -3.88046 0.0649238 0
M  V30 1151 H 119.499 -2.98355 -2.23193 0
M  V30 1152 H 119.612 -4.61451 -1.28839 0
M  V30 1153 H 117.976 -2.42538 -0.777641 0
M  V30 1154 H 118.759 -3.38132 0.593417 0
M  V30 1155 N 121.204 0.198386 -1.56346 0
M  V30 1156 C 122.452 0.91747 -1.80075 0
M  V30 1157 C 122.773 1.83929 -0.647692 0
M  V30 1158 O 122.043 1.93029 0.334166 0
M  V30 1159 H 120.623 0.341774 -0.664228 0
M  V30 1160 H 123.285 0.204684 -1.93822 0
M  V30 1161 H 122.381 1.51055 -2.7311 0
M  V30 1162 N 122.682 1.50554 0.465978 0
M  V30 1163 C 124.093 1.54599 1.04671 0
M  V30 1164 C 124.444 0.352488 1.93008 0
M  V30 1165 O 123.569 -0.534044 2.09707 0
M  V30 1166 C 124.164 2.80166 1.90505 0
M  V30 1167 C 122.723 2.86876 2.43678 0
M  V30 1168 C 121.87 2.48947 1.22151 0
M  V30 1169 H 124.821 1.56744 0.248384 0
M  V30 1170 H 124.842 2.62311 2.75633 0
M  V30 1171 H 124.354 3.67013 1.26186 0
M  V30 1172 H 122.455 2.04393 3.11536 0
M  V30 1173 H 122.568 3.89885 2.78436 0
M  V30 1174 H 120.932 2.01498 1.5579 0
M  V30 1175 H 121.715 3.38107 0.594866 0
M  V30 1176 N 124.16 -0.719506 1.40217 0
M  V30 1177 C 125.385 -1.51371 1.4178 0
M  V30 1178 C 125.81 -1.88091 0.0182355 0
M  V30 1179 O 125.168 -1.52997 -0.972707 0
M  V30 1180 C 125.216 -2.768 2.31115 0
M  V30 1181 O 124.32 -3.73349 1.7517 0
M  V30 1182 H 123.661 -0.456529 0.482159 0
M  V30 1183 H 126.191 -0.88644 1.844 0
M  V30 1184 H 126.201 -3.25371 2.46167 0
M  V30 1185 H 124.876 -2.49407 3.3282 0
M  V30 1186 H 123.453 -3.32179 1.69444 0
M  V30 1187 N 125.638 -1.25649 -0.95132 0
M  V30 1188 C 126.886 -1.10375 -1.69298 0
M  V30 1189 C 127.207 0.355339 -1.91735 0
M  V30 1190 O 126.477 1.25188 -1.50681 0
M  V30 1191 H 125.057 -0.405461 -0.627384 0
M  V30 1192 H 127.719 -1.57823 -1.14358 0
M  V30 1193 H 126.815 -1.61465 -2.67087 0
M  V30 1194 N 127.117 1.15442 -1.07289 0
M  V30 1195 C 128.342 1.90638 -0.816828 0
M  V30 1196 C 128.767 1.77445 0.624083 0
M  V30 1197 O 128.125 1.10671 1.43602 0
M  V30 1198 C 128.173 3.39008 -1.22906 0
M  V30 1199 O 127.277 4.10701 -0.373975 0
M  V30 1200 H 126.618 0.593555 -0.297638 0
M  V30 1201 H 129.148 1.46198 -1.43134 0
M  V30 1202 H 129.158 3.89801 -1.20497 0
M  V30 1203 H 127.833 3.47929 -2.27856 0
M  V30 1204 H 126.41 3.70046 -0.460499 0
M  V30 1205 N 128.595 0.856903 1.32268 0
M  V30 1206 C 130.006 0.515711 1.79436 0
M  V30 1207 C 130.357 -0.966586 1.70738 0
M  V30 1208 O 129.482 -1.75409 1.26731 0
M  V30 1209 C 130.077 0.929335 3.25805 0
M  V30 1210 C 128.636 0.640006 3.70919 0
M  V30 1211 C 127.783 1.12784 2.53328 0
M  V30 1212 H 130.734 1.04389 1.19535 0
M  V30 1213 H 130.755 0.246633 3.797 0
M  V30 1214 H 130.267 2.00821 3.32103 0
M  V30 1215 H 128.368 -0.428051 3.70133 0
M  V30 1216 H 128.481 1.20788 4.63624 0
M  V30 1217 H 126.845 0.548033 2.48734 0
M  V30 1218 H 127.628 2.21387 2.62379 0
M  V30 1219 N 130.073 -1.45103 0.615059 0
M  V30 1220 C 131.321 -2.01784 0.112955 0
M  V30 1221 C 131.642 -1.48504 -1.26378 0
M  V30 1222 O 130.912 -0.682245 -1.83636 0
M  V30 1223 H 129.492 -0.745993 0.0387668 0
M  V30 1224 H 132.154 -1.77808 0.798141 0
M  V30 1225 H 131.25 -3.12025 0.0684069 0
M  V30 1226 N 131.551 -0.354651 -1.53558 0
M  V30 1227 C 132.962 0.126902 -1.86268 0
M  V30 1228 C 133.313 1.49075 -1.27558 0
M  V30 1229 O 132.438 2.08105 -0.5934 0
M  V30 1230 C 133.033 0.237046 -3.3797 0
M  V30 1231 C 131.592 0.662842 -3.70518 0
M  V30 1232 C 130.739 -0.196652 -2.76602 0
M  V30 1233 H 133.69 -0.573849 -1.47962 0
M  V30 1234 H 133.711 1.06259 -3.65362 0
M  V30 1235 H 133.223 -0.755725 -3.80671 0
M  V30 1236 H 131.324 1.66424 -3.33367 0
M  V30 1237 H 131.437 0.445034 -4.77029 0
M  V30 1238 H 129.801 0.332763 -2.52517 0
M  V30 1239 H 130.584 -1.18676 -3.22135 0
M  V30 1240 N 133.029 1.57378 -0.0835403 0
M  V30 1241 C 133.976 2.13384 0.879539 0
M  V30 1242 C 134.946 1.04936 1.28754 0
M  V30 1243 O 136.131 1.32662 1.37133 0
M  V30 1244 C 133.271 2.70932 2.13752 0
M  V30 1245 C 132.384 3.93575 1.7811 0
M  V30 1246 C 131.519 4.39326 2.98607 0
M  V30 1247 C 130.558 5.54587 2.59037 0
M  V30 1248 N 129.695 5.95243 3.72331 0
M  V30 1249 H 134.535 2.9537 0.395076 0
M  V30 1250 H 132.072 1.45953 0.183349 0
M  V30 1251 H 134.03 3.02411 2.87408 0
M  V30 1252 H 132.66 1.91693 2.59718 0
M  V30 1253 H 131.712 3.68483 0.94469 0
M  V30 1254 H 133.024 4.77258 1.45005 0
M  V30 1255 H 132.178 4.72528 3.80529 0
M  V30 1256 H 130.917 3.5452 3.34913 0
M  V30 1257 H 129.922 5.21024 1.75539 0
M  V30 1258 H 131.147 6.41133 2.23887 0
M  V30 1259 H 129.093 5.13385 4.08378 0
M  V30 1260 H 129.01 6.73694 3.43034 0
M  V30 1261 H 130.278 6.33072 4.54797 0
M  V30 1262 N 134.507 -0.190092 1.56449 0
M  V30 1263 C 135.755 -0.907908 1.80559 0
M  V30 1264 C 136.076 -1.83583 0.657438 0
M  V30 1265 O 135.346 -1.93203 -0.323924 0
M  V30 1266 H 133.926 -0.338247 0.666032 0
M  V30 1267 H 136.588 -0.194403 1.93928 0
M  V30 1268 H 135.684 -1.49604 2.73907 0
M  V30 1269 N 135.985 -1.50799 -0.457987 0
M  V30 1270 C 136.917 -1.66786 -1.57211 0
M  V30 1271 C 137.93 -0.548962 -1.53265 0
M  V30 1272 O 139.119 -0.8226 -1.58416 0
M  V30 1273 C 136.219 -1.64834 -2.96113 0
M  V30 1274 C 135.392 -2.92971 -3.24787 0
M  V30 1275 C 134.451 -2.83485 -4.43309 0
M  V30 1276 O 133.477 -3.5744 -4.42973 0
M  V30 1277 N 134.679 -1.97929 -5.45714 0
M  V30 1278 H 137.444 -2.62889 -1.43909 0
M  V30 1279 H 135.005 -1.48427 -0.646617 0
M  V30 1280 H 136.997 -1.56084 -3.7339 0
M  V30 1281 H 135.567 -0.764118 -3.03117 0
M  V30 1282 H 134.787 -3.15749 -2.36 0
M  V30 1283 H 136.075 -3.77834 -3.40762 0
M  V30 1284 H 135.473 -1.37182 -5.48815 0
M  V30 1285 H 134.03 -1.95073 -6.21924 0
M  V30 1286 N 137.463 0.71206 -1.40597 0
M  V30 1287 C 138.41 1.82613 -1.41142 0
M  V30 1288 C 139.38 1.63925 -0.267903 0
M  V30 1289 O 140.565 1.85009 -0.466495 0
M  V30 1290 C 137.705 3.20354 -1.28324 0
M  V30 1291 C 136.818 3.50589 -2.52411 0
M  V30 1292 C 135.953 4.77855 -2.32009 0
M  V30 1293 C 134.992 5.01005 -3.51654 0
M  V30 1294 N 134.129 6.19487 -3.30425 0
M  V30 1295 H 138.969 1.81482 -2.36365 0
M  V30 1296 H 136.506 0.886475 -1.17388 0
M  V30 1297 H 138.464 3.99899 -1.18899 0
M  V30 1298 H 137.094 3.20705 -0.367189 0
M  V30 1299 H 136.146 2.65573 -2.72351 0
M  V30 1300 H 137.458 3.63604 -3.41458 0
M  V30 1301 H 136.612 5.65424 -2.19956 0
M  V30 1302 H 135.351 4.67056 -1.40392 0
M  V30 1303 H 134.356 4.1189 -3.64179 0
M  V30 1304 H 135.581 5.13674 -4.44202 0
M  V30 1305 H 133.527 6.09932 -2.41494 0
M  V30 1306 H 133.444 6.33194 -4.13039 0
M  V30 1307 H 134.712 7.09834 -3.22113 0
M  V30 1308 N 138.941 1.26152 0.944643 0
M  V30 1309 C 140.189 1.11271 1.6871 0
M  V30 1310 C 140.51 -0.345166 1.91921 0
M  V30 1311 O 139.78 -1.24387 1.51343 0
M  V30 1312 H 138.36 0.408783 0.625224 0
M  V30 1313 H 141.022 1.58427 1.1352 0
M  V30 1314 H 140.118 1.62879 2.66227 0
M  V30 1315 N 140.419 -1.14872 1.07899 0
M  V30 1316 C 141.696 -1.81928 0.71845 0
M  V30 1317 C 142.076 -1.95417 -0.798455 0
M  V30 1318 O 141.424 -1.50997 -1.715 0
M  V30 1319 C 141.634 -3.17937 1.43935 0
M  V30 1320 C 142.982 -3.93501 1.59506 0
M  V30 1321 O 144.006 -3.27509 1.40058 0
M  V30 1322 O 142.865 -5.1183 1.91551 0
M  V30 1323 H 139.959 -0.78628 0.256305 0
M  V30 1324 H 142.505 -1.21934 1.18026 0
M  V30 1325 H 141.277 -3.0325 2.47295 0
M  V30 1326 H 140.9 -3.85619 0.968687 0
M  V30 1327 N 141.898 -0.863906 -1.31812 0
M  V30 1328 C 143.309 -0.52522 -1.7916 0
M  V30 1329 C 143.66 0.957518 -1.71248 0
M  V30 1330 O 142.785 1.74734 -1.27659 0
M  V30 1331 C 143.38 -0.9466 -3.25307 0
M  V30 1332 C 141.939 -0.659668 -3.70574 0
M  V30 1333 C 141.086 -1.14126 -2.52726 0
M  V30 1334 H 144.037 -1.05022 -1.1898 0
M  V30 1335 H 144.058 -0.266766 -3.79564 0
M  V30 1336 H 143.57 -2.02579 -3.31034 0
M  V30 1337 H 141.671 0.408416 -3.70355 0
M  V30 1338 H 141.784 -1.23245 -4.62977 0
M  V30 1339 H 140.148 -0.561216 -2.4844 0
M  V30 1340 H 140.931 -2.22775 -2.61201 0
M  V30 1341 N 143.376 1.44774 -0.622745 0
M  V30 1342 C 144.624 2.01721 -0.123655 0
M  V30 1343 C 144.945 1.49172 1.25589 0
M  V30 1344 O 144.215 0.691974 1.83272 0
M  V30 1345 H 142.795 0.745777 -0.0427225 0
M  V30 1346 H 145.457 1.77382 -0.807559 0
M  V30 1347 H 144.553 3.11984 -0.0849534 0
M  V30 1348 N 144.854 0.36279 1.53368 0
M  V30 1349 C 145.801 -0.485008 2.25646 0
M  V30 1350 C 146.771 -1.07982 1.2621 0
M  V30 1351 O 147.956 -1.11284 1.54986 0
M  V30 1352 C 145.096 -1.62023 3.04701 0
M  V30 1353 C 144.209 -1.05086 4.19024 0
M  V30 1354 C 143.344 -2.15496 4.85525 0
M  V30 1355 C 142.383 -1.5601 5.91884 0
M  V30 1356 N 141.52 -2.60241 6.52088 0
M  V30 1357 H 146.36 0.137864 2.97681 0
M  V30 1358 H 143.897 0.0798061 1.46883 0
M  V30 1359 H 145.855 -2.28887 3.48807 0
M  V30 1360 H 144.485 -2.2138 2.34927 0
M  V30 1361 H 143.537 -0.27259 3.79422 0
M  V30 1362 H 144.849 -0.575926 4.95464 0
M  V30 1363 H 144.003 -2.90186 5.32801 0
M  V30 1364 H 142.742 -2.66341 4.08551 0
M  V30 1365 H 141.747 -0.798338 5.43973 0
M  V30 1366 H 142.972 -1.05994 6.70777 0
M  V30 1367 H 140.918 -3.10304 5.77968 0
M  V30 1368 H 140.835 -2.17426 7.24059 0
M  V30 1369 H 142.103 -3.34641 7.04014 0
M  V30 1370 N 146.332 -1.57332 0.0918853 0
M  V30 1371 C 147.557 -1.98995 -0.584442 0
M  V30 1372 C 147.982 -0.970528 -1.61128 0
M  V30 1373 O 147.34 0.0613904 -1.81196 0
M  V30 1374 C 147.388 -3.39636 -1.21161 0
M  V30 1375 O 146.492 -3.40447 -2.32744 0
M  V30 1376 H 145.833 -0.647165 -0.148572 0
M  V30 1377 H 148.363 -2.03873 0.172347 0
M  V30 1378 H 148.373 -3.7726 -1.55367 0
M  V30 1379 H 147.048 -4.13356 -0.459313 0
M  V30 1380 H 145.625 -3.14614 -2.0018 0
M  V30 1381 N 147.81 0.181792 -1.56548 0
M  V30 1382 C 149.221 0.745244 -1.71181 0
M  V30 1383 C 149.572 1.83262 -0.70068 0
M  V30 1384 O 148.697 2.15946 0.140154 0
M  V30 1385 C 149.292 1.35859 -3.10367 0
M  V30 1386 C 147.851 1.86898 -3.2672 0
M  V30 1387 C 146.998 0.743942 -2.67134 0
M  V30 1388 H 149.949 -0.0434661 -1.5864 0
M  V30 1389 H 149.97 2.22817 -3.08436 0
M  V30 1390 H 149.482 0.566948 -3.83937 0
M  V30 1391 H 147.583 2.68738 -2.5809 0
M  V30 1392 H 147.696 2.02162 -4.34359 0
M  V30 1393 H 146.06 1.16169 -2.26665 0
M  V30 1394 H 146.843 -0.035676 -3.43281 0
M  V30 1395 N 149.288 1.51039 0.449983 0
M  V30 1396 C 150.565 1.53612 1.21089 0
M  V30 1397 C 150.945 0.292997 2.09057 0
M  V30 1398 O 150.293 -0.72259 2.16774 0
M  V30 1399 C 150.503 2.84337 2.0237 0
M  V30 1400 C 151.851 3.35807 2.59843 0
M  V30 1401 O 152.875 2.85802 2.12593 0
M  V30 1402 O 151.734 4.23029 3.45989 0
M  V30 1403 H 148.828 0.617057 0.550608 0
M  V30 1404 H 151.374 1.63344 0.460082 0
M  V30 1405 H 150.146 3.66278 1.37681 0
M  V30 1406 H 149.769 2.77708 2.84542 0
M  V30 1407 N 150.766 -0.704594 1.40972 0
M  V30 1408 C 152.014 -1.46169 1.39568 0
M  V30 1409 C 152.335 -1.95 0.00253745 0
M  V30 1410 O 151.605 -1.71095 -0.954114 0
M  V30 1411 H 150.185 -0.542326 0.513704 0
M  V30 1412 H 152.847 -0.834553 1.76128 0
M  V30 1413 H 151.943 -2.32922 2.07735 0
M  V30 1414 N 152.244 -1.26651 -0.937939 0
M  V30 1415 C 153.521 -1.0313 -1.66204 0
M  V30 1416 C 153.901 0.437256 -2.06522 0
M  V30 1417 O 153.249 1.41831 -1.79154 0
M  V30 1418 C 153.459 -1.98314 -2.87181 0
M  V30 1419 C 154.807 -2.27107 -3.58758 0
M  V30 1420 O 155.831 -1.96205 -2.97291 0
M  V30 1421 O 154.69 -2.79736 -4.69479 0
M  V30 1422 H 151.784 -0.392384 -0.727986 0
M  V30 1423 H 154.33 -1.37874 -0.989382 0
M  V30 1424 H 153.102 -2.97399 -2.54302 0
M  V30 1425 H 152.725 -1.64068 -3.6217 0
M  V30 1426 N 153.722 1.14298 -1.08507 0
M  V30 1427 C 154.947 1.8976 -0.837001 0
M  V30 1428 C 155.372 1.78097 0.605228 0
M  V30 1429 O 154.73 1.12188 1.4242 0
M  V30 1430 C 154.778 3.37685 -1.26495 0
M  V30 1431 O 153.882 4.10281 -0.417514 0
M  V30 1432 H 153.223 0.590365 -0.303917 0
M  V30 1433 H 155.753 1.44672 -1.44676 0
M  V30 1434 H 155.763 3.88501 -1.24625 0
M  V30 1435 H 154.438 3.45492 -2.31534 0
M  V30 1436 H 153.015 3.69536 -0.499722 0
M  V30 1437 N 155.201 0.870884 1.31352 0
M  V30 1438 C 156.426 0.495957 2.01383 0
M  V30 1439 C 156.851 -0.904324 1.64935 0
M  V30 1440 O 156.209 -1.59687 0.858466 0
M  V30 1441 C 156.257 0.661433 3.54482 0
M  V30 1442 O 155.361 -0.298851 4.11316 0
M  V30 1443 H 154.702 0.197158 0.634054 0
M  V30 1444 H 157.232 1.17455 1.67527 0
M  V30 1445 H 157.242 0.555072 4.04207 0
M  V30 1446 H 155.917 1.68246 3.8035 0
M  V30 1447 H 154.494 -0.147368 3.72609 0
M  V30 1448 N 156.679 -1.44442 0.630414 0
M  V30 1449 C 157.609 -2.33418 -0.0618083 0
M  V30 1450 C 158.59 -1.48165 -0.835541 0
M  V30 1451 O 159.775 -1.76886 -0.801564 0
M  V30 1452 C 156.905 -3.31222 -1.04449 0
M  V30 1453 C 155.859 -4.26288 -0.382436 0
M  V30 1454 C 155.185 -5.13954 -1.47497 0
M  V30 1455 C 156.485 -5.1744 0.710865 0
M  V30 1456 H 158.179 -2.91548 0.681184 0
M  V30 1457 H 155.725 -1.40191 0.329026 0
M  V30 1458 H 157.678 -3.92351 -1.53748 0
M  V30 1459 H 156.402 -2.71299 -1.81836 0
M  V30 1460 H 155.061 -3.6649 0.0899054 0
M  V30 1461 H 154.709 -4.50385 -2.2397 0
M  V30 1462 H 154.409 -5.7837 -1.03737 0
M  V30 1463 H 155.933 -5.77955 -1.96979 0
M  V30 1464 H 157.347 -5.72509 0.300996 0
M  V30 1465 H 155.744 -5.90455 1.07156 0
M  V30 1466 H 156.814 -4.58496 1.57829 0
M  V30 1467 N 158.157 -0.370918 -1.53173 0
M  V30 1468 C 159.12 0.460778 -2.24521 0
M  V30 1469 C 160.12 1.00536 -1.25496 0
M  V30 1470 O 161.31 0.890266 -1.49733 0
M  V30 1471 C 158.442 1.64457 -2.98608 0
M  V30 1472 H 159.635 -0.163613 -2.99453 0
M  V30 1473 H 157.188 -0.122699 -1.55818 0
M  V30 1474 H 157.923 2.30691 -2.2793 0
M  V30 1475 H 157.708 1.26099 -3.7127 0
M  V30 1476 H 159.198 2.23384 -3.5283 0
M  V30 1477 N 159.635 1.57281 -0.100228 0
M  V30 1478 C 160.598 2.13158 0.842398 0
M  V30 1479 C 161.598 1.06202 1.20738 0
M  V30 1480 O 162.788 1.32066 1.13597 0
M  V30 1481 C 159.92 2.65639 2.13655 0
M  V30 1482 H 161.113 2.97766 0.357114 0
M  V30 1483 H 158.666 1.5559 0.148823 0
M  V30 1484 H 159.401 1.84566 2.66657 0
M  V30 1485 H 159.186 3.43844 1.88451 0
M  V30 1486 H 160.676 3.08846 2.81077 0
M  V30 1487 N 161.113 -0.173488 1.56642 0
M  V30 1488 C 162.338 -0.910149 1.86363 0
M  V30 1489 C 162.763 -1.75132 0.686318 0
M  V30 1490 O 162.121 -1.77595 -0.364643 0
M  V30 1491 C 162.169 -1.76447 3.14482 0
M  V30 1492 O 161.273 -2.86584 2.96553 0
M  V30 1493 H 160.614 -0.255086 0.613047 0
M  V30 1494 H 163.144 -0.172283 2.03873 0
M  V30 1495 H 163.154 -2.16483 3.45831 0
M  V30 1496 H 161.829 -1.14658 3.99783 0
M  V30 1497 H 160.406 -2.50146 2.76553 0
M  V30 1498 N 162.591 -1.51276 -0.441967 0
M  V30 1499 C 163.501 -1.75092 -1.56141 0
M  V30 1500 C 164.517 -0.634963 -1.62001 0
M  V30 1501 O 165.693 -0.916686 -1.79329 0
M  V30 1502 C 162.758 -1.86666 -2.92158 0
M  V30 1503 C 161.819 -3.10506 -2.96453 0
M  V30 1504 C 161.052 -3.21519 -4.25982 0
M  V30 1505 O 161.275 -2.38586 -5.18105 0
M  V30 1506 O 160.209 -4.14465 -4.36466 0
M  V30 1507 H 164.035 -2.70044 -1.38961 0
M  V30 1508 H 161.62 -1.35722 -0.624499 0
M  V30 1509 H 163.502 -1.96292 -3.72891 0
M  V30 1510 H 162.177 -0.949014 -3.09476 0
M  V30 1511 H 161.084 -3.06363 -2.14692 0
M  V30 1512 H 162.417 -4.01945 -2.84079 0
M  V30 1513 N 164.069 0.697108 -1.41344 0
M  V30 1514 C 165.485 1.00751 -1.2378 0
M  V30 1515 C 165.685 2.01105 -0.126066 0
M  V30 1516 O 164.741 2.47295 0.51004 0
M  V30 1517 C 166.054 1.53359 -2.58653 0
M  V30 1518 C 167.602 1.6525 -2.65822 0
M  V30 1519 C 168.077 2.2126 -4.01009 0
M  V30 1520 N 169.568 2.28622 -4.02847 0
M  V30 1521 C 170.303 2.72984 -5.04249 0
M  V30 1522 N 169.799 3.16962 -6.16041 0
M  V30 1523 N 171.592 2.72534 -4.91611 0
M  V30 1524 H 163.743 0.0322662 -2.12375 0
M  V30 1525 H 166.006 0.0768853 -0.944877 0
M  V30 1526 H 165.712 0.870773 -3.4075 0
M  V30 1527 H 165.586 2.51597 -2.81032 0
M  V30 1528 H 167.973 2.30644 -1.84086 0
M  V30 1529 H 168.054 0.655614 -2.47256 0
M  V30 1530 H 167.698 1.56482 -4.83193 0
M  V30 1531 H 167.628 3.21698 -4.16915 0
M  V30 1532 H 170.119 1.97585 -3.22131 0
M  V30 1533 H 170.432 3.49434 -6.89287 0
M  V30 1534 H 168.777 3.14875 -6.1958 0
M  V30 1535 H 171.968 2.37525 -4.0336 0
M  V30 1536 H 172.141 3.06789 -5.70775 0
M  V30 1537 N 165.547 1.27147 0.931209 0
M  V30 1538 C 166.494 1.09568 2.03134 0
M  V30 1539 C 167.464 -0.00222433 1.661 0
M  V30 1540 O 168.649 0.159439 1.90133 0
M  V30 1541 C 165.789 0.745231 3.36957 0
M  V30 1542 C 164.902 1.92041 3.86968 0
M  V30 1543 C 164.037 1.51216 5.09222 0
M  V30 1544 C 163.076 2.65504 5.5152 0
M  V30 1545 N 162.213 2.25291 6.64972 0
M  V30 1546 H 167.053 2.03708 2.17502 0
M  V30 1547 H 164.59 1.01411 1.06556 0
M  V30 1548 H 166.548 0.522878 4.1391 0
M  V30 1549 H 165.178 -0.159202 3.22407 0
M  V30 1550 H 164.23 2.25541 3.06326 0
M  V30 1551 H 165.542 2.77787 4.1429 0
M  V30 1552 H 164.696 1.25084 5.93666 0
M  V30 1553 H 163.435 0.625749 4.83669 0
M  V30 1554 H 162.44 2.92354 4.65628 0
M  V30 1555 H 163.665 3.54761 5.7907 0
M  V30 1556 H 161.611 1.39098 6.41083 0
M  V30 1557 H 161.528 3.04577 6.91931 0
M  V30 1558 H 162.796 2.02398 7.52765 0
M  V30 1559 N 167.025 -1.13721 1.09112 0
M  V30 1560 C 167.988 -2.17222 0.731241 0
M  V30 1561 C 168.988 -1.59035 -0.237566 0
M  V30 1562 O 170.178 -1.74192 -0.0161704 0
M  V30 1563 C 167.31 -3.40804 0.0808443 0
M  V30 1564 H 168.503 -2.50573 1.64783 0
M  V30 1565 H 166.056 -1.28493 0.889897 0
M  V30 1566 H 166.791 -3.1304 -0.847127 0
M  V30 1567 H 166.576 -3.84306 0.777896 0
M  V30 1568 H 168.066 -4.1731 -0.155657 0
M  V30 1569 N 168.503 -0.877838 -1.30888 0
M  V30 1570 C 169.433 -0.35534 -2.3078 0
M  V30 1571 C 170.414 0.557994 -1.60687 0
M  V30 1572 O 171.599 0.473355 -1.88343 0
M  V30 1573 C 168.729 0.437221 -3.44537 0
M  V30 1574 C 167.683 -0.383715 -4.26276 0
M  V30 1575 C 167.009 0.535014 -5.32017 0
M  V30 1576 C 168.309 -1.62201 -4.96476 0
M  V30 1577 H 170.003 -1.19007 -2.74732 0
M  V30 1578 H 167.549 -0.573698 -1.32078 0
M  V30 1579 H 169.502 0.813334 -4.13477 0
M  V30 1580 H 168.226 1.30553 -2.99372 0
M  V30 1581 H 166.885 -0.741874 -3.59015 0
M  V30 1582 H 166.533 1.40083 -4.831 0
M  V30 1583 H 166.233 -0.0104211 -5.87599 0
M  V30 1584 H 167.757 0.907799 -6.03814 0
M  V30 1585 H 169.171 -1.31689 -5.5797 0
M  V30 1586 H 167.568 -2.10711 -5.61891 0
M  V30 1587 H 168.638 -2.37044 -4.23011 0
M  V30 1588 N 169.982 1.44106 -0.638065 0
M  V30 1589 C 170.914 2.28976 0.101205 0
M  V30 1590 C 171.927 1.4167 0.802088 0
M  V30 1591 O 173.116 1.65755 0.662375 0
M  V30 1592 C 170.216 3.18217 1.16581 0
M  V30 1593 C 169.389 4.33978 0.546066 0
M  V30 1594 C 168.448 5.04202 1.50554 0
M  V30 1595 O 167.474 5.59986 1.01999 0
M  V30 1596 N 168.676 5.06296 2.8398 0
M  V30 1597 H 171.441 2.93064 -0.627186 0
M  V30 1598 H 169.002 1.54629 -0.479731 0
M  V30 1599 H 170.994 3.62061 1.80815 0
M  V30 1600 H 169.564 2.55833 1.79634 0
M  V30 1601 H 168.784 3.93239 -0.275046 0
M  V30 1602 H 170.072 5.08675 0.112793 0
M  V30 1603 H 169.47 4.62319 3.26002 0
M  V30 1604 H 168.027 5.53907 3.43556 0
M  V30 1605 N 171.46 0.379036 1.52974 0
M  V30 1606 C 172.688 -0.20679 2.05864 0
M  V30 1607 C 173.103 -1.41356 1.25155 0
M  V30 1608 O 172.46 -1.8009 0.295588 0
M  V30 1609 C 172.511 -0.587045 3.56702 0
M  V30 1610 O 172.232 0.571776 4.34353 0
M  V30 1611 C 173.733 -1.22983 4.25899 0
M  V30 1612 H 170.953 -0.0336123 0.670158 0
M  V30 1613 H 173.497 0.541298 1.97206 0
M  V30 1614 H 171.652 -1.28504 3.65466 0
M  V30 1615 H 172.066 0.261544 5.23847 0
M  V30 1616 H 173.54 -1.44635 5.32715 0
M  V30 1617 H 174.017 -2.19416 3.80465 0
M  V30 1618 H 174.623 -0.572892 4.21424 0
M  V30 1619 N 172.938 -1.57226 0.108567 0
M  V30 1620 C 173.848 -2.18292 -0.859401 0
M  V30 1621 C 174.864 -1.15612 -1.30038 0
M  V30 1622 O 176.04 -1.48039 -1.36552 0
M  V30 1623 C 173.105 -2.762 -2.09558 0
M  V30 1624 C 172.166 -3.93881 -1.70752 0
M  V30 1625 C 171.399 -4.49018 -2.88477 0
M  V30 1626 O 171.622 -4.03068 -4.036 0
M  V30 1627 O 170.556 -5.39852 -2.66164 0
M  V30 1628 H 174.382 -3.01441 -0.369769 0
M  V30 1629 H 171.967 -1.48945 -0.1165 0
M  V30 1630 H 173.849 -3.13156 -2.81978 0
M  V30 1631 H 172.524 -1.96089 -2.57548 0
M  V30 1632 H 171.431 -3.61713 -0.954714 0
M  V30 1633 H 172.764 -4.75396 -1.27513 0
M  V30 1634 N 174.416 0.165178 -1.56732 0
M  V30 1635 C 175.349 1.23336 -1.91998 0
M  V30 1636 C 176.327 1.42476 -0.783531 0
M  V30 1637 O 177.511 1.57384 -1.03743 0
M  V30 1638 C 174.638 2.59533 -2.17625 0
M  V30 1639 C 173.684 2.57093 -3.40302 0
M  V30 1640 S 174.517 2.05571 -4.9447 0
M  V30 1641 C 175.673 3.43532 -5.23198 0
M  V30 1642 H 175.906 0.932387 -2.82301 0
M  V30 1643 H 173.439 0.370013 -1.49901 0
M  V30 1644 H 175.397 3.37918 -2.3307 0
M  V30 1645 H 174.058 2.86827 -1.28019 0
M  V30 1646 H 173.251 3.57308 -3.55453 0
M  V30 1647 H 172.853 1.86806 -3.24005 0
M  V30 1648 H 175.145 4.39559 -5.15552 0
M  V30 1649 H 176.088 3.33251 -6.2478 0
M  V30 1650 H 176.496 3.39828 -4.50752 0
M  V30 1651 N 175.894 1.51508 0.433938 0
M  V30 1652 C 176.857 1.72473 1.50949 0
M  V30 1653 C 177.857 0.594725 1.49398 0
M  V30 1654 O 179.047 0.862315 1.5136 0
M  V30 1655 C 176.179 1.78431 2.90474 0
M  V30 1656 H 177.372 2.68467 1.33662 0
M  V30 1657 H 174.925 1.41549 0.662836 0
M  V30 1658 H 175.66 0.842645 3.13161 0
M  V30 1659 H 175.445 2.60558 2.93005 0
M  V30 1660 H 176.935 1.96479 3.68491 0
M  V30 1661 N 177.372 -0.689602 1.41712 0
M  V30 1662 C 178.788 -1.00093 1.24312 0
M  V30 1663 C 178.988 -2.01036 0.136729 0
M  V30 1664 O 178.044 -2.47562 -0.496918 0
M  V30 1665 C 179.357 -1.51985 2.59463 0
M  V30 1666 C 180.905 -1.63838 2.66695 0
M  V30 1667 C 181.38 -2.1913 4.02177 0
M  V30 1668 N 182.871 -2.26483 4.04054 0
M  V30 1669 C 183.606 -2.70306 5.0569 0
M  V30 1670 N 183.102 -3.13691 6.17713 0
M  V30 1671 N 184.895 -2.69923 4.9305 0
M  V30 1672 H 177.046 -0.0210029 2.1239 0
M  V30 1673 H 179.309 -0.0718733 0.945272 0
M  V30 1674 H 179.015 -0.85269 3.41207 0
M  V30 1675 H 178.889 -2.50103 2.82362 0
M  V30 1676 H 181.276 -2.29664 1.85306 0
M  V30 1677 H 181.357 -0.642492 2.476 0
M  V30 1678 H 181.001 -1.53918 4.84016 0
M  V30 1679 H 180.931 -3.19482 4.18615 0
M  V30 1680 H 183.422 -1.95874 3.23174 0
M  V30 1681 H 183.735 -3.45773 6.9113 0
M  V30 1682 H 182.08 -3.11585 6.21241 0
M  V30 1683 H 185.271 -2.35382 4.04614 0
M  V30 1684 H 185.444 -3.03758 5.72394 0
M  V30 1685 N 178.85 -1.27639 -0.924453 0
M  V30 1686 C 180.099 -1.13549 -1.66702 0
M  V30 1687 C 180.412 0.317487 -1.93006 0
M  V30 1688 O 181.618 0.579333 -2.65247 0
M  V30 1689 C 180.074 -1.98426 -3.00259 0
M  V30 1690 C 179.682 -3.484 -2.81641 0
M  V30 1691 C 181.426 -1.92993 -3.78092 0
M  V30 1692 C 179.333 -4.25464 -4.10773 0
M  V30 1693 H 178.263 -0.421351 -0.625283 0
M  V30 1694 H 180.914 -1.52085 -1.02676 0
M  V30 1695 H 179.296 -1.52736 -3.6536 0
M  V30 1696 H 180.47 -4.01973 -2.25287 0
M  V30 1697 H 178.785 -3.55245 -2.17232 0
M  V30 1698 H 181.382 -2.47844 -4.7379 0
M  V30 1699 H 181.725 -0.904281 -4.0636 0
M  V30 1700 H 182.258 -2.36595 -3.19793 0
M  V30 1701 H 178.997 -5.28566 -3.87683 0
M  V30 1702 H 178.517 -3.76667 -4.66779 0
M  V30 1703 H 180.196 -4.34812 -4.79111 0
M  V30 1704 N 180.328 1.1314 -1.09713 0
M  V30 1705 C 181.275 2.18642 -0.739196 0
M  V30 1706 C 182.245 1.63706 0.280978 0
M  V30 1707 O 183.43 1.90111 0.161946 0
M  V30 1708 C 180.57 3.44685 -0.169102 0
M  V30 1709 C 179.683 4.13711 -1.24367 0
M  V30 1710 C 178.818 5.27379 -0.636019 0
M  V30 1711 C 177.857 5.88259 -1.69169 0
M  V30 1712 N 176.994 6.93352 -1.10485 0
M  V30 1713 H 181.834 2.48607 -1.64312 0
M  V30 1714 H 179.371 1.22066 -0.820875 0
M  V30 1715 H 181.329 4.16815 0.179256 0
M  V30 1716 H 179.959 3.15161 0.698079 0
M  V30 1717 H 179.011 3.39835 -1.70927 0
M  V30 1718 H 180.323 4.55037 -2.04311 0
M  V30 1719 H 179.477 6.06238 -0.236677 0
M  V30 1720 H 178.216 4.8731 0.194928 0
M  V30 1721 H 177.221 5.08092 -2.10055 0
M  V30 1722 H 178.446 6.30399 -2.52536 0
M  V30 1723 H 176.392 6.55335 -0.295234 0
M  V30 1724 H 176.309 7.33236 -1.84121 0
M  V30 1725 H 177.577 7.76057 -0.73181 0
M  V30 1726 N 181.806 0.884767 1.30421 0
M  V30 1727 C 182.753 0.349642 2.28136 0
M  V30 1728 C 183.723 -0.560061 1.56373 0
M  V30 1729 O 184.908 -0.488524 1.8444 0
M  V30 1730 C 182.048 -0.42999 3.42411 0
M  V30 1731 C 181.161 0.508907 4.28992 0
M  V30 1732 C 180.296 -0.286301 5.30428 0
M  V30 1733 C 179.335 0.648079 6.08659 0
M  V30 1734 N 178.472 -0.111792 7.02011 0
M  V30 1735 H 183.312 1.18807 2.73293 0
M  V30 1736 H 180.849 0.597231 1.3443 0
M  V30 1737 H 182.807 -0.897923 4.07423 0
M  V30 1738 H 181.437 -1.23299 2.98324 0
M  V30 1739 H 180.489 1.09533 3.64289 0
M  V30 1740 H 181.801 1.22475 4.8353 0
M  V30 1741 H 180.955 -0.816098 6.01186 0
M  V30 1742 H 179.694 -1.03536 4.76583 0
M  V30 1743 H 178.699 1.18951 5.36778 0
M  V30 1744 H 179.924 1.39623 6.64592 0
M  V30 1745 H 177.87 -0.843395 6.50556 0
M  V30 1746 H 177.787 0.544429 7.54037 0
M  V30 1747 H 179.055 -0.622339 7.77012 0
M  V30 1748 N 183.284 -1.43765 0.645699 0
M  V30 1749 C 184.53 -2.02731 0.164844 0
M  V30 1750 C 184.885 -1.49983 -1.2051 0
M  V30 1751 O 184.178 -0.680208 -1.79119 0
M  V30 1752 C 184.372 -3.57238 0.107679 0
M  V30 1753 C 184.201 -4.24977 1.47054 0
M  V30 1754 C 182.971 -4.61356 2.06103 0
M  V30 1755 C 185.169 -4.54476 2.40741 0
M  V30 1756 N 183.151 -5.14132 3.35473 0
M  V30 1757 C 184.522 -5.08489 3.54737 0
M  V30 1758 C 186.577 -4.36438 2.39637 0
M  V30 1759 C 185.28 -5.46364 4.67845 0
M  V30 1760 C 187.306 -4.7537 3.5182 0
M  V30 1761 C 186.668 -5.2951 4.64541 0
M  V30 1762 H 182.767 -0.774976 0.104578 0
M  V30 1763 H 185.351 -1.75051 0.852367 0
M  V30 1764 H 183.522 -3.84498 -0.549165 0
M  V30 1765 H 185.254 -4.0288 -0.383351 0
M  V30 1766 H 182.009 -4.46151 1.58892 0
M  V30 1767 H 182.433 -5.4498 4.01654 0
M  V30 1768 H 187.075 -3.93861 1.53731 0
M  V30 1769 H 184.793 -5.87888 5.54448 0
M  V30 1770 H 188.379 -4.63115 3.52159 0
M  V30 1771 H 187.259 -5.59077 5.49911 0
M  V30 1772 N 184.763 -0.387143 -1.52771 0
M  V30 1773 C 185.693 0.440551 -2.29306 0
M  V30 1774 C 186.674 1.06535 -1.32606 0
M  V30 1775 O 187.859 1.07853 -1.61497 0
M  V30 1776 C 184.989 1.56919 -3.09829 0
M  V30 1777 C 183.943 1.07054 -4.14395 0
M  V30 1778 C 183.269 2.29109 -4.83129 0
M  V30 1779 C 184.569 0.140015 -5.22112 0
M  V30 1780 H 186.263 -0.198026 -2.98744 0
M  V30 1781 H 183.809 -0.09668 -1.43675 0
M  V30 1782 H 185.762 2.15503 -3.62128 0
M  V30 1783 H 184.486 2.23532 -2.3812 0
M  V30 1784 H 183.145 0.507247 -3.63074 0
M  V30 1785 H 182.793 2.94227 -4.0797 0
M  V30 1786 H 182.493 1.96406 -5.53804 0
M  V30 1787 H 184.017 2.88339 -5.38231 0
M  V30 1788 H 185.431 0.633978 -5.69784 0
M  V30 1789 H 183.828 -0.0971485 -6.00021 0
M  V30 1790 H 184.898 -0.811711 -4.78058 0
M  V30 1791 N 186.241 1.57166 -0.116904 0
M  V30 1792 C 187.469 1.99473 0.549383 0
M  V30 1793 C 187.884 0.996541 1.60357 0
M  V30 1794 O 187.241 -0.0108731 1.82497 0
M  V30 1795 C 187.292 3.41788 1.17741 0
M  V30 1796 O 187.013 4.37788 0.165362 0
M  V30 1797 C 188.514 3.99216 1.92722 0
M  V30 1798 H 185.734 0.655009 0.145616 0
M  V30 1799 H 188.278 2.03494 -0.202625 0
M  V30 1800 H 186.433 3.38713 1.88021 0
M  V30 1801 H 186.847 5.20806 0.621403 0
M  V30 1802 H 188.321 5.00882 2.31995 0
M  V30 1803 H 188.798 3.3824 2.80161 0
M  V30 1804 H 189.404 4.0583 1.27209 0
M  V30 1805 N 187.719 -0.156864 1.56817 0
M  V30 1806 C 188.966 -0.871125 1.82805 0
M  V30 1807 C 189.294 -1.81611 0.696262 0
M  V30 1808 O 188.549 -1.93141 -0.315459 0
M  V30 1809 C 188.848 -1.68737 3.1506 0
M  V30 1810 C 188.514 -0.890045 4.42028 0
M  V30 1811 C 187.176 -0.670042 4.76512 0
M  V30 1812 C 189.528 -0.331769 5.20143 0
M  V30 1813 C 186.856 0.119104 5.86579 0
M  V30 1814 C 189.208 0.444365 6.31037 0
M  V30 1815 C 187.872 0.675035 6.64078 0
M  V30 1816 H 187.142 -0.318767 0.668931 0
M  V30 1817 H 189.789 -0.135274 1.91022 0
M  V30 1818 H 188.094 -2.49304 3.0225 0
M  V30 1819 H 189.791 -2.24331 3.3238 0
M  V30 1820 H 186.381 -1.07157 4.14988 0
M  V30 1821 H 190.565 -0.489043 4.93885 0
M  V30 1822 H 185.821 0.307417 6.10627 0
M  V30 1823 H 189.995 0.884139 6.90765 0
M  V30 1824 H 187.622 1.28839 7.49203 0
M  V30 1825 N 189.197 -1.51736 -0.425897 0
M  V30 1826 C 190.422 -1.69082 -1.20108 0
M  V30 1827 C 190.847 -0.392398 -1.83962 0
M  V30 1828 O 190.205 0.64858 -1.69302 0
M  V30 1829 C 190.253 -2.81604 -2.25237 0
M  V30 1830 O 189.357 -2.46004 -3.30992 0
M  V30 1831 H 188.698 -0.563408 -0.35138 0
M  V30 1832 H 191.228 -1.98358 -0.501512 0
M  V30 1833 H 191.238 -3.06025 -2.69838 0
M  V30 1834 H 189.913 -3.75817 -1.78142 0
M  V30 1835 H 188.49 -2.32195 -2.91787 0
M  V30 1836 N 190.675 0.682077 -1.42076 0
M  V30 1837 C 191.605 1.80796 -1.47767 0
M  V30 1838 C 192.586 1.6677 -0.334954 0
M  V30 1839 O 193.771 1.863 -0.548264 0
M  V30 1840 C 190.901 3.19038 -1.37229 0
M  V30 1841 C 189.855 3.47789 -2.49453 0
M  V30 1842 C 189.181 4.8553 -2.23975 0
M  V30 1843 C 190.481 3.45411 -3.91776 0
M  V30 1844 H 192.175 1.7629 -2.41997 0
M  V30 1845 H 189.721 0.846721 -1.16476 0
M  V30 1846 H 191.674 3.97528 -1.39821 0
M  V30 1847 H 190.398 3.24204 -0.394907 0
M  V30 1848 H 189.057 2.71657 -2.46166 0
M  V30 1849 H 188.705 4.87337 -1.24547 0
M  V30 1850 H 188.405 5.0573 -2.99184 0
M  V30 1851 H 189.929 5.66312 -2.28304 0
M  V30 1852 H 191.343 4.13882 -3.96705 0
M  V30 1853 H 189.74 3.77145 -4.66778 0
M  V30 1854 H 190.81 2.44122 -4.18966 0
M  V30 1855 N 192.153 1.28127 0.917671 0
M  V30 1856 C 193.401 1.14825 1.66312 0
M  V30 1857 C 193.722 -0.304379 1.9261 0
M  V30 1858 O 192.992 -1.21149 1.53947 0
M  V30 1859 H 191.572 0.421953 0.616413 0
M  V30 1860 H 194.234 1.608 1.10134 0
M  V30 1861 H 193.33 1.68489 2.62712 0
M  V30 1862 N 193.631 -1.12557 1.10312 0
M  V30 1863 C 194.578 -2.18247 0.750781 0
M  V30 1864 C 195.548 -1.63853 -0.272293 0
M  V30 1865 O 196.733 -1.90195 -0.151862 0
M  V30 1866 C 193.873 -3.44591 0.187379 0
M  V30 1867 C 192.986 -4.13046 1.2656 0
M  V30 1868 C 192.121 -5.27034 0.663978 0
M  V30 1869 C 191.16 -5.87353 1.72287 0
M  V30 1870 N 190.297 -6.92757 1.1416 0
M  V30 1871 H 195.137 -2.47732 1.65628 0
M  V30 1872 H 192.674 -1.21629 0.827337 0
M  V30 1873 H 194.632 -4.16904 -0.157148 0
M  V30 1874 H 193.262 -3.15527 -0.681355 0
M  V30 1875 H 192.314 -3.38924 1.72727 0
M  V30 1876 H 193.626 -4.53947 2.06721 0
M  V30 1877 H 192.78 -6.06104 0.268824 0
M  V30 1878 H 191.519 -4.87407 -0.169082 0
M  V30 1879 H 190.524 -5.06971 2.12746 0
M  V30 1880 H 191.749 -6.29051 2.55875 0
M  V30 1881 H 189.695 -6.5517 0.329984 0
M  V30 1882 H 189.612 -7.3225 1.88007 0
M  V30 1883 H 190.88 -7.75658 0.772956 0
M  V30 1884 N 195.109 -0.891671 -1.2995 0
M  V30 1885 C 196.041 -0.320695 -2.26945 0
M  V30 1886 C 197.054 0.528497 -1.53983 0
M  V30 1887 O 198.243 0.346959 -1.75096 0
M  V30 1888 C 195.343 0.562066 -3.34207 0
M  V30 1889 C 194.516 -0.259576 -4.36629 0
M  V30 1890 C 193.575 0.554739 -5.23268 0
M  V30 1891 O 192.601 -0.0249311 -5.69195 0
M  V30 1892 N 193.803 1.8625 -5.4981 0
M  V30 1893 H 196.568 -1.15432 -2.76578 0
M  V30 1894 H 194.129 -0.755336 -1.432 0
M  V30 1895 H 196.121 1.11304 -3.89093 0
M  V30 1896 H 194.691 1.29637 -2.84452 0
M  V30 1897 H 193.911 -0.991986 -3.81514 0
M  V30 1898 H 195.199 -0.822564 -5.02107 0
M  V30 1899 H 194.597 2.35628 -5.14292 0
M  V30 1900 H 193.154 2.36078 -6.07545 0
M  V30 1901 N 196.587 1.43421 -0.653314 0
M  V30 1902 C 197.833 2.02111 -0.166992 0
M  V30 1903 C 198.166 1.51423 1.21592 0
M  V30 1904 O 197.441 0.707389 1.8118 0
M  V30 1905 C 197.724 3.5966 -0.177948 0
M  V30 1906 C 197.577 4.20579 -1.59478 0
M  V30 1907 C 198.896 4.37413 0.4856 0
M  V30 1908 H 196.015 0.734374 -0.0621557 0
M  V30 1909 H 198.657 1.70717 -0.834016 0
M  V30 1910 H 196.807 3.86537 0.390032 0
M  V30 1911 H 198.479 4.04732 -2.21336 0
M  V30 1912 H 196.722 3.77226 -2.14204 0
M  V30 1913 H 197.393 5.29665 -1.5543 0
M  V30 1914 H 199.869 4.161 0.00234528 0
M  V30 1915 H 198.745 5.47075 0.447207 0
M  V30 1916 H 199.006 4.13672 1.55974 0
M  V30 1917 N 198.065 0.39524 1.52563 0
M  V30 1918 C 199.313 -0.184678 2.01254 0
M  V30 1919 C 199.634 -1.46822 1.28329 0
M  V30 1920 O 198.904 -1.91666 0.405094 0
M  V30 1921 H 197.484 -0.0712355 0.743596 0
M  V30 1922 H 200.146 0.528293 1.87603 0
M  V30 1923 H 199.242 -0.390681 3.09645 0
M  V30 1924 N 199.544 -1.57102 0.125237 0
M  V30 1925 C 200.492 -2.16905 -0.839927 0
M  V30 1926 C 201.486 -1.11998 -1.27094 0
M  V30 1927 O 202.692 -1.3029 -1.24195 0
M  V30 1928 H 199.067 -0.694252 -0.288995 0
M  V30 1929 H 201.038 -2.96774 -0.311115 0
M  V30 1930 C 199.787 -2.78795 -2.07771 0
M  V30 1931 H 199.11 -3.59221 -1.755 0
M  V30 1932 H 200.55 -3.2417 -2.73295 0
M  V30 1933 C 199.009 -1.76193 -2.87155 0
M  V30 1934 O 199.539 -1.21909 -3.82755 0
M  V30 1935 N 197.745 -1.45991 -2.51267 0
M  V30 1936 H 197.292 -1.90325 -1.73592 0
M  V30 1937 H 197.25 -0.775844 -3.04677 0
M  V30 1938 N 201.022 0.148545 -1.56898 0
M  V30 1939 C 201.969 1.18345 -1.98149 0
M  V30 1940 C 202.939 1.42772 -0.848848 0
M  V30 1941 O 204.124 1.55132 -1.11079 0
M  V30 1942 C 201.264 2.51231 -2.36594 0
M  V30 1943 C 200.377 2.33991 -3.63142 0
M  V30 1944 C 199.512 3.59902 -3.90697 0
M  V30 1945 C 198.551 3.37692 -5.1052 0
M  V30 1946 N 197.688 4.5573 -5.34092 0
M  V30 1947 H 202.528 0.82467 -2.86362 0
M  V30 1948 H 200.065 0.395756 -1.41676 0
M  V30 1949 H 202.023 3.28713 -2.56912 0
M  V30 1950 H 200.653 2.85059 -1.51463 0
M  V30 1951 H 199.705 1.47572 -3.50609 0
M  V30 1952 H 201.017 2.13539 -4.5078 0
M  V30 1953 H 200.171 4.45813 -4.11505 0
M  V30 1954 H 198.91 3.83357 -3.01477 0
M  V30 1955 H 197.915 2.5017 -4.89587 0
M  V30 1956 H 199.14 3.15637 -6.0129 0
M  V30 1957 H 197.086 4.79361 -4.47827 0
M  V30 1958 H 197.003 4.38274 -6.15996 0
M  V30 1959 H 198.271 5.42858 -5.59397 0
M  V30 1960 N 202.5 1.5196 0.417844 0
M  V30 1961 C 203.747 1.65591 1.16559 0
M  V30 1962 C 204.075 0.381565 1.90721 0
M  V30 1963 O 203.33 -0.635156 1.85106 0
M  V30 1964 C 203.629 2.82269 2.19223 0
M  V30 1965 C 203.295 4.20819 1.61933 0
M  V30 1966 C 201.957 4.58506 1.46033 0
M  V30 1967 C 204.309 5.07196 1.20008 0
M  V30 1968 C 201.637 5.80257 0.867113 0
M  V30 1969 C 203.989 6.29544 0.621086 0
M  V30 1970 C 202.653 6.65987 0.449144 0
M  V30 1971 H 201.923 0.605939 0.42652 0
M  V30 1972 H 204.57 1.86041 0.45397 0
M  V30 1973 H 202.875 2.56118 2.96498 0
M  V30 1974 H 204.572 2.90012 2.76936 0
M  V30 1975 H 201.162 3.91116 1.7529 0
M  V30 1976 H 205.346 4.7867 1.31105 0
M  V30 1977 H 200.602 6.07124 0.721833 0
M  V30 1978 H 204.776 6.95805 0.287798 0
M  V30 1979 H 202.403 7.60199 -0.012632 0
M  V30 1980 N 203.978 -0.674533 1.42435 0
M  V30 1981 C 205.225 -1.43459 1.42919 0
M  V30 1982 C 205.553 -1.94446 0.0457312 0
M  V30 1983 O 204.808 -1.7132 -0.94593 0
M  V30 1984 C 205.107 -2.64767 2.40069 0
M  V30 1985 C 204.773 -2.3232 3.86443 0
M  V30 1986 C 203.435 -2.23182 4.26314 0
M  V30 1987 C 205.787 -2.05977 4.78773 0
M  V30 1988 C 203.115 -1.85827 5.56494 0
M  V30 1989 C 205.467 -1.70125 6.09295 0
M  V30 1990 C 204.131 -1.59498 6.48164 0
M  V30 1991 H 203.401 -0.524952 0.522978 0
M  V30 1992 H 206.048 -0.769097 1.75377 0
M  V30 1993 H 204.353 -3.36349 2.00939 0
M  V30 1994 H 206.05 -3.22949 2.37707 0
M  V30 1995 H 202.64 -2.40334 3.54877 0
M  V30 1996 H 206.824 -2.11969 4.48757 0
M  V30 1997 H 202.08 -1.76168 5.8547 0
M  V30 1998 H 206.254 -1.48767 6.80324 0
M  V30 1999 H 203.881 -1.30322 7.48946 0
M  V30 2000 N 205.456 -1.28612 -0.910864 0
M  V30 2001 C 206.386 -1.15326 -2.03032 0
M  V30 2002 C 207.367 -0.0502924 -1.70026 0
M  V30 2003 O 208.552 -0.227797 -1.92859 0
M  V30 2004 C 205.682 -0.817343 -3.37545 0
M  V30 2005 C 204.636 -1.8754 -3.84724 0
M  V30 2006 C 203.962 -1.39305 -5.16235 0
M  V30 2007 C 205.262 -3.28244 -4.06267 0
M  V30 2008 H 206.956 -2.08975 -2.14406 0
M  V30 2009 H 204.502 -1.00612 -1.03021 0
M  V30 2010 H 206.455 -0.711151 -4.15356 0
M  V30 2011 H 205.179 0.154846 -3.26233 0
M  V30 2012 H 203.838 -1.97079 -3.09121 0
M  V30 2013 H 203.486 -0.409846 -5.01328 0
M  V30 2014 H 203.186 -2.10057 -5.48771 0
M  V30 2015 H 204.71 -1.30014 -5.96598 0
M  V30 2016 H 206.124 -3.21611 -4.74594 0
M  V30 2017 H 204.521 -3.96855 -4.5014 0
M  V30 2018 H 205.591 -3.72048 -3.10979 0
M  V30 2019 N 206.934 1.1197 -1.10907 0
M  V30 2020 C 208.162 1.87402 -0.876824 0
M  V30 2021 C 208.577 1.79894 0.573025 0
M  V30 2022 O 207.934 1.17629 1.39534 0
M  V30 2023 C 207.985 3.36428 -1.32282 0
M  V30 2024 O 207.706 3.43765 -2.71582 0
M  V30 2025 C 209.207 4.28783 -1.12518 0
M  V30 2026 H 206.427 0.592793 -0.314384 0
M  V30 2027 H 208.971 1.41649 -1.47499 0
M  V30 2028 H 207.126 3.79706 -0.768229 0
M  V30 2029 H 207.54 4.3652 -2.90776 0
M  V30 2030 H 209.014 5.31613 -1.48633 0
M  V30 2031 H 209.491 4.39153 -0.0642394 0
M  V30 2032 H 210.097 3.91291 -1.66648 0
M  V30 2033 N 208.412 0.89855 1.29475 0
M  V30 2034 C 209.36 0.365253 2.29714 0
M  V30 2035 C 210.354 -0.534993 1.6073 0
M  V30 2036 O 211.56 -0.417921 1.75081 0
M  V30 2037 H 207.935 0.0994853 0.74539 0
M  V30 2038 H 209.906 1.22406 2.72138 0
M  V30 2039 C 208.655 -0.393159 3.4547 0
M  V30 2040 H 207.978 0.290332 3.98744 0
M  V30 2041 H 209.418 -0.731189 4.17648 0
M  V30 2042 C 207.877 -1.59539 2.9673 0
M  V30 2043 O 208.407 -2.69469 2.97908 0
M  V30 2044 N 206.613 -1.43716 2.52575 0
M  V30 2045 H 206.16 -0.542828 2.51816 0
M  V30 2046 H 206.118 -2.24288 2.20323 0
M  V30 2047 N 209.89 -1.43072 0.660911 0
M  V30 2048 C 211.138 -2.01323 0.177094 0
M  V30 2049 C 211.459 -1.5245 -1.2159 0
M  V30 2050 O 210.729 -0.740322 -1.81373 0
M  V30 2051 H 209.309 -0.744382 0.0624804 0
M  V30 2052 H 211.971 -1.75179 0.854305 0
M  V30 2053 H 211.067 -3.11649 0.167641 0
M  V30 2054 N 211.368 -0.403325 -1.52352 0
M  V30 2055 C 212.278 0.432009 -2.30588 0
M  V30 2056 C 213.294 1.05884 -1.38075 0
M  V30 2057 O 214.47 1.06161 -1.71148 0
M  V30 2058 C 211.535 1.53669 -3.10784 0
M  V30 2059 C 210.596 0.933525 -4.19027 0
M  V30 2060 C 209.829 1.98557 -4.9539 0
M  V30 2061 O 210.052 3.20283 -4.71991 0
M  V30 2062 O 208.986 1.59504 -5.80381 0
M  V30 2063 H 212.812 -0.205739 -3.03002 0
M  V30 2064 H 210.397 -0.166675 -1.48467 0
M  V30 2065 H 212.279 2.17814 -3.60742 0
M  V30 2066 H 210.954 2.15915 -2.41169 0
M  V30 2067 H 209.861 0.254954 -3.7323 0
M  V30 2068 H 211.194 0.35508 -4.90918 0
M  V30 2069 N 212.846 1.57033 -0.133567 0
M  V30 2070 C 214.095 1.94861 0.520768 0
M  V30 2071 C 214.408 1.02012 1.66892 0
M  V30 2072 O 215.614 1.29365 2.38699 0
M  V30 2073 C 214.07 3.46362 0.977809 0
M  V30 2074 C 213.678 4.47773 -0.142674 0
M  V30 2075 C 215.422 3.93083 1.60269 0
M  V30 2076 C 213.329 5.90468 0.331883 0
M  V30 2077 H 212.259 0.727453 0.198315 0
M  V30 2078 H 214.91 1.82227 -0.215759 0
M  V30 2079 H 213.292 3.54282 1.7692 0
M  V30 2080 H 214.466 4.51536 -0.919317 0
M  V30 2081 H 212.781 4.10891 -0.675124 0
M  V30 2082 H 215.378 4.97121 1.96914 0
M  V30 2083 H 215.721 3.33876 2.48662 0
M  V30 2084 H 216.254 3.88025 0.876453 0
M  V30 2085 H 212.993 6.53463 -0.516341 0
M  V30 2086 H 212.513 5.90094 1.07469 0
M  V30 2087 H 214.192 6.42179 0.788332 0
M  V30 2088 N 214.325 -0.140222 1.56975 0
M  V30 2089 C 215.258 -1.20266 1.93936 0
M  V30 2090 C 216.236 -1.41212 0.806099 0
M  V30 2091 O 217.42 -1.55713 1.06234 0
M  V30 2092 C 214.547 -2.56037 2.21726 0
M  V30 2093 C 213.593 -2.51646 3.44349 0
M  V30 2094 S 214.426 -1.97678 4.97678 0
M  V30 2095 C 215.582 -3.35165 5.28597 0
M  V30 2096 H 215.815 -0.887358 2.83749 0
M  V30 2097 H 213.348 -0.346119 1.50471 0
M  V30 2098 H 215.306 -3.34167 2.38416 0
M  V30 2099 H 213.967 -2.84755 1.32566 0
M  V30 2100 H 213.16 -3.51608 3.61092 0
M  V30 2101 H 212.762 -1.81628 3.26936 0
M  V30 2102 H 215.054 -4.31302 5.2248 0
M  V30 2103 H 215.997 -3.23269 6.30002 0
M  V30 2104 H 216.405 -3.32614 4.56101 0
M  V30 2105 N 215.803 -1.52179 -0.40978 0
M  V30 2106 C 217.031 -1.70054 -1.17853 0
M  V30 2107 C 217.446 -0.409735 -1.843 0
M  V30 2108 O 216.803 0.614183 -1.71855 0
M  V30 2109 C 216.854 -2.83568 -2.24213 0
M  V30 2110 O 216.575 -4.0765 -1.60478 0
M  V30 2111 C 218.076 -3.12947 -3.13973 0
M  V30 2112 H 215.296 -0.569917 -0.354169 0
M  V30 2113 H 217.84 -1.98734 -0.482198 0
M  V30 2114 H 215.995 -2.57409 -2.89516 0
M  V30 2115 H 216.409 -4.70899 -2.30986 0
M  V30 2116 H 217.883 -3.95889 -3.84677 0
M  V30 2117 H 218.36 -2.26472 -3.76307 0
M  V30 2118 H 218.966 -3.40868 -2.5434 0
M  V30 2119 N 217.281 0.66697 -1.42791 0
M  V30 2120 C 218.528 1.42699 -1.43678 0
M  V30 2121 C 218.856 1.94419 -0.0560425 0
M  V30 2122 O 218.111 1.7182 0.936831 0
M  V30 2123 C 218.41 2.6349 -2.4147 0
M  V30 2124 C 218.076 2.30267 -3.8767 0
M  V30 2125 C 216.738 2.20918 -4.27491 0
M  V30 2126 C 219.09 2.03435 -4.79858 0
M  V30 2127 C 216.418 1.82873 -5.57471 0
M  V30 2128 C 218.77 1.66892 -6.10188 0
M  V30 2129 C 217.434 1.56058 -6.49001 0
M  V30 2130 H 216.704 0.522171 -0.525755 0
M  V30 2131 H 219.351 0.759785 -1.75783 0
M  V30 2132 H 217.656 3.35279 -2.0272 0
M  V30 2133 H 219.353 3.21684 -2.39417 0
M  V30 2134 H 215.943 2.38449 -3.56146 0
M  V30 2135 H 220.127 2.09586 -4.49875 0
M  V30 2136 H 215.383 1.7306 -5.86396 0
M  V30 2137 H 219.557 1.45157 -6.81104 0
M  V30 2138 H 217.184 1.26348 -7.49627 0
M  V30 2139 N 218.759 1.29093 0.90403 0
M  V30 2140 C 219.669 1.15727 2.0407 0
M  V30 2141 C 220.685 0.0815308 1.73809 0
M  V30 2142 O 221.861 0.292749 1.99261 0
M  V30 2143 C 218.926 0.830424 3.36608 0
M  V30 2144 C 217.987 1.98955 3.80415 0
M  V30 2145 C 217.22 1.6782 5.06628 0
M  V30 2146 O 217.443 0.597105 5.67266 0
M  V30 2147 O 216.377 2.52486 5.46383 0
M  V30 2148 H 220.203 2.11171 2.18267 0
M  V30 2149 H 217.788 1.08504 1.027 0
M  V30 2150 H 219.67 0.662521 4.16159 0
M  V30 2151 H 218.345 -0.0942678 3.23563 0
M  V30 2152 H 217.252 2.21267 3.01648 0
M  V30 2153 H 218.585 2.89529 3.98037 0
M  V30 2154 N 220.237 -1.11381 1.11499 0
M  V30 2155 C 221.184 -2.17439 0.773887 0
M  V30 2156 C 222.154 -1.64132 -0.254899 0
M  V30 2157 O 223.339 -1.90345 -0.13168 0
M  V30 2158 C 220.479 -3.44373 0.223917 0
M  V30 2159 C 219.592 -4.1168 1.30934 0
M  V30 2160 C 218.727 -5.263 0.71984 0
M  V30 2161 C 217.766 -5.85493 1.78507 0
M  V30 2162 N 216.903 -6.91507 1.21502 0
M  V30 2163 H 221.743 -2.45962 1.68246 0
M  V30 2164 H 219.28 -1.20744 0.840191 0
M  V30 2165 H 221.238 -4.17047 -0.112921 0
M  V30 2166 H 219.868 -3.16232 -0.647851 0
M  V30 2167 H 218.92 -3.37073 1.76312 0
M  V30 2168 H 220.232 -4.51729 2.11524 0
M  V30 2169 H 219.386 -6.05785 0.333094 0
M  V30 2170 H 218.125 -4.87559 -0.117377 0
M  V30 2171 H 217.13 -5.04686 2.18111 0
M  V30 2172 H 218.355 -6.26301 2.62533 0
M  V30 2173 H 216.301 -6.54783 0.399455 0
M  V30 2174 H 216.218 -7.30214 1.95763 0
M  V30 2175 H 217.486 -7.74795 0.855181 0
M  V30 2176 N 221.715 -0.905404 -1.28997 0
M  V30 2177 C 222.961 -0.535039 -1.95615 0
M  V30 2178 C 223.294 0.917404 -1.71165 0
M  V30 2179 O 222.569 1.65123 -1.02785 0
M  V30 2180 C 222.852 -0.834918 -3.50287 0
M  V30 2181 C 222.705 -2.33948 -3.84172 0
M  V30 2182 C 224.024 -0.325318 -4.38896 0
M  V30 2183 H 221.143 -0.195861 -0.710498 0
M  V30 2184 H 223.785 -1.13313 -1.52513 0
M  V30 2185 H 221.935 -0.325904 -3.87131 0
M  V30 2186 H 223.607 -2.91847 -3.57243 0
M  V30 2187 H 221.85 -2.79789 -3.31513 0
M  V30 2188 H 222.521 -2.49987 -4.92149 0
M  V30 2189 H 224.997 -0.761256 -4.09077 0
M  V30 2190 H 223.873 -0.564295 -5.45992 0
M  V30 2191 H 224.134 0.774144 -4.35269 0
M  V30 2192 N 223.193 1.4272 -0.668489 0
M  V30 2193 C 224.14 2.30796 0.0137489 0
M  V30 2194 C 225.11 1.4561 0.799177 0
M  V30 2195 O 226.295 1.74453 0.772702 0
M  V30 2196 C 223.435 3.31377 0.963507 0
M  V30 2197 C 222.548 4.31655 0.172569 0
M  V30 2198 C 221.683 5.19312 1.1175 0
M  V30 2199 C 220.722 6.11274 0.317886 0
M  V30 2200 N 219.859 6.91504 1.2152 0
M  V30 2201 H 224.699 2.88585 -0.743161 0
M  V30 2202 H 222.236 1.42154 -0.378226 0
M  V30 2203 H 224.194 3.88214 1.52792 0
M  V30 2204 H 222.824 2.75202 1.68712 0
M  V30 2205 H 221.876 3.76988 -0.508374 0
M  V30 2206 H 223.188 4.96779 -0.448527 0
M  V30 2207 H 222.342 5.80851 1.75206 0
M  V30 2208 H 221.081 4.5435 1.77249 0
M  V30 2209 H 220.086 5.48809 -0.329918 0
M  V30 2210 H 221.311 6.78283 -0.332917 0
M  V30 2211 H 219.257 6.29176 1.85671 0
M  V30 2212 H 219.174 7.53209 0.649036 0
M  V30 2213 H 220.442 7.57535 1.83742 0
M  V30 2214 N 224.671 0.411399 1.52136 0
M  V30 2215 C 225.634 -0.401089 2.25663 0
M  V30 2216 C 226.634 -0.971732 1.28117 0
M  V30 2217 O 227.824 -0.850254 1.52041 0
M  V30 2218 C 224.956 -1.56483 3.02863 0
M  V30 2219 H 226.149 0.24295 2.98914 0
M  V30 2220 H 223.702 0.163968 1.55438 0
M  V30 2221 H 224.437 -2.24567 2.33967 0
M  V30 2222 H 224.222 -1.16211 3.74483 0
M  V30 2223 H 225.712 -2.13951 3.58629 0
M  V30 2224 N 226.149 -1.5696 0.141893 0
M  V30 2225 C 227.079 -2.19516 -0.795936 0
M  V30 2226 C 228.06 -1.14187 -1.26077 0
M  V30 2227 O 229.245 -1.42511 -1.31925 0
M  V30 2228 C 226.375 -2.81272 -2.03723 0
M  V30 2229 C 225.329 -3.92384 -1.70936 0
M  V30 2230 C 224.655 -4.41052 -3.02287 0
M  V30 2231 C 225.955 -5.13403 -0.959954 0
M  V30 2232 H 227.649 -2.98138 -0.274596 0
M  V30 2233 H 225.195 -1.43406 -0.130636 0
M  V30 2234 H 227.148 -3.237 -2.69808 0
M  V30 2235 H 225.872 -1.99973 -2.58221 0
M  V30 2236 H 224.531 -3.50566 -1.07232 0
M  V30 2237 H 224.179 -3.56582 -3.54765 0
M  V30 2238 H 223.879 -5.15993 -2.81114 0
M  V30 2239 H 225.403 -4.86146 -3.69451 0
M  V30 2240 H 226.817 -5.52706 -1.52279 0
M  V30 2241 H 225.214 -5.94073 -0.848357 0
M  V30 2242 H 226.284 -4.84875 0.0492434 0
M  V30 2243 N 227.627 0.131896 -1.57047 0
M  V30 2244 C 228.867 0.847972 -1.85981 0
M  V30 2245 C 229.231 1.77655 -0.7282 0
M  V30 2246 O 230.432 2.53322 -0.898968 0
M  V30 2247 C 228.703 1.58919 -3.20124 0
M  V30 2248 S 230.262 2.34862 -3.70655 0
M  V30 2249 H 227.08 0.283273 -0.652133 0
M  V30 2250 H 229.682 0.107057 -1.95207 0
M  V30 2251 H 228.386 0.898771 -4.00438 0
M  V30 2252 H 227.917 2.37073 -3.13942 0
M  V30 2253 H 229.932 3.60344 -3.41126 0
M  V30 2254 N 229.106 1.52395 0.401703 0
M  V30 2255 C 230.352 1.67065 1.14966 0
M  V30 2256 C 230.685 0.403052 1.89971 0
M  V30 2257 O 229.96 -0.598774 1.85054 0
M  V30 2258 C 230.243 2.8975 2.13815 0
M  V30 2259 C 230.096 4.26578 1.42658 0
M  V30 2260 C 231.415 3.07965 3.14397 0
M  V30 2261 H 228.534 0.607968 0.416587 0
M  V30 2262 H 231.176 1.84965 0.434511 0
M  V30 2263 H 229.326 2.74619 2.74803 0
M  V30 2264 H 230.998 4.53451 0.847329 0
M  V30 2265 H 229.241 4.27639 0.72849 0
M  V30 2266 H 229.912 5.08483 2.14823 0
M  V30 2267 H 232.388 3.22043 2.63491 0
M  V30 2268 H 231.264 3.95308 3.80819 0
M  V30 2269 H 231.525 2.21611 3.82545 0
M  V30 2270 N 230.584 -0.659388 1.43143 0
M  V30 2271 C 231.531 -1.77249 1.47822 0
M  V30 2272 C 232.501 -1.62818 0.328558 0
M  V30 2273 O 233.686 -1.83151 0.534838 0
M  V30 2274 C 230.826 -3.15371 1.40126 0
M  V30 2275 C 229.939 -3.4098 2.65249 0
M  V30 2276 C 229.074 -4.68915 2.49584 0
M  V30 2277 C 228.113 -4.87608 3.70006 0
M  V30 2278 N 227.25 -6.06796 3.53189 0
M  V30 2279 H 232.09 -1.72584 2.42938 0
M  V30 2280 H 229.627 -0.842297 1.20598 0
M  V30 2281 H 231.585 -3.9521 1.33659 0
M  V30 2282 H 230.215 -3.19121 0.485964 0
M  V30 2283 H 229.267 -2.55282 2.8202 0
M  V30 2284 H 230.579 -3.50681 3.54717 0
M  V30 2285 H 229.733 -5.56871 2.4079 0
M  V30 2286 H 228.472 -4.61524 1.5763 0
M  V30 2287 H 227.477 -3.9809 3.79215 0
M  V30 2288 H 228.702 -4.96834 4.62961 0
M  V30 2289 H 226.648 -6.00549 2.63965 0
M  V30 2290 H 226.565 -6.17428 4.36255 0
M  V30 2291 H 227.833 -6.9739 3.48236 0
M  V30 2292 N 232.062 -1.29571 -0.897171 0
M  V30 2293 C 233.309 -1.17689 -1.6479 0
M  V30 2294 C 233.637 0.27107 -1.92602 0
M  V30 2295 O 232.892 1.21193 -1.53658 0
M  V30 2296 C 233.191 -1.9382 -3.00281 0
M  V30 2297 C 232.857 -3.43522 -2.92068 0
M  V30 2298 C 231.519 -3.84348 -2.89535 0
M  V30 2299 C 233.871 -4.38906 -2.81089 0
M  V30 2300 C 231.199 -5.18869 -2.73846 0
M  V30 2301 C 233.551 -5.73521 -2.66939 0
M  V30 2302 C 232.215 -6.13601 -2.62774 0
M  V30 2303 H 231.485 -0.430654 -0.603008 0
M  V30 2304 H 234.132 -1.60536 -1.04404 0
M  V30 2305 H 232.437 -1.4357 -3.64547 0
M  V30 2306 H 234.134 -1.82028 -3.57305 0
M  V30 2307 H 230.724 -3.11072 -2.94842 0
M  V30 2308 H 234.908 -4.08315 -2.82121 0
M  V30 2309 H 230.164 -5.4903 -2.69027 0
M  V30 2310 H 234.338 -6.47078 -2.57416 0
M  V30 2311 H 231.965 -7.17786 -2.50375 0
M  V30 2312 N 233.54 1.10788 -1.12088 0
M  V30 2313 C 234.472 2.16816 -0.743213 0
M  V30 2314 C 235.485 1.6119 0.228412 0
M  V30 2315 O 236.674 1.78497 0.0102931 0
M  V30 2316 C 233.774 3.38809 -0.0787313 0
M  V30 2317 C 232.947 4.23885 -1.0789 0
M  V30 2318 C 232.006 5.24334 -0.442713 0
M  V30 2319 O 231.032 5.58497 -1.09864 0
M  V30 2320 N 232.234 5.75079 0.791457 0
M  V30 2321 H 234.999 2.49825 -1.65552 0
M  V30 2322 H 232.56 1.26373 -1.012 0
M  V30 2323 H 234.552 4.03107 0.358766 0
M  V30 2324 H 233.122 3.03805 0.736275 0
M  V30 2325 H 232.342 3.55939 -1.69414 0
M  V30 2326 H 233.63 4.77562 -1.75533 0
M  V30 2327 H 233.028 5.49517 1.3434 0
M  V30 2328 H 231.585 6.4118 1.17183 0
M  V30 2329 N 235.018 0.912232 1.28515 0
M  V30 2330 C 235.981 0.404223 2.25607 0
M  V30 2331 C 236.981 -0.468602 1.53821 0
M  V30 2332 O 238.171 -0.271873 1.72065 0
M  V30 2333 C 235.303 -0.420653 3.38295 0
M  V30 2334 H 236.496 1.26188 2.7206 0
M  V30 2335 H 234.049 0.691495 1.40171 0
M  V30 2336 H 234.784 -1.29777 2.97201 0
M  V30 2337 H 234.569 0.204935 3.91564 0
M  V30 2338 H 236.059 -0.766971 4.10496 0
M  V30 2339 N 236.496 -1.42363 0.676048 0
M  V30 2340 C 237.721 -2.06377 0.205705 0
M  V30 2341 C 238.146 -1.50463 -1.12883 0
M  V30 2342 O 237.504 -0.623619 -1.70237 0
M  V30 2343 C 237.552 -3.60277 0.152655 0
M  V30 2344 O 236.656 -4.02935 -0.87845 0
M  V30 2345 H 235.997 -0.655588 0.105359 0
M  V30 2346 H 238.527 -1.82475 0.925412 0
M  V30 2347 H 238.537 -4.07993 -0.0230675 0
M  V30 2348 H 237.212 -4.00346 1.12675 0
M  V30 2349 H 235.789 -3.66764 -0.673668 0
M  V30 2350 N 237.974 -0.419461 -1.51915 0
M  V30 2351 C 239.22 0.153166 -2.02221 0
M  V30 2352 C 239.553 1.43907 -1.30401 0
M  V30 2353 O 238.828 1.90055 -0.413438 0
M  V30 2354 C 239.111 0.390291 -3.57979 0
M  V30 2355 C 238.964 -0.913014 -4.40436 0
M  V30 2356 C 240.283 1.16794 -4.2432 0
M  V30 2357 H 237.402 0.0541924 -0.735005 0
M  V30 2358 H 240.044 -0.554955 -1.81715 0
M  V30 2359 H 238.194 0.993491 -3.75582 0
M  V30 2360 H 239.866 -1.54882 -4.34522 0
M  V30 2361 H 238.109 -1.52168 -4.06236 0
M  V30 2362 H 238.78 -0.701361 -5.47526 0
M  V30 2363 H 241.256 0.657161 -4.10878 0
M  V30 2364 H 240.132 1.3026 -5.3322 0
M  V30 2365 H 240.393 2.19132 -3.83971 0
M  V30 2366 N 239.452 1.56882 -0.150215 0
M  V30 2367 C 240.415 2.1573 0.774157 0
M  V30 2368 C 241.415 1.0999 1.17298 0
M  V30 2369 O 242.605 1.35613 1.09338 0
M  V30 2370 C 239.737 2.72302 2.05096 0
M  V30 2371 H 240.93 2.98752 0.262201 0
M  V30 2372 H 238.483 1.55985 0.099248 0
M  V30 2373 H 239.218 1.92956 2.6065 0
M  V30 2374 H 239.003 3.49665 1.77416 0
M  V30 2375 H 240.493 3.17632 2.71109 0
M  V30 2376 N 240.93 -0.123565 1.57115 0
M  V30 2377 C 242.158 -0.846461 1.88793 0
M  V30 2378 C 242.573 -1.73652 0.740976 0
M  V30 2379 O 241.93 -1.80207 -0.288393 0
M  V30 2380 C 241.981 -1.6837 3.19897 0
M  V30 2381 O 241.702 -0.829477 4.30176 0
M  V30 2382 C 243.203 -2.51214 3.65248 0
M  V30 2383 H 240.423 -0.243573 0.625231 0
M  V30 2384 H 242.967 -0.109324 2.04208 0
M  V30 2385 H 241.122 -2.37364 3.06165 0
M  V30 2386 H 241.536 -1.40651 5.0529 0
M  V30 2387 H 243.01 -3.05497 4.59756 0
M  V30 2388 H 243.487 -3.28359 2.9168 0
M  V30 2389 H 244.093 -1.8747 3.81752 0
M  V30 2390 N 242.408 -1.52605 -0.393616 0
M  V30 2391 C 243.819 -1.59417 -0.971761 0
M  V30 2392 C 244.17 -0.444173 -1.91106 0
M  V30 2393 O 243.295 0.433382 -2.12016 0
M  V30 2394 C 243.89 -2.88936 -1.76921 0
M  V30 2395 C 242.449 -2.98175 -2.29714 0
M  V30 2396 C 241.596 -2.54491 -1.10135 0
M  V30 2397 H 244.547 -1.57751 -0.173317 0
M  V30 2398 H 244.568 -2.75163 -2.62804 0
M  V30 2399 H 244.08 -3.72616 -1.08532 0
M  V30 2400 H 242.181 -2.19024 -3.01429 0
M  V30 2401 H 242.294 -4.02726 -2.59517 0
M  V30 2402 H 240.658 -2.08702 -1.45999 0
M  V30 2403 H 241.441 -3.4056 -0.432874 0
M  V30 2404 N 243.887 0.651787 -1.4349 0
M  V30 2405 C 245.303 0.96762 -1.26922 0
M  V30 2406 C 245.503 2.00602 -0.189982 0
M  V30 2407 O 244.559 2.48793 0.431107 0
M  V30 2408 C 245.872 1.45052 -2.63401 0
M  V30 2409 C 247.42 1.5671 -2.70945 0
M  V30 2410 C 247.895 2.0839 -4.07845 0
M  V30 2411 N 249.386 2.1569 -4.09917 0
M  V30 2412 C 250.121 2.56804 -5.12679 0
M  V30 2413 N 249.617 2.97203 -6.25813 0
M  V30 2414 N 251.41 2.56756 -5.00033 0
M  V30 2415 H 243.561 -0.0353158 -2.12371 0
M  V30 2416 H 245.824 0.0467858 -0.946845 0
M  V30 2417 H 245.53 0.761926 -3.43348 0
M  V30 2418 H 245.404 2.42529 -2.88894 0
M  V30 2419 H 247.791 2.2467 -1.9133 0
M  V30 2420 H 247.872 0.57662 -2.49216 0
M  V30 2421 H 247.516 1.41031 -4.87927 0
M  V30 2422 H 247.446 3.08271 -4.26938 0
M  V30 2423 H 249.937 1.87237 -3.28254 0
M  V30 2424 H 250.25 3.27328 -7.00055 0
M  V30 2425 H 248.595 2.95004 -6.29283 0
M  V30 2426 H 251.786 2.24572 -4.10713 0
M  V30 2427 H 251.959 2.88475 -5.80247 0
M  V30 2428 N 245.365 1.30045 0.890287 0
M  V30 2429 C 246.313 1.15873 2.01683 0
M  V30 2430 C 247.307 0.0719403 1.69247 0
M  V30 2431 O 248.513 0.232414 1.78493 0
M  V30 2432 H 244.888 0.358203 0.661207 0
M  V30 2433 H 246.859 2.11229 2.10772 0
M  V30 2434 C 245.608 0.861842 3.36849 0
M  V30 2435 H 244.931 1.69016 3.62317 0
M  V30 2436 H 246.371 0.802762 4.16331 0
M  V30 2437 C 244.83 -0.435132 3.34078 0
M  V30 2438 O 245.36 -1.4583 3.74295 0
M  V30 2439 N 243.566 -0.444377 2.87182 0
M  V30 2440 H 243.113 0.388723 2.5465 0
M  V30 2441 H 243.071 -1.31213 2.85711 0
M  V30 2442 N 246.843 -1.10192 1.12674 0
M  V30 2443 C 247.806 -2.14786 0.799979 0
M  V30 2444 C 248.806 -1.59711 -0.18685 0
M  V30 2445 O 249.996 -1.74156 0.0392558 0
M  V30 2446 C 247.128 -3.40374 0.189228 0
M  V30 2447 H 248.321 -2.45203 1.72671 0
M  V30 2448 H 245.874 -1.25597 0.930326 0
M  V30 2449 H 246.609 -3.15577 -0.747107 0
M  V30 2450 H 246.394 -3.81637 0.899766 0
M  V30 2451 H 247.884 -4.17594 -0.0228143 0
M  V30 2452 N 248.321 -0.919034 -1.28029 0
M  V30 2453 C 249.284 -0.416182 -2.2539 0
M  V30 2454 C 250.284 0.460438 -1.54067 0
M  V30 2455 O 251.474 0.262744 -1.72207 0
M  V30 2456 C 248.606 0.402707 -3.38513 0
M  V30 2457 H 249.799 -1.27629 -2.71387 0
M  V30 2458 H 247.352 -0.698919 -1.39803 0
M  V30 2459 H 248.087 1.282 -2.97885 0
M  V30 2460 H 247.872 -0.225698 -3.9145 0
M  V30 2461 H 249.362 0.745191 -4.10897 0
M  V30 2462 N 249.799 1.42003 -0.683588 0
M  V30 2463 C 250.709 2.34597 -0.0109075 0
M  V30 2464 C 251.725 1.55576 0.779245 0
M  V30 2465 O 252.901 1.88107 0.719555 0
M  V30 2466 C 249.966 3.34199 0.922588 0
M  V30 2467 C 249.027 4.29115 0.125984 0
M  V30 2468 C 248.26 5.23959 1.01502 0
M  V30 2469 O 248.483 5.23952 2.25456 0
M  V30 2470 O 247.417 6.00053 0.47111 0
M  V30 2471 H 251.243 2.93675 -0.773853 0
M  V30 2472 H 248.828 1.42654 -0.443861 0
M  V30 2473 H 250.71 3.95365 1.45823 0
M  V30 2474 H 249.385 2.77582 1.66523 0
M  V30 2475 H 248.292 3.71335 -0.453969 0
M  V30 2476 H 249.625 4.88798 -0.577736 0
M  V30 2477 N 251.277 0.427512 1.51691 0
M  V30 2478 C 252.225 -0.403359 2.29076 0
M  V30 2479 C 253.219 -1.02962 1.34518 0
M  V30 2480 O 254.425 -0.965715 1.51901 0
M  V30 2481 H 250.8 -0.148879 0.737115 0
M  V30 2482 H 252.771 0.270295 2.97173 0
M  V30 2483 C 251.52 -1.49763 3.13794 0
M  V30 2484 H 250.843 -1.02508 3.86435 0
M  V30 2485 H 252.283 -2.05244 3.71014 0
M  V30 2486 C 250.742 -2.47536 2.28533 0
M  V30 2487 O 251.272 -3.51848 1.93819 0
M  V30 2488 N 249.478 -2.18187 1.91945 0
M  V30 2489 H 249.025 -1.33389 2.20375 0
M  V30 2490 H 248.983 -2.83848 1.35195 0
M  V30 2491 N 252.755 -1.56801 0.158532 0
M  V30 2492 C 254.003 -1.96102 -0.488712 0
M  V30 2493 C 254.324 -1.04498 -1.64636 0
M  V30 2494 O 253.594 -0.108783 -1.95598 0
M  V30 2495 H 252.174 -0.724102 -0.183535 0
M  V30 2496 H 254.836 -1.93457 0.236728 0
M  V30 2497 H 253.932 -3.00097 -0.857219 0
M  V30 2498 N 254.233 0.115231 -1.57178 0
M  V30 2499 C 255.196 1.12526 -1.99676 0
M  V30 2500 C 256.196 1.34095 -0.88742 0
M  V30 2501 O 257.386 1.30548 -1.15337 0
M  V30 2502 C 254.518 2.4789 -2.34015 0
M  V30 2503 H 255.711 0.759912 -2.90113 0
M  V30 2504 H 253.264 0.359648 -1.52106 0
M  V30 2505 H 253.999 2.89339 -1.4647 0
M  V30 2506 H 253.784 2.33588 -3.14927 0
M  V30 2507 H 255.274 3.20575 -2.67622 0
M  V30 2508 N 255.711 1.52812 0.385517 0
M  V30 2509 C 256.96 1.67249 1.12741 0
M  V30 2510 C 257.273 0.4205 1.91027 0
M  V30 2511 O 258.479 0.445064 2.67827 0
M  V30 2512 C 256.935 2.95583 2.05326 0
M  V30 2513 C 256.543 4.27974 1.32447 0
M  V30 2514 C 258.287 3.19386 2.7963 0
M  V30 2515 C 256.194 5.47412 2.23818 0
M  V30 2516 H 255.124 0.6231 0.424573 0
M  V30 2517 H 257.775 1.79309 0.389924 0
M  V30 2518 H 256.157 2.77277 2.82725 0
M  V30 2519 H 257.331 4.56844 0.602495 0
M  V30 2520 H 255.646 4.10459 0.700885 0
M  V30 2521 H 258.243 4.05801 3.48181 0
M  V30 2522 H 258.586 2.34604 3.43899 0
M  V30 2523 H 259.119 3.38274 2.09322 0
M  V30 2524 H 255.858 6.34612 1.64157 0
M  V30 2525 H 255.378 5.22849 2.93921 0
M  V30 2526 H 257.057 5.81423 2.83824 0
M  V30 2527 N 257.189 -0.644168 1.43834 0
M  V30 2528 C 258.121 -1.76955 1.45669 0
M  V30 2529 C 259.134 -1.58956 0.351666 0
M  V30 2530 O 260.323 -1.6751 0.616644 0
M  V30 2531 C 257.423 -3.14507 1.26248 0
M  V30 2532 C 256.596 -3.59083 2.49757 0
M  V30 2533 C 255.655 -4.75467 2.25427 0
M  V30 2534 O 254.681 -4.84444 2.98836 0
M  V30 2535 N 255.883 -5.66289 1.27661 0
M  V30 2536 H 258.648 -1.75856 2.42682 0
M  V30 2537 H 256.209 -0.828312 1.39106 0
M  V30 2538 H 258.201 -3.90067 1.0784 0
M  V30 2539 H 256.771 -3.10325 0.376478 0
M  V30 2540 H 255.991 -2.7387 2.8353 0
M  V30 2541 H 257.279 -3.85613 3.31934 0
M  V30 2542 H 256.677 -5.61718 0.670064 0
M  V30 2543 H 255.234 -6.41533 1.15234 0
M  V30 2544 N 258.668 -1.30515 -0.883378 0
M  V30 2545 C 259.616 -1.16941 -2.01066 0
M  V30 2546 C 260.61 -0.0809148 -1.69207 0
M  V30 2547 O 261.816 -0.241877 -1.78367 0
M  V30 2548 H 258.191 -0.361705 -0.659298 0
M  V30 2549 H 260.162 -2.12344 -2.09649 0
M  V30 2550 C 258.911 -0.879694 -3.36388 0
M  V30 2551 H 258.234 -1.70936 -3.61415 0
M  V30 2552 H 259.674 -0.82483 -4.159 0
M  V30 2553 C 258.133 0.417409 -3.34304 0
M  V30 2554 O 258.663 1.43843 -3.75063 0
M  V30 2555 N 256.869 0.429141 -2.87414 0
M  V30 2556 H 256.416 -0.402222 -2.5444 0
M  V30 2557 H 256.374 1.29696 -2.86403 0
M  V30 2558 N 260.146 1.09593 -1.13257 0
M  V30 2559 C 261.076 2.18214 -0.830946 0
M  V30 2560 C 262.057 1.68812 0.208966 0
M  V30 2561 O 263.242 1.9408 0.0682666 0
M  V30 2562 C 260.372 3.46051 -0.294296 0
M  V30 2563 C 259.326 4.08778 -1.26826 0
M  V30 2564 C 258.652 5.31419 -0.591449 0
M  V30 2565 C 259.952 4.51476 -2.62615 0
M  V30 2566 H 261.646 2.43703 -1.73923 0
M  V30 2567 H 259.192 1.17128 -0.837675 0
M  V30 2568 H 261.145 4.2134 -0.0709606 0
M  V30 2569 H 259.869 3.20079 0.649366 0
M  V30 2570 H 258.528 3.35505 -1.47756 0
M  V30 2571 H 258.176 5.01727 0.357633 0
M  V30 2572 H 257.876 5.74341 -1.24123 0
M  V30 2573 H 259.4 6.09433 -0.377355 0
M  V30 2574 H 260.814 5.17999 -2.45663 0
M  V30 2575 H 259.211 5.05277 -3.23752 0
M  V30 2576 H 260.281 3.63962 -3.20406 0
M  V30 2577 N 261.624 0.925811 1.2754 0
M  V30 2578 C 262.873 0.561084 1.93739 0
M  V30 2579 C 263.186 -0.901685 1.73577 0
M  V30 2580 O 264.392 -1.37511 2.34101 0
M  V30 2581 C 262.848 0.952668 3.47062 0
M  V30 2582 C 262.456 2.43599 3.75983 0
M  V30 2583 C 264.2 0.659103 4.19352 0
M  V30 2584 C 262.107 2.76707 5.22673 0
M  V30 2585 H 261.037 0.206122 0.725279 0
M  V30 2586 H 263.688 1.12637 1.44863 0
M  V30 2587 H 262.07 0.316053 3.94737 0
M  V30 2588 H 263.244 3.12035 3.39073 0
M  V30 2589 H 261.559 2.70125 3.16893 0
M  V30 2590 H 264.156 0.882985 5.27359 0
M  V30 2591 H 264.499 -0.403607 4.14339 0
M  V30 2592 H 265.032 1.25473 3.77494 0
M  V30 2593 H 261.771 3.8188 5.32774 0
M  V30 2594 H 261.291 2.12919 5.60737 0
M  V30 2595 H 262.97 2.6435 5.90532 0
M  V30 2596 N 263.102 -1.41638 0.69111 0
M  V30 2597 C 264.049 -2.30789 0.0229705 0
M  V30 2598 C 265.019 -1.46863 -0.775911 0
M  V30 2599 O 266.204 -1.75661 -0.74485 0
M  V30 2600 C 263.344 -3.32868 -0.910666 0
M  V30 2601 C 262.457 -4.31875 -0.103874 0
M  V30 2602 C 261.592 -5.21024 -1.03475 0
M  V30 2603 C 260.631 -6.11702 -0.220598 0
M  V30 2604 N 259.768 -6.93349 -1.10504 0
M  V30 2605 H 264.608 -2.87366 0.788978 0
M  V30 2606 H 262.145 -1.41535 0.400794 0
M  V30 2607 H 264.103 -3.90596 -1.46597 0
M  V30 2608 H 262.733 -2.77851 -1.64312 0
M  V30 2609 H 261.785 -3.76131 0.568285 0
M  V30 2610 H 263.097 -4.96003 0.527504 0
M  V30 2611 H 262.251 -5.83565 -1.65943 0
M  V30 2612 H 260.99 -4.57112 -1.69999 0
M  V30 2613 H 259.995 -5.48215 0.417187 0
M  V30 2614 H 261.22 -6.77668 0.440784 0
M  V30 2615 H 259.166 -6.3205 -1.75638 0
M  V30 2616 H 259.083 -7.54146 -0.529125 0
M  V30 2617 H 260.351 -7.60362 -1.71667 0
M  V30 2618 N 264.58 -0.43555 -1.51462 0
M  V30 2619 C 265.49 0.383001 -2.31453 0
M  V30 2620 C 266.506 1.02931 -1.4029 0
M  V30 2621 O 267.682 1.02507 -1.73362 0
M  V30 2622 C 264.747 1.47043 -3.13973 0
M  V30 2623 C 263.808 0.844433 -4.20913 0
M  V30 2624 C 263.041 1.88004 -4.9949 0
M  V30 2625 O 263.264 3.10199 -4.78678 0
M  V30 2626 O 262.198 1.47157 -5.83634 0
M  V30 2627 H 266.024 -0.269964 -3.02498 0
M  V30 2628 H 263.609 -0.19813 -1.4808 0
M  V30 2629 H 265.491 2.10113 -3.65281 0
M  V30 2630 H 264.166 2.10751 -2.45695 0
M  V30 2631 H 263.073 0.175729 -3.73687 0
M  V30 2632 H 264.406 0.250869 -4.9156 0
M  V30 2633 N 266.058 1.56714 -0.166846 0
M  V30 2634 C 266.968 2.21331 0.777791 0
M  V30 2635 C 267.984 1.20358 1.25658 0
M  V30 2636 O 269.16 1.53005 1.30964 0
M  V30 2637 C 266.225 2.83787 1.99163 0
M  V30 2638 C 265.286 3.99947 1.56016 0
M  V30 2639 C 264.519 4.59415 2.71613 0
M  V30 2640 O 264.742 4.17769 3.88362 0
M  V30 2641 O 263.676 5.49359 2.45945 0
M  V30 2642 H 267.502 3.02605 0.257636 0
M  V30 2643 H 265.087 1.49275 0.0611393 0
M  V30 2644 H 266.969 3.23405 2.70161 0
M  V30 2645 H 265.644 2.05513 2.50092 0
M  V30 2646 H 264.551 3.65007 0.819809 0
M  V30 2647 H 265.884 4.79801 1.09782 0
M  V30 2648 N 267.536 -0.106894 1.57237 0
M  V30 2649 C 268.499 -1.11466 2.0027 0
M  V30 2650 C 269.499 -1.33623 0.894519 0
M  V30 2651 O 270.689 -1.29935 1.16028 0
M  V30 2652 C 267.821 -2.46646 2.35327 0
M  V30 2653 H 269.014 -0.744516 2.90512 0
M  V30 2654 H 266.567 -0.351576 1.52295 0
M  V30 2655 H 267.302 -2.88558 1.48003 0
M  V30 2656 H 267.087 -2.31915 3.16161 0
M  V30 2657 H 268.577 -3.19151 2.69318 0
M  V30 2658 N 269.014 -1.53014 -0.377408 0
M  V30 2659 C 270.261 -1.68623 -1.12128 0
M  V30 2660 C 270.589 -0.431997 -1.89642 0
M  V30 2661 O 269.844 0.585855 -1.86725 0
M  V30 2662 C 270.143 -2.87982 -2.11663 0
M  V30 2663 C 269.809 -4.24964 -1.50719 0
M  V30 2664 C 268.471 -4.62217 -1.33825 0
M  V30 2665 C 270.823 -5.10199 -1.06519 0
M  V30 2666 C 268.151 -5.82352 -0.712963 0
M  V30 2667 C 270.503 -6.30969 -0.453955 0
M  V30 2668 C 269.167 -6.66944 -0.272411 0
M  V30 2669 H 268.437 -0.617034 -0.410305 0
M  V30 2670 H 271.084 -1.8718 -0.404484 0
M  V30 2671 H 269.389 -2.63889 -2.89603 0
M  V30 2672 H 271.086 -2.97253 -2.6915 0
M  V30 2673 H 267.676 -3.95626 -1.64858 0
M  V30 2674 H 271.86 -4.81978 -1.18368 0
M  V30 2675 H 267.116 -6.08824 -0.560611 0
M  V30 2676 H 271.29 -6.96324 -0.103217 0
M  V30 2677 H 268.917 -7.59898 0.214181 0
M  V30 2678 N 270.492 0.636531 -1.44174 0
M  V30 2679 C 271.422 1.76003 -1.53444 0
M  V30 2680 C 272.403 1.65619 -0.387841 0
M  V30 2681 O 273.588 1.84461 -0.607257 0
M  V30 2682 C 270.718 3.14511 -1.4731 0
M  V30 2683 C 269.672 3.39677 -2.60391 0
M  V30 2684 C 268.998 4.78159 -2.39308 0
M  V30 2685 C 270.298 3.32772 -4.02567 0
M  V30 2686 H 271.992 1.68501 -2.47483 0
M  V30 2687 H 269.538 0.809237 -1.19111 0
M  V30 2688 H 271.491 3.92878 -1.52397 0
M  V30 2689 H 270.215 3.22783 -0.49785 0
M  V30 2690 H 268.874 2.63688 -2.54684 0
M  V30 2691 H 268.522 4.83128 -1.39988 0
M  V30 2692 H 268.222 4.95956 -3.15122 0
M  V30 2693 H 269.746 5.58762 -2.46205 0
M  V30 2694 H 271.16 4.01051 -4.09672 0
M  V30 2695 H 269.557 3.62104 -4.7854 0
M  V30 2696 H 270.627 2.30669 -4.2652 0
M  V30 2697 N 271.97 1.30982 0.876444 0
M  V30 2698 C 273.218 1.20058 1.62575 0
M  V30 2699 C 273.539 -0.242947 1.93481 0
M  V30 2700 O 272.809 -1.1619 1.57724 0
M  V30 2701 H 271.389 0.44135 0.602677 0
M  V30 2702 H 274.051 1.64222 1.04962 0
M  V30 2703 H 273.147 1.76762 2.57219 0
M  V30 2704 N 273.449 -1.08991 1.13837 0
M  V30 2705 C 274.698 -1.80631 0.897509 0
M  V30 2706 C 275.011 -1.86872 -0.57777 0
M  V30 2707 O 276.217 -2.54866 -0.935701 0
M  V30 2708 C 274.673 -3.24517 1.55618 0
M  V30 2709 C 274.281 -3.26529 3.0673 0
M  V30 2710 C 276.025 -4.00882 1.3962 0
M  V30 2711 C 273.932 -4.64965 3.65461 0
M  V30 2712 H 272.862 -0.67691 0.332129 0
M  V30 2713 H 275.513 -1.2246 1.3666 0
M  V30 2714 H 273.895 -3.82778 1.01476 0
M  V30 2715 H 275.069 -2.78008 3.67489 0
M  V30 2716 H 273.384 -2.63656 3.22296 0
M  V30 2717 H 275.981 -5.03167 1.80906 0
M  V30 2718 H 276.324 -4.14896 0.341578 0
M  V30 2719 H 276.857 -3.49075 1.90766 0
M  V30 2720 H 273.596 -4.56153 4.70749 0
M  V30 2721 H 273.116 -5.13792 3.09481 0
M  V30 2722 H 274.795 -5.3394 3.654 0
M  V30 2723 N 274.927 -0.932562 -1.27047 0
M  V30 2724 C 276.155 -0.592031 -1.98249 0
M  V30 2725 C 276.57 0.831062 -1.69525 0
M  V30 2726 O 275.927 1.55299 -0.958561 0
M  V30 2727 C 275.978 -0.814279 -3.5221 0
M  V30 2728 O 275.699 -2.18139 -3.7993 0
M  V30 2729 C 277.2 -0.483121 -4.4066 0
M  V30 2730 H 274.42 -0.223896 -0.632544 0
M  V30 2731 H 276.964 -1.25091 -1.61779 0
M  V30 2732 H 275.119 -0.20213 -3.86872 0
M  V30 2733 H 275.533 -2.235 -4.74498 0
M  V30 2734 H 277.007 -0.689298 -5.47679 0
M  V30 2735 H 277.484 0.581546 -4.35333 0
M  V30 2736 H 278.09 -1.07362 -4.11526 0
M  V30 2737 N 276.405 1.4127 -0.698611 0
M  V30 2738 C 277.682 1.94955 -0.158762 0
M  V30 2739 C 278.062 1.63781 1.33188 0
M  V30 2740 O 277.41 0.946423 2.07979 0
M  V30 2741 C 277.62 3.46044 -0.453309 0
M  V30 2742 C 278.968 4.22872 -0.382707 0
M  V30 2743 O 279.992 3.54076 -0.388396 0
M  V30 2744 O 278.851 5.45407 -0.345463 0
M  V30 2745 H 275.945 0.82683 -0.0167505 0
M  V30 2746 H 278.491 1.50971 -0.77498 0
M  V30 2747 H 277.263 3.62028 -1.48498 0
M  V30 2748 H 276.886 3.97128 0.19373 0
M  V30 2749 N 277.883 0.443576 1.51229 0
M  V30 2750 C 278.793 -0.370721 2.31652 0
M  V30 2751 C 279.809 -1.02186 1.40833 0
M  V30 2752 O 280.985 -1.01586 1.73903 0
M  V30 2753 C 278.05 -1.45376 3.14749 0
M  V30 2754 C 277.111 -0.822099 4.21355 0
M  V30 2755 C 276.344 -1.85353 5.0048 0
M  V30 2756 O 276.567 -3.07656 4.80316 0
M  V30 2757 O 275.501 -1.4406 5.84406 0
M  V30 2758 H 279.327 0.286002 3.0235 0
M  V30 2759 H 276.912 0.20598 1.47973 0
M  V30 2760 H 278.794 -2.08173 3.66391 0
M  V30 2761 H 277.469 -2.09445 2.46809 0
M  V30 2762 H 276.376 -0.155909 3.73775 0
M  V30 2763 H 277.709 -0.224797 4.91686 0
M  V30 2764 N 279.361 -1.56624 0.175154 0
M  V30 2765 C 280.308 -2.18149 -0.753634 0
M  V30 2766 C 281.278 -1.12265 -1.22417 0
M  V30 2767 O 282.463 -1.40432 -1.29165 0
M  V30 2768 C 279.603 -2.82933 -1.97592 0
M  V30 2769 C 278.716 -4.03289 -1.5486 0
M  V30 2770 C 277.851 -4.55988 -2.72485 0
M  V30 2771 C 276.89 -5.68746 -2.26262 0
M  V30 2772 N 276.027 -6.15938 -3.36994 0
M  V30 2773 H 280.867 -2.9717 -0.222195 0
M  V30 2774 H 278.404 -1.46774 -0.0979422 0
M  V30 2775 H 280.362 -3.18653 -2.69288 0
M  V30 2776 H 278.992 -2.06509 -2.481 0
M  V30 2777 H 278.044 -3.73364 -0.728246 0
M  V30 2778 H 279.356 -4.849 -1.16933 0
M  V30 2779 H 278.51 -4.9391 -3.52332 0
M  V30 2780 H 277.249 -3.73443 -3.13674 0
M  V30 2781 H 276.254 -5.30372 -1.44863 0
M  V30 2782 H 277.479 -6.53095 -1.86127 0
M  V30 2783 H 275.425 -5.36321 -3.77751 0
M  V30 2784 H 275.342 -6.92548 -3.03172 0
M  V30 2785 H 276.61 -6.58511 -4.17114 0
M  V30 2786 N 280.839 0.0985539 -1.57292 0
M  V30 2787 C 282.067 0.816318 -1.90115 0
M  V30 2788 C 282.482 1.72451 -0.768509 0
M  V30 2789 O 281.839 1.80643 0.259687 0
M  V30 2790 C 281.89 1.63259 -3.22535 0
M  V30 2791 O 281.611 0.760934 -4.31441 0
M  V30 2792 C 283.112 2.45372 -3.69199 0
M  V30 2793 H 280.332 0.233595 -0.629027 0
M  V30 2794 H 282.876 0.0768229 -2.04356 0
M  V30 2795 H 281.031 2.32463 -3.09903 0
M  V30 2796 H 281.445 1.32595 -5.07463 0
M  V30 2797 H 282.919 2.98144 -4.64558 0
M  V30 2798 H 283.396 3.23677 -2.96867 0
M  V30 2799 H 284.002 1.81373 -3.84687 0
M  V30 2800 N 282.317 1.53212 0.369288 0
M  V30 2801 C 283.227 1.82342 1.47609 0
M  V30 2802 C 284.243 0.711532 1.58787 0
M  V30 2803 O 285.419 1.0012 1.74751 0
M  V30 2804 C 282.484 2.00393 2.8292 0
M  V30 2805 C 281.545 3.24297 2.81301 0
M  V30 2806 C 280.778 3.41478 4.10157 0
M  V30 2807 O 281.001 2.63033 5.06132 0
M  V30 2808 O 279.935 4.34817 4.16194 0
M  V30 2809 H 283.761 2.76366 1.25918 0
M  V30 2810 H 281.346 1.38547 0.559034 0
M  V30 2811 H 283.228 2.13859 3.63101 0
M  V30 2812 H 281.903 1.09559 3.04596 0
M  V30 2813 H 280.81 3.16257 1.99831 0
M  V30 2814 H 282.143 4.15041 2.64578 0
M  V30 2815 N 283.795 -0.628877 1.44509 0
M  V30 2816 C 285.043 -1.38565 1.4712 0
M  V30 2817 C 285.364 -1.94712 0.105899 0
M  V30 2818 O 284.634 -1.75912 -0.862079 0
M  V30 2819 H 283.214 -0.514333 0.541729 0
M  V30 2820 H 285.876 -0.740018 1.80305 0
M  V30 2821 H 284.972 -2.21583 2.19789 0
M  V30 2822 N 285.273 -1.31445 -0.869486 0
M  V30 2823 C 286.205 -1.14955 -1.98287 0
M  V30 2824 C 287.218 -0.0885037 -1.62559 0
M  V30 2825 O 288.407 -0.336044 -1.75308 0
M  V30 2826 C 285.507 -0.734255 -3.3085 0
M  V30 2827 C 284.68 -1.88042 -3.94917 0
M  V30 2828 C 283.739 -1.4511 -5.05796 0
M  V30 2829 O 282.765 -2.16082 -5.2659 0
M  V30 2830 N 283.967 -0.338763 -5.79511 0
M  V30 2831 H 286.732 -2.10856 -2.12979 0
M  V30 2832 H 284.293 -1.23786 -1.04349 0
M  V30 2833 H 286.285 -0.42975 -4.02412 0
M  V30 2834 H 284.855 0.133158 -3.12316 0
M  V30 2835 H 284.075 -2.35222 -3.1633 0
M  V30 2836 H 285.363 -2.6481 -4.34457 0
M  V30 2837 H 284.761 0.252274 -5.65137 0
M  V30 2838 H 283.318 -0.0937925 -6.51733 0
M  V30 2839 N 286.751 1.08385 -1.14413 0
M  V30 2840 C 287.998 1.80776 -0.912482 0
M  V30 2841 C 288.326 1.86236 0.560934 0
M  V30 2842 O 287.581 1.33431 1.43159 0
M  V30 2843 C 287.88 3.26273 -1.45879 0
M  V30 2844 C 287.546 3.4093 -2.95089 0
M  V30 2845 C 286.208 3.44638 -3.35824 0
M  V30 2846 C 288.56 3.44591 -3.91033 0
M  V30 2847 C 285.888 3.49597 -4.71167 0
M  V30 2848 C 288.24 3.51086 -5.26233 0
M  V30 2849 C 286.904 3.53067 -5.6648 0
M  V30 2850 H 286.174 0.661507 -0.333901 0
M  V30 2851 H 288.821 1.27613 -1.42784 0
M  V30 2852 H 287.126 3.82146 -0.864376 0
M  V30 2853 H 288.823 3.80839 -1.2555 0
M  V30 2854 H 285.413 3.38736 -2.62594 0
M  V30 2855 H 289.597 3.40957 -3.60641 0
M  V30 2856 H 284.853 3.49424 -5.0171 0
M  V30 2857 H 289.027 3.52864 -6.00383 0
M  V30 2858 H 286.654 3.56662 -6.71339 0
M  V30 2859 N 288.23 0.939286 1.26551 0
M  V30 2860 C 289.476 0.586715 1.94128 0
M  V30 2861 C 289.809 -0.8717 1.73537 0
M  V30 2862 O 289.084 -1.62339 1.07127 0
M  V30 2863 C 289.367 0.927497 3.4795 0
M  V30 2864 C 289.22 2.44052 3.77834 0
M  V30 2865 C 290.539 0.441569 4.37879 0
M  V30 2866 H 287.658 0.21463 0.705055 0
M  V30 2867 H 290.3 1.17316 1.49455 0
M  V30 2868 H 288.45 0.428431 3.8613 0
M  V30 2869 H 290.122 3.01216 3.4938 0
M  V30 2870 H 288.365 2.8848 3.23978 0
M  V30 2871 H 289.036 2.62947 4.85348 0
M  V30 2872 H 291.512 0.869448 4.06915 0
M  V30 2873 H 290.388 0.708856 5.44304 0
M  V30 2874 H 290.649 -0.658467 4.37169 0
M  V30 2875 N 289.708 -1.40897 0.706093 0
M  V30 2876 C 290.985 -1.94868 0.169099 0
M  V30 2877 C 291.365 -1.64485 -1.32318 0
M  V30 2878 O 290.713 -0.95744 -2.07474 0
M  V30 2879 C 290.923 -3.45798 0.471654 0
M  V30 2880 C 292.271 -4.22663 0.405127 0
M  V30 2881 O 293.295 -3.53865 0.407168 0
M  V30 2882 O 292.154 -5.45216 0.374383 0
M  V30 2883 H 289.248 -0.82673 0.0211352 0
M  V30 2884 H 291.794 -1.50558 0.782976 0
M  V30 2885 H 290.566 -3.61235 1.50416 0
M  V30 2886 H 290.189 -3.97225 -0.172666 0
M  V30 2887 N 291.186 -0.45159 -1.50991 0
M  V30 2888 C 292.116 0.342898 -2.30969 0
M  V30 2889 C 293.097 1.00815 -1.37005 0
M  V30 2890 O 294.282 1.00907 -1.65926 0
M  V30 2891 C 291.412 1.43637 -3.16205 0
M  V30 2892 C 290.366 0.893818 -4.18563 0
M  V30 2893 C 289.692 2.08411 -4.92411 0
M  V30 2894 C 290.992 -0.0815568 -5.22236 0
M  V30 2895 H 292.686 -0.324556 -2.97636 0
M  V30 2896 H 290.232 -0.157531 -1.43136 0
M  V30 2897 H 292.185 1.9995 -3.70942 0
M  V30 2898 H 290.909 2.13232 -2.47386 0
M  V30 2899 H 289.568 0.352798 -3.64898 0
M  V30 2900 H 289.216 2.76658 -4.20082 0
M  V30 2901 H 288.916 1.72741 -5.61636 0
M  V30 2902 H 290.44 2.65251 -5.49976 0
M  V30 2903 H 291.854 0.391742 -5.7196 0
M  V30 2904 H 290.251 -0.351551 -5.99069 0
M  V30 2905 H 291.321 -1.01374 -4.74185 0
M  V30 2906 N 292.664 1.56529 -0.183458 0
M  V30 2907 C 293.892 2.01623 0.464285 0
M  V30 2908 C 294.307 1.06366 1.55986 0
M  V30 2909 O 293.664 0.0665398 1.82379 0
M  V30 2910 C 293.715 3.46475 1.03139 0
M  V30 2911 O 293.436 4.38095 -0.0204675 0
M  V30 2912 C 294.937 4.0703 1.75617 0
M  V30 2913 H 292.157 0.660596 0.117704 0
M  V30 2914 H 294.701 2.02451 -0.288751 0
M  V30 2915 H 292.856 3.46383 1.73486 0
M  V30 2916 H 293.27 5.22973 0.399952 0
M  V30 2917 H 294.744 5.10271 2.10542 0
M  V30 2918 H 295.221 3.49819 2.65563 0
M  V30 2919 H 295.827 4.1086 1.09882 0
M  V30 2920 N 294.142 -0.090211 1.57342 0
M  V30 2921 C 295.39 -0.791241 1.85967 0
M  V30 2922 C 295.711 -1.7903 0.772859 0
M  V30 2923 O 294.981 -1.94872 -0.200398 0
M  V30 2924 H 293.561 -0.295205 0.686195 0
M  V30 2925 H 296.223 -0.0706782 1.94772 0
M  V30 2926 H 295.319 -1.31882 2.82867 0
M  V30 2927 N 295.62 -1.53406 -0.361157 0
M  V30 2928 C 296.568 -1.80832 -1.46296 0
M  V30 2929 C 297.562 -0.677699 -1.55253 0
M  V30 2930 O 298.768 -0.860723 -1.58087 0
M  V30 2931 H 295.143 -0.572627 -0.487445 0
M  V30 2932 H 297.114 -2.73045 -1.20371 0
M  V30 2933 C 295.863 -2.01907 -2.8307 0
M  V30 2934 H 295.186 -2.88349 -2.76938 0
M  V30 2935 H 296.626 -2.25072 -3.59331 0
M  V30 2936 C 295.085 -0.799449 -3.27277 0
M  V30 2937 O 295.615 0.00971761 -4.01699 0
M  V30 2938 N 293.821 -0.621637 -2.83873 0
M  V30 2939 H 293.368 -1.28126 -2.23476 0
M  V30 2940 H 293.326 0.19298 -3.13807 0
M  V30 2941 N 297.098 0.621204 -1.44841 0
M  V30 2942 C 298.514 0.94048 -1.28946 0
M  V30 2943 C 298.714 2.00154 -0.23249 0
M  V30 2944 O 297.77 2.49651 0.378237 0
M  V30 2945 C 299.083 1.39433 -2.66419 0
M  V30 2946 C 300.631 1.50927 -2.74208 0
M  V30 2947 C 301.106 1.99692 -4.12174 0
M  V30 2948 N 302.597 2.06947 -4.144 0
M  V30 2949 C 303.332 2.45871 -5.1801 0
M  V30 2950 N 302.828 2.83862 -6.31977 0
M  V30 2951 N 304.621 2.46092 -5.05366 0
M  V30 2952 H 296.772 -0.0803548 -2.12248 0
M  V30 2953 H 299.035 0.0266913 -0.947624 0
M  V30 2954 H 298.741 0.688925 -3.44887 0
M  V30 2955 H 298.615 2.36347 -2.93973 0
M  V30 2956 H 301.002 2.20561 -1.96053 0
M  V30 2957 H 301.083 0.523627 -2.50383 0
M  V30 2958 H 300.727 1.30649 -4.90809 0
M  V30 2959 H 300.657 2.99146 -4.33381 0
M  V30 2960 H 303.148 1.80232 -3.32152 0
M  V30 2961 H 303.461 3.12405 -7.0684 0
M  V30 2962 H 301.806 2.8159 -6.35399 0
M  V30 2963 H 304.997 2.1581 -4.15384 0
M  V30 2964 H 305.17 2.76102 -5.86235 0
M  V30 2965 N 298.576 1.31904 0.862503 0
M  V30 2966 C 299.506 1.22782 1.98612 0
M  V30 2967 C 300.487 0.113362 1.69722 0
M  V30 2968 O 301.672 0.299218 1.91881 0
M  V30 2969 C 298.802 0.942058 3.34279 0
M  V30 2970 C 297.756 2.0169 3.77499 0
M  V30 2971 C 297.082 1.58369 5.10709 0
M  V30 2972 C 298.382 3.43096 3.93805 0
M  V30 2973 H 300.076 2.16788 2.06502 0
M  V30 2974 H 297.622 1.04366 0.992154 0
M  V30 2975 H 299.575 0.864818 4.1243 0
M  V30 2976 H 298.299 -0.0336603 3.26583 0
M  V30 2977 H 296.958 2.08416 3.01593 0
M  V30 2978 H 296.606 0.595628 4.99461 0
M  V30 2979 H 296.306 2.30279 5.40597 0
M  V30 2980 H 297.83 1.52067 5.91361 0
M  V30 2981 H 299.244 3.39003 4.62331 0
M  V30 2982 H 297.641 4.13288 4.35101 0
M  V30 2983 H 298.711 3.83334 2.96957 0
M  V30 2984 N 300.054 -1.07777 1.14986 0
M  V30 2985 C 301.282 -1.84018 0.945773 0
M  V30 2986 C 301.697 -1.81897 -0.505863 0
M  V30 2987 O 301.054 -1.22726 -1.35072 0
M  V30 2988 C 301.105 -3.31287 1.44677 0
M  V30 2989 O 300.826 -3.33449 2.84154 0
M  V30 2990 C 302.327 -4.24311 1.28355 0
M  V30 2991 H 299.547 -0.580716 0.336169 0
M  V30 2992 H 302.091 -1.36077 1.52654 0
M  V30 2993 H 300.246 -3.76594 0.908625 0
M  V30 2994 H 300.66 -4.25427 3.06777 0
M  V30 2995 H 302.134 -5.2573 1.68261 0
M  V30 2996 H 302.611 -4.38612 0.227184 0
M  V30 2997 H 303.217 -3.84836 1.81056 0
M  V30 2998 N 301.532 -0.945985 -1.26051 0
M  V30 2999 C 302.762 -0.612136 -1.97323 0
M  V30 3000 C 303.17 0.818171 -1.70595 0
M  V30 3001 O 302.513 1.55777 -0.973613 0
M  V30 3002 C 302.575 -0.780347 -3.50929 0
M  V30 3003 C 302.239 -2.18619 -4.01317 0
M  V30 3004 C 303.236 -3.16209 -4.12683 0
M  V30 3005 C 300.921 -2.50805 -4.35203 0
M  V30 3006 C 302.915 -4.44085 -4.57238 0
M  V30 3007 C 300.602 -3.78912 -4.79446 0
M  V30 3008 C 301.6 -4.75365 -4.90425 0
M  V30 3009 O 301.288 -6.01191 -5.3369 0
M  V30 3010 H 301.02 -0.229134 -0.635982 0
M  V30 3011 H 303.574 -1.27036 -1.61404 0
M  V30 3012 H 301.804 -0.0649864 -3.86645 0
M  V30 3013 H 303.493 -0.448842 -4.03411 0
M  V30 3014 H 304.259 -2.92668 -3.86744 0
M  V30 3015 H 300.138 -1.76463 -4.2589 0
M  V30 3016 H 303.682 -5.19373 -4.65723 0
M  V30 3017 H 299.579 -4.02265 -5.0483 0
M  V30 3018 H 300.347 -6.04442 -5.51899 0
M  V30 3019 N 303.011 1.40521 -0.713556 0
M  V30 3020 C 304.239 2.05237 -0.261775 0
M  V30 3021 C 304.654 1.53755 1.09567 0
M  V30 3022 O 304.011 0.693268 1.6882 0
M  V30 3023 C 304.062 3.60763 -0.230706 0
M  V30 3024 O 303.783 4.10345 -1.53455 0
M  V30 3025 C 305.284 4.42651 0.239874 0
M  V30 3026 H 302.504 0.660533 -0.118057 0
M  V30 3027 H 305.048 1.79967 -0.971192 0
M  V30 3028 H 303.203 3.8501 0.429661 0
M  V30 3029 H 303.617 5.04526 -1.43366 0
M  V30 3030 H 305.091 5.51599 0.210468 0
M  V30 3031 H 305.568 4.20082 1.28171 0
M  V30 3032 H 306.174 4.23507 -0.390142 0
M  V30 3033 N 304.489 0.459591 1.5075 0
M  V30 3034 C 305.437 -0.354678 2.2988 0
M  V30 3035 C 306.431 -1.00086 1.36672 0
M  V30 3036 O 307.637 -0.933277 1.53915 0
M  V30 3037 H 304.012 -0.13321 0.740107 0
M  V30 3038 H 305.983 0.333269 2.96533 0
M  V30 3039 C 304.732 -1.43073 3.169 0
M  V30 3040 H 304.055 -0.942882 3.88523 0
M  V30 3041 H 305.495 -1.97328 3.75284 0
M  V30 3042 C 303.954 -2.42633 2.33732 0
M  V30 3043 O 304.484 -3.47658 2.01238 0
M  V30 3044 N 302.69 -2.14066 1.9653 0
M  V30 3045 H 302.237 -1.28685 2.23155 0
M  V30 3046 H 302.195 -2.80917 1.41185 0
M  V30 3047 N 305.967 -1.56429 0.191757 0
M  V30 3048 C 307.213 -1.98541 -0.441943 0
M  V30 3049 C 307.568 -1.07646 -1.59468 0
M  V30 3050 O 306.861 -0.120191 -1.91223 0
M  V30 3051 C 307.055 -3.44449 -0.953384 0
M  V30 3052 C 306.884 -4.49456 0.148262 0
M  V30 3053 C 305.654 -5.01668 0.604781 0
M  V30 3054 C 307.852 -5.05336 0.95602 0
M  V30 3055 N 305.834 -5.90334 1.6846 0
M  V30 3056 C 307.205 -5.9064 1.88531 0
M  V30 3057 C 309.26 -4.87779 0.998811 0
M  V30 3058 C 307.963 -6.60264 2.85383 0
M  V30 3059 C 309.989 -5.58139 1.95537 0
M  V30 3060 C 309.351 -6.43187 2.8721 0
M  V30 3061 H 305.45 -0.771247 -0.129236 0
M  V30 3062 H 308.034 -1.92426 0.296682 0
M  V30 3063 H 306.205 -3.5107 -1.66146 0
M  V30 3064 H 307.937 -3.73533 -1.55741 0
M  V30 3065 H 304.692 -4.73183 0.198736 0
M  V30 3066 H 305.116 -6.39371 2.22561 0
M  V30 3067 H 309.758 -4.21705 0.304048 0
M  V30 3068 H 307.476 -7.25538 3.55837 0
M  V30 3069 H 311.062 -5.46532 1.99484 0
M  V30 3070 H 309.942 -6.96674 3.60022 0
M  V30 3071 N 307.445 0.0818655 -1.57387 0
M  V30 3072 C 308.393 1.11712 -2.04018 0
M  V30 3073 C 309.387 1.40683 -0.94364 0
M  V30 3074 O 310.593 1.40209 -1.12878 0
M  V30 3075 H 306.968 0.377542 -0.650358 0
M  V30 3076 H 308.939 0.697614 -2.90131 0
M  V30 3077 C 307.688 2.42537 -2.49141 0
M  V30 3078 H 307.011 2.21092 -3.33104 0
M  V30 3079 H 308.451 3.13446 -2.85531 0
M  V30 3080 C 306.91 3.0778 -1.37014 0
M  V30 3081 O 307.44 3.95436 -0.706621 0
M  V30 3082 N 305.646 2.68242 -1.11779 0
M  V30 3083 H 305.193 1.97052 -1.65917 0
M  V30 3084 H 305.151 3.1222 -0.369594 0
M  V30 3085 N 308.923 1.53595 0.353017 0
M  V30 3086 C 309.833 1.83897 1.45667 0
M  V30 3087 C 310.849 0.728334 1.58023 0
M  V30 3088 O 312.025 1.01968 1.73679 0
M  V30 3089 C 309.09 2.03383 2.80778 0
M  V30 3090 C 308.151 3.27262 2.77845 0
M  V30 3091 C 307.384 3.45809 4.06512 0
M  V30 3092 O 307.607 2.68387 5.03314 0
M  V30 3093 O 306.541 4.39207 4.11559 0
M  V30 3094 H 310.367 2.77686 1.2298 0
M  V30 3095 H 307.952 1.39132 0.544308 0
M  V30 3096 H 309.834 2.17698 3.60812 0
M  V30 3097 H 308.509 1.12783 3.03417 0
M  V30 3098 H 307.416 3.18359 1.96465 0
M  V30 3099 H 308.749 4.17824 2.60161 0
M  V30 3100 N 310.401 -0.613514 1.45168 0
M  V30 3101 C 311.649 -1.36997 1.48581 0
M  V30 3102 C 311.97 -1.94589 0.126545 0
M  V30 3103 O 311.24 -1.76816 -0.843372 0
M  V30 3104 H 309.82 -0.508558 0.547154 0
M  V30 3105 H 312.482 -0.720853 1.81079 0
M  V30 3106 H 311.578 -2.1924 2.22127 0
M  V30 3107 N 311.879 -1.3236 -0.855495 0
M  V30 3108 C 312.789 -1.23221 -1.99634 0
M  V30 3109 C 313.805 -0.145983 -1.73387 0
M  V30 3110 O 314.981 -0.366502 -1.98037 0
M  V30 3111 C 312.046 -0.954782 -3.33294 0
M  V30 3112 C 311.107 -2.12937 -3.72769 0
M  V30 3113 C 310.34 -1.86508 -5.00051 0
M  V30 3114 O 310.563 -0.807231 -5.64659 0
M  V30 3115 O 309.497 -2.72591 -5.36636 0
M  V30 3116 H 313.323 -2.19126 -2.1028 0
M  V30 3117 H 310.908 -1.12241 -0.986018 0
M  V30 3118 H 312.79 -0.816519 -4.13414 0
M  V30 3119 H 311.465 -0.0258854 -3.2369 0
M  V30 3120 H 310.372 -2.3231 -2.93228 0
M  V30 3121 H 311.705 -3.04102 -3.87018 0
M  V30 3122 N 313.357 1.07166 -1.15556 0
M  V30 3123 C 314.768 1.6127 -0.940693 0
M  V30 3124 C 315.119 1.89251 0.517551 0
M  V30 3125 O 314.244 1.65937 1.38903 0
M  V30 3126 C 314.839 2.92993 -1.7012 0
M  V30 3127 C 313.398 3.43832 -1.53156 0
M  V30 3128 C 312.545 2.1786 -1.71558 0
M  V30 3129 H 315.496 0.90229 -1.30554 0
M  V30 3130 H 315.517 3.62007 -1.17181 0
M  V30 3131 H 315.029 2.72596 -2.76248 0
M  V30 3132 H 313.13 3.69307 -0.494294 0
M  V30 3133 H 313.243 4.19747 -2.30975 0
M  V30 3134 H 311.607 2.2765 -1.14225 0
M  V30 3135 H 312.39 1.99956 -2.79056 0
M  V30 3136 N 314.835 0.952656 1.25548 0
M  V30 3137 C 315.783 0.462354 2.27958 0
M  V30 3138 C 316.777 -0.46634 1.62855 0
M  V30 3139 O 317.983 -0.343287 1.76696 0
M  V30 3140 H 314.358 0.13101 0.7405 0
M  V30 3141 H 316.329 1.33839 2.66702 0
M  V30 3142 C 315.078 -0.24628 3.46827 0
M  V30 3143 H 314.401 0.459192 3.97154 0
M  V30 3144 H 315.841 -0.553393 4.20373 0
M  V30 3145 C 314.3 -1.4681 3.0323 0
M  V30 3146 O 314.83 -2.56591 3.09069 0
M  V30 3147 N 313.036 -1.32874 2.58443 0
M  V30 3148 H 312.583 -0.435536 2.53891 0
M  V30 3149 H 312.541 -2.14742 2.29637 0
M  V30 3150 N 316.313 -1.40141 0.720998 0
M  V30 3151 C 317.261 -2.3252 0.0608547 0
M  V30 3152 C 318.255 -1.52326 -0.741152 0
M  V30 3153 O 319.461 -1.68089 -0.643911 0
M  V30 3154 H 315.836 -0.751999 0.000876664 0
M  V30 3155 H 317.807 -2.8584 0.856614 0
M  V30 3156 C 316.556 -3.37331 -0.842809 0
M  V30 3157 H 315.879 -3.99108 -0.235084 0
M  V30 3158 H 317.319 -4.04452 -1.27257 0
M  V30 3159 C 315.778 -2.73246 -1.97074 0
M  V30 3160 O 316.308 -2.59998 -3.06209 0
M  V30 3161 N 314.514 -2.31547 -1.75597 0
M  V30 3162 H 314.061 -2.42522 -0.868368 0
M  V30 3163 H 314.019 -1.89007 -2.51244 0
M  V30 3164 N 317.792 -0.46758 -1.50504 0
M  V30 3165 C 318.755 0.317059 -2.26996 0
M  V30 3166 C 319.755 0.923513 -1.31635 0
M  V30 3167 O 320.945 0.793239 -1.55091 0
M  V30 3168 C 318.077 1.45134 -3.08462 0
M  V30 3169 H 319.27 -0.353723 -2.97807 0
M  V30 3170 H 316.823 -0.221545 -1.54722 0
M  V30 3171 H 317.558 2.15728 -2.4214 0
M  V30 3172 H 317.343 1.02232 -3.78538 0
M  V30 3173 H 318.833 2.00493 -3.66323 0
M  V30 3174 N 319.27 1.56325 -0.20005 0
M  V30 3175 C 320.518 1.97329 0.436547 0
M  V30 3176 C 320.839 1.08826 1.61808 0
M  V30 3177 O 320.109 0.160604 1.95241 0
M  V30 3178 H 318.689 0.728714 0.164272 0
M  V30 3179 H 321.351 1.92761 -0.287937 0
M  V30 3180 H 320.447 3.02264 0.777353 0
M  V30 3181 N 320.748 -0.0735177 1.57428 0
M  V30 3182 C 321.973 -0.789787 1.91774 0
M  V30 3183 C 322.398 -1.70413 0.796306 0
M  V30 3184 O 321.756 -1.79555 -0.250961 0
M  V30 3185 C 321.804 -1.5609 3.25067 0
M  V30 3186 O 320.908 -2.67144 3.14178 0
M  V30 3187 H 320.249 -0.215582 0.628029 0
M  V30 3188 H 322.779 -0.0422781 2.04556 0
M  V30 3189 H 322.789 -1.94052 3.58898 0
M  V30 3190 H 321.464 -0.890015 4.06265 0
M  V30 3191 H 320.041 -2.32052 2.91901 0
M  V30 3192 N 322.226 -1.5378 -0.344866 0
M  V30 3193 C 323.503 -1.61589 -1.10219 0
M  V30 3194 C 323.883 -0.436316 -2.06542 0
M  V30 3195 O 323.231 0.571543 -2.21237 0
M  V30 3196 C 323.441 -2.97602 -1.82301 0
M  V30 3197 C 324.789 -3.5291 -2.36093 0
M  V30 3198 O 325.813 -2.99768 -1.924 0
M  V30 3199 O 324.672 -4.45859 -3.16026 0
M  V30 3200 H 321.766 -0.653522 -0.506792 0
M  V30 3201 H 324.312 -1.66126 -0.346465 0
M  V30 3202 H 323.084 -3.74893 -1.12121 0
M  V30 3203 H 322.707 -2.9665 -2.64735 0
M  V30 3204 N 323.704 0.605807 -1.45491 0
M  V30 3205 C 324.614 1.74466 -1.56839 0
M  V30 3206 C 325.63 1.68006 -0.452772 0
M  V30 3207 O 326.806 1.8833 -0.713708 0
M  V30 3208 C 323.871 3.10931 -1.53371 0
M  V30 3209 C 322.932 3.28832 -2.75986 0
M  V30 3210 C 322.165 4.58787 -2.72673 0
M  V30 3211 O 322.388 5.4122 -1.80102 0
M  V30 3212 O 321.322 4.79438 -3.63899 0
M  V30 3213 H 325.148 1.67843 -2.53106 0
M  V30 3214 H 322.733 0.770108 -1.28022 0
M  V30 3215 H 324.615 3.92233 -1.54051 0
M  V30 3216 H 323.29 3.18042 -0.602572 0
M  V30 3217 H 322.197 2.47112 -2.80867 0
M  V30 3218 H 323.53 3.26599 -3.68231 0
M  V30 3219 N 325.182 1.32811 0.848464 0
M  V30 3220 C 326.459 1.14334 1.58704 0
M  V30 3221 C 326.839 -0.293948 2.09043 0
M  V30 3222 O 326.187 -1.29153 1.88499 0
M  V30 3223 C 326.397 2.17626 2.72837 0
M  V30 3224 C 327.745 2.51282 3.42261 0
M  V30 3225 O 328.769 2.16219 2.83068 0
M  V30 3226 O 327.628 3.11413 4.49093 0
M  V30 3227 H 324.722 0.441601 0.699226 0
M  V30 3228 H 327.268 1.44362 0.892053 0
M  V30 3229 H 326.04 3.14211 2.3321 0
M  V30 3230 H 325.663 1.88628 3.50008 0
M  V30 3231 N 326.66 -1.06551 1.16123 0
M  V30 3232 C 327.9 -1.80889 0.951766 0
M  V30 3233 C 328.264 -1.85062 -0.511465 0
M  V30 3234 O 329.465 -2.55353 -0.83954 0
M  V30 3235 C 327.736 -3.21609 1.55893 0
M  V30 3236 S 329.295 -4.12593 1.49373 0
M  V30 3237 H 326.113 -0.623156 0.342341 0
M  V30 3238 H 328.715 -1.27943 1.47821 0
M  V30 3239 H 327.419 -3.16165 2.61664 0
M  V30 3240 H 326.95 -3.79631 1.0317 0
M  V30 3241 H 328.965 -4.93753 0.492196 0
M  V30 3242 N 328.138 -0.959301 -1.25041 0
M  V30 3243 C 329.384 -0.617525 -1.9317 0
M  V30 3244 C 329.717 0.843981 -1.74902 0
M  V30 3245 O 328.992 1.60615 -1.09696 0
M  V30 3246 C 329.275 -0.982736 -3.46431 0
M  V30 3247 C 329.128 -2.50032 -3.73904 0
M  V30 3248 C 330.447 -0.511176 -4.37121 0
M  V30 3249 H 327.566 -0.22582 -0.701552 0
M  V30 3250 H 330.208 -1.19679 -1.4757 0
M  V30 3251 H 328.358 -0.489806 -3.854 0
M  V30 3252 H 330.03 -3.06737 -3.44544 0
M  V30 3253 H 328.273 -2.93598 -3.19348 0
M  V30 3254 H 328.944 -2.70635 -4.81103 0
M  V30 3255 H 331.42 -0.934075 -4.0548 0
M  V30 3256 H 330.296 -0.795361 -5.43107 0
M  V30 3257 H 330.557 0.588834 -4.38161 0
M  V30 3258 N 329.616 1.39756 -0.72842 0
M  V30 3259 C 330.546 2.33289 -0.0991354 0
M  V30 3260 C 331.527 1.53568 0.731489 0
M  V30 3261 O 332.712 1.81987 0.677807 0
M  V30 3262 C 329.842 3.3763 0.813834 0
M  V30 3263 C 328.796 4.2791 0.0878663 0
M  V30 3264 C 328.122 5.22894 1.11741 0
M  V30 3265 C 329.422 5.11314 -1.06563 0
M  V30 3266 H 331.116 2.86163 -0.880408 0
M  V30 3267 H 328.662 1.37591 -0.424819 0
M  V30 3268 H 330.615 4.0201 1.26355 0
M  V30 3269 H 329.339 2.83181 1.62715 0
M  V30 3270 H 327.998 3.65 -0.342159 0
M  V30 3271 H 327.646 4.64744 1.92412 0
M  V30 3272 H 327.346 5.84143 0.636477 0
M  V30 3273 H 328.87 5.90151 1.56697 0
M  V30 3274 H 330.284 5.69076 -0.694671 0
M  V30 3275 H 328.681 5.81671 -1.47577 0
M  V30 3276 H 329.751 4.46534 -1.89038 0
M  V30 3277 N 331.094 0.475555 1.50254 0
M  V30 3278 C 332.024 -0.30611 2.31485 0
M  V30 3279 C 333.005 -0.986228 1.38591 0
M  V30 3280 O 334.19 -0.982541 1.67511 0
M  V30 3281 C 331.32 -1.38588 3.1845 0
M  V30 3282 C 330.274 -0.827115 4.19932 0
M  V30 3283 C 329.6 -2.00551 4.95665 0
M  V30 3284 C 330.9 0.16463 5.2204 0
M  V30 3285 H 332.594 0.371866 2.97082 0
M  V30 3286 H 330.14 0.180282 1.42867 0
M  V30 3287 H 332.093 -1.94023 3.74076 0
M  V30 3288 H 330.817 -2.09269 2.50747 0
M  V30 3289 H 329.476 -0.294702 3.65414 0
M  V30 3290 H 329.124 -2.6994 4.2443 0
M  V30 3291 H 328.824 -1.63784 5.64313 0
M  V30 3292 H 330.348 -2.56468 5.54127 0
M  V30 3293 H 331.762 -0.300699 5.72511 0
M  V30 3294 H 330.159 0.446813 5.98434 0
M  V30 3295 H 331.229 1.08905 4.72512 0
M  V30 3296 N 332.573 -1.56217 0.208337 0
M  V30 3297 C 333.503 -2.22694 -0.702116 0
M  V30 3298 C 334.484 -1.19432 -1.2112 0
M  V30 3299 O 335.669 -1.47978 -1.25762 0
M  V30 3300 C 332.799 -2.8966 -1.9161 0
M  V30 3301 C 331.753 -3.9928 -1.5414 0
M  V30 3302 C 331.079 -4.53476 -2.83308 0
M  V30 3303 C 332.379 -5.17012 -0.741339 0
M  V30 3304 H 334.073 -2.99034 -0.147898 0
M  V30 3305 H 331.619 -1.43831 -0.0696951 0
M  V30 3306 H 333.572 -3.34852 -2.55836 0
M  V30 3307 H 332.296 -2.10746 -2.49507 0
M  V30 3308 H 330.955 -3.54799 -0.922668 0
M  V30 3309 H 330.603 -3.71308 -3.39322 0
M  V30 3310 H 330.303 -5.27451 -2.58976 0
M  V30 3311 H 331.827 -5.01378 -3.485 0
M  V30 3312 H 333.241 -5.58667 -1.28699 0
M  V30 3313 H 331.638 -5.97137 -0.595627 0
M  V30 3314 H 332.708 -4.8423 0.254851 0
M  V30 3315 N 334.051 0.0651679 -1.57465 0
M  V30 3316 C 334.998 1.07675 -2.04144 0
M  V30 3317 C 335.968 1.38071 -0.923335 0
M  V30 3318 O 337.153 1.49026 -1.19146 0
M  V30 3319 C 334.293 2.38337 -2.49579 0
M  V30 3320 C 333.406 2.14413 -3.75035 0
M  V30 3321 C 332.541 3.38686 -4.09225 0
M  V30 3322 C 331.58 3.10156 -5.27702 0
M  V30 3323 N 330.717 4.26778 -5.57499 0
M  V30 3324 H 335.557 0.671716 -2.90331 0
M  V30 3325 H 333.094 0.3201 -1.43575 0
M  V30 3326 H 335.052 3.14632 -2.73975 0
M  V30 3327 H 333.682 2.7663 -1.6636 0
M  V30 3328 H 332.734 1.2878 -3.57939 0
M  V30 3329 H 334.046 1.89344 -4.61466 0
M  V30 3330 H 333.2 4.23373 -4.34558 0
M  V30 3331 H 331.939 3.66837 -3.21374 0
M  V30 3332 H 330.944 2.23866 -5.02159 0
M  V30 3333 H 332.169 2.8332 -6.17176 0
M  V30 3334 H 330.115 4.54948 -4.72608 0
M  V30 3335 H 330.032 4.05005 -6.38362 0
M  V30 3336 H 331.3 5.12443 -5.87386 0
M  V30 3337 N 335.529 1.53961 0.336706 0
M  V30 3338 C 336.477 1.83136 1.43401 0
M  V30 3339 C 337.471 0.702313 1.54156 0
M  V30 3340 O 338.677 0.885765 1.56698 0
M  V30 3341 H 335.052 0.580309 0.478273 0
M  V30 3342 H 337.023 2.74925 1.16012 0
M  V30 3343 C 335.772 2.06385 2.79822 0
M  V30 3344 H 335.095 2.92718 2.72316 0
M  V30 3345 H 336.535 2.30761 3.55704 0
M  V30 3346 C 334.994 0.851414 3.25964 0
M  V30 3347 O 335.524 0.0541904 4.01663 0
M  V30 3348 N 333.73 0.66672 2.82848 0
M  V30 3349 H 333.277 1.31665 2.21409 0
M  V30 3350 H 333.235 -0.143032 3.14074 0
M  V30 3351 N 337.007 -0.598083 1.45811 0
M  V30 3352 C 338.255 -1.35413 1.50026 0
M  V30 3353 C 338.576 -1.94444 0.147177 0
M  V30 3354 O 337.846 -1.77701 -0.824571 0
M  V30 3355 H 336.426 -0.502727 0.552517 0
M  V30 3356 H 339.088 -0.701606 1.81834 0
M  V30 3357 H 338.184 -2.16871 2.2444 0
M  V30 3358 N 338.485 -1.33259 -0.841409 0
M  V30 3359 C 339.417 -1.19136 -1.95804 0
M  V30 3360 C 340.43 -0.122965 -1.62335 0
M  V30 3361 O 341.619 -0.373154 -1.74556 0
M  V30 3362 C 338.719 -0.804268 -3.29218 0
M  V30 3363 C 337.892 -1.96376 -3.90839 0
M  V30 3364 C 336.951 -1.55806 -5.02604 0
M  V30 3365 O 335.977 -2.27203 -5.21888 0
M  V30 3366 N 337.179 -0.461609 -5.78662 0
M  V30 3367 H 339.944 -2.15326 -2.08458 0
M  V30 3368 H 337.505 -1.25971 -1.017 0
M  V30 3369 H 339.497 -0.51501 -4.0141 0
M  V30 3370 H 338.067 0.0668809 -3.12528 0
M  V30 3371 H 337.287 -2.41879 -3.11269 0
M  V30 3372 H 338.575 -2.73966 -4.28742 0
M  V30 3373 H 337.973 0.132343 -5.65545 0
M  V30 3374 H 336.53 -0.232013 -6.51387 0
M  V30 3375 N 339.963 1.05934 -1.16686 0
M  V30 3376 C 341.209 1.79211 -0.962023 0
M  V30 3377 C 341.564 1.85667 0.504545 0
M  V30 3378 O 340.857 1.33991 1.36956 0
M  V30 3379 C 341.051 3.23105 -1.52767 0
M  V30 3380 C 340.88 3.30673 -3.04771 0
M  V30 3381 C 339.65 3.40395 -3.73442 0
M  V30 3382 C 341.848 3.20234 -4.02436 0
M  V30 3383 N 339.83 3.37015 -5.13122 0
M  V30 3384 C 341.201 3.24138 -5.28521 0
M  V30 3385 C 343.256 3.04143 -3.9421 0
M  V30 3386 C 341.959 3.13607 -6.47336 0
M  V30 3387 C 343.985 2.94951 -5.12599 0
M  V30 3388 C 343.347 2.99481 -6.37566 0
M  V30 3389 H 339.446 0.668442 -0.405844 0
M  V30 3390 H 342.03 1.26341 -1.48142 0
M  V30 3391 H 340.201 3.74364 -1.03471 0
M  V30 3392 H 341.933 3.84579 -1.26021 0
M  V30 3393 H 338.688 3.45344 -3.2409 0
M  V30 3394 H 339.112 3.38815 -5.86117 0
M  V30 3395 H 343.754 2.99484 -2.98445 0
M  V30 3396 H 341.472 3.17022 -7.43319 0
M  V30 3397 H 345.058 2.83583 -5.08008 0
M  V30 3398 H 343.938 2.92431 -7.27636 0
M  V30 3399 N 341.441 0.965919 1.2453 0
M  V30 3400 C 342.389 0.486506 2.27455 0
M  V30 3401 C 343.383 -0.449041 1.6334 0
M  V30 3402 O 344.589 -0.324527 1.7705 0
M  V30 3403 H 340.964 0.138857 0.739069 0
M  V30 3404 H 342.935 1.3666 2.65267 0
M  V30 3405 C 341.684 -0.209481 3.47068 0
M  V30 3406 H 341.007 0.50129 3.96645 0
M  V30 3407 H 342.447 -0.508775 4.20936 0
M  V30 3408 C 340.906 -1.43586 3.0477 0
M  V30 3409 O 341.436 -2.53299 3.11773 0
M  V30 3410 N 339.642 -1.30126 2.59838 0
M  V30 3411 H 339.189 -0.408583 2.54339 0
M  V30 3412 H 339.147 -2.12294 2.31902 0
M  V30 3413 N 342.919 -1.39368 0.735821 0
M  V30 3414 C 344.196 -1.94465 0.210395 0
M  V30 3415 C 344.576 -1.67254 -1.28799 0
M  V30 3416 O 343.924 -1.00123 -2.05396 0
M  V30 3417 C 344.134 -3.4472 0.544897 0
M  V30 3418 C 345.482 -4.21708 0.494689 0
M  V30 3419 O 346.506 -3.52922 0.482136 0
M  V30 3420 O 345.365 -5.44299 0.489947 0
M  V30 3421 H 342.459 -0.826096 0.0386666 0
M  V30 3422 H 345.005 -1.48863 0.814735 0
M  V30 3423 H 343.777 -3.57963 1.58045 0
M  V30 3424 H 343.4 -3.97502 -0.08837 0
M  V30 3425 N 344.397 -0.483516 -1.5 0
M  V30 3426 C 345.643 0.0672592 -2.02688 0
M  V30 3427 C 345.976 1.38247 -1.36387 0
M  V30 3428 O 345.251 1.88131 -0.493675 0
M  V30 3429 C 345.534 0.238109 -3.59312 0
M  V30 3430 C 345.387 -1.099 -4.36168 0
M  V30 3431 C 346.706 0.986916 -4.28892 0
M  V30 3432 H 343.825 0.0229696 -0.736642 0
M  V30 3433 H 346.467 -0.631527 -1.79197 0
M  V30 3434 H 344.617 0.8333 -3.79458 0
M  V30 3435 H 346.289 -1.73172 -4.27562 0
M  V30 3436 H 344.532 -1.69261 -3.99416 0
M  V30 3437 H 345.203 -0.932954 -5.44059 0
M  V30 3438 H 347.679 0.482302 -4.13295 0
M  V30 3439 H 346.555 1.07527 -5.38265 0
M  V30 3440 H 346.816 2.0265 -3.92919 0
M  V30 3441 N 345.875 1.56104 -0.216619 0
M  V30 3442 C 347.286 1.844 0.292128 0
M  V30 3443 C 347.637 1.13788 1.59833 0
M  V30 3444 O 346.762 0.405888 2.12559 0
M  V30 3445 C 347.357 3.3452 0.53681 0
M  V30 3446 C 345.916 3.63151 0.989876 0
M  V30 3447 C 345.063 2.77255 0.0502302 0
M  V30 3448 H 348.014 1.52481 -0.439926 0
M  V30 3449 H 348.035 3.54459 1.38345 0
M  V30 3450 H 347.547 3.85885 -0.414031 0
M  V30 3451 H 345.648 3.17238 1.95425 0
M  V30 3452 H 345.761 4.71177 0.867698 0
M  V30 3453 H 344.125 2.48555 0.556117 0
M  V30 3454 H 344.908 3.31416 -0.89544 0
M  V30 3455 N 347.353 -0.0568162 1.57498 0
M  V30 3456 C 348.593 -0.758273 1.89815 0
M  V30 3457 C 348.957 -1.73978 0.812132 0
M  V30 3458 O 350.158 -2.48744 1.01881 0
M  V30 3459 C 348.429 -1.43465 3.27342 0
M  V30 3460 S 349.988 -2.1691 3.81439 0
M  V30 3461 H 346.806 -0.251836 0.664906 0
M  V30 3462 H 349.408 -0.0137997 1.95495 0
M  V30 3463 H 348.112 -0.706693 4.0427 0
M  V30 3464 H 347.643 -2.21825 3.24896 0
M  V30 3465 H 349.658 -3.43658 3.5793 0
M  V30 3466 N 348.832 -1.54138 -0.328536 0
M  V30 3467 C 350.057 -1.76378 -1.09112 0
M  V30 3468 C 350.482 -0.508596 -1.81094 0
M  V30 3469 O 349.84 0.539598 -1.73084 0
M  V30 3470 C 349.888 -2.95358 -2.06872 0
M  V30 3471 O 348.992 -2.66556 -3.14677 0
M  V30 3472 H 348.333 -0.584614 -0.314838 0
M  V30 3473 H 350.863 -2.01146 -0.374348 0
M  V30 3474 H 350.873 -3.22566 -2.4983 0
M  V30 3475 H 349.548 -3.86385 -1.5388 0
M  V30 3476 H 348.125 -2.50282 -2.7643 0
M  V30 3477 N 350.31 0.590341 -1.46126 0
M  V30 3478 C 351.538 1.37504 -1.54597 0
M  V30 3479 C 351.953 1.87897 -0.184447 0
M  V30 3480 O 351.31 1.63192 0.816984 0
M  V30 3481 C 351.361 2.56779 -2.54454 0
M  V30 3482 O 351.082 2.08476 -3.85317 0
M  V30 3483 C 352.583 3.49427 -2.72792 0
M  V30 3484 H 349.803 0.420325 -0.523037 0
M  V30 3485 H 352.347 0.718383 -1.91467 0
M  V30 3486 H 350.502 3.1845 -2.20609 0
M  V30 3487 H 350.916 2.86097 -4.396 0
M  V30 3488 H 352.39 4.29619 -3.466 0
M  V30 3489 H 352.867 4.00876 -1.79429 0
M  V30 3490 H 353.473 2.93598 -3.07702 0
M  V30 3491 N 351.788 1.33704 0.83433 0
M  V30 3492 C 353.013 1.28615 1.62705 0
M  V30 3493 C 353.438 -0.139242 1.87584 0
M  V30 3494 O 352.796 -1.09734 1.4432 0
M  V30 3495 C 352.844 2.07139 2.95171 0
M  V30 3496 O 351.948 1.4331 3.86699 0
M  V30 3497 H 351.289 0.44226 0.49528 0
M  V30 3498 H 353.819 1.76335 1.03766 0
M  V30 3499 H 353.829 2.18073 3.44831 0
M  V30 3500 H 352.504 3.10779 2.76386 0
M  V30 3501 H 351.081 1.4105 3.45195 0
M  V30 3502 N 353.266 -1.05314 1.17247 0
M  V30 3503 C 354.216 -2.11313 0.856196 0
M  V30 3504 C 355.2 -1.60013 -0.168694 0
M  V30 3505 O 356.392 -1.76968 0.0335624 0
M  V30 3506 C 353.521 -3.41301 0.369917 0
M  V30 3507 C 352.607 -3.99401 1.42616 0
M  V30 3508 N 352.998 -4.31481 2.63928 0
M  V30 3509 C 351.296 -4.27126 1.28373 0
M  V30 3510 C 351.997 -4.77799 3.31787 0
M  V30 3511 N 350.973 -4.77843 2.59166 0
M  V30 3512 H 354.775 -2.33976 1.77856 0
M  V30 3513 H 352.289 -1.2295 1.06099 0
M  V30 3514 H 354.286 -4.16713 0.124897 0
M  V30 3515 H 352.946 -3.20072 -0.546253 0
M  V30 3516 H 353.957 -4.21519 3.00902 0
M  V30 3517 H 350.634 -4.15289 0.429111 0
M  V30 3518 H 352.024 -5.11743 4.35395 0
M  V30 3519 N 354.744 -0.972509 -1.24016 0
M  V30 3520 C 355.674 -0.525548 -2.27509 0
M  V30 3521 C 356.655 0.437262 -1.64384 0
M  V30 3522 O 357.84 0.332343 -1.91335 0
M  V30 3523 C 354.97 0.180448 -3.46831 0
M  V30 3524 C 353.924 -0.698859 -4.22256 0
M  V30 3525 C 353.25 0.138903 -5.3452 0
M  V30 3526 C 354.55 -1.98582 -4.83076 0
M  V30 3527 H 356.244 -1.39058 -2.65148 0
M  V30 3528 H 353.79 -0.67009 -1.27459 0
M  V30 3529 H 355.743 0.504387 -4.18371 0
M  V30 3530 H 354.467 1.07987 -3.08231 0
M  V30 3531 H 353.126 -1.00614 -3.52523 0
M  V30 3532 H 352.774 1.03862 -4.9216 0
M  V30 3533 H 352.474 -0.446259 -5.85903 0
M  V30 3534 H 353.998 0.457404 -6.08884 0
M  V30 3535 H 355.412 -1.72715 -5.46665 0
M  V30 3536 H 353.809 -2.5181 -5.44713 0
M  V30 3537 H 354.879 -2.67769 -4.04262 0
M  V30 3538 N 356.222 1.38976 -0.743202 0
M  V30 3539 C 357.185 2.28901 -0.117014 0
M  V30 3540 C 358.185 1.46698 0.658503 0
M  V30 3541 O 359.375 1.67274 0.486305 0
M  V30 3542 C 356.507 3.30309 0.84315 0
M  V30 3543 H 357.7 2.8578 -0.909373 0
M  V30 3544 H 355.253 1.47761 -0.509547 0
M  V30 3545 H 355.988 2.785 1.66157 0
M  V30 3546 H 355.773 3.91029 0.289594 0
M  V30 3547 H 357.263 3.97577 1.2776 0
M  V30 3548 N 357.7 0.491464 1.49741 0
M  V30 3549 C 358.946 -0.0565092 2.02721 0
M  V30 3550 C 359.279 -1.37522 1.37118 0
M  V30 3551 O 358.554 -1.87866 0.503645 0
M  V30 3552 C 358.837 -0.219051 3.59433 0
M  V30 3553 C 358.69 1.12211 4.35579 0
M  V30 3554 C 360.009 -0.964157 4.29409 0
M  V30 3555 H 357.128 -0.0190627 0.736753 0
M  V30 3556 H 359.77 0.641021 1.7886 0
M  V30 3557 H 357.92 -0.813165 3.79895 0
M  V30 3558 H 359.592 1.75437 4.26637 0
M  V30 3559 H 357.835 1.71377 3.98513 0
M  V30 3560 H 358.506 0.961794 5.43556 0
M  V30 3561 H 360.982 -0.460378 4.13545 0
M  V30 3562 H 359.858 -1.04671 5.38828 0
M  V30 3563 H 360.119 -2.00563 3.93988 0
M  V30 3564 N 359.178 -1.55987 0.224894 0
M  V30 3565 C 360.418 -2.00293 -0.407706 0
M  V30 3566 C 360.782 -1.1093 -1.56711 0
M  V30 3567 O 361.983 -1.44597 -2.26595 0
M  V30 3568 C 360.254 -3.47675 -0.82805 0
M  V30 3569 S 361.813 -4.14 -1.45429 0
M  V30 3570 H 358.631 -0.699152 -0.129256 0
M  V30 3571 H 361.233 -1.92609 0.334967 0
M  V30 3572 H 359.937 -4.10392 0.0253964 0
M  V30 3573 H 359.468 -3.59239 -1.60345 0
M  V30 3574 H 361.483 -4.13465 -2.74337 0
M  V30 3575 N 360.656 0.0484629 -1.57525 0
M  V30 3576 C 361.566 1.07241 -2.08654 0
M  V30 3577 C 362.582 1.409 -1.02095 0
M  V30 3578 O 363.758 1.50609 -1.33712 0
M  V30 3579 C 360.823 2.36008 -2.5397 0
M  V30 3580 C 359.884 2.09108 -3.7493 0
M  V30 3581 C 359.117 3.31736 -4.18075 0
M  V30 3582 O 359.34 4.41714 -3.60895 0
M  V30 3583 O 358.274 3.18576 -5.10679 0
M  V30 3584 H 362.1 0.667965 -2.96263 0
M  V30 3585 H 359.685 0.26417 -1.47046 0
M  V30 3586 H 361.567 3.11747 -2.83535 0
M  V30 3587 H 360.242 2.75786 -1.69481 0
M  V30 3588 H 359.149 1.31 -3.50414 0
M  V30 3589 H 360.482 1.74198 -4.60343 0
M  V30 3590 N 362.134 1.5431 0.320358 0
M  V30 3591 C 363.381 1.72668 1.05792 0
M  V30 3592 C 363.709 0.502084 1.87908 0
M  V30 3593 O 362.964 -0.516149 1.88771 0
M  V30 3594 C 363.263 2.95639 2.00828 0
M  V30 3595 C 362.929 4.30265 1.34843 0
M  V30 3596 C 361.591 4.66865 1.16578 0
M  V30 3597 C 363.943 5.13801 0.875095 0
M  V30 3598 C 361.271 5.84597 0.496336 0
M  V30 3599 C 363.623 6.32219 0.219463 0
M  V30 3600 C 362.287 6.67495 0.0246915 0
M  V30 3601 H 361.557 0.631837 0.387121 0
M  V30 3602 H 364.204 1.88552 0.334735 0
M  V30 3603 H 362.509 2.74456 2.79609 0
M  V30 3604 H 364.206 3.07038 2.57932 0
M  V30 3605 H 360.796 4.01472 1.50061 0
M  V30 3606 H 364.98 4.86039 1.00398 0
M  V30 3607 H 360.236 6.10486 0.334264 0
M  V30 3608 H 364.41 6.96227 -0.155291 0
M  V30 3609 H 362.037 7.5858 -0.496065 0
M  V30 3610 N 363.613 -0.582584 1.46437 0
M  V30 3611 C 365.024 -1.1647 1.45916 0
M  V30 3612 C 365.375 -1.95177 0.200077 0
M  V30 3613 O 364.5 -2.04874 -0.696819 0
M  V30 3614 C 365.095 -2.11885 2.64367 0
M  V30 3615 C 363.654 -2.65421 2.66887 0
M  V30 3616 C 362.801 -1.41294 2.38603 0
M  V30 3617 H 365.752 -0.370514 1.54314 0
M  V30 3618 H 365.773 -2.9535 2.39892 0
M  V30 3619 H 365.285 -1.54573 3.5599 0
M  V30 3620 H 363.386 -3.26602 1.79338 0
M  V30 3621 H 363.499 -3.08147 3.66854 0
M  V30 3622 H 361.863 -1.71109 1.88663 0
M  V30 3623 H 362.646 -0.858125 3.32402 0
M  V30 3624 N 365.091 -1.34144 -0.827227 0
M  V30 3625 C 366.34 -1.25602 -1.5782 0
M  V30 3626 C 366.653 0.173445 -1.94829 0
M  V30 3627 O 367.859 0.380984 -2.68814 0
M  V30 3628 C 366.315 -2.20151 -2.84713 0
M  V30 3629 C 365.923 -3.68331 -2.55021 0
M  V30 3630 C 367.667 -2.20508 -3.62735 0
M  V30 3631 C 365.574 -4.54762 -3.78082 0
M  V30 3632 H 364.504 -0.466573 -0.592306 0
M  V30 3633 H 367.155 -1.59283 -0.911116 0
M  V30 3634 H 365.537 -1.79417 -3.53023 0
M  V30 3635 H 366.711 -4.17577 -1.94849 0
M  V30 3636 H 365.026 -3.7038 -1.90283 0
M  V30 3637 H 367.623 -2.82306 -4.54101 0
M  V30 3638 H 367.966 -1.20322 -3.98533 0
M  V30 3639 H 368.499 -2.59664 -3.01362 0
M  V30 3640 H 365.238 -5.55867 -3.47407 0
M  V30 3641 H 364.758 -4.10254 -4.37552 0
M  V30 3642 H 366.437 -4.69153 -4.45538 0
M  V30 3643 O 366.608 0.965494 -1.29462 0
M  V30 3644 H 367.299 1.59208 -1.10329 0
M  V30 END ATOM
M  V30 BEGIN BOND
M  V30 END BOND
M  V30 END CTAB
M  END
$$$$
