3034794
  -OEChem-10051720183D

 29 28  0     1  0  0  0  0  0999 V2000
   -3.4965   -0.7279   -0.1443 P   0  0  0  0  0  0  0  0  0  0  0  0
    0.7799    0.1077    1.4079 O   0  0  0  0  0  0  0  0  0  0  0  0
    2.2610    1.1176   -1.7767 O   0  0  0  0  0  0  0  0  0  0  0  0
    0.1010    2.6743    0.4707 O   0  0  0  0  0  0  0  0  0  0  0  0
   -2.0473   -0.0962   -0.4759 O   0  0  0  0  0  0  0  0  0  0  0  0
    3.4269   -0.3092    1.3745 O   0  0  0  0  0  0  0  0  0  0  0  0
    3.0145   -2.5519    0.0021 O   0  0  0  0  0  0  0  0  0  0  0  0
   -4.5115    0.5178   -0.3270 O   0  0  0  0  0  0  0  0  0  0  0  0
   -3.4376   -0.9274    1.4594 O   0  0  0  0  0  0  0  0  0  0  0  0
   -3.8474   -1.9612   -0.9241 O   0  0  0  0  0  0  0  0  0  0  0  0
    0.8296    0.4310    0.0142 C   0  0  2  0  0  0  0  0  0  0  0  0
    2.2616    0.8413   -0.3708 C   0  0  1  0  0  0  0  0  0  0  0  0
   -0.2561    1.4850   -0.2485 C   0  0  1  0  0  0  0  0  0  0  0  0
    3.3831   -0.1525   -0.0398 C   0  0  2  0  0  0  0  0  0  0  0  0
   -1.6463    1.0769    0.2271 C   0  0  0  0  0  0  0  0  0  0  0  0
    3.1851   -1.5254   -0.6486 C   0  0  0  0  0  0  0  0  0  0  0  0
    0.5589   -0.4788   -0.5343 H   0  0  0  0  0  0  0  0  0  0  0  0
    2.5049    1.7793    0.1435 H   0  0  0  0  0  0  0  0  0  0  0  0
   -0.2839    1.7283   -1.3161 H   0  0  0  0  0  0  0  0  0  0  0  0
    4.3488    0.2292   -0.3890 H   0  0  0  0  0  0  0  0  0  0  0  0
   -2.3554    1.8873    0.0249 H   0  0  0  0  0  0  0  0  0  0  0  0
   -1.6638    0.8951    1.3068 H   0  0  0  0  0  0  0  0  0  0  0  0
    1.1760    0.8456    1.9016 H   0  0  0  0  0  0  0  0  0  0  0  0
    1.9655    0.3167   -2.2418 H   0  0  0  0  0  0  0  0  0  0  0  0
    0.0367    2.4845    1.4219 H   0  0  0  0  0  0  0  0  0  0  0  0
    3.2157   -1.5630   -1.7510 H   0  0  0  0  0  0  0  0  0  0  0  0
    4.2202   -0.8306    1.5860 H   0  0  0  0  0  0  0  0  0  0  0  0
   -5.4754    0.3620   -0.2343 H   0  0  0  0  0  0  0  0  0  0  0  0
   -4.1777   -1.3893    1.9077 H   0  0  0  0  0  0  0  0  0  0  0  0
  1  5  1  0  0  0  0
  1  8  1  0  0  0  0
  1  9  1  0  0  0  0
  1 10  2  0  0  0  0
  2 11  1  0  0  0  0
  2 23  1  0  0  0  0
  3 12  1  0  0  0  0
  3 24  1  0  0  0  0
  4 13  1  0  0  0  0
  4 25  1  0  0  0  0
  5 15  1  0  0  0  0
  6 14  1  0  0  0  0
  6 27  1  0  0  0  0
  7 16  2  0  0  0  0
  8 28  1  0  0  0  0
  9 29  1  0  0  0  0
 11 12  1  0  0  0  0
 11 13  1  0  0  0  0
 11 17  1  0  0  0  0
 12 14  1  0  0  0  0
 12 18  1  0  0  0  0
 13 15  1  0  0  0  0
 13 19  1  0  0  0  0
 14 16  1  0  0  0  0
 14 20  1  0  0  0  0
 15 21  1  0  0  0  0
 15 22  1  0  0  0  0
 16 26  1  0  0  0  0
M  END
> <DATABASE_ID>
DB03581

> <DATABASE_NAME>
drugbank

> <ORIGINAL_SOURCE>
PUBCHEM

> <ORIGINAL_SOURCE_URL>
https://pubchem.ncbi.nlm.nih.gov/rest/pug/compound/inchikey/VFRROHXSMXFLSN-KCDKBNATSA-N/SDF?record_type=3d

> <SMILES>
O[C@H](COP(O)(O)=O)[C@H](O)[C@H](O)[C@@H](O)C=O

> <INCHI_IDENTIFIER>
InChI=1S/C6H13O9P/c7-1-3(8)5(10)6(11)4(9)2-15-16(12,13)14/h1,3-6,8-11H,2H2,(H2,12,13,14)/t3-,4+,5+,6-/m0/s1

> <INCHI_KEY>
VFRROHXSMXFLSN-KCDKBNATSA-N

> <FORMULA>
C6H13O9P

> <MOLECULAR_WEIGHT>
260.1358

> <EXACT_MASS>
260.029718526

> <JCHEM_ACCEPTOR_COUNT>
8

> <JCHEM_AVERAGE_POLARIZABILITY>
20.65854914105718

> <JCHEM_BIOAVAILABILITY>
1

> <JCHEM_DONOR_COUNT>
6

> <JCHEM_FORMAL_CHARGE>
0

> <JCHEM_GHOSE_FILTER>
0

> <JCHEM_IUPAC>
{[(2R,3S,4S,5R)-2,3,4,5-tetrahydroxy-6-oxohexyl]oxy}phosphonic acid

> <ALOGPS_LOGP>
-1.85

> <JCHEM_LOGP>
-3.6919265943333333

> <ALOGPS_LOGS>
-1.08

> <JCHEM_MDDR_LIKE_RULE>
0

> <JCHEM_NUMBER_OF_RINGS>
0

> <JCHEM_PHYSIOLOGICAL_CHARGE>
-2

> <JCHEM_PKA>
6.517717590349464

> <JCHEM_PKA_STRONGEST_ACIDIC>
1.4919091577092733

> <JCHEM_PKA_STRONGEST_BASIC>
-3.5395055510957123

> <JCHEM_POLAR_SURFACE_AREA>
164.75

> <JCHEM_REFRACTIVITY>
48.2185

> <JCHEM_ROTATABLE_BOND_COUNT>
7

> <JCHEM_RULE_OF_FIVE>
0

> <ALOGPS_SOLUBILITY>
2.17e+01 g/l

> <JCHEM_TRADITIONAL_IUPAC>
glucose-6-phosphate

> <JCHEM_VEBER_RULE>
0

> <DRUGBANK_ID>
DB03581

> <SECONDARY_ACCESSION_NUMBERS>
EXPT01538

> <DRUG_GROUPS>
experimental

> <GENERIC_NAME>
Glucose-6-Phosphate

$$$$