drugbank_target|P43119 Prostacyclin receptor (DB00374; DB01088; DB01160; DB01240; DB05229; DB11362)
 OpenBabel12092119323D

  0  0  0     0  0            999 V3000
M  V30 BEGIN CTAB
M  V30 COUNTS 5784 5854 0 0 0
M  V30 BEGIN ATOM
M  V30 1 H -0.908 1.98254 -0.117106 0
M  V30 2 N 0 1.576 0 0
M  V30 3 C 0.933 2.03868 1.02534 0
M  V30 4 C 1.911 0.928543 1.3348 0
M  V30 5 O 3.095 1.19667 1.45644 0
M  V30 6 C 0.222 2.43627 2.35294 0
M  V30 7 C -0.732 3.65373 2.2001 0
M  V30 8 S 0.101 5.13292 1.52614 0
M  V30 9 C 1.257 5.56322 2.86805 0
M  V30 10 H 1.49 2.90518 0.631377 0
M  V30 11 H -0.977 1.52953 0.210867 0
M  V30 12 H 0.981 2.67203 3.11629 0
M  V30 13 H -0.358 1.57376 2.7183 0
M  V30 14 H -1.165 3.90944 3.18086 0
M  V30 15 H -1.563 3.418 1.51819 0
M  V30 16 H 0.729 5.58782 3.83104 0
M  V30 17 H 1.672 6.56266 2.65933 0
M  V30 18 H 2.08 4.83886 2.90714 0
M  V30 19 N 1.4781 -0.272755 1.55222 0
M  V30 20 C 2.4411 -1.32041 1.87344 0
M  V30 21 C 3.4411 -1.42342 0.74803 0
M  V30 22 O 4.6311 -1.41488 1.0162 0
M  V30 23 C 1.7631 -2.70173 2.07893 0
M  V30 24 H 2.9561 -1.04789 2.80997 0
M  V30 25 H 0.5091 -0.51083 1.47717 0
M  V30 26 H 1.2441 -3.02605 1.16622 0
M  V30 27 H 1.0291 -2.64082 2.89833 0
M  V30 28 H 2.5191 -3.45869 2.34017 0
M  V30 29 N 2.9562 -1.48159 -0.537278 0
M  V30 30 C 4.2332 -1.46291 -1.29839 0
M  V30 31 C 4.6132 -0.170613 -2.10409 0
M  V30 32 O 3.9612 0.847746 -2.12192 0
M  V30 33 C 4.1712 -2.72055 -2.18603 0
M  V30 34 C 5.5192 -3.20087 -2.7898 0
M  V30 35 O 6.5432 -2.72921 -2.28894 0
M  V30 36 O 5.4022 -4.02138 -3.70064 0
M  V30 37 H 2.4962 -0.583906 -0.585647 0
M  V30 38 H 5.0422 -1.60384 -0.554534 0
M  V30 39 H 3.8142 -3.57628 -1.58801 0
M  V30 40 H 3.4372 -2.60646 -3.00249 0
M  V30 41 N 4.4343 0.785586 -1.36625 0
M  V30 42 C 5.6593 1.57963 -1.34397 0
M  V30 43 C 6.0843 1.87964 0.071526 0
M  V30 44 O 5.4423 1.48182 1.0446 0
M  V30 45 C 5.4903 2.87511 -2.17646 0
M  V30 46 O 4.5943 3.81281 -1.57158 0
M  V30 47 H 3.9353 0.479014 -0.459828 0
M  V30 48 H 6.4653 0.973411 -1.79961 0
M  V30 49 H 6.4753 3.36745 -2.30362 0
M  V30 50 H 5.1503 2.65002 -3.20541 0
M  V30 51 H 3.7273 3.39885 -1.53403 0
M  V30 52 N 5.9124 1.20967 1.01018 0
M  V30 53 C 7.1524 1.03511 1.76252 0
M  V30 54 C 7.5164 -0.42458 1.87247 0
M  V30 55 O 8.7174 -0.719508 2.58991 0
M  V30 56 C 6.9884 1.70726 3.13986 0
M  V30 57 S 8.5474 1.68458 4.05176 0
M  V30 58 H 5.3654 0.371037 0.606508 0
M  V30 59 H 7.9674 1.53628 1.20908 0
M  V30 60 H 6.6714 2.76128 3.03614 0
M  V30 61 H 6.2024 1.20767 3.74405 0
M  V30 62 H 8.2174 0.721987 4.90919 0
M  V30 63 N 7.3905 -1.2043 1.01659 0
M  V30 64 C 8.8065 -1.41852 0.731442 0
M  V30 65 C 9.0065 -1.89358 -0.688898 0
M  V30 66 O 8.0625 -2.06247 -1.45666 0
M  V30 67 C 9.3755 -2.44019 1.75714 0
M  V30 68 C 10.9235 -2.57785 1.77527 0
M  V30 69 C 11.3985 -3.63194 2.79023 0
M  V30 70 N 12.8895 -3.70678 2.77763 0
M  V30 71 C 13.6245 -4.51897 3.52954 0
M  V30 72 N 13.1205 -5.36921 4.37821 0
M  V30 73 N 14.9135 -4.4643 3.41551 0
M  V30 74 H 7.0645 -0.879093 1.93354 0
M  V30 75 H 9.3275 -0.448425 0.835236 0
M  V30 76 H 9.0335 -2.1611 2.77469 0
M  V30 77 H 8.9075 -3.43007 1.56927 0
M  V30 78 H 11.2945 -2.85023 0.764569 0
M  V30 79 H 11.3755 -1.58992 2.00387 0
M  V30 80 H 11.0195 -3.36699 3.80258 0
M  V30 81 H 10.9495 -4.61609 2.53425 0
M  V30 82 H 13.4405 -3.09944 2.16201 0
M  V30 83 H 13.7535 -5.95981 4.91962 0
M  V30 84 H 12.0985 -5.36424 4.41899 0
M  V30 85 H 15.2895 -3.79042 2.74672 0
M  V30 86 H 15.4625 -5.09491 4.00404 0
M  V30 87 N 8.8686 -0.792821 -1.36206 0
M  V30 88 C 9.8166 -0.181555 -2.3189 0
M  V30 89 C 10.8106 0.661025 -1.55971 0
M  V30 90 O 12.0166 0.555728 -1.71206 0
M  V30 91 H 8.3916 -0.0399382 -0.750939 0
M  V30 92 H 10.3626 -1.00394 -2.81005 0
M  V30 93 C 9.1116 0.666444 -3.41253 0
M  V30 94 H 8.4346 0.0274489 -3.99791 0
M  V30 95 H 9.8746 1.06076 -4.10517 0
M  V30 96 C 8.3336 1.82614 -2.83114 0
M  V30 97 O 8.8636 2.9229 -2.75553 0
M  V30 98 N 7.0696 1.63333 -2.40356 0
M  V30 99 H 6.6166 0.741217 -2.46706 0
M  V30 100 H 6.5746 2.41087 -2.01803 0
M  V30 101 N 10.3467 1.47872 -0.545128 0
M  V30 102 C 11.2767 2.32661 0.197793 0
M  V30 103 C 12.2577 1.43041 0.920504 0
M  V30 104 O 13.4427 1.71912 0.90333 0
M  V30 105 C 10.5727 3.24569 1.23582 0
M  V30 106 C 9.5267 4.23333 0.630323 0
M  V30 107 C 8.8527 5.0448 1.77211 0
M  V30 108 C 10.1527 5.20704 -0.407974 0
M  V30 109 H 11.8467 2.95024 -0.510045 0
M  V30 110 H 9.3927 1.4187 -0.246731 0
M  V30 111 H 11.3457 3.8272 1.76362 0
M  V30 112 H 10.0697 2.60236 1.97344 0
M  V30 113 H 8.7287 3.6639 0.123922 0
M  V30 114 H 8.3767 4.36561 2.49847 0
M  V30 115 H 8.0767 5.71339 1.37281 0
M  V30 116 H 9.6007 5.65487 2.3034 0
M  V30 117 H 11.0147 5.7329 0.033305 0
M  V30 118 H 9.4117 5.95699 -0.725486 0
M  V30 119 H 10.4817 4.66917 -1.30828 0
M  V30 120 N 11.8248 0.280983 1.55075 0
M  V30 121 C 13.0528 -0.337293 2.04132 0
M  V30 122 C 13.4678 -1.4903 1.15912 0
M  V30 123 O 12.8248 -1.81606 0.180459 0
M  V30 124 C 12.8758 -0.812706 3.52246 0
M  V30 125 O 12.5968 0.294387 4.3711 0
M  V30 126 C 14.0978 -1.4982 4.17216 0
M  V30 127 H 11.3178 -0.0761638 0.666663 0
M  V30 128 H 13.8618 0.414787 2.00249 0
M  V30 129 H 12.0168 -1.51486 3.56554 0
M  V30 130 H 12.4308 -0.0721325 5.2445 0
M  V30 131 H 13.9048 -1.7822 5.22438 0
M  V30 132 H 14.3818 -2.43168 3.65741 0
M  V30 133 H 14.9878 -0.839742 4.16927 0
M  V30 134 N 13.3029 -1.57598 0.00835791 0
M  V30 135 C 14.5329 -1.94931 -0.684496 0
M  V30 136 C 14.9409 -0.882233 -1.67372 0
M  V30 137 O 14.2839 0.146621 -1.83114 0
M  V30 138 C 14.3459 -3.283 -1.4649 0
M  V30 139 C 14.0099 -4.52548 -0.63634 0
M  V30 140 C 15.0069 -5.19839 0.0795586 0
M  V30 141 C 12.6919 -4.98942 -0.579849 0
M  V30 142 C 14.6859 -6.3183 0.840843 0
M  V30 143 C 12.3729 -6.10819 0.185155 0
M  V30 144 C 13.3709 -6.77121 0.894227 0
M  V30 145 O 13.0589 -7.86853 1.64673 0
M  V30 146 H 12.7909 -0.647249 -0.19505 0
M  V30 147 H 15.3449 -2.05318 0.0581272 0
M  V30 148 H 13.5749 -3.14345 -2.2522 0
M  V30 149 H 15.2639 -3.50685 -2.04389 0
M  V30 150 H 16.0299 -4.84979 0.0451202 0
M  V30 151 H 11.9089 -4.47155 -1.1213 0
M  V30 152 H 15.4529 -6.83513 1.39483 0
M  V30 153 H 11.3499 -6.4512 0.221384 0
M  V30 154 H 12.1179 -8.03412 1.56432 0
M  V30 155 N 14.781 0.264519 -1.55364 0
M  V30 156 C 16.027 0.99646 -1.76631 0
M  V30 157 C 16.36 1.85632 -0.570478 0
M  V30 158 O 15.635 1.89647 0.43175 0
M  V30 159 C 15.918 1.87187 -3.07625 0
M  V30 160 C 15.771 1.04138 -4.37579 0
M  V30 161 C 17.09 2.85749 -3.34717 0
M  V30 162 H 14.209 0.360841 -0.642622 0
M  V30 163 H 16.851 0.268218 -1.88097 0
M  V30 164 H 15.001 2.49279 -2.9798 0
M  V30 165 H 16.673 0.440517 -4.59192 0
M  V30 166 H 14.916 0.345115 -4.32425 0
M  V30 167 H 15.587 1.68729 -5.2558 0
M  V30 168 H 18.063 2.33793 -3.4421 0
M  V30 169 H 16.939 3.44136 -4.27623 0
M  V30 170 H 17.2 3.61311 -2.54768 0
M  V30 171 N 16.2591 1.48442 0.529413 0
M  V30 172 C 17.6751 1.34575 0.858004 0
M  V30 173 C 17.8751 0.3572 1.98309 0
M  V30 174 O 16.9311 -0.221379 2.51528 0
M  V30 175 C 18.2441 2.74617 1.22499 0
M  V30 176 C 19.7921 2.83109 1.33484 0
M  V30 177 C 20.2671 4.23854 1.73526 0
M  V30 178 N 21.7581 4.2653 1.80628 0
M  V30 179 C 22.4931 5.32372 2.12997 0
M  V30 180 N 21.9891 6.48491 2.43786 0
M  V30 181 N 23.7821 5.19766 2.14008 0
M  V30 182 H 15.9331 2.1133 -0.212925 0
M  V30 183 H 18.1961 0.947439 -0.0326199 0
M  V30 184 H 17.9021 3.4852 0.471905 0
M  V30 185 H 17.7761 3.08177 2.17501 0
M  V30 186 H 20.1631 2.09462 2.0787 0
M  V30 187 H 20.2441 2.53168 0.366027 0
M  V30 188 H 19.8881 4.98018 0.997013 0
M  V30 189 H 19.8181 4.5124 2.71459 0
M  V30 190 H 22.3091 3.42772 1.59108 0
M  V30 191 H 22.6221 7.24993 2.67592 0
M  V30 192 H 20.9671 6.51765 2.41304 0
M  V30 193 H 24.1581 4.28066 1.89412 0
M  V30 194 H 24.3311 6.02354 2.38902 0
M  V30 195 N 17.7372 -0.778329 1.37039 0
M  V30 196 C 18.9852 -1.53361 1.31623 0
M  V30 197 C 19.3062 -1.94739 -0.100831 0
M  V30 198 O 18.5762 -1.65797 -1.04347 0
M  V30 199 H 17.1562 -0.568794 0.484234 0
M  V30 200 H 19.8182 -0.926742 1.71457 0
M  V30 201 H 18.9142 -2.43606 1.95096 0
M  V30 202 N 19.2153 -1.21501 -1.00376 0
M  V30 203 C 20.4403 -1.05977 -1.78279 0
M  V30 204 C 20.8653 0.385994 -1.84097 0
M  V30 205 O 20.2233 1.27849 -1.28547 0
M  V30 206 C 20.2713 -1.66302 -3.19963 0
M  V30 207 O 19.3753 -0.909333 -4.0225 0
M  V30 208 H 18.7163 -0.372906 -0.549397 0
M  V30 209 H 21.2463 -1.6107 -1.26165 0
M  V30 210 H 21.2563 -1.70574 -3.70632 0
M  V30 211 H 19.9313 -2.71515 -3.15043 0
M  V30 212 H 18.5083 -0.941795 -3.60811 0
M  V30 213 N 20.6934 1.19889 -1.02296 0
M  V30 214 C 21.9394 1.89701 -0.717033 0
M  V30 215 C 22.2724 1.7905 0.751989 0
M  V30 216 O 21.5474 1.17891 1.547 0
M  V30 217 C 21.8304 3.40858 -1.16136 0
M  V30 218 C 21.6834 3.60411 -2.69117 0
M  V30 219 C 23.0024 4.33876 -0.737549 0
M  V30 220 H 20.1214 0.688874 -0.261957 0
M  V30 221 H 22.7634 1.41154 -1.27183 0
M  V30 222 H 20.9134 3.82335 -0.689342 0
M  V30 223 H 22.5854 3.28145 -3.2422 0
M  V30 224 H 20.8284 3.03665 -3.0979 0
M  V30 225 H 21.4994 4.66396 -2.95261 0
M  V30 226 H 23.9754 4.00081 -1.14344 0
M  V30 227 H 22.8514 5.38242 -1.0764 0
M  V30 228 H 23.1124 4.40628 0.360436 0
M  V30 229 N 22.1715 0.800033 1.35784 0
M  V30 230 C 23.4195 0.376597 1.9856 0
M  V30 231 C 23.7405 -1.05812 1.63795 0
M  V30 232 O 23.0105 -1.73103 0.917171 0
M  V30 233 H 21.5905 0.136261 0.734467 0
M  V30 234 H 24.2525 1.02442 1.65806 0
M  V30 235 H 23.3485 0.477002 3.08433 0
M  V30 236 N 23.6496 -1.47581 0.552962 0
M  V30 237 C 25.0606 -1.86324 0.118463 0
M  V30 238 C 25.4116 -1.46006 -1.3106 0
M  V30 239 O 24.5366 -0.861182 -1.98526 0
M  V30 240 C 25.1316 -3.3816 0.20821 0
M  V30 241 C 23.6906 -3.7601 -0.171226 0
M  V30 242 C 22.8376 -2.71634 0.557686 0
M  V30 243 H 25.7886 -1.39159 0.762928 0
M  V30 244 H 25.8096 -3.76141 -0.574278 0
M  V30 245 H 25.3216 -3.67473 1.24841 0
M  V30 246 H 23.4226 -3.52313 -1.21269 0
M  V30 247 H 23.5356 -4.78745 0.184379 0
M  V30 248 H 21.8996 -2.547 0.00125792 0
M  V30 249 H 22.6826 -3.0379 1.59896 0
M  V30 250 N 25.1277 -0.289203 -1.54924 0
M  V30 251 C 26.0907 0.579144 -2.21762 0
M  V30 252 C 27.0907 1.07047 -1.1999 0
M  V30 253 O 28.2807 0.968384 -1.44803 0
M  V30 254 C 25.4127 1.80055 -2.8947 0
M  V30 255 H 26.6057 -0.00464908 -2.999 0
M  V30 256 H 24.1587 -0.0399306 -1.56249 0
M  V30 257 H 24.8937 2.42449 -2.15381 0
M  V30 258 H 24.6787 1.45602 -3.64064 0
M  V30 259 H 26.1687 2.41773 -3.40493 0
M  V30 260 N 26.6058 1.57591 -0.0167156 0
M  V30 261 C 27.8338 1.95575 0.675128 0
M  V30 262 C 28.2488 0.892542 1.6637 0
M  V30 263 O 27.6058 -0.126912 1.82058 0
M  V30 264 C 27.6568 3.33608 1.39239 0
M  V30 265 O 27.3778 4.3585 0.443444 0
M  V30 266 C 28.8788 3.86151 2.17721 0
M  V30 267 H 26.0988 0.644423 0.186978 0
M  V30 268 H 28.6428 2.0437 -0.0728 0
M  V30 269 H 26.7978 3.2607 2.09182 0
M  V30 270 H 27.2118 5.158 0.951358 0
M  V30 271 H 28.6858 4.85114 2.63379 0
M  V30 272 H 29.1628 3.19738 3.01105 0
M  V30 273 H 29.7688 3.96918 1.52761 0
M  V30 274 N 28.0839 -0.256276 1.55502 0
M  V30 275 C 29.3089 -1.00766 1.81276 0
M  V30 276 C 29.7339 -1.78524 0.59252 0
M  V30 277 O 29.0919 -1.75413 -0.45827 0
M  V30 278 C 29.1399 -1.92869 3.04687 0
M  V30 279 O 28.2439 -3.019 2.80945 0
M  V30 280 H 27.5849 -0.287224 0.598664 0
M  V30 281 H 30.1149 -0.280109 2.02674 0
M  V30 282 H 30.1249 -2.34511 3.33869 0
M  V30 283 H 28.7999 -1.35689 3.93143 0
M  V30 284 H 27.3769 -2.64454 2.62904 0
M  V30 285 N 29.562 -1.4872 -0.521534 0
M  V30 286 C 30.79 -1.60843 -1.30142 0
M  V30 287 C 31.205 -0.271897 -1.86832 0
M  V30 288 O 30.562 0.739969 -1.66825 0
M  V30 289 C 30.613 -2.66155 -2.4463 0
M  V30 290 O 30.334 -3.94623 -1.90275 0
M  V30 291 C 31.835 -2.88795 -3.36322 0
M  V30 292 H 29.055 -0.542075 -0.395468 0
M  V30 293 H 31.599 -1.94609 -0.628285 0
M  V30 294 H 29.754 -2.35224 -3.07812 0
M  V30 295 H 30.168 -4.52468 -2.65279 0
M  V30 296 H 31.642 -3.66264 -4.12983 0
M  V30 297 H 32.119 -1.97934 -3.9207 0
M  V30 298 H 32.725 -3.21063 -2.78924 0
M  V30 299 N 31.0401 0.771051 -1.3745 0
M  V30 300 C 31.9701 1.89827 -1.3597 0
M  V30 301 C 32.9511 1.68562 -0.228216 0
M  V30 302 O 34.1361 1.8941 -0.428675 0
M  V30 303 C 31.2661 3.2712 -1.16662 0
M  V30 304 C 30.2201 3.6295 -2.2683 0
M  V30 305 C 29.5461 4.98791 -1.92644 0
M  V30 306 C 30.8461 3.69627 -3.69017 0
M  V30 307 H 32.5401 1.91323 -2.30295 0
M  V30 308 H 30.0861 0.919082 -1.10855 0
M  V30 309 H 32.0391 4.05615 -1.14256 0
M  V30 310 H 30.7631 3.26059 -0.187926 0
M  V30 311 H 29.4221 2.86763 -2.28392 0
M  V30 312 H 29.0701 4.94271 -0.933021 0
M  V30 313 H 28.7701 5.23733 -2.66416 0
M  V30 314 H 30.2941 5.79685 -1.91826 0
M  V30 315 H 31.7081 4.38273 -3.69581 0
M  V30 316 H 30.1051 4.06067 -4.41848 0
M  V30 317 H 31.1751 2.70273 -4.02592 0
M  V30 318 N 32.5182 1.22032 0.997298 0
M  V30 319 C 33.4512 0.929735 2.08401 0
M  V30 320 C 34.4292 -0.125681 1.62114 0
M  V30 321 O 35.6132 0.00495409 1.88499 0
M  V30 322 C 32.7402 0.397488 3.3636 0
M  V30 323 C 31.7862 1.4369 4.01566 0
M  V30 324 S 32.6192 3.00874 4.42984 0
M  V30 325 C 33.7752 2.49276 5.74119 0
M  V30 326 H 34.0082 1.84998 2.32729 0
M  V30 327 H 31.5412 1.0509 1.13117 0
M  V30 328 H 33.4992 0.0969846 4.10385 0
M  V30 329 H 32.1602 -0.501571 3.10069 0
M  V30 330 H 31.3532 1.01427 4.93689 0
M  V30 331 H 30.9552 1.68588 3.33847 0
M  V30 332 H 33.2472 1.90242 6.50242 0
M  V30 333 H 34.1902 3.39872 6.21203 0
M  V30 334 H 34.5982 1.90714 5.31308 0
M  V30 335 N 33.9963 -1.19345 1.0293 0
M  V30 336 C 35.2433 -1.89038 0.726008 0
M  V30 337 C 35.5713 -1.79649 -0.745427 0
M  V30 338 O 34.8263 -1.18354 -1.55855 0
M  V30 339 C 35.1253 -3.39292 1.12319 0
M  V30 340 C 34.7913 -3.68885 2.59297 0
M  V30 341 C 33.4533 -3.76671 2.99453 0
M  V30 342 C 35.8053 -3.82178 3.54386 0
M  V30 343 C 33.1333 -3.9522 4.33611 0
M  V30 344 C 35.4853 -4.0224 4.88248 0
M  V30 345 C 34.1493 -4.08259 5.28092 0
M  V30 346 H 33.4193 -0.691739 0.265665 0
M  V30 347 H 36.0663 -1.41328 1.29223 0
M  V30 348 H 34.3713 -3.88903 0.475584 0
M  V30 349 H 36.0683 -3.91536 0.866037 0
M  V30 350 H 32.6583 -3.63433 2.27189 0
M  V30 351 H 36.8423 -3.75505 3.24514 0
M  V30 352 H 32.0983 -3.98119 4.64016 0
M  V30 353 H 36.2723 -4.11468 5.61843 0
M  V30 354 H 33.8993 -4.22384 6.32057 0
M  V30 355 N 35.4744 -0.807222 -1.35358 0
M  V30 356 C 36.7204 -0.388463 -1.99045 0
M  V30 357 C 37.0534 1.04184 -1.63888 0
M  V30 358 O 36.3284 1.72292 -0.902535 0
M  V30 359 C 36.6114 -0.572783 -3.55515 0
M  V30 360 C 36.4644 -2.04807 -4.00468 0
M  V30 361 C 37.7834 0.00114064 -4.401 0
M  V30 362 H 34.9024 -0.142619 -0.723069 0
M  V30 363 H 37.5444 -1.01687 -1.60498 0
M  V30 364 H 35.6944 -0.0378425 -3.88482 0
M  V30 365 H 37.3664 -2.64544 -3.77908 0
M  V30 366 H 35.6094 -2.54427 -3.51353 0
M  V30 367 H 36.2804 -2.12792 -5.09337 0
M  V30 368 H 38.7564 -0.455716 -4.13597 0
M  V30 369 H 37.6324 -0.157737 -5.48673 0
M  V30 370 H 37.8934 1.09488 -4.28328 0
M  V30 371 N 36.9525 1.47285 -0.560781 0
M  V30 372 C 37.9155 2.28535 0.174488 0
M  V30 373 C 38.9155 1.37153 0.839388 0
M  V30 374 O 40.1055 1.59748 0.694702 0
M  V30 375 C 37.2375 3.16934 1.25561 0
M  V30 376 H 38.4305 2.95012 -0.539262 0
M  V30 377 H 35.9835 1.53034 -0.317865 0
M  V30 378 H 36.7185 2.55157 2.00164 0
M  V30 379 H 36.5035 3.8419 0.783604 0
M  V30 380 H 37.9935 3.78143 1.77193 0
M  V30 381 N 38.4306 0.297415 1.54768 0
M  V30 382 C 39.6786 -0.312295 1.99673 0
M  V30 383 C 39.9996 -1.54686 1.18732 0
M  V30 384 O 39.2696 -1.93854 0.282382 0
M  V30 385 H 37.8496 -0.118381 0.73756 0
M  V30 386 H 40.5116 0.407915 1.90583 0
M  V30 387 H 39.6076 -0.586813 3.06534 0
M  V30 388 N 39.9087 -1.5758 0.0250728 0
M  V30 389 C 41.1547 -1.91917 -0.655413 0
M  V30 390 C 41.4877 -0.901433 -1.72011 0
M  V30 391 O 40.7627 0.0764069 -1.9435 0
M  V30 392 C 41.0457 -3.36751 -1.27558 0
M  V30 393 C 40.8987 -4.49258 -0.220719 0
M  V30 394 C 42.2177 -3.81469 -2.19475 0
M  V30 395 H 39.3367 -0.697925 -0.23679 0
M  V30 396 H 41.9787 -1.89825 0.0815036 0
M  V30 397 H 40.1287 -3.38664 -1.90365 0
M  V30 398 H 41.8007 -4.59478 0.409601 0
M  V30 399 H 40.0437 -4.31415 0.454264 0
M  V30 400 H 40.7147 -5.47618 -0.694175 0
M  V30 401 H 43.1907 -3.81266 -1.66659 0
M  V30 402 H 42.0667 -4.83512 -2.59822 0
M  V30 403 H 42.3277 -3.16744 -3.08424 0
M  V30 404 N 41.3868 0.248026 -1.55636 0
M  V30 405 C 42.6328 0.97767 -1.77678 0
M  V30 406 C 42.9658 1.85016 -0.590135 0
M  V30 407 O 42.2408 1.90095 0.411611 0
M  V30 408 C 42.5238 1.83914 -3.09593 0
M  V30 409 C 42.3768 0.99491 -4.38659 0
M  V30 410 C 43.6958 2.82183 -3.37729 0
M  V30 411 H 40.8148 0.354005 -0.646413 0
M  V30 412 H 43.4568 0.248253 -1.88371 0
M  V30 413 H 41.6068 2.46104 -3.00608 0
M  V30 414 H 43.2788 0.391789 -4.59633 0
M  V30 415 H 41.5218 0.299231 -4.32767 0
M  V30 416 H 42.1928 1.63145 -5.2734 0
M  V30 417 H 44.6688 2.30129 -3.4667 0
M  V30 418 H 43.5448 3.39582 -4.31249 0
M  V30 419 H 43.8058 3.58588 -2.58586 0
M  V30 420 N 42.8649 1.48995 0.513639 0
M  V30 421 C 44.1129 1.57531 1.26604 0
M  V30 422 C 44.4339 0.258236 1.93283 0
M  V30 423 O 43.7039 -0.721502 1.8213 0
M  V30 424 H 42.2839 0.580387 0.470276 0
M  V30 425 H 44.9459 1.85552 0.596373 0
M  V30 426 H 44.0419 2.36486 2.03669 0
M  V30 427 N 44.343 -0.763751 1.37857 0
M  V30 428 C 45.291 -1.89864 1.34367 0
M  V30 429 C 46.285 -1.67816 0.231143 0
M  V30 430 O 47.491 -1.75508 0.399617 0
M  V30 431 H 43.866 -0.624501 0.41893 0
M  V30 432 H 45.837 -1.89925 2.30155 0
M  V30 433 C 44.586 -3.27227 1.1755 0
M  V30 434 H 43.909 -3.44773 2.02414 0
M  V30 435 H 45.349 -4.06911 1.1916 0
M  V30 436 C 43.808 -3.36692 -0.118311 0
M  V30 437 O 44.338 -3.86374 -1.09902 0
M  V30 438 N 42.544 -2.90092 -0.171717 0
M  V30 439 H 42.091 -2.49853 0.627012 0
M  V30 440 H 42.049 -2.96806 -1.03699 0
M  V30 441 N 45.8211 -1.22559 -0.990812 0
M  V30 442 C 47.0691 -1.04933 -1.72724 0
M  V30 443 C 47.3901 0.416158 -1.90508 0
M  V30 444 O 46.6601 1.29918 -1.46622 0
M  V30 445 H 45.2401 -0.385296 -0.639965 0
M  V30 446 H 47.9021 -1.54105 -1.19322 0
M  V30 447 H 46.9981 -1.52886 -2.72089 0
M  V30 448 N 47.2992 1.18797 -1.03562 0
M  V30 449 C 48.2292 2.24472 -0.643019 0
M  V30 450 C 49.2102 1.66433 0.351283 0
M  V30 451 O 50.3952 1.92803 0.232505 0
M  V30 452 C 47.5252 3.473 4.24935e-05 0
M  V30 453 C 46.4792 4.18055 -0.917257 0
M  V30 454 C 45.8052 5.34519 -0.138941 0
M  V30 455 C 47.1052 4.72109 -2.23407 0
M  V30 456 H 48.7992 2.57566 -1.52643 0
M  V30 457 H 46.3452 1.23806 -0.735394 0
M  V30 458 H 48.2982 4.20426 0.286383 0
M  V30 459 H 47.0222 3.13424 0.918299 0
M  V30 460 H 45.6812 3.46821 -1.1879 0
M  V30 461 H 45.3292 4.96891 0.781562 0
M  V30 462 H 45.0292 5.82794 -0.750005 0
M  V30 463 H 46.5532 6.10438 0.1405 0
M  V30 464 H 47.9672 5.36955 -2.00879 0
M  V30 465 H 46.3642 5.30897 -2.79765 0
M  V30 466 H 47.4342 3.89807 -2.88407 0
M  V30 467 N 48.7773 0.814389 1.34928 0
M  V30 468 C 49.7403 0.235759 2.27984 0
M  V30 469 C 50.7403 -0.581412 1.49921 0
M  V30 470 O 51.9303 -0.398758 1.69575 0
M  V30 471 C 49.0623 -0.670433 3.34242 0
M  V30 472 H 50.2553 1.05659 2.80671 0
M  V30 473 H 47.8083 0.585614 1.44915 0
M  V30 474 H 48.5433 -1.51466 2.86755 0
M  V30 475 H 48.3283 -0.0860822 3.92005 0
M  V30 476 H 49.8183 -1.06935 4.03676 0
M  V30 477 N 50.2554 -1.46986 0.568584 0
M  V30 478 C 51.1854 -2.32946 -0.160753 0
M  V30 479 C 52.1664 -1.44487 -0.897631 0
M  V30 480 O 53.3514 -1.73327 -0.875867 0
M  V30 481 C 50.4814 -3.26494 -1.18403 0
M  V30 482 C 49.4354 -4.24282 -0.562895 0
M  V30 483 C 48.7614 -5.07236 -1.69163 0
M  V30 484 C 50.0614 -5.19989 0.490761 0
M  V30 485 H 51.7554 -2.94175 0.556916 0
M  V30 486 H 49.3014 -1.4146 0.26927 0
M  V30 487 H 51.2544 -3.85477 -1.70251 0
M  V30 488 H 49.9784 -2.63343 -1.93179 0
M  V30 489 H 48.6374 -3.66541 -0.0656164 0
M  V30 490 H 48.2854 -4.4048 -2.42871 0
M  V30 491 H 47.9854 -5.7345 -1.28174 0
M  V30 492 H 49.5094 -5.6908 -2.21314 0
M  V30 493 H 50.9234 -5.73271 0.0579047 0
M  V30 494 H 49.3204 -5.94469 0.820165 0
M  V30 495 H 50.3904 -4.64777 1.3824 0
M  V30 496 N 51.7335 -0.305618 -1.54608 0
M  V30 497 C 52.9815 0.301701 -1.99835 0
M  V30 498 C 53.3025 1.54054 -1.19551 0
M  V30 499 O 52.5725 1.93702 -0.292658 0
M  V30 500 H 51.1525 0.114468 -0.738178 0
M  V30 501 H 53.8145 -0.418016 -1.90364 0
M  V30 502 H 52.9105 0.570548 -3.06841 0
M  V30 503 N 53.2116 1.57565 -0.0334293 0
M  V30 504 C 54.4606 1.91155 0.643639 0
M  V30 505 C 54.7736 0.91192 1.73042 0
M  V30 506 O 55.9796 1.13923 2.46442 0
M  V30 507 C 54.4356 3.39443 1.1961 0
M  V30 508 C 54.0436 4.47774 0.142381 0
M  V30 509 C 55.7876 3.82094 1.84944 0
M  V30 510 C 53.6946 5.87162 0.706727 0
M  V30 511 H 52.6246 0.713368 0.244176 0
M  V30 512 H 55.2756 1.8323 -0.0994323 0
M  V30 513 H 53.6576 3.42313 1.99092 0
M  V30 514 H 54.8316 4.56469 -0.630296 0
M  V30 515 H 53.1466 4.14352 -0.412446 0
M  V30 516 H 55.7436 4.83591 2.2813 0
M  V30 517 H 56.0866 3.17386 2.69392 0
M  V30 518 H 56.6196 3.81665 1.12145 0
M  V30 519 H 53.3586 6.55424 -0.0997178 0
M  V30 520 H 52.8786 5.82064 1.44779 0
M  V30 521 H 54.5576 6.35866 1.19514 0
M  V30 522 N 54.6897 -0.239769 1.55765 0
M  V30 523 C 55.6197 -1.30052 1.9393 0
M  V30 524 C 56.6007 -1.49839 0.805132 0
M  V30 525 O 57.7857 -1.62328 1.06599 0
M  V30 526 C 54.9157 -2.65391 2.2402 0
M  V30 527 C 53.8697 -2.60289 3.39755 0
M  V30 528 C 53.1957 -3.99489 3.55405 0
M  V30 529 C 54.4957 -2.16654 4.75246 0
M  V30 530 H 56.1897 -0.983573 2.82783 0
M  V30 531 H 53.7357 -0.471701 1.36055 0
M  V30 532 H 55.6887 -3.3974 2.49308 0
M  V30 533 H 54.4127 -2.98736 1.32 0
M  V30 534 H 53.0717 -1.88398 3.14487 0
M  V30 535 H 52.7197 -4.30112 2.60793 0
M  V30 536 H 52.4197 -3.96962 4.33238 0
M  V30 537 H 53.9437 -4.75528 3.83022 0
M  V30 538 H 55.3577 -2.80737 4.99859 0
M  V30 539 H 53.7547 -2.25223 5.56232 0
M  V30 540 H 54.8247 -1.11835 4.71827 0
M  V30 541 N 56.1678 -1.49265 -0.50573 0
M  V30 542 C 57.3928 -1.62478 -1.28902 0
M  V30 543 C 57.8178 -0.294332 -1.85783 0
M  V30 544 O 57.1758 0.737412 -1.65626 0
M  V30 545 C 57.2238 -2.69268 -2.39848 0
M  V30 546 O 56.3278 -2.28113 -3.43567 0
M  V30 547 H 55.6688 -0.54399 -0.380751 0
M  V30 548 H 58.1988 -1.95421 -0.605952 0
M  V30 549 H 58.2088 -2.91291 -2.85681 0
M  V30 550 H 56.8838 -3.65846 -1.97812 0
M  V30 551 H 55.4608 -2.16401 -3.03685 0
M  V30 552 N 57.6459 0.756429 -1.3826 0
M  V30 553 C 58.6089 1.85176 -1.35065 0
M  V30 554 C 59.6089 1.58818 -0.251703 0
M  V30 555 O 60.7989 1.66615 -0.508433 0
M  V30 556 C 57.9309 3.22596 -1.10201 0
M  V30 557 H 59.1239 1.89417 -2.3251 0
M  V30 558 H 56.6769 0.95783 -1.23512 0
M  V30 559 H 57.4119 3.24025 -0.133504 0
M  V30 560 H 57.1969 3.43122 -1.89762 0
M  V30 561 H 58.6869 4.02673 -1.10654 0
M  V30 562 N 59.124 1.23083 0.984299 0
M  V30 563 C 60.54 0.992637 1.24975 0
M  V30 564 C 60.74 -0.308618 1.99123 0
M  V30 565 O 59.796 -1.02905 2.30579 0
M  V30 566 C 61.109 2.19698 2.05312 0
M  V30 567 C 62.657 2.24147 2.18465 0
M  V30 568 C 63.132 3.44157 3.02192 0
M  V30 569 N 64.623 3.44372 3.09777 0
M  V30 570 C 65.358 4.33886 3.74874 0
M  V30 571 N 64.854 5.3363 4.41827 0
M  V30 572 N 66.647 4.21639 3.71721 0
M  V30 573 H 58.798 2.06731 0.487453 0
M  V30 574 H 61.061 0.906339 0.277944 0
M  V30 575 H 60.767 3.1411 1.58201 0
M  V30 576 H 60.641 2.20465 3.06064 0
M  V30 577 H 63.028 1.30277 2.64786 0
M  V30 578 H 63.109 2.27415 1.17115 0
M  V30 579 H 62.753 4.38332 2.56568 0
M  V30 580 H 62.683 3.3813 4.03702 0
M  V30 581 H 65.174 2.72201 2.62135 0
M  V30 582 H 65.487 5.98196 4.89266 0
M  V30 583 H 63.832 5.37534 4.40548 0
M  V30 584 H 67.023 3.42962 3.18582 0
M  V30 585 H 67.196 4.91604 4.22173 0
M  V30 586 N 60.6021 -1.18246 1.0419 0
M  V30 587 C 62.0181 -1.40269 0.761366 0
M  V30 588 C 62.2181 -1.90777 -0.648578 0
M  V30 589 O 61.2741 -2.0929 -1.41258 0
M  V30 590 C 62.5871 -2.40237 1.8085 0
M  V30 591 C 64.1351 -2.53961 1.82955 0
M  V30 592 C 64.6101 -3.57194 2.86664 0
M  V30 593 N 66.1011 -3.64702 2.85563 0
M  V30 594 C 66.8361 -4.44309 3.6246 0
M  V30 595 N 66.3321 -5.27514 4.49111 0
M  V30 596 N 68.1251 -4.39084 3.50944 0
M  V30 597 H 60.2761 -0.837882 1.95175 0
M  V30 598 H 62.5391 -0.430608 0.84456 0
M  V30 599 H 62.2451 -2.10176 2.81991 0
M  V30 600 H 62.1191 -3.39601 1.64168 0
M  V30 601 H 64.5061 -2.83338 0.824855 0
M  V30 602 H 64.5871 -1.54706 2.03715 0
M  V30 603 H 64.2311 -3.28558 3.87314 0
M  V30 604 H 64.1611 -4.5613 2.6316 0
M  V30 605 H 66.6521 -3.05289 2.22727 0
M  V30 606 H 66.9651 -5.85411 5.04493 0
M  V30 607 H 65.3101 -5.2693 4.53178 0
M  V30 608 H 68.5011 -3.7313 2.82651 0
M  V30 609 H 68.6741 -5.00883 4.11121 0
M  V30 610 N 62.0802 -0.821533 -1.34494 0
M  V30 611 C 63.4912 -0.467956 -1.8074 0
M  V30 612 C 63.8422 1.01151 -1.68116 0
M  V30 613 O 62.9672 1.78707 -1.22036 0
M  V30 614 C 63.5622 -0.842627 -3.28154 0
M  V30 615 C 62.1212 -0.541439 -3.72485 0
M  V30 616 C 61.2682 -1.06028 -2.56229 0
M  V30 617 H 64.2192 -1.01183 -1.22261 0
M  V30 618 H 64.2402 -0.145876 -3.8022 0
M  V30 619 H 63.7522 -1.91945 -3.37311 0
M  V30 620 H 61.8532 0.526034 -3.68868 0
M  V30 621 H 61.9662 -1.08453 -4.66663 0
M  V30 622 H 60.3302 -0.481892 -2.501 0
M  V30 623 H 61.1132 -2.14352 -2.68157 0
M  V30 624 N 63.5583 1.46682 -0.576371 0
M  V30 625 C 64.5213 2.28707 0.150239 0
M  V30 626 C 65.5213 1.38035 0.824794 0
M  V30 627 O 66.7113 1.60476 0.677719 0
M  V30 628 C 63.8433 3.18248 1.22192 0
M  V30 629 H 65.0363 2.94423 -0.570521 0
M  V30 630 H 62.5893 1.52688 -0.334078 0
M  V30 631 H 63.3243 2.57265 1.97447 0
M  V30 632 H 63.1093 3.85 0.742812 0
M  V30 633 H 64.5993 3.80001 1.73172 0
M  V30 634 N 65.0364 0.313813 1.54444 0
M  V30 635 C 66.4524 -0.0391619 1.59552 0
M  V30 636 C 66.6524 -1.51322 1.33056 0
M  V30 637 O 65.7084 -2.26782 1.11022 0
M  V30 638 C 67.0214 0.370302 2.98411 0
M  V30 639 C 68.5694 0.320139 3.11358 0
M  V30 640 C 69.0444 0.704617 4.52547 0
M  V30 641 N 70.5354 0.657645 4.58508 0
M  V30 642 C 71.2704 0.927453 5.6585 0
M  V30 643 N 70.7664 1.26389 6.81174 0
M  V30 644 N 72.5594 0.853662 5.5558 0
M  V30 645 H 64.7104 1.27433 1.69925 0
M  V30 646 H 66.9734 0.517511 0.794284 0
M  V30 647 H 66.6794 1.39694 3.22767 0
M  V30 648 H 66.5534 -0.269619 3.76235 0
M  V30 649 H 68.9404 -0.697275 2.86744 0
M  V30 650 H 69.0214 0.99486 2.35661 0
M  V30 651 H 68.6654 1.7199 4.77893 0
M  V30 652 H 68.5954 0.00768843 5.26599 0
M  V30 653 H 71.0864 0.409067 3.75679 0
M  V30 654 H 71.3994 1.4554 7.58972 0
M  V30 655 H 69.7444 1.30206 6.82694 0
M  V30 656 H 72.9354 0.590383 4.64362 0
M  V30 657 H 73.1084 1.0673 6.3915 0
M  V30 658 N 66.5145 -1.57545 0.0417849 0
M  V30 659 C 67.9255 -1.80011 -0.495259 0
M  V30 660 C 68.2765 -0.953199 -1.71489 0
M  V30 661 O 67.4015 -0.167138 -2.15754 0
M  V30 662 C 67.9965 -3.26482 -0.905265 0
M  V30 663 C 66.5555 -3.499 -1.38734 0
M  V30 664 C 65.7025 -2.74979 -0.358056 0
M  V30 665 H 68.6535 -1.56425 0.267736 0
M  V30 666 H 68.6745 -3.36887 -1.76882 0
M  V30 667 H 68.1865 -3.88096 -0.017401 0
M  V30 668 H 66.2875 -2.93553 -2.29471 0
M  V30 669 H 66.4005 -4.58615 -1.38598 0
M  V30 670 H 64.7645 -2.40834 -0.828912 0
M  V30 671 H 65.5475 -3.39315 0.521561 0
M  V30 672 N 67.9926 0.231505 -1.5589 0
M  V30 673 C 69.2176 0.978689 -1.82856 0
M  V30 674 C 69.6426 1.77559 -0.620846 0
M  V30 675 O 69.0006 1.76119 0.430305 0
M  V30 676 C 69.0486 1.87997 -3.07716 0
M  V30 677 O 68.1526 2.97393 -2.85712 0
M  V30 678 H 67.4936 0.277663 -0.603158 0
M  V30 679 H 70.0236 0.24783 -2.03093 0
M  V30 680 H 70.0336 2.2917 -3.37558 0
M  V30 681 H 68.7086 1.29417 -3.95252 0
M  V30 682 H 67.2856 2.60238 -2.67078 0
M  V30 683 N 69.4707 1.49531 0.497807 0
M  V30 684 C 70.4337 1.65916 1.58128 0
M  V30 685 C 71.4337 0.530825 1.51786 0
M  V30 686 O 72.6237 0.797342 1.54881 0
M  V30 687 C 69.7557 1.65951 2.9778 0
M  V30 688 H 70.9487 2.62556 1.44929 0
M  V30 689 H 68.5017 1.38611 0.722275 0
M  V30 690 H 69.2367 0.709065 3.16453 0
M  V30 691 H 69.0217 2.47897 3.03792 0
M  V30 692 H 70.5117 1.80673 3.76493 0
M  V30 693 N 70.9488 -0.749086 1.3866 0
M  V30 694 C 72.1958 -1.50833 1.35114 0
M  V30 695 C 72.5238 -1.94415 -0.0574049 0
M  V30 696 O 71.7788 -1.66065 -1.03541 0
M  V30 697 C 72.0778 -2.7712 2.25697 0
M  V30 698 C 71.7438 -2.52477 3.73585 0
M  V30 699 C 70.4058 -2.45466 4.13884 0
M  V30 700 C 72.7578 -2.31066 4.67181 0
M  V30 701 C 70.0858 -2.15064 5.45861 0
M  V30 702 C 72.4378 -2.02183 5.9942 0
M  V30 703 C 71.1018 -1.93631 6.38798 0
M  V30 704 H 70.3718 -0.551936 0.494416 0
M  V30 705 H 73.0188 -0.860979 1.71054 0
M  V30 706 H 71.3238 -3.46528 1.82827 0
M  V30 707 H 73.0208 -3.35096 2.20254 0
M  V30 708 H 69.6108 -2.58807 3.41638 0
M  V30 709 H 73.7948 -2.35459 4.3689 0
M  V30 710 H 69.0508 -2.06954 5.75308 0
M  V30 711 H 73.2248 -1.8462 6.71482 0
M  V30 712 H 70.8518 -1.69839 7.40985 0
M  V30 713 N 72.4269 -1.23603 -0.977757 0
M  V30 714 C 73.3899 -1.02069 -2.05218 0
M  V30 715 C 74.3899 0.0184305 -1.60789 0
M  V30 716 O 75.5799 -0.221569 -1.72785 0
M  V30 717 C 72.7119 -0.544926 -3.36517 0
M  V30 718 H 73.9049 -1.9742 -2.25755 0
M  V30 719 H 71.4579 -1.05684 -1.15155 0
M  V30 720 H 72.1929 0.412241 -3.21669 0
M  V30 721 H 71.9779 -1.2948 -3.70105 0
M  V30 722 H 73.4679 -0.414985 -4.15533 0
M  V30 723 N 73.905 1.17692 -1.04816 0
M  V30 724 C 75.151 1.88137 -0.75711 0
M  V30 725 C 75.484 1.80604 0.713841 0
M  V30 726 O 74.759 1.21146 1.52164 0
M  V30 727 C 75.042 3.38318 -1.2334 0
M  V30 728 C 74.895 3.54622 -2.76701 0
M  V30 729 C 76.214 4.32214 -0.829415 0
M  V30 730 H 73.333 0.683163 -0.27651 0
M  V30 731 H 75.975 1.38424 -1.30149 0
M  V30 732 H 74.125 3.80787 -0.770286 0
M  V30 733 H 75.797 3.21194 -3.31107 0
M  V30 734 H 74.04 2.97026 -3.16161 0
M  V30 735 H 74.711 4.60028 -3.05088 0
M  V30 736 H 77.187 3.97565 -1.22805 0
M  V30 737 H 76.063 5.35838 -1.19033 0
M  V30 738 H 76.324 4.41294 0.266891 0
M  V30 739 N 75.3831 0.828654 1.34056 0
M  V30 740 C 76.3131 0.269443 2.3194 0
M  V30 741 C 77.2941 -0.617247 1.58506 0
M  V30 742 O 78.4791 -0.542931 1.86456 0
M  V30 743 C 75.6091 -0.564793 3.42677 0
M  V30 744 C 74.5631 0.225241 4.27407 0
M  V30 745 C 73.8891 -0.7321 5.29664 0
M  V30 746 C 75.1891 1.43663 5.02154 0
M  V30 747 H 76.8831 1.08728 2.7896 0
M  V30 748 H 74.4291 0.524283 1.34117 0
M  V30 749 H 76.3821 -0.966233 4.10173 0
M  V30 750 H 75.1061 -1.41574 2.9432 0
M  V30 751 H 73.7651 0.608117 3.61521 0
M  V30 752 H 73.4131 -1.57916 4.77568 0
M  V30 753 H 73.1131 -0.20767 5.87233 0
M  V30 754 H 74.6371 -1.13128 6.00029 0
M  V30 755 H 76.0511 1.1089 5.62473 0
M  V30 756 H 74.4481 1.89711 5.69324 0
M  V30 757 H 75.5181 2.21181 4.31517 0
M  V30 758 N 76.8612 -1.46375 0.584142 0
M  V30 759 C 78.1072 -2.02678 0.0703716 0
M  V30 760 C 78.4402 -1.4545 -1.28678 0
M  V30 761 O 77.7152 -0.62014 -1.84349 0
M  V30 762 C 77.9982 -3.60099 0.00614674 0
M  V30 763 C 77.8512 -4.27709 1.3923 0
M  V30 764 C 79.1702 -4.34598 -0.693742 0
M  V30 765 H 76.2892 -0.736504 0.027047 0
M  V30 766 H 78.9312 -1.74501 0.751615 0
M  V30 767 H 77.0812 -3.84236 -0.574009 0
M  V30 768 H 78.7532 -4.14832 2.01773 0
M  V30 769 H 76.9962 -3.87016 1.95962 0
M  V30 770 H 77.6672 -5.36478 1.29982 0
M  V30 771 H 80.1432 -4.15615 -0.200869 0
M  V30 772 H 79.0192 -5.44318 -0.707714 0
M  V30 773 H 79.2802 -4.05759 -1.75533 0
M  V30 774 N 78.3393 -0.321999 -1.54275 0
M  V30 775 C 79.5673 0.283052 -2.04955 0
M  V30 776 C 79.9823 1.45904 -1.19823 0
M  V30 777 O 79.3393 1.81063 -0.228545 0
M  V30 778 C 79.3903 0.719028 -3.54277 0
M  V30 779 O 79.1113 -0.410175 -4.36176 0
M  V30 780 C 80.6123 1.38705 -4.21041 0
M  V30 781 H 77.8323 0.0584616 -0.668448 0
M  V30 782 H 80.3763 -0.467734 -1.99079 0
M  V30 783 H 78.5313 1.41979 -3.60445 0
M  V30 784 H 78.9453 -0.0669416 -5.24457 0
M  V30 785 H 80.4193 1.64306 -5.2698 0
M  V30 786 H 80.8963 2.33385 -3.72059 0
M  V30 787 H 81.5023 0.728906 -4.19007 0
M  V30 788 N 79.8174 1.5752 -0.0501392 0
M  V30 789 C 81.0654 1.9227 0.622642 0
M  V30 790 C 81.3864 0.929083 1.71444 0
M  V30 791 O 80.6564 -0.0262186 1.95882 0
M  V30 792 H 79.2364 0.709739 0.232981 0
M  V30 793 H 81.8984 1.94628 -0.102898 0
M  V30 794 H 80.9944 2.93479 1.06191 0
M  V30 795 N 81.2955 -0.223234 1.56011 0
M  V30 796 C 82.2255 -1.27988 1.95298 0
M  V30 797 C 83.2065 -1.48976 0.820979 0
M  V30 798 O 84.3915 -1.61188 1.08315 0
M  V30 799 C 81.5215 -2.63 2.26822 0
M  V30 800 C 80.4755 -2.56671 3.42497 0
M  V30 801 C 79.8015 -3.95697 3.59622 0
M  V30 802 C 81.1015 -2.11601 4.77517 0
M  V30 803 H 82.7955 -0.953525 2.8381 0
M  V30 804 H 80.3415 -0.457244 1.36548 0
M  V30 805 H 82.2945 -3.37077 2.52898 0
M  V30 806 H 81.0185 -2.9732 1.35161 0
M  V30 807 H 79.6775 -1.85051 3.16467 0
M  V30 808 H 79.3255 -4.27322 2.6534 0
M  V30 809 H 79.0255 -3.92345 4.37424 0
M  V30 810 H 80.5495 -4.71438 3.88044 0
M  V30 811 H 81.9635 -2.7542 5.02809 0
M  V30 812 H 80.3605 -2.19311 5.5859 0
M  V30 813 H 81.4305 -1.06824 4.72987 0
M  V30 814 N 82.7736 -1.49793 -0.48987 0
M  V30 815 C 83.7366 -1.66752 -1.57246 0
M  V30 816 C 84.7366 -0.538867 -1.51502 0
M  V30 817 O 85.9266 -0.805545 -1.54456 0
M  V30 818 C 83.0586 -1.67528 -2.96896 0
M  V30 819 H 84.2516 -2.63321 -1.43534 0
M  V30 820 H 81.8046 -1.38992 -0.714914 0
M  V30 821 H 82.5396 -0.725837 -3.16073 0
M  V30 822 H 82.3246 -2.49504 -3.02473 0
M  V30 823 H 83.8146 -1.82667 -3.7553 0
M  V30 824 N 84.2517 0.741722 -1.39055 0
M  V30 825 C 85.2147 1.83733 -1.37021 0
M  V30 826 C 86.2147 1.58542 -0.268534 0
M  V30 827 O 87.4047 1.66067 -0.526076 0
M  V30 828 C 84.5367 3.2141 -1.13617 0
M  V30 829 H 85.7297 1.86941 -2.34506 0
M  V30 830 H 83.2827 0.944676 -1.24521 0
M  V30 831 H 84.0177 3.23865 -0.167863 0
M  V30 832 H 83.8027 3.4109 -1.93391 0
M  V30 833 H 85.2927 4.01477 -1.14918 0
M  V30 834 N 85.7298 1.2412 0.971189 0
M  V30 835 C 86.9578 1.10575 1.74874 0
M  V30 836 C 87.3728 -0.342017 1.85676 0
M  V30 837 O 86.7298 -1.23617 1.34258 0
M  V30 838 C 86.7808 1.73579 3.171 0
M  V30 839 O 86.5018 3.12695 3.06844 0
M  V30 840 C 88.0028 1.65598 4.11208 0
M  V30 841 H 85.2228 0.386504 0.548503 0
M  V30 842 H 87.7668 1.64156 1.21955 0
M  V30 843 H 85.9218 1.24009 3.67016 0
M  V30 844 H 86.3358 3.43412 3.96445 0
M  V30 845 H 87.8098 2.1437 5.08674 0
M  V30 846 H 88.2868 0.616532 4.34851 0
M  V30 847 H 88.8928 2.14578 3.67201 0
M  V30 848 N 87.2079 -1.17134 1.05439 0
M  V30 849 C 88.4849 -1.83411 0.679699 0
M  V30 850 C 88.8649 -1.9368 -0.839726 0
M  V30 851 O 88.2129 -1.47325 -1.74664 0
M  V30 852 C 88.4229 -3.20918 1.37159 0
M  V30 853 C 89.7709 -3.96796 1.51123 0
M  V30 854 O 90.7949 -3.30406 1.3308 0
M  V30 855 O 89.6539 -5.15778 1.80651 0
M  V30 856 H 86.7479 -0.79154 0.239569 0
M  V30 857 H 89.2939 -1.24411 1.15413 0
M  V30 858 H 88.0659 -3.08428 2.40807 0
M  V30 859 H 87.6889 -3.87587 0.886674 0
M  V30 860 N 88.686 -0.835752 -1.33615 0
M  V30 861 C 89.616 -0.281739 -2.31794 0
M  V30 862 C 90.597 0.608833 -1.58831 0
M  V30 863 O 91.782 0.533035 -1.86741 0
M  V30 864 C 88.912 0.546612 -3.42971 0
M  V30 865 C 87.866 -0.247904 -4.27281 0
M  V30 866 C 87.192 0.704001 -5.30045 0
M  V30 867 C 88.492 -1.46324 -5.01385 0
M  V30 868 H 90.186 -1.10206 -2.78379 0
M  V30 869 H 87.732 -0.531388 -1.33837 0
M  V30 870 H 89.685 0.944467 -4.1068 0
M  V30 871 H 88.409 1.40011 -2.95067 0
M  V30 872 H 87.068 -0.627281 -3.61194 0
M  V30 873 H 86.716 1.55381 -4.78399 0
M  V30 874 H 86.416 0.176524 -5.87335 0
M  V30 875 H 87.94 1.09944 -6.0062 0
M  V30 876 H 89.354 -1.13871 -5.61877 0
M  V30 877 H 87.751 -1.92728 -5.6831 0
M  V30 878 H 88.821 -2.23467 -4.30338 0
M  V30 879 N 90.1641 1.46063 -0.591896 0
M  V30 880 C 91.0941 2.33172 0.123673 0
M  V30 881 C 92.0751 1.45897 0.87453 0
M  V30 882 O 93.2601 1.74698 0.848181 0
M  V30 883 C 90.3901 3.28336 1.13194 0
M  V30 884 C 89.3441 4.25124 0.495324 0
M  V30 885 C 88.6701 5.09863 1.61071 0
M  V30 886 C 89.9701 5.19143 -0.573425 0
M  V30 887 H 91.6641 2.93252 -0.603646 0
M  V30 888 H 89.2101 1.41014 -0.291741 0
M  V30 889 H 91.1631 3.88137 1.64097 0
M  V30 890 H 89.8871 2.66383 1.88965 0
M  V30 891 H 88.5461 3.66599 0.00729452 0
M  V30 892 H 88.1941 4.44288 2.35832 0
M  V30 893 H 87.8941 5.75417 1.19035 0
M  V30 894 H 89.4181 5.72529 2.12233 0
M  V30 895 H 90.8321 5.73106 -0.1491 0
M  V30 896 H 89.2291 5.93089 -0.914636 0
M  V30 897 H 90.2991 4.62519 -1.45617 0
M  V30 898 N 91.6422 0.330177 1.54103 0
M  V30 899 C 92.8902 -0.269871 2.0029 0
M  V30 900 C 93.2112 -1.52133 1.21986 0
M  V30 901 O 92.4812 -1.93212 0.323438 0
M  V30 902 H 91.0612 -0.10271 0.739905 0
M  V30 903 H 93.7232 0.448249 1.89675 0
M  V30 904 H 92.8192 -0.52166 3.07709 0
M  V30 905 N 93.1203 -1.57491 0.0584922 0
M  V30 906 C 94.3483 -1.97296 -0.623037 0
M  V30 907 C 94.7633 -0.936338 -1.63946 0
M  V30 908 O 94.1203 0.0785981 -1.82331 0
M  V30 909 C 94.1713 -3.37183 -1.30345 0
M  V30 910 O 93.8923 -4.36872 -0.32773 0
M  V30 911 C 95.3933 -3.91788 -2.07406 0
M  V30 912 H 92.6133 -0.649153 -0.169826 0
M  V30 913 H 95.1573 -2.04106 0.12696 0
M  V30 914 H 93.3123 -3.31502 -2.00463 0
M  V30 915 H 93.7263 -5.18141 -0.814269 0
M  V30 916 H 95.2003 -4.91926 -2.50425 0
M  V30 917 H 95.6773 -3.27609 -2.92521 0
M  V30 918 H 96.2833 -4.00829 -1.42184 0
M  V30 919 N 94.5984 0.214957 -1.56127 0
M  V30 920 C 95.8234 0.95924 -1.83884 0
M  V30 921 C 96.2484 1.7689 -0.639644 0
M  V30 922 O 95.6064 1.76566 0.411601 0
M  V30 923 C 95.6544 1.84723 -3.09693 0
M  V30 924 O 94.7584 2.94346 -2.8885 0
M  V30 925 H 94.0994 0.27125 -0.606069 0
M  V30 926 H 96.6294 0.226276 -2.03345 0
M  V30 927 H 96.6394 2.25576 -3.39969 0
M  V30 928 H 95.3144 1.25218 -3.96602 0
M  V30 929 H 93.8914 2.57391 -2.69823 0
M  V30 930 N 96.0765 1.50051 0.48192 0
M  V30 931 C 97.3235 1.60498 1.23477 0
M  V30 932 C 97.6515 0.300331 1.92167 0
M  V30 933 O 96.9065 -0.713094 1.82246 0
M  V30 934 C 97.2055 2.72717 2.30998 0
M  V30 935 C 96.8715 4.13572 1.79636 0
M  V30 936 C 95.5335 4.519 1.65348 0
M  V30 937 C 97.8855 5.01649 1.41412 0
M  V30 938 C 95.2135 5.76057 1.11244 0
M  V30 939 C 97.5655 6.26343 0.887538 0
M  V30 940 C 96.2295 6.63483 0.731207 0
M  V30 941 H 95.4995 0.587303 0.451836 0
M  V30 942 H 98.1465 1.83948 0.532468 0
M  V30 943 H 96.4515 2.43312 3.07094 0
M  V30 944 H 98.1485 2.78006 2.88988 0
M  V30 945 H 94.7385 3.83329 1.91721 0
M  V30 946 H 98.9225 4.72679 1.51289 0
M  V30 947 H 94.1785 6.03516 0.978686 0
M  V30 948 H 98.3525 6.93958 0.582654 0
M  V30 949 H 95.9795 7.59568 0.309806 0
M  V30 950 N 97.5546 -0.734337 1.39446 0
M  V30 951 C 98.4846 -1.86155 1.40955 0
M  V30 952 C 99.4656 -1.67898 0.272827 0
M  V30 953 O 100.651 -1.88207 0.478743 0
M  V30 954 C 97.7806 -3.23912 1.25294 0
M  V30 955 C 96.7346 -3.56808 2.36373 0
M  V30 956 C 96.0606 -4.93508 2.058 0
M  V30 957 C 97.3606 -3.59713 3.78687 0
M  V30 958 H 99.0546 -1.8515 2.35287 0
M  V30 959 H 96.6006 -0.889367 1.13253 0
M  V30 960 H 98.5536 -4.02443 1.2497 0
M  V30 961 H 97.2776 -3.25446 0.274308 0
M  V30 962 H 95.9366 -2.80606 2.35914 0
M  V30 963 H 95.5846 -4.91623 1.06374 0
M  V30 964 H 95.2846 -5.16486 2.80208 0
M  V30 965 H 96.8086 -5.74396 2.07128 0
M  V30 966 H 98.2226 -4.2832 3.81071 0
M  V30 967 H 96.6196 -3.94209 4.52459 0
M  V30 968 H 97.6896 -2.59504 4.09617 0
M  V30 969 N 99.0327 -1.24633 -0.964593 0
M  V30 970 C 100.258 -1.11596 -1.74818 0
M  V30 971 C 100.683 0.32723 -1.85232 0
M  V30 972 O 100.041 1.23695 -1.32549 0
M  V30 973 C 100.089 -1.76397 -3.1451 0
M  V30 974 O 99.1927 -1.03685 -3.99153 0
M  V30 975 H 98.5337 -0.390196 -0.537255 0
M  V30 976 H 101.064 -1.65002 -1.20977 0
M  V30 977 H 101.074 -1.8228 -3.65018 0
M  V30 978 H 99.7487 -2.81401 -3.06246 0
M  V30 979 H 98.3257 -1.05611 -3.57632 0
M  V30 980 N 100.511 1.16574 -1.06058 0
M  V30 981 C 101.922 1.68662 -0.800632 0
M  V30 982 C 102.273 1.84184 0.67608 0
M  V30 983 O 101.398 1.53568 1.52466 0
M  V30 984 C 101.993 3.06356 -1.44676 0
M  V30 985 C 100.552 3.55575 -1.23465 0
M  V30 986 C 99.6988 2.31616 -1.52477 0
M  V30 987 H 102.65 1.00969 -1.22438 0
M  V30 988 H 102.671 3.70636 -0.860788 0
M  V30 989 H 102.183 2.95027 -2.52152 0
M  V30 990 H 100.284 3.72167 -0.179527 0
M  V30 991 H 100.397 4.37812 -1.94571 0
M  V30 992 H 98.7608 2.36512 -0.945209 0
M  V30 993 H 99.5438 2.22887 -2.61106 0
M  V30 994 N 101.989 0.842826 1.3317 0
M  V30 995 C 102.952 0.284065 2.27433 0
M  V30 996 C 103.952 -0.54948 1.5112 0
M  V30 997 O 105.142 -0.362699 1.70382 0
M  V30 998 C 102.274 -0.599384 3.35589 0
M  V30 999 H 103.467 1.11589 2.78366 0
M  V30 1000 H 101.02 0.616221 1.4364 0
M  V30 1001 H 101.755 -1.45349 2.89904 0
M  V30 1002 H 101.54 -0.00291266 3.921 0
M  V30 1003 H 103.03 -0.983488 4.05854 0
M  V30 1004 N 103.467 -1.45747 0.599634 0
M  V30 1005 C 104.713 -2.02592 0.0918643 0
M  V30 1006 C 105.046 -1.46806 -1.27128 0
M  V30 1007 O 104.321 -0.639658 -1.83681 0
M  V30 1008 C 104.604 -3.60073 0.0443398 0
M  V30 1009 C 104.457 -4.26208 1.43759 0
M  V30 1010 C 105.776 -4.35309 -0.647608 0
M  V30 1011 H 102.895 -0.736175 0.034857 0
M  V30 1012 H 105.537 -1.73694 0.770081 0
M  V30 1013 H 103.687 -3.84823 -0.533224 0
M  V30 1014 H 105.359 -4.12668 2.06162 0
M  V30 1015 H 103.602 -3.84916 2.00056 0
M  V30 1016 H 104.273 -5.35069 1.35665 0
M  V30 1017 H 106.749 -4.15805 -0.156776 0
M  V30 1018 H 105.625 -5.45038 -0.649942 0
M  V30 1019 H 105.886 -4.07598 -1.71219 0
M  V30 1020 N 104.945 -0.338344 -1.53925 0
M  V30 1021 C 106.192 0.259758 -2.00827 0
M  V30 1022 C 106.52 1.50973 -1.22628 0
M  V30 1023 O 105.775 1.93379 -0.300509 0
M  V30 1024 C 106.074 0.62448 -3.51902 0
M  V30 1025 C 105.74 -0.528006 -4.47798 0
M  V30 1026 C 104.402 -0.844298 -4.73735 0
M  V30 1027 C 106.754 -1.30143 -5.0469 0
M  V30 1028 C 104.082 -1.93648 -5.53821 0
M  V30 1029 C 106.434 -2.38382 -5.85967 0
M  V30 1030 C 105.098 -2.70576 -6.10201 0
M  V30 1031 H 104.368 0.0950523 -0.734878 0
M  V30 1032 H 107.015 -0.465182 -1.85764 0
M  V30 1033 H 105.32 1.43006 -3.64769 0
M  V30 1034 H 107.017 1.09905 -3.85645 0
M  V30 1035 H 103.607 -0.271421 -4.2774 0
M  V30 1036 H 107.791 -1.07033 -4.84621 0
M  V30 1037 H 103.047 -2.19021 -5.70824 0
M  V30 1038 H 107.221 -2.98746 -6.29066 0
M  V30 1039 H 104.848 -3.55333 -6.72044 0
M  V30 1040 N 106.423 1.57458 -0.0668435 0
M  V30 1041 C 107.669 1.93587 0.6043 0
M  V30 1042 C 108.002 0.946722 1.69561 0
M  V30 1043 O 107.277 -0.0248516 1.94484 0
M  V30 1044 C 107.56 3.40014 1.18585 0
M  V30 1045 C 107.413 4.49685 0.101529 0
M  V30 1046 C 108.732 3.87154 2.09284 0
M  V30 1047 H 105.851 0.703958 0.218202 0
M  V30 1048 H 108.493 1.89542 -0.131804 0
M  V30 1049 H 106.643 3.43592 1.81319 0
M  V30 1050 H 108.315 4.5823 -0.531279 0
M  V30 1051 H 106.558 4.30059 -0.568487 0
M  V30 1052 H 107.229 5.49266 0.54874 0
M  V30 1053 H 109.705 3.85551 1.56491 0
M  V30 1054 H 108.581 4.90231 2.46911 0
M  V30 1055 H 108.842 3.2481 2.99918 0
M  V30 1056 N 107.901 -0.206675 1.56239 0
M  V30 1057 C 108.864 -1.23976 1.92776 0
M  V30 1058 C 109.864 -1.39041 0.807729 0
M  V30 1059 O 111.054 -1.37051 1.0753 0
M  V30 1060 C 108.186 -2.61112 2.19165 0
M  V30 1061 H 109.379 -0.927764 2.85189 0
M  V30 1062 H 106.932 -0.447718 1.4975 0
M  V30 1063 H 107.667 -2.97386 1.29352 0
M  V30 1064 H 107.452 -2.51552 3.00772 0
M  V30 1065 H 108.942 -3.35633 2.48476 0
M  V30 1066 N 109.379 -1.50304 -0.473955 0
M  V30 1067 C 110.609 -1.64663 -1.24778 0
M  V30 1068 C 111.017 -0.328174 -1.86332 0
M  V30 1069 O 110.36 0.699536 -1.69859 0
M  V30 1070 C 110.422 -2.6778 -2.39863 0
M  V30 1071 C 110.086 -4.11413 -1.98969 0
M  V30 1072 C 111.083 -4.97372 -1.51385 0
M  V30 1073 C 108.768 -4.57312 -2.07777 0
M  V30 1074 C 110.762 -6.27277 -1.13148 0
M  V30 1075 C 108.449 -5.87223 -1.69152 0
M  V30 1076 C 109.447 -6.72031 -1.21915 0
M  V30 1077 O 109.135 -7.99518 -0.838237 0
M  V30 1078 H 108.867 -0.556602 -0.383627 0
M  V30 1079 H 111.421 -1.9726 -0.572491 0
M  V30 1080 H 109.651 -2.30419 -3.10554 0
M  V30 1081 H 111.34 -2.71388 -3.01833 0
M  V30 1082 H 112.106 -4.63128 -1.44004 0
M  V30 1083 H 107.985 -3.91449 -2.43493 0
M  V30 1084 H 111.529 -6.93425 -0.762077 0
M  V30 1085 H 107.426 -6.20989 -1.76191 0
M  V30 1086 H 108.194 -8.12764 -0.967339 0
M  V30 1087 N 110.857 0.726932 -1.39834 0
M  V30 1088 C 111.82 1.82269 -1.38962 0
M  V30 1089 C 112.82 1.58248 -0.285334 0
M  V30 1090 O 114.01 1.65499 -0.54366 0
M  V30 1091 C 111.142 3.20186 -1.17019 0
M  V30 1092 H 112.335 1.84443 -2.36476 0
M  V30 1093 H 109.888 0.931416 -1.25516 0
M  V30 1094 H 110.623 3.23669 -0.202204 0
M  V30 1095 H 110.408 3.3902 -1.96998 0
M  V30 1096 H 111.898 4.00235 -1.1917 0
M  V30 1097 N 112.336 1.25143 0.95797 0
M  V30 1098 C 113.752 1.01892 1.22842 0
M  V30 1099 C 113.952 -0.266311 1.99732 0
M  V30 1100 O 113.008 -0.979913 2.3271 0
M  V30 1101 C 114.321 2.24004 2.00606 0
M  V30 1102 C 115.869 2.28731 2.13662 0
M  V30 1103 C 116.344 3.5049 2.94823 0
M  V30 1104 N 117.835 3.50866 3.02403 0
M  V30 1105 C 118.57 4.4174 3.65586 0
M  V30 1106 N 118.066 5.42882 4.30408 0
M  V30 1107 N 119.859 4.29429 3.62694 0
M  V30 1108 H 112.01 2.07718 0.443493 0
M  V30 1109 H 114.273 0.912031 0.258657 0
M  V30 1110 H 113.979 3.17395 1.51503 0
M  V30 1111 H 113.853 2.26907 3.01319 0
M  V30 1112 H 116.24 1.35865 2.61963 0
M  V30 1113 H 116.321 2.29848 1.12265 0
M  V30 1114 H 115.965 4.43676 2.47213 0
M  V30 1115 H 115.895 3.46617 3.96439 0
M  V30 1116 H 118.386 2.777 2.56302 0
M  V30 1117 H 118.699 6.0844 4.76467 0
M  V30 1118 H 117.044 5.46758 4.29047 0
M  V30 1119 H 120.235 3.49643 3.11236 0
M  V30 1120 H 120.408 5.00448 4.1165 0
M  V30 1121 N 113.814 -1.1601 1.06675 0
M  V30 1122 C 114.762 -2.22586 0.675157 0
M  V30 1123 C 115.756 -1.66525 -0.310766 0
M  V30 1124 O 116.962 -1.79145 -0.175215 0
M  V30 1125 H 113.337 -0.724855 0.200223 0
M  V30 1126 H 115.308 -2.52899 1.58381 0
M  V30 1127 C 114.057 -3.47604 0.0817162 0
M  V30 1128 H 113.38 -3.91058 0.831484 0
M  V30 1129 H 114.82 -4.23718 -0.154708 0
M  V30 1130 C 113.279 -3.15718 -1.17576 0
M  V30 1131 O 113.809 -3.31878 -2.26318 0
M  V30 1132 N 112.015 -2.69816 -1.07923 0
M  V30 1133 H 111.562 -2.56866 -0.194293 0
M  V30 1134 H 111.52 -2.48855 -1.92141 0
M  V30 1135 N 115.292 -0.849877 -1.32721 0
M  V30 1136 C 116.517 -0.463856 -2.02146 0
M  V30 1137 C 116.942 0.930449 -1.63476 0
M  V30 1138 O 116.3 1.61033 -0.832952 0
M  V30 1139 C 116.348 -0.604955 -3.55489 0
M  V30 1140 O 115.452 0.36425 -4.10788 0
M  V30 1141 H 114.793 -0.187046 -0.637111 0
M  V30 1142 H 117.323 -1.14775 -1.69375 0
M  V30 1143 H 117.333 -0.490696 -4.05038 0
M  V30 1144 H 116.008 -1.62174 -3.82978 0
M  V30 1145 H 114.585 0.206628 -3.72327 0
M  V30 1146 N 116.77 1.45427 -0.607355 0
M  V30 1147 C 117.995 2.07124 -0.107006 0
M  V30 1148 C 118.42 1.44906 1.19933 0
M  V30 1149 O 117.778 0.541687 1.73019 0
M  V30 1150 C 117.826 3.60595 0.0194119 0
M  V30 1151 O 116.93 3.98285 1.0697 0
M  V30 1152 H 116.271 0.659868 -0.0739597 0
M  V30 1153 H 118.801 1.86683 -0.837297 0
M  V30 1154 H 118.811 4.07419 0.2177 0
M  V30 1155 H 117.486 4.05266 -0.934453 0
M  V30 1156 H 116.063 3.63133 0.847889 0
M  V30 1157 N 118.248 0.346503 1.53744 0
M  V30 1158 C 119.178 -0.501193 2.28058 0
M  V30 1159 C 120.159 -1.10014 1.29734 0
M  V30 1160 O 121.344 -1.12097 1.58581 0
M  V30 1161 C 118.474 -1.65078 3.05559 0
M  V30 1162 C 117.428 -1.18003 4.11411 0
M  V30 1163 C 116.754 -2.41837 4.76884 0
M  V30 1164 C 118.054 -0.278394 5.21558 0
M  V30 1165 H 119.748 0.11875 2.99164 0
M  V30 1166 H 117.294 0.0585531 1.43881 0
M  V30 1167 H 119.247 -2.25028 3.56287 0
M  V30 1168 H 117.971 -2.29767 2.32109 0
M  V30 1169 H 116.63 -0.603331 3.61601 0
M  V30 1170 H 116.278 -3.0494 4.00026 0
M  V30 1171 H 115.978 -2.1102 5.48402 0
M  V30 1172 H 117.502 -3.02508 5.30397 0
M  V30 1173 H 118.916 -0.784823 5.67903 0
M  V30 1174 H 117.313 -0.0619707 6.00068 0
M  V30 1175 H 118.383 0.684677 4.80042 0
M  V30 1176 N 119.726 -1.57421 0.075193 0
M  V30 1177 C 120.656 -2.15942 -0.888324 0
M  V30 1178 C 121.637 -1.08737 -1.30806 0
M  V30 1179 O 122.822 -1.36787 -1.37851 0
M  V30 1180 C 119.952 -2.72379 -2.1547 0
M  V30 1181 C 118.906 -3.8478 -1.87425 0
M  V30 1182 C 118.232 -4.27834 -3.20721 0
M  V30 1183 C 119.532 -5.08869 -1.17684 0
M  V30 1184 H 121.226 -2.96705 -0.400799 0
M  V30 1185 H 118.772 -1.42723 -0.191342 0
M  V30 1186 H 120.725 -3.11965 -2.83295 0
M  V30 1187 H 119.449 -1.88841 -2.6647 0
M  V30 1188 H 118.108 -3.45703 -1.22004 0
M  V30 1189 H 117.756 -3.41214 -3.6957 0
M  V30 1190 H 117.456 -5.03605 -3.02746 0
M  V30 1191 H 118.98 -4.70039 -3.89738 0
M  V30 1192 H 120.394 -5.4575 -1.75584 0
M  V30 1193 H 118.791 -5.8994 -1.09956 0
M  V30 1194 H 119.861 -4.84648 -0.156453 0
M  V30 1195 N 121.204 0.198386 -1.56346 0
M  V30 1196 C 122.452 0.91747 -1.80075 0
M  V30 1197 C 122.773 1.83929 -0.647692 0
M  V30 1198 O 122.043 1.93029 0.334166 0
M  V30 1199 H 120.623 0.341774 -0.664228 0
M  V30 1200 H 123.285 0.204684 -1.93822 0
M  V30 1201 H 122.381 1.51055 -2.7311 0
M  V30 1202 N 122.682 1.50554 0.465978 0
M  V30 1203 C 123.612 1.72722 1.57128 0
M  V30 1204 C 124.593 0.576294 1.6004 0
M  V30 1205 O 125.778 0.81598 1.76225 0
M  V30 1206 C 122.908 1.82605 2.95419 0
M  V30 1207 C 121.862 2.97835 3.07373 0
M  V30 1208 C 121.188 2.92867 4.47363 0
M  V30 1209 C 122.488 4.38265 2.84114 0
M  V30 1210 H 124.182 2.65267 1.38829 0
M  V30 1211 H 121.728 1.2765 0.666441 0
M  V30 1212 H 123.681 1.96698 3.72677 0
M  V30 1213 H 122.405 0.866858 3.14886 0
M  V30 1214 H 121.064 2.83401 2.3255 0
M  V30 1215 H 120.712 1.94783 4.63755 0
M  V30 1216 H 120.412 3.70227 4.56296 0
M  V30 1217 H 121.936 3.09015 5.26633 0
M  V30 1218 H 123.35 4.53198 3.51118 0
M  V30 1219 H 121.747 5.17115 3.04487 0
M  V30 1220 H 122.817 4.50281 1.7993 0
M  V30 1221 N 124.16 -0.719506 1.40217 0
M  V30 1222 C 125.123 -1.8153 1.39927 0
M  V30 1223 C 126.123 -1.58095 0.293723 0
M  V30 1224 O 127.313 -1.65209 0.552429 0
M  V30 1225 C 124.445 -3.19561 1.18716 0
M  V30 1226 H 125.638 -1.83186 2.37451 0
M  V30 1227 H 123.191 -0.924746 1.26008 0
M  V30 1228 H 123.926 -3.23557 0.219366 0
M  V30 1229 H 123.711 -3.3797 1.98793 0
M  V30 1230 H 125.201 -3.99598 1.21291 0
M  V30 1231 N 125.638 -1.25649 -0.95132 0
M  V30 1232 C 127.054 -1.02542 -1.223 0
M  V30 1233 C 127.254 0.255715 -1.99871 0
M  V30 1234 O 126.31 0.967558 -2.33226 0
M  V30 1235 C 127.623 -2.25065 -1.99415 0
M  V30 1236 C 129.171 -2.29861 -2.12446 0
M  V30 1237 C 129.646 -3.52048 -2.92961 0
M  V30 1238 N 131.137 -3.52465 -3.00538 0
M  V30 1239 C 131.872 -4.43672 -3.63239 0
M  V30 1240 N 131.368 -5.45157 -4.27523 0
M  V30 1241 N 133.161 -4.31346 -3.60412 0
M  V30 1242 H 125.312 -2.07951 -0.432471 0
M  V30 1243 H 127.575 -0.91339 -0.253816 0
M  V30 1244 H 127.281 -3.18194 -1.49817 0
M  V30 1245 H 127.155 -2.28502 -3.00111 0
M  V30 1246 H 129.542 -1.37252 -2.61239 0
M  V30 1247 H 129.623 -2.3044 -1.11044 0
M  V30 1248 H 129.267 -4.44981 -2.44856 0
M  V30 1249 H 129.197 -3.48715 -3.94596 0
M  V30 1250 H 131.688 -2.79056 -2.54826 0
M  V30 1251 H 132.001 -6.10958 -4.73234 0
M  V30 1252 H 130.346 -5.49025 -4.26141 0
M  V30 1253 H 133.537 -3.51288 -3.09377 0
M  V30 1254 H 133.71 -5.02624 -4.0899 0
M  V30 1255 N 127.117 1.15442 -1.07289 0
M  V30 1256 C 128.365 1.85845 -0.794096 0
M  V30 1257 C 128.686 1.82692 0.681809 0
M  V30 1258 O 127.956 1.26741 1.49377 0
M  V30 1259 H 126.536 0.688089 -0.290763 0
M  V30 1260 H 129.198 1.39947 -1.3565 0
M  V30 1261 H 128.294 2.91001 -1.12804 0
M  V30 1262 N 128.595 0.856903 1.32268 0
M  V30 1263 C 129.843 0.460474 1.96784 0
M  V30 1264 C 130.164 -0.987701 1.68135 0
M  V30 1265 O 129.434 -1.69058 0.989765 0
M  V30 1266 H 128.014 0.167289 0.728027 0
M  V30 1267 H 130.676 1.09383 1.61312 0
M  V30 1268 H 129.772 0.60739 3.06133 0
M  V30 1269 N 130.073 -1.45103 0.615059 0
M  V30 1270 C 131.484 -1.85654 0.197383 0
M  V30 1271 C 131.835 -1.51433 -1.24749 0
M  V30 1272 O 130.96 -0.944608 -1.94695 0
M  V30 1273 C 131.555 -3.36972 0.351448 0
M  V30 1274 C 130.114 -3.76398 -0.011593 0
M  V30 1275 C 129.261 -2.69024 0.672394 0
M  V30 1276 H 132.212 -1.35797 0.821263 0
M  V30 1277 H 132.233 -3.78239 -0.414227 0
M  V30 1278 H 131.745 -3.61847 1.40314 0
M  V30 1279 H 129.846 -3.5714 -1.06217 0
M  V30 1280 H 129.959 -4.77532 0.387265 0
M  V30 1281 H 128.323 -2.54465 0.109284 0
M  V30 1282 H 129.106 -2.96735 1.72636 0
M  V30 1283 N 131.551 -0.354651 -1.53558 0
M  V30 1284 C 132.514 0.484566 -2.24019 0
M  V30 1285 C 133.514 1.01861 -1.24422 0
M  V30 1286 O 134.704 0.906097 -1.4878 0
M  V30 1287 C 131.836 1.67615 -2.96847 0
M  V30 1288 H 133.029 -0.131843 -2.9961 0
M  V30 1289 H 130.582 -0.106165 -1.55939 0
M  V30 1290 H 131.317 2.33095 -2.25471 0
M  V30 1291 H 131.102 1.30029 -3.69912 0
M  V30 1292 H 132.592 2.27114 -3.50441 0
M  V30 1293 N 133.029 1.57378 -0.0835403 0
M  V30 1294 C 133.959 2.1641 0.87686 0
M  V30 1295 C 134.94 1.09429 1.30228 0
M  V30 1296 O 136.125 1.37516 1.37124 0
M  V30 1297 C 133.255 2.73517 2.14022 0
M  V30 1298 C 132.209 3.85769 1.85381 0
M  V30 1299 C 131.535 4.29529 3.18448 0
M  V30 1300 C 132.835 5.09486 1.14984 0
M  V30 1301 H 134.529 2.96914 0.385059 0
M  V30 1302 H 132.075 1.42823 0.18377 0
M  V30 1303 H 134.028 3.13463 2.81636 0
M  V30 1304 H 132.752 1.90252 2.65465 0
M  V30 1305 H 131.411 3.46345 1.20169 0
M  V30 1306 H 131.059 3.43169 3.67755 0
M  V30 1307 H 130.759 5.05204 3.00071 0
M  V30 1308 H 132.283 4.72099 3.8724 0
M  V30 1309 H 133.697 5.46674 1.72687 0
M  V30 1310 H 132.094 5.90515 1.06826 0
M  V30 1311 H 133.164 4.84724 0.130749 0
M  V30 1312 N 134.507 -0.190092 1.56449 0
M  V30 1313 C 135.747 -0.916414 1.82705 0
M  V30 1314 C 136.111 -1.80235 0.661763 0
M  V30 1315 O 137.312 -2.56484 0.80433 0
M  V30 1316 C 135.583 -1.70691 3.14005 0
M  V30 1317 S 137.142 -2.48457 3.61683 0
M  V30 1318 H 133.96 -0.307281 0.64117 0
M  V30 1319 H 136.562 -0.179433 1.94675 0
M  V30 1320 H 135.266 -1.04677 3.96826 0
M  V30 1321 H 134.797 -2.48562 3.04927 0
M  V30 1322 H 136.812 -3.72756 3.27517 0
M  V30 1323 N 135.985 -1.50799 -0.457987 0
M  V30 1324 C 137.262 -1.52968 -1.21902 0
M  V30 1325 C 137.642 -0.281906 -2.09209 0
M  V30 1326 O 136.99 0.734076 -2.16388 0
M  V30 1327 C 137.2 -2.8326 -2.03875 0
M  V30 1328 C 138.548 -3.34425 -2.6162 0
M  V30 1329 O 139.572 -2.8467 -2.14106 0
M  V30 1330 O 138.431 -4.21188 -3.48228 0
M  V30 1331 H 135.525 -0.614129 -0.553873 0
M  V30 1332 H 138.071 -1.63098 -0.468739 0
M  V30 1333 H 136.843 -3.65543 -1.39621 0
M  V30 1334 H 136.466 -2.76195 -2.8601 0
M  V30 1335 N 137.463 0.71206 -1.40597 0
M  V30 1336 C 138.426 1.80785 -1.40888 0
M  V30 1337 C 139.426 1.57937 -0.302103 0
M  V30 1338 O 140.616 1.64913 -0.561182 0
M  V30 1339 C 137.748 3.18927 -1.20409 0
M  V30 1340 H 138.941 1.81924 -2.38419 0
M  V30 1341 H 136.494 0.91805 -1.26497 0
M  V30 1342 H 137.229 3.23436 -0.236522 0
M  V30 1343 H 137.014 3.36911 -2.00582 0
M  V30 1344 H 138.504 3.98949 -1.23408 0
M  V30 1345 N 138.941 1.26152 0.944643 0
M  V30 1346 C 140.188 1.11492 1.69044 0
M  V30 1347 C 140.516 -0.342366 1.91463 0
M  V30 1348 O 139.771 -1.26812 1.49054 0
M  V30 1349 C 140.07 1.82541 3.07268 0
M  V30 1350 C 139.736 3.32445 3.04616 0
M  V30 1351 C 138.398 3.73337 3.036 0
M  V30 1352 C 140.75 4.28171 2.97185 0
M  V30 1353 C 138.078 5.08348 2.92915 0
M  V30 1354 C 140.43 5.63218 2.88041 0
M  V30 1355 C 139.094 6.03426 2.85366 0
M  V30 1356 H 138.364 0.407977 0.618576 0
M  V30 1357 H 141.011 1.56551 1.10291 0
M  V30 1358 H 139.316 1.29941 3.69625 0
M  V30 1359 H 141.013 1.68642 3.63815 0
M  V30 1360 H 137.603 2.99915 3.06185 0
M  V30 1361 H 141.787 3.97563 2.97081 0
M  V30 1362 H 137.043 5.38667 2.89219 0
M  V30 1363 H 141.217 6.37078 2.81254 0
M  V30 1364 H 138.844 7.07999 2.76842 0
M  V30 1365 N 140.419 -1.14872 1.07899 0
M  V30 1366 C 141.382 -2.17986 0.708161 0
M  V30 1367 C 142.382 -1.58775 -0.25442 0
M  V30 1368 O 143.572 -1.74166 -0.034645 0
M  V30 1369 C 140.704 -3.40871 0.0446929 0
M  V30 1370 H 141.897 -2.52306 1.62116 0
M  V30 1371 H 139.45 -1.2943 0.876218 0
M  V30 1372 H 140.185 -3.12124 -0.880281 0
M  V30 1373 H 139.97 -3.8511 0.737091 0
M  V30 1374 H 141.46 -4.17121 -0.19991 0
M  V30 1375 N 141.898 -0.863906 -1.31812 0
M  V30 1376 C 143.145 -0.471836 -1.96926 0
M  V30 1377 C 143.473 0.974578 -1.68322 0
M  V30 1378 O 142.728 1.7003 -0.968933 0
M  V30 1379 C 143.027 -0.668547 -3.51091 0
M  V30 1380 C 142.693 -2.08683 -3.99703 0
M  V30 1381 C 141.355 -2.47471 -4.12688 0
M  V30 1382 C 143.707 -3.01207 -4.25351 0
M  V30 1383 C 141.035 -3.78037 -4.4867 0
M  V30 1384 C 143.387 -4.31282 -4.62794 0
M  V30 1385 C 142.051 -4.69992 -4.73987 0
M  V30 1386 H 141.321 -0.172657 -0.720604 0
M  V30 1387 H 143.968 -1.09573 -1.57054 0
M  V30 1388 H 142.273 0.0385252 -3.91781 0
M  V30 1389 H 143.97 -0.345102 -3.99512 0
M  V30 1390 H 140.56 -1.77566 -3.90087 0
M  V30 1391 H 144.744 -2.72469 -4.14819 0
M  V30 1392 H 140 -4.078 -4.55532 0
M  V30 1393 H 144.174 -5.03031 -4.81594 0
M  V30 1394 H 141.801 -5.71207 -5.01624 0
M  V30 1395 N 143.376 1.44774 -0.622745 0
M  V30 1396 C 144.339 2.29069 0.0774015 0
M  V30 1397 C 145.339 1.4059 0.780461 0
M  V30 1398 O 146.529 1.62551 0.626322 0
M  V30 1399 C 143.661 3.21974 1.12006 0
M  V30 1400 H 144.854 2.92459 -0.663901 0
M  V30 1401 H 142.407 1.51548 -0.382486 0
M  V30 1402 H 143.142 2.63417 1.89162 0
M  V30 1403 H 142.927 3.87168 0.619951 0
M  V30 1404 H 144.417 3.85318 1.60995 0
M  V30 1405 N 144.854 0.36279 1.53368 0
M  V30 1406 C 145.787 -0.528507 2.21996 0
M  V30 1407 C 146.765 -1.0852 1.21087 0
M  V30 1408 O 147.949 -1.14186 1.4998 0
M  V30 1409 C 145.076 -1.72893 2.91249 0
M  V30 1410 C 144.122 -1.29994 4.06207 0
M  V30 1411 S 144.955 -0.303575 5.34639 0
M  V30 1412 C 146.111 -1.51039 6.07403 0
M  V30 1413 H 146.344 0.0543423 2.9725 0
M  V30 1414 H 143.877 0.146889 1.537 0
M  V30 1415 H 145.835 -2.41751 3.31763 0
M  V30 1416 H 144.496 -2.28303 2.15724 0
M  V30 1417 H 143.689 -2.19549 4.53667 0
M  V30 1418 H 143.291 -0.690608 3.67569 0
M  V30 1419 H 145.583 -2.44186 6.31965 0
M  V30 1420 H 146.526 -1.07721 6.99858 0
M  V30 1421 H 146.934 -1.71518 5.37812 0
M  V30 1422 N 146.332 -1.57332 0.0918853 0
M  V30 1423 C 147.56 -1.98574 -0.581048 0
M  V30 1424 C 147.975 -0.970903 -1.61923 0
M  V30 1425 O 147.332 0.0399054 -1.82456 0
M  V30 1426 C 147.383 -3.39872 -1.23164 0
M  V30 1427 O 147.104 -4.37469 -0.234989 0
M  V30 1428 C 148.605 -3.96099 -1.99049 0
M  V30 1429 H 145.825 -0.65261 -0.156018 0
M  V30 1430 H 148.369 -2.0379 0.170225 0
M  V30 1431 H 146.524 -3.35679 -1.93386 0
M  V30 1432 H 146.938 -5.19751 -0.70418 0
M  V30 1433 H 148.412 -4.97127 -2.39934 0
M  V30 1434 H 148.889 -3.3374 -2.85507 0
M  V30 1435 H 149.495 -4.03755 -1.3365 0
M  V30 1436 N 147.81 0.181792 -1.56548 0
M  V30 1437 C 149.057 0.900097 -1.81396 0
M  V30 1438 C 149.385 1.82695 -0.667281 0
M  V30 1439 O 148.64 1.92614 0.346146 0
M  V30 1440 C 148.939 1.73728 -3.12335 0
M  V30 1441 C 148.605 0.960255 -4.40556 0
M  V30 1442 C 147.267 0.745766 -4.75386 0
M  V30 1443 C 149.619 0.414477 -5.19549 0
M  V30 1444 C 146.947 -0.0257694 -5.86694 0
M  V30 1445 C 149.299 -0.343916 -6.31664 0
M  V30 1446 C 147.963 -0.569301 -6.65068 0
M  V30 1447 H 147.233 0.329369 -0.663775 0
M  V30 1448 H 149.88 0.165647 -1.90782 0
M  V30 1449 H 148.185 2.54081 -2.98245 0
M  V30 1450 H 149.882 2.29591 -3.28769 0
M  V30 1451 H 146.472 1.13746 -4.13231 0
M  V30 1452 H 150.656 0.567554 -4.93044 0
M  V30 1453 H 145.912 -0.210233 -6.11038 0
M  V30 1454 H 150.086 -0.774133 -6.92084 0
M  V30 1455 H 147.713 -1.16903 -7.51158 0
M  V30 1456 N 149.288 1.51039 0.449983 0
M  V30 1457 C 150.535 1.63081 1.20045 0
M  V30 1458 C 150.863 0.341024 1.91487 0
M  V30 1459 O 150.118 -0.674276 1.83717 0
M  V30 1460 C 150.417 2.77556 2.25161 0
M  V30 1461 C 150.083 4.17289 1.70823 0
M  V30 1462 C 148.745 4.55305 1.55725 0
M  V30 1463 C 151.097 5.04536 1.3074 0
M  V30 1464 C 148.425 5.78287 0.989999 0
M  V30 1465 C 150.777 6.28085 0.754482 0
M  V30 1466 C 149.441 6.64885 0.590308 0
M  V30 1467 H 148.711 0.596755 0.439277 0
M  V30 1468 H 151.358 1.85037 0.49333 0
M  V30 1469 H 149.663 2.49771 3.01863 0
M  V30 1470 H 151.36 2.84073 2.83026 0
M  V30 1471 H 147.95 3.8731 1.83546 0
M  V30 1472 H 152.134 4.75782 1.41229 0
M  V30 1473 H 147.39 6.05456 0.850451 0
M  V30 1474 H 151.564 6.95038 0.435324 0
M  V30 1475 H 149.191 7.60055 0.14862 0
M  V30 1476 N 150.766 -0.704594 1.40972 0
M  V30 1477 C 152.014 -1.46169 1.39568 0
M  V30 1478 C 152.335 -1.95 0.00253745 0
M  V30 1479 O 151.605 -1.71095 -0.954114 0
M  V30 1480 H 150.185 -0.542326 0.513704 0
M  V30 1481 H 152.847 -0.834553 1.76128 0
M  V30 1482 H 151.943 -2.32922 2.07735 0
M  V30 1483 N 152.244 -1.26651 -0.937939 0
M  V30 1484 C 153.174 -1.10993 -2.05433 0
M  V30 1485 C 154.155 -0.0142161 -1.70094 0
M  V30 1486 O 155.34 -0.186837 -1.93299 0
M  V30 1487 C 152.47 -0.745561 -3.39203 0
M  V30 1488 C 151.424 -1.79337 -3.88616 0
M  V30 1489 C 150.75 -1.28324 -5.19073 0
M  V30 1490 C 152.05 -3.19553 -4.13138 0
M  V30 1491 H 153.744 -2.0438 -2.1879 0
M  V30 1492 H 151.29 -0.984041 -1.05131 0
M  V30 1493 H 153.243 -0.622888 -4.16771 0
M  V30 1494 H 151.967 0.22401 -3.25831 0
M  V30 1495 H 150.626 -1.90477 -3.13231 0
M  V30 1496 H 150.274 -0.303414 -5.02084 0
M  V30 1497 H 149.974 -1.98369 -5.53103 0
M  V30 1498 H 151.498 -1.1733 -5.99221 0
M  V30 1499 H 152.912 -3.11471 -4.81309 0
M  V30 1500 H 151.309 -3.87218 -4.58457 0
M  V30 1501 H 152.379 -3.65368 -3.18801 0
M  V30 1502 N 153.722 1.14298 -1.08507 0
M  V30 1503 C 154.685 2.17607 -0.719711 0
M  V30 1504 C 155.685 1.58907 0.245997 0
M  V30 1505 O 156.875 1.74181 0.0254081 0
M  V30 1506 C 154.007 3.40842 -0.0627695 0
M  V30 1507 H 155.2 2.51443 -1.63452 0
M  V30 1508 H 152.753 1.28963 -0.88307 0
M  V30 1509 H 153.488 3.12587 0.863716 0
M  V30 1510 H 153.273 3.84713 -0.757504 0
M  V30 1511 H 154.763 4.17221 0.177786 0
M  V30 1512 N 155.201 0.870884 1.31352 0
M  V30 1513 C 156.426 0.495957 2.01383 0
M  V30 1514 C 156.851 -0.904324 1.64935 0
M  V30 1515 O 156.209 -1.59687 0.858466 0
M  V30 1516 C 156.257 0.661433 3.54482 0
M  V30 1517 O 155.361 -0.298851 4.11316 0
M  V30 1518 H 154.702 0.197158 0.634054 0
M  V30 1519 H 157.232 1.17455 1.67527 0
M  V30 1520 H 157.242 0.555072 4.04207 0
M  V30 1521 H 155.917 1.68246 3.8035 0
M  V30 1522 H 154.494 -0.147368 3.72609 0
M  V30 1523 N 156.679 -1.44442 0.630414 0
M  V30 1524 C 157.612 -2.27862 -0.124247 0
M  V30 1525 C 158.59 -1.38495 -0.851931 0
M  V30 1526 O 159.774 -1.67935 -0.856166 0
M  V30 1527 C 156.901 -3.17407 -1.18197 0
M  V30 1528 C 155.947 -4.22875 -0.554892 0
M  V30 1529 S 156.78 -5.31485 0.654489 0
M  V30 1530 C 157.936 -6.246 -0.40326 0
M  V30 1531 H 158.169 -2.91519 0.583435 0
M  V30 1532 H 155.702 -1.48618 0.418565 0
M  V30 1533 H 157.66 -3.69549 -1.78728 0
M  V30 1534 H 156.321 -2.52971 -1.86184 0
M  V30 1535 H 155.514 -4.85542 -1.35148 0
M  V30 1536 H 155.116 -3.73992 -0.0242105 0
M  V30 1537 H 157.408 -6.65375 -1.27602 0
M  V30 1538 H 158.351 -7.07851 0.187813 0
M  V30 1539 H 158.759 -5.59775 -0.728837 0
M  V30 1540 N 158.157 -0.370918 -1.53173 0
M  V30 1541 C 159.087 0.464847 -2.28826 0
M  V30 1542 C 160.068 1.07936 -1.31468 0
M  V30 1543 O 161.253 1.0956 -1.60344 0
M  V30 1544 C 158.383 1.60196 -3.08147 0
M  V30 1545 C 157.337 1.11443 -4.13237 0
M  V30 1546 C 156.663 2.3422 -4.80672 0
M  V30 1547 C 157.963 0.195384 -5.21934 0
M  V30 1548 H 159.657 -0.166329 -2.98938 0
M  V30 1549 H 157.203 -0.0814359 -1.4377 0
M  V30 1550 H 159.156 2.19332 -3.59822 0
M  V30 1551 H 157.88 2.26045 -2.35735 0
M  V30 1552 H 156.539 0.545727 -3.62515 0
M  V30 1553 H 156.187 2.98537 -4.04827 0
M  V30 1554 H 155.887 2.02269 -5.51689 0
M  V30 1555 H 157.411 2.94032 -5.35143 0
M  V30 1556 H 158.825 0.694375 -5.69079 0
M  V30 1557 H 157.222 -0.0335027 -6.00091 0
M  V30 1558 H 158.292 -0.760961 -4.78892 0
M  V30 1559 N 159.635 1.57281 -0.100228 0
M  V30 1560 C 160.884 1.93713 0.561984 0
M  V30 1561 C 161.197 0.984492 1.69018 0
M  V30 1562 O 162.403 1.24273 2.41389 0
M  V30 1563 C 160.859 3.4421 1.05106 0
M  V30 1564 C 160.467 4.47975 -0.0476628 0
M  V30 1565 C 162.211 3.89595 1.68571 0
M  V30 1566 C 160.118 5.89631 0.457055 0
M  V30 1567 H 159.048 0.723082 0.2137 0
M  V30 1568 H 161.699 1.82644 -0.177057 0
M  V30 1569 H 160.081 3.50449 1.84395 0
M  V30 1570 H 161.255 4.53385 -0.823333 0
M  V30 1571 H 159.57 4.1223 -0.587816 0
M  V30 1572 H 162.167 4.92832 2.07414 0
M  V30 1573 H 162.51 3.28526 2.55688 0
M  V30 1574 H 163.043 3.86078 0.958562 0
M  V30 1575 H 159.782 6.54411 -0.377616 0
M  V30 1576 H 159.302 5.87681 1.19962 0
M  V30 1577 H 160.981 6.40363 0.92437 0
M  V30 1578 N 161.113 -0.173488 1.56642 0
M  V30 1579 C 162.043 -1.2171 1.99271 0
M  V30 1580 C 163.024 -1.46289 0.867959 0
M  V30 1581 O 164.209 -1.5766 1.13388 0
M  V30 1582 C 161.339 -2.55651 2.35074 0
M  V30 1583 C 160.293 -2.45645 3.50489 0
M  V30 1584 C 159.619 -3.84056 3.72028 0
M  V30 1585 C 160.919 -1.96302 4.84007 0
M  V30 1586 H 162.613 -0.86275 2.867 0
M  V30 1587 H 160.159 -0.413571 1.37933 0
M  V30 1588 H 162.112 -3.2886 2.63494 0
M  V30 1589 H 160.836 -2.92869 1.44552 0
M  V30 1590 H 159.495 -1.7489 3.22194 0
M  V30 1591 H 159.143 -4.18664 2.788 0
M  V30 1592 H 158.843 -3.7823 4.49684 0
M  V30 1593 H 160.367 -4.58854 4.02846 0
M  V30 1594 H 161.781 -2.59284 5.11317 0
M  V30 1595 H 160.178 -2.01429 5.65284 0
M  V30 1596 H 161.248 -0.917226 4.76146 0
M  V30 1597 N 162.591 -1.51276 -0.441967 0
M  V30 1598 C 163.838 -1.63715 -1.19179 0
M  V30 1599 C 164.166 -0.351175 -1.91303 0
M  V30 1600 O 163.421 0.664524 -1.84072 0
M  V30 1601 C 163.72 -2.78746 -2.23686 0
M  V30 1602 C 163.386 -4.18189 -1.68607 0
M  V30 1603 C 162.048 -4.56125 -1.53308 0
M  V30 1604 C 164.4 -5.05222 -1.28062 0
M  V30 1605 C 161.728 -5.78804 -0.959317 0
M  V30 1606 C 164.08 -6.28476 -0.721162 0
M  V30 1607 C 162.744 -6.65188 -0.55504 0
M  V30 1608 H 162.014 -0.599076 -0.436106 0
M  V30 1609 H 164.661 -1.85296 -0.48351 0
M  V30 1610 H 162.966 -2.51369 -3.00535 0
M  V30 1611 H 164.663 -2.8557 -2.81515 0
M  V30 1612 H 161.253 -3.88277 -1.8149 0
M  V30 1613 H 165.437 -4.76524 -1.38704 0
M  V30 1614 H 160.693 -6.05899 -0.81833 0
M  V30 1615 H 164.867 -6.95259 -0.398458 0
M  V30 1616 H 162.494 -7.60123 -0.108311 0
M  V30 1617 N 164.069 0.697108 -1.41344 0
M  V30 1618 C 165.032 1.79281 -1.42797 0
M  V30 1619 C 166.032 1.57607 -0.318837 0
M  V30 1620 O 167.222 1.64309 -0.578642 0
M  V30 1621 C 164.354 3.17632 -1.23785 0
M  V30 1622 H 165.547 1.79385 -2.40335 0
M  V30 1623 H 163.1 0.904582 -1.27464 0
M  V30 1624 H 163.835 3.23167 -0.270814 0
M  V30 1625 H 163.62 3.34765 -2.04144 0
M  V30 1626 H 165.11 3.97617 -1.27633 0
M  V30 1627 N 165.547 1.27147 0.931209 0
M  V30 1628 C 166.48 1.0389 2.0318 0
M  V30 1629 C 167.458 -0.0395716 1.62552 0
M  V30 1630 O 168.642 0.104867 1.88208 0
M  V30 1631 C 165.769 0.575227 3.3378 0
M  V30 1632 C 164.815 1.64774 3.93385 0
M  V30 1633 S 165.648 3.23933 4.26413 0
M  V30 1634 C 166.804 2.79358 5.60098 0
M  V30 1635 H 167.037 1.97075 2.22596 0
M  V30 1636 H 164.57 1.10938 1.07387 0
M  V30 1637 H 166.528 0.314385 4.09294 0
M  V30 1638 H 165.189 -0.336505 3.12292 0
M  V30 1639 H 164.382 1.27454 4.87618 0
M  V30 1640 H 163.984 1.86048 3.24441 0
M  V30 1641 H 166.276 2.24443 6.39243 0
M  V30 1642 H 167.219 3.72322 6.02314 0
M  V30 1643 H 167.627 2.1861 5.20452 0
M  V30 1644 N 167.025 -1.13721 1.09112 0
M  V30 1645 C 167.988 -2.17222 0.731241 0
M  V30 1646 C 168.988 -1.59035 -0.237566 0
M  V30 1647 O 170.178 -1.74192 -0.0161704 0
M  V30 1648 C 167.31 -3.40804 0.0808443 0
M  V30 1649 H 168.503 -2.50573 1.64783 0
M  V30 1650 H 166.056 -1.28493 0.889897 0
M  V30 1651 H 166.791 -3.1304 -0.847127 0
M  V30 1652 H 166.576 -3.84306 0.777896 0
M  V30 1653 H 168.066 -4.1731 -0.155657 0
M  V30 1654 N 168.503 -0.877838 -1.30888 0
M  V30 1655 C 169.749 -0.493426 -1.96706 0
M  V30 1656 C 170.082 0.953504 -1.6918 0
M  V30 1657 O 169.357 1.67266 -0.992594 0
M  V30 1658 C 169.64 -0.760429 -3.51979 0
M  V30 1659 C 169.493 -2.25747 -3.89048 0
M  V30 1660 C 170.812 -0.232148 -4.39487 0
M  V30 1661 H 167.931 -0.180746 -0.714493 0
M  V30 1662 H 170.573 -1.10052 -1.54882 0
M  V30 1663 H 168.723 -0.243715 -3.87735 0
M  V30 1664 H 170.395 -2.84204 -3.63354 0
M  V30 1665 H 168.638 -2.72694 -3.37373 0
M  V30 1666 H 169.309 -2.39491 -4.97341 0
M  V30 1667 H 171.785 -0.674314 -4.106 0
M  V30 1668 H 170.661 -0.448355 -5.47066 0
M  V30 1669 H 170.922 0.866297 -4.33529 0
M  V30 1670 N 169.982 1.44106 -0.638065 0
M  V30 1671 C 170.892 2.34513 0.0637334 0
M  V30 1672 C 171.908 1.53018 0.828346 0
M  V30 1673 O 173.084 1.85723 0.779036 0
M  V30 1674 C 170.149 3.31095 1.02844 0
M  V30 1675 C 169.21 4.28497 0.26244 0
M  V30 1676 C 168.443 5.20465 1.1812 0
M  V30 1677 O 168.666 5.16514 2.42011 0
M  V30 1678 O 167.6 5.98251 0.661774 0
M  V30 1679 H 171.426 2.95989 -0.68003 0
M  V30 1680 H 169.011 1.43994 -0.398252 0
M  V30 1681 H 170.893 3.90526 1.58327 0
M  V30 1682 H 169.568 2.72144 1.7527 0
M  V30 1683 H 168.475 3.72592 -0.335602 0
M  V30 1684 H 169.808 4.90388 -0.421936 0
M  V30 1685 N 171.46 0.379036 1.52974 0
M  V30 1686 C 172.876 0.0285448 1.59574 0
M  V30 1687 C 173.076 -1.45542 1.39355 0
M  V30 1688 O 172.132 -2.2187 1.20541 0
M  V30 1689 C 173.445 0.496535 2.96572 0
M  V30 1690 C 174.993 0.451909 3.0972 0
M  V30 1691 C 175.468 0.895924 4.49152 0
M  V30 1692 N 176.959 0.851522 4.55306 0
M  V30 1693 C 177.694 1.16661 5.61407 0
M  V30 1694 N 177.19 1.55166 6.752 0
M  V30 1695 N 178.983 1.08853 5.51459 0
M  V30 1696 H 171.134 1.34525 1.64367 0
M  V30 1697 H 173.397 0.550733 0.771619 0
M  V30 1698 H 173.103 1.53258 3.16552 0
M  V30 1699 H 172.977 -0.109802 3.7704 0
M  V30 1700 H 175.364 -0.575029 2.89443 0
M  V30 1701 H 175.445 1.09392 2.3123 0
M  V30 1702 H 175.089 1.92104 4.70168 0
M  V30 1703 H 175.019 0.23103 5.26093 0
M  V30 1704 H 177.51 0.568038 3.73606 0
M  V30 1705 H 177.823 1.776 7.52116 0
M  V30 1706 H 176.168 1.59044 6.76557 0
M  V30 1707 H 179.359 0.786803 4.6144 0
M  V30 1708 H 179.532 1.33742 6.34048 0
M  V30 1709 N 172.938 -1.57226 0.108567 0
M  V30 1710 C 174.178 -1.96717 -0.555155 0
M  V30 1711 C 174.542 -0.990003 -1.64508 0
M  V30 1712 O 175.743 -1.2739 -2.36696 0
M  V30 1713 C 174.014 -3.40575 -1.08367 0
M  V30 1714 S 175.573 -4.02072 -1.75737 0
M  V30 1715 H 172.391 -0.687638 -0.180762 0
M  V30 1716 H 174.993 -1.94563 0.191172 0
M  V30 1717 H 173.697 -4.0945 -0.279092 0
M  V30 1718 H 173.228 -3.46356 -1.86551 0
M  V30 1719 H 175.243 -3.91977 -3.04251 0
M  V30 1720 N 174.416 0.165178 -1.56732 0
M  V30 1721 C 175.346 1.20651 -1.99914 0
M  V30 1722 C 176.327 1.45827 -0.875705 0
M  V30 1723 O 177.512 1.57057 -1.14223 0
M  V30 1724 C 174.642 2.54401 -2.36427 0
M  V30 1725 C 173.596 2.43782 -3.51787 0
M  V30 1726 C 172.922 3.82078 -3.7406 0
M  V30 1727 C 174.222 1.93732 -4.85041 0
M  V30 1728 H 175.916 0.847534 -2.87154 0
M  V30 1729 H 173.462 0.40625 -1.38151 0
M  V30 1730 H 175.415 3.27458 -2.65234 0
M  V30 1731 H 174.139 2.92098 -1.46103 0
M  V30 1732 H 172.798 1.73178 -3.23117 0
M  V30 1733 H 172.446 4.17179 -2.81017 0
M  V30 1734 H 172.146 3.7584 -4.51684 0
M  V30 1735 H 173.67 4.56712 -4.05274 0
M  V30 1736 H 175.084 2.56569 -5.12684 0
M  V30 1737 H 173.481 1.98428 -5.66345 0
M  V30 1738 H 174.551 0.891962 -4.76626 0
M  V30 1739 N 175.894 1.51508 0.433938 0
M  V30 1740 C 176.857 1.72473 1.50949 0
M  V30 1741 C 177.857 0.594725 1.49398 0
M  V30 1742 O 179.047 0.862315 1.5136 0
M  V30 1743 C 176.179 1.78431 2.90474 0
M  V30 1744 H 177.372 2.68467 1.33662 0
M  V30 1745 H 174.925 1.41549 0.662836 0
M  V30 1746 H 175.66 0.842645 3.13161 0
M  V30 1747 H 175.445 2.60558 2.93005 0
M  V30 1748 H 176.935 1.96479 3.68491 0
M  V30 1749 N 177.372 -0.689602 1.41712 0
M  V30 1750 C 178.302 -1.81577 1.46806 0
M  V30 1751 C 179.283 -1.66945 0.326105 0
M  V30 1752 O 180.468 -1.86588 0.538377 0
M  V30 1753 C 177.598 -3.19762 1.35535 0
M  V30 1754 C 176.552 -3.49107 2.47605 0
M  V30 1755 C 175.878 -4.86711 2.21397 0
M  V30 1756 C 177.178 -3.47483 3.89939 0
M  V30 1757 H 178.872 -1.7757 2.41058 0
M  V30 1758 H 176.418 -0.852887 1.16025 0
M  V30 1759 H 178.371 -3.98263 1.3771 0
M  V30 1760 H 177.095 -3.24409 0.377708 0
M  V30 1761 H 175.754 -2.72959 2.44722 0
M  V30 1762 H 175.402 -4.8799 1.21961 0
M  V30 1763 H 175.102 -5.0731 2.96497 0
M  V30 1764 H 176.626 -5.67515 2.25297 0
M  V30 1765 H 178.04 -4.1598 3.94505 0
M  V30 1766 H 176.437 -3.79615 4.64771 0
M  V30 1767 H 177.507 -2.46341 4.17665 0
M  V30 1768 N 178.85 -1.27639 -0.924453 0
M  V30 1769 C 180.075 -1.17101 -1.71179 0
M  V30 1770 C 180.5 0.268134 -1.86179 0
M  V30 1771 O 179.858 1.19415 -1.36418 0
M  V30 1772 C 179.906 -1.86313 -3.08739 0
M  V30 1773 O 179.01 -1.16331 -3.95652 0
M  V30 1774 H 178.351 -0.407091 -0.524569 0
M  V30 1775 H 180.881 -1.68767 -1.15666 0
M  V30 1776 H 180.891 -1.938 -3.59034 0
M  V30 1777 H 179.566 -2.91001 -2.97138 0
M  V30 1778 H 178.143 -1.16935 -3.54091 0
M  V30 1779 N 180.328 1.1314 -1.09713 0
M  V30 1780 C 181.278 2.16709 -0.708593 0
M  V30 1781 C 182.262 1.58471 0.278523 0
M  V30 1782 O 183.454 1.76779 0.088427 0
M  V30 1783 C 180.583 3.43039 -0.133923 0
M  V30 1784 C 179.669 4.08277 -1.14763 0
M  V30 1785 N 180.06 4.48637 -2.33577 0
M  V30 1786 C 178.358 4.34954 -0.986446 0
M  V30 1787 C 179.059 4.9952 -2.98085 0
M  V30 1788 N 178.035 4.94561 -2.25632 0
M  V30 1789 H 181.837 2.45672 -1.61315 0
M  V30 1790 H 179.351 1.29967 -0.973775 0
M  V30 1791 H 181.348 4.16583 0.162465 0
M  V30 1792 H 180.008 3.15549 0.765447 0
M  V30 1793 H 181.019 4.41246 -2.7115 0
M  V30 1794 H 177.696 4.17258 -0.142008 0
M  V30 1795 H 179.086 5.40521 -3.99108 0
M  V30 1796 N 181.806 0.884767 1.30421 0
M  V30 1797 C 183.217 0.553656 1.78302 0
M  V30 1798 C 183.568 -0.930153 1.7275 0
M  V30 1799 O 182.693 -1.72681 1.30423 0
M  V30 1800 C 183.288 0.998234 3.2376 0
M  V30 1801 C 181.847 0.71854 3.69478 0
M  V30 1802 C 180.994 1.18132 2.50879 0
M  V30 1803 H 183.945 1.06901 1.17294 0
M  V30 1804 H 183.966 0.327118 3.79091 0
M  V30 1805 H 183.478 2.0782 3.27769 0
M  V30 1806 H 181.579 -0.349444 3.70958 0
M  V30 1807 H 181.692 1.30595 4.60958 0
M  V30 1808 H 180.056 0.600669 2.47516 0
M  V30 1809 H 180.839 2.26902 2.57624 0
M  V30 1810 N 183.284 -1.43765 0.645699 0
M  V30 1811 C 184.514 -2.05953 0.163318 0
M  V30 1812 C 184.922 -1.48432 -1.17322 0
M  V30 1813 O 184.265 -0.607295 -1.73371 0
M  V30 1814 C 184.327 -3.59499 -0.0103065 0
M  V30 1815 C 183.991 -4.39563 1.25035 0
M  V30 1816 C 184.988 -4.72108 2.17739 0
M  V30 1817 C 182.673 -4.79697 1.48983 0
M  V30 1818 C 184.667 -5.43688 3.3269 0
M  V30 1819 C 182.354 -5.51023 2.64229 0
M  V30 1820 C 183.352 -5.8294 3.55908 0
M  V30 1821 O 183.04 -6.5281 4.69142 0
M  V30 1822 H 182.772 -0.670798 0.0836986 0
M  V30 1823 H 185.326 -1.85384 0.884407 0
M  V30 1824 H 183.556 -3.78613 -0.78669 0
M  V30 1825 H 185.245 -4.03408 -0.449087 0
M  V30 1826 H 186.011 -4.41627 2.00476 0
M  V30 1827 H 181.89 -4.54266 0.785078 0
M  V30 1828 H 185.434 -5.68517 4.04269 0
M  V30 1829 H 181.331 -5.8092 2.81429 0
M  V30 1830 H 182.099 -6.71288 4.6831 0
M  V30 1831 N 184.763 -0.387143 -1.52771 0
M  V30 1832 C 185.693 0.440551 -2.29306 0
M  V30 1833 C 186.674 1.06535 -1.32606 0
M  V30 1834 O 187.859 1.07853 -1.61497 0
M  V30 1835 C 184.989 1.56919 -3.09829 0
M  V30 1836 C 183.943 1.07054 -4.14395 0
M  V30 1837 C 183.269 2.29109 -4.83129 0
M  V30 1838 C 184.569 0.140015 -5.22112 0
M  V30 1839 H 186.263 -0.198026 -2.98744 0
M  V30 1840 H 183.809 -0.09668 -1.43675 0
M  V30 1841 H 185.762 2.15503 -3.62128 0
M  V30 1842 H 184.486 2.23532 -2.3812 0
M  V30 1843 H 183.145 0.507247 -3.63074 0
M  V30 1844 H 182.793 2.94227 -4.0797 0
M  V30 1845 H 182.493 1.96406 -5.53804 0
M  V30 1846 H 184.017 2.88339 -5.38231 0
M  V30 1847 H 185.431 0.633978 -5.69784 0
M  V30 1848 H 183.828 -0.0971485 -6.00021 0
M  V30 1849 H 184.898 -0.811711 -4.78058 0
M  V30 1850 N 186.241 1.57166 -0.116904 0
M  V30 1851 C 187.471 1.99184 0.548586 0
M  V30 1852 C 187.879 0.995436 1.60897 0
M  V30 1853 O 187.222 -0.0201293 1.83689 0
M  V30 1854 C 187.284 3.37611 1.23526 0
M  V30 1855 C 186.948 4.55857 0.323077 0
M  V30 1856 C 187.945 5.18056 -0.437476 0
M  V30 1857 C 185.63 5.01751 0.234761 0
M  V30 1858 C 187.624 6.24536 -1.2741 0
M  V30 1859 C 185.311 6.08093 -0.605496 0
M  V30 1860 C 186.309 6.69352 -1.35856 0
M  V30 1861 O 185.997 7.7364 -2.18487 0
M  V30 1862 H 185.729 0.659148 0.149999 0
M  V30 1863 H 188.283 2.0443 -0.199428 0
M  V30 1864 H 186.513 3.29113 2.0303 0
M  V30 1865 H 188.202 3.63932 1.79745 0
M  V30 1866 H 188.968 4.83516 -0.379105 0
M  V30 1867 H 184.847 4.53817 0.810601 0
M  V30 1868 H 188.391 6.72281 -1.86237 0
M  V30 1869 H 184.288 6.42063 -0.665268 0
M  V30 1870 H 185.056 7.90727 -2.11406 0
M  V30 1871 N 187.719 -0.156864 1.56817 0
M  V30 1872 C 188.682 -1.17781 1.96622 0
M  V30 1873 C 189.682 -1.36401 0.851555 0
M  V30 1874 O 190.872 -1.33561 1.11836 0
M  V30 1875 C 188.004 -2.54008 2.27361 0
M  V30 1876 H 189.197 -0.836564 2.87996 0
M  V30 1877 H 186.75 -0.39985 1.51099 0
M  V30 1878 H 187.485 -2.9312 1.38748 0
M  V30 1879 H 187.27 -2.41856 3.08623 0
M  V30 1880 H 188.76 -3.27558 2.59029 0
M  V30 1881 N 189.197 -1.51736 -0.425897 0
M  V30 1882 C 190.129 -1.70083 -1.53638 0
M  V30 1883 C 191.142 -0.581349 -1.52066 0
M  V30 1884 O 192.331 -0.856017 -1.56635 0
M  V30 1885 C 189.431 -1.71078 -2.9255 0
M  V30 1886 C 188.604 -2.99795 -3.185 0
M  V30 1887 C 187.663 -2.92825 -4.37196 0
M  V30 1888 O 186.689 -3.66756 -4.35291 0
M  V30 1889 N 187.891 -2.0946 -5.41393 0
M  V30 1890 H 190.656 -2.65882 -1.383 0
M  V30 1891 H 188.217 -1.49765 -0.614988 0
M  V30 1892 H 190.209 -1.63969 -3.69995 0
M  V30 1893 H 188.779 -0.828242 -3.01428 0
M  V30 1894 H 187.999 -3.20684 -2.2925 0
M  V30 1895 H 189.287 -3.84977 -3.32671 0
M  V30 1896 H 188.685 -1.48792 -5.45781 0
M  V30 1897 H 187.242 -2.08221 -6.17647 0
M  V30 1898 N 190.675 0.682077 -1.42076 0
M  V30 1899 C 191.605 1.80796 -1.47767 0
M  V30 1900 C 192.586 1.6677 -0.334954 0
M  V30 1901 O 193.771 1.863 -0.548264 0
M  V30 1902 C 190.901 3.19038 -1.37229 0
M  V30 1903 C 189.855 3.47789 -2.49453 0
M  V30 1904 C 189.181 4.8553 -2.23975 0
M  V30 1905 C 190.481 3.45411 -3.91776 0
M  V30 1906 H 192.175 1.7629 -2.41997 0
M  V30 1907 H 189.721 0.846721 -1.16476 0
M  V30 1908 H 191.674 3.97528 -1.39821 0
M  V30 1909 H 190.398 3.24204 -0.394907 0
M  V30 1910 H 189.057 2.71657 -2.46166 0
M  V30 1911 H 188.705 4.87337 -1.24547 0
M  V30 1912 H 188.405 5.0573 -2.99184 0
M  V30 1913 H 189.929 5.66312 -2.28304 0
M  V30 1914 H 191.343 4.13882 -3.96705 0
M  V30 1915 H 189.74 3.77145 -4.66778 0
M  V30 1916 H 190.81 2.44122 -4.18966 0
M  V30 1917 N 192.153 1.28127 0.917671 0
M  V30 1918 C 193.43 1.05761 1.64542 0
M  V30 1919 C 193.81 -0.404344 2.07191 0
M  V30 1920 O 193.158 -1.38963 1.81388 0
M  V30 1921 C 193.368 2.02857 2.83989 0
M  V30 1922 C 194.716 2.32786 3.551 0
M  V30 1923 O 195.74 2.0091 2.94132 0
M  V30 1924 O 194.599 2.87169 4.64969 0
M  V30 1925 H 191.693 0.403916 0.721652 0
M  V30 1926 H 194.239 1.39431 0.967322 0
M  V30 1927 H 193.011 3.01407 2.49538 0
M  V30 1928 H 192.634 1.69809 3.59514 0
M  V30 1929 N 193.631 -1.12557 1.10312 0
M  V30 1930 C 194.879 -1.83675 0.843091 0
M  V30 1931 C 195.2 -1.84435 -0.633131 0
M  V30 1932 O 194.47 -1.30657 -1.45964 0
M  V30 1933 H 193.05 -0.680138 0.308904 0
M  V30 1934 H 195.712 -1.36301 1.39313 0
M  V30 1935 H 194.808 -2.87908 1.2048 0
M  V30 1936 N 195.109 -0.891671 -1.2995 0
M  V30 1937 C 196.52 -0.563104 -1.78006 0
M  V30 1938 C 196.871 0.920978 -1.73241 0
M  V30 1939 O 195.996 1.71987 -1.31337 0
M  V30 1940 C 196.591 -1.01539 -3.23226 0
M  V30 1941 C 195.15 -0.738124 -3.69092 0
M  V30 1942 C 194.297 -1.19461 -2.50249 0
M  V30 1943 H 197.248 -1.07522 -1.16725 0
M  V30 1944 H 197.269 -0.347217 -3.78912 0
M  V30 1945 H 196.781 -2.09555 -3.26662 0
M  V30 1946 H 194.882 0.329766 -3.71138 0
M  V30 1947 H 194.995 -1.33037 -4.60259 0
M  V30 1948 H 193.359 -0.613787 -2.47194 0
M  V30 1949 H 194.142 -2.28265 -2.56417 0
M  V30 1950 N 196.587 1.43421 -0.653314 0
M  V30 1951 C 198.003 1.56341 -0.320886 0
M  V30 1952 C 198.203 1.63696 1.17499 0
M  V30 1953 O 197.259 1.59208 1.95982 0
M  V30 1954 C 198.572 2.82424 -1.03233 0
M  V30 1955 C 200.12 2.96168 -1.01259 0
M  V30 1956 C 200.595 4.25084 -1.70492 0
M  V30 1957 N 202.086 4.31948 -1.67257 0
M  V30 1958 C 202.821 5.30466 -2.17701 0
M  V30 1959 N 202.317 6.35261 -2.76434 0
M  V30 1960 N 204.11 5.2212 -2.082 0
M  V30 1961 H 196.261 1.3689 -1.62403 0
M  V30 1962 H 198.524 0.657455 -0.682977 0
M  V30 1963 H 198.23 2.83053 -2.08744 0
M  V30 1964 H 198.104 3.72653 -0.583948 0
M  V30 1965 H 200.491 2.9508 0.0341235 0
M  V30 1966 H 200.572 2.07229 -1.49966 0
M  V30 1967 H 200.216 4.26932 -2.7512 0
M  V30 1968 H 200.146 5.1292 -1.19251 0
M  V30 1969 H 202.637 3.56838 -1.24398 0
M  V30 1970 H 202.95 7.06754 -3.12601 0
M  V30 1971 H 201.295 6.35884 -2.80495 0
M  V30 1972 H 204.486 4.39166 -1.62021 0
M  V30 1973 H 204.659 5.98739 -2.47822 0
M  V30 1974 N 198.065 0.39524 1.52563 0
M  V30 1975 C 199.305 -0.184744 2.03563 0
M  V30 1976 C 199.669 -1.43548 1.27507 0
M  V30 1977 O 200.87 -2.093 1.68662 0
M  V30 1978 C 199.141 -0.440294 3.54678 0
M  V30 1979 S 200.7 -0.989712 4.27493 0
M  V30 1980 H 197.518 -0.0515075 0.709132 0
M  V30 1981 H 200.12 0.544957 1.87751 0
M  V30 1982 H 198.824 0.477005 4.07618 0
M  V30 1983 H 198.355 -1.19825 3.74707 0
M  V30 1984 H 200.37 -2.27155 4.41152 0
M  V30 1985 N 199.544 -1.57102 0.125237 0
M  V30 1986 C 200.507 -2.14471 -0.80838 0
M  V30 1987 C 201.507 -1.0811 -1.19033 0
M  V30 1988 O 202.697 -1.33856 -1.11482 0
M  V30 1989 C 199.829 -2.69005 -2.09402 0
M  V30 1990 H 201.022 -2.98297 -0.309696 0
M  V30 1991 H 198.575 -1.55807 -0.124051 0
M  V30 1992 H 199.31 -1.88785 -2.63687 0
M  V30 1993 H 199.095 -3.46799 -1.82957 0
M  V30 1994 H 200.585 -3.13278 -2.76128 0
M  V30 1995 N 201.022 0.148545 -1.56898 0
M  V30 1996 C 202.438 0.501131 -1.51528 0
M  V30 1997 C 202.638 1.83458 -0.833399 0
M  V30 1998 O 201.694 2.49259 -0.40328 0
M  V30 1999 C 203.007 0.512864 -2.96294 0
M  V30 2000 C 204.555 0.598487 -3.07225 0
M  V30 2001 C 205.03 0.640897 -4.53494 0
M  V30 2002 N 206.521 0.703163 -4.57832 0
M  V30 2003 C 207.256 0.756935 -5.68382 0
M  V30 2004 N 206.752 0.770147 -6.88506 0
M  V30 2005 N 208.545 0.797698 -5.56411 0
M  V30 2006 H 200.696 -0.725532 -1.99624 0
M  V30 2007 H 202.959 -0.264358 -0.910395 0
M  V30 2008 H 202.665 -0.398691 -3.49433 0
M  V30 2009 H 202.539 1.35133 -3.52163 0
M  V30 2010 H 204.926 1.50046 -2.54106 0
M  V30 2011 H 205.007 -0.267093 -2.54402 0
M  V30 2012 H 204.651 -0.256915 -5.0725 0
M  V30 2013 H 204.581 1.52295 -5.04097 0
M  V30 2014 H 207.072 0.700314 -3.71354 0
M  V30 2015 H 207.385 0.812983 -7.68512 0
M  V30 2016 H 205.73 0.738049 -6.9107 0
M  V30 2017 H 208.921 0.784535 -4.61479 0
M  V30 2018 H 209.094 0.83614 -6.42583 0
M  V30 2019 N 202.5 1.5196 0.417844 0
M  V30 2020 C 203.43 1.77634 1.51554 0
M  V30 2021 C 204.411 0.626918 1.58126 0
M  V30 2022 O 205.596 0.871632 1.7354 0
M  V30 2023 C 202.726 1.91911 2.8946 0
M  V30 2024 C 201.68 3.07463 2.97743 0
M  V30 2025 C 201.006 3.06951 4.37819 0
M  V30 2026 C 202.306 4.47082 2.70027 0
M  V30 2027 H 204 2.6955 1.3032 0
M  V30 2028 H 201.546 1.29706 0.625492 0
M  V30 2029 H 203.499 2.08455 3.6623 0
M  V30 2030 H 202.223 0.966598 3.11969 0
M  V30 2031 H 200.882 2.90656 2.23416 0
M  V30 2032 H 200.53 2.09438 4.57323 0
M  V30 2033 H 200.23 3.84556 4.44286 0
M  V30 2034 H 201.754 3.25613 5.16535 0
M  V30 2035 H 203.168 4.6414 3.36522 0
M  V30 2036 H 201.565 5.2654 2.87881 0
M  V30 2037 H 202.635 4.55777 1.65514 0
M  V30 2038 N 203.978 -0.674533 1.42435 0
M  V30 2039 C 204.941 -1.76986 1.45632 0
M  V30 2040 C 205.941 -1.5708 0.343871 0
M  V30 2041 O 207.131 -1.63367 0.604709 0
M  V30 2042 C 204.263 -3.15623 1.28822 0
M  V30 2043 H 205.456 -1.75539 2.43158 0
M  V30 2044 H 203.009 -0.884189 1.28887 0
M  V30 2045 H 203.744 -3.22696 0.322193 0
M  V30 2046 H 203.529 -3.31475 2.09444 0
M  V30 2047 H 205.019 -3.95537 1.33942 0
M  V30 2048 N 205.456 -1.28612 -0.910864 0
M  V30 2049 C 206.386 -1.15326 -2.03032 0
M  V30 2050 C 207.367 -0.0502924 -1.70026 0
M  V30 2051 O 208.552 -0.227797 -1.92859 0
M  V30 2052 C 205.682 -0.817343 -3.37545 0
M  V30 2053 C 204.636 -1.8754 -3.84724 0
M  V30 2054 C 203.962 -1.39305 -5.16235 0
M  V30 2055 C 205.262 -3.28244 -4.06267 0
M  V30 2056 H 206.956 -2.08975 -2.14406 0
M  V30 2057 H 204.502 -1.00612 -1.03021 0
M  V30 2058 H 206.455 -0.711151 -4.15356 0
M  V30 2059 H 205.179 0.154846 -3.26233 0
M  V30 2060 H 203.838 -1.97079 -3.09121 0
M  V30 2061 H 203.486 -0.409846 -5.01328 0
M  V30 2062 H 203.186 -2.10057 -5.48771 0
M  V30 2063 H 204.71 -1.30014 -5.96598 0
M  V30 2064 H 206.124 -3.21611 -4.74594 0
M  V30 2065 H 204.521 -3.96855 -4.5014 0
M  V30 2066 H 205.591 -3.72048 -3.10979 0
M  V30 2067 N 206.934 1.1197 -1.10907 0
M  V30 2068 C 208.345 1.65114 -0.871446 0
M  V30 2069 C 208.696 1.86885 0.597353 0
M  V30 2070 O 207.821 1.59896 1.45816 0
M  V30 2071 C 208.416 2.99944 -1.5754 0
M  V30 2072 C 206.975 3.50018 -1.38435 0
M  V30 2073 C 206.122 2.24941 -1.62164 0
M  V30 2074 H 209.073 0.956851 -1.2661 0
M  V30 2075 H 209.094 3.66651 -1.01721 0
M  V30 2076 H 208.606 2.84067 -2.64438 0
M  V30 2077 H 206.707 3.71071 -0.337214 0
M  V30 2078 H 206.82 4.29165 -2.12965 0
M  V30 2079 H 205.184 2.3229 -1.04467 0
M  V30 2080 H 205.967 2.11612 -2.70324 0
M  V30 2081 N 208.412 0.89855 1.29475 0
M  V30 2082 C 209.375 0.380272 2.26023 0
M  V30 2083 C 210.375 -0.484891 1.53315 0
M  V30 2084 O 211.565 -0.290108 1.71767 0
M  V30 2085 C 208.697 -0.45651 3.3783 0
M  V30 2086 H 209.89 1.23295 2.73383 0
M  V30 2087 H 207.443 0.676589 1.40897 0
M  V30 2088 H 208.178 -1.32922 2.95808 0
M  V30 2089 H 207.963 0.163393 3.91759 0
M  V30 2090 H 209.453 -0.810466 4.0966 0
M  V30 2091 N 209.89 -1.43072 0.660911 0
M  V30 2092 C 211.139 -2.00942 0.174735 0
M  V30 2093 C 211.452 -1.52797 -1.22117 0
M  V30 2094 O 212.658 -2.02991 -1.80297 0
M  V30 2095 C 211.114 -3.58948 0.261559 0
M  V30 2096 C 210.722 -4.16085 1.66064 0
M  V30 2097 C 212.466 -4.24173 -0.166617 0
M  V30 2098 C 210.373 -5.6641 1.70098 0
M  V30 2099 H 209.303 -0.751483 0.0615631 0
M  V30 2100 H 211.954 -1.63955 0.824069 0
M  V30 2101 H 210.336 -3.93372 -0.455421 0
M  V30 2102 H 211.51 -3.93147 2.40359 0
M  V30 2103 H 209.825 -3.6326 2.03546 0
M  V30 2104 H 212.422 -5.34471 -0.156433 0
M  V30 2105 H 212.765 -3.98647 -1.19943 0
M  V30 2106 H 213.298 -3.94659 0.498875 0
M  V30 2107 H 210.037 -5.96715 2.71315 0
M  V30 2108 H 209.557 -5.91382 1.00139 0
M  V30 2109 H 211.236 -6.30585 1.44816 0
M  V30 2110 N 211.368 -0.403325 -1.52352 0
M  V30 2111 C 212.598 0.17376 -2.05868 0
M  V30 2112 C 213.006 1.39898 -1.27378 0
M  V30 2113 O 212.349 1.80939 -0.31729 0
M  V30 2114 C 212.411 0.594756 -3.54546 0
M  V30 2115 C 212.075 -0.518926 -4.54044 0
M  V30 2116 C 213.072 -1.3807 -5.01231 0
M  V30 2117 C 210.757 -0.689961 -4.97539 0
M  V30 2118 C 212.751 -2.39852 -5.90551 0
M  V30 2119 C 210.438 -1.71109 -5.86656 0
M  V30 2120 C 211.436 -2.56378 -6.33056 0
M  V30 2121 O 211.124 -3.56743 -7.20409 0
M  V30 2122 H 210.856 0.0264951 -0.675481 0
M  V30 2123 H 213.41 -0.571179 -1.97299 0
M  V30 2124 H 211.64 1.39189 -3.60782 0
M  V30 2125 H 213.329 1.0991 -3.90736 0
M  V30 2126 H 214.095 -1.25994 -4.68349 0
M  V30 2127 H 209.974 -0.035939 -4.60986 0
M  V30 2128 H 213.518 -3.06441 -6.26689 0
M  V30 2129 H 209.415 -1.83218 -6.18952 0
M  V30 2130 H 210.183 -3.52918 -7.38506 0
M  V30 2131 N 212.846 1.57033 -0.133567 0
M  V30 2132 C 213.809 2.14897 0.796995 0
M  V30 2133 C 214.809 1.0874 1.18458 0
M  V30 2134 O 215.999 1.34446 1.1077 0
M  V30 2135 C 213.131 2.70112 2.07973 0
M  V30 2136 H 214.324 2.98457 0.293873 0
M  V30 2137 H 211.877 1.55871 0.115787 0
M  V30 2138 H 212.612 1.9018 2.62682 0
M  V30 2139 H 212.397 3.47764 1.81115 0
M  V30 2140 H 213.887 3.14738 2.74462 0
M  V30 2141 N 214.325 -0.140222 1.56975 0
M  V30 2142 C 215.572 -0.851687 1.83719 0
M  V30 2143 C 215.9 -1.80862 0.715485 0
M  V30 2144 O 215.155 -1.93464 -0.294956 0
M  V30 2145 C 215.454 -1.65386 3.16832 0
M  V30 2146 C 215.12 -0.843112 4.42947 0
M  V30 2147 C 213.782 -0.619464 4.77196 0
M  V30 2148 C 216.134 -0.276582 5.20466 0
M  V30 2149 C 213.462 0.181312 5.8642 0
M  V30 2150 C 215.814 0.51127 6.30531 0
M  V30 2151 C 214.478 0.745432 6.63325 0
M  V30 2152 H 213.748 -0.311654 0.672274 0
M  V30 2153 H 216.395 -0.115006 1.91154 0
M  V30 2154 H 214.7 -2.46084 3.04877 0
M  V30 2155 H 216.397 -2.20793 3.34741 0
M  V30 2156 H 212.987 -1.0275 4.16101 0
M  V30 2157 H 217.171 -0.436632 4.94376 0
M  V30 2158 H 212.427 0.372165 6.10266 0
M  V30 2159 H 216.601 0.957354 6.89788 0
M  V30 2160 H 214.228 1.36778 7.47794 0
M  V30 2161 N 215.803 -1.52179 -0.40978 0
M  V30 2162 C 217.043 -1.67882 -1.16597 0
M  V30 2163 C 217.407 -0.399795 -1.87791 0
M  V30 2164 O 218.608 -0.43292 -2.65291 0
M  V30 2165 C 216.879 -2.86662 -2.13448 0
M  V30 2166 S 218.438 -3.22843 -2.97183 0
M  V30 2167 H 215.256 -0.59118 -0.395002 0
M  V30 2168 H 217.858 -1.9017 -0.453373 0
M  V30 2169 H 216.562 -3.77998 -1.59831 0
M  V30 2170 H 216.093 -2.66645 -2.89247 0
M  V30 2171 H 218.108 -2.71415 -4.15389 0
M  V30 2172 N 217.281 0.66697 -1.42791 0
M  V30 2173 C 218.527 1.4291 -1.43891 0
M  V30 2174 C 218.86 1.94114 -0.0578972 0
M  V30 2175 O 218.135 1.71414 0.91911 0
M  V30 2176 C 218.418 2.62049 -2.46987 0
M  V30 2177 C 218.271 2.16426 -3.94309 0
M  V30 2178 C 219.59 3.64266 -2.46978 0
M  V30 2179 H 216.709 0.518306 -0.523954 0
M  V30 2180 H 219.351 0.757321 -1.74255 0
M  V30 2181 H 217.501 3.19361 -2.21225 0
M  V30 2182 H 219.173 1.64221 -4.31079 0
M  V30 2183 H 217.416 1.47925 -4.078 0
M  V30 2184 H 218.087 3.02038 -4.62036 0
M  V30 2185 H 220.563 3.16686 -2.69906 0
M  V30 2186 H 219.439 4.45196 -3.21079 0
M  V30 2187 H 219.7 4.15927 -1.49857 0
M  V30 2188 N 218.759 1.29093 0.90403 0
M  V30 2189 C 219.689 1.16401 2.02418 0
M  V30 2190 C 220.67 0.0593085 1.69997 0
M  V30 2191 O 221.855 0.238021 1.92736 0
M  V30 2192 C 218.985 0.835233 3.37107 0
M  V30 2193 C 217.939 1.89578 3.83724 0
M  V30 2194 C 217.265 1.42041 5.15489 0
M  V30 2195 C 218.565 3.30394 4.04521 0
M  V30 2196 H 220.259 2.10109 2.13295 0
M  V30 2197 H 217.805 1.01157 1.02486 0
M  V30 2198 H 219.758 0.733169 4.14973 0
M  V30 2199 H 218.482 -0.137543 3.2631 0
M  V30 2200 H 217.141 1.98715 3.08071 0
M  V30 2201 H 216.789 0.436426 5.01103 0
M  V30 2202 H 216.489 2.12964 5.4765 0
M  V30 2203 H 218.013 1.33176 5.959 0
M  V30 2204 H 219.427 3.24123 4.72882 0
M  V30 2205 H 217.824 3.99237 4.48029 0
M  V30 2206 H 218.894 3.73692 3.09002 0
M  V30 2207 N 220.237 -1.11381 1.11499 0
M  V30 2208 C 221.484 -1.83132 0.864231 0
M  V30 2209 C 221.812 -1.84683 -0.610114 0
M  V30 2210 O 221.067 -1.29589 -1.46646 0
M  V30 2211 C 221.366 -3.30026 1.37177 0
M  V30 2212 C 221.032 -3.48634 2.85946 0
M  V30 2213 C 219.694 -3.53421 3.26569 0
M  V30 2214 C 222.046 -3.54837 3.81759 0
M  V30 2215 C 219.374 -3.61967 4.61733 0
M  V30 2216 C 221.726 -3.64915 5.1674 0
M  V30 2217 C 220.39 -3.67962 5.5692 0
M  V30 2218 H 219.66 -0.670127 0.316245 0
M  V30 2219 H 222.307 -1.31354 1.3935 0
M  V30 2220 H 220.612 -3.84304 0.762753 0
M  V30 2221 H 222.309 -3.84034 1.15408 0
M  V30 2222 H 218.899 -3.45579 2.53521 0
M  V30 2223 H 223.083 -3.50399 3.51474 0
M  V30 2224 H 218.339 -3.62603 4.92269 0
M  V30 2225 H 222.513 -3.68658 5.90816 0
M  V30 2226 H 220.14 -3.74336 6.61647 0
M  V30 2227 N 221.715 -0.905404 -1.28997 0
M  V30 2228 C 222.955 -0.541232 -1.97104 0
M  V30 2229 C 223.319 0.896841 -1.69767 0
M  V30 2230 O 224.52 1.36817 -2.31375 0
M  V30 2231 C 222.791 -0.832134 -3.47578 0
M  V30 2232 S 224.35 -0.573127 -4.35041 0
M  V30 2233 H 221.168 -0.200576 -0.682122 0
M  V30 2234 H 223.77 -1.16906 -1.56694 0
M  V30 2235 H 222.474 -1.87687 -3.64968 0
M  V30 2236 H 222.005 -0.192636 -3.92928 0
M  V30 2237 H 224.02 0.579297 -4.92807 0
M  V30 2238 N 223.193 1.4272 -0.668489 0
M  V30 2239 C 224.156 2.292 0.00448567 0
M  V30 2240 C 225.156 1.43001 0.735339 0
M  V30 2241 O 226.346 1.64461 0.57429 0
M  V30 2242 C 223.478 3.25375 1.01705 0
M  V30 2243 H 224.671 2.90199 -0.756608 0
M  V30 2244 H 222.224 1.50254 -0.430506 0
M  V30 2245 H 222.959 2.69301 1.80686 0
M  V30 2246 H 222.744 3.88944 0.496463 0
M  V30 2247 H 224.234 3.90245 1.48655 0
M  V30 2248 N 224.671 0.411399 1.52136 0
M  V30 2249 C 225.601 -0.404015 2.29978 0
M  V30 2250 C 226.582 -1.04412 1.34284 0
M  V30 2251 O 227.767 -1.0527 1.63192 0
M  V30 2252 C 224.897 -1.5197 3.12286 0
M  V30 2253 C 223.851 -1.00448 4.16046 0
M  V30 2254 C 223.177 -2.21393 4.86712 0
M  V30 2255 C 224.477 -0.0569336 5.22269 0
M  V30 2256 H 226.171 0.245529 2.98392 0
M  V30 2257 H 223.717 0.119525 1.43503 0
M  V30 2258 H 225.67 -2.09715 3.6551 0
M  V30 2259 H 224.394 -2.19716 2.41646 0
M  V30 2260 H 223.053 -0.449421 3.63835 0
M  V30 2261 H 222.701 -2.87699 4.12599 0
M  V30 2262 H 222.401 -1.87571 5.56858 0
M  V30 2263 H 223.925 -2.7974 5.4275 0
M  V30 2264 H 225.339 -0.54325 5.7072 0
M  V30 2265 H 223.736 0.192594 5.99791 0
M  V30 2266 H 224.806 0.887663 4.76706 0
M  V30 2267 N 226.149 -1.5696 0.141893 0
M  V30 2268 C 227.56 -1.82797 -0.379776 0
M  V30 2269 C 227.911 -1.06033 -1.6508 0
M  V30 2270 O 227.036 -0.304011 -2.14254 0
M  V30 2271 C 227.631 -3.31578 -0.695802 0
M  V30 2272 C 226.19 -3.58014 -1.16201 0
M  V30 2273 C 225.337 -2.76699 -0.182455 0
M  V30 2274 H 228.288 -1.54406 0.366675 0
M  V30 2275 H 228.309 -3.47454 -1.55099 0
M  V30 2276 H 227.821 -3.87421 0.229449 0
M  V30 2277 H 225.922 -3.07553 -2.10338 0
M  V30 2278 H 226.035 -4.66501 -1.09151 0
M  V30 2279 H 224.399 -2.45618 -0.674072 0
M  V30 2280 H 225.182 -3.35311 0.736297 0
M  V30 2281 N 227.627 0.131896 -1.57047 0
M  V30 2282 C 228.557 1.16384 -2.02428 0
M  V30 2283 C 229.538 1.43936 -0.90644 0
M  V30 2284 O 230.723 1.54599 -1.17528 0
M  V30 2285 C 227.853 2.49328 -2.4177 0
M  V30 2286 C 226.807 2.36266 -3.56879 0
M  V30 2287 C 226.133 3.74057 -3.8208 0
M  V30 2288 C 227.433 1.834 -4.89042 0
M  V30 2289 H 229.127 0.786433 -2.88887 0
M  V30 2290 H 226.673 0.376855 -1.38981 0
M  V30 2291 H 228.626 3.21759 -2.7212 0
M  V30 2292 H 227.35 2.88934 -1.52266 0
M  V30 2293 H 226.009 1.66286 -3.26718 0
M  V30 2294 H 225.657 4.11125 -2.89803 0
M  V30 2295 H 225.357 3.66174 -4.59554 0
M  V30 2296 H 226.881 4.48012 -4.1487 0
M  V30 2297 H 228.295 2.45636 -5.18011 0
M  V30 2298 H 226.692 1.8637 -5.70426 0
M  V30 2299 H 227.762 0.790662 -4.7841 0
M  V30 2300 N 229.106 1.52395 0.401703 0
M  V30 2301 C 230.036 1.79231 1.49661 0
M  V30 2302 C 231.017 0.643654 1.57452 0
M  V30 2303 O 232.202 0.889989 1.72606 0
M  V30 2304 C 229.332 1.94971 2.87409 0
M  V30 2305 C 228.286 3.10604 2.94465 0
M  V30 2306 C 227.612 3.11577 4.34538 0
M  V30 2307 C 228.912 4.49921 2.6527 0
M  V30 2308 H 230.606 2.70917 1.27454 0
M  V30 2309 H 228.152 1.30362 0.6117 0
M  V30 2310 H 230.105 2.12328 3.63999 0
M  V30 2311 H 228.829 0.999632 3.10926 0
M  V30 2312 H 227.488 2.93009 2.20321 0
M  V30 2313 H 227.136 2.14277 4.55076 0
M  V30 2314 H 226.836 3.89247 4.40183 0
M  V30 2315 H 228.36 3.31073 5.13053 0
M  V30 2316 H 229.774 4.67683 3.31581 0
M  V30 2317 H 228.171 5.29564 2.82281 0
M  V30 2318 H 229.241 4.57507 1.60671 0
M  V30 2319 N 230.584 -0.659388 1.43143 0
M  V30 2320 C 231.832 -1.41654 1.44147 0
M  V30 2321 C 232.153 -1.94893 0.0645739 0
M  V30 2322 O 231.423 -1.74044 -0.899198 0
M  V30 2323 H 230.003 -0.525708 0.530697 0
M  V30 2324 H 232.665 -0.778097 1.78694 0
M  V30 2325 H 231.761 -2.26195 2.1504 0
M  V30 2326 N 232.062 -1.29571 -0.897171 0
M  V30 2327 C 232.992 -1.17473 -2.01798 0
M  V30 2328 C 233.973 -0.068323 -1.69963 0
M  V30 2329 O 235.158 -0.248239 -1.92607 0
M  V30 2330 C 232.288 -0.853099 -3.36659 0
M  V30 2331 C 231.242 -1.9161 -3.82713 0
M  V30 2332 C 230.568 -1.44773 -5.14728 0
M  V30 2333 C 231.868 -3.32535 -4.02763 0
M  V30 2334 H 233.562 -2.11237 -2.12177 0
M  V30 2335 H 231.108 -1.01699 -1.01948 0
M  V30 2336 H 233.061 -0.755165 -4.14578 0
M  V30 2337 H 231.785 0.120236 -3.26379 0
M  V30 2338 H 230.444 -2.00346 -3.07013 0
M  V30 2339 H 230.092 -0.462995 -5.00865 0
M  V30 2340 H 229.792 -2.15865 -5.46513 0
M  V30 2341 H 231.316 -1.36334 -5.95185 0
M  V30 2342 H 232.73 -3.26626 -4.71156 0
M  V30 2343 H 231.127 -4.01607 -4.45905 0
M  V30 2344 H 232.197 -3.75326 -3.07016 0
M  V30 2345 N 233.54 1.10788 -1.12088 0
M  V30 2346 C 234.788 1.8231 -0.872205 0
M  V30 2347 C 235.109 1.85419 0.603709 0
M  V30 2348 O 234.379 1.32963 1.43867 0
M  V30 2349 H 232.959 0.675137 -0.319686 0
M  V30 2350 H 235.621 1.34068 -1.41463 0
M  V30 2351 H 234.717 2.85955 -1.25045 0
M  V30 2352 N 235.018 0.912232 1.28515 0
M  V30 2353 C 235.95 0.35676 2.26406 0
M  V30 2354 C 236.963 -0.503933 1.54804 0
M  V30 2355 O 238.152 -0.319059 1.75625 0
M  V30 2356 C 235.252 -0.508825 3.35058 0
M  V30 2357 C 234.425 0.329007 4.36161 0
M  V30 2358 C 233.484 -0.471422 5.24084 0
M  V30 2359 O 232.51 0.115482 5.69083 0
M  V30 2360 N 233.712 -1.77479 5.52704 0
M  V30 2361 H 236.477 1.19818 2.74707 0
M  V30 2362 H 234.038 0.778022 1.4198 0
M  V30 2363 H 236.03 -1.051 3.90815 0
M  V30 2364 H 234.6 -1.25095 2.86478 0
M  V30 2365 H 233.82 1.05256 3.79888 0
M  V30 2366 H 235.108 0.90234 5.00735 0
M  V30 2367 H 234.506 -2.27417 5.17975 0
M  V30 2368 H 233.063 -2.26382 6.11224 0
M  V30 2369 N 236.496 -1.42363 0.676048 0
M  V30 2370 C 237.446 -2.27987 -0.0242903 0
M  V30 2371 C 238.43 -1.41153 -0.772319 0
M  V30 2372 O 239.622 -1.64592 -0.651025 0
M  V30 2373 C 236.751 -3.29195 -0.973953 0
M  V30 2374 C 235.837 -4.23512 -0.223202 0
M  V30 2375 N 236.228 -4.99865 0.772589 0
M  V30 2376 C 234.526 -4.43606 -0.461469 0
M  V30 2377 C 235.227 -5.68757 1.22027 0
M  V30 2378 N 234.203 -5.40811 0.549975 0
M  V30 2379 H 238.005 -2.84445 0.73949 0
M  V30 2380 H 235.519 -1.54341 0.50522 0
M  V30 2381 H 237.516 -3.89339 -1.49067 0
M  V30 2382 H 236.176 -2.74298 -1.73755 0
M  V30 2383 H 237.187 -5.04921 1.15217 0
M  V30 2384 H 233.864 -3.99749 -1.20446 0
M  V30 2385 H 235.254 -6.40007 2.0455 0
M  V30 2386 N 237.974 -0.419461 -1.51915 0
M  V30 2387 C 238.906 0.43646 -2.25006 0
M  V30 2388 C 239.919 1.00149 -1.28351 0
M  V30 2389 O 241.108 0.898674 -1.54227 0
M  V30 2390 C 238.208 1.6206 -2.9764 0
M  V30 2391 C 237.381 1.17763 -4.21249 0
M  V30 2392 C 236.44 2.22985 -4.76617 0
M  V30 2393 O 235.466 1.83151 -5.38929 0
M  V30 2394 N 236.668 3.55271 -4.59089 0
M  V30 2395 H 239.433 -0.18989 -2.99098 0
M  V30 2396 H 236.994 -0.247386 -1.59999 0
M  V30 2397 H 238.986 2.32038 -3.31573 0
M  V30 2398 H 237.556 2.15266 -2.2667 0
M  V30 2399 H 236.776 0.305582 -3.93014 0
M  V30 2400 H 238.064 0.858781 -5.015 0
M  V30 2401 H 237.462 3.90377 -4.09417 0
M  V30 2402 H 236.019 4.21195 -4.97432 0
M  V30 2403 N 239.452 1.56882 -0.150215 0
M  V30 2404 C 240.384 2.14057 0.819286 0
M  V30 2405 C 241.397 1.09082 1.20851 0
M  V30 2406 O 242.586 1.36347 1.15203 0
M  V30 2407 C 239.686 2.65102 2.11127 0
M  V30 2408 C 238.859 3.94511 1.88891 0
M  V30 2409 C 237.918 4.30834 3.02107 0
M  V30 2410 O 236.944 4.99099 2.73659 0
M  V30 2411 N 238.146 3.90676 4.29363 0
M  V30 2412 H 240.911 2.97871 0.330618 0
M  V30 2413 H 238.472 1.61866 0.0332538 0
M  V30 2414 H 240.464 2.86411 2.85921 0
M  V30 2415 H 239.034 1.85994 2.51247 0
M  V30 2416 H 238.254 3.81795 0.981152 0
M  V30 2417 H 239.542 4.7907 1.71376 0
M  V30 2418 H 238.94 3.35677 4.55343 0
M  V30 2419 H 237.497 4.1703 5.00928 0
M  V30 2420 N 240.93 -0.123565 1.57115 0
M  V30 2421 C 242.16 -0.845233 1.88519 0
M  V30 2422 C 242.568 -1.74168 0.739064 0
M  V30 2423 O 241.911 -1.81244 -0.299355 0
M  V30 2424 C 241.973 -1.73452 3.14888 0
M  V30 2425 C 241.637 -1.01285 4.45635 0
M  V30 2426 C 242.634 -0.355774 5.18681 0
M  V30 2427 C 240.319 -0.99538 4.92339 0
M  V30 2428 C 242.313 0.309114 6.3665 0
M  V30 2429 C 240 -0.32669 6.10226 0
M  V30 2430 C 240.998 0.324406 6.82229 0
M  V30 2431 O 240.686 0.982437 7.97874 0
M  V30 2432 H 240.418 -0.248534 0.628655 0
M  V30 2433 H 242.972 -0.113907 2.05084 0
M  V30 2434 H 241.202 -2.50737 2.94394 0
M  V30 2435 H 242.891 -2.33021 3.32349 0
M  V30 2436 H 243.657 -0.360918 4.83655 0
M  V30 2437 H 239.536 -1.49159 4.36202 0
M  V30 2438 H 243.08 0.8179 6.92789 0
M  V30 2439 H 238.977 -0.319294 6.4471 0
M  V30 2440 H 239.745 0.886454 8.13686 0
M  V30 2441 N 242.408 -1.52605 -0.393616 0
M  V30 2442 C 243.648 -1.6911 -1.1481 0
M  V30 2443 C 244.012 -0.41969 -1.87357 0
M  V30 2444 O 245.213 -0.461034 -2.64817 0
M  V30 2445 C 243.484 -2.88909 -2.10395 0
M  V30 2446 S 245.043 -3.25977 -2.93742 0
M  V30 2447 H 241.861 -0.595337 -0.38871 0
M  V30 2448 H 244.463 -1.90641 -0.433178 0
M  V30 2449 H 243.167 -3.79672 -1.55812 0
M  V30 2450 H 242.698 -2.69698 -2.86403 0
M  V30 2451 H 244.713 -2.75806 -4.12487 0
M  V30 2452 N 243.887 0.651787 -1.4349 0
M  V30 2453 C 245.298 1.233 -1.40193 0
M  V30 2454 C 245.649 1.9591 -0.106727 0
M  V30 2455 O 244.774 2.01316 0.793773 0
M  V30 2456 C 245.369 2.24257 -2.53957 0
M  V30 2457 C 243.928 2.77852 -2.5392 0
M  V30 2458 C 243.075 1.52517 -2.3159 0
M  V30 2459 H 246.026 0.443717 -1.52371 0
M  V30 2460 H 246.047 3.0646 -2.25528 0
M  V30 2461 H 245.559 1.71382 -3.4821 0
M  V30 2462 H 243.66 3.34786 -1.63551 0
M  V30 2463 H 243.773 3.25299 -3.51735 0
M  V30 2464 H 242.137 1.79915 -1.80285 0
M  V30 2465 H 242.92 1.01574 -3.27929 0
M  V30 2466 N 245.365 1.30045 0.890287 0
M  V30 2467 C 246.613 1.18327 1.63839 0
M  V30 2468 C 246.934 -0.263455 1.93212 0
M  V30 2469 O 246.204 -1.17856 1.56482 0
M  V30 2470 H 244.784 0.434933 0.607324 0
M  V30 2471 H 247.446 1.631 1.06698 0
M  V30 2472 H 246.542 1.74024 2.59079 0
M  V30 2473 N 246.843 -1.10192 1.12674 0
M  V30 2474 C 248.068 -1.86523 0.906853 0
M  V30 2475 C 248.493 -1.80221 -0.538711 0
M  V30 2476 O 247.851 -1.17396 -1.38158 0
M  V30 2477 C 247.899 -3.32758 1.3894 0
M  V30 2478 O 247.003 -4.08449 0.5695 0
M  V30 2479 H 246.344 -0.578678 0.325619 0
M  V30 2480 H 248.874 -1.39203 1.49946 0
M  V30 2481 H 248.884 -3.83608 1.38958 0
M  V30 2482 H 247.559 -3.36661 2.44197 0
M  V30 2483 H 246.136 -3.67427 0.636528 0
M  V30 2484 N 248.321 -0.919034 -1.28029 0
M  V30 2485 C 249.567 -0.565221 -1.95389 0
M  V30 2486 C 249.922 0.882325 -1.70976 0
M  V30 2487 O 249.215 1.61988 -1.02325 0
M  V30 2488 C 249.409 -0.816855 -3.4794 0
M  V30 2489 C 249.238 -2.28731 -3.87185 0
M  V30 2490 C 248.008 -2.93841 -4.11079 0
M  V30 2491 C 250.206 -3.26415 -3.97439 0
M  V30 2492 N 248.188 -4.31129 -4.37037 0
M  V30 2493 C 249.559 -4.48884 -4.27672 0
M  V30 2494 C 251.614 -3.21742 -3.79982 0
M  V30 2495 C 250.317 -5.67268 -4.42266 0
M  V30 2496 C 252.343 -4.39431 -3.95796 0
M  V30 2497 C 251.705 -5.60675 -4.26407 0
M  V30 2498 H 247.804 -0.256797 -0.738633 0
M  V30 2499 H 250.388 -1.18386 -1.54573 0
M  V30 2500 H 248.559 -0.227445 -3.87733 0
M  V30 2501 H 250.291 -0.426542 -4.02446 0
M  V30 2502 H 247.046 -2.44547 -4.05578 0
M  V30 2503 H 247.47 -5.02127 -4.5409 0
M  V30 2504 H 252.112 -2.29079 -3.55363 0
M  V30 2505 H 249.83 -6.60406 -4.65714 0
M  V30 2506 H 253.416 -4.37323 -3.83719 0
M  V30 2507 H 252.296 -6.50223 -4.38383 0
M  V30 2508 N 249.799 1.42003 -0.683588 0
M  V30 2509 C 251.039 2.03282 -0.213513 0
M  V30 2510 C 251.403 1.52924 1.16097 0
M  V30 2511 O 252.604 2.06048 1.7262 0
M  V30 2512 C 250.875 3.56483 -0.255856 0
M  V30 2513 S 252.434 4.3857 0.14193 0
M  V30 2514 H 249.252 0.705659 -0.0869853 0
M  V30 2515 H 251.854 1.73619 -0.8987 0
M  V30 2516 H 250.558 3.90631 -1.25841 0
M  V30 2517 H 250.089 3.90831 0.448875 0
M  V30 2518 H 252.104 4.76828 1.37295 0
M  V30 2519 N 251.277 0.427512 1.51691 0
M  V30 2520 C 252.524 -0.142229 2.02 0
M  V30 2521 C 252.852 -1.43566 1.31221 0
M  V30 2522 O 252.107 -1.91298 0.412744 0
M  V30 2523 C 252.406 -0.418249 3.54944 0
M  V30 2524 C 252.072 0.788187 4.43958 0
M  V30 2525 C 250.734 1.11906 4.68007 0
M  V30 2526 C 253.086 1.59347 4.96244 0
M  V30 2527 C 250.414 2.25608 5.41588 0
M  V30 2528 C 252.766 2.7214 5.71072 0
M  V30 2529 C 251.43 3.05692 5.93387 0
M  V30 2530 H 250.7 -0.0520451 0.73917 0
M  V30 2531 H 253.347 0.572697 1.82736 0
M  V30 2532 H 251.652 -1.21496 3.72486 0
M  V30 2533 H 253.349 -0.872339 3.91397 0
M  V30 2534 H 249.939 0.520344 4.2543 0
M  V30 2535 H 254.123 1.35106 4.77556 0
M  V30 2536 H 249.379 2.51929 5.57083 0
M  V30 2537 H 253.553 3.34914 6.10578 0
M  V30 2538 H 251.18 3.9391 6.50184 0
M  V30 2539 N 252.755 -1.56801 0.158532 0
M  V30 2540 C 253.685 -2.20347 -0.772609 0
M  V30 2541 C 254.666 -1.15518 -1.24859 0
M  V30 2542 O 255.851 -1.43902 -1.30406 0
M  V30 2543 C 252.981 -2.83417 -2.00729 0
M  V30 2544 C 251.935 -3.94174 -1.66765 0
M  V30 2545 C 251.261 -4.44233 -2.97592 0
M  V30 2546 C 252.561 -5.14392 -0.905447 0
M  V30 2547 H 254.255 -2.98413 -0.242959 0
M  V30 2548 H 251.801 -1.43537 -0.115419 0
M  V30 2549 H 253.754 -3.26543 -2.6636 0
M  V30 2550 H 252.478 -2.02701 -2.56086 0
M  V30 2551 H 251.137 -3.51684 -1.03508 0
M  V30 2552 H 250.785 -3.60325 -3.50963 0
M  V30 2553 H 250.485 -5.18945 -2.75626 0
M  V30 2554 H 252.009 -4.90037 -3.64274 0
M  V30 2555 H 253.423 -5.5429 -1.46408 0
M  V30 2556 H 251.82 -5.9494 -0.7853 0
M  V30 2557 H 252.89 -4.84795 0.100668 0
M  V30 2558 N 254.233 0.115231 -1.57178 0
M  V30 2559 C 255.649 0.468877 -1.52557 0
M  V30 2560 C 255.849 1.81649 -0.872125 0
M  V30 2561 O 254.905 2.48347 -0.45606 0
M  V30 2562 C 256.218 0.4499 -2.97315 0
M  V30 2563 C 257.766 0.533185 -3.08425 0
M  V30 2564 C 258.241 0.54456 -4.54751 0
M  V30 2565 N 259.732 0.605892 -4.5922 0
M  V30 2566 C 260.467 0.636203 -5.6986 0
M  V30 2567 N 259.963 0.623931 -6.89985 0
M  V30 2568 N 261.756 0.679496 -5.57978 0
M  V30 2569 H 253.907 -0.767712 -1.9804 0
M  V30 2570 H 256.17 -0.283609 -0.904583 0
M  V30 2571 H 255.876 -0.472721 -3.48509 0
M  V30 2572 H 255.75 1.27632 -3.5495 0
M  V30 2573 H 258.137 1.44623 -2.57232 0
M  V30 2574 H 258.218 -0.320995 -2.53778 0
M  V30 2575 H 257.862 -0.364452 -5.06591 0
M  V30 2576 H 257.792 1.41568 -5.07214 0
M  V30 2577 H 260.283 0.621386 -3.72756 0
M  V30 2578 H 260.596 0.649787 -7.70063 0
M  V30 2579 H 258.941 0.591296 -6.9248 0
M  V30 2580 H 262.132 0.686472 -4.63039 0
M  V30 2581 H 262.305 0.69965 -6.44212 0
M  V30 2582 N 255.711 1.52812 0.385517 0
M  V30 2583 C 256.644 1.72592 1.49289 0
M  V30 2584 C 257.622 0.573819 1.52138 0
M  V30 2585 O 258.806 0.80404 1.70492 0
M  V30 2586 C 255.933 1.78669 2.87741 0
M  V30 2587 C 254.979 3.00455 3.02703 0
M  V30 2588 S 255.812 4.60366 2.73538 0
M  V30 2589 C 256.968 4.69263 4.14177 0
M  V30 2590 H 257.201 2.66248 1.32285 0
M  V30 2591 H 254.734 1.43148 0.578611 0
M  V30 2592 H 256.692 1.82855 3.67524 0
M  V30 2593 H 255.353 0.861 3.02069 0
M  V30 2594 H 254.546 3.01258 4.04054 0
M  V30 2595 H 254.148 2.94278 2.30817 0
M  V30 2596 H 256.44 4.48092 5.08153 0
M  V30 2597 H 257.383 5.71276 4.18388 0
M  V30 2598 H 257.791 3.98072 4.00249 0
M  V30 2599 N 257.189 -0.644168 1.43834 0
M  V30 2600 C 258.605 -0.960875 1.27434 0
M  V30 2601 C 258.805 -2.00499 0.200618 0
M  V30 2602 O 257.861 -2.49018 -0.417906 0
M  V30 2603 C 259.174 -1.43653 2.64167 0
M  V30 2604 C 260.722 -1.55271 2.71772 0
M  V30 2605 C 261.197 -2.06224 4.08944 0
M  V30 2606 N 262.688 -2.13513 4.11055 0
M  V30 2607 C 263.423 -2.54081 5.14033 0
M  V30 2608 N 262.919 -2.9388 6.27381 0
M  V30 2609 N 264.712 -2.54101 5.01387 0
M  V30 2610 H 256.863 0.0465779 2.12349 0
M  V30 2611 H 259.126 -0.0417638 0.94708 0
M  V30 2612 H 258.832 -0.743706 3.43747 0
M  V30 2613 H 258.706 -2.40993 2.90176 0
M  V30 2614 H 261.093 -2.23653 1.92519 0
M  V30 2615 H 261.174 -0.563395 2.49519 0
M  V30 2616 H 260.818 -1.38441 4.88668 0
M  V30 2617 H 260.748 -3.06003 4.28567 0
M  V30 2618 H 263.239 -1.85493 3.29242 0
M  V30 2619 H 263.552 -3.2361 7.01781 0
M  V30 2620 H 261.897 -2.91663 6.30839 0
M  V30 2621 H 265.088 -2.22391 4.11898 0
M  V30 2622 H 265.261 -2.85394 5.81768 0
M  V30 2623 N 258.668 -1.30515 -0.883378 0
M  V30 2624 C 259.914 -1.20617 -1.63778 0
M  V30 2625 C 260.269 0.236469 -1.90941 0
M  V30 2626 O 259.562 1.16596 -1.52039 0
M  V30 2627 C 259.756 -1.96994 -2.98209 0
M  V30 2628 C 259.585 -3.48537 -2.84169 0
M  V30 2629 C 258.355 -4.17893 -2.84067 0
M  V30 2630 C 260.553 -4.43738 -2.60001 0
M  V30 2631 N 258.535 -5.55685 -2.60936 0
M  V30 2632 C 259.906 -5.69105 -2.46007 0
M  V30 2633 C 261.961 -4.33316 -2.45239 0
M  V30 2634 C 260.664 -6.8523 -2.18752 0
M  V30 2635 C 262.69 -5.4921 -2.19369 0
M  V30 2636 C 262.052 -6.73558 -2.06153 0
M  V30 2637 H 258.151 -0.496434 -0.604216 0
M  V30 2638 H 260.735 -1.64544 -1.04083 0
M  V30 2639 H 258.906 -1.55455 -3.55933 0
M  V30 2640 H 260.638 -1.79225 -3.62851 0
M  V30 2641 H 257.393 -3.69739 -2.95956 0
M  V30 2642 H 257.817 -6.28199 -2.52378 0
M  V30 2643 H 262.459 -3.37856 -2.54191 0
M  V30 2644 H 260.177 -7.80729 -2.08537 0
M  V30 2645 H 263.763 -5.43054 -2.08766 0
M  V30 2646 H 262.643 -7.61721 -1.86416 0
M  V30 2647 N 260.146 1.09593 -1.13257 0
M  V30 2648 C 261.109 2.14359 -0.811358 0
M  V30 2649 C 262.109 1.59808 0.178377 0
M  V30 2650 O 263.299 1.74132 -0.0484911 0
M  V30 2651 C 260.431 3.40269 -0.207276 0
M  V30 2652 H 261.624 2.44284 -1.73969 0
M  V30 2653 H 259.177 1.25102 -0.936973 0
M  V30 2654 H 259.912 3.15969 0.73036 0
M  V30 2655 H 259.697 3.81154 -0.919992 0
M  V30 2656 H 261.187 4.176 0.000667944 0
M  V30 2657 N 261.624 0.925811 1.2754 0
M  V30 2658 C 262.556 0.380753 2.26015 0
M  V30 2659 C 263.569 -0.487485 1.5533 0
M  V30 2660 O 264.758 -0.300413 1.75954 0
M  V30 2661 C 261.858 -0.473259 3.35579 0
M  V30 2662 C 261.031 0.375249 4.35787 0
M  V30 2663 C 260.09 -0.415809 5.24555 0
M  V30 2664 O 259.116 0.175834 5.68928 0
M  V30 2665 N 260.318 -1.71607 5.54555 0
M  V30 2666 H 263.083 1.22725 2.73421 0
M  V30 2667 H 260.644 0.793037 1.41147 0
M  V30 2668 H 262.636 -1.00949 3.91907 0
M  V30 2669 H 261.206 -1.2205 2.87789 0
M  V30 2670 H 260.426 1.09279 3.7875 0
M  V30 2671 H 261.714 0.955399 4.99749 0
M  V30 2672 H 261.112 -2.2191 5.20358 0
M  V30 2673 H 259.669 -2.19887 6.1359 0
M  V30 2674 N 263.102 -1.41638 0.69111 0
M  V30 2675 C 264.513 -1.84346 0.295517 0
M  V30 2676 C 264.864 -1.57833 -1.16547 0
M  V30 2677 O 263.989 -1.04648 -1.89414 0
M  V30 2678 C 264.584 -3.34636 0.529575 0
M  V30 2679 C 263.143 -3.7593 0.187944 0
M  V30 2680 C 262.29 -2.65082 0.814052 0
M  V30 2681 H 265.241 -1.31253 0.892092 0
M  V30 2682 H 265.262 -3.79903 -0.213148 0
M  V30 2683 H 264.774 -3.53901 1.59297 0
M  V30 2684 H 262.875 -3.62268 -0.871367 0
M  V30 2685 H 262.988 -4.74808 0.63985 0
M  V30 2686 H 261.352 -2.53528 0.244017 0
M  V30 2687 H 262.135 -2.87167 1.88123 0
M  V30 2688 N 264.58 -0.43555 -1.51462 0
M  V30 2689 C 265.828 0.131254 -2.01673 0
M  V30 2690 C 266.149 1.43368 -1.32177 0
M  V30 2691 O 265.419 1.90524 -0.455769 0
M  V30 2692 H 263.999 0.0514954 -0.745223 0
M  V30 2693 H 266.661 -0.577847 -1.86137 0
M  V30 2694 H 265.757 0.308446 -3.10572 0
M  V30 2695 N 266.058 1.56714 -0.166846 0
M  V30 2696 C 267.306 1.96358 0.478305 0
M  V30 2697 C 267.627 1.0537 1.6408 0
M  V30 2698 O 266.897 0.119154 1.95537 0
M  V30 2699 H 265.477 0.725065 0.179692 0
M  V30 2700 H 268.139 1.93329 -0.246985 0
M  V30 2701 H 267.235 3.00547 0.841292 0
M  V30 2702 N 267.536 -0.106894 1.57237 0
M  V30 2703 C 268.499 -1.11466 2.0027 0
M  V30 2704 C 269.499 -1.33623 0.894519 0
M  V30 2705 O 270.689 -1.29935 1.16028 0
M  V30 2706 C 267.821 -2.46646 2.35327 0
M  V30 2707 H 269.014 -0.744516 2.90512 0
M  V30 2708 H 266.567 -0.351576 1.52295 0
M  V30 2709 H 267.302 -2.88558 1.48003 0
M  V30 2710 H 267.087 -2.31915 3.16161 0
M  V30 2711 H 268.577 -3.19151 2.69318 0
M  V30 2712 N 269.014 -1.53014 -0.377408 0
M  V30 2713 C 269.977 -1.77957 -1.44444 0
M  V30 2714 C 270.977 -0.649763 -1.47087 0
M  V30 2715 O 272.167 -0.917897 -1.48055 0
M  V30 2716 C 269.299 -1.89089 -2.83651 0
M  V30 2717 H 270.492 -2.73243 -1.23606 0
M  V30 2718 H 268.045 -1.43912 -0.609844 0
M  V30 2719 H 268.78 -0.958293 -3.09818 0
M  V30 2720 H 268.565 -2.71254 -2.83132 0
M  V30 2721 H 270.055 -2.1002 -3.60945 0
M  V30 2722 N 270.492 0.636531 -1.44174 0
M  V30 2723 C 271.739 1.39619 -1.46672 0
M  V30 2724 C 272.067 1.94257 -0.0972691 0
M  V30 2725 O 271.322 1.73768 0.900175 0
M  V30 2726 C 271.621 2.58309 -2.47005 0
M  V30 2727 C 271.287 2.21992 -3.92467 0
M  V30 2728 C 269.949 2.118 -4.32081 0
M  V30 2729 C 272.301 1.9321 -4.84065 0
M  V30 2730 C 269.629 1.71007 -5.61225 0
M  V30 2731 C 271.981 1.53911 -6.13591 0
M  V30 2732 C 270.645 1.42257 -6.52165 0
M  V30 2733 H 269.915 0.510902 -0.536712 0
M  V30 2734 H 272.562 0.722328 -1.77355 0
M  V30 2735 H 270.867 3.30903 -2.09786 0
M  V30 2736 H 272.564 3.16533 -2.46186 0
M  V30 2737 H 269.154 2.30841 -3.61124 0
M  V30 2738 H 273.338 1.99997 -4.54219 0
M  V30 2739 H 268.594 1.60583 -5.89935 0
M  V30 2740 H 272.768 1.30677 -6.8403 0
M  V30 2741 H 270.395 1.10419 -7.52138 0
M  V30 2742 N 271.97 1.30982 0.876444 0
M  V30 2743 C 273.195 1.23373 1.66715 0
M  V30 2744 C 273.62 -0.19885 1.87046 0
M  V30 2745 O 272.978 -1.1427 1.40756 0
M  V30 2746 C 273.026 1.97644 3.01611 0
M  V30 2747 O 272.13 1.30935 3.91062 0
M  V30 2748 H 271.471 0.426279 0.509099 0
M  V30 2749 H 274.001 1.72944 1.09323 0
M  V30 2750 H 274.011 2.06992 3.51594 0
M  V30 2751 H 272.686 3.01829 2.86133 0
M  V30 2752 H 271.263 1.29996 3.49507 0
M  V30 2753 N 273.449 -1.08991 1.13837 0
M  V30 2754 C 274.379 -2.17771 0.842507 0
M  V30 2755 C 275.36 -1.6892 -0.20001 0
M  V30 2756 O 276.545 -1.94113 -0.0579731 0
M  V30 2757 C 273.675 -3.4589 0.312644 0
M  V30 2758 C 272.629 -4.08099 1.28992 0
M  V30 2759 C 271.955 -5.31098 0.619623 0
M  V30 2760 C 273.255 -4.50077 2.65005 0
M  V30 2761 H 274.949 -2.42777 1.75213 0
M  V30 2762 H 272.495 -1.16682 0.843875 0
M  V30 2763 H 274.448 -4.21297 0.0933043 0
M  V30 2764 H 273.172 -3.20419 -0.632382 0
M  V30 2765 H 271.831 -3.34717 1.49533 0
M  V30 2766 H 271.479 -5.0191 -0.33102 0
M  V30 2767 H 271.179 -5.73674 1.27167 0
M  V30 2768 H 272.703 -6.09224 0.409669 0
M  V30 2769 H 274.117 -5.16688 2.48407 0
M  V30 2770 H 272.514 -5.03553 3.26427 0
M  V30 2771 H 273.584 -3.62257 3.22332 0
M  V30 2772 N 274.927 -0.932562 -1.27047 0
M  V30 2773 C 275.89 -0.440064 -2.24936 0
M  V30 2774 C 276.89 0.444071 -1.54547 0
M  V30 2775 O 278.08 0.244465 -1.72476 0
M  V30 2776 C 275.212 0.36678 -3.38921 0
M  V30 2777 H 276.405 -1.305 -2.70018 0
M  V30 2778 H 273.958 -0.713707 -1.39054 0
M  V30 2779 H 274.693 1.25033 -2.99228 0
M  V30 2780 H 274.478 -0.267204 -3.91188 0
M  V30 2781 H 275.968 0.701567 -4.11665 0
M  V30 2782 N 276.405 1.4127 -0.698611 0
M  V30 2783 C 277.635 2.05205 -0.239644 0
M  V30 2784 C 278.043 1.52684 1.11733 0
M  V30 2785 O 277.386 0.671222 1.70998 0
M  V30 2786 C 277.448 3.59289 -0.123126 0
M  V30 2787 C 277.112 4.34619 -1.41263 0
M  V30 2788 C 278.109 4.63701 -2.35111 0
M  V30 2789 C 275.794 4.73837 -1.66684 0
M  V30 2790 C 277.788 5.30966 -3.52639 0
M  V30 2791 C 275.475 5.40837 -2.84498 0
M  V30 2792 C 276.473 5.69329 -3.77298 0
M  V30 2793 O 276.161 6.34949 -4.93047 0
M  V30 2794 H 275.893 0.66723 -0.108537 0
M  V30 2795 H 278.447 1.81974 -0.952602 0
M  V30 2796 H 276.677 3.81272 0.645628 0
M  V30 2797 H 278.366 4.04797 0.299056 0
M  V30 2798 H 279.132 4.33882 -2.16729 0
M  V30 2799 H 275.011 4.51039 -0.953135 0
M  V30 2800 H 278.555 5.53121 -4.25091 0
M  V30 2801 H 274.452 5.70075 -3.02795 0
M  V30 2802 H 275.22 6.53445 -4.92902 0
M  V30 2803 N 277.883 0.443576 1.51229 0
M  V30 2804 C 278.846 -0.353132 2.26463 0
M  V30 2805 C 279.846 -0.944338 1.3015 0
M  V30 2806 O 281.036 -0.817813 1.5381 0
M  V30 2807 C 278.168 -1.50023 3.06114 0
M  V30 2808 H 279.361 0.3063 2.98332 0
M  V30 2809 H 276.914 0.196902 1.55055 0
M  V30 2810 H 277.649 -2.19553 2.38677 0
M  V30 2811 H 277.434 -1.08241 3.76864 0
M  V30 2812 H 278.924 -2.06296 3.63087 0
M  V30 2813 N 279.361 -1.56624 0.175154 0
M  V30 2814 C 280.609 -1.96609 -0.467885 0
M  V30 2815 C 280.93 -1.06238 -1.63519 0
M  V30 2816 O 280.2 -0.129523 -1.95471 0
M  V30 2817 H 278.78 -0.726008 -0.175845 0
M  V30 2818 H 281.442 -1.93195 0.257234 0
M  V30 2819 H 280.538 -3.00989 -0.825342 0
M  V30 2820 N 280.839 0.0985539 -1.57292 0
M  V30 2821 C 281.769 1.12064 -2.04851 0
M  V30 2822 C 282.75 1.41981 -0.936767 0
M  V30 2823 O 283.935 1.52071 -1.20781 0
M  V30 2824 C 281.065 2.44144 -2.47004 0
M  V30 2825 C 280.019 2.28643 -3.6181 0
M  V30 2826 C 279.345 3.65869 -3.89929 0
M  V30 2827 C 280.645 1.72986 -4.92822 0
M  V30 2828 H 282.339 0.724979 -2.9049 0
M  V30 2829 H 279.885 0.34729 -1.39749 0
M  V30 2830 H 281.838 3.15914 -2.78884 0
M  V30 2831 H 280.562 2.85639 -1.5836 0
M  V30 2832 H 279.221 1.59318 -3.30172 0
M  V30 2833 H 278.869 4.04885 -2.98458 0
M  V30 2834 H 278.569 3.56344 -4.67218 0
M  V30 2835 H 280.093 4.39112 -4.2428 0
M  V30 2836 H 281.507 2.34593 -5.23105 0
M  V30 2837 H 279.904 1.74229 -5.74251 0
M  V30 2838 H 280.974 0.689007 -4.7998 0
M  V30 2839 N 282.317 1.53212 0.369288 0
M  V30 2840 C 283.563 1.69466 1.11397 0
M  V30 2841 C 283.896 0.443257 1.89074 0
M  V30 2842 O 283.171 -0.559386 1.86282 0
M  V30 2843 C 283.454 2.9422 2.07621 0
M  V30 2844 C 283.307 4.29508 1.33577 0
M  V30 2845 C 284.626 3.14565 3.07794 0
M  V30 2846 H 281.745 0.616667 0.403597 0
M  V30 2847 H 284.387 1.85845 0.395179 0
M  V30 2848 H 282.537 2.80387 2.68916 0
M  V30 2849 H 284.209 4.55147 0.750955 0
M  V30 2850 H 282.452 4.29088 0.637618 0
M  V30 2851 H 283.123 5.12926 2.03989 0
M  V30 2852 H 285.599 3.2756 2.56601 0
M  V30 2853 H 284.475 4.03297 3.72348 0
M  V30 2854 H 284.736 2.29675 3.77759 0
M  V30 2855 N 283.795 -0.628877 1.44509 0
M  V30 2856 C 284.758 -1.72263 1.51188 0
M  V30 2857 C 285.758 -1.55907 0.39367 0
M  V30 2858 O 286.948 -1.61361 0.656377 0
M  V30 2859 C 284.08 -3.11365 1.38798 0
M  V30 2860 H 285.273 -1.67714 2.4862 0
M  V30 2861 H 282.826 -0.842737 1.31634 0
M  V30 2862 H 283.561 -3.21507 0.424693 0
M  V30 2863 H 283.346 -3.24644 2.19884 0
M  V30 2864 H 284.836 -3.91075 1.46458 0
M  V30 2865 N 285.273 -1.31445 -0.869486 0
M  V30 2866 C 286.203 -1.21727 -1.99261 0
M  V30 2867 C 287.184 -0.104359 -1.6978 0
M  V30 2868 O 288.369 -0.289038 -1.92037 0
M  V30 2869 C 285.499 -0.924317 -3.34774 0
M  V30 2870 C 284.453 -1.99685 -3.78563 0
M  V30 2871 C 283.779 -1.55658 -5.11541 0
M  V30 2872 C 285.079 -3.41003 -3.95619 0
M  V30 2873 H 286.773 -2.1569 -2.07649 0
M  V30 2874 H 284.319 -1.03839 -0.997675 0
M  V30 2875 H 286.272 -0.842934 -4.12883 0
M  V30 2876 H 284.996 0.0509793 -3.2656 0
M  V30 2877 H 283.655 -2.06813 -3.02694 0
M  V30 2878 H 283.303 -0.569132 -4.9977 0
M  V30 2879 H 283.003 -2.27409 -5.41811 0
M  V30 2880 H 284.527 -1.48928 -5.92159 0
M  V30 2881 H 285.941 -3.36547 -4.64122 0
M  V30 2882 H 284.338 -4.10975 -4.37286 0
M  V30 2883 H 285.408 -3.81754 -2.98985 0
M  V30 2884 N 286.751 1.08385 -1.14413 0
M  V30 2885 C 287.681 2.17321 -0.854044 0
M  V30 2886 C 288.662 1.69024 0.191049 0
M  V30 2887 O 289.847 1.94141 0.0476779 0
M  V30 2888 C 286.977 3.45719 -0.330983 0
M  V30 2889 C 285.931 4.07409 -1.31155 0
M  V30 2890 C 285.257 5.30762 -0.64778 0
M  V30 2891 C 286.557 4.48665 -2.67388 0
M  V30 2892 H 288.251 2.41845 -1.76498 0
M  V30 2893 H 285.797 1.16233 -0.850051 0
M  V30 2894 H 287.75 4.21241 -0.115645 0
M  V30 2895 H 286.474 3.2075 0.615381 0
M  V30 2896 H 285.133 3.33919 -1.51306 0
M  V30 2897 H 284.781 5.02078 0.304398 0
M  V30 2898 H 284.481 5.72992 -1.30207 0
M  V30 2899 H 286.005 6.08998 -0.441972 0
M  V30 2900 H 287.419 5.15364 -2.51143 0
M  V30 2901 H 285.816 5.01814 -3.29093 0
M  V30 2902 H 286.886 3.60543 -3.24248 0
M  V30 2903 N 288.23 0.939286 1.26551 0
M  V30 2904 C 289.476 0.586715 1.94128 0
M  V30 2905 C 289.809 -0.8717 1.73537 0
M  V30 2906 O 289.084 -1.62339 1.07127 0
M  V30 2907 C 289.367 0.927497 3.4795 0
M  V30 2908 C 289.22 2.44052 3.77834 0
M  V30 2909 C 290.539 0.441569 4.37879 0
M  V30 2910 H 287.658 0.21463 0.705055 0
M  V30 2911 H 290.3 1.17316 1.49455 0
M  V30 2912 H 288.45 0.428431 3.8613 0
M  V30 2913 H 290.122 3.01216 3.4938 0
M  V30 2914 H 288.365 2.8848 3.23978 0
M  V30 2915 H 289.036 2.62947 4.85348 0
M  V30 2916 H 291.512 0.869448 4.06915 0
M  V30 2917 H 290.388 0.708856 5.44304 0
M  V30 2918 H 290.649 -0.658467 4.37169 0
M  V30 2919 N 289.708 -1.40897 0.706093 0
M  V30 2920 C 290.671 -2.29131 0.0562841 0
M  V30 2921 C 291.671 -1.44901 -0.697166 0
M  V30 2922 O 292.861 -1.65926 -0.530484 0
M  V30 2923 C 289.993 -3.27957 -0.93043 0
M  V30 2924 H 291.186 -2.88091 0.833284 0
M  V30 2925 H 288.739 -1.4906 0.470192 0
M  V30 2926 H 289.474 -2.73997 -1.73482 0
M  V30 2927 H 289.259 -3.90124 -0.393166 0
M  V30 2928 H 290.749 -3.94049 -1.38256 0
M  V30 2929 N 291.186 -0.45159 -1.50991 0
M  V30 2930 C 292.149 0.341117 -2.26647 0
M  V30 2931 C 293.149 0.937422 -1.30649 0
M  V30 2932 O 294.339 0.809644 -1.54241 0
M  V30 2933 C 291.471 1.48398 -3.06905 0
M  V30 2934 H 292.664 -0.322117 -2.98165 0
M  V30 2935 H 290.217 -0.205122 -1.54948 0
M  V30 2936 H 290.952 2.18284 -2.39838 0
M  V30 2937 H 290.737 1.06241 -3.77432 0
M  V30 2938 H 292.227 2.04367 -3.64176 0
M  V30 2939 N 292.664 1.56529 -0.183458 0
M  V30 2940 C 293.913 1.96419 0.458511 0
M  V30 2941 C 294.226 1.0727 1.63562 0
M  V30 2942 O 295.432 1.36893 2.34462 0
M  V30 2943 C 293.888 3.49298 0.867122 0
M  V30 2944 C 293.496 4.47092 -0.285057 0
M  V30 2945 C 295.24 3.97983 1.47683 0
M  V30 2946 C 293.147 5.91225 0.143862 0
M  V30 2947 H 292.077 0.733394 0.175071 0
M  V30 2948 H 294.728 1.81448 -0.273624 0
M  V30 2949 H 293.11 3.59731 1.65559 0
M  V30 2950 H 294.284 4.48383 -1.0625 0
M  V30 2951 H 292.599 4.08535 -0.805503 0
M  V30 2952 H 295.196 5.03134 1.80999 0
M  V30 2953 H 295.539 3.41618 2.37914 0
M  V30 2954 H 296.072 3.90617 0.752562 0
M  V30 2955 H 292.811 6.5149 -0.723974 0
M  V30 2956 H 292.331 5.93214 0.886413 0
M  V30 2957 H 294.01 6.44362 0.583628 0
M  V30 2958 N 294.142 -0.090211 1.57342 0
M  V30 2959 C 295.389 -0.792807 1.86335 0
M  V30 2960 C 295.717 -1.78494 0.772662 0
M  V30 2961 O 294.972 -1.94305 -0.233258 0
M  V30 2962 C 295.271 -1.55222 3.21933 0
M  V30 2963 C 294.937 -0.701765 4.45406 0
M  V30 2964 C 293.599 -0.467334 4.78925 0
M  V30 2965 C 295.951 -0.11086 5.21082 0
M  V30 2966 C 293.279 0.367785 5.85546 0
M  V30 2967 C 295.631 0.711609 6.28585 0
M  V30 2968 C 294.295 0.956086 6.60617 0
M  V30 2969 H 293.565 -0.290109 0.681849 0
M  V30 2970 H 296.212 -0.0541332 1.91423 0
M  V30 2971 H 294.517 -2.3626 3.12551 0
M  V30 2972 H 296.214 -2.10032 3.41595 0
M  V30 2973 H 292.804 -0.894598 4.1916 0
M  V30 2974 H 296.988 -0.279129 4.95514 0
M  V30 2975 H 292.244 0.566128 6.08773 0
M  V30 2976 H 296.418 1.17632 6.86393 0
M  V30 2977 H 294.045 1.60499 7.43064 0
M  V30 2978 N 295.62 -1.53406 -0.361157 0
M  V30 2979 C 296.55 -1.83136 -1.44857 0
M  V30 2980 C 297.531 -0.685174 -1.5569 0
M  V30 2981 O 298.716 -0.93544 -1.70186 0
M  V30 2982 C 295.846 -2.02522 -2.82138 0
M  V30 2983 C 294.8 -3.18302 -2.86126 0
M  V30 2984 C 294.126 -3.22989 -4.26125 0
M  V30 2985 C 295.426 -4.56796 -2.53248 0
M  V30 2986 H 297.12 -2.74201 -1.20226 0
M  V30 2987 H 294.666 -1.31938 -0.576922 0
M  V30 2988 H 296.619 -2.21904 -3.58241 0
M  V30 2989 H 295.343 -1.08172 -3.08166 0
M  V30 2990 H 294.002 -2.98747 -2.12475 0
M  V30 2991 H 293.65 -2.26267 -4.49235 0
M  V30 2992 H 293.35 -4.00781 -4.29708 0
M  V30 2993 H 294.874 -3.44559 -5.04094 0
M  V30 2994 H 296.288 -4.7631 -3.19064 0
M  V30 2995 H 294.685 -5.36862 -2.68141 0
M  V30 2996 H 295.755 -4.61606 -1.48484 0
M  V30 2997 N 297.098 0.621204 -1.44841 0
M  V30 2998 C 298.338 1.39201 -1.49674 0
M  V30 2999 C 298.702 1.91561 -0.129764 0
M  V30 3000 O 299.903 2.68748 -0.0527814 0
M  V30 3001 C 298.174 2.519 -2.53537 0
M  V30 3002 S 299.733 3.39916 -2.77494 0
M  V30 3003 H 296.551 0.474758 -0.529269 0
M  V30 3004 H 299.153 0.718171 -1.81831 0
M  V30 3005 H 297.857 2.11761 -3.51547 0
M  V30 3006 H 297.388 3.241 -2.22986 0
M  V30 3007 H 299.403 4.49646 -2.0984 0
M  V30 3008 N 298.576 1.31904 0.862503 0
M  V30 3009 C 299.524 1.20125 1.9918 0
M  V30 3010 C 300.518 0.107824 1.69056 0
M  V30 3011 O 301.724 0.270223 1.7796 0
M  V30 3012 H 298.099 0.372148 0.65346 0
M  V30 3013 H 300.07 2.15652 2.06244 0
M  V30 3014 C 298.819 0.933099 3.34946 0
M  V30 3015 H 298.142 1.76664 3.5865 0
M  V30 3016 H 299.582 0.890892 4.14535 0
M  V30 3017 C 298.041 -0.364172 3.34926 0
M  V30 3018 O 298.571 -1.37858 3.77304 0
M  V30 3019 N 296.777 -0.383362 2.8806 0
M  V30 3020 H 296.324 0.442651 2.53768 0
M  V30 3021 H 296.282 -1.25123 2.8843 0
M  V30 3022 N 300.054 -1.07777 1.14986 0
M  V30 3023 C 301.302 -1.79934 0.920235 0
M  V30 3024 C 301.623 -1.86955 -0.554336 0
M  V30 3025 O 300.893 -1.36731 -1.40291 0
M  V30 3026 H 299.473 -0.666424 0.337473 0
M  V30 3027 H 302.135 -1.3027 1.44968 0
M  V30 3028 H 301.231 -2.82539 1.32583 0
M  V30 3029 N 301.532 -0.945985 -1.26051 0
M  V30 3030 C 302.757 -0.612525 -1.98149 0
M  V30 3031 C 303.182 0.806623 -1.69927 0
M  V30 3032 O 302.54 1.54411 -0.950108 0
M  V30 3033 C 302.588 -0.866981 -3.50023 0
M  V30 3034 O 301.692 0.0585333 -4.12358 0
M  V30 3035 H 301.033 -0.23379 -0.621481 0
M  V30 3036 H 303.563 -1.27023 -1.60395 0
M  V30 3037 H 303.573 -0.789792 -4.00283 0
M  V30 3038 H 302.248 -1.90135 -3.69894 0
M  V30 3039 H 300.825 -0.0701241 -3.72834 0
M  V30 3040 N 303.011 1.40521 -0.713556 0
M  V30 3041 C 304.257 2.01221 -0.252564 0
M  V30 3042 C 304.59 1.56444 1.1506 0
M  V30 3043 O 303.865 0.783597 1.78017 0
M  V30 3044 C 304.148 3.58582 -0.330332 0
M  V30 3045 C 304.001 4.13437 -1.77173 0
M  V30 3046 C 305.32 4.39079 0.299641 0
M  V30 3047 H 302.439 0.731077 -0.0932471 0
M  V30 3048 H 305.081 1.67026 -0.905673 0
M  V30 3049 H 303.231 3.87844 0.225737 0
M  V30 3050 H 304.903 3.9498 -2.38303 0
M  V30 3051 H 303.146 3.67801 -2.3001 0
M  V30 3052 H 303.817 5.22597 -1.77755 0
M  V30 3053 H 306.293 4.15735 -0.174139 0
M  V30 3054 H 305.169 5.4848 0.214771 0
M  V30 3055 H 305.43 4.19915 1.38288 0
M  V30 3056 N 304.489 0.459591 1.5075 0
M  V30 3057 C 305.717 -0.0973749 2.06671 0
M  V30 3058 C 306.132 -1.34524 1.32472 0
M  V30 3059 O 305.489 -1.7827 0.390634 0
M  V30 3060 C 305.54 -0.39714 3.59312 0
M  V30 3061 O 305.261 0.801214 4.30711 0
M  V30 3062 C 306.762 -1.00234 4.31819 0
M  V30 3063 H 303.982 0.00195854 0.670997 0
M  V30 3064 H 306.526 0.645072 1.94059 0
M  V30 3065 H 304.681 -1.08951 3.71764 0
M  V30 3066 H 305.095 0.538857 5.21725 0
M  V30 3067 H 306.569 -1.16193 5.39632 0
M  V30 3068 H 307.046 -1.98939 3.91561 0
M  V30 3069 H 307.652 -0.348699 4.23868 0
M  V30 3070 N 305.967 -1.56429 0.191757 0
M  V30 3071 C 306.897 -2.21937 -0.725696 0
M  V30 3072 C 307.878 -1.1814 -1.2238 0
M  V30 3073 O 309.063 -1.46636 -1.27325 0
M  V30 3074 C 306.193 -2.87611 -1.94672 0
M  V30 3075 C 305.147 -3.97623 -1.58366 0
M  V30 3076 C 304.473 -4.50446 -2.88102 0
M  V30 3077 C 305.773 -5.16197 -0.796133 0
M  V30 3078 H 307.467 -2.98861 -0.179606 0
M  V30 3079 H 305.013 -1.43749 -0.0849464 0
M  V30 3080 H 306.966 -3.3212 -2.59373 0
M  V30 3081 H 305.69 -2.08087 -2.51728 0
M  V30 3082 H 304.349 -3.53801 -0.960247 0
M  V30 3083 H 303.997 -3.67688 -3.43241 0
M  V30 3084 H 303.697 -5.24675 -2.64556 0
M  V30 3085 H 305.221 -4.97654 -3.53798 0
M  V30 3086 H 306.635 -5.57271 -1.34618 0
M  V30 3087 H 305.032 -5.96471 -0.658928 0
M  V30 3088 H 306.102 -4.84473 0.203478 0
M  V30 3089 N 307.445 0.0818655 -1.57387 0
M  V30 3090 C 308.67 0.799946 -1.91352 0
M  V30 3091 C 309.095 1.70833 -0.787258 0
M  V30 3092 O 308.453 1.79419 0.26048 0
M  V30 3093 C 308.501 1.57812 -3.24234 0
M  V30 3094 O 307.605 2.68806 -3.12757 0
M  V30 3095 H 306.946 0.21891 -0.626877 0
M  V30 3096 H 309.476 0.0531256 -2.04531 0
M  V30 3097 H 309.486 1.95952 -3.57864 0
M  V30 3098 H 308.161 0.911548 -4.05788 0
M  V30 3099 H 306.738 2.33597 -2.90666 0
M  V30 3100 N 308.923 1.53595 0.353017 0
M  V30 3101 C 309.853 1.83902 1.43883 0
M  V30 3102 C 310.834 0.693421 1.55324 0
M  V30 3103 O 312.019 0.944452 1.69687 0
M  V30 3104 C 309.149 2.04016 2.8106 0
M  V30 3105 C 308.103 3.19814 2.84434 0
M  V30 3106 C 307.429 3.25244 4.24406 0
M  V30 3107 C 308.729 4.58133 2.50822 0
M  V30 3108 H 310.423 2.74835 1.1877 0
M  V30 3109 H 307.969 1.32242 0.569917 0
M  V30 3110 H 309.922 2.238 3.57059 0
M  V30 3111 H 308.646 1.09804 3.07588 0
M  V30 3112 H 307.305 2.9987 2.10887 0
M  V30 3113 H 306.953 2.28646 4.48029 0
M  V30 3114 H 306.653 4.03054 4.27576 0
M  V30 3115 H 308.177 3.47228 5.0226 0
M  V30 3116 H 309.591 4.77995 3.16534 0
M  V30 3117 H 307.988 5.38276 2.6529 0
M  V30 3118 H 309.058 4.62387 1.46034 0
M  V30 3119 N 310.401 -0.613514 1.45168 0
M  V30 3120 C 311.641 -1.38405 1.5041 0
M  V30 3121 C 312.005 -1.91489 0.139922 0
M  V30 3122 O 313.206 -2.68716 0.067033 0
M  V30 3123 C 311.477 -2.50552 2.5487 0
M  V30 3124 S 313.036 -3.38439 2.79292 0
M  V30 3125 H 309.854 -0.471945 0.531779 0
M  V30 3126 H 312.456 -0.708518 1.82209 0
M  V30 3127 H 311.16 -2.09894 3.52665 0
M  V30 3128 H 310.691 -3.22913 2.24701 0
M  V30 3129 H 312.706 -4.48527 2.12222 0
M  V30 3130 N 311.879 -1.3236 -0.855495 0
M  V30 3131 C 313.295 -1.11332 -1.14356 0
M  V30 3132 C 313.495 0.106751 -2.01217 0
M  V30 3133 O 312.551 0.791891 -2.39761 0
M  V30 3134 C 313.864 -2.39237 -1.82171 0
M  V30 3135 C 315.412 -2.44986 -1.9481 0
M  V30 3136 C 315.887 -3.7281 -2.66039 0
M  V30 3137 N 317.378 -3.73787 -2.73565 0
M  V30 3138 C 318.113 -4.69394 -3.29327 0
M  V30 3139 N 317.609 -5.75367 -3.85907 0
M  V30 3140 N 319.402 -4.56893 -3.27423 0
M  V30 3141 H 311.553 -2.10586 -0.277027 0
M  V30 3142 H 313.816 -0.929701 -0.185364 0
M  V30 3143 H 313.522 -3.28431 -1.25802 0
M  V30 3144 H 313.396 -2.50134 -2.82335 0
M  V30 3145 H 315.783 -1.56252 -2.50338 0
M  V30 3146 H 315.864 -2.38043 -0.936448 0
M  V30 3147 H 315.508 -4.61918 -2.11174 0
M  V30 3148 H 315.438 -3.77024 -3.67642 0
M  V30 3149 H 317.929 -2.97189 -2.33424 0
M  V30 3150 H 318.242 -6.44378 -4.26611 0
M  V30 3151 H 316.587 -5.79123 -3.84242 0
M  V30 3152 H 319.778 -3.73269 -2.82467 0
M  V30 3153 H 319.951 -5.31577 -3.7058 0
M  V30 3154 N 313.357 1.07166 -1.15556 0
M  V30 3155 C 314.29 2.13808 -0.797593 0
M  V30 3156 C 315.268 1.6101 0.226812 0
M  V30 3157 O 316.452 1.88161 0.112932 0
M  V30 3158 C 313.579 3.38187 -0.186371 0
M  V30 3159 C 312.625 4.09766 -1.18297 0
M  V30 3160 S 313.458 4.60932 -2.72584 0
M  V30 3161 C 314.614 5.88583 -2.12886 0
M  V30 3162 H 314.847 2.43843 -1.70083 0
M  V30 3163 H 312.38 1.19467 -0.978106 0
M  V30 3164 H 314.338 4.10189 0.159837 0
M  V30 3165 H 312.999 3.06326 0.694489 0
M  V30 3166 H 312.192 4.99065 -0.703562 0
M  V30 3167 H 311.794 3.43736 -1.47381 0
M  V30 3168 H 314.086 6.60866 -1.49208 0
M  V30 3169 H 315.029 6.41241 -3.0036 0
M  V30 3170 H 315.437 5.42194 -1.57116 0
M  V30 3171 N 314.835 0.952656 1.25548 0
M  V30 3172 C 316.065 0.622592 1.96996 0
M  V30 3173 C 316.473 -0.809112 1.71026 0
M  V30 3174 O 315.816 -1.55258 0.981861 0
M  V30 3175 C 315.878 0.798946 3.5051 0
M  V30 3176 C 315.542 2.20744 4.00151 0
M  V30 3177 C 316.539 3.18394 4.11001 0
M  V30 3178 C 314.224 2.5311 4.33867 0
M  V30 3179 C 316.218 4.46504 4.54877 0
M  V30 3180 C 313.905 3.8145 4.7743 0
M  V30 3181 C 314.903 4.77959 4.87897 0
M  V30 3182 O 314.591 6.04012 5.30494 0
M  V30 3183 H 314.323 0.232503 0.634758 0
M  V30 3184 H 316.877 1.2789 1.60728 0
M  V30 3185 H 315.107 0.0854903 3.86605 0
M  V30 3186 H 316.796 0.47023 4.03167 0
M  V30 3187 H 317.562 2.94715 3.85186 0
M  V30 3188 H 313.441 1.78719 4.24948 0
M  V30 3189 H 316.985 5.21835 4.62962 0
M  V30 3190 H 312.882 4.04936 5.0269 0
M  V30 3191 H 313.65 6.0736 5.48685 0
M  V30 3192 N 316.313 -1.40141 0.720998 0
M  V30 3193 C 317.729 -1.54632 0.395113 0
M  V30 3194 C 317.929 -1.69115 -1.09555 0
M  V30 3195 O 316.985 -1.68377 -1.88163 0
M  V30 3196 C 318.298 -2.77177 1.1659 0
M  V30 3197 C 319.846 -2.91 1.15274 0
M  V30 3198 C 320.321 -4.16465 1.90579 0
M  V30 3199 N 321.812 -4.23476 1.87675 0
M  V30 3200 C 322.547 -5.19475 2.42762 0
M  V30 3201 N 322.043 -6.21348 3.06428 0
M  V30 3202 N 323.836 -5.11592 2.32874 0
M  V30 3203 H 315.987 -1.28986 1.68749 0
M  V30 3204 H 318.25 -0.62412 0.713567 0
M  V30 3205 H 317.956 -2.72771 2.22011 0
M  V30 3206 H 317.83 -3.69442 0.76108 0
M  V30 3207 H 320.217 -2.94907 0.106702 0
M  V30 3208 H 320.298 -1.99838 1.59682 0
M  V30 3209 H 319.942 -4.1332 2.95176 0
M  V30 3210 H 319.872 -5.06646 1.43587 0
M  V30 3211 H 322.363 -3.50497 1.41281 0
M  V30 3212 H 322.676 -6.91034 3.45965 0
M  V30 3213 H 321.021 -6.21777 3.10514 0
M  V30 3214 H 324.212 -4.30936 1.82789 0
M  V30 3215 H 324.385 -5.86233 2.76106 0
M  V30 3216 N 317.792 -0.46758 -1.50504 0
M  V30 3217 C 318.724 0.364655 -2.26281 0
M  V30 3218 C 319.737 0.960151 -1.31472 0
M  V30 3219 O 320.926 0.849153 -1.57008 0
M  V30 3220 C 318.026 1.52509 -3.02645 0
M  V30 3221 C 317.199 1.04302 -4.24782 0
M  V30 3222 C 316.258 2.07709 -4.8347 0
M  V30 3223 O 315.284 1.65913 -5.44483 0
M  V30 3224 N 316.486 3.40485 -4.70159 0
M  V30 3225 H 319.251 -0.28495 -2.98342 0
M  V30 3226 H 316.812 -0.298163 -1.59131 0
M  V30 3227 H 318.804 2.21371 -3.38787 0
M  V30 3228 H 317.374 2.07945 -2.33404 0
M  V30 3229 H 316.594 0.180393 -3.93787 0
M  V30 3230 H 317.882 0.698798 -5.03978 0
M  V30 3231 H 317.28 3.77155 -4.21629 0
M  V30 3232 H 315.837 4.05156 -5.1058 0
M  V30 3233 N 319.27 1.56325 -0.20005 0
M  V30 3234 C 320.202 2.16555 0.750771 0
M  V30 3235 C 321.215 1.12871 1.1732 0
M  V30 3236 O 322.404 1.39943 1.10807 0
M  V30 3237 C 319.504 2.71684 2.02586 0
M  V30 3238 C 318.677 4.00321 1.76244 0
M  V30 3239 C 317.736 4.40227 2.88248 0
M  V30 3240 O 316.762 5.07552 2.57642 0
M  V30 3241 N 317.964 4.04138 4.16717 0
M  V30 3242 H 320.729 2.98772 0.235685 0
M  V30 3243 H 318.29 1.6189 -0.0182594 0
M  V30 3244 H 320.282 2.95363 2.76664 0
M  V30 3245 H 318.852 1.93893 2.45202 0
M  V30 3246 H 318.072 3.84723 0.85919 0
M  V30 3247 H 319.36 4.84279 1.56048 0
M  V30 3248 H 318.758 3.49993 4.44434 0
M  V30 3249 H 317.315 4.32756 4.87407 0
M  V30 3250 N 320.748 -0.0735177 1.57428 0
M  V30 3251 C 321.695 -1.08756 2.0357 0
M  V30 3252 C 322.665 -1.38559 0.916 0
M  V30 3253 O 323.85 -1.49656 1.18354 0
M  V30 3254 C 320.99 -2.39657 2.48311 0
M  V30 3255 C 320.103 -2.16399 3.73892 0
M  V30 3256 C 319.238 -3.40852 4.07423 0
M  V30 3257 C 318.277 -3.1295 5.2605 0
M  V30 3258 N 317.414 -4.29729 5.55228 0
M  V30 3259 H 322.254 -0.687104 2.8997 0
M  V30 3260 H 319.791 -0.327709 1.43403 0
M  V30 3261 H 321.749 -3.16081 2.72303 0
M  V30 3262 H 320.379 -2.77508 1.64891 0
M  V30 3263 H 319.431 -1.30676 3.57251 0
M  V30 3264 H 320.743 -1.91788 4.60455 0
M  V30 3265 H 319.897 -4.25671 4.32306 0
M  V30 3266 H 318.636 -3.68537 3.19425 0
M  V30 3267 H 317.641 -2.26526 5.00965 0
M  V30 3268 H 318.866 -2.86589 6.15665 0
M  V30 3269 H 316.812 -4.57448 4.70188 0
M  V30 3270 H 316.729 -4.08385 6.36206 0
M  V30 3271 H 317.997 -5.1555 5.84661 0
M  V30 3272 N 322.226 -1.5378 -0.344866 0
M  V30 3273 C 323.642 -1.44015 -0.687888 0
M  V30 3274 C 323.842 -0.595834 -1.92489 0
M  V30 3275 O 322.898 -0.0863064 -2.52352 0
M  V30 3276 C 324.211 -2.87481 -0.881758 0
M  V30 3277 C 325.759 -2.97247 -0.980459 0
M  V30 3278 C 326.234 -4.41819 -1.20665 0
M  V30 3279 N 327.725 -4.45339 -1.27389 0
M  V30 3280 C 328.46 -5.54333 -1.46639 0
M  V30 3281 N 327.956 -6.73335 -1.63071 0
M  V30 3282 N 329.749 -5.41944 -1.49176 0
M  V30 3283 H 321.9 -2.07169 0.468475 0
M  V30 3284 H 324.163 -0.93643 0.147655 0
M  V30 3285 H 323.869 -3.51672 -0.0443444 0
M  V30 3286 H 323.743 -3.32352 -1.78388 0
M  V30 3287 H 326.13 -2.33197 -1.8084 0
M  V30 3288 H 326.211 -2.5574 -0.0552713 0
M  V30 3289 H 325.855 -5.06449 -0.383652 0
M  V30 3290 H 325.785 -4.80917 -2.14539 0
M  V30 3291 H 328.276 -3.59585 -1.1622 0
M  V30 3292 H 328.589 -7.52165 -1.77391 0
M  V30 3293 H 326.934 -6.76282 -1.60209 0
M  V30 3294 H 330.125 -4.47932 -1.3592 0
M  V30 3295 H 330.298 -6.26946 -1.63837 0
M  V30 3296 N 323.704 0.605807 -1.45491 0
M  V30 3297 C 324.654 1.71074 -1.50724 0
M  V30 3298 C 325.638 1.5658 -0.37033 0
M  V30 3299 O 326.83 1.65887 -0.617299 0
M  V30 3300 C 323.959 3.0983 -1.47852 0
M  V30 3301 C 323.045 3.29704 -2.66751 0
M  V30 3302 N 323.436 3.19831 -3.91844 0
M  V30 3303 C 321.734 3.60579 -2.62486 0
M  V30 3304 C 322.435 3.41083 -4.71208 0
M  V30 3305 N 321.411 3.65157 -4.02693 0
M  V30 3306 H 325.213 1.61937 -2.45263 0
M  V30 3307 H 322.727 0.80912 -1.40808 0
M  V30 3308 H 324.724 3.89101 -1.49686 0
M  V30 3309 H 323.384 3.20115 -0.543714 0
M  V30 3310 H 324.395 2.98194 -4.23439 0
M  V30 3311 H 321.072 3.7769 -1.77922 0
M  V30 3312 H 322.462 3.38828 -5.80211 0
M  V30 3313 N 325.182 1.32811 0.848464 0
M  V30 3314 C 326.114 1.18095 1.96433 0
M  V30 3315 C 327.127 0.114354 1.62398 0
M  V30 3316 O 328.316 0.363892 1.74751 0
M  V30 3317 C 325.416 0.786798 3.2964 0
M  V30 3318 C 324.589 1.943 3.91875 0
M  V30 3319 C 323.648 1.53138 5.03423 0
M  V30 3320 O 322.674 2.24432 5.23086 0
M  V30 3321 N 323.876 0.430915 5.78898 0
M  V30 3322 H 326.641 2.14218 2.09597 0
M  V30 3323 H 324.202 1.2543 1.02367 0
M  V30 3324 H 326.194 0.493715 4.01677 0
M  V30 3325 H 324.764 -0.0834541 3.12489 0
M  V30 3326 H 323.984 2.40224 3.12547 0
M  V30 3327 H 325.272 2.71689 4.30189 0
M  V30 3328 H 324.67 -0.162333 5.65467 0
M  V30 3329 H 323.227 0.197466 6.51501 0
M  V30 3330 N 326.66 -1.06551 1.16123 0
M  V30 3331 C 327.908 -1.78947 0.939267 0
M  V30 3332 C 328.229 -1.87532 -0.534476 0
M  V30 3333 O 327.499 -1.38211 -1.38833 0
M  V30 3334 H 326.079 -0.662807 0.344523 0
M  V30 3335 H 328.741 -1.28725 1.46342 0
M  V30 3336 H 327.837 -2.81117 1.35572 0
M  V30 3337 N 328.138 -0.959301 -1.25041 0
M  V30 3338 C 329.363 -0.633507 -1.97488 0
M  V30 3339 C 329.788 0.788555 -1.70773 0
M  V30 3340 O 329.146 1.53394 -0.966431 0
M  V30 3341 C 329.194 -0.904057 -3.49083 0
M  V30 3342 O 328.298 0.0147939 -4.12397 0
M  V30 3343 H 327.639 -0.240368 -0.618966 0
M  V30 3344 H 330.169 -1.28717 -1.59038 0
M  V30 3345 H 330.179 -0.832203 -3.99423 0
M  V30 3346 H 328.854 -1.94048 -3.67856 0
M  V30 3347 H 327.431 -0.109664 -3.72739 0
M  V30 3348 N 329.616 1.39756 -0.72842 0
M  V30 3349 C 330.546 2.33289 -0.0991354 0
M  V30 3350 C 331.527 1.53568 0.731489 0
M  V30 3351 O 332.712 1.81987 0.677807 0
M  V30 3352 C 329.842 3.3763 0.813834 0
M  V30 3353 C 328.796 4.2791 0.0878663 0
M  V30 3354 C 328.122 5.22894 1.11741 0
M  V30 3355 C 329.422 5.11314 -1.06563 0
M  V30 3356 H 331.116 2.86163 -0.880408 0
M  V30 3357 H 328.662 1.37591 -0.424819 0
M  V30 3358 H 330.615 4.0201 1.26355 0
M  V30 3359 H 329.339 2.83181 1.62715 0
M  V30 3360 H 327.998 3.65 -0.342159 0
M  V30 3361 H 327.646 4.64744 1.92412 0
M  V30 3362 H 327.346 5.84143 0.636477 0
M  V30 3363 H 328.87 5.90151 1.56697 0
M  V30 3364 H 330.284 5.69076 -0.694671 0
M  V30 3365 H 328.681 5.81671 -1.47577 0
M  V30 3366 H 329.751 4.46534 -1.89038 0
M  V30 3367 N 331.094 0.475555 1.50254 0
M  V30 3368 C 332.342 -0.077738 2.0195 0
M  V30 3369 C 332.663 -1.39813 1.35931 0
M  V30 3370 O 331.933 -1.89249 0.506123 0
M  V30 3371 H 330.513 -0.031719 0.746326 0
M  V30 3372 H 333.175 0.626995 1.84539 0
M  V30 3373 H 332.271 -0.225995 3.11281 0
M  V30 3374 N 332.573 -1.56217 0.208337 0
M  V30 3375 C 333.984 -1.84243 -0.301904 0
M  V30 3376 C 334.335 -1.12939 -1.60434 0
M  V30 3377 O 333.46 -0.39461 -2.12772 0
M  V30 3378 C 334.055 -3.34231 -0.554543 0
M  V30 3379 C 332.614 -3.62621 -1.00912 0
M  V30 3380 C 331.761 -2.77224 -0.064933 0
M  V30 3381 H 334.712 -1.52712 0.431833 0
M  V30 3382 H 334.733 -3.5372 -1.40223 0
M  V30 3383 H 334.245 -3.86099 0.393561 0
M  V30 3384 H 332.346 -3.16197 -1.97104 0
M  V30 3385 H 332.459 -4.7071 -0.892674 0
M  V30 3386 H 330.823 -2.48256 -0.56929 0
M  V30 3387 H 331.606 -3.31887 0.877851 0
M  V30 3388 N 334.051 0.0651679 -1.57465 0
M  V30 3389 C 335.467 0.420105 -1.53972 0
M  V30 3390 C 335.667 1.78782 -0.929474 0
M  V30 3391 O 334.723 2.46771 -0.534839 0
M  V30 3392 C 336.036 0.355084 -2.98596 0
M  V30 3393 C 337.584 0.434792 -3.09965 0
M  V30 3394 C 338.059 0.399609 -4.56253 0
M  V30 3395 N 339.55 0.459488 -4.60915 0
M  V30 3396 C 340.285 0.454584 -5.71595 0
M  V30 3397 N 339.781 0.404102 -6.9162 0
M  V30 3398 N 341.574 0.501635 -5.59857 0
M  V30 3399 H 333.725 -0.830328 -1.95498 0
M  V30 3400 H 335.988 -0.312244 -0.895102 0
M  V30 3401 H 335.694 -0.583357 -3.46828 0
M  V30 3402 H 335.568 1.16275 -3.58831 0
M  V30 3403 H 337.955 1.36366 -2.61703 0
M  V30 3404 H 338.036 -0.40157 -2.52628 0
M  V30 3405 H 337.68 -0.525436 -5.05175 0
M  V30 3406 H 337.61 1.25359 -5.11461 0
M  V30 3407 H 340.101 0.502482 -3.74544 0
M  V30 3408 H 340.414 0.404468 -7.71741 0
M  V30 3409 H 338.759 0.37069 -6.94011 0
M  V30 3410 H 341.95 0.538812 -4.64989 0
M  V30 3411 H 342.123 0.494345 -6.46112 0
M  V30 3412 N 335.529 1.53961 0.336706 0
M  V30 3413 C 336.94 1.62914 0.911925 0
M  V30 3414 C 337.291 0.514795 1.89326 0
M  V30 3415 O 336.416 -0.354395 2.13478 0
M  V30 3416 C 337.011 2.95304 1.66076 0
M  V30 3417 C 335.57 3.06496 2.18489 0
M  V30 3418 C 334.717 2.58403 1.00613 0
M  V30 3419 H 337.668 1.58285 0.114649 0
M  V30 3420 H 337.689 2.84727 2.5241 0
M  V30 3421 H 337.201 3.76387 0.946276 0
M  V30 3422 H 335.302 2.3006 2.93092 0
M  V30 3423 H 335.415 4.1208 2.44391 0
M  V30 3424 H 333.779 2.13977 1.38152 0
M  V30 3425 H 334.562 3.41932 0.306179 0
M  V30 3426 N 337.007 -0.598083 1.45811 0
M  V30 3427 C 338.423 -0.919847 1.30426 0
M  V30 3428 C 338.623 -1.99759 0.264303 0
M  V30 3429 O 337.679 -2.50221 -0.338472 0
M  V30 3430 C 338.992 -1.35176 2.68603 0
M  V30 3431 C 340.54 -1.46546 2.76574 0
M  V30 3432 C 341.015 -1.9311 4.15298 0
M  V30 3433 N 342.506 -2.00328 4.1764 0
M  V30 3434 C 343.241 -2.37599 5.21856 0
M  V30 3435 N 342.737 -2.73771 6.36413 0
M  V30 3436 N 344.53 -2.38021 5.09218 0
M  V30 3437 H 336.681 0.114111 2.12093 0
M  V30 3438 H 338.944 -0.0116121 0.947929 0
M  V30 3439 H 338.65 -0.633969 3.45939 0
M  V30 3440 H 338.524 -2.3164 2.97696 0
M  V30 3441 H 340.911 -2.17415 1.99537 0
M  V30 3442 H 340.992 -0.483727 2.51185 0
M  V30 3443 H 340.636 -1.22824 4.92825 0
M  V30 3444 H 340.566 -2.92213 4.38086 0
M  V30 3445 H 343.057 -1.74925 3.34977 0
M  V30 3446 H 343.37 -3.0112 7.11721 0
M  V30 3447 H 341.715 -2.71445 6.39799 0
M  V30 3448 H 344.906 -2.09174 4.18765 0
M  V30 3449 H 345.079 -2.66741 5.90554 0
M  V30 3450 N 338.485 -1.33259 -0.841409 0
M  V30 3451 C 339.713 -1.27605 -1.62864 0
M  V30 3452 C 340.128 0.153507 -1.88175 0
M  V30 3453 O 339.485 1.09485 -1.46011 0
M  V30 3454 C 339.536 -2.04596 -2.98031 0
M  V30 3455 O 339.257 -3.41975 -2.73834 0
M  V30 3456 C 340.758 -2.06122 -3.92465 0
M  V30 3457 H 337.978 -0.439718 -0.506842 0
M  V30 3458 H 340.522 -1.75591 -1.04824 0
M  V30 3459 H 338.677 -1.60299 -3.5268 0
M  V30 3460 H 339.091 -3.81549 -3.59889 0
M  V30 3461 H 340.565 -2.64451 -4.84531 0
M  V30 3462 H 341.042 -1.05083 -4.26444 0
M  V30 3463 H 341.648 -2.50427 -3.43753 0
M  V30 3464 N 339.963 1.05934 -1.16686 0
M  V30 3465 C 341.211 1.78447 -0.948744 0
M  V30 3466 C 341.532 1.87813 0.524523 0
M  V30 3467 O 340.802 1.38945 1.38098 0
M  V30 3468 H 339.382 0.660971 -0.348033 0
M  V30 3469 H 342.044 1.27947 -1.47022 0
M  V30 3470 H 341.14 2.80394 -1.37061 0
M  V30 3471 N 341.441 0.965919 1.2453 0
M  V30 3472 C 342.351 0.502154 2.29163 0
M  V30 3473 C 343.367 -0.436017 1.68448 0
M  V30 3474 O 344.543 -0.309497 1.99008 0
M  V30 3475 C 341.608 -0.201956 3.46111 0
M  V30 3476 C 340.669 0.775821 4.22232 0
M  V30 3477 C 339.902 0.105217 5.33596 0
M  V30 3478 O 340.125 -1.10683 5.59558 0
M  V30 3479 O 339.059 0.796475 5.96607 0
M  V30 3480 H 342.885 1.37194 2.70946 0
M  V30 3481 H 340.47 0.732875 1.30189 0
M  V30 3482 H 342.352 -0.597564 4.17142 0
M  V30 3483 H 341.027 -1.04673 3.06309 0
M  V30 3484 H 339.934 1.22185 3.53584 0
M  V30 3485 H 341.267 1.58896 4.65846 0
M  V30 3486 N 342.919 -1.39368 0.735821 0
M  V30 3487 C 344.196 -1.94465 0.210395 0
M  V30 3488 C 344.576 -1.67254 -1.28799 0
M  V30 3489 O 343.924 -1.00123 -2.05396 0
M  V30 3490 C 344.134 -3.4472 0.544897 0
M  V30 3491 C 345.482 -4.21708 0.494689 0
M  V30 3492 O 346.506 -3.52922 0.482136 0
M  V30 3493 O 345.365 -5.44299 0.489947 0
M  V30 3494 H 342.459 -0.826096 0.0386666 0
M  V30 3495 H 345.005 -1.48863 0.814735 0
M  V30 3496 H 343.777 -3.57963 1.58045 0
M  V30 3497 H 343.4 -3.97502 -0.08837 0
M  V30 3498 N 344.397 -0.483516 -1.5 0
M  V30 3499 C 345.307 0.309172 -2.32554 0
M  V30 3500 C 346.323 0.984159 -1.43493 0
M  V30 3501 O 347.499 0.969399 -1.76535 0
M  V30 3502 C 344.564 1.36979 -3.18493 0
M  V30 3503 C 343.625 0.710095 -4.23387 0
M  V30 3504 C 342.858 1.72018 -5.05218 0
M  V30 3505 O 343.081 2.94813 -4.88305 0
M  V30 3506 O 342.015 1.28515 -5.8802 0
M  V30 3507 H 345.841 -0.366064 -3.01486 0
M  V30 3508 H 343.426 -0.24514 -1.47375 0
M  V30 3509 H 345.308 1.98385 -3.71781 0
M  V30 3510 H 343.983 2.02828 -2.52275 0
M  V30 3511 H 342.89 0.0567539 -3.74057 0
M  V30 3512 H 344.223 0.0943557 -4.9211 0
M  V30 3513 N 345.875 1.56104 -0.216619 0
M  V30 3514 C 347.121 1.98466 0.417033 0
M  V30 3515 C 347.454 1.10403 1.59765 0
M  V30 3516 O 346.729 0.160632 1.93836 0
M  V30 3517 C 347.012 3.49769 0.85637 0
M  V30 3518 C 346.865 4.48606 -0.327546 0
M  V30 3519 C 348.184 4.05339 1.7143 0
M  V30 3520 H 345.303 0.721551 0.150112 0
M  V30 3521 H 347.945 1.87423 -0.311864 0
M  V30 3522 H 346.095 3.5931 1.47745 0
M  V30 3523 H 347.767 4.5108 -0.965618 0
M  V30 3524 H 346.01 4.22682 -0.975805 0
M  V30 3525 H 346.681 5.51995 0.0227149 0
M  V30 3526 H 349.157 3.98712 1.19031 0
M  V30 3527 H 348.033 5.11533 1.99061 0
M  V30 3528 H 348.294 3.51918 2.67593 0
M  V30 3529 N 347.353 -0.0568162 1.57498 0
M  V30 3530 C 348.63 -0.786954 1.79071 0
M  V30 3531 C 349.01 -1.95028 0.80792 0
M  V30 3532 O 348.358 -2.27968 -0.155858 0
M  V30 3533 C 348.568 -1.24594 3.26002 0
M  V30 3534 C 349.916 -1.67323 3.90241 0
M  V30 3535 O 350.94 -1.34124 3.29984 0
M  V30 3536 O 349.799 -2.28842 4.9628 0
M  V30 3537 H 346.893 -0.378262 0.735423 0
M  V30 3538 H 349.439 -0.035734 1.69662 0
M  V30 3539 H 348.211 -0.41423 3.89101 0
M  V30 3540 H 347.834 -2.05803 3.40192 0
M  V30 3541 N 348.832 -1.54138 -0.328536 0
M  V30 3542 C 349.782 -1.79557 -1.4051 0
M  V30 3543 C 350.766 -0.651373 -1.47126 0
M  V30 3544 O 351.958 -0.911226 -1.51742 0
M  V30 3545 C 349.087 -2.02196 -2.77438 0
M  V30 3546 C 348.173 -3.22724 -2.75155 0
M  V30 3547 N 348.564 -4.43881 -2.42494 0
M  V30 3548 C 346.862 -3.24196 -3.06289 0
M  V30 3549 C 347.563 -5.25797 -2.48822 0
M  V30 3550 N 346.539 -4.62862 -2.8506 0
M  V30 3551 H 350.341 -2.70814 -1.1418 0
M  V30 3552 H 347.855 -1.53265 -0.536991 0
M  V30 3553 H 349.852 -2.18546 -3.55026 0
M  V30 3554 H 348.512 -1.12191 -3.04702 0
M  V30 3555 H 349.523 -4.70969 -2.15428 0
M  V30 3556 H 346.2 -2.44208 -3.38627 0
M  V30 3557 H 347.59 -6.32535 -2.26603 0
M  V30 3558 N 350.31 0.590341 -1.46126 0
M  V30 3559 C 351.24 1.71032 -1.58966 0
M  V30 3560 C 352.221 1.64302 -0.440335 0
M  V30 3561 O 353.406 1.82436 -0.665634 0
M  V30 3562 C 350.536 3.09665 -1.57241 0
M  V30 3563 C 349.49 3.31221 -2.71066 0
M  V30 3564 C 348.816 4.70303 -2.54399 0
M  V30 3565 C 350.116 3.19796 -4.1295 0
M  V30 3566 H 351.81 1.60543 -2.52718 0
M  V30 3567 H 349.356 0.770933 -1.21625 0
M  V30 3568 H 351.309 3.87831 -1.64819 0
M  V30 3569 H 350.033 3.21036 -0.600289 0
M  V30 3570 H 348.692 2.55452 -2.62944 0
M  V30 3571 H 348.34 4.78429 -1.55288 0
M  V30 3572 H 348.04 4.85679 -3.30741 0
M  V30 3573 H 349.564 5.50647 -2.63857 0
M  V30 3574 H 350.978 3.87815 -4.22223 0
M  V30 3575 H 349.375 3.46696 -4.89818 0
M  V30 3576 H 350.445 2.16983 -4.33643 0
M  V30 3577 N 351.788 1.33704 0.83433 0
M  V30 3578 C 353.037 1.24763 1.58484 0
M  V30 3579 C 353.35 -0.183775 1.94735 0
M  V30 3580 O 354.556 -0.395234 2.68608 0
M  V30 3581 C 353.012 2.18638 2.85876 0
M  V30 3582 C 352.62 3.66974 2.56971 0
M  V30 3583 C 354.364 2.18581 3.63899 0
M  V30 3584 C 352.271 4.5275 3.80488 0
M  V30 3585 H 351.201 0.463425 0.594772 0
M  V30 3586 H 353.852 1.58797 0.919551 0
M  V30 3587 H 352.234 1.77542 3.5397 0
M  V30 3588 H 353.408 4.16538 1.9706 0
M  V30 3589 H 351.723 3.69366 1.92244 0
M  V30 3590 H 354.32 2.79894 4.55591 0
M  V30 3591 H 354.663 1.18207 3.99165 0
M  V30 3592 H 355.196 2.58062 3.02735 0
M  V30 3593 H 351.935 5.54017 3.5035 0
M  V30 3594 H 351.455 4.07927 4.39722 0
M  V30 3595 H 353.134 4.66784 4.4802 0
M  V30 3596 N 353.266 -1.05314 1.17247 0
M  V30 3597 C 354.196 -2.1498 0.911362 0
M  V30 3598 C 355.177 -1.69471 -0.146169 0
M  V30 3599 O 356.362 -1.942 0.003812 0
M  V30 3600 C 353.492 -3.4472 0.422528 0
M  V30 3601 C 352.446 -4.03789 1.4191 0
M  V30 3602 C 351.772 -5.28858 0.788274 0
M  V30 3603 C 353.072 -4.41418 2.7919 0
M  V30 3604 H 354.766 -2.3708 1.82848 0
M  V30 3605 H 352.312 -1.13938 0.880569 0
M  V30 3606 H 354.265 -4.20787 0.227289 0
M  V30 3607 H 352.989 -3.22269 -0.530123 0
M  V30 3608 H 351.648 -3.2979 1.60106 0
M  V30 3609 H 351.296 -5.02709 -0.171173 0
M  V30 3610 H 350.996 -5.69338 1.45353 0
M  V30 3611 H 352.52 -6.07612 0.603282 0
M  V30 3612 H 353.934 -5.08524 2.64719 0
M  V30 3613 H 352.331 -4.92913 3.42282 0
M  V30 3614 H 353.401 -3.51819 3.33693 0
M  V30 3615 N 354.744 -0.972509 -1.24016 0
M  V30 3616 C 355.674 -0.525548 -2.27509 0
M  V30 3617 C 356.655 0.437262 -1.64384 0
M  V30 3618 O 357.84 0.332343 -1.91335 0
M  V30 3619 C 354.97 0.180448 -3.46831 0
M  V30 3620 C 353.924 -0.698859 -4.22256 0
M  V30 3621 C 353.25 0.138903 -5.3452 0
M  V30 3622 C 354.55 -1.98582 -4.83076 0
M  V30 3623 H 356.244 -1.39058 -2.65148 0
M  V30 3624 H 353.79 -0.67009 -1.27459 0
M  V30 3625 H 355.743 0.504387 -4.18371 0
M  V30 3626 H 354.467 1.07987 -3.08231 0
M  V30 3627 H 353.126 -1.00614 -3.52523 0
M  V30 3628 H 352.774 1.03862 -4.9216 0
M  V30 3629 H 352.474 -0.446259 -5.85903 0
M  V30 3630 H 353.998 0.457404 -6.08884 0
M  V30 3631 H 355.412 -1.72715 -5.46665 0
M  V30 3632 H 353.809 -2.5181 -5.44713 0
M  V30 3633 H 354.879 -2.67769 -4.04262 0
M  V30 3634 N 356.222 1.38976 -0.743202 0
M  V30 3635 C 357.185 2.28901 -0.117014 0
M  V30 3636 C 358.185 1.46698 0.658503 0
M  V30 3637 O 359.375 1.67274 0.486305 0
M  V30 3638 C 356.507 3.30309 0.84315 0
M  V30 3639 H 357.7 2.8578 -0.909373 0
M  V30 3640 H 355.253 1.47761 -0.509547 0
M  V30 3641 H 355.988 2.785 1.66157 0
M  V30 3642 H 355.773 3.91029 0.289594 0
M  V30 3643 H 357.263 3.97577 1.2776 0
M  V30 3644 N 357.7 0.491464 1.49741 0
M  V30 3645 C 358.63 -0.28154 2.31796 0
M  V30 3646 C 359.611 -0.971473 1.3963 0
M  V30 3647 O 360.796 -0.964719 1.68543 0
M  V30 3648 C 357.926 -1.35203 3.19902 0
M  V30 3649 C 356.88 -0.782529 4.20786 0
M  V30 3650 C 356.206 -1.95283 4.97764 0
M  V30 3651 C 357.506 0.21999 5.21837 0
M  V30 3652 H 359.2 0.403355 2.96671 0
M  V30 3653 H 356.746 0.195425 1.42668 0
M  V30 3654 H 358.699 -1.90045 3.76113 0
M  V30 3655 H 357.423 -2.06598 2.52953 0
M  V30 3656 H 356.082 -0.255928 3.65706 0
M  V30 3657 H 355.73 -2.65423 4.2727 0
M  V30 3658 H 355.43 -1.57789 5.66018 0
M  V30 3659 H 356.954 -2.50577 5.56816 0
M  V30 3660 H 358.368 -0.23996 5.72798 0
M  V30 3661 H 356.765 0.51026 5.97927 0
M  V30 3662 H 357.835 1.13911 4.7133 0
M  V30 3663 N 359.178 -1.55987 0.224894 0
M  V30 3664 C 360.111 -2.16413 -0.723929 0
M  V30 3665 C 361.089 -1.10952 -1.18863 0
M  V30 3666 O 362.273 -1.39225 -1.27077 0
M  V30 3667 C 359.4 -2.74711 -1.98121 0
M  V30 3668 C 358.446 -3.9303 -1.6562 0
M  V30 3669 S 359.279 -5.29817 -0.778058 0
M  V30 3670 C 360.435 -5.91555 -2.04483 0
M  V30 3671 H 360.668 -2.96555 -0.210347 0
M  V30 3672 H 358.201 -1.54397 0.00955457 0
M  V30 3673 H 360.159 -3.08938 -2.70311 0
M  V30 3674 H 358.82 -1.94555 -2.46591 0
M  V30 3675 H 358.013 -4.32334 -2.59043 0
M  V30 3676 H 357.615 -3.59966 -1.01491 0
M  V30 3677 H 359.907 -6.07732 -2.99446 0
M  V30 3678 H 360.85 -6.87498 -1.69563 0
M  V30 3679 H 361.258 -5.20419 -2.18688 0
M  V30 3680 N 360.656 0.0484629 -1.57525 0
M  V30 3681 C 361.884 0.755421 -1.92616 0
M  V30 3682 C 362.299 1.69919 -0.822984 0
M  V30 3683 O 361.656 1.81378 0.202085 0
M  V30 3684 C 361.707 1.52915 -3.27566 0
M  V30 3685 O 361.428 0.62329 -4.33644 0
M  V30 3686 C 362.929 2.33502 -3.76818 0
M  V30 3687 H 360.149 0.213465 -0.63614 0
M  V30 3688 H 362.693 0.0117698 -2.04497 0
M  V30 3689 H 360.848 2.22486 -3.17142 0
M  V30 3690 H 361.262 1.16383 -5.11425 0
M  V30 3691 H 362.736 2.83214 -4.73808 0
M  V30 3692 H 363.213 3.14068 -3.07014 0
M  V30 3693 H 363.819 1.69043 -3.90262 0
M  V30 3694 N 362.134 1.5431 0.320358 0
M  V30 3695 C 363.38 1.72924 1.05949 0
M  V30 3696 C 363.713 0.503185 1.87568 0
M  V30 3697 O 362.988 -0.499839 1.87968 0
M  V30 3698 C 363.271 3.00676 1.98156 0
M  V30 3699 C 363.124 4.3354 1.19845 0
M  V30 3700 C 364.443 3.24198 2.9763 0
M  V30 3701 H 361.562 0.629195 0.383774 0
M  V30 3702 H 364.204 1.87008 0.335854 0
M  V30 3703 H 362.354 2.888 2.59859 0
M  V30 3704 H 364.026 4.57305 0.605773 0
M  V30 3705 H 362.269 4.309 0.500784 0
M  V30 3706 H 362.94 5.19156 1.87567 0
M  V30 3707 H 365.416 3.35557 2.4605 0
M  V30 3708 H 364.292 4.14938 3.59329 0
M  V30 3709 H 364.553 2.41577 3.7026 0
M  V30 3710 N 363.613 -0.582584 1.46437 0
M  V30 3711 C 364.859 -1.34278 1.51978 0
M  V30 3712 C 365.192 -1.93446 0.170973 0
M  V30 3713 O 364.467 -1.76481 -0.817608 0
M  V30 3714 C 364.75 -2.47203 2.61845 0
M  V30 3715 C 364.603 -1.93069 4.06257 0
M  V30 3716 C 365.922 -3.49247 2.67795 0
M  V30 3717 H 363.041 -0.486876 0.553282 0
M  V30 3718 H 365.683 -0.654437 1.78374 0
M  V30 3719 H 363.833 -3.0592 2.39469 0
M  V30 3720 H 365.505 -1.38808 4.3992 0
M  V30 3721 H 363.748 -1.23898 4.1573 0
M  V30 3722 H 364.419 -2.74586 4.7886 0
M  V30 3723 H 366.895 -3.00411 2.8791 0
M  V30 3724 H 365.771 -4.25719 3.46489 0
M  V30 3725 H 366.032 -4.06482 1.73852 0
M  V30 3726 N 365.091 -1.34144 -0.827227 0
M  V30 3727 C 366.024 -1.19707 -1.94282 0
M  V30 3728 C 367.002 -0.0897256 -1.62352 0
M  V30 3729 O 368.186 -0.254095 -1.8678 0
M  V30 3730 C 365.313 -0.838646 -3.28153 0
M  V30 3731 C 364.359 -1.95514 -3.79047 0
M  V30 3732 S 365.192 -3.56793 -3.99323 0
M  V30 3733 C 366.348 -3.22983 -5.36127 0
M  V30 3734 H 366.581 -2.1414 -2.06231 0
M  V30 3735 H 364.114 -1.19121 -0.982321 0
M  V30 3736 H 366.072 -0.638637 -4.05502 0
M  V30 3737 H 364.733 0.0872776 -3.13979 0
M  V30 3738 H 363.926 -1.658 -4.75948 0
M  V30 3739 H 363.528 -2.11241 -3.08631 0
M  V30 3740 H 365.82 -2.74531 -6.19386 0
M  V30 3741 H 366.763 -4.19008 -5.70822 0
M  V30 3742 H 367.171 -2.59276 -5.01434 0
M  V30 3743 N 366.569 1.04691 -1.17803 0
M  V30 3744 C 367.532 2.10724 -0.901545 0
M  V30 3745 C 368.532 1.6042 0.110437 0
M  V30 3746 O 369.722 1.7377 -0.122303 0
M  V30 3747 C 366.854 3.39084 -0.351409 0
M  V30 3748 H 368.047 2.36686 -1.84174 0
M  V30 3749 H 365.6 1.21015 -0.98919 0
M  V30 3750 H 366.335 3.18782 0.59569 0
M  V30 3751 H 366.12 3.76909 -1.08083 0
M  V30 3752 H 367.61 4.17227 -0.176451 0
M  V30 3753 N 368.047 0.979072 1.23499 0
M  V30 3754 C 369.293 0.648178 1.92163 0
M  V30 3755 C 369.626 -0.816049 1.76222 0
M  V30 3756 O 368.901 -1.58849 1.12237 0
M  V30 3757 C 369.184 1.03773 3.44824 0
M  V30 3758 C 369.037 2.55948 3.69879 0
M  V30 3759 C 370.356 0.580653 4.36253 0
M  V30 3760 H 367.475 0.236952 0.69787 0
M  V30 3761 H 370.117 1.22012 1.45647 0
M  V30 3762 H 368.267 0.551058 3.84572 0
M  V30 3763 H 369.939 3.12179 3.3962 0
M  V30 3764 H 368.182 2.98641 3.14636 0
M  V30 3765 H 368.853 2.78255 4.76737 0
M  V30 3766 H 371.329 0.998465 4.03943 0
M  V30 3767 H 370.205 0.881663 5.41773 0
M  V30 3768 H 370.466 -0.519052 4.39042 0
M  V30 3769 N 369.525 -1.3858 0.750561 0
M  V30 3770 C 370.765 -2.02032 0.310258 0
M  V30 3771 C 371.129 -1.58288 -1.08668 0
M  V30 3772 O 372.33 -2.14049 -1.62593 0
M  V30 3773 C 370.601 -3.54856 0.425647 0
M  V30 3774 S 372.16 -4.38748 0.0674797 0
M  V30 3775 H 368.978 -0.700705 0.120554 0
M  V30 3776 H 371.58 -1.69134 0.980512 0
M  V30 3777 H 370.284 -3.84182 1.44335 0
M  V30 3778 H 369.815 -3.92527 -0.261894 0
M  V30 3779 H 371.83 -4.82835 -1.14388 0
M  V30 3780 N 371.003 -0.499398 -1.49478 0
M  V30 3781 C 372.228 0.044722 -2.07352 0
M  V30 3782 C 372.653 1.30207 -1.35749 0
M  V30 3783 O 372.011 1.76516 -0.413732 0
M  V30 3784 C 372.059 0.283013 -3.59488 0
M  V30 3785 O 371.163 1.35804 -3.89398 0
M  V30 3786 H 370.504 -0.0255147 -0.66351 0
M  V30 3787 H 373.034 -0.698561 -1.92305 0
M  V30 3788 H 373.044 0.515007 -4.04737 0
M  V30 3789 H 371.719 -0.635636 -4.11014 0
M  V30 3790 H 370.296 1.11113 -3.55961 0
M  V30 3791 N 372.481 1.55866 -0.233164 0
M  V30 3792 C 373.411 2.23783 0.666599 0
M  V30 3793 C 374.392 1.21343 1.19205 0
M  V30 3794 O 375.577 1.4996 1.23392 0
M  V30 3795 C 372.707 2.92671 1.86978 0
M  V30 3796 C 371.661 4.01682 1.47768 0
M  V30 3797 C 370.987 4.57926 2.76058 0
M  V30 3798 C 372.287 5.18126 0.658993 0
M  V30 3799 H 373.981 2.99232 0.100306 0
M  V30 3800 H 371.527 1.43924 0.046804 0
M  V30 3801 H 373.48 3.3888 2.50476 0
M  V30 3802 H 372.204 2.14688 2.46123 0
M  V30 3803 H 370.863 3.56222 0.866106 0
M  V30 3804 H 370.511 3.76659 3.33372 0
M  V30 3805 H 370.211 5.31505 2.50552 0
M  V30 3806 H 371.735 5.06859 3.40479 0
M  V30 3807 H 373.149 5.60644 1.19795 0
M  V30 3808 H 371.546 5.98009 0.500552 0
M  V30 3809 H 372.616 4.83763 -0.331856 0
M  V30 3810 N 373.959 -0.0401083 1.57549 0
M  V30 3811 C 375.37 -0.588097 1.77196 0
M  V30 3812 C 375.721 -1.76209 0.862832 0
M  V30 3813 O 374.846 -2.16331 0.0548389 0
M  V30 3814 C 375.441 -1.07363 3.21339 0
M  V30 3815 C 374 -1.56723 3.42221 0
M  V30 3816 C 373.147 -0.50041 2.72747 0
M  V30 3817 H 376.098 0.186119 1.57605 0
M  V30 3818 H 376.119 -1.94143 3.27244 0
M  V30 3819 H 375.631 -0.218975 3.87482 0
M  V30 3820 H 373.732 -2.4441 2.81237 0
M  V30 3821 H 373.845 -1.62234 4.50796 0
M  V30 3822 H 372.209 -0.952894 2.36203 0
M  V30 3823 H 372.992 0.344599 3.41566 0
M  V30 3824 N 375.437 -1.54477 -0.31217 0
M  V30 3825 C 376.367 -1.87652 -1.38957 0
M  V30 3826 C 377.348 -0.734358 -1.53431 0
M  V30 3827 O 378.533 -0.98911 -1.67123 0
M  V30 3828 C 375.663 -2.11396 -2.75552 0
M  V30 3829 C 374.617 -3.27243 -2.75855 0
M  V30 3830 C 373.943 -3.36382 -4.15633 0
M  V30 3831 C 375.243 -4.64622 -2.38587 0
M  V30 3832 H 376.937 -2.77887 -1.11442 0
M  V30 3833 H 374.483 -1.33707 -0.534655 0
M  V30 3834 H 376.436 -2.33189 -3.51 0
M  V30 3835 H 375.16 -1.17921 -3.04569 0
M  V30 3836 H 373.819 -3.05356 -2.02863 0
M  V30 3837 H 373.467 -2.40445 -4.41809 0
M  V30 3838 H 373.167 -4.14249 -4.1674 0
M  V30 3839 H 374.691 -3.60422 -4.92877 0
M  V30 3840 H 376.105 -4.86219 -3.03749 0
M  V30 3841 H 374.502 -5.45121 -2.50925 0
M  V30 3842 H 375.572 -4.66097 -1.33723 0
M  V30 3843 N 376.915 0.57481 -1.46744 0
M  V30 3844 C 378.143 1.35856 -1.56047 0
M  V30 3845 C 378.558 1.87691 -0.204365 0
M  V30 3846 O 377.915 1.64049 0.79963 0
M  V30 3847 C 377.966 2.54066 -2.57163 0
M  V30 3848 O 377.687 2.04377 -3.87507 0
M  V30 3849 C 379.188 3.46514 -2.76483 0
M  V30 3850 H 376.408 0.414754 -0.527466 0
M  V30 3851 H 378.952 0.698035 -1.92218 0
M  V30 3852 H 377.107 3.16092 -2.23974 0
M  V30 3853 H 377.521 2.81419 -4.4261 0
M  V30 3854 H 378.995 4.25919 -3.51137 0
M  V30 3855 H 379.472 3.98951 -1.83671 0
M  V30 3856 H 380.078 2.90318 -3.10799 0
M  V30 3857 N 378.394 1.34581 0.820102 0
M  V30 3858 C 379.643 1.26437 1.57151 0
M  V30 3859 C 379.956 -0.163111 1.94919 0
M  V30 3860 O 381.162 -0.366722 2.69012 0
M  V30 3861 C 379.618 2.21658 2.83541 0
M  V30 3862 C 379.226 3.69679 2.53065 0
M  V30 3863 C 380.97 2.22428 3.61561 0
M  V30 3864 C 378.877 4.56761 3.75664 0
M  V30 3865 H 377.807 0.469707 0.589823 0
M  V30 3866 H 380.458 1.59763 0.902656 0
M  V30 3867 H 378.84 1.81287 3.52067 0
M  V30 3868 H 380.014 4.18605 1.92631 0
M  V30 3869 H 378.329 3.71384 1.88316 0
M  V30 3870 H 380.926 2.8471 4.52597 0
M  V30 3871 H 381.269 1.22434 3.97889 0
M  V30 3872 H 381.802 2.61259 2.99981 0
M  V30 3873 H 378.541 5.57702 3.44454 0
M  V30 3874 H 378.061 4.12568 4.35371 0
M  V30 3875 H 379.74 4.71509 4.43044 0
M  V30 3876 N 379.872 -1.04064 1.18357 0
M  V30 3877 C 381.288 -1.2947 0.933258 0
M  V30 3878 C 381.488 -1.97466 -0.401169 0
M  V30 3879 O 380.544 -2.25528 -1.13549 0
M  V30 3880 C 381.857 -2.15337 2.09882 0
M  V30 3881 C 383.405 -2.28683 2.13712 0
M  V30 3882 C 383.88 -3.17917 3.29686 0
M  V30 3883 N 385.371 -3.25504 3.29547 0
M  V30 3884 C 386.106 -3.94706 4.15926 0
M  V30 3885 N 385.602 -4.66239 5.12439 0
M  V30 3886 N 387.395 -3.90986 4.0384 0
M  V30 3887 H 379.546 -0.583359 2.04232 0
M  V30 3888 H 381.809 -0.319921 0.892387 0
M  V30 3889 H 381.515 -1.72682 3.06389 0
M  V30 3890 H 381.389 -3.16015 2.05947 0
M  V30 3891 H 383.776 -2.70575 1.17784 0
M  V30 3892 H 383.857 -1.27596 2.21705 0
M  V30 3893 H 383.501 -2.76736 4.25887 0
M  V30 3894 H 383.431 -4.19036 3.1893 0
M  V30 3895 H 385.922 -2.74547 2.59677 0
M  V30 3896 H 386.235 -5.16638 5.74722 0
M  V30 3897 H 384.58 -4.65143 5.16398 0
M  V30 3898 H 387.771 -3.34234 3.27727 0
M  V30 3899 H 387.944 -4.44646 4.71375 0
M  V30 3900 N 381.35 -0.985608 -1.22978 0
M  V30 3901 C 382.59 -0.665487 -1.93263 0
M  V30 3902 C 382.954 0.78706 -1.75127 0
M  V30 3903 O 384.155 1.21826 -2.39608 0
M  V30 3904 C 382.426 -1.0515 -3.41582 0
M  V30 3905 S 383.985 -0.848637 -4.30516 0
M  V30 3906 H 380.803 -0.24355 -0.667985 0
M  V30 3907 H 383.405 -1.26635 -1.48942 0
M  V30 3908 H 382.109 -2.10517 -3.52293 0
M  V30 3909 H 381.64 -0.442134 -3.90908 0
M  V30 3910 H 383.655 0.264717 -4.95493 0
M  V30 3911 N 382.828 1.3818 -0.7579 0
M  V30 3912 C 384.075 2.00019 -0.315985 0
M  V30 3913 C 384.403 1.60163 1.10355 0
M  V30 3914 O 383.658 0.83264 1.77103 0
M  V30 3915 C 383.957 3.55252 -0.391218 0
M  V30 3916 C 383.623 4.14834 -1.76702 0
M  V30 3917 C 382.285 4.30821 -2.14353 0
M  V30 3918 C 384.637 4.47658 -2.66931 0
M  V30 3919 C 381.965 4.76928 -3.41696 0
M  V30 3920 C 384.317 4.95184 -3.93669 0
M  V30 3921 C 382.981 5.09377 -4.31383 0
M  V30 3922 H 382.251 0.731923 -0.115627 0
M  V30 3923 H 384.898 1.65161 -0.969223 0
M  V30 3924 H 383.203 3.90273 0.34558 0
M  V30 3925 H 384.9 4.00988 -0.030805 0
M  V30 3926 H 381.49 4.02808 -1.46435 0
M  V30 3927 H 385.674 4.34904 -2.39106 0
M  V30 3928 H 380.93 4.86103 -3.70829 0
M  V30 3929 H 385.104 5.19551 -4.63724 0
M  V30 3930 H 382.731 5.44865 -5.30119 0
M  V30 3931 N 384.306 0.507319 1.49211 0
M  V30 3932 C 385.534 -0.0315749 2.06876 0
M  V30 3933 C 385.949 -1.30241 1.36685 0
M  V30 3934 O 385.306 -1.76937 0.447152 0
M  V30 3935 C 385.357 -0.282627 3.60393 0
M  V30 3936 O 385.078 0.937835 4.27944 0
M  V30 3937 C 386.579 -0.864453 4.3479 0
M  V30 3938 H 383.799 0.0233048 0.670595 0
M  V30 3939 H 386.343 0.706484 1.91909 0
M  V30 3940 H 384.498 -0.97068 3.75042 0
M  V30 3941 H 384.912 0.704567 5.19746 0
M  V30 3942 H 386.386 -0.989664 5.43056 0
M  V30 3943 H 386.863 -1.86382 3.97692 0
M  V30 3944 H 387.469 -0.213672 4.24763 0
M  V30 3945 N 385.784 -1.5574 0.241426 0
M  V30 3946 C 386.716 -2.18469 -0.693091 0
M  V30 3947 C 387.729 -1.15942 -1.14286 0
M  V30 3948 O 388.918 -1.42832 -1.07058 0
M  V30 3949 C 386.018 -2.7696 -1.95311 0
M  V30 3950 C 385.191 -4.04853 -1.65568 0
M  V30 3951 C 384.25 -4.47715 -2.76474 0
M  V30 3952 O 383.276 -5.14205 -2.44094 0
M  V30 3953 N 384.478 -4.15044 -4.05855 0
M  V30 3954 H 387.243 -2.99292 -0.156388 0
M  V30 3955 H 384.804 -1.61784 0.0611752 0
M  V30 3956 H 386.796 -3.02594 -2.68736 0
M  V30 3957 H 385.366 -2.00326 -2.39975 0
M  V30 3958 H 384.586 -3.86865 -0.756886 0
M  V30 3959 H 385.874 -4.88246 -1.43153 0
M  V30 3960 H 385.272 -3.61654 -4.34998 0
M  V30 3961 H 383.829 -4.45526 -4.75762 0
M  V30 3962 N 387.262 0.0317525 -1.57568 0
M  V30 3963 C 388.225 1.01783 -2.0536 0
M  V30 3964 C 389.225 1.29203 -0.957253 0
M  V30 3965 O 390.415 1.24251 -1.22095 0
M  V30 3966 C 387.547 2.35137 -2.46827 0
M  V30 3967 H 388.74 0.605062 -2.93733 0
M  V30 3968 H 386.293 0.278514 -1.53799 0
M  V30 3969 H 387.028 2.81168 -1.61602 0
M  V30 3970 H 386.813 2.16566 -3.26866 0
M  V30 3971 H 388.303 3.05938 -2.84239 0
M  V30 3972 N 388.74 1.54641 0.303973 0
M  V30 3973 C 389.986 1.74038 1.04109 0
M  V30 3974 C 390.319 0.523051 1.87024 0
M  V30 3975 O 389.594 -0.479874 1.88487 0
M  V30 3976 C 389.877 3.02761 1.94955 0
M  V30 3977 C 389.73 4.34787 1.1524 0
M  V30 3978 C 391.049 3.27336 2.94175 0
M  V30 3979 H 388.168 0.63323 0.377079 0
M  V30 3980 H 390.81 1.87354 0.316001 0
M  V30 3981 H 388.96 2.9154 2.56782 0
M  V30 3982 H 390.632 4.57922 0.557236 0
M  V30 3983 H 388.875 4.31407 0.455053 0
M  V30 3984 H 389.546 5.21116 1.8205 0
M  V30 3985 H 392.022 3.38148 2.42477 0
M  V30 3986 H 390.898 4.18726 3.54908 0
M  V30 3987 H 391.159 2.45491 3.67677 0
M  V30 3988 N 390.218 -0.567019 1.47046 0
M  V30 3989 C 391.181 -1.65696 1.58359 0
M  V30 3990 C 392.181 -1.54097 0.459441 0
M  V30 3991 O 393.371 -1.58432 0.724225 0
M  V30 3992 C 390.503 -3.05197 1.51879 0
M  V30 3993 H 391.696 -1.57019 2.5551 0
M  V30 3994 H 389.249 -0.786148 1.3509 0
M  V30 3995 H 389.984 -3.19417 0.560673 0
M  V30 3996 H 389.769 -3.15025 2.33455 0
M  V30 3997 H 391.259 -3.84511 1.62913 0
M  V30 3998 N 391.696 -1.35014 -0.812953 0
M  V30 3999 C 393.107 -1.25035 -1.38648 0
M  V30 4000 C 393.458 0.119967 -1.95833 0
M  V30 4001 O 392.583 1.02069 -1.90816 0
M  V30 4002 C 393.178 -2.26394 -2.52054 0
M  V30 4003 C 391.737 -2.20175 -3.05287 0
M  V30 4004 C 390.884 -2.12451 -1.78213 0
M  V30 4005 H 393.835 -1.46235 -0.616516 0
M  V30 4006 H 393.856 -1.88672 -3.30429 0
M  V30 4007 H 393.368 -3.26116 -2.10404 0
M  V30 4008 H 391.469 -1.23841 -3.51417 0
M  V30 4009 H 391.582 -3.11863 -3.63701 0
M  V30 4010 H 389.946 -1.58328 -1.9951 0
M  V30 4011 H 390.729 -3.14024 -1.38723 0
M  V30 4012 N 393.175 1.03435 -1.18907 0
M  V30 4013 C 394.452 1.73778 -0.89781 0
M  V30 4014 C 394.832 2.02458 0.597832 0
M  V30 4015 O 394.18 1.67482 1.55441 0
M  V30 4016 C 394.39 3.01845 -1.75187 0
M  V30 4017 C 395.738 3.7546 -1.9828 0
M  V30 4018 O 396.762 3.11759 -1.72293 0
M  V30 4019 O 395.621 4.89966 -2.42065 0
M  V30 4020 H 392.715 0.75651 -0.334098 0
M  V30 4021 H 395.261 1.09444 -1.29693 0
M  V30 4022 H 394.033 2.76836 -2.76545 0
M  V30 4023 H 393.656 3.73919 -1.35167 0
M  V30 4024 N 394.653 0.992116 1.22453 0
M  V30 4025 C 395.878 0.685644 1.95739 0
M  V30 4026 C 396.303 -0.743 1.72804 0
M  V30 4027 O 395.661 -1.50778 1.00676 0
M  V30 4028 C 395.709 0.996293 3.46564 0
M  V30 4029 O 394.813 0.0945512 4.12292 0
M  V30 4030 H 394.154 0.256694 0.612376 0
M  V30 4031 H 396.684 1.32888 1.5557 0
M  V30 4032 H 396.694 0.93781 3.97076 0
M  V30 4033 H 395.369 2.03733 3.62582 0
M  V30 4034 H 393.946 0.208451 3.72317 0
M  V30 4035 N 396.131 -1.37776 0.765217 0
M  V30 4036 C 397.356 -2.04651 0.336537 0
M  V30 4037 C 397.781 -1.57337 -1.03086 0
M  V30 4038 O 397.139 -0.730621 -1.65927 0
M  V30 4039 C 397.187 -3.58577 0.381468 0
M  V30 4040 O 396.291 -4.07706 -0.62042 0
M  V30 4041 H 395.632 -0.64756 0.146838 0
M  V30 4042 H 398.162 -1.76221 1.03959 0
M  V30 4043 H 398.172 -4.07314 0.236448 0
M  V30 4044 H 396.847 -3.9237 1.37907 0
M  V30 4045 H 395.424 -3.70306 -0.439056 0
M  V30 4046 N 397.609 -0.515225 -1.4894 0
M  V30 4047 C 398.834 0.022727 -2.07388 0
M  V30 4048 C 399.259 1.2876 -1.37122 0
M  V30 4049 O 398.617 1.76067 -0.432431 0
M  V30 4050 C 398.665 0.244869 -3.59768 0
M  V30 4051 O 397.769 1.31667 -3.90817 0
M  V30 4052 H 397.11 -0.0325506 -0.663202 0
M  V30 4053 H 399.64 -0.718918 -1.91553 0
M  V30 4054 H 399.65 0.47205 -4.0526 0
M  V30 4055 H 398.325 -0.679194 -4.10317 0
M  V30 4056 H 396.902 1.07331 -3.5712 0
M  V30 4057 N 399.087 1.5561 -0.249682 0
M  V30 4058 C 399.997 2.25143 0.659375 0
M  V30 4059 C 401.013 1.2685 1.19101 0
M  V30 4060 O 402.189 1.59732 1.22669 0
M  V30 4061 C 399.254 2.93945 1.8384 0
M  V30 4062 C 398.315 4.07655 1.34596 0
M  V30 4063 C 397.548 4.73167 2.46878 0
M  V30 4064 O 397.771 4.37768 3.65671 0
M  V30 4065 O 396.705 5.61623 2.16478 0
M  V30 4066 H 400.531 3.03545 0.0968698 0
M  V30 4067 H 398.116 1.49389 -0.018074 0
M  V30 4068 H 399.998 3.37271 2.52638 0
M  V30 4069 H 398.673 2.18481 2.38847 0
M  V30 4070 H 397.58 3.68839 0.625174 0
M  V30 4071 H 398.913 4.84946 0.841941 0
M  V30 4072 N 400.565 -0.0233959 1.57583 0
M  V30 4073 C 401.498 -1.05549 2.02323 0
M  V30 4074 C 402.476 -1.34843 0.908626 0
M  V30 4075 O 403.66 -1.47404 1.17491 0
M  V30 4076 C 400.787 -2.38885 2.40108 0
M  V30 4077 C 399.833 -2.2541 3.62067 0
M  V30 4078 S 400.666 -1.60217 5.1097 0
M  V30 4079 C 401.822 -2.95032 5.52003 0
M  V30 4080 H 402.055 -0.674435 2.89549 0
M  V30 4081 H 399.588 -0.23355 1.52623 0
M  V30 4082 H 401.546 -3.15562 2.62547 0
M  V30 4083 H 400.207 -2.74137 1.53323 0
M  V30 4084 H 399.4 -3.23854 3.86179 0
M  V30 4085 H 399.002 -1.56876 3.39508 0
M  V30 4086 H 401.294 -3.91357 5.53033 0
M  V30 4087 H 402.237 -2.75646 6.52246 0
M  V30 4088 H 402.645 -2.97865 4.79517 0
M  V30 4089 N 402.043 -1.548 -0.295768 0
M  V30 4090 C 403.291 -1.73985 -1.02828 0
M  V30 4091 C 403.612 -0.531406 -1.87619 0
M  V30 4092 O 402.882 0.454221 -1.90561 0
M  V30 4093 H 401.462 -0.641556 -0.382642 0
M  V30 4094 H 404.124 -1.92163 -0.325489 0
M  V30 4095 H 403.22 -2.63129 -1.67838 0
M  V30 4096 N 403.521 0.559213 -1.47345 0
M  V30 4097 C 404.798 1.31997 -1.44348 0
M  V30 4098 C 405.178 2.1064 -0.139358 0
M  V30 4099 O 404.526 2.1091 0.879153 0
M  V30 4100 C 404.736 2.22618 -2.68779 0
M  V30 4101 C 406.084 2.83701 -3.1591 0
M  V30 4102 O 407.108 2.32921 -2.69493 0
M  V30 4103 O 405.967 3.75993 -3.966 0
M  V30 4104 H 403.061 0.594251 -0.575147 0
M  V30 4105 H 405.607 0.578282 -1.59543 0
M  V30 4106 H 404.379 1.64093 -3.55231 0
M  V30 4107 H 404.002 3.04085 -2.5616 0
M  V30 4108 N 404.999 1.35443 0.805782 0
M  V30 4109 C 405.929 1.31095 1.93226 0
M  V30 4110 C 406.91 0.185244 1.69088 0
M  V30 4111 O 408.095 0.380332 1.90439 0
M  V30 4112 C 405.225 1.08299 3.29983 0
M  V30 4113 C 404.179 2.17519 3.68605 0
M  V30 4114 C 403.505 1.79887 5.03532 0
M  V30 4115 C 404.805 3.5949 3.78898 0
M  V30 4116 H 406.499 2.25352 1.97122 0
M  V30 4117 H 404.045 1.0848 0.946996 0
M  V30 4118 H 405.998 1.03897 4.08391 0
M  V30 4119 H 404.722 0.104885 3.26432 0
M  V30 4120 H 403.381 2.2102 2.92482 0
M  V30 4121 H 403.029 0.80693 4.96485 0
M  V30 4122 H 402.729 2.53001 5.30344 0
M  V30 4123 H 404.253 1.77011 5.84379 0
M  V30 4124 H 405.667 3.58307 4.47536 0
M  V30 4125 H 404.064 4.31371 4.1718 0
M  V30 4126 H 405.134 3.95584 2.80431 0
M  V30 4127 N 406.477 -1.02803 1.19454 0
M  V30 4128 C 407.407 -2.12999 0.956758 0
M  V30 4129 C 408.388 -1.69743 -0.110188 0
M  V30 4130 O 409.573 -1.94148 0.0450038 0
M  V30 4131 C 406.703 -3.43746 0.495553 0
M  V30 4132 C 405.657 -4.00688 1.50443 0
M  V30 4133 C 404.983 -5.27067 0.900275 0
M  V30 4134 C 406.283 -4.35397 2.8849 0
M  V30 4135 H 407.977 -2.33148 1.87836 0
M  V30 4136 H 405.523 -1.12045 0.904539 0
M  V30 4137 H 407.476 -4.2021 0.316493 0
M  V30 4138 H 406.2 -3.23321 -0.461646 0
M  V30 4139 H 404.859 -3.2632 1.67065 0
M  V30 4140 H 404.507 -5.02959 -0.064503 0
M  V30 4141 H 404.207 -5.66127 1.57397 0
M  V30 4142 H 405.731 -6.06196 0.73203 0
M  V30 4143 H 407.145 -5.02795 2.75446 0
M  V30 4144 H 405.542 -4.85541 3.52661 0
M  V30 4145 H 406.612 -3.44662 3.41081 0
M  V30 4146 N 407.956 -0.998596 -1.21925 0
M  V30 4147 C 408.919 -0.558679 -2.22287 0
M  V30 4148 C 409.919 0.361525 -1.56683 0
M  V30 4149 O 411.109 0.152695 -1.73529 0
M  V30 4150 C 408.241 0.18661 -3.40389 0
M  V30 4151 H 409.434 -1.4463 -2.62721 0
M  V30 4152 H 406.987 -0.786413 -1.35075 0
M  V30 4153 H 407.722 1.08996 -3.05435 0
M  V30 4154 H 407.507 -0.474188 -3.89222 0
M  V30 4155 H 408.997 0.482367 -4.14805 0
M  V30 4156 N 409.434 1.37368 -0.772513 0
M  V30 4157 C 410.681 1.99673 -0.337182 0
M  V30 4158 C 411.009 1.61324 1.0865 0
M  V30 4159 O 410.264 0.851377 1.7621 0
M  V30 4160 C 410.563 3.54817 -0.428876 0
M  V30 4161 C 410.229 4.12936 -1.81092 0
M  V30 4162 C 408.891 4.28523 -2.1891 0
M  V30 4163 C 411.243 4.44801 -2.71664 0
M  V30 4164 C 408.571 4.73277 -3.46735 0
M  V30 4165 C 410.923 4.90981 -3.98899 0
M  V30 4166 C 409.587 5.04773 -4.36761 0
M  V30 4167 H 408.857 0.730656 -0.123384 0
M  V30 4168 H 411.504 1.64124 -0.986686 0
M  V30 4169 H 409.809 3.90618 0.304167 0
M  V30 4170 H 411.506 4.00933 -0.0733334 0
M  V30 4171 H 408.096 4.01233 -1.50699 0
M  V30 4172 H 412.28 4.32344 -2.43706 0
M  V30 4173 H 407.536 4.82142 -3.75964 0
M  V30 4174 H 411.71 5.14603 -4.69208 0
M  V30 4175 H 409.337 5.39211 -5.35868 0
M  V30 4176 N 410.912 0.523116 1.48665 0
M  V30 4177 C 412.328 0.180511 1.58576 0
M  V30 4178 C 412.528 -1.31597 1.52592 0
M  V30 4179 O 411.584 -2.0937 1.4114 0
M  V30 4180 C 412.897 0.776949 2.90489 0
M  V30 4181 C 414.445 0.745058 3.04003 0
M  V30 4182 C 414.92 1.31995 4.38567 0
M  V30 4183 N 416.411 1.28162 4.45117 0
M  V30 4184 C 417.146 1.6964 5.47731 0
M  V30 4185 N 416.642 2.18816 6.57337 0
M  V30 4186 N 418.435 1.6092 5.38573 0
M  V30 4187 H 410.586 1.4958 1.50797 0
M  V30 4188 H 412.849 0.621772 0.715614 0
M  V30 4189 H 412.555 1.82732 3.00503 0
M  V30 4190 H 412.429 0.25007 3.7637 0
M  V30 4191 H 414.816 -0.296532 2.93606 0
M  V30 4192 H 414.897 1.30933 2.1975 0
M  V30 4193 H 414.541 2.36043 4.49718 0
M  V30 4194 H 414.471 0.731418 5.21496 0
M  V30 4195 H 416.962 0.92155 3.66491 0
M  V30 4196 H 417.275 2.48478 7.31764 0
M  V30 4197 H 415.62 2.22805 6.58318 0
M  V30 4198 H 418.811 1.22304 4.5184 0
M  V30 4199 H 418.984 1.93567 6.18414 0
M  V30 4200 N 412.39 -1.55475 0.257931 0
M  V30 4201 C 413.637 -1.99207 -0.363728 0
M  V30 4202 C 413.965 -1.1462 -1.57139 0
M  V30 4203 O 413.22 -0.199653 -1.94679 0
M  V30 4204 C 413.519 -3.48183 -0.806433 0
M  V30 4205 C 413.185 -4.49936 0.294684 0
M  V30 4206 C 411.847 -4.77481 0.597076 0
M  V30 4207 C 414.199 -5.10769 1.03751 0
M  V30 4208 C 411.527 -5.63132 1.64618 0
M  V30 4209 C 413.879 -5.97558 2.07622 0
M  V30 4210 C 412.543 -6.23432 2.38514 0
M  V30 4211 H 411.813 -0.728949 -0.133097 0
M  V30 4212 H 414.46 -1.8793 0.368059 0
M  V30 4213 H 412.765 -3.56848 -1.61761 0
M  V30 4214 H 414.462 -3.79415 -1.29789 0
M  V30 4215 H 411.052 -4.28572 0.0488649 0
M  V30 4216 H 415.236 -4.89527 0.817149 0
M  V30 4217 H 410.492 -5.8143 1.89074 0
M  V30 4218 H 414.666 -6.43735 2.65666 0
M  V30 4219 H 412.293 -6.89594 3.19943 0
M  V30 4220 N 413.868 0.0150385 -1.57593 0
M  V30 4221 C 415.098 0.713359 -1.93894 0
M  V30 4222 C 415.506 1.68663 -0.857289 0
M  V30 4223 O 414.849 1.82876 0.173788 0
M  V30 4224 C 414.911 1.51348 -3.26089 0
M  V30 4225 C 414.575 0.703451 -4.51554 0
M  V30 4226 C 415.572 -0.00237924 -5.199 0
M  V30 4227 C 413.257 0.653854 -4.98026 0
M  V30 4228 C 415.251 -0.746955 -6.33008 0
M  V30 4229 C 412.938 -0.0944578 -6.11027 0
M  V30 4230 C 413.936 -0.793609 -6.78374 0
M  V30 4231 O 413.624 -1.52974 -7.89211 0
M  V30 4232 H 413.356 0.204637 -0.644282 0
M  V30 4233 H 415.91 -0.0276411 -2.05381 0
M  V30 4234 H 414.14 2.29862 -3.10967 0
M  V30 4235 H 415.829 2.09572 -3.47612 0
M  V30 4236 H 416.595 0.0268803 -4.84993 0
M  V30 4237 H 412.474 1.18756 -4.45441 0
M  V30 4238 H 416.018 -1.2932 -6.85509 0
M  V30 4239 H 411.915 -0.125591 -6.45378 0
M  V30 4240 H 412.683 -1.44488 -8.05646 0
M  V30 4241 N 415.346 1.54954 0.287554 0
M  V30 4242 C 416.309 1.86076 1.33823 0
M  V30 4243 C 417.309 0.734414 1.43049 0
M  V30 4244 O 418.499 1.00266 1.42452 0
M  V30 4245 C 415.631 2.05305 2.72144 0
M  V30 4246 H 416.824 2.79984 1.07465 0
M  V30 4247 H 414.377 1.47223 0.524902 0
M  V30 4248 H 415.112 1.1373 3.03704 0
M  V30 4249 H 414.897 2.873 2.66836 0
M  V30 4250 H 416.387 2.30706 3.48087 0
M  V30 4251 N 416.824 -0.551391 1.4764 0
M  V30 4252 C 418.071 -1.3083 1.54563 0
M  V30 4253 C 418.399 -1.93359 0.210361 0
M  V30 4254 O 417.654 -1.78721 -0.797332 0
M  V30 4255 C 417.953 -2.43469 2.61644 0
M  V30 4256 C 417.619 -1.98732 4.04742 0
M  V30 4257 C 416.281 -1.86248 4.43695 0
M  V30 4258 C 418.633 -1.64659 4.94507 0
M  V30 4259 C 415.961 -1.37995 5.70241 0
M  V30 4260 C 418.313 -1.17875 6.21521 0
M  V30 4261 C 416.977 -1.03992 6.5935 0
M  V30 4262 H 416.247 -0.478741 0.565587 0
M  V30 4263 H 418.894 -0.617697 1.81264 0
M  V30 4264 H 417.199 -3.18109 2.28722 0
M  V30 4265 H 418.896 -3.01642 2.64222 0
M  V30 4266 H 415.486 -2.09393 3.73968 0
M  V30 4267 H 419.67 -1.73174 4.65107 0
M  V30 4268 H 414.926 -1.25915 5.98294 0
M  V30 4269 H 419.1 -0.905739 6.90485 0
M  V30 4270 H 416.727 -0.663794 7.57296 0
M  V30 4271 N 418.302 -1.35869 -0.798587 0
M  V30 4272 C 419.25 -1.29491 -1.93222 0
M  V30 4273 C 420.244 -0.18836 -1.6835 0
M  V30 4274 O 421.45 -0.354822 -1.76468 0
M  V30 4275 H 417.825 -0.402901 -0.63496 0
M  V30 4276 H 419.796 -2.25247 -1.9572 0
M  V30 4277 C 418.545 -1.09184 -3.30112 0
M  V30 4278 H 417.868 -1.93574 -3.49813 0
M  V30 4279 H 419.308 -1.08766 -4.09812 0
M  V30 4280 C 417.767 0.203959 -3.36282 0
M  V30 4281 O 418.297 1.19699 -3.83451 0
M  V30 4282 N 416.503 0.245488 -2.89561 0
M  V30 4283 H 416.05 -0.563223 -2.51367 0
M  V30 4284 H 416.008 1.11219 -2.94071 0
M  V30 4285 N 419.78 1.02168 -1.19998 0
M  V30 4286 C 421.191 1.57135 -1.00825 0
M  V30 4287 C 421.542 1.91276 0.436818 0
M  V30 4288 O 420.667 1.71679 1.3174 0
M  V30 4289 C 421.262 2.85514 -1.82393 0
M  V30 4290 C 419.821 3.37027 -1.67601 0
M  V30 4291 C 418.968 2.10388 -1.80644 0
M  V30 4292 H 421.919 0.846106 -1.34264 0
M  V30 4293 H 421.94 3.56711 -1.32429 0
M  V30 4294 H 421.452 2.60634 -2.87561 0
M  V30 4295 H 419.553 3.66878 -0.650485 0
M  V30 4296 H 419.666 4.09572 -2.4857 0
M  V30 4297 H 418.03 2.22601 -1.23778 0
M  V30 4298 H 418.813 1.8794 -2.87286 0
M  V30 4299 N 421.258 1.00505 1.21394 0
M  V30 4300 C 422.507 0.683159 1.89778 0
M  V30 4301 C 422.82 -0.789471 1.7896 0
M  V30 4302 O 424.026 -1.22344 2.42372 0
M  V30 4303 C 422.482 1.17146 3.40301 0
M  V30 4304 C 422.09 2.67017 3.5973 0
M  V30 4305 C 423.834 0.924461 4.14311 0
M  V30 4306 C 421.741 3.09387 5.04017 0
M  V30 4307 H 420.671 0.25183 0.710702 0
M  V30 4308 H 423.322 1.21622 1.37406 0
M  V30 4309 H 421.704 0.566451 3.91928 0
M  V30 4310 H 422.878 3.32968 3.18542 0
M  V30 4311 H 421.193 2.89732 2.99073 0
M  V30 4312 H 423.79 1.21658 5.20676 0
M  V30 4313 H 424.133 -0.139286 4.16067 0
M  V30 4314 H 424.666 1.49226 3.6875 0
M  V30 4315 H 421.405 4.14989 5.07409 0
M  V30 4316 H 420.925 2.48149 5.46061 0
M  V30 4317 H 422.604 3.01371 5.72525 0
M  V30 4318 N 422.737 -1.36956 0.779787 0
M  V30 4319 C 423.667 -2.32761 0.185651 0
M  V30 4320 C 424.648 -1.56177 -0.673989 0
M  V30 4321 O 425.833 -1.84378 -0.609797 0
M  V30 4322 C 422.963 -3.40418 -0.687964 0
M  V30 4323 C 421.917 -4.27941 0.0710102 0
M  V30 4324 C 421.243 -5.26681 -0.922573 0
M  V30 4325 C 422.543 -5.07006 1.25467 0
M  V30 4326 H 424.237 -2.82698 0.986008 0
M  V30 4327 H 421.783 -1.3592 0.475592 0
M  V30 4328 H 423.736 -4.06423 -1.11348 0
M  V30 4329 H 422.46 -2.89025 -1.52093 0
M  V30 4330 H 421.119 -3.63478 0.47739 0
M  V30 4331 H 420.767 -4.71565 -1.7503 0
M  V30 4332 H 420.467 -5.86103 -0.419237 0
M  V30 4333 H 421.991 -5.9556 -1.34686 0
M  V30 4334 H 423.405 -5.66105 0.905401 0
M  V30 4335 H 421.802 -5.75793 1.69063 0
M  V30 4336 H 422.872 -4.3921 2.05481 0
M  V30 4337 N 424.215 -0.530993 -1.48385 0
M  V30 4338 C 425.492 0.0671788 -1.95485 0
M  V30 4339 C 425.872 1.51191 -1.47324 0
M  V30 4340 O 425.22 2.17507 -0.700202 0
M  V30 4341 C 425.43 -0.0511206 -3.48963 0
M  V30 4342 C 426.778 0.107632 -4.24464 0
M  V30 4343 O 427.802 0.0226248 -3.56193 0
M  V30 4344 O 426.661 0.285972 -5.45751 0
M  V30 4345 H 423.755 0.0787365 -0.823243 0
M  V30 4346 H 426.301 -0.595662 -1.58902 0
M  V30 4347 H 425.073 -1.05747 -3.7674 0
M  V30 4348 H 424.696 0.650525 -3.92242 0
M  V30 4349 N 425.693 1.55336 -0.266172 0
M  V30 4350 C 427.104 1.85236 0.233315 0
M  V30 4351 C 427.455 1.18816 1.56132 0
M  V30 4352 O 426.58 0.473307 2.11161 0
M  V30 4353 C 427.175 3.36059 0.430113 0
M  V30 4354 C 425.734 3.66116 0.873842 0
M  V30 4355 C 424.881 2.77274 -0.0380016 0
M  V30 4356 H 427.832 1.51004 -0.488214 0
M  V30 4357 H 427.853 3.58681 1.26998 0
M  V30 4358 H 427.365 3.84373 -0.536588 0
M  V30 4359 H 425.466 3.23295 1.85233 0
M  V30 4360 H 425.579 4.73699 0.717358 0
M  V30 4361 H 423.943 2.50198 0.476759 0
M  V30 4362 H 424.726 3.284 -1.00042 0
M  V30 4363 N 427.171 -0.0066808 1.57599 0
M  V30 4364 C 428.417 -0.68835 1.91398 0
M  V30 4365 C 428.772 -1.7175 0.86716 0
M  V30 4366 O 428.065 -1.91215 -0.121475 0
M  V30 4367 C 428.259 -1.37939 3.29708 0
M  V30 4368 C 428.088 -0.418689 4.47747 0
M  V30 4369 C 426.858 -0.031526 5.0529 0
M  V30 4370 C 429.056 0.312301 5.13351 0
M  V30 4371 N 427.038 0.928088 6.06844 0
M  V30 4372 C 428.409 1.12682 6.09674 0
M  V30 4373 C 430.464 0.376853 4.96472 0
M  V30 4374 C 429.167 2 6.90936 0
M  V30 4375 C 431.193 1.23723 5.78314 0
M  V30 4376 C 430.555 2.03962 6.74225 0
M  V30 4377 H 426.654 -0.225292 0.748844 0
M  V30 4378 H 429.238 0.0520973 1.9463 0
M  V30 4379 H 427.409 -2.09017 3.27363 0
M  V30 4380 H 429.141 -2.01522 3.50957 0
M  V30 4381 H 425.896 -0.398485 4.71921 0
M  V30 4382 H 426.32 1.40307 6.62301 0
M  V30 4383 H 430.962 -0.22921 4.22178 0
M  V30 4384 H 428.68 2.61676 7.64559 0
M  V30 4385 H 432.266 1.291 5.67296 0
M  V30 4386 H 431.146 2.69461 7.36451 0
M  V30 4387 N 428.649 -1.55105 -0.279332 0
M  V30 4388 C 429.895 -1.75672 -1.01327 0
M  V30 4389 C 430.228 -0.552739 -1.86168 0
M  V30 4390 O 429.503 0.449827 -1.89227 0
M  V30 4391 C 429.786 -3.05825 -1.90114 0
M  V30 4392 C 429.639 -4.36565 -1.08309 0
M  V30 4393 C 430.958 -3.31975 -2.8893 0
M  V30 4394 H 428.077 -0.639149 -0.366957 0
M  V30 4395 H 430.719 -1.87833 -0.286154 0
M  V30 4396 H 428.869 -2.95588 -2.52111 0
M  V30 4397 H 430.541 -4.58751 -0.484314 0
M  V30 4398 H 428.784 -4.32076 -0.386362 0
M  V30 4399 H 429.455 -5.23946 -1.73737 0
M  V30 4400 H 431.931 -3.41963 -2.37067 0
M  V30 4401 H 430.807 -4.2432 -3.48201 0
M  V30 4402 H 431.068 -2.51309 -3.63725 0
M  V30 4403 N 430.127 0.543554 -1.4793 0
M  V30 4404 C 431.374 1.30008 -1.55255 0
M  V30 4405 C 431.702 1.93245 -0.220612 0
M  V30 4406 O 430.957 1.79141 0.787843 0
M  V30 4407 C 431.256 2.42078 -2.62932 0
M  V30 4408 C 430.922 1.96583 -4.0579 0
M  V30 4409 C 429.584 1.83893 -4.44676 0
M  V30 4410 C 431.936 1.62034 -4.95373 0
M  V30 4411 C 429.264 1.34969 -5.70964 0
M  V30 4412 C 431.616 1.14577 -6.22137 0
M  V30 4413 C 430.28 1.00493 -6.59892 0
M  V30 4414 H 429.55 0.475735 -0.568117 0
M  V30 4415 H 432.197 0.608075 -1.81589 0
M  V30 4416 H 430.502 3.16892 -2.30406 0
M  V30 4417 H 432.199 3.00236 -2.65818 0
M  V30 4418 H 428.789 2.07407 -3.75074 0
M  V30 4419 H 432.973 1.70705 -4.66019 0
M  V30 4420 H 428.229 1.2274 -5.98953 0
M  V30 4421 H 432.403 0.869109 -6.90955 0
M  V30 4422 H 430.03 0.623624 -7.57638 0
M  V30 4423 N 431.605 1.3629 0.791371 0
M  V30 4424 C 432.854 1.29742 1.54434 0
M  V30 4425 C 433.167 -0.121729 1.95221 0
M  V30 4426 O 434.373 -0.309579 2.69729 0
M  V30 4427 C 432.829 2.27623 2.78776 0
M  V30 4428 C 432.437 3.74963 2.45166 0
M  V30 4429 C 434.181 2.30047 3.56761 0
M  V30 4430 C 432.088 4.64626 3.65891 0
M  V30 4431 H 431.018 0.482113 0.579727 0
M  V30 4432 H 433.669 1.61642 0.868565 0
M  V30 4433 H 432.051 1.88714 3.48142 0
M  V30 4434 H 433.225 4.22596 1.83709 0
M  V30 4435 H 431.54 3.75295 1.80396 0
M  V30 4436 H 434.137 2.94247 4.46456 0
M  V30 4437 H 434.48 1.30846 3.95203 0
M  V30 4438 H 435.013 2.67563 2.94372 0
M  V30 4439 H 431.752 5.64883 3.32547 0
M  V30 4440 H 431.272 4.2171 4.26521 0
M  V30 4441 H 432.951 4.80801 4.32943 0
M  V30 4442 N 433.083 -1.0153 1.20538 0
M  V30 4443 C 434.013 -2.11972 0.979295 0
M  V30 4444 C 434.994 -1.6985 -0.0921787 0
M  V30 4445 O 436.179 -1.94089 0.0655932 0
M  V30 4446 C 433.309 -3.43201 0.531984 0
M  V30 4447 C 432.263 -3.9907 1.54685 0
M  V30 4448 C 431.589 -5.26082 0.956127 0
M  V30 4449 C 432.889 -4.32313 2.93092 0
M  V30 4450 H 434.583 -2.31143 1.90298 0
M  V30 4451 H 432.129 -1.11079 0.916372 0
M  V30 4452 H 434.082 -4.1985 0.361044 0
M  V30 4453 H 432.806 -3.23792 -0.427327 0
M  V30 4454 H 431.465 -3.2453 1.70517 0
M  V30 4455 H 431.113 -5.02999 -0.0111538 0
M  V30 4456 H 430.813 -5.64426 1.63393 0
M  V30 4457 H 432.337 -6.05386 0.796284 0
M  V30 4458 H 433.751 -4.99845 2.80763 0
M  V30 4459 H 432.148 -4.81774 3.57791 0
M  V30 4460 H 433.218 -3.41025 3.44717 0
M  V30 4461 N 434.561 -1.01147 -1.20859 0
M  V30 4462 C 435.808 -0.697865 -1.90095 0
M  V30 4463 C 436.136 0.772014 -1.78522 0
M  V30 4464 O 435.391 1.57595 -1.16027 0
M  V30 4465 C 435.69 -1.0727 -3.40922 0
M  V30 4466 C 435.356 -2.53792 -3.72693 0
M  V30 4467 C 434.018 -2.93829 -3.81075 0
M  V30 4468 C 436.37 -3.48674 -3.87397 0
M  V30 4469 C 433.698 -4.27696 -4.01613 0
M  V30 4470 C 436.05 -4.82223 -4.09444 0
M  V30 4471 C 434.714 -5.21973 -4.16054 0
M  V30 4472 H 433.984 -0.255367 -0.695607 0
M  V30 4473 H 436.631 -1.27111 -1.43231 0
M  V30 4474 H 434.936 -0.417799 -3.89566 0
M  V30 4475 H 436.633 -0.807818 -3.92779 0
M  V30 4476 H 433.223 -2.21768 -3.66765 0
M  V30 4477 H 437.407 -3.18904 -3.80281 0
M  V30 4478 H 432.663 -4.58055 -4.04964 0
M  V30 4479 H 436.837 -5.55672 -4.19763 0
M  V30 4480 H 434.464 -6.25717 -4.31721 0
M  V30 4481 N 436.039 1.36541 -0.78704 0
M  V30 4482 C 437.455 1.52571 -0.46844 0
M  V30 4483 C 437.655 1.7415 1.01361 0
M  V30 4484 O 436.711 1.77163 1.79915 0
M  V30 4485 C 438.024 2.71299 -1.29682 0
M  V30 4486 C 439.572 2.85169 -1.29027 0
M  V30 4487 C 440.047 4.06898 -2.10233 0
M  V30 4488 N 441.538 4.1404 -2.07666 0
M  V30 4489 C 442.273 5.07301 -2.67271 0
M  V30 4490 N 441.769 6.06021 -3.35724 0
M  V30 4491 N 443.562 4.99898 -2.57018 0
M  V30 4492 H 435.713 1.20788 -1.74711 0
M  V30 4493 H 437.976 0.589364 -0.742532 0
M  V30 4494 H 437.682 2.61868 -2.34773 0
M  V30 4495 H 437.556 3.6539 -0.936479 0
M  V30 4496 H 439.943 2.94062 -0.247284 0
M  V30 4497 H 440.024 1.91992 -1.69035 0
M  V30 4498 H 439.668 3.98766 -3.1456 0
M  V30 4499 H 439.598 4.99218 -1.67597 0
M  V30 4500 H 442.089 3.43357 -1.57843 0
M  V30 4501 H 442.402 6.73741 -3.78541 0
M  V30 4502 H 440.747 6.06253 -3.39826 0
M  V30 4503 H 443.938 4.21724 -2.03142 0
M  V30 4504 H 444.111 5.72392 -3.03761 0
M  V30 4505 N 437.518 0.538854 1.48102 0
M  V30 4506 C 438.465 -0.219042 2.29758 0
M  V30 4507 C 439.435 -0.925562 1.37922 0
M  V30 4508 O 440.62 -0.924855 1.66886 0
M  V30 4509 C 437.76 -1.25452 3.2149 0
M  V30 4510 C 436.873 -0.555943 4.28408 0
M  V30 4511 C 436.008 -1.57512 5.0731 0
M  V30 4512 C 435.047 -0.860498 6.06021 0
M  V30 4513 N 434.184 -1.82564 6.77949 0
M  V30 4514 H 439.024 0.483449 2.94052 0
M  V30 4515 H 436.561 0.250247 1.44956 0
M  V30 4516 H 438.519 -1.86727 3.7308 0
M  V30 4517 H 437.149 -1.92528 2.591 0
M  V30 4518 H 436.201 0.170938 3.80016 0
M  V30 4519 H 437.513 0.00474616 4.988 0
M  V30 4520 H 436.667 -2.26191 5.62959 0
M  V30 4521 H 435.406 -2.16972 4.36778 0
M  V30 4522 H 434.411 -0.159686 5.49568 0
M  V30 4523 H 435.636 -0.271897 6.78555 0
M  V30 4524 H 433.582 -2.40915 6.10161 0
M  V30 4525 H 433.499 -1.31662 7.44447 0
M  V30 4526 H 434.767 -2.50414 7.38182 0
M  V30 4527 N 438.996 -1.55193 0.274407 0
M  V30 4528 C 439.959 -2.212 -0.600279 0
M  V30 4529 C 440.959 -1.18963 -1.08187 0
M  V30 4530 O 442.149 -1.43873 -0.982158 0
M  V30 4531 C 439.281 -2.87739 -1.82809 0
M  V30 4532 H 440.474 -2.9989 -0.0239682 0
M  V30 4533 H 438.027 -1.5628 0.0250192 0
M  V30 4534 H 438.762 -2.13058 -2.44493 0
M  V30 4535 H 438.547 -3.62658 -1.49069 0
M  V30 4536 H 440.037 -3.38171 -2.45011 0
M  V30 4537 N 440.474 -0.00167713 -1.576 0
M  V30 4538 C 441.72 0.683832 -1.90923 0
M  V30 4539 C 442.053 1.7333 -0.875799 0
M  V30 4540 O 441.328 1.94215 0.10525 0
M  V30 4541 C 441.611 1.32543 -3.3482 0
M  V30 4542 C 441.464 0.287387 -4.48881 0
M  V30 4543 C 442.783 2.25114 -3.78169 0
M  V30 4544 H 439.902 0.247125 -0.694333 0
M  V30 4545 H 442.544 -0.0533149 -1.89925 0
M  V30 4546 H 440.694 1.95372 -3.35801 0
M  V30 4547 H 442.366 -0.341346 -4.60035 0
M  V30 4548 H 440.609 -0.39017 -4.32042 0
M  V30 4549 H 441.28 0.775393 -5.46527 0
M  V30 4550 H 443.756 1.723 -3.7875 0
M  V30 4551 H 442.632 2.66971 -4.79602 0
M  V30 4552 H 442.893 3.13092 -3.12131 0
M  V30 4553 N 441.952 1.55251 0.271103 0
M  V30 4554 C 443.199 1.75946 1.00245 0
M  V30 4555 C 443.527 0.561611 1.86215 0
M  V30 4556 O 442.782 -0.455832 1.90317 0
M  V30 4557 C 443.081 3.01879 1.91321 0
M  V30 4558 C 442.747 4.34337 1.21086 0
M  V30 4559 C 441.409 4.70338 1.01666 0
M  V30 4560 C 443.761 5.16325 0.71119 0
M  V30 4561 C 441.089 5.8588 0.310099 0
M  V30 4562 C 443.441 6.32597 0.0182157 0
M  V30 4563 C 442.105 6.67236 -0.18768 0
M  V30 4564 H 441.375 0.643833 0.366824 0
M  V30 4565 H 444.022 1.89521 0.27458 0
M  V30 4566 H 442.327 2.83212 2.70736 0
M  V30 4567 H 444.024 3.15088 2.48033 0
M  V30 4568 H 440.614 4.06043 1.37213 0
M  V30 4569 H 444.798 4.88987 0.848844 0
M  V30 4570 H 440.054 6.1124 0.139873 0
M  V30 4571 H 444.228 6.9538 -0.376711 0
M  V30 4572 H 441.855 7.56618 -0.73715 0
M  V30 4573 N 443.43 -0.535701 1.48216 0
M  V30 4574 C 444.362 -1.65662 1.58394 0
M  V30 4575 C 445.375 -1.5591 0.468607 0
M  V30 4576 O 446.564 -1.62475 0.7392 0
M  V30 4577 C 443.664 -3.04276 1.4923 0
M  V30 4578 C 442.837 -3.39567 2.75705 0
M  V30 4579 C 441.896 -4.57436 2.60075 0
M  V30 4580 O 440.922 -4.60942 3.33948 0
M  V30 4581 N 442.124 -5.55259 1.69315 0
M  V30 4582 H 444.889 -1.5737 2.55058 0
M  V30 4583 H 442.45 -0.722845 1.44867 0
M  V30 4584 H 444.442 -3.80994 1.36477 0
M  V30 4585 H 443.012 -3.06677 0.605632 0
M  V30 4586 H 442.232 -2.52083 3.03064 0
M  V30 4587 H 443.52 -3.59929 3.59623 0
M  V30 4588 H 442.918 -5.552 1.08489 0
M  V30 4589 H 441.475 -6.31218 1.62504 0
M  V30 4590 N 444.908 -1.36708 -0.784132 0
M  V30 4591 C 446.324 -1.17237 -1.08294 0
M  V30 4592 C 446.524 -5.93947e-05 -2.015 0
M  V30 4593 O 445.58 0.663686 -2.43622 0
M  V30 4594 C 446.893 -2.48557 -1.69233 0
M  V30 4595 C 448.441 -2.54968 -1.8155 0
M  V30 4596 C 448.916 -3.86388 -2.45904 0
M  V30 4597 N 450.407 -3.87762 -2.53367 0
M  V30 4598 C 451.142 -4.86191 -3.03983 0
M  V30 4599 N 450.638 -5.95015 -3.54866 0
M  V30 4600 N 452.431 -4.73606 -3.02743 0
M  V30 4601 H 444.582 -2.11758 -0.16501 0
M  V30 4602 H 446.845 -0.93822 -0.135822 0
M  V30 4603 H 446.551 -3.34638 -1.08215 0
M  V30 4604 H 446.425 -2.64748 -2.68679 0
M  V30 4605 H 448.812 -1.69302 -2.41704 0
M  V30 4606 H 448.893 -2.42672 -0.80895 0
M  V30 4607 H 448.537 -4.72462 -1.86392 0
M  V30 4608 H 448.467 -3.95982 -3.4714 0
M  V30 4609 H 450.958 -3.09145 -2.17343 0
M  V30 4610 H 451.271 -6.66086 -3.91854 0
M  V30 4611 H 449.616 -5.98676 -3.53003 0
M  V30 4612 H 452.807 -3.87717 -2.62284 0
M  V30 4613 H 452.98 -5.50473 -3.41881 0
M  V30 4614 N 446.386 1.0089 -1.21074 0
M  V30 4615 C 447.316 2.1145 -0.990523 0
M  V30 4616 C 448.297 1.69897 0.0831699 0
M  V30 4617 O 449.482 1.94052 -0.0758853 0
M  V30 4618 C 446.612 3.42914 -0.550177 0
M  V30 4619 C 445.566 3.98244 -1.56799 0
M  V30 4620 C 444.892 5.25568 -0.984013 0
M  V30 4621 C 446.192 4.30752 -2.95381 0
M  V30 4622 H 447.886 2.3013 -1.91521 0
M  V30 4623 H 445.432 1.10592 -0.92225 0
M  V30 4624 H 447.385 4.19653 -0.383305 0
M  V30 4625 H 446.109 3.24014 0.41015 0
M  V30 4626 H 444.768 3.23621 -1.72236 0
M  V30 4627 H 444.416 5.02998 -0.0155216 0
M  V30 4628 H 444.116 5.63551 -1.66384 0
M  V30 4629 H 445.64 6.04955 -0.828378 0
M  V30 4630 H 447.054 4.98349 -2.8341 0
M  V30 4631 H 445.451 4.79869 -3.60341 0
M  V30 4632 H 446.521 3.39192 -3.46521 0
M  V30 4633 N 447.864 1.01787 1.20321 0
M  V30 4634 C 448.811 0.589197 2.23153 0
M  V30 4635 C 449.781 -0.391367 1.61423 0
M  V30 4636 O 450.966 -0.290518 1.88575 0
M  V30 4637 C 448.106 -0.0650747 3.45039 0
M  V30 4638 C 447.219 0.960207 4.21194 0
M  V30 4639 C 446.354 0.276854 5.30478 0
M  V30 4640 C 445.393 1.2888 5.98378 0
M  V30 4641 N 444.53 0.632031 6.99249 0
M  V30 4642 H 449.37 1.47071 2.59179 0
M  V30 4643 H 446.907 0.736192 1.27352 0
M  V30 4644 H 448.865 -0.461552 4.14639 0
M  V30 4645 H 447.495 -0.910233 3.09701 0
M  V30 4646 H 446.547 1.47484 3.50646 0
M  V30 4647 H 447.859 1.72977 4.67847 0
M  V30 4648 H 447.013 -0.175056 6.06447 0
M  V30 4649 H 445.752 -0.525004 4.84866 0
M  V30 4650 H 444.757 1.75109 5.21169 0
M  V30 4651 H 445.982 2.09196 6.46076 0
M  V30 4652 H 443.928 -0.149935 6.55829 0
M  V30 4653 H 443.845 1.33964 7.44036 0
M  V30 4654 H 445.113 0.203755 7.79234 0
M  V30 4655 N 449.342 -1.36122 0.79427 0
M  V30 4656 C 450.272 -2.32551 0.210328 0
M  V30 4657 C 451.253 -1.56884 -0.657386 0
M  V30 4658 O 452.438 -1.85014 -0.590207 0
M  V30 4659 C 449.568 -3.41128 -0.651819 0
M  V30 4660 C 448.522 -4.27842 0.116395 0
M  V30 4661 C 447.848 -5.2763 -0.86666 0
M  V30 4662 C 449.148 -5.05647 1.30837 0
M  V30 4663 H 450.842 -2.81636 1.01594 0
M  V30 4664 H 448.388 -1.35407 0.489981 0
M  V30 4665 H 450.341 -4.07581 -1.07031 0
M  V30 4666 H 449.065 -2.90622 -1.49019 0
M  V30 4667 H 447.724 -3.62952 0.515915 0
M  V30 4668 H 447.372 -4.73395 -1.70019 0
M  V30 4669 H 447.072 -5.86514 -0.35705 0
M  V30 4670 H 448.596 -5.96955 -1.28361 0
M  V30 4671 H 450.01 -5.65113 0.965393 0
M  V30 4672 H 448.407 -5.73967 1.75161 0
M  V30 4673 H 449.477 -4.37006 2.10128 0
M  V30 4674 N 450.82 -0.546701 -1.47814 0
M  V30 4675 C 452.066 -0.0269594 -2.03382 0
M  V30 4676 C 452.421 1.30406 -1.41464 0
M  V30 4677 O 451.714 1.8332 -0.557151 0
M  V30 4678 C 451.908 0.134869 -3.57145 0
M  V30 4679 C 451.737 -1.17891 -4.33972 0
M  V30 4680 C 450.507 -1.74336 -4.74273 0
M  V30 4681 C 452.705 -2.09361 -4.69758 0
M  V30 4682 N 450.687 -2.99829 -5.35701 0
M  V30 4683 C 452.058 -3.19431 -5.31379 0
M  V30 4684 C 454.113 -2.09484 -4.51687 0
M  V30 4685 C 452.816 -4.2971 -5.76838 0
M  V30 4686 C 454.842 -3.18767 -4.98138 0
M  V30 4687 C 454.204 -4.27557 -5.59799 0
M  V30 4688 H 450.303 -0.0517733 -0.780284 0
M  V30 4689 H 452.887 -0.731673 -1.80429 0
M  V30 4690 H 451.058 0.80869 -3.79888 0
M  V30 4691 H 452.79 0.655726 -3.99352 0
M  V30 4692 H 449.545 -1.28265 -4.559 0
M  V30 4693 H 449.969 -3.63765 -5.70968 0
M  V30 4694 H 454.611 -1.26663 -4.03381 0
M  V30 4695 H 452.329 -5.13297 -6.24141 0
M  V30 4696 H 455.915 -3.19937 -4.85934 0
M  V30 4697 H 454.795 -5.10725 -5.95088 0
M  V30 4698 N 452.299 1.55045 -0.282633 0
M  V30 4699 C 453.545 2.00056 0.332481 0
M  V30 4700 C 453.878 1.1708 1.54939 0
M  V30 4701 O 453.153 0.2427 1.9298 0
M  V30 4702 C 453.436 3.53086 0.70725 0
M  V30 4703 C 453.289 4.46813 -0.517521 0
M  V30 4704 C 454.608 4.12245 1.54084 0
M  V30 4705 H 451.727 0.727268 0.119373 0
M  V30 4706 H 454.369 1.85932 -0.391076 0
M  V30 4707 H 452.519 3.65253 1.32372 0
M  V30 4708 H 454.191 4.46579 -1.15607 0
M  V30 4709 H 452.434 4.18163 -1.1542 0
M  V30 4710 H 453.105 5.51595 -0.211426 0
M  V30 4711 H 455.581 4.03401 1.02013 0
M  V30 4712 H 454.457 5.19515 1.77186 0
M  V30 4713 H 454.718 3.62951 2.52427 0
M  V30 4714 N 453.777 0.010035 1.57597 0
M  V30 4715 C 455.017 -0.677084 1.9286 0
M  V30 4716 C 455.381 -1.70377 0.885192 0
M  V30 4717 O 456.582 -2.44199 1.12339 0
M  V30 4718 C 454.853 -1.29452 3.33132 0
M  V30 4719 S 456.412 -2.00537 3.90295 0
M  V30 4720 H 453.23 -0.223409 0.674989 0
M  V30 4721 H 455.832 0.0691289 1.95378 0
M  V30 4722 H 454.536 -0.534593 4.06903 0
M  V30 4723 H 454.067 -2.07845 3.34012 0
M  V30 4724 H 456.082 -3.28168 3.72183 0
M  V30 4725 N 455.255 -1.55392 -0.262866 0
M  V30 4726 C 456.495 -1.78231 -1.00064 0
M  V30 4727 C 456.859 -0.576966 -1.83126 0
M  V30 4728 O 458.06 -0.683809 -2.59957 0
M  V30 4729 C 456.331 -3.05701 -1.85153 0
M  V30 4730 S 457.89 -3.49699 -2.65058 0
M  V30 4731 H 454.708 -0.626138 -0.336856 0
M  V30 4732 H 457.31 -1.93626 -0.27005 0
M  V30 4733 H 456.014 -3.91511 -1.23074 0
M  V30 4734 H 455.545 -2.93 -2.62515 0
M  V30 4735 H 457.56 -3.09772 -3.87629 0
M  V30 4736 N 456.733 0.527833 -1.48498 0
M  V30 4737 C 457.663 1.64136 -1.66077 0
M  V30 4738 C 458.644 1.62286 -0.509625 0
M  V30 4739 O 459.829 1.79449 -0.742413 0
M  V30 4740 C 456.959 3.02717 -1.70234 0
M  V30 4741 C 455.913 3.19426 -2.8487 0
M  V30 4742 C 455.239 4.5909 -2.74118 0
M  V30 4743 C 456.539 3.01993 -4.26142 0
M  V30 4744 H 458.233 1.4968 -2.593 0
M  V30 4745 H 455.779 0.718654 -1.24785 0
M  V30 4746 H 457.732 3.80491 -1.8112 0
M  V30 4747 H 456.456 3.18201 -0.735911 0
M  V30 4748 H 455.115 2.4407 -2.73542 0
M  V30 4749 H 454.763 4.71413 -1.7544 0
M  V30 4750 H 454.463 4.71214 -3.51042 0
M  V30 4751 H 455.987 5.3896 -2.86974 0
M  V30 4752 H 457.401 3.69558 -4.38292 0
M  V30 4753 H 455.798 3.2561 -5.04082 0
M  V30 4754 H 456.868 1.98396 -4.42456 0
M  V30 4755 N 458.211 1.37122 0.776871 0
M  V30 4756 C 459.451 1.33441 1.54831 0
M  V30 4757 C 459.815 -0.0818963 1.91825 0
M  V30 4758 O 461.016 -0.24338 2.67696 0
M  V30 4759 C 459.287 2.24267 2.78279 0
M  V30 4760 S 460.846 2.38389 3.68397 0
M  V30 4761 H 457.664 0.473791 0.530135 0
M  V30 4762 H 460.266 1.7282 0.913968 0
M  V30 4763 H 458.97 3.261 2.49173 0
M  V30 4764 H 458.501 1.85953 3.46677 0
M  V30 4765 H 460.516 1.59068 4.70013 0
M  V30 4766 N 459.689 -1.00246 1.21608 0
M  V30 4767 C 460.619 -2.10921 1.00172 0
M  V30 4768 C 461.6 -1.69938 -0.0741587 0
M  V30 4769 O 462.785 -1.94009 0.0861753 0
M  V30 4770 C 459.915 -3.42618 0.568355 0
M  V30 4771 C 458.869 -3.97407 1.58909 0
M  V30 4772 C 458.195 -5.25038 1.01187 0
M  V30 4773 C 459.495 -4.2918 2.97661 0
M  V30 4774 H 461.189 -2.29112 1.92739 0
M  V30 4775 H 458.735 -1.10101 0.928102 0
M  V30 4776 H 460.688 -4.19444 0.405555 0
M  V30 4777 H 459.412 -3.24227 -0.392961 0
M  V30 4778 H 458.071 -3.22703 1.73949 0
M  V30 4779 H 457.719 -5.02982 0.0421965 0
M  V30 4780 H 457.419 -5.62661 1.6937 0
M  V30 4781 H 458.943 -6.04507 0.860448 0
M  V30 4782 H 460.357 -4.96839 2.86049 0
M  V30 4783 H 458.754 -4.77952 3.6288 0
M  V30 4784 H 459.824 -3.3735 3.48315 0
M  V30 4785 N 461.167 -1.02423 -1.1978 0
M  V30 4786 C 462.415 -0.716569 -1.8897 0
M  V30 4787 C 462.736 0.756769 -1.79716 0
M  V30 4788 O 462.006 1.5449 -1.20456 0
M  V30 4789 H 460.586 -0.262062 -0.699523 0
M  V30 4790 H 463.248 -1.29747 -1.45436 0
M  V30 4791 H 462.344 -1.00675 -2.95417 0
M  V30 4792 N 462.645 1.35699 -0.801477 0
M  V30 4793 C 464.056 1.81415 -0.441073 0
M  V30 4794 C 464.407 1.66595 1.03636 0
M  V30 4795 O 463.532 1.19369 1.80499 0
M  V30 4796 C 464.127 3.29369 -0.793819 0
M  V30 4797 C 462.686 3.73248 -0.486083 0
M  V30 4798 C 461.833 2.57775 -1.02213 0
M  V30 4799 H 464.784 1.23749 -0.993572 0
M  V30 4800 H 464.805 3.80395 -0.0894158 0
M  V30 4801 H 464.317 3.40123 -1.86917 0
M  V30 4802 H 462.418 3.68046 0.580735 0
M  V30 4803 H 462.531 4.68222 -1.01513 0
M  V30 4804 H 460.895 2.50788 -0.444712 0
M  V30 4805 H 461.678 2.71309 -2.10348 0
M  V30 4806 N 464.123 0.554532 1.47522 0
M  V30 4807 C 465.086 -0.184174 2.28459 0
M  V30 4808 C 466.086 -0.845195 1.36796 0
M  V30 4809 O 467.276 -0.701467 1.59452 0
M  V30 4810 C 464.408 -1.26903 3.16399 0
M  V30 4811 H 465.601 0.526751 2.95238 0
M  V30 4812 H 463.154 0.311375 1.53167 0
M  V30 4813 H 463.889 -2.01244 2.54306 0
M  V30 4814 H 463.674 -0.799883 3.83854 0
M  V30 4815 H 465.164 -1.78794 3.77389 0
M  V30 4816 N 465.601 -1.54893 0.290851 0
M  V30 4817 C 466.551 -2.19838 -0.604599 0
M  V30 4818 C 467.535 -1.16805 -1.10659 0
M  V30 4819 O 468.727 -1.42562 -1.04905 0
M  V30 4820 C 465.856 -2.93497 -1.78086 0
M  V30 4821 C 464.942 -4.03835 -1.29531 0
M  V30 4822 N 465.333 -5.03047 -0.527024 0
M  V30 4823 C 463.631 -4.17192 -1.57693 0
M  V30 4824 C 464.332 -5.81074 -0.269728 0
M  V30 4825 N 463.308 -5.36966 -0.846651 0
M  V30 4826 H 467.11 -2.93898 -0.00995032 0
M  V30 4827 H 464.624 -1.62121 0.0951353 0
M  V30 4828 H 466.621 -3.38484 -2.43381 0
M  V30 4829 H 465.281 -2.2095 -2.37931 0
M  V30 4830 H 466.292 -5.17611 -0.172872 0
M  V30 4831 H 462.969 -3.55845 -2.18359 0
M  V30 4832 H 464.359 -6.71005 0.346643 0
M  V30 4833 N 467.08 -0.0183926 -1.57589 0
M  V30 4834 C 468.328 0.661253 -1.90976 0
M  V30 4835 C 468.649 1.73281 -0.894353 0
M  V30 4836 O 467.919 1.9579 0.0656788 0
M  V30 4837 H 466.499 0.247233 -0.704901 0
M  V30 4838 H 469.161 -0.0636639 -1.94796 0
M  V30 4839 H 468.257 1.12083 -2.9128 0
M  V30 4840 N 468.558 1.5553 0.254621 0
M  V30 4841 C 469.835 1.6774 1.00611 0
M  V30 4842 C 470.215 0.555993 2.03647 0
M  V30 4843 O 469.563 -0.441583 2.24193 0
M  V30 4844 C 469.773 3.07725 1.6464 0
M  V30 4845 C 471.121 3.66074 2.15116 0
M  V30 4846 O 472.145 3.10476 1.74595 0
M  V30 4847 O 471.004 4.63526 2.89493 0
M  V30 4848 H 468.098 0.681958 0.467828 0
M  V30 4849 H 470.644 1.67863 0.24902 0
M  V30 4850 H 469.416 3.80792 0.900734 0
M  V30 4851 H 469.039 3.1158 2.46989 0
M  V30 4852 N 470.036 -0.519951 1.48776 0
M  V30 4853 C 471.261 -1.30447 1.6124 0
M  V30 4854 C 471.686 -1.86055 0.276591 0
M  V30 4855 O 471.044 -1.64915 -0.753183 0
M  V30 4856 C 471.092 -2.42406 2.66967 0
M  V30 4857 O 470.196 -3.45728 2.24824 0
M  V30 4858 H 469.537 -0.385924 0.540332 0
M  V30 4859 H 472.067 -0.624572 1.94834 0
M  V30 4860 H 472.077 -2.88447 2.88552 0
M  V30 4861 H 470.752 -2.01294 3.63941 0
M  V30 4862 H 469.329 -3.05737 2.13494 0
M  V30 4863 N 471.514 -1.37532 -0.769588 0
M  V30 4864 C 472.446 -1.29347 -1.89214 0
M  V30 4865 C 473.459 -0.208842 -1.61455 0
M  V30 4866 O 474.648 -0.465158 -1.72333 0
M  V30 4867 C 471.748 -0.977649 -3.24492 0
M  V30 4868 C 470.921 -2.16817 -3.7988 0
M  V30 4869 C 469.98 -1.82229 -4.93639 0
M  V30 4870 O 469.006 -2.54548 -5.09111 0
M  V30 4871 N 470.208 -0.767696 -5.75401 0
M  V30 4872 H 472.973 -2.26073 -1.96751 0
M  V30 4873 H 470.534 -1.31185 -0.948795 0
M  V30 4874 H 472.526 -0.727065 -3.98115 0
M  V30 4875 H 471.096 -0.0988777 -3.12444 0
M  V30 4876 H 470.316 -2.58038 -2.9801 0
M  V30 4877 H 471.604 -2.96308 -4.13617 0
M  V30 4878 H 471.002 -0.167626 -5.65452 0
M  V30 4879 H 469.559 -0.576973 -6.49241 0
M  V30 4880 N 472.992 0.995999 -1.22138 0
M  V30 4881 C 474.22 1.77066 -1.07029 0
M  V30 4882 C 474.635 1.8495 0.379357 0
M  V30 4883 O 473.992 1.3174 1.26297 0
M  V30 4884 C 474.043 3.20533 -1.67155 0
M  V30 4885 O 473.764 3.13082 -3.06449 0
M  V30 4886 C 475.265 4.14461 -1.5728 0
M  V30 4887 H 472.485 0.556179 -0.375374 0
M  V30 4888 H 475.029 1.25238 -1.61666 0
M  V30 4889 H 473.184 3.6944 -1.16589 0
M  V30 4890 H 473.598 4.03283 -3.35355 0
M  V30 4891 H 475.072 5.1289 -2.04078 0
M  V30 4892 H 475.549 4.36005 -0.528795 0
M  V30 4893 H 476.155 3.71449 -2.07136 0
M  V30 4894 N 474.47 1.03057 1.19235 0
M  V30 4895 C 475.881 0.757449 1.70645 0
M  V30 4896 C 476.232 -0.722735 1.82403 0
M  V30 4897 O 475.357 -1.56325 1.49638 0
M  V30 4898 C 475.952 1.36833 3.09939 0
M  V30 4899 C 474.511 1.14375 3.58602 0
M  V30 4900 C 473.658 1.46533 2.35422 0
M  V30 4901 H 476.609 1.19828 1.04052 0
M  V30 4902 H 476.63 0.766184 3.72706 0
M  V30 4903 H 476.142 2.44562 3.01349 0
M  V30 4904 H 474.243 0.0847542 3.72504 0
M  V30 4905 H 474.356 1.83366 4.42622 0
M  V30 4906 H 472.72 0.884712 2.38841 0
M  V30 4907 H 473.503 2.55349 2.2946 0
M  V30 4908 N 475.948 -1.35272 0.808662 0
M  V30 4909 C 476.878 -2.32315 0.234981 0
M  V30 4910 C 477.859 -1.57572 -0.64071 0
M  V30 4911 O 479.044 -1.8563 -0.570551 0
M  V30 4912 C 476.174 -3.41801 -0.615601 0
M  V30 4913 C 475.128 -4.27694 0.161767 0
M  V30 4914 C 474.454 -5.28519 -0.810649 0
M  V30 4915 C 475.754 -5.04231 1.36193 0
M  V30 4916 H 477.448 -2.80543 1.04575 0
M  V30 4917 H 474.994 -1.3488 0.504315 0
M  V30 4918 H 476.947 -4.08693 -1.02702 0
M  V30 4919 H 475.671 -2.92186 -1.45928 0
M  V30 4920 H 474.33 -3.62384 0.554382 0
M  V30 4921 H 473.978 -4.75171 -1.64988 0
M  V30 4922 H 473.678 -5.8686 -0.294822 0
M  V30 4923 H 475.202 -5.98283 -1.22023 0
M  V30 4924 H 476.616 -5.64058 1.02528 0
M  V30 4925 H 475.013 -5.72077 1.81239 0
M  V30 4926 H 476.083 -4.34753 2.14751 0
M  V30 4927 N 477.426 -0.562348 -1.47226 0
M  V30 4928 C 478.651 -0.0432632 -2.07355 0
M  V30 4929 C 479.076 1.24332 -1.41149 0
M  V30 4930 O 478.434 1.74603 -0.488226 0
M  V30 4931 C 478.482 0.130288 -3.60365 0
M  V30 4932 O 477.586 1.19166 -3.94808 0
M  V30 4933 H 476.927 -0.0536334 -0.66183 0
M  V30 4934 H 479.457 -0.779495 -1.89169 0
M  V30 4935 H 479.467 0.342881 -4.06557 0
M  V30 4936 H 478.142 -0.809389 -4.07948 0
M  V30 4937 H 476.719 0.959153 -3.60354 0
M  V30 4938 N 478.904 1.54736 -0.299062 0
M  V30 4939 C 479.836 2.20891 0.61153 0
M  V30 4940 C 480.849 1.20104 1.09904 0
M  V30 4941 O 482.038 1.46707 1.01683 0
M  V30 4942 C 479.138 2.84018 1.84897 0
M  V30 4943 C 478.311 4.10719 1.50428 0
M  V30 4944 C 477.37 4.57667 2.59667 0
M  V30 4945 O 476.396 5.2291 2.24842 0
M  V30 4946 N 477.598 4.29821 3.90172 0
M  V30 4947 H 480.363 2.99666 0.0452001 0
M  V30 4948 H 477.924 1.61446 -0.121178 0
M  V30 4949 H 479.916 3.1236 2.5732 0
M  V30 4950 H 478.486 2.09095 2.32375 0
M  V30 4951 H 477.706 3.89408 0.612781 0
M  V30 4952 H 478.994 4.93223 1.24934 0
M  V30 4953 H 478.392 3.77549 4.21276 0
M  V30 4954 H 476.949 4.62877 4.58899 0
M  V30 4955 N 480.382 0.0267497 1.57577 0
M  V30 4956 C 481.312 -0.954308 2.13108 0
M  V30 4957 C 482.293 -1.34088 1.04663 0
M  V30 4958 O 483.478 -1.41992 1.32484 0
M  V30 4959 C 480.608 -2.23744 2.65624 0
M  V30 4960 C 479.562 -1.99168 3.78835 0
M  V30 4961 C 478.888 -3.33726 4.17769 0
M  V30 4962 C 480.188 -1.33277 5.0501 0
M  V30 4963 H 481.882 -0.491848 2.95332 0
M  V30 4964 H 479.428 -0.23514 1.42067 0
M  V30 4965 H 481.381 -2.92754 3.03106 0
M  V30 4966 H 480.105 -2.72151 1.80558 0
M  V30 4967 H 478.764 -1.32577 3.41788 0
M  V30 4968 H 478.412 -3.79888 3.29688 0
M  V30 4969 H 478.112 -3.18089 4.94058 0
M  V30 4970 H 479.636 -4.04008 4.57832 0
M  V30 4971 H 481.05 -1.92283 5.40093 0
M  V30 4972 H 479.447 -1.28045 5.8628 0
M  V30 4973 H 480.517 -0.305411 4.83937 0
M  V30 4974 N 481.861 -1.55662 -0.24637 0
M  V30 4975 C 482.824 -1.89558 -1.28842 0
M  V30 4976 C 483.824 -0.772082 -1.41052 0
M  V30 4977 O 485.014 -1.04007 -1.39743 0
M  V30 4978 C 482.146 -2.12449 -2.66605 0
M  V30 4979 H 483.339 -2.82735 -1.00004 0
M  V30 4980 H 480.892 -1.48562 -0.485684 0
M  V30 4981 H 481.627 -1.21742 -3.00582 0
M  V30 4982 H 481.412 -2.94273 -2.59125 0
M  V30 4983 H 482.902 -2.39854 -3.41847 0
M  V30 4984 N 483.339 0.512053 -1.4905 0
M  V30 4985 C 484.564 1.2959 -1.6193 0
M  V30 4986 C 484.989 1.85906 -0.286454 0
M  V30 4987 O 484.347 1.65312 0.744426 0
M  V30 4988 C 484.395 2.40987 -2.68249 0
M  V30 4989 O 483.499 3.44531 -2.26654 0
M  V30 4990 H 482.84 0.383053 -0.542371 0
M  V30 4991 H 485.37 0.614231 -1.95162 0
M  V30 4992 H 485.38 2.86913 -2.90078 0
M  V30 4993 H 484.055 1.99361 -3.65004 0
M  V30 4994 H 482.632 3.046 -2.15112 0
M  V30 4995 N 484.817 1.37938 0.762283 0
M  V30 4996 C 486.065 1.33404 1.51815 0
M  V30 4997 C 486.386 -0.0780975 1.94844 0
M  V30 4998 O 485.656 -1.02405 1.67003 0
M  V30 4999 H 484.236 0.490839 0.563104 0
M  V30 5000 H 486.898 1.72527 0.906669 0
M  V30 5001 H 485.994 1.97926 2.41313 0
M  V30 5002 N 486.295 -0.989507 1.22664 0
M  V30 5003 C 487.711 -1.25395 0.987331 0
M  V30 5004 C 487.911 -1.9899 -0.317056 0
M  V30 5005 O 486.967 -2.30141 -1.03882 0
M  V30 5006 C 488.28 -2.06242 2.18826 0
M  V30 5007 C 489.828 -2.19413 2.23219 0
M  V30 5008 C 490.303 -3.03648 3.42873 0
M  V30 5009 N 491.794 -3.11234 3.43056 0
M  V30 5010 C 492.529 -3.7671 4.32293 0
M  V30 5011 N 492.025 -4.44085 5.31752 0
M  V30 5012 N 493.818 -3.73505 4.2006 0
M  V30 5013 H 485.969 -0.496212 2.06522 0
M  V30 5014 H 488.232 -0.281784 0.905153 0
M  V30 5015 H 487.938 -1.59531 3.13437 0
M  V30 5016 H 487.812 -3.06996 2.19165 0
M  V30 5017 H 490.199 -2.65336 1.29154 0
M  V30 5018 H 490.28 -1.18078 2.26917 0
M  V30 5019 H 489.924 -2.58424 4.37241 0
M  V30 5020 H 489.854 -4.05132 3.36416 0
M  V30 5021 H 492.345 -2.63287 2.71088 0
M  V30 5022 H 492.658 -4.91797 5.96117 0
M  V30 5023 H 491.003 -4.42822 5.35662 0
M  V30 5024 H 494.194 -3.20033 3.41609 0
M  V30 5025 H 494.367 -4.24253 4.8981 0
M  V30 5026 N 487.773 -1.03688 -1.18687 0
M  V30 5027 C 489.189 -0.755413 -1.4059 0
M  V30 5028 C 489.389 0.656659 -1.905 0
M  V30 5029 O 488.445 1.42144 -2.08689 0
M  V30 5030 C 489.758 -1.7983 -2.41001 0
M  V30 5031 C 491.306 -1.81877 -2.54735 0
M  V30 5032 C 491.781 -2.85148 -3.58406 0
M  V30 5033 N 493.272 -2.84015 -3.6591 0
M  V30 5034 C 494.007 -3.60573 -4.45841 0
M  V30 5035 N 493.503 -4.46871 -5.29413 0
M  V30 5036 N 495.296 -3.49079 -4.40568 0
M  V30 5037 H 487.447 -1.94818 -0.846148 0
M  V30 5038 H 489.71 -0.842727 -0.434184 0
M  V30 5039 H 489.416 -2.81097 -2.1137 0
M  V30 5040 H 489.29 -1.62727 -3.40294 0
M  V30 5041 H 491.677 -0.812836 -2.83685 0
M  V30 5042 H 491.758 -2.03057 -1.55568 0
M  V30 5043 H 491.402 -3.85918 -3.30197 0
M  V30 5044 H 491.332 -2.61224 -4.57241 0
M  V30 5045 H 493.823 -2.21431 -3.0623 0
M  V30 5046 H 494.136 -5.02007 -5.87545 0
M  V30 5047 H 492.481 -4.5094 -5.28846 0
M  V30 5048 H 495.672 -2.81066 -3.74325 0
M  V30 5049 H 495.845 -4.08994 -5.02621 0
M  V30 5050 N 489.251 1.34841 -0.815825 0
M  V30 5051 C 490.528 1.92908 -0.323416 0
M  V30 5052 C 490.908 1.74479 1.18828 0
M  V30 5053 O 490.256 1.11928 1.99209 0
M  V30 5054 C 490.466 3.40957 -0.744952 0
M  V30 5055 C 491.814 4.18107 -0.739716 0
M  V30 5056 O 492.838 3.49511 -0.68708 0
M  V30 5057 O 491.697 5.40517 -0.806456 0
M  V30 5058 H 488.791 0.822436 -0.0867646 0
M  V30 5059 H 491.337 1.4386 -0.90014 0
M  V30 5060 H 490.109 3.4814 -1.78646 0
M  V30 5061 H 489.732 3.97341 -0.143535 0
M  V30 5062 N 490.729 0.570148 1.46925 0
M  V30 5063 C 492.14 0.1402 1.86173 0
M  V30 5064 C 492.491 -1.29347 1.47526 0
M  V30 5065 O 491.616 -1.97508 0.884292 0
M  V30 5066 C 492.211 0.247661 3.37894 0
M  V30 5067 C 490.77 -0.127332 3.76185 0
M  V30 5068 C 489.917 0.589349 2.70965 0
M  V30 5069 H 492.868 0.779117 1.38259 0
M  V30 5070 H 492.889 -0.530341 3.76786 0
M  V30 5071 H 492.401 1.29121 3.65991 0
M  V30 5072 H 490.502 -1.17149 3.53704 0
M  V30 5073 H 490.615 0.240238 4.78497 0
M  V30 5074 H 488.979 0.0309824 2.54681 0
M  V30 5075 H 489.762 1.6343 3.01903 0
M  V30 5076 N 492.207 -1.54576 0.307264 0
M  V30 5077 C 493.623 -1.59534 -0.0459251 0
M  V30 5078 C 493.823 -1.32414 -1.51884 0
M  V30 5079 O 492.879 -1.1006 -2.27251 0
M  V30 5080 C 494.192 -2.98566 0.357649 0
M  V30 5081 C 495.74 -3.11491 0.306937 0
M  V30 5082 C 496.215 -4.52842 0.685427 0
M  V30 5083 N 497.706 -4.58782 0.638203 0
M  V30 5084 C 498.441 -5.66238 0.903458 0
M  V30 5085 N 497.937 -6.81703 1.23501 0
M  V30 5086 N 499.73 -5.55937 0.830102 0
M  V30 5087 H 491.881 -1.70464 1.26712 0
M  V30 5088 H 494.144 -0.79647 0.514139 0
M  V30 5089 H 493.85 -3.23356 1.38325 0
M  V30 5090 H 493.724 -3.76117 -0.285565 0
M  V30 5091 H 496.111 -2.86446 -0.709424 0
M  V30 5092 H 496.192 -2.36081 0.984861 0
M  V30 5093 H 495.836 -4.78618 1.69963 0
M  V30 5094 H 495.766 -5.26598 -0.0146346 0
M  V30 5095 H 498.257 -3.75849 0.393138 0
M  V30 5096 H 498.57 -7.59582 1.42322 0
M  V30 5097 H 496.915 -6.8324 1.27311 0
M  V30 5098 H 500.106 -4.64608 0.570693 0
M  V30 5099 H 500.279 -6.39597 1.04019 0
M  V30 5100 N 493.685 -0.035106 -1.57561 0
M  V30 5101 C 494.648 0.929819 -2.09492 0
M  V30 5102 C 495.648 1.25026 -1.01119 0
M  V30 5103 O 496.838 1.18961 -1.27255 0
M  V30 5104 C 493.97 2.24457 -2.56577 0
M  V30 5105 H 495.163 0.479935 -2.96035 0
M  V30 5106 H 492.716 0.213033 -1.54841 0
M  V30 5107 H 493.451 2.74061 -1.73382 0
M  V30 5108 H 493.236 2.02508 -3.35757 0
M  V30 5109 H 494.726 2.93607 -2.96959 0
M  V30 5110 N 495.163 1.55791 0.238111 0
M  V30 5111 C 496.574 1.68383 0.806472 0
M  V30 5112 C 496.925 0.634157 1.85669 0
M  V30 5113 O 496.05 -0.217913 2.153 0
M  V30 5114 C 496.645 3.05268 1.46959 0
M  V30 5115 C 495.204 3.1977 1.98555 0
M  V30 5116 C 494.351 2.64279 0.839763 0
M  V30 5117 H 497.302 1.58694 0.0137535 0
M  V30 5118 H 497.323 3.00203 2.33792 0
M  V30 5119 H 496.835 3.81643 0.704993 0
M  V30 5120 H 494.936 2.48234 2.77868 0
M  V30 5121 H 495.049 4.26788 2.17689 0
M  V30 5122 H 493.413 2.22329 1.24265 0
M  V30 5123 H 494.196 3.43187 0.0881032 0
M  V30 5124 N 496.642 -0.504142 1.49319 0
M  V30 5125 C 497.867 -1.28729 1.62615 0
M  V30 5126 C 498.292 -1.85752 0.296309 0
M  V30 5127 O 497.65 -1.65704 -0.735649 0
M  V30 5128 C 497.698 -2.39561 2.69524 0
M  V30 5129 O 496.802 -3.43324 2.28478 0
M  V30 5130 H 496.143 -0.380172 0.544395 0
M  V30 5131 H 498.673 -0.603872 1.95485 0
M  V30 5132 H 498.683 -2.8537 2.91595 0
M  V30 5133 H 497.358 -1.97423 3.66056 0
M  V30 5134 H 495.935 -3.03455 2.16725 0
M  V30 5135 N 498.12 -1.38341 -0.754957 0
M  V30 5136 C 499.083 -1.35262 -1.85032 0
M  V30 5137 C 500.083 -0.253393 -1.58791 0
M  V30 5138 O 501.273 -0.510205 -1.66561 0
M  V30 5139 C 498.405 -1.10544 -3.22479 0
M  V30 5140 H 499.598 -2.32712 -1.8917 0
M  V30 5141 H 497.151 -1.23614 -0.956515 0
M  V30 5142 H 497.886 -0.136952 -3.24011 0
M  V30 5143 H 497.671 -1.90127 -3.4292 0
M  V30 5144 H 499.161 -1.11082 -4.02555 0
M  V30 5145 N 499.598 0.982988 -1.23187 0
M  V30 5146 C 501.009 1.53847 -1.05773 0
M  V30 5147 C 501.36 1.92568 0.375744 0
M  V30 5148 O 500.485 1.75783 1.26211 0
M  V30 5149 C 501.08 2.79567 -1.91384 0
M  V30 5150 C 499.639 3.31524 -1.78238 0
M  V30 5151 C 498.786 2.04534 -1.87246 0
M  V30 5152 H 501.737 0.802962 -1.36888 0
M  V30 5153 H 501.758 3.52317 -1.43711 0
M  V30 5154 H 501.27 2.51353 -2.95708 0
M  V30 5155 H 499.371 3.64623 -0.766875 0
M  V30 5156 H 499.484 4.01457 -2.61475 0
M  V30 5157 H 497.848 2.1855 -1.30797 0
M  V30 5158 H 498.631 1.78706 -2.9312 0
M  V30 5159 N 501.076 1.04316 1.18135 0
M  V30 5160 C 502.322 0.749128 1.88457 0
M  V30 5161 C 502.655 -0.72149 1.803 0
M  V30 5162 O 501.93 -1.52676 1.205 0
M  V30 5163 C 502.213 1.21905 3.38838 0
M  V30 5164 C 502.066 2.75195 3.55792 0
M  V30 5165 C 503.385 0.811085 4.32561 0
M  V30 5166 H 500.504 0.273611 0.684329 0
M  V30 5167 H 503.146 1.29561 1.38975 0
M  V30 5168 H 501.296 0.754137 3.8111 0
M  V30 5169 H 502.968 3.29743 3.22595 0
M  V30 5170 H 501.211 3.14899 2.98364 0
M  V30 5171 H 501.882 3.03135 4.61317 0
M  V30 5172 H 504.358 1.21118 3.98082 0
M  V30 5173 H 503.234 1.16761 5.36338 0
M  V30 5174 H 503.495 -0.285596 4.41177 0
M  V30 5175 N 502.554 -1.34406 0.822964 0
M  V30 5176 C 503.802 -1.97892 0.410245 0
M  V30 5177 C 504.123 -1.65567 -1.03017 0
M  V30 5178 O 503.393 -0.94642 -1.71522 0
M  V30 5179 H 501.973 -0.732049 0.148707 0
M  V30 5180 H 504.635 -1.64043 1.05242 0
M  V30 5181 H 503.731 -3.07579 0.529284 0
M  V30 5182 N 504.032 -0.577932 -1.46621 0
M  V30 5183 C 504.979 0.158048 -2.30258 0
M  V30 5184 C 505.949 0.888669 -1.40328 0
M  V30 5185 O 507.134 0.880283 -1.6928 0
M  V30 5186 C 504.274 1.16884 -3.24703 0
M  V30 5187 C 503.387 0.442163 -4.29731 0
M  V30 5188 C 502.522 1.44007 -5.11308 0
M  V30 5189 C 501.561 0.69952 -6.0809 0
M  V30 5190 N 500.698 1.64525 -6.82551 0
M  V30 5191 H 505.538 -0.561242 -2.92667 0
M  V30 5192 H 503.075 -0.288591 -1.44241 0
M  V30 5193 H 505.033 1.7677 -3.779 0
M  V30 5194 H 503.663 1.85591 -2.64113 0
M  V30 5195 H 502.715 -0.271632 -3.79429 0
M  V30 5196 H 504.027 -0.136992 -4.98612 0
M  V30 5197 H 503.181 2.11186 -5.68758 0
M  V30 5198 H 501.92 2.05315 -4.42377 0
M  V30 5199 H 500.925 0.0139217 -5.49798 0
M  V30 5200 H 502.15 0.091894 -6.79038 0
M  V30 5201 H 500.096 2.24653 -6.16334 0
M  V30 5202 H 500.013 1.11878 -7.47676 0
M  V30 5203 H 501.281 2.30754 -7.44562 0
M  V30 5204 N 505.51 1.54411 -0.315457 0
M  V30 5205 C 506.42 2.27737 0.56329 0
M  V30 5206 C 507.436 1.31787 1.13614 0
M  V30 5207 O 508.612 1.64791 1.15784 0
M  V30 5208 C 505.677 3.01478 1.71207 0
M  V30 5209 C 504.738 4.12997 1.17185 0
M  V30 5210 C 503.971 4.83212 2.26588 0
M  V30 5211 O 504.194 4.52884 3.46775 0
M  V30 5212 O 503.128 5.70299 1.92463 0
M  V30 5213 H 506.954 3.03683 -0.0319614 0
M  V30 5214 H 504.539 1.49178 -0.0814188 0
M  V30 5215 H 506.421 3.47683 2.38106 0
M  V30 5216 H 505.096 2.28414 2.29366 0
M  V30 5217 H 504.003 3.71159 0.468174 0
M  V30 5218 H 505.336 4.8808 0.635501 0
M  V30 5219 N 506.988 0.0434614 1.5754 0
M  V30 5220 C 508.236 -0.630786 1.92004 0
M  V30 5221 C 508.557 -1.71836 0.921807 0
M  V30 5222 O 507.827 -1.9587 -0.034522 0
M  V30 5223 H 506.407 -0.235988 0.708745 0
M  V30 5224 H 509.069 0.0946462 1.9467 0
M  V30 5225 H 508.165 -1.07434 2.93026 0
M  V30 5226 N 508.466 -1.55915 -0.229846 0
M  V30 5227 C 509.691 -1.8296 -0.976743 0
M  V30 5228 C 510.116 -0.622735 -1.77493 0
M  V30 5229 O 509.474 0.428431 -1.76165 0
M  V30 5230 C 509.522 -3.07916 -1.8767 0
M  V30 5231 O 508.626 -2.86028 -2.97088 0
M  V30 5232 H 507.967 -0.603453 -0.277021 0
M  V30 5233 H 510.497 -2.0312 -0.245669 0
M  V30 5234 H 510.507 -3.37802 -2.2881 0
M  V30 5235 H 509.182 -3.95389 -1.28996 0
M  V30 5236 H 507.759 -2.67355 -2.59954 0
M  V30 5237 N 509.944 0.496216 -1.49584 0
M  V30 5238 C 511.184 1.26015 -1.60933 0
M  V30 5239 C 511.548 1.89772 -0.291646 0
M  V30 5240 O 512.749 2.67334 -0.280357 0
M  V30 5241 C 511.02 2.29506 -2.73974 0
M  V30 5242 S 512.579 3.15175 -3.05303 0
M  V30 5243 H 509.397 0.428194 -0.567601 0
M  V30 5244 H 511.999 0.561484 -1.87263 0
M  V30 5245 H 510.703 1.81205 -3.68229 0
M  V30 5246 H 510.234 3.04036 -2.49651 0
M  V30 5247 H 512.249 4.30244 -2.47193 0
M  V30 5248 N 511.423 1.38739 0.74761 0
M  V30 5249 C 512.669 1.35475 1.50912 0
M  V30 5250 C 513.002 -0.0533093 1.94127 0
M  V30 5251 O 512.277 -1.01572 1.65871 0
M  V30 5252 C 512.56 2.31582 2.75757 0
M  V30 5253 C 512.413 3.81274 2.38642 0
M  V30 5254 C 513.732 2.25722 3.77806 0
M  V30 5255 H 510.851 0.493427 0.547447 0
M  V30 5256 H 513.493 1.69634 0.855823 0
M  V30 5257 H 511.643 2.02582 3.31501 0
M  V30 5258 H 513.315 4.20972 1.88626 0
M  V30 5259 H 511.558 3.98664 1.71025 0
M  V30 5260 H 512.229 4.4399 3.27989 0
M  V30 5261 H 514.705 2.51336 3.31616 0
M  V30 5262 H 513.581 2.95069 4.62845 0
M  V30 5263 H 513.842 1.25803 4.23823 0
M  V30 5264 N 512.901 -0.976442 1.23707 0
M  V30 5265 C 514.312 -1.53284 1.06587 0
M  V30 5266 C 514.663 -1.92765 -0.365526 0
M  V30 5267 O 513.788 -1.7645 -1.25277 0
M  V30 5268 C 514.383 -2.78548 1.92864 0
M  V30 5269 C 512.942 -3.30574 1.79994 0
M  V30 5270 C 512.089 -2.03538 1.88328 0
M  V30 5271 H 515.04 -0.795692 1.37311 0
M  V30 5272 H 515.061 -3.5155 1.45577 0
M  V30 5273 H 514.573 -2.49782 2.97037 0
M  V30 5274 H 512.674 -3.64211 0.786202 0
M  V30 5275 H 512.787 -4.00065 2.636 0
M  V30 5276 H 511.151 -2.17853 1.31954 0
M  V30 5277 H 511.934 -1.77149 2.94063 0
M  V30 5278 N 514.379 -1.04941 -1.1758 0
M  V30 5279 C 515.309 -0.669172 -2.23706 0
M  V30 5280 C 516.29 0.331835 -1.66832 0
M  V30 5281 O 517.475 0.209988 -1.93061 0
M  V30 5282 C 514.605 -0.0404889 -3.47276 0
M  V30 5283 C 513.559 -0.965983 -4.16957 0
M  V30 5284 C 512.885 -0.201312 -5.34321 0
M  V30 5285 C 514.185 -2.28902 -4.69469 0
M  V30 5286 H 515.879 -1.55639 -2.55767 0
M  V30 5287 H 513.425 -0.749793 -1.22939 0
M  V30 5288 H 515.378 0.237298 -4.20731 0
M  V30 5289 H 514.102 0.881658 -3.14475 0
M  V30 5290 H 512.761 -1.22829 -3.45411 0
M  V30 5291 H 512.409 0.723519 -4.97769 0
M  V30 5292 H 512.109 -0.817968 -5.81879 0
M  V30 5293 H 513.633 0.0692499 -6.10561 0
M  V30 5294 H 515.047 -2.07132 -5.34574 0
M  V30 5295 H 513.444 -2.85942 -5.27596 0
M  V30 5296 H 514.514 -2.92937 -3.86414 0
M  V30 5297 N 515.857 1.33968 -0.830081 0
M  V30 5298 C 517.082 2.02813 -0.433796 0
M  V30 5299 C 517.507 1.62076 0.954614 0
M  V30 5300 O 516.865 0.808955 1.62252 0
M  V30 5301 C 516.913 3.56348 -0.552115 0
M  V30 5302 O 516.017 4.10202 0.425191 0
M  V30 5303 H 515.358 0.639817 -0.177567 0
M  V30 5304 H 517.888 1.7106 -1.12248 0
M  V30 5305 H 517.898 4.05722 -0.430513 0
M  V30 5306 H 516.573 3.85344 -1.56471 0
M  V30 5307 H 515.15 3.71979 0.261878 0
M  V30 5308 N 517.335 0.585699 1.46312 0
M  V30 5309 C 518.298 -0.135673 2.28798 0
M  V30 5310 C 519.298 -0.815988 1.38558 0
M  V30 5311 O 520.488 -0.667487 1.60904 0
M  V30 5312 C 517.62 -1.20163 3.1902 0
M  V30 5313 H 518.813 0.589257 2.94054 0
M  V30 5314 H 516.366 0.343794 1.52472 0
M  V30 5315 H 517.101 -1.95804 2.58517 0
M  V30 5316 H 516.886 -0.718282 3.85465 0
M  V30 5317 H 518.376 -1.70749 3.81096 0
M  V30 5318 N 518.813 -1.54241 0.323641 0
M  V30 5319 C 520.059 -2.01572 -0.272089 0
M  V30 5320 C 520.414 -1.20774 -1.49771 0
M  V30 5321 O 519.707 -0.281821 -1.89516 0
M  V30 5322 C 519.901 -3.5129 -0.658031 0
M  V30 5323 C 519.73 -4.46582 0.528645 0
M  V30 5324 C 518.5 -4.94737 1.02777 0
M  V30 5325 C 520.698 -4.95416 1.38086 0
M  V30 5326 N 518.68 -5.73933 2.17885 0
M  V30 5327 C 520.051 -5.72537 2.3791 0
M  V30 5328 C 522.106 -4.77559 1.40861 0
M  V30 5329 C 520.809 -6.33702 3.40314 0
M  V30 5330 C 522.835 -5.39559 2.42136 0
M  V30 5331 C 522.197 -6.16532 3.40688 0
M  V30 5332 H 518.296 -0.779425 -0.0634072 0
M  V30 5333 H 520.88 -1.8922 0.458697 0
M  V30 5334 H 519.051 -3.63888 -1.35795 0
M  V30 5335 H 520.783 -3.85388 -1.23524 0
M  V30 5336 H 517.538 -4.69796 0.599046 0
M  V30 5337 H 517.962 -6.18209 2.75947 0
M  V30 5338 H 522.604 -4.17611 0.660352 0
M  V30 5339 H 520.322 -6.9277 4.16047 0
M  V30 5340 H 523.908 -5.27659 2.45086 0
M  V30 5341 H 522.788 -6.63655 4.1777 0
M  V30 5342 N 520.291 -0.0518155 -1.57515 0
M  V30 5343 C 521.539 0.620595 -1.92336 0
M  V30 5344 C 521.86 1.71345 -0.930907 0
M  V30 5345 O 521.13 1.95885 0.0241341 0
M  V30 5346 H 519.71 0.232226 -0.709986 0
M  V30 5347 H 522.372 -0.104969 -1.94617 0
M  V30 5348 H 521.468 1.05879 -2.93592 0
M  V30 5349 N 521.769 1.56035 0.221574 0
M  V30 5350 C 522.679 1.95581 1.29558 0
M  V30 5351 C 523.695 0.859639 1.51282 0
M  V30 5352 O 524.871 1.16321 1.64413 0
M  V30 5353 C 521.936 2.26447 2.62531 0
M  V30 5354 C 520.997 3.49632 2.4911 0
M  V30 5355 C 520.23 3.79017 3.75742 0
M  V30 5356 O 520.453 3.10077 4.78757 0
M  V30 5357 O 519.387 4.72507 3.72855 0
M  V30 5358 H 523.213 2.8711 0.990035 0
M  V30 5359 H 520.798 1.43244 0.424434 0
M  V30 5360 H 522.68 2.47494 3.41064 0
M  V30 5361 H 521.355 1.38092 2.92766 0
M  V30 5362 H 520.262 3.33864 1.68777 0
M  V30 5363 H 521.595 4.3837 2.23814 0
M  V30 5364 N 523.247 -0.488276 1.49845 0
M  V30 5365 C 524.495 -1.23911 1.59657 0
M  V30 5366 C 524.816 -1.92816 0.291005 0
M  V30 5367 O 524.086 -1.83328 -0.690485 0
M  V30 5368 H 522.666 -0.460357 0.588286 0
M  V30 5369 H 525.328 -0.564794 1.86537 0
M  V30 5370 H 524.424 -1.99625 2.39909 0
M  V30 5371 N 524.725 -1.39134 -0.740242 0
M  V30 5372 C 525.657 -1.33332 -1.86428 0
M  V30 5373 C 526.67 -0.243042 -1.60976 0
M  V30 5374 O 527.859 -0.501608 -1.71307 0
M  V30 5375 C 524.959 -1.04626 -3.22346 0
M  V30 5376 C 524.132 -2.24826 -3.75196 0
M  V30 5377 C 523.191 -1.92659 -4.89662 0
M  V30 5378 O 522.217 -2.6529 -5.03597 0
M  V30 5379 N 523.419 -0.889575 -5.73643 0
M  V30 5380 H 526.184 -2.30196 -1.91911 0
M  V30 5381 H 523.745 -1.33168 -0.920756 0
M  V30 5382 H 525.737 -0.811347 -3.96484 0
M  V30 5383 H 524.307 -0.165129 -3.12164 0
M  V30 5384 H 523.527 -2.64301 -2.9247 0
M  V30 5385 H 524.815 -3.05015 -4.07239 0
M  V30 5386 H 524.213 -0.287529 -5.64969 0
M  V30 5387 H 522.77 -0.714557 -6.47871 0
M  V30 5388 N 526.204 0.969867 -1.24223 0
M  V30 5389 C 527.45 1.7151 -1.08223 0
M  V30 5390 C 527.783 1.90478 0.37838 0
M  V30 5391 O 527.058 1.4647 1.27971 0
M  V30 5392 C 527.341 3.10714 -1.82013 0
M  V30 5393 C 527.194 2.9925 -3.35811 0
M  V30 5394 C 528.513 4.10332 -1.59108 0
M  V30 5395 H 525.632 0.622499 -0.394543 0
M  V30 5396 H 528.274 1.1284 -1.52863 0
M  V30 5397 H 526.424 3.608 -1.44068 0
M  V30 5398 H 528.096 2.56608 -3.83341 0
M  V30 5399 H 526.339 2.35512 -3.64303 0
M  V30 5400 H 527.01 3.97857 -3.82641 0
M  V30 5401 H 529.486 3.69097 -1.92111 0
M  V30 5402 H 528.362 5.05804 -2.13198 0
M  V30 5403 H 528.623 4.38926 -0.528832 0
M  V30 5404 N 527.682 1.05563 1.17022 0
M  V30 5405 C 528.592 0.670758 2.24807 0
M  V30 5406 C 529.608 -0.309865 1.71219 0
M  V30 5407 O 530.784 -0.161025 2.00755 0
M  V30 5408 C 527.849 0.055337 3.46656 0
M  V30 5409 C 526.91 1.08688 4.15314 0
M  V30 5410 C 526.143 0.500736 5.31346 0
M  V30 5411 O 526.366 -0.688718 5.66227 0
M  V30 5412 O 525.3 1.23683 5.89055 0
M  V30 5413 H 529.126 1.56914 2.60023 0
M  V30 5414 H 526.711 0.827428 1.24395 0
M  V30 5415 H 528.593 -0.286492 4.20425 0
M  V30 5416 H 527.268 -0.816638 3.13229 0
M  V30 5417 H 526.175 1.48077 3.43546 0
M  V30 5418 H 527.508 1.93014 4.52777 0
M  V30 5419 N 529.16 -1.33526 0.837174 0
M  V30 5420 C 530.571 -1.80182 0.489017 0
M  V30 5421 C 530.922 -1.69285 -0.991826 0
M  V30 5422 O 530.047 -1.24113 -1.77271 0
M  V30 5423 C 530.642 -3.27149 0.880866 0
M  V30 5424 C 529.201 -3.71828 0.584872 0
M  V30 5425 C 528.348 -2.54974 1.09011 0
M  V30 5426 H 531.299 -1.21071 1.02603 0
M  V30 5427 H 531.32 -3.80024 0.190239 0
M  V30 5428 H 530.832 -3.35048 1.95869 0
M  V30 5429 H 528.933 -3.69457 -0.48295 0
M  V30 5430 H 529.046 -4.65366 1.13892 0
M  V30 5431 H 527.41 -2.4952 0.511047 0
M  V30 5432 H 528.193 -2.65637 2.17467 0
M  V30 5433 N 530.638 -0.59345 -1.46 0
M  V30 5434 C 531.568 0.121192 -2.33185 0
M  V30 5435 C 532.549 0.872977 -1.4599 0
M  V30 5436 O 533.734 0.846321 -1.74789 0
M  V30 5437 C 530.864 1.12844 -3.28456 0
M  V30 5438 C 529.818 0.4908 -4.25177 0
M  V30 5439 C 529.144 1.60529 -5.10034 0
M  V30 5440 C 530.444 -0.578949 -5.19081 0
M  V30 5441 H 532.138 -0.606767 -2.93187 0
M  V30 5442 H 529.684 -0.293242 -1.40983 0
M  V30 5443 H 531.637 1.63684 -3.88311 0
M  V30 5444 H 530.361 1.88681 -2.66584 0
M  V30 5445 H 529.02 0.00339328 -3.666 0
M  V30 5446 H 528.668 2.35359 -4.44539 0
M  V30 5447 H 528.368 1.18422 -5.75543 0
M  V30 5448 H 529.892 2.11623 -5.72755 0
M  V30 5449 H 531.306 -0.155199 -5.7309 0
M  V30 5450 H 529.703 -0.920947 -5.92991 0
M  V30 5451 H 530.773 -1.46109 -4.62364 0
M  V30 5452 N 532.116 1.54067 -0.331816 0
M  V30 5453 C 533.527 1.86059 0.15454 0
M  V30 5454 C 533.878 1.25331 1.50952 0
M  V30 5455 O 533.003 0.562441 2.08963 0
M  V30 5456 C 533.598 3.37581 0.287192 0
M  V30 5457 C 532.157 3.69493 0.717773 0
M  V30 5458 C 531.304 2.76863 -0.155569 0
M  V30 5459 H 534.255 1.48797 -0.55182 0
M  V30 5460 H 534.276 3.63744 1.11671 0
M  V30 5461 H 533.788 3.81751 -0.699131 0
M  V30 5462 H 531.889 3.3086 1.71354 0
M  V30 5463 H 532.002 4.76315 0.5158 0
M  V30 5464 H 530.366 2.51995 0.370213 0
M  V30 5465 H 531.149 3.23861 -1.13881 0
M  V30 5466 N 533.594 0.0601682 1.57485 0
M  V30 5467 C 535.005 -0.474217 1.80577 0
M  V30 5468 C 535.356 -1.70365 0.973147 0
M  V30 5469 O 534.481 -2.15544 0.192306 0
M  V30 5470 C 535.076 -0.867102 3.27516 0
M  V30 5471 C 533.635 -1.34642 3.51495 0
M  V30 5472 C 532.782 -0.32594 2.75378 0
M  V30 5473 H 535.733 0.285973 1.56102 0
M  V30 5474 H 535.754 -1.72938 3.38929 0
M  V30 5475 H 535.266 0.0278927 3.8809 0
M  V30 5476 H 533.367 -2.2603 2.96212 0
M  V30 5477 H 533.48 -1.33237 4.60201 0
M  V30 5478 H 531.844 -0.800749 2.41785 0
M  V30 5479 H 532.627 0.561125 3.38683 0
M  V30 5480 N 535.072 -1.5615 -0.213296 0
M  V30 5481 C 536.3 -1.83638 -0.953139 0
M  V30 5482 C 536.715 -0.640362 -1.77609 0
M  V30 5483 O 536.072 0.391071 -1.78261 0
M  V30 5484 C 536.123 -3.09735 -1.86405 0
M  V30 5485 O 535.844 -4.24723 -1.07435 0
M  V30 5486 C 537.345 -3.5027 -2.71709 0
M  V30 5487 H 534.565 -0.610263 -0.278962 0
M  V30 5488 H 537.109 -2.03247 -0.226035 0
M  V30 5489 H 535.264 -2.92077 -2.545 0
M  V30 5490 H 535.678 -4.9641 -1.69343 0
M  V30 5491 H 537.152 -4.41515 -3.31313 0
M  V30 5492 H 537.629 -2.72406 -3.44516 0
M  V30 5493 H 538.235 -3.70396 -2.09015 0
M  V30 5494 N 536.55 0.480323 -1.50102 0
M  V30 5495 C 537.482 1.59669 -1.64433 0
M  V30 5496 C 538.495 1.54063 -0.52615 0
M  V30 5497 O 539.684 1.59619 -0.798992 0
M  V30 5498 C 536.784 2.98527 -1.6042 0
M  V30 5499 C 535.957 3.291 -2.88117 0
M  V30 5500 C 535.016 4.47468 -2.76873 0
M  V30 5501 O 534.042 4.4823 -3.50825 0
M  V30 5502 N 535.244 5.48593 -1.89806 0
M  V30 5503 H 538.009 1.47795 -2.60723 0
M  V30 5504 H 535.57 0.66858 -1.4745 0
M  V30 5505 H 537.562 3.75666 -1.50523 0
M  V30 5506 H 536.132 3.04218 -0.719036 0
M  V30 5507 H 535.352 2.40662 -3.12211 0
M  V30 5508 H 536.64 3.46334 -3.72734 0
M  V30 5509 H 536.038 5.50791 -1.2902 0
M  V30 5510 H 534.595 6.24752 -1.85819 0
M  V30 5511 N 538.028 1.39524 0.732853 0
M  V30 5512 C 538.96 1.34318 1.85718 0
M  V30 5513 C 539.973 0.251576 1.60844 0
M  V30 5514 O 541.162 0.510685 1.71039 0
M  V30 5515 C 538.262 1.06334 3.21786 0
M  V30 5516 C 537.435 2.26813 3.73998 0
M  V30 5517 C 536.494 1.95253 4.88634 0
M  V30 5518 O 535.52 2.67957 5.02183 0
M  V30 5519 N 536.722 0.919984 5.73164 0
M  V30 5520 H 539.487 2.3121 1.90688 0
M  V30 5521 H 537.048 1.33654 0.91368 0
M  V30 5522 H 539.04 0.832363 3.96048 0
M  V30 5523 H 537.61 0.181682 3.12072 0
M  V30 5524 H 536.83 2.65849 2.91064 0
M  V30 5525 H 538.118 3.0717 4.05616 0
M  V30 5526 H 537.516 0.317487 5.64808 0
M  V30 5527 H 536.073 0.748905 6.47483 0
M  V30 5528 N 539.506 -0.963266 1.24736 0
M  V30 5529 C 540.731 -1.74699 1.11781 0
M  V30 5530 C 541.156 -1.85267 -0.325258 0
M  V30 5531 O 540.514 -1.32681 -1.23553 0
M  V30 5532 C 540.562 -3.14322 1.76731 0
M  V30 5533 O 539.666 -3.99043 1.04109 0
M  V30 5534 H 539.007 -0.53684 0.390767 0
M  V30 5535 H 541.537 -1.20801 1.65131 0
M  V30 5536 H 541.547 -3.64824 1.82668 0
M  V30 5537 H 540.222 -3.05946 2.81726 0
M  V30 5538 H 538.799 -3.5752 1.05991 0
M  V30 5539 N 540.985 -1.06182 -1.16461 0
M  V30 5540 C 542.21 -0.798599 -1.91408 0
M  V30 5541 C 542.635 0.640987 -1.76842 0
M  V30 5542 O 541.993 1.44652 -1.09296 0
M  V30 5543 C 542.041 -1.19665 -3.40165 0
M  V30 5544 O 541.145 -0.334768 -4.11039 0
M  V30 5545 H 540.486 -0.291961 -0.596368 0
M  V30 5546 H 543.016 -1.41732 -1.47557 0
M  V30 5547 H 543.026 -1.16772 -3.90933 0
M  V30 5548 H 541.701 -2.24526 -3.50087 0
M  V30 5549 H 540.278 -0.425168 -3.70468 0
M  V30 5550 N 542.463 1.3308 -0.844243 0
M  V30 5551 C 543.711 1.97215 -0.441676 0
M  V30 5552 C 544.032 1.67185 1.0037 0
M  V30 5553 O 543.302 0.973588 1.69994 0
M  V30 5554 H 541.882 0.72959 -0.160335 0
M  V30 5555 H 544.544 1.62348 -1.07838 0
M  V30 5556 H 543.64 3.06698 -0.57815 0
M  V30 5557 N 543.941 0.601185 1.45683 0
M  V30 5558 C 545.166 0.0982245 2.07167 0
M  V30 5559 C 545.591 -1.20546 1.44396 0
M  V30 5560 O 544.949 -1.73247 0.534347 0
M  V30 5561 C 544.997 -0.0346976 3.60583 0
M  V30 5562 O 544.101 -1.08657 3.97828 0
M  V30 5563 H 543.442 0.0711618 0.660176 0
M  V30 5564 H 545.972 0.829376 1.87036 0
M  V30 5565 H 545.982 -0.234969 4.07323 0
M  V30 5566 H 544.657 0.917265 4.05659 0
M  V30 5567 H 543.234 -0.863275 3.6277 0
M  V30 5568 N 545.419 -1.53889 0.339982 0
M  V30 5569 C 546.382 -2.23547 -0.50592 0
M  V30 5570 C 547.382 -1.23445 -1.03044 0
M  V30 5571 O 548.572 -1.47909 -0.920253 0
M  V30 5572 C 545.704 -2.95234 -1.7044 0
M  V30 5573 H 546.897 -2.99722 0.103247 0
M  V30 5574 H 544.45 -1.56033 0.0912804 0
M  V30 5575 H 545.185 -2.23236 -2.35236 0
M  V30 5576 H 544.97 -3.68654 -1.33553 0
M  V30 5577 H 546.46 -3.48258 -2.30447 0
M  V30 5578 N 546.897 -0.0685191 -1.57451 0
M  V30 5579 C 548.143 0.602239 -1.93652 0
M  V30 5580 C 548.476 1.6946 -0.948526 0
M  V30 5581 O 547.751 1.94487 0.022782 0
M  V30 5582 C 548.034 1.18223 -3.4014 0
M  V30 5583 C 547.887 0.0967431 -4.49696 0
M  V30 5584 C 549.206 2.08872 -3.87377 0
M  V30 5585 H 546.325 0.217453 -0.70419 0
M  V30 5586 H 548.967 -0.133821 -1.89528 0
M  V30 5587 H 547.117 1.80953 -3.43785 0
M  V30 5588 H 548.789 -0.536155 -4.58174 0
M  V30 5589 H 547.032 -0.573063 -4.29998 0
M  V30 5590 H 547.703 0.542894 -5.49324 0
M  V30 5591 H 550.179 1.56081 -3.85717 0
M  V30 5592 H 549.055 2.46389 -4.90493 0
M  V30 5593 H 549.316 2.99572 -3.25129 0
M  V30 5594 N 548.375 1.56261 0.205012 0
M  V30 5595 C 549.623 1.79684 0.925096 0
M  V30 5596 C 549.944 0.63989 1.84202 0
M  V30 5597 O 549.214 -0.342345 1.92885 0
M  V30 5598 H 547.794 0.662774 0.344587 0
M  V30 5599 H 550.456 1.93734 0.212899 0
M  V30 5600 H 549.552 2.72467 1.52211 0
M  V30 5601 N 549.853 -0.472356 1.50355 0
M  V30 5602 C 551.081 -1.24784 1.65035 0
M  V30 5603 C 551.496 -1.85837 0.333176 0
M  V30 5604 O 550.853 -1.69168 -0.68472 0
M  V30 5605 C 550.904 -2.35747 2.74054 0
M  V30 5606 O 550.625 -1.77197 4.00665 0
M  V30 5607 C 552.126 -3.26645 2.99696 0
M  V30 5608 H 549.346 -0.377432 0.554785 0
M  V30 5609 H 551.89 -0.563962 1.9657 0
M  V30 5610 H 550.045 -2.99912 2.45217 0
M  V30 5611 H 550.459 -2.5026 4.60945 0
M  V30 5612 H 551.933 -4.00718 3.79644 0
M  V30 5613 H 552.41 -3.8535 2.10718 0
M  V30 5614 H 553.016 -2.68218 3.3006 0
M  V30 5615 N 551.331 -1.39911 -0.725443 0
M  V30 5616 C 552.556 -1.41137 -1.5197 0
M  V30 5617 C 552.981 -0.010262 -1.88097 0
M  V30 5618 O 552.339 0.979184 -1.52583 0
M  V30 5619 C 552.387 -2.2994 -2.77777 0
M  V30 5620 O 551.491 -1.73586 -3.74088 0
M  V30 5621 H 550.832 -0.480219 -0.458569 0
M  V30 5622 H 553.362 -1.84023 -0.894249 0
M  V30 5623 H 553.372 -2.44785 -3.26411 0
M  V30 5624 H 552.047 -3.31759 -2.50816 0
M  V30 5625 H 550.624 -1.68035 -3.32894 0
M  V30 5626 N 552.809 0.956637 -1.25245 0
M  V30 5627 C 554.034 1.74104 -1.12706 0
M  V30 5628 C 554.459 1.85436 0.315429 0
M  V30 5629 O 553.817 1.33334 1.22848 0
M  V30 5630 C 553.865 3.1338 -1.78396 0
M  V30 5631 O 552.969 3.98485 -1.06224 0
M  V30 5632 H 552.31 0.53476 -0.393609 0
M  V30 5633 H 554.84 1.19924 -1.65769 0
M  V30 5634 H 554.85 3.6385 -1.846 0
M  V30 5635 H 553.525 3.04448 -2.83345 0
M  V30 5636 H 552.102 3.56952 -1.07886 0
M  V30 5637 N 554.287 1.06798 1.15896 0
M  V30 5638 C 555.234 0.683314 2.20453 0
M  V30 5639 C 556.204 -0.32255 1.62938 0
M  V30 5640 O 557.389 -0.210276 1.89638 0
M  V30 5641 C 554.529 0.0813266 3.45004 0
M  V30 5642 C 553.642 1.13799 4.16742 0
M  V30 5643 C 552.777 0.501598 5.28826 0
M  V30 5644 C 551.816 1.54144 5.92373 0
M  V30 5645 N 550.953 0.928038 6.9594 0
M  V30 5646 H 555.793 1.57932 2.52708 0
M  V30 5647 H 553.33 0.789544 1.24115 0
M  V30 5648 H 555.288 -0.285274 4.16224 0
M  V30 5649 H 553.918 -0.77806 3.13283 0
M  V30 5650 H 552.97 1.62223 3.44075 0
M  V30 5651 H 554.282 1.92664 4.60089 0
M  V30 5652 H 553.436 0.0823162 6.06644 0
M  V30 5653 H 552.175 -0.318883 4.86656 0
M  V30 5654 H 551.18 1.97056 5.13273 0
M  V30 5655 H 552.405 2.3641 6.36621 0
M  V30 5656 H 550.351 0.12836 6.55874 0
M  V30 5657 H 550.268 1.65401 7.37685 0
M  V30 5658 H 551.536 0.534071 7.77668 0
M  V30 5659 N 555.766 -1.3263 0.851289 0
M  V30 5660 C 556.729 -2.27247 0.298541 0
M  V30 5661 C 557.729 -1.51467 -0.539847 0
M  V30 5662 O 558.919 -1.7061 -0.351843 0
M  V30 5663 C 556.051 -3.35964 -0.578004 0
M  V30 5664 H 557.244 -2.7765 1.13359 0
M  V30 5665 H 554.797 -1.43245 0.625354 0
M  V30 5666 H 555.532 -2.90823 -1.435 0
M  V30 5667 H 555.317 -3.92094 0.0220539 0
M  V30 5668 H 556.807 -4.06472 -0.957626 0
M  V30 5669 N 557.244 -0.608902 -1.45362 0
M  V30 5670 C 558.154 0.110969 -2.34337 0
M  V30 5671 C 559.17 0.859007 -1.51318 0
M  V30 5672 O 560.346 0.816296 -1.84116 0
M  V30 5673 C 557.411 1.09494 -3.28956 0
M  V30 5674 C 556.472 0.348718 -4.27881 0
M  V30 5675 C 555.705 1.28582 -5.17979 0
M  V30 5676 O 555.928 2.52369 -5.11533 0
M  V30 5677 O 554.862 0.782172 -5.96796 0
M  V30 5678 H 558.688 -0.620258 -2.97299 0
M  V30 5679 H 556.273 -0.36916 -1.44767 0
M  V30 5680 H 558.155 1.66163 -3.87257 0
M  V30 5681 H 556.83 1.80717 -2.68557 0
M  V30 5682 H 555.737 -0.260465 -3.73192 0
M  V30 5683 H 557.07 -0.323049 -4.91139 0
M  V30 5684 N 558.722 1.53707 -0.348139 0
M  V30 5685 C 559.685 2.23812 0.494058 0
M  V30 5686 C 560.685 1.23989 1.02388 0
M  V30 5687 O 561.875 1.48395 0.912396 0
M  V30 5688 C 559.007 2.96133 1.68872 0
M  V30 5689 H 560.2 2.99663 -0.119141 0
M  V30 5690 H 557.753 1.55983 -0.0995539 0
M  V30 5691 H 558.488 2.24481 2.34049 0
M  V30 5692 H 558.273 3.69357 1.31596 0
M  V30 5693 H 559.763 3.49475 2.28597 0
M  V30 5694 N 560.2 0.0768682 1.57412 0
M  V30 5695 C 561.425 -0.603404 1.98428 0
M  V30 5696 C 561.85 -1.62047 0.955108 0
M  V30 5697 O 561.208 -1.81129 -0.0786778 0
M  V30 5698 C 561.256 -1.24396 3.38464 0
M  V30 5699 O 560.36 -2.35982 3.3821 0
M  V30 5700 H 559.701 -0.154741 0.645718 0
M  V30 5701 H 562.231 0.152885 2.04028 0
M  V30 5702 H 562.241 -1.5896 3.7576 0
M  V30 5703 H 560.916 -0.498735 4.12899 0
M  V30 5704 H 559.493 -2.03173 3.1269 0
M  V30 5705 N 561.678 -1.56367 -0.196722 0
M  V30 5706 C 562.924 -1.80796 -0.918725 0
M  V30 5707 C 563.257 -0.650645 -1.82976 0
M  V30 5708 O 562.532 0.348889 -1.91345 0
M  V30 5709 C 562.815 -3.15472 -1.73636 0
M  V30 5710 C 562.668 -4.41693 -0.85015 0
M  V30 5711 C 563.987 -3.46824 -2.70927 0
M  V30 5712 H 561.106 -0.657702 -0.332561 0
M  V30 5713 H 563.748 -1.89086 -0.186186 0
M  V30 5714 H 561.898 -3.08536 -2.36088 0
M  V30 5715 H 563.57 -4.60673 -0.240459 0
M  V30 5716 H 561.813 -4.33517 -0.156785 0
M  V30 5717 H 562.484 -5.32419 -1.45719 0
M  V30 5718 H 564.96 -3.54049 -2.18607 0
M  V30 5719 H 563.836 -4.4218 -3.25219 0
M  V30 5720 H 564.097 -2.70236 -3.49893 0
M  V30 5721 N 563.156 0.464375 -1.50603 0
M  V30 5722 C 564.119 1.54393 -1.69397 0
M  V30 5723 C 565.119 1.50566 -0.564504 0
M  V30 5724 O 566.309 1.53066 -0.831645 0
M  V30 5725 C 563.441 2.9401 -1.72543 0
M  V30 5726 H 564.634 1.39044 -2.65719 0
M  V30 5727 H 562.187 0.69122 -1.40185 0
M  V30 5728 H 562.922 3.14795 -0.77938 0
M  V30 5729 H 562.707 2.98195 -2.54602 0
M  V30 5730 H 564.197 3.72375 -1.89015 0
M  V30 5731 N 564.634 1.40294 0.718013 0
M  V30 5732 C 565.874 1.39888 1.49032 0
M  V30 5733 C 566.238 -0.000462935 1.92 0
M  V30 5734 O 567.439 -0.129622 2.68487 0
M  V30 5735 C 565.71 2.35868 2.68516 0
M  V30 5736 S 567.269 2.53799 3.57954 0
M  V30 5737 H 564.087 0.495849 0.509563 0
M  V30 5738 H 566.689 1.76541 0.839846 0
M  V30 5739 H 565.393 3.36375 2.35117 0
M  V30 5740 H 564.924 2.0049 3.38478 0
M  V30 5741 H 566.939 1.78859 4.62843 0
M  V30 5742 N 566.112 -0.949982 1.2575 0
M  V30 5743 C 567.337 -1.73503 1.13628 0
M  V30 5744 C 567.762 -1.85601 -0.30559 0
M  V30 5745 O 567.12 -1.33984 -1.22139 0
M  V30 5746 C 567.168 -3.1243 1.80055 0
M  V30 5747 O 566.272 -3.97916 1.08336 0
M  V30 5748 H 565.613 -0.532665 0.396439 0
M  V30 5749 H 568.143 -1.19043 1.66403 0
M  V30 5750 H 568.153 -3.62866 1.86527 0
M  V30 5751 H 566.828 -3.02941 2.84956 0
M  V30 5752 H 565.405 -3.56375 1.09777 0
M  V30 5753 N 567.59 -1.07411 -1.15328 0
M  V30 5754 C 568.52 -0.716472 -2.22236 0
M  V30 5755 C 569.501 0.296373 -1.67498 0
M  V30 5756 O 570.686 0.168989 -1.93463 0
M  V30 5757 C 567.816 -0.114142 -3.47112 0
M  V30 5758 C 566.77 -1.05421 -4.14814 0
M  V30 5759 C 566.096 -0.314604 -5.33774 0
M  V30 5760 C 567.396 -2.38808 -4.64508 0
M  V30 5761 H 569.09 -1.61029 -2.52408 0
M  V30 5762 H 566.636 -0.775702 -1.21321 0
M  V30 5763 H 568.589 0.148001 -4.2114 0
M  V30 5764 H 567.313 0.814755 -3.16274 0
M  V30 5765 H 565.972 -1.30128 -3.42728 0
M  V30 5766 H 565.62 0.617772 -4.99192 0
M  V30 5767 H 565.32 -0.941209 -5.80013 0
M  V30 5768 H 566.844 -0.0602747 -6.1057 0
M  V30 5769 H 568.258 -2.18424 -5.3006 0
M  V30 5770 H 566.655 -2.97069 -5.21412 0
M  V30 5771 H 567.725 -3.01067 -3.80114 0
M  V30 5772 N 569.068 1.32177 -0.85831 0
M  V30 5773 C 570.308 1.98927 -0.469822 0
M  V30 5774 C 570.672 1.66423 0.95746 0
M  V30 5775 O 571.873 2.26293 1.45069 0
M  V30 5776 C 570.144 3.50352 -0.706288 0
M  V30 5777 S 571.703 4.36824 -0.415918 0
M  V30 5778 H 568.521 0.688909 -0.175855 0
M  V30 5779 H 571.123 1.60807 -1.11181 0
M  V30 5780 H 569.827 3.71497 -1.74407 0
M  V30 5781 H 569.358 3.93367 -0.0508568 0
M  V30 5782 H 571.373 4.90398 0.756581 0
M  V30 5783 O 570.585 0.756816 1.42669 0
M  V30 5784 H 571.276 0.315719 1.9111 0
M  V30 END ATOM
M  V30 BEGIN BOND
M  V30 END BOND
M  V30 END CTAB
M  END
$$$$
