drugbank_target|Q9NP99 Triggering receptor expressed on myeloid cells 1 (DB01694)
 OpenBabel12092119513D

  0  0  0     0  0            999 V3000
M  V30 BEGIN CTAB
M  V30 COUNTS 3761 3802 0 0 0
M  V30 BEGIN ATOM
M  V30 1 H -0.908 1.98254 -0.117106 0
M  V30 2 N 0 1.576 0 0
M  V30 3 C 0.933 2.03868 1.02534 0
M  V30 4 C 1.911 0.928543 1.3348 0
M  V30 5 O 3.095 1.19667 1.45644 0
M  V30 6 C 0.222 2.43627 2.35294 0
M  V30 7 C -0.732 3.65373 2.2001 0
M  V30 8 S 0.101 5.13292 1.52614 0
M  V30 9 C 1.257 5.56322 2.86805 0
M  V30 10 H 1.49 2.90518 0.631377 0
M  V30 11 H -0.977 1.52953 0.210867 0
M  V30 12 H 0.981 2.67203 3.11629 0
M  V30 13 H -0.358 1.57376 2.7183 0
M  V30 14 H -1.165 3.90944 3.18086 0
M  V30 15 H -1.563 3.418 1.51819 0
M  V30 16 H 0.729 5.58782 3.83104 0
M  V30 17 H 1.672 6.56266 2.65933 0
M  V30 18 H 2.08 4.83886 2.90714 0
M  V30 19 N 1.4781 -0.272755 1.55222 0
M  V30 20 C 2.8941 -0.619959 1.47067 0
M  V30 21 C 3.0941 -1.895 0.684978 0
M  V30 22 O 2.1501 -2.51675 0.203931 0
M  V30 23 C 3.4631 -0.746693 2.91282 0
M  V30 24 C 5.0111 -0.840731 3.01497 0
M  V30 25 C 5.4861 -0.99924 4.46967 0
M  V30 26 N 6.9771 -1.06476 4.50796 0
M  V30 27 C 7.7121 -1.20621 5.6057 0
M  V30 28 N 7.2081 -1.31483 6.80209 0
M  V30 29 N 9.0011 -1.23733 5.48312 0
M  V30 30 H 1.1521 0.564606 2.04758 0
M  V30 31 H 3.4151 0.191177 0.928523 0
M  V30 32 H 3.1211 0.119753 3.51496 0
M  V30 33 H 2.9951 -1.6269 3.40311 0
M  V30 34 H 5.3821 -1.69764 2.41379 0
M  V30 35 H 5.4631 0.0640874 2.5572 0
M  V30 36 H 5.1071 -0.146984 5.07687 0
M  V30 37 H 5.0371 -1.91871 4.90401 0
M  V30 38 H 7.5281 -0.993196 3.64615 0
M  V30 39 H 7.8411 -1.42111 7.59621 0
M  V30 40 H 6.1861 -1.28487 6.8302 0
M  V30 41 H 9.3771 -1.14877 4.53785 0
M  V30 42 H 9.5501 -1.34412 6.33906 0
M  V30 43 N 2.9562 -1.48159 -0.537278 0
M  V30 44 C 3.9032 -1.62138 -1.64256 0
M  V30 45 C 4.8732 -0.463668 -1.59497 0
M  V30 46 O 6.0582 -0.686241 -1.78032 0
M  V30 47 C 3.1982 -1.66028 -3.02537 0
M  V30 48 C 2.3112 -2.92855 -3.17585 0
M  V30 49 C 1.4462 -2.87952 -4.46382 0
M  V30 50 C 0.4852 -4.09516 -4.54932 0
M  V30 51 N -0.3778 -4.02733 -5.75109 0
M  V30 52 H 4.4622 -2.56529 -1.51647 0
M  V30 53 H 1.9992 -1.27224 -0.738414 0
M  V30 54 H 3.9572 -1.66265 -3.82638 0
M  V30 55 H 2.5872 -0.751331 -3.13934 0
M  V30 56 H 1.6392 -3.02395 -2.30784 0
M  V30 57 H 2.9512 -3.82822 -3.19764 0
M  V30 58 H 2.1052 -2.8655 -5.34765 0
M  V30 59 H 0.8442 -1.95702 -4.46712 0
M  V30 60 H -0.1508 -4.11201 -3.64957 0
M  V30 61 H 1.0742 -5.02917 -4.56346 0
M  V30 62 H -0.9798 -3.13299 -5.76351 0
M  V30 63 H -1.0628 -4.86397 -5.78752 0
M  V30 64 H 0.2052 -4.05379 -6.65799 0
M  V30 65 N 4.4343 0.785586 -1.36625 0
M  V30 66 C 5.6623 1.57448 -1.3423 0
M  V30 67 C 6.0773 1.88649 0.0755653 0
M  V30 68 O 5.4343 1.50414 1.03354 0
M  V30 69 C 5.4853 2.89316 -2.16745 0
M  V30 70 O 5.2063 2.59459 -3.53005 0
M  V30 71 C 6.7073 3.83606 -2.22174 0
M  V30 72 H 3.9273 0.488226 -0.4603 0
M  V30 73 H 6.4713 0.974733 -1.79775 0
M  V30 74 H 4.6263 3.4575 -1.74745 0
M  V30 75 H 5.0403 3.43804 -3.96105 0
M  V30 76 H 6.5143 4.73181 -2.8426 0
M  V30 77 H 6.9913 4.21734 -1.22627 0
M  V30 78 H 7.5973 3.33104 -2.64427 0
M  V30 79 N 5.9124 1.20967 1.01018 0
M  V30 80 C 7.3284 0.965905 1.27053 0
M  V30 81 C 7.5284 -0.350785 1.98423 0
M  V30 82 O 6.5844 -1.07773 2.28344 0
M  V30 83 C 7.8974 2.15294 2.09926 0
M  V30 84 C 9.4454 2.19463 2.23171 0
M  V30 85 C 9.9204 3.3767 3.09424 0
M  V30 86 N 11.4114 3.37724 3.17012 0
M  V30 87 C 12.1464 4.25837 3.83993 0
M  V30 88 N 11.6424 5.24138 4.53047 0
M  V30 89 N 13.4354 4.1366 3.80581 0
M  V30 90 H 5.5864 2.0565 0.531194 0
M  V30 91 H 7.8494 0.90024 0.297106 0
M  V30 92 H 7.5554 3.10684 1.64828 0
M  V30 93 H 7.4294 2.13923 3.10672 0
M  V30 94 H 9.8164 1.24632 2.6749 0
M  V30 95 H 9.8974 2.2488 1.21912 0
M  V30 96 H 9.5414 4.32791 2.65808 0
M  V30 97 H 9.4714 3.29491 4.10784 0
M  V30 98 H 11.9624 2.6658 2.6785 0
M  V30 99 H 12.2754 5.87684 5.01844 0
M  V30 100 H 10.6204 5.28068 4.5185 0
M  V30 101 H 13.8114 3.36127 3.25785 0
M  V30 102 H 13.9844 4.82538 4.32505 0
M  V30 103 N 7.3905 -1.2043 1.01659 0
M  V30 104 C 8.3205 -2.25466 0.607226 0
M  V30 105 C 9.3015 -1.65853 -0.377716 0
M  V30 106 O 10.4865 -1.92409 -0.263149 0
M  V30 107 C 7.6165 -3.47256 -0.0552949 0
M  V30 108 C 6.5705 -4.19462 0.850632 0
M  V30 109 C 5.8965 -5.34673 0.0538859 0
M  V30 110 C 7.1965 -4.75603 2.15868 0
M  V30 111 H 8.8905 -2.59962 1.48526 0
M  V30 112 H 6.4365 -1.2496 0.715605 0
M  V30 113 H 8.3895 -4.19917 -0.353233 0
M  V30 114 H 7.1135 -3.11924 -0.968045 0
M  V30 115 H 5.7725 -3.48667 1.13257 0
M  V30 116 H 5.4205 -4.95585 -0.860514 0
M  V30 117 H 5.1205 -5.83913 0.657192 0
M  V30 118 H 6.6445 -6.10138 -0.237598 0
M  V30 119 H 8.0585 -5.40083 1.92311 0
M  V30 120 H 6.4555 -5.3528 2.71284 0
M  V30 121 H 7.5255 -3.94346 2.82169 0
M  V30 122 N 8.8686 -0.792821 -1.36206 0
M  V30 123 C 10.1146 -0.376415 -1.99887 0
M  V30 124 C 10.4696 1.04127 -1.61788 0
M  V30 125 O 9.7626 1.71004 -0.864193 0
M  V30 126 C 9.9566 -0.481501 -3.54142 0
M  V30 127 C 9.7856 -1.90786 -4.07223 0
M  V30 128 C 8.5556 -2.53322 -4.37214 0
M  V30 129 C 10.7536 -2.87048 -4.26741 0
M  V30 130 N 8.7356 -3.8751 -4.7614 0
M  V30 131 C 10.1066 -4.06077 -4.6851 0
M  V30 132 C 12.1616 -2.8406 -4.08918 0
M  V30 133 C 10.8646 -5.22532 -4.94321 0
M  V30 134 C 12.8906 -3.99705 -4.35878 0
M  V30 135 C 12.2526 -5.1748 -4.77906 0
M  V30 136 H 8.3516 -0.185226 -0.759747 0
M  V30 137 H 10.9356 -1.03114 -1.65153 0
M  V30 138 H 9.1066 0.143154 -3.88136 0
M  V30 139 H 10.8386 -0.0410128 -4.04679 0
M  V30 140 H 7.5936 -2.04777 -4.2704 0
M  V30 141 H 8.0176 -4.5656 -4.99882 0
M  V30 142 H 12.6596 -1.94165 -3.75579 0
M  V30 143 H 10.3776 -6.1301 -5.2654 0
M  V30 144 H 13.9636 -3.98758 -4.23655 0
M  V30 145 H 12.8436 -6.05478 -4.98363 0
M  V30 146 N 10.3467 1.47872 -0.545128 0
M  V30 147 C 11.5947 2.02093 -0.016553 0
M  V30 148 C 11.9157 1.42305 1.3332 0
M  V30 149 O 11.1857 0.593853 1.86682 0
M  V30 150 H 9.7657 0.746993 -0.00313038 0
M  V30 151 H 12.4277 1.81414 -0.712397 0
M  V30 152 H 11.5237 3.11996 0.0805422 0
M  V30 153 N 11.8248 0.280983 1.55075 0
M  V30 154 C 12.7548 -0.597469 2.25727 0
M  V30 155 C 13.7358 -1.15417 1.24952 0
M  V30 156 O 14.9208 -1.18722 1.53684 0
M  V30 157 C 12.0508 -1.7789 2.98283 0
M  V30 158 C 11.0048 -1.35347 4.06036 0
M  V30 159 C 10.3308 -2.61846 4.66198 0
M  V30 160 C 11.6308 -0.499354 5.19907 0
M  V30 161 H 13.3248 -0.00824265 2.99399 0
M  V30 162 H 10.8708 -0.0025244 1.44 0
M  V30 163 H 12.8238 -2.39937 3.46422 0
M  V30 164 H 11.5478 -2.39405 2.22155 0
M  V30 165 H 10.2068 -0.756156 3.58717 0
M  V30 166 H 9.8548 -3.21632 3.86732 0
M  V30 167 H 9.5548 -2.3409 5.38958 0
M  V30 168 H 11.0788 -3.24732 5.1709 0
M  V30 169 H 12.4928 -1.02498 5.64063 0
M  V30 170 H 10.8898 -0.316424 5.99265 0
M  V30 171 H 11.9598 0.480459 4.82514 0
M  V30 172 N 13.3029 -1.57598 0.00835791 0
M  V30 173 C 14.2329 -2.1198 -0.979113 0
M  V30 174 C 15.2139 -1.03091 -1.35301 0
M  V30 175 O 16.3989 -1.30818 -1.43528 0
M  V30 176 C 13.5289 -2.62995 -2.26828 0
M  V30 177 C 12.4829 -3.76485 -2.03576 0
M  V30 178 C 11.8089 -4.13846 -3.38579 0
M  V30 179 C 13.1089 -5.0342 -1.39161 0
M  V30 180 H 14.8029 -2.94738 -0.526281 0
M  V30 181 H 12.3489 -1.41783 -0.251704 0
M  V30 182 H 14.3019 -2.99669 -2.96271 0
M  V30 183 H 13.0259 -1.7737 -2.7424 0
M  V30 184 H 11.6849 -3.40217 -1.36557 0
M  V30 185 H 11.3329 -3.25232 -3.83709 0
M  V30 186 H 11.0329 -4.90312 -3.23834 0
M  V30 187 H 12.5569 -4.53086 -4.09323 0
M  V30 188 H 13.9709 -5.37812 -1.98573 0
M  V30 189 H 12.3679 -5.84746 -1.34878 0
M  V30 190 H 13.4379 -4.83548 -0.361868 0
M  V30 191 N 14.781 0.264519 -1.55364 0
M  V30 192 C 16.027 0.992314 -1.77552 0
M  V30 193 C 16.382 1.83626 -0.574379 0
M  V30 194 O 15.675 1.86648 0.432782 0
M  V30 195 C 15.869 1.9004 -3.02687 0
M  V30 196 C 15.698 1.14583 -4.34857 0
M  V30 197 C 14.468 0.858068 -4.97961 0
M  V30 198 C 16.666 0.532069 -5.1154 0
M  V30 199 N 14.648 0.0775974 -6.13851 0
M  V30 200 C 16.019 -0.113823 -6.19896 0
M  V30 201 C 18.074 0.440763 -4.95945 0
M  V30 202 C 16.777 -0.842231 -7.14352 0
M  V30 203 C 18.803 -0.274072 -5.90765 0
M  V30 204 C 18.165 -0.90867 -6.98515 0
M  V30 205 H 14.264 0.344811 -0.701875 0
M  V30 206 H 16.848 0.267141 -1.92859 0
M  V30 207 H 15.019 2.59775 -2.88741 0
M  V30 208 H 16.751 2.56243 -3.13243 0
M  V30 209 H 13.506 1.16547 -4.59036 0
M  V30 210 H 13.93 -0.300216 -6.76334 0
M  V30 211 H 18.572 0.917064 -4.12735 0
M  V30 212 H 16.29 -1.33019 -7.97077 0
M  V30 213 H 19.876 -0.345151 -5.80775 0
M  V30 214 H 18.756 -1.45299 -7.70622 0
M  V30 215 N 16.2591 1.48442 0.529413 0
M  V30 216 C 17.1921 1.57577 1.65059 0
M  V30 217 C 18.1701 0.426198 1.56915 0
M  V30 218 O 19.3541 0.637877 1.77379 0
M  V30 219 C 16.4811 1.5043 3.03461 0
M  V30 220 C 15.5271 2.70235 3.29962 0
M  V30 221 S 16.3601 4.32198 3.16172 0
M  V30 222 C 17.5161 4.2765 4.57019 0
M  V30 223 H 17.7491 2.52427 1.5706 0
M  V30 224 H 15.2821 1.36982 0.712417 0
M  V30 225 H 17.2401 1.46992 3.8328 0
M  V30 226 H 15.9011 0.569167 3.089 0
M  V30 227 H 15.0941 2.61374 4.30929 0
M  V30 228 H 14.6961 2.70938 2.57815 0
M  V30 229 H 16.9881 3.97618 5.48549 0
M  V30 230 H 17.9311 5.28797 4.70934 0
M  V30 231 H 18.3391 3.5811 4.36368 0
M  V30 232 N 17.7372 -0.778329 1.37039 0
M  V30 233 C 18.6672 -1.90546 1.34962 0
M  V30 234 C 19.6482 -1.68681 0.219274 0
M  V30 235 O 20.8332 -1.89634 0.418624 0
M  V30 236 C 17.9632 -3.27734 1.14925 0
M  V30 237 C 16.9172 -3.64147 2.24902 0
M  V30 238 C 16.2432 -4.99806 1.89996 0
M  V30 239 C 17.5432 -3.71579 3.67051 0
M  V30 240 H 19.2372 -1.92541 2.29277 0
M  V30 241 H 16.7832 -0.924948 1.10366 0
M  V30 242 H 18.7362 -4.06215 1.12104 0
M  V30 243 H 17.4602 -3.26154 0.170631 0
M  V30 244 H 16.1192 -2.8797 2.26868 0
M  V30 245 H 15.7672 -4.94759 0.906796 0
M  V30 246 H 15.4672 -5.25139 2.63634 0
M  V30 247 H 16.9912 -5.80694 1.88749 0
M  V30 248 H 18.4052 -4.40227 3.67251 0
M  V30 249 H 16.8022 -4.08405 4.39688 0
M  V30 250 H 17.8722 -2.72404 4.01154 0
M  V30 251 N 19.2153 -1.21501 -1.00376 0
M  V30 252 C 20.4623 -1.03299 -1.74171 0
M  V30 253 C 20.7903 0.433326 -1.89612 0
M  V30 254 O 20.0453 1.33779 -1.42834 0
M  V30 255 C 20.3443 -1.67673 -3.15627 0
M  V30 256 C 20.0103 -3.17533 -3.2013 0
M  V30 257 C 18.6723 -3.58427 -3.21067 0
M  V30 258 C 21.0243 -4.13504 -3.17275 0
M  V30 259 C 18.3523 -4.93794 -3.16835 0
M  V30 260 C 20.7043 -5.48834 -3.14585 0
M  V30 261 C 19.3683 -5.89123 -3.13831 0
M  V30 262 H 18.6383 -0.377999 -0.637336 0
M  V30 263 H 21.2853 -1.51111 -1.17634 0
M  V30 264 H 19.5903 -1.12158 -3.75404 0
M  V30 265 H 21.2873 -1.51091 -3.71446 0
M  V30 266 H 17.8773 -2.84965 -3.20145 0
M  V30 267 H 22.0613 -3.82936 -3.15711 0
M  V30 268 H 17.3173 -5.24255 -3.1459 0
M  V30 269 H 21.4913 -6.22934 -3.1133 0
M  V30 270 H 19.1183 -6.93984 -3.10307 0
M  V30 271 N 20.6934 1.19889 -1.02296 0
M  V30 272 C 21.9394 1.89701 -0.717033 0
M  V30 273 C 22.2724 1.7905 0.751989 0
M  V30 274 O 21.5474 1.17891 1.547 0
M  V30 275 C 21.8304 3.40858 -1.16136 0
M  V30 276 C 21.6834 3.60411 -2.69117 0
M  V30 277 C 23.0024 4.33876 -0.737549 0
M  V30 278 H 20.1214 0.688874 -0.261957 0
M  V30 279 H 22.7634 1.41154 -1.27183 0
M  V30 280 H 20.9134 3.82335 -0.689342 0
M  V30 281 H 22.5854 3.28145 -3.2422 0
M  V30 282 H 20.8284 3.03665 -3.0979 0
M  V30 283 H 21.4994 4.66396 -2.95261 0
M  V30 284 H 23.9754 4.00081 -1.14344 0
M  V30 285 H 22.8514 5.38242 -1.0764 0
M  V30 286 H 23.1124 4.40628 0.360436 0
M  V30 287 N 22.1715 0.800033 1.35784 0
M  V30 288 C 23.3965 0.388511 2.03729 0
M  V30 289 C 23.8215 -0.990481 1.5991 0
M  V30 290 O 23.1795 -1.64013 0.772612 0
M  V30 291 C 23.2275 0.4726 3.5749 0
M  V30 292 O 22.3315 -0.51646 4.09153 0
M  V30 293 H 21.6725 0.163271 0.643614 0
M  V30 294 H 24.2025 1.0841 1.73518 0
M  V30 295 H 24.2125 0.34003 4.06581 0
M  V30 296 H 22.8875 1.47848 3.88734 0
M  V30 297 H 21.4645 -0.344673 3.71304 0
M  V30 298 N 23.6496 -1.47581 0.552962 0
M  V30 299 C 24.5596 -2.33743 -0.200353 0
M  V30 300 C 25.5756 -1.47928 -0.916151 0
M  V30 301 O 26.7516 -1.80865 -0.885993 0
M  V30 302 C 23.8166 -3.24536 -1.21973 0
M  V30 303 C 22.8776 -4.26238 -0.511819 0
M  V30 304 C 22.1106 -5.12693 -1.48263 0
M  V30 305 O 22.3336 -5.01525 -2.71714 0
M  V30 306 O 21.2676 -5.93375 -1.00945 0
M  V30 307 H 25.0936 -2.9945 0.506304 0
M  V30 308 H 22.6786 -1.46071 0.313622 0
M  V30 309 H 24.5606 -3.80631 -1.80827 0
M  V30 310 H 23.2356 -2.61462 -1.90839 0
M  V30 311 H 22.1426 -3.73914 0.117799 0
M  V30 312 H 23.4756 -4.92014 0.135308 0
M  V30 313 N 25.1277 -0.289203 -1.54924 0
M  V30 314 C 26.0577 0.58549 -2.2604 0
M  V30 315 C 27.0387 1.14753 -1.25562 0
M  V30 316 O 28.2237 1.17906 -1.54311 0
M  V30 317 C 25.3537 1.76305 -2.99222 0
M  V30 318 C 24.3077 1.33191 -4.06748 0
M  V30 319 C 23.6337 2.5937 -4.6758 0
M  V30 320 C 24.9337 0.471775 -5.20165 0
M  V30 321 H 26.6277 -0.00763532 -2.99399 0
M  V30 322 H 24.1737 -0.00511229 -1.43999 0
M  V30 323 H 26.1267 2.38097 -3.47689 0
M  V30 324 H 24.8507 2.38223 -2.23422 0
M  V30 325 H 23.5097 0.737121 -3.59113 0
M  V30 326 H 23.1577 3.19576 -3.88433 0
M  V30 327 H 22.8577 2.31228 -5.40192 0
M  V30 328 H 24.3817 3.21985 -5.18804 0
M  V30 329 H 25.7957 0.995056 -5.64599 0
M  V30 330 H 24.1927 0.284639 -5.99425 0
M  V30 331 H 25.2627 -0.506041 -4.82252 0
M  V30 332 N 26.6058 1.57591 -0.0167156 0
M  V30 333 C 28.0218 1.55946 0.339557 0
M  V30 334 C 28.2218 1.02109 1.73713 0
M  V30 335 O 27.2778 0.662303 2.43659 0
M  V30 336 C 28.5908 3.00037 0.199499 0
M  V30 337 C 30.1388 3.11805 0.273193 0
M  V30 338 C 30.6138 4.57713 0.162068 0
M  V30 339 N 32.1048 4.6268 0.219444 0
M  V30 340 C 32.8398 5.73185 0.157054 0
M  V30 341 N 32.3358 6.92786 0.0442936 0
M  V30 342 N 34.1288 5.61707 0.21014 0
M  V30 343 H 26.2798 1.90921 -0.930758 0
M  V30 344 H 28.5428 0.877674 -0.358319 0
M  V30 345 H 28.2488 3.4333 -0.76273 0
M  V30 346 H 28.1228 3.64387 0.974786 0
M  V30 347 H 30.5098 2.68433 1.22587 0
M  V30 348 H 30.5908 2.50201 -0.532256 0
M  V30 349 H 30.2348 5.01763 -0.78714 0
M  V30 350 H 30.1648 5.17283 0.986222 0
M  V30 351 H 32.6558 3.76649 0.307246 0
M  V30 352 H 32.9688 7.728 0.00304069 0
M  V30 353 H 31.3138 6.94999 0.00968457 0
M  V30 354 H 34.5048 4.6716 0.296546 0
M  V30 355 H 34.6778 6.47807 0.158054 0
M  V30 356 N 28.0839 -0.256276 1.55502 0
M  V30 357 C 29.0469 -1.30047 1.88734 0
M  V30 358 C 30.0469 -1.4154 0.763086 0
M  V30 359 O 31.2369 -1.40403 1.03115 0
M  V30 360 C 28.3689 -2.67953 2.10747 0
M  V30 361 H 29.5619 -1.01802 2.82093 0
M  V30 362 H 27.1149 -0.495134 1.4825 0
M  V30 363 H 27.8499 -3.01351 1.19825 0
M  V30 364 H 27.6349 -2.60993 2.92617 0
M  V30 365 H 29.1249 -3.43368 2.37673 0
M  V30 366 N 29.562 -1.4872 -0.521534 0
M  V30 367 C 30.525 -1.63379 -1.60748 0
M  V30 368 C 31.525 -0.50661 -1.52611 0
M  V30 369 O 32.715 -0.772601 -1.5613 0
M  V30 370 C 29.847 -1.61192 -3.00383 0
M  V30 371 H 31.04 -2.60217 -1.49087 0
M  V30 372 H 28.593 -1.37444 -0.744235 0
M  V30 373 H 29.328 -0.65863 -3.17541 0
M  V30 374 H 29.113 -2.43032 -3.07698 0
M  V30 375 H 30.603 -1.7466 -3.7932 0
M  V30 376 N 31.0401 0.771051 -1.3745 0
M  V30 377 C 32.2681 1.56015 -1.35893 0
M  V30 378 C 32.6831 1.88718 0.0555523 0
M  V30 379 O 32.0401 1.51502 1.01752 0
M  V30 380 C 32.0911 2.87001 -2.19801 0
M  V30 381 O 31.8121 2.557 -3.55738 0
M  V30 382 C 33.3131 3.81228 -2.26231 0
M  V30 383 H 30.5331 0.483317 -0.465453 0
M  V30 384 H 33.0771 0.955611 -1.80799 0
M  V30 385 H 31.2321 3.43877 -1.78402 0
M  V30 386 H 31.6461 3.39584 -3.99729 0
M  V30 387 H 33.1201 4.70139 -2.89263 0
M  V30 388 H 33.5971 4.20409 -1.27093 0
M  V30 389 H 34.2031 3.30281 -2.67945 0
M  V30 390 N 32.5182 1.22032 0.997298 0
M  V30 391 C 33.4652 0.986467 2.08656 0
M  V30 392 C 34.4352 -0.0902671 1.65855 0
M  V30 393 O 35.6202 0.0584294 1.90711 0
M  V30 394 C 32.7602 0.565569 3.40434 0
M  V30 395 C 31.8732 1.71259 3.96604 0
M  V30 396 C 31.0082 1.24011 5.16522 0
M  V30 397 C 30.0472 2.35896 5.64818 0
M  V30 398 N 29.1842 1.89726 6.7598 0
M  V30 399 H 34.0242 1.91892 2.27994 0
M  V30 400 H 31.5612 0.956199 1.11782 0
M  V30 401 H 33.5192 0.302738 4.161 0
M  V30 402 H 32.1492 -0.329879 3.2111 0
M  V30 403 H 31.2012 2.08986 3.17851 0
M  V30 404 H 32.5132 2.55436 4.28432 0
M  V30 405 H 31.6672 0.934395 5.99461 0
M  V30 406 H 30.4062 0.368487 4.86306 0
M  V30 407 H 29.4112 2.67261 4.8047 0
M  V30 408 H 30.6362 3.23567 5.97061 0
M  V30 409 H 28.5822 1.0492 6.47555 0
M  V30 410 H 28.4992 2.67471 7.07103 0
M  V30 411 H 29.7672 1.62211 7.62435 0
M  V30 412 N 33.9963 -1.19345 1.0293 0
M  V30 413 C 34.9263 -2.2481 0.631105 0
M  V30 414 C 35.9073 -1.66245 -0.360104 0
M  V30 415 O 37.0923 -1.92677 -0.242726 0
M  V30 416 C 34.2223 -3.47295 -0.0184607 0
M  V30 417 C 33.1763 -4.18536 0.895073 0
M  V30 418 C 32.5023 -5.34586 0.110592 0
M  V30 419 C 33.8023 -4.73287 2.209 0
M  V30 420 H 35.4963 -2.58372 1.51275 0
M  V30 421 H 33.0423 -1.24194 0.728818 0
M  V30 422 H 34.9953 -4.20268 -0.308675 0
M  V30 423 H 33.7193 -3.12933 -0.934907 0
M  V30 424 H 32.3783 -3.47446 1.16949 0
M  V30 425 H 32.0263 -4.96469 -0.807902 0
M  V30 426 H 31.7263 -5.83183 0.719087 0
M  V30 427 H 33.2503 -6.10355 -0.172871 0
M  V30 428 H 34.6643 -5.38013 1.98028 0
M  V30 429 H 33.0613 -5.32373 2.76946 0
M  V30 430 H 34.1313 -3.91331 2.86336 0
M  V30 431 N 35.4744 -0.807222 -1.35358 0
M  V30 432 C 36.7024 -0.400377 -2.02989 0
M  V30 433 C 37.1174 0.988859 -1.60832 0
M  V30 434 O 36.4744 1.63729 -0.806175 0
M  V30 435 C 36.5254 -0.474867 -3.58368 0
M  V30 436 O 36.2464 -1.80933 -3.98992 0
M  V30 437 C 37.7474 -0.0609112 -4.43258 0
M  V30 438 H 34.9674 -0.162587 -0.651004 0
M  V30 439 H 37.5114 -1.09102 -1.72965 0
M  V30 440 H 35.6664 0.167534 -3.87038 0
M  V30 441 H 36.0804 -1.77256 -4.9364 0
M  V30 442 H 37.5544 -0.164145 -5.51756 0
M  V30 443 H 38.0314 0.993831 -4.27808 0
M  V30 444 H 38.6374 -0.676492 -4.19885 0
M  V30 445 N 36.9525 1.47285 -0.560781 0
M  V30 446 C 37.8625 2.33846 0.187954 0
M  V30 447 C 38.8785 1.48412 0.908293 0
M  V30 448 O 40.0545 1.81332 0.876388 0
M  V30 449 C 37.1195 3.25178 1.2025 0
M  V30 450 C 36.1805 4.26504 0.489208 0
M  V30 451 C 35.4135 5.13472 1.45542 0
M  V30 452 O 35.6365 5.02959 2.6905 0
M  V30 453 O 34.5705 5.93902 0.977963 0
M  V30 454 H 38.3965 2.99177 -0.522177 0
M  V30 455 H 35.9815 1.45903 -0.321364 0
M  V30 456 H 37.8635 3.81584 1.78805 0
M  V30 457 H 36.5385 2.6247 1.89449 0
M  V30 458 H 35.4455 3.73847 -0.137627 0
M  V30 459 H 36.7785 4.91935 -0.161399 0
M  V30 460 N 38.4306 0.297415 1.54768 0
M  V30 461 C 39.3406 -0.58983 2.27064 0
M  V30 462 C 40.3566 -1.15144 1.30453 0
M  V30 463 O 41.5326 -1.17699 1.63428 0
M  V30 464 C 38.5976 -1.74714 2.9946 0
M  V30 465 C 37.6586 -1.21997 4.11601 0
M  V30 466 C 36.8916 -2.32212 4.80535 0
M  V30 467 O 37.1146 -3.52036 4.48806 0
M  V30 468 O 36.0486 -1.99106 5.68014 0
M  V30 469 H 39.8746 -0.00348199 3.037 0
M  V30 470 H 37.4596 0.0640035 1.49263 0
M  V30 471 H 39.3416 -2.42147 3.44881 0
M  V30 472 H 38.0166 -2.32016 2.25722 0
M  V30 473 H 36.9236 -0.511458 3.70587 0
M  V30 474 H 38.2566 -0.692419 4.87305 0
M  V30 475 N 39.9087 -1.5758 0.0250728 0
M  V30 476 C 40.8557 -2.09973 -0.958129 0
M  V30 477 C 41.8257 -1.00085 -1.3256 0
M  V30 478 O 43.0107 -1.27481 -1.41962 0
M  V30 479 C 40.1507 -2.62812 -2.2366 0
M  V30 480 C 39.2637 -3.86693 -1.92594 0
M  V30 481 C 38.3987 -4.27941 -3.14707 0
M  V30 482 C 37.4377 -5.44591 -2.79442 0
M  V30 483 N 36.5747 -5.81014 -3.94167 0
M  V30 484 H 41.4147 -2.937 -0.504428 0
M  V30 485 H 38.9517 -1.45172 -0.237392 0
M  V30 486 H 40.9097 -2.91536 -2.98434 0
M  V30 487 H 39.5397 -1.81922 -2.66654 0
M  V30 488 H 38.5917 -3.64723 -1.0808 0
M  V30 489 H 39.9037 -4.71547 -1.62619 0
M  V30 490 H 39.0577 -4.58079 -3.97804 0
M  V30 491 H 37.7967 -3.41845 -3.4784 0
M  V30 492 H 36.8017 -5.1415 -1.94755 0
M  V30 493 H 38.0267 -6.32382 -2.47528 0
M  V30 494 H 35.9727 -4.97874 -4.2715 0
M  V30 495 H 35.8897 -6.60498 -3.67801 0
M  V30 496 H 37.1577 -6.15756 -4.7798 0
M  V30 497 N 41.3868 0.248026 -1.55636 0
M  V30 498 C 42.6168 0.992367 -1.81206 0
M  V30 499 C 43.0248 1.7949 -0.598324 0
M  V30 500 O 42.3678 1.78292 0.442434 0
M  V30 501 C 42.4298 1.97926 -3.00109 0
M  V30 502 C 42.0938 1.36377 -4.36177 0
M  V30 503 C 43.0908 0.76682 -5.14214 0
M  V30 504 C 40.7758 1.38347 -4.82872 0
M  V30 505 C 42.7698 0.197778 -6.37093 0
M  V30 506 C 40.4568 0.810574 -6.057 0
M  V30 507 C 41.4548 0.218754 -6.8265 0
M  V30 508 O 41.1428 -0.345298 -8.03158 0
M  V30 509 H 40.8748 0.297704 -0.606917 0
M  V30 510 H 43.4288 0.276517 -2.0353 0
M  V30 511 H 41.6588 2.73339 -2.73538 0
M  V30 512 H 43.3478 2.58694 -3.12781 0
M  V30 513 H 44.1138 0.744114 -4.79258 0
M  V30 514 H 39.9928 1.8335 -4.2297 0
M  V30 515 H 43.5368 -0.264788 -6.97097 0
M  V30 516 H 39.4338 0.830604 -6.40134 0
M  V30 517 H 40.2018 -0.237055 -8.18157 0
M  V30 518 N 42.8649 1.48995 0.513639 0
M  V30 519 C 43.7749 1.67443 1.64317 0
M  V30 520 C 44.7909 0.556947 1.64846 0
M  V30 521 O 45.9669 0.830082 1.83498 0
M  V30 522 C 43.0319 1.72515 3.00732 0
M  V30 523 C 42.0929 2.96009 3.1093 0
M  V30 524 C 41.3259 3.00829 4.40837 0
M  V30 525 O 41.5489 2.13594 5.28898 0
M  V30 526 O 40.4829 3.93168 4.55744 0
M  V30 527 H 44.3089 2.63106 1.51687 0
M  V30 528 H 41.8939 1.32588 0.688543 0
M  V30 529 H 43.7759 1.78277 3.81831 0
M  V30 530 H 42.4509 0.800278 3.13651 0
M  V30 531 H 41.3579 2.9577 2.29065 0
M  V30 532 H 42.6909 3.87934 3.02933 0
M  V30 533 N 44.343 -0.763751 1.37857 0
M  V30 534 C 45.273 -1.89103 1.36975 0
M  V30 535 C 46.254 -1.68439 0.237152 0
M  V30 536 O 47.439 -1.8918 0.438713 0
M  V30 537 C 44.569 -3.26496 1.18395 0
M  V30 538 C 43.523 -3.61741 2.28751 0
M  V30 539 C 42.849 -4.97762 1.95286 0
M  V30 540 C 44.149 -3.67665 3.70972 0
M  V30 541 H 45.843 -1.90099 2.31307 0
M  V30 542 H 43.389 -0.91319 1.11341 0
M  V30 543 H 45.342 -4.05003 1.16406 0
M  V30 544 H 44.066 -3.25955 0.205215 0
M  V30 545 H 42.725 -2.85547 2.29909 0
M  V30 546 H 42.373 -4.93769 0.959221 0
M  V30 547 H 42.073 -5.22313 2.69189 0
M  V30 548 H 43.597 -5.7866 1.94898 0
M  V30 549 H 45.011 -4.36307 3.719 0
M  V30 550 H 43.408 -4.03718 4.43995 0
M  V30 551 H 44.478 -2.68134 4.0402 0
M  V30 552 N 45.8211 -1.22559 -0.990812 0
M  V30 553 C 46.7681 -0.997519 -2.0813 0
M  V30 554 C 47.7381 0.0814702 -1.659 0
M  V30 555 O 48.9231 -0.0685424 -1.90677 0
M  V30 556 C 46.0631 -0.583615 -3.40129 0
M  V30 557 C 45.1761 -1.7336 -3.9569 0
M  V30 558 C 44.3111 -1.26748 -5.15857 0
M  V30 559 C 43.3501 -2.38888 -5.63559 0
M  V30 560 N 42.4871 -1.93308 -6.74964 0
M  V30 561 H 47.3271 -1.93099 -2.26973 0
M  V30 562 H 44.8641 -0.962114 -1.11273 0
M  V30 563 H 46.8221 -0.324801 -4.15934 0
M  V30 564 H 45.4521 0.312845 -3.2128 0
M  V30 565 H 44.5041 -2.10669 -3.16738 0
M  V30 566 H 45.8161 -2.57704 -4.27071 0
M  V30 567 H 44.9701 -0.966173 -5.98957 0
M  V30 568 H 43.7091 -0.394272 -4.86104 0
M  V30 569 H 42.7141 -2.69805 -4.79046 0
M  V30 570 H 43.9391 -3.26728 -5.95336 0
M  V30 571 H 41.8851 -1.08352 -6.4699 0
M  V30 572 H 41.8021 -2.71217 -7.05675 0
M  V30 573 H 43.0701 -1.66252 -7.61564 0
M  V30 574 N 47.2992 1.18797 -1.03562 0
M  V30 575 C 48.2092 2.25913 -0.632505 0
M  V30 576 C 49.2252 1.70668 0.338882 0
M  V30 577 O 50.4012 2.00453 0.195076 0
M  V30 578 C 47.4662 3.467 0.00350942 0
M  V30 579 C 46.5272 4.17098 -1.01624 0
M  V30 580 C 45.7602 5.32119 -0.410478 0
M  V30 581 O 45.9832 5.64976 0.784725 0
M  V30 582 O 44.9172 5.9107 -1.13667 0
M  V30 583 H 48.7432 2.62648 -1.52478 0
M  V30 584 H 46.3282 1.25781 -0.806195 0
M  V30 585 H 48.2102 4.19878 0.35781 0
M  V30 586 H 46.8852 3.11798 0.869686 0
M  V30 587 H 45.7922 3.4601 -1.42224 0
M  V30 588 H 47.1252 4.55987 -1.85301 0
M  V30 589 N 48.7773 0.814389 1.34928 0
M  V30 590 C 50.0253 0.397636 1.9815 0
M  V30 591 C 50.3463 -1.04069 1.64908 0
M  V30 592 O 49.6163 -1.72121 0.93548 0
M  V30 593 H 48.1963 0.144043 0.732981 0
M  V30 594 H 50.8583 1.04195 1.6471 0
M  V30 595 H 49.9543 0.509688 3.0791 0
M  V30 596 N 50.2554 -1.46986 0.568584 0
M  V30 597 C 51.1874 -2.28233 -0.210337 0
M  V30 598 C 52.2004 -1.37682 -0.868767 0
M  V30 599 O 53.3894 -1.62406 -0.740705 0
M  V30 600 C 50.4894 -3.12293 -1.3163 0
M  V30 601 C 49.6624 -4.30878 -0.7525 0
M  V30 602 C 48.7214 -4.96445 -1.74439 0
M  V30 603 O 47.7474 -5.54482 -1.286 0
M  V30 604 N 48.9494 -4.92171 -3.07812 0
M  V30 605 H 51.7144 -2.95723 0.486648 0
M  V30 606 H 49.2754 -1.56742 0.405409 0
M  V30 607 H 51.2674 -3.53022 -1.97883 0
M  V30 608 H 49.8374 -2.46971 -1.91636 0
M  V30 609 H 49.0574 -3.94104 0.0871128 0
M  V30 610 H 50.3454 -5.07558 -0.35536 0
M  V30 611 H 49.7434 -4.46239 -3.47688 0
M  V30 612 H 48.3004 -5.36884 -3.69592 0
M  V30 613 N 51.7335 -0.305618 -1.54608 0
M  V30 614 C 52.9615 0.304775 -2.04643 0
M  V30 615 C 53.3765 1.47167 -1.18268 0
M  V30 616 O 52.7335 1.81296 -0.209328 0
M  V30 617 C 52.7845 0.756564 -3.53495 0
M  V30 618 O 52.5055 -0.36389 -4.36586 0
M  V30 619 C 54.0065 1.43163 -4.19546 0
M  V30 620 H 51.2265 0.0655481 -0.667791 0
M  V30 621 H 53.7705 -0.446592 -1.99564 0
M  V30 622 H 51.9255 1.45794 -3.58919 0
M  V30 623 H 52.3395 -0.0113121 -5.24499 0
M  V30 624 H 53.8135 1.69886 -5.25207 0
M  V30 625 H 54.2905 2.37318 -3.69563 0
M  V30 626 H 54.8965 0.773307 -4.18211 0
M  V30 627 N 53.2116 1.57565 -0.0334293 0
M  V30 628 C 54.1416 2.13511 0.945265 0
M  V30 629 C 55.1226 1.05231 1.33643 0
M  V30 630 O 56.3076 1.33084 1.41429 0
M  V30 631 C 53.4376 2.6657 2.22616 0
M  V30 632 C 52.3916 3.79676 1.97561 0
M  V30 633 C 51.7176 4.1918 3.31952 0
M  V30 634 C 53.0176 5.0557 1.31135 0
M  V30 635 H 54.7116 2.95538 0.479325 0
M  V30 636 H 52.2576 1.42166 0.229115 0
M  V30 637 H 54.2106 3.04344 2.91466 0
M  V30 638 H 52.9346 1.8171 2.71384 0
M  V30 639 H 51.5936 3.42347 1.31127 0
M  V30 640 H 51.2416 3.31296 3.78487 0
M  V30 641 H 50.9416 4.95402 3.15992 0
M  V30 642 H 52.4656 4.59541 4.02063 0
M  V30 643 H 53.8796 5.40903 1.89992 0
M  V30 644 H 52.2766 5.86818 1.25559 0
M  V30 645 H 53.3466 4.84062 0.284894 0
M  V30 646 N 54.6897 -0.239769 1.55765 0
M  V30 647 C 55.9667 -0.990056 1.68693 0
M  V30 648 C 56.3467 -2.03107 0.5754 0
M  V30 649 O 55.6947 -2.24604 -0.42017 0
M  V30 650 C 55.9047 -1.61696 3.09282 0
M  V30 651 C 57.2527 -2.11613 3.6811 0
M  V30 652 O 58.2767 -1.71624 3.12127 0
M  V30 653 O 57.1357 -2.85057 4.66267 0
M  V30 654 H 54.2297 -0.461299 0.686391 0
M  V30 655 H 56.7757 -0.232991 1.68093 0
M  V30 656 H 55.5477 -0.864357 3.81634 0
M  V30 657 H 55.1707 -2.44005 3.13923 0
M  V30 658 N 56.1678 -1.49265 -0.50573 0
M  V30 659 C 57.4138 -1.58748 -1.26202 0
M  V30 660 C 57.7468 -0.271227 -1.92297 0
M  V30 661 O 57.0218 0.724831 -1.80489 0
M  V30 662 C 57.3048 -2.74332 -2.33268 0
M  V30 663 C 57.1578 -4.15737 -1.71705 0
M  V30 664 C 58.4768 -2.85576 -3.34865 0
M  V30 665 H 55.5958 -0.577826 -0.457478 0
M  V30 666 H 58.2378 -1.81532 -0.560897 0
M  V30 667 H 56.3878 -2.55036 -2.93068 0
M  V30 668 H 58.0598 -4.46537 -1.15769 0
M  V30 669 H 56.3028 -4.21605 -1.02135 0
M  V30 670 H 56.9738 -4.92477 -2.49341 0
M  V30 671 H 59.4498 -3.03127 -2.8505 0
M  V30 672 H 58.3258 -3.68135 -4.07146 0
M  V30 673 H 58.5868 -1.94732 -3.96903 0
M  V30 674 N 57.6459 0.756429 -1.3826 0
M  V30 675 C 58.5929 1.87011 -1.35261 0
M  V30 676 C 59.5629 1.64695 -0.215616 0
M  V30 677 O 60.7479 1.864 -0.407399 0
M  V30 678 C 57.8879 3.24275 -1.18068 0
M  V30 679 C 57.0009 3.58442 -2.41129 0
M  V30 680 C 56.1359 4.84994 -2.16689 0
M  V30 681 C 55.1749 5.11939 -3.35537 0
M  V30 682 N 54.3119 6.29685 -3.10549 0
M  V30 683 H 59.1519 1.8891 -2.30472 0
M  V30 684 H 56.6889 0.923373 -1.14509 0
M  V30 685 H 58.6469 4.03479 -1.06116 0
M  V30 686 H 57.2769 3.21711 -0.264973 0
M  V30 687 H 56.3289 2.74103 -2.63764 0
M  V30 688 H 57.6409 3.74283 -3.29717 0
M  V30 689 H 56.7949 5.72135 -2.01857 0
M  V30 690 H 55.5339 4.71286 -1.25462 0
M  V30 691 H 54.5389 4.23268 -3.50891 0
M  V30 692 H 55.7639 5.27546 -4.27635 0
M  V30 693 H 53.7099 6.17306 -2.21967 0
M  V30 694 H 53.6269 6.46014 -3.92686 0
M  V30 695 H 54.8949 7.19722 -2.99367 0
M  V30 696 N 59.124 1.23083 0.984299 0
M  V30 697 C 60.364 1.07226 1.74017 0
M  V30 698 C 60.728 -0.384766 1.88105 0
M  V30 699 O 61.929 -0.664411 2.60459 0
M  V30 700 C 60.2 1.77348 3.10294 0
M  V30 701 S 61.759 1.77014 4.01512 0
M  V30 702 H 58.577 0.383819 0.598502 0
M  V30 703 H 61.179 1.56158 1.17622 0
M  V30 704 H 59.883 2.82506 2.97689 0
M  V30 705 H 59.414 1.28682 3.71759 0
M  V30 706 H 61.429 0.825956 4.89277 0
M  V30 707 N 60.6021 -1.18246 1.0419 0
M  V30 708 C 61.8791 -1.84121 0.660208 0
M  V30 709 C 62.2591 -1.92778 -0.860221 0
M  V30 710 O 61.6071 -1.45464 -1.76217 0
M  V30 711 C 61.8171 -3.22355 1.33747 0
M  V30 712 C 63.1651 -3.98376 1.46906 0
M  V30 713 O 64.1891 -3.31799 1.29568 0
M  V30 714 O 63.0481 -5.17665 1.75171 0
M  V30 715 H 60.1421 -0.794036 0.231161 0
M  V30 716 H 62.6881 -1.25628 1.14087 0
M  V30 717 H 61.4601 -3.10964 2.37522 0
M  V30 718 H 61.0831 -3.88506 0.845515 0
M  V30 719 N 62.0802 -0.821533 -1.34494 0
M  V30 720 C 63.3102 -0.421272 -2.02259 0
M  V30 721 C 63.7182 0.977047 -1.6202 0
M  V30 722 O 63.0612 1.64348 -0.820703 0
M  V30 723 C 63.1232 -0.44231 -3.56769 0
M  V30 724 C 62.7872 -1.79372 -4.20327 0
M  V30 725 C 63.7842 -2.75435 -4.40944 0
M  V30 726 C 61.4692 -2.08182 -4.57127 0
M  V30 727 C 63.4632 -3.98482 -4.97484 0
M  V30 728 C 61.1502 -3.31489 -5.13379 0
M  V30 729 C 62.1482 -4.26457 -5.33501 0
M  V30 730 O 61.8362 -5.47585 -5.88562 0
M  V30 731 H 61.5682 -0.167473 -0.654927 0
M  V30 732 H 64.1222 -1.11073 -1.72777 0
M  V30 733 H 62.3522 0.303836 -3.85505 0
M  V30 734 H 64.0412 -0.0622925 -4.05852 0
M  V30 735 H 64.8072 -2.54473 -4.12878 0
M  V30 736 H 60.6862 -1.35066 -4.4077 0
M  V30 737 H 64.2302 -4.72618 -5.13106 0
M  V30 738 H 60.1272 -3.52316 -5.40873 0
M  V30 739 H 60.8952 -5.49086 -6.06998 0
M  V30 740 N 63.5583 1.46682 -0.576371 0
M  V30 741 C 64.7863 2.06798 -0.0649635 0
M  V30 742 C 65.2013 1.42612 1.23723 0
M  V30 743 O 64.5583 0.529203 1.74659 0
M  V30 744 C 64.6093 3.6132 0.114202 0
M  V30 745 O 64.3303 4.23104 -1.13644 0
M  V30 746 C 65.8313 4.38349 0.66069 0
M  V30 747 H 63.0513 0.668778 -0.0545616 0
M  V30 748 H 65.5953 1.88404 -0.795237 0
M  V30 749 H 63.7503 3.79162 0.794673 0
M  V30 750 H 64.1643 5.15894 -0.946253 0
M  V30 751 H 65.6383 5.47081 0.73526 0
M  V30 752 H 66.1153 4.05953 1.67627 0
M  V30 753 H 66.7213 4.25297 0.0152951 0
M  V30 754 N 65.0364 0.313813 1.54444 0
M  V30 755 C 65.9664 -0.549454 2.26943 0
M  V30 756 C 66.9474 -1.12741 1.27372 0
M  V30 757 O 68.1324 -1.15436 1.56167 0
M  V30 758 C 65.2624 -1.71523 3.01989 0
M  V30 759 C 64.2164 -1.26703 4.08816 0
M  V30 760 C 63.5424 -2.51898 4.71647 0
M  V30 761 C 64.8424 -0.388962 5.2085 0
M  V30 762 H 66.5364 0.0552661 2.99349 0
M  V30 763 H 64.0824 0.0280207 1.43973 0
M  V30 764 H 66.0354 -2.32535 3.51433 0
M  V30 765 H 64.7594 -2.34639 2.27183 0
M  V30 766 H 63.4184 -0.679896 3.6024 0
M  V30 767 H 63.0664 -3.13356 3.93468 0
M  V30 768 H 62.7664 -2.22605 5.43802 0
M  V30 769 H 64.2904 -3.1369 5.23861 0
M  V30 770 H 65.7044 -0.905107 5.6611 0
M  V30 771 H 64.1014 -0.18924 5.99802 0
M  V30 772 H 65.1714 0.582699 4.81386 0
M  V30 773 N 66.5145 -1.57545 0.0417849 0
M  V30 774 C 67.4245 -2.14451 -0.951213 0
M  V30 775 C 68.4405 -1.09992 -1.34825 0
M  V30 776 O 69.6165 -1.42114 -1.42708 0
M  V30 777 C 66.6815 -2.67063 -2.21084 0
M  V30 778 C 65.7425 -3.86284 -1.87304 0
M  V30 779 C 64.9755 -4.36378 -3.07261 0
M  V30 780 O 65.1985 -3.85587 -4.20332 0
M  V30 781 O 64.1325 -5.28077 -2.88822 0
M  V30 782 H 67.9585 -2.99601 -0.497287 0
M  V30 783 H 65.5435 -1.48317 -0.179567 0
M  V30 784 H 67.4255 -3.00914 -2.95006 0
M  V30 785 H 66.1005 -1.84989 -2.65633 0
M  V30 786 H 65.0075 -3.57338 -1.10727 0
M  V30 787 H 66.3405 -4.6956 -1.47562 0
M  V30 788 N 67.9926 0.231505 -1.5589 0
M  V30 789 C 68.9396 1.28682 -1.91598 0
M  V30 790 C 69.9096 1.47071 -0.771974 0
M  V30 791 O 71.0946 1.60802 -1.027 0
M  V30 792 C 68.2346 2.6342 -2.22944 0
M  V30 793 C 67.3476 2.52912 -3.50228 0
M  V30 794 C 66.4826 3.80106 -3.7107 0
M  V30 795 C 65.5216 3.64279 -4.91902 0
M  V30 796 N 64.6586 4.834 -5.09184 0
M  V30 797 H 69.4986 0.975305 -2.81588 0
M  V30 798 H 67.0356 0.470299 -1.39379 0
M  V30 799 H 68.9936 3.41869 -2.39126 0
M  V30 800 H 67.6236 2.92687 -1.36139 0
M  V30 801 H 66.6756 1.6595 -3.42294 0
M  V30 802 H 67.9876 2.37133 -4.38827 0
M  V30 803 H 67.1416 4.66999 -3.87295 0
M  V30 804 H 65.8806 3.98799 -2.80733 0
M  V30 805 H 64.8856 2.7577 -4.75637 0
M  V30 806 H 66.1106 3.47067 -5.83714 0
M  V30 807 H 64.0566 5.02425 -4.21788 0
M  V30 808 H 63.9736 4.70311 -5.91898 0
M  V30 809 H 65.2416 5.71747 -5.29835 0
M  V30 810 N 69.4707 1.49531 0.497807 0
M  V30 811 C 70.7177 1.59179 1.25173 0
M  V30 812 C 71.0457 0.279932 1.92475 0
M  V30 813 O 70.3007 -0.732383 1.81479 0
M  V30 814 C 70.5997 2.70252 2.33878 0
M  V30 815 C 70.2657 4.11644 1.84012 0
M  V30 816 C 68.9277 4.50121 1.70132 0
M  V30 817 C 71.2797 5.00121 1.46725 0
M  V30 818 C 68.6077 5.74845 1.17348 0
M  V30 819 C 70.9597 6.25366 0.95392 0
M  V30 820 C 69.6237 6.6267 0.801538 0
M  V30 821 H 68.8937 0.582478 0.45804 0
M  V30 822 H 71.5407 1.83373 0.551948 0
M  V30 823 H 69.8457 2.40041 3.09657 0
M  V30 824 H 71.5427 2.74925 2.9192 0
M  V30 825 H 68.1327 3.81274 1.95775 0
M  V30 826 H 72.3167 4.71048 1.56294 0
M  V30 827 H 67.5727 6.02444 1.04264 0
M  V30 828 H 71.7467 6.93301 0.656225 0
M  V30 829 H 69.3737 7.59197 0.390351 0
M  V30 830 N 70.9488 -0.749086 1.3866 0
M  V30 831 C 71.9118 -1.84457 1.36045 0
M  V30 832 C 72.9118 -1.58682 0.260122 0
M  V30 833 O 74.1018 -1.66343 0.517261 0
M  V30 834 C 71.2338 -3.22008 1.11911 0
M  V30 835 H 72.4268 -1.88182 2.33512 0
M  V30 836 H 69.9798 -0.951266 1.24019 0
M  V30 837 H 70.7148 -3.2395 0.150686 0
M  V30 838 H 70.4998 -3.42111 1.91579 0
M  V30 839 H 71.9898 -4.0208 1.12788 0
M  V30 840 N 72.4269 -1.23603 -0.977757 0
M  V30 841 C 73.6519 -1.09735 -1.75991 0
M  V30 842 C 74.0769 0.346858 -1.84874 0
M  V30 843 O 73.4349 1.25093 -1.3123 0
M  V30 844 C 73.4829 -1.73051 -3.16363 0
M  V30 845 O 72.5869 -0.994452 -4.0023 0
M  V30 846 H 71.9279 -0.384476 -0.541364 0
M  V30 847 H 74.4579 -1.6371 -1.2272 0
M  V30 848 H 74.4679 -1.78398 -3.66931 0
M  V30 849 H 73.1429 -2.78137 -3.09213 0
M  V30 850 H 71.7199 -1.01812 -3.58732 0
M  V30 851 N 73.905 1.17692 -1.04816 0
M  V30 852 C 75.13 1.92327 -0.776207 0
M  V30 853 C 75.555 1.76082 0.661581 0
M  V30 854 O 74.913 1.076 1.45917 0
M  V30 855 C 74.961 3.41539 -1.15687 0
M  V30 856 O 74.065 4.11402 -0.286775 0
M  V30 857 H 73.406 0.599735 -0.284981 0
M  V30 858 H 75.936 1.49201 -1.4 0
M  V30 859 H 75.946 3.92269 -1.12202 0
M  V30 860 H 74.621 3.52684 -2.20425 0
M  V30 861 H 73.198 3.70939 -0.381903 0
M  V30 862 N 75.3831 0.828654 1.34056 0
M  V30 863 C 76.3151 0.212052 2.28217 0
M  V30 864 C 77.3281 -0.601362 1.51286 0
M  V30 865 O 78.5171 -0.430104 1.73241 0
M  V30 866 C 75.6171 -0.72088 3.31144 0
M  V30 867 C 74.7901 0.0509587 4.3737 0
M  V30 868 C 73.8491 -0.803766 5.20025 0
M  V30 869 O 72.8751 -0.246667 5.68665 0
M  V30 870 N 74.0771 -2.1227 5.40298 0
M  V30 871 H 76.8421 1.02105 2.81771 0
M  V30 872 H 74.4031 0.686153 1.46641 0
M  V30 873 H 76.3951 -1.29742 3.8334 0
M  V30 874 H 74.9651 -1.43061 2.77943 0
M  V30 875 H 74.1851 0.808831 3.85813 0
M  V30 876 H 75.4731 0.582065 5.0546 0
M  V30 877 H 74.8711 -2.59898 5.02464 0
M  V30 878 H 73.4281 -2.64796 5.95589 0
M  V30 879 N 76.8612 -1.46375 0.584142 0
M  V30 880 C 77.8082 -2.30323 -0.148286 0
M  V30 881 C 78.7782 -1.40703 -0.882713 0
M  V30 882 O 79.9632 -1.69651 -0.873099 0
M  V30 883 C 77.1032 -3.25196 -1.15507 0
M  V30 884 C 76.2162 -4.29915 -0.423943 0
M  V30 885 C 75.3512 -5.11914 -1.41838 0
M  V30 886 C 74.3902 -6.08381 -0.673736 0
M  V30 887 N 73.5272 -6.83242 -1.6163 0
M  V30 888 H 78.3672 -2.92427 0.573644 0
M  V30 889 H 75.9042 -1.44118 0.294703 0
M  V30 890 H 77.8622 -3.78646 -1.75166 0
M  V30 891 H 76.4922 -2.64898 -1.8447 0
M  V30 892 H 75.5442 -3.7931 0.287714 0
M  V30 893 H 76.8562 -4.98549 0.158128 0
M  V30 894 H 76.0102 -5.69648 -2.08773 0
M  V30 895 H 74.7492 -4.43243 -2.03438 0
M  V30 896 H 73.7542 -5.49799 0.00938483 0
M  V30 897 H 74.9792 -6.79071 -0.0631082 0
M  V30 898 H 72.9252 -6.1728 -2.22038 0
M  V30 899 H 72.8422 -7.48144 -1.08707 0
M  V30 900 H 74.1102 -7.45534 -2.27596 0
M  V30 901 N 78.3393 -0.321999 -1.54275 0
M  V30 902 C 79.3023 0.531975 -2.22941 0
M  V30 903 C 80.3023 1.04478 -1.22234 0
M  V30 904 O 81.4923 0.937452 -1.46825 0
M  V30 905 C 78.6243 1.73874 -2.93224 0
M  V30 906 H 79.8173 -0.0682612 -2.99822 0
M  V30 907 H 77.3703 -0.0730644 -1.56129 0
M  V30 908 H 78.1053 2.37825 -2.20476 0
M  V30 909 H 77.8903 1.37847 -3.6707 0
M  V30 910 H 79.3803 2.34496 -3.45545 0
M  V30 911 N 79.8174 1.5752 -0.0501392 0
M  V30 912 C 81.0634 1.93755 0.618901 0
M  V30 913 C 81.4184 0.928514 1.68512 0
M  V30 914 O 80.7114 -0.0524613 1.91528 0
M  V30 915 C 80.9054 3.34467 1.25963 0
M  V30 916 C 80.7344 4.48965 0.257 0
M  V30 917 C 79.5044 5.05075 -0.150656 0
M  V30 918 C 81.7024 5.11891 -0.497166 0
M  V30 919 N 79.6844 6.03104 -1.14626 0
M  V30 920 C 81.0554 6.05216 -1.34588 0
M  V30 921 C 83.1104 4.9479 -0.55559 0
M  V30 922 C 81.8134 6.83277 -2.24778 0
M  V30 923 C 83.8394 5.73477 -1.44492 0
M  V30 924 C 83.2014 6.66433 -2.28136 0
M  V30 925 H 79.3004 0.756479 0.198149 0
M  V30 926 H 81.8844 1.94316 -0.122229 0
M  V30 927 H 80.0554 3.34685 1.97079 0
M  V30 928 H 81.7874 3.57994 1.88739 0
M  V30 929 H 78.5424 4.7305 0.228094 0
M  V30 930 H 78.9664 6.56813 -1.64092 0
M  V30 931 H 83.6084 4.2273 0.0768625 0
M  V30 932 H 81.3264 7.54629 -2.89069 0
M  V30 933 H 84.9124 5.62273 -1.49468 0
M  V30 934 H 83.7924 7.26258 -2.95835 0
M  V30 935 N 81.2955 -0.223234 1.56011 0
M  V30 936 C 82.2275 -1.30006 1.88762 0
M  V30 937 C 83.2405 -1.43129 0.775746 0
M  V30 938 O 84.4295 -1.44057 1.05403 0
M  V30 939 C 81.5295 -2.67589 2.07965 0
M  V30 940 C 80.7025 -2.76434 3.38973 0
M  V30 941 C 79.7615 -3.95019 3.47629 0
M  V30 942 O 78.7875 -3.83436 4.20672 0
M  V30 943 N 79.9895 -5.09249 2.78649 0
M  V30 944 H 82.7545 -1.02238 2.81722 0
M  V30 945 H 80.3155 -0.413278 1.56536 0
M  V30 946 H 82.3075 -3.45297 2.11073 0
M  V30 947 H 80.8775 -2.87964 1.21638 0
M  V30 948 H 80.0975 -1.85216 3.47978 0
M  V30 949 H 81.3855 -2.79313 4.25278 0
M  V30 950 H 80.7835 -5.21556 2.19081 0
M  V30 951 H 79.3405 -5.85007 2.8742 0
M  V30 952 N 82.7736 -1.49793 -0.48987 0
M  V30 953 C 84.0226 -1.59085 -1.23995 0
M  V30 954 C 84.3356 -0.287907 -1.9347 0
M  V30 955 O 85.5416 -0.259506 -2.70257 0
M  V30 956 C 83.9976 -2.80736 -2.252 0
M  V30 957 C 83.6056 -4.17833 -1.61614 0
M  V30 958 C 85.3496 -2.99364 -3.00967 0
M  V30 959 C 83.2566 -5.30693 -2.60996 0
M  V30 960 H 82.1866 -0.592372 -0.466488 0
M  V30 961 H 84.8376 -1.76197 -0.51252 0
M  V30 962 H 83.2196 -2.57142 -3.01154 0
M  V30 963 H 84.3936 -4.51608 -0.915774 0
M  V30 964 H 82.7086 -4.04656 -0.981977 0
M  V30 965 H 85.3056 -3.80851 -3.75308 0
M  V30 966 H 85.6486 -2.10356 -3.59244 0
M  V30 967 H 86.1816 -3.2305 -2.32128 0
M  V30 968 H 82.9206 -6.21796 -2.07485 0
M  V30 969 H 82.4406 -5.01359 -3.2924 0
M  V30 970 H 84.1196 -5.6049 -3.23202 0
M  V30 971 N 84.2517 0.741722 -1.39055 0
M  V30 972 C 85.5007 1.49656 -1.35225 0
M  V30 973 C 85.8137 1.95533 0.0512708 0
M  V30 974 O 87.0197 2.7067 0.212138 0
M  V30 975 C 85.4757 2.70389 -2.37525 0
M  V30 976 C 85.0837 2.31489 -3.83558 0
M  V30 977 C 86.8277 3.48236 -2.42759 0
M  V30 978 C 84.7347 3.48903 -4.77515 0
M  V30 979 H 83.6647 0.56197 -0.502699 0
M  V30 980 H 86.3157 0.809727 -1.64668 0
M  V30 981 H 84.6977 3.41113 -2.01142 0
M  V30 982 H 85.8717 1.68354 -4.28945 0
M  V30 983 H 84.1867 1.66749 -3.81554 0
M  V30 984 H 86.7837 4.35558 -3.1015 0
M  V30 985 H 87.1267 3.90229 -1.45008 0
M  V30 986 H 87.6597 2.84535 -2.78002 0
M  V30 987 H 84.3987 3.11966 -5.76504 0
M  V30 988 H 83.9187 4.11041 -4.36813 0
M  V30 989 H 85.5977 4.15328 -4.96096 0
M  V30 990 N 85.7298 1.2412 0.971189 0
M  V30 991 C 87.1458 1.00584 1.23916 0
M  V30 992 C 87.3458 -0.287481 1.99439 0
M  V30 993 O 86.4018 -1.00454 2.31658 0
M  V30 994 C 87.7148 2.21864 2.0297 0
M  V30 995 C 89.2628 2.26452 2.16076 0
M  V30 996 C 89.7378 3.47343 2.98524 0
M  V30 997 N 91.2288 3.47639 3.06107 0
M  V30 998 C 91.9638 4.37837 3.70251 0
M  V30 999 N 91.4598 5.38286 4.36142 0
M  V30 1000 N 93.2528 4.25558 3.67228 0
M  V30 1001 H 85.4038 2.07236 0.465499 0
M  V30 1002 H 87.6668 0.909236 0.268315 0
M  V30 1003 H 87.3728 3.15771 1.54861 0
M  V30 1004 H 87.2468 2.23698 3.03709 0
M  V30 1005 H 89.6338 1.33078 2.6339 0
M  V30 1006 H 89.7148 2.28645 1.14696 0
M  V30 1007 H 89.3588 4.41029 2.51905 0
M  V30 1008 H 89.2888 3.42393 4.00093 0
M  V30 1009 H 91.7798 2.74966 2.59233 0
M  V30 1010 H 92.0928 6.03352 4.82894 0
M  V30 1011 H 90.4378 5.42176 4.34822 0
M  V30 1012 H 93.6288 3.46322 3.14927 0
M  V30 1013 H 93.8018 4.96054 4.16935 0
M  V30 1014 N 87.2079 -1.17134 1.05439 0
M  V30 1015 C 88.4849 -1.83411 0.679699 0
M  V30 1016 C 88.8649 -1.9368 -0.839726 0
M  V30 1017 O 88.2129 -1.47325 -1.74664 0
M  V30 1018 C 88.4229 -3.20918 1.37159 0
M  V30 1019 C 89.7709 -3.96796 1.51123 0
M  V30 1020 O 90.7949 -3.30406 1.3308 0
M  V30 1021 O 89.6539 -5.15778 1.80651 0
M  V30 1022 H 86.7479 -0.79154 0.239569 0
M  V30 1023 H 89.2939 -1.24411 1.15413 0
M  V30 1024 H 88.0659 -3.08428 2.40807 0
M  V30 1025 H 87.6889 -3.87587 0.886674 0
M  V30 1026 N 88.686 -0.835752 -1.33615 0
M  V30 1027 C 89.934 -0.429109 -1.97492 0
M  V30 1028 C 90.255 1.01433 -1.66543 0
M  V30 1029 O 89.525 1.70611 -0.962744 0
M  V30 1030 H 88.105 -0.155686 -0.730596 0
M  V30 1031 H 90.767 -1.06802 -1.63031 0
M  V30 1032 H 89.863 -0.55861 -3.0706 0
M  V30 1033 N 90.1641 1.46063 -0.591896 0
M  V30 1034 C 91.0741 2.34192 0.13831 0
M  V30 1035 C 92.0901 1.50305 0.876608 0
M  V30 1036 O 93.2661 1.8315 0.837728 0
M  V30 1037 C 90.3311 3.27656 1.13326 0
M  V30 1038 C 89.3921 4.27445 0.39863 0
M  V30 1039 C 88.6251 5.16443 1.34618 0
M  V30 1040 O 88.8481 5.08553 2.58321 0
M  V30 1041 O 87.7821 5.95843 0.851768 0
M  V30 1042 H 91.6081 2.98002 -0.58552 0
M  V30 1043 H 89.1931 1.45188 -0.352239 0
M  V30 1044 H 91.0751 3.85291 1.70671 0
M  V30 1045 H 89.7501 2.6643 1.83839 0
M  V30 1046 H 88.6571 3.73471 -0.216895 0
M  V30 1047 H 89.9901 4.91482 -0.265709 0
M  V30 1048 N 91.6422 0.330177 1.54103 0
M  V30 1049 C 92.5752 -0.575477 2.20825 0
M  V30 1050 C 93.5532 -1.11064 1.18758 0
M  V30 1051 O 94.7372 -1.17341 1.47524 0
M  V30 1052 C 91.8642 -1.79032 2.87516 0
M  V30 1053 C 90.9102 -1.38581 4.03358 0
M  V30 1054 S 91.7432 -0.416911 5.33875 0
M  V30 1055 C 92.8992 -1.63889 6.04062 0
M  V30 1056 H 93.1322 -0.00872114 2.97299 0
M  V30 1057 H 90.6652 0.114254 1.53977 0
M  V30 1058 H 92.6232 -2.48734 3.2656 0
M  V30 1059 H 91.2842 -2.32827 2.10832 0
M  V30 1060 H 90.4772 -2.29123 4.48908 0
M  V30 1061 H 90.0792 -0.768419 3.66021 0
M  V30 1062 H 92.3712 -2.57536 6.26643 0
M  V30 1063 H 93.3142 -1.22542 6.97416 0
M  V30 1064 H 93.7222 -1.82887 5.34053 0
M  V30 1065 N 93.1203 -1.57491 0.0584922 0
M  V30 1066 C 94.5313 -1.80526 -0.476138 0
M  V30 1067 C 94.8823 -0.971334 -1.70469 0
M  V30 1068 O 94.0073 -0.190012 -2.15564 0
M  V30 1069 C 94.6023 -3.27424 -0.870587 0
M  V30 1070 C 93.1613 -3.51351 -1.35015 0
M  V30 1071 C 92.3083 -2.75343 -0.32887 0
M  V30 1072 H 95.2593 -1.56133 0.284312 0
M  V30 1073 H 95.2803 -3.38745 -1.73299 0
M  V30 1074 H 94.7923 -3.88093 0.0237627 0
M  V30 1075 H 92.8933 -2.95971 -2.26345 0
M  V30 1076 H 93.0063 -4.60059 -1.33726 0
M  V30 1077 H 91.3703 -2.417 -0.803321 0
M  V30 1078 H 92.1533 -3.38743 0.557521 0
M  V30 1079 N 94.5984 0.214957 -1.56127 0
M  V30 1080 C 95.5454 1.26642 -1.92952 0
M  V30 1081 C 96.5154 1.46244 -0.78753 0
M  V30 1082 O 97.7004 1.59704 -1.04399 0
M  V30 1083 C 94.8404 2.6104 -2.25726 0
M  V30 1084 C 93.9534 2.49183 -3.52891 0
M  V30 1085 C 93.0884 3.76149 -3.7508 0
M  V30 1086 C 92.1274 3.59041 -4.95738 0
M  V30 1087 N 91.2644 4.77972 -5.14283 0
M  V30 1088 H 96.1044 0.945384 -2.82607 0
M  V30 1089 H 93.6414 0.455489 -1.3987 0
M  V30 1090 H 95.5994 3.39313 -2.42739 0
M  V30 1091 H 94.2294 2.91227 -1.39236 0
M  V30 1092 H 93.2814 1.6231 -3.44034 0
M  V30 1093 H 94.5934 2.32466 -4.41318 0
M  V30 1094 H 93.7474 4.62865 -3.92226 0
M  V30 1095 H 92.4864 3.95799 -2.84947 0
M  V30 1096 H 91.4914 2.7071 -4.78535 0
M  V30 1097 H 92.7164 3.40856 -5.87362 0
M  V30 1098 H 90.6624 4.97923 -4.27093 0
M  V30 1099 H 90.5794 4.64006 -5.96853 0
M  V30 1100 H 91.8474 5.66096 -5.35869 0
M  V30 1101 N 96.0765 1.50051 0.48192 0
M  V30 1102 C 97.3045 1.64237 1.25832 0
M  V30 1103 C 97.7195 0.321336 1.86045 0
M  V30 1104 O 97.0765 -0.695478 1.68729 0
M  V30 1105 C 97.1275 2.72548 2.37487 0
M  V30 1106 O 96.8485 3.99529 1.79745 0
M  V30 1107 C 98.3495 2.9761 3.28547 0
M  V30 1108 H 95.5695 0.55237 0.380957 0
M  V30 1109 H 98.1135 1.96207 0.576467 0
M  V30 1110 H 96.2685 2.43303 3.01467 0
M  V30 1111 H 96.6825 4.59342 2.5319 0
M  V30 1112 H 98.1565 3.77084 4.03127 0
M  V30 1113 H 98.6335 2.0826 3.86684 0
M  V30 1114 H 99.2395 3.28345 2.70314 0
M  V30 1115 N 97.5546 -0.734337 1.39446 0
M  V30 1116 C 98.4846 -1.86155 1.40955 0
M  V30 1117 C 99.4656 -1.67898 0.272827 0
M  V30 1118 O 100.651 -1.88207 0.478743 0
M  V30 1119 C 97.7806 -3.23912 1.25294 0
M  V30 1120 C 96.7346 -3.56808 2.36373 0
M  V30 1121 C 96.0606 -4.93508 2.058 0
M  V30 1122 C 97.3606 -3.59713 3.78687 0
M  V30 1123 H 99.0546 -1.8515 2.35287 0
M  V30 1124 H 96.6006 -0.889367 1.13253 0
M  V30 1125 H 98.5536 -4.02443 1.2497 0
M  V30 1126 H 97.2776 -3.25446 0.274308 0
M  V30 1127 H 95.9366 -2.80606 2.35914 0
M  V30 1128 H 95.5846 -4.91623 1.06374 0
M  V30 1129 H 95.2846 -5.16486 2.80208 0
M  V30 1130 H 96.8086 -5.74396 2.07128 0
M  V30 1131 H 98.2226 -4.2832 3.81071 0
M  V30 1132 H 96.6196 -3.94209 4.52459 0
M  V30 1133 H 97.6896 -2.59504 4.09617 0
M  V30 1134 N 99.0327 -1.24633 -0.964593 0
M  V30 1135 C 99.9957 -1.0424 -2.04124 0
M  V30 1136 C 100.996 0.00137563 -1.608 0
M  V30 1137 O 102.186 -0.239883 -1.7254 0
M  V30 1138 C 99.3177 -0.580588 -3.3592 0
M  V30 1139 H 100.511 -1.99803 -2.23649 0
M  V30 1140 H 98.0637 -1.06899 -1.14027 0
M  V30 1141 H 98.7987 0.3781 -3.22088 0
M  V30 1142 H 98.5837 -1.33398 -3.6871 0
M  V30 1143 H 100.074 -0.459034 -4.15069 0
M  V30 1144 N 100.511 1.16574 -1.06058 0
M  V30 1145 C 101.751 1.88723 -0.78504 0
M  V30 1146 C 102.115 1.79706 0.676006 0
M  V30 1147 O 103.316 2.46757 1.06603 0
M  V30 1148 C 101.587 3.34338 -1.26304 0
M  V30 1149 S 103.146 4.24366 -1.1162 0
M  V30 1150 H 99.9638 0.651448 -0.284846 0
M  V30 1151 H 102.566 1.40732 -1.35701 0
M  V30 1152 H 101.27 3.38439 -2.32136 0
M  V30 1153 H 100.801 3.87378 -0.685719 0
M  V30 1154 H 102.816 4.96179 -0.0456539 0
M  V30 1155 N 101.989 0.842826 1.3317 0
M  V30 1156 C 103.217 0.454055 2.01856 0
M  V30 1157 C 103.632 -0.94587 1.63397 0
M  V30 1158 O 102.989 -1.61534 0.849302 0
M  V30 1159 C 103.04 0.569715 3.56982 0
M  V30 1160 O 102.761 1.91448 3.94055 0
M  V30 1161 C 104.262 0.178412 4.42941 0
M  V30 1162 H 101.482 0.17979 0.646465 0
M  V30 1163 H 104.026 1.1365 1.70012 0
M  V30 1164 H 102.181 -0.0648587 3.87346 0
M  V30 1165 H 102.595 1.90282 4.88767 0
M  V30 1166 H 104.069 0.310376 5.51127 0
M  V30 1167 H 104.546 -0.880056 4.30293 0
M  V30 1168 H 105.152 0.787579 4.17944 0
M  V30 1169 N 103.467 -1.45747 0.599634 0
M  V30 1170 C 104.377 -2.34262 -0.125888 0
M  V30 1171 C 105.393 -1.50768 -0.868625 0
M  V30 1172 O 106.569 -1.83592 -0.828003 0
M  V30 1173 C 103.634 -3.28252 -1.11587 0
M  V30 1174 C 102.695 -4.27651 -0.375956 0
M  V30 1175 C 101.928 -5.1715 -1.31877 0
M  V30 1176 O 102.151 -5.09916 -2.55621 0
M  V30 1177 O 101.085 -5.96286 -0.820157 0
M  V30 1178 H 104.911 -2.97688 0.601315 0
M  V30 1179 H 102.496 -1.44999 0.359934 0
M  V30 1180 H 104.378 -3.86191 -1.68626 0
M  V30 1181 H 103.053 -2.67401 -1.82424 0
M  V30 1182 H 101.96 -3.7335 0.236698 0
M  V30 1183 H 103.293 -4.91334 0.29177 0
M  V30 1184 N 104.945 -0.338344 -1.53925 0
M  V30 1185 C 106.361 0.0137736 -1.59594 0
M  V30 1186 C 106.561 1.49186 -1.35447 0
M  V30 1187 O 105.617 2.24987 -1.14616 0
M  V30 1188 C 106.93 -0.41773 -2.97784 0
M  V30 1189 C 108.478 -0.369633 -3.1081 0
M  V30 1190 C 108.953 -0.776524 -4.51369 0
M  V30 1191 N 110.444 -0.730506 -4.57403 0
M  V30 1192 C 111.179 -1.01736 -5.64303 0
M  V30 1193 N 110.675 -1.3721 -6.79077 0
M  V30 1194 N 112.468 -0.941942 -5.54151 0
M  V30 1195 H 104.619 -1.3012 -1.67876 0
M  V30 1196 H 106.882 -0.530082 -0.78595 0
M  V30 1197 H 106.588 -1.44811 -3.20504 0
M  V30 1198 H 106.462 0.209729 -3.76616 0
M  V30 1199 H 108.849 0.651568 -2.87817 0
M  V30 1200 H 108.93 -1.03223 -2.34049 0
M  V30 1201 H 108.574 -1.79571 -4.75096 0
M  V30 1202 H 108.504 -0.0914649 -5.26521 0
M  V30 1203 H 110.995 -0.468783 -3.74981 0
M  V30 1204 H 111.308 -1.57597 -7.5656 0
M  V30 1205 H 109.653 -1.4105 -6.80536 0
M  V30 1206 H 112.844 -0.664184 -4.63364 0
M  V30 1207 H 113.017 -1.16884 -6.37371 0
M  V30 1208 N 106.423 1.57458 -0.0668435 0
M  V30 1209 C 107.834 1.80776 0.466558 0
M  V30 1210 C 108.185 0.980361 1.69951 0
M  V30 1211 O 107.31 0.201441 2.1546 0
M  V30 1212 C 107.905 3.27881 0.85321 0
M  V30 1213 C 106.464 3.52062 1.3315 0
M  V30 1214 C 105.611 2.75513 0.314264 0
M  V30 1215 H 108.562 1.5598 -0.292588 0
M  V30 1216 H 108.583 3.39659 1.715 0
M  V30 1217 H 108.095 3.88075 -0.0443439 0
M  V30 1218 H 106.196 2.97167 2.24772 0
M  V30 1219 H 106.309 4.60762 1.31285 0
M  V30 1220 H 104.673 2.42123 0.790492 0
M  V30 1221 H 105.456 3.38442 -0.575477 0
M  V30 1222 N 107.901 -0.206675 1.56239 0
M  V30 1223 C 109.126 -0.949474 1.8439 0
M  V30 1224 C 109.551 -1.76549 0.649016 0
M  V30 1225 O 108.909 -1.76782 -0.402231 0
M  V30 1226 C 108.957 -1.83078 3.10668 0
M  V30 1227 O 108.061 -2.9281 2.90407 0
M  V30 1228 H 107.402 -0.268033 0.607499 0
M  V30 1229 H 109.932 -0.215488 2.03462 0
M  V30 1230 H 109.942 -2.2377 3.41161 0
M  V30 1231 H 108.617 -1.23112 3.97261 0
M  V30 1232 H 107.194 -2.55956 2.71184 0
M  V30 1233 N 109.379 -1.50304 -0.473955 0
M  V30 1234 C 110.326 -1.68959 -1.57231 0
M  V30 1235 C 111.296 -0.530899 -1.57387 0
M  V30 1236 O 112.481 -0.761133 -1.74961 0
M  V30 1237 C 109.621 -1.7871 -2.95223 0
M  V30 1238 C 108.734 -3.06061 -3.04878 0
M  V30 1239 C 107.869 -3.06626 -4.33767 0
M  V30 1240 C 106.908 -4.28443 -4.37154 0
M  V30 1241 N 106.045 -4.26763 -5.5751 0
M  V30 1242 H 110.885 -2.6273 -1.40631 0
M  V30 1243 H 108.422 -1.30241 -0.683789 0
M  V30 1244 H 110.38 -1.82344 -3.75242 0
M  V30 1245 H 109.01 -0.883806 -3.10465 0
M  V30 1246 H 108.062 -3.11911 -2.17751 0
M  V30 1247 H 109.374 -3.96039 -3.0324 0
M  V30 1248 H 108.528 -3.08973 -5.22131 0
M  V30 1249 H 107.267 -2.14473 -4.3801 0
M  V30 1250 H 106.272 -4.2631 -3.47188 0
M  V30 1251 H 107.497 -5.2182 -4.34605 0
M  V30 1252 H 105.443 -3.37462 -5.62544 0
M  V30 1253 H 105.36 -5.10507 -5.57601 0
M  V30 1254 H 106.628 -4.33253 -6.48006 0
M  V30 1255 N 110.857 0.726932 -1.39834 0
M  V30 1256 C 111.805 1.86235 -1.39353 0
M  V30 1257 C 112.799 1.67144 -0.275555 0
M  V30 1258 O 114.005 1.74387 -0.44601 0
M  V30 1259 H 110.38 0.613174 -0.43534 0
M  V30 1260 H 112.351 1.83756 -2.35109 0
M  V30 1261 C 111.1 3.23995 -1.26185 0
M  V30 1262 H 110.423 3.39285 -2.11484 0
M  V30 1263 H 111.863 4.03609 -1.29907 0
M  V30 1264 C 110.322 3.36888 0.0290018 0
M  V30 1265 O 110.852 3.89152 0.99619 0
M  V30 1266 N 109.058 2.90446 0.0947437 0
M  V30 1267 H 108.605 2.48102 -0.693035 0
M  V30 1268 H 108.563 2.99451 0.957932 0
M  V30 1269 N 112.336 1.25143 0.95797 0
M  V30 1270 C 113.561 1.12521 1.74223 0
M  V30 1271 C 113.986 -0.317402 1.85403 0
M  V30 1272 O 113.344 -1.2299 1.33204 0
M  V30 1273 C 113.392 1.78062 3.1357 0
M  V30 1274 O 112.496 1.058 3.98598 0
M  V30 1275 H 111.837 0.39304 0.535178 0
M  V30 1276 H 114.367 1.65641 1.201 0
M  V30 1277 H 114.377 1.84213 3.64046 0
M  V30 1278 H 113.052 2.83021 3.04749 0
M  V30 1279 H 111.629 1.07506 3.57067 0
M  V30 1280 N 113.814 -1.1601 1.06675 0
M  V30 1281 C 114.764 -2.18512 0.650888 0
M  V30 1282 C 115.748 -1.57677 -0.320441 0
M  V30 1283 O 116.94 -1.76482 -0.135266 0
M  V30 1284 C 114.069 -3.43273 0.0429255 0
M  V30 1285 C 113.155 -4.11176 1.03898 0
M  V30 1286 N 113.546 -4.54672 2.216 0
M  V30 1287 C 111.844 -4.37417 0.870779 0
M  V30 1288 C 112.545 -5.07248 2.84736 0
M  V30 1289 N 111.521 -5.0037 2.12441 0
M  V30 1290 H 115.323 -2.49863 1.54745 0
M  V30 1291 H 112.837 -1.32503 0.938975 0
M  V30 1292 H 114.834 -4.16006 -0.272857 0
M  V30 1293 H 113.494 -3.13408 -0.84884 0
M  V30 1294 H 114.505 -4.4828 2.59356 0
M  V30 1295 H 111.182 -4.17488 0.0313293 0
M  V30 1296 H 112.572 -5.50912 3.84636 0
M  V30 1297 N 115.292 -0.849877 -1.32721 0
M  V30 1298 C 116.703 -0.506188 -1.79707 0
M  V30 1299 C 117.054 0.975627 -1.70223 0
M  V30 1300 O 116.179 1.76078 -1.25799 0
M  V30 1301 C 116.774 -0.912044 -3.26293 0
M  V30 1302 C 115.333 -0.620326 -3.71253 0
M  V30 1303 C 114.48 -1.11439 -2.53922 0
M  V30 1304 H 117.431 -1.03754 -1.20087 0
M  V30 1305 H 117.452 -0.226493 -3.79825 0
M  V30 1306 H 116.964 -1.99057 -3.33164 0
M  V30 1307 H 115.065 0.447674 -3.69901 0
M  V30 1308 H 115.178 -1.18327 -4.64258 0
M  V30 1309 H 113.542 -0.534834 -2.49021 0
M  V30 1310 H 114.325 -2.19992 -2.6355 0
M  V30 1311 N 116.77 1.45427 -0.607355 0
M  V30 1312 C 118.016 2.0254 -0.102607 0
M  V30 1313 C 118.349 1.47478 1.26348 0
M  V30 1314 O 117.624 0.64939 1.83339 0
M  V30 1315 C 117.907 3.60044 -0.0634347 0
M  V30 1316 C 117.76 4.2544 -1.46017 0
M  V30 1317 C 119.079 4.35646 0.624514 0
M  V30 1318 H 116.198 0.73598 -0.0387607 0
M  V30 1319 H 118.84 1.73284 -0.779282 0
M  V30 1320 H 116.99 3.85101 0.512808 0
M  V30 1321 H 118.662 4.11569 -2.08347 0
M  V30 1322 H 116.905 3.83849 -2.02094 0
M  V30 1323 H 117.576 5.34342 -1.385 0
M  V30 1324 H 120.052 4.15882 0.134723 0
M  V30 1325 H 118.928 5.45376 0.621028 0
M  V30 1326 H 119.189 4.08501 1.69055 0
M  V30 1327 N 118.248 0.346503 1.53744 0
M  V30 1328 C 119.18 -0.543316 2.22667 0
M  V30 1329 C 120.193 -1.06159 1.23427 0
M  V30 1330 O 121.382 -0.971235 1.49764 0
M  V30 1331 C 118.482 -1.76076 2.89569 0
M  V30 1332 C 117.655 -1.37727 4.15151 0
M  V30 1333 C 116.714 -2.45471 4.65436 0
M  V30 1334 O 115.74 -2.08655 5.29577 0
M  V30 1335 N 116.942 -3.7677 4.41616 0
M  V30 1336 H 119.707 0.0469703 2.99663 0
M  V30 1337 H 117.268 0.170766 1.60997 0
M  V30 1338 H 119.26 -2.47593 3.20125 0
M  V30 1339 H 117.83 -2.25835 2.16142 0
M  V30 1340 H 117.05 -0.492746 3.91108 0
M  V30 1341 H 118.338 -1.09708 4.96832 0
M  V30 1342 H 117.736 -4.09467 3.90325 0
M  V30 1343 H 116.293 -4.44448 4.7677 0
M  V30 1344 N 119.726 -1.57421 0.075193 0
M  V30 1345 C 120.972 -1.93905 -0.594025 0
M  V30 1346 C 121.305 -0.955701 -1.69056 0
M  V30 1347 O 120.58 0.0145373 -1.94495 0
M  V30 1348 C 120.863 -3.40638 -1.1678 0
M  V30 1349 C 120.716 -4.49733 -0.0776792 0
M  V30 1350 C 122.035 -3.88259 -2.07228 0
M  V30 1351 H 119.154 -0.705105 -0.214466 0
M  V30 1352 H 121.796 -1.8947 0.141854 0
M  V30 1353 H 119.946 -3.44549 -1.79494 0
M  V30 1354 H 121.618 -4.57942 0.555573 0
M  V30 1355 H 119.861 -4.29751 0.591286 0
M  V30 1356 H 120.532 -5.49549 -0.519603 0
M  V30 1357 H 123.008 -3.86376 -1.54445 0
M  V30 1358 H 121.884 -4.91533 -2.44308 0
M  V30 1359 H 122.145 -3.26396 -2.98191 0
M  V30 1360 N 121.204 0.198386 -1.56346 0
M  V30 1361 C 122.452 0.91747 -1.80075 0
M  V30 1362 C 122.773 1.83929 -0.647692 0
M  V30 1363 O 122.043 1.93029 0.334166 0
M  V30 1364 H 120.623 0.341774 -0.664228 0
M  V30 1365 H 123.285 0.204684 -1.93822 0
M  V30 1366 H 122.381 1.51055 -2.7311 0
M  V30 1367 N 122.682 1.50554 0.465978 0
M  V30 1368 C 124.098 1.38093 0.800154 0
M  V30 1369 C 124.298 0.440988 1.96615 0
M  V30 1370 O 123.354 -0.114499 2.5224 0
M  V30 1371 C 124.667 2.79565 1.10742 0
M  V30 1372 C 126.215 2.88516 1.21357 0
M  V30 1373 C 126.69 4.30833 1.55393 0
M  V30 1374 N 128.181 4.33807 1.62375 0
M  V30 1375 C 128.916 5.40927 1.90225 0
M  V30 1376 N 128.412 6.58247 2.16062 0
M  V30 1377 N 130.205 5.28376 1.9177 0
M  V30 1378 H 122.356 2.10237 -0.302366 0
M  V30 1379 H 124.619 0.945203 -0.0727746 0
M  V30 1380 H 124.325 3.50208 0.323661 0
M  V30 1381 H 124.199 3.17125 2.04234 0
M  V30 1382 H 126.586 2.1809 1.98799 0
M  V30 1383 H 126.667 2.54492 0.258321 0
M  V30 1384 H 126.311 5.01799 0.784889 0
M  V30 1385 H 126.241 4.62347 2.52076 0
M  V30 1386 H 128.732 3.49212 1.44427 0
M  V30 1387 H 129.045 7.3569 2.36601 0
M  V30 1388 H 127.39 6.61413 2.13444 0
M  V30 1389 H 130.581 4.35715 1.71085 0
M  V30 1390 H 130.754 6.11944 2.13139 0
M  V30 1391 N 124.16 -0.719506 1.40217 0
M  V30 1392 C 125.409 -1.47486 1.37589 0
M  V30 1393 C 125.722 -1.9559 -0.0201568 0
M  V30 1394 O 126.928 -2.70973 -0.169049 0
M  V30 1395 C 125.384 -2.66575 2.41796 0
M  V30 1396 C 124.992 -2.25358 3.87192 0
M  V30 1397 C 126.736 -3.4433 2.48269 0
M  V30 1398 C 124.643 -3.41262 4.83005 0
M  V30 1399 H 123.573 -0.553901 0.511576 0
M  V30 1400 H 126.224 -0.783427 1.65936 0
M  V30 1401 H 124.606 -3.3787 2.06543 0
M  V30 1402 H 125.78 -1.61509 4.31569 0
M  V30 1403 H 124.095 -1.60657 3.84159 0
M  V30 1404 H 126.692 -4.30569 3.17041 0
M  V30 1405 H 127.035 -3.87872 1.51198 0
M  V30 1406 H 127.568 -2.80076 2.82493 0
M  V30 1407 H 124.307 -3.02755 5.81394 0
M  V30 1408 H 123.827 -4.0404 4.43297 0
M  V30 1409 H 125.506 -4.07383 5.02641 0
M  V30 1410 N 125.638 -1.25649 -0.95132 0
M  V30 1411 C 126.887 -1.09988 -1.69073 0
M  V30 1412 C 127.2 0.358355 -1.92289 0
M  V30 1413 O 128.406 0.635466 -2.63958 0
M  V30 1414 C 126.862 -1.92012 -3.044 0
M  V30 1415 C 126.47 -3.42347 -2.88968 0
M  V30 1416 C 128.214 -1.8493 -3.82101 0
M  V30 1417 C 126.121 -4.16655 -4.19705 0
M  V30 1418 H 125.051 -0.407993 -0.63408 0
M  V30 1419 H 127.702 -1.49873 -1.05879 0
M  V30 1420 H 126.084 -1.44952 -3.68517 0
M  V30 1421 H 127.258 -3.97104 -2.33762 0
M  V30 1422 H 125.573 -3.50557 -2.24719 0
M  V30 1423 H 128.17 -2.37739 -4.78941 0
M  V30 1424 H 128.513 -0.817883 -4.08187 0
M  V30 1425 H 129.046 -2.29758 -3.2474 0
M  V30 1426 H 125.785 -5.20224 -3.98807 0
M  V30 1427 H 125.305 -3.66681 -4.74663 0
M  V30 1428 H 126.984 -4.24551 -4.88227 0
M  V30 1429 N 127.117 1.15442 -1.07289 0
M  V30 1430 C 128.047 2.22312 -0.714107 0
M  V30 1431 C 129.028 1.67467 0.298155 0
M  V30 1432 O 130.213 1.93445 0.171048 0
M  V30 1433 C 127.343 3.47124 -0.110448 0
M  V30 1434 C 126.297 4.14926 -1.04979 0
M  V30 1435 C 125.623 5.33807 -0.308924 0
M  V30 1436 C 126.923 4.64762 -2.38314 0
M  V30 1437 H 128.617 2.5258 -1.6076 0
M  V30 1438 H 126.163 1.21404 -0.77441 0
M  V30 1439 H 128.116 4.21124 0.152482 0
M  V30 1440 H 126.84 3.16187 0.81812 0
M  V30 1441 H 125.499 3.42866 -1.29764 0
M  V30 1442 H 125.147 4.99126 0.623084 0
M  V30 1443 H 124.847 5.80113 -0.935036 0
M  V30 1444 H 126.371 6.10576 -0.0537771 0
M  V30 1445 H 127.785 5.30292 -2.1786 0
M  V30 1446 H 126.182 5.21728 -2.96514 0
M  V30 1447 H 127.252 3.80434 -3.00663 0
M  V30 1448 N 128.595 0.856903 1.32268 0
M  V30 1449 C 129.505 0.306131 2.32594 0
M  V30 1450 C 130.521 -0.577209 1.64147 0
M  V30 1451 O 131.697 -0.477043 1.95669 0
M  V30 1452 C 128.762 -0.494561 3.43154 0
M  V30 1453 C 127.823 0.415186 4.27288 0
M  V30 1454 C 127.056 -0.347387 5.32568 0
M  V30 1455 O 127.279 -1.57708 5.48165 0
M  V30 1456 O 126.213 0.287982 6.01211 0
M  V30 1457 H 130.039 1.13737 2.81598 0
M  V30 1458 H 127.624 0.619902 1.35932 0
M  V30 1459 H 129.506 -0.948944 4.10576 0
M  V30 1460 H 128.181 -1.30257 2.96336 0
M  V30 1461 H 127.088 0.917793 3.62667 0
M  V30 1462 H 128.421 1.18844 4.77637 0
M  V30 1463 N 130.073 -1.45103 0.615059 0
M  V30 1464 C 131.35 -1.95549 0.0448276 0
M  V30 1465 C 131.73 -1.55737 -1.4251 0
M  V30 1466 O 131.078 -0.823556 -2.13143 0
M  V30 1467 C 131.288 -3.48098 0.250785 0
M  V30 1468 C 132.636 -4.24384 0.135509 0
M  V30 1469 O 133.66 -3.55738 0.181299 0
M  V30 1470 O 132.519 -5.46493 0.0268878 0
M  V30 1471 H 129.613 -0.8264 -0.0314845 0
M  V30 1472 H 132.159 -1.55232 0.685642 0
M  V30 1473 H 130.931 -3.7007 1.27139 0
M  V30 1474 H 130.554 -3.95323 -0.424937 0
M  V30 1475 N 131.551 -0.354651 -1.53558 0
M  V30 1476 C 132.781 0.239167 -2.05211 0
M  V30 1477 C 133.189 1.43879 -1.22863 0
M  V30 1478 O 132.532 1.81857 -0.259565 0
M  V30 1479 C 132.594 0.707251 -3.52474 0
M  V30 1480 C 132.258 -0.374212 -4.55465 0
M  V30 1481 C 133.255 -1.22054 -5.0537 0
M  V30 1482 C 130.94 -0.531323 -4.99482 0
M  V30 1483 C 132.934 -2.20942 -5.97882 0
M  V30 1484 C 130.621 -1.52358 -5.91802 0
M  V30 1485 C 131.619 -2.36108 -6.40892 0
M  V30 1486 O 131.307 -3.33643 -7.31394 0
M  V30 1487 H 131.039 0.0479716 -0.674296 0
M  V30 1488 H 133.593 -0.508121 -1.99016 0
M  V30 1489 H 131.823 1.50596 -3.56171 0
M  V30 1490 H 133.512 1.22285 -3.87042 0
M  V30 1491 H 134.278 -1.1103 -4.7212 0
M  V30 1492 H 130.157 0.110738 -4.60867 0
M  V30 1493 H 133.701 -2.86348 -6.36121 0
M  V30 1494 H 129.598 -1.63434 -6.24467 0
M  V30 1495 H 130.366 -3.29244 -7.4936 0
M  V30 1496 N 133.029 1.57378 -0.0835403 0
M  V30 1497 C 133.979 2.09916 0.889905 0
M  V30 1498 C 134.963 1.01151 1.25129 0
M  V30 1499 O 136.155 1.27443 1.2283 0
M  V30 1500 C 133.284 2.67379 2.15322 0
M  V30 1501 C 132.37 3.83167 1.81779 0
M  V30 1502 N 132.761 4.91665 1.18739 0
M  V30 1503 C 131.059 3.92685 2.11459 0
M  V30 1504 C 131.76 5.72409 1.0355 0
M  V30 1505 N 130.736 5.21062 1.54906 0
M  V30 1506 H 134.538 2.91188 0.398378 0
M  V30 1507 H 132.052 1.61956 0.120013 0
M  V30 1508 H 134.049 3.0334 2.8599 0
M  V30 1509 H 132.709 1.87558 2.65051 0
M  V30 1510 H 133.72 5.10784 0.855604 0
M  V30 1511 H 130.397 3.23856 2.63483 0
M  V30 1512 H 131.787 6.69699 0.543425 0
M  V30 1513 N 134.507 -0.190092 1.56449 0
M  V30 1514 C 135.784 -0.935886 1.71757 0
M  V30 1515 C 136.164 -2.01173 0.639726 0
M  V30 1516 O 135.512 -2.25827 -0.348502 0
M  V30 1517 C 135.722 -1.51775 3.1427 0
M  V30 1518 C 137.07 -1.99794 3.74656 0
M  V30 1519 O 138.094 -1.61607 3.1743 0
M  V30 1520 O 136.953 -2.70079 4.751 0
M  V30 1521 H 134.047 -0.439229 0.700719 0
M  V30 1522 H 136.593 -0.179395 1.68749 0
M  V30 1523 H 135.365 -0.742505 3.84191 0
M  V30 1524 H 134.988 -2.33894 3.21527 0
M  V30 1525 N 135.985 -1.50799 -0.457987 0
M  V30 1526 C 136.935 -1.67003 -1.55222 0
M  V30 1527 C 137.919 -0.52434 -1.52117 0
M  V30 1528 O 139.111 -0.779345 -1.58919 0
M  V30 1529 C 136.24 -1.77956 -2.93576 0
M  V30 1530 C 135.326 -2.98243 -3.01516 0
M  V30 1531 N 135.717 -4.21732 -2.79241 0
M  V30 1532 C 134.015 -2.97072 -3.32662 0
M  V30 1533 C 134.716 -5.02817 -2.92489 0
M  V30 1534 N 133.692 -4.37038 -3.23262 0
M  V30 1535 H 137.494 -2.60163 -1.36721 0
M  V30 1536 H 135.008 -1.48163 -0.664952 0
M  V30 1537 H 137.005 -1.87671 -3.72271 0
M  V30 1538 H 135.665 -0.859634 -3.13114 0
M  V30 1539 H 136.676 -4.51016 -2.54567 0
M  V30 1540 H 133.353 -2.14631 -3.58106 0
M  V30 1541 H 134.743 -6.11054 -2.79396 0
M  V30 1542 N 137.463 0.71206 -1.40597 0
M  V30 1543 C 138.711 1.46907 -1.38791 0
M  V30 1544 C 139.032 1.94998 0.00780391 0
M  V30 1545 O 138.302 1.70587 0.963174 0
M  V30 1546 H 136.882 0.545043 -0.51082 0
M  V30 1547 H 139.544 0.843882 -1.75683 0
M  V30 1548 H 138.64 2.34021 -2.06496 0
M  V30 1549 N 138.941 1.26152 0.944643 0
M  V30 1550 C 139.871 1.09902 2.06019 0
M  V30 1551 C 140.852 0.00519538 1.70099 0
M  V30 1552 O 142.037 0.176583 1.93396 0
M  V30 1553 C 139.167 0.727562 3.39594 0
M  V30 1554 C 138.121 1.77274 3.89561 0
M  V30 1555 C 137.447 1.25569 5.19747 0
M  V30 1556 C 138.747 3.17357 4.14827 0
M  V30 1557 H 140.441 2.03217 2.19871 0
M  V30 1558 H 137.987 0.978452 1.05652 0
M  V30 1559 H 139.94 0.600777 4.17095 0
M  V30 1560 H 138.664 -0.241287 3.25707 0
M  V30 1561 H 137.323 1.88814 3.14237 0
M  V30 1562 H 136.971 0.276783 5.02238 0
M  V30 1563 H 136.671 1.95433 5.54148 0
M  V30 1564 H 138.195 1.1415 5.99835 0
M  V30 1565 H 139.609 3.08914 4.82954 0
M  V30 1566 H 138.006 3.84781 4.60504 0
M  V30 1567 H 139.076 3.63673 3.20734 0
M  V30 1568 N 140.419 -1.14872 1.07899 0
M  V30 1569 C 141.349 -2.2193 0.725887 0
M  V30 1570 C 142.33 -1.67622 -0.28927 0
M  V30 1571 O 143.515 -1.93533 -0.160787 0
M  V30 1572 C 140.645 -3.47061 0.128856 0
M  V30 1573 C 139.599 -4.14363 1.07178 0
M  V30 1574 C 138.925 -5.33636 0.337229 0
M  V30 1575 C 140.225 -4.63492 2.40775 0
M  V30 1576 H 141.919 -2.51724 1.62097 0
M  V30 1577 H 139.465 -1.20991 0.780838 0
M  V30 1578 H 141.418 -4.21199 -0.130147 0
M  V30 1579 H 140.142 -3.16617 -0.80134 0
M  V30 1580 H 138.801 -3.42173 1.3158 0
M  V30 1581 H 138.449 -4.99449 -0.596606 0
M  V30 1582 H 138.149 -5.79609 0.965788 0
M  V30 1583 H 139.673 -6.10539 0.0861567 0
M  V30 1584 H 141.087 -5.2913 2.20669 0
M  V30 1585 H 139.484 -5.20148 2.99276 0
M  V30 1586 H 140.554 -3.78834 3.02676 0
M  V30 1587 N 141.898 -0.863906 -1.31812 0
M  V30 1588 C 143.314 -0.555004 -1.49639 0
M  V30 1589 C 143.514 0.912266 -1.79666 0
M  V30 1590 O 142.57 1.69479 -1.87171 0
M  V30 1591 C 143.883 -1.44998 -2.63431 0
M  V30 1592 C 145.431 -1.45138 -2.77316 0
M  V30 1593 C 145.906 -2.33179 -3.94197 0
M  V30 1594 N 147.397 -2.31025 -4.01474 0
M  V30 1595 C 148.132 -2.95871 -4.9117 0
M  V30 1596 N 147.628 -3.69863 -5.8581 0
M  V30 1597 N 149.421 -2.85211 -4.84367 0
M  V30 1598 H 141.572 -1.81339 -1.10589 0
M  V30 1599 H 143.835 -0.77505 -0.545895 0
M  V30 1600 H 143.541 -2.49377 -2.48 0
M  V30 1601 H 143.415 -1.14409 -3.59431 0
M  V30 1602 H 145.802 -0.415201 -2.92164 0
M  V30 1603 H 145.883 -1.79747 -1.82001 0
M  V30 1604 H 145.527 -3.3687 -3.80107 0
M  V30 1605 H 145.457 -1.95897 -4.88807 0
M  V30 1606 H 147.948 -1.77238 -3.33759 0
M  V30 1607 H 148.261 -4.16486 -6.50968 0
M  V30 1608 H 146.606 -3.73971 -5.85808 0
M  V30 1609 H 149.797 -2.26948 -4.09405 0
M  V30 1610 H 149.97 -3.36027 -5.54066 0
M  V30 1611 N 143.376 1.44774 -0.622745 0
M  V30 1612 C 144.622 2.0242 -0.124083 0
M  V30 1613 C 144.955 1.4881 1.24777 0
M  V30 1614 O 144.23 0.668799 1.8264 0
M  V30 1615 C 144.513 3.59957 -0.101619 0
M  V30 1616 C 144.366 4.23867 -1.50521 0
M  V30 1617 C 145.685 4.36284 0.578272 0
M  V30 1618 H 142.804 0.735528 -0.0465645 0
M  V30 1619 H 145.446 1.72447 -0.797617 0
M  V30 1620 H 143.596 3.85623 0.471934 0
M  V30 1621 H 145.268 4.09336 -2.12701 0
M  V30 1622 H 143.511 3.81684 -2.06154 0
M  V30 1623 H 144.182 5.32843 -1.4416 0
M  V30 1624 H 146.658 4.16001 0.0906057 0
M  V30 1625 H 145.534 5.46004 0.563149 0
M  V30 1626 H 145.795 4.10271 1.64713 0
M  V30 1627 N 144.854 0.36279 1.53368 0
M  V30 1628 C 146.27 0.0116182 1.59596 0
M  V30 1629 C 146.47 -1.47012 1.37803 0
M  V30 1630 O 145.526 -2.23136 1.18181 0
M  V30 1631 C 146.839 0.465052 2.97082 0
M  V30 1632 C 148.387 0.419033 3.10182 0
M  V30 1633 C 148.862 0.848235 4.50077 0
M  V30 1634 N 150.353 0.803183 4.56183 0
M  V30 1635 C 151.088 1.107 5.62613 0
M  V30 1636 N 150.584 1.47996 6.76808 0
M  V30 1637 N 152.377 1.02998 5.52583 0
M  V30 1638 H 144.528 1.32775 1.65785 0
M  V30 1639 H 146.791 0.542518 0.777417 0
M  V30 1640 H 146.497 1.49892 3.18159 0
M  V30 1641 H 146.371 -0.149786 3.76902 0
M  V30 1642 H 148.758 -0.605696 2.88817 0
M  V30 1643 H 148.839 1.06933 2.32377 0
M  V30 1644 H 148.483 1.87107 4.7218 0
M  V30 1645 H 148.413 0.175218 5.26308 0
M  V30 1646 H 150.904 0.52838 3.74188 0
M  V30 1647 H 151.217 1.69613 7.53957 0
M  V30 1648 H 149.562 1.51859 6.78206 0
M  V30 1649 H 152.753 0.737817 4.62249 0
M  V30 1650 H 152.926 1.2701 6.35431 0
M  V30 1651 N 146.332 -1.57332 0.0918853 0
M  V30 1652 C 147.265 -2.09499 -0.904735 0
M  V30 1653 C 148.243 -1.00479 -1.27839 0
M  V30 1654 O 149.427 -1.27954 -1.38419 0
M  V30 1655 C 146.554 -2.56931 -2.2069 0
M  V30 1656 C 145.6 -3.77579 -1.98334 0
M  V30 1657 S 146.433 -5.21317 -1.22428 0
M  V30 1658 C 147.589 -5.72097 -2.53882 0
M  V30 1659 H 147.822 -2.93705 -0.460922 0
M  V30 1660 H 145.355 -1.53923 -0.121332 0
M  V30 1661 H 147.313 -2.84917 -2.95521 0
M  V30 1662 H 145.974 -1.72956 -2.62192 0
M  V30 1663 H 145.167 -4.08824 -2.94752 0
M  V30 1664 H 144.769 -3.5007 -1.31633 0
M  V30 1665 H 147.061 -5.80168 -3.49874 0
M  V30 1666 H 148.004 -6.70654 -2.27219 0
M  V30 1667 H 148.412 -5.00012 -2.62007 0
M  V30 1668 N 147.81 0.181792 -1.56548 0
M  V30 1669 C 149.056 0.901431 -1.81665 0
M  V30 1670 C 149.389 1.82347 -0.668075 0
M  V30 1671 O 148.664 1.91669 0.330615 0
M  V30 1672 C 148.947 1.70618 -3.17115 0
M  V30 1673 C 148.8 0.807964 -4.42484 0
M  V30 1674 C 150.119 2.67605 -3.49393 0
M  V30 1675 H 147.238 0.32627 -0.660846 0
M  V30 1676 H 149.88 0.168134 -1.89255 0
M  V30 1677 H 148.03 2.33133 -3.10775 0
M  V30 1678 H 149.702 0.19649 -4.60881 0
M  V30 1679 H 147.945 0.115411 -4.33646 0
M  V30 1680 H 148.616 1.40632 -5.33785 0
M  V30 1681 H 151.092 2.15218 -3.56118 0
M  V30 1682 H 149.968 3.20985 -4.45264 0
M  V30 1683 H 150.229 3.47298 -2.73563 0
M  V30 1684 N 149.288 1.51039 0.449983 0
M  V30 1685 C 150.236 1.71995 1.5659 0
M  V30 1686 C 151.23 0.586029 1.5894 0
M  V30 1687 O 152.436 0.76709 1.62837 0
M  V30 1688 H 148.811 0.543233 0.520001 0
M  V30 1689 H 150.782 2.65562 1.36085 0
M  V30 1690 C 149.531 1.8506 2.9436 0
M  V30 1691 H 148.854 2.71712 2.93279 0
M  V30 1692 H 150.294 2.0374 3.71842 0
M  V30 1693 C 148.753 0.607277 3.31382 0
M  V30 1694 O 149.283 -0.243903 4.00959 0
M  V30 1695 N 147.489 0.455073 2.87015 0
M  V30 1696 H 147.036 1.14879 2.30566 0
M  V30 1697 H 146.994 -0.375611 3.12148 0
M  V30 1698 N 150.766 -0.704594 1.40972 0
M  V30 1699 C 151.696 -1.83124 1.44872 0
M  V30 1700 C 152.677 -1.67281 0.30838 0
M  V30 1701 O 153.862 -1.87149 0.518556 0
M  V30 1702 C 150.992 -3.21181 1.32136 0
M  V30 1703 C 149.946 -3.51714 2.43888 0
M  V30 1704 C 149.272 -4.89032 2.16222 0
M  V30 1705 C 150.572 -3.516 3.86232 0
M  V30 1706 H 152.266 -1.80117 2.39161 0
M  V30 1707 H 149.812 -0.865145 1.15114 0
M  V30 1708 H 151.765 -3.99702 1.33479 0
M  V30 1709 H 150.489 -3.24791 0.343279 0
M  V30 1710 H 149.148 -2.75539 2.41813 0
M  V30 1711 H 148.796 -4.89256 1.16778 0
M  V30 1712 H 148.496 -5.10426 2.911 0
M  V30 1713 H 150.02 -5.69873 2.19265 0
M  V30 1714 H 151.434 -4.2014 3.9007 0
M  V30 1715 H 149.831 -3.84523 4.60719 0
M  V30 1716 H 150.901 -2.50757 4.15029 0
M  V30 1717 N 152.244 -1.26651 -0.937939 0
M  V30 1718 C 153.176 -1.04283 -2.04102 0
M  V30 1719 C 154.189 -0.00221014 -1.628 0
M  V30 1720 O 155.378 -0.242645 -1.76843 0
M  V30 1721 C 152.478 -0.557846 -3.34277 0
M  V30 1722 C 151.651 -1.66843 -4.04329 0
M  V30 1723 C 150.71 -1.18095 -5.12777 0
M  V30 1724 O 149.736 -1.87865 -5.37304 0
M  V30 1725 N 150.938 -0.0311006 -5.80492 0
M  V30 1726 H 153.703 -1.9927 -2.23856 0
M  V30 1727 H 151.264 -1.1808 -1.10764 0
M  V30 1728 H 153.256 -0.215836 -4.04124 0
M  V30 1729 H 151.826 0.298523 -3.11171 0
M  V30 1730 H 151.046 -2.18123 -3.28353 0
M  V30 1731 H 152.334 -2.41408 -4.47883 0
M  V30 1732 H 151.732 0.551486 -5.63005 0
M  V30 1733 H 150.289 0.251809 -6.51313 0
M  V30 1734 N 153.722 1.14298 -1.08507 0
M  V30 1735 C 154.968 1.85633 -0.816581 0
M  V30 1736 C 155.301 1.82784 0.656021 0
M  V30 1737 O 154.576 1.25926 1.48233 0
M  V30 1738 C 154.859 3.34223 -1.34041 0
M  V30 1739 C 154.712 3.45639 -2.87843 0
M  V30 1740 C 156.031 4.29356 -0.9665 0
M  V30 1741 H 153.15 0.67402 -0.298104 0
M  V30 1742 H 155.792 1.34214 -1.34487 0
M  V30 1743 H 153.942 3.78144 -0.89104 0
M  V30 1744 H 155.614 3.10498 -3.41158 0
M  V30 1745 H 153.857 2.86817 -3.25451 0
M  V30 1746 H 154.528 4.50089 -3.19569 0
M  V30 1747 H 157.004 3.93457 -1.35391 0
M  V30 1748 H 155.88 5.3178 -1.3602 0
M  V30 1749 H 156.141 4.41919 0.126362 0
M  V30 1750 N 155.201 0.870884 1.31352 0
M  V30 1751 C 156.111 0.330783 2.32256 0
M  V30 1752 C 157.127 -0.559767 1.6475 0
M  V30 1753 O 158.303 -0.456263 1.96164 0
M  V30 1754 C 155.368 -0.458137 3.4366 0
M  V30 1755 C 154.429 0.460482 4.26823 0
M  V30 1756 C 153.662 -0.290881 5.32907 0
M  V30 1757 O 153.885 -1.51885 5.49806 0
M  V30 1758 O 152.819 0.351732 6.00871 0
M  V30 1759 H 156.645 1.16718 2.80376 0
M  V30 1760 H 154.23 0.634285 1.35267 0
M  V30 1761 H 156.112 -0.905343 4.1156 0
M  V30 1762 H 154.787 -1.27106 2.97701 0
M  V30 1763 H 153.694 0.956207 3.61673 0
M  V30 1764 H 155.027 1.23903 4.7635 0
M  V30 1765 N 156.679 -1.44442 0.630414 0
M  V30 1766 C 157.956 -1.9549 0.0655657 0
M  V30 1767 C 158.336 -1.5724 -1.40851 0
M  V30 1768 O 157.684 -0.846116 -2.12257 0
M  V30 1769 C 157.894 -3.47812 0.287691 0
M  V30 1770 C 159.242 -4.24216 0.180513 0
M  V30 1771 O 160.266 -3.55526 0.219019 0
M  V30 1772 O 159.125 -5.46434 0.0848493 0
M  V30 1773 H 156.219 -0.826688 -0.0227177 0
M  V30 1774 H 158.765 -1.54496 0.702068 0
M  V30 1775 H 157.537 -3.687 1.31056 0
M  V30 1776 H 157.16 -3.95751 -0.382984 0
M  V30 1777 N 158.157 -0.370918 -1.53173 0
M  V30 1778 C 159.382 0.220293 -2.06227 0
M  V30 1779 C 159.807 1.41243 -1.24225 0
M  V30 1780 O 159.165 1.79387 -0.262645 0
M  V30 1781 C 159.213 0.586663 -3.55796 0
M  V30 1782 O 158.317 1.68317 -3.76488 0
M  V30 1783 H 157.658 0.0308099 -0.663285 0
M  V30 1784 H 160.188 -0.533068 -1.97534 0
M  V30 1785 H 160.198 0.85617 -3.98916 0
M  V30 1786 H 158.873 -0.285013 -4.14922 0
M  V30 1787 H 157.45 1.40881 -3.45264 0
M  V30 1788 N 159.635 1.57281 -0.100228 0
M  V30 1789 C 160.883 1.94153 0.561157 0
M  V30 1790 C 161.204 0.983157 1.68401 0
M  V30 1791 O 160.474 0.0361132 1.95867 0
M  V30 1792 H 159.054 0.716791 0.210283 0
M  V30 1793 H 161.716 1.94202 -0.164765 0
M  V30 1794 H 160.812 2.96709 0.968008 0
M  V30 1795 N 161.113 -0.173488 1.56642 0
M  V30 1796 C 162.043 -1.2171 1.99271 0
M  V30 1797 C 163.024 -1.46289 0.867959 0
M  V30 1798 O 164.209 -1.5766 1.13388 0
M  V30 1799 C 161.339 -2.55651 2.35074 0
M  V30 1800 C 160.293 -2.45645 3.50489 0
M  V30 1801 C 159.619 -3.84056 3.72028 0
M  V30 1802 C 160.919 -1.96302 4.84007 0
M  V30 1803 H 162.613 -0.86275 2.867 0
M  V30 1804 H 160.159 -0.413571 1.37933 0
M  V30 1805 H 162.112 -3.2886 2.63494 0
M  V30 1806 H 160.836 -2.92869 1.44552 0
M  V30 1807 H 159.495 -1.7489 3.22194 0
M  V30 1808 H 159.143 -4.18664 2.788 0
M  V30 1809 H 158.843 -3.7823 4.49684 0
M  V30 1810 H 160.367 -4.58854 4.02846 0
M  V30 1811 H 161.781 -2.59284 5.11317 0
M  V30 1812 H 160.178 -2.01429 5.65284 0
M  V30 1813 H 161.248 -0.917226 4.76146 0
M  V30 1814 N 162.591 -1.51276 -0.441967 0
M  V30 1815 C 163.821 -1.67273 -1.21257 0
M  V30 1816 C 164.229 -0.367624 -1.85594 0
M  V30 1817 O 163.572 0.663349 -1.71305 0
M  V30 1818 C 163.634 -2.72807 -2.34129 0
M  V30 1819 C 163.298 -4.1554 -1.90198 0
M  V30 1820 C 164.295 -5.00471 -1.40801 0
M  V30 1821 C 161.98 -4.61616 -1.9803 0
M  V30 1822 C 163.974 -6.29536 -0.998174 0
M  V30 1823 C 161.661 -5.90679 -1.56658 0
M  V30 1824 C 162.659 -6.74466 -1.07633 0
M  V30 1825 O 162.347 -8.01116 -0.668459 0
M  V30 1826 H 162.079 -0.564614 -0.371734 0
M  V30 1827 H 164.633 -1.9843 -0.530521 0
M  V30 1828 H 162.863 -2.36954 -3.05597 0
M  V30 1829 H 164.552 -2.77729 -2.96009 0
M  V30 1830 H 165.318 -4.66079 -1.34148 0
M  V30 1831 H 161.197 -3.96526 -2.35135 0
M  V30 1832 H 164.741 -6.94885 -0.61482 0
M  V30 1833 H 160.638 -6.24586 -1.62979 0
M  V30 1834 H 161.406 -8.14633 -0.794722 0
M  V30 1835 N 164.069 0.697108 -1.41344 0
M  V30 1836 C 165.001 1.8224 -1.39001 0
M  V30 1837 C 166.014 1.60152 -0.292428 0
M  V30 1838 O 167.203 1.69684 -0.554048 0
M  V30 1839 C 164.303 3.18976 -1.14489 0
M  V30 1840 C 163.476 3.68105 -2.36258 0
M  V30 1841 C 162.535 4.83506 -2.07625 0
M  V30 1842 O 161.561 4.95201 -2.8065 0
M  V30 1843 N 162.763 5.70637 -1.06555 0
M  V30 1844 H 165.528 1.84742 -2.35988 0
M  V30 1845 H 163.089 0.87937 -1.35936 0
M  V30 1846 H 165.081 3.93801 -0.932885 0
M  V30 1847 H 163.651 3.11508 -0.261043 0
M  V30 1848 H 162.871 2.84204 -2.7317 0
M  V30 1849 H 164.159 3.97667 -3.17393 0
M  V30 1850 H 163.557 5.63817 -0.461125 0
M  V30 1851 H 162.114 6.45368 -0.913444 0
M  V30 1852 N 165.547 1.27147 0.931209 0
M  V30 1853 C 166.787 1.14511 1.69312 0
M  V30 1854 C 167.151 -0.304638 1.89568 0
M  V30 1855 O 168.352 -0.553343 2.63043 0
M  V30 1856 C 166.623 1.90349 3.02493 0
M  V30 1857 S 168.182 1.93884 3.93642 0
M  V30 1858 H 165 0.408858 0.581684 0
M  V30 1859 H 167.602 1.61006 1.10893 0
M  V30 1860 H 166.306 2.94877 2.85439 0
M  V30 1861 H 165.837 1.44333 3.65966 0
M  V30 1862 H 167.852 1.03273 4.85334 0
M  V30 1863 N 167.025 -1.13721 1.09112 0
M  V30 1864 C 168.271 -1.85198 0.826414 0
M  V30 1865 C 168.604 -1.83129 -0.646319 0
M  V30 1866 O 167.879 -1.2671 -1.47563 0
M  V30 1867 C 168.162 -3.33507 1.35812 0
M  V30 1868 C 168.015 -3.44108 2.89672 0
M  V30 1869 C 169.334 -4.28838 0.989256 0
M  V30 1870 H 166.453 -0.67243 0.301675 0
M  V30 1871 H 169.095 -1.33499 1.35197 0
M  V30 1872 H 167.245 -3.77666 0.911082 0
M  V30 1873 H 168.917 -3.08684 3.428 0
M  V30 1874 H 167.16 -2.85087 3.26967 0
M  V30 1875 H 167.831 -4.48388 3.21951 0
M  V30 1876 H 170.307 -3.92734 1.37475 0
M  V30 1877 H 169.183 -5.31051 1.38838 0
M  V30 1878 H 169.444 -4.4198 -0.102924 0
M  V30 1879 N 168.503 -0.877838 -1.30888 0
M  V30 1880 C 169.752 -0.488793 -1.95688 0
M  V30 1881 C 170.065 0.965485 -1.70111 0
M  V30 1882 O 171.271 1.46104 -2.28836 0
M  V30 1883 C 169.727 -0.823201 -3.50359 0
M  V30 1884 C 169.335 -2.29477 -3.84765 0
M  V30 1885 C 171.079 -0.503009 -4.21509 0
M  V30 1886 C 168.986 -2.57118 -5.32583 0
M  V30 1887 H 167.916 -0.179062 -0.732429 0
M  V30 1888 H 170.567 -1.07183 -1.48943 0
M  V30 1889 H 168.949 -0.169331 -3.95638 0
M  V30 1890 H 170.123 -2.99236 -3.5042 0
M  V30 1891 H 168.438 -2.58178 -3.267 0
M  V30 1892 H 171.035 -0.68665 -5.30273 0
M  V30 1893 H 171.378 0.557109 -4.12555 0
M  V30 1894 H 171.911 -1.11376 -3.8189 0
M  V30 1895 H 168.65 -3.61843 -5.4658 0
M  V30 1896 H 168.17 -1.91961 -5.68253 0
M  V30 1897 H 169.849 -2.42251 -5.99936 0
M  V30 1898 N 169.982 1.44106 -0.638065 0
M  V30 1899 C 171.212 2.06037 -0.152394 0
M  V30 1900 C 171.62 1.47808 1.18108 0
M  V30 1901 O 170.963 0.598092 1.73691 0
M  V30 1902 C 171.025 3.59488 0.0293714 0
M  V30 1903 C 170.689 4.4022 -1.22702 0
M  V30 1904 C 171.686 4.73256 -2.15232 0
M  V30 1905 C 169.371 4.8048 -1.46437 0
M  V30 1906 C 171.365 5.45444 -3.29802 0
M  V30 1907 C 169.052 5.52417 -2.61303 0
M  V30 1908 C 170.05 5.84819 -3.52811 0
M  V30 1909 O 169.738 6.55289 -4.65673 0
M  V30 1910 H 169.47 0.671233 -0.0801401 0
M  V30 1911 H 172.024 1.85851 -0.874563 0
M  V30 1912 H 170.254 3.78191 0.806758 0
M  V30 1913 H 171.943 4.03164 0.470475 0
M  V30 1914 H 172.709 4.42684 -1.98131 0
M  V30 1915 H 168.588 4.54676 -0.760977 0
M  V30 1916 H 172.132 5.70653 -4.01249 0
M  V30 1917 H 168.029 5.82404 -2.78344 0
M  V30 1918 H 168.797 6.73762 -4.64744 0
M  V30 1919 N 171.46 0.379036 1.52974 0
M  V30 1920 C 172.392 -0.495963 2.2377 0
M  V30 1921 C 173.405 -1.03517 1.25651 0
M  V30 1922 O 174.594 -0.939249 1.51791 0
M  V30 1923 C 171.694 -1.69894 2.93239 0
M  V30 1924 C 170.867 -1.2889 4.17979 0
M  V30 1925 C 169.926 -2.35543 4.70538 0
M  V30 1926 O 168.952 -1.97375 5.33883 0
M  V30 1927 N 170.154 -3.67318 4.49508 0
M  V30 1928 H 172.919 0.110523 2.99496 0
M  V30 1929 H 170.48 0.204878 1.60598 0
M  V30 1930 H 172.472 -2.40747 3.25304 0
M  V30 1931 H 171.042 -2.212 2.20883 0
M  V30 1932 H 170.262 -0.409676 3.92065 0
M  V30 1933 H 171.55 -0.991443 4.99047 0
M  V30 1934 H 170.948 -4.01095 3.98923 0
M  V30 1935 H 169.505 -4.34235 4.8609 0
M  V30 1936 N 172.938 -1.57226 0.108567 0
M  V30 1937 C 174.349 -1.8195 -0.418464 0
M  V30 1938 C 174.7 -1.02508 -1.67292 0
M  V30 1939 O 173.825 -0.258496 -2.14851 0
M  V30 1940 C 174.42 -3.30028 -0.765979 0
M  V30 1941 C 172.979 -3.55469 -1.23769 0
M  V30 1942 C 172.126 -2.7625 -0.241106 0
M  V30 1943 H 175.077 -1.55149 0.33384 0
M  V30 1944 H 175.098 -3.44086 -1.62434 0
M  V30 1945 H 174.61 -3.87821 0.147219 0
M  V30 1946 H 172.711 -3.03022 -2.16814 0
M  V30 1947 H 172.824 -4.6408 -1.19022 0
M  V30 1948 H 171.188 -2.44133 -0.72602 0
M  V30 1949 H 171.971 -3.36797 0.665007 0
M  V30 1950 N 174.416 0.165178 -1.56732 0
M  V30 1951 C 175.827 0.727046 -1.71962 0
M  V30 1952 C 176.178 1.82508 -0.720078 0
M  V30 1953 O 175.303 2.16082 0.117242 0
M  V30 1954 C 175.898 1.32559 -3.11791 0
M  V30 1955 C 174.457 1.83422 -3.28684 0
M  V30 1956 C 173.604 0.715567 -2.67908 0
M  V30 1957 H 176.555 -0.0602896 -1.58585 0
M  V30 1958 H 176.576 2.19533 -3.10782 0
M  V30 1959 H 176.088 0.526195 -3.84516 0
M  V30 1960 H 174.189 2.65986 -2.60926 0
M  V30 1961 H 174.302 1.97543 -4.36478 0
M  V30 1962 H 172.666 1.13758 -2.27884 0
M  V30 1963 H 173.449 -0.0720836 -3.43224 0
M  V30 1964 N 175.894 1.51508 0.433938 0
M  V30 1965 C 176.841 1.73068 1.52696 0
M  V30 1966 C 177.811 0.572441 1.55924 0
M  V30 1967 O 178.996 0.807253 1.72882 0
M  V30 1968 C 176.136 1.86474 2.90381 0
M  V30 1969 C 175.249 3.14037 2.96656 0
M  V30 1970 C 174.384 3.18019 4.25485 0
M  V30 1971 C 173.423 4.39882 4.2564 0
M  V30 1972 N 172.56 4.41394 5.45999 0
M  V30 1973 H 177.4 2.66366 1.33615 0
M  V30 1974 H 174.937 1.32008 0.649018 0
M  V30 1975 H 176.895 1.92229 3.70275 0
M  V30 1976 H 175.525 0.965809 3.08013 0
M  V30 1977 H 174.577 3.17575 2.09404 0
M  V30 1978 H 175.889 4.0394 2.92633 0
M  V30 1979 H 175.043 3.22708 5.13755 0
M  V30 1980 H 173.782 2.2601 4.3217 0
M  V30 1981 H 172.787 4.35366 3.35763 0
M  V30 1982 H 174.012 5.33159 4.20617 0
M  V30 1983 H 171.958 3.52258 5.53399 0
M  V30 1984 H 171.875 5.25111 5.4387 0
M  V30 1985 H 173.143 4.50281 6.36292 0
M  V30 1986 N 177.372 -0.689602 1.41712 0
M  V30 1987 C 178.282 -1.83314 1.46401 0
M  V30 1988 C 179.298 -1.7036 0.35405 0
M  V30 1989 O 180.474 -1.92171 0.602692 0
M  V30 1990 C 177.539 -3.19344 1.34982 0
M  V30 1991 C 176.6 -3.44363 2.56344 0
M  V30 1992 C 175.833 -4.73904 2.45461 0
M  V30 1993 O 176.056 -5.508 1.48241 0
M  V30 1994 O 174.99 -4.99839 3.35328 0
M  V30 1995 H 178.816 -1.82314 2.42889 0
M  V30 1996 H 176.401 -0.843438 1.23315 0
M  V30 1997 H 178.283 -4.00547 1.3092 0
M  V30 1998 H 176.958 -3.21014 0.41612 0
M  V30 1999 H 175.865 -2.63067 2.65982 0
M  V30 2000 H 177.198 -3.47512 3.48563 0
M  V30 2001 N 178.85 -1.27639 -0.924453 0
M  V30 2002 C 180.261 -1.12834 -1.48746 0
M  V30 2003 C 180.612 0.285505 -1.94112 0
M  V30 2004 O 179.737 1.17874 -1.81479 0
M  V30 2005 C 180.332 -2.04217 -2.70334 0
M  V30 2006 C 178.891 -1.93509 -3.22848 0
M  V30 2007 C 178.038 -1.96583 -1.95577 0
M  V30 2008 H 180.989 -1.40484 -0.738233 0
M  V30 2009 H 181.01 -1.59989 -3.4523 0
M  V30 2010 H 180.522 -3.07111 -2.37285 0
M  V30 2011 H 178.623 -0.936131 -3.60649 0
M  V30 2012 H 178.736 -2.79917 -3.88823 0
M  V30 2013 H 177.1 -1.4085 -2.12211 0
M  V30 2014 H 177.883 -3.01137 -1.64837 0
M  V30 2015 N 180.328 1.1314 -1.09713 0
M  V30 2016 C 181.278 2.16709 -0.708593 0
M  V30 2017 C 182.262 1.58471 0.278523 0
M  V30 2018 O 183.454 1.76779 0.088427 0
M  V30 2019 C 180.583 3.43039 -0.133923 0
M  V30 2020 C 179.669 4.08277 -1.14763 0
M  V30 2021 N 180.06 4.48637 -2.33577 0
M  V30 2022 C 178.358 4.34954 -0.986446 0
M  V30 2023 C 179.059 4.9952 -2.98085 0
M  V30 2024 N 178.035 4.94561 -2.25632 0
M  V30 2025 H 181.837 2.45672 -1.61315 0
M  V30 2026 H 179.351 1.29967 -0.973775 0
M  V30 2027 H 181.348 4.16583 0.162465 0
M  V30 2028 H 180.008 3.15549 0.765447 0
M  V30 2029 H 181.019 4.41246 -2.7115 0
M  V30 2030 H 177.696 4.17258 -0.142008 0
M  V30 2031 H 179.086 5.40521 -3.99108 0
M  V30 2032 N 181.806 0.884767 1.30421 0
M  V30 2033 C 182.739 0.295999 2.26272 0
M  V30 2034 C 183.717 -0.58332 1.51777 0
M  V30 2035 O 184.901 -0.53346 1.80794 0
M  V30 2036 C 182.028 -0.57944 3.33707 0
M  V30 2037 C 181.074 0.230525 4.25877 0
M  V30 2038 S 181.907 1.61867 5.1045 0
M  V30 2039 C 183.063 0.749756 6.21393 0
M  V30 2040 H 183.296 1.10848 2.75862 0
M  V30 2041 H 180.829 0.684178 1.38414 0
M  V30 2042 H 182.787 -1.07879 3.96071 0
M  V30 2043 H 181.448 -1.36601 2.82841 0
M  V30 2044 H 180.641 -0.437542 5.02097 0
M  V30 2045 H 180.243 0.662493 3.68086 0
M  V30 2046 H 182.535 -0.0333547 6.77492 0
M  V30 2047 H 183.478 1.48356 6.92384 0
M  V30 2048 H 183.886 0.310751 5.63644 0
M  V30 2049 N 183.284 -1.43765 0.645699 0
M  V30 2050 C 184.214 -2.33471 -0.0370477 0
M  V30 2051 C 185.195 -1.49042 -0.819779 0
M  V30 2052 O 186.38 -1.77726 -0.782758 0
M  V30 2053 C 183.51 -3.32311 -1.0093 0
M  V30 2054 C 182.464 -4.2667 -0.337201 0
M  V30 2055 C 181.79 -5.1549 -1.42037 0
M  V30 2056 C 183.09 -5.16657 0.765706 0
M  V30 2057 H 184.784 -2.90809 0.712069 0
M  V30 2058 H 182.33 -1.39834 0.343876 0
M  V30 2059 H 184.283 -3.9396 -1.49578 0
M  V30 2060 H 183.007 -2.73213 -1.78948 0
M  V30 2061 H 181.666 -3.66374 0.128771 0
M  V30 2062 H 181.314 -4.52735 -2.1918 0
M  V30 2063 H 181.014 -5.79438 -0.975966 0
M  V30 2064 H 182.538 -5.80012 -1.90838 0
M  V30 2065 H 183.952 -5.72158 0.361702 0
M  V30 2066 H 182.349 -5.89286 1.13413 0
M  V30 2067 H 183.419 -4.56796 1.62683 0
M  V30 2068 N 184.763 -0.387143 -1.52771 0
M  V30 2069 C 186.01 0.195735 -2.01552 0
M  V30 2070 C 186.338 1.46995 -1.27369 0
M  V30 2071 O 185.593 1.92325 -0.361879 0
M  V30 2072 C 185.892 0.512209 -3.53711 0
M  V30 2073 C 185.558 -0.670202 -4.45891 0
M  V30 2074 C 184.22 -0.994586 -4.70809 0
M  V30 2075 C 186.572 -1.46134 -5.00294 0
M  V30 2076 C 183.9 -2.11169 -5.4738 0
M  V30 2077 C 186.252 -2.56903 -5.78086 0
M  V30 2078 C 184.916 -2.89852 -6.01284 0
M  V30 2079 H 184.186 0.0716246 -0.73753 0
M  V30 2080 H 186.833 -0.524046 -1.8419 0
M  V30 2081 H 185.138 1.31329 -3.69134 0
M  V30 2082 H 186.835 0.975804 -3.88946 0
M  V30 2083 H 183.425 -0.407366 -4.2666 0
M  V30 2084 H 187.609 -1.22397 -4.80971 0
M  V30 2085 H 182.865 -2.3707 -5.63567 0
M  V30 2086 H 187.039 -3.18608 -6.19243 0
M  V30 2087 H 184.666 -3.76533 -6.60399 0
M  V30 2088 N 186.241 1.57166 -0.116904 0
M  V30 2089 C 187.518 1.86645 0.585049 0
M  V30 2090 C 187.898 1.0177 1.84949 0
M  V30 2091 O 187.246 0.0960379 2.28298 0
M  V30 2092 C 187.456 3.37736 0.879507 0
M  V30 2093 C 188.804 4.06289 1.23348 0
M  V30 2094 O 189.828 3.42743 0.969836 0
M  V30 2095 O 188.687 5.18455 1.7282 0
M  V30 2096 H 185.781 0.772593 0.295007 0
M  V30 2097 H 188.327 1.69025 -0.151249 0
M  V30 2098 H 187.099 3.91296 -0.0166136 0
M  V30 2099 H 186.722 3.6078 1.67103 0
M  V30 2100 N 187.719 -0.156864 1.56817 0
M  V30 2101 C 189.135 -0.50916 1.5126 0
M  V30 2102 C 189.335 -1.83897 0.823658 0
M  V30 2103 O 188.391 -2.49469 0.390055 0
M  V30 2104 C 189.704 -0.52857 2.96018 0
M  V30 2105 C 191.252 -0.614771 3.06903 0
M  V30 2106 C 191.727 -0.664938 4.53147 0
M  V30 2107 N 193.218 -0.727433 4.57452 0
M  V30 2108 C 193.953 -0.787067 5.67973 0
M  V30 2109 N 193.449 -0.806649 6.88088 0
M  V30 2110 N 195.242 -0.827195 5.5598 0
M  V30 2111 H 187.393 0.714935 2.00006 0
M  V30 2112 H 189.656 0.259526 0.911784 0
M  V30 2113 H 189.362 0.380154 3.49639 0
M  V30 2114 H 189.236 -1.36998 3.51442 0
M  V30 2115 H 191.623 -1.51392 2.53307 0
M  V30 2116 H 191.704 0.253597 2.5454 0
M  V30 2117 H 191.348 0.230011 5.07379 0
M  V30 2118 H 191.278 -1.54966 5.03282 0
M  V30 2119 H 193.769 -0.719998 3.70978 0
M  V30 2120 H 194.082 -0.853727 7.6807 0
M  V30 2121 H 192.427 -0.774687 6.90669 0
M  V30 2122 H 195.618 -0.808998 4.61056 0
M  V30 2123 H 195.791 -0.870206 6.4213 0
M  V30 2124 N 189.197 -1.51736 -0.425897 0
M  V30 2125 C 190.446 -1.64201 -1.17136 0
M  V30 2126 C 190.759 -0.369705 -1.92074 0
M  V30 2127 O 191.965 -0.373898 -2.68913 0
M  V30 2128 C 190.421 -2.90035 -2.13091 0
M  V30 2129 C 190.029 -4.24312 -1.43747 0
M  V30 2130 C 191.773 -3.1186 -2.87999 0
M  V30 2131 C 189.68 -5.41285 -2.38253 0
M  V30 2132 H 188.61 -0.611624 -0.440944 0
M  V30 2133 H 191.261 -1.78212 -0.437328 0
M  V30 2134 H 189.643 -2.69684 -2.89977 0
M  V30 2135 H 190.817 -4.55086 -0.723408 0
M  V30 2136 H 189.132 -4.08456 -0.809465 0
M  V30 2137 H 191.729 -3.96427 -3.58817 0
M  V30 2138 H 192.072 -2.25403 -3.49999 0
M  V30 2139 H 192.605 -3.32605 -2.18217 0
M  V30 2140 H 189.344 -6.30037 -1.80925 0
M  V30 2141 H 188.864 -5.14872 -3.0768 0
M  V30 2142 H 190.543 -5.73694 -2.99139 0
M  V30 2143 N 190.675 0.682077 -1.42076 0
M  V30 2144 C 192.091 0.994324 -1.24841 0
M  V30 2145 C 192.291 2.0096 -0.147389 0
M  V30 2146 O 191.347 2.47822 0.483782 0
M  V30 2147 C 192.66 1.50607 -2.60265 0
M  V30 2148 C 194.208 1.62421 -2.6756 0
M  V30 2149 C 194.683 2.16994 -4.03333 0
M  V30 2150 N 196.174 2.24337 -4.0525 0
M  V30 2151 C 196.909 2.67621 -5.07116 0
M  V30 2152 N 196.405 3.1041 -6.19368 0
M  V30 2153 N 198.198 2.67305 -4.94474 0
M  V30 2154 H 190.349 0.00973908 -2.12398 0
M  V30 2155 H 192.612 0.0668593 -0.945639 0
M  V30 2156 H 192.318 0.834583 -3.41654 0
M  V30 2157 H 192.192 2.48602 -2.83684 0
M  V30 2158 H 194.579 2.28678 -1.86521 0
M  V30 2159 H 194.66 0.629352 -2.47937 0
M  V30 2160 H 194.304 1.51349 -4.84826 0
M  V30 2161 H 194.234 3.17258 -4.20304 0
M  V30 2162 H 196.725 1.94158 -3.24209 0
M  V30 2163 H 197.038 3.42103 -6.92954 0
M  V30 2164 H 195.383 3.08286 -6.22884 0
M  V30 2165 H 198.574 2.33233 -4.05857 0
M  V30 2166 H 198.747 3.00718 -5.73997 0
M  V30 2167 N 192.153 1.28127 0.917671 0
M  V30 2168 C 193.083 1.14248 2.03641 0
M  V30 2169 C 194.064 0.0412748 1.7005 0
M  V30 2170 O 195.249 0.217566 1.92977 0
M  V30 2171 C 192.379 0.799431 3.37974 0
M  V30 2172 C 191.333 1.85497 3.85713 0
M  V30 2173 C 190.659 1.36565 5.16966 0
M  V30 2174 C 191.959 3.26085 4.08002 0
M  V30 2175 H 193.653 2.07835 2.15511 0
M  V30 2176 H 191.199 1.00064 1.03553 0
M  V30 2177 H 193.152 0.689114 4.15727 0
M  V30 2178 H 191.876 -0.172145 3.26146 0
M  V30 2179 H 190.535 1.95437 3.10161 0
M  V30 2180 H 190.183 0.383253 5.01538 0
M  V30 2181 H 189.883 2.07143 5.49878 0
M  V30 2182 H 191.407 1.26848 5.97279 0
M  V30 2183 H 192.821 3.19089 4.76293 0
M  V30 2184 H 191.218 3.94462 4.52238 0
M  V30 2185 H 192.288 3.70394 3.12948 0
M  V30 2186 N 193.631 -1.12557 1.10312 0
M  V30 2187 C 194.877 -1.84311 0.846011 0
M  V30 2188 C 195.21 -1.83805 -0.626859 0
M  V30 2189 O 194.485 -1.28268 -1.46211 0
M  V30 2190 C 194.768 -3.32048 1.39341 0
M  V30 2191 C 194.621 -3.41016 2.93305 0
M  V30 2192 C 195.94 -4.27764 1.03468 0
M  V30 2193 H 193.059 -0.669192 0.30879 0
M  V30 2194 H 195.701 -1.32057 1.36605 0
M  V30 2195 H 193.851 -3.76678 0.951087 0
M  V30 2196 H 195.523 -3.05031 3.46055 0
M  V30 2197 H 193.766 -2.81603 3.29973 0
M  V30 2198 H 194.437 -4.44948 3.26689 0
M  V30 2199 H 196.913 -3.91253 1.41633 0
M  V30 2200 H 195.789 -5.29549 1.44463 0
M  V30 2201 H 196.05 -4.42064 -0.0560404 0
M  V30 2202 N 195.109 -0.891671 -1.2995 0
M  V30 2203 C 196.355 -0.514261 -1.96171 0
M  V30 2204 C 196.688 0.935506 -1.70182 0
M  V30 2205 O 195.963 1.66204 -1.01028 0
M  V30 2206 C 196.246 -0.797719 -3.51153 0
M  V30 2207 C 196.099 -2.2986 -3.86632 0
M  V30 2208 C 197.418 -0.278749 -4.39216 0
M  V30 2209 H 194.537 -0.188314 -0.712535 0
M  V30 2210 H 197.179 -1.11689 -1.53706 0
M  V30 2211 H 195.329 -0.284826 -3.87455 0
M  V30 2212 H 197.001 -2.88042 -3.60319 0
M  V30 2213 H 195.244 -2.76257 -3.34462 0
M  V30 2214 H 195.915 -2.44753 -4.94773 0
M  V30 2215 H 198.391 -0.717825 -4.09862 0
M  V30 2216 H 197.267 -0.506353 -5.46559 0
M  V30 2217 H 197.528 0.820266 -4.34424 0
M  V30 2218 N 196.587 1.43421 -0.653314 0
M  V30 2219 C 197.815 2.06163 -0.174491 0
M  V30 2220 C 198.23 1.48969 1.1599 0
M  V30 2221 O 197.587 0.621042 1.71608 0
M  V30 2222 C 197.638 3.61417 -0.0774865 0
M  V30 2223 O 197.359 4.16485 -1.35912 0
M  V30 2224 C 198.86 4.41235 0.427402 0
M  V30 2225 H 196.08 0.664946 -0.0899353 0
M  V30 2226 H 198.624 1.83924 -0.893988 0
M  V30 2227 H 196.779 3.82841 0.59257 0
M  V30 2228 H 197.193 5.10153 -1.21839 0
M  V30 2229 H 198.667 5.5021 0.44423 0
M  V30 2230 H 199.144 4.14268 1.45873 0
M  V30 2231 H 199.75 4.2478 -0.210167 0
M  V30 2232 N 198.065 0.39524 1.52563 0
M  V30 2233 C 199.012 -0.437036 2.26624 0
M  V30 2234 C 199.982 -1.05281 1.28472 0
M  V30 2235 O 201.167 -1.07971 1.57311 0
M  V30 2236 C 198.307 -1.55524 3.08069 0
M  V30 2237 C 197.42 -0.961745 4.21158 0
M  V30 2238 C 196.555 -2.05149 4.89987 0
M  V30 2239 C 195.594 -1.4342 5.95061 0
M  V30 2240 N 194.731 -2.46351 6.57462 0
M  V30 2241 H 199.571 0.200976 2.97322 0
M  V30 2242 H 197.108 0.110944 1.46681 0
M  V30 2243 H 199.066 -2.21437 3.53584 0
M  V30 2244 H 197.696 -2.16348 2.3957 0
M  V30 2245 H 196.748 -0.192048 3.79915 0
M  V30 2246 H 198.06 -0.470701 4.96574 0
M  V30 2247 H 197.214 -2.78819 5.38837 0
M  V30 2248 H 195.953 -2.57615 4.14109 0
M  V30 2249 H 194.958 -0.682774 5.45544 0
M  V30 2250 H 196.183 -0.917416 6.72875 0
M  V30 2251 H 194.129 -2.97975 5.8442 0
M  V30 2252 H 194.046 -2.02019 7.28508 0
M  V30 2253 H 195.314 -3.19633 7.10954 0
M  V30 2254 N 199.544 -1.57102 0.125237 0
M  V30 2255 C 200.792 -1.95021 -0.530198 0
M  V30 2256 C 201.113 -1.00982 -1.66816 0
M  V30 2257 O 200.383 -0.0672693 -1.95784 0
M  V30 2258 H 198.963 -0.720046 -0.198853 0
M  V30 2259 H 201.625 -1.93916 0.19564 0
M  V30 2260 H 200.721 -2.98211 -0.920681 0
M  V30 2261 N 201.022 0.148545 -1.56898 0
M  V30 2262 C 202.269 0.861418 -1.83264 0
M  V30 2263 C 202.597 1.81239 -0.705883 0
M  V30 2264 O 201.852 1.93305 0.305212 0
M  V30 2265 C 202.151 1.67064 -3.1595 0
M  V30 2266 C 201.817 0.866591 -4.42494 0
M  V30 2267 C 200.479 0.644762 -4.76861 0
M  V30 2268 C 202.831 0.30418 -5.20312 0
M  V30 2269 C 200.159 -0.15021 -5.86508 0
M  V30 2270 C 202.511 -0.477824 -6.30793 0
M  V30 2271 C 201.175 -0.710244 -6.63711 0
M  V30 2272 H 200.445 0.315215 -0.670612 0
M  V30 2273 H 203.092 0.125142 -1.91091 0
M  V30 2274 H 201.397 2.47698 -3.03567 0
M  V30 2275 H 203.094 2.22566 -3.33565 0
M  V30 2276 H 199.684 1.04955 -4.15551 0
M  V30 2277 H 203.868 0.462844 -4.94137 0
M  V30 2278 H 199.124 -0.339796 -6.10455 0
M  V30 2279 H 203.298 -0.92076 -6.90286 0
M  V30 2280 H 200.925 -1.3281 -7.48509 0
M  V30 2281 N 202.5 1.5196 0.417844 0
M  V30 2282 C 203.725 1.69717 1.1921 0
M  V30 2283 C 204.15 0.402148 1.83751 0
M  V30 2284 O 203.508 -0.639593 1.69643 0
M  V30 2285 C 203.556 2.82794 2.2374 0
M  V30 2286 O 202.66 2.47756 3.29683 0
M  V30 2287 H 202.001 0.565263 0.348387 0
M  V30 2288 H 204.531 1.98621 0.490985 0
M  V30 2289 H 204.541 3.07452 2.68212 0
M  V30 2290 H 203.216 3.76756 1.76146 0
M  V30 2291 H 201.793 2.33739 2.90552 0
M  V30 2292 N 203.978 -0.674533 1.42435 0
M  V30 2293 C 205.226 -1.43175 1.42637 0
M  V30 2294 C 205.547 -1.94951 0.0438992 0
M  V30 2295 O 204.817 -1.7308 -0.917607 0
M  V30 2296 H 203.397 -0.531307 0.525092 0
M  V30 2297 H 206.059 -0.797006 1.77859 0
M  V30 2298 H 205.155 -2.28463 2.12629 0
M  V30 2299 N 205.456 -1.28612 -0.910864 0
M  V30 2300 C 206.684 -1.18792 -1.69399 0
M  V30 2301 C 207.099 0.253039 -1.87097 0
M  V30 2302 O 206.456 1.17071 -1.40003 0
M  V30 2303 C 206.507 -1.88511 -3.08457 0
M  V30 2304 O 206.228 -3.26979 -2.91576 0
M  V30 2305 C 207.729 -1.85029 -4.02839 0
M  V30 2306 H 204.949 -0.412233 -0.529438 0
M  V30 2307 H 207.493 -1.69788 -1.13984 0
M  V30 2308 H 205.648 -1.41379 -3.60681 0
M  V30 2309 H 206.062 -3.61936 -3.79608 0
M  V30 2310 H 207.536 -2.38395 -4.97867 0
M  V30 2311 H 208.013 -0.823303 -4.31414 0
M  V30 2312 H 208.619 -2.31853 -3.56545 0
M  V30 2313 N 206.934 1.1197 -1.10907 0
M  V30 2314 C 208.345 1.65114 -0.871446 0
M  V30 2315 C 208.696 1.86885 0.597353 0
M  V30 2316 O 207.821 1.59896 1.45816 0
M  V30 2317 C 208.416 2.99944 -1.5754 0
M  V30 2318 C 206.975 3.50018 -1.38435 0
M  V30 2319 C 206.122 2.24941 -1.62164 0
M  V30 2320 H 209.073 0.956851 -1.2661 0
M  V30 2321 H 209.094 3.66651 -1.01721 0
M  V30 2322 H 208.606 2.84067 -2.64438 0
M  V30 2323 H 206.707 3.71071 -0.337214 0
M  V30 2324 H 206.82 4.29165 -2.12965 0
M  V30 2325 H 205.184 2.3229 -1.04467 0
M  V30 2326 H 205.967 2.11612 -2.70324 0
M  V30 2327 N 208.412 0.89855 1.29475 0
M  V30 2328 C 209.66 0.522847 1.9522 0
M  V30 2329 C 209.981 -0.93371 1.71192 0
M  V30 2330 O 209.251 -1.65823 1.04305 0
M  V30 2331 H 207.831 0.190366 0.722336 0
M  V30 2332 H 210.493 1.14459 1.5775 0
M  V30 2333 H 209.589 0.704476 3.04045 0
M  V30 2334 N 209.89 -1.43072 0.660911 0
M  V30 2335 C 211.115 -2.06584 0.183805 0
M  V30 2336 C 211.54 -1.49257 -1.14472 0
M  V30 2337 O 210.898 -0.605528 -1.70889 0
M  V30 2338 C 210.946 -3.60418 0.114434 0
M  V30 2339 O 210.05 -4.01981 -0.921137 0
M  V30 2340 H 209.391 -0.656669 0.0983994 0
M  V30 2341 H 211.921 -1.83447 0.906006 0
M  V30 2342 H 211.931 -4.07946 -0.0663394 0
M  V30 2343 H 210.606 -4.01519 1.08422 0
M  V30 2344 H 209.183 -3.66029 -0.71253 0
M  V30 2345 N 211.368 -0.403325 -1.52352 0
M  V30 2346 C 212.316 0.439752 -2.28405 0
M  V30 2347 C 213.31 1.05089 -1.32863 0
M  V30 2348 O 214.516 0.989759 -1.50345 0
M  V30 2349 H 210.891 0.160587 -0.734653 0
M  V30 2350 H 212.862 -0.222983 -2.97566 0
M  V30 2351 C 211.611 1.54736 -3.11371 0
M  V30 2352 H 210.934 1.08643 -3.84755 0
M  V30 2353 H 212.374 2.1112 -3.67701 0
M  V30 2354 C 210.833 2.51141 -2.24566 0
M  V30 2355 O 211.363 3.54887 -1.88196 0
M  V30 2356 N 209.569 2.21213 -1.8845 0
M  V30 2357 H 209.116 1.36878 -2.18225 0
M  V30 2358 H 209.074 2.85963 -1.30662 0
M  V30 2359 N 212.846 1.57033 -0.133567 0
M  V30 2360 C 213.756 2.19632 0.824564 0
M  V30 2361 C 214.772 1.17666 1.28182 0
M  V30 2362 O 215.948 1.50193 1.3418 0
M  V30 2363 C 213.013 2.79499 2.05137 0
M  V30 2364 C 212.074 3.96548 1.64464 0
M  V30 2365 C 211.307 4.5355 2.81297 0
M  V30 2366 O 211.53 4.09438 3.97136 0
M  V30 2367 O 210.464 5.44018 2.57542 0
M  V30 2368 H 214.29 3.01991 0.321766 0
M  V30 2369 H 211.875 1.49112 0.0927889 0
M  V30 2370 H 213.757 3.17602 2.7696 0
M  V30 2371 H 212.432 2.00162 2.54395 0
M  V30 2372 H 211.339 3.63186 0.897048 0
M  V30 2373 H 212.672 4.77364 1.19934 0
M  V30 2374 N 214.325 -0.140222 1.56975 0
M  V30 2375 C 215.273 -1.19207 1.99731 0
M  V30 2376 C 216.267 -1.44089 0.890777 0
M  V30 2377 O 217.473 -1.44301 1.07597 0
M  V30 2378 H 213.848 -0.40142 0.635898 0
M  V30 2379 H 215.819 -0.804813 2.87342 0
M  V30 2380 C 214.568 -2.51617 2.39967 0
M  V30 2381 H 213.891 -2.33303 3.24669 0
M  V30 2382 H 215.331 -3.23827 2.73701 0
M  V30 2383 C 213.79 -3.12654 1.25496 0
M  V30 2384 O 214.32 -3.97786 0.559371 0
M  V30 2385 N 212.526 -2.72206 1.01746 0
M  V30 2386 H 212.073 -2.03074 1.58489 0
M  V30 2387 H 212.031 -3.13377 0.253461 0
M  V30 2388 N 215.803 -1.52179 -0.40978 0
M  V30 2389 C 217.028 -1.70347 -1.18308 0
M  V30 2390 C 217.453 -0.411887 -1.83535 0
M  V30 2391 O 216.811 0.630587 -1.6998 0
M  V30 2392 C 216.859 -2.83977 -2.22238 0
M  V30 2393 O 215.963 -2.495 -3.28365 0
M  V30 2394 H 215.304 -0.567103 -0.345384 0
M  V30 2395 H 217.834 -1.98879 -0.480445 0
M  V30 2396 H 217.844 -3.0887 -2.66577 0
M  V30 2397 H 216.519 -3.77685 -1.74146 0
M  V30 2398 H 215.096 -2.35277 -2.89308 0
M  V30 2399 N 217.281 0.66697 -1.42791 0
M  V30 2400 C 218.509 1.45505 -1.47091 0
M  V30 2401 C 218.924 1.8861 -0.0845873 0
M  V30 2402 O 218.281 1.58632 0.90234 0
M  V30 2403 C 218.332 2.69906 -2.40485 0
M  V30 2404 O 218.053 2.28608 -3.73725 0
M  V30 2405 C 219.554 3.63396 -2.53886 0
M  V30 2406 H 216.774 0.447459 -0.500022 0
M  V30 2407 H 219.318 0.818866 -1.8739 0
M  V30 2408 H 217.473 3.29696 -2.03419 0
M  V30 2409 H 217.887 3.08997 -4.23817 0
M  V30 2410 H 219.361 4.47387 -3.2334 0
M  V30 2411 H 219.838 4.09824 -1.57927 0
M  V30 2412 H 220.444 3.09495 -2.91706 0
M  V30 2413 N 218.759 1.29093 0.90403 0
M  V30 2414 C 219.691 1.09658 2.01266 0
M  V30 2415 C 220.704 0.0453729 1.62737 0
M  V30 2416 O 221.893 0.289446 1.76138 0
M  V30 2417 C 218.993 0.646278 3.32681 0
M  V30 2418 C 218.166 1.77505 3.99763 0
M  V30 2419 C 217.225 1.31649 5.09465 0
M  V30 2420 O 216.251 2.02045 5.32134 0
M  V30 2421 N 217.453 0.184997 5.80205 0
M  V30 2422 H 220.218 2.05135 2.18494 0
M  V30 2423 H 217.779 1.20975 1.07594 0
M  V30 2424 H 219.771 0.322906 4.0341 0
M  V30 2425 H 218.341 -0.215916 3.11853 0
M  V30 2426 H 217.561 2.26752 3.22455 0
M  V30 2427 H 218.849 2.53198 4.41325 0
M  V30 2428 H 218.247 -0.402021 5.6427 0
M  V30 2429 H 216.804 -0.0790358 6.51752 0
M  V30 2430 N 220.237 -1.11381 1.11499 0
M  V30 2431 C 221.185 -2.19522 0.768956 0
M  V30 2432 C 222.179 -1.67693 -0.239857 0
M  V30 2433 O 223.385 -1.79727 -0.0990755 0
M  V30 2434 H 219.76 -0.715711 0.230786 0
M  V30 2435 H 221.731 -2.45954 1.68964 0
M  V30 2436 C 220.48 -3.46945 0.229073 0
M  V30 2437 H 219.803 -3.8718 0.996596 0
M  V30 2438 H 221.243 -4.23993 0.0251441 0
M  V30 2439 C 219.702 -3.2042 -1.04079 0
M  V30 2440 O 220.232 -3.41178 -2.12038 0
M  V30 2441 N 218.438 -2.74151 -0.963823 0
M  V30 2442 H 217.985 -2.57459 -0.0851722 0
M  V30 2443 H 217.943 -2.56781 -1.81414 0
M  V30 2444 N 221.715 -0.905404 -1.28997 0
M  V30 2445 C 222.961 -0.535039 -1.95615 0
M  V30 2446 C 223.294 0.917404 -1.71165 0
M  V30 2447 O 222.569 1.65123 -1.02785 0
M  V30 2448 C 222.852 -0.834918 -3.50287 0
M  V30 2449 C 222.705 -2.33948 -3.84172 0
M  V30 2450 C 224.024 -0.325318 -4.38896 0
M  V30 2451 H 221.143 -0.195861 -0.710498 0
M  V30 2452 H 223.785 -1.13313 -1.52513 0
M  V30 2453 H 221.935 -0.325904 -3.87131 0
M  V30 2454 H 223.607 -2.91847 -3.57243 0
M  V30 2455 H 221.85 -2.79789 -3.31513 0
M  V30 2456 H 222.521 -2.49987 -4.92149 0
M  V30 2457 H 224.997 -0.761256 -4.09077 0
M  V30 2458 H 223.873 -0.564295 -5.45992 0
M  V30 2459 H 224.134 0.774144 -4.35269 0
M  V30 2460 N 223.193 1.4272 -0.668489 0
M  V30 2461 C 224.423 2.05668 -0.196063 0
M  V30 2462 C 224.831 1.5028 1.14946 0
M  V30 2463 O 224.174 0.6348 1.72383 0
M  V30 2464 C 224.236 3.59469 -0.0468879 0
M  V30 2465 C 223.9 4.37518 -1.32012 0
M  V30 2466 C 224.897 4.68584 -2.25222 0
M  V30 2467 C 222.582 4.77266 -1.56596 0
M  V30 2468 C 224.576 5.38326 -3.41297 0
M  V30 2469 C 222.263 5.4675 -2.72962 0
M  V30 2470 C 223.261 5.77204 -3.65137 0
M  V30 2471 O 222.949 6.45264 -4.79468 0
M  V30 2472 H 222.681 0.669382 -0.0943599 0
M  V30 2473 H 225.235 1.83954 -0.913788 0
M  V30 2474 H 223.465 3.79817 0.726357 0
M  V30 2475 H 225.154 4.04071 0.384852 0
M  V30 2476 H 225.92 4.38382 -2.07477 0
M  V30 2477 H 221.799 4.52959 -0.857249 0
M  V30 2478 H 225.343 5.62014 -4.13263 0
M  V30 2479 H 221.24 5.76369 -2.90635 0
M  V30 2480 H 222.008 6.63753 -4.78931 0
M  V30 2481 N 224.671 0.411399 1.52136 0
M  V30 2482 C 225.618 -0.412975 2.27075 0
M  V30 2483 C 226.588 -1.03912 1.29582 0
M  V30 2484 O 227.773 -1.06296 1.58448 0
M  V30 2485 C 224.913 -1.52247 3.09701 0
M  V30 2486 C 224.026 -0.917021 4.22155 0
M  V30 2487 C 223.161 -1.9994 4.92135 0
M  V30 2488 C 222.2 -1.37101 5.96548 0
M  V30 2489 N 221.337 -2.39364 6.60038 0
M  V30 2490 H 226.177 0.232499 2.97092 0
M  V30 2491 H 223.714 0.126496 1.46555 0
M  V30 2492 H 225.672 -2.17674 3.55913 0
M  V30 2493 H 224.302 -2.13794 2.41851 0
M  V30 2494 H 223.354 -0.151742 3.80097 0
M  V30 2495 H 224.666 -0.418006 4.97045 0
M  V30 2496 H 223.82 -2.73088 5.41763 0
M  V30 2497 H 222.559 -2.53208 4.16818 0
M  V30 2498 H 221.564 -0.624873 5.46237 0
M  V30 2499 H 222.789 -0.845998 6.7381 0
M  V30 2500 H 220.735 -2.91759 5.87548 0
M  V30 2501 H 220.652 -1.9428 7.3061 0
M  V30 2502 H 221.92 -3.12074 7.14304 0
M  V30 2503 N 226.149 -1.5696 0.141893 0
M  V30 2504 C 227.398 -1.95135 -0.510427 0
M  V30 2505 C 227.711 -1.02896 -1.66348 0
M  V30 2506 O 228.917 -1.30629 -2.38009 0
M  V30 2507 C 227.373 -3.46876 -0.959427 0
M  V30 2508 C 226.981 -4.47691 0.166419 0
M  V30 2509 C 228.725 -3.93927 -1.58183 0
M  V30 2510 C 226.632 -5.90636 -0.300565 0
M  V30 2511 H 225.562 -0.728494 -0.194454 0
M  V30 2512 H 228.213 -1.8211 0.22542 0
M  V30 2513 H 226.595 -3.55215 -1.75038 0
M  V30 2514 H 227.769 -4.51043 0.94325 0
M  V30 2515 H 226.084 -4.10527 0.696905 0
M  V30 2516 H 228.681 -4.98158 -1.94275 0
M  V30 2517 H 229.024 -3.3519 -2.46888 0
M  V30 2518 H 229.557 -3.88484 -0.855863 0
M  V30 2519 H 226.296 -6.5318 0.550989 0
M  V30 2520 H 225.816 -5.90655 -1.04338 0
M  V30 2521 H 227.495 -6.42588 -0.754265 0
M  V30 2522 N 227.627 0.131896 -1.57047 0
M  V30 2523 C 229.038 0.690407 -1.73465 0
M  V30 2524 C 229.389 1.8094 -0.758629 0
M  V30 2525 O 228.514 2.16282 0.0713813 0
M  V30 2526 C 229.109 1.25916 -3.14532 0
M  V30 2527 C 227.668 1.76409 -3.32501 0
M  V30 2528 C 226.815 0.658579 -2.69366 0
M  V30 2529 H 229.766 -0.0939144 -1.58422 0
M  V30 2530 H 229.787 2.12892 -3.15369 0
M  V30 2531 H 229.299 0.444515 -3.85546 0
M  V30 2532 H 227.4 2.60391 -2.66509 0
M  V30 2533 H 227.513 1.88241 -4.4057 0
M  V30 2534 H 225.877 1.08899 -2.30246 0
M  V30 2535 H 226.66 -0.14487 -3.42994 0
M  V30 2536 N 229.106 1.52395 0.401703 0
M  V30 2537 C 230.517 1.58899 0.980202 0
M  V30 2538 C 230.868 0.434032 1.91339 0
M  V30 2539 O 229.993 -0.444619 2.11783 0
M  V30 2540 C 230.588 2.87994 1.78451 0
M  V30 2541 C 229.147 2.96953 2.31292 0
M  V30 2542 C 228.294 2.53903 1.11483 0
M  V30 2543 H 231.245 1.57657 0.18168 0
M  V30 2544 H 231.266 2.73765 2.64259 0
M  V30 2545 H 230.778 3.72035 1.10506 0
M  V30 2546 H 228.879 2.17422 3.02586 0
M  V30 2547 H 228.992 4.01344 2.61649 0
M  V30 2548 H 227.356 2.07925 1.47104 0
M  V30 2549 H 228.139 3.40326 0.450928 0
M  V30 2550 N 230.584 -0.659388 1.43143 0
M  V30 2551 C 231.812 -1.44723 1.47861 0
M  V30 2552 C 232.227 -1.88563 0.0945886 0
M  V30 2553 O 231.584 -1.59108 -0.893915 0
M  V30 2554 C 231.635 -2.68627 2.41913 0
M  V30 2555 O 231.356 -2.26623 3.74932 0
M  V30 2556 C 232.857 -3.62045 2.55809 0
M  V30 2557 H 230.077 -0.444801 0.502387 0
M  V30 2558 H 232.621 -0.808916 1.87821 0
M  V30 2559 H 230.776 -3.28613 2.05164 0
M  V30 2560 H 231.19 -3.06745 4.2545 0
M  V30 2561 H 232.664 -4.45666 3.25708 0
M  V30 2562 H 233.141 -4.08981 1.60099 0
M  V30 2563 H 233.747 -3.07944 2.93344 0
M  V30 2564 N 232.062 -1.29571 -0.897171 0
M  V30 2565 C 233.29 -1.20583 -1.68129 0
M  V30 2566 C 233.705 0.233181 -1.87354 0
M  V30 2567 O 233.062 1.15579 -1.41236 0
M  V30 2568 C 233.113 -1.91772 -3.06441 0
M  V30 2569 O 232.834 -3.30053 -2.88091 0
M  V30 2570 C 234.335 -1.89291 -4.00854 0
M  V30 2571 H 231.555 -0.417826 -0.525036 0
M  V30 2572 H 234.099 -1.70987 -1.12177 0
M  V30 2573 H 232.254 -1.45196 -3.59161 0
M  V30 2574 H 232.668 -3.65942 -3.75748 0
M  V30 2575 H 234.142 -2.43662 -4.95311 0
M  V30 2576 H 234.619 -0.869014 -4.30517 0
M  V30 2577 H 235.225 -2.35622 -3.54066 0
M  V30 2578 N 233.54 1.10788 -1.12088 0
M  V30 2579 C 234.768 1.86461 -0.896651 0
M  V30 2580 C 235.183 1.80492 0.553912 0
M  V30 2581 O 234.54 1.19102 1.38278 0
M  V30 2582 C 234.591 3.35006 -1.35843 0
M  V30 2583 O 234.312 3.40866 -2.75213 0
M  V30 2584 C 235.813 4.27565 -1.1706 0
M  V30 2585 H 233.033 0.589425 -0.320654 0
M  V30 2586 H 235.577 1.40076 -1.48993 0
M  V30 2587 H 233.732 3.7887 -0.808458 0
M  V30 2588 H 234.146 4.33411 -2.9539 0
M  V30 2589 H 235.62 5.30007 -1.54263 0
M  V30 2590 H 236.097 4.3906 -0.110814 0
M  V30 2591 H 236.703 3.89501 -1.70789 0
M  V30 2592 N 235.018 0.912232 1.28515 0
M  V30 2593 C 235.965 0.397954 2.27343 0
M  V30 2594 C 236.935 -0.526766 1.57526 0
M  V30 2595 O 238.12 -0.449292 1.85435 0
M  V30 2596 C 235.26 -0.357263 3.43246 0
M  V30 2597 C 234.373 0.599788 4.27816 0
M  V30 2598 C 233.508 -0.173725 5.30916 0
M  V30 2599 C 232.547 0.777039 6.07148 0
M  V30 2600 N 231.684 0.0371398 7.0209 0
M  V30 2601 H 236.524 1.24577 2.70711 0
M  V30 2602 H 234.061 0.625612 1.33133 0
M  V30 2603 H 236.019 -0.8113 4.09236 0
M  V30 2604 H 234.649 -1.16943 3.00872 0
M  V30 2605 H 233.701 1.17235 3.61884 0
M  V30 2606 H 235.013 1.32704 4.80823 0
M  V30 2607 H 234.167 -0.688394 6.02782 0
M  V30 2608 H 232.906 -0.934041 4.78672 0
M  V30 2609 H 231.911 1.3031 5.34134 0
M  V30 2610 H 233.136 1.53689 6.61481 0
M  V30 2611 H 231.082 -0.705213 6.52198 0
M  V30 2612 H 230.999 0.704249 7.52713 0
M  V30 2613 H 232.267 -0.457383 7.78157 0
M  V30 2614 N 236.496 -1.42363 0.676048 0
M  V30 2615 C 237.459 -2.29199 0.00766941 0
M  V30 2616 C 238.459 -1.43389 -0.727745 0
M  V30 2617 O 239.649 -1.64764 -0.56556 0
M  V30 2618 C 236.781 -3.2591 -0.999785 0
M  V30 2619 H 237.974 -2.89794 0.771988 0
M  V30 2620 H 235.527 -1.50024 0.438468 0
M  V30 2621 H 236.262 -2.70256 -1.79255 0
M  V30 2622 H 236.047 -3.89202 -0.475829 0
M  V30 2623 H 237.537 -3.91028 -1.46583 0
M  V30 2624 N 237.974 -0.419461 -1.51915 0
M  V30 2625 C 238.904 0.391813 -2.30189 0
M  V30 2626 C 239.885 1.03699 -1.34836 0
M  V30 2627 O 241.07 1.04403 -1.63748 0
M  V30 2628 C 238.2 1.50312 -3.13087 0
M  V30 2629 C 237.154 0.9824 -4.16573 0
M  V30 2630 C 236.48 2.18809 -4.8788 0
M  V30 2631 C 237.78 0.0292356 -5.22292 0
M  V30 2632 H 239.474 -0.26135 -2.98257 0
M  V30 2633 H 237.02 -0.127134 -1.43438 0
M  V30 2634 H 238.973 2.07773 -3.66617 0
M  V30 2635 H 237.697 2.18431 -2.42807 0
M  V30 2636 H 236.356 0.430119 -3.64068 0
M  V30 2637 H 236.004 2.85507 -4.14119 0
M  V30 2638 H 235.704 1.84615 -5.57845 0
M  V30 2639 H 237.228 2.76858 -5.44226 0
M  V30 2640 H 238.642 0.512976 -5.71 0
M  V30 2641 H 237.039 -0.2244 -5.9968 0
M  V30 2642 H 238.109 -0.912931 -4.76228 0
M  V30 2643 N 239.452 1.56882 -0.150215 0
M  V30 2644 C 240.692 1.98119 0.502804 0
M  V30 2645 C 241.056 1.03327 1.61826 0
M  V30 2646 O 242.257 1.33621 2.33236 0
M  V30 2647 C 240.528 3.43329 0.992988 0
M  V30 2648 S 242.087 4.0659 1.65015 0
M  V30 2649 H 238.905 0.692189 0.162467 0
M  V30 2650 H 241.507 1.93988 -0.242689 0
M  V30 2651 H 240.211 4.10046 0.170436 0
M  V30 2652 H 239.742 3.5118 1.77303 0
M  V30 2653 H 241.757 3.99906 2.93752 0
M  V30 2654 N 240.93 -0.123565 1.57115 0
M  V30 2655 C 242.341 -0.681198 1.73829 0
M  V30 2656 C 242.692 -1.80535 0.768214 0
M  V30 2657 O 241.817 -2.16317 -0.0599103 0
M  V30 2658 C 242.412 -1.24246 3.15196 0
M  V30 2659 C 240.971 -1.74643 3.33432 0
M  V30 2660 C 240.118 -0.644284 2.69711 0
M  V30 2661 H 243.069 0.102315 1.5837 0
M  V30 2662 H 243.09 -2.11216 3.16493 0
M  V30 2663 H 242.602 -0.424062 3.85776 0
M  V30 2664 H 240.703 -2.58974 2.67886 0
M  V30 2665 H 240.816 -1.85902 4.41562 0
M  V30 2666 H 239.18 -1.07676 2.3082 0
M  V30 2667 H 239.963 0.163058 3.42913 0
M  V30 2668 N 242.408 -1.52605 -0.393616 0
M  V30 2669 C 243.338 -1.80022 -1.48709 0
M  V30 2670 C 244.319 -0.651995 -1.57108 0
M  V30 2671 O 245.504 -0.89913 -1.72132 0
M  V30 2672 C 242.634 -1.96492 -2.86371 0
M  V30 2673 C 241.588 -3.12161 -2.92813 0
M  V30 2674 C 240.914 -3.13877 -4.3288 0
M  V30 2675 C 242.214 -4.51322 -2.6288 0
M  V30 2676 H 243.908 -2.71589 -1.26015 0
M  V30 2677 H 241.454 -1.30684 -0.604778 0
M  V30 2678 H 243.407 -2.14255 -3.62867 0
M  V30 2679 H 242.131 -1.01611 -3.10391 0
M  V30 2680 H 240.79 -2.94173 -2.18764 0
M  V30 2681 H 240.438 -2.16687 -4.53933 0
M  V30 2682 H 240.138 -3.91576 -4.38112 0
M  V30 2683 H 241.662 -3.33789 -5.1129 0
M  V30 2684 H 243.076 -4.69435 -3.29096 0
M  V30 2685 H 241.473 -5.31053 -2.79468 0
M  V30 2686 H 242.543 -4.58353 -1.58242 0
M  V30 2687 N 243.887 0.651787 -1.4349 0
M  V30 2688 C 245.117 1.43728 -1.48411 0
M  V30 2689 C 245.525 1.8893 -0.10103 0
M  V30 2690 O 244.868 1.60182 0.899307 0
M  V30 2691 C 244.93 2.70411 -2.36893 0
M  V30 2692 C 244.594 2.4714 -3.8441 0
M  V30 2693 C 245.591 2.10271 -4.75481 0
M  V30 2694 C 243.276 2.6142 -4.28912 0
M  V30 2695 C 245.27 1.87982 -6.0905 0
M  V30 2696 C 242.957 2.38746 -5.62533 0
M  V30 2697 C 243.955 2.02083 -6.5242 0
M  V30 2698 O 243.643 1.79647 -7.8357 0
M  V30 2699 H 243.375 0.447962 -0.506267 0
M  V30 2700 H 245.929 0.80624 -1.88915 0
M  V30 2701 H 244.159 3.36079 -1.91278 0
M  V30 2702 H 245.848 3.32364 -2.33 0
M  V30 2703 H 246.614 1.98814 -4.42378 0
M  V30 2704 H 242.493 2.88931 -3.59222 0
M  V30 2705 H 246.037 1.5929 -6.7917 0
M  V30 2706 H 241.934 2.49806 -5.95203 0
M  V30 2707 H 242.702 1.9406 -7.95162 0
M  V30 2708 N 245.365 1.30045 0.890287 0
M  V30 2709 C 246.593 1.21472 1.67487 0
M  V30 2710 C 247.008 -0.223241 1.87476 0
M  V30 2711 O 246.365 -1.14828 1.41847 0
M  V30 2712 C 246.416 1.93394 3.05419 0
M  V30 2713 O 246.137 3.31576 2.86337 0
M  V30 2714 C 247.638 1.91414 3.99844 0
M  V30 2715 H 244.858 0.420604 0.522813 0
M  V30 2716 H 247.402 1.7158 1.11268 0
M  V30 2717 H 245.557 1.47099 3.58386 0
M  V30 2718 H 245.971 3.67929 3.73802 0
M  V30 2719 H 247.445 2.46285 4.94012 0
M  V30 2720 H 247.922 0.891833 4.3005 0
M  V30 2721 H 248.528 2.37496 3.52811 0
M  V30 2722 N 246.843 -1.10192 1.12674 0
M  V30 2723 C 248.068 -1.86523 0.906853 0
M  V30 2724 C 248.493 -1.80221 -0.538711 0
M  V30 2725 O 247.851 -1.17396 -1.38158 0
M  V30 2726 C 247.899 -3.32758 1.3894 0
M  V30 2727 O 247.003 -4.08449 0.5695 0
M  V30 2728 H 246.344 -0.578678 0.325619 0
M  V30 2729 H 248.874 -1.39203 1.49946 0
M  V30 2730 H 248.884 -3.83608 1.38958 0
M  V30 2731 H 247.559 -3.36661 2.44197 0
M  V30 2732 H 246.136 -3.67427 0.636528 0
M  V30 2733 N 248.321 -0.919034 -1.28029 0
M  V30 2734 C 249.732 -0.600735 -1.76771 0
M  V30 2735 C 250.083 0.884024 -1.75156 0
M  V30 2736 O 249.208 1.69163 -1.34956 0
M  V30 2737 C 249.803 -1.08372 -3.21 0
M  V30 2738 C 248.362 -0.816248 -3.67443 0
M  V30 2739 C 247.509 -1.24742 -2.47658 0
M  V30 2740 H 250.46 -1.09974 -1.14418 0
M  V30 2741 H 250.481 -0.427512 -3.78091 0
M  V30 2742 H 249.993 -2.16437 -3.22144 0
M  V30 2743 H 248.094 0.250968 -3.71754 0
M  V30 2744 H 248.207 -1.4277 -4.57333 0
M  V30 2745 H 246.571 -0.666083 -2.45836 0
M  V30 2746 H 247.354 -2.33653 -2.51518 0
M  V30 2747 N 249.799 1.42003 -0.683588 0
M  V30 2748 C 251.215 1.55625 -0.353976 0
M  V30 2749 C 251.415 1.66151 1.14 0
M  V30 2750 O 250.471 1.63329 1.92561 0
M  V30 2751 C 251.784 2.80171 -1.092 0
M  V30 2752 C 253.332 2.93954 -1.07518 0
M  V30 2753 C 253.807 4.21372 -1.79471 0
M  V30 2754 N 255.298 4.28303 -1.76381 0
M  V30 2755 C 256.033 5.25729 -2.28904 0
M  V30 2756 N 255.529 6.29254 -2.89846 0
M  V30 2757 N 257.322 5.17586 -2.19228 0
M  V30 2758 H 249.473 1.33415 -1.6527 0
M  V30 2759 H 251.736 0.64282 -0.696769 0
M  V30 2760 H 251.442 2.78561 -2.14701 0
M  V30 2761 H 251.316 3.7133 -0.662862 0
M  V30 2762 H 253.703 2.95086 -0.028475 0
M  V30 2763 H 253.784 2.04002 -1.54328 0
M  V30 2764 H 253.428 4.21001 -2.84114 0
M  V30 2765 H 253.358 5.10275 -1.30104 0
M  V30 2766 H 255.849 3.54119 -1.31939 0
M  V30 2767 H 256.162 6.99964 -3.27522 0
M  V30 2768 H 254.507 6.29791 -2.93919 0
M  V30 2769 H 257.698 4.35631 -1.71299 0
M  V30 2770 H 257.871 5.93348 -2.60466 0
M  V30 2771 N 251.277 0.427512 1.51691 0
M  V30 2772 C 252.505 -0.141191 2.06418 0
M  V30 2773 C 252.92 -1.37303 1.29589 0
M  V30 2774 O 252.277 -1.79059 0.352732 0
M  V30 2775 C 252.328 -0.473266 3.58389 0
M  V30 2776 O 252.049 0.709673 4.32314 0
M  V30 2777 C 253.55 -1.09371 4.29596 0
M  V30 2778 H 250.77 -0.0122747 0.670888 0
M  V30 2779 H 253.314 0.603764 1.95384 0
M  V30 2780 H 251.469 -1.16812 3.69369 0
M  V30 2781 H 251.883 0.42807 5.2275 0
M  V30 2782 H 253.357 -1.27613 5.37046 0
M  V30 2783 H 253.834 -2.072 3.87253 0
M  V30 2784 H 254.44 -0.43853 4.23033 0
M  V30 2785 N 252.755 -1.56801 0.158532 0
M  V30 2786 C 254.001 -1.96781 -0.490405 0
M  V30 2787 C 254.334 -1.04397 -1.63753 0
M  V30 2788 O 253.609 -0.0885805 -1.94298 0
M  V30 2789 C 253.892 -3.4635 -0.985594 0
M  V30 2790 C 253.745 -4.49512 0.160824 0
M  V30 2791 C 255.064 -3.98697 -1.86355 0
M  V30 2792 H 252.183 -0.715482 -0.176788 0
M  V30 2793 H 254.825 -1.88451 0.242088 0
M  V30 2794 H 252.975 -3.53579 -1.60978 0
M  V30 2795 H 254.647 -4.54353 0.797537 0
M  V30 2796 H 252.89 -4.26013 0.818256 0
M  V30 2797 H 253.561 -5.51531 -0.227569 0
M  V30 2798 H 256.037 -3.94019 -1.33746 0
M  V30 2799 H 254.913 -5.03792 -2.17909 0
M  V30 2800 H 255.174 -3.41744 -2.8047 0
M  V30 2801 N 254.233 0.115231 -1.57178 0
M  V30 2802 C 255.461 0.836437 -1.89239 0
M  V30 2803 C 255.876 1.73256 -0.750175 0
M  V30 2804 O 255.233 1.80357 0.278832 0
M  V30 2805 C 255.284 1.66671 -3.20785 0
M  V30 2806 O 255.005 0.806652 -4.3061 0
M  V30 2807 C 256.506 2.49274 -3.66575 0
M  V30 2808 H 253.726 0.240253 -0.626514 0
M  V30 2809 H 256.27 0.0984932 -2.04263 0
M  V30 2810 H 254.425 2.35737 -3.0742 0
M  V30 2811 H 254.839 1.37969 -5.06028 0
M  V30 2812 H 256.313 3.03055 -4.6137 0
M  V30 2813 H 256.79 3.26807 -2.93417 0
M  V30 2814 H 257.396 1.85443 -3.82741 0
M  V30 2815 N 255.711 1.52812 0.385517 0
M  V30 2816 C 256.643 1.74096 1.49074 0
M  V30 2817 C 257.656 0.621462 1.50472 0
M  V30 2818 O 258.845 0.897245 1.54311 0
M  V30 2819 C 255.945 1.78774 2.87911 0
M  V30 2820 C 255.118 3.08134 3.10439 0
M  V30 2821 C 254.177 3.04313 4.29278 0
M  V30 2822 O 253.203 3.78168 4.25415 0
M  V30 2823 N 254.405 2.23741 5.35649 0
M  V30 2824 H 257.17 2.69455 1.31202 0
M  V30 2825 H 254.731 1.51343 0.575065 0
M  V30 2826 H 256.723 1.73721 3.65518 0
M  V30 2827 H 255.293 0.907869 2.99126 0
M  V30 2828 H 254.513 3.26649 2.20667 0
M  V30 2829 H 255.801 3.93662 3.22347 0
M  V30 2830 H 255.199 1.63211 5.41645 0
M  V30 2831 H 253.756 2.24524 6.11909 0
M  V30 2832 N 257.189 -0.644168 1.43834 0
M  V30 2833 C 258.152 -1.73857 1.49353 0
M  V30 2834 C 259.152 -1.56315 0.377112 0
M  V30 2835 O 260.342 -1.62048 0.639226 0
M  V30 2836 C 257.474 -3.12819 1.35488 0
M  V30 2837 H 258.667 -1.70342 2.46827 0
M  V30 2838 H 256.22 -0.856652 1.30733 0
M  V30 2839 H 256.955 -3.2194 0.390569 0
M  V30 2840 H 256.74 -3.26958 2.16428 0
M  V30 2841 H 258.23 -3.92606 1.42302 0
M  V30 2842 N 258.668 -1.30515 -0.883378 0
M  V30 2843 C 260.079 -1.17509 -1.45081 0
M  V30 2844 C 260.43 0.223605 -1.94922 0
M  V30 2845 O 259.555 1.12041 -1.85137 0
M  V30 2846 C 260.15 -2.12715 -2.63701 0
M  V30 2847 C 258.709 -2.03682 -3.16529 0
M  V30 2848 C 257.856 -2.02706 -1.89224 0
M  V30 2849 H 260.807 -1.42762 -0.693165 0
M  V30 2850 H 260.828 -1.70891 -3.39965 0
M  V30 2851 H 260.34 -3.14505 -2.27395 0
M  V30 2852 H 258.441 -1.05039 -3.57488 0
M  V30 2853 H 258.554 -2.92146 -3.7972 0
M  V30 2854 H 256.918 -1.4753 -2.07622 0
M  V30 2855 H 257.701 -3.06229 -1.55174 0
M  V30 2856 N 260.146 1.09593 -1.13257 0
M  V30 2857 C 261.557 1.63229 -0.906274 0
M  V30 2858 C 261.908 1.8811 0.557578 0
M  V30 2859 O 261.033 1.62953 1.42391 0
M  V30 2860 C 261.628 2.96535 -1.63867 0
M  V30 2861 C 260.187 3.47003 -1.45828 0
M  V30 2862 C 259.334 2.2145 -1.66898 0
M  V30 2863 H 262.285 0.92978 -1.28611 0
M  V30 2864 H 262.306 3.64411 -1.09476 0
M  V30 2865 H 261.818 2.78394 -2.70404 0
M  V30 2866 H 259.919 3.70272 -0.415848 0
M  V30 2867 H 260.032 4.24551 -2.2202 0
M  V30 2868 H 258.396 2.30022 -1.09371 0
M  V30 2869 H 259.179 2.0583 -2.74752 0
M  V30 2870 N 261.624 0.925811 1.2754 0
M  V30 2871 C 262.571 0.422045 2.26908 0
M  V30 2872 C 263.541 -0.510029 1.58076 0
M  V30 2873 O 264.726 -0.429599 1.85901 0
M  V30 2874 C 261.866 -0.320837 3.43605 0
M  V30 2875 C 260.979 0.64513 4.27156 0
M  V30 2876 C 260.114 -0.117405 5.3107 0
M  V30 2877 C 259.153 0.841391 6.0629 0
M  V30 2878 N 258.29 0.111604 7.02011 0
M  V30 2879 H 263.13 1.27441 2.69375 0
M  V30 2880 H 260.667 0.639697 1.32462 0
M  V30 2881 H 262.625 -0.76785 4.10073 0
M  V30 2882 H 261.255 -1.13745 3.02096 0
M  V30 2883 H 260.307 1.21067 3.6062 0
M  V30 2884 H 261.619 1.37797 4.79389 0
M  V30 2885 H 260.773 -0.624422 6.03478 0
M  V30 2886 H 259.512 -0.883219 4.79636 0
M  V30 2887 H 258.517 1.35967 5.32722 0
M  V30 2888 H 259.742 1.60696 6.59813 0
M  V30 2889 H 257.688 -0.635999 6.5291 0
M  V30 2890 H 257.605 0.784044 7.51923 0
M  V30 2891 H 258.873 -0.374823 7.78598 0
M  V30 2892 N 263.102 -1.41638 0.69111 0
M  V30 2893 C 264.327 -2.06148 0.227583 0
M  V30 2894 C 264.752 -1.51652 -1.11281 0
M  V30 2895 O 264.11 -0.64164 -1.69566 0
M  V30 2896 C 264.158 -3.60095 0.190858 0
M  V30 2897 O 263.262 -4.03845 -0.835664 0
M  V30 2898 H 262.603 -0.654434 0.112306 0
M  V30 2899 H 265.133 -1.81484 0.944714 0
M  V30 2900 H 265.143 -4.07995 0.020207 0
M  V30 2901 H 263.818 -3.99129 1.16915 0
M  V30 2902 H 262.395 -3.67458 -0.63473 0
M  V30 2903 N 264.58 -0.43555 -1.51462 0
M  V30 2904 C 265.808 0.130242 -2.0649 0
M  V30 2905 C 266.223 1.36614 -1.30315 0
M  V30 2906 O 265.58 1.78869 -0.362223 0
M  V30 2907 C 265.631 0.454253 -3.58635 0
M  V30 2908 O 265.352 -0.73259 -4.31931 0
M  V30 2909 C 266.853 1.07091 -4.3017 0
M  V30 2910 H 264.073 0.00871669 -0.670943 0
M  V30 2911 H 266.617 -0.614117 -1.95061 0
M  V30 2912 H 264.772 1.14851 -3.69984 0
M  V30 2913 H 265.186 -0.455787 -5.22516 0
M  V30 2914 H 266.66 1.24764 -5.37716 0
M  V30 2915 H 267.137 2.05144 -3.88346 0
M  V30 2916 H 267.743 0.416089 -4.2326 0
M  V30 2917 N 266.058 1.56714 -0.166846 0
M  V30 2918 C 267.021 2.16539 0.751232 0
M  V30 2919 C 268.021 1.11228 1.16125 0
M  V30 2920 O 269.211 1.36765 1.07894 0
M  V30 2921 C 266.343 2.74462 2.02196 0
M  V30 2922 H 267.536 2.99013 0.230499 0
M  V30 2923 H 265.089 1.56081 0.0826982 0
M  V30 2924 H 265.824 1.95709 2.58589 0
M  V30 2925 H 265.609 3.51527 1.73698 0
M  V30 2926 H 267.099 3.20489 2.67725 0
M  V30 2927 N 267.536 -0.106894 1.57237 0
M  V30 2928 C 268.813 -0.843526 1.76477 0
M  V30 2929 C 269.193 -1.97499 0.745464 0
M  V30 2930 O 268.541 -2.27357 -0.228306 0
M  V30 2931 C 268.751 -1.34903 3.21873 0
M  V30 2932 C 270.099 -1.79654 3.8472 0
M  V30 2933 O 271.123 -1.44554 3.2555 0
M  V30 2934 O 269.982 -2.44515 4.88748 0
M  V30 2935 H 267.076 -0.401468 0.723016 0
M  V30 2936 H 269.622 -0.0896927 1.69463 0
M  V30 2937 H 268.394 -0.53781 3.87586 0
M  V30 2938 H 268.017 -2.16522 3.33473 0
M  V30 2939 N 269.014 -1.53014 -0.377408 0
M  V30 2940 C 270.26 -1.68872 -1.12294 0
M  V30 2941 C 270.593 -0.433224 -1.89306 0
M  V30 2942 O 269.868 0.569258 -1.85983 0
M  V30 2943 C 270.151 -2.93115 -2.09179 0
M  V30 2944 C 270.004 -4.28794 -1.35853 0
M  V30 2945 C 271.323 -3.12928 -3.09458 0
M  V30 2946 H 268.442 -0.614518 -0.406862 0
M  V30 2947 H 271.084 -1.85633 -0.40503 0
M  V30 2948 H 269.234 -2.78956 -2.70399 0
M  V30 2949 H 270.906 -4.54742 -0.775082 0
M  V30 2950 H 269.149 -4.28744 -0.660364 0
M  V30 2951 H 269.82 -5.11837 -2.06706 0
M  V30 2952 H 272.296 -3.26194 -2.58334 0
M  V30 2953 H 271.172 -4.01316 -3.74482 0
M  V30 2954 H 271.433 -2.27669 -3.78971 0
M  V30 2955 N 270.492 0.636531 -1.44174 0
M  V30 2956 C 271.717 1.42847 -1.50364 0
M  V30 2957 C 272.142 1.87665 -0.127867 0
M  V30 2958 O 271.5 1.58408 0.88185 0
M  V30 2959 C 271.548 2.62854 -2.4686 0
M  V30 2960 O 270.652 3.62501 -1.9664 0
M  V30 2961 H 269.993 0.427642 -0.507955 0
M  V30 2962 H 272.523 0.777422 -1.89255 0
M  V30 2963 H 272.533 3.10465 -2.64718 0
M  V30 2964 H 271.208 2.29578 -3.46795 0
M  V30 2965 H 269.785 3.21735 -1.88523 0
M  V30 2966 N 271.97 1.30982 0.876444 0
M  V30 2967 C 273.198 1.23242 1.6619 0
M  V30 2968 C 273.613 -0.203345 1.87702 0
M  V30 2969 O 272.97 -1.13317 1.43057 0
M  V30 2970 C 273.021 1.96623 3.03351 0
M  V30 2971 O 272.742 3.34594 2.82804 0
M  V30 2972 C 274.243 1.95644 3.97792 0
M  V30 2973 H 271.463 0.426126 0.518322 0
M  V30 2974 H 274.007 1.7275 1.09442 0
M  V30 2975 H 272.162 1.50892 3.56806 0
M  V30 2976 H 272.576 3.71873 3.69879 0
M  V30 2977 H 274.05 2.51511 4.91372 0
M  V30 2978 H 274.527 0.937395 4.2908 0
M  V30 2979 H 275.133 2.41225 3.50272 0
M  V30 2980 N 273.449 -1.08991 1.13837 0
M  V30 2981 C 274.86 -1.62746 0.914917 0
M  V30 2982 C 275.211 -1.88403 -0.547594 0
M  V30 2983 O 274.336 -1.63706 -1.41525 0
M  V30 2984 C 274.931 -2.95662 1.65437 0
M  V30 2985 C 273.49 -3.46225 1.47666 0
M  V30 2986 C 272.637 -2.20562 1.6807 0
M  V30 2987 H 275.588 -0.922946 1.29102 0
M  V30 2988 H 275.609 -3.63825 1.11407 0
M  V30 2989 H 275.121 -2.76956 2.71877 0
M  V30 2990 H 273.222 -3.70046 0.435478 0
M  V30 2991 H 273.335 -4.23368 2.24268 0
M  V30 2992 H 271.699 -2.29439 1.10589 0
M  V30 2993 H 272.482 -2.0437 2.7584 0
M  V30 2994 N 274.927 -0.932562 -1.27047 0
M  V30 2995 C 276.204 -0.49377 -1.89265 0
M  V30 2996 C 276.584 1.02833 -1.8436 0
M  V30 2997 O 275.932 1.88461 -1.29209 0
M  V30 2998 C 276.142 -1.04536 -3.32976 0
M  V30 2999 C 277.49 -1.10879 -4.09867 0
M  V30 3000 O 278.514 -0.995327 -3.42011 0
M  V30 3001 O 277.373 -1.28417 -5.31198 0
M  V30 3002 H 274.467 -0.159596 -0.811454 0
M  V30 3003 H 277.013 -1.02457 -1.3528 0
M  V30 3004 H 275.785 -2.08913 -3.30864 0
M  V30 3005 H 275.408 -0.496494 -3.94488 0
M  V30 3006 N 276.405 1.4127 -0.698611 0
M  V30 3007 C 277.63 2.06024 -0.238512 0
M  V30 3008 C 278.055 1.5224 1.10475 0
M  V30 3009 O 277.413 0.650623 1.69223 0
M  V30 3010 C 277.461 3.59988 -0.209952 0
M  V30 3011 O 276.565 4.04282 0.814235 0
M  V30 3012 H 275.906 0.653829 -0.115775 0
M  V30 3013 H 278.436 1.8098 -0.954326 0
M  V30 3014 H 278.446 4.07979 -0.0418436 0
M  V30 3015 H 277.121 3.98503 -1.1903 0
M  V30 3016 H 275.698 3.6779 0.615234 0
M  V30 3017 N 277.883 0.443576 1.51229 0
M  V30 3018 C 278.793 -0.370721 2.31652 0
M  V30 3019 C 279.809 -1.02186 1.40833 0
M  V30 3020 O 280.985 -1.01586 1.73903 0
M  V30 3021 C 278.05 -1.45376 3.14749 0
M  V30 3022 C 277.111 -0.822099 4.21355 0
M  V30 3023 C 276.344 -1.85353 5.0048 0
M  V30 3024 O 276.567 -3.07656 4.80316 0
M  V30 3025 O 275.501 -1.4406 5.84406 0
M  V30 3026 H 279.327 0.286002 3.0235 0
M  V30 3027 H 276.912 0.20598 1.47973 0
M  V30 3028 H 278.794 -2.08173 3.66391 0
M  V30 3029 H 277.469 -2.09445 2.46809 0
M  V30 3030 H 276.376 -0.155909 3.73775 0
M  V30 3031 H 277.709 -0.224797 4.91686 0
M  V30 3032 N 279.361 -1.56624 0.175154 0
M  V30 3033 C 280.61 -1.96173 -0.468921 0
M  V30 3034 C 280.923 -1.06401 -1.64128 0
M  V30 3035 O 282.129 -1.35648 -2.35185 0
M  V30 3036 C 280.585 -3.48833 -0.885633 0
M  V30 3037 C 280.193 -4.47237 0.261343 0
M  V30 3038 C 281.937 -3.97194 -1.49791 0
M  V30 3039 C 279.844 -5.9114 -0.175214 0
M  V30 3040 H 278.774 -0.732455 -0.178958 0
M  V30 3041 H 281.425 -1.81591 0.263997 0
M  V30 3042 H 279.807 -3.58848 -1.67464 0
M  V30 3043 H 280.981 -4.4894 1.03871 0
M  V30 3044 H 279.296 -4.08956 0.783827 0
M  V30 3045 H 281.893 -5.02167 -1.83665 0
M  V30 3046 H 282.236 -3.40351 -2.39722 0
M  V30 3047 H 282.769 -3.90212 -0.773267 0
M  V30 3048 H 279.508 -6.51865 0.689414 0
M  V30 3049 H 279.028 -5.92735 -0.91786 0
M  V30 3050 H 280.707 -6.44044 -0.617792 0
M  V30 3051 N 280.839 0.0985539 -1.57292 0
M  V30 3052 C 281.787 1.1387 -2.02821 0
M  V30 3053 C 282.781 1.41676 -0.928666 0
M  V30 3054 O 283.987 1.41398 -1.11385 0
M  V30 3055 H 280.362 0.384419 -0.646317 0
M  V30 3056 H 282.333 0.728347 -2.89375 0
M  V30 3057 C 281.082 2.45166 -2.46554 0
M  V30 3058 H 280.405 2.24613 -3.3074 0
M  V30 3059 H 281.845 3.16456 -2.8219 0
M  V30 3060 C 280.304 3.09216 -1.33742 0
M  V30 3061 O 280.834 3.96163 -0.66464 0
M  V30 3062 N 279.04 2.69413 -1.08928 0
M  V30 3063 H 278.587 1.98801 -1.63817 0
M  V30 3064 H 278.545 3.12594 -0.336458 0
M  V30 3065 N 282.317 1.53212 0.369288 0
M  V30 3066 C 283.247 1.82365 1.45826 0
M  V30 3067 C 284.228 0.676907 1.56051 0
M  V30 3068 O 285.413 0.926401 1.70679 0
M  V30 3069 C 282.543 2.01023 2.83208 0
M  V30 3070 C 281.497 3.1678 2.8781 0
M  V30 3071 C 280.823 3.20724 4.27832 0
M  V30 3072 C 282.123 4.55447 2.55667 0
M  V30 3073 H 283.817 2.73559 1.21678 0
M  V30 3074 H 281.363 1.3163 0.583911 0
M  V30 3075 H 283.316 2.20001 3.59413 0
M  V30 3076 H 282.04 1.06536 3.08736 0
M  V30 3077 H 280.699 2.97616 2.14056 0
M  V30 3078 H 280.347 2.23882 4.50429 0
M  V30 3079 H 280.047 3.98496 4.31827 0
M  V30 3080 H 281.571 3.41881 5.05915 0
M  V30 3081 H 282.985 4.74611 3.21586 0
M  V30 3082 H 281.382 5.35432 2.70984 0
M  V30 3083 H 282.452 4.60812 1.5093 0
M  V30 3084 N 283.795 -0.628877 1.44509 0
M  V30 3085 C 285.023 -1.41554 1.50897 0
M  V30 3086 C 285.438 -1.8832 0.134564 0
M  V30 3087 O 284.795 -1.60969 -0.859965 0
M  V30 3088 C 284.846 -2.63435 2.47556 0
M  V30 3089 O 284.567 -2.18619 3.79654 0
M  V30 3090 C 286.068 -3.56537 2.63431 0
M  V30 3091 H 283.288 -0.434044 0.511709 0
M  V30 3092 H 285.832 -0.768895 1.89495 0
M  V30 3093 H 283.987 -3.24187 2.12089 0
M  V30 3094 H 284.401 -2.97652 4.31861 0
M  V30 3095 H 285.875 -4.38657 3.35088 0
M  V30 3096 H 286.352 -4.05493 1.68738 0
M  V30 3097 H 286.958 -3.01653 2.9981 0
M  V30 3098 N 285.273 -1.31445 -0.869486 0
M  V30 3099 C 286.221 -1.19067 -1.99814 0
M  V30 3100 C 287.215 -0.0988569 -1.69111 0
M  V30 3101 O 288.421 -0.260781 -1.78101 0
M  V30 3102 H 284.796 -0.368677 -0.655425 0
M  V30 3103 H 286.767 -2.14555 -2.07385 0
M  V30 3104 C 285.516 -0.915323 -3.35436 0
M  V30 3105 H 284.839 -1.74759 -3.59582 0
M  V30 3106 H 286.279 -0.868895 -4.15001 0
M  V30 3107 C 284.738 0.381928 -3.34728 0
M  V30 3108 O 285.268 1.39857 -3.76567 0
M  V30 3109 N 283.474 0.398633 -2.87853 0
M  V30 3110 H 283.021 -0.429186 -2.54 0
M  V30 3111 H 282.979 1.26651 -2.87762 0
M  V30 3112 N 286.751 1.08385 -1.14413 0
M  V30 3113 C 287.997 1.81044 -0.913834 0
M  V30 3114 C 288.33 1.86004 0.558209 0
M  V30 3115 O 287.605 1.33606 1.4135 0
M  V30 3116 C 287.888 3.26648 -1.51569 0
M  V30 3117 C 287.741 3.29895 -3.0576 0
M  V30 3118 C 289.06 4.23629 -1.19273 0
M  V30 3119 H 286.179 0.65727 -0.333414 0
M  V30 3120 H 288.821 1.26896 -1.41412 0
M  V30 3121 H 286.971 3.72889 -1.09023 0
M  V30 3122 H 288.643 2.91977 -3.57137 0
M  V30 3123 H 286.886 2.69163 -3.40197 0
M  V30 3124 H 287.557 4.32516 -3.42977 0
M  V30 3125 H 290.033 3.85727 -1.56057 0
M  V30 3126 H 288.909 5.23822 -1.64017 0
M  V30 3127 H 289.17 4.41968 -0.108068 0
M  V30 3128 N 288.23 0.939286 1.26551 0
M  V30 3129 C 289.458 0.602536 1.97932 0
M  V30 3130 C 289.873 -0.82206 1.69964 0
M  V30 3131 O 289.23 -1.54789 0.966784 0
M  V30 3132 C 289.281 0.832946 3.51773 0
M  V30 3133 O 289.002 2.20151 3.78768 0
M  V30 3134 C 290.503 0.506483 4.40397 0
M  V30 3135 H 287.723 0.227248 0.631347 0
M  V30 3136 H 290.267 1.25948 1.61113 0
M  V30 3137 H 288.422 0.222644 3.8676 0
M  V30 3138 H 288.836 2.26013 4.73306 0
M  V30 3139 H 290.31 0.718333 5.47306 0
M  V30 3140 H 290.787 -0.558451 4.35635 0
M  V30 3141 H 291.393 1.09543 4.10951 0
M  V30 3142 N 289.708 -1.40897 0.706093 0
M  V30 3143 C 290.985 -1.94868 0.169099 0
M  V30 3144 C 291.365 -1.64485 -1.32318 0
M  V30 3145 O 290.713 -0.95744 -2.07474 0
M  V30 3146 C 290.923 -3.45798 0.471654 0
M  V30 3147 C 292.271 -4.22663 0.405127 0
M  V30 3148 O 293.295 -3.53865 0.407168 0
M  V30 3149 O 292.154 -5.45216 0.374383 0
M  V30 3150 H 289.248 -0.82673 0.0211352 0
M  V30 3151 H 291.794 -1.50558 0.782976 0
M  V30 3152 H 290.566 -3.61235 1.50416 0
M  V30 3153 H 290.189 -3.97225 -0.172666 0
M  V30 3154 N 291.186 -0.45159 -1.50991 0
M  V30 3155 C 292.435 0.111653 -2.01391 0
M  V30 3156 C 292.748 1.42529 -1.33959 0
M  V30 3157 O 293.954 2.07232 -1.75405 0
M  V30 3158 C 292.41 0.249514 -3.59034 0
M  V30 3159 C 292.018 -1.05453 -4.35412 0
M  V30 3160 C 293.762 0.765762 -4.17536 0
M  V30 3161 C 291.669 -0.881529 -5.84793 0
M  V30 3162 H 290.599 0.0455022 -0.752626 0
M  V30 3163 H 293.25 -0.583524 -1.73975 0
M  V30 3164 H 291.632 1.00803 -3.82955 0
M  V30 3165 H 292.806 -1.82248 -4.23229 0
M  V30 3166 H 291.121 -1.50039 -3.88429 0
M  V30 3167 H 293.718 0.911913 -5.26866 0
M  V30 3168 H 294.061 1.75201 -3.77638 0
M  V30 3169 H 294.594 0.0651744 -3.97747 0
M  V30 3170 H 291.333 -1.84057 -6.29129 0
M  V30 3171 H 290.853 -0.153625 -5.99603 0
M  V30 3172 H 292.532 -0.540363 -6.4474 0
M  V30 3173 N 292.664 1.56529 -0.183458 0
M  V30 3174 C 293.913 1.96419 0.458511 0
M  V30 3175 C 294.226 1.0727 1.63562 0
M  V30 3176 O 295.432 1.36893 2.34462 0
M  V30 3177 C 293.888 3.49298 0.867122 0
M  V30 3178 C 293.496 4.47092 -0.285057 0
M  V30 3179 C 295.24 3.97983 1.47683 0
M  V30 3180 C 293.147 5.91225 0.143862 0
M  V30 3181 H 292.077 0.733394 0.175071 0
M  V30 3182 H 294.728 1.81448 -0.273624 0
M  V30 3183 H 293.11 3.59731 1.65559 0
M  V30 3184 H 294.284 4.48383 -1.0625 0
M  V30 3185 H 292.599 4.08535 -0.805503 0
M  V30 3186 H 295.196 5.03134 1.80999 0
M  V30 3187 H 295.539 3.41618 2.37914 0
M  V30 3188 H 296.072 3.90617 0.752562 0
M  V30 3189 H 292.811 6.5149 -0.723974 0
M  V30 3190 H 292.331 5.93214 0.886413 0
M  V30 3191 H 294.01 6.44362 0.583628 0
M  V30 3192 N 294.142 -0.090211 1.57342 0
M  V30 3193 C 295.558 -0.444547 1.53284 0
M  V30 3194 C 295.758 -1.80238 0.900914 0
M  V30 3195 O 294.814 -2.4759 0.495513 0
M  V30 3196 C 296.127 -0.402543 2.97993 0
M  V30 3197 C 297.675 -0.48405 3.09234 0
M  V30 3198 C 298.15 -0.472144 4.5556 0
M  V30 3199 N 299.641 -0.532757 4.60126 0
M  V30 3200 C 300.376 -0.545462 5.708 0
M  V30 3201 N 299.872 -0.514082 6.9089 0
M  V30 3202 N 301.665 -0.59064 5.58988 0
M  V30 3203 H 293.816 0.799121 1.96794 0
M  V30 3204 H 296.079 0.297965 0.899956 0
M  V30 3205 H 295.785 0.528106 3.47712 0
M  V30 3206 H 295.659 -1.21969 3.56936 0
M  V30 3207 H 298.046 -1.40512 2.595 0
M  V30 3208 H 298.127 0.361328 2.53235 0
M  V30 3209 H 297.771 0.445 5.05947 0
M  V30 3210 H 297.701 -1.3348 5.09402 0
M  V30 3211 H 300.192 -0.562006 3.73698 0
M  V30 3212 H 300.505 -0.527195 7.71 0
M  V30 3213 H 298.85 -0.481054 6.93333 0
M  V30 3214 H 302.041 -0.61272 4.64073 0
M  V30 3215 H 302.214 -0.597073 6.45243 0
M  V30 3216 N 295.62 -1.53406 -0.361157 0
M  V30 3217 C 296.866 -1.70054 -1.10496 0
M  V30 3218 C 297.199 -0.453278 -1.88836 0
M  V30 3219 O 296.474 0.5495 -1.86576 0
M  V30 3220 C 296.757 -2.95317 -2.06058 0
M  V30 3221 C 296.61 -4.3021 -1.31298 0
M  V30 3222 C 297.929 -3.16193 -3.06121 0
M  V30 3223 H 295.048 -0.618799 -0.400321 0
M  V30 3224 H 297.69 -1.86052 -0.385318 0
M  V30 3225 H 295.84 -2.81809 -2.67425 0
M  V30 3226 H 297.512 -4.55538 -0.726807 0
M  V30 3227 H 295.755 -4.29421 -0.614853 0
M  V30 3228 H 296.426 -5.14 -2.01265 0
M  V30 3229 H 298.902 -3.28916 -2.5486 0
M  V30 3230 H 297.778 -4.05266 -3.70204 0
M  V30 3231 H 298.039 -2.31676 -3.76535 0
M  V30 3232 N 297.098 0.621204 -1.44841 0
M  V30 3233 C 298.509 1.20298 -1.42777 0
M  V30 3234 C 298.86 1.95639 -0.148259 0
M  V30 3235 O 297.985 2.02955 0.750892 0
M  V30 3236 C 298.58 2.1882 -2.58657 0
M  V30 3237 C 297.139 2.72403 -2.59756 0
M  V30 3238 C 296.286 1.4757 -2.34773 0
M  V30 3239 H 299.237 0.411297 -1.53278 0
M  V30 3240 H 299.258 3.01607 -2.31977 0
M  V30 3241 H 298.77 1.63957 -3.51766 0
M  V30 3242 H 296.871 3.31242 -1.70615 0
M  V30 3243 H 296.984 3.17765 -3.58556 0
M  V30 3244 H 295.348 1.76051 -1.8406 0
M  V30 3245 H 296.131 0.945954 -3.3001 0
M  V30 3246 N 298.576 1.31904 0.862503 0
M  V30 3247 C 299.822 1.22197 1.61851 0
M  V30 3248 C 300.155 -0.217641 1.92977 0
M  V30 3249 O 299.43 -1.15264 1.56666 0
M  V30 3250 C 299.713 2.07378 2.94391 0
M  V30 3251 C 299.566 3.59678 2.70096 0
M  V30 3252 C 300.885 1.92891 3.95577 0
M  V30 3253 H 298.004 0.445255 0.587296 0
M  V30 3254 H 300.646 1.6177 0.99651 0
M  V30 3255 H 298.796 1.73758 3.47477 0
M  V30 3256 H 300.468 4.03472 2.23625 0
M  V30 3257 H 298.711 3.82735 2.04197 0
M  V30 3258 H 299.382 4.14595 3.64438 0
M  V30 3259 H 301.858 2.22327 3.51724 0
M  V30 3260 H 300.734 2.54781 4.86187 0
M  V30 3261 H 300.995 0.894315 4.3296 0
M  V30 3262 N 300.054 -1.07777 1.14986 0
M  V30 3263 C 301.301 -1.8029 0.922056 0
M  V30 3264 C 301.629 -1.86531 -0.55105 0
M  V30 3265 O 300.884 -1.34189 -1.42449 0
M  V30 3266 C 301.183 -3.25495 1.47608 0
M  V30 3267 C 300.849 -3.39361 2.96893 0
M  V30 3268 C 299.511 -3.42852 3.37647 0
M  V30 3269 C 301.863 -3.42512 3.92854 0
M  V30 3270 C 299.191 -3.47094 4.73015 0
M  V30 3271 C 301.543 -3.4829 5.28088 0
M  V30 3272 C 300.207 -3.50058 5.68345 0
M  V30 3273 H 299.477 -0.659727 0.337404 0
M  V30 3274 H 302.124 -1.26854 1.43459 0
M  V30 3275 H 300.429 -3.81683 0.88463 0
M  V30 3276 H 302.126 -3.80168 1.27568 0
M  V30 3277 H 298.716 -3.37339 2.64387 0
M  V30 3278 H 302.9 -3.3904 3.62444 0
M  V30 3279 H 298.156 -3.46758 5.03556 0
M  V30 3280 H 302.33 -3.49675 6.02246 0
M  V30 3281 H 299.957 -3.53097 6.73221 0
M  V30 3282 N 301.532 -0.945985 -1.26051 0
M  V30 3283 C 302.48 -0.450259 -2.282 0
M  V30 3284 C 303.474 0.47497 -1.62605 0
M  V30 3285 O 304.68 0.352653 -1.76512 0
M  V30 3286 H 301.055 -0.127081 -0.741184 0
M  V30 3287 H 303.026 -1.32422 -2.67408 0
M  V30 3288 C 301.775 0.26467 -3.46691 0
M  V30 3289 H 301.098 -0.438123 -3.97392 0
M  V30 3290 H 302.538 0.575678 -4.20074 0
M  V30 3291 C 300.997 1.48416 -3.02447 0
M  V30 3292 O 301.527 2.58227 -3.07704 0
M  V30 3293 N 299.733 1.34243 -2.57735 0
M  V30 3294 H 299.28 0.448994 -2.53657 0
M  V30 3295 H 299.238 2.15957 -2.28495 0
M  V30 3296 N 303.011 1.40521 -0.713556 0
M  V30 3297 C 304.26 2.00155 -0.249192 0
M  V30 3298 C 304.573 1.57224 1.16362 0
M  V30 3299 O 305.779 2.09542 1.72639 0
M  V30 3300 C 304.235 3.5773 -0.3946 0
M  V30 3301 C 303.843 4.09635 -1.81392 0
M  V30 3302 C 305.587 4.24499 0.00907364 0
M  V30 3303 C 303.494 5.59707 -1.91003 0
M  V30 3304 H 302.424 0.74868 -0.0894114 0
M  V30 3305 H 305.075 1.60784 -0.884352 0
M  V30 3306 H 303.457 3.94792 0.30911 0
M  V30 3307 H 304.631 3.83955 -2.54785 0
M  V30 3308 H 302.946 3.55456 -2.16888 0
M  V30 3309 H 305.543 5.34683 -0.0420404 0
M  V30 3310 H 305.886 4.02824 1.05065 0
M  V30 3311 H 306.419 3.92536 -0.645007 0
M  V30 3312 H 303.158 5.86234 -2.93275 0
M  V30 3313 H 302.678 5.87258 -1.22019 0
M  V30 3314 H 304.357 6.24776 -1.6812 0
M  V30 3315 N 304.489 0.459591 1.5075 0
M  V30 3316 C 305.735 -0.0994966 2.02556 0
M  V30 3317 C 306.068 -1.40399 1.3417 0
M  V30 3318 O 305.343 -1.88892 0.463683 0
M  V30 3319 C 305.626 -0.295242 3.58888 0
M  V30 3320 C 305.479 1.02947 4.37861 0
M  V30 3321 C 306.798 -1.05502 4.27267 0
M  V30 3322 H 303.917 -0.034686 0.736183 0
M  V30 3323 H 306.559 0.602938 1.8018 0
M  V30 3324 H 304.709 -0.893563 3.78084 0
M  V30 3325 H 306.381 1.66348 4.30263 0
M  V30 3326 H 304.624 1.62885 4.02058 0
M  V30 3327 H 305.295 0.846281 5.45474 0
M  V30 3328 H 307.771 -0.547993 4.12476 0
M  V30 3329 H 306.647 -1.16077 5.36486 0
M  V30 3330 H 306.908 -2.08875 3.89645 0
M  V30 3331 N 305.967 -1.56429 0.191757 0
M  V30 3332 C 307.216 -1.9666 -0.448088 0
M  V30 3333 C 307.529 -1.08136 -1.62991 0
M  V30 3334 O 308.735 -1.38135 -2.33733 0
M  V30 3335 C 307.191 -3.49753 -0.848585 0
M  V30 3336 C 306.799 -4.46935 0.308764 0
M  V30 3337 C 308.543 -3.9876 -1.4557 0
M  V30 3338 C 306.45 -5.91293 -0.112506 0
M  V30 3339 H 305.38 -0.734312 -0.171179 0
M  V30 3340 H 308.031 -1.81301 0.283242 0
M  V30 3341 H 306.413 -3.60604 -1.63649 0
M  V30 3342 H 307.587 -4.47813 1.08627 0
M  V30 3343 H 305.902 -4.08102 0.827158 0
M  V30 3344 H 308.499 -5.04086 -1.78328 0
M  V30 3345 H 308.842 -3.42875 -2.36099 0
M  V30 3346 H 309.375 -3.9101 -0.731836 0
M  V30 3347 H 306.114 -6.51097 0.758514 0
M  V30 3348 H 305.634 -5.93676 -0.854941 0
M  V30 3349 H 307.313 -6.44663 -0.549448 0
M  V30 3350 N 307.445 0.0818655 -1.57387 0
M  V30 3351 C 308.375 1.09885 -2.06028 0
M  V30 3352 C 309.356 1.4098 -0.951774 0
M  V30 3353 O 310.541 1.50781 -1.22387 0
M  V30 3354 C 307.671 2.4151 -2.4958 0
M  V30 3355 C 306.625 2.24792 -3.64215 0
M  V30 3356 C 305.951 3.61712 -3.93787 0
M  V30 3357 C 307.251 1.67749 -4.94629 0
M  V30 3358 H 308.945 0.694128 -2.91243 0
M  V30 3359 H 306.491 0.332448 -1.4011 0
M  V30 3360 H 308.444 3.12939 -2.82219 0
M  V30 3361 H 307.168 2.83943 -1.61381 0
M  V30 3362 H 305.827 1.55807 -3.31843 0
M  V30 3363 H 305.475 4.01697 -3.02735 0
M  V30 3364 H 305.175 3.51368 -4.70971 0
M  V30 3365 H 306.699 4.34587 -4.28913 0
M  V30 3366 H 308.113 2.29032 -5.25564 0
M  V30 3367 H 306.51 1.68128 -5.76067 0
M  V30 3368 H 307.58 0.638059 -4.80684 0
M  V30 3369 N 308.923 1.53595 0.353017 0
M  V30 3370 C 309.853 1.83902 1.43883 0
M  V30 3371 C 310.834 0.693421 1.55324 0
M  V30 3372 O 312.019 0.944452 1.69687 0
M  V30 3373 C 309.149 2.04016 2.8106 0
M  V30 3374 C 308.103 3.19814 2.84434 0
M  V30 3375 C 307.429 3.25244 4.24406 0
M  V30 3376 C 308.729 4.58133 2.50822 0
M  V30 3377 H 310.423 2.74835 1.1877 0
M  V30 3378 H 307.969 1.32242 0.569917 0
M  V30 3379 H 309.922 2.238 3.57059 0
M  V30 3380 H 308.646 1.09804 3.07588 0
M  V30 3381 H 307.305 2.9987 2.10887 0
M  V30 3382 H 306.953 2.28646 4.48029 0
M  V30 3383 H 306.653 4.03054 4.27576 0
M  V30 3384 H 308.177 3.47228 5.0226 0
M  V30 3385 H 309.591 4.77995 3.16534 0
M  V30 3386 H 307.988 5.38276 2.6529 0
M  V30 3387 H 309.058 4.62387 1.46034 0
M  V30 3388 N 310.401 -0.613514 1.45168 0
M  V30 3389 C 311.364 -1.7065 1.53007 0
M  V30 3390 C 312.364 -1.5548 0.410184 0
M  V30 3391 O 313.554 -1.60656 0.673455 0
M  V30 3392 C 310.686 -3.09875 1.42093 0
M  V30 3393 H 311.879 -1.65068 2.50385 0
M  V30 3394 H 309.432 -0.828728 1.32521 0
M  V30 3395 H 310.167 -3.21039 0.458769 0
M  V30 3396 H 309.952 -3.22293 2.23315 0
M  V30 3397 H 311.442 -3.895 1.50598 0
M  V30 3398 N 311.879 -1.3236 -0.855495 0
M  V30 3399 C 313.127 -1.22629 -1.60644 0
M  V30 3400 C 313.448 0.212136 -1.93843 0
M  V30 3401 O 312.718 1.13666 -1.59552 0
M  V30 3402 H 311.298 -0.450882 -0.595579 0
M  V30 3403 H 313.96 -1.65871 -1.02337 0
M  V30 3404 H 313.056 -1.80832 -2.54374 0
M  V30 3405 N 313.357 1.07166 -1.15556 0
M  V30 3406 C 314.605 1.79443 -0.929764 0
M  V30 3407 C 314.926 1.87246 0.544414 0
M  V30 3408 O 314.196 1.37473 1.39564 0
M  V30 3409 H 312.776 0.664625 -0.341003 0
M  V30 3410 H 315.438 1.29499 -1.45657 0
M  V30 3411 H 314.534 2.81832 -1.34079 0
M  V30 3412 N 314.835 0.952656 1.25548 0
M  V30 3413 C 316.082 0.606373 1.93208 0
M  V30 3414 C 316.41 -0.85631 1.74636 0
M  V30 3415 O 315.665 -1.62951 1.08376 0
M  V30 3416 C 315.964 0.908818 3.45652 0
M  V30 3417 C 315.63 2.35722 3.84378 0
M  V30 3418 C 314.292 2.75312 3.9466 0
M  V30 3419 C 316.644 3.29793 4.03591 0
M  V30 3420 C 313.972 4.08047 4.21562 0
M  V30 3421 C 316.324 4.62138 4.31985 0
M  V30 3422 C 314.988 5.01528 4.40484 0
M  V30 3423 H 314.258 0.221888 0.706998 0
M  V30 3424 H 316.905 1.20132 1.49133 0
M  V30 3425 H 315.21 0.231456 3.91116 0
M  V30 3426 H 316.907 0.619498 3.96186 0
M  V30 3427 H 313.497 2.04017 3.76928 0
M  V30 3428 H 317.681 3.00397 3.95064 0
M  V30 3429 H 312.937 4.38212 4.26357 0
M  V30 3430 H 317.111 5.35012 4.45797 0
M  V30 3431 H 314.738 6.04406 4.61083 0
M  V30 3432 N 316.313 -1.40141 0.720998 0
M  V30 3433 C 317.243 -2.33339 0.0867621 0
M  V30 3434 C 318.224 -1.53178 -0.739622 0
M  V30 3435 O 319.409 -1.81625 -0.687449 0
M  V30 3436 C 316.539 -3.37194 -0.831728 0
M  V30 3437 C 315.493 -4.27857 -0.110558 0
M  V30 3438 C 314.819 -5.22294 -1.14513 0
M  V30 3439 C 316.119 -5.11872 1.0385 0
M  V30 3440 H 317.813 -2.86626 0.865219 0
M  V30 3441 H 315.359 -1.37814 0.417516 0
M  V30 3442 H 317.312 -4.01335 -1.28485 0
M  V30 3443 H 316.036 -2.82314 -1.64214 0
M  V30 3444 H 314.695 -3.65176 0.322797 0
M  V30 3445 H 314.343 -4.63717 -1.94874 0
M  V30 3446 H 314.043 -5.83797 -0.667446 0
M  V30 3447 H 315.567 -5.89312 -1.59824 0
M  V30 3448 H 316.981 -5.69436 0.664482 0
M  V30 3449 H 315.378 -5.82445 1.4449 0
M  V30 3450 H 316.448 -4.4753 1.86668 0
M  V30 3451 N 317.792 -0.46758 -1.50504 0
M  V30 3452 C 319.017 0.0886943 -2.0721 0
M  V30 3453 C 319.442 1.33057 -1.32956 0
M  V30 3454 O 318.8 1.77354 -0.376197 0
M  V30 3455 C 318.848 0.359202 -3.58806 0
M  V30 3456 O 317.952 1.44034 -3.8643 0
M  V30 3457 H 317.293 -0.0114349 -0.663902 0
M  V30 3458 H 319.823 -0.657613 -1.93744 0
M  V30 3459 H 319.833 0.600742 -4.03553 0
M  V30 3460 H 318.508 -0.548311 -4.1227 0
M  V30 3461 H 317.085 1.18638 -3.53524 0
M  V30 3462 N 319.27 1.56325 -0.20005 0
M  V30 3463 C 320.217 2.1932 0.718833 0
M  V30 3464 C 321.187 1.14198 1.20615 0
M  V30 3465 O 322.372 1.42469 1.26914 0
M  V30 3466 C 319.512 2.86041 1.93066 0
M  V30 3467 C 318.625 4.05702 1.48425 0
M  V30 3468 C 317.76 4.60266 2.65196 0
M  V30 3469 C 316.799 5.72273 2.17185 0
M  V30 3470 N 315.936 6.21221 3.27152 0
M  V30 3471 H 320.776 2.97486 0.17489 0
M  V30 3472 H 318.313 1.46911 0.0745794 0
M  V30 3473 H 320.271 3.22897 2.64184 0
M  V30 3474 H 318.901 2.1043 2.44783 0
M  V30 3475 H 317.953 3.74475 0.668755 0
M  V30 3476 H 319.265 4.86699 1.09204 0
M  V30 3477 H 318.419 4.99453 3.4443 0
M  V30 3478 H 317.158 3.78386 3.07693 0
M  V30 3479 H 316.163 5.3261 1.36407 0
M  V30 3480 H 317.388 6.55974 1.75713 0
M  V30 3481 H 315.334 5.42263 3.69171 0
M  V30 3482 H 315.251 6.97284 2.92116 0
M  V30 3483 H 316.519 6.65063 4.06585 0
M  V30 3484 N 320.748 -0.0735177 1.57428 0
M  V30 3485 C 321.973 -0.789787 1.91774 0
M  V30 3486 C 322.398 -1.70413 0.796306 0
M  V30 3487 O 321.756 -1.79555 -0.250961 0
M  V30 3488 C 321.804 -1.5609 3.25067 0
M  V30 3489 O 320.908 -2.67144 3.14178 0
M  V30 3490 H 320.249 -0.215582 0.628029 0
M  V30 3491 H 322.779 -0.0422781 2.04556 0
M  V30 3492 H 322.789 -1.94052 3.58898 0
M  V30 3493 H 321.464 -0.890015 4.06265 0
M  V30 3494 H 320.041 -2.32052 2.91901 0
M  V30 3495 N 322.226 -1.5378 -0.344866 0
M  V30 3496 C 323.156 -1.84662 -1.42906 0
M  V30 3497 C 324.137 -0.701648 -1.54955 0
M  V30 3498 O 325.322 -0.953438 -1.69184 0
M  V30 3499 C 322.452 -2.05503 -2.79974 0
M  V30 3500 C 321.406 -3.21318 -2.82734 0
M  V30 3501 C 320.732 -3.2749 -4.22675 0
M  V30 3502 C 322.032 -4.59456 -2.48389 0
M  V30 3503 H 323.726 -2.75461 -1.17311 0
M  V30 3504 H 321.272 -1.32542 -0.562896 0
M  V30 3505 H 323.225 -2.25691 -3.55867 0
M  V30 3506 H 321.949 -1.11434 -3.07002 0
M  V30 3507 H 320.608 -3.00984 -2.09294 0
M  V30 3508 H 320.256 -2.31019 -4.4681 0
M  V30 3509 H 319.956 -4.05316 -4.25433 0
M  V30 3510 H 321.48 -3.49887 -5.00412 0
M  V30 3511 H 322.894 -4.79667 -3.13995 0
M  V30 3512 H 321.291 -5.39675 -2.62432 0
M  V30 3513 H 322.361 -4.63155 -1.4358 0
M  V30 3514 N 323.704 0.605807 -1.45491 0
M  V30 3515 C 324.95 1.36679 -1.49823 0
M  V30 3516 C 325.283 1.93693 -0.140175 0
M  V30 3517 O 324.558 1.75158 0.845581 0
M  V30 3518 C 324.841 2.51337 -2.57879 0
M  V30 3519 C 324.694 1.99508 -4.03134 0
M  V30 3520 C 326.013 3.53463 -2.62205 0
M  V30 3521 H 323.132 0.495617 -0.545466 0
M  V30 3522 H 325.774 0.682732 -1.7731 0
M  V30 3523 H 323.924 3.09691 -2.34571 0
M  V30 3524 H 325.596 1.45789 -4.37656 0
M  V30 3525 H 323.839 1.30496 -4.13707 0
M  V30 3526 H 324.51 2.82169 -4.74431 0
M  V30 3527 H 326.986 3.04953 -2.83095 0
M  V30 3528 H 325.862 4.31178 -3.39672 0
M  V30 3529 H 326.123 4.09197 -1.67363 0
M  V30 3530 N 325.182 1.32811 0.848464 0
M  V30 3531 C 326.429 1.23724 1.60308 0
M  V30 3532 C 326.757 -0.1994 1.93475 0
M  V30 3533 O 326.012 -1.15406 1.5805 0
M  V30 3534 C 326.311 2.04831 2.92881 0
M  V30 3535 C 325.977 3.54125 2.79117 0
M  V30 3536 C 324.639 3.94829 2.7507 0
M  V30 3537 C 326.991 4.49036 2.64606 0
M  V30 3538 C 324.319 5.28675 2.544 0
M  V30 3539 C 326.671 5.83033 2.4547 0
M  V30 3540 C 325.335 6.22931 2.39819 0
M  V30 3541 H 324.605 0.452737 0.586609 0
M  V30 3542 H 327.252 1.64301 0.983743 0
M  V30 3543 H 325.557 1.57001 3.58968 0
M  V30 3544 H 327.254 1.95164 3.50303 0
M  V30 3545 H 323.844 3.21801 2.83094 0
M  V30 3546 H 328.028 4.18505 2.66772 0
M  V30 3547 H 323.284 5.58637 2.48465 0
M  V30 3548 H 327.458 6.56186 2.33222 0
M  V30 3549 H 325.085 7.26584 2.23562 0
M  V30 3550 N 326.66 -1.06551 1.16123 0
M  V30 3551 C 327.885 -1.83544 0.965735 0
M  V30 3552 C 328.31 -1.81843 -0.481102 0
M  V30 3553 O 327.668 -1.21732 -1.34354 0
M  V30 3554 C 327.716 -3.28169 1.49457 0
M  V30 3555 O 326.82 -4.0643 0.699157 0
M  V30 3556 H 326.161 -0.568026 0.343864 0
M  V30 3557 H 328.691 -1.34362 1.54299 0
M  V30 3558 H 328.701 -3.78992 1.51092 0
M  V30 3559 H 327.376 -3.28722 2.54784 0
M  V30 3560 H 325.953 -3.65216 0.7531 0
M  V30 3561 N 328.138 -0.959301 -1.25041 0
M  V30 3562 C 329.384 -0.617525 -1.9317 0
M  V30 3563 C 329.717 0.843981 -1.74902 0
M  V30 3564 O 328.992 1.60615 -1.09696 0
M  V30 3565 C 329.275 -0.982736 -3.46431 0
M  V30 3566 C 329.128 -2.50032 -3.73904 0
M  V30 3567 C 330.447 -0.511176 -4.37121 0
M  V30 3568 H 327.566 -0.22582 -0.701552 0
M  V30 3569 H 330.208 -1.19679 -1.4757 0
M  V30 3570 H 328.358 -0.489806 -3.854 0
M  V30 3571 H 330.03 -3.06737 -3.44544 0
M  V30 3572 H 328.273 -2.93598 -3.19348 0
M  V30 3573 H 328.944 -2.70635 -4.81103 0
M  V30 3574 H 331.42 -0.934075 -4.0548 0
M  V30 3575 H 330.296 -0.795361 -5.43107 0
M  V30 3576 H 330.557 0.588834 -4.38161 0
M  V30 3577 N 329.616 1.39756 -0.72842 0
M  V30 3578 C 330.546 2.33289 -0.0991354 0
M  V30 3579 C 331.527 1.53568 0.731489 0
M  V30 3580 O 332.712 1.81987 0.677807 0
M  V30 3581 C 329.842 3.3763 0.813834 0
M  V30 3582 C 328.796 4.2791 0.0878663 0
M  V30 3583 C 328.122 5.22894 1.11741 0
M  V30 3584 C 329.422 5.11314 -1.06563 0
M  V30 3585 H 331.116 2.86163 -0.880408 0
M  V30 3586 H 328.662 1.37591 -0.424819 0
M  V30 3587 H 330.615 4.0201 1.26355 0
M  V30 3588 H 329.339 2.83181 1.62715 0
M  V30 3589 H 327.998 3.65 -0.342159 0
M  V30 3590 H 327.646 4.64744 1.92412 0
M  V30 3591 H 327.346 5.84143 0.636477 0
M  V30 3592 H 328.87 5.90151 1.56697 0
M  V30 3593 H 330.284 5.69076 -0.694671 0
M  V30 3594 H 328.681 5.81671 -1.47577 0
M  V30 3595 H 329.751 4.46534 -1.89038 0
M  V30 3596 N 331.094 0.475555 1.50254 0
M  V30 3597 C 332.341 -0.0778919 2.0235 0
M  V30 3598 C 332.669 -1.39319 1.35722 0
M  V30 3599 O 331.924 -1.89888 0.473395 0
M  V30 3600 C 332.223 -0.305114 3.56095 0
M  V30 3601 C 331.889 0.92903 4.41225 0
M  V30 3602 C 330.551 1.26739 4.6421 0
M  V30 3603 C 332.903 1.75054 4.90923 0
M  V30 3604 C 330.231 2.42724 5.34137 0
M  V30 3605 C 332.583 2.9017 5.62125 0
M  V30 3606 C 331.247 3.24416 5.83362 0
M  V30 3607 H 330.517 -0.0285027 0.740452 0
M  V30 3608 H 333.164 0.630543 1.80821 0
M  V30 3609 H 331.469 -1.09584 3.76163 0
M  V30 3610 H 333.166 -0.747377 3.93974 0
M  V30 3611 H 329.756 0.655428 4.23559 0
M  V30 3612 H 333.94 1.50231 4.73016 0
M  V30 3613 H 329.196 2.69525 5.48786 0
M  V30 3614 H 333.37 3.54169 5.99614 0
M  V30 3615 H 330.997 4.14396 6.37323 0
M  V30 3616 N 332.573 -1.56217 0.208337 0
M  V30 3617 C 333.536 -2.18455 -0.693557 0
M  V30 3618 C 334.536 -1.14268 -1.13135 0
M  V30 3619 O 335.726 -1.39577 -1.0423 0
M  V30 3620 C 332.858 -2.79727 -1.94848 0
M  V30 3621 H 334.051 -2.99519 -0.15114 0
M  V30 3622 H 331.604 -1.56245 -0.041287 0
M  V30 3623 H 332.339 -2.02497 -2.53309 0
M  V30 3624 H 332.124 -3.56009 -1.64316 0
M  V30 3625 H 333.614 -3.27475 -2.59133 0
M  V30 3626 N 334.051 0.0651679 -1.57465 0
M  V30 3627 C 335.297 0.764193 -1.87851 0
M  V30 3628 C 335.63 1.76889 -0.801495 0
M  V30 3629 O 334.905 1.93594 0.187528 0
M  V30 3630 C 335.188 1.46625 -3.28897 0
M  V30 3631 C 335.041 0.477515 -4.47258 0
M  V30 3632 C 336.36 2.4095 -3.68281 0
M  V30 3633 H 333.479 0.276351 -0.683227 0
M  V30 3634 H 336.121 0.0272868 -1.8998 0
M  V30 3635 H 334.271 2.09438 -3.27212 0
M  V30 3636 H 335.943 -0.145922 -4.61069 0
M  V30 3637 H 334.186 -0.206576 -4.33308 0
M  V30 3638 H 334.857 1.0065 -5.42746 0
M  V30 3639 H 337.333 1.88209 -3.71102 0
M  V30 3640 H 336.209 2.87072 -4.67847 0
M  V30 3641 H 336.47 3.26049 -2.98571 0
M  V30 3642 N 335.529 1.53961 0.336706 0
M  V30 3643 C 336.757 1.75483 1.09605 0
M  V30 3644 C 337.172 0.4972 1.82136 0
M  V30 3645 O 336.529 -0.53149 1.74589 0
M  V30 3646 C 336.58 2.93943 2.10428 0
M  V30 3647 O 336.301 4.14842 1.40846 0
M  V30 3648 C 337.802 3.27571 2.98684 0
M  V30 3649 H 335.022 0.586166 0.326574 0
M  V30 3650 H 337.566 2.00808 0.38683 0
M  V30 3651 H 335.721 2.70929 2.76905 0
M  V30 3652 H 336.135 4.81383 2.08255 0
M  V30 3653 H 337.609 4.13791 3.6535 0
M  V30 3654 H 338.086 2.44168 3.65074 0
M  V30 3655 H 338.692 3.52615 2.37787 0
M  V30 3656 N 337.007 -0.598083 1.45811 0
M  V30 3657 C 337.937 -1.71873 1.58057 0
M  V30 3658 C 338.918 -1.64533 0.431615 0
M  V30 3659 O 340.103 -1.82787 0.65595 0
M  V30 3660 C 337.233 -3.10495 1.55597 0
M  V30 3661 C 336.187 -3.32654 2.69305 0
M  V30 3662 C 335.513 -4.71646 2.51902 0
M  V30 3663 C 336.813 -3.21981 4.11248 0
M  V30 3664 H 338.507 -1.61881 2.51863 0
M  V30 3665 H 336.053 -0.777372 1.21214 0
M  V30 3666 H 338.006 -3.88699 1.6276 0
M  V30 3667 H 336.73 -3.2135 0.583255 0
M  V30 3668 H 335.389 -2.56843 2.61586 0
M  V30 3669 H 335.037 -4.79246 1.52748 0
M  V30 3670 H 334.737 -4.87426 3.2816 0
M  V30 3671 H 336.261 -5.52038 2.60933 0
M  V30 3672 H 337.675 -3.90049 4.20161 0
M  V30 3673 H 336.072 -3.49289 4.87972 0
M  V30 3674 H 337.142 -2.1928 4.32486 0
M  V30 3675 N 338.485 -1.33259 -0.841409 0
M  V30 3676 C 339.901 -1.12538 -1.13169 0
M  V30 3677 C 340.101 0.0854037 -2.01319 0
M  V30 3678 O 339.157 0.766417 -2.40587 0
M  V30 3679 C 340.47 -2.41156 -1.79623 0
M  V30 3680 C 342.018 -2.47038 -1.922 0
M  V30 3681 C 342.493 -3.7561 -2.6207 0
M  V30 3682 N 343.984 -3.76667 -2.69585 0
M  V30 3683 C 344.719 -4.72861 -3.2433 0
M  V30 3684 N 344.215 -5.79428 -3.79783 0
M  V30 3685 N 346.008 -4.6034 -3.22558 0
M  V30 3686 H 338.159 -2.10868 -0.254676 0
M  V30 3687 H 340.422 -0.931615 -0.175493 0
M  V30 3688 H 340.128 -3.29747 -1.22311 0
M  V30 3689 H 340.002 -2.53114 -2.79666 0
M  V30 3690 H 342.389 -1.58898 -2.48667 0
M  V30 3691 H 342.47 -2.39022 -0.911148 0
M  V30 3692 H 342.114 -4.64131 -2.06263 0
M  V30 3693 H 342.044 -3.80902 -3.63622 0
M  V30 3694 H 344.535 -2.99648 -2.30259 0
M  V30 3695 H 344.848 -6.48867 -4.19752 0
M  V30 3696 H 343.193 -5.83166 -3.78078 0
M  V30 3697 H 346.384 -3.76244 -2.78492 0
M  V30 3698 H 346.557 -5.35478 -3.64921 0
M  V30 3699 N 339.963 1.05934 -1.16686 0
M  V30 3700 C 341.188 1.83029 -0.975455 0
M  V30 3701 C 341.613 1.82096 0.471452 0
M  V30 3702 O 340.971 1.22443 1.33706 0
M  V30 3703 C 341.019 3.27372 -1.51195 0
M  V30 3704 O 340.123 4.06054 -0.720701 0
M  V30 3705 H 339.464 0.566194 -0.346872 0
M  V30 3706 H 341.994 1.33541 -1.55009 0
M  V30 3707 H 342.004 3.78186 -1.53099 0
M  V30 3708 H 340.679 3.27366 -2.56523 0
M  V30 3709 H 339.256 3.64812 -0.772458 0
M  V30 3710 N 341.441 0.965919 1.2453 0
M  V30 3711 C 342.688 0.626831 1.92554 0
M  V30 3712 C 343.016 -0.837739 1.75534 0
M  V30 3713 O 342.271 -1.61793 1.10098 0
M  V30 3714 C 342.57 0.945428 3.44669 0
M  V30 3715 C 342.236 2.39785 3.81856 0
M  V30 3716 C 340.898 2.79483 3.91718 0
M  V30 3717 C 343.25 3.34055 4.00071 0
M  V30 3718 C 340.578 4.12496 4.1721 0
M  V30 3719 C 342.93 4.66694 4.27059 0
M  V30 3720 C 341.594 5.06172 4.3514 0
M  V30 3721 H 340.864 0.229374 0.704605 0
M  V30 3722 H 343.511 1.21707 1.4785 0
M  V30 3723 H 341.816 0.272926 3.90848 0
M  V30 3724 H 343.513 0.661484 3.95507 0
M  V30 3725 H 340.103 2.08003 3.74743 0
M  V30 3726 H 344.287 3.04571 3.91855 0
M  V30 3727 H 339.543 4.42709 4.21685 0
M  V30 3728 H 343.717 5.3971 4.40097 0
M  V30 3729 H 341.344 6.09262 4.54646 0
M  V30 3730 N 342.919 -1.39368 0.735821 0
M  V30 3731 C 344.165 -2.00794 0.284544 0
M  V30 3732 C 344.498 -1.58255 -1.12557 0
M  V30 3733 O 343.773 -0.811819 -1.76748 0
M  V30 3734 C 344.056 -3.58011 0.387337 0
M  V30 3735 C 343.909 -4.10566 1.83728 0
M  V30 3736 C 345.228 -4.395 -0.22975 0
M  V30 3737 H 342.347 -0.729501 0.104866 0
M  V30 3738 H 344.989 -1.65564 0.93213 0
M  V30 3739 H 343.139 -3.88154 -0.164006 0
M  V30 3740 H 344.811 -3.91139 2.44556 0
M  V30 3741 H 343.054 -3.64095 2.35833 0
M  V30 3742 H 343.725 -5.19702 1.86047 0
M  V30 3743 H 346.201 -4.15406 0.240257 0
M  V30 3744 H 345.077 -5.48752 -0.127485 0
M  V30 3745 H 345.338 -4.22062 -1.3159 0
M  V30 3746 N 344.397 -0.483516 -1.5 0
M  V30 3747 C 345.808 -0.0314176 -1.86674 0
M  V30 3748 C 346.159 1.37728 -1.39733 0
M  V30 3749 O 345.284 2.02327 -0.767635 0
M  V30 3750 C 345.879 -0.0502376 -3.38763 0
M  V30 3751 C 344.438 0.346442 -3.74802 0
M  V30 3752 C 343.585 -0.430366 -2.7394 0
M  V30 3753 H 346.536 -0.697182 -1.42566 0
M  V30 3754 H 346.557 0.749116 -3.73053 0
M  V30 3755 H 346.069 -1.07563 -3.72897 0
M  V30 3756 H 344.17 1.37572 -3.46273 0
M  V30 3757 H 344.283 0.0391486 -4.79084 0
M  V30 3758 H 342.647 0.117557 -2.54429 0
M  V30 3759 H 343.43 -1.4555 -3.10918 0
M  V30 3760 O 345.914 1.57479 -0.358152 0
M  V30 3761 H 346.605 1.92725 0.1941 0
M  V30 END ATOM
M  V30 BEGIN BOND
M  V30 END BOND
M  V30 END CTAB
M  END
$$$$
