drugbank_target|P15121 Aldose reductase (DB00143; DB00157; DB00605; DB01689; DB02007; DB02020; DB02021; DB02101; DB02132; DB02383; DB02518; DB02712; DB02834; DB02994; DB03461; DB04272; DB05327; DB05383; DB05533; DB06246; DB07028; DB07030; DB07063; DB07093; DB07139; DB07187; DB07450; DB07498; DB07999; DB08000; DB08084; DB08098; DB08449; DB08772)
 OpenBabel12092119393D

  0  0  0     0  0            999 V3000
M  V30 BEGIN CTAB
M  V30 COUNTS 5067 5129 0 0 0
M  V30 BEGIN ATOM
M  V30 1 H -0.908 1.98254 -0.117106 0
M  V30 2 N 0 1.576 0 0
M  V30 3 C 0.933 2.03868 1.02534 0
M  V30 4 C 1.911 0.928543 1.3348 0
M  V30 5 O 3.095 1.19667 1.45644 0
M  V30 6 C 0.222 2.43627 2.35294 0
M  V30 7 C -0.732 3.65373 2.2001 0
M  V30 8 S 0.101 5.13292 1.52614 0
M  V30 9 C 1.257 5.56322 2.86805 0
M  V30 10 H 1.49 2.90518 0.631377 0
M  V30 11 H -0.977 1.52953 0.210867 0
M  V30 12 H 0.981 2.67203 3.11629 0
M  V30 13 H -0.358 1.57376 2.7183 0
M  V30 14 H -1.165 3.90944 3.18086 0
M  V30 15 H -1.563 3.418 1.51819 0
M  V30 16 H 0.729 5.58782 3.83104 0
M  V30 17 H 1.672 6.56266 2.65933 0
M  V30 18 H 2.08 4.83886 2.90714 0
M  V30 19 N 1.4781 -0.272755 1.55222 0
M  V30 20 C 2.4411 -1.32041 1.87344 0
M  V30 21 C 3.4411 -1.42342 0.74803 0
M  V30 22 O 4.6311 -1.41488 1.0162 0
M  V30 23 C 1.7631 -2.70173 2.07893 0
M  V30 24 H 2.9561 -1.04789 2.80997 0
M  V30 25 H 0.5091 -0.51083 1.47717 0
M  V30 26 H 1.2441 -3.02605 1.16622 0
M  V30 27 H 1.0291 -2.64082 2.89833 0
M  V30 28 H 2.5191 -3.45869 2.34017 0
M  V30 29 N 2.9562 -1.48159 -0.537278 0
M  V30 30 C 4.1812 -1.59707 -1.32319 0
M  V30 31 C 4.6062 -0.254859 -1.86365 0
M  V30 32 O 3.9642 0.772378 -1.64024 0
M  V30 33 C 4.0122 -2.6412 -2.45505 0
M  V30 34 O 3.1162 -2.20774 -3.48328 0
M  V30 35 H 2.4572 -0.535791 -0.392204 0
M  V30 36 H 4.9872 -1.94092 -0.647268 0
M  V30 37 H 4.9972 -2.85166 -2.91795 0
M  V30 38 H 3.6722 -3.61567 -2.05528 0
M  V30 39 H 2.2492 -2.09911 -3.08207 0
M  V30 40 N 4.4343 0.785586 -1.36625 0
M  V30 41 C 5.8503 1.08419 -1.17122 0
M  V30 42 C 6.0503 2.015 0.00208491 0
M  V30 43 O 5.1063 2.43551 0.666278 0
M  V30 44 C 6.4193 1.69498 -2.48377 0
M  V30 45 C 7.9673 1.81821 -2.54775 0
M  V30 46 C 8.4423 2.46315 -3.86126 0
M  V30 47 N 9.9333 2.53779 -3.87492 0
M  V30 48 C 10.6683 3.045 -4.85868 0
M  V30 49 N 10.1643 3.55499 -5.94637 0
M  V30 50 N 11.9573 3.03247 -4.73284 0
M  V30 51 H 4.1083 0.167264 -2.1174 0
M  V30 52 H 6.3713 0.13682 -0.938075 0
M  V30 53 H 6.0773 1.08571 -3.34522 0
M  V30 54 H 5.9513 2.6896 -2.64462 0
M  V30 55 H 8.3383 2.41884 -1.69045 0
M  V30 56 H 8.4193 0.811532 -2.42586 0
M  V30 57 H 8.0633 1.86895 -4.72263 0
M  V30 58 H 7.9933 3.47561 -3.95612 0
M  V30 59 H 10.4843 2.17672 -3.08913 0
M  V30 60 H 10.7973 3.92562 -6.65669 0
M  V30 61 H 9.1423 3.5364 -5.98301 0
M  V30 62 H 12.3333 2.62696 -3.87438 0
M  V30 63 H 12.5063 3.42467 -5.50109 0
M  V30 64 N 5.9124 1.20967 1.01018 0
M  V30 65 C 6.8424 0.988272 2.11555 0
M  V30 66 C 7.8234 -0.0849778 1.69888 0
M  V30 67 O 9.0084 0.0738202 1.9406 0
M  V30 68 C 6.1384 0.546528 3.42973 0
M  V30 69 C 5.0924 1.56375 3.9841 0
M  V30 70 C 4.4184 0.97842 5.25672 0
M  V30 71 C 5.7184 2.94922 4.31066 0
M  V30 72 H 7.4124 1.91276 2.30334 0
M  V30 73 H 4.9584 0.921073 1.1069 0
M  V30 74 H 6.9114 0.378839 4.19694 0
M  V30 75 H 5.6354 -0.413598 3.23971 0
M  V30 76 H 4.2944 1.71891 3.23804 0
M  V30 77 H 3.9424 0.0101688 5.02999 0
M  V30 78 H 3.6424 1.65784 5.63728 0
M  V30 79 H 5.1664 0.821939 6.05043 0
M  V30 80 H 6.5804 2.8288 4.9865 0
M  V30 81 H 4.9774 3.5983 4.80253 0
M  V30 82 H 6.0474 3.4616 3.39561 0
M  V30 83 N 7.3905 -1.2043 1.01659 0
M  V30 84 C 8.3205 -2.25466 0.607226 0
M  V30 85 C 9.3015 -1.65853 -0.377716 0
M  V30 86 O 10.4865 -1.92409 -0.263149 0
M  V30 87 C 7.6165 -3.47256 -0.0552949 0
M  V30 88 C 6.5705 -4.19462 0.850632 0
M  V30 89 C 5.8965 -5.34673 0.0538859 0
M  V30 90 C 7.1965 -4.75603 2.15868 0
M  V30 91 H 8.8905 -2.59962 1.48526 0
M  V30 92 H 6.4365 -1.2496 0.715605 0
M  V30 93 H 8.3895 -4.19917 -0.353233 0
M  V30 94 H 7.1135 -3.11924 -0.968045 0
M  V30 95 H 5.7725 -3.48667 1.13257 0
M  V30 96 H 5.4205 -4.95585 -0.860514 0
M  V30 97 H 5.1205 -5.83913 0.657192 0
M  V30 98 H 6.6445 -6.10138 -0.237598 0
M  V30 99 H 8.0585 -5.40083 1.92311 0
M  V30 100 H 6.4555 -5.3528 2.71284 0
M  V30 101 H 7.5255 -3.94346 2.82169 0
M  V30 102 N 8.8686 -0.792821 -1.36206 0
M  V30 103 C 9.7986 -0.207853 -2.32573 0
M  V30 104 C 10.7796 0.659055 -1.56813 0
M  V30 105 O 11.9646 0.592176 -1.84951 0
M  V30 106 C 9.0946 0.655449 -3.41059 0
M  V30 107 C 8.0486 -0.111842 -4.27854 0
M  V30 108 C 7.3746 0.872274 -5.27537 0
M  V30 109 C 8.6746 -1.30299 -5.05786 0
M  V30 110 H 10.3686 -1.01294 -2.81744 0
M  V30 111 H 7.9146 -0.48854 -1.3546 0
M  V30 112 H 9.8676 1.07464 -4.07467 0
M  V30 113 H 8.5916 1.49328 -2.90463 0
M  V30 114 H 7.2506 -0.512053 -3.63006 0
M  V30 115 H 6.8986 1.70523 -4.73214 0
M  V30 116 H 6.5986 0.363291 -5.86476 0
M  V30 117 H 8.1226 1.28996 -5.96818 0
M  V30 118 H 9.5366 -0.959379 -5.65216 0
M  V30 119 H 7.9336 -1.7455 -5.74154 0
M  V30 120 H 9.0036 -2.09663 -4.37229 0
M  V30 121 N 10.3467 1.47872 -0.545128 0
M  V30 122 C 11.2947 2.31533 0.222512 0
M  V30 123 C 12.2887 1.42177 0.920985 0
M  V30 124 O 13.4947 1.59005 0.843645 0
M  V30 125 H 9.8697 0.746519 0.0906278 0
M  V30 126 H 11.8407 2.94139 -0.50246 0
M  V30 127 C 10.5897 3.2457 1.24699 0
M  V30 128 H 9.9127 3.93283 0.718944 0
M  V30 129 H 11.3527 3.85963 1.75523 0
M  V30 130 C 9.8117 2.47237 2.28856 0
M  V30 131 O 10.3417 2.20808 3.35569 0
M  V30 132 N 8.5477 2.08461 2.02466 0
M  V30 133 H 8.0947 2.30155 1.157 0
M  V30 134 H 8.0527 1.57033 2.72375 0
M  V30 135 N 11.8248 0.280983 1.55075 0
M  V30 136 C 12.7728 -0.619864 2.24188 0
M  V30 137 C 13.7668 -1.15315 1.24092 0
M  V30 138 O 14.9728 -1.1061 1.42005 0
M  V30 139 H 11.3478 -0.218459 0.719569 0
M  V30 140 H 13.3188 -0.0141831 2.98397 0
M  V30 141 C 12.0678 -1.7899 2.98091 0
M  V30 142 H 11.3908 -1.38874 3.74905 0
M  V30 143 H 12.8308 -2.39672 3.49762 0
M  V30 144 C 11.2898 -2.68192 2.03899 0
M  V30 145 O 11.8198 -3.6872 1.594 0
M  V30 146 N 10.0258 -2.35488 1.70275 0
M  V30 147 H 9.5728 -1.53787 2.06658 0
M  V30 148 H 9.5308 -2.95442 1.07524 0
M  V30 149 N 13.3029 -1.57598 0.00835791 0
M  V30 150 C 14.5509 -1.90551 -0.6734 0
M  V30 151 C 14.8719 -0.883301 -1.73847 0
M  V30 152 O 14.1419 0.0781442 -1.95744 0
M  V30 153 H 12.7219 -0.703312 -0.251717 0
M  V30 154 H 15.3839 -1.94833 0.0512592 0
M  V30 155 H 14.4799 -2.9056 -1.13935 0
M  V30 156 N 14.781 0.264519 -1.55364 0
M  V30 157 C 15.744 1.31046 -1.88042 0
M  V30 158 C 16.744 1.41943 -0.755569 0
M  V30 159 O 17.934 1.40947 -1.02369 0
M  V30 160 C 15.066 2.69067 -2.09323 0
M  V30 161 H 16.259 1.03297 -2.81549 0
M  V30 162 H 13.812 0.502989 -1.47986 0
M  V30 163 H 14.547 3.01982 -1.18226 0
M  V30 164 H 14.332 2.62542 -2.91229 0
M  V30 165 H 15.822 3.44623 -2.35848 0
M  V30 166 N 16.2591 1.48442 0.529413 0
M  V30 167 C 17.2061 1.63007 1.63394 0
M  V30 168 C 18.1761 0.47212 1.59249 0
M  V30 169 O 19.3611 0.695673 1.77666 0
M  V30 170 C 16.5011 1.6763 3.01653 0
M  V30 171 C 15.6141 2.94535 3.16027 0
M  V30 172 C 14.7491 2.90316 4.44849 0
M  V30 173 C 13.7881 4.11923 4.52754 0
M  V30 174 N 12.9251 4.05777 5.72965 0
M  V30 175 H 17.7651 2.5733 1.50285 0
M  V30 176 H 15.3021 1.27613 0.731656 0
M  V30 177 H 17.2601 1.68292 3.81751 0
M  V30 178 H 15.8901 0.76797 3.13532 0
M  V30 179 H 14.9421 3.03615 2.29177 0
M  V30 180 H 16.2541 3.84512 3.17729 0
M  V30 181 H 15.4081 2.89382 5.33238 0
M  V30 182 H 14.1471 1.98068 4.45668 0
M  V30 183 H 13.1521 4.13131 3.62771 0
M  V30 184 H 14.3771 5.0533 4.53672 0
M  V30 185 H 12.3231 3.16351 5.74681 0
M  V30 186 H 12.2401 4.8946 5.76164 0
M  V30 187 H 13.5081 4.08904 6.6364 0
M  V30 188 N 17.7372 -0.778329 1.37039 0
M  V30 189 C 18.6702 -1.8984 1.26633 0
M  V30 190 C 19.6482 -1.61923 0.148197 0
M  V30 191 O 20.8322 -1.85742 0.321265 0
M  V30 192 C 17.9592 -3.24916 0.956403 0
M  V30 193 C 17.0052 -3.71752 2.09051 0
M  V30 194 S 17.8382 -3.86201 3.70957 0
M  V30 195 C 18.9942 -5.24135 3.42101 0
M  V30 196 H 19.2272 -1.98377 2.21436 0
M  V30 197 H 16.7602 -0.938738 1.22585 0
M  V30 198 H 18.7182 -4.02936 0.784409 0
M  V30 199 H 17.3792 -3.14089 0.0259713 0
M  V30 200 H 16.5722 -4.69661 1.8285 0
M  V30 201 H 16.1742 -3.00815 2.2223 0
M  V30 202 H 18.4662 -6.09086 2.96682 0
M  V30 203 H 19.4092 -5.55346 4.39314 0
M  V30 204 H 19.8172 -4.91761 2.77185 0
M  V30 205 N 19.2153 -1.21501 -1.00376 0
M  V30 206 C 20.6263 -1.03146 -1.55621 0
M  V30 207 C 20.9773 0.408375 -1.91903 0
M  V30 208 O 20.1023 1.29177 -1.73616 0
M  V30 209 C 20.6973 -1.86612 -2.82775 0
M  V30 210 C 19.2563 -1.72586 -3.34501 0
M  V30 211 C 18.4033 -1.83747 -2.07683 0
M  V30 212 H 21.3543 -1.35505 -0.826081 0
M  V30 213 H 21.3753 -1.3771 -3.54706 0
M  V30 214 H 20.8873 -2.91399 -2.56336 0
M  V30 215 H 18.9883 -0.704877 -3.65872 0
M  V30 216 H 19.1013 -2.54623 -4.05837 0
M  V30 217 H 17.4653 -1.27069 -2.20739 0
M  V30 218 H 18.2483 -2.90044 -1.83655 0
M  V30 219 N 20.6934 1.19889 -1.02296 0
M  V30 220 C 21.9424 1.88743 -0.711257 0
M  V30 221 C 22.2554 1.80112 0.762817 0
M  V30 222 O 23.4614 2.44161 1.18733 0
M  V30 223 C 21.9174 3.38525 -1.22185 0
M  V30 224 C 21.5254 3.55727 -2.72328 0
M  V30 225 C 23.2694 4.12893 -0.985864 0
M  V30 226 C 21.1764 4.99369 -3.16835 0
M  V30 227 H 20.1064 0.706885 -0.262353 0
M  V30 228 H 22.7574 1.35586 -1.23648 0
M  V30 229 H 21.1394 3.91044 -0.624571 0
M  V30 230 H 22.3134 3.13564 -3.3766 0
M  V30 231 H 20.6284 2.94739 -2.9414 0
M  V30 232 H 23.2254 5.18813 -1.29374 0
M  V30 233 H 23.5684 4.16228 0.0775055 0
M  V30 234 H 24.1014 3.66494 -1.54684 0
M  V30 235 H 20.8404 5.01193 -4.22476 0
M  V30 236 H 20.3604 5.42317 -2.56228 0
M  V30 237 H 22.0394 5.67988 -3.09837 0
M  V30 238 N 22.1715 0.800033 1.35784 0
M  V30 239 C 23.1015 0.220184 2.3246 0
M  V30 240 C 24.0825 -0.65073 1.57161 0
M  V30 241 O 25.2675 -0.582359 1.85263 0
M  V30 242 C 22.3975 -0.637353 3.41402 0
M  V30 243 C 21.3515 0.134531 4.27789 0
M  V30 244 C 20.6775 -0.844285 5.27992 0
M  V30 245 C 21.9775 1.32979 5.05088 0
M  V30 246 H 23.6715 1.02787 2.81203 0
M  V30 247 H 21.2175 0.495717 1.35199 0
M  V30 248 H 23.1705 -1.05302 4.08031 0
M  V30 249 H 21.8945 -1.47785 2.91251 0
M  V30 250 H 20.5535 0.531296 3.6273 0
M  V30 251 H 20.2015 -1.68011 4.74111 0
M  V30 252 H 19.9015 -0.332184 5.8666 0
M  V30 253 H 21.4255 -1.2583 5.97494 0
M  V30 254 H 22.8395 0.98934 5.64699 0
M  V30 255 H 21.2365 1.77593 5.7322 0
M  V30 256 H 22.3065 2.11978 4.36111 0
M  V30 257 N 23.6496 -1.47581 0.552962 0
M  V30 258 C 24.8976 -2.02082 0.0272703 0
M  V30 259 C 25.2186 -1.4301 -1.32563 0
M  V30 260 O 24.4886 -0.603745 -1.86365 0
M  V30 261 H 23.0686 -0.746966 0.00709182 0
M  V30 262 H 25.7306 -1.81033 0.722008 0
M  V30 263 H 24.8266 -3.12034 -0.0639951 0
M  V30 264 N 25.1277 -0.289203 -1.54924 0
M  V30 265 C 26.0577 0.58549 -2.2604 0
M  V30 266 C 27.0387 1.14753 -1.25562 0
M  V30 267 O 28.2237 1.17906 -1.54311 0
M  V30 268 C 25.3537 1.76305 -2.99222 0
M  V30 269 C 24.3077 1.33191 -4.06748 0
M  V30 270 C 23.6337 2.5937 -4.6758 0
M  V30 271 C 24.9337 0.471775 -5.20165 0
M  V30 272 H 26.6277 -0.00763532 -2.99399 0
M  V30 273 H 24.1737 -0.00511229 -1.43999 0
M  V30 274 H 26.1267 2.38097 -3.47689 0
M  V30 275 H 24.8507 2.38223 -2.23422 0
M  V30 276 H 23.5097 0.737121 -3.59113 0
M  V30 277 H 23.1577 3.19576 -3.88433 0
M  V30 278 H 22.8577 2.31228 -5.40192 0
M  V30 279 H 24.3817 3.21985 -5.18804 0
M  V30 280 H 25.7957 0.995056 -5.64599 0
M  V30 281 H 24.1927 0.284639 -5.99425 0
M  V30 282 H 25.2627 -0.506041 -4.82252 0
M  V30 283 N 26.6058 1.57591 -0.0167156 0
M  V30 284 C 27.8538 1.90906 0.663285 0
M  V30 285 C 28.1748 0.892509 1.73376 0
M  V30 286 O 27.4448 -0.0677623 1.95783 0
M  V30 287 H 26.0248 0.704637 0.247983 0
M  V30 288 H 28.6868 1.94803 -0.0615909 0
M  V30 289 H 27.7828 2.9116 1.12393 0
M  V30 290 N 28.0839 -0.256276 1.55502 0
M  V30 291 C 29.3119 -1.00342 1.8094 0
M  V30 292 C 29.7269 -1.79307 0.59114 0
M  V30 293 O 29.0839 -1.77114 -0.440081 0
M  V30 294 C 29.1349 -1.94875 3.04476 0
M  V30 295 O 28.8559 -1.19107 4.21598 0
M  V30 296 C 30.3569 -2.81266 3.42644 0
M  V30 297 H 27.5769 -0.295685 0.602338 0
M  V30 298 H 30.1209 -0.281998 2.02546 0
M  V30 299 H 28.2759 -2.62457 2.84947 0
M  V30 300 H 28.6899 -1.82969 4.91551 0
M  V30 301 H 30.1639 -3.43362 4.32211 0
M  V30 302 H 30.6409 -3.51897 2.62802 0
M  V30 303 H 31.2469 -2.1915 3.64491 0
M  V30 304 N 29.562 -1.4872 -0.521534 0
M  V30 305 C 30.808 -1.58378 -1.27624 0
M  V30 306 C 31.163 -0.258028 -1.90662 0
M  V30 307 O 30.456 0.739917 -1.76736 0
M  V30 308 C 30.65 -2.66497 -2.38148 0
M  V30 309 C 30.479 -4.09456 -1.85945 0
M  V30 310 C 29.249 -4.76495 -1.68168 0
M  V30 311 C 31.447 -4.95353 -1.3831 0
M  V30 312 N 29.429 -6.0384 -1.1068 0
M  V30 313 C 30.8 -6.13012 -0.928238 0
M  V30 314 C 32.855 -4.81512 -1.26692 0
M  V30 315 C 31.558 -7.18354 -0.368701 0
M  V30 316 C 33.584 -5.86984 -0.721368 0
M  V30 317 C 32.946 -7.03857 -0.276623 0
M  V30 318 H 29.045 -0.634045 -0.457724 0
M  V30 319 H 31.629 -1.85639 -0.587049 0
M  V30 320 H 29.8 -2.41043 -3.04553 0
M  V30 321 H 31.532 -2.65791 -3.05184 0
M  V30 322 H 28.287 -4.32962 -1.91939 0
M  V30 323 H 28.711 -6.71778 -0.839217 0
M  V30 324 H 33.353 -3.91487 -1.5968 0
M  V30 325 H 31.071 -8.08096 -0.0265122 0
M  V30 326 H 34.657 -5.78329 -0.634531 0
M  V30 327 H 33.537 -7.84077 0.138947 0
M  V30 328 N 31.0401 0.771051 -1.3745 0
M  V30 329 C 31.9871 1.88435 -1.3327 0
M  V30 330 C 32.9571 1.64914 -0.198136 0
M  V30 331 O 34.1421 1.86821 -0.387606 0
M  V30 332 C 31.2821 3.25509 -1.14622 0
M  V30 333 C 30.3951 3.60979 -2.37314 0
M  V30 334 C 29.5301 4.87265 -2.11533 0
M  V30 335 C 28.5691 5.15469 -3.30088 0
M  V30 336 N 27.7061 6.32944 -3.03853 0
M  V30 337 H 32.5461 1.91344 -2.28455 0
M  V30 338 H 30.0831 0.935466 -1.13523 0
M  V30 339 H 32.0411 4.04582 -1.01831 0
M  V30 340 H 30.6711 3.21974 -0.230837 0
M  V30 341 H 29.7231 2.76885 -2.60842 0
M  V30 342 H 31.0351 3.77759 -3.25729 0
M  V30 343 H 30.1891 5.74244 -1.95777 0
M  V30 344 H 28.9281 4.7259 -1.20457 0
M  V30 345 H 27.9331 4.26966 -3.46382 0
M  V30 346 H 29.1581 5.32052 -4.22016 0
M  V30 347 H 27.1041 6.19625 -2.15407 0
M  V30 348 H 27.0211 6.50143 -3.85812 0
M  V30 349 H 28.2891 7.22857 -2.91716 0
M  V30 350 N 32.5182 1.22032 0.997298 0
M  V30 351 C 33.7432 1.06921 1.77715 0
M  V30 352 C 34.1682 -0.376226 1.84299 0
M  V30 353 O 33.5262 -1.27165 1.29223 0
M  V30 354 C 33.5742 1.67996 3.19076 0
M  V30 355 O 32.6782 0.930653 4.01762 0
M  V30 356 H 32.0192 0.375814 0.547412 0
M  V30 357 H 34.5492 1.61737 1.25309 0
M  V30 358 H 34.5592 1.72538 3.69723 0
M  V30 359 H 33.2342 2.73182 3.13599 0
M  V30 360 H 31.8112 0.960917 3.60307 0
M  V30 361 N 33.9963 -1.19345 1.0293 0
M  V30 362 C 35.4073 -1.70725 0.755633 0
M  V30 363 C 35.7583 -1.82326 -0.724676 0
M  V30 364 O 34.8833 -1.49471 -1.56484 0
M  V30 365 C 35.4783 -3.10084 1.36503 0
M  V30 366 C 34.0373 -3.58723 1.13994 0
M  V30 367 C 33.1843 -2.35577 1.46283 0
M  V30 368 H 36.1353 -1.0418 1.19718 0
M  V30 369 H 36.1563 -3.72787 0.762217 0
M  V30 370 H 35.6683 -3.01609 2.44241 0
M  V30 371 H 33.7693 -3.72512 0.0807901 0
M  V30 372 H 33.8823 -4.42816 1.82894 0
M  V30 373 H 32.2463 -2.38935 0.88217 0
M  V30 374 H 33.0293 -2.29731 2.55105 0
M  V30 375 N 35.4744 -0.807222 -1.35358 0
M  V30 376 C 36.8854 -0.44876 -1.81226 0
M  V30 377 C 37.2364 1.02929 -1.67033 0
M  V30 378 O 36.3614 1.79991 -1.20133 0
M  V30 379 C 36.9564 -0.807774 -3.2903 0
M  V30 380 C 35.5154 -0.501901 -3.73039 0
M  V30 381 C 34.6624 -1.03304 -2.57339 0
M  V30 382 H 37.6134 -0.998808 -1.23327 0
M  V30 383 H 37.6344 -0.10554 -3.80354 0
M  V30 384 H 37.1464 -1.88357 -3.39328 0
M  V30 385 H 35.2474 0.565128 -3.68289 0
M  V30 386 H 35.3604 -1.03497 -4.67787 0
M  V30 387 H 33.7244 -0.455339 -2.50597 0
M  V30 388 H 34.5074 -2.11496 -2.70415 0
M  V30 389 N 36.9525 1.47285 -0.560781 0
M  V30 390 C 38.2005 2.02064 -0.0379868 0
M  V30 391 C 38.5215 1.43711 1.31803 0
M  V30 392 O 37.7915 0.61362 1.86042 0
M  V30 393 H 36.3715 0.746918 -0.0110531 0
M  V30 394 H 39.0335 1.80648 -0.731598 0
M  V30 395 H 38.1295 3.12064 0.0474463 0
M  V30 396 N 38.4306 0.297415 1.54768 0
M  V30 397 C 39.3626 -0.613881 2.20826 0
M  V30 398 C 40.3756 -1.10032 1.19987 0
M  V30 399 O 41.5646 -1.01839 1.46598 0
M  V30 400 C 38.6646 -1.852 2.83821 0
M  V30 401 C 37.8376 -1.50865 4.10559 0
M  V30 402 C 36.8966 -2.60154 4.57391 0
M  V30 403 O 35.9226 -2.25398 5.2267 0
M  V30 404 N 37.1246 -3.90629 4.29406 0
M  V30 405 H 39.8896 -0.048389 2.99661 0
M  V30 406 H 37.4506 0.11946 1.61459 0
M  V30 407 H 39.4426 -2.57652 3.12086 0
M  V30 408 H 38.0126 -2.32597 2.08847 0
M  V30 409 H 37.2326 -0.616925 3.89343 0
M  V30 410 H 38.5206 -1.25458 4.9309 0
M  V30 411 H 37.9186 -4.21677 3.77101 0
M  V30 412 H 36.4756 -4.59391 4.62388 0
M  V30 413 N 39.9087 -1.5758 0.0250728 0
M  V30 414 C 41.1547 -1.91917 -0.655413 0
M  V30 415 C 41.4877 -0.901433 -1.72011 0
M  V30 416 O 40.7627 0.0764069 -1.9435 0
M  V30 417 C 41.0457 -3.36751 -1.27558 0
M  V30 418 C 40.8987 -4.49258 -0.220719 0
M  V30 419 C 42.2177 -3.81469 -2.19475 0
M  V30 420 H 39.3367 -0.697925 -0.23679 0
M  V30 421 H 41.9787 -1.89825 0.0815036 0
M  V30 422 H 40.1287 -3.38664 -1.90365 0
M  V30 423 H 41.8007 -4.59478 0.409601 0
M  V30 424 H 40.0437 -4.31415 0.454264 0
M  V30 425 H 40.7147 -5.47618 -0.694175 0
M  V30 426 H 43.1907 -3.81266 -1.66659 0
M  V30 427 H 42.0667 -4.83512 -2.59822 0
M  V30 428 H 42.3277 -3.16744 -3.08424 0
M  V30 429 N 41.3868 0.248026 -1.55636 0
M  V30 430 C 42.6148 0.993808 -1.81469 0
M  V30 431 C 43.0298 1.78991 -0.60064 0
M  V30 432 O 42.3868 1.77345 0.430682 0
M  V30 433 C 42.4378 1.93258 -3.05506 0
M  V30 434 O 42.1588 1.16869 -4.22224 0
M  V30 435 C 43.6598 2.79444 -3.4413 0
M  V30 436 H 40.8798 0.292486 -0.603898 0
M  V30 437 H 43.4238 0.271253 -2.02693 0
M  V30 438 H 41.5788 2.60943 -2.86335 0
M  V30 439 H 41.9928 1.80359 -4.92515 0
M  V30 440 H 43.4668 3.41066 -4.34026 0
M  V30 441 H 43.9438 3.50499 -2.64665 0
M  V30 442 H 44.5498 2.17214 -3.65648 0
M  V30 443 N 42.8649 1.48995 0.513639 0
M  V30 444 C 43.7749 1.67443 1.64317 0
M  V30 445 C 44.7909 0.556947 1.64846 0
M  V30 446 O 45.9669 0.830082 1.83498 0
M  V30 447 C 43.0319 1.72515 3.00732 0
M  V30 448 C 42.0929 2.96009 3.1093 0
M  V30 449 C 41.3259 3.00829 4.40837 0
M  V30 450 O 41.5489 2.13594 5.28898 0
M  V30 451 O 40.4829 3.93168 4.55744 0
M  V30 452 H 44.3089 2.63106 1.51687 0
M  V30 453 H 41.8939 1.32588 0.688543 0
M  V30 454 H 43.7759 1.78277 3.81831 0
M  V30 455 H 42.4509 0.800278 3.13651 0
M  V30 456 H 41.3579 2.9577 2.29065 0
M  V30 457 H 42.6909 3.87934 3.02933 0
M  V30 458 N 44.343 -0.763751 1.37857 0
M  V30 459 C 45.306 -1.85889 1.34081 0
M  V30 460 C 46.306 -1.58949 0.243277 0
M  V30 461 O 47.496 -1.66882 0.499589 0
M  V30 462 C 44.628 -3.23176 1.08489 0
M  V30 463 H 45.821 -1.90648 2.31502 0
M  V30 464 H 43.374 -0.964367 1.23003 0
M  V30 465 H 44.109 -3.24091 0.116318 0
M  V30 466 H 43.894 -3.44124 1.8794 0
M  V30 467 H 45.384 -4.03254 1.08517 0
M  V30 468 N 45.8211 -1.22559 -0.990812 0
M  V30 469 C 47.0671 -1.05297 -1.73322 0
M  V30 470 C 47.4001 0.410655 -1.89808 0
M  V30 471 O 46.6751 1.30439 -1.44277 0
M  V30 472 C 46.9581 -1.76713 -3.13759 0
M  V30 473 C 46.8111 -3.30684 -3.04907 0
M  V30 474 C 48.1301 -1.52121 -4.12974 0
M  V30 475 H 45.2491 -0.38392 -0.629106 0
M  V30 476 H 47.8911 -1.50926 -1.15418 0
M  V30 477 H 46.0411 -1.37924 -3.63193 0
M  V30 478 H 47.7131 -3.7893 -2.63077 0
M  V30 479 H 45.9561 -3.60253 -2.41661 0
M  V30 480 H 46.6271 -3.75833 -4.04294 0
M  V30 481 H 49.1031 -1.85819 -3.72304 0
M  V30 482 H 47.9791 -2.04582 -5.0935 0
M  V30 483 H 48.2401 -0.454257 -4.3976 0
M  V30 484 N 47.2992 1.18797 -1.03562 0
M  V30 485 C 48.2462 2.22253 -0.622259 0
M  V30 486 C 49.2162 1.61987 0.36736 0
M  V30 487 O 50.4012 1.88986 0.262492 0
M  V30 488 C 47.5412 3.45097 0.0138462 0
M  V30 489 C 46.6542 4.19722 -1.02263 0
M  V30 490 C 45.7892 5.30009 -0.355573 0
M  V30 491 C 44.8282 5.96399 -1.37749 0
M  V30 492 N 43.9652 6.98234 -0.735766 0
M  V30 493 H 48.8052 2.56968 -1.50903 0
M  V30 494 H 46.3422 1.26245 -0.755017 0
M  V30 495 H 48.3002 4.15279 0.399948 0
M  V30 496 H 46.9302 3.11018 0.864158 0
M  V30 497 H 45.9822 3.48418 -1.52673 0
M  V30 498 H 47.2942 4.65227 -1.79903 0
M  V30 499 H 46.4482 6.0664 0.0850095 0
M  V30 500 H 45.1872 4.85592 0.452967 0
M  V30 501 H 44.1922 5.18512 -1.82826 0
M  V30 502 H 45.4172 6.42899 -2.18764 0
M  V30 503 H 43.3632 6.55979 0.0525597 0
M  V30 504 H 43.2802 7.41965 -1.44995 0
M  V30 505 H 44.5482 7.78845 -0.31941 0
M  V30 506 N 48.7773 0.814389 1.34928 0
M  V30 507 C 50.0233 0.399013 1.98836 0
M  V30 508 C 50.3563 -1.03314 1.64438 0
M  V30 509 O 49.6313 -1.71811 0.911659 0
M  V30 510 C 49.9143 0.591629 3.55207 0
M  V30 511 C 49.7673 2.06928 3.99376 0
M  V30 512 C 51.0863 0.022199 4.40094 0
M  V30 513 H 48.2053 0.146451 0.722303 0
M  V30 514 H 50.8473 1.02537 1.59957 0
M  V30 515 H 48.9973 0.0584441 3.88456 0
M  V30 516 H 50.6693 2.66544 3.76499 0
M  V30 517 H 48.9123 2.56287 3.49999 0
M  V30 518 H 49.5833 2.1549 5.08201 0
M  V30 519 H 52.0593 0.477643 4.13349 0
M  V30 520 H 50.9353 0.186832 5.48582 0
M  V30 521 H 51.1963 -1.07215 4.28902 0
M  V30 522 N 50.2554 -1.46986 0.568584 0
M  V30 523 C 51.2184 -2.28624 -0.162366 0
M  V30 524 C 52.2184 -1.37596 -0.832103 0
M  V30 525 O 53.4084 -1.60115 -0.68622 0
M  V30 526 C 50.5404 -3.17596 -1.23878 0
M  V30 527 H 51.7334 -2.94722 0.554899 0
M  V30 528 H 49.2864 -1.52863 0.325976 0
M  V30 529 H 50.0214 -2.56214 -1.98808 0
M  V30 530 H 49.8064 -3.846 -0.763219 0
M  V30 531 H 51.2964 -3.79078 -1.75185 0
M  V30 532 N 51.7335 -0.305618 -1.54608 0
M  V30 533 C 52.9825 0.303098 -1.9941 0
M  V30 534 C 53.2955 1.54648 -1.19764 0
M  V30 535 O 54.5015 2.23007 -1.54855 0
M  V30 536 C 52.9575 0.590588 -3.55021 0
M  V30 537 C 52.5655 -0.634719 -4.43481 0
M  V30 538 C 54.3095 1.16025 -4.08336 0
M  V30 539 C 52.2165 -0.320126 -5.90533 0
M  V30 540 H 51.1465 0.117031 -0.744862 0
M  V30 541 H 53.7975 -0.415045 -1.78745 0
M  V30 542 H 52.1795 1.36845 -3.71604 0
M  V30 543 H 53.3535 -1.41079 -4.38672 0
M  V30 544 H 51.6685 -1.12333 -4.00962 0
M  V30 545 H 54.2655 1.40994 -5.15776 0
M  V30 546 H 54.6085 2.10397 -3.5922 0
M  V30 547 H 55.1415 0.443985 -3.95315 0
M  V30 548 H 51.8805 -1.23254 -6.43808 0
M  V30 549 H 51.4005 0.418579 -5.98338 0
M  V30 550 H 53.0795 0.0766241 -6.46955 0
M  V30 551 N 53.2116 1.57565 -0.0334293 0
M  V30 552 C 54.4886 1.83282 0.683163 0
M  V30 553 C 54.8686 0.91823 1.90084 0
M  V30 554 O 54.2166 -0.025113 2.28486 0
M  V30 555 C 54.4266 3.32599 1.0573 0
M  V30 556 C 55.7746 3.99179 1.44711 0
M  V30 557 O 56.7986 3.3712 1.15015 0
M  V30 558 O 55.6576 5.08565 2.0006 0
M  V30 559 H 52.7516 0.755869 0.335546 0
M  V30 560 H 55.2976 1.69589 -0.0614402 0
M  V30 561 H 54.0696 3.90834 0.190828 0
M  V30 562 H 53.6926 3.51415 1.85993 0
M  V30 563 N 54.6897 -0.239769 1.55765 0
M  V30 564 C 55.9357 -0.968234 1.78194 0
M  V30 565 C 56.2687 -1.84701 0.599938 0
M  V30 566 O 55.5437 -1.9031 -0.401524 0
M  V30 567 C 55.8267 -1.8227 3.10564 0
M  V30 568 C 55.6797 -0.971633 4.3918 0
M  V30 569 C 56.9987 -2.80388 3.39221 0
M  V30 570 H 54.1177 -0.350572 0.648281 0
M  V30 571 H 56.7597 -0.238259 1.885 0
M  V30 572 H 54.9097 -2.44507 3.01908 0
M  V30 573 H 56.5817 -0.367408 4.59835 0
M  V30 574 H 54.8247 -0.276276 4.32919 0
M  V30 575 H 55.4957 -1.60346 5.28198 0
M  V30 576 H 57.9717 -2.28287 3.47885 0
M  V30 577 H 56.8477 -3.3729 4.33044 0
M  V30 578 H 57.1087 -3.57212 2.60484 0
M  V30 579 N 56.1678 -1.49265 -0.50573 0
M  V30 580 C 57.4158 -1.582 -1.25766 0
M  V30 581 C 57.7368 -0.268482 -1.93143 0
M  V30 582 O 57.0068 0.711833 -1.8251 0
M  V30 583 H 55.5868 -0.582873 -0.467191 0
M  V30 584 H 58.2488 -1.85865 -0.586525 0
M  V30 585 H 57.3448 -2.37563 -2.02412 0
M  V30 586 N 57.6459 0.756429 -1.3826 0
M  V30 587 C 58.8759 1.54341 -1.3734 0
M  V30 588 C 59.2839 1.89159 0.0393917 0
M  V30 589 O 58.6269 1.5307 1.01565 0
M  V30 590 C 58.6889 2.87238 -2.16182 0
M  V30 591 C 58.3529 2.74973 -3.65019 0
M  V30 592 C 59.3499 2.44962 -4.58574 0
M  V30 593 C 57.0349 2.92515 -4.08338 0
M  V30 594 C 59.0289 2.32642 -5.93428 0
M  V30 595 C 56.7159 2.79815 -5.43274 0
M  V30 596 C 57.7139 2.49921 -6.35632 0
M  V30 597 O 57.4019 2.37275 -7.68086 0
M  V30 598 H 57.1339 0.484281 -0.471643 0
M  V30 599 H 59.6879 0.944152 -1.82414 0
M  V30 600 H 57.9179 3.49342 -1.65822 0
M  V30 601 H 59.6069 3.48731 -2.07705 0
M  V30 602 H 60.3729 2.31081 -4.26412 0
M  V30 603 H 56.2519 3.14781 -3.368 0
M  V30 604 H 59.7959 2.0923 -6.65484 0
M  V30 605 H 55.6929 2.93269 -5.75034 0
M  V30 606 H 56.4609 2.52509 -7.78577 0
M  V30 607 N 59.124 1.23083 0.984299 0
M  V30 608 C 60.54 0.992637 1.24975 0
M  V30 609 C 60.74 -0.308618 1.99123 0
M  V30 610 O 59.796 -1.02905 2.30579 0
M  V30 611 C 61.109 2.19698 2.05312 0
M  V30 612 C 62.657 2.24147 2.18465 0
M  V30 613 C 63.132 3.44157 3.02192 0
M  V30 614 N 64.623 3.44372 3.09777 0
M  V30 615 C 65.358 4.33886 3.74874 0
M  V30 616 N 64.854 5.3363 4.41827 0
M  V30 617 N 66.647 4.21639 3.71721 0
M  V30 618 H 58.798 2.06731 0.487453 0
M  V30 619 H 61.061 0.906339 0.277944 0
M  V30 620 H 60.767 3.1411 1.58201 0
M  V30 621 H 60.641 2.20465 3.06064 0
M  V30 622 H 63.028 1.30277 2.64786 0
M  V30 623 H 63.109 2.27415 1.17115 0
M  V30 624 H 62.753 4.38332 2.56568 0
M  V30 625 H 62.683 3.3813 4.03702 0
M  V30 626 H 65.174 2.72201 2.62135 0
M  V30 627 H 65.487 5.98196 4.89266 0
M  V30 628 H 63.832 5.37534 4.40548 0
M  V30 629 H 67.023 3.42962 3.18582 0
M  V30 630 H 67.196 4.91604 4.22173 0
M  V30 631 N 60.6021 -1.18246 1.0419 0
M  V30 632 C 61.5521 -2.19843 0.604392 0
M  V30 633 C 62.5361 -1.56962 -0.353814 0
M  V30 634 O 63.7281 -1.76156 -0.17267 0
M  V30 635 C 60.8571 -3.43287 -0.0298975 0
M  V30 636 C 59.9431 -4.13288 0.951531 0
M  V30 637 N 60.3341 -4.59271 2.11906 0
M  V30 638 C 58.6321 -4.39165 0.7778 0
M  V30 639 C 59.3331 -5.13173 2.73912 0
M  V30 640 N 58.3091 -5.04763 2.01779 0
M  V30 641 H 62.1111 -2.53089 1.4941 0
M  V30 642 H 59.6251 -1.34465 0.910658 0
M  V30 643 H 61.6221 -4.15334 -0.361037 0
M  V30 644 H 60.2821 -3.11537 -0.915127 0
M  V30 645 H 61.2931 -4.5368 2.49789 0
M  V30 646 H 57.9701 -4.17461 -0.0572331 0
M  V30 647 H 59.3601 -5.58947 3.72864 0
M  V30 648 N 62.0802 -0.821533 -1.34494 0
M  V30 649 C 63.3292 -0.405355 -1.97585 0
M  V30 650 C 63.6422 1.03677 -1.65863 0
M  V30 651 O 64.8482 1.55679 -2.22433 0
M  V30 652 C 63.3042 -0.673861 -3.53535 0
M  V30 653 C 62.9122 -2.12951 -3.94152 0
M  V30 654 C 64.6562 -0.32378 -4.23263 0
M  V30 655 C 62.5632 -2.34298 -5.43009 0
M  V30 656 H 61.4932 -0.147836 -0.739365 0
M  V30 657 H 64.1442 -1.00769 -1.53355 0
M  V30 658 H 62.5262 -0.00137554 -3.96 0
M  V30 659 H 63.7002 -2.84104 -3.62797 0
M  V30 660 H 62.0152 -2.44089 -3.37356 0
M  V30 661 H 64.6122 -0.461126 -5.32708 0
M  V30 662 H 64.9552 0.731586 -4.09821 0
M  V30 663 H 65.4882 -0.950786 -3.8627 0
M  V30 664 H 62.2272 -3.38335 -5.61435 0
M  V30 665 H 61.7472 -1.67687 -5.75883 0
M  V30 666 H 63.4262 -2.16588 -6.09671 0
M  V30 667 N 63.5583 1.46682 -0.576371 0
M  V30 668 C 64.8353 1.95599 0.00703437 0
M  V30 669 C 65.2153 1.51904 1.46589 0
M  V30 670 O 64.5633 0.766755 2.15251 0
M  V30 671 C 64.7733 3.4864 -0.158404 0
M  V30 672 C 66.1213 4.24594 -0.0229439 0
M  V30 673 O 67.1453 3.56094 -0.0869173 0
M  V30 674 O 66.0043 5.46373 0.118015 0
M  V30 675 H 63.0983 0.825275 0.053384 0
M  V30 676 H 65.6443 1.56996 -0.644244 0
M  V30 677 H 64.4163 3.7331 -1.17282 0
M  V30 678 H 64.0393 3.94057 0.5296 0
M  V30 679 N 65.0364 0.313813 1.54444 0
M  V30 680 C 66.2764 -0.292389 2.02298 0
M  V30 681 C 66.6404 -1.50105 1.19719 0
M  V30 682 O 67.8414 -2.17947 1.5733 0
M  V30 683 C 66.1124 -0.627682 3.51845 0
M  V30 684 S 67.6714 -1.21493 4.21646 0
M  V30 685 H 64.4894 -0.0890247 0.705405 0
M  V30 686 H 67.0914 0.444668 1.90376 0
M  V30 687 H 65.7954 0.260265 4.09574 0
M  V30 688 H 65.3264 -1.39519 3.67829 0
M  V30 689 H 67.3414 -2.5022 4.28491 0
M  V30 690 N 66.5145 -1.57545 0.0417849 0
M  V30 691 C 67.4775 -2.09885 -0.92093 0
M  V30 692 C 68.4775 -1.01648 -1.24596 0
M  V30 693 O 69.6675 -1.27759 -1.1842 0
M  V30 694 C 66.7995 -2.57527 -2.23367 0
M  V30 695 H 67.9925 -2.96236 -0.467382 0
M  V30 696 H 65.5455 -1.5493 -0.206467 0
M  V30 697 H 66.2805 -1.74542 -2.73323 0
M  V30 698 H 66.0655 -3.36613 -2.01083 0
M  V30 699 H 67.5555 -2.98201 -2.92346 0
M  V30 700 N 67.9926 0.231505 -1.5589 0
M  V30 701 C 68.9426 1.29007 -1.87993 0
M  V30 702 C 69.9266 1.42764 -0.742102 0
M  V30 703 O 71.1186 1.45747 -1.00433 0
M  V30 704 C 68.2476 2.6425 -2.1915 0
M  V30 705 C 67.3336 2.54435 -3.39299 0
M  V30 706 N 67.7246 2.14262 -4.58176 0
M  V30 707 C 66.0226 2.85416 -3.42715 0
M  V30 708 C 66.7236 2.15455 -5.40328 0
M  V30 709 N 65.6996 2.55558 -4.79783 0
M  V30 710 H 69.5016 0.970213 -2.77424 0
M  V30 711 H 67.0156 0.440097 -1.56323 0
M  V30 712 H 69.0126 3.40665 -2.40319 0
M  V30 713 H 67.6726 2.9709 -1.31025 0
M  V30 714 H 68.6836 1.85554 -4.83518 0
M  V30 715 H 65.3606 3.22693 -2.64906 0
M  V30 716 H 66.7506 1.86605 -6.45467 0
M  V30 717 N 69.4707 1.49531 0.497807 0
M  V30 718 C 70.7167 1.59415 1.25358 0
M  V30 719 C 71.0497 0.281422 1.9215 0
M  V30 720 O 70.3247 -0.715249 1.80871 0
M  V30 721 C 70.6077 2.75566 2.3181 0
M  V30 722 C 70.4607 4.16642 1.69498 0
M  V30 723 C 71.7797 2.87347 3.33346 0
M  V30 724 H 68.8987 0.580244 0.454408 0
M  V30 725 H 71.5407 1.81827 0.551262 0
M  V30 726 H 69.6907 2.56587 2.91711 0
M  V30 727 H 71.3627 4.47145 1.13399 0
M  V30 728 H 69.6057 4.22141 0.998978 0
M  V30 729 H 70.2767 4.93792 2.46725 0
M  V30 730 H 72.7527 3.04634 2.83438 0
M  V30 731 H 71.6287 3.70289 4.05188 0
M  V30 732 H 71.8897 1.96834 3.95865 0
M  V30 733 N 70.9488 -0.749086 1.3866 0
M  V30 734 C 72.1788 -1.53611 1.38157 0
M  V30 735 C 72.5868 -1.89177 -0.0293595 0
M  V30 736 O 71.9298 -1.53606 -1.00752 0
M  V30 737 C 71.9918 -2.86087 2.17702 0
M  V30 738 C 71.6558 -2.73034 3.66472 0
M  V30 739 C 72.6528 -2.42526 4.59866 0
M  V30 740 C 70.3378 -2.90345 4.09884 0
M  V30 741 C 72.3318 -2.29492 5.94653 0
M  V30 742 C 70.0188 -2.7693 5.4475 0
M  V30 743 C 71.0168 -2.46547 6.36949 0
M  V30 744 O 70.7048 -2.33199 7.69333 0
M  V30 745 H 70.4368 -0.481773 0.474205 0
M  V30 746 H 72.9908 -0.934465 1.82912 0
M  V30 747 H 71.2208 -3.48458 1.67672 0
M  V30 748 H 72.9098 -3.47625 2.09551 0
M  V30 749 H 73.6758 -2.28816 4.27631 0
M  V30 750 H 69.5548 -3.1299 3.38464 0
M  V30 751 H 73.0988 -2.05698 6.66584 0
M  V30 752 H 68.9958 -2.90215 5.76581 0
M  V30 753 H 69.7638 -2.48376 7.79905 0
M  V30 754 N 72.4269 -1.23603 -0.977757 0
M  V30 755 C 73.3589 -0.977369 -2.07317 0
M  V30 756 C 74.3719 0.0495845 -1.62724 0
M  V30 757 O 75.5609 -0.186261 -1.77526 0
M  V30 758 C 72.6609 -0.451216 -3.35883 0
M  V30 759 C 71.8339 -1.53896 -4.09432 0
M  V30 760 C 70.8929 -1.01721 -5.16274 0
M  V30 761 O 69.9189 -1.70676 -5.43009 0
M  V30 762 N 71.1209 0.153594 -5.80297 0
M  V30 763 H 73.8859 -1.92047 -2.30082 0
M  V30 764 H 71.4469 -1.14497 -1.14465 0
M  V30 765 H 73.4389 -0.0871574 -4.04606 0
M  V30 766 H 72.0089 0.397368 -3.10064 0
M  V30 767 H 71.2289 -2.07566 -3.35127 0
M  V30 768 H 72.5169 -2.27037 -4.55337 0
M  V30 769 H 71.9149 0.730323 -5.60966 0
M  V30 770 H 70.4719 0.458892 -6.50183 0
M  V30 771 N 73.905 1.17692 -1.04816 0
M  V30 772 C 74.853 2.23632 -0.63966 0
M  V30 773 C 75.847 1.6601 0.337219 0
M  V30 774 O 77.053 1.78844 0.203693 0
M  V30 775 H 73.428 0.727949 -0.188665 0
M  V30 776 H 75.399 2.55387 -1.54337 0
M  V30 777 C 74.148 3.4769 -0.0264051 0
M  V30 778 H 73.471 3.92331 -0.769164 0
M  V30 779 H 74.911 4.23418 0.222098 0
M  V30 780 C 73.37 3.13807 1.22584 0
M  V30 781 O 73.9 3.28236 2.31569 0
M  V30 782 N 72.106 2.68065 1.12202 0
M  V30 783 H 71.653 2.56525 0.235133 0
M  V30 784 H 71.611 2.45767 1.96076 0
M  V30 785 N 75.3831 0.828654 1.34056 0
M  V30 786 C 76.2931 0.256725 2.33191 0
M  V30 787 C 77.3091 -0.611898 1.62886 0
M  V30 788 O 78.4851 -0.51844 1.94613 0
M  V30 789 C 75.5501 -0.567238 3.42028 0
M  V30 790 C 74.6111 0.324458 4.28072 0
M  V30 791 C 73.8441 -0.460274 5.31712 0
M  V30 792 O 74.0671 -1.693 5.44696 0
M  V30 793 O 73.0011 0.160391 6.01686 0
M  V30 794 H 76.8271 1.07739 2.83947 0
M  V30 795 H 74.4121 0.59093 1.37217 0
M  V30 796 H 76.2941 -1.03582 4.08471 0
M  V30 797 H 74.9691 -1.36513 2.93506 0
M  V30 798 H 73.8761 0.840659 3.64532 0
M  V30 799 H 75.2091 1.08685 4.8005 0
M  V30 800 N 76.8612 -1.46375 0.584142 0
M  V30 801 C 77.8092 -2.32042 -0.161047 0
M  V30 802 C 78.8032 -1.44569 -0.882966 0
M  V30 803 O 80.0092 -1.61186 -0.801191 0
M  V30 804 H 76.3842 -0.748659 -0.0708033 0
M  V30 805 H 78.3552 -2.92704 0.580269 0
M  V30 806 C 77.1042 -3.27762 -1.1605 0
M  V30 807 H 76.4272 -3.95051 -0.614419 0
M  V30 808 H 77.8672 -3.90481 -1.65228 0
M  V30 809 C 76.3262 -2.53218 -2.22221 0
M  V30 810 O 76.8562 -2.29628 -3.29597 0
M  V30 811 N 75.0622 -2.13756 -1.96868 0
M  V30 812 H 74.6092 -2.33142 -1.09557 0
M  V30 813 H 74.5672 -1.642 -2.68115 0
M  V30 814 N 78.3393 -0.321999 -1.54275 0
M  V30 815 C 79.2493 0.553631 -2.27974 0
M  V30 816 C 80.2653 1.13054 -1.32268 0
M  V30 817 O 81.4413 1.15084 -1.6528 0
M  V30 818 C 78.5063 1.69927 -3.02201 0
M  V30 819 C 77.5673 1.15433 -4.1349 0
M  V30 820 C 76.8003 2.24537 -4.84168 0
M  V30 821 O 77.0233 3.44852 -4.5435 0
M  V30 822 O 75.9573 1.90044 -5.7111 0
M  V30 823 H 79.7833 -0.0448345 -3.03667 0
M  V30 824 H 77.3683 -0.0877418 -1.49142 0
M  V30 825 H 79.2503 2.3663 -3.48689 0
M  V30 826 H 77.9253 2.28395 -2.29385 0
M  V30 827 H 76.8323 0.452436 -3.71354 0
M  V30 828 H 78.1653 0.614805 -4.88345 0
M  V30 829 N 79.8174 1.5752 -0.0501392 0
M  V30 830 C 81.0634 1.92936 0.624798 0
M  V30 831 C 81.3964 0.928685 1.70555 0
M  V30 832 O 80.6714 -0.0454779 1.94447 0
M  V30 833 C 80.9544 3.38737 1.22185 0
M  V30 834 C 80.8074 4.49552 0.149218 0
M  V30 835 C 82.1264 3.84913 2.13378 0
M  V30 836 H 79.2454 0.701604 0.225657 0
M  V30 837 H 81.8874 1.89671 -0.111693 0
M  V30 838 H 80.0374 3.4165 1.84953 0
M  V30 839 H 81.7094 4.58768 -0.482648 0
M  V30 840 H 79.9524 4.30638 -0.522841 0
M  V30 841 H 80.6234 5.48653 0.606966 0
M  V30 842 H 83.0994 3.8387 1.60572 0
M  V30 843 H 81.9754 4.87584 2.52097 0
M  V30 844 H 82.2364 3.21611 3.03346 0
M  V30 845 N 81.2955 -0.223234 1.56011 0
M  V30 846 C 82.5435 -0.946003 1.78592 0
M  V30 847 C 82.8645 -1.84936 0.618349 0
M  V30 848 O 82.1345 -1.92473 -0.364833 0
M  V30 849 H 80.7145 -0.352298 0.658707 0
M  V30 850 H 83.3765 -0.235494 1.93472 0
M  V30 851 H 82.4725 -1.55381 2.70672 0
M  V30 852 N 82.7736 -1.49793 -0.48987 0
M  V30 853 C 84.0196 -1.60078 -1.24511 0
M  V30 854 C 84.3526 -0.291608 -1.91998 0
M  V30 855 O 83.6276 0.705647 -1.81248 0
M  V30 856 C 83.9106 -2.76791 -2.30345 0
M  V30 857 C 83.7636 -4.17535 -1.67286 0
M  V30 858 C 85.0826 -2.89111 -3.31817 0
M  V30 859 H 82.2016 -0.582645 -0.451324 0
M  V30 860 H 84.8436 -1.82117 -0.541612 0
M  V30 861 H 82.9936 -2.5813 -2.90346 0
M  V30 862 H 84.6656 -4.4774 -1.11026 0
M  V30 863 H 82.9086 -4.22665 -0.976577 0
M  V30 864 H 83.5796 -4.95094 -2.44103 0
M  V30 865 H 86.0556 -3.06133 -2.81819 0
M  V30 866 H 84.9316 -3.72433 -4.03219 0
M  V30 867 H 85.1926 -1.9893 -3.94815 0
M  V30 868 N 84.2517 0.741722 -1.39055 0
M  V30 869 C 85.2147 1.83733 -1.37021 0
M  V30 870 C 86.2147 1.58542 -0.268534 0
M  V30 871 O 87.4047 1.66067 -0.526076 0
M  V30 872 C 84.5367 3.2141 -1.13617 0
M  V30 873 H 85.7297 1.86941 -2.34506 0
M  V30 874 H 83.2827 0.944676 -1.24521 0
M  V30 875 H 84.0177 3.23865 -0.167863 0
M  V30 876 H 83.8027 3.4109 -1.93391 0
M  V30 877 H 85.2927 4.01477 -1.14918 0
M  V30 878 N 85.7298 1.2412 0.971189 0
M  V30 879 C 86.9788 1.07284 1.70801 0
M  V30 880 C 87.2918 -0.388902 1.91695 0
M  V30 881 O 88.4978 -0.677379 2.62914 0
M  V30 882 C 86.9538 1.87145 3.07416 0
M  V30 883 C 86.5618 3.37707 2.94377 0
M  V30 884 C 88.3058 1.78828 3.84995 0
M  V30 885 C 86.2128 4.09925 4.26281 0
M  V30 886 H 85.1428 0.397854 0.64049 0
M  V30 887 H 87.7938 1.4817 1.0825 0
M  V30 888 H 86.1758 1.39071 3.70777 0
M  V30 889 H 87.3498 3.93335 2.4005 0
M  V30 890 H 85.6648 3.46938 2.30267 0
M  V30 891 H 88.2618 2.30089 4.82662 0
M  V30 892 H 88.6048 0.75284 4.09436 0
M  V30 893 H 89.1378 2.24563 3.28354 0
M  V30 894 H 85.8768 5.13813 4.07033 0
M  V30 895 H 85.3968 3.59083 4.80437 0
M  V30 896 H 87.0758 4.1673 4.94919 0
M  V30 897 N 87.2079 -1.17134 1.05439 0
M  V30 898 C 88.1399 -2.2078 0.615539 0
M  V30 899 C 89.1529 -1.59584 -0.322001 0
M  V30 900 O 90.3419 -1.78133 -0.114344 0
M  V30 901 C 87.4419 -3.38691 -0.118938 0
M  V30 902 C 86.6149 -4.29454 0.829924 0
M  V30 903 C 85.6739 -5.26024 0.136258 0
M  V30 904 O 84.6999 -5.63952 0.77115 0
M  V30 905 N 85.9019 -5.69487 -1.1254 0
M  V30 906 H 88.6669 -2.59052 1.50705 0
M  V30 907 H 86.2279 -1.32058 0.936603 0
M  V30 908 H 88.2199 -4.00329 -0.593179 0
M  V30 909 H 86.7899 -2.98996 -0.91215 0
M  V30 910 H 86.0099 -3.65211 1.48373 0
M  V30 911 H 87.2979 -4.86984 1.47392 0
M  V30 912 H 86.6959 -5.4075 -1.6615 0
M  V30 913 H 85.2529 -6.33257 -1.54366 0
M  V30 914 N 88.686 -0.835752 -1.33615 0
M  V30 915 C 89.596 -0.269088 -2.33052 0
M  V30 916 C 90.612 0.603251 -1.63208 0
M  V30 917 O 91.788 0.508112 -1.94885 0
M  V30 918 C 88.853 0.549091 -3.42324 0
M  V30 919 C 87.914 -0.347156 -4.27894 0
M  V30 920 C 87.147 0.43207 -5.31948 0
M  V30 921 O 87.37 1.66409 -5.45586 0
M  V30 922 O 86.304 -0.192298 -6.01593 0
M  V30 923 H 90.13 -1.09243 -2.83372 0
M  V30 924 H 87.715 -0.598198 -1.36901 0
M  V30 925 H 89.597 1.01414 -4.09015 0
M  V30 926 H 88.272 1.34955 -2.94226 0
M  V30 927 H 87.179 -0.859979 -3.64081 0
M  V30 928 H 88.512 -1.1123 -4.79467 0
M  V30 929 N 90.1641 1.46063 -0.591896 0
M  V30 930 C 91.1111 2.30399 0.136069 0
M  V30 931 C 92.0811 1.41169 0.875238 0
M  V30 932 O 93.2661 1.70112 0.86409 0
M  V30 933 C 90.4061 3.25804 1.13781 0
M  V30 934 C 89.5191 4.30134 0.401137 0
M  V30 935 C 88.6541 5.12659 1.39121 0
M  V30 936 C 87.6931 6.0873 0.641462 0
M  V30 937 N 86.8301 6.8409 1.58004 0
M  V30 938 H 91.6701 2.92118 -0.589144 0
M  V30 939 H 89.2071 1.43959 -0.302342 0
M  V30 940 H 91.1651 3.79569 1.73156 0
M  V30 941 H 89.7951 2.65872 1.83062 0
M  V30 942 H 88.8471 3.79152 -0.307826 0
M  V30 943 H 90.1591 4.98458 -0.184565 0
M  V30 944 H 89.3131 5.70747 2.05749 0
M  V30 945 H 88.0521 4.44316 2.01084 0
M  V30 946 H 87.0571 5.49786 -0.0385419 0
M  V30 947 H 88.2821 6.79095 0.0270945 0
M  V30 948 H 86.2281 6.18449 2.18761 0
M  V30 949 H 86.1451 7.48709 1.04738 0
M  V30 950 H 87.4131 7.4673 2.23639 0
M  V30 951 N 91.6422 0.330177 1.54103 0
M  V30 952 C 92.5722 -0.525353 2.27513 0
M  V30 953 C 93.5532 -1.11383 1.2856 0
M  V30 954 O 94.7382 -1.13773 1.57383 0
M  V30 955 C 91.8682 -1.6831 3.03791 0
M  V30 956 C 90.8222 -1.2236 4.10137 0
M  V30 957 C 90.1482 -2.46882 4.74293 0
M  V30 958 C 91.4482 -0.333697 5.21233 0
M  V30 959 H 93.1422 0.087013 2.99274 0
M  V30 960 H 90.6882 0.0432893 1.43935 0
M  V30 961 H 92.6412 -2.28795 3.5388 0
M  V30 962 H 91.3652 -2.32216 2.29659 0
M  V30 963 H 90.0242 -0.64165 3.60941 0
M  V30 964 H 89.6722 -3.09165 3.96769 0
M  V30 965 H 89.3722 -2.16825 5.46133 0
M  V30 966 H 90.8962 -3.08117 5.27159 0
M  V30 967 H 92.3102 -0.845013 5.67038 0
M  V30 968 H 90.7072 -0.125612 5.99969 0
M  V30 969 H 91.7772 0.633724 4.80741 0
M  V30 970 N 93.1203 -1.57491 0.0584922 0
M  V30 971 C 94.5363 -1.56792 -0.298091 0
M  V30 972 C 94.7363 -1.06679 -1.70944 0
M  V30 973 O 93.7923 -0.726672 -2.41818 0
M  V30 974 C 95.1053 -3.00461 -0.119879 0
M  V30 975 C 96.6533 -3.1242 -0.190428 0
M  V30 976 C 97.1283 -4.57982 -0.0406567 0
M  V30 977 N 98.6193 -4.63099 -0.0966958 0
M  V30 978 C 99.3543 -5.734 -0.00502943 0
M  V30 979 N 98.8503 -6.9266 0.139402 0
M  V30 980 N 100.643 -5.62067 -0.0611391 0
M  V30 981 H 92.7943 -1.88386 0.98105 0
M  V30 982 H 95.0573 -0.867865 0.381463 0
M  V30 983 H 94.7633 -3.41187 0.85349 0
M  V30 984 H 94.6373 -3.66843 -0.877833 0
M  V30 985 H 97.0243 -2.71589 -1.15427 0
M  V30 986 H 97.1053 -2.48702 0.598405 0
M  V30 987 H 96.7493 -4.995 0.919897 0
M  V30 988 H 96.6793 -5.19715 -0.848727 0
M  V30 989 H 99.1703 -3.77331 -0.207277 0
M  V30 990 H 99.4833 -7.72536 0.201855 0
M  V30 991 H 97.8283 -6.94781 0.174586 0
M  V30 992 H 101.019 -4.67782 -0.172583 0
M  V30 993 H 101.192 -6.47999 0.0137562 0
M  V30 994 N 94.5984 0.214957 -1.56127 0
M  V30 995 C 95.5084 1.28727 -1.96129 0
M  V30 996 C 96.5244 1.50916 -0.866044 0
M  V30 997 O 97.7004 1.63918 -1.17016 0
M  V30 998 C 94.7654 2.61569 -2.27558 0
M  V30 999 C 93.8264 2.47625 -3.50685 0
M  V30 1000 C 93.0594 3.74132 -3.80606 0
M  V30 1001 O 93.2824 4.77438 -3.12104 0
M  V30 1002 O 92.2164 3.70849 -4.74083 0
M  V30 1003 H 96.0424 0.977855 -2.87527 0
M  V30 1004 H 93.6274 0.418358 -1.43423 0
M  V30 1005 H 95.5094 3.40012 -2.48938 0
M  V30 1006 H 94.1844 2.92178 -1.39332 0
M  V30 1007 H 93.0914 1.67361 -3.34576 0
M  V30 1008 H 94.4244 2.21954 -4.39315 0
M  V30 1009 N 96.0765 1.50051 0.48192 0
M  V30 1010 C 97.0085 1.64263 1.59844 0
M  V30 1011 C 98.0215 0.52451 1.54119 0
M  V30 1012 O 99.2105 0.797293 1.59704 0
M  V30 1013 C 96.3105 1.60102 2.98698 0
M  V30 1014 C 95.4835 2.87767 3.29407 0
M  V30 1015 C 94.5425 2.76397 4.47762 0
M  V30 1016 O 93.5685 3.50348 4.48603 0
M  V30 1017 N 94.7705 1.89222 5.48794 0
M  V30 1018 H 97.5355 2.60566 1.48073 0
M  V30 1019 H 95.0965 1.47379 0.670149 0
M  V30 1020 H 97.0885 1.50123 3.75826 0
M  V30 1021 H 95.6585 0.715798 3.04294 0
M  V30 1022 H 94.8785 3.11954 2.40994 0
M  V30 1023 H 96.1665 3.72365 3.4673 0
M  V30 1024 H 95.5645 1.28434 5.50928 0
M  V30 1025 H 94.1215 1.85154 6.24949 0
M  V30 1026 N 97.5546 -0.734337 1.39446 0
M  V30 1027 C 98.8006 -1.49613 1.36908 0
M  V30 1028 C 99.1336 -1.94169 -0.0347829 0
M  V30 1029 O 98.4086 -1.66833 -0.999847 0
M  V30 1030 C 98.6916 -2.73534 2.34203 0
M  V30 1031 C 98.5446 -2.34993 3.83534 0
M  V30 1032 C 99.8636 -3.75635 2.29317 0
M  V30 1033 H 96.9826 -0.542714 0.498629 0
M  V30 1034 H 99.6246 -0.839597 1.70443 0
M  V30 1035 H 97.7746 -3.29553 2.05736 0
M  V30 1036 H 99.4466 -1.84601 4.22753 0
M  V30 1037 H 97.6896 -1.67213 4.00278 0
M  V30 1038 H 98.3606 -3.23738 4.47099 0
M  V30 1039 H 100.837 -3.29203 2.54489 0
M  V30 1040 H 99.7126 -4.60008 2.99472 0
M  V30 1041 H 99.9736 -4.22603 1.29842 0
M  V30 1042 N 99.0327 -1.24633 -0.964593 0
M  V30 1043 C 100.279 -1.08949 -1.71049 0
M  V30 1044 C 100.612 0.370302 -1.90637 0
M  V30 1045 O 99.8867 1.27349 -1.47011 0
M  V30 1046 C 100.17 -1.83329 -3.0994 0
M  V30 1047 C 100.023 -3.37077 -2.97824 0
M  V30 1048 C 101.342 -1.60846 -4.09654 0
M  V30 1049 H 98.4607 -0.397178 -0.620821 0
M  V30 1050 H 101.103 -1.5334 -1.12191 0
M  V30 1051 H 99.2527 -1.45597 -3.60186 0
M  V30 1052 H 100.925 -3.84425 -2.5498 0
M  V30 1053 H 99.1677 -3.65298 -2.33965 0
M  V30 1054 H 99.8387 -3.84324 -3.96231 0
M  V30 1055 H 102.315 -1.93674 -3.68279 0
M  V30 1056 H 101.191 -2.1534 -5.04896 0
M  V30 1057 H 101.452 -0.547434 -4.38698 0
M  V30 1058 N 100.511 1.16574 -1.06058 0
M  V30 1059 C 101.458 2.20883 -0.669263 0
M  V30 1060 C 102.428 1.62729 0.332918 0
M  V30 1061 O 103.613 1.895 0.222346 0
M  V30 1062 C 100.753 3.45049 -0.0593572 0
M  V30 1063 C 99.8658 4.17458 -1.11143 0
M  V30 1064 C 99.0008 5.29135 -0.467916 0
M  V30 1065 C 98.0398 5.93343 -1.50369 0
M  V30 1066 N 97.1768 6.96516 -0.883706 0
M  V30 1067 H 102.017 2.53709 -1.5632 0
M  V30 1068 H 99.5538 1.24616 -0.781625 0
M  V30 1069 H 101.512 4.16033 0.311771 0
M  V30 1070 H 100.142 3.12781 0.797992 0
M  V30 1071 H 99.1938 3.45101 -1.60029 0
M  V30 1072 H 100.506 4.61307 -1.89731 0
M  V30 1073 H 99.6598 6.06684 -0.0436871 0
M  V30 1074 H 98.3988 4.86443 0.349864 0
M  V30 1075 H 97.4038 5.14517 -1.93784 0
M  V30 1076 H 98.6288 6.38114 -2.32352 0
M  V30 1077 H 96.5748 6.55943 -0.086595 0
M  V30 1078 H 96.4918 7.38723 -1.607 0
M  V30 1079 H 97.7598 7.77993 -0.484543 0
M  V30 1080 N 101.989 0.842826 1.3317 0
M  V30 1081 C 103.405 0.531128 1.50503 0
M  V30 1082 C 103.605 -0.940734 1.78192 0
M  V30 1083 O 102.661 -1.72436 1.84451 0
M  V30 1084 C 103.974 1.40789 2.65705 0
M  V30 1085 C 105.522 1.40708 2.79589 0
M  V30 1086 C 105.997 2.26878 3.97857 0
M  V30 1087 N 107.488 2.24609 4.05099 0
M  V30 1088 C 108.223 2.88019 4.95815 0
M  V30 1089 N 107.719 3.60496 5.9162 0
M  V30 1090 N 109.512 2.77469 4.88843 0
M  V30 1091 H 101.663 1.79557 1.1346 0
M  V30 1092 H 103.926 0.766267 0.558156 0
M  V30 1093 H 103.632 2.454 2.51936 0
M  V30 1094 H 103.506 1.08677 3.61205 0
M  V30 1095 H 105.893 0.368668 2.92788 0
M  V30 1096 H 105.974 1.76829 1.84838 0
M  V30 1097 H 105.618 3.3078 3.85418 0
M  V30 1098 H 105.548 1.88096 4.91861 0
M  V30 1099 H 108.039 1.71906 3.36536 0
M  V30 1100 H 108.352 4.06076 6.57512 0
M  V30 1101 H 106.697 3.64604 5.91683 0
M  V30 1102 H 109.888 2.20406 4.12963 0
M  V30 1103 H 110.061 3.2717 5.59342 0
M  V30 1104 N 103.467 -1.45747 0.599634 0
M  V30 1105 C 104.377 -2.34262 -0.125888 0
M  V30 1106 C 105.393 -1.50768 -0.868625 0
M  V30 1107 O 106.569 -1.83592 -0.828003 0
M  V30 1108 C 103.634 -3.28252 -1.11587 0
M  V30 1109 C 102.695 -4.27651 -0.375956 0
M  V30 1110 C 101.928 -5.1715 -1.31877 0
M  V30 1111 O 102.151 -5.09916 -2.55621 0
M  V30 1112 O 101.085 -5.96286 -0.820157 0
M  V30 1113 H 104.911 -2.97688 0.601315 0
M  V30 1114 H 102.496 -1.44999 0.359934 0
M  V30 1115 H 104.378 -3.86191 -1.68626 0
M  V30 1116 H 103.053 -2.67401 -1.82424 0
M  V30 1117 H 101.96 -3.7335 0.236698 0
M  V30 1118 H 103.293 -4.91334 0.29177 0
M  V30 1119 N 104.945 -0.338344 -1.53925 0
M  V30 1120 C 105.855 0.529421 -2.28548 0
M  V30 1121 C 106.871 1.11645 -1.3346 0
M  V30 1122 O 108.047 1.13325 -1.66492 0
M  V30 1123 C 105.112 1.66713 -3.03987 0
M  V30 1124 C 104.173 1.11041 -4.14691 0
M  V30 1125 C 103.406 2.19389 -4.86522 0
M  V30 1126 O 103.629 3.40013 -4.57982 0
M  V30 1127 O 102.563 1.83976 -5.73094 0
M  V30 1128 H 106.389 -0.0770399 -3.03602 0
M  V30 1129 H 103.974 -0.103555 -1.49041 0
M  V30 1130 H 105.856 2.32918 -3.5118 0
M  V30 1131 H 104.531 2.25949 -2.31794 0
M  V30 1132 H 103.438 0.413024 -3.71813 0
M  V30 1133 H 104.771 0.562975 -4.8897 0
M  V30 1134 N 106.423 1.57458 -0.0668435 0
M  V30 1135 C 107.353 2.15468 0.899764 0
M  V30 1136 C 108.334 1.08042 1.31381 0
M  V30 1137 O 109.519 1.36054 1.38574 0
M  V30 1138 C 106.649 2.71232 2.16911 0
M  V30 1139 C 105.603 3.83781 1.89463 0
M  V30 1140 C 104.929 4.26127 3.22986 0
M  V30 1141 C 106.229 5.08238 1.20381 0
M  V30 1142 H 107.923 2.96488 0.416529 0
M  V30 1143 H 105.469 1.4262 0.198908 0
M  V30 1144 H 107.422 3.10458 2.84945 0
M  V30 1145 H 106.146 1.87426 2.67468 0
M  V30 1146 H 104.805 3.45051 1.23836 0
M  V30 1147 H 104.453 3.39249 3.71374 0
M  V30 1148 H 104.153 5.01993 3.05413 0
M  V30 1149 H 105.677 4.67966 3.92225 0
M  V30 1150 H 107.091 5.44811 1.78475 0
M  V30 1151 H 105.488 5.89349 1.13083 0
M  V30 1152 H 106.558 4.84558 0.182153 0
M  V30 1153 N 107.901 -0.206675 1.56239 0
M  V30 1154 C 109.148 -0.928842 1.79941 0
M  V30 1155 C 109.476 -1.83734 0.638131 0
M  V30 1156 O 108.731 -1.92039 -0.376746 0
M  V30 1157 C 109.03 -1.78675 3.09532 0
M  V30 1158 C 108.696 -1.03022 4.38973 0
M  V30 1159 C 107.358 -0.821302 4.74139 0
M  V30 1160 C 109.71 -0.497081 5.18824 0
M  V30 1161 C 107.038 -0.0675719 5.86661 0
M  V30 1162 C 109.39 0.24338 6.32132 0
M  V30 1163 C 108.054 0.463422 6.65889 0
M  V30 1164 H 107.324 -0.339887 0.658451 0
M  V30 1165 H 109.971 -0.195977 1.90495 0
M  V30 1166 H 108.276 -2.58794 2.94165 0
M  V30 1167 H 109.973 -2.34792 3.25075 0
M  V30 1168 H 106.563 -1.20306 4.11369 0
M  V30 1169 H 110.747 -0.645921 4.92079 0
M  V30 1170 H 106.003 0.112995 6.11296 0
M  V30 1171 H 110.177 0.66393 6.93228 0
M  V30 1172 H 107.804 1.04938 7.52922 0
M  V30 1173 N 109.379 -1.50304 -0.473955 0
M  V30 1174 C 110.628 -1.60392 -1.22301 0
M  V30 1175 C 110.941 -0.308411 -1.93153 0
M  V30 1176 O 112.147 -0.288156 -2.69966 0
M  V30 1177 C 110.603 -2.83109 -2.2221 0
M  V30 1178 C 110.211 -4.19524 -1.57173 0
M  V30 1179 C 111.955 -3.0254 -2.97775 0
M  V30 1180 C 109.862 -5.33431 -2.55353 0
M  V30 1181 H 108.792 -0.597286 -0.460179 0
M  V30 1182 H 111.443 -1.76731 -0.493803 0
M  V30 1183 H 109.825 -2.60322 -2.9841 0
M  V30 1184 H 110.999 -4.52554 -0.867824 0
M  V30 1185 H 109.314 -4.05674 -0.939002 0
M  V30 1186 H 111.911 -3.84811 -3.71248 0
M  V30 1187 H 112.254 -2.14154 -3.56992 0
M  V30 1188 H 112.787 -3.25494 -2.28688 0
M  V30 1189 H 109.526 -6.23962 -2.00878 0
M  V30 1190 H 109.046 -5.04823 -3.23904 0
M  V30 1191 H 110.725 -5.63887 -3.17239 0
M  V30 1192 N 110.857 0.726932 -1.39834 0
M  V30 1193 C 112.103 1.48884 -1.377 0
M  V30 1194 C 112.436 1.94185 0.0244852 0
M  V30 1195 O 111.711 1.67361 0.990986 0
M  V30 1196 C 111.994 2.72288 -2.3565 0
M  V30 1197 C 111.847 2.32956 -3.84775 0
M  V30 1198 C 113.166 3.74414 -2.31306 0
M  V30 1199 H 110.285 0.540062 -0.5015 0
M  V30 1200 H 112.927 0.830547 -1.70886 0
M  V30 1201 H 111.077 3.28457 -2.07481 0
M  V30 1202 H 112.749 1.82356 -4.23726 0
M  V30 1203 H 110.992 1.65088 -4.01159 0
M  V30 1204 H 111.663 3.21362 -4.4881 0
M  V30 1205 H 114.139 3.27849 -2.56231 0
M  V30 1206 H 113.015 4.58414 -3.01907 0
M  V30 1207 H 113.276 4.21909 -1.32081 0
M  V30 1208 N 112.336 1.25143 0.95797 0
M  V30 1209 C 113.561 1.12521 1.74223 0
M  V30 1210 C 113.986 -0.317402 1.85403 0
M  V30 1211 O 113.344 -1.2299 1.33204 0
M  V30 1212 C 113.392 1.78062 3.1357 0
M  V30 1213 O 112.496 1.058 3.98598 0
M  V30 1214 H 111.837 0.39304 0.535178 0
M  V30 1215 H 114.367 1.65641 1.201 0
M  V30 1216 H 114.377 1.84213 3.64046 0
M  V30 1217 H 113.052 2.83021 3.04749 0
M  V30 1218 H 111.629 1.07506 3.57067 0
M  V30 1219 N 113.814 -1.1601 1.06675 0
M  V30 1220 C 114.761 -2.20525 0.680967 0
M  V30 1221 C 115.731 -1.62904 -0.324283 0
M  V30 1222 O 116.916 -1.89615 -0.212294 0
M  V30 1223 C 114.056 -3.45013 0.0776551 0
M  V30 1224 C 113.169 -4.16863 1.13355 0
M  V30 1225 C 112.304 -5.2888 0.49597 0
M  V30 1226 C 111.343 -5.92537 1.53513 0
M  V30 1227 N 110.48 -6.96038 0.920631 0
M  V30 1228 H 115.32 -2.52876 1.57663 0
M  V30 1229 H 112.857 -1.24199 0.788223 0
M  V30 1230 H 114.815 -4.16193 -0.289704 0
M  V30 1231 H 113.445 -3.132 -0.781393 0
M  V30 1232 H 112.497 -3.44248 1.61857 0
M  V30 1233 H 113.809 -4.60294 1.92174 0
M  V30 1234 H 112.963 -6.06653 0.0758604 0
M  V30 1235 H 111.702 -4.86622 -0.324062 0
M  V30 1236 H 110.707 -5.13482 1.9651 0
M  V30 1237 H 111.932 -6.36873 2.35733 0
M  V30 1238 H 109.878 -6.55888 0.12138 0
M  V30 1239 H 109.795 -7.3786 1.64616 0
M  V30 1240 H 111.063 -7.77725 0.525795 0
M  V30 1241 N 115.292 -0.849877 -1.32721 0
M  V30 1242 C 116.222 -0.306308 -2.31482 0
M  V30 1243 C 117.203 0.591952 -1.59468 0
M  V30 1244 O 118.388 0.513199 -1.87296 0
M  V30 1245 C 115.518 0.510204 -3.43532 0
M  V30 1246 C 114.472 -0.293209 -4.26994 0
M  V30 1247 C 113.798 0.647743 -5.30762 0
M  V30 1248 C 115.098 -1.51634 -4.99804 0
M  V30 1249 H 116.792 -1.13153 -2.77195 0
M  V30 1250 H 114.338 -0.545553 -1.33266 0
M  V30 1251 H 116.291 0.900856 -4.11658 0
M  V30 1252 H 115.015 1.36874 -2.96535 0
M  V30 1253 H 113.674 -0.665555 -3.60508 0
M  V30 1254 H 113.322 1.50299 -4.8002 0
M  V30 1255 H 113.022 0.11422 -5.87489 0
M  V30 1256 H 114.546 1.03567 -6.01753 0
M  V30 1257 H 115.96 -1.19824 -5.60638 0
M  V30 1258 H 114.357 -1.98745 -5.66234 0
M  V30 1259 H 115.427 -2.28018 -4.27943 0
M  V30 1260 N 116.77 1.45427 -0.607355 0
M  V30 1261 C 118.016 2.03097 -0.111035 0
M  V30 1262 C 118.371 1.46735 1.24445 0
M  V30 1263 O 117.664 0.632478 1.8086 0
M  V30 1264 C 117.858 3.57398 -0.0129263 0
M  V30 1265 C 117.687 4.28726 -1.35735 0
M  V30 1266 C 116.457 4.66659 -1.93798 0
M  V30 1267 C 118.655 4.60699 -2.28607 0
M  V30 1268 N 116.637 5.22845 -3.21723 0
M  V30 1269 C 118.008 5.17716 -3.41131 0
M  V30 1270 C 120.063 4.42638 -2.27982 0
M  V30 1271 C 118.766 5.58576 -4.53194 0
M  V30 1272 C 120.792 4.84531 -3.39093 0
M  V30 1273 C 120.154 5.4164 -4.50339 0
M  V30 1274 H 116.253 0.777476 -0.083994 0
M  V30 1275 H 118.837 1.77249 -0.805655 0
M  V30 1276 H 117.008 3.82907 0.650914 0
M  V30 1277 H 118.74 4.01722 0.490033 0
M  V30 1278 H 115.495 4.50207 -1.47007 0
M  V30 1279 H 115.919 5.55438 -3.87063 0
M  V30 1280 H 120.561 3.97798 -1.43235 0
M  V30 1281 H 118.279 6.02382 -5.38667 0
M  V30 1282 H 121.865 4.72289 -3.39757 0
M  V30 1283 H 120.745 5.73461 -5.34895 0
M  V30 1284 N 118.248 0.346503 1.53744 0
M  V30 1285 C 119.488 -0.249413 2.02873 0
M  V30 1286 C 119.852 -1.47532 1.22876 0
M  V30 1287 O 121.053 -2.1456 1.61918 0
M  V30 1288 C 119.324 -0.552909 3.53097 0
M  V30 1289 S 120.883 -1.12521 4.24128 0
M  V30 1290 H 117.701 -0.074042 0.707134 0
M  V30 1291 H 120.303 0.48495 1.8939 0
M  V30 1292 H 119.007 0.347083 4.0893 0
M  V30 1293 H 118.538 -1.31686 3.70705 0
M  V30 1294 H 120.553 -2.41075 4.33702 0
M  V30 1295 N 119.726 -1.57421 0.075193 0
M  V30 1296 C 120.954 -1.97946 -0.602076 0
M  V30 1297 C 121.369 -0.953674 -1.62943 0
M  V30 1298 O 120.726 0.0592551 -1.82404 0
M  V30 1299 C 120.777 -3.38546 -1.26762 0
M  V30 1300 O 120.498 -4.37195 -0.281376 0
M  V30 1301 C 121.999 -3.93966 -2.03239 0
M  V30 1302 H 119.219 -0.650918 -0.162931 0
M  V30 1303 H 121.763 -2.03959 0.148601 0
M  V30 1304 H 119.918 -3.33609 -1.96936 0
M  V30 1305 H 120.332 -5.18975 -0.759267 0
M  V30 1306 H 121.806 -4.94555 -2.45193 0
M  V30 1307 H 122.283 -3.30693 -2.8903 0
M  V30 1308 H 122.889 -4.02315 -1.37924 0
M  V30 1309 N 121.204 0.198386 -1.56346 0
M  V30 1310 C 122.434 0.934215 -1.84271 0
M  V30 1311 C 122.842 1.77496 -0.655125 0
M  V30 1312 O 122.185 1.7961 0.385488 0
M  V30 1313 C 122.247 1.88278 -3.06254 0
M  V30 1314 C 121.911 1.22431 -4.40295 0
M  V30 1315 C 122.908 0.602839 -5.16393 0
M  V30 1316 C 120.593 1.22915 -4.87029 0
M  V30 1317 C 122.587 -0.0050083 -6.374 0
M  V30 1318 C 120.274 0.617465 -6.07973 0
M  V30 1319 C 121.272 0.00146341 -6.83 0
M  V30 1320 O 120.96 -0.600642 -8.01653 0
M  V30 1321 H 120.692 0.278245 -0.616081 0
M  V30 1322 H 123.246 0.211626 -2.04307 0
M  V30 1323 H 121.476 2.64498 -2.82095 0
M  V30 1324 H 123.165 2.48612 -3.20853 0
M  V30 1325 H 123.931 0.591265 -4.81382 0
M  V30 1326 H 119.81 1.69801 -4.28589 0
M  V30 1327 H 123.354 -0.48643 -6.95902 0
M  V30 1328 H 119.251 0.62653 -6.42452 0
M  V30 1329 H 120.019 -0.497225 -8.16988 0
M  V30 1330 N 122.682 1.50554 0.465978 0
M  V30 1331 C 123.632 1.66177 1.56106 0
M  V30 1332 C 124.616 0.516265 1.52393 0
M  V30 1333 O 125.808 0.770906 1.5933 0
M  V30 1334 C 122.937 1.76396 2.94515 0
M  V30 1335 C 122.023 2.9664 3.03093 0
M  V30 1336 N 122.414 4.20245 2.81474 0
M  V30 1337 C 120.712 2.95304 3.34233 0
M  V30 1338 C 121.413 5.01259 2.95151 0
M  V30 1339 N 120.389 4.35318 3.25576 0
M  V30 1340 H 124.191 2.59434 1.38099 0
M  V30 1341 H 121.705 1.47808 0.6728 0
M  V30 1342 H 123.702 1.85694 3.73261 0
M  V30 1343 H 122.362 0.843017 3.13565 0
M  V30 1344 H 123.373 4.4966 2.56956 0
M  V30 1345 H 120.05 2.12729 3.59239 0
M  V30 1346 H 121.44 6.09564 2.82632 0
M  V30 1347 N 124.16 -0.719506 1.40217 0
M  V30 1348 C 125.07 -1.86378 1.42479 0
M  V30 1349 C 126.086 -1.71073 0.317834 0
M  V30 1350 O 127.262 -1.93406 0.561794 0
M  V30 1351 C 124.327 -3.22136 1.28178 0
M  V30 1352 C 123.388 -3.49723 2.48982 0
M  V30 1353 C 122.621 -4.79004 2.35353 0
M  V30 1354 O 122.844 -5.53821 1.36524 0
M  V30 1355 O 121.778 -5.06839 3.2465 0
M  V30 1356 H 125.604 -1.87425 2.38968 0
M  V30 1357 H 123.189 -0.869405 1.21498 0
M  V30 1358 H 125.071 -4.03234 1.22395 0
M  V30 1359 H 123.746 -3.21825 0.347934 0
M  V30 1360 H 122.653 -2.6865 2.60342 0
M  V30 1361 H 123.986 -3.54828 3.41113 0
M  V30 1362 N 125.638 -1.25649 -0.95132 0
M  V30 1363 C 126.585 -1.06323 -2.04851 0
M  V30 1364 C 127.555 0.0286491 -1.66075 0
M  V30 1365 O 128.74 -0.12917 -1.90362 0
M  V30 1366 C 125.88 -0.691529 -3.381 0
M  V30 1367 C 124.993 -1.85861 -3.89974 0
M  V30 1368 C 124.128 -1.43096 -5.11563 0
M  V30 1369 C 123.167 -2.56696 -5.55674 0
M  V30 1370 N 122.304 -2.14684 -6.68472 0
M  V30 1371 H 127.144 -2.00222 -2.20715 0
M  V30 1372 H 124.681 -0.997027 -1.08156 0
M  V30 1373 H 126.639 -0.456963 -4.1469 0
M  V30 1374 H 125.269 0.210474 -3.22113 0
M  V30 1375 H 124.321 -2.20639 -3.09875 0
M  V30 1376 H 125.633 -2.71161 -4.18657 0
M  V30 1377 H 124.787 -1.15624 -5.9558 0
M  V30 1378 H 123.526 -0.548722 -4.84603 0
M  V30 1379 H 122.531 -2.84909 -4.7022 0
M  V30 1380 H 123.756 -3.45503 -5.8464 0
M  V30 1381 H 121.702 -1.28881 -6.43215 0
M  V30 1382 H 121.619 -2.9353 -6.96689 0
M  V30 1383 H 122.887 -1.90397 -7.5589 0
M  V30 1384 N 127.117 1.15442 -1.07289 0
M  V30 1385 C 128.365 1.85845 -0.794096 0
M  V30 1386 C 128.686 1.82692 0.681809 0
M  V30 1387 O 127.956 1.26741 1.49377 0
M  V30 1388 H 126.536 0.688089 -0.290763 0
M  V30 1389 H 129.198 1.39947 -1.3565 0
M  V30 1390 H 128.294 2.91001 -1.12804 0
M  V30 1391 N 128.595 0.856903 1.32268 0
M  V30 1392 C 129.525 0.31858 2.31316 0
M  V30 1393 C 130.506 -0.583487 1.59779 0
M  V30 1394 O 131.691 -0.503259 1.87566 0
M  V30 1395 C 128.821 -0.491979 3.43798 0
M  V30 1396 C 127.775 0.315849 4.26833 0
M  V30 1397 C 127.101 -0.619586 5.31098 0
M  V30 1398 C 128.401 1.54282 4.98993 0
M  V30 1399 H 130.095 1.14621 2.76591 0
M  V30 1400 H 127.641 0.552613 1.32974 0
M  V30 1401 H 129.594 -0.879012 4.1213 0
M  V30 1402 H 128.318 -1.35299 2.97257 0
M  V30 1403 H 126.977 0.684664 3.6015 0
M  V30 1404 H 126.625 -1.47751 4.8081 0
M  V30 1405 H 126.325 -0.0830621 5.87541 0
M  V30 1406 H 127.849 -1.00375 6.02293 0
M  V30 1407 H 129.263 1.22796 5.59995 0
M  V30 1408 H 127.66 2.01745 5.65172 0
M  V30 1409 H 128.73 2.30285 4.26728 0
M  V30 1410 N 130.073 -1.45103 0.615059 0
M  V30 1411 C 131.319 -2.02483 0.113347 0
M  V30 1412 C 131.652 -1.48146 -1.25564 0
M  V30 1413 O 130.927 -0.659104 -1.82992 0
M  V30 1414 C 131.21 -3.60005 0.0825278 0
M  V30 1415 C 131.063 -4.2466 1.48271 0
M  V30 1416 C 132.382 -4.35972 -0.601401 0
M  V30 1417 H 129.501 -0.735764 0.0426632 0
M  V30 1418 H 132.143 -1.72868 0.788461 0
M  V30 1419 H 130.293 -3.85367 -0.492378 0
M  V30 1420 H 131.965 -4.10458 2.10527 0
M  V30 1421 H 130.208 -3.82772 2.04127 0
M  V30 1422 H 130.879 -5.336 1.41332 0
M  V30 1423 H 133.355 -4.15947 -0.112666 0
M  V30 1424 H 132.231 -5.45697 -0.592097 0
M  V30 1425 H 132.492 -4.09391 -1.66887 0
M  V30 1426 N 131.551 -0.354651 -1.53558 0
M  V30 1427 C 132.498 0.496968 -2.25386 0
M  V30 1428 C 133.468 1.0865 -1.25636 0
M  V30 1429 O 134.653 1.12104 -1.54394 0
M  V30 1430 C 131.793 1.63637 -3.03837 0
M  V30 1431 C 130.906 1.07307 -4.18461 0
M  V30 1432 C 130.041 2.18068 -4.84376 0
M  V30 1433 C 129.08 1.59147 -5.91049 0
M  V30 1434 N 128.217 2.63695 -6.50699 0
M  V30 1435 H 133.057 -0.122075 -2.9775 0
M  V30 1436 H 130.594 -0.0720154 -1.46924 0
M  V30 1437 H 132.552 2.30734 -3.47589 0
M  V30 1438 H 131.182 2.22623 -2.33749 0
M  V30 1439 H 130.234 0.292708 -3.79272 0
M  V30 1440 H 131.546 0.602193 -4.95152 0
M  V30 1441 H 130.7 2.93007 -5.31255 0
M  V30 1442 H 129.439 2.68504 -4.07133 0
M  V30 1443 H 128.444 0.827175 -5.43542 0
M  V30 1444 H 129.669 1.09549 -6.70206 0
M  V30 1445 H 127.615 3.13365 -5.76315 0
M  V30 1446 H 127.532 2.21263 -7.22896 0
M  V30 1447 H 128.8 3.3837 -7.02229 0
M  V30 1448 N 133.029 1.57378 -0.0835403 0
M  V30 1449 C 134.277 1.93547 0.581718 0
M  V30 1450 C 134.598 0.96524 1.69435 0
M  V30 1451 O 133.868 0.0153369 1.95894 0
M  V30 1452 H 132.448 0.714521 0.217874 0
M  V30 1453 H 135.11 1.94366 -0.144158 0
M  V30 1454 H 134.206 2.95665 0.999423 0
M  V30 1455 N 134.507 -0.190092 1.56449 0
M  V30 1456 C 135.47 -1.21925 1.9408 0
M  V30 1457 C 136.47 -1.38176 0.822431 0
M  V30 1458 O 137.66 -1.35903 1.08977 0
M  V30 1459 C 134.792 -2.58773 2.21922 0
M  V30 1460 H 135.985 -0.897464 2.86157 0
M  V30 1461 H 133.538 -0.43181 1.50217 0
M  V30 1462 H 134.273 -2.95998 1.32499 0
M  V30 1463 H 134.058 -2.48348 3.03424 0
M  V30 1464 H 135.548 -3.32978 2.52022 0
M  V30 1465 N 135.985 -1.50799 -0.457987 0
M  V30 1466 C 137.225 -1.64088 -1.21879 0
M  V30 1467 C 137.589 -0.339848 -1.88968 0
M  V30 1468 O 138.79 -0.348301 -2.66534 0
M  V30 1469 C 137.061 -2.79726 -2.2246 0
M  V30 1470 S 138.62 -3.13225 -3.07303 0
M  V30 1471 H 135.438 -0.578314 -0.41361 0
M  V30 1472 H 138.04 -1.88632 -0.513645 0
M  V30 1473 H 136.744 -3.72722 -1.71775 0
M  V30 1474 H 136.275 -2.57308 -2.97584 0
M  V30 1475 H 138.29 -2.58062 -4.23814 0
M  V30 1476 N 137.463 0.71206 -1.40597 0
M  V30 1477 C 138.395 1.83704 -1.37061 0
M  V30 1478 C 139.408 1.60453 -0.275426 0
M  V30 1479 O 140.597 1.70262 -0.53602 0
M  V30 1480 C 137.697 3.20172 -1.11099 0
M  V30 1481 C 136.87 3.7059 -2.3234 0
M  V30 1482 C 135.929 4.85681 -2.02485 0
M  V30 1483 O 134.955 4.9815 -2.75382 0
M  V30 1484 N 136.157 5.71735 -1.00497 0
M  V30 1485 H 138.922 1.87235 -2.34016 0
M  V30 1486 H 136.483 0.893739 -1.34996 0
M  V30 1487 H 138.475 3.94768 -0.891064 0
M  V30 1488 H 137.045 3.11767 -0.227989 0
M  V30 1489 H 136.265 2.87085 -2.7014 0
M  V30 1490 H 137.553 4.01011 -3.13157 0
M  V30 1491 H 136.951 5.64275 -0.401298 0
M  V30 1492 H 135.508 6.463 -0.844942 0
M  V30 1493 N 138.941 1.26152 0.944643 0
M  V30 1494 C 139.888 1.07408 2.04285 0
M  V30 1495 C 140.858 -0.0198413 1.66088 0
M  V30 1496 O 142.043 0.139264 1.90291 0
M  V30 1497 C 139.183 0.70945 3.37729 0
M  V30 1498 C 138.296 1.87926 3.88983 0
M  V30 1499 C 137.431 1.45807 5.10797 0
M  V30 1500 C 136.47 2.5964 5.54305 0
M  V30 1501 N 135.607 2.18226 6.67324 0
M  V30 1502 H 140.447 2.01389 2.1965 0
M  V30 1503 H 137.984 1.00275 1.07626 0
M  V30 1504 H 139.942 0.478948 4.14442 0
M  V30 1505 H 138.572 -0.193389 3.2222 0
M  V30 1506 H 137.624 2.22279 3.08701 0
M  V30 1507 H 138.936 2.73377 4.17213 0
M  V30 1508 H 138.09 1.18781 5.94959 0
M  V30 1509 H 136.829 0.574414 4.84305 0
M  V30 1510 H 135.834 2.87399 4.68702 0
M  V30 1511 H 137.059 3.48599 5.828 0
M  V30 1512 H 135.005 1.3229 6.42523 0
M  V30 1513 H 134.922 2.97221 6.95123 0
M  V30 1514 H 136.19 1.94403 7.54869 0
M  V30 1515 N 140.419 -1.14872 1.07899 0
M  V30 1516 C 141.647 -1.89661 0.82683 0
M  V30 1517 C 142.062 -1.78312 -0.620519 0
M  V30 1518 O 141.419 -1.13888 -1.42604 0
M  V30 1519 C 141.47 -3.39817 1.23316 0
M  V30 1520 O 141.191 -3.50845 2.62372 0
M  V30 1521 C 142.692 -4.31615 1.0111 0
M  V30 1522 H 139.912 -0.60092 0.298557 0
M  V30 1523 H 142.456 -1.4551 1.43691 0
M  V30 1524 H 140.611 -3.8161 0.667286 0
M  V30 1525 H 141.025 -4.44076 2.79101 0
M  V30 1526 H 142.499 -5.35367 1.34486 0
M  V30 1527 H 142.976 -4.39169 -0.0522168 0
M  V30 1528 H 143.582 -3.95572 1.56215 0
M  V30 1529 N 141.898 -0.863906 -1.31812 0
M  V30 1530 C 142.828 -0.330843 -2.31144 0
M  V30 1531 C 143.809 0.575005 -1.60087 0
M  V30 1532 O 144.994 0.493304 -1.8783 0
M  V30 1533 C 142.124 0.47374 -3.44054 0
M  V30 1534 C 141.078 -0.338481 -4.26659 0
M  V30 1535 C 140.404 0.591412 -5.31419 0
M  V30 1536 C 141.704 -1.56926 -4.98168 0
M  V30 1537 H 143.398 -1.16086 -2.75979 0
M  V30 1538 H 140.944 -0.559657 -1.32679 0
M  V30 1539 H 142.897 0.857143 -4.12591 0
M  V30 1540 H 141.621 1.33721 -2.9797 0
M  V30 1541 H 140.28 -0.703754 -3.59782 0
M  V30 1542 H 139.928 1.45199 -4.81587 0
M  V30 1543 H 139.628 0.0519022 -5.87577 0
M  V30 1544 H 141.152 0.97179 -6.02817 0
M  V30 1545 H 142.566 -1.25764 -5.59336 0
M  V30 1546 H 140.963 -2.04739 -5.64094 0
M  V30 1547 H 142.033 -2.32544 -4.25501 0
M  V30 1548 N 143.376 1.44774 -0.622745 0
M  V30 1549 C 144.601 2.06999 -0.128968 0
M  V30 1550 C 145.026 1.4617 1.1839 0
M  V30 1551 O 144.384 0.560007 1.72434 0
M  V30 1552 C 144.432 3.60595 -0.0188351 0
M  V30 1553 O 143.536 3.99398 1.02739 0
M  V30 1554 H 142.877 0.659047 -0.0809544 0
M  V30 1555 H 145.407 1.85784 -0.85705 0
M  V30 1556 H 145.417 4.07627 0.174476 0
M  V30 1557 H 144.092 4.04252 -0.977384 0
M  V30 1558 H 142.669 3.64011 0.809326 0
M  V30 1559 N 144.854 0.36279 1.53368 0
M  V30 1560 C 146.131 -0.284021 1.93527 0
M  V30 1561 C 146.511 -1.66628 1.29608 0
M  V30 1562 O 145.859 -2.23942 0.45413 0
M  V30 1563 C 146.069 -0.337028 3.47369 0
M  V30 1564 C 147.417 -0.578708 4.20638 0
M  V30 1565 O 148.441 -0.418352 3.53735 0
M  V30 1566 O 147.3 -0.89074 5.39192 0
M  V30 1567 H 144.394 -0.169743 0.809393 0
M  V30 1568 H 146.94 0.41537 1.64538 0
M  V30 1569 H 145.712 0.632217 3.86159 0
M  V30 1570 H 145.335 -1.08243 3.82582 0
M  V30 1571 N 146.332 -1.57332 0.0918853 0
M  V30 1572 C 147.262 -2.16872 -0.865371 0
M  V30 1573 C 148.243 -1.10118 -1.29646 0
M  V30 1574 O 149.428 -1.38242 -1.36392 0
M  V30 1575 C 146.558 -2.74649 -2.12569 0
M  V30 1576 C 145.512 -3.86747 -1.83333 0
M  V30 1577 C 144.838 -4.31212 -3.16166 0
M  V30 1578 C 146.138 -5.10089 -1.1228 0
M  V30 1579 H 147.832 -2.97114 -0.369307 0
M  V30 1580 H 145.378 -1.42918 -0.176194 0
M  V30 1581 H 147.331 -3.14952 -2.7997 0
M  V30 1582 H 146.055 -1.91657 -2.64452 0
M  V30 1583 H 144.714 -3.46978 -1.18331 0
M  V30 1584 H 144.362 -3.45115 -3.6593 0
M  V30 1585 H 144.062 -5.06788 -2.97388 0
M  V30 1586 H 145.586 -4.74146 -3.84731 0
M  V30 1587 H 147 -5.47582 -1.69785 0
M  V30 1588 H 145.397 -5.91073 -1.03693 0
M  V30 1589 H 146.467 -4.84786 -0.105041 0
M  V30 1590 N 147.81 0.181792 -1.56548 0
M  V30 1591 C 148.757 1.22521 -1.95595 0
M  V30 1592 C 149.727 1.4454 -0.818373 0
M  V30 1593 O 150.912 1.57454 -1.07763 0
M  V30 1594 C 148.052 2.56193 -2.31212 0
M  V30 1595 C 147.165 2.41641 -3.58097 0
M  V30 1596 C 146.3 3.68108 -3.82975 0
M  V30 1597 C 145.339 3.48445 -5.03242 0
M  V30 1598 N 144.476 4.66956 -5.24306 0
M  V30 1599 H 149.316 0.885226 -2.84548 0
M  V30 1600 H 146.853 0.425718 -1.40805 0
M  V30 1601 H 148.811 3.34088 -2.49882 0
M  V30 1602 H 147.441 2.88208 -1.45382 0
M  V30 1603 H 146.493 1.54976 -3.474 0
M  V30 1604 H 147.805 2.23052 -4.46149 0
M  V30 1605 H 146.959 4.54441 -4.01956 0
M  V30 1606 H 145.698 3.89666 -2.93278 0
M  V30 1607 H 144.703 2.60499 -4.8417 0
M  V30 1608 H 145.928 3.2832 -5.9446 0
M  V30 1609 H 143.874 4.88752 -4.37559 0
M  V30 1610 H 143.791 4.51242 -6.06561 0
M  V30 1611 H 145.059 5.54602 -5.47756 0
M  V30 1612 N 149.288 1.51039 0.449983 0
M  V30 1613 C 150.218 1.74379 1.55288 0
M  V30 1614 C 151.199 0.593236 1.5942 0
M  V30 1615 O 152.384 0.834625 1.7535 0
M  V30 1616 C 149.514 1.85728 2.93466 0
M  V30 1617 C 148.468 3.01078 3.04197 0
M  V30 1618 C 147.794 2.97595 4.44231 0
M  V30 1619 C 149.094 4.41254 2.7945 0
M  V30 1620 H 150.788 2.66725 1.36008 0
M  V30 1621 H 148.334 1.2835 0.652864 0
M  V30 1622 H 150.287 2.0064 3.70569 0
M  V30 1623 H 149.011 0.900207 3.13949 0
M  V30 1624 H 147.67 2.85851 2.29531 0
M  V30 1625 H 147.318 1.99691 4.61663 0
M  V30 1626 H 147.018 3.75046 4.52343 0
M  V30 1627 H 148.542 3.14583 5.23326 0
M  V30 1628 H 149.956 4.56897 3.46292 0
M  V30 1629 H 148.353 5.20315 2.98985 0
M  V30 1630 H 149.423 4.52164 1.75144 0
M  V30 1631 N 150.766 -0.704594 1.40972 0
M  V30 1632 C 152.043 -1.45847 1.30338 0
M  V30 1633 C 152.423 -2.10973 -0.0732344 0
M  V30 1634 O 151.771 -2.00997 -1.08685 0
M  V30 1635 C 151.981 -2.48525 2.45023 0
M  V30 1636 C 153.329 -3.1404 2.8577 0
M  V30 1637 O 154.353 -2.58848 2.44696 0
M  V30 1638 O 153.212 -4.13981 3.56766 0
M  V30 1639 H 150.306 -0.649092 0.512454 0
M  V30 1640 H 152.852 -0.735836 1.52917 0
M  V30 1641 H 151.624 -1.98994 3.36923 0
M  V30 1642 H 151.247 -3.2831 2.24272 0
M  V30 1643 N 152.244 -1.26651 -0.937939 0
M  V30 1644 C 153.474 -1.15006 -1.71631 0
M  V30 1645 C 153.882 0.297026 -1.86854 0
M  V30 1646 O 153.225 1.21493 -1.37786 0
M  V30 1647 C 153.287 -1.74984 -3.14039 0
M  V30 1648 C 152.951 -3.24103 -3.2219 0
M  V30 1649 C 153.948 -4.20877 -3.05219 0
M  V30 1650 C 151.633 -3.64625 -3.45476 0
M  V30 1651 C 153.627 -5.56151 -3.11408 0
M  V30 1652 C 151.314 -5.00032 -3.513 0
M  V30 1653 C 152.312 -5.95604 -3.34282 0
M  V30 1654 O 152 -7.28545 -3.3982 0
M  V30 1655 H 151.732 -0.401183 -0.544085 0
M  V30 1656 H 154.286 -1.67832 -1.18413 0
M  V30 1657 H 152.516 -1.16624 -3.68695 0
M  V30 1658 H 154.205 -1.58199 -3.73802 0
M  V30 1659 H 154.971 -3.90908 -2.87081 0
M  V30 1660 H 150.85 -2.90718 -3.57777 0
M  V30 1661 H 154.394 -6.30727 -2.98043 0
M  V30 1662 H 150.291 -5.29659 -3.68959 0
M  V30 1663 H 151.059 -7.3686 -3.56343 0
M  V30 1664 N 153.722 1.14298 -1.08507 0
M  V30 1665 C 154.652 2.21542 -0.737646 0
M  V30 1666 C 155.633 1.67773 0.280377 0
M  V30 1667 O 156.818 1.93616 0.150521 0
M  V30 1668 C 153.948 3.46988 -0.147259 0
M  V30 1669 C 152.902 4.13789 -1.09374 0
M  V30 1670 C 152.228 5.33449 -0.365524 0
M  V30 1671 C 153.528 4.62208 -2.4323 0
M  V30 1672 H 155.222 2.5086 -1.6343 0
M  V30 1673 H 152.768 1.20576 -0.787243 0
M  V30 1674 H 154.721 4.21262 0.107808 0
M  V30 1675 H 153.445 3.17037 0.784538 0
M  V30 1676 H 152.104 3.4147 -1.33393 0
M  V30 1677 H 151.752 4.99759 0.57011 0
M  V30 1678 H 151.452 5.79088 -0.996512 0
M  V30 1679 H 152.976 6.10485 -0.118534 0
M  V30 1680 H 154.39 5.27952 -2.23472 0
M  V30 1681 H 152.787 5.18553 -3.02031 0
M  V30 1682 H 153.857 3.77224 -3.04681 0
M  V30 1683 N 155.201 0.870884 1.31352 0
M  V30 1684 C 156.478 0.402907 1.91405 0
M  V30 1685 C 156.858 -1.11512 1.79244 0
M  V30 1686 O 156.206 -1.94411 1.2007 0
M  V30 1687 C 156.416 0.885301 3.37585 0
M  V30 1688 C 157.764 0.911971 4.14691 0
M  V30 1689 O 158.788 0.831016 3.46371 0
M  V30 1690 O 157.647 1.02927 5.3672 0
M  V30 1691 H 154.741 0.120698 0.818145 0
M  V30 1692 H 157.287 0.958857 1.40014 0
M  V30 1693 H 156.059 1.92889 3.40455 0
M  V30 1694 H 155.682 0.307714 3.96407 0
M  V30 1695 N 156.679 -1.44442 0.630414 0
M  V30 1696 C 157.609 -2.33418 -0.0618083 0
M  V30 1697 C 158.59 -1.48165 -0.835541 0
M  V30 1698 O 159.775 -1.76886 -0.801564 0
M  V30 1699 C 156.905 -3.31222 -1.04449 0
M  V30 1700 C 155.859 -4.26288 -0.382436 0
M  V30 1701 C 155.185 -5.13954 -1.47497 0
M  V30 1702 C 156.485 -5.1744 0.710865 0
M  V30 1703 H 158.179 -2.91548 0.681184 0
M  V30 1704 H 155.725 -1.40191 0.329026 0
M  V30 1705 H 157.678 -3.92351 -1.53748 0
M  V30 1706 H 156.402 -2.71299 -1.81836 0
M  V30 1707 H 155.061 -3.6649 0.0899054 0
M  V30 1708 H 154.709 -4.50385 -2.2397 0
M  V30 1709 H 154.409 -5.7837 -1.03737 0
M  V30 1710 H 155.933 -5.77955 -1.96979 0
M  V30 1711 H 157.347 -5.72509 0.300996 0
M  V30 1712 H 155.744 -5.90455 1.07156 0
M  V30 1713 H 156.814 -4.58496 1.57829 0
M  V30 1714 N 158.157 -0.370918 -1.53173 0
M  V30 1715 C 159.387 0.217389 -2.05453 0
M  V30 1716 C 159.795 1.42568 -1.24382 0
M  V30 1717 O 159.138 1.81571 -0.278839 0
M  V30 1718 C 159.2 0.669827 -3.53205 0
M  V30 1719 C 158.864 -0.4225 -4.55043 0
M  V30 1720 C 159.861 -1.27407 -5.04047 0
M  V30 1721 C 157.546 -0.58427 -4.9889 0
M  V30 1722 C 159.54 -2.27271 -5.95505 0
M  V30 1723 C 157.227 -1.58627 -5.90153 0
M  V30 1724 C 158.225 -2.42892 -6.38351 0
M  V30 1725 O 157.913 -3.41382 -7.27814 0
M  V30 1726 H 157.645 0.0408171 -0.674767 0
M  V30 1727 H 160.199 -0.5292 -1.98466 0
M  V30 1728 H 158.429 1.4681 -3.57748 0
M  V30 1729 H 160.118 1.18173 -3.88317 0
M  V30 1730 H 160.884 -1.16031 -4.70916 0
M  V30 1731 H 156.763 0.061851 -4.60959 0
M  V30 1732 H 160.307 -2.93079 -6.33049 0
M  V30 1733 H 156.204 -1.70048 -6.22699 0
M  V30 1734 H 156.972 -3.37173 -7.45826 0
M  V30 1735 N 159.635 1.57281 -0.100228 0
M  V30 1736 C 160.565 2.17328 0.853857 0
M  V30 1737 C 161.546 1.10804 1.2906 0
M  V30 1738 O 162.731 1.38963 1.35657 0
M  V30 1739 C 159.861 2.75772 2.11109 0
M  V30 1740 C 158.815 3.87713 1.81279 0
M  V30 1741 C 158.141 4.32882 3.13874 0
M  V30 1742 C 159.441 5.10677 1.09574 0
M  V30 1743 H 161.135 2.97305 0.353545 0
M  V30 1744 H 158.681 1.43009 0.168612 0
M  V30 1745 H 160.634 3.16433 2.78296 0
M  V30 1746 H 159.358 1.93057 2.63432 0
M  V30 1747 H 158.017 3.476 1.16489 0
M  V30 1748 H 157.665 3.47051 3.64095 0
M  V30 1749 H 157.365 5.08358 2.94696 0
M  V30 1750 H 158.889 4.7618 3.82211 0
M  V30 1751 H 160.303 5.48474 1.66879 0
M  V30 1752 H 158.7 5.91615 1.00557 0
M  V30 1753 H 159.77 4.84835 0.0793299 0
M  V30 1754 N 161.113 -0.173488 1.56642 0
M  V30 1755 C 162.362 -0.888758 1.81063 0
M  V30 1756 C 162.675 -1.83506 0.67712 0
M  V30 1757 O 163.881 -2.59254 0.806206 0
M  V30 1758 C 162.337 -1.63091 3.20826 0
M  V30 1759 C 161.945 -0.728357 4.4204 0
M  V30 1760 C 163.689 -2.33454 3.54541 0
M  V30 1761 C 161.596 -1.47062 5.72823 0
M  V30 1762 H 160.526 -0.335618 0.675186 0
M  V30 1763 H 163.177 -0.141712 1.82952 0
M  V30 1764 H 161.559 -2.42263 3.13248 0
M  V30 1765 H 162.733 0.0262449 4.60793 0
M  V30 1766 H 161.048 -0.134492 4.16183 0
M  V30 1767 H 163.645 -2.89578 4.49498 0
M  V30 1768 H 163.988 -3.08687 2.79317 0
M  V30 1769 H 164.521 -1.61227 3.63663 0
M  V30 1770 H 161.26 -0.760658 6.51072 0
M  V30 1771 H 160.78 -2.1986 5.58052 0
M  V30 1772 H 162.459 -2.01868 6.14702 0
M  V30 1773 N 162.591 -1.51276 -0.441967 0
M  V30 1774 C 163.541 -1.6864 -1.53442 0
M  V30 1775 C 164.525 -0.540444 -1.51552 0
M  V30 1776 O 165.717 -0.796157 -1.58083 0
M  V30 1777 C 162.846 -1.8106 -2.91672 0
M  V30 1778 C 161.932 -3.01424 -2.98336 0
M  V30 1779 N 162.323 -4.2467 -2.74752 0
M  V30 1780 C 160.621 -3.00584 -3.29493 0
M  V30 1781 C 161.322 -5.05891 -2.87139 0
M  V30 1782 N 160.298 -4.40442 -3.18609 0
M  V30 1783 H 164.1 -2.61598 -1.33954 0
M  V30 1784 H 161.614 -1.4886 -0.6492 0
M  V30 1785 H 163.611 -1.91609 -3.70259 0
M  V30 1786 H 162.271 -0.892795 -3.12185 0
M  V30 1787 H 163.282 -4.53691 -2.49769 0
M  V30 1788 H 159.959 -2.18417 -3.55809 0
M  V30 1789 H 161.349 -6.13983 -2.72899 0
M  V30 1790 N 164.069 0.697108 -1.41344 0
M  V30 1791 C 165.315 1.45796 -1.41828 0
M  V30 1792 C 165.67 1.92382 -0.0261743 0
M  V30 1793 O 164.963 1.66522 0.947688 0
M  V30 1794 C 165.157 2.68553 -2.35826 0
M  V30 1795 C 164.986 2.33975 -3.84039 0
M  V30 1796 C 163.756 2.24414 -4.52732 0
M  V30 1797 C 165.954 1.97048 -4.75054 0
M  V30 1798 N 163.936 1.82705 -5.86082 0
M  V30 1799 C 165.307 1.66086 -5.9734 0
M  V30 1800 C 167.362 1.83845 -4.62715 0
M  V30 1801 C 166.065 1.23246 -7.08663 0
M  V30 1802 C 168.091 1.4241 -5.73998 0
M  V30 1803 C 167.453 1.12357 -6.95381 0
M  V30 1804 H 163.552 0.530859 -0.574206 0
M  V30 1805 H 166.136 0.806674 -1.77203 0
M  V30 1806 H 164.307 3.31404 -2.02549 0
M  V30 1807 H 166.039 3.35015 -2.2704 0
M  V30 1808 H 162.794 2.4276 -4.0665 0
M  V30 1809 H 163.218 1.64337 -6.56751 0
M  V30 1810 H 167.86 2.05734 -3.69369 0
M  V30 1811 H 165.578 1.00102 -8.01876 0
M  V30 1812 H 169.164 1.32746 -5.66454 0
M  V30 1813 H 168.044 0.807795 -7.80028 0
M  V30 1814 N 165.547 1.27147 0.931209 0
M  V30 1815 C 166.958 1.12044 1.49342 0
M  V30 1816 C 167.309 -0.295795 1.93957 0
M  V30 1817 O 166.434 -1.18835 1.80852 0
M  V30 1818 C 167.029 2.02781 2.71414 0
M  V30 1819 C 165.588 1.91794 3.2387 0
M  V30 1820 C 164.735 1.95543 1.96617 0
M  V30 1821 H 167.686 1.40091 0.745672 0
M  V30 1822 H 167.707 1.58156 3.46074 0
M  V30 1823 H 167.219 3.05848 2.38911 0
M  V30 1824 H 165.32 0.916992 3.6114 0
M  V30 1825 H 165.433 2.77852 3.90302 0
M  V30 1826 H 163.797 1.39722 2.12955 0
M  V30 1827 H 164.58 3.00259 1.66432 0
M  V30 1828 N 167.025 -1.13721 1.09112 0
M  V30 1829 C 168.253 -1.88773 0.846899 0
M  V30 1830 C 168.668 -1.7896 -0.601572 0
M  V30 1831 O 168.025 -1.15394 -1.41388 0
M  V30 1832 C 168.076 -3.3849 1.26913 0
M  V30 1833 O 167.797 -3.48043 2.66079 0
M  V30 1834 C 169.298 -4.30518 1.05682 0
M  V30 1835 H 166.518 -0.59772 0.304914 0
M  V30 1836 H 169.062 -1.43977 1.45227 0
M  V30 1837 H 167.217 -3.80881 0.707723 0
M  V30 1838 H 167.631 -4.4109 2.83795 0
M  V30 1839 H 169.105 -5.3391 1.40156 0
M  V30 1840 H 169.582 -4.392 -0.00563416 0
M  V30 1841 H 170.188 -3.93893 1.60402 0
M  V30 1842 N 168.503 -0.877838 -1.30888 0
M  V30 1843 C 169.751 -0.491723 -1.96027 0
M  V30 1844 C 170.072 0.960827 -1.69685 0
M  V30 1845 O 169.342 1.67462 -1.01654 0
M  V30 1846 H 167.922 -0.17885 -0.725273 0
M  V30 1847 H 170.584 -1.11935 -1.59551 0
M  V30 1848 H 169.68 -0.656016 -3.05128 0
M  V30 1849 N 169.982 1.44106 -0.638065 0
M  V30 1850 C 171.229 2.01978 -0.14533 0
M  V30 1851 C 171.557 1.50234 1.23532 0
M  V30 1852 O 170.812 0.679548 1.83523 0
M  V30 1853 C 171.111 3.5729 -0.0887327 0
M  V30 1854 C 170.777 4.28317 -1.40909 0
M  V30 1855 C 169.439 4.47437 -1.77069 0
M  V30 1856 C 171.791 4.6867 -2.28031 0
M  V30 1857 C 169.119 5.04171 -3.00047 0
M  V30 1858 C 171.471 5.26766 -3.50286 0
M  V30 1859 C 170.135 5.44104 -3.86661 0
M  V30 1860 H 169.405 0.739089 -0.0531801 0
M  V30 1861 H 172.052 1.72781 -0.825761 0
M  V30 1862 H 170.357 3.8594 0.675095 0
M  V30 1863 H 172.054 3.99807 0.309145 0
M  V30 1864 H 168.644 4.1377 -1.1177 0
M  V30 1865 H 172.828 4.53604 -2.01388 0
M  V30 1866 H 168.084 5.15782 -3.28298 0
M  V30 1867 H 172.258 5.56983 -4.18023 0
M  V30 1868 H 169.885 5.87832 -4.82034 0
M  V30 1869 N 171.46 0.379036 1.52974 0
M  V30 1870 C 172.407 -0.461048 2.26148 0
M  V30 1871 C 173.377 -1.06637 1.27349 0
M  V30 1872 O 174.562 -1.09633 1.56157 0
M  V30 1873 C 171.702 -1.58782 3.06402 0
M  V30 1874 C 170.815 -1.00636 4.20115 0
M  V30 1875 C 169.95 -2.10334 4.87784 0
M  V30 1876 C 168.989 -1.49724 5.93506 0
M  V30 1877 N 168.126 -2.5331 6.54812 0
M  V30 1878 H 172.966 0.169429 2.97518 0
M  V30 1879 H 170.503 0.0953806 1.4679 0
M  V30 1880 H 172.461 -2.25174 3.51215 0
M  V30 1881 H 171.091 -2.18876 2.37261 0
M  V30 1882 H 170.143 -0.232332 3.7969 0
M  V30 1883 H 171.455 -0.523343 4.96047 0
M  V30 1884 H 170.609 -2.84519 5.35849 0
M  V30 1885 H 169.348 -2.61992 4.11353 0
M  V30 1886 H 168.353 -0.740598 5.44789 0
M  V30 1887 H 169.578 -0.988732 6.71864 0
M  V30 1888 H 167.524 -3.04156 5.81227 0
M  V30 1889 H 167.441 -2.09734 7.26325 0
M  V30 1890 H 168.709 -3.27155 7.07524 0
M  V30 1891 N 172.938 -1.57226 0.108567 0
M  V30 1892 C 174.349 -1.8195 -0.418464 0
M  V30 1893 C 174.7 -1.02508 -1.67292 0
M  V30 1894 O 173.825 -0.258496 -2.14851 0
M  V30 1895 C 174.42 -3.30028 -0.765979 0
M  V30 1896 C 172.979 -3.55469 -1.23769 0
M  V30 1897 C 172.126 -2.7625 -0.241106 0
M  V30 1898 H 175.077 -1.55149 0.33384 0
M  V30 1899 H 175.098 -3.44086 -1.62434 0
M  V30 1900 H 174.61 -3.87821 0.147219 0
M  V30 1901 H 172.711 -3.03022 -2.16814 0
M  V30 1902 H 172.824 -4.6408 -1.19022 0
M  V30 1903 H 171.188 -2.44133 -0.72602 0
M  V30 1904 H 171.971 -3.36797 0.665007 0
M  V30 1905 N 174.416 0.165178 -1.56732 0
M  V30 1906 C 175.664 0.879068 -1.8198 0
M  V30 1907 C 175.985 1.82514 -0.686561 0
M  V30 1908 O 175.255 1.93694 0.293146 0
M  V30 1909 H 173.835 0.327608 -0.671329 0
M  V30 1910 H 176.497 0.163526 -1.94213 0
M  V30 1911 H 175.593 1.45228 -2.76252 0
M  V30 1912 N 175.894 1.51508 0.433938 0
M  V30 1913 C 176.841 1.73068 1.52696 0
M  V30 1914 C 177.811 0.572441 1.55924 0
M  V30 1915 O 178.996 0.807253 1.72882 0
M  V30 1916 C 176.136 1.86474 2.90381 0
M  V30 1917 C 175.249 3.14037 2.96656 0
M  V30 1918 C 174.384 3.18019 4.25485 0
M  V30 1919 C 173.423 4.39882 4.2564 0
M  V30 1920 N 172.56 4.41394 5.45999 0
M  V30 1921 H 177.4 2.66366 1.33615 0
M  V30 1922 H 174.937 1.32008 0.649018 0
M  V30 1923 H 176.895 1.92229 3.70275 0
M  V30 1924 H 175.525 0.965809 3.08013 0
M  V30 1925 H 174.577 3.17575 2.09404 0
M  V30 1926 H 175.889 4.0394 2.92633 0
M  V30 1927 H 175.043 3.22708 5.13755 0
M  V30 1928 H 173.782 2.2601 4.3217 0
M  V30 1929 H 172.787 4.35366 3.35763 0
M  V30 1930 H 174.012 5.33159 4.20617 0
M  V30 1931 H 171.958 3.52258 5.53399 0
M  V30 1932 H 171.875 5.25111 5.4387 0
M  V30 1933 H 173.143 4.50281 6.36292 0
M  V30 1934 N 177.372 -0.689602 1.41712 0
M  V30 1935 C 178.282 -1.83314 1.46401 0
M  V30 1936 C 179.298 -1.7036 0.35405 0
M  V30 1937 O 180.474 -1.92171 0.602692 0
M  V30 1938 C 177.539 -3.19344 1.34982 0
M  V30 1939 C 176.6 -3.44363 2.56344 0
M  V30 1940 C 175.833 -4.73904 2.45461 0
M  V30 1941 O 176.056 -5.508 1.48241 0
M  V30 1942 O 174.99 -4.99839 3.35328 0
M  V30 1943 H 178.816 -1.82314 2.42889 0
M  V30 1944 H 176.401 -0.843438 1.23315 0
M  V30 1945 H 178.283 -4.00547 1.3092 0
M  V30 1946 H 176.958 -3.21014 0.41612 0
M  V30 1947 H 175.865 -2.63067 2.65982 0
M  V30 1948 H 177.198 -3.47512 3.48563 0
M  V30 1949 N 178.85 -1.27639 -0.924453 0
M  V30 1950 C 180.097 -1.14167 -1.67249 0
M  V30 1951 C 180.425 0.311863 -1.91984 0
M  V30 1952 O 179.68 1.24425 -1.51053 0
M  V30 1953 C 179.979 -1.87407 -3.04325 0
M  V30 1954 C 179.645 -3.37249 -2.99289 0
M  V30 1955 C 178.307 -3.7812 -2.97622 0
M  V30 1956 C 180.659 -4.32845 -2.90336 0
M  V30 1957 C 177.987 -5.12944 -2.8479 0
M  V30 1958 C 180.339 -5.6773 -2.79045 0
M  V30 1959 C 179.003 -6.07889 -2.7573 0
M  V30 1960 H 178.273 -0.417766 -0.612007 0
M  V30 1961 H 180.92 -1.58286 -1.07786 0
M  V30 1962 H 179.225 -1.35805 -3.67511 0
M  V30 1963 H 180.922 -1.74408 -3.61086 0
M  V30 1964 H 177.512 -3.04748 -3.01374 0
M  V30 1965 H 181.696 -4.02239 -2.90719 0
M  V30 1966 H 176.952 -5.432 -2.80612 0
M  V30 1967 H 181.126 -6.41472 -2.71083 0
M  V30 1968 H 178.753 -7.12314 -2.65544 0
M  V30 1969 N 180.328 1.1314 -1.09713 0
M  V30 1970 C 181.575 1.84484 -0.834987 0
M  V30 1971 C 181.903 1.83689 0.639418 0
M  V30 1972 O 181.158 1.2724 1.4869 0
M  V30 1973 C 181.457 3.32167 -1.3191 0
M  V30 1974 C 181.123 3.53139 -2.80363 0
M  V30 1975 C 179.785 3.58571 -3.20905 0
M  V30 1976 C 182.137 3.60866 -3.76065 0
M  V30 1977 C 179.465 3.69267 -4.55916 0
M  V30 1978 C 181.817 3.73089 -5.10869 0
M  V30 1979 C 180.481 3.76775 -5.50996 0
M  V30 1980 H 179.751 0.675073 -0.305544 0
M  V30 1981 H 182.398 1.33554 -1.37243 0
M  V30 1982 H 180.703 3.85469 -0.701517 0
M  V30 1983 H 182.4 3.85821 -1.09284 0
M  V30 1984 H 178.99 3.49569 -2.47991 0
M  V30 1985 H 183.174 3.55946 -3.45855 0
M  V30 1986 H 178.43 3.70388 -4.86438 0
M  V30 1987 H 182.604 3.78011 -5.84877 0
M  V30 1988 H 180.231 3.84815 -6.55608 0
M  V30 1989 N 181.806 0.884767 1.30421 0
M  V30 1990 C 183.217 0.553656 1.78302 0
M  V30 1991 C 183.568 -0.930153 1.7275 0
M  V30 1992 O 182.693 -1.72681 1.30423 0
M  V30 1993 C 183.288 0.998234 3.2376 0
M  V30 1994 C 181.847 0.71854 3.69478 0
M  V30 1995 C 180.994 1.18132 2.50879 0
M  V30 1996 H 183.945 1.06901 1.17294 0
M  V30 1997 H 183.966 0.327118 3.79091 0
M  V30 1998 H 183.478 2.0782 3.27769 0
M  V30 1999 H 181.579 -0.349444 3.70958 0
M  V30 2000 H 181.692 1.30595 4.60958 0
M  V30 2001 H 180.056 0.600669 2.47516 0
M  V30 2002 H 180.839 2.26902 2.57624 0
M  V30 2003 N 183.284 -1.43765 0.645699 0
M  V30 2004 C 184.214 -2.33471 -0.0370477 0
M  V30 2005 C 185.195 -1.49042 -0.819779 0
M  V30 2006 O 186.38 -1.77726 -0.782758 0
M  V30 2007 C 183.51 -3.32311 -1.0093 0
M  V30 2008 C 182.464 -4.2667 -0.337201 0
M  V30 2009 C 181.79 -5.1549 -1.42037 0
M  V30 2010 C 183.09 -5.16657 0.765706 0
M  V30 2011 H 184.784 -2.90809 0.712069 0
M  V30 2012 H 182.33 -1.39834 0.343876 0
M  V30 2013 H 184.283 -3.9396 -1.49578 0
M  V30 2014 H 183.007 -2.73213 -1.78948 0
M  V30 2015 H 181.666 -3.66374 0.128771 0
M  V30 2016 H 181.314 -4.52735 -2.1918 0
M  V30 2017 H 181.014 -5.79438 -0.975966 0
M  V30 2018 H 182.538 -5.80012 -1.90838 0
M  V30 2019 H 183.952 -5.72158 0.361702 0
M  V30 2020 H 182.349 -5.89286 1.13413 0
M  V30 2021 H 183.419 -4.56796 1.62683 0
M  V30 2022 N 184.763 -0.387143 -1.52771 0
M  V30 2023 C 186.04 0.253197 -1.93954 0
M  V30 2024 C 186.42 1.64545 -1.32243 0
M  V30 2025 O 185.768 2.23191 -0.489699 0
M  V30 2026 C 185.978 0.281722 -3.47861 0
M  V30 2027 C 187.326 0.511715 -4.21505 0
M  V30 2028 O 188.35 0.362023 -3.54356 0
M  V30 2029 O 187.209 0.804847 -5.40541 0
M  V30 2030 H 184.303 0.156845 -0.811991 0
M  V30 2031 H 186.849 -0.441494 -1.63856 0
M  V30 2032 H 185.621 -0.693571 -3.85104 0
M  V30 2033 H 185.244 1.02142 -3.84256 0
M  V30 2034 N 186.241 1.57166 -0.116904 0
M  V30 2035 C 187.151 2.18745 0.847812 0
M  V30 2036 C 188.167 1.163 1.29423 0
M  V30 2037 O 189.343 1.48761 1.35765 0
M  V30 2038 C 186.408 2.77307 2.0809 0
M  V30 2039 C 185.469 3.94781 1.68661 0
M  V30 2040 C 184.702 4.50541 2.86091 0
M  V30 2041 O 184.925 4.05202 4.01456 0
M  V30 2042 O 183.859 5.41256 2.63298 0
M  V30 2043 H 187.685 3.01632 0.353778 0
M  V30 2044 H 185.27 1.49005 0.108599 0
M  V30 2045 H 187.152 3.14647 2.80313 0
M  V30 2046 H 185.827 1.97452 2.56504 0
M  V30 2047 H 184.734 3.62214 0.935518 0
M  V30 2048 H 186.067 4.76065 1.24991 0
M  V30 2049 N 187.719 -0.156864 1.56817 0
M  V30 2050 C 188.944 -0.890331 1.87318 0
M  V30 2051 C 189.369 -1.74394 0.704855 0
M  V30 2052 O 188.727 -1.77972 -0.345786 0
M  V30 2053 C 188.775 -1.73102 3.16336 0
M  V30 2054 O 187.879 -2.83422 2.99576 0
M  V30 2055 H 187.22 -0.24857 0.615718 0
M  V30 2056 H 189.75 -0.150649 2.04045 0
M  V30 2057 H 189.76 -2.12803 3.48107 0
M  V30 2058 H 188.435 -1.10412 4.00976 0
M  V30 2059 H 187.012 -2.47199 2.7919 0
M  V30 2060 N 189.197 -1.51736 -0.425897 0
M  V30 2061 C 190.445 -1.64644 -1.17204 0
M  V30 2062 C 190.766 -0.370486 -1.91448 0
M  V30 2063 O 190.036 0.614088 -1.86026 0
M  V30 2064 H 188.616 -0.606819 -0.435638 0
M  V30 2065 H 191.278 -1.88713 -0.487177 0
M  V30 2066 H 190.374 -2.47958 -1.89534 0
M  V30 2067 N 190.675 0.682077 -1.42076 0
M  V30 2068 C 191.623 1.81707 -1.45208 0
M  V30 2069 C 192.617 1.66183 -0.328591 0
M  V30 2070 O 193.823 1.7288 -0.501264 0
M  V30 2071 H 190.198 0.599014 -0.454628 0
M  V30 2072 H 192.169 1.76183 -2.40836 0
M  V30 2073 C 190.918 3.19816 -1.36428 0
M  V30 2074 H 190.241 3.32385 -2.22171 0
M  V30 2075 H 191.681 3.99272 -1.42681 0
M  V30 2076 C 190.14 3.36809 -0.078191 0
M  V30 2077 O 190.67 3.92124 0.87188 0
M  V30 2078 N 188.876 2.906 0.00229266 0
M  V30 2079 H 188.423 2.45772 -0.771616 0
M  V30 2080 H 188.381 3.02347 0.862179 0
M  V30 2081 N 192.153 1.28127 0.917671 0
M  V30 2082 C 193.399 1.15223 1.66888 0
M  V30 2083 C 193.732 -0.299293 1.9188 0
M  V30 2084 O 193.007 -1.21805 1.51637 0
M  V30 2085 C 193.29 1.94706 3.02922 0
M  V30 2086 C 193.143 3.47898 2.85109 0
M  V30 2087 C 194.462 1.75939 4.03402 0
M  V30 2088 H 191.581 0.419946 0.605652 0
M  V30 2089 H 194.223 1.57398 1.06423 0
M  V30 2090 H 192.373 1.58864 3.54534 0
M  V30 2091 H 194.045 3.93624 2.40537 0
M  V30 2092 H 192.288 3.7373 2.20246 0
M  V30 2093 H 192.959 3.98765 3.81694 0
M  V30 2094 H 195.435 2.07209 3.60837 0
M  V30 2095 H 194.311 2.33931 4.96556 0
M  V30 2096 H 194.572 0.709877 4.36364 0
M  V30 2097 N 193.631 -1.12557 1.10312 0
M  V30 2098 C 194.877 -1.84311 0.846011 0
M  V30 2099 C 195.21 -1.83805 -0.626859 0
M  V30 2100 O 194.485 -1.28268 -1.46211 0
M  V30 2101 C 194.768 -3.32048 1.39341 0
M  V30 2102 C 194.621 -3.41016 2.93305 0
M  V30 2103 C 195.94 -4.27764 1.03468 0
M  V30 2104 H 193.059 -0.669192 0.30879 0
M  V30 2105 H 195.701 -1.32057 1.36605 0
M  V30 2106 H 193.851 -3.76678 0.951087 0
M  V30 2107 H 195.523 -3.05031 3.46055 0
M  V30 2108 H 193.766 -2.81603 3.29973 0
M  V30 2109 H 194.437 -4.44948 3.26689 0
M  V30 2110 H 196.913 -3.91253 1.41633 0
M  V30 2111 H 195.789 -5.29549 1.44463 0
M  V30 2112 H 196.05 -4.42064 -0.0560404 0
M  V30 2113 N 195.109 -0.891671 -1.2995 0
M  V30 2114 C 196.52 -0.563104 -1.78006 0
M  V30 2115 C 196.871 0.920978 -1.73241 0
M  V30 2116 O 195.996 1.71987 -1.31337 0
M  V30 2117 C 196.591 -1.01539 -3.23226 0
M  V30 2118 C 195.15 -0.738124 -3.69092 0
M  V30 2119 C 194.297 -1.19461 -2.50249 0
M  V30 2120 H 197.248 -1.07522 -1.16725 0
M  V30 2121 H 197.269 -0.347217 -3.78912 0
M  V30 2122 H 196.781 -2.09555 -3.26662 0
M  V30 2123 H 194.882 0.329766 -3.71138 0
M  V30 2124 H 194.995 -1.33037 -4.60259 0
M  V30 2125 H 193.359 -0.613787 -2.47194 0
M  V30 2126 H 194.142 -2.28265 -2.56417 0
M  V30 2127 N 196.587 1.43421 -0.653314 0
M  V30 2128 C 197.812 2.06678 -0.172846 0
M  V30 2129 C 198.237 1.48648 1.15262 0
M  V30 2130 O 197.595 0.596457 1.71208 0
M  V30 2131 C 197.643 3.60474 -0.0953184 0
M  V30 2132 O 196.747 4.01487 0.942442 0
M  V30 2133 H 196.088 0.657181 -0.0949155 0
M  V30 2134 H 198.618 1.83925 -0.896265 0
M  V30 2135 H 198.628 4.07905 0.0879728 0
M  V30 2136 H 197.303 4.02088 -1.06291 0
M  V30 2137 H 195.88 3.65646 0.731932 0
M  V30 2138 N 198.065 0.39524 1.52563 0
M  V30 2139 C 199.342 -0.242908 1.94086 0
M  V30 2140 C 199.722 -1.63841 1.33114 0
M  V30 2141 O 199.07 -2.22928 0.501529 0
M  V30 2142 C 199.28 -0.26327 3.48006 0
M  V30 2143 C 200.628 -0.489354 4.21771 0
M  V30 2144 O 201.652 -0.343226 3.54543 0
M  V30 2145 O 200.511 -0.776169 5.4096 0
M  V30 2146 H 197.605 -0.152536 0.812811 0
M  V30 2147 H 200.151 0.450178 1.6362 0
M  V30 2148 H 198.923 0.713985 3.84731 0
M  V30 2149 H 198.546 -1.00103 3.84792 0
M  V30 2150 N 199.544 -1.57102 0.125237 0
M  V30 2151 C 200.772 -1.99761 -0.538797 0
M  V30 2152 C 201.187 -1.00503 -1.59827 0
M  V30 2153 O 200.544 0.00119474 -1.825 0
M  V30 2154 C 200.595 -3.42408 -1.15927 0
M  V30 2155 O 200.316 -4.37869 -0.142143 0
M  V30 2156 C 201.817 -4.00232 -1.90602 0
M  V30 2157 H 199.037 -0.655772 -0.14214 0
M  V30 2158 H 201.581 -2.03383 0.213413 0
M  V30 2159 H 199.736 -3.39706 -1.86223 0
M  V30 2160 H 200.15 -5.21128 -0.593775 0
M  V30 2161 H 201.624 -5.02105 -2.29335 0
M  V30 2162 H 202.101 -3.39721 -2.78363 0
M  V30 2163 H 202.707 -4.06499 -1.25055 0
M  V30 2164 N 201.022 0.148545 -1.56898 0
M  V30 2165 C 201.97 1.20265 -1.99096 0
M  V30 2166 C 202.964 1.44559 -0.883123 0
M  V30 2167 O 204.17 1.4487 -1.0683 0
M  V30 2168 H 200.545 0.404786 -0.63376 0
M  V30 2169 H 202.516 0.82004 -2.86911 0
M  V30 2170 C 201.265 2.52886 -2.3863 0
M  V30 2171 H 200.588 2.35021 -3.23427 0
M  V30 2172 H 202.028 3.25274 -2.7198 0
M  V30 2173 C 200.487 3.13315 -1.23837 0
M  V30 2174 O 201.017 3.98077 -0.538268 0
M  V30 2175 N 199.223 2.72742 -1.00301 0
M  V30 2176 H 198.77 2.03912 -1.5741 0
M  V30 2177 H 198.728 3.13507 -0.236838 0
M  V30 2178 N 202.5 1.5196 0.417844 0
M  V30 2179 C 203.749 1.6482 1.16264 0
M  V30 2180 C 204.062 0.379886 1.91876 0
M  V30 2181 O 205.268 0.388154 2.68711 0
M  V30 2182 C 203.724 2.91161 2.1155 0
M  V30 2183 C 203.332 4.25068 1.41495 0
M  V30 2184 C 205.076 3.13383 2.86341 0
M  V30 2185 C 202.983 5.42541 2.35379 0
M  V30 2186 H 201.913 0.613954 0.437694 0
M  V30 2187 H 204.564 1.78442 0.427871 0
M  V30 2188 H 202.946 2.71218 2.88543 0
M  V30 2189 H 204.12 4.55463 0.699263 0
M  V30 2190 H 202.435 4.0888 0.787792 0
M  V30 2191 H 205.032 3.98324 3.5671 0
M  V30 2192 H 205.375 2.27256 3.48798 0
M  V30 2193 H 205.908 3.33757 2.1645 0
M  V30 2194 H 202.647 6.30987 1.77582 0
M  V30 2195 H 202.167 5.16497 3.04945 0
M  V30 2196 H 203.846 5.75272 2.96093 0
M  V30 2197 N 203.978 -0.674533 1.42435 0
M  V30 2198 C 204.908 -1.80009 1.48724 0
M  V30 2199 C 205.889 -1.6659 0.343793 0
M  V30 2200 O 207.074 -1.86007 0.558137 0
M  V30 2201 C 204.204 -3.18306 1.38919 0
M  V30 2202 C 203.158 -3.46461 2.51294 0
M  V30 2203 C 202.484 -4.84335 2.26547 0
M  V30 2204 C 203.784 -3.43328 3.93603 0
M  V30 2205 H 205.478 -1.75004 2.42928 0
M  V30 2206 H 203.024 -0.840533 1.16923 0
M  V30 2207 H 204.977 -3.9678 1.41927 0
M  V30 2208 H 203.701 -3.2399 0.412094 0
M  V30 2209 H 202.36 -2.70348 2.47604 0
M  V30 2210 H 202.008 -4.86669 1.2713 0
M  V30 2211 H 201.708 -5.04136 3.01861 0
M  V30 2212 H 203.232 -5.65094 2.31304 0
M  V30 2213 H 204.646 -4.11772 3.98894 0
M  V30 2214 H 203.043 -3.74664 4.68771 0
M  V30 2215 H 204.113 -2.41897 4.20255 0
M  V30 2216 N 205.456 -1.28612 -0.910864 0
M  V30 2217 C 206.733 -1.06632 -1.63979 0
M  V30 2218 C 207.113 0.393351 -2.07403 0
M  V30 2219 O 206.461 1.37999 -1.82122 0
M  V30 2220 C 206.671 -2.0436 -2.8291 0
M  V30 2221 C 208.019 -2.34666 -3.5386 0
M  V30 2222 O 209.043 -2.02467 -2.93062 0
M  V30 2223 O 207.902 -2.89631 -4.63439 0
M  V30 2224 H 204.996 -0.407737 -0.7195 0
M  V30 2225 H 207.542 -1.39942 -0.959914 0
M  V30 2226 H 206.314 -3.02727 -2.47936 0
M  V30 2227 H 205.937 -1.71714 -3.58609 0
M  V30 2228 N 206.934 1.1197 -1.10907 0
M  V30 2229 C 208.162 1.87402 -0.876824 0
M  V30 2230 C 208.577 1.79894 0.573025 0
M  V30 2231 O 207.934 1.17629 1.39534 0
M  V30 2232 C 207.985 3.36428 -1.32282 0
M  V30 2233 O 207.706 3.43765 -2.71582 0
M  V30 2234 C 209.207 4.28783 -1.12518 0
M  V30 2235 H 206.427 0.592793 -0.314384 0
M  V30 2236 H 208.971 1.41649 -1.47499 0
M  V30 2237 H 207.126 3.79706 -0.768229 0
M  V30 2238 H 207.54 4.3652 -2.90776 0
M  V30 2239 H 209.014 5.31613 -1.48633 0
M  V30 2240 H 209.491 4.39153 -0.0642394 0
M  V30 2241 H 210.097 3.91291 -1.66648 0
M  V30 2242 N 208.412 0.89855 1.29475 0
M  V30 2243 C 209.658 0.534065 1.96263 0
M  V30 2244 C 210.013 -0.909415 1.69551 0
M  V30 2245 O 209.306 -1.63596 0.997349 0
M  V30 2246 C 209.5 0.761398 3.49195 0
M  V30 2247 C 209.329 2.22542 3.90775 0
M  V30 2248 C 208.099 2.87264 4.15701 0
M  V30 2249 C 210.297 3.20051 4.02581 0
M  V30 2250 N 208.279 4.24121 4.4384 0
M  V30 2251 C 209.65 4.42023 4.34759 0
M  V30 2252 C 211.705 3.15657 3.85052 0
M  V30 2253 C 210.408 5.60161 4.51235 0
M  V30 2254 C 212.434 4.33078 4.02737 0
M  V30 2255 C 211.796 5.5382 4.35273 0
M  V30 2256 H 207.895 0.245013 0.742625 0
M  V30 2257 H 210.479 1.15912 1.56437 0
M  V30 2258 H 208.65 0.165732 3.88046 0
M  V30 2259 H 210.382 0.362462 4.03074 0
M  V30 2260 H 207.137 2.38064 4.09417 0
M  V30 2261 H 207.561 4.94839 4.6202 0
M  V30 2262 H 212.203 2.23396 3.58962 0
M  V30 2263 H 209.921 6.52913 4.76162 0
M  V30 2264 H 213.507 4.31163 3.90628 0
M  V30 2265 H 212.387 6.43166 4.48672 0
M  V30 2266 N 209.89 -1.43072 0.660911 0
M  V30 2267 C 210.853 -2.29194 -0.0166406 0
M  V30 2268 C 211.853 -1.42609 -0.742912 0
M  V30 2269 O 213.043 -1.64155 -0.583004 0
M  V30 2270 C 210.175 -3.24831 -1.0343 0
M  V30 2271 H 211.368 -2.90596 0.741208 0
M  V30 2272 H 208.921 -1.5048 0.422532 0
M  V30 2273 H 209.656 -2.68339 -1.82111 0
M  V30 2274 H 209.441 -3.88676 -0.517082 0
M  V30 2275 H 210.931 -3.89451 -1.50723 0
M  V30 2276 N 211.368 -0.403325 -1.52352 0
M  V30 2277 C 212.331 0.413051 -2.25447 0
M  V30 2278 C 213.331 0.978513 -1.276 0
M  V30 2279 O 214.521 0.858305 -1.51587 0
M  V30 2280 C 211.653 1.58087 -3.02029 0
M  V30 2281 H 212.846 -0.227094 -2.99039 0
M  V30 2282 H 210.399 -0.155722 -1.55522 0
M  V30 2283 H 211.134 2.25804 -2.32772 0
M  V30 2284 H 210.919 1.18195 -3.73861 0
M  V30 2285 H 212.409 2.1585 -3.57489 0
M  V30 2286 N 212.846 1.57033 -0.133567 0
M  V30 2287 C 213.779 2.11824 0.848872 0
M  V30 2288 C 214.757 1.03833 1.2513 0
M  V30 2289 O 215.941 1.31579 1.34978 0
M  V30 2290 C 213.068 2.62692 2.138 0
M  V30 2291 C 212.114 3.82705 1.88253 0
M  V30 2292 S 212.947 5.2438 1.08563 0
M  V30 2293 C 214.103 5.78627 2.38624 0
M  V30 2294 H 214.336 2.94824 0.38289 0
M  V30 2295 H 211.869 1.5419 0.0804796 0
M  V30 2296 H 213.827 2.92652 2.87863 0
M  V30 2297 H 212.488 1.79847 2.57515 0
M  V30 2298 H 211.681 4.16496 2.83809 0
M  V30 2299 H 211.283 3.53437 1.22305 0
M  V30 2300 H 213.575 5.8924 3.34369 0
M  V30 2301 H 214.518 6.76443 2.09358 0
M  V30 2302 H 214.926 5.06783 2.48658 0
M  V30 2303 N 214.325 -0.140222 1.56975 0
M  V30 2304 C 215.235 -1.19223 2.02047 0
M  V30 2305 C 216.251 -1.46612 0.937062 0
M  V30 2306 O 217.427 -1.58148 1.24704 0
M  V30 2307 C 214.492 -2.50414 2.39778 0
M  V30 2308 C 213.553 -2.30612 3.621 0
M  V30 2309 C 212.786 -3.55547 3.98023 0
M  V30 2310 O 213.009 -4.62004 3.34528 0
M  V30 2311 O 211.943 -3.47808 4.91237 0
M  V30 2312 H 215.769 -0.839559 2.91865 0
M  V30 2313 H 213.354 -0.349453 1.45256 0
M  V30 2314 H 215.236 -3.27747 2.64877 0
M  V30 2315 H 213.911 -2.85198 1.53114 0
M  V30 2316 H 212.818 -1.51207 3.4218 0
M  V30 2317 H 214.151 -2.00741 4.49404 0
M  V30 2318 N 215.803 -1.52179 -0.40978 0
M  V30 2319 C 216.713 -1.78364 -1.52392 0
M  V30 2320 C 217.729 -0.669183 -1.60617 0
M  V30 2321 O 218.905 -0.954518 -1.77344 0
M  V30 2322 C 215.97 -1.92822 -2.88133 0
M  V30 2323 C 215.031 -3.16725 -2.898 0
M  V30 2324 C 214.264 -3.30483 -4.19067 0
M  V30 2325 O 214.487 -2.49522 -5.12928 0
M  V30 2326 O 213.421 -4.2363 -4.27576 0
M  V30 2327 H 217.247 -2.72931 -1.33201 0
M  V30 2328 H 214.832 -1.37016 -0.59557 0
M  V30 2329 H 216.714 -2.04157 -3.68643 0
M  V30 2330 H 215.389 -1.01444 -3.07393 0
M  V30 2331 H 214.296 -3.10848 -2.08146 0
M  V30 2332 H 215.629 -4.07881 -2.75489 0
M  V30 2333 N 217.281 0.66697 -1.42791 0
M  V30 2334 C 218.211 1.79218 -1.49677 0
M  V30 2335 C 219.192 1.66405 -0.352623 0
M  V30 2336 O 220.377 1.85708 -0.567993 0
M  V30 2337 C 217.507 3.17565 -1.40605 0
M  V30 2338 C 216.461 3.45124 -2.53127 0
M  V30 2339 C 215.787 4.83127 -2.29112 0
M  V30 2340 C 217.087 3.41236 -3.95418 0
M  V30 2341 H 218.781 1.73713 -2.43853 0
M  V30 2342 H 216.327 0.83432 -1.17367 0
M  V30 2343 H 218.28 3.96022 -1.44029 0
M  V30 2344 H 217.004 3.23767 -0.429271 0
M  V30 2345 H 215.663 2.69031 -2.49034 0
M  V30 2346 H 215.311 4.85988 -1.29709 0
M  V30 2347 H 215.011 5.02528 -3.04531 0
M  V30 2348 H 216.535 5.63859 -2.34297 0
M  V30 2349 H 217.949 4.09651 -4.01073 0
M  V30 2350 H 216.346 3.72173 -4.70752 0
M  V30 2351 H 217.416 2.39665 -4.21532 0
M  V30 2352 N 218.759 1.29093 0.90403 0
M  V30 2353 C 220.005 1.16986 1.65656 0
M  V30 2354 C 220.338 -0.278925 1.92186 0
M  V30 2355 O 219.613 -1.2019 1.5292 0
M  V30 2356 C 219.896 1.97908 3.0084 0
M  V30 2357 C 219.749 3.50903 2.81403 0
M  V30 2358 C 221.068 1.80208 4.01513 0
M  V30 2359 H 218.187 0.426346 0.601164 0
M  V30 2360 H 220.829 1.58518 1.04747 0
M  V30 2361 H 218.979 1.62616 3.52829 0
M  V30 2362 H 220.651 3.96153 2.36348 0
M  V30 2363 H 218.894 3.76045 2.1627 0
M  V30 2364 H 219.565 4.02791 3.77443 0
M  V30 2365 H 222.041 2.11025 3.58619 0
M  V30 2366 H 220.917 2.39184 4.94047 0
M  V30 2367 H 221.178 0.756119 4.35586 0
M  V30 2368 N 220.237 -1.11381 1.11499 0
M  V30 2369 C 221.514 -1.7955 0.775965 0
M  V30 2370 C 221.894 -1.97859 -0.73588 0
M  V30 2371 O 221.242 -1.56376 -1.66609 0
M  V30 2372 C 221.452 -3.13196 1.53977 0
M  V30 2373 C 222.8 -3.88227 1.71944 0
M  V30 2374 O 223.824 -3.22887 1.50407 0
M  V30 2375 O 222.683 -5.05477 2.07738 0
M  V30 2376 H 219.777 -0.777728 0.28119 0
M  V30 2377 H 222.323 -1.18118 1.21845 0
M  V30 2378 H 221.095 -2.95229 2.56818 0
M  V30 2379 H 220.718 -3.82342 1.09088 0
M  V30 2380 N 221.715 -0.905404 -1.28997 0
M  V30 2381 C 222.625 -0.392246 -2.31298 0
M  V30 2382 C 223.641 0.515889 -1.66176 0
M  V30 2383 O 224.817 0.404093 -1.97304 0
M  V30 2384 C 221.882 0.36686 -3.44754 0
M  V30 2385 C 220.943 -0.573485 -4.25452 0
M  V30 2386 C 220.176 0.149488 -5.33491 0
M  V30 2387 O 220.399 1.37255 -5.5364 0
M  V30 2388 O 219.333 -0.510919 -5.99728 0
M  V30 2389 H 223.159 -1.2411 -2.77183 0
M  V30 2390 H 220.744 -0.669926 -1.33538 0
M  V30 2391 H 222.626 0.795907 -4.13816 0
M  V30 2392 H 221.301 1.19169 -3.00966 0
M  V30 2393 H 220.208 -1.05176 -3.59011 0
M  V30 2394 H 221.541 -1.36489 -4.72897 0
M  V30 2395 N 223.193 1.4272 -0.668489 0
M  V30 2396 C 224.441 2.01226 -0.187769 0
M  V30 2397 C 224.762 1.53092 1.2078 0
M  V30 2398 O 224.032 0.74993 1.80977 0
M  V30 2399 H 222.612 0.744041 -0.0664272 0
M  V30 2400 H 225.274 1.74723 -0.863583 0
M  V30 2401 H 224.37 3.11556 -0.184166 0
M  V30 2402 N 224.671 0.411399 1.52136 0
M  V30 2403 C 225.601 -0.404015 2.29978 0
M  V30 2404 C 226.582 -1.04412 1.34284 0
M  V30 2405 O 227.767 -1.0527 1.63192 0
M  V30 2406 C 224.897 -1.5197 3.12286 0
M  V30 2407 C 223.851 -1.00448 4.16046 0
M  V30 2408 C 223.177 -2.21393 4.86712 0
M  V30 2409 C 224.477 -0.0569336 5.22269 0
M  V30 2410 H 226.171 0.245529 2.98392 0
M  V30 2411 H 223.717 0.119525 1.43503 0
M  V30 2412 H 225.67 -2.09715 3.6551 0
M  V30 2413 H 224.394 -2.19716 2.41646 0
M  V30 2414 H 223.053 -0.449421 3.63835 0
M  V30 2415 H 222.701 -2.87699 4.12599 0
M  V30 2416 H 222.401 -1.87571 5.56858 0
M  V30 2417 H 223.925 -2.7974 5.4275 0
M  V30 2418 H 225.339 -0.54325 5.7072 0
M  V30 2419 H 223.736 0.192594 5.99791 0
M  V30 2420 H 224.806 0.887663 4.76706 0
M  V30 2421 N 226.149 -1.5696 0.141893 0
M  V30 2422 C 227.395 -1.9625 -0.511248 0
M  V30 2423 C 227.728 -1.02654 -1.64851 0
M  V30 2424 O 227.003 -0.0679676 -1.94381 0
M  V30 2425 C 227.286 -3.45285 -1.02227 0
M  V30 2426 C 227.139 -4.49658 0.113138 0
M  V30 2427 C 228.458 -3.96698 -1.90574 0
M  V30 2428 H 225.577 -0.713567 -0.184367 0
M  V30 2429 H 228.219 -1.88698 0.222087 0
M  V30 2430 H 226.369 -3.51852 -1.64719 0
M  V30 2431 H 228.041 -4.55174 0.749302 0
M  V30 2432 H 226.284 -4.26857 0.773026 0
M  V30 2433 H 226.955 -5.51258 -0.286053 0
M  V30 2434 H 229.431 -3.92578 -1.37918 0
M  V30 2435 H 228.307 -5.01453 -2.2324 0
M  V30 2436 H 228.568 -3.3875 -2.84079 0
M  V30 2437 N 227.627 0.131896 -1.57047 0
M  V30 2438 C 228.574 1.16236 -1.99393 0
M  V30 2439 C 229.544 1.41863 -0.863943 0
M  V30 2440 O 230.729 1.53946 -1.12718 0
M  V30 2441 C 227.869 2.48708 -2.39245 0
M  V30 2442 C 226.982 2.30127 -3.65603 0
M  V30 2443 C 226.117 3.55738 -3.94492 0
M  V30 2444 C 225.156 3.32259 -5.14073 0
M  V30 2445 N 224.293 4.50039 -5.38896 0
M  V30 2446 H 229.133 0.794251 -2.87221 0
M  V30 2447 H 226.67 0.380707 -1.42088 0
M  V30 2448 H 228.628 3.25969 -2.60384 0
M  V30 2449 H 227.258 2.83437 -1.54478 0
M  V30 2450 H 226.31 1.43845 -3.52154 0
M  V30 2451 H 227.622 2.08746 -4.5302 0
M  V30 2452 H 226.776 4.41423 -4.1621 0
M  V30 2453 H 225.515 3.80138 -3.05526 0
M  V30 2454 H 224.52 2.44963 -4.92212 0
M  V30 2455 H 225.745 3.09242 -6.04604 0
M  V30 2456 H 223.691 4.74584 -4.52886 0
M  V30 2457 H 223.608 4.31716 -6.2061 0
M  V30 2458 H 224.876 5.36895 -5.65123 0
M  V30 2459 N 229.106 1.52395 0.401703 0
M  V30 2460 C 230.069 1.75636 1.47257 0
M  V30 2461 C 231.069 0.62628 1.48103 0
M  V30 2462 O 232.259 0.894227 1.49497 0
M  V30 2463 C 229.391 1.84553 2.86624 0
M  V30 2464 H 230.584 2.71241 1.27938 0
M  V30 2465 H 228.137 1.42923 0.632662 0
M  V30 2466 H 228.872 0.908882 3.11303 0
M  V30 2467 H 228.657 2.66715 2.87412 0
M  V30 2468 H 230.147 2.04251 3.64241 0
M  V30 2469 N 230.584 -0.659388 1.43143 0
M  V30 2470 C 231.833 -1.41518 1.43721 0
M  V30 2471 C 232.146 -1.95499 0.0628176 0
M  V30 2472 O 233.352 -2.71446 -0.0539683 0
M  V30 2473 C 231.808 -2.5608 2.52885 0
M  V30 2474 C 231.416 -2.08733 3.96402 0
M  V30 2475 C 233.16 -3.3349 2.62649 0
M  V30 2476 C 231.067 -3.20469 4.97045 0
M  V30 2477 H 229.997 -0.531705 0.534608 0
M  V30 2478 H 232.648 -0.712343 1.69109 0
M  V30 2479 H 231.03 -3.28805 2.20688 0
M  V30 2480 H 232.204 -1.43059 4.3803 0
M  V30 2481 H 230.519 -1.44219 3.90627 0
M  V30 2482 H 233.116 -4.16734 3.35017 0
M  V30 2483 H 233.459 -3.8111 1.67513 0
M  V30 2484 H 233.992 -2.67842 2.94118 0
M  V30 2485 H 230.731 -2.77824 5.93712 0
M  V30 2486 H 230.251 -3.84874 4.60034 0
M  V30 2487 H 231.93 -3.85698 5.19467 0
M  V30 2488 N 232.062 -1.29571 -0.897171 0
M  V30 2489 C 233.31 -1.17456 -1.64464 0
M  V30 2490 C 233.631 0.273698 -1.9307 0
M  V30 2491 O 232.901 1.18684 -1.55855 0
M  V30 2492 H 231.481 -0.431706 -0.609622 0
M  V30 2493 H 234.143 -1.62531 -1.07562 0
M  V30 2494 H 233.239 -1.72648 -2.59998 0
M  V30 2495 N 233.54 1.10788 -1.12088 0
M  V30 2496 C 234.789 1.82036 -0.868659 0
M  V30 2497 C 235.102 1.85929 0.607426 0
M  V30 2498 O 236.308 2.53346 0.97613 0
M  V30 2499 C 234.764 3.26951 -1.50435 0
M  V30 2500 C 234.372 3.31367 -3.01496 0
M  V30 2501 C 236.116 4.03053 -1.33225 0
M  V30 2502 C 234.023 4.7072 -3.58017 0
M  V30 2503 H 232.953 0.682108 -0.321318 0
M  V30 2504 H 235.604 1.24618 -1.34694 0
M  V30 2505 H 233.986 3.84343 -0.953735 0
M  V30 2506 H 235.16 2.83819 -3.6302 0
M  V30 2507 H 233.475 2.6875 -3.18061 0
M  V30 2508 H 236.072 5.05981 -1.72878 0
M  V30 2509 H 236.415 4.15387 -0.275529 0
M  V30 2510 H 236.948 3.52066 -1.85188 0
M  V30 2511 H 233.687 4.63585 -4.63432 0
M  V30 2512 H 233.207 5.1865 -3.01268 0
M  V30 2513 H 234.886 5.39685 -3.56859 0
M  V30 2514 N 235.018 0.912232 1.28515 0
M  V30 2515 C 236.243 0.559774 1.99703 0
M  V30 2516 C 236.668 -0.851393 1.67729 0
M  V30 2517 O 236.026 -1.56875 0.908834 0
M  V30 2518 C 236.074 0.773874 3.52198 0
M  V30 2519 O 235.178 -0.167842 4.12058 0
M  V30 2520 H 234.519 0.21723 0.627461 0
M  V30 2521 H 237.049 1.22725 1.63706 0
M  V30 2522 H 237.059 0.683386 4.02236 0
M  V30 2523 H 235.734 1.80261 3.74805 0
M  V30 2524 H 234.311 -0.0287509 3.72889 0
M  V30 2525 N 236.496 -1.42363 0.676048 0
M  V30 2526 C 237.444 -2.32596 -0.0131507 0
M  V30 2527 C 238.438 -1.49891 -0.789238 0
M  V30 2528 O 239.644 -1.65955 -0.697061 0
M  V30 2529 H 236.019 -0.751647 -0.0230481 0
M  V30 2530 H 237.99 -2.88421 0.765243 0
M  V30 2531 C 236.739 -3.34479 -0.949702 0
M  V30 2532 H 236.062 -3.98158 -0.361938 0
M  V30 2533 H 237.502 -4.00199 -1.4006 0
M  V30 2534 C 235.961 -2.66838 -2.05667 0
M  V30 2535 O 236.491 -2.50124 -3.14326 0
M  V30 2536 N 234.697 -2.25843 -1.82875 0
M  V30 2537 H 234.244 -2.39637 -0.945085 0
M  V30 2538 H 234.202 -1.80918 -2.5713 0
M  V30 2539 N 237.974 -0.419461 -1.51915 0
M  V30 2540 C 239.221 0.152939 -2.01922 0
M  V30 2541 C 239.549 1.4426 -1.30458 0
M  V30 2542 O 238.804 1.91514 -0.402593 0
M  V30 2543 C 239.103 0.437067 -3.54717 0
M  V30 2544 C 238.769 -0.764632 -4.44369 0
M  V30 2545 C 237.431 -1.09423 -4.68594 0
M  V30 2546 C 239.783 -1.56713 -4.97082 0
M  V30 2547 C 237.111 -2.22732 -5.42777 0
M  V30 2548 C 239.463 -2.69107 -5.72507 0
M  V30 2549 C 238.127 -3.02541 -5.95 0
M  V30 2550 H 237.397 0.0559644 -0.738884 0
M  V30 2551 H 240.044 -0.562998 -1.83037 0
M  V30 2552 H 238.349 1.23469 -3.71837 0
M  V30 2553 H 240.046 0.893083 -3.90928 0
M  V30 2554 H 236.636 -0.497775 -4.257 0
M  V30 2555 H 240.82 -1.32571 -4.78266 0
M  V30 2556 H 236.076 -2.48971 -5.58411 0
M  V30 2557 H 240.25 -3.31671 -6.12346 0
M  V30 2558 H 237.877 -3.90457 -6.52264 0
M  V30 2559 N 239.452 1.56882 -0.150215 0
M  V30 2560 C 240.4 2.18214 0.805313 0
M  V30 2561 C 241.394 1.14006 1.25296 0
M  V30 2562 O 242.6 1.3225 1.22107 0
M  V30 2563 H 238.975 0.698762 0.277913 0
M  V30 2564 H 240.946 2.97231 0.263862 0
M  V30 2565 C 239.695 2.82065 2.03309 0
M  V30 2566 H 239.018 3.61968 1.69763 0
M  V30 2567 H 240.458 3.28477 2.68103 0
M  V30 2568 C 238.917 1.80739 2.84315 0
M  V30 2569 O 239.447 1.27983 3.80767 0
M  V30 2570 N 237.653 1.4997 2.48913 0
M  V30 2571 H 237.2 1.93062 1.70542 0
M  V30 2572 H 237.158 0.824217 3.03404 0
M  V30 2573 N 240.93 -0.123565 1.57115 0
M  V30 2574 C 241.88 -1.1575 1.96433 0
M  V30 2575 C 242.864 -1.37313 0.838686 0
M  V30 2576 O 244.056 -1.38482 1.10235 0
M  V30 2577 C 241.185 -2.48526 2.36833 0
M  V30 2578 C 240.271 -2.30457 3.5602 0
M  V30 2579 N 240.662 -1.8219 4.71848 0
M  V30 2580 C 238.96 -2.61129 3.61563 0
M  V30 2581 C 239.661 -1.77721 5.53886 0
M  V30 2582 N 238.637 -2.21899 4.96248 0
M  V30 2583 H 242.439 -0.776797 2.83449 0
M  V30 2584 H 239.953 -0.331364 1.58983 0
M  V30 2585 H 241.95 -3.233 2.63216 0
M  V30 2586 H 240.61 -2.87358 1.5118 0
M  V30 2587 H 241.621 -1.51805 4.95152 0
M  V30 2588 H 238.298 -3.03678 2.86507 0
M  V30 2589 H 239.688 -1.41697 6.56789 0
M  V30 2590 N 242.408 -1.52605 -0.393616 0
M  V30 2591 C 243.338 -1.80022 -1.48709 0
M  V30 2592 C 244.319 -0.651995 -1.57108 0
M  V30 2593 O 245.504 -0.89913 -1.72132 0
M  V30 2594 C 242.634 -1.96492 -2.86371 0
M  V30 2595 C 241.588 -3.12161 -2.92813 0
M  V30 2596 C 240.914 -3.13877 -4.3288 0
M  V30 2597 C 242.214 -4.51322 -2.6288 0
M  V30 2598 H 243.908 -2.71589 -1.26015 0
M  V30 2599 H 241.454 -1.30684 -0.604778 0
M  V30 2600 H 243.407 -2.14255 -3.62867 0
M  V30 2601 H 242.131 -1.01611 -3.10391 0
M  V30 2602 H 240.79 -2.94173 -2.18764 0
M  V30 2603 H 240.438 -2.16687 -4.53933 0
M  V30 2604 H 240.138 -3.91576 -4.38112 0
M  V30 2605 H 241.662 -3.33789 -5.1129 0
M  V30 2606 H 243.076 -4.69435 -3.29096 0
M  V30 2607 H 241.473 -5.31053 -2.79468 0
M  V30 2608 H 242.543 -4.58353 -1.58242 0
M  V30 2609 N 243.887 0.651787 -1.4349 0
M  V30 2610 C 244.819 1.77725 -1.44729 0
M  V30 2611 C 245.832 1.59141 -0.343231 0
M  V30 2612 O 247.021 1.67835 -0.607751 0
M  V30 2613 C 244.121 3.15172 -1.24579 0
M  V30 2614 C 243.294 3.60402 -2.47849 0
M  V30 2615 C 242.353 4.76656 -2.22902 0
M  V30 2616 O 241.379 4.86022 -2.96263 0
M  V30 2617 N 242.581 5.66958 -1.24656 0
M  V30 2618 H 245.346 1.77141 -2.41746 0
M  V30 2619 H 242.907 0.835678 -1.38665 0
M  V30 2620 H 244.899 3.90634 -1.0577 0
M  V30 2621 H 243.469 3.1052 -0.360015 0
M  V30 2622 H 242.689 2.75369 -2.82073 0
M  V30 2623 H 243.977 3.87368 -3.29884 0
M  V30 2624 H 243.375 5.62065 -0.640265 0
M  V30 2625 H 241.932 6.42135 -1.1183 0
M  V30 2626 N 245.365 1.30045 0.890287 0
M  V30 2627 C 246.611 1.18737 1.64406 0
M  V30 2628 C 246.944 -0.258525 1.92472 0
M  V30 2629 O 246.219 -1.18562 1.54186 0
M  V30 2630 C 246.502 2.01087 2.98724 0
M  V30 2631 C 246.355 3.53867 2.77665 0
M  V30 2632 C 247.674 1.84457 3.9958 0
M  V30 2633 H 244.793 0.432698 0.596608 0
M  V30 2634 H 247.435 1.5962 1.0306 0
M  V30 2635 H 245.585 1.66349 3.51084 0
M  V30 2636 H 247.257 3.98637 2.32133 0
M  V30 2637 H 245.5 3.78318 2.12269 0
M  V30 2638 H 246.171 4.06772 3.7315 0
M  V30 2639 H 248.647 2.14817 3.56361 0
M  V30 2640 H 247.523 2.44411 4.91482 0
M  V30 2641 H 247.784 0.802276 4.3476 0
M  V30 2642 N 246.843 -1.10192 1.12674 0
M  V30 2643 C 247.753 -2.20172 0.810026 0
M  V30 2644 C 248.769 -1.72821 -0.202188 0
M  V30 2645 O 249.945 -2.01369 -0.0351691 0
M  V30 2646 C 247.01 -3.45631 0.272007 0
M  V30 2647 C 246.071 -4.07704 1.34447 0
M  V30 2648 C 245.304 -5.27175 0.832029 0
M  V30 2649 O 245.527 -5.69425 -0.333284 0
M  V30 2650 O 244.461 -5.80168 1.60277 0
M  V30 2651 H 248.287 -2.49701 1.72867 0
M  V30 2652 H 245.872 -1.18977 0.903597 0
M  V30 2653 H 247.754 -4.21394 -0.0230219 0
M  V30 2654 H 246.429 -3.17723 -0.619164 0
M  V30 2655 H 245.336 -3.33614 1.6927 0
M  V30 2656 H 246.669 -4.3982 2.2095 0
M  V30 2657 N 248.321 -0.919034 -1.28029 0
M  V30 2658 C 249.254 -0.355887 -2.25408 0
M  V30 2659 C 250.232 0.542874 -1.5327 0
M  V30 2660 O 251.416 0.485338 -1.82145 0
M  V30 2661 C 248.543 0.490759 -3.35126 0
M  V30 2662 C 247.589 -0.343358 -4.25116 0
M  V30 2663 S 248.422 -1.75344 -5.05979 0
M  V30 2664 C 249.578 -0.914244 -6.19187 0
M  V30 2665 H 249.811 -1.18123 -2.72826 0
M  V30 2666 H 247.344 -0.720636 -1.36551 0
M  V30 2667 H 249.302 0.973404 -3.98792 0
M  V30 2668 H 247.963 1.29054 -2.86363 0
M  V30 2669 H 247.156 0.304266 -5.03081 0
M  V30 2670 H 246.758 -0.759851 -3.662 0
M  V30 2671 H 249.05 -0.146282 -6.77342 0
M  V30 2672 H 249.993 -1.66661 -6.88208 0
M  V30 2673 H 250.401 -0.460082 -5.62622 0
M  V30 2674 N 249.799 1.42003 -0.683588 0
M  V30 2675 C 251.048 2.00638 -0.206681 0
M  V30 2676 C 251.361 1.5472 1.19671 0
M  V30 2677 O 252.567 2.05833 1.77045 0
M  V30 2678 C 251.023 3.58487 -0.318632 0
M  V30 2679 C 250.631 4.1339 -1.72663 0
M  V30 2680 C 252.375 4.24384 0.0991141 0
M  V30 2681 C 250.282 5.63633 -1.79087 0
M  V30 2682 H 249.212 0.750408 -0.0735107 0
M  V30 2683 H 251.863 1.62624 -0.850048 0
M  V30 2684 H 250.245 3.94047 0.392781 0
M  V30 2685 H 251.419 3.89273 -2.46583 0
M  V30 2686 H 249.734 3.59976 -2.09299 0
M  V30 2687 H 252.331 5.34652 0.0713833 0
M  V30 2688 H 252.674 4.00505 1.13586 0
M  V30 2689 H 253.207 3.93816 -0.561599 0
M  V30 2690 H 249.946 5.92323 -2.80774 0
M  V30 2691 H 249.466 5.89714 -1.09535 0
M  V30 2692 H 251.145 6.28201 -1.5483 0
M  V30 2693 N 251.277 0.427512 1.51691 0
M  V30 2694 C 252.207 -0.3796 2.30394 0
M  V30 2695 C 253.188 -1.02982 1.35384 0
M  V30 2696 O 254.373 -1.03534 1.643 0
M  V30 2697 C 251.503 -1.48649 3.1388 0
M  V30 2698 C 250.457 -0.960294 4.17088 0
M  V30 2699 C 249.783 -2.16219 4.89033 0
M  V30 2700 C 251.083 -0.00153679 5.223 0
M  V30 2701 H 252.777 0.277164 2.98114 0
M  V30 2702 H 250.323 0.134739 1.43368 0
M  V30 2703 H 252.276 -2.05826 3.67714 0
M  V30 2704 H 251 -2.1714 2.43962 0
M  V30 2705 H 249.659 -0.410806 3.64291 0
M  V30 2706 H 249.307 -2.83307 4.15628 0
M  V30 2707 H 249.007 -1.81654 5.58816 0
M  V30 2708 H 250.531 -2.73968 5.45687 0
M  V30 2709 H 251.945 -0.482687 5.71264 0
M  V30 2710 H 250.342 0.256199 5.99553 0
M  V30 2711 H 251.412 0.938174 4.75738 0
M  V30 2712 N 252.755 -1.56801 0.158532 0
M  V30 2713 C 253.703 -2.18638 -0.793729 0
M  V30 2714 C 254.697 -1.14669 -1.24689 0
M  V30 2715 O 255.903 -1.32895 -1.21403 0
M  V30 2716 H 252.278 -0.700226 -0.274204 0
M  V30 2717 H 254.249 -2.97367 -0.248095 0
M  V30 2718 C 252.998 -2.83139 -2.0181 0
M  V30 2719 H 252.321 -3.62863 -1.67841 0
M  V30 2720 H 253.761 -3.29894 -2.66357 0
M  V30 2721 C 252.22 -1.82244 -2.83353 0
M  V30 2722 O 252.75 -1.3 -3.80083 0
M  V30 2723 N 250.956 -1.51288 -2.48114 0
M  V30 2724 H 250.503 -1.93964 -1.69516 0
M  V30 2725 H 250.461 -0.840296 -3.02963 0
M  V30 2726 N 254.233 0.115231 -1.57178 0
M  V30 2727 C 255.18 1.14115 -2.00615 0
M  V30 2728 C 256.15 1.40939 -0.878941 0
M  V30 2729 O 257.335 1.52741 -1.14345 0
M  V30 2730 C 254.475 2.46156 -2.4187 0
M  V30 2731 C 253.588 2.26236 -3.68024 0
M  V30 2732 C 252.723 3.51534 -3.98243 0
M  V30 2733 C 251.762 3.26787 -5.17568 0
M  V30 2734 N 250.899 4.44298 -5.43639 0
M  V30 2735 H 255.739 0.763743 -2.88047 0
M  V30 2736 H 253.276 0.365615 -1.42484 0
M  V30 2737 H 255.234 3.23189 -2.63827 0
M  V30 2738 H 253.864 2.81783 -1.57475 0
M  V30 2739 H 252.916 1.40102 -3.5366 0
M  V30 2740 H 254.228 2.03929 -4.55208 0
M  V30 2741 H 253.382 4.36984 -4.20868 0
M  V30 2742 H 252.121 3.76876 -3.09541 0
M  V30 2743 H 251.126 2.39729 -4.94783 0
M  V30 2744 H 252.351 3.02812 -6.0785 0
M  V30 2745 H 250.297 4.69754 -4.57895 0
M  V30 2746 H 250.214 4.25109 -6.25154 0
M  V30 2747 H 251.482 5.3087 -5.70786 0
M  V30 2748 N 255.711 1.52812 0.385517 0
M  V30 2749 C 257.122 1.5993 0.963293 0
M  V30 2750 C 257.473 0.454302 1.90868 0
M  V30 2751 O 256.598 -0.422132 2.12243 0
M  V30 2752 C 257.193 2.89871 1.75387 0
M  V30 2753 C 255.752 2.99389 2.28129 0
M  V30 2754 C 254.899 2.55071 1.08783 0
M  V30 2755 H 257.85 1.5784 0.164948 0
M  V30 2756 H 257.871 2.76553 2.61341 0
M  V30 2757 H 257.383 3.73186 1.06554 0
M  V30 2758 H 255.484 2.20619 3.00263 0
M  V30 2759 H 255.597 4.04096 2.57377 0
M  V30 2760 H 253.961 2.09473 1.4489 0
M  V30 2761 H 254.744 3.40785 0.414807 0
M  V30 2762 N 257.189 -0.644168 1.43834 0
M  V30 2763 C 258.437 -1.40117 1.45642 0
M  V30 2764 C 258.758 -1.94814 0.0852413 0
M  V30 2765 O 258.028 -1.74988 -0.880688 0
M  V30 2766 H 256.608 -0.52005 0.536243 0
M  V30 2767 H 259.27 -0.7591 1.7951 0
M  V30 2768 H 258.366 -2.23902 2.17427 0
M  V30 2769 N 258.668 -1.30515 -0.883378 0
M  V30 2770 C 259.598 -1.19607 -2.00541 0
M  V30 2771 C 260.579 -0.086346 -1.69881 0
M  V30 2772 O 261.764 -0.268654 -1.92333 0
M  V30 2773 C 258.894 -0.888758 -3.35736 0
M  V30 2774 C 257.848 -1.95659 -3.8066 0
M  V30 2775 C 257.174 -1.50224 -5.13164 0
M  V30 2776 C 258.474 -3.36788 -3.99213 0
M  V30 2777 H 260.168 -2.13476 -2.09925 0
M  V30 2778 H 257.714 -1.02775 -1.00863 0
M  V30 2779 H 259.667 -0.799094 -4.13754 0
M  V30 2780 H 258.391 0.0856125 -3.26488 0
M  V30 2781 H 257.05 -2.03591 -3.04871 0
M  V30 2782 H 256.698 -0.516092 -5.00345 0
M  V30 2783 H 256.398 -2.2165 -5.44192 0
M  V30 2784 H 257.922 -1.42639 -5.93706 0
M  V30 2785 H 259.336 -3.31605 -4.67665 0
M  V30 2786 H 257.733 -4.06314 -4.41621 0
M  V30 2787 H 258.803 -3.78561 -3.03017 0
M  V30 2788 N 260.146 1.09593 -1.13257 0
M  V30 2789 C 261.093 2.1618 -0.808381 0
M  V30 2790 C 262.063 1.64517 0.228754 0
M  V30 2791 O 263.248 1.9053 0.101381 0
M  V30 2792 C 260.388 3.43973 -0.278675 0
M  V30 2793 C 259.501 4.09545 -1.37466 0
M  V30 2794 C 258.636 5.25088 -0.803479 0
M  V30 2795 C 257.675 5.82579 -1.87799 0
M  V30 2796 N 256.812 6.89486 -1.32488 0
M  V30 2797 H 261.652 2.43254 -1.72138 0
M  V30 2798 H 259.189 1.19392 -0.859294 0
M  V30 2799 H 261.147 4.17174 0.0465583 0
M  V30 2800 H 259.777 3.17223 0.597459 0
M  V30 2801 H 258.829 3.34226 -1.81652 0
M  V30 2802 H 260.141 4.48307 -2.18684 0
M  V30 2803 H 259.295 6.05178 -0.429427 0
M  V30 2804 H 258.034 4.87684 0.0397956 0
M  V30 2805 H 257.039 5.01152 -2.26113 0
M  V30 2806 H 258.264 6.22045 -2.72463 0
M  V30 2807 H 256.21 6.54064 -0.503575 0
M  V30 2808 H 256.127 7.27007 -2.07355 0
M  V30 2809 H 257.395 7.73336 -0.978336 0
M  V30 2810 N 261.624 0.925811 1.2754 0
M  V30 2811 C 262.854 0.580666 1.98272 0
M  V30 2812 C 263.262 -0.845207 1.69272 0
M  V30 2813 O 262.605 -1.57306 0.948707 0
M  V30 2814 C 262.667 0.724418 3.52126 0
M  V30 2815 C 262.331 2.12206 4.04744 0
M  V30 2816 C 263.328 3.09604 4.17662 0
M  V30 2817 C 261.013 2.4385 4.39138 0
M  V30 2818 C 263.007 4.36755 4.64246 0
M  V30 2819 C 260.694 3.71237 4.85414 0
M  V30 2820 C 261.692 4.67503 4.97926 0
M  V30 2821 O 261.38 5.92624 5.43187 0
M  V30 2822 H 261.112 0.218987 0.639547 0
M  V30 2823 H 263.666 1.24452 1.63404 0
M  V30 2824 H 261.896 0.0034663 3.867 0
M  V30 2825 H 263.585 0.384607 4.04074 0
M  V30 2826 H 264.351 2.86478 3.91351 0
M  V30 2827 H 260.23 1.69665 4.28643 0
M  V30 2828 H 263.774 5.11898 4.73927 0
M  V30 2829 H 259.671 3.94182 5.11166 0
M  V30 2830 H 260.439 5.95585 5.61445 0
M  V30 2831 N 263.102 -1.41638 0.69111 0
M  V30 2832 C 264.049 -2.30789 0.0229705 0
M  V30 2833 C 265.019 -1.46863 -0.775911 0
M  V30 2834 O 266.204 -1.75661 -0.74485 0
M  V30 2835 C 263.344 -3.32868 -0.910666 0
M  V30 2836 C 262.457 -4.31875 -0.103874 0
M  V30 2837 C 261.592 -5.21024 -1.03475 0
M  V30 2838 C 260.631 -6.11702 -0.220598 0
M  V30 2839 N 259.768 -6.93349 -1.10504 0
M  V30 2840 H 264.608 -2.87366 0.788978 0
M  V30 2841 H 262.145 -1.41535 0.400794 0
M  V30 2842 H 264.103 -3.90596 -1.46597 0
M  V30 2843 H 262.733 -2.77851 -1.64312 0
M  V30 2844 H 261.785 -3.76131 0.568285 0
M  V30 2845 H 263.097 -4.96003 0.527504 0
M  V30 2846 H 262.251 -5.83565 -1.65943 0
M  V30 2847 H 260.99 -4.57112 -1.69999 0
M  V30 2848 H 259.995 -5.48215 0.417187 0
M  V30 2849 H 261.22 -6.77668 0.440784 0
M  V30 2850 H 259.166 -6.3205 -1.75638 0
M  V30 2851 H 259.083 -7.54146 -0.529125 0
M  V30 2852 H 260.351 -7.60362 -1.71667 0
M  V30 2853 N 264.58 -0.43555 -1.51462 0
M  V30 2854 C 265.991 0.0279871 -1.86679 0
M  V30 2855 C 266.342 1.42104 -1.35281 0
M  V30 2856 O 265.467 2.04667 -0.702878 0
M  V30 2857 C 266.062 0.0575626 -3.38751 0
M  V30 2858 C 264.621 0.465507 -3.7351 0
M  V30 2859 C 263.768 -0.342996 -2.75171 0
M  V30 2860 H 266.719 -0.651473 -1.44712 0
M  V30 2861 H 266.74 0.867421 -3.70481 0
M  V30 2862 H 266.252 -0.956448 -3.7613 0
M  V30 2863 H 264.353 1.48519 -3.41721 0
M  V30 2864 H 264.466 0.191546 -4.78717 0
M  V30 2865 H 262.83 0.198442 -2.53926 0
M  V30 2866 H 263.613 -1.35585 -3.15391 0
M  V30 2867 N 266.058 1.56714 -0.166846 0
M  V30 2868 C 267.021 2.16539 0.751232 0
M  V30 2869 C 268.021 1.11228 1.16125 0
M  V30 2870 O 269.211 1.36765 1.07894 0
M  V30 2871 C 266.343 2.74462 2.02196 0
M  V30 2872 H 267.536 2.99013 0.230499 0
M  V30 2873 H 265.089 1.56081 0.0826982 0
M  V30 2874 H 265.824 1.95709 2.58589 0
M  V30 2875 H 265.609 3.51527 1.73698 0
M  V30 2876 H 267.099 3.20489 2.67725 0
M  V30 2877 N 267.536 -0.106894 1.57237 0
M  V30 2878 C 268.782 -0.81373 1.85759 0
M  V30 2879 C 269.115 -1.78952 0.754315 0
M  V30 2880 O 268.39 -1.93029 -0.23879 0
M  V30 2881 C 268.673 -1.55293 3.24894 0
M  V30 2882 C 268.526 -0.595929 4.45835 0
M  V30 2883 C 269.845 -2.5063 3.61763 0
M  V30 2884 H 266.964 -0.294369 0.67566 0
M  V30 2885 H 269.606 -0.0776472 1.89841 0
M  V30 2886 H 267.756 -2.1804 3.21544 0
M  V30 2887 H 269.428 0.0236262 4.61294 0
M  V30 2888 H 267.671 0.0916191 4.33703 0
M  V30 2889 H 268.342 -1.15004 5.39887 0
M  V30 2890 H 270.818 -1.97982 3.65981 0
M  V30 2891 H 269.694 -2.99376 4.60071 0
M  V30 2892 H 269.955 -3.3385 2.89821 0
M  V30 2893 N 269.014 -1.53014 -0.377408 0
M  V30 2894 C 269.962 -1.7927 -1.48206 0
M  V30 2895 C 270.956 -0.661195 -1.55963 0
M  V30 2896 O 272.162 -0.843908 -1.58991 0
M  V30 2897 H 268.537 -0.567425 -0.493491 0
M  V30 2898 H 270.508 -2.71753 -1.2326 0
M  V30 2899 C 269.257 -1.98894 -2.85196 0
M  V30 2900 H 268.58 -2.85395 -2.79981 0
M  V30 2901 H 270.02 -2.21249 -3.61698 0
M  V30 2902 C 268.479 -0.764691 -3.28107 0
M  V30 2903 O 269.009 0.0523226 -4.01666 0
M  V30 2904 N 267.215 -0.591493 -2.84517 0
M  V30 2905 H 266.762 -1.25749 -2.24822 0
M  V30 2906 H 266.72 0.226253 -3.13585 0
M  V30 2907 N 270.492 0.636531 -1.44174 0
M  V30 2908 C 271.424 1.7618 -1.46606 0
M  V30 2909 C 272.437 1.58768 -0.360091 0
M  V30 2910 O 273.626 1.67181 -0.625518 0
M  V30 2911 C 270.726 3.13833 -1.27915 0
M  V30 2912 C 269.899 3.57753 -2.51658 0
M  V30 2913 C 268.958 4.74265 -2.27945 0
M  V30 2914 O 267.984 4.82852 -3.01401 0
M  V30 2915 N 269.186 5.65604 -1.30662 0
M  V30 2916 H 271.951 1.74567 -2.43612 0
M  V30 2917 H 269.512 0.820924 -1.39544 0
M  V30 2918 H 271.504 3.8949 -1.09907 0
M  V30 2919 H 270.074 3.10121 -0.39293 0
M  V30 2920 H 269.294 2.72362 -2.84978 0
M  V30 2921 H 270.582 3.83847 -3.33974 0
M  V30 2922 H 269.98 5.61354 -0.699844 0
M  V30 2923 H 268.537 6.40913 -1.18634 0
M  V30 2924 N 271.97 1.30982 0.876444 0
M  V30 2925 C 273.219 1.19658 1.62373 0
M  V30 2926 C 273.532 -0.245636 1.94052 0
M  V30 2927 O 274.738 -0.48049 2.67214 0
M  V30 2928 C 273.194 2.09433 2.92687 0
M  V30 2929 C 272.802 3.58613 2.68516 0
M  V30 2930 C 274.546 2.06893 3.70669 0
M  V30 2931 C 272.453 4.40416 3.94699 0
M  V30 2932 H 271.383 0.444268 0.609214 0
M  V30 2933 H 274.034 1.55791 0.969605 0
M  V30 2934 H 272.416 1.66191 3.59439 0
M  V30 2935 H 273.59 4.10058 2.10212 0
M  V30 2936 H 271.905 3.63063 2.03898 0
M  V30 2937 H 274.502 2.65258 4.64265 0
M  V30 2938 H 274.845 1.05448 4.02724 0
M  V30 2939 H 275.378 2.48301 3.10792 0
M  V30 2940 H 272.117 5.42591 3.67798 0
M  V30 2941 H 271.637 3.93731 4.52477 0
M  V30 2942 H 273.316 4.52294 4.62644 0
M  V30 2943 N 273.449 -1.08991 1.13837 0
M  V30 2944 C 274.359 -2.19301 0.833333 0
M  V30 2945 C 275.375 -1.73026 -0.183847 0
M  V30 2946 O 276.551 -2.01395 -0.0138092 0
M  V30 2947 C 273.616 -3.45323 0.308651 0
M  V30 2948 C 272.677 -4.06255 1.38764 0
M  V30 2949 C 271.91 -5.26262 0.887896 0
M  V30 2950 O 272.133 -5.69747 -0.27287 0
M  V30 2951 O 271.067 -5.78435 1.66421 0
M  V30 2952 H 274.893 -2.47854 1.75506 0
M  V30 2953 H 272.478 -1.18012 0.916166 0
M  V30 2954 H 274.36 -4.21394 0.0216739 0
M  V30 2955 H 273.035 -3.18362 -0.585431 0
M  V30 2956 H 271.942 -3.318 1.72799 0
M  V30 2957 H 273.275 -4.37452 2.25602 0
M  V30 2958 N 274.927 -0.932562 -1.27047 0
M  V30 2959 C 276.167 -0.582919 -1.95912 0
M  V30 2960 C 276.531 0.860629 -1.71631 0
M  V30 2961 O 277.732 1.31878 -2.34225 0
M  V30 2962 C 276.003 -0.905673 -3.45734 0
M  V30 2963 S 277.562 -0.665277 -4.33727 0
M  V30 2964 H 274.38 -0.215 -0.677714 0
M  V30 2965 H 276.982 -1.20204 -1.54179 0
M  V30 2966 H 275.686 -1.95386 -3.60905 0
M  V30 2967 H 275.217 -0.275939 -3.92431 0
M  V30 2968 H 277.232 0.474635 -4.93925 0
M  V30 2969 N 276.405 1.4127 -0.698611 0
M  V30 2970 C 277.355 2.27997 -0.0119836 0
M  V30 2971 C 278.339 1.42363 0.749765 0
M  V30 2972 O 279.531 1.65607 0.624758 0
M  V30 2973 C 276.66 3.30702 0.921458 0
M  V30 2974 C 275.746 4.23814 0.155796 0
M  V30 2975 N 276.137 4.98572 -0.852015 0
M  V30 2976 C 274.435 4.44284 0.390836 0
M  V30 2977 C 275.136 5.66744 -1.3106 0
M  V30 2978 N 274.112 5.39867 -0.635944 0
M  V30 2979 H 277.914 2.83232 -0.784649 0
M  V30 2980 H 275.428 1.53518 -0.529711 0
M  V30 2981 H 277.425 3.91661 1.42854 0
M  V30 2982 H 276.085 2.77028 1.69369 0
M  V30 2983 H 277.096 5.03024 -1.23235 0
M  V30 2984 H 273.773 4.01614 1.14071 0
M  V30 2985 H 275.163 6.36672 -2.14707 0
M  V30 2986 N 277.883 0.443576 1.51229 0
M  V30 2987 C 279.294 -0.0180867 1.86691 0
M  V30 2988 C 279.645 -1.41384 1.36033 0
M  V30 2989 O 278.77 -2.04291 0.713722 0
M  V30 2990 C 279.365 -0.039597 3.38777 0
M  V30 2991 C 277.924 -0.445692 3.73752 0
M  V30 2992 C 277.071 0.357584 2.74985 0
M  V30 2993 H 280.022 0.659138 1.44364 0
M  V30 2994 H 280.043 -0.847761 3.70936 0
M  V30 2995 H 279.555 0.976382 3.75617 0
M  V30 2996 H 277.656 -1.46704 3.42503 0
M  V30 2997 H 277.769 -0.166155 4.78812 0
M  V30 2998 H 276.133 -0.184973 2.54027 0
M  V30 2999 H 276.916 1.37256 3.14668 0
M  V30 3000 N 279.361 -1.56624 0.175154 0
M  V30 3001 C 280.591 -2.01082 -0.474283 0
M  V30 3002 C 280.999 -1.05447 -1.57091 0
M  V30 3003 O 280.342 -0.0480595 -1.83637 0
M  V30 3004 C 280.404 -3.41963 -1.10911 0
M  V30 3005 C 280.068 -4.56742 -0.153666 0
M  V30 3006 C 281.065 -5.16076 0.629448 0
M  V30 3007 C 278.75 -5.02277 -0.0483776 0
M  V30 3008 C 280.744 -6.19377 1.50501 0
M  V30 3009 C 278.431 -6.05427 0.830768 0
M  V30 3010 C 279.429 -6.63849 1.60605 0
M  V30 3011 O 279.117 -7.64998 2.47049 0
M  V30 3012 H 278.849 -0.664261 -0.125432 0
M  V30 3013 H 281.403 -2.03549 0.275163 0
M  V30 3014 H 279.633 -3.36422 -1.90676 0
M  V30 3015 H 281.322 -3.70352 -1.66114 0
M  V30 3016 H 282.088 -4.81776 0.558297 0
M  V30 3017 H 277.967 -4.56513 -0.641611 0
M  V30 3018 H 281.511 -6.64906 2.1106 0
M  V30 3019 H 277.408 -6.39151 0.903107 0
M  V30 3020 H 278.176 -7.82336 2.40607 0
M  V30 3021 N 280.839 0.0985539 -1.57292 0
M  V30 3022 C 281.769 1.12064 -2.04851 0
M  V30 3023 C 282.75 1.41981 -0.936767 0
M  V30 3024 O 283.935 1.52071 -1.20781 0
M  V30 3025 C 281.065 2.44144 -2.47004 0
M  V30 3026 C 280.019 2.28643 -3.6181 0
M  V30 3027 C 279.345 3.65869 -3.89929 0
M  V30 3028 C 280.645 1.72986 -4.92822 0
M  V30 3029 H 282.339 0.724979 -2.9049 0
M  V30 3030 H 279.885 0.34729 -1.39749 0
M  V30 3031 H 281.838 3.15914 -2.78884 0
M  V30 3032 H 280.562 2.85639 -1.5836 0
M  V30 3033 H 279.221 1.59318 -3.30172 0
M  V30 3034 H 278.869 4.04885 -2.98458 0
M  V30 3035 H 278.569 3.56344 -4.67218 0
M  V30 3036 H 280.093 4.39112 -4.2428 0
M  V30 3037 H 281.507 2.34593 -5.23105 0
M  V30 3038 H 279.904 1.74229 -5.74251 0
M  V30 3039 H 280.974 0.689007 -4.7998 0
M  V30 3040 N 282.317 1.53212 0.369288 0
M  V30 3041 C 283.545 1.73119 1.13303 0
M  V30 3042 C 283.96 0.458455 1.83149 0
M  V30 3043 O 283.317 -0.568403 1.73423 0
M  V30 3044 C 283.368 2.89413 2.16616 0
M  V30 3045 O 283.089 4.11761 1.49614 0
M  V30 3046 C 284.59 3.21161 3.05566 0
M  V30 3047 H 281.81 0.579107 0.338934 0
M  V30 3048 H 284.354 1.99942 0.429338 0
M  V30 3049 H 282.509 2.64994 2.82589 0
M  V30 3050 H 282.923 4.76858 2.18419 0
M  V30 3051 H 284.397 4.05949 3.74045 0
M  V30 3052 H 284.874 2.36369 3.70171 0
M  V30 3053 H 285.48 3.47492 2.45213 0
M  V30 3054 N 283.795 -0.628877 1.44509 0
M  V30 3055 C 284.727 -1.754 1.47538 0
M  V30 3056 C 285.74 -1.58575 0.368506 0
M  V30 3057 O 286.929 -1.66847 0.634376 0
M  V30 3058 C 284.029 -3.1315 1.29577 0
M  V30 3059 C 283.202 -3.56413 2.53551 0
M  V30 3060 C 282.261 -4.7305 2.30457 0
M  V30 3061 O 281.287 -4.81247 3.03957 0
M  V30 3062 N 282.489 -5.64903 1.3366 0
M  V30 3063 H 285.254 -1.73272 2.44534 0
M  V30 3064 H 282.815 -0.813512 1.39977 0
M  V30 3065 H 284.807 -3.88902 1.11971 0
M  V30 3066 H 283.377 -3.09908 0.409371 0
M  V30 3067 H 282.597 -2.70847 2.86419 0
M  V30 3068 H 283.885 -3.82071 3.36005 0
M  V30 3069 H 283.283 -5.60975 0.729604 0
M  V30 3070 H 281.84 -6.40275 1.22032 0
M  V30 3071 N 285.273 -1.31445 -0.869486 0
M  V30 3072 C 286.183 -1.21097 -2.0093 0
M  V30 3073 C 287.199 -0.127584 -1.73532 0
M  V30 3074 O 288.375 -0.345477 -1.98415 0
M  V30 3075 C 285.44 -0.919378 -3.34288 0
M  V30 3076 C 284.501 -2.08971 -3.75006 0
M  V30 3077 C 283.734 -1.81194 -5.02001 0
M  V30 3078 O 283.957 -0.747296 -5.65484 0
M  V30 3079 O 282.891 -2.66883 -5.39497 0
M  V30 3080 H 286.717 -2.16883 -2.12592 0
M  V30 3081 H 284.302 -1.11189 -0.997868 0
M  V30 3082 H 286.184 -0.772625 -4.14257 0
M  V30 3083 H 284.859 0.00844772 -3.23699 0
M  V30 3084 H 283.766 -2.29187 -2.95676 0
M  V30 3085 H 285.099 -2.9998 -3.90221 0
M  V30 3086 N 286.751 1.08385 -1.14413 0
M  V30 3087 C 287.698 2.15311 -0.831265 0
M  V30 3088 C 288.668 1.64751 0.211292 0
M  V30 3089 O 289.853 1.90627 0.0811674 0
M  V30 3090 C 286.993 3.43658 -0.315143 0
M  V30 3091 C 286.106 4.08064 -1.41802 0
M  V30 3092 C 285.241 5.24207 -0.859126 0
M  V30 3093 C 284.28 5.80554 -1.93967 0
M  V30 3094 N 283.417 6.88042 -1.39793 0
M  V30 3095 H 288.257 2.41415 -1.74708 0
M  V30 3096 H 285.794 1.18474 -0.871909 0
M  V30 3097 H 287.752 4.172 0.00230884 0
M  V30 3098 H 286.382 3.17839 0.56378 0
M  V30 3099 H 285.434 3.3228 -1.85187 0
M  V30 3100 H 286.746 4.45962 -2.23427 0
M  V30 3101 H 285.9 6.04689 -0.49359 0
M  V30 3102 H 284.639 4.87699 -0.011932 0
M  V30 3103 H 283.644 4.98725 -2.31415 0
M  V30 3104 H 284.869 6.19121 -2.79046 0
M  V30 3105 H 282.815 6.53493 -0.572919 0
M  V30 3106 H 282.732 7.24767 -2.15054 0
M  V30 3107 H 284 7.72255 -1.0603 0
M  V30 3108 N 288.23 0.939286 1.26551 0
M  V30 3109 C 289.16 0.465044 2.28822 0
M  V30 3110 C 290.141 -0.480692 1.63167 0
M  V30 3111 O 291.326 -0.382955 1.90387 0
M  V30 3112 C 288.456 -0.27234 3.46231 0
M  V30 3113 C 287.41 0.58666 4.2396 0
M  V30 3114 C 286.736 -0.280573 5.33963 0
M  V30 3115 C 288.036 1.85704 4.88171 0
M  V30 3116 H 289.73 1.31979 2.68741 0
M  V30 3117 H 287.276 0.636061 1.29191 0
M  V30 3118 H 289.229 -0.615133 4.16886 0
M  V30 3119 H 287.953 -1.16121 3.0526 0
M  V30 3120 H 286.612 0.91232 3.55067 0
M  V30 3121 H 286.26 -1.16874 4.89234 0
M  V30 3122 H 285.96 0.29076 5.8688 0
M  V30 3123 H 287.484 -0.618678 6.07458 0
M  V30 3124 H 288.898 1.58161 5.51052 0
M  V30 3125 H 287.295 2.37279 5.51197 0
M  V30 3126 H 288.365 2.56957 4.11219 0
M  V30 3127 N 289.708 -1.40897 0.706093 0
M  V30 3128 C 290.957 -2.00284 0.238574 0
M  V30 3129 C 291.27 -1.56604 -1.17194 0
M  V30 3130 O 292.476 -2.08624 -1.73748 0
M  V30 3131 C 290.932 -3.57934 0.375623 0
M  V30 3132 C 290.54 -4.10591 1.79217 0
M  V30 3133 C 292.284 -4.24488 -0.0315857 0
M  V30 3134 C 290.191 -5.60712 1.88032 0
M  V30 3135 H 289.121 -0.749144 0.0854398 0
M  V30 3136 H 291.772 -1.61251 0.875813 0
M  V30 3137 H 290.154 -3.94622 -0.330042 0
M  V30 3138 H 291.328 -3.85301 2.52745 0
M  V30 3139 H 289.643 -3.56601 2.15 0
M  V30 3140 H 292.24 -5.34698 0.0136842 0
M  V30 3141 H 292.583 -4.02261 -1.072 0
M  V30 3142 H 293.116 -3.92873 0.624181 0
M  V30 3143 H 289.855 -5.87781 2.90161 0
M  V30 3144 H 289.375 -5.87896 1.18903 0
M  V30 3145 H 291.054 -6.25658 1.64805 0
M  V30 3146 N 291.186 -0.45159 -1.50991 0
M  V30 3147 C 292.118 0.388634 -2.25881 0
M  V30 3148 C 293.131 0.974041 -1.30446 0
M  V30 3149 O 294.32 0.865758 -1.56099 0
M  V30 3150 C 291.42 1.5571 -3.01011 0
M  V30 3151 C 290.593 1.08801 -4.23652 0
M  V30 3152 C 289.652 2.12825 -4.8124 0
M  V30 3153 O 288.678 1.71678 -5.42693 0
M  V30 3154 N 289.88 3.45453 -4.66522 0
M  V30 3155 H 292.645 -0.25329 -2.98628 0
M  V30 3156 H 290.206 -0.281268 -1.59438 0
M  V30 3157 H 292.198 2.24952 -3.3642 0
M  V30 3158 H 290.768 2.10409 -2.31186 0
M  V30 3159 H 289.988 0.22215 -3.93574 0
M  V30 3160 H 291.276 0.752213 -5.03209 0
M  V30 3161 H 290.674 3.81605 -4.17605 0
M  V30 3162 H 289.231 4.10549 -5.06254 0
M  V30 3163 N 292.664 1.56529 -0.183458 0
M  V30 3164 C 293.894 2.01331 0.463612 0
M  V30 3165 C 294.302 1.06278 1.5653 0
M  V30 3166 O 293.645 0.0577976 1.83609 0
M  V30 3167 C 293.707 3.42547 1.09096 0
M  V30 3168 C 293.371 4.56817 0.129442 0
M  V30 3169 C 294.368 5.15734 -0.656807 0
M  V30 3170 C 292.053 5.02295 0.02174 0
M  V30 3171 C 294.047 6.1857 -1.53784 0
M  V30 3172 C 291.734 6.04978 -0.862864 0
M  V30 3173 C 292.732 6.62988 -1.64123 0
M  V30 3174 O 292.42 7.63677 -2.51103 0
M  V30 3175 H 292.152 0.664917 0.121907 0
M  V30 3176 H 294.706 2.034 -0.285954 0
M  V30 3177 H 292.936 3.37428 1.88889 0
M  V30 3178 H 294.625 3.71228 1.64148 0
M  V30 3179 H 295.391 4.81473 -0.583839 0
M  V30 3180 H 291.27 4.56847 0.617392 0
M  V30 3181 H 294.814 6.63777 -2.14583 0
M  V30 3182 H 290.711 6.38663 -0.93699 0
M  V30 3183 H 291.479 7.81049 -2.44753 0
M  V30 3184 N 294.142 -0.090211 1.57342 0
M  V30 3185 C 295.382 -0.798365 1.88163 0
M  V30 3186 C 295.746 -1.75662 0.775046 0
M  V30 3187 O 296.947 -2.50849 0.965816 0
M  V30 3188 C 295.218 -1.50376 3.24225 0
M  V30 3189 S 296.777 -2.24952 3.76752 0
M  V30 3190 H 293.595 -0.265883 0.659414 0
M  V30 3191 H 296.197 -0.055264 1.95422 0
M  V30 3192 H 294.901 -0.792286 4.0268 0
M  V30 3193 H 294.432 -2.28666 3.20118 0
M  V30 3194 H 296.447 -3.51173 3.5056 0
M  V30 3195 N 295.62 -1.53406 -0.361157 0
M  V30 3196 C 296.552 -1.76446 -1.46286 0
M  V30 3197 C 297.565 -0.645322 -1.49464 0
M  V30 3198 O 298.754 -0.921681 -1.52864 0
M  V30 3199 C 295.854 -1.83332 -2.85031 0
M  V30 3200 C 295.027 -3.13033 -3.05498 0
M  V30 3201 C 294.086 -3.11104 -4.24383 0
M  V30 3202 O 293.112 -3.84888 -4.19344 0
M  V30 3203 N 294.314 -2.32234 -5.32022 0
M  V30 3204 H 297.079 -2.71508 -1.26899 0
M  V30 3205 H 294.64 -1.52238 -0.550915 0
M  V30 3206 H 296.632 -1.79514 -3.62708 0
M  V30 3207 H 295.202 -0.955342 -2.97644 0
M  V30 3208 H 294.422 -3.30119 -2.15442 0
M  V30 3209 H 295.71 -3.9874 -3.16044 0
M  V30 3210 H 295.108 -1.71807 -5.38979 0
M  V30 3211 H 293.665 -2.3423 -6.08259 0
M  V30 3212 N 297.098 0.621204 -1.44841 0
M  V30 3213 C 298.323 1.41244 -1.51871 0
M  V30 3214 C 298.748 1.87519 -0.147764 0
M  V30 3215 O 298.106 1.59334 0.865 0
M  V30 3216 C 298.154 2.60221 -2.49634 0
M  V30 3217 O 297.258 3.60395 -2.00473 0
M  V30 3218 H 296.599 0.42223 -0.512463 0
M  V30 3219 H 299.129 0.757305 -1.90069 0
M  V30 3220 H 299.139 3.0764 -2.67996 0
M  V30 3221 H 297.814 2.25887 -3.4921 0
M  V30 3222 H 296.391 3.19717 -1.91925 0
M  V30 3223 N 298.576 1.31904 0.862503 0
M  V30 3224 C 299.523 1.20182 1.9704 0
M  V30 3225 C 300.493 0.0858247 1.65878 0
M  V30 3226 O 301.678 0.26 1.8902 0
M  V30 3227 C 298.818 0.922797 3.32533 0
M  V30 3228 C 297.931 2.12284 3.76244 0
M  V30 3229 C 297.066 1.77996 5.00491 0
M  V30 3230 C 296.105 2.94366 5.36671 0
M  V30 3231 N 295.242 2.60223 6.52095 0
M  V30 3232 H 300.082 2.14951 2.06398 0
M  V30 3233 H 297.619 1.06917 1.01031 0
M  V30 3234 H 299.577 0.741548 4.10557 0
M  V30 3235 H 298.207 0.0119227 3.22798 0
M  V30 3236 H 297.259 2.41461 2.9394 0
M  V30 3237 H 298.571 2.99357 3.98982 0
M  V30 3238 H 297.725 1.56377 5.862 0
M  V30 3239 H 296.464 0.881252 4.79672 0
M  V30 3240 H 295.469 3.16625 4.49476 0
M  V30 3241 H 296.694 3.84957 5.59451 0
M  V30 3242 H 294.64 1.72884 6.32809 0
M  V30 3243 H 294.557 3.40827 6.74814 0
M  V30 3244 H 295.825 2.42016 7.40978 0
M  V30 3245 N 300.054 -1.07777 1.14986 0
M  V30 3246 C 301.302 -1.79934 0.920235 0
M  V30 3247 C 301.623 -1.86955 -0.554336 0
M  V30 3248 O 300.893 -1.36731 -1.40291 0
M  V30 3249 H 299.473 -0.666424 0.337473 0
M  V30 3250 H 302.135 -1.3027 1.44968 0
M  V30 3251 H 301.231 -2.82539 1.32583 0
M  V30 3252 N 301.532 -0.945985 -1.26051 0
M  V30 3253 C 302.781 -0.591836 -1.92822 0
M  V30 3254 C 303.094 0.873956 -1.7499 0
M  V30 3255 O 304.3 1.33769 -2.36259 0
M  V30 3256 C 302.756 -1.00776 -3.45503 0
M  V30 3257 C 302.364 -2.4955 -3.7206 0
M  V30 3258 C 304.108 -0.725735 -4.1825 0
M  V30 3259 C 302.015 -2.84988 -5.18205 0
M  V30 3260 H 300.945 -0.217635 -0.721908 0
M  V30 3261 H 303.596 -1.14927 -1.43052 0
M  V30 3262 H 301.978 -0.378812 -3.94184 0
M  V30 3263 H 303.152 -3.1739 -3.34066 0
M  V30 3264 H 301.467 -2.75133 -3.12555 0
M  V30 3265 H 304.064 -0.966771 -5.25887 0
M  V30 3266 H 304.407 0.337639 -4.14929 0
M  V30 3267 H 304.94 -1.31463 -3.7545 0
M  V30 3268 H 301.679 -3.90307 -5.26631 0
M  V30 3269 H 301.199 -2.21813 -5.57278 0
M  V30 3270 H 302.878 -2.73712 -5.86252 0
M  V30 3271 N 303.011 1.40521 -0.713556 0
M  V30 3272 C 304.257 2.01221 -0.252564 0
M  V30 3273 C 304.59 1.56444 1.1506 0
M  V30 3274 O 303.865 0.783597 1.78017 0
M  V30 3275 C 304.148 3.58582 -0.330332 0
M  V30 3276 C 304.001 4.13437 -1.77173 0
M  V30 3277 C 305.32 4.39079 0.299641 0
M  V30 3278 H 302.439 0.731077 -0.0932471 0
M  V30 3279 H 305.081 1.67026 -0.905673 0
M  V30 3280 H 303.231 3.87844 0.225737 0
M  V30 3281 H 304.903 3.9498 -2.38303 0
M  V30 3282 H 303.146 3.67801 -2.3001 0
M  V30 3283 H 303.817 5.22597 -1.77755 0
M  V30 3284 H 306.293 4.15735 -0.174139 0
M  V30 3285 H 305.169 5.4848 0.214771 0
M  V30 3286 H 305.43 4.19915 1.38288 0
M  V30 3287 N 304.489 0.459591 1.5075 0
M  V30 3288 C 305.735 -0.0994966 2.02556 0
M  V30 3289 C 306.068 -1.40399 1.3417 0
M  V30 3290 O 305.343 -1.88892 0.463683 0
M  V30 3291 C 305.626 -0.295242 3.58888 0
M  V30 3292 C 305.479 1.02947 4.37861 0
M  V30 3293 C 306.798 -1.05502 4.27267 0
M  V30 3294 H 303.917 -0.034686 0.736183 0
M  V30 3295 H 306.559 0.602938 1.8018 0
M  V30 3296 H 304.709 -0.893563 3.78084 0
M  V30 3297 H 306.381 1.66348 4.30263 0
M  V30 3298 H 304.624 1.62885 4.02058 0
M  V30 3299 H 305.295 0.846281 5.45474 0
M  V30 3300 H 307.771 -0.547993 4.12476 0
M  V30 3301 H 306.647 -1.16077 5.36486 0
M  V30 3302 H 306.908 -2.08875 3.89645 0
M  V30 3303 N 305.967 -1.56429 0.191757 0
M  V30 3304 C 307.195 -2.01867 -0.453586 0
M  V30 3305 C 307.61 -1.07191 -1.5542 0
M  V30 3306 O 306.967 -0.0762108 -1.82341 0
M  V30 3307 C 307.018 -3.47017 -1.013 0
M  V30 3308 O 306.739 -4.38078 0.0437005 0
M  V30 3309 C 308.24 -4.07956 -1.73456 0
M  V30 3310 H 305.46 -0.661211 -0.114199 0
M  V30 3311 H 308.004 -2.02295 0.299483 0
M  V30 3312 H 306.159 -3.47298 -1.71647 0
M  V30 3313 H 306.573 -5.23178 -0.372212 0
M  V30 3314 H 308.047 -5.1138 -2.07833 0
M  V30 3315 H 308.524 -3.51222 -2.63704 0
M  V30 3316 H 309.13 -4.11437 -1.07702 0
M  V30 3317 N 307.445 0.0818655 -1.57387 0
M  V30 3318 C 308.408 1.08265 -2.02018 0
M  V30 3319 C 309.408 1.32183 -0.915664 0
M  V30 3320 O 310.598 1.28073 -1.18081 0
M  V30 3321 C 307.73 2.42871 -2.39221 0
M  V30 3322 H 308.923 0.698204 -2.91659 0
M  V30 3323 H 306.476 0.327303 -1.52835 0
M  V30 3324 H 307.211 2.86167 -1.52575 0
M  V30 3325 H 306.996 2.26855 -3.19811 0
M  V30 3326 H 308.486 3.14826 -2.74362 0
M  V30 3327 N 308.923 1.53595 0.353017 0
M  V30 3328 C 310.153 1.74058 1.11299 0
M  V30 3329 C 310.561 0.475205 1.83135 0
M  V30 3330 O 309.904 -0.562344 1.74881 0
M  V30 3331 C 309.966 2.85994 2.17825 0
M  V30 3332 C 309.63 4.25923 1.65647 0
M  V30 3333 C 310.627 5.07829 1.11383 0
M  V30 3334 C 308.312 4.72377 1.7078 0
M  V30 3335 C 310.306 6.34285 0.629439 0
M  V30 3336 C 307.993 5.98808 1.21953 0
M  V30 3337 C 308.991 6.79594 0.681265 0
M  V30 3338 O 308.679 8.03651 0.200248 0
M  V30 3339 H 308.411 0.585327 0.338183 0
M  V30 3340 H 310.965 2.01186 0.413927 0
M  V30 3341 H 309.195 2.54368 2.91262 0
M  V30 3342 H 310.884 2.94515 2.79313 0
M  V30 3343 H 311.65 4.73107 1.06746 0
M  V30 3344 H 307.529 4.0956 2.11617 0
M  V30 3345 H 311.073 6.97288 0.208636 0
M  V30 3346 H 306.97 6.33026 1.26287 0
M  V30 3347 H 307.738 8.1788 0.318416 0
M  V30 3348 N 310.401 -0.613514 1.45168 0
M  V30 3349 C 311.626 -1.40437 1.52618 0
M  V30 3350 C 312.051 -1.87438 0.157707 0
M  V30 3351 O 311.409 -1.59791 -0.856537 0
M  V30 3352 C 311.457 -2.58894 2.51011 0
M  V30 3353 O 310.561 -3.59326 2.02382 0
M  V30 3354 H 309.902 -0.419506 0.514695 0
M  V30 3355 H 312.432 -0.747215 1.90467 0
M  V30 3356 H 312.442 -3.06214 2.69624 0
M  V30 3357 H 311.117 -2.24032 3.50403 0
M  V30 3358 H 309.694 -3.18695 1.93618 0
M  V30 3359 N 311.879 -1.3236 -0.855495 0
M  V30 3360 C 313.29 -1.2056 -1.42556 0
M  V30 3361 C 313.641 0.182209 -1.95352 0
M  V30 3362 O 312.766 1.08088 -1.87472 0
M  V30 3363 C 313.361 -2.1826 -2.59129 0
M  V30 3364 C 311.92 -2.10351 -3.12137 0
M  V30 3365 C 311.067 -2.06674 -1.84882 0
M  V30 3366 H 314.018 -1.442 -0.662727 0
M  V30 3367 H 314.039 -1.78064 -3.36264 0
M  V30 3368 H 313.551 -3.19257 -2.20673 0
M  V30 3369 H 311.652 -1.12599 -3.55179 0
M  V30 3370 H 311.765 -3.00135 -3.73438 0
M  V30 3371 H 310.129 -1.51901 -2.04446 0
M  V30 3372 H 310.912 -3.09451 -1.48643 0
M  V30 3373 N 313.357 1.07166 -1.15556 0
M  V30 3374 C 314.287 2.16403 -0.877046 0
M  V30 3375 C 315.268 1.69217 0.173111 0
M  V30 3376 O 316.453 1.94181 0.027084 0
M  V30 3377 C 313.583 3.45349 -0.367632 0
M  V30 3378 C 312.537 4.05995 -1.35468 0
M  V30 3379 C 311.863 5.30045 -0.704038 0
M  V30 3380 C 313.163 4.45804 -2.72132 0
M  V30 3381 H 314.857 2.39959 -1.79053 0
M  V30 3382 H 312.403 1.15325 -0.862331 0
M  V30 3383 H 314.356 4.21095 -0.160317 0
M  V30 3384 H 313.08 3.21385 0.581326 0
M  V30 3385 H 311.739 3.32296 -1.54839 0
M  V30 3386 H 311.387 5.02373 0.251128 0
M  V30 3387 H 311.087 5.71579 -1.36277 0
M  V30 3388 H 312.611 6.08495 -0.50654 0
M  V30 3389 H 314.025 5.12671 -2.56595 0
M  V30 3390 H 312.422 4.98296 -3.34397 0
M  V30 3391 H 313.492 3.57083 -3.28054 0
M  V30 3392 N 314.835 0.952656 1.25548 0
M  V30 3393 C 316.083 0.605176 1.92826 0
M  V30 3394 C 316.404 -0.860261 1.74999 0
M  V30 3395 O 315.674 -1.6125 1.11244 0
M  V30 3396 H 314.254 0.220832 0.713612 0
M  V30 3397 H 316.916 1.21047 1.52754 0
M  V30 3398 H 316.012 0.832798 3.00784 0
M  V30 3399 N 316.313 -1.40141 0.720998 0
M  V30 3400 C 317.538 -2.05618 0.271258 0
M  V30 3401 C 317.963 -1.53978 -1.08039 0
M  V30 3402 O 317.321 -0.677463 -1.68167 0
M  V30 3403 C 317.369 -3.59609 0.267197 0
M  V30 3404 O 316.473 -4.05526 -0.749814 0
M  V30 3405 H 315.814 -0.651904 0.126162 0
M  V30 3406 H 318.344 -1.79439 0.982997 0
M  V30 3407 H 318.354 -4.0786 0.106744 0
M  V30 3408 H 317.029 -3.96559 1.25354 0
M  V30 3409 H 315.606 -3.68722 -0.556644 0
M  V30 3410 N 317.792 -0.46758 -1.50504 0
M  V30 3411 C 319.203 -0.0116166 -1.86696 0
M  V30 3412 C 319.554 1.39202 -1.38265 0
M  V30 3413 O 318.679 2.0313 -0.746132 0
M  V30 3414 C 319.274 -0.0143044 -3.38797 0
M  V30 3415 C 317.833 0.386175 -3.74414 0
M  V30 3416 C 316.98 -0.401287 -2.74381 0
M  V30 3417 H 319.931 -0.682022 -1.43297 0
M  V30 3418 H 319.952 0.788641 -3.72237 0
M  V30 3419 H 319.464 -1.03602 -3.74016 0
M  V30 3420 H 317.565 1.41237 -3.44794 0
M  V30 3421 H 317.678 0.0899596 -4.79016 0
M  V30 3422 H 316.042 0.144536 -2.5429 0
M  V30 3423 H 316.825 -1.42244 -3.12444 0
M  V30 3424 N 319.27 1.56325 -0.20005 0
M  V30 3425 C 320.547 1.89484 0.48529 0
M  V30 3426 C 320.927 1.1143 1.79294 0
M  V30 3427 O 320.275 0.216919 2.27468 0
M  V30 3428 C 320.485 3.41923 0.699243 0
M  V30 3429 C 321.833 4.12256 1.01638 0
M  V30 3430 O 322.857 3.47402 0.786792 0
M  V30 3431 O 321.716 5.26887 1.45095 0
M  V30 3432 H 318.81 0.787144 0.253639 0
M  V30 3433 H 321.356 1.67985 -0.240633 0
M  V30 3434 H 320.128 3.90658 -0.224008 0
M  V30 3435 H 319.751 3.69131 1.47744 0
M  V30 3436 N 320.748 -0.0735177 1.57428 0
M  V30 3437 C 322.164 -0.428264 1.53747 0
M  V30 3438 C 322.364 -1.79272 0.91998 0
M  V30 3439 O 321.42 -2.47051 0.521745 0
M  V30 3440 C 322.733 -0.370914 2.98404 0
M  V30 3441 C 324.281 -0.451224 3.0973 0
M  V30 3442 C 324.756 -0.4238 4.56035 0
M  V30 3443 N 326.247 -0.483925 4.60665 0
M  V30 3444 C 326.982 -0.484891 5.71346 0
M  V30 3445 N 326.478 -0.440775 6.91396 0
M  V30 3446 N 328.271 -0.531319 5.59583 0
M  V30 3447 H 320.422 0.819949 1.95935 0
M  V30 3448 H 322.685 0.307493 0.896745 0
M  V30 3449 H 322.391 0.564956 3.47133 0
M  V30 3450 H 322.265 -1.18176 3.5821 0
M  V30 3451 H 324.652 -1.37752 2.60976 0
M  V30 3452 H 324.733 0.388167 2.52838 0
M  V30 3453 H 324.377 0.498638 5.05446 0
M  V30 3454 H 324.307 -1.2807 5.10789 0
M  V30 3455 H 326.798 -0.522338 3.74273 0
M  V30 3456 H 327.111 -0.44539 7.71515 0
M  V30 3457 H 325.456 -0.40749 6.93804 0
M  V30 3458 H 328.647 -0.563464 4.64696 0
M  V30 3459 H 328.82 -0.528603 6.4584 0
M  V30 3460 N 322.226 -1.5378 -0.344866 0
M  V30 3461 C 323.637 -1.62428 -0.920552 0
M  V30 3462 C 323.988 -0.504747 -1.89596 0
M  V30 3463 O 323.113 0.365711 -2.13287 0
M  V30 3464 C 323.708 -2.94419 -1.67639 0
M  V30 3465 C 322.267 -3.05333 -2.20111 0
M  V30 3466 C 321.414 -2.57866 -1.01982 0
M  V30 3467 H 324.365 -1.58222 -0.123042 0
M  V30 3468 H 324.386 -2.83384 -2.53917 0
M  V30 3469 H 323.898 -3.7588 -0.966224 0
M  V30 3470 H 321.999 -2.28502 -2.94308 0
M  V30 3471 H 322.112 -4.10778 -2.46573 0
M  V30 3472 H 320.476 -2.13241 -1.39285 0
M  V30 3473 H 321.259 -3.41765 -0.324308 0
M  V30 3474 N 323.704 0.605807 -1.45491 0
M  V30 3475 C 324.95 1.36481 -1.50813 0
M  V30 3476 C 325.305 1.91826 -0.148469 0
M  V30 3477 O 324.598 1.72211 0.839869 0
M  V30 3478 C 324.792 2.53012 -2.52428 0
M  V30 3479 C 324.621 2.09078 -3.98141 0
M  V30 3480 C 323.391 1.95167 -4.66088 0
M  V30 3481 C 325.589 1.66438 -4.86624 0
M  V30 3482 N 323.571 1.45062 -5.96515 0
M  V30 3483 C 324.942 1.27761 -6.06694 0
M  V30 3484 C 326.997 1.54046 -4.7347 0
M  V30 3485 C 325.7 0.779286 -7.15066 0
M  V30 3486 C 327.726 1.05618 -5.81892 0
M  V30 3487 C 327.088 0.67906 -7.01119 0
M  V30 3488 H 323.187 0.493267 -0.606805 0
M  V30 3489 H 325.771 0.692347 -1.81974 0
M  V30 3490 H 323.942 3.17851 -2.23215 0
M  V30 3491 H 325.674 3.19897 -2.47887 0
M  V30 3492 H 322.429 2.16407 -4.21266 0
M  V30 3493 H 322.853 1.22237 -6.65873 0
M  V30 3494 H 327.495 1.81827 -3.81705 0
M  V30 3495 H 325.213 0.489026 -8.06619 0
M  V30 3496 H 328.799 0.964529 -5.73749 0
M  V30 3497 H 327.679 0.310091 -7.83587 0
M  V30 3498 N 325.182 1.32811 0.848464 0
M  V30 3499 C 326.145 1.22194 1.9391 0
M  V30 3500 C 327.145 0.143404 1.60159 0
M  V30 3501 O 328.335 0.394253 1.6968 0
M  V30 3502 C 325.467 0.88067 3.29328 0
M  V30 3503 H 326.66 2.19127 2.04752 0
M  V30 3504 H 324.213 1.16731 1.0394 0
M  V30 3505 H 324.948 -0.0865776 3.24184 0
M  V30 3506 H 324.733 1.66052 3.55203 0
M  V30 3507 H 326.223 0.830871 4.09251 0
M  V30 3508 N 326.66 -1.06551 1.16123 0
M  V30 3509 C 327.607 -2.13961 0.865414 0
M  V30 3510 C 328.577 -1.65066 -0.185055 0
M  V30 3511 O 329.762 -1.90732 -0.05083 0
M  V30 3512 C 326.902 -3.43113 0.369776 0
M  V30 3513 C 326.015 -4.05756 1.48276 0
M  V30 3514 C 325.15 -5.22773 0.942414 0
M  V30 3515 C 324.189 -5.77395 2.03179 0
M  V30 3516 N 323.326 -6.85731 1.50721 0
M  V30 3517 H 328.166 -2.38605 1.78527 0
M  V30 3518 H 325.703 -1.17072 0.890646 0
M  V30 3519 H 327.661 -4.17151 0.0640643 0
M  V30 3520 H 326.291 -3.18695 -0.513143 0
M  V30 3521 H 325.343 -3.29292 1.9045 0
M  V30 3522 H 326.655 -4.42351 2.30493 0
M  V30 3523 H 325.809 -6.03827 0.589729 0
M  V30 3524 H 324.548 -4.87618 0.0895191 0
M  V30 3525 H 323.553 -4.94981 2.3932 0
M  V30 3526 H 324.778 -6.14603 2.8886 0
M  V30 3527 H 322.724 -6.52499 0.676811 0
M  V30 3528 H 322.641 -7.21254 2.26557 0
M  V30 3529 H 323.909 -7.7047 1.18303 0
M  V30 3530 N 328.138 -0.959301 -1.25041 0
M  V30 3531 C 329.549 -0.65667 -1.74771 0
M  V30 3532 C 329.9 0.827852 -1.77879 0
M  V30 3533 O 329.025 1.64783 -1.40269 0
M  V30 3534 C 329.62 -1.1853 -3.1739 0
M  V30 3535 C 328.179 -0.932734 -3.6466 0
M  V30 3536 C 327.326 -1.32558 -2.43564 0
M  V30 3537 H 330.277 -1.13558 -1.10862 0
M  V30 3538 H 330.298 -0.547582 -3.76539 0
M  V30 3539 H 329.81 -2.26576 -3.15095 0
M  V30 3540 H 327.911 0.13257 -3.72364 0
M  V30 3541 H 328.024 -1.57248 -4.52559 0
M  V30 3542 H 326.388 -0.743956 -2.43593 0
M  V30 3543 H 327.171 -2.41537 -2.43957 0
M  V30 3544 N 329.616 1.39756 -0.72842 0
M  V30 3545 C 330.526 2.34444 -0.0855374 0
M  V30 3546 C 331.542 1.57976 0.729356 0
M  V30 3547 O 332.718 1.90301 0.659346 0
M  V30 3548 C 329.783 3.36965 0.815798 0
M  V30 3549 C 328.844 4.29299 -0.0105996 0
M  V30 3550 C 328.077 5.26923 0.84781 0
M  V30 3551 O 328.3 5.30859 2.08673 0
M  V30 3552 O 327.234 6.01249 0.279969 0
M  V30 3553 H 331.06 2.91065 -0.866892 0
M  V30 3554 H 328.645 1.4117 -0.48902 0
M  V30 3555 H 330.527 3.99804 1.33171 0
M  V30 3556 H 329.202 2.82739 1.57608 0
M  V30 3557 H 328.109 3.69703 -0.571877 0
M  V30 3558 H 329.442 4.86712 -0.73295 0
M  V30 3559 N 331.094 0.475555 1.50254 0
M  V30 3560 C 332.371 -0.139685 1.95101 0
M  V30 3561 C 332.751 -1.56555 1.41611 0
M  V30 3562 O 332.099 -2.19956 0.618993 0
M  V30 3563 C 332.309 -0.0784298 3.48912 0
M  V30 3564 C 333.657 -0.265095 4.23772 0
M  V30 3565 O 334.681 -0.154808 3.55863 0
M  V30 3566 O 333.54 -0.488327 5.44314 0
M  V30 3567 H 330.634 -0.109236 0.819754 0
M  V30 3568 H 333.18 0.536276 1.61004 0
M  V30 3569 H 331.952 0.916918 3.80405 0
M  V30 3570 H 331.575 -0.795655 3.89558 0
M  V30 3571 N 332.573 -1.56217 0.208337 0
M  V30 3572 C 333.984 -1.84243 -0.301904 0
M  V30 3573 C 334.335 -1.12939 -1.60434 0
M  V30 3574 O 333.46 -0.39461 -2.12772 0
M  V30 3575 C 334.055 -3.34231 -0.554543 0
M  V30 3576 C 332.614 -3.62621 -1.00912 0
M  V30 3577 C 331.761 -2.77224 -0.064933 0
M  V30 3578 H 334.712 -1.52712 0.431833 0
M  V30 3579 H 334.733 -3.5372 -1.40223 0
M  V30 3580 H 334.245 -3.86099 0.393561 0
M  V30 3581 H 332.346 -3.16197 -1.97104 0
M  V30 3582 H 332.459 -4.7071 -0.892674 0
M  V30 3583 H 330.823 -2.48256 -0.56929 0
M  V30 3584 H 331.606 -3.31887 0.877851 0
M  V30 3585 N 334.051 0.0651679 -1.57465 0
M  V30 3586 C 335.276 0.779605 -1.9219 0
M  V30 3587 C 335.701 1.69988 -0.805333 0
M  V30 3588 O 335.059 1.79685 0.241435 0
M  V30 3589 C 335.107 1.54364 -3.2589 0
M  V30 3590 O 334.211 2.65474 -3.1559 0
M  V30 3591 H 333.552 0.212249 -0.629163 0
M  V30 3592 H 336.082 0.0314294 -2.04576 0
M  V30 3593 H 336.092 1.92146 -3.59922 0
M  V30 3594 H 334.767 0.868457 -4.06732 0
M  V30 3595 H 333.344 2.30501 -2.93128 0
M  V30 3596 N 335.529 1.53961 0.336706 0
M  V30 3597 C 336.459 1.85417 1.41925 0
M  V30 3598 C 337.44 0.709856 1.5458 0
M  V30 3599 O 338.625 0.962396 1.68676 0
M  V30 3600 C 335.755 2.06985 2.78881 0
M  V30 3601 C 334.709 3.22813 2.81026 0
M  V30 3602 C 334.035 3.29727 4.20932 0
M  V30 3603 C 335.335 4.60767 2.45949 0
M  V30 3604 H 337.029 2.76079 1.15848 0
M  V30 3605 H 334.575 1.32839 0.555859 0
M  V30 3606 H 336.528 2.27575 3.54665 0
M  V30 3607 H 335.252 1.13061 3.06406 0
M  V30 3608 H 333.911 3.0209 2.07695 0
M  V30 3609 H 333.559 2.33385 4.45579 0
M  V30 3610 H 333.259 4.07566 4.23277 0
M  V30 3611 H 334.783 3.52536 4.98549 0
M  V30 3612 H 336.197 4.81325 3.11446 0
M  V30 3613 H 334.594 5.4106 2.59566 0
M  V30 3614 H 335.664 4.6391 1.41122 0
M  V30 3615 N 337.007 -0.598083 1.45811 0
M  V30 3616 C 337.937 -1.71873 1.58057 0
M  V30 3617 C 338.918 -1.64533 0.431615 0
M  V30 3618 O 340.103 -1.82787 0.65595 0
M  V30 3619 C 337.233 -3.10495 1.55597 0
M  V30 3620 C 336.187 -3.32654 2.69305 0
M  V30 3621 C 335.513 -4.71646 2.51902 0
M  V30 3622 C 336.813 -3.21981 4.11248 0
M  V30 3623 H 338.507 -1.61881 2.51863 0
M  V30 3624 H 336.053 -0.777372 1.21214 0
M  V30 3625 H 338.006 -3.88699 1.6276 0
M  V30 3626 H 336.73 -3.2135 0.583255 0
M  V30 3627 H 335.389 -2.56843 2.61586 0
M  V30 3628 H 335.037 -4.79246 1.52748 0
M  V30 3629 H 334.737 -4.87426 3.2816 0
M  V30 3630 H 336.261 -5.52038 2.60933 0
M  V30 3631 H 337.675 -3.90049 4.20161 0
M  V30 3632 H 336.072 -3.49289 4.87972 0
M  V30 3633 H 337.142 -2.1928 4.32486 0
M  V30 3634 N 338.485 -1.33259 -0.841409 0
M  V30 3635 C 339.395 -1.25332 -1.98316 0
M  V30 3636 C 340.411 -0.164364 -1.73222 0
M  V30 3637 O 341.587 -0.387486 -1.97637 0
M  V30 3638 C 338.652 -0.990078 -3.32262 0
M  V30 3639 C 337.713 -2.16879 -3.70489 0
M  V30 3640 C 336.946 -1.91801 -4.98044 0
M  V30 3641 O 337.169 -0.867075 -5.63771 0
M  V30 3642 O 336.103 -2.78267 -5.33714 0
M  V30 3643 H 339.929 -2.21344 -2.07944 0
M  V30 3644 H 337.514 -1.1328 -0.974058 0
M  V30 3645 H 339.396 -0.860321 -4.12524 0
M  V30 3646 H 338.071 -0.0602155 -3.23644 0
M  V30 3647 H 336.978 -2.35407 -2.90748 0
M  V30 3648 H 338.311 -3.0819 -3.8377 0
M  V30 3649 N 339.963 1.05934 -1.16686 0
M  V30 3650 C 341.24 1.75643 -0.860747 0
M  V30 3651 C 341.62 2.01144 0.640641 0
M  V30 3652 O 340.968 1.64147 1.58959 0
M  V30 3653 C 341.178 3.05493 -1.68745 0
M  V30 3654 C 342.526 3.79581 -1.90271 0
M  V30 3655 O 343.55 3.15344 -1.65641 0
M  V30 3656 O 342.409 4.9499 -2.31618 0
M  V30 3657 H 339.503 0.763426 -0.317977 0
M  V30 3658 H 342.049 1.1217 -1.27342 0
M  V30 3659 H 340.821 2.8264 -2.70611 0
M  V30 3660 H 340.444 3.76702 -1.27206 0
M  V30 3661 N 341.441 0.965919 1.2453 0
M  V30 3662 C 342.852 0.665929 1.7442 0
M  V30 3663 C 343.203 -0.818407 1.78316 0
M  V30 3664 O 342.328 -1.64037 1.41141 0
M  V30 3665 C 342.923 1.20211 3.16757 0
M  V30 3666 C 341.482 0.952059 3.6416 0
M  V30 3667 C 340.629 1.33848 2.42858 0
M  V30 3668 H 343.58 1.14144 1.10258 0
M  V30 3669 H 343.601 0.567544 3.76244 0
M  V30 3670 H 343.113 2.28244 3.13889 0
M  V30 3671 H 341.214 -0.112821 3.72429 0
M  V30 3672 H 341.327 1.59645 4.51719 0
M  V30 3673 H 339.691 0.756864 2.43195 0
M  V30 3674 H 340.474 2.42827 2.42673 0
M  V30 3675 N 342.919 -1.39368 0.735821 0
M  V30 3676 C 344.335 -1.54204 0.411492 0
M  V30 3677 C 344.535 -1.70268 -1.07755 0
M  V30 3678 O 343.591 -1.70364 -1.86366 0
M  V30 3679 C 344.904 -2.75925 1.19523 0
M  V30 3680 C 346.452 -2.89761 1.18354 0
M  V30 3681 C 346.927 -4.14421 1.94986 0
M  V30 3682 N 348.418 -4.21462 1.92156 0
M  V30 3683 C 349.153 -5.16871 2.48258 0
M  V30 3684 N 348.649 -6.18063 3.13001 0
M  V30 3685 N 350.442 -5.09093 2.38287 0
M  V30 3686 H 342.593 -1.27189 1.70108 0
M  V30 3687 H 344.856 -0.616517 0.720147 0
M  V30 3688 H 344.562 -2.70401 2.24892 0
M  V30 3689 H 344.436 -3.68614 0.800222 0
M  V30 3690 H 346.823 -2.94777 0.137975 0
M  V30 3691 H 346.904 -1.98133 1.61793 0
M  V30 3692 H 346.548 -4.10166 2.99543 0
M  V30 3693 H 346.478 -5.05095 1.48953 0
M  V30 3694 H 348.969 -3.48979 1.44991 0
M  V30 3695 H 349.282 -6.87326 3.53275 0
M  V30 3696 H 347.627 -6.18448 3.17091 0
M  V30 3697 H 350.818 -4.28973 1.8735 0
M  V30 3698 H 350.991 -5.83272 2.82308 0
M  V30 3699 N 344.397 -0.483516 -1.5 0
M  V30 3700 C 345.646 0.0689102 -2.01582 0
M  V30 3701 C 345.959 1.39655 -1.36952 0
M  V30 3702 O 347.165 2.03465 -1.79762 0
M  V30 3703 C 345.621 0.173302 -3.59483 0
M  V30 3704 C 345.229 -1.14665 -4.33077 0
M  V30 3705 C 346.973 0.677024 -4.19066 0
M  V30 3706 C 344.88 -1.00537 -5.82792 0
M  V30 3707 H 343.81 0.0295277 -0.753422 0
M  V30 3708 H 346.461 -0.620295 -1.72698 0
M  V30 3709 H 344.843 0.926569 -3.85007 0
M  V30 3710 H 346.017 -1.91184 -4.19268 0
M  V30 3711 H 344.332 -1.58244 -3.85159 0
M  V30 3712 H 346.929 0.799952 -5.28682 0
M  V30 3713 H 347.272 1.67151 -3.81269 0
M  V30 3714 H 347.805 -0.0192083 -3.97795 0
M  V30 3715 H 344.544 -1.9736 -6.25083 0
M  V30 3716 H 344.064 -0.280776 -5.99142 0
M  V30 3717 H 345.743 -0.677 -6.43448 0
M  V30 3718 N 345.875 1.56104 -0.216619 0
M  V30 3719 C 346.822 2.2007 0.695531 0
M  V30 3720 C 347.792 1.15471 1.19397 0
M  V30 3721 O 348.977 1.43807 1.25396 0
M  V30 3722 C 346.117 2.88073 1.90021 0
M  V30 3723 C 345.23 4.07253 1.44113 0
M  V30 3724 C 344.365 4.63052 2.603 0
M  V30 3725 C 343.404 5.74545 2.11103 0
M  V30 3726 N 342.541 6.24656 3.20545 0
M  V30 3727 H 347.381 2.97655 0.143327 0
M  V30 3728 H 344.918 1.46982 0.0589934 0
M  V30 3729 H 346.876 3.25681 2.60745 0
M  V30 3730 H 345.506 2.13015 2.42538 0
M  V30 3731 H 344.558 3.75164 0.628999 0
M  V30 3732 H 345.87 4.8783 1.04036 0
M  V30 3733 H 345.024 5.03078 3.39113 0
M  V30 3734 H 343.763 3.81628 3.03663 0
M  V30 3735 H 342.768 5.34027 1.3075 0
M  V30 3736 H 343.993 6.57801 1.68746 0
M  V30 3737 H 341.939 5.46148 3.63399 0
M  V30 3738 H 341.856 7.00343 2.84704 0
M  V30 3739 H 343.124 6.69338 3.99508 0
M  V30 3740 N 347.353 -0.0568162 1.57498 0
M  V30 3741 C 348.316 -1.05038 2.03715 0
M  V30 3742 C 349.316 -1.30709 0.936577 0
M  V30 3743 O 350.506 -1.26178 1.20103 0
M  V30 3744 C 347.638 -2.39034 2.43055 0
M  V30 3745 H 348.831 -0.651715 2.92733 0
M  V30 3746 H 346.384 -0.302947 1.53336 0
M  V30 3747 H 347.119 -2.83703 1.57108 0
M  V30 3748 H 346.904 -2.21739 3.2338 0
M  V30 3749 H 348.394 -3.10421 2.79336 0
M  V30 3750 N 348.832 -1.54138 -0.328536 0
M  V30 3751 C 350.081 -1.71318 -1.06456 0
M  V30 3752 C 350.394 -0.491109 -1.89334 0
M  V30 3753 O 351.6 -0.54416 -2.65991 0
M  V30 3754 C 350.056 -3.03 -1.94214 0
M  V30 3755 C 349.664 -4.32595 -1.16471 0
M  V30 3756 C 351.408 -3.29544 -2.67583 0
M  V30 3757 C 349.315 -5.55341 -2.03347 0
M  V30 3758 H 348.245 -0.638429 -0.401155 0
M  V30 3759 H 350.896 -1.80633 -0.323106 0
M  V30 3760 H 349.278 -2.87579 -2.72239 0
M  V30 3761 H 350.452 -4.58766 -0.432525 0
M  V30 3762 H 348.767 -4.12777 -0.548063 0
M  V30 3763 H 351.364 -4.18444 -3.3288 0
M  V30 3764 H 351.707 -2.47206 -3.34955 0
M  V30 3765 H 352.24 -3.45809 -1.96623 0
M  V30 3766 H 348.979 -6.40268 -1.40491 0
M  V30 3767 H 348.499 -5.33397 -2.74313 0
M  V30 3768 H 350.178 -5.91557 -2.62049 0
M  V30 3769 N 350.31 0.590341 -1.46126 0
M  V30 3770 C 351.273 1.68194 -1.55703 0
M  V30 3771 C 352.273 1.54808 -0.434868 0
M  V30 3772 O 353.463 1.59564 -0.698928 0
M  V30 3773 C 350.595 3.07575 -1.47005 0
M  V30 3774 H 351.788 1.61064 -2.52979 0
M  V30 3775 H 349.341 0.807541 -1.33823 0
M  V30 3776 H 350.076 3.20268 -0.509785 0
M  V30 3777 H 349.861 3.187 -2.28414 0
M  V30 3778 H 351.351 3.87055 -1.56776 0
M  V30 3779 N 351.788 1.33704 0.83433 0
M  V30 3780 C 352.751 1.24244 1.92603 0
M  V30 3781 C 353.751 0.160383 1.59998 0
M  V30 3782 O 354.941 0.412228 1.69252 0
M  V30 3783 C 352.073 0.91555 3.28376 0
M  V30 3784 H 353.266 2.21287 2.02416 0
M  V30 3785 H 350.819 1.17827 1.02696 0
M  V30 3786 H 351.554 -0.0521886 3.24258 0
M  V30 3787 H 351.339 1.69811 3.53422 0
M  V30 3788 H 352.829 0.874231 4.08347 0
M  V30 3789 N 353.266 -1.05314 1.17247 0
M  V30 3790 C 354.213 -2.13031 0.888058 0
M  V30 3791 C 355.183 -1.65253 -0.167537 0
M  V30 3792 O 356.368 -1.90775 -0.0305974 0
M  V30 3793 C 353.508 -3.42702 0.406147 0
M  V30 3794 C 352.621 -4.04161 1.52572 0
M  V30 3795 C 351.756 -5.21744 0.997808 0
M  V30 3796 C 350.795 -5.75207 2.09291 0
M  V30 3797 N 349.932 -6.84094 1.57986 0
M  V30 3798 H 354.772 -2.36698 1.81048 0
M  V30 3799 H 352.309 -1.16121 0.903013 0
M  V30 3800 H 354.267 -4.17059 0.108305 0
M  V30 3801 H 352.897 -3.19222 -0.479313 0
M  V30 3802 H 351.949 -3.27253 1.93931 0
M  V30 3803 H 353.261 -4.39881 2.35172 0
M  V30 3804 H 352.415 -6.03168 0.653739 0
M  V30 3805 H 351.154 -4.87495 0.141232 0
M  V30 3806 H 350.159 -4.92414 2.44557 0
M  V30 3807 H 351.384 -6.11505 2.95362 0
M  V30 3808 H 349.33 -6.51745 0.74598 0
M  V30 3809 H 349.247 -7.18811 2.34195 0
M  V30 3810 H 350.515 -7.69172 1.26468 0
M  V30 3811 N 354.744 -0.972509 -1.24016 0
M  V30 3812 C 355.694 -0.477561 -2.22942 0
M  V30 3813 C 356.678 0.44308 -1.54679 0
M  V30 3814 O 357.87 0.273219 -1.74879 0
M  V30 3815 C 354.999 0.226348 -3.42553 0
M  V30 3816 C 354.085 -0.713403 -4.18057 0
M  V30 3817 N 354.476 -1.8527 -4.70647 0
M  V30 3818 C 352.774 -0.525145 -4.42898 0
M  V30 3819 C 353.475 -2.44089 -5.28011 0
M  V30 3820 N 352.451 -1.72556 -5.15486 0
M  V30 3821 H 356.253 -1.34678 -2.61226 0
M  V30 3822 H 353.767 -0.832196 -1.39457 0
M  V30 3823 H 355.764 0.598184 -4.12586 0
M  V30 3824 H 354.424 1.09195 -3.05788 0
M  V30 3825 H 355.435 -2.2341 -4.67235 0
M  V30 3826 H 352.112 0.296096 -4.16449 0
M  V30 3827 H 353.502 -3.40259 -5.79374 0
M  V30 3828 N 356.222 1.38976 -0.743202 0
M  V30 3829 C 357.17 2.32394 -0.0978389 0
M  V30 3830 C 358.164 1.53486 0.716824 0
M  V30 3831 O 359.37 1.69092 0.617088 0
M  V30 3832 H 355.745 0.75189 -0.0128402 0
M  V30 3833 H 357.716 2.84441 -0.901981 0
M  V30 3834 C 356.465 3.38629 0.789036 0
M  V30 3835 H 355.788 3.99432 0.171559 0
M  V30 3836 H 357.228 4.06426 1.20807 0
M  V30 3837 C 355.687 2.76347 1.92702 0
M  V30 3838 O 356.217 2.64836 3.02034 0
M  V30 3839 N 354.423 2.34311 1.71891 0
M  V30 3840 H 353.97 2.43873 0.829675 0
M  V30 3841 H 353.928 1.9298 2.48205 0
M  V30 3842 N 357.7 0.491464 1.49741 0
M  V30 3843 C 358.647 -0.292027 2.28945 0
M  V30 3844 C 359.617 -0.968973 1.34908 0
M  V30 3845 O 360.802 -0.97748 1.6386 0
M  V30 3846 C 357.942 -1.35617 3.17336 0
M  V30 3847 C 357.055 -0.691957 4.26422 0
M  V30 3848 C 356.19 -1.73572 5.02042 0
M  V30 3849 C 355.229 -1.05286 6.02977 0
M  V30 3850 N 354.366 -2.0404 6.71798 0
M  V30 3851 H 359.206 0.389654 2.95442 0
M  V30 3852 H 356.743 0.204003 1.45679 0
M  V30 3853 H 358.701 -1.98502 3.66951 0
M  V30 3854 H 357.331 -2.00674 2.52844 0
M  V30 3855 H 356.383 0.0499523 3.80367 0
M  V30 3856 H 357.695 -0.153946 4.98562 0
M  V30 3857 H 356.849 -2.43987 5.55478 0
M  V30 3858 H 355.588 -2.30757 4.29654 0
M  V30 3859 H 354.593 -0.334446 5.48782 0
M  V30 3860 H 355.818 -0.487636 6.77347 0
M  V30 3861 H 353.764 -2.60205 6.02187 0
M  V30 3862 H 353.681 -1.55279 7.39881 0
M  V30 3863 H 354.949 -2.73772 7.29842 0
M  V30 3864 N 359.178 -1.55987 0.224894 0
M  V30 3865 C 360.406 -2.02784 -0.410665 0
M  V30 3866 C 360.821 -1.10464 -1.53112 0
M  V30 3867 O 360.178 -0.114871 -1.82138 0
M  V30 3868 C 360.229 -3.49087 -0.939165 0
M  V30 3869 O 359.95 -4.37887 0.136614 0
M  V30 3870 C 361.451 -4.11543 -1.64763 0
M  V30 3871 H 358.671 -0.663484 -0.100148 0
M  V30 3872 H 361.215 -2.01614 0.342326 0
M  V30 3873 H 359.37 -3.50861 -1.64242 0
M  V30 3874 H 359.784 -5.23849 -0.261155 0
M  V30 3875 H 361.258 -5.15673 -1.96939 0
M  V30 3876 H 361.735 -3.56736 -2.56195 0
M  V30 3877 H 362.341 -4.13629 -0.989503 0
M  V30 3878 N 360.656 0.0484629 -1.57525 0
M  V30 3879 C 361.884 0.755421 -1.92616 0
M  V30 3880 C 362.299 1.69919 -0.822984 0
M  V30 3881 O 361.656 1.81378 0.202085 0
M  V30 3882 C 361.707 1.52915 -3.27566 0
M  V30 3883 O 361.428 0.62329 -4.33644 0
M  V30 3884 C 362.929 2.33502 -3.76818 0
M  V30 3885 H 360.149 0.213465 -0.63614 0
M  V30 3886 H 362.693 0.0117698 -2.04497 0
M  V30 3887 H 360.848 2.22486 -3.17142 0
M  V30 3888 H 361.262 1.16383 -5.11425 0
M  V30 3889 H 362.736 2.83214 -4.73808 0
M  V30 3890 H 363.213 3.14068 -3.07014 0
M  V30 3891 H 363.819 1.69043 -3.90262 0
M  V30 3892 N 362.134 1.5431 0.320358 0
M  V30 3893 C 363.097 1.83195 1.3774 0
M  V30 3894 C 364.097 0.703906 1.44575 0
M  V30 3895 O 365.287 0.972214 1.44546 0
M  V30 3896 C 362.419 1.99487 2.76438 0
M  V30 3897 H 363.612 2.77642 1.1338 0
M  V30 3898 H 361.165 1.46076 0.556012 0
M  V30 3899 H 361.9 1.07262 3.06048 0
M  V30 3900 H 361.685 2.81575 2.7287 0
M  V30 3901 H 363.175 2.23271 3.52902 0
M  V30 3902 N 363.613 -0.582584 1.46437 0
M  V30 3903 C 364.545 -1.70618 1.53043 0
M  V30 3904 C 365.558 -1.57322 0.418769 0
M  V30 3905 O 366.747 -1.64744 0.687136 0
M  V30 3906 C 363.847 -3.08869 1.39474 0
M  V30 3907 C 363.02 -3.48166 2.64762 0
M  V30 3908 C 362.079 -4.65478 2.4539 0
M  V30 3909 O 361.105 -4.71333 3.19114 0
M  V30 3910 N 362.307 -5.60365 1.51564 0
M  V30 3911 H 365.072 -1.65405 2.49923 0
M  V30 3912 H 362.633 -0.768567 1.42494 0
M  V30 3913 H 364.625 -3.85143 1.24287 0
M  V30 3914 H 363.195 -3.08449 0.507758 0
M  V30 3915 H 362.415 -2.61598 2.9489 0
M  V30 3916 H 363.703 -3.71188 3.4799 0
M  V30 3917 H 363.101 -5.5837 0.907705 0
M  V30 3918 H 361.658 -6.36068 1.4234 0
M  V30 3919 N 365.091 -1.34144 -0.827227 0
M  V30 3920 C 366.337 -1.26446 -1.58554 0
M  V30 3921 C 366.67 0.1664 -1.93486 0
M  V30 3922 O 365.945 1.1107 -1.59667 0
M  V30 3923 C 366.228 -2.15111 -2.8879 0
M  V30 3924 C 366.081 -3.66712 -2.60465 0
M  V30 3925 C 367.4 -2.03311 -3.90324 0
M  V30 3926 H 364.519 -0.46067 -0.575284 0
M  V30 3927 H 367.161 -1.64356 -0.953269 0
M  V30 3928 H 365.311 -1.8291 -3.42748 0
M  V30 3929 H 366.983 -4.09259 -2.1285 0
M  V30 3930 H 365.226 -3.88014 -1.93978 0
M  V30 3931 H 365.897 -4.24112 -3.53317 0
M  V30 3932 H 368.373 -2.31574 -3.45706 0
M  V30 3933 H 367.249 -2.67582 -4.79261 0
M  V30 3934 H 367.51 -1.00879 -4.30437 0
M  V30 3935 N 366.569 1.04691 -1.17803 0
M  V30 3936 C 367.499 2.14494 -0.92275 0
M  V30 3937 C 368.48 1.69546 0.137179 0
M  V30 3938 O 369.665 1.94195 -0.0141108 0
M  V30 3939 C 366.795 3.44491 -0.440803 0
M  V30 3940 C 365.749 4.03031 -1.4405 0
M  V30 3941 C 365.075 5.28432 -0.81631 0
M  V30 3942 C 366.375 4.39932 -2.81527 0
M  V30 3943 H 368.069 2.36107 -1.84103 0
M  V30 3944 H 365.615 1.1347 -0.886599 0
M  V30 3945 H 367.568 4.2066 -0.249602 0
M  V30 3946 H 366.292 3.22546 0.513025 0
M  V30 3947 H 364.951 3.28937 -1.61853 0
M  V30 3948 H 364.599 5.02792 0.144511 0
M  V30 3949 H 364.299 5.68559 -1.48371 0
M  V30 3950 H 365.823 6.07284 -0.635496 0
M  V30 3951 H 367.237 5.07113 -2.67412 0
M  V30 3952 H 365.634 4.9109 -3.44892 0
M  V30 3953 H 366.704 3.50045 -3.35554 0
M  V30 3954 N 368.047 0.979072 1.23499 0
M  V30 3955 C 369.296 0.642751 1.91185 0
M  V30 3956 C 369.609 -0.827253 1.77245 0
M  V30 3957 O 370.815 -1.27458 2.39722 0
M  V30 3958 C 369.271 1.09901 3.42709 0
M  V30 3959 C 368.879 2.59327 3.65313 0
M  V30 3960 C 370.623 0.836371 4.16179 0
M  V30 3961 C 368.53 2.98627 5.10467 0
M  V30 3962 H 367.46 0.236698 0.715884 0
M  V30 3963 H 370.111 1.1868 1.39955 0
M  V30 3964 H 368.493 0.48319 3.93041 0
M  V30 3965 H 369.667 3.26136 3.25533 0
M  V30 3966 H 367.982 2.83323 3.05151 0
M  V30 3967 H 370.579 1.10586 5.23139 0
M  V30 3968 H 370.922 -0.227509 4.15678 0
M  V30 3969 H 371.455 1.41371 3.71832 0
M  V30 3970 H 368.194 4.04133 5.16098 0
M  V30 3971 H 367.714 2.3651 5.51201 0
M  V30 3972 H 369.393 2.89159 5.78788 0
M  V30 3973 N 369.525 -1.3858 0.750561 0
M  V30 3974 C 370.941 -1.53759 0.427824 0
M  V30 3975 C 371.141 -1.71401 -1.05943 0
M  V30 3976 O 370.197 -1.72331 -1.84549 0
M  V30 3977 C 371.51 -2.74642 1.22443 0
M  V30 3978 C 373.058 -2.88489 1.2142 0
M  V30 3979 C 373.533 -4.12329 1.9937 0
M  V30 3980 N 375.024 -4.194 1.96616 0
M  V30 3981 C 375.759 -5.14209 2.53727 0
M  V30 3982 N 375.255 -6.14709 3.19539 0
M  V30 3983 N 377.048 -5.06537 2.43673 0
M  V30 3984 H 369.199 -1.25377 1.71447 0
M  V30 3985 H 371.462 -0.608844 0.726645 0
M  V30 3986 H 371.168 -2.68 2.27747 0
M  V30 3987 H 371.042 -3.67745 0.839273 0
M  V30 3988 H 373.429 -2.94614 0.169232 0
M  V30 3989 H 373.51 -1.96406 1.63885 0
M  V30 3990 H 373.154 -4.06966 3.03877 0
M  V30 3991 H 373.084 -5.03486 1.54302 0
M  V30 3992 H 375.575 -3.47421 1.48684 0
M  V30 3993 H 375.888 -6.8354 3.60545 0
M  V30 3994 H 374.233 -6.1505 3.23633 0
M  V30 3995 H 377.424 -4.26962 1.91889 0
M  V30 3996 H 377.597 -5.80245 2.88479 0
M  V30 3997 N 371.003 -0.499398 -1.49478 0
M  V30 3998 C 372.25 0.0456899 -2.02448 0
M  V30 3999 C 372.578 1.37142 -1.37921 0
M  V30 4000 O 371.833 1.89111 -0.503544 0
M  V30 4001 C 372.132 0.248424 -3.56536 0
M  V30 4002 C 371.798 -0.999107 -4.39692 0
M  V30 4003 C 370.46 -1.34108 -4.62135 0
M  V30 4004 C 372.812 -1.82842 -4.88076 0
M  V30 4005 C 370.14 -2.51191 -5.30208 0
M  V30 4006 C 372.492 -2.99076 -5.57437 0
M  V30 4007 C 371.156 -3.33655 -5.78127 0
M  V30 4008 H 370.426 0.0167191 -0.740811 0
M  V30 4009 H 373.073 -0.65923 -1.79795 0
M  V30 4010 H 371.378 1.03586 -3.77859 0
M  V30 4011 H 373.075 0.684605 -3.95113 0
M  V30 4012 H 369.665 -0.722729 -4.22463 0
M  V30 4013 H 373.849 -1.57737 -4.70566 0
M  V30 4014 H 369.105 -2.78221 -5.44429 0
M  V30 4015 H 373.279 -3.63664 -5.93904 0
M  V30 4016 H 370.906 -4.24483 -6.30649 0
M  V30 4017 N 372.481 1.55866 -0.233164 0
M  V30 4018 C 373.892 1.847 0.272554 0
M  V30 4019 C 374.243 1.15477 1.58617 0
M  V30 4020 O 373.368 0.42841 2.12117 0
M  V30 4021 C 373.963 3.35071 0.501299 0
M  V30 4022 C 372.522 3.6418 0.951304 0
M  V30 4023 C 371.669 2.77292 0.0208209 0
M  V30 4024 H 374.62 1.52005 -0.456074 0
M  V30 4025 H 374.641 3.55906 1.34577 0
M  V30 4026 H 374.153 3.85424 -0.454936 0
M  V30 4027 H 372.254 3.19293 1.92049 0
M  V30 4028 H 372.367 4.72071 0.817675 0
M  V30 4029 H 370.731 2.49131 0.529723 0
M  V30 4030 H 371.514 3.30448 -0.93054 0
M  V30 4031 N 373.959 -0.0401083 1.57549 0
M  V30 4032 C 374.892 -1.07689 2.01192 0
M  V30 4033 C 375.87 -1.358 0.894273 0
M  V30 4034 O 377.054 -1.48642 1.15921 0
M  V30 4035 C 374.181 -2.41418 2.3756 0
M  V30 4036 C 373.227 -2.29237 3.59656 0
M  V30 4037 S 374.06 -1.65628 5.09242 0
M  V30 4038 C 375.216 -3.0087 5.48843 0
M  V30 4039 H 375.449 -0.705108 2.88817 0
M  V30 4040 H 372.982 -0.249724 1.52367 0
M  V30 4041 H 374.94 -3.18329 2.59186 0
M  V30 4042 H 373.601 -2.75747 1.50407 0
M  V30 4043 H 372.794 -3.27932 3.82722 0
M  V30 4044 H 372.396 -1.60469 3.37825 0
M  V30 4045 H 374.688 -3.97201 5.48851 0
M  V30 4046 H 375.631 -2.82549 6.49286 0
M  V30 4047 H 376.039 -3.02934 4.76331 0
M  V30 4048 N 375.437 -1.54477 -0.31217 0
M  V30 4049 C 376.369 -1.81011 -1.40598 0
M  V30 4050 C 377.382 -0.692546 -1.47335 0
M  V30 4051 O 378.571 -0.969847 -1.49854 0
M  V30 4052 C 375.671 -1.92307 -2.79054 0
M  V30 4053 C 374.844 -3.22594 -2.95384 0
M  V30 4054 C 373.903 -3.24448 -4.1427 0
M  V30 4055 O 372.929 -3.98035 -4.06887 0
M  V30 4056 N 374.131 -2.49042 -5.24365 0
M  V30 4057 H 376.896 -2.75408 -1.18196 0
M  V30 4058 H 374.457 -1.53914 -0.502202 0
M  V30 4059 H 376.449 -1.90962 -3.56813 0
M  V30 4060 H 375.019 -1.04955 -2.94454 0
M  V30 4061 H 374.239 -3.36806 -2.04831 0
M  V30 4062 H 375.527 -4.08593 -3.03198 0
M  V30 4063 H 374.925 -1.88867 -5.33241 0
M  V30 4064 H 373.482 -2.53463 -6.005 0
M  V30 4065 N 376.915 0.57481 -1.46744 0
M  V30 4066 C 378.331 0.898981 -1.31873 0
M  V30 4067 C 378.531 1.99313 -0.29605 0
M  V30 4068 O 377.587 2.50728 0.298621 0
M  V30 4069 C 378.9 1.30886 -2.7072 0
M  V30 4070 C 380.448 1.42127 -2.78871 0
M  V30 4071 C 380.923 1.86478 -4.18318 0
M  V30 4072 N 382.414 1.93658 -4.20774 0
M  V30 4073 C 383.149 2.29267 -5.2557 0
M  V30 4074 N 382.645 2.63612 -6.40688 0
M  V30 4075 N 384.438 2.29889 -5.1294 0
M  V30 4076 H 376.589 -0.147839 -2.11885 0
M  V30 4077 H 378.852 -0.00347013 -0.947994 0
M  V30 4078 H 378.558 0.578853 -3.46904 0
M  V30 4079 H 378.432 2.26874 -3.01343 0
M  V30 4080 H 380.819 2.14213 -2.0297 0
M  V30 4081 H 380.9 0.443705 -2.51922 0
M  V30 4082 H 380.544 1.14968 -4.94717 0
M  V30 4083 H 380.474 2.85207 -4.42679 0
M  V30 4084 H 382.965 1.69574 -3.37718 0
M  V30 4085 H 383.278 2.89759 -7.16421 0
M  V30 4086 H 381.623 2.61232 -6.44036 0
M  V30 4087 H 384.814 2.02485 -4.22039 0
M  V30 4088 H 384.987 2.57312 -5.94722 0
M  V30 4089 N 378.394 1.34581 0.820102 0
M  V30 4090 C 379.342 1.26401 1.95258 0
M  V30 4091 C 380.336 0.161553 1.68628 0
M  V30 4092 O 381.542 0.326703 1.7701 0
M  V30 4093 H 377.917 0.392749 0.64129 0
M  V30 4094 H 379.888 2.22105 1.99279 0
M  V30 4095 C 378.637 1.03919 3.31807 0
M  V30 4096 H 377.96 1.87984 3.52848 0
M  V30 4097 H 379.4 1.02232 4.11491 0
M  V30 4098 C 377.859 -0.257433 3.35915 0
M  V30 4099 O 378.389 -1.25784 3.81499 0
M  V30 4100 N 376.595 -0.291524 2.89134 0
M  V30 4101 H 376.142 0.523161 2.52232 0
M  V30 4102 H 376.1 -1.15883 2.92264 0
M  V30 4103 N 379.872 -1.04064 1.18357 0
M  V30 4104 C 380.802 -2.14001 0.934113 0
M  V30 4105 C 381.783 -1.69616 -0.128186 0
M  V30 4106 O 382.968 -1.94185 0.0244093 0
M  V30 4107 C 380.098 -3.44253 0.459066 0
M  V30 4108 C 379.052 -4.02261 1.46185 0
M  V30 4109 C 378.378 -5.27992 0.844322 0
M  V30 4110 C 379.678 -4.38432 2.83856 0
M  V30 4111 H 381.372 -2.35127 1.85352 0
M  V30 4112 H 378.918 -1.12998 0.892604 0
M  V30 4113 H 380.871 -4.20522 0.271907 0
M  V30 4114 H 379.595 -3.22813 -0.495912 0
M  V30 4115 H 378.254 -3.28074 1.63595 0
M  V30 4116 H 377.902 -5.02862 -0.117845 0
M  V30 4117 H 377.602 -5.67765 1.51384 0
M  V30 4118 H 379.126 -6.06938 0.667693 0
M  V30 4119 H 380.54 -5.05688 2.70098 0
M  V30 4120 H 378.937 -4.89254 3.47491 0
M  V30 4121 H 380.007 -3.4826 3.37406 0
M  V30 4122 N 381.35 -0.985608 -1.22978 0
M  V30 4123 C 382.596 -0.65836 -1.91816 0
M  V30 4124 C 382.929 0.806692 -1.76653 0
M  V30 4125 O 382.204 1.58252 -1.13078 0
M  V30 4126 C 382.487 -1.056 -3.44268 0
M  V30 4127 C 382.34 -2.57906 -3.68516 0
M  V30 4128 C 383.659 -0.603781 -4.35939 0
M  V30 4129 H 380.778 -0.24065 -0.696604 0
M  V30 4130 H 383.42 -1.22783 -1.44998 0
M  V30 4131 H 381.57 -0.571445 -3.84274 0
M  V30 4132 H 383.242 -3.13976 -3.3796 0
M  V30 4133 H 381.485 -3.00305 -3.13048 0
M  V30 4134 H 382.156 -2.80779 -4.75255 0
M  V30 4135 H 384.632 -1.01987 -4.03408 0
M  V30 4136 H 383.508 -0.910383 -5.41298 0
M  V30 4137 H 383.769 0.495761 -4.39312 0
M  V30 4138 N 382.828 1.3818 -0.7579 0
M  V30 4139 C 384.074 2.00316 -0.316453 0
M  V30 4140 C 384.407 1.60026 1.10025 0
M  V30 4141 O 383.682 0.839835 1.75434 0
M  V30 4142 C 383.965 3.57349 -0.444245 0
M  V30 4143 C 383.818 4.07591 -1.90236 0
M  V30 4144 C 385.137 4.3981 0.1598 0
M  V30 4145 H 382.256 0.727741 -0.116459 0
M  V30 4146 H 384.898 1.6406 -0.958352 0
M  V30 4147 H 383.048 3.88365 0.102233 0
M  V30 4148 H 384.72 3.87199 -2.50748 0
M  V30 4149 H 382.963 3.60297 -2.41595 0
M  V30 4150 H 383.634 5.16677 -1.94291 0
M  V30 4151 H 386.11 4.14971 -0.306314 0
M  V30 4152 H 384.986 5.48885 0.0401675 0
M  V30 4153 H 385.247 4.24102 1.24859 0
M  V30 4154 N 384.306 0.507319 1.49211 0
M  V30 4155 C 385.555 -0.0368315 2.01666 0
M  V30 4156 C 385.868 -1.37459 1.39156 0
M  V30 4157 O 387.074 -2.00579 1.82976 0
M  V30 4158 C 385.53 -0.116089 3.59713 0
M  V30 4159 C 385.138 1.2154 4.31198 0
M  V30 4160 C 386.882 -0.610268 4.2009 0
M  V30 4161 C 384.789 1.09796 5.81119 0
M  V30 4162 H 383.719 -0.0175376 0.753796 0
M  V30 4163 H 386.37 0.647691 1.71689 0
M  V30 4164 H 384.752 -0.8652 3.86433 0
M  V30 4165 H 385.926 1.9783 4.16173 0
M  V30 4166 H 384.241 1.64352 3.82593 0
M  V30 4167 H 386.838 -0.715742 5.29888 0
M  V30 4168 H 387.181 -1.61064 3.8388 0
M  V30 4169 H 387.714 0.0824916 3.97714 0
M  V30 4170 H 384.453 2.0728 6.21864 0
M  V30 4171 H 383.973 0.376058 5.9862 0
M  V30 4172 H 385.652 0.779281 6.4229 0
M  V30 4173 N 385.784 -1.5574 0.241426 0
M  V30 4174 C 387.195 -1.84842 -0.262755 0
M  V30 4175 C 387.546 -1.16317 -1.58003 0
M  V30 4176 O 386.671 -0.439653 -2.11887 0
M  V30 4177 C 387.266 -3.35332 -0.483523 0
M  V30 4178 C 385.825 -3.6468 -0.931977 0
M  V30 4179 C 384.972 -2.77299 -0.0061151 0
M  V30 4180 H 387.923 -1.51761 0.464129 0
M  V30 4181 H 387.944 -3.56615 -1.32688 0
M  V30 4182 H 387.456 -3.85178 0.47537 0
M  V30 4183 H 385.557 -3.20307 -1.90353 0
M  V30 4184 H 385.67 -4.72498 -0.792628 0
M  V30 4185 H 384.034 -2.49408 -0.516503 0
M  V30 4186 H 384.817 -3.2995 0.948052 0
M  V30 4187 N 387.262 0.0317525 -1.57568 0
M  V30 4188 C 388.209 1.0332 -2.06382 0
M  V30 4189 C 389.179 1.36082 -0.952414 0
M  V30 4190 O 390.364 1.46466 -1.2228 0
M  V30 4191 C 387.504 2.32989 -2.54578 0
M  V30 4192 C 386.617 2.0641 -3.79498 0
M  V30 4193 C 385.752 3.2993 -4.16317 0
M  V30 4194 C 384.791 2.98893 -5.34162 0
M  V30 4195 N 383.928 4.14857 -5.66426 0
M  V30 4196 H 388.768 0.609982 -2.9169 0
M  V30 4197 H 386.305 0.289573 -1.44222 0
M  V30 4198 H 388.263 3.0875 -2.80587 0
M  V30 4199 H 386.893 2.73039 -1.7219 0
M  V30 4200 H 385.945 1.21158 -3.6059 0
M  V30 4201 H 387.257 1.79513 -4.65378 0
M  V30 4202 H 386.411 4.1406 -4.4344 0
M  V30 4203 H 385.15 3.59938 -3.29083 0
M  V30 4204 H 384.155 2.13164 -5.06795 0
M  V30 4205 H 385.38 2.70165 -6.23047 0
M  V30 4206 H 383.326 4.44821 -4.82151 0
M  V30 4207 H 383.243 3.91374 -6.4681 0
M  V30 4208 H 384.511 4.99868 -5.98124 0
M  V30 4209 N 388.74 1.54641 0.303973 0
M  V30 4210 C 389.965 1.78092 1.06292 0
M  V30 4211 C 390.39 0.537342 1.80262 0
M  V30 4212 O 389.748 -0.511993 1.7392 0
M  V30 4213 C 389.796 2.98612 2.02147 0
M  V30 4214 O 388.9 2.71528 3.10397 0
M  V30 4215 H 388.241 0.589548 0.305497 0
M  V30 4216 H 390.771 2.01716 0.3423 0
M  V30 4217 H 390.781 3.265 2.44667 0
M  V30 4218 H 389.456 3.88785 1.47714 0
M  V30 4219 H 388.033 2.54648 2.72413 0
M  V30 4220 N 390.218 -0.567019 1.47046 0
M  V30 4221 C 391.464 -1.32658 1.53394 0
M  V30 4222 C 391.797 -1.93254 0.19148 0
M  V30 4223 O 391.072 -1.77338 -0.798844 0
M  V30 4224 C 391.355 -2.44412 2.64452 0
M  V30 4225 C 391.208 -1.88749 4.08282 0
M  V30 4226 C 392.527 -3.46387 2.71485 0
M  V30 4227 H 389.646 -0.48098 0.558415 0
M  V30 4228 H 392.288 -0.635481 1.79058 0
M  V30 4229 H 390.438 -3.03363 2.427 0
M  V30 4230 H 392.11 -1.34134 4.41368 0
M  V30 4231 H 390.353 -1.19481 4.17021 0
M  V30 4232 H 391.024 -2.69491 4.81745 0
M  V30 4233 H 393.5 -2.9734 2.91081 0
M  V30 4234 H 392.376 -4.2202 3.50985 0
M  V30 4235 H 392.637 -4.04616 1.78153 0
M  V30 4236 N 391.696 -1.35014 -0.812953 0
M  V30 4237 C 392.924 -1.31031 -1.6012 0
M  V30 4238 C 393.339 0.113558 -1.88458 0
M  V30 4239 O 392.696 1.06363 -1.48301 0
M  V30 4240 C 392.747 -2.10872 -2.93624 0
M  V30 4241 O 392.468 -3.47706 -2.66518 0
M  V30 4242 C 393.969 -2.14401 -3.88004 0
M  V30 4243 H 391.189 -0.45037 -0.497401 0
M  V30 4244 H 393.733 -1.77775 -1.01076 0
M  V30 4245 H 391.888 -1.67744 -3.492 0
M  V30 4246 H 392.302 -3.89097 -3.51715 0
M  V30 4247 H 393.776 -2.74669 -4.78812 0
M  V30 4248 H 394.253 -1.14105 -4.24119 0
M  V30 4249 H 394.859 -2.57662 -3.38364 0
M  V30 4250 N 393.175 1.03435 -1.18907 0
M  V30 4251 C 394.586 1.58195 -0.991523 0
M  V30 4252 C 394.937 1.90801 0.457081 0
M  V30 4253 O 394.062 1.70272 1.33553 0
M  V30 4254 C 394.657 2.87432 -1.79355 0
M  V30 4255 C 393.216 3.38785 -1.64017 0
M  V30 4256 C 392.363 2.12292 -1.78402 0
M  V30 4257 H 395.314 0.860299 -1.33359 0
M  V30 4258 H 395.335 3.58096 -1.28638 0
M  V30 4259 H 394.847 2.63669 -2.84781 0
M  V30 4260 H 392.948 3.67547 -0.611536 0
M  V30 4261 H 393.061 4.12186 -2.44212 0
M  V30 4262 H 391.425 2.23901 -1.2141 0
M  V30 4263 H 392.208 1.90977 -2.85277 0
M  V30 4264 N 394.653 0.992116 1.22453 0
M  V30 4265 C 395.563 0.55065 2.28046 0
M  V30 4266 C 396.579 -0.400189 1.69335 0
M  V30 4267 O 397.755 -0.267215 1.99619 0
M  V30 4268 C 394.82 -0.128496 3.46462 0
M  V30 4269 C 393.881 0.865208 4.20491 0
M  V30 4270 C 393.114 0.218377 5.33253 0
M  V30 4271 O 393.337 -0.987894 5.6178 0
M  V30 4272 O 392.271 0.922845 5.94783 0
M  V30 4273 H 396.097 1.4291 2.67975 0
M  V30 4274 H 393.682 0.760326 1.28606 0
M  V30 4275 H 395.564 -0.508947 4.18315 0
M  V30 4276 H 394.239 -0.981526 3.0846 0
M  V30 4277 H 393.146 1.29658 3.50913 0
M  V30 4278 H 394.479 1.68741 4.62371 0
M  V30 4279 N 396.131 -1.37776 0.765217 0
M  V30 4280 C 397.547 -1.53297 0.444108 0
M  V30 4281 C 397.747 -1.72515 -1.04119 0
M  V30 4282 O 396.803 -1.74278 -1.82711 0
M  V30 4283 C 398.116 -2.73328 1.25349 0
M  V30 4284 C 399.664 -2.87185 1.24473 0
M  V30 4285 C 400.139 -4.10191 2.03733 0
M  V30 4286 N 401.63 -4.17291 2.01053 0
M  V30 4287 C 402.365 -5.11488 2.59166 0
M  V30 4288 N 401.861 -6.11285 3.26041 0
M  V30 4289 N 403.654 -5.03924 2.49032 0
M  V30 4290 H 395.805 -1.23552 1.72768 0
M  V30 4291 H 398.068 -0.601103 0.733062 0
M  V30 4292 H 397.774 -2.6557 2.30577 0
M  V30 4293 H 397.648 -3.66834 0.87823 0
M  V30 4294 H 400.035 -2.94418 0.20047 0
M  V30 4295 H 400.116 -1.94657 1.65959 0
M  V30 4296 H 399.76 -4.0372 3.08176 0
M  V30 4297 H 399.69 -5.01821 1.59633 0
M  V30 4298 H 402.181 -3.45825 1.5236 0
M  V30 4299 H 402.494 -6.79678 3.67774 0
M  V30 4300 H 400.839 -6.11583 3.30138 0
M  V30 4301 H 404.03 -4.24902 1.96407 0
M  V30 4302 H 404.203 -5.77152 2.94617 0
M  V30 4303 N 397.609 -0.515225 -1.4894 0
M  V30 4304 C 398.858 0.0261361 -2.01683 0
M  V30 4305 C 399.171 1.36719 -1.39883 0
M  V30 4306 O 400.377 1.99606 -1.84037 0
M  V30 4307 C 398.833 0.0970111 -3.59769 0
M  V30 4308 C 398.441 -1.23825 -4.30548 0
M  V30 4309 C 400.185 0.587981 -4.20408 0
M  V30 4310 C 398.092 -1.12877 -5.80528 0
M  V30 4311 H 397.022 0.0135398 -0.753878 0
M  V30 4312 H 399.673 -0.656787 -1.71343 0
M  V30 4313 H 398.055 0.844694 -3.86886 0
M  V30 4314 H 399.229 -2.00034 -4.15118 0
M  V30 4315 H 397.544 -1.66379 -3.81716 0
M  V30 4316 H 400.141 0.68763 -5.3026 0
M  V30 4317 H 400.484 1.59026 -3.84729 0
M  V30 4318 H 401.017 -0.103582 -3.97665 0
M  V30 4319 H 397.756 -2.10575 -6.20756 0
M  V30 4320 H 397.276 -0.407799 -5.98412 0
M  V30 4321 H 398.955 -0.813332 -6.41868 0
M  V30 4322 N 399.087 1.5561 -0.249682 0
M  V30 4323 C 400.05 2.20217 0.635394 0
M  V30 4324 C 401.05 1.17227 1.10066 0
M  V30 4325 O 402.24 1.42292 1.00492 0
M  V30 4326 C 399.372 2.84794 1.87363 0
M  V30 4327 H 400.565 2.99814 0.0716752 0
M  V30 4328 H 398.118 1.563 -0.000153234 0
M  V30 4329 H 398.853 2.09142 2.47851 0
M  V30 4330 H 398.638 3.60241 1.5482 0
M  V30 4331 H 400.128 3.3423 2.5036 0
M  V30 4332 N 400.565 -0.0233959 1.57583 0
M  V30 4333 C 401.475 -1.03907 2.10334 0
M  V30 4334 C 402.491 -1.39257 1.04323 0
M  V30 4335 O 403.667 -1.48462 1.36091 0
M  V30 4336 C 400.732 -2.31938 2.57693 0
M  V30 4337 C 399.793 -2.03117 3.78209 0
M  V30 4338 C 399.026 -3.25043 4.233 0
M  V30 4339 O 399.249 -4.35916 3.67876 0
M  V30 4340 O 398.183 -3.10411 5.15683 0
M  V30 4341 H 402.009 -0.620748 2.97288 0
M  V30 4342 H 399.594 -0.240743 1.47448 0
M  V30 4343 H 401.476 -3.07196 2.88458 0
M  V30 4344 H 400.151 -2.73055 1.73847 0
M  V30 4345 H 399.058 -1.25408 3.52454 0
M  V30 4346 H 400.391 -1.66852 4.63056 0
M  V30 4347 N 402.043 -1.548 -0.295768 0
M  V30 4348 C 402.991 -1.86874 -1.38495 0
M  V30 4349 C 403.985 -0.742938 -1.52239 0
M  V30 4350 O 405.191 -0.926999 -1.54294 0
M  V30 4351 H 401.566 -0.592786 -0.462719 0
M  V30 4352 H 403.537 -2.77904 -1.08682 0
M  V30 4353 C 402.286 -2.13732 -2.74252 0
M  V30 4354 H 401.609 -2.99835 -2.64459 0
M  V30 4355 H 403.049 -2.4011 -3.49461 0
M  V30 4356 C 401.508 -0.937539 -3.23592 0
M  V30 4357 O 402.038 -0.160665 -4.01379 0
M  V30 4358 N 400.244 -0.741478 -2.80981 0
M  V30 4359 H 399.791 -1.37489 -2.1784 0
M  V30 4360 H 399.749 0.0597103 -3.14343 0
M  V30 4361 N 403.521 0.559213 -1.47345 0
M  V30 4362 C 404.768 1.31648 -1.53867 0
M  V30 4363 C 405.096 1.93468 -0.200104 0
M  V30 4364 O 404.351 1.78295 0.806799 0
M  V30 4365 C 404.65 2.44853 -2.6035 0
M  V30 4366 C 404.316 2.00876 -4.03683 0
M  V30 4367 C 402.978 1.88599 -4.42701 0
M  V30 4368 C 405.33 1.67279 -4.93626 0
M  V30 4369 C 402.658 1.41017 -5.69501 0
M  V30 4370 C 405.01 1.21169 -6.20887 0
M  V30 4371 C 403.674 1.07487 -6.58789 0
M  V30 4372 H 402.944 0.481734 -0.56304 0
M  V30 4373 H 405.591 0.627301 -1.80934 0
M  V30 4374 H 403.896 3.19318 -2.27032 0
M  V30 4375 H 405.593 3.03039 -2.62619 0
M  V30 4376 H 402.183 2.11374 -3.72853 0
M  V30 4377 H 406.367 1.75638 -4.64182 0
M  V30 4378 H 401.623 1.29086 -5.97618 0
M  V30 4379 H 405.797 0.942345 -6.89995 0
M  V30 4380 H 403.424 0.703946 -7.56934 0
M  V30 4381 N 404.999 1.35443 0.805782 0
M  V30 4382 C 405.946 1.28431 1.91766 0
M  V30 4383 C 406.916 0.156102 1.65365 0
M  V30 4384 O 408.101 0.339936 1.87747 0
M  V30 4385 C 405.241 1.06301 3.2832 0
M  V30 4386 C 404.354 2.2805 3.66902 0
M  V30 4387 C 403.489 1.99064 4.92491 0
M  V30 4388 C 402.528 3.16863 5.23703 0
M  V30 4389 N 401.665 2.87647 6.40471 0
M  V30 4390 H 406.505 2.23511 1.97096 0
M  V30 4391 H 404.042 1.11105 0.964054 0
M  V30 4392 H 406 0.915012 4.07042 0
M  V30 4393 H 404.63 0.148822 3.22457 0
M  V30 4394 H 403.682 2.53711 2.83434 0
M  V30 4395 H 404.994 3.1601 3.85927 0
M  V30 4396 H 404.148 1.81099 5.7904 0
M  V30 4397 H 402.887 1.0839 4.75503 0
M  V30 4398 H 401.892 3.35404 4.35642 0
M  V30 4399 H 403.117 4.08339 5.4262 0
M  V30 4400 H 401.063 1.99568 6.24907 0
M  V30 4401 H 400.98 3.69141 6.59751 0
M  V30 4402 H 402.248 2.73226 7.30047 0
M  V30 4403 N 406.477 -1.02803 1.19454 0
M  V30 4404 C 407.723 -1.76478 0.999171 0
M  V30 4405 C 408.056 -1.88456 -0.468828 0
M  V30 4406 O 407.331 -1.40198 -1.34814 0
M  V30 4407 C 407.614 -3.19044 1.66981 0
M  V30 4408 C 407.467 -3.14932 3.21151 0
M  V30 4409 C 408.786 -4.17456 1.39349 0
M  V30 4410 H 405.905 -0.640614 0.364393 0
M  V30 4411 H 408.547 -1.20005 1.47305 0
M  V30 4412 H 406.697 -3.67263 1.2669 0
M  V30 4413 H 408.369 -2.74605 3.70661 0
M  V30 4414 H 406.612 -2.52625 3.52652 0
M  V30 4415 H 407.283 -4.1566 3.63223 0
M  V30 4416 H 409.759 -3.77842 1.74283 0
M  V30 4417 H 408.635 -5.154 1.88823 0
M  V30 4418 H 408.896 -4.40949 0.318813 0
M  V30 4419 N 407.956 -0.998596 -1.21925 0
M  V30 4420 C 409.203 -0.677663 -1.90824 0
M  V30 4421 C 409.531 0.790905 -1.77693 0
M  V30 4422 O 408.786 1.58817 -1.14349 0
M  V30 4423 C 409.085 -1.03648 -3.42041 0
M  V30 4424 C 408.751 -2.49825 -3.75364 0
M  V30 4425 C 407.413 -2.8977 -3.8417 0
M  V30 4426 C 409.765 -3.44545 -3.91073 0
M  V30 4427 C 407.093 -4.23412 -4.06127 0
M  V30 4428 C 409.445 -4.77853 -4.14535 0
M  V30 4429 C 408.109 -5.17531 -4.21566 0
M  V30 4430 H 407.379 -0.247975 -0.698276 0
M  V30 4431 H 410.026 -1.25584 -1.44571 0
M  V30 4432 H 408.331 -0.376457 -3.89987 0
M  V30 4433 H 410.028 -0.766113 -3.93614 0
M  V30 4434 H 406.618 -2.17866 -3.69097 0
M  V30 4435 H 410.802 -3.14853 -3.83642 0
M  V30 4436 H 406.058 -4.53734 -4.09799 0
M  V30 4437 H 410.232 -5.51189 -4.25633 0
M  V30 4438 H 407.859 -6.21102 -4.38333 0
M  V30 4439 N 409.434 1.37368 -0.772513 0
M  V30 4440 C 410.711 1.93839 -0.26188 0
M  V30 4441 C 411.091 1.7061 1.24319 0
M  V30 4442 O 410.439 1.05534 2.02669 0
M  V30 4443 C 410.649 3.43154 -0.636102 0
M  V30 4444 C 411.997 4.20249 -0.606324 0
M  V30 4445 O 413.021 3.5152 -0.575538 0
M  V30 4446 O 411.88 5.42809 -0.634086 0
M  V30 4447 H 408.974 0.82478 -0.0605555 0
M  V30 4448 H 411.52 1.4665 -0.853917 0
M  V30 4449 H 410.292 3.53647 -1.6748 0
M  V30 4450 H 409.915 3.97596 -0.0170516 0
M  V30 4451 N 410.912 0.523116 1.48665 0
M  V30 4452 C 412.159 -0.0134763 2.02496 0
M  V30 4453 C 412.487 -1.3493 1.40086 0
M  V30 4454 O 411.742 -1.88286 0.533567 0
M  V30 4455 C 412.041 -0.191671 3.56886 0
M  V30 4456 C 411.707 1.06893 4.38046 0
M  V30 4457 C 410.369 1.41443 4.59943 0
M  V30 4458 C 412.721 1.90584 4.85106 0
M  V30 4459 C 410.049 2.59594 5.26144 0
M  V30 4460 C 412.401 3.07907 5.52609 0
M  V30 4461 C 411.065 3.42811 5.72745 0
M  V30 4462 H 410.335 -0.00493133 0.740984 0
M  V30 4463 H 412.982 0.687751 1.78724 0
M  V30 4464 H 411.287 -0.97561 3.79459 0
M  V30 4465 H 412.984 -0.621659 3.96152 0
M  V30 4466 H 409.574 0.789848 4.21259 0
M  V30 4467 H 413.758 1.65203 4.67997 0
M  V30 4468 H 409.014 2.86847 5.39934 0
M  V30 4469 H 413.188 3.73066 5.88043 0
M  V30 4470 H 410.815 4.34462 6.23816 0
M  V30 4471 N 412.39 -1.55475 0.257931 0
M  V30 4472 C 413.3 -2.2549 -0.647425 0
M  V30 4473 C 414.316 -1.2748 -1.18427 0
M  V30 4474 O 415.492 -1.6038 -1.2182 0
M  V30 4475 C 412.557 -2.94916 -1.82278 0
M  V30 4476 C 411.618 -4.08363 -1.32432 0
M  V30 4477 C 410.851 -4.74469 -2.44366 0
M  V30 4478 O 411.074 -4.39701 -3.63344 0
M  V30 4479 O 410.008 -5.62763 -2.13497 0
M  V30 4480 H 413.834 -3.03593 -0.0807707 0
M  V30 4481 H 411.419 -1.49377 0.0259962 0
M  V30 4482 H 413.301 -3.38606 -2.50846 0
M  V30 4483 H 411.976 -2.19744 -2.37685 0
M  V30 4484 H 410.883 -3.69166 -0.605605 0
M  V30 4485 H 412.216 -4.85385 -0.816211 0
M  V30 4486 N 413.868 0.0150385 -1.57593 0
M  V30 4487 C 414.798 1.01047 -2.10503 0
M  V30 4488 C 415.779 1.36816 -1.01071 0
M  V30 4489 O 416.964 1.45455 -1.28672 0
M  V30 4490 C 414.094 2.30708 -2.59598 0
M  V30 4491 C 413.048 2.09142 -3.73421 0
M  V30 4492 C 412.374 3.44685 -4.08774 0
M  V30 4493 C 413.674 1.46619 -5.01298 0
M  V30 4494 H 415.368 0.569978 -2.93925 0
M  V30 4495 H 412.914 0.272724 -1.41394 0
M  V30 4496 H 414.867 3.00687 -2.95238 0
M  V30 4497 H 413.591 2.76843 -1.73279 0
M  V30 4498 H 412.25 1.41592 -3.38153 0
M  V30 4499 H 411.898 3.88495 -3.195 0
M  V30 4500 H 411.598 3.31077 -4.8545 0
M  V30 4501 H 413.122 4.16004 -4.4696 0
M  V30 4502 H 414.536 2.06535 -5.34805 0
M  V30 4503 H 412.933 1.43544 -5.82679 0
M  V30 4504 H 414.003 0.433611 -4.82957 0
M  V30 4505 N 415.346 1.54954 0.287554 0
M  V30 4506 C 416.571 1.79209 1.04397 0
M  V30 4507 C 416.996 0.556431 1.79682 0
M  V30 4508 O 416.354 -0.493518 1.74454 0
M  V30 4509 C 416.402 3.00739 1.98969 0
M  V30 4510 O 415.506 2.74805 3.075 0
M  V30 4511 H 414.847 0.592755 0.299227 0
M  V30 4512 H 417.377 2.02068 0.320886 0
M  V30 4513 H 417.387 3.29077 2.4119 0
M  V30 4514 H 416.062 3.90329 1.43582 0
M  V30 4515 H 414.639 2.57523 2.69697 0
M  V30 4516 N 416.824 -0.551391 1.4764 0
M  V30 4517 C 418.049 -1.33837 1.58437 0
M  V30 4518 C 418.474 -1.866 0.237063 0
M  V30 4519 O 417.832 -1.6328 -0.787994 0
M  V30 4520 C 417.88 -2.48014 2.61766 0
M  V30 4521 O 416.984 -3.50419 2.1744 0
M  V30 4522 H 416.325 -0.397299 0.532024 0
M  V30 4523 H 418.855 -0.665759 1.93465 0
M  V30 4524 H 418.865 -2.94503 2.82369 0
M  V30 4525 H 417.54 -2.08969 3.5959 0
M  V30 4526 H 416.117 -3.10196 2.06961 0
M  V30 4527 N 418.302 -1.35869 -0.798587 0
M  V30 4528 C 419.234 -1.25305 -1.91915 0
M  V30 4529 C 420.247 -0.174548 -1.61862 0
M  V30 4530 O 421.436 -0.428499 -1.73281 0
M  V30 4531 C 418.536 -0.9086 -3.26493 0
M  V30 4532 C 417.709 -2.08711 -3.84394 0
M  V30 4533 C 416.768 -1.71717 -4.97393 0
M  V30 4534 O 415.794 -2.43692 -5.14396 0
M  V30 4535 N 416.996 -0.645473 -5.769 0
M  V30 4536 H 419.761 -2.21849 -2.01502 0
M  V30 4537 H 417.322 -1.29143 -0.976408 0
M  V30 4538 H 419.314 -0.642455 -3.99568 0
M  V30 4539 H 417.884 -0.0325815 -3.12583 0
M  V30 4540 H 417.104 -2.51659 -3.03416 0
M  V30 4541 H 418.392 -2.87468 -4.19809 0
M  V30 4542 H 417.79 -0.047648 -5.6568 0
M  V30 4543 H 416.347 -0.43913 -6.50319 0
M  V30 4544 N 419.78 1.02168 -1.19998 0
M  V30 4545 C 421.057 1.72816 -0.916191 0
M  V30 4546 C 421.437 2.03081 0.576325 0
M  V30 4547 O 420.785 1.69122 1.53656 0
M  V30 4548 C 420.995 2.9997 -1.78378 0
M  V30 4549 C 422.343 3.73336 -2.02251 0
M  V30 4550 O 423.367 3.09914 -1.75589 0
M  V30 4551 O 422.226 4.87371 -2.47249 0
M  V30 4552 H 419.32 0.752924 -0.342103 0
M  V30 4553 H 421.866 1.08062 -1.30846 0
M  V30 4554 H 420.638 2.73888 -2.79466 0
M  V30 4555 H 420.261 3.72464 -1.39126 0
M  V30 4556 N 421.258 1.00505 1.21394 0
M  V30 4557 C 422.191 0.51032 2.22421 0
M  V30 4558 C 423.169 -0.436 1.56645 0
M  V30 4559 O 424.353 -0.358709 1.85055 0
M  V30 4560 C 421.48 -0.258733 3.3771 0
M  V30 4561 C 420.526 0.635395 4.2174 0
M  V30 4562 S 421.359 2.09783 4.92698 0
M  V30 4563 C 422.515 1.33862 6.11418 0
M  V30 4564 H 422.748 1.36637 2.64041 0
M  V30 4565 H 420.281 0.812991 1.31262 0
M  V30 4566 H 422.239 -0.696372 4.0455 0
M  V30 4567 H 420.9 -1.0902 2.94573 0
M  V30 4568 H 420.093 0.0430189 5.03982 0
M  V30 4569 H 419.695 1.01031 3.60095 0
M  V30 4570 H 421.987 0.612541 6.74725 0
M  V30 4571 H 422.93 2.13675 6.75092 0
M  V30 4572 H 423.338 0.846568 5.58116 0
M  V30 4573 N 422.737 -1.36956 0.779787 0
M  V30 4574 C 423.965 -2.03755 0.359398 0
M  V30 4575 C 424.38 -1.58807 -1.02106 0
M  V30 4576 O 423.737 -0.773024 -1.6532 0
M  V30 4577 C 423.788 -3.59251 0.402568 0
M  V30 4578 O 423.509 -4.02557 1.72858 0
M  V30 4579 C 425.01 -4.43291 -0.0284068 0
M  V30 4580 H 422.23 -0.654148 0.149437 0
M  V30 4581 H 424.774 -1.75128 1.05595 0
M  V30 4582 H 422.929 -3.86621 -0.245478 0
M  V30 4583 H 423.343 -4.97111 1.67275 0
M  V30 4584 H 424.817 -5.51975 0.0529466 0
M  V30 4585 H 425.294 -4.25719 -1.07982 0
M  V30 4586 H 425.9 -4.21163 0.591758 0
M  V30 4587 N 424.215 -0.530993 -1.48385 0
M  V30 4588 C 425.443 -0.00134122 -2.069 0
M  V30 4589 C 425.858 1.2805 -1.3874 0
M  V30 4590 O 425.215 1.76204 -0.475244 0
M  V30 4591 C 425.266 0.225256 -3.60798 0
M  V30 4592 O 424.987 -1.0058 -4.26398 0
M  V30 4593 C 426.488 0.795172 -4.3611 0
M  V30 4594 H 423.708 -0.0339704 -0.67014 0
M  V30 4595 H 426.252 -0.736926 -1.90761 0
M  V30 4596 H 424.407 0.910891 -3.76539 0
M  V30 4597 H 424.821 -0.787165 -5.1856 0
M  V30 4598 H 426.295 0.903143 -5.44562 0
M  V30 4599 H 426.772 1.80031 -4.00606 0
M  V30 4600 H 427.378 0.146069 -4.25049 0
M  V30 4601 N 425.693 1.55336 -0.266172 0
M  V30 4602 C 426.623 2.25146 0.618981 0
M  V30 4603 C 427.604 1.23845 1.16604 0
M  V30 4604 O 428.789 1.52544 1.20183 0
M  V30 4605 C 425.919 2.96572 1.80728 0
M  V30 4606 C 424.873 4.04726 1.39215 0
M  V30 4607 C 424.199 4.63678 2.66283 0
M  V30 4608 C 425.499 5.19407 0.548942 0
M  V30 4609 H 427.193 2.99377 0.0368116 0
M  V30 4610 H 424.739 1.43991 0.0162651 0
M  V30 4611 H 426.692 3.44116 2.43232 0
M  V30 4612 H 425.416 2.19861 2.41514 0
M  V30 4613 H 424.075 3.57979 0.790351 0
M  V30 4614 H 423.723 3.83646 3.25308 0
M  V30 4615 H 423.423 5.367 2.39222 0
M  V30 4616 H 424.947 5.13967 3.29651 0
M  V30 4617 H 426.361 5.63059 1.07876 0
M  V30 4618 H 424.758 5.98936 0.373593 0
M  V30 4619 H 425.828 4.8295 -0.434394 0
M  V30 4620 N 427.171 -0.0066808 1.57599 0
M  V30 4621 C 428.101 -0.999296 2.11036 0
M  V30 4622 C 429.082 -1.36278 1.01795 0
M  V30 4623 O 430.267 -1.4477 1.29442 0
M  V30 4624 C 427.397 -2.29328 2.60818 0
M  V30 4625 C 426.351 -2.07159 3.74525 0
M  V30 4626 C 425.677 -3.42512 4.10596 0
M  V30 4627 C 426.977 -1.43959 5.02069 0
M  V30 4628 H 428.671 -0.554382 2.94223 0
M  V30 4629 H 426.217 -0.265221 1.41536 0
M  V30 4630 H 428.17 -2.99117 2.96828 0
M  V30 4631 H 426.894 -2.7592 1.74745 0
M  V30 4632 H 425.553 -1.39797 3.38899 0
M  V30 4633 H 425.201 -3.86795 3.21556 0
M  V30 4634 H 424.901 -3.28498 4.87199 0
M  V30 4635 H 426.425 -4.13628 4.4916 0
M  V30 4636 H 427.839 -2.03696 5.35893 0
M  V30 4637 H 426.236 -1.40452 5.83432 0
M  V30 4638 H 427.306 -0.407992 4.83181 0
M  V30 4639 N 428.649 -1.55105 -0.279332 0
M  V30 4640 C 429.874 -1.7976 -1.03446 0
M  V30 4641 C 430.299 -0.565952 -1.79384 0
M  V30 4642 O 429.657 0.484259 -1.74713 0
M  V30 4643 C 429.705 -3.0179 -1.97371 0
M  V30 4644 O 428.809 -2.76432 -3.06038 0
M  V30 4645 H 428.15 -0.594334 -0.29608 0
M  V30 4646 H 430.68 -2.02235 -0.310165 0
M  V30 4647 H 430.69 -3.30351 -2.39441 0
M  V30 4648 H 429.365 -3.91085 -1.4151 0
M  V30 4649 H 427.942 -2.58949 -2.68328 0
M  V30 4650 N 430.127 0.543554 -1.4793 0
M  V30 4651 C 431.357 1.32324 -1.58663 0
M  V30 4652 C 431.765 1.8766 -0.240896 0
M  V30 4653 O 431.108 1.66411 0.778011 0
M  V30 4654 C 431.17 2.52094 -2.56299 0
M  V30 4655 C 430.834 2.17944 -4.01683 0
M  V30 4656 C 431.831 1.74422 -4.89768 0
M  V30 4657 C 429.516 2.28884 -4.47121 0
M  V30 4658 C 431.51 1.42287 -6.21316 0
M  V30 4659 C 429.197 1.96361 -5.78693 0
M  V30 4660 C 430.195 1.53132 -6.65612 0
M  V30 4661 O 429.883 1.21029 -7.94737 0
M  V30 4662 H 429.615 0.409174 -0.538101 0
M  V30 4663 H 432.169 0.663887 -1.94375 0
M  V30 4664 H 430.399 3.20965 -2.15681 0
M  V30 4665 H 432.088 3.14165 -2.57012 0
M  V30 4666 H 432.854 1.65452 -4.55907 0
M  V30 4667 H 428.733 2.61488 -3.79664 0
M  V30 4668 H 432.277 1.08472 -6.89115 0
M  V30 4669 H 428.174 2.04967 -6.12094 0
M  V30 4670 H 428.942 1.34543 -8.07366 0
M  V30 4671 N 431.605 1.3629 0.791371 0
M  V30 4672 C 432.553 1.30514 1.92533 0
M  V30 4673 C 433.547 0.197285 1.68247 0
M  V30 4674 O 434.753 0.364176 1.76278 0
M  V30 4675 H 431.128 0.406263 0.632815 0
M  V30 4676 H 433.099 2.26282 1.94523 0
M  V30 4677 C 431.848 1.10933 3.29529 0
M  V30 4678 H 431.171 1.95427 3.48781 0
M  V30 4679 H 432.611 1.10937 4.0923 0
M  V30 4680 C 431.07 -0.186123 3.36385 0
M  V30 4681 O 431.6 -1.17664 3.84081 0
M  V30 4682 N 429.806 -0.230128 2.89687 0
M  V30 4683 H 429.353 0.576545 2.51065 0
M  V30 4684 H 429.311 -1.09658 2.94657 0
M  V30 4685 N 433.083 -1.0153 1.20538 0
M  V30 4686 C 434.499 -1.27461 0.96051 0
M  V30 4687 C 434.699 -1.98273 -0.359193 0
M  V30 4688 O 433.755 -2.27886 -1.0874 0
M  V30 4689 C 435.068 -2.10837 2.14402 0
M  V30 4690 C 436.616 -2.24099 2.18515 0
M  V30 4691 C 437.091 -3.10852 3.36355 0
M  V30 4692 N 438.582 -3.18441 3.36377 0
M  V30 4693 C 439.317 -3.85795 4.24205 0
M  V30 4694 N 438.813 -4.55264 5.22213 0
M  V30 4695 N 440.606 -3.82331 4.12043 0
M  V30 4696 H 432.757 -0.539907 2.05423 0
M  V30 4697 H 435.02 -0.30092 0.898972 0
M  V30 4698 H 434.726 -1.66144 3.09983 0
M  V30 4699 H 434.6 -3.11576 2.12604 0
M  V30 4700 H 436.987 -2.68016 1.23497 0
M  V30 4701 H 437.068 -1.22865 2.24361 0
M  V30 4702 H 436.712 -2.6764 4.31661 0
M  V30 4703 H 436.642 -4.12177 3.27746 0
M  V30 4704 H 439.133 -2.68978 2.65442 0
M  V30 4705 H 439.446 -5.04331 5.85551 0
M  V30 4706 H 437.791 -4.54085 5.26148 0
M  V30 4707 H 440.982 -3.27207 3.34743 0
M  V30 4708 H 441.155 -4.34547 4.807 0
M  V30 4709 N 434.561 -1.01147 -1.20859 0
M  V30 4710 C 435.509 -0.57059 -2.25493 0
M  V30 4711 C 436.503 0.388109 -1.64894 0
M  V30 4712 O 437.709 0.258592 -1.78133 0
M  V30 4713 H 434.084 -0.166191 -0.733406 0
M  V30 4714 H 436.055 -1.46411 -2.60012 0
M  V30 4715 C 434.804 0.0805241 -3.47607 0
M  V30 4716 H 434.127 -0.648156 -3.94511 0
M  V30 4717 H 435.567 0.352197 -4.22535 0
M  V30 4718 C 434.026 1.32175 -3.09889 0
M  V30 4719 O 434.556 2.41553 -3.20959 0
M  V30 4720 N 432.762 1.20392 -2.64488 0
M  V30 4721 H 432.309 0.313905 -2.5568 0
M  V30 4722 H 432.267 2.03541 -2.39621 0
M  V30 4723 N 436.039 1.36541 -0.78704 0
M  V30 4724 C 437.285 2.00044 -0.367938 0
M  V30 4725 C 437.64 1.61345 1.04812 0
M  V30 4726 O 436.933 0.856936 1.71368 0
M  V30 4727 C 437.127 3.54343 -0.466485 0
M  V30 4728 C 436.956 4.08029 -1.89058 0
M  V30 4729 C 435.726 4.38284 -2.51466 0
M  V30 4730 C 437.924 4.27954 -2.85236 0
M  V30 4731 N 435.906 4.77778 -3.85488 0
M  V30 4732 C 437.277 4.70227 -4.04088 0
M  V30 4733 C 439.332 4.10119 -2.82324 0
M  V30 4734 C 438.035 4.96532 -5.20432 0
M  V30 4735 C 440.061 4.37569 -3.97854 0
M  V30 4736 C 439.423 4.80095 -5.15449 0
M  V30 4737 H 435.522 0.760525 -0.182004 0
M  V30 4738 H 438.106 1.65589 -1.02413 0
M  V30 4739 H 436.277 3.88072 0.159606 0
M  V30 4740 H 438.009 4.04693 -0.0238577 0
M  V30 4741 H 434.764 4.27905 -2.02965 0
M  V30 4742 H 435.188 5.01813 -4.54437 0
M  V30 4743 H 439.83 3.76399 -1.92571 0
M  V30 4744 H 437.548 5.29134 -6.10773 0
M  V30 4745 H 441.134 4.25341 -3.96958 0
M  V30 4746 H 440.014 5.00925 -6.0336 0
M  V30 4747 N 437.518 0.538854 1.48102 0
M  V30 4748 C 438.934 0.19732 1.58376 0
M  V30 4749 C 439.134 -1.29971 1.5398 0
M  V30 4750 O 438.19 -2.07861 1.43352 0
M  V30 4751 C 439.503 0.807716 2.89649 0
M  V30 4752 C 441.051 0.77726 3.03196 0
M  V30 4753 C 441.526 1.36639 4.37143 0
M  V30 4754 N 443.017 1.32875 4.43732 0
M  V30 4755 C 443.752 1.7544 5.45901 0
M  V30 4756 N 443.248 2.25776 6.54979 0
M  V30 4757 N 445.041 1.66623 5.36836 0
M  V30 4758 H 437.192 1.5117 1.49202 0
M  V30 4759 H 439.455 0.629327 0.708979 0
M  V30 4760 H 439.161 1.85909 2.98548 0
M  V30 4761 H 439.035 0.289975 3.76084 0
M  V30 4762 H 441.422 -0.265374 2.93904 0
M  V30 4763 H 441.503 1.33256 2.18349 0
M  V30 4764 H 441.147 2.408 4.47189 0
M  V30 4765 H 441.077 0.786689 5.20691 0
M  V30 4766 H 443.568 0.96037 3.65493 0
M  V30 4767 H 443.881 2.56226 7.29087 0
M  V30 4768 H 442.226 2.29775 6.55918 0
M  V30 4769 H 445.417 1.27089 4.50517 0
M  V30 4770 H 445.59 2.00115 6.16326 0
M  V30 4771 N 438.996 -1.55193 0.274407 0
M  V30 4772 C 440.242 -1.99877 -0.343086 0
M  V30 4773 C 440.575 -1.16256 -1.55558 0
M  V30 4774 O 439.85 -0.232462 -1.93106 0
M  V30 4775 C 440.133 -3.52706 -0.725965 0
M  V30 4776 C 439.986 -4.47081 0.493818 0
M  V30 4777 C 441.305 -4.11422 -1.56268 0
M  V30 4778 H 438.424 -0.726625 -0.123229 0
M  V30 4779 H 441.066 -1.86136 0.38121 0
M  V30 4780 H 439.216 -3.64546 -1.34307 0
M  V30 4781 H 440.888 -4.47186 1.13237 0
M  V30 4782 H 439.131 -4.1877 1.13201 0
M  V30 4783 H 439.802 -5.51699 0.18217 0
M  V30 4784 H 442.278 -4.02855 -1.04151 0
M  V30 4785 H 441.154 -5.18568 -1.79939 0
M  V30 4786 H 441.415 -3.61607 -2.54348 0
M  V30 4787 N 440.474 -0.00167713 -1.576 0
M  V30 4788 C 441.714 0.687302 -1.92498 0
M  V30 4789 C 442.078 1.70844 -0.876144 0
M  V30 4790 O 443.279 2.44792 -1.11043 0
M  V30 4791 C 441.55 1.31217 -3.32441 0
M  V30 4792 S 443.109 2.02604 -3.89226 0
M  V30 4793 H 439.927 0.226985 -0.673794 0
M  V30 4794 H 442.529 -0.0587666 -1.95412 0
M  V30 4795 H 441.233 0.556164 -4.06614 0
M  V30 4796 H 440.764 2.09613 -3.32905 0
M  V30 4797 H 442.779 3.30137 -3.70438 0
M  V30 4798 N 441.952 1.55251 0.271103 0
M  V30 4799 C 442.915 1.87484 1.31842 0
M  V30 4800 C 443.915 0.749545 1.42262 0
M  V30 4801 O 445.105 1.01771 1.4138 0
M  V30 4802 C 442.237 2.0818 2.69951 0
M  V30 4803 H 443.43 2.81108 1.0449 0
M  V30 4804 H 440.983 1.47771 0.509258 0
M  V30 4805 H 441.718 1.16944 3.02481 0
M  V30 4806 H 441.503 2.90114 2.63774 0
M  V30 4807 H 442.993 2.34385 3.4562 0
M  V30 4808 N 443.43 -0.535701 1.48216 0
M  V30 4809 C 444.36 -1.65014 1.65204 0
M  V30 4810 C 445.341 -1.62554 0.501011 0
M  V30 4811 O 446.526 -1.7984 0.732886 0
M  V30 4812 C 443.656 -3.03616 1.68626 0
M  V30 4813 C 442.61 -3.20932 2.83172 0
M  V30 4814 C 441.936 -4.60537 2.71679 0
M  V30 4815 C 443.236 -3.04249 4.24535 0
M  V30 4816 H 444.93 -1.51053 2.58502 0
M  V30 4817 H 442.476 -0.725262 1.24402 0
M  V30 4818 H 444.429 -3.81446 1.79099 0
M  V30 4819 H 443.153 -3.18587 0.719026 0
M  V30 4820 H 441.812 -2.45517 2.72244 0
M  V30 4821 H 441.46 -4.72336 1.72937 0
M  V30 4822 H 441.16 -4.73069 3.48538 0
M  V30 4823 H 442.684 -5.40475 2.84112 0
M  V30 4824 H 444.098 -3.71877 4.36326 0
M  V30 4825 H 442.495 -3.28278 5.02348 0
M  V30 4826 H 443.565 -2.00739 4.41397 0
M  V30 4827 N 444.908 -1.36708 -0.784132 0
M  V30 4828 C 445.838 -1.34153 -1.91116 0
M  V30 4829 C 446.819 -0.212121 -1.68772 0
M  V30 4830 O 448.004 -0.410581 -1.8981 0
M  V30 4831 C 445.134 -1.13535 -3.28218 0
M  V30 4832 C 444.088 -2.23356 -3.65097 0
M  V30 4833 C 443.414 -1.87875 -5.00607 0
M  V30 4834 C 444.714 -3.65473 -3.73131 0
M  V30 4835 H 446.408 -2.28459 -1.93512 0
M  V30 4836 H 443.954 -1.09973 -0.929618 0
M  V30 4837 H 445.907 -1.10381 -4.06687 0
M  V30 4838 H 444.631 -0.156804 -3.26223 0
M  V30 4839 H 443.29 -2.25645 -2.88929 0
M  V30 4840 H 442.938 -0.885814 -4.95139 0
M  V30 4841 H 442.638 -2.61406 -5.26252 0
M  V30 4842 H 444.162 -1.86286 -5.81489 0
M  V30 4843 H 445.576 -3.65382 -4.41779 0
M  V30 4844 H 443.973 -4.37953 -4.10265 0
M  V30 4845 H 445.043 -3.99995 -2.74102 0
M  V30 4846 N 446.386 1.0089 -1.21074 0
M  V30 4847 C 447.611 1.78727 -1.05221 0
M  V30 4848 C 448.036 1.83932 0.393795 0
M  V30 4849 O 447.394 1.28004 1.28393 0
M  V30 4850 C 447.442 3.20665 -1.64944 0
M  V30 4851 O 446.546 4.02632 -0.892273 0
M  V30 4852 H 445.887 0.550973 -0.370574 0
M  V30 4853 H 448.417 1.26847 -1.60534 0
M  V30 4854 H 448.427 3.71352 -1.69002 0
M  V30 4855 H 447.102 3.16191 -2.70177 0
M  V30 4856 H 445.679 3.61207 -0.926492 0
M  V30 4857 N 447.864 1.01787 1.20321 0
M  V30 4858 C 449.104 0.716493 1.91431 0
M  V30 4859 C 449.468 -0.740352 1.77152 0
M  V30 4860 O 450.669 -1.1543 2.42754 0
M  V30 4861 C 448.94 1.14169 3.38674 0
M  V30 4862 S 450.499 0.962482 4.28114 0
M  V30 4863 H 447.317 0.261175 0.661293 0
M  V30 4864 H 449.919 1.30539 1.45533 0
M  V30 4865 H 448.623 2.19784 3.46588 0
M  V30 4866 H 448.154 0.545621 3.89598 0
M  V30 4867 H 450.169 -0.133253 4.96021 0
M  V30 4868 N 449.342 -1.36122 0.79427 0
M  V30 4869 C 450.57 -2.03362 0.380989 0
M  V30 4870 C 450.985 -1.59881 -1.00416 0
M  V30 4871 O 450.342 -0.790515 -1.6449 0
M  V30 4872 C 450.393 -3.58804 0.440649 0
M  V30 4873 O 450.114 -4.007 1.77118 0
M  V30 4874 C 451.615 -4.43296 0.0186117 0
M  V30 4875 H 448.835 -0.652526 0.156367 0
M  V30 4876 H 451.379 -1.73998 1.07447 0
M  V30 4877 H 449.534 -3.8686 -0.204458 0
M  V30 4878 H 449.948 -4.95309 1.72538 0
M  V30 4879 H 451.422 -5.51887 0.111488 0
M  V30 4880 H 451.899 -4.2684 -1.03461 0
M  V30 4881 H 452.505 -4.20512 0.636395 0
M  V30 4882 N 450.82 -0.546701 -1.47814 0
M  V30 4883 C 452.045 -0.021268 -2.07389 0
M  V30 4884 C 452.47 1.25822 -1.39822 0
M  V30 4885 O 451.828 1.75111 -0.46968 0
M  V30 4886 C 451.876 0.168502 -3.60206 0
M  V30 4887 O 450.98 1.23347 -3.93522 0
M  V30 4888 H 450.321 -0.0466108 -0.662362 0
M  V30 4889 H 452.851 -0.759387 -1.89985 0
M  V30 4890 H 452.861 0.385982 -4.0617 0
M  V30 4891 H 451.536 -0.766075 -4.08784 0
M  V30 4892 H 450.113 0.997319 -3.59316 0
M  V30 4893 N 452.299 1.55045 -0.282633 0
M  V30 4894 C 453.249 2.19514 0.616249 0
M  V30 4895 C 454.233 1.16216 1.11277 0
M  V30 4896 O 455.425 1.42004 1.05659 0
M  V30 4897 C 452.554 2.92548 1.7964 0
M  V30 4898 C 451.64 4.03142 1.31671 0
M  V30 4899 N 452.031 5.0276 0.553695 0
M  V30 4900 C 450.329 4.1635 1.59903 0
M  V30 4901 C 451.03 5.80923 0.30054 0
M  V30 4902 N 450.006 5.3651 0.875116 0
M  V30 4903 H 453.808 2.93889 0.0255363 0
M  V30 4904 H 451.322 1.62169 -0.0865362 0
M  V30 4905 H 453.319 3.37188 2.45173 0
M  V30 4906 H 451.979 2.19685 2.39099 0
M  V30 4907 H 452.99 5.17512 0.20032 0
M  V30 4908 H 449.667 3.54682 2.20243 0
M  V30 4909 H 451.057 6.7118 -0.311053 0
M  V30 4910 N 453.777 0.010035 1.57597 0
M  V30 4911 C 454.724 -0.978122 2.09049 0
M  V30 4912 C 455.694 -1.33509 0.988159 0
M  V30 4913 O 456.879 -1.43172 1.26121 0
M  V30 4914 C 454.019 -2.26158 2.60666 0
M  V30 4915 C 453.132 -1.96275 3.84838 0
M  V30 4916 C 452.267 -3.18776 4.24918 0
M  V30 4917 C 451.306 -2.84625 5.41899 0
M  V30 4918 N 450.443 -3.99693 5.77226 0
M  V30 4919 H 455.283 -0.532431 2.93205 0
M  V30 4920 H 452.82 -0.251234 1.44939 0
M  V30 4921 H 454.778 -3.01202 2.88675 0
M  V30 4922 H 453.408 -2.68378 1.79369 0
M  V30 4923 H 452.46 -1.11555 3.63675 0
M  V30 4924 H 453.772 -1.67111 4.69974 0
M  V30 4925 H 452.926 -4.02157 4.54262 0
M  V30 4926 H 451.665 -3.51087 3.38511 0
M  V30 4927 H 450.67 -1.99653 5.12268 0
M  V30 4928 H 451.895 -2.53551 6.29991 0
M  V30 4929 H 449.841 -4.31882 4.93776 0
M  V30 4930 H 449.758 -3.74087 6.56959 0
M  V30 4931 H 451.026 -4.83834 6.11167 0
M  V30 4932 N 455.255 -1.55392 -0.262866 0
M  V30 4933 C 456.532 -1.67204 -1.01499 0
M  V30 4934 C 456.912 -0.545186 -2.03939 0
M  V30 4935 O 456.26 0.453467 -2.23955 0
M  V30 4936 C 456.47 -3.06847 -1.6627 0
M  V30 4937 C 457.818 -3.64928 -2.17054 0
M  V30 4938 O 458.842 -3.09545 -1.76239 0
M  V30 4939 O 457.701 -4.61984 -2.91947 0
M  V30 4940 H 454.795 -0.679467 -0.471438 0
M  V30 4941 H 457.341 -1.67729 -0.257918 0
M  V30 4942 H 456.113 -3.80309 -0.920915 0
M  V30 4943 H 455.736 -3.10266 -2.48638 0
M  V30 4944 N 456.733 0.527833 -1.48498 0
M  V30 4945 C 457.963 1.30633 -1.60058 0
M  V30 4946 C 458.371 1.87394 -0.260786 0
M  V30 4947 O 457.714 1.67227 0.760317 0
M  V30 4948 C 457.776 2.49361 -2.58958 0
M  V30 4949 C 457.44 2.13671 -4.03972 0
M  V30 4950 C 458.437 1.69217 -4.91591 0
M  V30 4951 C 456.122 2.24129 -4.49524 0
M  V30 4952 C 458.116 1.35689 -6.2279 0
M  V30 4953 C 455.803 1.90212 -5.80743 0
M  V30 4954 C 456.801 1.46063 -6.67199 0
M  V30 4955 O 456.489 1.12593 -7.95976 0
M  V30 4956 H 456.221 0.403444 -0.54241 0
M  V30 4957 H 458.775 0.643233 -1.95068 0
M  V30 4958 H 457.005 3.18659 -2.19073 0
M  V30 4959 H 458.694 3.11421 -2.6033 0
M  V30 4960 H 459.46 1.60607 -4.57636 0
M  V30 4961 H 455.339 2.57447 -3.82416 0
M  V30 4962 H 458.883 1.01157 -6.90227 0
M  V30 4963 H 454.78 1.98464 -6.14233 0
M  V30 4964 H 455.548 1.25972 -8.08748 0
M  V30 4965 N 458.211 1.37122 0.776871 0
M  V30 4966 C 459.622 1.28667 1.35284 0
M  V30 4967 C 459.973 -0.0680035 1.96082 0
M  V30 4968 O 459.098 -0.969743 1.93455 0
M  V30 4969 C 459.693 2.32997 2.45963 0
M  V30 4970 C 458.252 2.28191 2.99342 0
M  V30 4971 C 457.399 2.17101 1.72517 0
M  V30 4972 H 460.35 1.47819 0.577527 0
M  V30 4973 H 460.371 1.97366 3.2531 0
M  V30 4974 H 459.883 3.3158 2.01684 0
M  V30 4975 H 457.984 1.33115 3.4801 0
M  V30 4976 H 458.097 3.21397 3.55304 0
M  V30 4977 H 456.461 1.63562 1.95242 0
M  V30 4978 H 457.244 3.17591 1.30348 0
M  V30 4979 N 459.689 -1.00246 1.21608 0
M  V30 4980 C 460.936 -1.74061 1.03485 0
M  V30 4981 C 461.264 -1.89658 -0.431308 0
M  V30 4982 O 460.519 -1.42976 -1.33627 0
M  V30 4983 C 460.818 -3.15448 1.68009 0
M  V30 4984 C 460.484 -3.19792 3.17874 0
M  V30 4985 C 459.146 -3.20685 3.58768 0
M  V30 4986 C 461.498 -3.16835 4.13842 0
M  V30 4987 C 458.826 -3.16309 4.94131 0
M  V30 4988 C 461.178 -3.14001 5.49169 0
M  V30 4989 C 459.842 -3.13204 5.89457 0
M  V30 4990 H 459.112 -0.636934 0.378677 0
M  V30 4991 H 461.759 -1.17473 1.51236 0
M  V30 4992 H 460.064 -3.75284 1.12557 0
M  V30 4993 H 461.761 -3.71285 1.51487 0
M  V30 4994 H 458.351 -3.19842 2.85305 0
M  V30 4995 H 462.535 -3.15303 3.83272 0
M  V30 4996 H 457.791 -3.14032 5.24589 0
M  V30 4997 H 461.965 -3.10667 6.23265 0
M  V30 4998 H 459.592 -3.09568 6.94314 0
M  V30 4999 N 461.167 -1.02423 -1.1978 0
M  V30 5000 C 462.117 -0.571689 -2.20716 0
M  V30 5001 C 463.101 0.377077 -1.56419 0
M  V30 5002 O 464.293 0.198801 -1.7588 0
M  V30 5003 C 461.422 0.0808555 -3.43205 0
M  V30 5004 C 460.508 -0.890073 -4.14655 0
M  V30 5005 N 460.899 -2.05065 -4.62366 0
M  V30 5006 C 459.197 -0.71252 -4.40272 0
M  V30 5007 C 459.898 -2.66264 -5.17183 0
M  V30 5008 N 458.874 -1.94264 -5.07703 0
M  V30 5009 H 462.676 -1.45636 -2.55279 0
M  V30 5010 H 460.19 -0.890596 -1.35802 0
M  V30 5011 H 462.187 0.422654 -4.14752 0
M  V30 5012 H 460.847 0.961274 -3.10144 0
M  V30 5013 H 461.858 -2.43026 -4.57339 0
M  V30 5014 H 458.535 0.119199 -4.1733 0
M  V30 5015 H 459.925 -3.64526 -5.64421 0
M  V30 5016 N 462.645 1.35699 -0.801477 0
M  V30 5017 C 463.555 2.33661 -0.209691 0
M  V30 5018 C 464.571 1.6162 0.644591 0
M  V30 5019 O 465.747 1.93529 0.557545 0
M  V30 5020 C 462.812 3.40816 0.636033 0
M  V30 5021 C 461.873 4.28639 -0.238147 0
M  V30 5022 C 461.106 5.30676 0.567307 0
M  V30 5023 O 461.329 5.41174 1.8024 0
M  V30 5024 O 460.263 6.01887 -0.0391336 0
M  V30 5025 H 464.089 2.8606 -1.01996 0
M  V30 5026 H 461.674 1.38379 -0.563164 0
M  V30 5027 H 463.556 4.06301 1.11791 0
M  V30 5028 H 462.231 2.90696 1.42399 0
M  V30 5029 H 461.138 3.66152 -0.767044 0
M  V30 5030 H 462.471 4.82143 -0.989915 0
M  V30 5031 N 464.123 0.554532 1.47522 0
M  V30 5032 C 465.033 -0.197865 2.33764 0
M  V30 5033 C 466.049 -0.914576 1.48025 0
M  V30 5034 O 467.225 -0.884067 1.80959 0
M  V30 5035 C 464.29 -1.21628 3.24665 0
M  V30 5036 C 463.351 -0.507283 4.26292 0
M  V30 5037 C 462.584 -1.47718 5.1285 0
M  V30 5038 O 462.807 -2.7118 5.01814 0
M  V30 5039 O 461.741 -1.00313 5.93482 0
M  V30 5040 H 465.567 0.50949 2.99396 0
M  V30 5041 H 463.152 0.315176 1.46038 0
M  V30 5042 H 465.034 -1.80421 3.80823 0
M  V30 5043 H 463.709 -1.9056 2.61665 0
M  V30 5044 H 462.616 0.121778 3.73902 0
M  V30 5045 H 463.949 0.140544 4.91999 0
M  V30 5046 N 465.601 -1.54893 0.290851 0
M  V30 5047 C 466.848 -1.99933 -0.321391 0
M  V30 5048 C 467.176 -1.17927 -1.54672 0
M  V30 5049 O 466.431 -0.240902 -1.94212 0
M  V30 5050 C 466.73 -3.49815 -0.732397 0
M  V30 5051 C 466.396 -4.4921 0.390056 0
M  V30 5052 C 465.058 -4.76107 0.698223 0
M  V30 5053 C 467.41 -5.08453 1.14562 0
M  V30 5054 C 464.738 -5.59514 1.76526 0
M  V30 5055 C 467.09 -5.9302 2.2025 0
M  V30 5056 C 465.754 -6.18232 2.51684 0
M  V30 5057 H 465.024 -0.731608 -0.117605 0
M  V30 5058 H 467.671 -1.87107 0.407839 0
M  V30 5059 H 465.976 -3.60199 -1.54155 0
M  V30 5060 H 467.673 -3.82083 -1.21712 0
M  V30 5061 H 464.263 -4.28372 0.13976 0
M  V30 5062 H 468.447 -4.87683 0.920801 0
M  V30 5063 H 463.703 -5.77289 2.01364 0
M  V30 5064 H 467.877 -6.37955 2.7926 0
M  V30 5065 H 465.504 -6.82653 3.34499 0
M  V30 5066 O 467.118 -0.15707 -1.60734 0
M  V30 5067 H 467.809 0.435157 -1.88749 0
M  V30 END ATOM
M  V30 BEGIN BOND
M  V30 END BOND
M  V30 END CTAB
M  END
$$$$
