drugbank_drug|DB00102 DB00102 sequence
 OpenBabel12092119113D

  0  0  0     0  0            999 V3000
M  V30 BEGIN CTAB
M  V30 COUNTS 1756 1768 0 0 0
M  V30 BEGIN ATOM
M  V30 1 H -0.908 1.98254 -0.117106 0
M  V30 2 N 0 1.576 0 0
M  V30 3 C 1.225 1.95249 0.699468 0
M  V30 4 C 1.65 0.874934 1.66513 0
M  V30 5 O 1.008 -0.166929 1.8053 0
M  V30 6 C 1.056 3.31994 1.40756 0
M  V30 7 O 0.16 3.26298 2.52197 0
M  V30 8 H -0.499 0.637402 0.186051 0
M  V30 9 H 2.031 2.04531 -0.05319 0
M  V30 10 H 2.041 3.6756 1.77098 0
M  V30 11 H 0.716 4.09975 0.69953 0
M  V30 12 H -0.707 3.02408 2.18183 0
M  V30 13 N 1.4781 -0.272755 1.55222 0
M  V30 14 C 2.4081 -1.34136 1.91127 0
M  V30 15 C 3.3891 -1.51513 0.773168 0
M  V30 16 O 4.5741 -1.64552 1.03132 0
M  V30 17 C 1.7041 -2.70083 2.1834 0
M  V30 18 C 0.6581 -2.67437 3.34158 0
M  V30 19 C -0.0159 -4.06938 3.46851 0
M  V30 20 C 1.2841 -2.26686 4.70543 0
M  V30 21 H 2.9781 -1.04333 2.80633 0
M  V30 22 H 0.5241 -0.500454 1.35024 0
M  V30 23 H 2.4771 -3.44952 2.42046 0
M  V30 24 H 1.2011 -3.01469 1.25634 0
M  V30 25 H -0.1399 -1.95026 3.1042 0
M  V30 26 H -0.4919 -4.35547 2.51611 0
M  V30 27 H -0.7919 -4.06062 4.2472 0
M  V30 28 H 0.7321 -4.83545 3.72849 0
M  V30 29 H 2.1461 -2.91277 4.93792 0
M  V30 30 H 0.5431 -2.36971 5.5133 0
M  V30 31 H 1.6131 -1.21818 4.69349 0
M  V30 32 N 2.9562 -1.48159 -0.537278 0
M  V30 33 C 4.2042 -1.55497 -1.29094 0
M  V30 34 C 4.5252 -0.227454 -1.93669 0
M  V30 35 O 3.7952 0.750386 -1.80959 0
M  V30 36 H 2.3752 -0.572832 -0.47945 0
M  V30 37 H 5.0372 -1.84579 -0.625818 0
M  V30 38 H 4.1332 -2.33216 -2.07405 0
M  V30 39 N 4.4343 0.785586 -1.36625 0
M  V30 40 C 5.6593 1.57963 -1.34397 0
M  V30 41 C 6.0843 1.87964 0.071526 0
M  V30 42 O 5.4423 1.48182 1.0446 0
M  V30 43 C 5.4903 2.87511 -2.17646 0
M  V30 44 O 4.5943 3.81281 -1.57158 0
M  V30 45 H 3.9353 0.479014 -0.459828 0
M  V30 46 H 6.4653 0.973411 -1.79961 0
M  V30 47 H 6.4753 3.36745 -2.30362 0
M  V30 48 H 5.1503 2.65002 -3.20541 0
M  V30 49 H 3.7273 3.39885 -1.53403 0
M  V30 50 N 5.9124 1.20967 1.01018 0
M  V30 51 C 6.8424 0.988272 2.11555 0
M  V30 52 C 7.8234 -0.0849778 1.69888 0
M  V30 53 O 9.0084 0.0738202 1.9406 0
M  V30 54 C 6.1384 0.546528 3.42973 0
M  V30 55 C 5.0924 1.56375 3.9841 0
M  V30 56 C 4.4184 0.97842 5.25672 0
M  V30 57 C 5.7184 2.94922 4.31066 0
M  V30 58 H 7.4124 1.91276 2.30334 0
M  V30 59 H 4.9584 0.921073 1.1069 0
M  V30 60 H 6.9114 0.378839 4.19694 0
M  V30 61 H 5.6354 -0.413598 3.23971 0
M  V30 62 H 4.2944 1.71891 3.23804 0
M  V30 63 H 3.9424 0.0101688 5.02999 0
M  V30 64 H 3.6424 1.65784 5.63728 0
M  V30 65 H 5.1664 0.821939 6.05043 0
M  V30 66 H 6.5804 2.8288 4.9865 0
M  V30 67 H 4.9774 3.5983 4.80253 0
M  V30 68 H 6.0474 3.4616 3.39561 0
M  V30 69 N 7.3905 -1.2043 1.01659 0
M  V30 70 C 8.6185 -1.93777 0.725132 0
M  V30 71 C 9.0335 -1.74772 -0.714166 0
M  V30 72 O 8.3905 -1.06169 -1.4844 0
M  V30 73 C 8.4415 -3.45876 1.05129 0
M  V30 74 O 8.1625 -3.6426 2.43406 0
M  V30 75 C 9.6635 -4.36368 0.780891 0
M  V30 76 H 6.8835 -0.615901 0.266284 0
M  V30 77 H 9.4275 -1.52922 1.35776 0
M  V30 78 H 7.5825 -3.8461 0.464065 0
M  V30 79 H 7.9965 -4.58246 2.55169 0
M  V30 80 H 9.4705 -5.41743 1.05918 0
M  V30 81 H 9.9475 -4.38275 -0.284937 0
M  V30 82 H 10.5535 -4.03296 1.35027 0
M  V30 83 N 8.8686 -0.792821 -1.36206 0
M  V30 84 C 10.1176 -0.363353 -1.984 0
M  V30 85 C 10.4306 1.07172 -1.63626 0
M  V30 86 O 11.6366 1.60362 -2.19081 0
M  V30 87 C 10.0926 -0.59872 -3.54885 0
M  V30 88 C 9.7006 -2.04543 -3.9858 0
M  V30 89 C 11.4446 -0.233926 -4.23855 0
M  V30 90 C 9.3516 -2.22727 -5.47856 0
M  V30 91 H 8.2816 -0.13212 -0.742334 0
M  V30 92 H 10.9326 -0.974935 -1.55458 0
M  V30 93 H 9.3146 0.0826222 -3.95914 0
M  V30 94 H 10.4886 -2.76345 -3.68741 0
M  V30 95 H 8.8036 -2.36879 -3.42458 0
M  V30 96 H 11.4006 -0.348027 -5.33566 0
M  V30 97 H 11.7436 0.818351 -4.08177 0
M  V30 98 H 12.2766 -0.868639 -3.882 0
M  V30 99 H 9.0156 -3.2635 -5.68486 0
M  V30 100 H 8.5356 -1.55434 -5.7931 0
M  V30 101 H 10.2146 -2.03607 -6.14128 0
M  V30 102 N 10.3467 1.47872 -0.545128 0
M  V30 103 C 11.3097 2.28337 0.198717 0
M  V30 104 C 12.3097 1.36255 0.853888 0
M  V30 105 O 13.4997 1.59003 0.711606 0
M  V30 106 C 10.6317 3.15585 1.28915 0
M  V30 107 H 11.8247 2.95567 -0.507941 0
M  V30 108 H 9.3777 1.53362 -0.301616 0
M  V30 109 H 10.1127 2.53019 2.02859 0
M  V30 110 H 9.8977 3.83337 0.824309 0
M  V30 111 H 11.3877 3.76243 1.81194 0
M  V30 112 N 11.8248 0.280983 1.55075 0
M  V30 113 C 12.7348 -0.61388 2.26426 0
M  V30 114 C 13.7508 -1.16521 1.29224 0
M  V30 115 O 14.9268 -1.19426 1.62171 0
M  V30 116 C 11.9918 -1.7788 2.9759 0
M  V30 117 C 11.0528 -1.26355 4.10284 0
M  V30 118 C 10.2858 -2.37295 4.78045 0
M  V30 119 O 10.5088 -3.56777 4.45047 0
M  V30 120 O 9.4428 -2.05119 5.65871 0
M  V30 121 H 13.2688 -0.0356932 3.03679 0
M  V30 122 H 10.8538 0.0481686 1.49322 0
M  V30 123 H 12.7358 -2.45791 3.42293 0
M  V30 124 H 11.4108 -2.34397 2.23249 0
M  V30 125 H 10.3178 -0.550735 3.70024 0
M  V30 126 H 11.6508 -0.744065 4.86543 0
M  V30 127 N 13.3029 -1.57598 0.00835791 0
M  V30 128 C 14.7139 -1.7892 -0.53333 0
M  V30 129 C 15.0649 -0.916609 -1.73473 0
M  V30 130 O 14.1899 -0.121336 -2.1606 0
M  V30 131 C 14.7849 -3.24488 -0.974313 0
M  V30 132 C 13.3439 -3.46878 -1.46125 0
M  V30 133 C 12.4909 -2.74157 -0.416302 0
M  V30 134 H 15.4419 -1.56958 0.234495 0
M  V30 135 H 15.4629 -3.3306 -1.83988 0
M  V30 136 H 14.9749 -3.87972 -0.099718 0
M  V30 137 H 13.0759 -2.8862 -2.35646 0
M  V30 138 H 13.1889 -4.55572 -1.48295 0
M  V30 139 H 11.5529 -2.39022 -0.87981 0
M  V30 140 H 12.3359 -3.40345 0.44947 0
M  V30 141 N 14.781 0.264519 -1.55364 0
M  V30 142 C 15.744 1.31046 -1.88042 0
M  V30 143 C 16.744 1.41943 -0.755569 0
M  V30 144 O 17.934 1.40947 -1.02369 0
M  V30 145 C 15.066 2.69067 -2.09323 0
M  V30 146 H 16.259 1.03297 -2.81549 0
M  V30 147 H 13.812 0.502989 -1.47986 0
M  V30 148 H 14.547 3.01982 -1.18226 0
M  V30 149 H 14.332 2.62542 -2.91229 0
M  V30 150 H 15.822 3.44623 -2.35848 0
M  V30 151 N 16.2591 1.48442 0.529413 0
M  V30 152 C 17.1921 1.57577 1.65059 0
M  V30 153 C 18.1701 0.426198 1.56915 0
M  V30 154 O 19.3541 0.637877 1.77379 0
M  V30 155 C 16.4811 1.5043 3.03461 0
M  V30 156 C 15.5271 2.70235 3.29962 0
M  V30 157 S 16.3601 4.32198 3.16172 0
M  V30 158 C 17.5161 4.2765 4.57019 0
M  V30 159 H 17.7491 2.52427 1.5706 0
M  V30 160 H 15.2821 1.36982 0.712417 0
M  V30 161 H 17.2401 1.46992 3.8328 0
M  V30 162 H 15.9011 0.569167 3.089 0
M  V30 163 H 15.0941 2.61374 4.30929 0
M  V30 164 H 14.6961 2.70938 2.57815 0
M  V30 165 H 16.9881 3.97618 5.48549 0
M  V30 166 H 17.9311 5.28797 4.70934 0
M  V30 167 H 18.3391 3.5811 4.36368 0
M  V30 168 N 17.7372 -0.778329 1.37039 0
M  V30 169 C 18.9862 -1.53189 1.3121 0
M  V30 170 C 19.2992 -1.95328 -0.103095 0
M  V30 171 O 20.5052 -2.70012 -0.283826 0
M  V30 172 C 18.9612 -2.76591 2.30272 0
M  V30 173 C 18.5692 -2.41577 3.77286 0
M  V30 174 C 20.3132 -3.5455 2.33441 0
M  V30 175 C 18.2202 -3.61441 4.68096 0
M  V30 176 H 17.1502 -0.5751 0.487622 0
M  V30 177 H 19.8012 -0.853101 1.62464 0
M  V30 178 H 18.1832 -3.46326 1.92027 0
M  V30 179 H 19.3572 -1.79668 4.2433 0
M  V30 180 H 17.6722 -1.76806 3.76999 0
M  V30 181 H 20.2692 -4.43628 2.98493 0
M  V30 182 H 20.6122 -3.93936 1.34611 0
M  V30 183 H 21.1452 -2.91805 2.7036 0
M  V30 184 H 17.8842 -3.27142 5.6803 0
M  V30 185 H 17.4042 -4.22478 4.25761 0
M  V30 186 H 19.0832 -4.28335 4.8491 0
M  V30 187 N 19.2153 -1.21501 -1.00376 0
M  V30 188 C 20.1783 -0.976927 -2.07337 0
M  V30 189 C 21.1783 0.0525322 -1.60714 0
M  V30 190 O 22.3683 -0.184869 -1.73216 0
M  V30 191 C 19.5003 -0.473423 -3.37597 0
M  V30 192 H 20.6933 -1.92587 -2.29892 0
M  V30 193 H 18.2463 -1.03217 -1.17371 0
M  V30 194 H 18.9813 0.480379 -3.20722 0
M  V30 195 H 18.7663 -1.216 -3.72768 0
M  V30 196 H 20.2563 -0.32675 -4.1632 0
M  V30 197 N 20.6934 1.19889 -1.02296 0
M  V30 198 C 21.6034 2.26571 -0.608508 0
M  V30 199 C 22.6194 1.70299 0.356964 0
M  V30 200 O 23.7954 2.00235 0.216326 0
M  V30 201 C 20.8604 3.46677 0.0402814 0
M  V30 202 C 19.9214 4.18153 -0.97194 0
M  V30 203 C 19.1544 5.32525 -0.354016 0
M  V30 204 O 19.3774 5.64112 0.844604 0
M  V30 205 O 18.3114 5.92242 -1.07391 0
M  V30 206 H 22.1374 2.64251 -1.49684 0
M  V30 207 H 19.7224 1.26629 -0.792809 0
M  V30 208 H 21.6044 4.19475 0.402324 0
M  V30 209 H 20.2794 3.10858 0.902707 0
M  V30 210 H 19.1864 3.47499 -1.38546 0
M  V30 211 H 20.5194 4.57927 -1.80454 0
M  V30 212 N 22.1715 0.800033 1.35784 0
M  V30 213 C 23.4115 0.382891 2.00782 0
M  V30 214 C 23.7755 -1.02891 1.62103 0
M  V30 215 O 24.9765 -1.54771 2.19771 0
M  V30 216 C 23.2475 0.553299 3.53091 0
M  V30 217 S 24.8065 0.225608 4.3822 0
M  V30 218 H 21.6245 0.145737 0.695904 0
M  V30 219 H 24.2265 1.04085 1.65489 0
M  V30 220 H 22.9305 1.58091 3.78729 0
M  V30 221 H 22.4615 -0.120214 3.93216 0
M  V30 222 H 24.4765 -0.969074 4.86645 0
M  V30 223 N 23.6496 -1.47581 0.552962 0
M  V30 224 C 24.5966 -2.29957 -0.197108 0
M  V30 225 C 25.5666 -1.38799 -0.912359 0
M  V30 226 O 26.7516 -1.67761 -0.908888 0
M  V30 227 C 23.8916 -3.22672 -1.22379 0
M  V30 228 C 23.0046 -4.28919 -0.515038 0
M  V30 229 C 22.1396 -5.0879 -1.52664 0
M  V30 230 C 21.1786 -6.06815 -0.802631 0
M  V30 231 N 20.3156 -6.7966 -1.76086 0
M  V30 232 H 25.1556 -2.93578 0.511486 0
M  V30 233 H 22.6926 -1.4471 0.264067 0
M  V30 234 H 24.6506 -3.74845 -1.83159 0
M  V30 235 H 23.2806 -2.60925 -1.90047 0
M  V30 236 H 22.3326 -3.79835 0.207192 0
M  V30 237 H 23.6446 -4.98773 0.0523425 0
M  V30 238 H 22.7986 -5.65091 -2.20809 0
M  V30 239 H 21.5376 -4.38828 -2.12794 0
M  V30 240 H 20.5426 -5.49695 -0.107238 0
M  V30 241 H 21.7676 -6.78784 -0.207135 0
M  V30 242 H 19.7136 -6.12432 -2.35081 0
M  V30 243 H 19.6306 -7.45669 -1.24552 0
M  V30 244 H 20.8986 -7.40538 -2.43359 0
M  V30 245 N 25.1277 -0.289203 -1.54924 0
M  V30 246 C 26.3557 0.326463 -2.04308 0
M  V30 247 C 26.7707 1.48413 -1.16701 0
M  V30 248 O 26.1277 1.81507 -0.190087 0
M  V30 249 C 26.1787 0.794014 -3.52672 0
M  V30 250 O 25.8997 -0.317564 -4.36948 0
M  V30 251 C 27.4007 1.47605 -4.18004 0
M  V30 252 H 24.6207 0.0726272 -0.667058 0
M  V30 253 H 27.1647 -0.425401 -2.00026 0
M  V30 254 H 25.3197 1.49593 -3.57352 0
M  V30 255 H 25.7337 0.0443186 -5.24481 0
M  V30 256 H 27.2077 1.75447 -5.23376 0
M  V30 257 H 27.6847 2.41224 -3.67025 0
M  V30 258 H 28.2907 0.81762 -4.17367 0
M  V30 259 N 26.6058 1.57591 -0.0167156 0
M  V30 260 C 28.0218 1.55946 0.339557 0
M  V30 261 C 28.2218 1.02109 1.73713 0
M  V30 262 O 27.2778 0.662303 2.43659 0
M  V30 263 C 28.5908 3.00037 0.199499 0
M  V30 264 C 30.1388 3.11805 0.273193 0
M  V30 265 C 30.6138 4.57713 0.162068 0
M  V30 266 N 32.1048 4.6268 0.219444 0
M  V30 267 C 32.8398 5.73185 0.157054 0
M  V30 268 N 32.3358 6.92786 0.0442936 0
M  V30 269 N 34.1288 5.61707 0.21014 0
M  V30 270 H 26.2798 1.90921 -0.930758 0
M  V30 271 H 28.5428 0.877674 -0.358319 0
M  V30 272 H 28.2488 3.4333 -0.76273 0
M  V30 273 H 28.1228 3.64387 0.974786 0
M  V30 274 H 30.5098 2.68433 1.22587 0
M  V30 275 H 30.5908 2.50201 -0.532256 0
M  V30 276 H 30.2348 5.01763 -0.78714 0
M  V30 277 H 30.1648 5.17283 0.986222 0
M  V30 278 H 32.6558 3.76649 0.307246 0
M  V30 279 H 32.9688 7.728 0.00304069 0
M  V30 280 H 31.3138 6.94999 0.00968457 0
M  V30 281 H 34.5048 4.6716 0.296546 0
M  V30 282 H 34.6778 6.47807 0.158054 0
M  V30 283 N 28.0839 -0.256276 1.55502 0
M  V30 284 C 29.3119 -1.00342 1.8094 0
M  V30 285 C 29.7269 -1.79307 0.59114 0
M  V30 286 O 29.0839 -1.77114 -0.440081 0
M  V30 287 C 29.1349 -1.94875 3.04476 0
M  V30 288 O 28.8559 -1.19107 4.21598 0
M  V30 289 C 30.3569 -2.81266 3.42644 0
M  V30 290 H 27.5769 -0.295685 0.602338 0
M  V30 291 H 30.1209 -0.281998 2.02546 0
M  V30 292 H 28.2759 -2.62457 2.84947 0
M  V30 293 H 28.6899 -1.82969 4.91551 0
M  V30 294 H 30.1639 -3.43362 4.32211 0
M  V30 295 H 30.6409 -3.51897 2.62802 0
M  V30 296 H 31.2469 -2.1915 3.64491 0
M  V30 297 N 29.562 -1.4872 -0.521534 0
M  V30 298 C 30.472 -1.66569 -1.65203 0
M  V30 299 C 31.488 -0.548197 -1.65139 0
M  V30 300 O 32.664 -0.820339 -1.83936 0
M  V30 301 C 29.729 -1.70917 -3.01642 0
M  V30 302 C 28.79 -2.94356 -3.12495 0
M  V30 303 C 28.023 -2.98487 -4.42426 0
M  V30 304 O 28.246 -2.10786 -5.30024 0
M  V30 305 O 27.18 -3.90746 -4.57822 0
M  V30 306 H 31.006 -2.62298 -1.5308 0
M  V30 307 H 28.591 -1.3222 -0.695565 0
M  V30 308 H 30.473 -1.7625 -3.82771 0
M  V30 309 H 29.148 -0.783633 -3.14071 0
M  V30 310 H 28.055 -2.94552 -2.3063 0
M  V30 311 H 29.388 -3.86322 -3.04986 0
M  V30 312 N 31.0401 0.771051 -1.3745 0
M  V30 313 C 32.2861 1.5319 -1.32894 0
M  V30 314 C 32.6191 1.94008 0.0862511 0
M  V30 315 O 31.8941 1.64124 1.04373 0
M  V30 316 C 32.1771 2.79648 -2.26868 0
M  V30 317 C 32.0301 2.45079 -3.77169 0
M  V30 318 C 33.3491 3.81583 -2.19277 0
M  V30 319 H 30.4681 0.555744 -0.484064 0
M  V30 320 H 33.1101 0.884492 -1.68157 0
M  V30 321 H 31.2601 3.34891 -1.96926 0
M  V30 322 H 32.9321 1.95745 -4.1771 0
M  V30 323 H 31.1751 1.77767 -3.95704 0
M  V30 324 H 31.8461 3.35478 -4.38359 0
M  V30 325 H 34.3221 3.35835 -2.45671 0
M  V30 326 H 33.1981 4.67787 -2.87171 0
M  V30 327 H 33.4591 4.25897 -1.18592 0
M  V30 328 N 32.5182 1.22032 0.997298 0
M  V30 329 C 33.7652 1.04222 1.73621 0
M  V30 330 C 34.0932 -0.423264 1.89839 0
M  V30 331 O 33.3482 -1.3302 1.43542 0
M  V30 332 C 33.6472 1.69345 3.14733 0
M  V30 333 C 33.3132 3.19226 3.18442 0
M  V30 334 C 31.9752 3.60124 3.19161 0
M  V30 335 C 34.3272 4.15181 3.15078 0
M  V30 336 C 31.6552 4.95467 3.14212 0
M  V30 337 C 34.0072 5.50495 3.1167 0
M  V30 338 C 32.6712 5.90779 3.10703 0
M  V30 339 H 31.9412 0.381374 0.635323 0
M  V30 340 H 34.5882 1.51732 1.16831 0
M  V30 341 H 32.8932 1.14147 3.74803 0
M  V30 342 H 34.5902 1.53059 3.7064 0
M  V30 343 H 31.1802 2.86659 3.18629 0
M  V30 344 H 35.3642 3.84605 3.13676 0
M  V30 345 H 30.6202 5.25916 3.11805 0
M  V30 346 H 34.7942 6.24576 3.08022 0
M  V30 347 H 32.4212 6.9562 3.06622 0
M  V30 348 N 33.9963 -1.19345 1.0293 0
M  V30 349 C 34.9063 -2.26245 0.620515 0
M  V30 350 C 35.9223 -1.70486 -0.347928 0
M  V30 351 O 37.0983 -2.00347 -0.205704 0
M  V30 352 C 34.1633 -3.46693 -0.0218957 0
M  V30 353 C 33.2243 -4.17632 0.994102 0
M  V30 354 C 32.4573 -5.32329 0.382253 0
M  V30 355 O 32.6803 -5.64552 -0.814676 0
M  V30 356 O 31.6143 -5.91664 1.10531 0
M  V30 357 H 35.4403 -2.63453 1.51083 0
M  V30 358 H 33.0253 -1.26207 0.799513 0
M  V30 359 H 34.9073 -4.19683 -0.380072 0
M  V30 360 H 33.5823 -3.11333 -0.886209 0
M  V30 361 H 32.4893 -3.4676 1.40387 0
M  V30 362 H 33.8223 -4.56964 1.8288 0
M  V30 363 N 35.4744 -0.807222 -1.35358 0
M  V30 364 C 36.7234 -0.384376 -1.98004 0
M  V30 365 C 37.0364 1.0543 -1.64754 0
M  V30 366 O 38.2424 1.58029 -2.20769 0
M  V30 367 C 36.6984 -0.636326 -3.5423 0
M  V30 368 C 36.3064 -2.08759 -3.96388 0
M  V30 369 C 38.0504 -0.278869 -4.23583 0
M  V30 370 C 35.9574 -2.28525 -5.45463 0
M  V30 371 H 34.8874 -0.139986 -0.740891 0
M  V30 372 H 37.5384 -0.991369 -1.54415 0
M  V30 373 H 35.9204 0.0406256 -3.95979 0
M  V30 374 H 37.0944 -2.8024 -3.6579 0
M  V30 375 H 35.4094 -2.40497 -3.39926 0
M  V30 376 H 38.0064 -0.404599 -5.33167 0
M  V30 377 H 38.3494 0.775012 -4.09022 0
M  V30 378 H 38.8824 -0.909764 -3.87257 0
M  V30 379 H 35.6214 -3.32361 -5.64992 0
M  V30 380 H 35.1414 -1.61569 -5.77629 0
M  V30 381 H 36.8204 -2.10109 -6.11934 0
M  V30 382 N 36.9525 1.47285 -0.560781 0
M  V30 383 C 38.1775 2.07359 -0.0410566 0
M  V30 384 C 38.6025 1.41017 1.24483 0
M  V30 385 O 37.9605 0.486368 1.74654 0
M  V30 386 C 38.0085 3.6035 0.134123 0
M  V30 387 O 37.1125 3.94681 1.19587 0
M  V30 388 H 36.4535 0.661887 -0.0529291 0
M  V30 389 H 38.9835 1.89252 -0.777482 0
M  V30 390 H 38.9935 4.0652 0.347207 0
M  V30 391 H 37.6685 4.08034 -0.805047 0
M  V30 392 H 36.2455 3.60251 0.962987 0
M  V30 393 N 38.4306 0.297415 1.54768 0
M  V30 394 C 39.8466 -0.0560823 1.59501 0
M  V30 395 C 40.0466 -1.52725 1.31444 0
M  V30 396 O 39.1026 -2.27947 1.08611 0
M  V30 397 C 40.4156 0.338631 2.98787 0
M  V30 398 C 41.9636 0.287097 3.11681 0
M  V30 399 C 42.4386 0.656579 4.53269 0
M  V30 400 N 43.9296 0.608977 4.59179 0
M  V30 401 C 44.6646 0.867385 5.66802 0
M  V30 402 N 44.1606 1.19157 6.82476 0
M  V30 403 N 45.9536 0.794687 5.56454 0
M  V30 404 H 38.1046 1.25624 1.71267 0
M  V30 405 H 40.3676 0.509057 0.799728 0
M  V30 406 H 40.0736 1.36263 3.2423 0
M  V30 407 H 39.9476 -0.309508 3.75928 0
M  V30 408 H 42.3346 -0.727649 2.85988 0
M  V30 409 H 42.4156 0.969809 2.36703 0
M  V30 410 H 42.0596 1.66912 4.7969 0
M  V30 411 H 41.9896 -0.0481649 5.26578 0
M  V30 412 H 44.4806 0.369198 3.76092 0
M  V30 413 H 44.7936 1.37482 7.60473 0
M  V30 414 H 43.1386 1.22958 6.84037 0
M  V30 415 H 46.3296 0.541098 4.64962 0
M  V30 416 H 46.5026 0.999445 6.40246 0
M  V30 417 N 39.9087 -1.5758 0.0250728 0
M  V30 418 C 41.3247 -1.56124 -0.331282 0
M  V30 419 C 41.5247 -1.03029 -1.73169 0
M  V30 420 O 40.5807 -0.675215 -2.43305 0
M  V30 421 C 41.8937 -3.00139 -0.183584 0
M  V30 422 C 43.4417 -3.11946 -0.256654 0
M  V30 423 C 43.9167 -4.57793 -0.137792 0
M  V30 424 N 45.4077 -4.6279 -0.194904 0
M  V30 425 C 46.1427 -5.7326 -0.126655 0
M  V30 426 N 45.6387 -6.928 -0.00755288 0
M  V30 427 N 47.4317 -5.61811 -0.180348 0
M  V30 428 H 39.5827 -1.90424 0.94087 0
M  V30 429 H 41.8457 -0.875761 0.362968 0
M  V30 430 H 41.5517 -3.4292 0.780927 0
M  V30 431 H 41.4257 -3.64899 -0.955448 0
M  V30 432 H 43.8127 -2.69079 -1.21162 0
M  V30 433 H 43.8937 -2.49915 0.545517 0
M  V30 434 H 43.5377 -5.01339 0.813739 0
M  V30 435 H 43.4677 -5.17798 -0.958775 0
M  V30 436 H 45.9587 -3.76807 -0.287267 0
M  V30 437 H 46.2717 -7.72791 0.0379428 0
M  V30 438 H 44.6167 -6.94995 0.0271731 0
M  V30 439 H 47.8077 -4.6731 -0.271767 0
M  V30 440 H 47.9807 -6.47882 -0.123697 0
M  V30 441 N 41.3868 0.248026 -1.55636 0
M  V30 442 C 42.3168 1.31079 -1.93237 0
M  V30 443 C 43.2978 1.50264 -0.797174 0
M  V30 444 O 44.4828 1.62891 -1.05737 0
M  V30 445 C 41.6128 2.66575 -2.22609 0
M  V30 446 C 40.5668 2.62087 -3.3837 0
M  V30 447 C 39.8928 4.01369 -3.53281 0
M  V30 448 C 41.1928 2.19171 -4.7409 0
M  V30 449 H 42.8868 0.998556 -2.82257 0
M  V30 450 H 40.4328 0.47891 -1.35803 0
M  V30 451 H 42.3858 3.41057 -2.47503 0
M  V30 452 H 41.1098 2.99432 -1.30414 0
M  V30 453 H 39.7688 1.90063 -3.13483 0
M  V30 454 H 39.4168 4.31489 -2.58508 0
M  V30 455 H 39.1168 3.99254 -4.31127 0
M  V30 456 H 40.6408 4.77552 -3.80495 0
M  V30 457 H 42.0548 2.83384 -4.98363 0
M  V30 458 H 40.4518 2.2817 -5.5503 0
M  V30 459 H 41.5218 1.14336 -4.71227 0
M  V30 460 N 42.8649 1.48995 0.513639 0
M  V30 461 C 44.1139 1.57093 1.2651 0
M  V30 462 C 44.4269 0.257091 1.93903 0
M  V30 463 O 45.6329 0.216478 2.70636 0
M  V30 464 C 44.0889 2.77118 2.29638 0
M  V30 465 C 43.6969 4.15209 1.68241 0
M  V30 466 C 45.4409 2.94538 3.05692 0
M  V30 467 C 43.3479 5.26474 2.69406 0
M  V30 468 H 42.2779 0.584876 0.475854 0
M  V30 469 H 44.9289 1.7536 0.540487 0
M  V30 470 H 43.3109 2.52319 3.05207 0
M  V30 471 H 44.4849 4.50094 0.987505 0
M  V30 472 H 42.7999 4.03042 1.04623 0
M  V30 473 H 45.3969 3.74832 3.8132 0
M  V30 474 H 45.7399 2.04614 3.62545 0
M  V30 475 H 46.2729 3.19316 2.37238 0
M  V30 476 H 43.0119 6.18417 2.17351 0
M  V30 477 H 42.5319 4.96058 3.37175 0
M  V30 478 H 44.2109 5.55277 3.32078 0
M  V30 479 N 44.343 -0.763751 1.37857 0
M  V30 480 C 45.62 -1.51244 1.24035 0
M  V30 481 C 46 -2.10472 -0.162649 0
M  V30 482 O 45.348 -1.96206 -1.17112 0
M  V30 483 C 45.558 -2.58694 2.34261 0
M  V30 484 C 46.906 -3.25878 2.72193 0
M  V30 485 O 47.93 -2.68993 2.33497 0
M  V30 486 O 46.789 -4.2874 3.38887 0
M  V30 487 H 43.883 -0.670243 0.484462 0
M  V30 488 H 46.429 -0.800031 1.49658 0
M  V30 489 H 45.201 -2.13105 3.2818 0
M  V30 490 H 44.824 -3.37527 2.10146 0
M  V30 491 N 45.8211 -1.22559 -0.990812 0
M  V30 492 C 47.2371 -0.985996 -1.255 0
M  V30 493 C 47.4371 0.319173 -1.98956 0
M  V30 494 O 46.4931 1.04127 -2.3003 0
M  V30 495 C 47.8061 -2.18607 -2.06474 0
M  V30 496 C 49.3541 -2.22985 -2.19651 0
M  V30 497 C 49.8291 -3.4255 -3.04012 0
M  V30 498 N 51.3201 -3.42725 -3.11599 0
M  V30 499 C 52.0551 -4.31892 -3.7717 0
M  V30 500 N 51.5511 -5.31279 -4.44651 0
M  V30 501 N 53.3441 -4.19662 -3.73952 0
M  V30 502 H 45.4951 -2.06469 -0.49841 0
M  V30 503 H 47.7581 -0.904853 -0.282747 0
M  V30 504 H 47.4641 -3.13267 -1.59865 0
M  V30 505 H 47.3381 -2.18838 -3.07229 0
M  V30 506 H 49.7251 -1.28871 -2.65474 0
M  V30 507 H 49.8061 -2.26791 -1.18319 0
M  V30 508 H 49.4501 -4.36965 -2.58889 0
M  V30 509 H 49.3801 -3.35984 -4.0549 0
M  V30 510 H 51.8711 -2.70807 -2.63575 0
M  V30 511 H 52.1841 -5.95593 -4.92431 0
M  V30 512 H 50.5291 -5.3519 -4.43392 0
M  V30 513 H 53.7201 -3.41268 -3.20396 0
M  V30 514 H 53.8931 -4.89358 -4.24774 0
M  V30 515 N 47.2992 1.18797 -1.03562 0
M  V30 516 C 48.5272 1.92599 -0.755869 0
M  V30 517 C 48.9422 1.75886 0.686271 0
M  V30 518 O 48.2992 1.08517 1.46732 0
M  V30 519 C 48.3502 3.44159 -1.10619 0
M  V30 520 O 48.0712 3.60341 -2.4917 0
M  V30 521 C 49.5722 4.3507 -0.850214 0
M  V30 522 H 46.7922 0.611587 -0.276048 0
M  V30 523 H 49.3362 1.50742 -1.38192 0
M  V30 524 H 47.4912 3.83823 -0.525194 0
M  V30 525 H 47.9052 4.54128 -2.62427 0
M  V30 526 H 49.3792 5.39989 -1.14523 0
M  V30 527 H 49.8562 4.38673 0.215176 0
M  V30 528 H 50.4622 4.01097 -1.41426 0
M  V30 529 N 48.7773 0.814389 1.34928 0
M  V30 530 C 49.7253 0.218424 2.31572 0
M  V30 531 C 50.7193 -0.636128 1.57002 0
M  V30 532 O 51.9253 -0.52842 1.72069 0
M  V30 533 H 48.3003 0.0518799 0.750208 0
M  V30 534 H 50.2713 1.04852 2.79372 0
M  V30 535 C 49.0203 -0.61207 3.4227 0
M  V30 536 H 48.3433 0.0361578 3.99784 0
M  V30 537 H 49.7833 -0.995317 4.12152 0
M  V30 538 C 48.2423 -1.78087 2.85984 0
M  V30 539 O 48.7723 -2.8787 2.80168 0
M  V30 540 N 46.9783 -1.59488 2.42924 0
M  V30 541 H 46.5253 -0.701874 2.47854 0
M  V30 542 H 46.4833 -2.37846 2.05613 0
M  V30 543 N 50.2554 -1.46986 0.568584 0
M  V30 544 C 51.2184 -2.28624 -0.162366 0
M  V30 545 C 52.2184 -1.37596 -0.832103 0
M  V30 546 O 53.4084 -1.60115 -0.68622 0
M  V30 547 C 50.5404 -3.17596 -1.23878 0
M  V30 548 H 51.7334 -2.94722 0.554899 0
M  V30 549 H 49.2864 -1.52863 0.325976 0
M  V30 550 H 50.0214 -2.56214 -1.98808 0
M  V30 551 H 49.8064 -3.846 -0.763219 0
M  V30 552 H 51.2964 -3.79078 -1.75185 0
M  V30 553 N 51.7335 -0.305618 -1.54608 0
M  V30 554 C 52.6815 0.584119 -2.25146 0
M  V30 555 C 53.6755 1.13326 -1.25911 0
M  V30 556 O 54.8815 1.08337 -1.43747 0
M  V30 557 H 51.2565 0.206983 -0.722954 0
M  V30 558 H 53.2275 -0.033291 -2.98381 0
M  V30 559 C 51.9765 1.74225 -3.009 0
M  V30 560 H 51.2995 1.32892 -3.77067 0
M  V30 561 H 52.7395 2.34077 -3.53531 0
M  V30 562 C 51.1985 2.64914 -2.0814 0
M  V30 563 O 51.7285 3.66137 -1.65246 0
M  V30 564 N 49.9345 2.3275 -1.74 0
M  V30 565 H 49.4815 1.50479 -2.09078 0
M  V30 566 H 49.4395 2.93694 -1.12211 0
M  V30 567 N 53.2116 1.57565 -0.0334293 0
M  V30 568 C 54.4586 1.91978 0.644272 0
M  V30 569 C 54.7866 0.910231 1.71887 0
M  V30 570 O 54.0416 -0.0801961 1.95536 0
M  V30 571 C 54.3406 3.33112 1.29504 0
M  V30 572 C 54.0066 4.49537 0.350388 0
M  V30 573 C 52.6686 4.81115 0.0903974 0
M  V30 574 C 55.0206 5.20347 -0.298032 0
M  V30 575 C 52.3486 5.8086 -0.825746 0
M  V30 576 C 54.7006 6.2107 -1.20226 0
M  V30 577 C 53.3646 6.51088 -1.4711 0
M  V30 578 H 52.6346 0.702496 0.235756 0
M  V30 579 H 55.2816 1.91259 -0.0961176 0
M  V30 580 H 53.5866 3.30113 2.11028 0
M  V30 581 H 55.2836 3.57011 1.82603 0
M  V30 582 H 51.8736 4.24883 0.563205 0
M  V30 583 H 56.0576 4.96178 -0.110234 0
M  V30 584 H 51.3136 6.02461 -1.04169 0
M  V30 585 H 55.4876 6.75057 -1.71086 0
M  V30 586 H 53.1146 7.28193 -2.18264 0
M  V30 587 N 54.6897 -0.239769 1.55765 0
M  V30 588 C 55.6197 -1.30052 1.9393 0
M  V30 589 C 56.6007 -1.49839 0.805132 0
M  V30 590 O 57.7857 -1.62328 1.06599 0
M  V30 591 C 54.9157 -2.65391 2.2402 0
M  V30 592 C 53.8697 -2.60289 3.39755 0
M  V30 593 C 53.1957 -3.99489 3.55405 0
M  V30 594 C 54.4957 -2.16654 4.75246 0
M  V30 595 H 56.1897 -0.983573 2.82783 0
M  V30 596 H 53.7357 -0.471701 1.36055 0
M  V30 597 H 55.6887 -3.3974 2.49308 0
M  V30 598 H 54.4127 -2.98736 1.32 0
M  V30 599 H 53.0717 -1.88398 3.14487 0
M  V30 600 H 52.7197 -4.30112 2.60793 0
M  V30 601 H 52.4197 -3.96962 4.33238 0
M  V30 602 H 53.9437 -4.75528 3.83022 0
M  V30 603 H 55.3577 -2.80737 4.99859 0
M  V30 604 H 53.7547 -2.25223 5.56232 0
M  V30 605 H 54.8247 -1.11835 4.71827 0
M  V30 606 N 56.1678 -1.49265 -0.50573 0
M  V30 607 C 57.4138 -1.58748 -1.26202 0
M  V30 608 C 57.7468 -0.271227 -1.92297 0
M  V30 609 O 57.0218 0.724831 -1.80489 0
M  V30 610 C 57.3048 -2.74332 -2.33268 0
M  V30 611 C 57.1578 -4.15737 -1.71705 0
M  V30 612 C 58.4768 -2.85576 -3.34865 0
M  V30 613 H 55.5958 -0.577826 -0.457478 0
M  V30 614 H 58.2378 -1.81532 -0.560897 0
M  V30 615 H 56.3878 -2.55036 -2.93068 0
M  V30 616 H 58.0598 -4.46537 -1.15769 0
M  V30 617 H 56.3028 -4.21605 -1.02135 0
M  V30 618 H 56.9738 -4.92477 -2.49341 0
M  V30 619 H 59.4498 -3.03127 -2.8505 0
M  V30 620 H 58.3258 -3.68135 -4.07146 0
M  V30 621 H 58.5868 -1.94732 -3.96903 0
M  V30 622 N 57.6459 0.756429 -1.3826 0
M  V30 623 C 58.8919 1.5168 -1.35517 0
M  V30 624 C 59.2469 1.9232 0.0554451 0
M  V30 625 O 58.5399 1.62352 1.01746 0
M  V30 626 C 58.7339 2.78313 -2.24224 0
M  V30 627 C 58.5629 2.50053 -3.7377 0
M  V30 628 C 57.3329 2.43414 -4.42807 0
M  V30 629 C 59.5309 2.1702 -4.66269 0
M  V30 630 N 57.5129 2.07398 -5.77805 0
M  V30 631 C 58.8839 1.91271 -5.89759 0
M  V30 632 C 60.9389 2.03305 -4.54501 0
M  V30 633 C 59.6419 1.53192 -7.02798 0
M  V30 634 C 61.6679 1.66627 -5.67441 0
M  V30 635 C 61.0299 1.4175 -6.8999 0
M  V30 636 H 57.1289 0.554735 -0.551174 0
M  V30 637 H 59.7129 0.881106 -1.73622 0
M  V30 638 H 57.8839 3.39696 -1.88311 0
M  V30 639 H 59.6159 3.44343 -2.12627 0
M  V30 640 H 56.3709 2.59789 -3.95988 0
M  V30 641 H 56.7949 1.92044 -6.4919 0
M  V30 642 H 61.4369 2.21215 -3.60311 0
M  V30 643 H 59.1549 1.34022 -7.96909 0
M  V30 644 H 62.7409 1.56652 -5.60314 0
M  V30 645 H 61.6209 1.1379 -7.759 0
M  V30 646 N 59.124 1.23083 0.984299 0
M  V30 647 C 60.535 1.05609 1.5396 0
M  V30 648 C 60.886 -0.377793 1.92528 0
M  V30 649 O 60.011 -1.26398 1.75649 0
M  V30 650 C 60.606 1.91087 2.7977 0
M  V30 651 C 59.165 1.77885 3.31713 0
M  V30 652 C 58.312 1.87028 2.04733 0
M  V30 653 H 61.263 1.36802 0.804419 0
M  V30 654 H 61.284 1.43336 3.5247 0
M  V30 655 H 60.796 2.9544 2.51668 0
M  V30 656 H 58.897 0.762995 3.64704 0
M  V30 657 H 59.01 2.61047 4.01735 0
M  V30 658 H 57.374 1.30565 2.18689 0
M  V30 659 H 58.157 2.92929 1.79017 0
M  V30 660 N 60.6021 -1.18246 1.0419 0
M  V30 661 C 62.0131 -1.69914 0.773698 0
M  V30 662 C 62.3641 -1.83085 -0.705297 0
M  V30 663 O 61.4891 -1.51123 -1.5489 0
M  V30 664 C 62.0841 -3.08619 1.39784 0
M  V30 665 C 60.6431 -3.57494 1.17792 0
M  V30 666 C 59.7901 -2.34013 1.48773 0
M  V30 667 H 62.7411 -1.02904 1.20816 0
M  V30 668 H 62.7621 -3.71958 0.801714 0
M  V30 669 H 62.2741 -2.99001 2.47426 0
M  V30 670 H 60.3751 -3.72406 0.120295 0
M  V30 671 H 60.4881 -4.40852 1.87581 0
M  V30 672 H 58.8521 -2.37986 0.907463 0
M  V30 673 H 59.6351 -2.27013 2.57527 0
M  V30 674 N 62.0802 -0.821533 -1.34494 0
M  V30 675 C 63.3202 -0.414785 -2.00147 0
M  V30 676 C 63.6842 1.00299 -1.6372 0
M  V30 677 O 64.8852 1.51255 -2.22206 0
M  V30 678 C 63.1562 -0.609403 -3.52166 0
M  V30 679 S 64.7152 -0.295297 -4.37805 0
M  V30 680 H 61.5332 -0.15679 -0.693497 0
M  V30 681 H 64.1352 -1.06705 -1.63812 0
M  V30 682 H 62.8392 -1.64096 -3.76166 0
M  V30 683 H 62.3702 0.0576414 -3.93358 0
M  V30 684 H 64.3852 0.891531 -4.88125 0
M  V30 685 N 63.5583 1.46682 -0.576371 0
M  V30 686 C 64.8043 2.02712 -0.0596221 0
M  V30 687 C 65.1373 1.44765 1.29448 0
M  V30 688 O 64.4123 0.610355 1.84675 0
M  V30 689 C 64.6953 3.60098 0.0129503 0
M  V30 690 C 64.5483 4.28441 -1.3696 0
M  V30 691 C 65.8673 4.34224 0.71678 0
M  V30 692 H 62.9863 0.736637 -0.0231407 0
M  V30 693 H 65.6283 1.74898 -0.742351 0
M  V30 694 H 63.7783 3.83926 0.594378 0
M  V30 695 H 65.4503 4.15896 -1.9957 0
M  V30 696 H 63.6933 3.8805 -1.93907 0
M  V30 697 H 64.3643 5.3716 -1.27135 0
M  V30 698 H 66.8403 4.15503 0.222908 0
M  V30 699 H 65.7163 5.43936 0.73657 0
M  V30 700 H 65.9773 4.04823 1.77682 0
M  V30 701 N 65.0364 0.313813 1.54444 0
M  V30 702 C 65.9464 -0.565714 2.27677 0
M  V30 703 C 66.9624 -1.13754 1.31666 0
M  V30 704 O 68.1384 -1.15959 1.64668 0
M  V30 705 C 65.2034 -1.71528 3.01296 0
M  V30 706 C 64.2644 -1.17624 4.12872 0
M  V30 707 C 63.4974 -2.27102 4.8297 0
M  V30 708 O 63.7204 -3.47256 4.52514 0
M  V30 709 O 62.6544 -1.9307 5.70094 0
M  V30 710 H 66.4804 0.0287296 3.03686 0
M  V30 711 H 64.0654 0.0798312 1.49187 0
M  V30 712 H 65.9474 -2.38476 3.4743 0
M  V30 713 H 64.6224 -2.29608 2.2817 0
M  V30 714 H 63.5294 -0.472124 3.71109 0
M  V30 715 H 64.8624 -0.640695 4.88012 0
M  V30 716 N 66.5145 -1.57545 0.0417849 0
M  V30 717 C 67.7605 -1.92601 -0.635021 0
M  V30 718 C 68.0935 -0.919627 -1.71045 0
M  V30 719 O 67.3685 0.0557892 -1.9442 0
M  V30 720 C 67.6515 -3.38085 -1.23979 0
M  V30 721 C 67.5045 -4.49467 -0.173057 0
M  V30 722 C 68.8235 -3.83776 -2.15416 0
M  V30 723 H 65.9425 -0.700397 -0.229374 0
M  V30 724 H 68.5845 -1.89728 0.101633 0
M  V30 725 H 66.7345 -3.40664 -1.86762 0
M  V30 726 H 68.4065 -4.59018 0.458312 0
M  V30 727 H 66.6495 -4.30909 0.499996 0
M  V30 728 H 67.3205 -5.48323 -0.636054 0
M  V30 729 H 69.7965 -3.83013 -1.62605 0
M  V30 730 H 68.6725 -4.8624 -2.54679 0
M  V30 731 H 68.9335 -3.19998 -3.05047 0
M  V30 732 N 67.9926 0.231505 -1.5589 0
M  V30 733 C 68.9246 1.31006 -1.8807 0
M  V30 734 C 69.9376 1.43539 -0.768145 0
M  V30 735 O 71.1266 1.44614 -1.04638 0
M  V30 736 C 68.2266 2.68688 -2.06543 0
M  V30 737 C 67.3996 2.78228 -3.37502 0
M  V30 738 C 66.4586 3.96857 -3.4553 0
M  V30 739 O 65.4846 3.85662 -4.18633 0
M  V30 740 N 66.6866 5.1072 -2.75944 0
M  V30 741 H 69.4516 1.03731 -2.81176 0
M  V30 742 H 67.0126 0.421573 -1.56315 0
M  V30 743 H 69.0046 3.46412 -2.09239 0
M  V30 744 H 67.5746 2.88605 -1.20109 0
M  V30 745 H 66.7946 1.87059 -3.46991 0
M  V30 746 H 68.0826 2.81564 -4.23791 0
M  V30 747 H 67.4806 5.2271 -2.16311 0
M  V30 748 H 66.0376 5.86523 -2.84314 0
M  V30 749 N 69.4707 1.49531 0.497807 0
M  V30 750 C 70.8867 1.36365 0.829266 0
M  V30 751 C 71.0867 0.399184 1.97506 0
M  V30 752 O 70.1427 -0.167977 2.51941 0
M  V30 753 C 71.4557 2.77153 1.16647 0
M  V30 754 C 73.0037 2.85877 1.27449 0
M  V30 755 C 73.4787 4.2744 1.64497 0
M  V30 756 N 74.9697 4.30265 1.7154 0
M  V30 757 C 75.7047 5.3677 2.01656 0
M  V30 758 N 75.2007 6.53516 2.29976 0
M  V30 759 N 76.9937 5.24189 2.02934 0
M  V30 760 H 69.1447 2.10831 -0.257703 0
M  V30 761 H 71.4077 0.946534 -0.0527091 0
M  V30 762 H 71.1137 3.49442 0.397872 0
M  V30 763 H 70.9877 3.12722 2.10915 0
M  V30 764 H 73.3747 2.13824 2.0338 0
M  V30 765 H 73.4557 2.53887 0.312244 0
M  V30 766 H 73.0997 5.00021 0.891151 0
M  V30 767 H 73.0297 4.56896 2.61827 0
M  V30 768 H 75.5207 3.4607 1.51802 0
M  V30 769 H 75.8337 7.30506 2.52153 0
M  V30 770 H 74.1787 6.56737 2.27425 0
M  V30 771 H 77.3697 4.31988 1.80289 0
M  V30 772 H 77.5427 6.07286 2.26071 0
M  V30 773 N 70.9488 -0.749086 1.3866 0
M  V30 774 C 72.1888 -1.52112 1.36534 0
M  V30 775 C 72.5528 -1.91951 -0.0432316 0
M  V30 776 O 73.7538 -2.68132 -0.189396 0
M  V30 777 C 72.0248 -2.73704 2.29828 0
M  V30 778 S 73.5838 -3.63519 2.45763 0
M  V30 779 H 70.4018 -0.520482 0.484375 0
M  V30 780 H 73.0038 -0.878963 1.74627 0
M  V30 781 H 71.7078 -2.42552 3.31054 0
M  V30 782 H 71.2388 -3.4286 1.929 0
M  V30 783 H 73.2538 -4.66712 1.68505 0
M  V30 784 N 72.4269 -1.23603 -0.977757 0
M  V30 785 C 73.6519 -1.09735 -1.75991 0
M  V30 786 C 74.0769 0.346858 -1.84874 0
M  V30 787 O 73.4349 1.25093 -1.3123 0
M  V30 788 C 73.4829 -1.73051 -3.16363 0
M  V30 789 O 72.5869 -0.994452 -4.0023 0
M  V30 790 H 71.9279 -0.384476 -0.541364 0
M  V30 791 H 74.4579 -1.6371 -1.2272 0
M  V30 792 H 74.4679 -1.78398 -3.66931 0
M  V30 793 H 73.1429 -2.78137 -3.09213 0
M  V30 794 H 71.7199 -1.01812 -3.58732 0
M  V30 795 N 73.905 1.17692 -1.04816 0
M  V30 796 C 75.153 1.87488 -0.754497 0
M  V30 797 C 75.474 1.81205 0.720407 0
M  V30 798 O 74.744 1.23544 1.52032 0
M  V30 799 H 73.324 0.694101 -0.276102 0
M  V30 800 H 75.986 1.42793 -1.32651 0
M  V30 801 H 75.082 2.93328 -1.06606 0
M  V30 802 N 75.3831 0.828654 1.34056 0
M  V30 803 C 76.6231 0.425394 1.99924 0
M  V30 804 C 76.9871 -0.994294 1.64249 0
M  V30 805 O 78.1881 -1.50074 2.23005 0
M  V30 806 C 76.4591 0.628071 3.51838 0
M  V30 807 S 78.0181 0.318511 4.37642 0
M  V30 808 H 74.8361 0.160465 0.692656 0
M  V30 809 H 77.4381 1.07572 1.63244 0
M  V30 810 H 76.1421 1.66089 3.7529 0
M  V30 811 H 75.6731 -0.0367799 3.93383 0
M  V30 812 H 77.6881 -0.865632 4.88591 0
M  V30 813 N 76.8612 -1.46375 0.584142 0
M  V30 814 C 78.1012 -2.0427 0.0729695 0
M  V30 815 C 78.4652 -1.44563 -1.26355 0
M  V30 816 O 79.6662 -1.93667 -1.86405 0
M  V30 817 C 77.9372 -3.57399 0.00967464 0
M  V30 818 S 79.4962 -4.36551 -0.443714 0
M  V30 819 H 76.3142 -0.709975 0.0381673 0
M  V30 820 H 78.9162 -1.79398 0.776962 0
M  V30 821 H 77.6202 -3.98372 0.986319 0
M  V30 822 H 77.1512 -3.8681 -0.717044 0
M  V30 823 H 79.1662 -4.66237 -1.69816 0
M  V30 824 N 78.3393 -0.321999 -1.54275 0
M  V30 825 C 79.2873 0.560206 -2.25753 0
M  V30 826 C 80.2813 1.11984 -1.27106 0
M  V30 827 O 81.4873 1.06806 -1.44888 0
M  V30 828 H 77.8623 0.199304 -0.725108 0
M  V30 829 H 79.8333 -0.0649365 -2.98329 0
M  V30 830 C 78.5823 1.71023 -3.02731 0
M  V30 831 H 77.9053 1.28885 -3.78456 0
M  V30 832 H 79.3453 2.30314 -3.55993 0
M  V30 833 C 77.8043 2.62692 -2.10938 0
M  V30 834 O 78.3343 3.64364 -1.6912 0
M  V30 835 N 76.5403 2.30891 -1.76459 0
M  V30 836 H 76.0873 1.48253 -2.10663 0
M  V30 837 H 76.0453 2.92487 -1.1532 0
M  V30 838 N 79.8174 1.5752 -0.0501392 0
M  V30 839 C 80.7654 2.12651 0.942459 0
M  V30 840 C 81.7594 1.05807 1.32292 0
M  V30 841 O 82.9654 1.24217 1.3027 0
M  V30 842 H 79.3404 0.679673 0.321789 0
M  V30 843 H 81.3114 2.94951 0.452356 0
M  V30 844 C 80.0604 2.68565 2.20836 0
M  V30 845 H 79.3834 3.50439 1.92439 0
M  V30 846 H 80.8234 3.10761 2.8845 0
M  V30 847 C 79.2824 1.62291 2.95234 0
M  V30 848 O 79.8124 1.03508 3.88135 0
M  V30 849 N 78.0184 1.33836 2.57946 0
M  V30 850 H 77.5654 1.81826 1.82475 0
M  V30 851 H 77.5234 0.629595 3.08032 0
M  V30 852 N 81.2955 -0.223234 1.56011 0
M  V30 853 C 82.7115 -0.572856 1.48965 0
M  V30 854 C 82.9115 -1.87225 0.74492 0
M  V30 855 O 81.9675 -2.50899 0.283896 0
M  V30 856 C 83.2805 -0.653646 2.9351 0
M  V30 857 C 84.8285 -0.744386 3.0402 0
M  V30 858 C 85.3035 -0.856535 4.49919 0
M  V30 859 N 86.7945 -0.9208 4.53955 0
M  V30 860 C 87.5295 -1.02726 5.64123 0
M  V30 861 N 87.0255 -1.09777 6.84047 0
M  V30 862 N 88.8185 -1.06226 5.51971 0
M  V30 863 H 80.9695 0.629462 2.02858 0
M  V30 864 H 83.2325 0.220621 0.921971 0
M  V30 865 H 82.9385 0.231518 3.50937 0
M  V30 866 H 82.8125 -1.51781 3.45315 0
M  V30 867 H 85.1995 -1.61999 2.46658 0
M  V30 868 H 85.2805 0.14541 2.55386 0
M  V30 869 H 84.9245 0.0146069 5.07898 0
M  V30 870 H 84.8545 -1.76172 4.96257 0
M  V30 871 H 87.3455 -0.876694 3.6759 0
M  V30 872 H 87.6585 -1.17872 7.63758 0
M  V30 873 H 86.0035 -1.06693 6.86762 0
M  V30 874 H 89.1945 -1.00382 4.5721 0
M  V30 875 H 89.3675 -1.14177 6.37862 0
M  V30 876 N 82.7736 -1.49793 -0.48987 0
M  V30 877 C 83.7216 -1.67783 -1.61095 0
M  V30 878 C 84.7156 -0.543683 -1.60438 0
M  V30 879 O 85.9216 -0.723647 -1.64813 0
M  V30 880 H 82.2966 -0.529255 -0.534222 0
M  V30 881 H 84.2676 -2.61861 -1.43078 0
M  V30 882 C 83.0166 -1.77191 -2.99164 0
M  V30 883 H 82.3396 -2.63841 -3.0038 0
M  V30 884 H 83.7796 -1.93809 -3.77113 0
M  V30 885 C 82.2386 -0.519203 -3.32875 0
M  V30 886 O 82.7686 0.350124 -4.00171 0
M  V30 887 N 80.9746 -0.378816 -2.8812 0
M  V30 888 H 80.5216 -1.08725 -2.33531 0
M  V30 889 H 80.4796 0.458239 -3.11043 0
M  V30 890 N 84.2517 0.741722 -1.39055 0
M  V30 891 C 85.4977 1.50336 -1.36113 0
M  V30 892 C 85.8307 1.94148 0.0450796 0
M  V30 893 O 85.1057 1.66301 1.00868 0
M  V30 894 C 85.3887 2.74773 -2.32749 0
M  V30 895 C 85.2417 2.37023 -3.82283 0
M  V30 896 C 86.5607 3.76846 -2.27322 0
M  V30 897 H 83.6797 0.545351 -0.495743 0
M  V30 898 H 86.3217 0.848624 -1.69995 0
M  V30 899 H 84.4717 3.30639 -2.03986 0
M  V30 900 H 86.1437 1.8684 -4.21768 0
M  V30 901 H 84.3867 1.69334 -3.99385 0
M  V30 902 H 85.0577 3.26104 -4.45376 0
M  V30 903 H 87.5337 3.30548 -2.5274 0
M  V30 904 H 86.4097 4.6159 -2.97028 0
M  V30 905 H 86.6707 4.23286 -1.27599 0
M  V30 906 N 85.7298 1.2412 0.971189 0
M  V30 907 C 86.6618 0.988349 2.06795 0
M  V30 908 C 87.6748 -0.0409541 1.62748 0
M  V30 909 O 88.8638 0.195673 1.77424 0
M  V30 910 C 85.9638 0.469023 3.35639 0
M  V30 911 C 85.1368 1.56065 4.08611 0
M  V30 912 C 84.1958 1.04458 5.15728 0
M  V30 913 O 83.2218 1.73553 5.42096 0
M  V30 914 N 84.4238 -0.122817 5.8037 0
M  V30 915 H 87.1888 1.93265 2.29061 0
M  V30 916 H 84.7498 1.15102 1.13856 0
M  V30 917 H 86.7418 0.108613 4.04554 0
M  V30 918 H 85.3118 -0.380919 3.1027 0
M  V30 919 H 84.5318 2.09341 3.34021 0
M  V30 920 H 85.8198 2.29449 4.54126 0
M  V30 921 H 85.2178 -0.700563 5.61345 0
M  V30 922 H 83.7748 -0.424404 6.50417 0
M  V30 923 N 87.2079 -1.17134 1.05439 0
M  V30 924 C 88.4479 -1.89137 0.77502 0
M  V30 925 C 88.8119 -1.79345 -0.685526 0
M  V30 926 O 90.0129 -2.46188 -1.0791 0
M  V30 927 C 88.2839 -3.35003 1.2453 0
M  V30 928 S 89.8429 -4.24952 1.09367 0
M  V30 929 H 86.6609 -0.652949 0.281387 0
M  V30 930 H 89.2629 -1.4145 1.34953 0
M  V30 931 H 87.9669 -3.39666 2.30338 0
M  V30 932 H 87.4979 -3.87736 0.665166 0
M  V30 933 H 89.5129 -4.96196 0.0193397 0
M  V30 934 N 88.686 -0.835752 -1.33615 0
M  V30 935 C 90.102 -0.523139 -1.50783 0
M  V30 936 C 90.302 0.950171 -1.77691 0
M  V30 937 O 89.358 1.73411 -1.83534 0
M  V30 938 C 90.671 -1.39378 -2.66448 0
M  V30 939 C 92.219 -1.39223 -2.80332 0
M  V30 940 C 92.694 -2.24765 -3.99055 0
M  V30 941 N 94.185 -2.22458 -4.06284 0
M  V30 942 C 94.92 -2.85386 -4.97336 0
M  V30 943 N 94.416 -3.57354 -5.93523 0
M  V30 944 N 96.209 -2.74872 -4.90308 0
M  V30 945 H 88.36 -1.78952 -1.14411 0
M  V30 946 H 90.623 -0.763297 -0.562212 0
M  V30 947 H 90.329 -2.44061 -2.53234 0
M  V30 948 H 90.203 -1.0676 -3.61776 0
M  V30 949 H 92.59 -0.353136 -2.92979 0
M  V30 950 H 92.671 -1.75846 -1.85773 0
M  V30 951 H 92.315 -3.28732 -3.87167 0
M  V30 952 H 92.245 -1.85485 -4.92852 0
M  V30 953 H 94.736 -1.70119 -3.37443 0
M  V30 954 H 95.049 -4.02584 -6.59656 0
M  V30 955 H 93.394 -3.61461 -5.93608 0
M  V30 956 H 96.585 -2.18213 -4.14126 0
M  V30 957 H 96.758 -3.24199 -5.61069 0
M  V30 958 N 90.1641 1.46063 -0.591896 0
M  V30 959 C 91.5751 1.85944 -0.167822 0
M  V30 960 C 91.9261 1.49429 1.27143 0
M  V30 961 O 91.0511 0.913515 1.96173 0
M  V30 962 C 91.6461 3.37489 -0.297794 0
M  V30 963 C 90.2051 3.76332 0.0714732 0
M  V30 964 C 89.3521 2.7006 -0.629509 0
M  V30 965 H 92.3031 1.37087 -0.799555 0
M  V30 966 H 92.3241 3.77532 0.474349 0
M  V30 967 H 91.8361 3.64034 -1.3454 0
M  V30 968 H 89.9371 3.55405 1.11886 0
M  V30 969 H 90.0501 4.78088 -0.311245 0
M  V30 970 H 88.4141 2.54607 -0.0687867 0
M  V30 971 H 89.1971 2.99444 -1.67894 0
M  V30 972 N 91.6422 0.330177 1.54103 0
M  V30 973 C 92.8702 -0.272179 2.05102 0
M  V30 974 C 93.2852 -1.45267 1.20595 0
M  V30 975 O 92.6422 -1.8094 0.238144 0
M  V30 976 C 92.6932 -0.70023 3.54653 0
M  V30 977 O 92.4142 0.433301 4.35952 0
M  V30 978 C 93.9152 -1.3647 4.21771 0
M  V30 979 H 91.1352 -0.0549159 0.668749 0
M  V30 980 H 93.6792 0.478285 1.98828 0
M  V30 981 H 91.8342 -1.40066 3.61193 0
M  V30 982 H 92.2482 0.0947539 5.24414 0
M  V30 983 H 93.7222 -1.61509 5.27843 0
M  V30 984 H 94.1992 -2.31409 3.73292 0
M  V30 985 H 94.8052 -0.706675 4.19388 0
M  V30 986 N 93.1203 -1.57491 0.0584922 0
M  V30 987 C 94.0523 -2.08916 -0.942694 0
M  V30 988 C 95.0653 -1.0185 -1.27006 0
M  V30 989 O 96.2543 -1.29398 -1.22957 0
M  V30 990 C 93.3543 -2.52341 -2.26224 0
M  V30 991 C 92.5273 -3.82827 -2.1157 0
M  V30 992 C 91.5863 -4.12487 -3.26712 0
M  V30 993 O 90.6123 -4.82295 -3.02292 0
M  V30 994 N 91.8143 -3.64978 -4.5141 0
M  V30 995 H 94.5793 -2.95437 -0.503722 0
M  V30 996 H 92.1403 -1.61397 -0.12757 0
M  V30 997 H 94.1323 -2.69254 -3.02133 0
M  V30 998 H 92.7023 -1.7103 -2.61663 0
M  V30 999 H 91.9223 -3.75425 -1.20208 0
M  V30 1000 H 93.2103 -4.68263 -1.99015 0
M  V30 1001 H 92.6083 -3.08558 -4.7414 0
M  V30 1002 H 91.1653 -3.87115 -5.2439 0
M  V30 1003 N 94.5984 0.214957 -1.56127 0
M  V30 1004 C 95.8444 0.939762 -1.79712 0
M  V30 1005 C 96.1774 1.83723 -0.629247 0
M  V30 1006 O 95.4524 1.90925 0.371197 0
M  V30 1007 C 95.7354 1.77306 -3.13424 0
M  V30 1008 C 95.5884 0.90164 -4.40671 0
M  V30 1009 C 96.9074 2.74956 -3.43638 0
M  V30 1010 H 94.0264 0.340214 -0.653776 0
M  V30 1011 H 96.6684 0.20824 -1.88855 0
M  V30 1012 H 94.8184 2.39673 -3.0576 0
M  V30 1013 H 96.4904 0.294206 -4.60361 0
M  V30 1014 H 94.7334 0.207368 -4.33304 0
M  V30 1015 H 95.4044 1.51923 -5.30682 0
M  V30 1016 H 97.8804 2.22724 -3.51473 0
M  V30 1017 H 96.7564 3.30358 -4.38355 0
M  V30 1018 H 97.0174 3.53023 -2.66134 0
M  V30 1019 N 96.0765 1.50051 0.48192 0
M  V30 1020 C 97.0085 1.64263 1.59844 0
M  V30 1021 C 98.0215 0.52451 1.54119 0
M  V30 1022 O 99.2105 0.797293 1.59704 0
M  V30 1023 C 96.3105 1.60102 2.98698 0
M  V30 1024 C 95.4835 2.87767 3.29407 0
M  V30 1025 C 94.5425 2.76397 4.47762 0
M  V30 1026 O 93.5685 3.50348 4.48603 0
M  V30 1027 N 94.7705 1.89222 5.48794 0
M  V30 1028 H 97.5355 2.60566 1.48073 0
M  V30 1029 H 95.0965 1.47379 0.670149 0
M  V30 1030 H 97.0885 1.50123 3.75826 0
M  V30 1031 H 95.6585 0.715798 3.04294 0
M  V30 1032 H 94.8785 3.11954 2.40994 0
M  V30 1033 H 96.1665 3.72365 3.4673 0
M  V30 1034 H 95.5645 1.28434 5.50928 0
M  V30 1035 H 94.1215 1.85154 6.24949 0
M  V30 1036 N 97.5546 -0.734337 1.39446 0
M  V30 1037 C 98.4846 -1.86155 1.40955 0
M  V30 1038 C 99.4656 -1.67898 0.272827 0
M  V30 1039 O 100.651 -1.88207 0.478743 0
M  V30 1040 C 97.7806 -3.23912 1.25294 0
M  V30 1041 C 96.7346 -3.56808 2.36373 0
M  V30 1042 C 96.0606 -4.93508 2.058 0
M  V30 1043 C 97.3606 -3.59713 3.78687 0
M  V30 1044 H 99.0546 -1.8515 2.35287 0
M  V30 1045 H 96.6006 -0.889367 1.13253 0
M  V30 1046 H 98.5536 -4.02443 1.2497 0
M  V30 1047 H 97.2776 -3.25446 0.274308 0
M  V30 1048 H 95.9366 -2.80606 2.35914 0
M  V30 1049 H 95.5846 -4.91623 1.06374 0
M  V30 1050 H 95.2846 -5.16486 2.80208 0
M  V30 1051 H 96.8086 -5.74396 2.07128 0
M  V30 1052 H 98.2226 -4.2832 3.81071 0
M  V30 1053 H 96.6196 -3.94209 4.52459 0
M  V30 1054 H 97.6896 -2.59504 4.09617 0
M  V30 1055 N 99.0327 -1.24633 -0.964593 0
M  V30 1056 C 100.449 -1.01239 -1.2338 0
M  V30 1057 C 100.649 0.2769 -1.99588 0
M  V30 1058 O 99.7047 0.992241 -2.32187 0
M  V30 1059 C 101.018 -2.22937 -2.01791 0
M  V30 1060 C 102.566 -2.27594 -2.14872 0
M  V30 1061 C 103.041 -3.48921 -2.96678 0
M  V30 1062 N 104.532 -3.49257 -3.04259 0
M  V30 1063 C 105.267 -4.39795 -3.67924 0
M  V30 1064 N 104.763 -5.40591 -4.33281 0
M  V30 1065 N 106.556 -4.275 -3.64966 0
M  V30 1066 H 98.7067 -2.0748 -0.454502 0
M  V30 1067 H 100.97 -0.910647 -0.26349 0
M  V30 1068 H 100.676 -3.16587 -1.53184 0
M  V30 1069 H 100.55 -2.25306 -3.02518 0
M  V30 1070 H 102.937 -1.34473 -2.6268 0
M  V30 1071 H 103.018 -2.2925 -1.13482 0
M  V30 1072 H 102.662 -4.42359 -2.49562 0
M  V30 1073 H 102.592 -3.4451 -3.98272 0
M  V30 1074 H 105.083 -2.76337 -2.57771 0
M  V30 1075 H 105.396 -6.05904 -4.79687 0
M  V30 1076 H 103.741 -5.44475 -4.3194 0
M  V30 1077 H 106.932 -3.47987 -3.13086 0
M  V30 1078 H 107.105 -4.98258 -4.14298 0
M  V30 1079 N 100.511 1.16574 -1.06058 0
M  V30 1080 C 101.922 1.68662 -0.800632 0
M  V30 1081 C 102.273 1.84184 0.67608 0
M  V30 1082 O 101.398 1.53568 1.52466 0
M  V30 1083 C 101.993 3.06356 -1.44676 0
M  V30 1084 C 100.552 3.55575 -1.23465 0
M  V30 1085 C 99.6988 2.31616 -1.52477 0
M  V30 1086 H 102.65 1.00969 -1.22438 0
M  V30 1087 H 102.671 3.70636 -0.860788 0
M  V30 1088 H 102.183 2.95027 -2.52152 0
M  V30 1089 H 100.284 3.72167 -0.179527 0
M  V30 1090 H 100.397 4.37812 -1.94571 0
M  V30 1091 H 98.7608 2.36512 -0.945209 0
M  V30 1092 H 99.5438 2.22887 -2.61106 0
M  V30 1093 N 101.989 0.842826 1.3317 0
M  V30 1094 C 103.235 0.441099 1.97945 0
M  V30 1095 C 103.568 -0.998024 1.66593 0
M  V30 1096 O 102.843 -1.69839 0.947898 0
M  V30 1097 C 103.126 0.666841 3.53872 0
M  V30 1098 C 102.979 2.15352 3.94897 0
M  V30 1099 C 104.298 0.115544 4.39948 0
M  V30 1100 H 101.417 0.161739 0.719034 0
M  V30 1101 H 104.059 1.05907 1.57746 0
M  V30 1102 H 102.209 0.140828 3.88245 0
M  V30 1103 H 103.881 2.7447 3.70761 0
M  V30 1104 H 102.124 2.63653 3.44484 0
M  V30 1105 H 102.795 2.26221 5.03516 0
M  V30 1106 H 105.271 0.565213 4.12243 0
M  V30 1107 H 104.147 0.303152 5.48062 0
M  V30 1108 H 104.408 -0.980935 4.3108 0
M  V30 1109 N 103.467 -1.45747 0.599634 0
M  V30 1110 C 104.399 -2.28628 -0.161879 0
M  V30 1111 C 105.412 -1.39494 -0.839367 0
M  V30 1112 O 106.601 -1.63941 -0.706089 0
M  V30 1113 C 103.701 -3.15014 -1.24976 0
M  V30 1114 C 102.874 -4.32378 -0.660935 0
M  V30 1115 C 101.933 -5.00033 -1.63869 0
M  V30 1116 O 100.959 -5.57085 -1.1681 0
M  V30 1117 N 102.161 -4.98589 -2.97303 0
M  V30 1118 H 104.926 -2.94624 0.549265 0
M  V30 1119 H 102.487 -1.55847 0.438565 0
M  V30 1120 H 104.479 -3.5714 -1.9035 0
M  V30 1121 H 103.049 -2.5098 -1.86354 0
M  V30 1122 H 102.269 -3.9383 0.170688 0
M  V30 1123 H 103.557 -5.08197 -0.247619 0
M  V30 1124 H 102.955 -4.53514 -3.38145 0
M  V30 1125 H 101.512 -5.44603 -3.58121 0
M  V30 1126 N 104.945 -0.338344 -1.53925 0
M  V30 1127 C 106.191 0.260143 -2.01125 0
M  V30 1128 C 106.524 1.50617 -1.22589 0
M  V30 1129 O 105.799 1.91979 -0.312113 0
M  V30 1130 C 106.082 0.579499 -3.55407 0
M  V30 1131 C 105.935 -0.678264 -4.44657 0
M  V30 1132 C 107.254 1.39122 -4.17532 0
M  V30 1133 H 104.373 0.0930772 -0.731099 0
M  V30 1134 H 107.015 -0.457852 -1.84401 0
M  V30 1135 H 105.165 1.19118 -3.69788 0
M  V30 1136 H 106.837 -1.31631 -4.42121 0
M  V30 1137 H 105.08 -1.3042 -4.13731 0
M  V30 1138 H 105.751 -0.410143 -5.50474 0
M  V30 1139 H 108.227 0.874035 -4.06817 0
M  V30 1140 H 107.103 1.58342 -5.25565 0
M  V30 1141 H 107.364 2.39178 -3.71815 0
M  V30 1142 N 106.423 1.57458 -0.0668435 0
M  V30 1143 C 107.839 1.56947 0.289772 0
M  V30 1144 C 108.039 1.07584 1.70376 0
M  V30 1145 O 107.095 0.739486 2.41429 0
M  V30 1146 C 108.408 3.0052 0.103943 0
M  V30 1147 C 109.956 3.12517 0.173857 0
M  V30 1148 C 110.431 4.57997 0.0163682 0
M  V30 1149 N 111.922 4.63144 0.0721352 0
M  V30 1150 C 112.657 5.73394 -0.0253794 0
M  V30 1151 N 112.153 6.92576 -0.176133 0
M  V30 1152 N 113.946 5.62091 0.0313305 0
M  V30 1153 H 106.097 1.87863 -0.991027 0
M  V30 1154 H 108.36 0.86583 -0.38606 0
M  V30 1155 H 108.066 3.40729 -0.871572 0
M  V30 1156 H 107.94 3.67304 0.858366 0
M  V30 1157 H 110.327 2.72197 1.13985 0
M  V30 1158 H 110.408 2.48381 -0.611586 0
M  V30 1159 H 110.052 4.99005 -0.946374 0
M  V30 1160 H 109.982 5.20158 0.821153 0
M  V30 1161 H 112.473 3.77436 0.187263 0
M  V30 1162 H 112.786 7.72418 -0.242821 0
M  V30 1163 H 111.131 6.94678 -0.211429 0
M  V30 1164 H 114.322 4.67867 0.147773 0
M  V30 1165 H 114.495 6.47982 -0.048121 0
M  V30 1166 N 107.901 -0.206675 1.56239 0
M  V30 1167 C 108.848 -1.25617 1.93621 0
M  V30 1168 C 109.818 -1.45824 0.795274 0
M  V30 1169 O 111.003 -1.59148 1.05245 0
M  V30 1170 C 108.143 -2.59839 2.27107 0
M  V30 1171 C 107.256 -2.47308 3.54207 0
M  V30 1172 C 106.391 -3.74155 3.7707 0
M  V30 1173 C 105.43 -3.56407 4.97635 0
M  V30 1174 N 104.567 -4.75238 5.1681 0
M  V30 1175 H 109.407 -0.930383 2.83104 0
M  V30 1176 H 106.944 -0.448065 1.4011 0
M  V30 1177 H 108.902 -3.38021 2.44535 0
M  V30 1178 H 107.532 -2.90485 1.40778 0
M  V30 1179 H 106.584 -1.60483 3.4489 0
M  V30 1180 H 107.896 -2.30122 4.42544 0
M  V30 1181 H 107.05 -4.60778 3.94675 0
M  V30 1182 H 105.789 -3.94282 2.87042 0
M  V30 1183 H 104.794 -2.68168 4.79964 0
M  V30 1184 H 106.019 -3.37736 5.89161 0
M  V30 1185 H 103.965 -4.95651 4.29728 0
M  V30 1186 H 103.882 -4.60835 5.99306 0
M  V30 1187 H 105.15 -5.63246 5.38864 0
M  V30 1188 N 109.379 -1.50304 -0.473955 0
M  V30 1189 C 110.628 -1.60392 -1.22301 0
M  V30 1190 C 110.941 -0.308411 -1.93153 0
M  V30 1191 O 112.147 -0.288156 -2.69966 0
M  V30 1192 C 110.603 -2.83109 -2.2221 0
M  V30 1193 C 110.211 -4.19524 -1.57173 0
M  V30 1194 C 111.955 -3.0254 -2.97775 0
M  V30 1195 C 109.862 -5.33431 -2.55353 0
M  V30 1196 H 108.792 -0.597286 -0.460179 0
M  V30 1197 H 111.443 -1.76731 -0.493803 0
M  V30 1198 H 109.825 -2.60322 -2.9841 0
M  V30 1199 H 110.999 -4.52554 -0.867824 0
M  V30 1200 H 109.314 -4.05674 -0.939002 0
M  V30 1201 H 111.911 -3.84811 -3.71248 0
M  V30 1202 H 112.254 -2.14154 -3.56992 0
M  V30 1203 H 112.787 -3.25494 -2.28688 0
M  V30 1204 H 109.526 -6.23962 -2.00878 0
M  V30 1205 H 109.046 -5.04823 -3.23904 0
M  V30 1206 H 110.725 -5.63887 -3.17239 0
M  V30 1207 N 110.857 0.726932 -1.39834 0
M  V30 1208 C 111.767 1.87131 -1.41489 0
M  V30 1209 C 112.783 1.71239 -0.308757 0
M  V30 1210 O 113.959 1.93701 -0.551529 0
M  V30 1211 C 111.024 3.22811 -1.26468 0
M  V30 1212 C 110.085 3.51039 -2.47124 0
M  V30 1213 C 109.318 4.80245 -2.3281 0
M  V30 1214 O 109.541 5.54537 -1.33585 0
M  V30 1215 O 108.475 5.08554 -3.21957 0
M  V30 1216 H 112.301 1.8869 -2.3797 0
M  V30 1217 H 109.886 0.875837 -1.21035 0
M  V30 1218 H 111.768 4.03877 -1.20255 0
M  V30 1219 H 110.443 3.22005 -0.330862 0
M  V30 1220 H 109.35 2.70027 -2.58914 0
M  V30 1221 H 110.683 3.56632 -3.39227 0
M  V30 1222 N 112.336 1.25143 0.95797 0
M  V30 1223 C 113.585 1.0909 1.69654 0
M  V30 1224 C 113.898 -0.368548 1.92097 0
M  V30 1225 O 115.104 -0.649455 2.63618 0
M  V30 1226 C 113.56 1.90395 3.05414 0
M  V30 1227 C 113.168 3.4081 2.90779 0
M  V30 1228 C 114.912 1.82901 3.83076 0
M  V30 1229 C 112.819 4.14423 4.21909 0
M  V30 1230 H 111.749 0.404625 0.636235 0
M  V30 1231 H 114.4 1.4931 1.06672 0
M  V30 1232 H 112.782 1.42996 3.69281 0
M  V30 1233 H 113.956 3.95859 2.35865 0
M  V30 1234 H 112.271 3.49361 2.26575 0
M  V30 1235 H 114.868 2.35196 4.80195 0
M  V30 1236 H 115.211 0.796224 4.08615 0
M  V30 1237 H 115.744 2.28033 3.25954 0
M  V30 1238 H 112.483 5.18102 4.01561 0
M  V30 1239 H 112.003 3.64159 4.76601 0
M  V30 1240 H 113.682 4.21956 4.90471 0
M  V30 1241 N 113.814 -1.1601 1.06675 0
M  V30 1242 C 115.06 -1.86909 0.786945 0
M  V30 1243 C 115.393 -1.81717 -0.685018 0
M  V30 1244 O 114.668 -1.23551 -1.50218 0
M  V30 1245 C 114.951 -3.36313 1.28707 0
M  V30 1246 C 114.804 -3.50175 2.82308 0
M  V30 1247 C 116.123 -4.3084 0.898071 0
M  V30 1248 H 113.242 -0.678677 0.287343 0
M  V30 1249 H 115.884 -1.36336 1.32334 0
M  V30 1250 H 114.034 -3.79513 0.830768 0
M  V30 1251 H 115.706 -3.15886 3.36175 0
M  V30 1252 H 113.949 -2.91959 3.20847 0
M  V30 1253 H 114.62 -4.55116 3.12368 0
M  V30 1254 H 117.096 -3.95561 1.29114 0
M  V30 1255 H 115.972 -5.33876 1.27543 0
M  V30 1256 H 116.233 -4.41662 -0.196651 0
M  V30 1257 N 115.292 -0.849877 -1.32721 0
M  V30 1258 C 116.708 -0.539102 -1.50219 0
M  V30 1259 C 116.908 0.931271 -1.78689 0
M  V30 1260 O 115.964 1.71455 -1.85363 0
M  V30 1261 C 117.277 -1.42196 -2.64954 0
M  V30 1262 C 118.825 -1.42189 -2.78839 0
M  V30 1263 C 119.3 -2.28985 -3.96648 0
M  V30 1264 N 120.791 -2.26754 -4.03902 0
M  V30 1265 C 121.526 -2.90644 -4.94281 0
M  V30 1266 N 121.022 -3.63629 -5.897 0
M  V30 1267 N 122.815 -2.80057 -4.87365 0
M  V30 1268 H 114.966 -1.80156 -1.12506 0
M  V30 1269 H 117.229 -0.769217 -0.554085 0
M  V30 1270 H 116.935 -2.46733 -2.50631 0
M  V30 1271 H 116.809 -1.10591 -3.60624 0
M  V30 1272 H 119.196 -0.38419 -2.92588 0
M  V30 1273 H 119.277 -1.77807 -1.83898 0
M  V30 1274 H 118.921 -3.32819 -3.83658 0
M  V30 1275 H 118.851 -1.90702 -4.90857 0
M  V30 1276 H 121.342 -1.73688 -3.3562 0
M  V30 1277 H 121.655 -4.09558 -6.55349 0
M  V30 1278 H 120 -3.67737 -5.89741 0
M  V30 1279 H 123.191 -2.22593 -4.11789 0
M  V30 1280 H 123.364 -3.30132 -5.57599 0
M  V30 1281 N 116.77 1.45427 -0.607355 0
M  V30 1282 C 117.717 2.3053 0.111625 0
M  V30 1283 C 118.687 1.4209 0.860216 0
M  V30 1284 O 119.872 1.71019 0.845998 0
M  V30 1285 C 117.012 3.26992 1.10319 0
M  V30 1286 C 116.125 4.30535 0.355493 0
M  V30 1287 C 115.26 5.14105 1.33676 0
M  V30 1288 C 114.299 6.09376 0.576862 0
M  V30 1289 N 113.436 6.85727 1.5074 0
M  V30 1290 H 118.276 2.91477 -0.620093 0
M  V30 1291 H 115.813 1.43631 -0.317594 0
M  V30 1292 H 117.771 3.81385 1.6912 0
M  V30 1293 H 116.401 2.67799 1.80232 0
M  V30 1294 H 115.453 3.78805 -0.348023 0
M  V30 1295 H 116.765 4.98235 -0.237423 0
M  V30 1296 H 115.919 5.72897 1.99684 0
M  V30 1297 H 114.658 4.46423 1.9636 0
M  V30 1298 H 113.663 5.49715 -0.0968519 0
M  V30 1299 H 114.888 6.79085 -0.0449341 0
M  V30 1300 H 112.834 6.20735 2.12189 0
M  V30 1301 H 112.751 7.49778 0.967913 0
M  V30 1302 H 114.019 7.4906 2.15706 0
M  V30 1303 N 118.248 0.346503 1.53744 0
M  V30 1304 C 119.195 -0.508914 2.25119 0
M  V30 1305 C 120.165 -1.09315 1.25058 0
M  V30 1306 O 121.35 -1.12921 1.53797 0
M  V30 1307 C 118.49 -1.65246 3.02965 0
M  V30 1308 C 117.603 -1.09525 4.17886 0
M  V30 1309 C 116.738 -2.20634 4.83212 0
M  V30 1310 C 115.777 -1.62279 5.90196 0
M  V30 1311 N 114.914 -2.67143 6.49291 0
M  V30 1312 H 119.754 0.106283 2.9781 0
M  V30 1313 H 117.291 0.0642227 1.4696 0
M  V30 1314 H 119.249 -2.32574 3.4636 0
M  V30 1315 H 117.879 -2.2386 2.32565 0
M  V30 1316 H 116.931 -0.312818 3.79112 0
M  V30 1317 H 118.243 -0.628444 4.94825 0
M  V30 1318 H 117.397 -2.95821 5.29693 0
M  V30 1319 H 116.136 -2.70659 4.05703 0
M  V30 1320 H 115.141 -0.855989 5.43096 0
M  V30 1321 H 116.366 -1.13102 6.69615 0
M  V30 1322 H 114.312 -3.16417 5.74645 0
M  V30 1323 H 114.229 -2.25093 7.21713 0
M  V30 1324 H 115.497 -3.4209 7.00425 0
M  V30 1325 N 119.726 -1.57421 0.075193 0
M  V30 1326 C 121.137 -1.81021 -0.456964 0
M  V30 1327 C 121.488 -0.98936 -1.69429 0
M  V30 1328 O 120.613 -0.212865 -2.15351 0
M  V30 1329 C 121.208 -3.28329 -0.83581 0
M  V30 1330 C 119.767 -3.52764 -1.31281 0
M  V30 1331 C 118.914 -2.75676 -0.299648 0
M  V30 1332 H 121.865 -1.55822 0.300856 0
M  V30 1333 H 121.886 -3.40564 -1.69696 0
M  V30 1334 H 121.398 -3.88046 0.0649238 0
M  V30 1335 H 119.499 -2.98355 -2.23193 0
M  V30 1336 H 119.612 -4.61451 -1.28839 0
M  V30 1337 H 117.976 -2.42538 -0.777641 0
M  V30 1338 H 118.759 -3.38132 0.593417 0
M  V30 1339 N 121.204 0.198386 -1.56346 0
M  V30 1340 C 122.453 0.917451 -1.79627 0
M  V30 1341 C 122.766 1.8456 -0.64784 0
M  V30 1342 O 123.972 2.60504 -0.764859 0
M  V30 1343 C 122.428 1.68175 -3.18191 0
M  V30 1344 C 122.036 0.798589 -4.40825 0
M  V30 1345 C 123.78 2.39065 -3.50782 0
M  V30 1346 C 121.687 1.56157 -5.70411 0
M  V30 1347 H 120.617 0.346317 -0.669762 0
M  V30 1348 H 123.268 0.170801 -1.82703 0
M  V30 1349 H 121.65 2.47216 -3.09354 0
M  V30 1350 H 122.824 0.0470665 -4.60776 0
M  V30 1351 H 121.139 0.200686 -4.15916 0
M  V30 1352 H 123.736 2.96692 -4.44835 0
M  V30 1353 H 124.079 3.13091 -2.74371 0
M  V30 1354 H 124.612 1.66993 -3.61052 0
M  V30 1355 H 121.351 0.864142 -6.49779 0
M  V30 1356 H 120.871 2.2871 -5.54483 0
M  V30 1357 H 122.55 2.11622 -6.11412 0
M  V30 1358 N 122.682 1.50554 0.465978 0
M  V30 1359 C 123.929 1.61798 1.21768 0
M  V30 1360 C 124.257 0.320696 1.91838 0
M  V30 1361 O 123.512 -0.693724 1.82992 0
M  V30 1362 C 123.811 2.75152 2.28093 0
M  V30 1363 C 123.477 4.15454 1.75239 0
M  V30 1364 C 122.139 4.53628 1.60546 0
M  V30 1365 C 124.491 5.03121 1.36083 0
M  V30 1366 C 121.819 5.77204 1.05128 0
M  V30 1367 C 124.171 6.27249 0.821056 0
M  V30 1368 C 122.835 6.64221 0.660795 0
M  V30 1369 H 122.105 0.592063 0.445582 0
M  V30 1370 H 124.752 1.84503 0.512927 0
M  V30 1371 H 123.057 2.46556 3.04496 0
M  V30 1372 H 124.754 2.81055 2.86023 0
M  V30 1373 H 121.344 3.85341 1.87644 0
M  V30 1374 H 125.528 4.74257 1.46267 0
M  V30 1375 H 120.784 6.0452 0.91462 0
M  V30 1376 H 124.958 6.94537 0.509018 0
M  V30 1377 H 122.585 7.59854 0.229226 0
M  V30 1378 N 124.16 -0.719506 1.40217 0
M  V30 1379 C 125.107 -1.83359 1.40172 0
M  V30 1380 C 126.077 -1.64065 0.259206 0
M  V30 1381 O 127.262 -1.85254 0.456677 0
M  V30 1382 C 124.402 -3.2103 1.26624 0
M  V30 1383 C 123.515 -3.51923 2.50548 0
M  V30 1384 C 122.65 -4.79079 2.29471 0
M  V30 1385 C 121.689 -5.02863 3.48992 0
M  V30 1386 N 120.826 -6.2123 3.27135 0
M  V30 1387 H 125.666 -1.82733 2.35399 0
M  V30 1388 H 123.203 -0.892688 1.16917 0
M  V30 1389 H 125.161 -4.00524 1.16776 0
M  V30 1390 H 123.791 -3.20895 0.350176 0
M  V30 1391 H 122.843 -2.67014 2.70939 0
M  V30 1392 H 124.155 -3.6541 3.39525 0
M  V30 1393 H 123.309 -5.66582 2.16955 0
M  V30 1394 H 122.048 -4.67794 1.37913 0
M  V30 1395 H 121.053 -4.13816 3.6199 0
M  V30 1396 H 122.278 -5.16023 4.41472 0
M  V30 1397 H 120.224 -6.11204 2.38256 0
M  V30 1398 H 120.141 -6.35375 4.09675 0
M  V30 1399 H 121.409 -7.11532 3.18344 0
M  V30 1400 N 125.638 -1.25649 -0.95132 0
M  V30 1401 C 126.585 -1.06323 -2.04851 0
M  V30 1402 C 127.555 0.0286491 -1.66075 0
M  V30 1403 O 128.74 -0.12917 -1.90362 0
M  V30 1404 C 125.88 -0.691529 -3.381 0
M  V30 1405 C 124.993 -1.85861 -3.89974 0
M  V30 1406 C 124.128 -1.43096 -5.11563 0
M  V30 1407 C 123.167 -2.56696 -5.55674 0
M  V30 1408 N 122.304 -2.14684 -6.68472 0
M  V30 1409 H 127.144 -2.00222 -2.20715 0
M  V30 1410 H 124.681 -0.997027 -1.08156 0
M  V30 1411 H 126.639 -0.456963 -4.1469 0
M  V30 1412 H 125.269 0.210474 -3.22113 0
M  V30 1413 H 124.321 -2.20639 -3.09875 0
M  V30 1414 H 125.633 -2.71161 -4.18657 0
M  V30 1415 H 124.787 -1.15624 -5.9558 0
M  V30 1416 H 123.526 -0.548722 -4.84603 0
M  V30 1417 H 122.531 -2.84909 -4.7022 0
M  V30 1418 H 123.756 -3.45503 -5.8464 0
M  V30 1419 H 121.702 -1.28881 -6.43215 0
M  V30 1420 H 121.619 -2.9353 -6.96689 0
M  V30 1421 H 122.887 -1.90397 -7.5589 0
M  V30 1422 N 127.117 1.15442 -1.07289 0
M  V30 1423 C 128.08 2.18358 -0.696591 0
M  V30 1424 C 129.08 1.58637 0.262837 0
M  V30 1425 O 130.27 1.74145 0.0438809 0
M  V30 1426 C 127.402 3.4089 -0.0266151 0
M  V30 1427 H 128.595 2.53162 -1.60776 0
M  V30 1428 H 126.148 1.29893 -0.869342 0
M  V30 1429 H 126.883 3.11653 0.896822 0
M  V30 1430 H 126.668 3.85495 -0.716657 0
M  V30 1431 H 128.158 4.17009 0.222028 0
M  V30 1432 N 128.595 0.856903 1.32268 0
M  V30 1433 C 129.823 0.475439 2.01363 0
M  V30 1434 C 130.238 -0.928486 1.64392 0
M  V30 1435 O 129.595 -1.60624 0.866387 0
M  V30 1436 C 129.646 0.607545 3.56358 0
M  V30 1437 O 129.367 1.95617 3.92002 0
M  V30 1438 C 130.868 0.225382 4.42727 0
M  V30 1439 H 128.088 0.186636 0.644521 0
M  V30 1440 H 130.632 1.15446 1.68797 0
M  V30 1441 H 128.787 -0.0237719 3.87393 0
M  V30 1442 H 129.201 1.95455 4.86721 0
M  V30 1443 H 130.675 0.368813 5.50767 0
M  V30 1444 H 131.152 -0.834369 4.31202 0
M  V30 1445 H 131.758 0.831864 4.17085 0
M  V30 1446 N 130.073 -1.45103 0.615059 0
M  V30 1447 C 131.319 -2.02483 0.113347 0
M  V30 1448 C 131.652 -1.48146 -1.25564 0
M  V30 1449 O 130.927 -0.659104 -1.82992 0
M  V30 1450 C 131.21 -3.60005 0.0825278 0
M  V30 1451 C 131.063 -4.2466 1.48271 0
M  V30 1452 C 132.382 -4.35972 -0.601401 0
M  V30 1453 H 129.501 -0.735764 0.0426632 0
M  V30 1454 H 132.143 -1.72868 0.788461 0
M  V30 1455 H 130.293 -3.85367 -0.492378 0
M  V30 1456 H 131.965 -4.10458 2.10527 0
M  V30 1457 H 130.208 -3.82772 2.04127 0
M  V30 1458 H 130.879 -5.336 1.41332 0
M  V30 1459 H 133.355 -4.15947 -0.112666 0
M  V30 1460 H 132.231 -5.45697 -0.592097 0
M  V30 1461 H 132.492 -4.09391 -1.66887 0
M  V30 1462 N 131.551 -0.354651 -1.53558 0
M  V30 1463 C 132.779 0.239515 -2.05509 0
M  V30 1464 C 133.194 1.4333 -1.2289 0
M  V30 1465 O 132.551 1.80538 -0.266899 0
M  V30 1466 C 132.602 0.643719 -3.55723 0
M  V30 1467 O 132.323 -0.502602 -4.35207 0
M  V30 1468 C 133.824 1.29743 -4.23889 0
M  V30 1469 H 131.044 0.0442697 -0.669538 0
M  V30 1470 H 133.588 -0.509856 -1.98042 0
M  V30 1471 H 131.743 1.34302 -3.63376 0
M  V30 1472 H 132.157 -0.178172 -5.24197 0
M  V30 1473 H 133.631 1.53091 -5.30346 0
M  V30 1474 H 134.108 2.25441 -3.76926 0
M  V30 1475 H 134.714 0.639865 -4.20459 0
M  V30 1476 N 133.029 1.57378 -0.0835403 0
M  V30 1477 C 133.959 2.1641 0.87686 0
M  V30 1478 C 134.94 1.09429 1.30228 0
M  V30 1479 O 136.125 1.37516 1.37124 0
M  V30 1480 C 133.255 2.73517 2.14022 0
M  V30 1481 C 132.209 3.85769 1.85381 0
M  V30 1482 C 131.535 4.29529 3.18448 0
M  V30 1483 C 132.835 5.09486 1.14984 0
M  V30 1484 H 134.529 2.96914 0.385059 0
M  V30 1485 H 132.075 1.42823 0.18377 0
M  V30 1486 H 134.028 3.13463 2.81636 0
M  V30 1487 H 132.752 1.90252 2.65465 0
M  V30 1488 H 131.411 3.46345 1.20169 0
M  V30 1489 H 131.059 3.43169 3.67755 0
M  V30 1490 H 130.759 5.05204 3.00071 0
M  V30 1491 H 132.283 4.72099 3.8724 0
M  V30 1492 H 133.697 5.46674 1.72687 0
M  V30 1493 H 132.094 5.90515 1.06826 0
M  V30 1494 H 133.164 4.84724 0.130749 0
M  V30 1495 N 134.507 -0.190092 1.56449 0
M  V30 1496 C 135.417 -1.25591 1.98152 0
M  V30 1497 C 136.433 -1.49519 0.889944 0
M  V30 1498 O 137.609 -1.62036 1.19609 0
M  V30 1499 C 134.674 -2.57916 2.3169 0
M  V30 1500 C 133.735 -2.42015 3.5458 0
M  V30 1501 C 132.968 -3.6803 3.8651 0
M  V30 1502 O 133.191 -4.72413 3.1966 0
M  V30 1503 O 132.125 -3.6326 4.79923 0
M  V30 1504 H 135.951 -0.931988 2.89046 0
M  V30 1505 H 133.536 -0.395488 1.4407 0
M  V30 1506 H 135.418 -3.36008 2.54316 0
M  V30 1507 H 134.093 -2.89925 1.43963 0
M  V30 1508 H 133 -1.62017 3.37196 0
M  V30 1509 H 134.333 -2.14937 4.4279 0
M  V30 1510 N 135.985 -1.50799 -0.457987 0
M  V30 1511 C 137.262 -1.52968 -1.21902 0
M  V30 1512 C 137.642 -0.281906 -2.09209 0
M  V30 1513 O 136.99 0.734076 -2.16388 0
M  V30 1514 C 137.2 -2.8326 -2.03875 0
M  V30 1515 C 138.548 -3.34425 -2.6162 0
M  V30 1516 O 139.572 -2.8467 -2.14106 0
M  V30 1517 O 138.431 -4.21188 -3.48228 0
M  V30 1518 H 135.525 -0.614129 -0.553873 0
M  V30 1519 H 138.071 -1.63098 -0.468739 0
M  V30 1520 H 136.843 -3.65543 -1.39621 0
M  V30 1521 H 136.466 -2.76195 -2.8601 0
M  V30 1522 N 137.463 0.71206 -1.40597 0
M  V30 1523 C 138.413 1.81783 -1.37619 0
M  V30 1524 C 139.397 1.58896 -0.253162 0
M  V30 1525 O 140.589 1.70009 -0.492547 0
M  V30 1526 C 137.718 3.19944 -1.24462 0
M  V30 1527 C 136.804 3.48582 -2.4156 0
M  V30 1528 N 137.195 3.48016 -3.67041 0
M  V30 1529 C 135.493 3.79056 -2.35016 0
M  V30 1530 C 136.194 3.75096 -4.44609 0
M  V30 1531 N 135.17 3.94022 -3.74497 0
M  V30 1532 H 138.972 1.79683 -2.32575 0
M  V30 1533 H 136.486 0.91134 -1.34419 0
M  V30 1534 H 138.483 3.99133 -1.20411 0
M  V30 1535 H 137.143 3.23267 -0.304762 0
M  V30 1536 H 138.154 3.28782 -4.00153 0
M  V30 1537 H 134.831 3.89848 -1.49415 0
M  V30 1538 H 136.221 3.80934 -5.53479 0
M  V30 1539 N 138.941 1.26152 0.944643 0
M  V30 1540 C 139.871 1.09902 2.06019 0
M  V30 1541 C 140.852 0.00519538 1.70099 0
M  V30 1542 O 142.037 0.176583 1.93396 0
M  V30 1543 C 139.167 0.727562 3.39594 0
M  V30 1544 C 138.121 1.77274 3.89561 0
M  V30 1545 C 137.447 1.25569 5.19747 0
M  V30 1546 C 138.747 3.17357 4.14827 0
M  V30 1547 H 140.441 2.03217 2.19871 0
M  V30 1548 H 137.987 0.978452 1.05652 0
M  V30 1549 H 139.94 0.600777 4.17095 0
M  V30 1550 H 138.664 -0.241287 3.25707 0
M  V30 1551 H 137.323 1.88814 3.14237 0
M  V30 1552 H 136.971 0.276783 5.02238 0
M  V30 1553 H 136.671 1.95433 5.54148 0
M  V30 1554 H 138.195 1.1415 5.99835 0
M  V30 1555 H 139.609 3.08914 4.82954 0
M  V30 1556 H 138.006 3.84781 4.60504 0
M  V30 1557 H 139.076 3.63673 3.20734 0
M  V30 1558 N 140.419 -1.14872 1.07899 0
M  V30 1559 C 141.382 -2.17986 0.708161 0
M  V30 1560 C 142.382 -1.58775 -0.25442 0
M  V30 1561 O 143.572 -1.74166 -0.034645 0
M  V30 1562 C 140.704 -3.40871 0.0446929 0
M  V30 1563 H 141.897 -2.52306 1.62116 0
M  V30 1564 H 139.45 -1.2943 0.876218 0
M  V30 1565 H 140.185 -3.12124 -0.880281 0
M  V30 1566 H 139.97 -3.8511 0.737091 0
M  V30 1567 H 141.46 -4.17121 -0.19991 0
M  V30 1568 N 141.898 -0.863906 -1.31812 0
M  V30 1569 C 143.138 -0.47825 -1.98726 0
M  V30 1570 C 143.502 0.950397 -1.66828 0
M  V30 1571 O 144.703 1.44109 -2.26905 0
M  V30 1572 C 142.974 -0.721134 -3.50049 0
M  V30 1573 S 144.533 -0.434432 -4.36644 0
M  V30 1574 H 141.351 -0.178773 -0.688158 0
M  V30 1575 H 143.953 -1.11862 -1.60334 0
M  V30 1576 H 142.657 -1.75981 -3.70755 0
M  V30 1577 H 142.188 -0.0675315 -3.93342 0
M  V30 1578 H 144.203 0.735786 -4.90714 0
M  V30 1579 N 143.376 1.44774 -0.622745 0
M  V30 1580 C 144.323 2.30635 0.0871679 0
M  V30 1581 C 145.293 1.42994 0.845097 0
M  V30 1582 O 146.478 1.71907 0.827812 0
M  V30 1583 C 143.618 3.28144 1.06844 0
M  V30 1584 C 142.731 4.30888 0.309809 0
M  V30 1585 C 141.866 5.15494 1.28215 0
M  V30 1586 C 140.905 6.09953 0.512198 0
M  V30 1587 N 140.042 6.87287 1.43458 0
M  V30 1588 H 144.882 2.90803 -0.650974 0
M  V30 1589 H 142.419 1.43286 -0.33281 0
M  V30 1590 H 144.377 3.83157 1.65066 0
M  V30 1591 H 143.007 2.69695 1.77382 0
M  V30 1592 H 142.059 3.78414 -0.388181 0
M  V30 1593 H 143.371 4.97955 -0.290254 0
M  V30 1594 H 142.525 5.74983 1.93596 0
M  V30 1595 H 141.264 4.48481 1.91614 0
M  V30 1596 H 140.269 5.49581 -0.155151 0
M  V30 1597 H 141.494 6.78999 -0.116958 0
M  V30 1598 H 139.44 6.2295 2.05594 0
M  V30 1599 H 139.357 7.50763 0.888335 0
M  V30 1600 H 140.625 7.51306 2.07749 0
M  V30 1601 N 144.854 0.36279 1.53368 0
M  V30 1602 C 146.094 -0.227882 2.03126 0
M  V30 1603 C 146.458 -1.4622 1.24434 0
M  V30 1604 O 147.659 -2.12831 1.64184 0
M  V30 1605 C 145.93 -0.515427 3.53664 0
M  V30 1606 S 147.489 -1.08017 4.25297 0
M  V30 1607 H 144.307 -0.0665377 0.70788 0
M  V30 1608 H 146.909 0.50501 1.88865 0
M  V30 1609 H 145.613 0.390436 4.08539 0
M  V30 1610 H 145.144 -1.27747 3.72081 0
M  V30 1611 H 147.159 -2.36462 4.36234 0
M  V30 1612 N 146.332 -1.57332 0.0918853 0
M  V30 1613 C 147.242 -2.17368 -0.882505 0
M  V30 1614 C 148.258 -1.14226 -1.31257 0
M  V30 1615 O 149.434 -1.46582 -1.38115 0
M  V30 1616 C 146.499 -2.73962 -2.12476 0
M  V30 1617 C 145.56 -3.92048 -1.7492 0
M  V30 1618 C 144.793 -4.45933 -2.93223 0
M  V30 1619 O 145.016 -3.98764 -4.07852 0
M  V30 1620 O 143.95 -5.36999 -2.71875 0
M  V30 1621 H 147.776 -3.01031 -0.40172 0
M  V30 1622 H 145.361 -1.48813 -0.132291 0
M  V30 1623 H 147.243 -3.10147 -2.85283 0
M  V30 1624 H 145.918 -1.93347 -2.59613 0
M  V30 1625 H 144.825 -3.6068 -0.993025 0
M  V30 1626 H 146.158 -4.74017 -1.32548 0
M  V30 1627 N 147.81 0.181792 -1.56548 0
M  V30 1628 C 149.038 0.915947 -1.85521 0
M  V30 1629 C 149.453 1.76282 -0.676016 0
M  V30 1630 O 148.81 1.79012 0.355077 0
M  V30 1631 C 148.861 1.80126 -3.13427 0
M  V30 1632 O 148.582 0.988562 -4.26801 0
M  V30 1633 C 150.083 2.64597 -3.55673 0
M  V30 1634 H 147.303 0.26661 -0.61576 0
M  V30 1635 H 149.847 0.185039 -2.03661 0
M  V30 1636 H 148.002 2.48563 -2.97145 0
M  V30 1637 H 148.416 1.59308 -4.99721 0
M  V30 1638 H 149.89 3.2235 -4.48101 0
M  V30 1639 H 150.367 3.38958 -2.79292 0
M  V30 1640 H 150.973 2.0151 -3.74532 0
M  V30 1641 N 149.288 1.51039 0.449983 0
M  V30 1642 C 150.534 1.63322 1.20223 0
M  V30 1643 C 150.867 0.34241 1.91158 0
M  V30 1644 O 150.142 -0.657344 1.83055 0
M  V30 1645 C 150.425 2.82801 2.22925 0
M  V30 1646 C 150.278 4.21823 1.56157 0
M  V30 1647 C 151.597 2.97807 3.24035 0
M  V30 1648 H 148.716 0.594407 0.435718 0
M  V30 1649 H 151.358 1.83489 0.493136 0
M  V30 1650 H 149.508 2.65738 2.834 0
M  V30 1651 H 151.18 4.50526 0.991162 0
M  V30 1652 H 149.423 4.25105 0.864172 0
M  V30 1653 H 150.094 5.01391 2.30891 0
M  V30 1654 H 152.57 3.13497 2.73603 0
M  V30 1655 H 151.446 3.82992 3.93202 0
M  V30 1656 H 151.707 2.09328 3.89402 0
M  V30 1657 N 150.766 -0.704594 1.40972 0
M  V30 1658 C 151.729 -1.80035 1.41845 0
M  V30 1659 C 152.729 -1.57774 0.310474 0
M  V30 1660 O 153.919 -1.64613 0.56992 0
M  V30 1661 C 151.051 -3.18284 1.22098 0
M  V30 1662 H 152.244 -1.80658 2.3938 0
M  V30 1663 H 149.797 -0.911329 1.26982 0
M  V30 1664 H 150.532 -3.23306 0.253672 0
M  V30 1665 H 150.317 -3.35843 2.02366 0
M  V30 1666 H 151.807 -3.98289 1.25522 0
M  V30 1667 N 152.244 -1.26651 -0.937939 0
M  V30 1668 C 153.207 -1.08546 -2.01867 0
M  V30 1669 C 154.207 -0.0327327 -1.60767 0
M  V30 1670 O 155.397 -0.276427 -1.71993 0
M  V30 1671 C 152.529 -0.651711 -3.34613 0
M  V30 1672 H 153.722 -2.04502 -2.1936 0
M  V30 1673 H 151.275 -1.09294 -1.11734 0
M  V30 1674 H 152.01 0.309696 -3.22818 0
M  V30 1675 H 151.795 -1.41189 -3.65798 0
M  V30 1676 H 153.285 -0.546973 -4.14002 0
M  V30 1677 N 153.722 1.14298 -1.08507 0
M  V30 1678 C 154.685 2.17607 -0.719711 0
M  V30 1679 C 155.685 1.58907 0.245997 0
M  V30 1680 O 156.875 1.74181 0.0254081 0
M  V30 1681 C 154.007 3.40842 -0.0627695 0
M  V30 1682 H 155.2 2.51443 -1.63452 0
M  V30 1683 H 152.753 1.28963 -0.88307 0
M  V30 1684 H 153.488 3.12587 0.863716 0
M  V30 1685 H 153.273 3.84713 -0.757504 0
M  V30 1686 H 154.763 4.17221 0.177786 0
M  V30 1687 N 155.201 0.870884 1.31352 0
M  V30 1688 C 156.617 0.562932 1.49343 0
M  V30 1689 C 156.817 -0.902725 1.80148 0
M  V30 1690 O 155.873 -1.68484 1.88067 0
M  V30 1691 C 157.186 1.46393 2.62659 0
M  V30 1692 C 158.734 1.46607 2.76542 0
M  V30 1693 C 159.209 2.35266 3.92955 0
M  V30 1694 N 160.7 2.33151 4.00243 0
M  V30 1695 C 161.435 2.98471 4.89594 0
M  V30 1696 N 160.931 3.72964 5.8384 0
M  V30 1697 N 162.724 2.87775 4.82848 0
M  V30 1698 H 154.875 1.81923 1.09626 0
M  V30 1699 H 157.138 0.777934 0.541777 0
M  V30 1700 H 156.844 2.50689 2.46674 0
M  V30 1701 H 156.718 1.16314 3.58819 0
M  V30 1702 H 159.105 0.43069 2.9194 0
M  V30 1703 H 159.186 1.8071 1.81046 0
M  V30 1704 H 158.83 3.38881 3.78315 0
M  V30 1705 H 158.76 1.98487 4.87761 0
M  V30 1706 H 161.251 1.79006 3.32814 0
M  V30 1707 H 161.564 4.19932 6.4875 0
M  V30 1708 H 159.909 3.77073 5.83816 0
M  V30 1709 H 163.1 2.29116 4.08195 0
M  V30 1710 H 163.273 3.38961 5.52277 0
M  V30 1711 N 156.679 -1.44442 0.630414 0
M  V30 1712 C 158.09 -1.85434 0.217063 0
M  V30 1713 C 158.441 -1.52748 -1.23136 0
M  V30 1714 O 157.566 -0.965205 -1.93682 0
M  V30 1715 C 158.161 -3.36581 0.387168 0
M  V30 1716 C 156.72 -3.76389 0.0283297 0
M  V30 1717 C 155.867 -2.68296 0.700889 0
M  V30 1718 H 158.818 -1.34919 0.83562 0
M  V30 1719 H 158.839 -3.78657 -0.374086 0
M  V30 1720 H 158.351 -3.60339 1.44144 0
M  V30 1721 H 156.452 -3.58246 -1.02423 0
M  V30 1722 H 156.565 -4.77095 0.437892 0
M  V30 1723 H 154.929 -2.54335 0.136267 0
M  V30 1724 H 155.712 -2.94887 1.75774 0
M  V30 1725 N 158.157 -0.370918 -1.53173 0
M  V30 1726 C 159.403 0.217423 -2.01631 0
M  V30 1727 C 159.736 1.47983 -1.25756 0
M  V30 1728 O 159.011 1.91274 -0.352764 0
M  V30 1729 C 159.294 0.503982 -3.56556 0
M  V30 1730 C 159.147 -0.77243 -4.43118 0
M  V30 1731 C 160.466 1.30234 -4.20389 0
M  V30 1732 H 157.585 0.0775486 -0.732909 0
M  V30 1733 H 160.227 -0.496863 -1.83388 0
M  V30 1734 H 158.377 1.11248 -3.72231 0
M  V30 1735 H 160.049 -1.4098 -4.39229 0
M  V30 1736 H 158.292 -1.39167 -4.10871 0
M  V30 1737 H 158.963 -0.526815 -5.4948 0
M  V30 1738 H 161.439 0.787546 -4.08579 0
M  V30 1739 H 160.315 1.47158 -5.28806 0
M  V30 1740 H 160.576 2.31237 -3.76805 0
M  V30 1741 N 159.635 1.57281 -0.100228 0
M  V30 1742 C 160.863 1.98879 0.570509 0
M  V30 1743 C 161.278 0.979476 1.61405 0
M  V30 1744 O 160.635 -0.0302288 1.82475 0
M  V30 1745 C 160.686 3.4052 1.2136 0
M  V30 1746 O 160.407 4.37588 0.211786 0
M  V30 1747 C 161.908 3.97149 1.96945 0
M  V30 1748 H 159.128 0.653428 0.152555 0
M  V30 1749 H 161.672 2.03697 -0.18103 0
M  V30 1750 H 159.827 3.367 1.91603 0
M  V30 1751 H 160.241 5.20118 0.676607 0
M  V30 1752 H 161.715 4.98393 2.37294 0
M  V30 1753 H 162.192 3.3525 2.83733 0
M  V30 1754 H 162.798 4.04458 1.31506 0
M  V30 1755 O 161.152 -0.0396676 1.61451 0
M  V30 1756 H 161.843 -0.66158 1.82052 0
M  V30 END ATOM
M  V30 BEGIN BOND
M  V30 END BOND
M  V30 END CTAB
M  END
$$$$
