drugbank_target|P20813 Cytochrome P450 2B6 (DB02974; DB04664; DB04794; DB08369)
 OpenBabel12092120343D

  0  0  0     0  0            999 V3000
M  V30 BEGIN CTAB
M  V30 COUNTS 7977 8082 0 0 0
M  V30 BEGIN ATOM
M  V30 1 H -0.908 1.98254 -0.117106 0
M  V30 2 N 0 1.576 0 0
M  V30 3 C 0.933 2.03868 1.02534 0
M  V30 4 C 1.911 0.928543 1.3348 0
M  V30 5 O 3.095 1.19667 1.45644 0
M  V30 6 C 0.222 2.43627 2.35294 0
M  V30 7 C -0.732 3.65373 2.2001 0
M  V30 8 S 0.101 5.13292 1.52614 0
M  V30 9 C 1.257 5.56322 2.86805 0
M  V30 10 H 1.49 2.90518 0.631377 0
M  V30 11 H -0.977 1.52953 0.210867 0
M  V30 12 H 0.981 2.67203 3.11629 0
M  V30 13 H -0.358 1.57376 2.7183 0
M  V30 14 H -1.165 3.90944 3.18086 0
M  V30 15 H -1.563 3.418 1.51819 0
M  V30 16 H 0.729 5.58782 3.83104 0
M  V30 17 H 1.672 6.56266 2.65933 0
M  V30 18 H 2.08 4.83886 2.90714 0
M  V30 19 N 1.4781 -0.272755 1.55222 0
M  V30 20 C 2.3881 -1.35918 1.91216 0
M  V30 21 C 3.4041 -1.54026 0.809436 0
M  V30 22 O 4.5801 -1.68148 1.10852 0
M  V30 23 C 1.6451 -2.69834 2.17693 0
M  V30 24 C 0.7061 -2.6047 3.41253 0
M  V30 25 C -0.0609 -3.88 3.66458 0
M  V30 26 O 0.1621 -4.88693 2.94169 0
M  V30 27 O -0.9039 -3.88189 4.59992 0
M  V30 28 H 2.9221 -1.0839 2.83699 0
M  V30 29 H 0.5071 -0.471301 1.41771 0
M  V30 30 H 2.3891 -3.49017 2.36147 0
M  V30 31 H 1.0641 -2.97148 1.28392 0
M  V30 32 H -0.0289 -1.79663 3.28134 0
M  V30 33 H 1.3041 -2.38106 4.30774 0
M  V30 34 N 2.9562 -1.48159 -0.537278 0
M  V30 35 C 3.8862 -1.65029 -1.6519 0
M  V30 36 C 4.8672 -0.499281 -1.62607 0
M  V30 37 O 6.0522 -0.730972 -1.79918 0
M  V30 38 C 3.1822 -1.68303 -3.03795 0
M  V30 39 C 2.1362 -2.8283 -3.21234 0
M  V30 40 C 1.4622 -2.71189 -4.60826 0
M  V30 41 C 2.7622 -4.24211 -3.04701 0
M  V30 42 H 4.4562 -2.58341 -1.51328 0
M  V30 43 H 2.0022 -1.24325 -0.726585 0
M  V30 44 H 3.9552 -1.78693 -3.81637 0
M  V30 45 H 2.6792 -0.715635 -3.18663 0
M  V30 46 H 1.3382 -2.71983 -2.45807 0
M  V30 47 H 0.9862 -1.72435 -4.7252 0
M  V30 48 H 0.6862 -3.48035 -4.7344 0
M  V30 49 H 2.2102 -2.83537 -5.40777 0
M  V30 50 H 3.6242 -4.3593 -3.72341 0
M  V30 51 H 2.0212 -5.01998 -3.28813 0
M  V30 52 H 3.0912 -4.41184 -2.01209 0
M  V30 53 N 4.4343 0.785586 -1.36625 0
M  V30 54 C 5.6593 1.57963 -1.34397 0
M  V30 55 C 6.0843 1.87964 0.071526 0
M  V30 56 O 5.4423 1.48182 1.0446 0
M  V30 57 C 5.4903 2.87511 -2.17646 0
M  V30 58 O 4.5943 3.81281 -1.57158 0
M  V30 59 H 3.9353 0.479014 -0.459828 0
M  V30 60 H 6.4653 0.973411 -1.79961 0
M  V30 61 H 6.4753 3.36745 -2.30362 0
M  V30 62 H 5.1503 2.65002 -3.20541 0
M  V30 63 H 3.7273 3.39885 -1.53403 0
M  V30 64 N 5.9124 1.20967 1.01018 0
M  V30 65 C 7.1584 1.02526 1.74975 0
M  V30 66 C 7.4914 -0.4408 1.89131 0
M  V30 67 O 6.7664 -1.32718 1.42184 0
M  V30 68 C 7.0494 1.71699 3.1653 0
M  V30 69 C 6.9024 3.25791 3.10129 0
M  V30 70 C 8.2214 1.45531 4.15342 0
M  V30 71 H 5.3404 0.373863 0.635134 0
M  V30 72 H 7.9824 1.49071 1.17805 0
M  V30 73 H 6.1324 1.32128 3.65341 0
M  V30 74 H 7.8044 3.74697 2.69072 0
M  V30 75 H 6.0474 3.56363 2.47362 0
M  V30 76 H 6.7184 3.69353 4.10222 0
M  V30 77 H 9.1944 1.79872 3.75213 0
M  V30 78 H 8.0704 1.96453 5.1254 0
M  V30 79 H 8.3314 0.384237 4.40427 0
M  V30 80 N 7.3905 -1.2043 1.01659 0
M  V30 81 C 8.3205 -2.25466 0.607226 0
M  V30 82 C 9.3015 -1.65853 -0.377716 0
M  V30 83 O 10.4865 -1.92409 -0.263149 0
M  V30 84 C 7.6165 -3.47256 -0.0552949 0
M  V30 85 C 6.5705 -4.19462 0.850632 0
M  V30 86 C 5.8965 -5.34673 0.0538859 0
M  V30 87 C 7.1965 -4.75603 2.15868 0
M  V30 88 H 8.8905 -2.59962 1.48526 0
M  V30 89 H 6.4365 -1.2496 0.715605 0
M  V30 90 H 8.3895 -4.19917 -0.353233 0
M  V30 91 H 7.1135 -3.11924 -0.968045 0
M  V30 92 H 5.7725 -3.48667 1.13257 0
M  V30 93 H 5.4205 -4.95585 -0.860514 0
M  V30 94 H 5.1205 -5.83913 0.657192 0
M  V30 95 H 6.6445 -6.10138 -0.237598 0
M  V30 96 H 8.0585 -5.40083 1.92311 0
M  V30 97 H 6.4555 -5.3528 2.71284 0
M  V30 98 H 7.5255 -3.94346 2.82169 0
M  V30 99 N 8.8686 -0.792821 -1.36206 0
M  V30 100 C 9.7986 -0.207853 -2.32573 0
M  V30 101 C 10.7796 0.659055 -1.56813 0
M  V30 102 O 11.9646 0.592176 -1.84951 0
M  V30 103 C 9.0946 0.655449 -3.41059 0
M  V30 104 C 8.0486 -0.111842 -4.27854 0
M  V30 105 C 7.3746 0.872274 -5.27537 0
M  V30 106 C 8.6746 -1.30299 -5.05786 0
M  V30 107 H 10.3686 -1.01294 -2.81744 0
M  V30 108 H 7.9146 -0.48854 -1.3546 0
M  V30 109 H 9.8676 1.07464 -4.07467 0
M  V30 110 H 8.5916 1.49328 -2.90463 0
M  V30 111 H 7.2506 -0.512053 -3.63006 0
M  V30 112 H 6.8986 1.70523 -4.73214 0
M  V30 113 H 6.5986 0.363291 -5.86476 0
M  V30 114 H 8.1226 1.28996 -5.96818 0
M  V30 115 H 9.5366 -0.959379 -5.65216 0
M  V30 116 H 7.9336 -1.7455 -5.74154 0
M  V30 117 H 9.0036 -2.09663 -4.37229 0
M  V30 118 N 10.3467 1.47872 -0.545128 0
M  V30 119 C 11.5937 2.02493 -0.0165858 0
M  V30 120 C 11.9217 1.42073 1.32836 0
M  V30 121 O 11.1767 0.561459 1.87473 0
M  V30 122 C 11.4757 3.57131 0.13867 0
M  V30 123 C 11.1417 4.36411 -1.13384 0
M  V30 124 C 9.8037 4.57792 -1.48256 0
M  V30 125 C 12.1557 4.82223 -1.97764 0
M  V30 126 C 9.4837 5.22233 -2.67376 0
M  V30 127 C 11.8357 5.47977 -3.16076 0
M  V30 128 C 10.4997 5.67593 -3.51275 0
M  V30 129 H 9.7697 0.740975 -0.00606918 0
M  V30 130 H 12.4167 1.77683 -0.714207 0
M  V30 131 H 10.7217 3.80865 0.919172 0
M  V30 132 H 12.4187 3.97031 0.562782 0
M  V30 133 H 9.0087 4.2004 -0.852297 0
M  V30 134 H 13.1927 4.65493 -1.72132 0
M  V30 135 H 8.4487 5.35616 -2.94831 0
M  V30 136 H 12.6227 5.8244 -3.81755 0
M  V30 137 H 10.2497 6.17298 -4.43675 0
M  V30 138 N 11.8248 0.280983 1.55075 0
M  V30 139 C 12.7548 -0.597469 2.25727 0
M  V30 140 C 13.7358 -1.15417 1.24952 0
M  V30 141 O 14.9208 -1.18722 1.53684 0
M  V30 142 C 12.0508 -1.7789 2.98283 0
M  V30 143 C 11.0048 -1.35347 4.06036 0
M  V30 144 C 10.3308 -2.61846 4.66198 0
M  V30 145 C 11.6308 -0.499354 5.19907 0
M  V30 146 H 13.3248 -0.00824265 2.99399 0
M  V30 147 H 10.8708 -0.0025244 1.44 0
M  V30 148 H 12.8238 -2.39937 3.46422 0
M  V30 149 H 11.5478 -2.39405 2.22155 0
M  V30 150 H 10.2068 -0.756156 3.58717 0
M  V30 151 H 9.8548 -3.21632 3.86732 0
M  V30 152 H 9.5548 -2.3409 5.38958 0
M  V30 153 H 11.0788 -3.24732 5.1709 0
M  V30 154 H 12.4928 -1.02498 5.64063 0
M  V30 155 H 10.8898 -0.316424 5.99265 0
M  V30 156 H 11.9598 0.480459 4.82514 0
M  V30 157 N 13.3029 -1.57598 0.00835791 0
M  V30 158 C 14.2659 -2.07884 -0.965242 0
M  V30 159 C 15.2659 -0.989825 -1.26725 0
M  V30 160 O 16.4559 -1.25218 -1.21104 0
M  V30 161 C 13.5879 -2.52731 -2.28779 0
M  V30 162 H 14.7809 -2.95178 -0.530112 0
M  V30 163 H 12.3339 -1.54458 -0.239283 0
M  V30 164 H 13.0689 -1.68705 -2.76964 0
M  V30 165 H 12.8539 -3.32272 -2.08177 0
M  V30 166 H 14.3439 -2.91933 -2.98605 0
M  V30 167 N 14.781 0.264519 -1.55364 0
M  V30 168 C 15.711 1.33121 -1.91836 0
M  V30 169 C 16.692 1.51101 -0.781192 0
M  V30 170 O 17.877 1.64003 -1.04003 0
M  V30 171 C 15.007 2.68921 -2.19769 0
M  V30 172 C 13.961 2.65661 -3.35571 0
M  V30 173 C 13.287 4.05093 -3.49004 0
M  V30 174 C 14.587 2.24187 -4.71739 0
M  V30 175 H 16.281 1.02844 -2.81182 0
M  V30 176 H 13.827 0.493286 -1.35287 0
M  V30 177 H 15.78 3.43663 -2.43872 0
M  V30 178 H 14.504 3.00799 -1.27231 0
M  V30 179 H 13.163 1.93377 -3.1145 0
M  V30 180 H 12.811 4.34206 -2.53917 0
M  V30 181 H 12.511 4.03804 -4.26868 0
M  V30 182 H 14.035 4.81561 -3.75408 0
M  V30 183 H 15.449 2.88654 -4.9533 0
M  V30 184 H 13.846 2.34044 -5.52579 0
M  V30 185 H 14.916 1.19327 -4.69988 0
M  V30 186 N 16.2591 1.48442 0.529413 0
M  V30 187 C 17.1891 1.65902 1.64313 0
M  V30 188 C 18.1701 0.507897 1.6234 0
M  V30 189 O 19.3551 0.740503 1.79528 0
M  V30 190 C 16.4851 1.69911 3.02898 0
M  V30 191 C 15.4391 2.8453 3.19729 0
M  V30 192 C 14.7651 2.73629 4.59381 0
M  V30 193 C 16.0651 4.25821 3.02447 0
M  V30 194 H 17.7591 2.5914 1.49955 0
M  V30 195 H 15.3051 1.24709 0.719982 0
M  V30 196 H 17.2581 1.80715 3.80684 0
M  V30 197 H 15.9821 0.732524 3.18279 0
M  V30 198 H 14.6411 2.73283 2.44361 0
M  V30 199 H 14.2891 1.74938 4.71599 0
M  V30 200 H 13.9891 3.50541 4.71588 0
M  V30 201 H 15.5131 2.86401 5.39265 0
M  V30 202 H 16.9271 4.37898 3.70024 0
M  V30 203 H 15.3241 5.03735 3.26146 0
M  V30 204 H 16.3941 4.42244 1.98867 0
M  V30 205 N 17.7372 -0.778329 1.37039 0
M  V30 206 C 18.9652 -1.56734 1.35063 0
M  V30 207 C 19.3802 -1.88686 -0.0655597 0
M  V30 208 O 18.7372 -1.5096 -1.02554 0
M  V30 209 C 18.7882 -2.88163 2.18276 0
M  V30 210 O 18.5092 -2.57583 3.54376 0
M  V30 211 C 20.0102 -3.82422 2.24206 0
M  V30 212 H 17.2302 -0.485778 0.462883 0
M  V30 213 H 19.7742 -0.965185 1.8029 0
M  V30 214 H 17.9292 -3.44818 1.76576 0
M  V30 215 H 18.3432 -3.41699 3.97922 0
M  V30 216 H 19.8172 -4.71667 2.86765 0
M  V30 217 H 20.2942 -4.21078 1.24861 0
M  V30 218 H 20.9002 -3.31697 2.6619 0
M  V30 219 N 19.2153 -1.21501 -1.00376 0
M  V30 220 C 20.4633 -1.03095 -1.73827 0
M  V30 221 C 20.7843 0.436341 -1.90055 0
M  V30 222 O 20.0543 1.31466 -1.45236 0
M  V30 223 H 18.6343 -0.378487 -0.644016 0
M  V30 224 H 21.2963 -1.52831 -1.20949 0
M  V30 225 H 20.3923 -1.49991 -2.73695 0
M  V30 226 N 20.6934 1.19889 -1.02296 0
M  V30 227 C 21.6234 2.25141 -0.619174 0
M  V30 228 C 22.6044 1.66051 0.368915 0
M  V30 229 O 23.7894 1.92546 0.252941 0
M  V30 230 C 20.9194 3.4728 0.0368783 0
M  V30 231 C 19.8734 4.19005 -0.872865 0
M  V30 232 C 19.1994 5.34637 -0.0822402 0
M  V30 233 C 20.4994 4.74452 -2.18387 0
M  V30 234 H 22.1934 2.59171 -1.49903 0
M  V30 235 H 19.7394 1.24579 -0.722222 0
M  V30 236 H 21.6924 4.20098 0.330958 0
M  V30 237 H 20.4164 3.12433 0.95149 0
M  V30 238 H 19.0754 3.48061 -1.15105 0
M  V30 239 H 18.7234 4.96034 0.83422 0
M  V30 240 H 18.4234 5.83557 -0.688149 0
M  V30 241 H 19.9474 6.10255 0.205238 0
M  V30 242 H 21.3614 5.39055 -1.95172 0
M  V30 243 H 19.7584 5.33834 -2.74119 0
M  V30 244 H 20.8284 3.92844 -2.84257 0
M  V30 245 N 22.1715 0.800033 1.35784 0
M  V30 246 C 23.1015 0.220184 2.3246 0
M  V30 247 C 24.0825 -0.65073 1.57161 0
M  V30 248 O 25.2675 -0.582359 1.85263 0
M  V30 249 C 22.3975 -0.637353 3.41402 0
M  V30 250 C 21.3515 0.134531 4.27789 0
M  V30 251 C 20.6775 -0.844285 5.27992 0
M  V30 252 C 21.9775 1.32979 5.05088 0
M  V30 253 H 23.6715 1.02787 2.81203 0
M  V30 254 H 21.2175 0.495717 1.35199 0
M  V30 255 H 23.1705 -1.05302 4.08031 0
M  V30 256 H 21.8945 -1.47785 2.91251 0
M  V30 257 H 20.5535 0.531296 3.6273 0
M  V30 258 H 20.2015 -1.68011 4.74111 0
M  V30 259 H 19.9015 -0.332184 5.8666 0
M  V30 260 H 21.4255 -1.2583 5.97494 0
M  V30 261 H 22.8395 0.98934 5.64699 0
M  V30 262 H 21.2365 1.77593 5.7322 0
M  V30 263 H 22.3065 2.11978 4.36111 0
M  V30 264 N 23.6496 -1.47581 0.552962 0
M  V30 265 C 24.5796 -2.32762 -0.185451 0
M  V30 266 C 25.5606 -1.43527 -0.912905 0
M  V30 267 O 26.7456 -1.72388 -0.894201 0
M  V30 268 C 23.8756 -3.25219 -1.21859 0
M  V30 269 C 22.8296 -4.23661 -0.607864 0
M  V30 270 C 22.1556 -5.05413 -1.74533 0
M  V30 271 C 23.4556 -5.20481 0.435582 0
M  V30 272 H 25.1496 -2.94749 0.525684 0
M  V30 273 H 22.6956 -1.41738 0.254251 0
M  V30 274 H 24.6486 -3.8365 -1.7433 0
M  V30 275 H 23.3726 -2.61279 -1.95961 0
M  V30 276 H 22.0316 -3.66451 -0.104489 0
M  V30 277 H 21.6796 -4.3788 -2.47529 0
M  V30 278 H 21.3796 -5.72059 -1.34249 0
M  V30 279 H 22.9036 -5.66701 -2.27338 0
M  V30 280 H 24.3176 -5.733 -0.00290157 0
M  V30 281 H 22.7146 -5.95305 0.757067 0
M  V30 282 H 23.7846 -4.66217 1.33303 0
M  V30 283 N 25.1277 -0.289203 -1.54924 0
M  V30 284 C 26.0577 0.58549 -2.2604 0
M  V30 285 C 27.0387 1.14753 -1.25562 0
M  V30 286 O 28.2237 1.17906 -1.54311 0
M  V30 287 C 25.3537 1.76305 -2.99222 0
M  V30 288 C 24.3077 1.33191 -4.06748 0
M  V30 289 C 23.6337 2.5937 -4.6758 0
M  V30 290 C 24.9337 0.471775 -5.20165 0
M  V30 291 H 26.6277 -0.00763532 -2.99399 0
M  V30 292 H 24.1737 -0.00511229 -1.43999 0
M  V30 293 H 26.1267 2.38097 -3.47689 0
M  V30 294 H 24.8507 2.38223 -2.23422 0
M  V30 295 H 23.5097 0.737121 -3.59113 0
M  V30 296 H 23.1577 3.19576 -3.88433 0
M  V30 297 H 22.8577 2.31228 -5.40192 0
M  V30 298 H 24.3817 3.21985 -5.18804 0
M  V30 299 H 25.7957 0.995056 -5.64599 0
M  V30 300 H 24.1927 0.284639 -5.99425 0
M  V30 301 H 25.2627 -0.506041 -4.82252 0
M  V30 302 N 26.6058 1.57591 -0.0167156 0
M  V30 303 C 27.5358 2.12496 0.967858 0
M  V30 304 C 28.5168 1.03807 1.34752 0
M  V30 305 O 29.7018 1.31577 1.42833 0
M  V30 306 C 26.8318 2.64194 2.25431 0
M  V30 307 C 25.7858 3.77559 2.01576 0
M  V30 308 C 25.1118 4.15636 3.36379 0
M  V30 309 C 26.4118 5.04151 1.36489 0
M  V30 310 H 28.1058 2.95013 0.510643 0
M  V30 311 H 25.6518 1.41915 0.244181 0
M  V30 312 H 27.6048 3.01236 2.94678 0
M  V30 313 H 26.3288 1.78821 2.73296 0
M  V30 314 H 24.9878 3.40937 1.34751 0
M  V30 315 H 24.6358 3.27263 3.81979 0
M  V30 316 H 24.3358 4.92022 3.21229 0
M  V30 317 H 25.8598 4.5525 4.06915 0
M  V30 318 H 27.2738 5.38857 1.95718 0
M  V30 319 H 25.6708 5.85453 1.31776 0
M  V30 320 H 26.7408 4.83733 0.336219 0
M  V30 321 N 28.0839 -0.256276 1.55502 0
M  V30 322 C 29.3299 -0.987079 1.77157 0
M  V30 323 C 29.6629 -1.85327 0.580315 0
M  V30 324 O 28.9379 -1.89874 -0.421686 0
M  V30 325 C 29.2209 -1.85553 3.08613 0
M  V30 326 C 29.0739 -1.01816 4.38125 0
M  V30 327 C 30.3929 -2.8397 3.36228 0
M  V30 328 H 27.5119 -0.357428 0.644526 0
M  V30 329 H 30.1539 -0.258239 1.88237 0
M  V30 330 H 28.3039 -2.47695 2.99298 0
M  V30 331 H 29.9759 -0.416159 4.59419 0
M  V30 332 H 28.2189 -0.322178 4.32602 0
M  V30 333 H 28.8899 -1.65939 5.26468 0
M  V30 334 H 31.3659 -2.31964 3.45445 0
M  V30 335 H 30.2419 -3.41864 4.29442 0
M  V30 336 H 30.5029 -3.59955 2.56681 0
M  V30 337 N 29.562 -1.4872 -0.521534 0
M  V30 338 C 30.494 -1.59968 -1.64143 0
M  V30 339 C 31.507 -0.483463 -1.55456 0
M  V30 340 O 32.696 -0.75467 -1.61762 0
M  V30 341 C 29.796 -1.52127 -3.02838 0
M  V30 342 C 28.969 -2.78932 -3.36921 0
M  V30 343 C 28.028 -2.64428 -4.54933 0
M  V30 344 O 27.054 -3.38331 -4.57735 0
M  V30 345 N 28.256 -1.74606 -5.53618 0
M  V30 346 H 31.021 -2.56548 -1.54929 0
M  V30 347 H 28.582 -1.45551 -0.708988 0
M  V30 348 H 30.574 -1.40106 -3.79674 0
M  V30 349 H 29.144 -0.634868 -3.06085 0
M  V30 350 H 28.364 -3.05455 -2.4918 0
M  V30 351 H 29.652 -3.63041 -3.56481 0
M  V30 352 H 29.05 -1.13782 -5.54139 0
M  V30 353 H 27.607 -1.6852 -6.29638 0
M  V30 354 N 31.0401 0.771051 -1.3745 0
M  V30 355 C 32.4561 1.07171 -1.18265 0
M  V30 356 C 32.6561 2.01491 -0.019287 0
M  V30 357 O 31.7121 2.44244 0.640408 0
M  V30 358 C 33.0251 1.66854 -2.50161 0
M  V30 359 C 34.5731 1.79109 -2.56689 0
M  V30 360 C 35.0481 2.42205 -3.88717 0
M  V30 361 N 36.5391 2.49655 -3.90162 0
M  V30 362 C 37.2741 2.9933 -4.8907 0
M  V30 363 N 36.7701 3.49172 -5.98374 0
M  V30 364 N 38.5631 2.9821 -4.76474 0
M  V30 365 H 30.7141 0.144796 -2.11906 0
M  V30 366 H 32.9771 0.126863 -0.939473 0
M  V30 367 H 32.6831 1.05017 -3.35655 0
M  V30 368 H 32.5571 2.6614 -2.673 0
M  V30 369 H 34.9441 2.40077 -1.71601 0
M  V30 370 H 35.0251 0.785757 -2.43433 0
M  V30 371 H 34.6691 1.81875 -4.74219 0
M  V30 372 H 34.5991 3.43345 -3.99276 0
M  V30 373 H 37.0901 2.14383 -3.11205 0
M  V30 374 H 37.4031 3.8548 -6.69795 0
M  V30 375 H 35.7481 3.47275 -6.02018 0
M  V30 376 H 38.9391 2.58572 -3.90203 0
M  V30 377 H 39.1121 3.36613 -5.53711 0
M  V30 378 N 32.5182 1.22032 0.997298 0
M  V30 379 C 33.4682 0.953838 2.07089 0
M  V30 380 C 34.4522 -0.0938669 1.60626 0
M  V30 381 O 35.6442 0.116078 1.76619 0
M  V30 382 C 32.7732 0.528726 3.39204 0
M  V30 383 C 31.8592 1.61092 3.92314 0
M  V30 384 N 32.2502 2.83768 4.18699 0
M  V30 385 C 30.5482 1.48158 4.20672 0
M  V30 386 C 31.2492 3.53715 4.61802 0
M  V30 387 N 30.2252 2.81174 4.65233 0
M  V30 388 H 34.0272 1.88577 2.25424 0
M  V30 389 H 31.5412 1.11719 1.17867 0
M  V30 390 H 33.5382 0.31915 4.15677 0
M  V30 391 H 32.1982 -0.39635 3.22272 0
M  V30 392 H 33.2092 3.20238 4.07023 0
M  V30 393 H 29.8862 0.622369 4.12835 0
M  V30 394 H 31.2762 4.58793 4.90875 0
M  V30 395 N 33.9963 -1.19345 1.0293 0
M  V30 396 C 35.4073 -1.70725 0.755633 0
M  V30 397 C 35.7583 -1.82326 -0.724676 0
M  V30 398 O 34.8833 -1.49471 -1.56484 0
M  V30 399 C 35.4783 -3.10084 1.36503 0
M  V30 400 C 34.0373 -3.58723 1.13994 0
M  V30 401 C 33.1843 -2.35577 1.46283 0
M  V30 402 H 36.1353 -1.0418 1.19718 0
M  V30 403 H 36.1563 -3.72787 0.762217 0
M  V30 404 H 35.6683 -3.01609 2.44241 0
M  V30 405 H 33.7693 -3.72512 0.0807901 0
M  V30 406 H 33.8823 -4.42816 1.82894 0
M  V30 407 H 32.2463 -2.38935 0.88217 0
M  V30 408 H 33.0293 -2.29731 2.55105 0
M  V30 409 N 35.4744 -0.807222 -1.35358 0
M  V30 410 C 36.4224 -0.20614 -2.31685 0
M  V30 411 C 37.4164 0.644445 -1.56663 0
M  V30 412 O 38.6224 0.537538 -1.71786 0
M  V30 413 H 34.9974 -0.0479006 -0.750473 0
M  V30 414 H 36.9684 -1.03369 -2.79924 0
M  V30 415 C 35.7174 0.630212 -3.41941 0
M  V30 416 H 35.0404 -0.0149558 -3.99797 0
M  V30 417 H 36.4804 1.01716 -4.11619 0
M  V30 418 C 34.9394 1.79601 -2.85035 0
M  V30 419 O 35.4694 2.89351 -2.78637 0
M  V30 420 N 33.6754 1.60774 -2.42074 0
M  V30 421 H 33.2224 0.715009 -2.47478 0
M  V30 422 H 33.1804 2.38933 -2.04349 0
M  V30 423 N 36.9525 1.47285 -0.560781 0
M  V30 424 C 38.1805 2.06855 -0.0430262 0
M  V30 425 C 38.5955 1.41291 1.25229 0
M  V30 426 O 37.9525 0.510648 1.7521 0
M  V30 427 C 38.0035 3.61178 0.152518 0
M  V30 428 O 37.7245 4.24285 -1.0915 0
M  V30 429 C 39.2255 4.37624 0.707145 0
M  V30 430 H 36.4455 0.669319 -0.0474652 0
M  V30 431 H 38.9895 1.89237 -0.77521 0
M  V30 432 H 37.1445 3.78298 0.834843 0
M  V30 433 H 37.5585 5.16868 -0.891482 0
M  V30 434 H 39.0325 5.46271 0.793244 0
M  V30 435 H 39.5095 4.04152 1.71923 0
M  V30 436 H 40.1155 4.25257 0.0604027 0
M  V30 437 N 38.4306 0.297415 1.54768 0
M  V30 438 C 39.3806 -0.595275 2.20092 0
M  V30 439 C 40.3646 -1.10163 1.17273 0
M  V30 440 O 41.5566 -1.043 1.43006 0
M  V30 441 C 38.6856 -1.7684 2.94249 0
M  V30 442 C 37.7716 -1.27818 4.0438 0
M  V30 443 N 38.1626 -0.505695 5.03266 0
M  V30 444 C 36.4606 -1.55923 4.17857 0
M  V30 445 C 37.1616 -0.245094 5.81183 0
M  V30 446 N 36.1376 -0.823881 5.3732 0
M  V30 447 H 39.9396 0.00250837 2.939 0
M  V30 448 H 37.4536 0.102007 1.62079 0
M  V30 449 H 39.4506 -2.41944 3.39513 0
M  V30 450 H 38.1106 -2.36992 2.21957 0
M  V30 451 H 39.1216 -0.150928 5.1768 0
M  V30 452 H 35.7986 -2.16849 3.56767 0
M  V30 453 H 37.1886 0.375084 6.70852 0
M  V30 454 N 39.9087 -1.5758 0.0250728 0
M  V30 455 C 41.1857 -1.82917 -0.692873 0
M  V30 456 C 41.5657 -0.908137 -1.90568 0
M  V30 457 O 40.9137 0.0372298 -2.2847 0
M  V30 458 C 41.1237 -3.32034 -1.07492 0
M  V30 459 C 42.4717 -3.98406 -1.46826 0
M  V30 460 O 43.4957 -3.36505 -1.16801 0
M  V30 461 O 42.3547 -5.07497 -2.02754 0
M  V30 462 H 39.4487 -0.754079 -0.33955 0
M  V30 463 H 41.9947 -1.69619 0.0524456 0
M  V30 464 H 40.7667 -3.90728 -0.211552 0
M  V30 465 H 40.3897 -3.50424 -1.87854 0
M  V30 466 N 41.3868 0.248026 -1.55636 0
M  V30 467 C 42.8028 0.596483 -1.48035 0
M  V30 468 C 43.0028 1.88386 -0.715039 0
M  V30 469 O 42.0588 2.51319 -0.243944 0
M  V30 470 C 43.3718 0.700258 -2.92433 0
M  V30 471 C 44.9198 0.792659 -3.02797 0
M  V30 472 C 45.3948 0.928005 -4.485 0
M  V30 473 N 46.8858 0.992903 -4.52433 0
M  V30 474 C 47.6208 1.11687 -5.62418 0
M  V30 475 N 47.1168 1.20645 -6.82214 0
M  V30 476 N 48.9098 1.14994 -5.50212 0
M  V30 477 H 41.0608 -0.597109 -2.03834 0
M  V30 478 H 43.3238 -0.205925 -0.925364 0
M  V30 479 H 43.0298 -0.175658 -3.51261 0
M  V30 480 H 42.9038 1.57255 -3.42857 0
M  V30 481 H 45.2908 1.65903 -2.4405 0
M  V30 482 H 45.3718 -0.104762 -2.55585 0
M  V30 483 H 45.0158 0.0661971 -5.07857 0
M  V30 484 H 44.9458 1.84045 -4.93391 0
M  V30 485 H 47.4368 0.935064 -3.66149 0
M  V30 486 H 47.7498 1.30008 -7.61786 0
M  V30 487 H 46.0948 1.17605 -6.84977 0
M  V30 488 H 49.2858 1.07643 -4.55555 0
M  V30 489 H 49.4588 1.24311 -6.35965 0
M  V30 490 N 42.8649 1.48995 0.513639 0
M  V30 491 C 43.7949 1.67636 1.62544 0
M  V30 492 C 44.7759 0.525087 1.61793 0
M  V30 493 O 45.9609 0.759502 1.78732 0
M  V30 494 C 43.0909 1.73114 3.01079 0
M  V30 495 C 42.0449 2.87905 3.16693 0
M  V30 496 C 41.3709 2.78486 4.56453 0
M  V30 497 C 42.6709 4.29005 2.97913 0
M  V30 498 H 44.3649 2.60716 1.47198 0
M  V30 499 H 41.9109 1.25465 0.706714 0
M  V30 500 H 43.8639 1.84742 3.78746 0
M  V30 501 H 42.5879 0.766241 3.17484 0
M  V30 502 H 41.2469 2.75859 2.41448 0
M  V30 503 H 40.8949 1.7993 4.69717 0
M  V30 504 H 40.5949 3.55523 4.67843 0
M  V30 505 H 42.1189 2.92104 5.36197 0
M  V30 506 H 43.5329 4.41798 3.65359 0
M  V30 507 H 41.9299 5.07166 3.20785 0
M  V30 508 H 42.9999 4.44329 1.94165 0
M  V30 509 N 44.343 -0.763751 1.37857 0
M  V30 510 C 45.754 -1.3405 1.29952 0
M  V30 511 C 46.105 -1.96138 -0.0492898 0
M  V30 512 O 45.23 -1.94372 -0.951239 0
M  V30 513 C 45.825 -2.43729 2.35333 0
M  V30 514 C 44.384 -2.97151 2.31037 0
M  V30 515 C 43.531 -1.70438 2.18738 0
M  V30 516 H 46.482 -0.563396 1.48363 0
M  V30 517 H 46.503 -3.23412 2.00462 0
M  V30 518 H 46.015 -1.9851 3.33489 0
M  V30 519 H 44.116 -3.46724 1.3643 0
M  V30 520 H 44.229 -3.52221 3.24772 0
M  V30 521 H 42.593 -1.93673 1.65418 0
M  V30 522 H 43.376 -1.27312 3.18821 0
M  V30 523 N 45.8211 -1.22559 -0.990812 0
M  V30 524 C 47.2321 -1.04791 -1.54518 0
M  V30 525 C 47.5831 0.387998 -1.92325 0
M  V30 526 O 46.7081 1.27328 -1.74976 0
M  V30 527 C 47.3031 -1.896 -2.80779 0
M  V30 528 C 45.8621 -1.76124 -3.32652 0
M  V30 529 C 45.0091 -1.8594 -2.05722 0
M  V30 530 H 47.9601 -1.36374 -0.811662 0
M  V30 531 H 47.9811 -1.41464 -3.53225 0
M  V30 532 H 47.4931 -2.94101 -2.53231 0
M  V30 533 H 45.5941 -0.743643 -3.65104 0
M  V30 534 H 45.7071 -2.58913 -4.03114 0
M  V30 535 H 44.0711 -1.29403 -2.19379 0
M  V30 536 H 44.8541 -2.91976 -1.80568 0
M  V30 537 N 47.2992 1.18797 -1.03562 0
M  V30 538 C 48.5472 1.88278 -0.734569 0
M  V30 539 C 48.8682 1.8043 0.739586 0
M  V30 540 O 48.1382 1.21925 1.53333 0
M  V30 541 H 46.7182 0.696991 -0.268725 0
M  V30 542 H 49.3802 1.44192 -1.31129 0
M  V30 543 H 48.4762 2.94443 -1.03489 0
M  V30 544 N 48.7773 0.814389 1.34928 0
M  V30 545 C 50.1883 0.458364 1.80986 0
M  V30 546 C 50.5393 -1.02042 1.67577 0
M  V30 547 O 49.6643 -1.79352 1.21086 0
M  V30 548 C 50.2593 0.825212 3.28597 0
M  V30 549 C 48.8183 0.521677 3.72767 0
M  V30 550 C 47.9653 1.04668 2.56788 0
M  V30 551 H 50.9163 1.00533 1.22795 0
M  V30 552 H 50.9373 0.12571 3.80292 0
M  V30 553 H 50.4493 1.90154 3.38324 0
M  V30 554 H 48.5503 -0.545589 3.68584 0
M  V30 555 H 48.6633 1.05977 4.67232 0
M  V30 556 H 47.0273 0.468622 2.50352 0
M  V30 557 H 47.8103 2.12927 2.6929 0
M  V30 558 N 50.2554 -1.46986 0.568584 0
M  V30 559 C 51.6714 -1.57946 0.229189 0
M  V30 560 C 51.8714 -1.56567 -1.26843 0
M  V30 561 O 50.9274 -1.47511 -2.04931 0
M  V30 562 C 52.2404 -2.87963 0.865909 0
M  V30 563 C 53.7884 -3.01568 0.838188 0
M  V30 564 C 54.2634 -4.34301 1.45419 0
M  V30 565 N 55.7544 -4.40965 1.41788 0
M  V30 566 C 56.4894 -5.42256 1.86403 0
M  V30 567 N 55.9854 -6.50297 2.38926 0
M  V30 568 N 57.7784 -5.3337 1.77405 0
M  V30 569 H 49.9294 -1.46126 1.54146 0
M  V30 570 H 52.1924 -0.696156 0.643484 0
M  V30 571 H 51.8984 -2.94742 1.91886 0
M  V30 572 H 51.7724 -3.75423 0.365687 0
M  V30 573 H 54.1594 -2.94379 -0.206106 0
M  V30 574 H 54.2404 -2.1562 1.37629 0
M  V30 575 H 53.8844 -4.42247 2.49761 0
M  V30 576 H 53.8144 -5.19 0.891435 0
M  V30 577 H 56.3054 -3.63484 1.03381 0
M  V30 578 H 56.6184 -7.23777 2.70863 0
M  V30 579 H 54.9634 -6.51155 2.42944 0
M  V30 580 H 58.1544 -4.47865 1.3614 0
M  V30 581 H 58.3274 -6.12169 2.12492 0
M  V30 582 N 51.7335 -0.305618 -1.54608 0
M  V30 583 C 53.1445 0.186098 -1.8577 0
M  V30 584 C 53.4955 1.53058 -1.22751 0
M  V30 585 O 52.6205 2.09888 -0.526893 0
M  V30 586 C 53.2155 0.344449 -3.37044 0
M  V30 587 C 51.7745 0.780384 -3.68221 0
M  V30 588 C 50.9215 -0.108554 -2.77087 0
M  V30 589 H 53.8725 -0.526485 -1.49712 0
M  V30 590 H 53.8935 1.17828 -3.61796 0
M  V30 591 H 53.4055 -0.634235 -3.82883 0
M  V30 592 H 51.5065 1.76945 -3.27904 0
M  V30 593 H 51.6195 0.596572 -4.75371 0
M  V30 594 H 49.9835 0.412931 -2.5133 0
M  V30 595 H 50.7665 -1.08368 -3.25747 0
M  V30 596 N 53.2116 1.57565 -0.0334293 0
M  V30 597 C 54.1416 2.13511 0.945265 0
M  V30 598 C 55.1226 1.05231 1.33643 0
M  V30 599 O 56.3076 1.33084 1.41429 0
M  V30 600 C 53.4376 2.6657 2.22616 0
M  V30 601 C 52.3916 3.79676 1.97561 0
M  V30 602 C 51.7176 4.1918 3.31952 0
M  V30 603 C 53.0176 5.0557 1.31135 0
M  V30 604 H 54.7116 2.95538 0.479325 0
M  V30 605 H 52.2576 1.42166 0.229115 0
M  V30 606 H 54.2106 3.04344 2.91466 0
M  V30 607 H 52.9346 1.8171 2.71384 0
M  V30 608 H 51.5936 3.42347 1.31127 0
M  V30 609 H 51.2416 3.31296 3.78487 0
M  V30 610 H 50.9416 4.95402 3.15992 0
M  V30 611 H 52.4656 4.59541 4.02063 0
M  V30 612 H 53.8796 5.40903 1.89992 0
M  V30 613 H 52.2766 5.86818 1.25559 0
M  V30 614 H 53.3466 4.84062 0.284894 0
M  V30 615 N 54.6897 -0.239769 1.55765 0
M  V30 616 C 56.1007 -0.808263 1.68297 0
M  V30 617 C 56.4517 -1.85736 0.632181 0
M  V30 618 O 55.5767 -2.15277 -0.220204 0
M  V30 619 C 56.1717 -1.47284 3.05111 0
M  V30 620 C 54.7307 -1.98895 3.19559 0
M  V30 621 C 53.8777 -0.842575 2.64189 0
M  V30 622 H 56.8287 -0.0154422 1.58692 0
M  V30 623 H 56.8497 -2.34111 2.99954 0
M  V30 624 H 56.3617 -0.709053 3.81568 0
M  V30 625 H 54.4627 -2.78132 2.47938 0
M  V30 626 H 54.5757 -2.18143 4.26556 0
M  V30 627 H 52.9397 -1.24501 2.22197 0
M  V30 628 H 53.7227 -0.0917552 3.43177 0
M  V30 629 N 56.1678 -1.49265 -0.50573 0
M  V30 630 C 57.0978 -1.68495 -1.61653 0
M  V30 631 C 58.0788 -0.53366 -1.61512 0
M  V30 632 O 59.2638 -0.76897 -1.78327 0
M  V30 633 C 56.3938 -1.74709 -3.00157 0
M  V30 634 C 55.3478 -2.89581 -3.15162 0
M  V30 635 C 54.6738 -2.80903 -4.5497 0
M  V30 636 C 55.9738 -4.30578 -2.95634 0
M  V30 637 H 57.6678 -2.61493 -1.45814 0
M  V30 638 H 55.2138 -1.25838 -0.70005 0
M  V30 639 H 57.1668 -1.86748 -3.77761 0
M  V30 640 H 55.8908 -0.783067 -3.17074 0
M  V30 641 H 54.5498 -2.77136 -2.39982 0
M  V30 642 H 54.1978 -1.82419 -4.68756 0
M  V30 643 H 53.8978 -3.57999 -4.65951 0
M  V30 644 H 55.4218 -2.94944 -5.34641 0
M  V30 645 H 56.8358 -4.4373 -3.63011 0
M  V30 646 H 55.2328 -5.0886 -3.18091 0
M  V30 647 H 56.3028 -4.45352 -1.91806 0
M  V30 648 N 57.6459 0.756429 -1.3826 0
M  V30 649 C 58.5759 1.88374 -1.37976 0
M  V30 650 C 59.5569 1.68311 -0.246082 0
M  V30 651 O 60.7419 1.88944 -0.44874 0
M  V30 652 C 57.8719 3.25864 -1.20125 0
M  V30 653 C 56.8259 3.60523 -2.30666 0
M  V30 654 C 56.1519 4.9672 -1.97923 0
M  V30 655 C 57.4519 3.65692 -3.72916 0
M  V30 656 H 59.1459 1.88869 -2.32312 0
M  V30 657 H 56.6919 0.907272 -1.11824 0
M  V30 658 H 58.6449 4.0438 -1.18552 0
M  V30 659 H 57.3689 3.25841 -0.222498 0
M  V30 660 H 56.0279 2.84324 -2.3142 0
M  V30 661 H 55.6759 4.93253 -0.985393 0
M  V30 662 H 55.3759 5.20878 -2.71955 0
M  V30 663 H 56.8999 5.77618 -1.97964 0
M  V30 664 H 58.3139 4.34328 -3.74208 0
M  V30 665 H 56.7109 4.01358 -4.4613 0
M  V30 666 H 57.7809 2.65987 -4.05436 0
M  V30 667 N 59.124 1.23083 0.984299 0
M  V30 668 C 60.372 1.05848 1.72165 0
M  V30 669 C 60.693 -0.406049 1.90726 0
M  V30 670 O 59.963 -1.29139 1.47309 0
M  V30 671 H 58.543 0.388685 0.637913 0
M  V30 672 H 61.205 1.54736 1.18503 0
M  V30 673 H 60.301 1.54327 2.71274 0
M  V30 674 N 60.6021 -1.18246 1.0419 0
M  V30 675 C 61.5501 -2.23968 0.627792 0
M  V30 676 C 62.5441 -1.65828 -0.346019 0
M  V30 677 O 63.7501 -1.78733 -0.213175 0
M  V30 678 H 60.1251 -0.728939 0.184802 0
M  V30 679 H 62.0961 -2.56202 1.52981 0
M  V30 680 C 60.8451 -3.47699 0.00796591 0
M  V30 681 H 60.1681 -3.92734 0.748347 0
M  V30 682 H 61.6081 -4.23294 -0.24455 0
M  V30 683 C 60.0671 -3.13153 -1.24246 0
M  V30 684 O 60.5971 -3.27003 -2.33307 0
M  V30 685 N 58.8031 -2.67467 -1.13622 0
M  V30 686 H 58.3501 -2.56396 -0.248734 0
M  V30 687 H 58.3081 -2.44724 -1.97377 0
M  V30 688 N 62.0802 -0.821533 -1.34494 0
M  V30 689 C 63.0102 -0.257138 -2.3208 0
M  V30 690 C 63.9912 0.625645 -1.58176 0
M  V30 691 O 65.1762 0.552811 -1.86166 0
M  V30 692 C 62.3062 0.582958 -3.42372 0
M  V30 693 C 61.2602 -0.202571 -4.2752 0
M  V30 694 C 60.5862 0.760179 -5.29269 0
M  V30 695 C 61.8862 -1.40998 -5.02908 0
M  V30 696 H 63.5802 -1.07247 -2.79532 0
M  V30 697 H 61.1262 -0.517163 -1.34393 0
M  V30 698 H 63.0792 0.987972 -4.09655 0
M  V30 699 H 61.8032 1.43133 -2.93565 0
M  V30 700 H 60.4622 -0.588936 -3.61838 0
M  V30 701 H 60.1102 1.60447 -4.76724 0
M  V30 702 H 59.8102 0.238809 -5.87115 0
M  V30 703 H 61.3342 1.16308 -5.9942 0
M  V30 704 H 62.7482 -1.07905 -5.63054 0
M  V30 705 H 61.1452 -1.86689 -5.70322 0
M  V30 706 H 62.2152 -2.1889 -4.32684 0
M  V30 707 N 63.5583 1.46682 -0.576371 0
M  V30 708 C 64.4883 2.33028 0.148397 0
M  V30 709 C 65.4693 1.44961 0.889956 0
M  V30 710 O 66.6543 1.73789 0.866662 0
M  V30 711 C 63.7843 3.27117 1.1667 0
M  V30 712 C 62.7383 4.24575 0.540386 0
M  V30 713 C 62.0643 5.08126 1.6647 0
M  V30 714 C 63.3643 5.19722 -0.518331 0
M  V30 715 H 65.0583 2.93875 -0.572509 0
M  V30 716 H 62.6043 1.41315 -0.276768 0
M  V30 717 H 64.5573 3.86374 1.68204 0
M  V30 718 H 63.2813 2.64364 1.9178 0
M  V30 719 H 61.9403 3.66571 0.0461769 0
M  V30 720 H 61.5883 4.41762 2.40531 0
M  V30 721 H 61.2883 5.74122 1.25131 0
M  V30 722 H 62.8123 5.70246 2.18293 0
M  V30 723 H 64.2263 5.73232 -0.0883058 0
M  V30 724 H 62.6233 5.94026 -0.851679 0
M  V30 725 H 63.6933 4.64037 -1.40703 0
M  V30 726 N 65.0364 0.313813 1.54444 0
M  V30 727 C 65.9684 -0.590425 2.21465 0
M  V30 728 C 66.9814 -1.08753 1.21147 0
M  V30 729 O 68.1704 -1.00278 1.4767 0
M  V30 730 C 65.2704 -1.82179 2.85769 0
M  V30 731 C 64.4434 -1.46502 4.12136 0
M  V30 732 C 63.5024 -2.55288 4.60124 0
M  V30 733 O 62.5284 -2.19842 5.25032 0
M  V30 734 N 63.7304 -3.86053 4.33525 0
M  V30 735 H 66.4954 -0.0166033 2.99695 0
M  V30 736 H 64.0564 0.136578 1.61323 0
M  V30 737 H 66.0484 -2.54328 3.14801 0
M  V30 738 H 64.6184 -2.30369 2.11303 0
M  V30 739 H 63.8384 -0.575595 3.89975 0
M  V30 740 H 65.1264 -1.20221 4.94393 0
M  V30 741 H 64.5244 -4.17654 3.81552 0
M  V30 742 H 63.0814 -4.54461 4.67235 0
M  V30 743 N 66.5145 -1.57545 0.0417849 0
M  V30 744 C 67.4475 -2.06514 -0.970928 0
M  V30 745 C 68.4255 -0.963607 -1.30971 0
M  V30 746 O 69.6095 -1.23486 -1.4242 0
M  V30 747 C 66.7365 -2.4978 -2.28752 0
M  V30 748 C 65.7825 -3.71078 -2.10246 0
M  V30 749 S 66.6155 -5.17158 -1.38952 0
M  V30 750 C 67.7715 -5.6373 -2.71954 0
M  V30 751 H 68.0045 -2.9209 -0.554129 0
M  V30 752 H 65.5375 -1.53459 -0.17024 0
M  V30 753 H 67.4955 -2.75371 -3.04435 0
M  V30 754 H 66.1565 -1.64527 -2.67562 0
M  V30 755 H 65.3495 -3.9924 -3.07609 0
M  V30 756 H 64.9515 -3.45705 -1.42704 0
M  V30 757 H 67.2435 -5.68743 -3.68154 0
M  V30 758 H 68.1865 -6.63086 -2.4844 0
M  V30 759 H 68.5945 -4.91424 -2.77782 0
M  V30 760 N 67.9926 0.231505 -1.5589 0
M  V30 761 C 69.2696 0.981096 -1.69215 0
M  V30 762 C 69.6496 2.02799 -0.586164 0
M  V30 763 O 68.9976 2.24823 0.408253 0
M  V30 764 C 69.2076 1.60054 -3.10135 0
M  V30 765 C 70.5556 2.09658 -3.69227 0
M  V30 766 O 71.5796 1.69967 -3.13033 0
M  V30 767 O 70.4386 2.8258 -4.67772 0
M  V30 768 H 67.5326 0.457653 -0.688827 0
M  V30 769 H 70.0786 0.224073 -1.68214 0
M  V30 770 H 68.8506 0.844105 -3.82087 0
M  V30 771 H 68.4736 2.42336 -3.15212 0
M  V30 772 N 69.4707 1.49531 0.497807 0
M  V30 773 C 70.8867 1.36365 0.829266 0
M  V30 774 C 71.0867 0.399184 1.97506 0
M  V30 775 O 70.1427 -0.167977 2.51941 0
M  V30 776 C 71.4557 2.77153 1.16647 0
M  V30 777 C 73.0037 2.85877 1.27449 0
M  V30 778 C 73.4787 4.2744 1.64497 0
M  V30 779 N 74.9697 4.30265 1.7154 0
M  V30 780 C 75.7047 5.3677 2.01656 0
M  V30 781 N 75.2007 6.53516 2.29976 0
M  V30 782 N 76.9937 5.24189 2.02934 0
M  V30 783 H 69.1447 2.10831 -0.257703 0
M  V30 784 H 71.4077 0.946534 -0.0527091 0
M  V30 785 H 71.1137 3.49442 0.397872 0
M  V30 786 H 70.9877 3.12722 2.10915 0
M  V30 787 H 73.3747 2.13824 2.0338 0
M  V30 788 H 73.4557 2.53887 0.312244 0
M  V30 789 H 73.0997 5.00021 0.891151 0
M  V30 790 H 73.0297 4.56896 2.61827 0
M  V30 791 H 75.5207 3.4607 1.51802 0
M  V30 792 H 75.8337 7.30506 2.52153 0
M  V30 793 H 74.1787 6.56737 2.27425 0
M  V30 794 H 77.3697 4.31988 1.80289 0
M  V30 795 H 77.5427 6.07286 2.26071 0
M  V30 796 N 70.9488 -0.749086 1.3866 0
M  V30 797 C 72.3648 -1.05276 1.19955 0
M  V30 798 C 72.5648 -2.01435 0.05134 0
M  V30 799 O 71.6208 -2.45232 -0.60147 0
M  V30 800 C 72.9338 -1.62853 2.52783 0
M  V30 801 C 74.4818 -1.75002 2.59506 0
M  V30 802 C 74.9568 -2.35991 3.92521 0
M  V30 803 N 76.4478 -2.43416 3.94085 0
M  V30 804 C 77.1828 -2.91511 4.9377 0
M  V30 805 N 76.6788 -3.39608 6.03853 0
M  V30 806 N 78.4718 -2.90592 4.81157 0
M  V30 807 H 70.6228 -0.111066 2.12109 0
M  V30 808 H 72.8858 -0.111901 0.941373 0
M  V30 809 H 72.5918 -0.99664 3.37283 0
M  V30 810 H 72.4658 -2.61854 2.715 0
M  V30 811 H 74.8528 -2.37317 1.75398 0
M  V30 812 H 74.9338 -0.74693 2.44652 0
M  V30 813 H 74.5778 -1.74308 4.77053 0
M  V30 814 H 74.5078 -3.3695 4.04688 0
M  V30 815 H 76.9988 -2.09405 3.14576 0
M  V30 816 H 77.3118 -3.74775 6.75843 0
M  V30 817 H 75.6568 -3.37653 6.07466 0
M  V30 818 H 78.8478 -2.52332 3.94267 0
M  V30 819 H 79.0208 -3.27762 5.58996 0
M  V30 820 N 72.4269 -1.23603 -0.977757 0
M  V30 821 C 73.6749 -1.06759 -1.71601 0
M  V30 822 C 73.9959 0.395929 -1.90938 0
M  V30 823 O 73.2659 1.28356 -1.47992 0
M  V30 824 H 71.8459 -0.392062 -0.635843 0
M  V30 825 H 74.5079 -1.55362 -1.1768 0
M  V30 826 H 73.6039 -1.55763 -2.70452 0
M  V30 827 N 73.905 1.17692 -1.04816 0
M  V30 828 C 74.835 2.23777 -0.666791 0
M  V30 829 C 75.816 1.66796 0.33361 0
M  V30 830 O 77.001 1.93039 0.212042 0
M  V30 831 C 74.131 3.47281 -0.0367933 0
M  V30 832 C 73.085 4.17059 -0.961546 0
M  V30 833 C 72.411 5.34342 -0.195626 0
M  V30 834 C 73.711 4.69713 -2.28402 0
M  V30 835 H 75.405 2.55933 -1.55367 0
M  V30 836 H 72.951 1.23019 -0.748484 0
M  V30 837 H 74.904 4.20706 0.241775 0
M  V30 838 H 73.628 3.14381 0.885004 0
M  V30 839 H 72.287 3.45541 -1.22462 0
M  V30 840 H 71.935 4.97692 0.728816 0
M  V30 841 H 71.635 5.81966 -0.811775 0
M  V30 842 H 73.159 6.10553 0.0757473 0
M  V30 843 H 74.573 5.34794 -2.06563 0
M  V30 844 H 72.97 5.279 -2.8538 0
M  V30 845 H 74.04 3.86726 -2.92525 0
M  V30 846 N 75.3831 0.828654 1.34056 0
M  V30 847 C 76.3131 0.269443 2.3194 0
M  V30 848 C 77.2941 -0.617247 1.58506 0
M  V30 849 O 78.4791 -0.542931 1.86456 0
M  V30 850 C 75.6091 -0.564793 3.42677 0
M  V30 851 C 74.5631 0.225241 4.27407 0
M  V30 852 C 73.8891 -0.7321 5.29664 0
M  V30 853 C 75.1891 1.43663 5.02154 0
M  V30 854 H 76.8831 1.08728 2.7896 0
M  V30 855 H 74.4291 0.524283 1.34117 0
M  V30 856 H 76.3821 -0.966233 4.10173 0
M  V30 857 H 75.1061 -1.41574 2.9432 0
M  V30 858 H 73.7651 0.608117 3.61521 0
M  V30 859 H 73.4131 -1.57916 4.77568 0
M  V30 860 H 73.1131 -0.20767 5.87233 0
M  V30 861 H 74.6371 -1.13128 6.00029 0
M  V30 862 H 76.0511 1.1089 5.62473 0
M  V30 863 H 74.4481 1.89711 5.69324 0
M  V30 864 H 75.5181 2.21181 4.31517 0
M  V30 865 N 76.8612 -1.46375 0.584142 0
M  V30 866 C 77.8082 -2.30323 -0.148286 0
M  V30 867 C 78.7782 -1.40703 -0.882713 0
M  V30 868 O 79.9632 -1.69651 -0.873099 0
M  V30 869 C 77.1032 -3.25196 -1.15507 0
M  V30 870 C 76.2162 -4.29915 -0.423943 0
M  V30 871 C 75.3512 -5.11914 -1.41838 0
M  V30 872 C 74.3902 -6.08381 -0.673736 0
M  V30 873 N 73.5272 -6.83242 -1.6163 0
M  V30 874 H 78.3672 -2.92427 0.573644 0
M  V30 875 H 75.9042 -1.44118 0.294703 0
M  V30 876 H 77.8622 -3.78646 -1.75166 0
M  V30 877 H 76.4922 -2.64898 -1.8447 0
M  V30 878 H 75.5442 -3.7931 0.287714 0
M  V30 879 H 76.8562 -4.98549 0.158128 0
M  V30 880 H 76.0102 -5.69648 -2.08773 0
M  V30 881 H 74.7492 -4.43243 -2.03438 0
M  V30 882 H 73.7542 -5.49799 0.00938483 0
M  V30 883 H 74.9792 -6.79071 -0.0631082 0
M  V30 884 H 72.9252 -6.1728 -2.22038 0
M  V30 885 H 72.8422 -7.48144 -1.08707 0
M  V30 886 H 74.1102 -7.45534 -2.27596 0
M  V30 887 N 78.3393 -0.321999 -1.54275 0
M  V30 888 C 79.5643 0.285791 -2.05422 0
M  V30 889 C 79.9893 1.45124 -1.19669 0
M  V30 890 O 79.3473 1.80132 -0.205441 0
M  V30 891 C 79.3953 0.69956 -3.53749 0
M  V30 892 O 78.4993 1.8021 -3.70942 0
M  V30 893 H 77.8403 0.0518962 -0.661969 0
M  V30 894 H 80.3703 -0.469954 -1.9913 0
M  V30 895 H 80.3803 0.982649 -3.9599 0
M  V30 896 H 79.0553 -0.152864 -4.15619 0
M  V30 897 H 77.6323 1.51794 -3.40607 0
M  V30 898 N 79.8174 1.5752 -0.0501392 0
M  V30 899 C 81.0644 1.9265 0.623874 0
M  V30 900 C 81.3924 0.928411 1.70912 0
M  V30 901 O 80.6474 -0.0594525 1.9561 0
M  V30 902 C 80.9464 3.34467 1.25963 0
M  V30 903 C 80.6124 4.49883 0.302689 0
M  V30 904 C 79.2744 4.81184 0.0393636 0
M  V30 905 C 81.6264 5.20002 -0.353205 0
M  V30 906 C 78.9544 5.79951 -0.887308 0
M  V30 907 C 81.3064 6.1976 -1.26806 0
M  V30 908 C 79.9704 6.49491 -1.54007 0
M  V30 909 H 79.2404 0.704957 0.228292 0
M  V30 910 H 81.8874 1.91146 -0.116398 0
M  V30 911 H 80.1924 3.32333 2.07514 0
M  V30 912 H 81.8894 3.58928 1.78806 0
M  V30 913 H 78.4794 4.25457 0.518109 0
M  V30 914 H 82.6634 4.96033 -0.162854 0
M  V30 915 H 77.9194 6.01322 -1.10553 0
M  V30 916 H 82.0934 6.73205 -1.78236 0
M  V30 917 H 79.7204 7.25837 -2.25976 0
M  V30 918 N 81.2955 -0.223234 1.56011 0
M  V30 919 C 82.2255 -1.27988 1.95298 0
M  V30 920 C 83.2065 -1.48976 0.820979 0
M  V30 921 O 84.3915 -1.61188 1.08315 0
M  V30 922 C 81.5215 -2.63 2.26822 0
M  V30 923 C 80.4755 -2.56671 3.42497 0
M  V30 924 C 79.8015 -3.95697 3.59622 0
M  V30 925 C 81.1015 -2.11601 4.77517 0
M  V30 926 H 82.7955 -0.953525 2.8381 0
M  V30 927 H 80.3415 -0.457244 1.36548 0
M  V30 928 H 82.2945 -3.37077 2.52898 0
M  V30 929 H 81.0185 -2.9732 1.35161 0
M  V30 930 H 79.6775 -1.85051 3.16467 0
M  V30 931 H 79.3255 -4.27322 2.6534 0
M  V30 932 H 79.0255 -3.92345 4.37424 0
M  V30 933 H 80.5495 -4.71438 3.88044 0
M  V30 934 H 81.9635 -2.7542 5.02809 0
M  V30 935 H 80.3605 -2.19311 5.5859 0
M  V30 936 H 81.4305 -1.06824 4.72987 0
M  V30 937 N 82.7736 -1.49793 -0.48987 0
M  V30 938 C 84.1896 -1.36803 -0.822022 0
M  V30 939 C 84.3896 -0.409652 -1.97292 0
M  V30 940 O 83.4456 0.154614 -2.52026 0
M  V30 941 C 84.7586 -2.77768 -1.15175 0
M  V30 942 C 86.3066 -2.86549 -1.25931 0
M  V30 943 C 86.7816 -4.28306 -1.62228 0
M  V30 944 N 88.2726 -4.31169 -1.69256 0
M  V30 945 C 89.0076 -5.37832 -1.98807 0
M  V30 946 N 88.5036 -6.54726 -2.26507 0
M  V30 947 N 90.2966 -5.25258 -2.00152 0
M  V30 948 H 82.4476 -2.10691 0.268881 0
M  V30 949 H 84.7106 -0.946241 0.057728 0
M  V30 950 H 84.4166 -3.49648 -0.379335 0
M  V30 951 H 84.2906 -3.13836 -2.09253 0
M  V30 952 H 86.6776 -2.14899 -2.02243 0
M  V30 953 H 86.7586 -2.54049 -0.298776 0
M  V30 954 H 86.4026 -5.00486 -0.864622 0
M  V30 955 H 86.3326 -4.58279 -2.594 0
M  V30 956 H 88.8236 -3.4687 -1.49965 0
M  V30 957 H 89.1366 -7.31833 -2.48276 0
M  V30 958 H 87.4816 -6.57933 -2.23939 0
M  V30 959 H 90.6726 -4.32938 -1.77996 0
M  V30 960 H 90.8456 -6.08476 -2.22848 0
M  V30 961 N 84.2517 0.741722 -1.39055 0
M  V30 962 C 85.4987 1.50114 -1.35912 0
M  V30 963 C 85.8267 1.94443 0.0470937 0
M  V30 964 O 85.0817 1.66612 1.02659 0
M  V30 965 C 85.3807 2.7592 -2.27163 0
M  V30 966 C 85.0467 2.50493 -3.74919 0
M  V30 967 C 83.7087 2.43267 -4.1518 0
M  V30 968 C 86.0607 2.28585 -4.684 0
M  V30 969 C 83.3887 2.12166 -5.46994 0
M  V30 970 C 85.7407 1.99002 -6.00484 0
M  V30 971 C 84.4047 1.90241 -6.39816 0
M  V30 972 H 83.6747 0.549306 -0.497336 0
M  V30 973 H 86.3217 0.851896 -1.71508 0
M  V30 974 H 84.6267 3.45553 -1.84663 0
M  V30 975 H 86.3237 3.33923 -2.22028 0
M  V30 976 H 82.9137 2.56992 -3.43006 0
M  V30 977 H 87.0977 2.33139 -4.38132 0
M  V30 978 H 82.3537 2.03901 -5.76398 0
M  V30 979 H 86.5277 1.81057 -6.72452 0
M  V30 980 H 84.1547 1.65907 -7.41875 0
M  V30 981 N 85.7298 1.2412 0.971189 0
M  V30 982 C 87.1458 1.00584 1.23916 0
M  V30 983 C 87.3458 -0.287481 1.99439 0
M  V30 984 O 86.4018 -1.00454 2.31658 0
M  V30 985 C 87.7148 2.21864 2.0297 0
M  V30 986 C 89.2628 2.26452 2.16076 0
M  V30 987 C 89.7378 3.47343 2.98524 0
M  V30 988 N 91.2288 3.47639 3.06107 0
M  V30 989 C 91.9638 4.37837 3.70251 0
M  V30 990 N 91.4598 5.38286 4.36142 0
M  V30 991 N 93.2528 4.25558 3.67228 0
M  V30 992 H 85.4038 2.07236 0.465499 0
M  V30 993 H 87.6668 0.909236 0.268315 0
M  V30 994 H 87.3728 3.15771 1.54861 0
M  V30 995 H 87.2468 2.23698 3.03709 0
M  V30 996 H 89.6338 1.33078 2.6339 0
M  V30 997 H 89.7148 2.28645 1.14696 0
M  V30 998 H 89.3588 4.41029 2.51905 0
M  V30 999 H 89.2888 3.42393 4.00093 0
M  V30 1000 H 91.7798 2.74966 2.59233 0
M  V30 1001 H 92.0928 6.03352 4.82894 0
M  V30 1002 H 90.4378 5.42176 4.34822 0
M  V30 1003 H 93.6288 3.46322 3.14927 0
M  V30 1004 H 93.8018 4.96054 4.16935 0
M  V30 1005 N 87.2079 -1.17134 1.05439 0
M  V30 1006 C 88.1179 -2.24878 0.668365 0
M  V30 1007 C 89.1339 -1.71186 -0.311687 0
M  V30 1008 O 90.3099 -2.00738 -0.163161 0
M  V30 1009 C 87.3749 -3.46662 0.051648 0
M  V30 1010 C 86.4359 -4.15429 1.08246 0
M  V30 1011 C 85.6689 -5.31399 0.495082 0
M  V30 1012 O 85.8919 -5.66153 -0.694743 0
M  V30 1013 O 84.8259 -5.89187 1.23056 0
M  V30 1014 H 88.6519 -2.60189 1.56637 0
M  V30 1015 H 86.2369 -1.24482 0.826104 0
M  V30 1016 H 88.1189 -4.20394 -0.290966 0
M  V30 1017 H 86.7939 -3.13142 -0.819971 0
M  V30 1018 H 85.7009 -3.43704 1.47711 0
M  V30 1019 H 87.0339 -4.52982 1.92532 0
M  V30 1020 N 88.686 -0.835752 -1.33615 0
M  V30 1021 C 89.633 -0.26473 -2.29277 0
M  V30 1022 C 90.603 0.617712 -1.54187 0
M  V30 1023 O 91.788 0.556641 -1.825 0
M  V30 1024 C 88.928 0.556777 -3.40579 0
M  V30 1025 C 88.041 -0.349339 -4.30585 0
M  V30 1026 C 87.176 0.482969 -5.29 0
M  V30 1027 C 86.215 -0.421732 -6.10645 0
M  V30 1028 N 85.352 0.372262 -7.01112 0
M  V30 1029 H 90.192 -1.08582 -2.77514 0
M  V30 1030 H 87.729 -0.546927 -1.36554 0
M  V30 1031 H 89.687 1.04852 -4.03809 0
M  V30 1032 H 88.317 1.34286 -2.93542 0
M  V30 1033 H 87.369 -0.959372 -3.68104 0
M  V30 1034 H 88.681 -1.04445 -4.87742 0
M  V30 1035 H 87.835 1.03866 -5.97743 0
M  V30 1036 H 86.574 1.21153 -4.72412 0
M  V30 1037 H 85.579 -0.989464 -5.40823 0
M  V30 1038 H 86.804 -1.14861 -6.69316 0
M  V30 1039 H 84.75 1.08426 -6.46977 0
M  V30 1040 H 84.667 -0.264198 -7.55538 0
M  V30 1041 H 85.935 0.910293 -7.74167 0
M  V30 1042 N 90.1641 1.46063 -0.591896 0
M  V30 1043 C 91.3941 2.06418 -0.0867676 0
M  V30 1044 C 91.8021 1.43975 1.22751 0
M  V30 1045 O 91.1451 0.542531 1.75506 0
M  V30 1046 C 91.2071 3.59213 0.143725 0
M  V30 1047 C 90.8711 4.439 -1.08635 0
M  V30 1048 C 91.8681 4.79864 -2.00067 0
M  V30 1049 C 89.5531 4.84896 -1.31077 0
M  V30 1050 C 91.5471 5.55661 -3.12282 0
M  V30 1051 C 89.2341 5.6045 -2.43596 0
M  V30 1052 C 90.2321 5.95747 -3.34027 0
M  V30 1053 O 89.9201 6.69772 -4.4459 0
M  V30 1054 H 89.6521 0.673443 -0.0587447 0
M  V30 1055 H 92.2061 1.88539 -0.814994 0
M  V30 1056 H 90.4361 3.75433 0.926668 0
M  V30 1057 H 92.1251 4.01463 0.5985 0
M  V30 1058 H 92.8911 4.48763 -1.83947 0
M  V30 1059 H 88.7701 4.56867 -0.61594 0
M  V30 1060 H 92.3141 5.8313 -3.82891 0
M  V30 1061 H 88.2111 5.90965 -2.59674 0
M  V30 1062 H 88.9791 6.88207 -4.43073 0
M  V30 1063 N 91.6422 0.330177 1.54103 0
M  V30 1064 C 92.8902 -0.269871 2.0029 0
M  V30 1065 C 93.2112 -1.52133 1.21986 0
M  V30 1066 O 92.4812 -1.93212 0.323438 0
M  V30 1067 H 91.0612 -0.10271 0.739905 0
M  V30 1068 H 93.7232 0.448249 1.89675 0
M  V30 1069 H 92.8192 -0.52166 3.07709 0
M  V30 1070 N 93.1203 -1.57491 0.0584922 0
M  V30 1071 C 94.3973 -1.84346 -0.653918 0
M  V30 1072 C 94.7773 -0.948355 -1.88599 0
M  V30 1073 O 94.1253 -0.0112403 -2.28497 0
M  V30 1074 C 94.3353 -3.34239 -1.00425 0
M  V30 1075 C 95.6833 -4.01431 -1.38342 0
M  V30 1076 O 96.7073 -3.38907 -1.09637 0
M  V30 1077 O 95.5663 -5.11683 -1.91943 0
M  V30 1078 H 92.6603 -0.761112 -0.323478 0
M  V30 1079 H 95.2063 -1.6947 0.0884125 0
M  V30 1080 H 93.9783 -3.91089 -0.128625 0
M  V30 1081 H 93.6013 -3.54329 -1.80378 0
M  V30 1082 N 94.5984 0.214957 -1.56127 0
M  V30 1083 C 95.8444 0.939762 -1.79712 0
M  V30 1084 C 96.1774 1.83723 -0.629247 0
M  V30 1085 O 95.4524 1.90925 0.371197 0
M  V30 1086 C 95.7354 1.77306 -3.13424 0
M  V30 1087 C 95.5884 0.90164 -4.40671 0
M  V30 1088 C 96.9074 2.74956 -3.43638 0
M  V30 1089 H 94.0264 0.340214 -0.653776 0
M  V30 1090 H 96.6684 0.20824 -1.88855 0
M  V30 1091 H 94.8184 2.39673 -3.0576 0
M  V30 1092 H 96.4904 0.294206 -4.60361 0
M  V30 1093 H 94.7334 0.207368 -4.33304 0
M  V30 1094 H 95.4044 1.51923 -5.30682 0
M  V30 1095 H 97.8804 2.22724 -3.51473 0
M  V30 1096 H 96.7564 3.30358 -4.38355 0
M  V30 1097 H 97.0174 3.53023 -2.66134 0
M  V30 1098 N 96.0765 1.50051 0.48192 0
M  V30 1099 C 97.3235 1.60498 1.23477 0
M  V30 1100 C 97.6515 0.300331 1.92167 0
M  V30 1101 O 96.9065 -0.713094 1.82246 0
M  V30 1102 C 97.2055 2.72717 2.30998 0
M  V30 1103 C 96.8715 4.13572 1.79636 0
M  V30 1104 C 95.5335 4.519 1.65348 0
M  V30 1105 C 97.8855 5.01649 1.41412 0
M  V30 1106 C 95.2135 5.76057 1.11244 0
M  V30 1107 C 97.5655 6.26343 0.887538 0
M  V30 1108 C 96.2295 6.63483 0.731207 0
M  V30 1109 H 95.4995 0.587303 0.451836 0
M  V30 1110 H 98.1465 1.83948 0.532468 0
M  V30 1111 H 96.4515 2.43312 3.07094 0
M  V30 1112 H 98.1485 2.78006 2.88988 0
M  V30 1113 H 94.7385 3.83329 1.91721 0
M  V30 1114 H 98.9225 4.72679 1.51289 0
M  V30 1115 H 94.1785 6.03516 0.978686 0
M  V30 1116 H 98.3525 6.93958 0.582654 0
M  V30 1117 H 95.9795 7.59568 0.309806 0
M  V30 1118 N 97.5546 -0.734337 1.39446 0
M  V30 1119 C 98.7826 -1.52358 1.39981 0
M  V30 1120 C 99.1976 -1.88799 -0.0054975 0
M  V30 1121 O 98.5546 -1.54146 -0.976998 0
M  V30 1122 C 98.6056 -2.81072 2.27333 0
M  V30 1123 O 98.3266 -2.46178 3.62392 0
M  V30 1124 C 99.8276 -3.75096 2.36259 0
M  V30 1125 H 97.0476 -0.470806 0.478103 0
M  V30 1126 H 99.5916 -0.907339 1.83269 0
M  V30 1127 H 97.7466 -3.39026 1.87457 0
M  V30 1128 H 98.1606 -3.28866 4.08592 0
M  V30 1129 H 99.6346 -4.62305 3.01626 0
M  V30 1130 H 100.112 -4.16892 1.38194 0
M  V30 1131 H 100.718 -3.23061 2.76608 0
M  V30 1132 N 99.0327 -1.24633 -0.964593 0
M  V30 1133 C 100.279 -1.08949 -1.71049 0
M  V30 1134 C 100.612 0.370302 -1.90637 0
M  V30 1135 O 99.8867 1.27349 -1.47011 0
M  V30 1136 C 100.17 -1.83329 -3.0994 0
M  V30 1137 C 100.023 -3.37077 -2.97824 0
M  V30 1138 C 101.342 -1.60846 -4.09654 0
M  V30 1139 H 98.4607 -0.397178 -0.620821 0
M  V30 1140 H 101.103 -1.5334 -1.12191 0
M  V30 1141 H 99.2527 -1.45597 -3.60186 0
M  V30 1142 H 100.925 -3.84425 -2.5498 0
M  V30 1143 H 99.1677 -3.65298 -2.33965 0
M  V30 1144 H 99.8387 -3.84324 -3.96231 0
M  V30 1145 H 102.315 -1.93674 -3.68279 0
M  V30 1146 H 101.191 -2.1534 -5.04896 0
M  V30 1147 H 101.452 -0.547434 -4.38698 0
M  V30 1148 N 100.511 1.16574 -1.06058 0
M  V30 1149 C 101.461 2.18854 -0.63929 0
M  V30 1150 C 102.445 1.57505 0.328798 0
M  V30 1151 O 103.637 1.76408 0.144623 0
M  V30 1152 C 100.766 3.43291 -0.0247203 0
M  V30 1153 C 99.8518 4.11722 -1.01716 0
M  V30 1154 N 100.243 4.55841 -2.19186 0
M  V30 1155 C 98.5408 4.37872 -0.847569 0
M  V30 1156 C 99.2418 5.08751 -2.82042 0
M  V30 1157 N 98.2178 5.01489 -2.09784 0
M  V30 1158 H 102.02 2.5068 -1.53417 0
M  V30 1159 H 99.5338 1.32999 -0.931935 0
M  V30 1160 H 101.531 4.15856 0.294915 0
M  V30 1161 H 100.191 3.12954 0.865448 0
M  V30 1162 H 101.202 4.49649 -2.56975 0
M  V30 1163 H 97.8788 4.17499 -0.00918848 0
M  V30 1164 H 99.2688 5.52944 -3.81709 0
M  V30 1165 N 101.989 0.842826 1.3317 0
M  V30 1166 C 102.919 0.294028 2.31641 0
M  V30 1167 C 103.9 -0.600401 1.59151 0
M  V30 1168 O 105.085 -0.523124 1.87022 0
M  V30 1169 C 102.215 -0.528416 3.43257 0
M  V30 1170 C 101.169 0.27056 4.27144 0
M  V30 1171 C 100.495 -0.675881 5.30411 0
M  V30 1172 C 101.795 1.48981 5.00602 0
M  V30 1173 H 103.489 1.11681 2.77791 0
M  V30 1174 H 101.035 0.538478 1.33553 0
M  V30 1175 H 102.988 -0.922674 4.11175 0
M  V30 1176 H 101.712 -1.38445 2.95805 0
M  V30 1177 H 100.371 0.646427 3.60856 0
M  V30 1178 H 100.019 -1.52842 4.79216 0
M  V30 1179 H 99.7189 -0.145374 5.8742 0
M  V30 1180 H 101.243 -1.06757 6.01195 0
M  V30 1181 H 102.657 1.16849 5.61266 0
M  V30 1182 H 101.054 1.95739 5.6728 0
M  V30 1183 H 102.124 2.25746 4.29147 0
M  V30 1184 N 103.467 -1.45747 0.599634 0
M  V30 1185 C 104.715 -2.01893 0.0915472 0
M  V30 1186 C 105.036 -1.47155 -1.27946 0
M  V30 1187 O 104.306 -0.66273 -1.84349 0
M  V30 1188 H 102.886 -0.746363 0.0308524 0
M  V30 1189 H 105.548 -1.78645 0.779237 0
M  V30 1190 H 104.644 -3.1208 0.0353086 0
M  V30 1191 N 104.945 -0.338344 -1.53925 0
M  V30 1192 C 106.356 0.146651 -1.86123 0
M  V30 1193 C 106.707 1.5042 -1.2597 0
M  V30 1194 O 105.832 2.08723 -0.571294 0
M  V30 1195 C 106.427 0.272879 -3.37699 0
M  V30 1196 C 104.986 0.702103 -3.69794 0
M  V30 1197 C 104.133 -0.167304 -2.76795 0
M  V30 1198 H 107.084 -0.558123 -1.48562 0
M  V30 1199 H 107.105 1.10128 -3.64214 0
M  V30 1200 H 106.617 -0.715307 -3.81451 0
M  V30 1201 H 104.718 1.6995 -3.31584 0
M  V30 1202 H 104.831 0.495604 -4.7653 0
M  V30 1203 H 103.195 0.359527 -2.5215 0
M  V30 1204 H 103.978 -1.15253 -3.23375 0
M  V30 1205 N 106.423 1.57458 -0.0668435 0
M  V30 1206 C 107.839 1.56947 0.289772 0
M  V30 1207 C 108.039 1.07584 1.70376 0
M  V30 1208 O 107.095 0.739486 2.41429 0
M  V30 1209 C 108.408 3.0052 0.103943 0
M  V30 1210 C 109.956 3.12517 0.173857 0
M  V30 1211 C 110.431 4.57997 0.0163682 0
M  V30 1212 N 111.922 4.63144 0.0721352 0
M  V30 1213 C 112.657 5.73394 -0.0253794 0
M  V30 1214 N 112.153 6.92576 -0.176133 0
M  V30 1215 N 113.946 5.62091 0.0313305 0
M  V30 1216 H 106.097 1.87863 -0.991027 0
M  V30 1217 H 108.36 0.86583 -0.38606 0
M  V30 1218 H 108.066 3.40729 -0.871572 0
M  V30 1219 H 107.94 3.67304 0.858366 0
M  V30 1220 H 110.327 2.72197 1.13985 0
M  V30 1221 H 110.408 2.48381 -0.611586 0
M  V30 1222 H 110.052 4.99005 -0.946374 0
M  V30 1223 H 109.982 5.20158 0.821153 0
M  V30 1224 H 112.473 3.77436 0.187263 0
M  V30 1225 H 112.786 7.72418 -0.242821 0
M  V30 1226 H 111.131 6.94678 -0.211429 0
M  V30 1227 H 114.322 4.67867 0.147773 0
M  V30 1228 H 114.495 6.47982 -0.048121 0
M  V30 1229 N 107.901 -0.206675 1.56239 0
M  V30 1230 C 109.312 -0.772383 1.69974 0
M  V30 1231 C 109.663 -1.84353 0.671436 0
M  V30 1232 O 108.788 -2.15695 -0.174491 0
M  V30 1233 C 109.383 -1.40779 3.08167 0
M  V30 1234 C 107.942 -1.92072 3.23706 0
M  V30 1235 C 107.089 -0.786347 2.65917 0
M  V30 1236 H 110.04 0.0182223 1.5869 0
M  V30 1237 H 110.061 -2.27696 3.04852 0
M  V30 1238 H 109.573 -0.627958 3.82986 0
M  V30 1239 H 107.674 -2.7281 2.53782 0
M  V30 1240 H 107.787 -2.09046 4.31087 0
M  V30 1241 H 106.151 -1.1976 2.24788 0
M  V30 1242 H 106.934 -0.0189416 3.43295 0
M  V30 1243 N 109.379 -1.50304 -0.473955 0
M  V30 1244 C 110.625 -1.61389 -1.22806 0
M  V30 1245 C 110.958 -0.311955 -1.91678 0
M  V30 1246 O 110.233 0.686384 -1.81986 0
M  V30 1247 C 110.516 -2.79219 -2.27396 0
M  V30 1248 C 110.369 -4.19286 -1.62848 0
M  V30 1249 C 111.688 -2.92614 -3.28732 0
M  V30 1250 H 108.807 -0.587399 -0.445119 0
M  V30 1251 H 111.449 -1.82681 -0.522265 0
M  V30 1252 H 109.599 -2.61195 -2.87592 0
M  V30 1253 H 111.271 -4.48892 -1.06271 0
M  V30 1254 H 109.514 -4.23677 -0.931693 0
M  V30 1255 H 110.185 -4.97655 -2.38838 0
M  V30 1256 H 112.661 -3.09105 -2.78556 0
M  V30 1257 H 111.537 -3.76688 -3.99246 0
M  V30 1258 H 111.798 -2.03107 -3.92683 0
M  V30 1259 N 110.857 0.726932 -1.39834 0
M  V30 1260 C 112.103 1.48884 -1.377 0
M  V30 1261 C 112.436 1.94185 0.0244852 0
M  V30 1262 O 111.711 1.67361 0.990986 0
M  V30 1263 C 111.994 2.72288 -2.3565 0
M  V30 1264 C 111.847 2.32956 -3.84775 0
M  V30 1265 C 113.166 3.74414 -2.31306 0
M  V30 1266 H 110.285 0.540062 -0.5015 0
M  V30 1267 H 112.927 0.830547 -1.70886 0
M  V30 1268 H 111.077 3.28457 -2.07481 0
M  V30 1269 H 112.749 1.82356 -4.23726 0
M  V30 1270 H 110.992 1.65088 -4.01159 0
M  V30 1271 H 111.663 3.21362 -4.4881 0
M  V30 1272 H 114.139 3.27849 -2.56231 0
M  V30 1273 H 113.015 4.58414 -3.01907 0
M  V30 1274 H 113.276 4.21909 -1.32081 0
M  V30 1275 N 112.336 1.25143 0.95797 0
M  V30 1276 C 113.269 0.995565 2.05338 0
M  V30 1277 C 114.247 -0.0740423 1.62431 0
M  V30 1278 O 115.431 0.0649212 1.88388 0
M  V30 1279 C 112.558 0.504298 3.34925 0
M  V30 1280 C 111.604 1.56393 3.96792 0
M  V30 1281 S 112.437 3.14815 4.33188 0
M  V30 1282 C 113.593 2.67415 5.65898 0
M  V30 1283 H 113.826 1.92309 2.26726 0
M  V30 1284 H 111.359 1.08635 1.09716 0
M  V30 1285 H 113.317 0.227497 4.09869 0
M  V30 1286 H 111.978 -0.402671 3.11508 0
M  V30 1287 H 111.171 1.17082 4.90212 0
M  V30 1288 H 110.773 1.79124 3.28315 0
M  V30 1289 H 113.065 2.10833 6.4386 0
M  V30 1290 H 114.008 3.59463 6.10076 0
M  V30 1291 H 114.416 2.07521 5.24972 0
M  V30 1292 N 113.814 -1.1601 1.06675 0
M  V30 1293 C 114.744 -2.22688 0.702307 0
M  V30 1294 C 115.725 -1.67306 -0.307032 0
M  V30 1295 O 116.91 -1.93352 -0.181305 0
M  V30 1296 C 114.04 -3.47178 0.092038 0
M  V30 1297 C 112.994 -4.15477 1.02777 0
M  V30 1298 C 112.32 -5.33963 0.28061 0
M  V30 1299 C 113.62 -4.66019 2.35846 0
M  V30 1300 H 115.314 -2.53429 1.59419 0
M  V30 1301 H 112.86 -1.21813 0.767961 0
M  V30 1302 H 114.813 -4.21037 -0.174814 0
M  V30 1303 H 113.537 -3.15749 -0.834877 0
M  V30 1304 H 112.196 -3.43549 1.27944 0
M  V30 1305 H 111.844 -4.98788 -0.649545 0
M  V30 1306 H 111.544 -5.806 0.904258 0
M  V30 1307 H 113.068 -6.10596 0.021396 0
M  V30 1308 H 114.482 -5.3144 2.15045 0
M  V30 1309 H 112.879 -5.23293 2.93743 0
M  V30 1310 H 113.949 -3.82023 2.98641 0
M  V30 1311 N 115.292 -0.849877 -1.32721 0
M  V30 1312 C 116.532 -0.457146 -1.99222 0
M  V30 1313 C 116.896 0.968038 -1.6581 0
M  V30 1314 O 118.097 1.46507 -2.25364 0
M  V30 1315 C 116.368 -0.683966 -3.50794 0
M  V30 1316 S 117.927 -0.388095 -4.3708 0
M  V30 1317 H 114.745 -0.171464 -0.690015 0
M  V30 1318 H 117.347 -1.10155 -1.61512 0
M  V30 1319 H 116.051 -1.72038 -3.726 0
M  V30 1320 H 115.582 -0.0258086 -3.93392 0
M  V30 1321 H 117.597 0.787791 -4.89906 0
M  V30 1322 N 116.77 1.45427 -0.607355 0
M  V30 1323 C 118.018 2.01841 -0.102253 0
M  V30 1324 C 118.339 1.47832 1.27164 0
M  V30 1325 O 117.609 0.672497 1.83995 0
M  V30 1326 H 116.189 0.746188 -0.0348101 0
M  V30 1327 H 118.851 1.78229 -0.7887 0
M  V30 1328 H 117.947 3.12057 -0.0518585 0
M  V30 1329 N 118.248 0.346503 1.53744 0
M  V30 1330 C 119.494 -0.249473 2.0126 0
M  V30 1331 C 119.827 -1.49965 1.23386 0
M  V30 1332 O 119.102 -1.91811 0.32229 0
M  V30 1333 C 119.385 -0.560643 3.55709 0
M  V30 1334 C 119.238 0.701836 4.44291 0
M  V30 1335 C 120.557 -1.36905 4.18264 0
M  V30 1336 H 117.676 -0.0891987 0.731582 0
M  V30 1337 H 120.318 0.467624 1.84156 0
M  V30 1338 H 118.468 -1.17156 3.70414 0
M  V30 1339 H 120.14 1.33974 4.41417 0
M  V30 1340 H 118.383 1.32612 4.13033 0
M  V30 1341 H 119.054 0.43933 5.50249 0
M  V30 1342 H 121.53 -0.852448 4.07275 0
M  V30 1343 H 120.406 -1.55553 5.26398 0
M  V30 1344 H 120.667 -2.37203 3.73078 0
M  V30 1345 N 119.726 -1.57421 0.075193 0
M  V30 1346 C 120.636 -2.1642 -0.905511 0
M  V30 1347 C 121.652 -1.12828 -1.32461 0
M  V30 1348 O 122.828 -1.45109 -1.39661 0
M  V30 1349 C 119.893 -2.71693 -2.15369 0
M  V30 1350 C 118.954 -3.90171 -1.79068 0
M  V30 1351 C 118.187 -4.42798 -2.97936 0
M  V30 1352 O 118.41 -3.94416 -4.12058 0
M  V30 1353 O 117.344 -5.34085 -2.77555 0
M  V30 1354 H 121.17 -3.00588 -0.433626 0
M  V30 1355 H 118.755 -1.48664 -0.148067 0
M  V30 1356 H 120.637 -3.07104 -2.88557 0
M  V30 1357 H 119.312 -1.90582 -2.61649 0
M  V30 1358 H 118.219 -3.59606 -1.03122 0
M  V30 1359 H 119.552 -4.72584 -1.37569 0
M  V30 1360 N 121.204 0.198386 -1.56346 0
M  V30 1361 C 122.167 1.22952 -1.93431 0
M  V30 1362 C 123.167 1.38611 -0.815092 0
M  V30 1363 O 124.357 1.36479 -1.08255 0
M  V30 1364 C 121.489 2.59946 -2.20546 0
M  V30 1365 H 122.682 0.912626 -2.85677 0
M  V30 1366 H 120.235 0.43977 -1.49986 0
M  V30 1367 H 120.97 2.96696 -1.30927 0
M  V30 1368 H 120.755 2.49953 -3.02102 0
M  V30 1369 H 122.245 3.3431 -2.50253 0
M  V30 1370 N 122.682 1.50554 0.465978 0
M  V30 1371 C 123.931 1.61038 1.21448 0
M  V30 1372 C 124.244 0.31865 1.92987 0
M  V30 1373 O 125.45 0.302469 2.6981 0
M  V30 1374 C 123.906 2.84283 2.20706 0
M  V30 1375 C 123.514 4.20352 1.54946 0
M  V30 1376 C 125.258 3.04115 2.96166 0
M  V30 1377 C 123.165 5.34778 2.5252 0
M  V30 1378 H 122.095 0.599718 0.457005 0
M  V30 1379 H 124.746 1.7699 0.484424 0
M  V30 1380 H 123.128 2.61901 2.97025 0
M  V30 1381 H 124.302 4.53008 0.843811 0
M  V30 1382 H 122.617 4.06167 0.917475 0
M  V30 1383 H 125.214 3.86774 3.69202 0
M  V30 1384 H 125.557 2.16045 3.55852 0
M  V30 1385 H 126.09 3.26702 2.26959 0
M  V30 1386 H 122.829 6.25018 1.97566 0
M  V30 1387 H 122.349 5.06534 3.21222 0
M  V30 1388 H 124.028 5.65561 3.14245 0
M  V30 1389 N 124.16 -0.719506 1.40217 0
M  V30 1390 C 125.576 -1.02707 1.22161 0
M  V30 1391 C 125.776 -2.0128 0.0940557 0
M  V30 1392 O 124.832 -2.46452 -0.549318 0
M  V30 1393 C 126.145 -1.57454 2.56181 0
M  V30 1394 C 127.693 -1.69458 2.63159 0
M  V30 1395 C 128.168 -2.27611 3.97438 0
M  V30 1396 N 129.659 -2.35002 3.99159 0
M  V30 1397 C 130.394 -2.80972 4.99842 0
M  V30 1398 N 129.89 -3.26723 6.10921 0
M  V30 1399 N 131.683 -2.80321 4.87213 0
M  V30 1400 H 123.834 -0.0660492 2.12297 0
M  V30 1401 H 126.097 -0.0919077 0.943534 0
M  V30 1402 H 125.803 -0.924873 3.39321 0
M  V30 1403 H 125.677 -2.56036 2.76993 0
M  V30 1404 H 128.064 -2.33543 1.80393 0
M  V30 1405 H 128.145 -0.694867 2.46181 0
M  V30 1406 H 127.789 -1.6415 4.80643 0
M  V30 1407 H 127.719 -3.2829 4.11744 0
M  V30 1408 H 130.21 -2.02685 3.18947 0
M  V30 1409 H 130.523 -3.60355 6.8364 0
M  V30 1410 H 128.868 -3.24692 6.14492 0
M  V30 1411 H 132.059 -2.43912 3.9953 0
M  V30 1412 H 132.232 -3.15831 5.65822 0
M  V30 1413 N 125.638 -1.25649 -0.95132 0
M  V30 1414 C 126.548 -1.08073 -2.08224 0
M  V30 1415 C 127.564 -0.0169666 -1.73992 0
M  V30 1416 O 128.74 -0.218593 -2.0021 0
M  V30 1417 C 125.805 -0.704922 -3.39458 0
M  V30 1418 C 124.866 -1.84699 -3.87537 0
M  V30 1419 C 124.099 -1.48902 -5.12508 0
M  V30 1420 O 124.322 -0.386156 -5.69091 0
M  V30 1421 O 123.256 -2.32033 -5.55378 0
M  V30 1422 H 127.082 -2.02924 -2.25954 0
M  V30 1423 H 124.667 -1.04618 -1.06656 0
M  V30 1424 H 126.549 -0.507609 -4.18332 0
M  V30 1425 H 125.224 0.214291 -3.2299 0
M  V30 1426 H 124.131 -2.09919 -3.09653 0
M  V30 1427 H 125.464 -2.74557 -4.08509 0
M  V30 1428 N 127.117 1.15442 -1.07289 0
M  V30 1429 C 128.08 2.18358 -0.696591 0
M  V30 1430 C 129.08 1.58637 0.262837 0
M  V30 1431 O 130.27 1.74145 0.0438809 0
M  V30 1432 C 127.402 3.4089 -0.0266151 0
M  V30 1433 H 128.595 2.53162 -1.60776 0
M  V30 1434 H 126.148 1.29893 -0.869342 0
M  V30 1435 H 126.883 3.11653 0.896822 0
M  V30 1436 H 126.668 3.85495 -0.716657 0
M  V30 1437 H 128.158 4.17009 0.222028 0
M  V30 1438 N 128.595 0.856903 1.32268 0
M  V30 1439 C 129.525 0.31858 2.31316 0
M  V30 1440 C 130.506 -0.583487 1.59779 0
M  V30 1441 O 131.691 -0.503259 1.87566 0
M  V30 1442 C 128.821 -0.491979 3.43798 0
M  V30 1443 C 127.775 0.315849 4.26833 0
M  V30 1444 C 127.101 -0.619586 5.31098 0
M  V30 1445 C 128.401 1.54282 4.98993 0
M  V30 1446 H 130.095 1.14621 2.76591 0
M  V30 1447 H 127.641 0.552613 1.32974 0
M  V30 1448 H 129.594 -0.879012 4.1213 0
M  V30 1449 H 128.318 -1.35299 2.97257 0
M  V30 1450 H 126.977 0.684664 3.6015 0
M  V30 1451 H 126.625 -1.47751 4.8081 0
M  V30 1452 H 126.325 -0.0830621 5.87541 0
M  V30 1453 H 127.849 -1.00375 6.02293 0
M  V30 1454 H 129.263 1.22796 5.59995 0
M  V30 1455 H 127.66 2.01745 5.65172 0
M  V30 1456 H 128.73 2.30285 4.26728 0
M  V30 1457 N 130.073 -1.45103 0.615059 0
M  V30 1458 C 131.319 -2.02483 0.113347 0
M  V30 1459 C 131.652 -1.48146 -1.25564 0
M  V30 1460 O 130.927 -0.659104 -1.82992 0
M  V30 1461 C 131.21 -3.60005 0.0825278 0
M  V30 1462 C 131.063 -4.2466 1.48271 0
M  V30 1463 C 132.382 -4.35972 -0.601401 0
M  V30 1464 H 129.501 -0.735764 0.0426632 0
M  V30 1465 H 132.143 -1.72868 0.788461 0
M  V30 1466 H 130.293 -3.85367 -0.492378 0
M  V30 1467 H 131.965 -4.10458 2.10527 0
M  V30 1468 H 130.208 -3.82772 2.04127 0
M  V30 1469 H 130.879 -5.336 1.41332 0
M  V30 1470 H 133.355 -4.15947 -0.112666 0
M  V30 1471 H 132.231 -5.45697 -0.592097 0
M  V30 1472 H 132.492 -4.09391 -1.66887 0
M  V30 1473 N 131.551 -0.354651 -1.53558 0
M  V30 1474 C 132.828 0.294281 -1.93374 0
M  V30 1475 C 133.208 1.67313 -1.28723 0
M  V30 1476 O 132.556 2.24179 -0.442247 0
M  V30 1477 C 132.766 0.355445 -3.47185 0
M  V30 1478 C 134.114 0.601007 -4.20325 0
M  V30 1479 O 135.138 0.437106 -3.53508 0
M  V30 1480 O 133.997 0.919322 -5.38712 0
M  V30 1481 H 131.091 0.174033 -0.808481 0
M  V30 1482 H 133.637 -0.406638 -1.64756 0
M  V30 1483 H 132.409 -0.611729 -3.86489 0
M  V30 1484 H 132.032 1.1027 -3.82003 0
M  V30 1485 N 133.029 1.57378 -0.0835403 0
M  V30 1486 C 133.976 2.13384 0.879539 0
M  V30 1487 C 134.946 1.04936 1.28754 0
M  V30 1488 O 136.131 1.32662 1.37133 0
M  V30 1489 C 133.271 2.70932 2.13752 0
M  V30 1490 C 132.384 3.93575 1.7811 0
M  V30 1491 C 131.519 4.39326 2.98607 0
M  V30 1492 C 130.558 5.54587 2.59037 0
M  V30 1493 N 129.695 5.95243 3.72331 0
M  V30 1494 H 134.535 2.9537 0.395076 0
M  V30 1495 H 132.072 1.45953 0.183349 0
M  V30 1496 H 134.03 3.02411 2.87408 0
M  V30 1497 H 132.66 1.91693 2.59718 0
M  V30 1498 H 131.712 3.68483 0.94469 0
M  V30 1499 H 133.024 4.77258 1.45005 0
M  V30 1500 H 132.178 4.72528 3.80529 0
M  V30 1501 H 130.917 3.5452 3.34913 0
M  V30 1502 H 129.922 5.21024 1.75539 0
M  V30 1503 H 131.147 6.41133 2.23887 0
M  V30 1504 H 129.093 5.13385 4.08378 0
M  V30 1505 H 129.01 6.73694 3.43034 0
M  V30 1506 H 130.278 6.33072 4.54797 0
M  V30 1507 N 134.507 -0.190092 1.56449 0
M  V30 1508 C 135.47 -1.21925 1.9408 0
M  V30 1509 C 136.47 -1.38176 0.822431 0
M  V30 1510 O 137.66 -1.35903 1.08977 0
M  V30 1511 C 134.792 -2.58773 2.21922 0
M  V30 1512 H 135.985 -0.897464 2.86157 0
M  V30 1513 H 133.538 -0.43181 1.50217 0
M  V30 1514 H 134.273 -2.95998 1.32499 0
M  V30 1515 H 134.058 -2.48348 3.03424 0
M  V30 1516 H 135.548 -3.32978 2.52022 0
M  V30 1517 N 135.985 -1.50799 -0.457987 0
M  V30 1518 C 136.895 -1.73426 -1.57989 0
M  V30 1519 C 137.911 -0.617745 -1.62665 0
M  V30 1520 O 139.087 -0.897614 -1.80291 0
M  V30 1521 C 136.152 -1.83557 -2.94122 0
M  V30 1522 C 135.213 -3.07345 -2.99729 0
M  V30 1523 C 134.446 -3.16983 -4.29368 0
M  V30 1524 O 134.669 -2.33077 -5.20607 0
M  V30 1525 O 133.603 -4.09812 -4.40837 0
M  V30 1526 H 137.429 -2.68555 -1.41817 0
M  V30 1527 H 135.014 -1.35052 -0.638859 0
M  V30 1528 H 136.896 -1.92326 -3.74952 0
M  V30 1529 H 135.571 -0.916137 -3.10465 0
M  V30 1530 H 134.478 -3.04068 -2.1793 0
M  V30 1531 H 135.811 -3.9891 -2.88326 0
M  V30 1532 N 137.463 0.71206 -1.40597 0
M  V30 1533 C 138.426 1.80785 -1.40888 0
M  V30 1534 C 139.426 1.57937 -0.302103 0
M  V30 1535 O 140.616 1.64913 -0.561182 0
M  V30 1536 C 137.748 3.18927 -1.20409 0
M  V30 1537 H 138.941 1.81924 -2.38419 0
M  V30 1538 H 136.494 0.91805 -1.26497 0
M  V30 1539 H 137.229 3.23436 -0.236522 0
M  V30 1540 H 137.014 3.36911 -2.00582 0
M  V30 1541 H 138.504 3.98949 -1.23408 0
M  V30 1542 N 138.941 1.26152 0.944643 0
M  V30 1543 C 140.188 1.11492 1.69044 0
M  V30 1544 C 140.516 -0.342366 1.91463 0
M  V30 1545 O 139.771 -1.26812 1.49054 0
M  V30 1546 C 140.07 1.82541 3.07268 0
M  V30 1547 C 139.736 3.32445 3.04616 0
M  V30 1548 C 138.398 3.73337 3.036 0
M  V30 1549 C 140.75 4.28171 2.97185 0
M  V30 1550 C 138.078 5.08348 2.92915 0
M  V30 1551 C 140.43 5.63218 2.88041 0
M  V30 1552 C 139.094 6.03426 2.85366 0
M  V30 1553 H 138.364 0.407977 0.618576 0
M  V30 1554 H 141.011 1.56551 1.10291 0
M  V30 1555 H 139.316 1.29941 3.69625 0
M  V30 1556 H 141.013 1.68642 3.63815 0
M  V30 1557 H 137.603 2.99915 3.06185 0
M  V30 1558 H 141.787 3.97563 2.97081 0
M  V30 1559 H 137.043 5.38667 2.89219 0
M  V30 1560 H 141.217 6.37078 2.81254 0
M  V30 1561 H 138.844 7.07999 2.76842 0
M  V30 1562 N 140.419 -1.14872 1.07899 0
M  V30 1563 C 141.644 -1.90202 0.826926 0
M  V30 1564 C 142.069 -1.77774 -0.614664 0
M  V30 1565 O 141.427 -1.11431 -1.43013 0
M  V30 1566 C 141.475 -3.38352 1.24702 0
M  V30 1567 O 140.579 -4.10497 0.39575 0
M  V30 1568 H 139.92 -0.591968 0.300782 0
M  V30 1569 H 142.45 -1.45437 1.43907 0
M  V30 1570 H 142.46 -3.89156 1.22563 0
M  V30 1571 H 141.135 -3.46715 2.29698 0
M  V30 1572 H 139.712 -3.69796 0.480117 0
M  V30 1573 N 141.898 -0.863906 -1.31812 0
M  V30 1574 C 143.146 -0.470904 -1.96537 0
M  V30 1575 C 143.467 0.978771 -1.68657 0
M  V30 1576 O 142.737 1.6853 -0.998717 0
M  V30 1577 H 141.317 -0.171148 -0.72713 0
M  V30 1578 H 143.979 -1.10236 -1.60729 0
M  V30 1579 H 143.075 -0.623616 -3.05806 0
M  V30 1580 N 143.376 1.44774 -0.622745 0
M  V30 1581 C 144.792 1.56986 -0.287652 0
M  V30 1582 C 144.992 1.61167 1.20944 0
M  V30 1583 O 144.048 1.55015 1.99315 0
M  V30 1584 C 145.361 2.84551 -0.972188 0
M  V30 1585 C 146.909 2.9825 -0.949536 0
M  V30 1586 C 147.384 4.28605 -1.61437 0
M  V30 1587 N 148.875 4.35399 -1.58057 0
M  V30 1588 C 149.61 5.34964 -2.064 0
M  V30 1589 N 149.106 6.40981 -2.62897 0
M  V30 1590 N 150.899 5.26419 -1.97078 0
M  V30 1591 H 143.05 1.40304 -1.59463 0
M  V30 1592 H 145.313 0.671794 -0.668878 0
M  V30 1593 H 145.019 2.87417 -2.02693 0
M  V30 1594 H 144.893 3.73807 -0.504771 0
M  V30 1595 H 147.28 2.94941 0.0967067 0
M  V30 1596 H 147.361 2.10364 -1.45536 0
M  V30 1597 H 147.005 4.32672 -2.66002 0
M  V30 1598 H 146.935 5.15334 -1.08344 0
M  V30 1599 H 149.426 3.59397 -1.16801 0
M  V30 1600 H 149.739 7.13225 -2.97539 0
M  V30 1601 H 148.084 6.4169 -2.66943 0
M  V30 1602 H 151.275 4.42504 -1.52669 0
M  V30 1603 H 151.448 6.03861 -2.35066 0
M  V30 1604 N 144.854 0.36279 1.53368 0
M  V30 1605 C 146.102 -0.227326 2.00817 0
M  V30 1606 C 146.423 -1.49511 1.25186 0
M  V30 1607 O 145.693 -1.92482 0.364348 0
M  V30 1608 H 144.273 -0.0869923 0.741917 0
M  V30 1609 H 146.935 0.488381 1.88682 0
M  V30 1610 H 146.031 -0.456273 3.08747 0
M  V30 1611 N 146.332 -1.57332 0.0918853 0
M  V30 1612 C 147.279 -2.13847 -0.868211 0
M  V30 1613 C 148.249 -1.05618 -1.28196 0
M  V30 1614 O 149.434 -1.33387 -1.36427 0
M  V30 1615 C 146.574 -2.72062 -2.12312 0
M  V30 1616 C 145.687 -3.94514 -1.7602 0
M  V30 1617 C 144.822 -4.40903 -2.96273 0
M  V30 1618 C 143.861 -5.55953 -2.56092 0
M  V30 1619 N 142.998 -5.97209 -3.69169 0
M  V30 1620 H 147.838 -2.95575 -0.379406 0
M  V30 1621 H 145.375 -1.46048 -0.175606 0
M  V30 1622 H 147.333 -3.03931 -2.858 0
M  V30 1623 H 145.963 -1.93068 -2.58698 0
M  V30 1624 H 145.015 -3.68979 -0.925135 0
M  V30 1625 H 146.327 -4.7802 -1.42472 0
M  V30 1626 H 145.481 -4.74539 -3.78018 0
M  V30 1627 H 144.22 -3.56291 -3.33029 0
M  V30 1628 H 143.225 -5.21948 -1.72773 0
M  V30 1629 H 144.45 -6.42311 -2.20484 0
M  V30 1630 H 142.396 -5.15543 -4.05649 0
M  V30 1631 H 142.313 -6.75504 -3.39456 0
M  V30 1632 H 143.581 -6.35475 -4.51434 0
M  V30 1633 N 147.81 0.181792 -1.56548 0
M  V30 1634 C 149.059 0.898348 -1.8059 0
M  V30 1635 C 149.372 1.83862 -0.667379 0
M  V30 1636 O 150.578 2.59678 -0.792446 0
M  V30 1637 C 149.034 1.64791 -3.19956 0
M  V30 1638 C 148.642 0.751789 -4.41647 0
M  V30 1639 C 150.386 2.35331 -3.53298 0
M  V30 1640 C 148.293 1.50098 -5.72035 0
M  V30 1641 H 147.223 0.339194 -0.673397 0
M  V30 1642 H 149.874 0.151413 -1.82874 0
M  V30 1643 H 148.256 2.43921 -3.11959 0
M  V30 1644 H 149.43 -0.0018076 -4.608 0
M  V30 1645 H 147.745 0.156562 -4.16106 0
M  V30 1646 H 150.342 2.91958 -4.47956 0
M  V30 1647 H 150.685 3.10164 -2.77676 0
M  V30 1648 H 151.218 1.63154 -3.62803 0
M  V30 1649 H 147.957 0.795175 -6.50659 0
M  V30 1650 H 147.477 2.22817 -5.56878 0
M  V30 1651 H 149.156 2.05125 -6.13622 0
M  V30 1652 N 149.288 1.51039 0.449983 0
M  V30 1653 C 150.251 1.70863 1.5277 0
M  V30 1654 C 151.251 0.578846 1.5002 0
M  V30 1655 O 152.441 0.846213 1.52266 0
M  V30 1656 C 149.573 1.75341 2.9235 0
M  V30 1657 H 150.766 2.67034 1.36502 0
M  V30 1658 H 148.319 1.40838 0.677812 0
M  V30 1659 H 149.054 0.809383 3.14037 0
M  V30 1660 H 148.839 2.57436 2.95752 0
M  V30 1661 H 150.329 1.92559 3.70555 0
M  V30 1662 N 150.766 -0.704594 1.40972 0
M  V30 1663 C 151.699 -1.82861 1.36518 0
M  V30 1664 C 152.677 -1.6091 0.23382 0
M  V30 1665 O 153.861 -1.83778 0.419271 0
M  V30 1666 C 150.988 -3.1939 1.12729 0
M  V30 1667 C 150.034 -3.60148 2.28463 0
M  V30 1668 S 150.867 -3.65994 3.90907 0
M  V30 1669 C 152.023 -5.05264 3.69403 0
M  V30 1670 H 152.256 -1.86361 2.3164 0
M  V30 1671 H 149.789 -0.872439 1.27389 0
M  V30 1672 H 151.747 -3.98211 0.996893 0
M  V30 1673 H 150.408 -3.1351 0.192427 0
M  V30 1674 H 149.601 -4.59309 2.07489 0
M  V30 1675 H 149.203 -2.88612 2.37863 0
M  V30 1676 H 151.495 -5.92504 3.28551 0
M  V30 1677 H 152.438 -5.31278 4.68134 0
M  V30 1678 H 152.846 -4.76377 3.02862 0
M  V30 1679 N 152.244 -1.26651 -0.937939 0
M  V30 1680 C 153.49 -1.12553 -1.687 0
M  V30 1681 C 153.823 0.329782 -1.91379 0
M  V30 1682 O 153.098 1.24202 -1.4968 0
M  V30 1683 C 153.381 -1.89862 -3.05981 0
M  V30 1684 C 153.234 -3.43318 -2.90607 0
M  V30 1685 C 154.553 -1.69499 -4.0615 0
M  V30 1686 H 151.672 -0.410257 -0.612257 0
M  V30 1687 H 154.314 -1.55685 -1.08913 0
M  V30 1688 H 152.464 -1.53204 -3.57017 0
M  V30 1689 H 154.136 -3.89747 -2.46769 0
M  V30 1690 H 152.379 -3.70179 -2.26164 0
M  V30 1691 H 153.05 -3.92642 -3.8799 0
M  V30 1692 H 155.526 -2.01442 -3.64088 0
M  V30 1693 H 154.402 -2.26002 -5.00214 0
M  V30 1694 H 154.663 -0.640365 -4.37438 0
M  V30 1695 N 153.722 1.14298 -1.08507 0
M  V30 1696 C 154.999 1.81544 -0.728088 0
M  V30 1697 C 155.379 1.95838 0.78808 0
M  V30 1698 O 154.727 1.51904 1.70697 0
M  V30 1699 C 154.937 3.17169 -1.45619 0
M  V30 1700 C 156.285 3.9265 -1.61591 0
M  V30 1701 O 157.309 3.26762 -1.41793 0
M  V30 1702 O 156.168 5.10807 -1.94263 0
M  V30 1703 H 153.262 0.78491 -0.260471 0
M  V30 1704 H 155.808 1.21307 -1.18671 0
M  V30 1705 H 154.58 3.01934 -2.489 0
M  V30 1706 H 154.203 3.851 -0.989124 0
M  V30 1707 N 155.201 0.870884 1.31352 0
M  V30 1708 C 156.612 0.534714 1.78879 0
M  V30 1709 C 156.963 -0.948423 1.71754 0
M  V30 1710 O 156.088 -1.74055 1.28584 0
M  V30 1711 C 156.683 0.963839 3.24801 0
M  V30 1712 C 155.242 0.679311 3.70219 0
M  V30 1713 C 154.389 1.15465 2.52117 0
M  V30 1714 H 157.34 1.05651 1.18421 0
M  V30 1715 H 157.361 0.286892 3.79417 0
M  V30 1716 H 156.873 2.04332 3.29955 0
M  V30 1717 H 154.974 -0.388769 3.70566 0
M  V30 1718 H 155.087 1.25698 4.62317 0
M  V30 1719 H 153.451 0.574383 2.48139 0
M  V30 1720 H 154.234 2.24157 2.60016 0
M  V30 1721 N 156.679 -1.44442 0.630414 0
M  V30 1722 C 157.926 -2.02052 0.134617 0
M  V30 1723 C 158.254 -1.49576 -1.24327 0
M  V30 1724 O 157.509 -0.669806 -1.83881 0
M  V30 1725 C 157.808 -3.57332 0.0697835 0
M  V30 1726 C 157.474 -4.29058 1.38635 0
M  V30 1727 C 156.136 -4.4837 1.74694 0
M  V30 1728 C 158.488 -4.69872 2.25543 0
M  V30 1729 C 155.816 -5.05756 2.97369 0
M  V30 1730 C 158.168 -5.28616 3.47487 0
M  V30 1731 C 156.832 -5.46147 3.8377 0
M  V30 1732 H 156.102 -0.739361 0.0492598 0
M  V30 1733 H 158.749 -1.73217 0.816586 0
M  V30 1734 H 157.054 -3.85577 -0.695553 0
M  V30 1735 H 158.751 -3.99637 -0.330344 0
M  V30 1736 H 155.341 -4.14357 1.09574 0
M  V30 1737 H 159.525 -4.54666 1.98979 0
M  V30 1738 H 154.781 -5.17515 3.25558 0
M  V30 1739 H 158.955 -5.59192 4.15063 0
M  V30 1740 H 156.582 -5.9038 4.7891 0
M  V30 1741 N 158.157 -0.370918 -1.53173 0
M  V30 1742 C 159.404 0.217102 -2.01333 0
M  V30 1743 C 159.732 1.48338 -1.25802 0
M  V30 1744 O 158.987 1.92698 -0.34146 0
M  V30 1745 C 159.286 0.549696 -3.53147 0
M  V30 1746 C 158.952 -0.622872 -4.46577 0
M  V30 1747 C 157.614 -0.944595 -4.71838 0
M  V30 1748 C 159.966 -1.40819 -5.01816 0
M  V30 1749 C 157.294 -2.05351 -5.49589 0
M  V30 1750 C 159.646 -2.50757 -5.80778 0
M  V30 1751 C 158.31 -2.83458 -6.04324 0
M  V30 1752 H 157.58 0.0794431 -0.736729 0
M  V30 1753 H 160.227 -0.504481 -1.84736 0
M  V30 1754 H 158.532 1.35237 -3.6772 0
M  V30 1755 H 160.229 1.017 -3.87889 0
M  V30 1756 H 156.819 -0.36209 -4.27068 0
M  V30 1757 H 161.003 -1.17289 -4.82242 0
M  V30 1758 H 156.259 -2.3108 -5.6605 0
M  V30 1759 H 160.433 -3.12022 -6.22588 0
M  V30 1760 H 158.06 -3.69508 -6.64355 0
M  V30 1761 N 159.635 1.57281 -0.100228 0
M  V30 1762 C 161.051 1.57527 0.256416 0
M  V30 1763 C 161.251 1.11173 1.68056 0
M  V30 1764 O 160.307 0.79053 2.39806 0
M  V30 1765 C 161.62 3.00673 0.0401747 0
M  V30 1766 C 163.168 3.12815 0.107528 0
M  V30 1767 C 163.643 4.57929 -0.0807834 0
M  V30 1768 N 165.134 4.63193 -0.0261207 0
M  V30 1769 C 165.869 5.73212 -0.146999 0
M  V30 1770 N 165.365 6.92047 -0.322999 0
M  V30 1771 N 167.158 5.62031 -0.0879044 0
M  V30 1772 H 159.309 1.85718 -1.03065 0
M  V30 1773 H 161.572 0.857446 -0.404339 0
M  V30 1774 H 161.278 3.38804 -0.943649 0
M  V30 1775 H 161.152 3.69042 0.780262 0
M  V30 1776 H 163.539 2.74554 1.08186 0
M  V30 1777 H 163.62 2.47028 -0.664134 0
M  V30 1778 H 163.264 4.96886 -1.05201 0
M  V30 1779 H 163.194 5.21783 0.710635 0
M  V30 1780 H 165.685 3.77748 0.107161 0
M  V30 1781 H 165.998 7.7173 -0.406608 0
M  V30 1782 H 164.343 6.94074 -0.358733 0
M  V30 1783 H 167.534 4.68075 0.048498 0
M  V30 1784 H 167.707 6.47734 -0.185557 0
M  V30 1785 N 161.113 -0.173488 1.56642 0
M  V30 1786 C 162.361 -0.888706 1.81512 0
M  V30 1787 C 162.682 -1.82875 0.676872 0
M  V30 1788 O 161.952 -1.93536 -0.303414 0
M  V30 1789 H 160.532 -0.331164 0.669582 0
M  V30 1790 H 163.194 -0.173823 1.94123 0
M  V30 1791 H 162.29 -1.46691 2.75478 0
M  V30 1792 N 162.591 -1.51276 -0.441967 0
M  V30 1793 C 163.821 -1.67273 -1.21257 0
M  V30 1794 C 164.229 -0.367624 -1.85594 0
M  V30 1795 O 163.572 0.663349 -1.71305 0
M  V30 1796 C 163.634 -2.72807 -2.34129 0
M  V30 1797 C 163.298 -4.1554 -1.90198 0
M  V30 1798 C 164.295 -5.00471 -1.40801 0
M  V30 1799 C 161.98 -4.61616 -1.9803 0
M  V30 1800 C 163.974 -6.29536 -0.998174 0
M  V30 1801 C 161.661 -5.90679 -1.56658 0
M  V30 1802 C 162.659 -6.74466 -1.07633 0
M  V30 1803 O 162.347 -8.01116 -0.668459 0
M  V30 1804 H 162.079 -0.564614 -0.371734 0
M  V30 1805 H 164.633 -1.9843 -0.530521 0
M  V30 1806 H 162.863 -2.36954 -3.05597 0
M  V30 1807 H 164.552 -2.77729 -2.96009 0
M  V30 1808 H 165.318 -4.66079 -1.34148 0
M  V30 1809 H 161.197 -3.96526 -2.35135 0
M  V30 1810 H 164.741 -6.94885 -0.61482 0
M  V30 1811 H 160.638 -6.24586 -1.62979 0
M  V30 1812 H 161.406 -8.14633 -0.794722 0
M  V30 1813 N 164.069 0.697108 -1.41344 0
M  V30 1814 C 165.317 1.45426 -1.40341 0
M  V30 1815 C 165.638 1.94996 -0.0128787 0
M  V30 1816 O 164.908 1.71599 0.945027 0
M  V30 1817 H 163.488 0.539594 -0.516573 0
M  V30 1818 H 166.15 0.825201 -1.76569 0
M  V30 1819 H 165.246 2.31817 -2.08967 0
M  V30 1820 N 165.547 1.27147 0.931209 0
M  V30 1821 C 166.793 1.13446 1.68101 0
M  V30 1822 C 167.126 -0.319628 1.91552 0
M  V30 1823 O 166.401 -1.23407 1.50336 0
M  V30 1824 C 166.684 1.91482 3.0497 0
M  V30 1825 C 166.537 3.44855 2.88782 0
M  V30 1826 C 167.856 1.71651 4.05246 0
M  V30 1827 H 164.975 0.413498 0.610072 0
M  V30 1828 H 167.617 1.56261 1.08086 0
M  V30 1829 H 165.767 1.55095 3.56199 0
M  V30 1830 H 167.439 3.9105 2.44698 0
M  V30 1831 H 165.682 3.71373 2.24198 0
M  V30 1832 H 166.353 3.94694 3.85902 0
M  V30 1833 H 168.829 2.0337 3.63015 0
M  V30 1834 H 167.705 2.28651 4.99009 0
M  V30 1835 H 167.966 0.663555 4.37092 0
M  V30 1836 N 167.025 -1.13721 1.09112 0
M  V30 1837 C 168.274 -1.84275 0.82009 0
M  V30 1838 C 168.587 -1.84253 -0.656509 0
M  V30 1839 O 169.793 -2.50668 -1.04296 0
M  V30 1840 C 168.249 -3.30825 1.41714 0
M  V30 1841 C 167.857 -3.39244 2.92605 0
M  V30 1842 C 169.601 -4.06443 1.22492 0
M  V30 1843 C 167.508 -4.80047 3.45411 0
M  V30 1844 H 166.438 -0.690387 0.30312 0
M  V30 1845 H 169.089 -1.28146 1.31343 0
M  V30 1846 H 167.471 -3.86737 0.851498 0
M  V30 1847 H 168.645 -2.93344 3.55367 0
M  V30 1848 H 166.96 -2.77088 3.10823 0
M  V30 1849 H 169.557 -5.10387 1.59402 0
M  V30 1850 H 169.9 -4.15972 0.165299 0
M  V30 1851 H 170.433 -3.56852 1.75788 0
M  V30 1852 H 167.172 -4.75709 4.50978 0
M  V30 1853 H 166.692 -5.26455 2.87411 0
M  V30 1854 H 168.371 -5.48957 3.42425 0
M  V30 1855 N 168.503 -0.877838 -1.30888 0
M  V30 1856 C 169.75 -0.492696 -1.96415 0
M  V30 1857 C 170.078 0.956671 -1.69346 0
M  V30 1858 O 169.333 1.68993 -0.986913 0
M  V30 1859 C 169.632 -0.705748 -3.50363 0
M  V30 1860 C 169.298 -2.1291 -3.97467 0
M  V30 1861 C 167.96 -2.51834 -4.1004 0
M  V30 1862 C 170.312 -3.05702 -4.22132 0
M  V30 1863 C 167.64 -3.82775 -4.44635 0
M  V30 1864 C 169.992 -4.36166 -4.58194 0
M  V30 1865 C 168.656 -4.74993 -4.68975 0
M  V30 1866 H 167.926 -0.18029 -0.718733 0
M  V30 1867 H 170.573 -1.11233 -1.55883 0
M  V30 1868 H 168.878 -0.00303058 -3.918 0
M  V30 1869 H 170.575 -0.387456 -3.99124 0
M  V30 1870 H 167.165 -1.81694 -3.88182 0
M  V30 1871 H 171.349 -2.76853 -4.11906 0
M  V30 1872 H 166.605 -4.12609 -4.51181 0
M  V30 1873 H 170.779 -5.08111 -4.76231 0
M  V30 1874 H 168.406 -5.76495 -4.95537 0
M  V30 1875 N 169.982 1.44106 -0.638065 0
M  V30 1876 C 170.945 2.29138 0.0531013 0
M  V30 1877 C 171.945 1.41409 0.765506 0
M  V30 1878 O 173.135 1.63206 0.609046 0
M  V30 1879 C 170.267 3.23144 1.08584 0
M  V30 1880 H 171.46 2.91739 -0.694883 0
M  V30 1881 H 169.013 1.51134 -0.398538 0
M  V30 1882 H 169.748 2.65408 1.86357 0
M  V30 1883 H 169.533 3.87804 0.578852 0
M  V30 1884 H 171.023 3.87004 1.56899 0
M  V30 1885 N 171.46 0.379036 1.52974 0
M  V30 1886 C 172.408 -0.476033 2.27677 0
M  V30 1887 C 173.402 -1.0719 1.31174 0
M  V30 1888 O 174.608 -1.01355 1.48752 0
M  V30 1889 H 170.983 -0.172255 0.732006 0
M  V30 1890 H 172.954 0.175615 2.97883 0
M  V30 1891 C 171.703 -1.5967 3.0887 0
M  V30 1892 H 171.026 -1.1475 3.82978 0
M  V30 1893 H 172.466 -2.16943 3.64296 0
M  V30 1894 C 170.925 -2.54682 2.20542 0
M  V30 1895 O 171.455 -3.57836 1.82527 0
M  V30 1896 N 169.661 -2.24183 1.84907 0
M  V30 1897 H 169.208 -1.40333 2.1602 0
M  V30 1898 H 169.166 -2.88006 1.26096 0
M  V30 1899 N 172.938 -1.57226 0.108567 0
M  V30 1900 C 174.186 -1.94448 -0.550853 0
M  V30 1901 C 174.507 -0.992074 -1.67878 0
M  V30 1902 O 173.777 -0.0465 -1.95845 0
M  V30 1903 H 172.357 -0.717897 -0.206479 0
M  V30 1904 H 175.019 -1.94112 0.175062 0
M  V30 1905 H 174.115 -2.97218 -0.952259 0
M  V30 1906 N 174.416 0.165178 -1.56732 0
M  V30 1907 C 175.364 1.22369 -1.97809 0
M  V30 1908 C 176.358 1.45488 -0.867741 0
M  V30 1909 O 177.564 1.45995 -1.05288 0
M  V30 1910 H 173.939 0.411486 -0.629431 0
M  V30 1911 H 175.91 0.850425 -2.86025 0
M  V30 1912 C 174.659 2.55403 -2.35934 0
M  V30 1913 H 173.982 2.38438 -3.20916 0
M  V30 1914 H 175.422 3.2814 -2.68514 0
M  V30 1915 C 173.881 3.14611 -1.20506 0
M  V30 1916 O 174.411 3.98626 -0.496016 0
M  V30 1917 N 172.617 2.7379 -0.97403 0
M  V30 1918 H 172.164 2.0557 -1.55238 0
M  V30 1919 H 172.122 3.1374 -0.203573 0
M  V30 1920 N 175.894 1.51508 0.433938 0
M  V30 1921 C 177.31 1.39759 0.770682 0
M  V30 1922 C 177.51 0.482594 1.95636 0
M  V30 1923 O 176.566 -0.0609691 2.52426 0
M  V30 1924 C 177.879 2.81851 1.04787 0
M  V30 1925 C 179.427 2.91025 1.1521 0
M  V30 1926 C 179.902 4.34032 1.46219 0
M  V30 1927 N 181.393 4.37154 1.53136 0
M  V30 1928 C 182.128 5.4484 1.78709 0
M  V30 1929 N 181.624 6.62682 2.02051 0
M  V30 1930 N 183.417 5.32324 1.80519 0
M  V30 1931 H 175.568 2.09548 -0.346892 0
M  V30 1932 H 177.831 0.943446 -0.0928074 0
M  V30 1933 H 177.537 3.50815 0.249304 0
M  V30 1934 H 177.411 3.21386 1.97461 0
M  V30 1935 H 179.798 2.22257 1.94128 0
M  V30 1936 H 179.879 2.54983 0.204281 0
M  V30 1937 H 179.523 5.03351 0.678274 0
M  V30 1938 H 179.453 4.6759 2.42212 0
M  V30 1939 H 181.944 3.52197 1.36987 0
M  V30 1940 H 182.257 7.40543 2.20943 0
M  V30 1941 H 180.602 6.65791 1.99366 0
M  V30 1942 H 183.793 4.39246 1.61805 0
M  V30 1943 H 183.966 6.16328 2.00111 0
M  V30 1944 N 177.372 -0.689602 1.41712 0
M  V30 1945 C 178.618 -1.45041 1.42599 0
M  V30 1946 C 178.973 -1.92366 0.0363764 0
M  V30 1947 O 178.266 -1.67022 -0.938844 0
M  V30 1948 C 178.46 -2.67298 2.37247 0
M  V30 1949 C 178.289 -2.31935 3.85274 0
M  V30 1950 C 177.059 -2.2201 4.53916 0
M  V30 1951 C 179.257 -1.94526 4.76093 0
M  V30 1952 N 177.239 -1.79594 5.87043 0
M  V30 1953 C 178.61 -1.62915 5.98213 0
M  V30 1954 C 180.665 -1.81388 4.63684 0
M  V30 1955 C 179.368 -1.19486 7.09306 0
M  V30 1956 C 181.394 -1.39364 5.74745 0
M  V30 1957 C 180.756 -1.08668 6.95967 0
M  V30 1958 H 176.855 -0.527806 0.577014 0
M  V30 1959 H 179.439 -0.797266 1.77628 0
M  V30 1960 H 177.61 -3.30325 2.04304 0
M  V30 1961 H 179.342 -3.33806 2.28814 0
M  V30 1962 H 176.097 -2.406 4.07932 0
M  V30 1963 H 176.521 -1.60851 6.57614 0
M  V30 1964 H 181.163 -2.03772 3.70455 0
M  V30 1965 H 178.881 -0.958477 8.02396 0
M  V30 1966 H 182.467 -1.2974 5.6715 0
M  V30 1967 H 181.347 -0.766417 7.80446 0
M  V30 1968 N 178.85 -1.27639 -0.924453 0
M  V30 1969 C 179.797 -1.10644 -2.0255 0
M  V30 1970 C 180.767 -0.00658438 -1.66099 0
M  V30 1971 O 181.952 -0.16952 -1.90045 0
M  V30 1972 C 179.092 -0.76309 -3.36557 0
M  V30 1973 C 178.205 -1.94091 -3.85944 0
M  V30 1974 C 177.34 -1.53914 -5.08413 0
M  V30 1975 C 176.379 -2.68425 -5.50104 0
M  V30 1976 N 175.516 -2.28815 -6.63768 0
M  V30 1977 H 180.356 -2.04858 -2.16419 0
M  V30 1978 H 177.893 -1.01974 -1.06017 0
M  V30 1979 H 179.851 -0.544822 -4.13627 0
M  V30 1980 H 178.481 0.142102 -3.22487 0
M  V30 1981 H 177.533 -2.27162 -3.05125 0
M  V30 1982 H 178.845 -2.7998 -4.12811 0
M  V30 1983 H 177.999 -1.28231 -5.92994 0
M  V30 1984 H 176.738 -0.651391 -4.8333 0
M  V30 1985 H 175.743 -2.94819 -4.64071 0
M  V30 1986 H 176.968 -3.57826 -5.7718 0
M  V30 1987 H 174.914 -1.42495 -6.40337 0
M  V30 1988 H 174.831 -3.08242 -6.90306 0
M  V30 1989 H 176.099 -2.06387 -7.51681 0
M  V30 1990 N 180.328 1.1314 -1.09713 0
M  V30 1991 C 181.574 1.84757 -0.836224 0
M  V30 1992 C 181.907 1.8347 0.636598 0
M  V30 1993 O 181.182 1.27491 1.46889 0
M  V30 1994 C 181.465 3.32782 -1.37578 0
M  V30 1995 C 181.318 3.42567 -2.91493 0
M  V30 1996 C 182.637 4.28307 -1.01198 0
M  V30 1997 H 179.756 0.67082 -0.305236 0
M  V30 1998 H 182.398 1.3278 -1.35903 0
M  V30 1999 H 180.548 3.77177 -0.931097 0
M  V30 2000 H 182.22 3.06862 -3.44432 0
M  V30 2001 H 180.463 2.83349 -3.28475 0
M  V30 2002 H 181.134 4.46674 -3.24324 0
M  V30 2003 H 183.61 3.91999 -1.39556 0
M  V30 2004 H 182.486 5.30307 -1.41653 0
M  V30 2005 H 182.747 4.42029 0.0794833 0
M  V30 2006 N 181.806 0.884767 1.30421 0
M  V30 2007 C 182.736 0.367574 2.30589 0
M  V30 2008 C 183.717 -0.549464 1.60981 0
M  V30 2009 O 184.902 -0.46336 1.88591 0
M  V30 2010 C 182.032 -0.418944 3.44764 0
M  V30 2011 C 180.986 0.406316 4.26067 0
M  V30 2012 C 180.312 -0.506793 5.32293 0
M  V30 2013 C 181.612 1.64832 4.95608 0
M  V30 2014 H 183.306 1.20462 2.74097 0
M  V30 2015 H 180.852 0.580695 1.31772 0
M  V30 2016 H 182.805 -0.791395 4.13902 0
M  V30 2017 H 181.529 -1.28964 3.0006 0
M  V30 2018 H 180.188 0.760903 3.58617 0
M  V30 2019 H 179.836 -1.37519 4.83836 0
M  V30 2020 H 179.536 0.0415828 5.87585 0
M  V30 2021 H 181.06 -0.875764 6.04287 0
M  V30 2022 H 182.474 1.34646 5.57264 0
M  V30 2023 H 180.871 2.13688 5.60765 0
M  V30 2024 H 181.941 2.39284 4.21748 0
M  V30 2025 N 183.284 -1.43765 0.645699 0
M  V30 2026 C 184.7 -1.56509 0.312591 0
M  V30 2027 C 184.9 -1.6307 -1.18365 0
M  V30 2028 O 183.956 -1.58167 -1.96824 0
M  V30 2029 C 185.269 -2.82968 1.01733 0
M  V30 2030 C 186.817 -2.96701 0.996865 0
M  V30 2031 C 187.292 -4.25982 1.68236 0
M  V30 2032 N 188.783 -4.32829 1.64964 0
M  V30 2033 C 189.518 -5.31613 2.14885 0
M  V30 2034 N 189.014 -6.36718 2.73061 0
M  V30 2035 N 190.807 -5.23217 2.05428 0
M  V30 2036 H 182.958 -1.3775 1.61675 0
M  V30 2037 H 185.221 -0.661067 0.679481 0
M  V30 2038 H 184.927 -2.84156 2.0724 0
M  V30 2039 H 184.801 -3.72957 0.564177 0
M  V30 2040 H 187.188 -2.95058 -0.0497719 0
M  V30 2041 H 187.269 -2.08022 1.48865 0
M  V30 2042 H 186.913 -4.28386 2.72852 0
M  V30 2043 H 186.843 -5.13545 1.16529 0
M  V30 2044 H 189.334 -3.57493 1.22503 0
M  V30 2045 H 189.647 -7.08401 3.08848 0
M  V30 2046 H 187.992 -6.37362 2.77118 0
M  V30 2047 H 191.183 -4.40019 1.59689 0
M  V30 2048 H 191.356 -6.00045 2.44643 0
M  V30 2049 N 184.763 -0.387143 -1.52771 0
M  V30 2050 C 186.179 -0.037007 -1.59557 0
M  V30 2051 C 186.379 1.44801 -1.40124 0
M  V30 2052 O 185.435 2.21227 -1.21716 0
M  V30 2053 C 186.748 -0.512256 -2.96305 0
M  V30 2054 C 188.296 -0.468328 -3.09476 0
M  V30 2055 C 188.771 -0.919731 -4.4867 0
M  V30 2056 N 190.262 -0.875656 -4.54848 0
M  V30 2057 C 190.997 -1.19637 -5.6078 0
M  V30 2058 N 190.493 -1.58745 -6.74368 0
M  V30 2059 N 192.286 -1.11776 -5.50874 0
M  V30 2060 H 184.437 -1.35395 -1.63652 0
M  V30 2061 H 186.7 -0.554818 -0.768688 0
M  V30 2062 H 186.406 -1.54935 -3.15734 0
M  V30 2063 H 186.28 0.089805 -3.77093 0
M  V30 2064 H 188.667 0.559671 -2.89744 0
M  V30 2065 H 188.748 -1.10616 -2.30646 0
M  V30 2066 H 188.392 -1.94595 -4.69143 0
M  V30 2067 H 188.322 -0.258927 -5.25963 0
M  V30 2068 H 190.813 -0.587843 -3.733 0
M  V30 2069 H 191.126 -1.81586 -7.51163 0
M  V30 2070 H 189.471 -1.6263 -6.75705 0
M  V30 2071 H 192.662 -0.811264 -4.61016 0
M  V30 2072 H 192.835 -1.37103 -6.3333 0
M  V30 2073 N 186.241 1.57166 -0.116904 0
M  V30 2074 C 187.488 1.95123 0.541603 0
M  V30 2075 C 187.816 1.00006 1.6682 0
M  V30 2076 O 187.071 0.0235658 1.95686 0
M  V30 2077 C 187.37 3.39508 1.11664 0
M  V30 2078 C 187.036 4.50762 0.111606 0
M  V30 2079 C 185.698 4.80918 -0.164758 0
M  V30 2080 C 188.05 5.18036 -0.573438 0
M  V30 2081 C 185.378 5.75666 -1.13249 0
M  V30 2082 C 187.73 6.13824 -1.52978 0
M  V30 2083 C 186.394 6.42374 -1.81415 0
M  V30 2084 H 185.664 0.714005 0.198187 0
M  V30 2085 H 188.311 1.9048 -0.197365 0
M  V30 2086 H 186.616 3.40835 1.93232 0
M  V30 2087 H 188.313 3.66189 1.63422 0
M  V30 2088 H 184.903 4.27272 0.337192 0
M  V30 2089 H 189.087 4.94896 -0.373092 0
M  V30 2090 H 184.343 5.96092 -1.35958 0
M  V30 2091 H 188.517 6.65039 -2.06629 0
M  V30 2092 H 186.144 7.15599 -2.56557 0
M  V30 2093 N 187.719 -0.156864 1.56817 0
M  V30 2094 C 188.944 -0.890331 1.87318 0
M  V30 2095 C 189.369 -1.74394 0.704855 0
M  V30 2096 O 188.727 -1.77972 -0.345786 0
M  V30 2097 C 188.775 -1.73102 3.16336 0
M  V30 2098 O 187.879 -2.83422 2.99576 0
M  V30 2099 H 187.22 -0.24857 0.615718 0
M  V30 2100 H 189.75 -0.150649 2.04045 0
M  V30 2101 H 189.76 -2.12803 3.48107 0
M  V30 2102 H 188.435 -1.10412 4.00976 0
M  V30 2103 H 187.012 -2.47199 2.7919 0
M  V30 2104 N 189.197 -1.51736 -0.425897 0
M  V30 2105 C 190.443 -1.65214 -1.1761 0
M  V30 2106 C 190.776 -0.372778 -1.90589 0
M  V30 2107 O 190.051 0.628139 -1.84078 0
M  V30 2108 C 190.334 -2.86312 -2.18398 0
M  V30 2109 C 190.187 -4.24254 -1.49426 0
M  V30 2110 C 191.506 -3.02925 -3.19256 0
M  V30 2111 H 188.625 -0.601263 -0.426206 0
M  V30 2112 H 191.267 -1.8425 -0.463882 0
M  V30 2113 H 189.417 -2.70213 -2.79137 0
M  V30 2114 H 191.089 -4.52046 -0.919362 0
M  V30 2115 H 189.332 -4.26426 -0.796432 0
M  V30 2116 H 190.003 -5.05001 -2.22885 0
M  V30 2117 H 192.479 -3.1781 -2.68581 0
M  V30 2118 H 191.355 -3.89199 -3.8706 0
M  V30 2119 H 191.616 -2.15497 -3.86023 0
M  V30 2120 N 190.675 0.682077 -1.42076 0
M  V30 2121 C 191.903 1.47057 -1.4554 0
M  V30 2122 C 192.318 1.8869 -0.0645779 0
M  V30 2123 O 191.675 1.57666 0.919115 0
M  V30 2124 C 191.726 2.72442 -2.37609 0
M  V30 2125 O 191.447 2.32559 -3.71279 0
M  V30 2126 C 192.948 3.66069 -2.50017 0
M  V30 2127 H 190.168 0.452737 -0.495248 0
M  V30 2128 H 192.712 0.838695 -1.8651 0
M  V30 2129 H 190.867 3.31835 -1.9991 0
M  V30 2130 H 191.281 3.13475 -4.20516 0
M  V30 2131 H 192.755 4.50792 -3.18576 0
M  V30 2132 H 193.232 4.11476 -1.53572 0
M  V30 2133 H 193.838 3.12572 -2.88407 0
M  V30 2134 N 192.153 1.28127 0.917671 0
M  V30 2135 C 193.381 1.17892 1.70026 0
M  V30 2136 C 193.796 -0.262958 1.8696 0
M  V30 2137 O 193.153 -1.17811 1.3938 0
M  V30 2138 C 193.204 1.86872 3.09453 0
M  V30 2139 O 192.925 3.25428 2.93306 0
M  V30 2140 C 194.426 1.8289 4.03815 0
M  V30 2141 H 191.646 0.40942 0.531617 0
M  V30 2142 H 194.19 1.69181 1.14883 0
M  V30 2143 H 192.345 1.39464 3.61426 0
M  V30 2144 H 192.759 3.59918 3.81523 0
M  V30 2145 H 194.233 2.35751 4.99125 0
M  V30 2146 H 194.71 0.800412 4.31845 0
M  V30 2147 H 195.316 2.29959 3.57769 0
M  V30 2148 N 193.631 -1.12557 1.10312 0
M  V30 2149 C 194.564 -2.1737 0.694674 0
M  V30 2150 C 195.542 -1.59745 -0.303373 0
M  V30 2151 O 196.726 -1.87408 -0.202578 0
M  V30 2152 C 193.853 -3.38691 0.0248052 0
M  V30 2153 C 192.899 -4.14943 0.986121 0
M  V30 2154 S 193.732 -4.73413 2.50281 0
M  V30 2155 C 194.888 -5.9807 1.84562 0
M  V30 2156 H 195.121 -2.5168 1.58255 0
M  V30 2157 H 192.654 -1.23998 0.919992 0
M  V30 2158 H 194.612 -4.08959 -0.355361 0
M  V30 2159 H 193.273 -3.02664 -0.839851 0
M  V30 2160 H 192.466 -5.01854 0.464651 0
M  V30 2161 H 192.068 -3.50377 1.30813 0
M  V30 2162 H 194.36 -6.67232 1.17507 0
M  V30 2163 H 195.303 -6.54841 2.69423 0
M  V30 2164 H 195.711 -5.49073 1.31069 0
M  V30 2165 N 195.109 -0.891671 -1.2995 0
M  V30 2166 C 196.525 -0.58662 -1.48428 0
M  V30 2167 C 196.725 0.873951 -1.81561 0
M  V30 2168 O 195.781 1.65471 -1.90724 0
M  V30 2169 C 197.094 -1.50553 -2.60296 0
M  V30 2170 C 198.642 -1.50988 -2.74175 0
M  V30 2171 C 199.117 -2.41488 -3.89163 0
M  V30 2172 N 200.608 -2.39489 -3.96483 0
M  V30 2173 C 201.343 -3.06223 -4.84784 0
M  V30 2174 N 200.839 -3.82206 -5.77833 0
M  V30 2175 N 202.632 -2.95421 -4.78208 0
M  V30 2176 H 194.783 -1.83644 -1.06718 0
M  V30 2177 H 197.046 -0.786455 -0.529332 0
M  V30 2178 H 196.752 -2.54581 -2.42654 0
M  V30 2179 H 196.626 -1.22008 -3.56923 0
M  V30 2180 H 199.013 -0.47708 -2.91218 0
M  V30 2181 H 199.094 -1.83567 -1.78148 0
M  V30 2182 H 198.738 -3.44857 -3.72876 0
M  V30 2183 H 198.668 -2.06222 -4.84541 0
M  V30 2184 H 201.159 -1.84278 -3.29924 0
M  V30 2185 H 201.472 -4.302 -6.41988 0
M  V30 2186 H 199.817 -3.86313 -5.77743 0
M  V30 2187 H 203.008 -2.35581 -4.04499 0
M  V30 2188 H 203.181 -3.47704 -5.46814 0
M  V30 2189 N 196.587 1.43421 -0.653314 0
M  V30 2190 C 197.864 1.95361 -0.0966581 0
M  V30 2191 C 198.244 1.59461 1.38331 0
M  V30 2192 O 197.592 0.879777 2.10884 0
M  V30 2193 C 197.802 3.47311 -0.342988 0
M  V30 2194 C 199.15 4.23875 -0.24798 0
M  V30 2195 O 200.174 3.55133 -0.275553 0
M  V30 2196 O 199.033 5.4623 -0.171771 0
M  V30 2197 H 196.127 0.826945 0.00956291 0
M  V30 2198 H 198.673 1.5336 -0.726558 0
M  V30 2199 H 197.445 3.66569 -1.36906 0
M  V30 2200 H 197.068 3.9631 0.319975 0
M  V30 2201 N 198.065 0.39524 1.52563 0
M  V30 2202 C 199.312 -0.185044 2.01653 0
M  V30 2203 C 199.64 -1.46317 1.28146 0
M  V30 2204 O 198.895 -1.9213 0.372074 0
M  V30 2205 C 199.194 -0.493444 3.53977 0
M  V30 2206 C 198.86 0.69384 4.4553 0
M  V30 2207 C 197.522 1.01954 4.70275 0
M  V30 2208 C 199.874 1.48785 4.99512 0
M  V30 2209 C 197.202 2.14069 5.46252 0
M  V30 2210 C 199.554 2.59965 5.76716 0
M  V30 2211 C 198.218 2.93037 5.99738 0
M  V30 2212 H 197.488 -0.0677123 0.7379 0
M  V30 2213 H 200.135 0.533807 1.8391 0
M  V30 2214 H 198.44 -1.29369 3.69825 0
M  V30 2215 H 200.137 -0.955163 3.89458 0
M  V30 2216 H 196.727 0.429987 4.26438 0
M  V30 2217 H 200.911 1.24946 4.80315 0
M  V30 2218 H 196.167 2.40056 5.62302 0
M  V30 2219 H 200.341 3.21887 6.17545 0
M  V30 2220 H 197.968 3.8003 6.58393 0
M  V30 2221 N 199.544 -1.57102 0.125237 0
M  V30 2222 C 200.792 -1.95021 -0.530198 0
M  V30 2223 C 201.113 -1.00982 -1.66816 0
M  V30 2224 O 200.383 -0.0672693 -1.95784 0
M  V30 2225 H 198.963 -0.720046 -0.198853 0
M  V30 2226 H 201.625 -1.93916 0.19564 0
M  V30 2227 H 200.721 -2.98211 -0.920681 0
M  V30 2228 N 201.022 0.148545 -1.56898 0
M  V30 2229 C 201.955 1.21293 -1.93296 0
M  V30 2230 C 202.933 1.41637 -0.798599 0
M  V30 2231 O 204.117 1.56275 -1.05406 0
M  V30 2232 C 201.244 2.5721 -2.20365 0
M  V30 2233 C 200.29 2.53469 -3.4301 0
M  V30 2234 S 201.123 2.00315 -4.96623 0
M  V30 2235 C 202.279 3.37964 -5.26812 0
M  V30 2236 H 202.512 0.902393 -2.83274 0
M  V30 2237 H 200.045 0.354094 -1.50285 0
M  V30 2238 H 202.003 3.35427 -2.36641 0
M  V30 2239 H 200.664 2.85454 -1.31054 0
M  V30 2240 H 199.857 3.53518 -3.59223 0
M  V30 2241 H 199.459 1.83359 -3.25968 0
M  V30 2242 H 201.751 4.34066 -5.20185 0
M  V30 2243 H 202.694 3.26606 -6.28279 0
M  V30 2244 H 203.102 3.35028 -4.54331 0
M  V30 2245 N 202.5 1.5196 0.417844 0
M  V30 2246 C 203.748 1.65263 1.16329 0
M  V30 2247 C 204.069 0.380634 1.91249 0
M  V30 2248 O 203.339 -0.604214 1.86349 0
M  V30 2249 H 201.919 0.60912 0.432414 0
M  V30 2250 H 204.581 1.88969 0.477162 0
M  V30 2251 H 203.677 2.4896 1.88217 0
M  V30 2252 N 203.978 -0.674533 1.42435 0
M  V30 2253 C 204.925 -1.78807 1.45934 0
M  V30 2254 C 205.895 -1.63157 0.311271 0
M  V30 2255 O 207.08 -1.83707 0.515383 0
M  V30 2256 C 204.22 -3.16839 1.36773 0
M  V30 2257 C 203.333 -3.43774 2.61617 0
M  V30 2258 C 202.468 -4.71536 2.44597 0
M  V30 2259 C 201.507 -4.91505 3.64814 0
M  V30 2260 N 200.644 -6.10508 3.46734 0
M  V30 2261 H 205.484 -1.75151 2.41093 0
M  V30 2262 H 203.021 -0.85504 1.19697 0
M  V30 2263 H 204.979 -3.96606 1.29459 0
M  V30 2264 H 203.609 -3.19619 0.452089 0
M  V30 2265 H 202.661 -2.58259 2.79297 0
M  V30 2266 H 203.973 -3.54423 3.50978 0
M  V30 2267 H 203.127 -5.59393 2.3487 0
M  V30 2268 H 201.866 -4.6317 1.52726 0
M  V30 2269 H 200.871 -4.0209 3.74972 0
M  V30 2270 H 202.096 -5.01716 4.57665 0
M  V30 2271 H 200.042 -6.03315 2.5758 0
M  V30 2272 H 199.959 -6.2202 4.29682 0
M  V30 2273 H 201.227 -7.01044 3.40819 0
M  V30 2274 N 205.456 -1.28612 -0.910864 0
M  V30 2275 C 206.872 -1.06381 -1.18976 0
M  V30 2276 C 207.072 0.191998 -2.00583 0
M  V30 2277 O 206.128 0.892869 -2.36187 0
M  V30 2278 C 207.441 -2.31295 -1.92154 0
M  V30 2279 C 208.989 -2.36503 -2.05025 0
M  V30 2280 C 209.464 -3.61191 -2.81612 0
M  V30 2281 N 210.955 -3.61847 -2.89172 0
M  V30 2282 C 211.69 -4.55004 -3.4894 0
M  V30 2283 N 211.186 -5.58482 -4.09963 0
M  V30 2284 N 212.979 -4.42594 -3.46506 0
M  V30 2285 H 205.13 -2.09221 -0.366094 0
M  V30 2286 H 207.393 -0.921003 -0.224629 0
M  V30 2287 H 207.099 -3.228 -1.39618 0
M  V30 2288 H 206.973 -2.37934 -2.9269 0
M  V30 2289 H 209.36 -1.45494 -2.5674 0
M  V30 2290 H 209.441 -2.33857 -1.03657 0
M  V30 2291 H 209.085 -4.52545 -2.30576 0
M  V30 2292 H 209.015 -3.61092 -3.83302 0
M  V30 2293 H 211.506 -2.87022 -2.45819 0
M  V30 2294 H 211.819 -6.25704 -4.53557 0
M  V30 2295 H 210.164 -5.62305 -4.08459 0
M  V30 2296 H 213.355 -3.60953 -2.98045 0
M  V30 2297 H 213.528 -5.15381 -3.92793 0
M  V30 2298 N 206.934 1.1197 -1.10907 0
M  V30 2299 C 208.159 1.87942 -0.877064 0
M  V30 2300 C 208.584 1.79341 0.567314 0
M  V30 2301 O 207.942 1.15184 1.40009 0
M  V30 2302 C 207.99 3.34926 -1.33629 0
M  V30 2303 O 207.094 4.09303 -0.504447 0
M  V30 2304 H 206.435 0.583785 -0.316371 0
M  V30 2305 H 208.965 1.4157 -1.47712 0
M  V30 2306 H 208.975 3.8577 -1.32837 0
M  V30 2307 H 207.65 3.40504 -2.3881 0
M  V30 2308 H 206.227 3.68393 -0.577993 0
M  V30 2309 N 208.412 0.89855 1.29475 0
M  V30 2310 C 209.658 0.524658 1.95896 0
M  V30 2311 C 209.991 -0.926468 1.70676 0
M  V30 2312 O 209.266 -1.65665 1.01908 0
M  V30 2313 C 209.549 0.81633 3.50725 0
M  V30 2314 C 209.402 2.31907 3.85408 0
M  V30 2315 C 210.721 0.302038 4.39062 0
M  V30 2316 H 207.84 0.19209 0.711527 0
M  V30 2317 H 210.482 1.12502 1.53112 0
M  V30 2318 H 208.632 0.305369 3.87298 0
M  V30 2319 H 210.304 2.89949 3.58786 0
M  V30 2320 H 208.547 2.78027 3.32992 0
M  V30 2321 H 209.218 2.47373 4.93468 0
M  V30 2322 H 211.694 0.739551 4.09475 0
M  V30 2323 H 210.57 0.535331 5.46283 0
M  V30 2324 H 210.831 -0.797216 4.34853 0
M  V30 2325 N 209.89 -1.43072 0.660911 0
M  V30 2326 C 210.8 -2.34585 -0.0264163 0
M  V30 2327 C 211.816 -1.54316 -0.803898 0
M  V30 2328 O 212.992 -1.86939 -0.749391 0
M  V30 2329 C 210.057 -3.32689 -0.975639 0
M  V30 2330 C 209.118 -4.2886 -0.194236 0
M  V30 2331 C 208.351 -5.22278 -1.09825 0
M  V30 2332 O 208.574 -5.20299 -2.33763 0
M  V30 2333 O 207.508 -5.99228 -0.566513 0
M  V30 2334 H 211.334 -2.94869 0.727034 0
M  V30 2335 H 208.919 -1.43342 0.42111 0
M  V30 2336 H 210.801 -3.92995 -1.52094 0
M  V30 2337 H 209.476 -2.74898 -1.70918 0
M  V30 2338 H 208.383 -3.72011 0.394835 0
M  V30 2339 H 209.716 -4.89655 0.499899 0
M  V30 2340 N 211.368 -0.403325 -1.52352 0
M  V30 2341 C 212.278 0.432009 -2.30588 0
M  V30 2342 C 213.294 1.05884 -1.38075 0
M  V30 2343 O 214.47 1.06161 -1.71148 0
M  V30 2344 C 211.535 1.53669 -3.10784 0
M  V30 2345 C 210.596 0.933525 -4.19027 0
M  V30 2346 C 209.829 1.98557 -4.9539 0
M  V30 2347 O 210.052 3.20283 -4.71991 0
M  V30 2348 O 208.986 1.59504 -5.80381 0
M  V30 2349 H 212.812 -0.205739 -3.03002 0
M  V30 2350 H 210.397 -0.166675 -1.48467 0
M  V30 2351 H 212.279 2.17814 -3.60742 0
M  V30 2352 H 210.954 2.15915 -2.41169 0
M  V30 2353 H 209.861 0.254954 -3.7323 0
M  V30 2354 H 211.194 0.35508 -4.90918 0
M  V30 2355 N 212.846 1.57033 -0.133567 0
M  V30 2356 C 214.262 1.58035 0.222944 0
M  V30 2357 C 214.462 1.14713 1.6566 0
M  V30 2358 O 213.518 0.841218 2.38075 0
M  V30 2359 C 214.831 3.00691 -0.0236116 0
M  V30 2360 C 216.379 3.12973 0.0411512 0
M  V30 2361 C 216.854 4.57654 -0.177899 0
M  V30 2362 N 218.345 4.63033 -0.124365 0
M  V30 2363 C 219.08 5.72771 -0.268553 0
M  V30 2364 N 218.576 6.91206 -0.46972 0
M  V30 2365 N 220.369 5.61718 -0.2071 0
M  V30 2366 H 212.52 1.8349 -1.06981 0
M  V30 2367 H 214.783 0.848677 -0.422436 0
M  V30 2368 H 214.489 3.36726 -1.0153 0
M  V30 2369 H 214.363 3.70614 0.701808 0
M  V30 2370 H 216.75 2.76787 1.02338 0
M  V30 2371 H 216.831 2.45564 -0.716383 0
M  V30 2372 H 216.475 4.94542 -1.15717 0
M  V30 2373 H 216.405 5.23173 0.599797 0
M  V30 2374 H 218.896 3.7789 0.027011 0
M  V30 2375 H 219.209 7.70693 -0.570212 0
M  V30 2376 H 217.554 6.93156 -0.505876 0
M  V30 2377 H 220.745 4.68072 -0.0507986 0
M  V30 2378 H 220.918 6.47195 -0.322909 0
M  V30 2379 N 214.325 -0.140222 1.56975 0
M  V30 2380 C 215.574 -0.850152 1.82908 0
M  V30 2381 C 215.887 -1.82028 0.715892 0
M  V30 2382 O 217.093 -2.57485 0.861016 0
M  V30 2383 C 215.549 -1.5625 3.24213 0
M  V30 2384 C 215.157 -0.63443 4.43485 0
M  V30 2385 C 216.901 -2.25881 3.59413 0
M  V30 2386 C 214.808 -1.34879 5.75814 0
M  V30 2387 H 213.738 -0.321221 0.682153 0
M  V30 2388 H 216.389 -0.102874 1.83211 0
M  V30 2389 H 214.771 -2.35565 3.18316 0
M  V30 2390 H 215.945 0.12398 4.60633 0
M  V30 2391 H 214.26 -0.0461836 4.16374 0
M  V30 2392 H 216.857 -2.79978 4.5554 0
M  V30 2393 H 217.2 -3.02693 2.85802 0
M  V30 2394 H 217.733 -1.53477 3.67001 0
M  V30 2395 H 214.472 -0.622385 6.52539 0
M  V30 2396 H 213.992 -2.07974 5.6259 0
M  V30 2397 H 215.671 -1.88784 6.18845 0
M  V30 2398 N 215.803 -1.52179 -0.40978 0
M  V30 2399 C 216.735 -1.71703 -1.51825 0
M  V30 2400 C 217.748 -0.597445 -1.51441 0
M  V30 2401 O 218.937 -0.872582 -1.55719 0
M  V30 2402 C 216.037 -1.74171 -2.90719 0
M  V30 2403 C 215.21 -3.03156 -3.15302 0
M  V30 2404 C 214.269 -2.97445 -4.34065 0
M  V30 2405 O 213.295 -3.71352 -4.31377 0
M  V30 2406 N 214.497 -2.15191 -5.39141 0
M  V30 2407 H 217.262 -2.67334 -1.35472 0
M  V30 2408 H 214.823 -1.50409 -0.599069 0
M  V30 2409 H 216.815 -1.67884 -3.68235 0
M  V30 2410 H 215.385 -0.860166 -3.00533 0
M  V30 2411 H 214.605 -3.23097 -2.25836 0
M  V30 2412 H 215.893 -3.88484 -3.28569 0
M  V30 2413 H 215.291 -1.54573 -5.44173 0
M  V30 2414 H 213.848 -2.1476 -6.15403 0
M  V30 2415 N 217.281 0.66697 -1.42791 0
M  V30 2416 C 218.191 1.80962 -1.49299 0
M  V30 2417 C 219.207 1.69775 -0.381108 0
M  V30 2418 O 220.383 1.91188 -0.633188 0
M  V30 2419 C 217.448 3.17156 -1.40045 0
M  V30 2420 C 216.509 3.40242 -2.6179 0
M  V30 2421 C 215.742 4.69939 -2.52969 0
M  V30 2422 O 215.965 5.48372 -1.56985 0
M  V30 2423 O 214.899 4.94441 -3.43237 0
M  V30 2424 H 218.725 1.78427 -2.45759 0
M  V30 2425 H 216.31 0.823713 -1.24641 0
M  V30 2426 H 218.192 3.98413 -1.37276 0
M  V30 2427 H 216.867 3.20312 -0.467138 0
M  V30 2428 H 215.774 2.58802 -2.70134 0
M  V30 2429 H 217.107 3.41923 -3.54047 0
M  V30 2430 N 218.759 1.29093 0.90403 0
M  V30 2431 C 219.669 1.15727 2.0407 0
M  V30 2432 C 220.685 0.0815308 1.73809 0
M  V30 2433 O 221.861 0.292749 1.99261 0
M  V30 2434 C 218.926 0.830424 3.36608 0
M  V30 2435 C 217.987 1.98955 3.80415 0
M  V30 2436 C 217.22 1.6782 5.06628 0
M  V30 2437 O 217.443 0.597105 5.67266 0
M  V30 2438 O 216.377 2.52486 5.46383 0
M  V30 2439 H 220.203 2.11171 2.18267 0
M  V30 2440 H 217.788 1.08504 1.027 0
M  V30 2441 H 219.67 0.662521 4.16159 0
M  V30 2442 H 218.345 -0.0942678 3.23563 0
M  V30 2443 H 217.252 2.21267 3.01648 0
M  V30 2444 H 218.585 2.89529 3.98037 0
M  V30 2445 N 220.237 -1.11381 1.11499 0
M  V30 2446 C 221.2 -2.15622 0.777153 0
M  V30 2447 C 222.2 -1.59504 -0.203779 0
M  V30 2448 O 223.39 -1.74188 0.020782 0
M  V30 2449 C 220.522 -3.40556 0.153116 0
M  V30 2450 H 221.715 -2.47021 1.70061 0
M  V30 2451 H 219.268 -1.26577 0.916952 0
M  V30 2452 H 220.003 -3.14767 -0.780536 0
M  V30 2453 H 219.788 -3.8257 0.859238 0
M  V30 2454 H 221.278 -4.17546 -0.0671044 0
M  V30 2455 N 221.715 -0.905404 -1.28997 0
M  V30 2456 C 222.647 -0.344748 -2.26592 0
M  V30 2457 C 223.66 0.512135 -1.54535 0
M  V30 2458 O 224.849 0.328368 -1.75454 0
M  V30 2459 C 221.949 0.526587 -3.34784 0
M  V30 2460 C 221.122 -0.305871 -4.36329 0
M  V30 2461 C 220.181 0.499209 -5.23827 0
M  V30 2462 O 219.207 -0.0853004 -5.69136 0
M  V30 2463 N 220.409 1.80408 -5.51755 0
M  V30 2464 H 223.174 -1.18359 -2.75338 0
M  V30 2465 H 220.735 -0.770481 -1.42391 0
M  V30 2466 H 222.727 1.07171 -3.90252 0
M  V30 2467 H 221.297 1.26613 -2.85811 0
M  V30 2468 H 220.517 -1.0324 -3.80441 0
M  V30 2469 H 221.805 -0.875773 -5.01206 0
M  V30 2470 H 221.203 2.3016 -5.16762 0
M  V30 2471 H 219.76 2.29621 -6.10014 0
M  V30 2472 N 223.193 1.4272 -0.668489 0
M  V30 2473 C 224.433 2.03497 -0.19194 0
M  V30 2474 C 224.797 1.51684 1.17712 0
M  V30 2475 O 225.998 2.04205 1.74796 0
M  V30 2476 C 224.269 3.56734 -0.218032 0
M  V30 2477 S 225.828 4.38395 0.188438 0
M  V30 2478 H 222.646 0.706542 -0.0794959 0
M  V30 2479 H 225.248 1.74563 -0.880235 0
M  V30 2480 H 223.952 3.91943 -1.2169 0
M  V30 2481 H 223.483 3.90333 0.490303 0
M  V30 2482 H 225.498 4.75345 1.42345 0
M  V30 2483 N 224.671 0.411399 1.52136 0
M  V30 2484 C 225.601 -0.404015 2.29978 0
M  V30 2485 C 226.582 -1.04412 1.34284 0
M  V30 2486 O 227.767 -1.0527 1.63192 0
M  V30 2487 C 224.897 -1.5197 3.12286 0
M  V30 2488 C 223.851 -1.00448 4.16046 0
M  V30 2489 C 223.177 -2.21393 4.86712 0
M  V30 2490 C 224.477 -0.0569336 5.22269 0
M  V30 2491 H 226.171 0.245529 2.98392 0
M  V30 2492 H 223.717 0.119525 1.43503 0
M  V30 2493 H 225.67 -2.09715 3.6551 0
M  V30 2494 H 224.394 -2.19716 2.41646 0
M  V30 2495 H 223.053 -0.449421 3.63835 0
M  V30 2496 H 222.701 -2.87699 4.12599 0
M  V30 2497 H 222.401 -1.87571 5.56858 0
M  V30 2498 H 223.925 -2.7974 5.4275 0
M  V30 2499 H 225.339 -0.54325 5.7072 0
M  V30 2500 H 223.736 0.192594 5.99791 0
M  V30 2501 H 224.806 0.887663 4.76706 0
M  V30 2502 N 226.149 -1.5696 0.141893 0
M  V30 2503 C 227.398 -1.95135 -0.510427 0
M  V30 2504 C 227.711 -1.02896 -1.66348 0
M  V30 2505 O 228.917 -1.30629 -2.38009 0
M  V30 2506 C 227.373 -3.46876 -0.959427 0
M  V30 2507 C 226.981 -4.47691 0.166419 0
M  V30 2508 C 228.725 -3.93927 -1.58183 0
M  V30 2509 C 226.632 -5.90636 -0.300565 0
M  V30 2510 H 225.562 -0.728494 -0.194454 0
M  V30 2511 H 228.213 -1.8211 0.22542 0
M  V30 2512 H 226.595 -3.55215 -1.75038 0
M  V30 2513 H 227.769 -4.51043 0.94325 0
M  V30 2514 H 226.084 -4.10527 0.696905 0
M  V30 2515 H 228.681 -4.98158 -1.94275 0
M  V30 2516 H 229.024 -3.3519 -2.46888 0
M  V30 2517 H 229.557 -3.88484 -0.855863 0
M  V30 2518 H 226.296 -6.5318 0.550989 0
M  V30 2519 H 225.816 -5.90655 -1.04338 0
M  V30 2520 H 227.495 -6.42588 -0.754265 0
M  V30 2521 N 227.627 0.131896 -1.57047 0
M  V30 2522 C 228.537 1.1815 -2.02676 0
M  V30 2523 C 229.553 1.46113 -0.944824 0
M  V30 2524 O 230.729 1.57485 -1.25541 0
M  V30 2525 C 227.794 2.49139 -2.41103 0
M  V30 2526 C 226.855 2.28688 -3.63318 0
M  V30 2527 C 226.088 3.53431 -3.99903 0
M  V30 2528 O 226.311 4.60223 -3.36973 0
M  V30 2529 O 225.245 3.45198 -4.93074 0
M  V30 2530 H 229.071 0.824069 -2.92306 0
M  V30 2531 H 226.656 0.341745 -1.45439 0
M  V30 2532 H 228.538 3.26338 -2.66611 0
M  V30 2533 H 227.213 2.84382 -1.54624 0
M  V30 2534 H 226.12 1.4939 -3.42977 0
M  V30 2535 H 227.453 1.98355 -4.50462 0
M  V30 2536 N 229.106 1.52395 0.401703 0
M  V30 2537 C 230.016 1.7917 1.51444 0
M  V30 2538 C 231.032 0.677691 1.6026 0
M  V30 2539 O 232.208 0.963909 1.76835 0
M  V30 2540 C 229.273 1.94347 2.87107 0
M  V30 2541 C 228.334 3.18257 2.88116 0
M  V30 2542 C 227.567 3.32701 4.17308 0
M  V30 2543 O 227.79 2.52238 5.11598 0
M  V30 2544 O 226.724 4.25891 4.25324 0
M  V30 2545 H 230.55 2.73633 1.31752 0
M  V30 2546 H 228.135 1.3733 0.588296 0
M  V30 2547 H 230.017 2.06109 3.67555 0
M  V30 2548 H 228.692 1.03073 3.06851 0
M  V30 2549 H 227.599 3.11947 2.06494 0
M  V30 2550 H 228.932 4.09336 2.73322 0
M  V30 2551 N 230.584 -0.659388 1.43143 0
M  V30 2552 C 231.514 -1.78422 1.50625 0
M  V30 2553 C 232.495 -1.66216 0.361443 0
M  V30 2554 O 233.68 -1.85404 0.577834 0
M  V30 2555 C 230.81 -3.16815 1.42287 0
M  V30 2556 C 229.764 -3.43777 2.54954 0
M  V30 2557 C 229.09 -4.81905 2.31671 0
M  V30 2558 C 230.39 -3.39134 3.97222 0
M  V30 2559 H 232.084 -1.72417 2.44771 0
M  V30 2560 H 229.63 -0.828084 1.17808 0
M  V30 2561 H 231.583 -3.95253 1.46127 0
M  V30 2562 H 230.307 -3.23534 0.446435 0
M  V30 2563 H 228.966 -2.67707 2.50457 0
M  V30 2564 H 228.614 -4.85294 1.32284 0
M  V30 2565 H 228.314 -5.00906 3.07192 0
M  V30 2566 H 229.838 -5.62609 2.37284 0
M  V30 2567 H 231.252 -4.07518 4.03239 0
M  V30 2568 H 229.649 -3.69671 4.72719 0
M  V30 2569 H 230.719 -2.37426 4.22797 0
M  V30 2570 N 232.062 -1.29571 -0.897171 0
M  V30 2571 C 233.478 -1.07637 -1.17841 0
M  V30 2572 C 233.678 0.170713 -2.00776 0
M  V30 2573 O 232.734 0.867768 -2.3712 0
M  V30 2574 C 234.047 -2.3332 -1.8969 0
M  V30 2575 C 235.595 -2.38664 -2.02505 0
M  V30 2576 C 236.07 -3.64157 -2.77765 0
M  V30 2577 N 237.561 -3.64894 -2.85318 0
M  V30 2578 C 238.296 -4.58679 -3.44094 0
M  V30 2579 N 237.792 -5.62799 -4.04017 0
M  V30 2580 N 239.585 -4.46245 -3.41793 0
M  V30 2581 H 231.736 -2.09598 -0.343883 0
M  V30 2582 H 233.999 -0.923333 -0.214848 0
M  V30 2583 H 233.705 -3.24262 -1.36187 0
M  V30 2584 H 233.579 -2.41025 -2.9015 0
M  V30 2585 H 235.966 -1.48208 -2.55183 0
M  V30 2586 H 236.047 -2.34943 -1.01171 0
M  V30 2587 H 235.691 -4.54965 -2.25763 0
M  V30 2588 H 235.621 -3.65137 -3.7945 0
M  V30 2589 H 238.112 -2.89613 -2.42761 0
M  V30 2590 H 238.425 -6.3048 -4.46895 0
M  V30 2591 H 236.77 -5.66605 -4.02472 0
M  V30 2592 H 239.961 -3.64094 -2.94199 0
M  V30 2593 H 240.134 -5.19518 -3.87304 0
M  V30 2594 N 233.54 1.10788 -1.12088 0
M  V30 2595 C 234.487 2.17025 -0.785407 0
M  V30 2596 C 235.457 1.64265 0.246191 0
M  V30 2597 O 236.642 1.90412 0.121584 0
M  V30 2598 C 233.782 3.44249 -0.242177 0
M  V30 2599 C 232.895 4.1098 -1.33115 0
M  V30 2600 C 232.03 5.25911 -0.747741 0
M  V30 2601 C 231.069 5.84538 -1.81609 0
M  V30 2602 N 230.206 6.90853 -1.25167 0
M  V30 2603 H 235.046 2.45066 -1.69548 0
M  V30 2604 H 232.583 1.20297 -0.846582 0
M  V30 2605 H 234.541 4.17101 0.0908026 0
M  V30 2606 H 233.171 3.16571 0.631072 0
M  V30 2607 H 232.223 3.36133 -1.78097 0
M  V30 2608 H 233.535 4.50601 -2.13917 0
M  V30 2609 H 232.689 6.056 -0.365216 0
M  V30 2610 H 231.428 4.87614 0.0915188 0
M  V30 2611 H 230.433 5.03522 -2.20785 0
M  V30 2612 H 231.658 6.249 -2.6585 0
M  V30 2613 H 229.604 6.54562 -0.434174 0
M  V30 2614 H 229.521 7.29166 -1.99633 0
M  V30 2615 H 230.789 7.7433 -0.896259 0
M  V30 2616 N 235.018 0.912232 1.28515 0
M  V30 2617 C 236.243 0.559774 1.99703 0
M  V30 2618 C 236.668 -0.851393 1.67729 0
M  V30 2619 O 236.026 -1.56875 0.908834 0
M  V30 2620 C 236.074 0.773874 3.52198 0
M  V30 2621 O 235.178 -0.167842 4.12058 0
M  V30 2622 H 234.519 0.21723 0.627461 0
M  V30 2623 H 237.049 1.22725 1.63706 0
M  V30 2624 H 237.059 0.683386 4.02236 0
M  V30 2625 H 235.734 1.80261 3.74805 0
M  V30 2626 H 234.311 -0.0287509 3.72889 0
M  V30 2627 N 236.496 -1.42363 0.676048 0
M  V30 2628 C 237.443 -2.308 -0.00150904 0
M  V30 2629 C 238.413 -1.46032 -0.791444 0
M  V30 2630 O 239.598 -1.74861 -0.76344 0
M  V30 2631 C 236.738 -3.31883 -0.945919 0
M  V30 2632 C 235.851 -4.31741 -0.149675 0
M  V30 2633 C 234.986 -5.19898 -1.08995 0
M  V30 2634 C 234.025 -6.11434 -0.285465 0
M  V30 2635 N 233.162 -6.92138 -1.17851 0
M  V30 2636 H 238.002 -2.88187 0.758455 0
M  V30 2637 H 235.539 -1.41952 0.38576 0
M  V30 2638 H 237.497 -3.89019 -1.50731 0
M  V30 2639 H 236.127 -2.76093 -1.6725 0
M  V30 2640 H 235.179 -3.76713 0.528359 0
M  V30 2641 H 236.491 -4.96534 0.474866 0
M  V30 2642 H 235.645 -5.81772 -1.72123 0
M  V30 2643 H 234.384 -4.55284 -1.74837 0
M  V30 2644 H 233.389 -5.48627 0.359018 0
M  V30 2645 H 234.614 -6.78097 0.368883 0
M  V30 2646 H 232.56 -6.30152 -1.82332 0
M  V30 2647 H 232.477 -7.53542 -0.609082 0
M  V30 2648 H 233.745 -7.58499 -1.79722 0
M  V30 2649 N 237.974 -0.419461 -1.51915 0
M  V30 2650 C 239.222 0.152637 -2.01523 0
M  V30 2651 C 239.543 1.44762 -1.30649 0
M  V30 2652 O 238.813 1.90997 -0.435535 0
M  V30 2653 H 237.393 0.0593966 -0.744635 0
M  V30 2654 H 240.055 -0.558073 -1.86739 0
M  V30 2655 H 239.151 0.341369 -3.10227 0
M  V30 2656 N 239.452 1.56882 -0.150215 0
M  V30 2657 C 240.415 2.1573 0.774157 0
M  V30 2658 C 241.415 1.0999 1.17298 0
M  V30 2659 O 242.605 1.35613 1.09338 0
M  V30 2660 C 239.737 2.72302 2.05096 0
M  V30 2661 H 240.93 2.98752 0.262201 0
M  V30 2662 H 238.483 1.55985 0.099248 0
M  V30 2663 H 239.218 1.92956 2.6065 0
M  V30 2664 H 239.003 3.49665 1.77416 0
M  V30 2665 H 240.493 3.17632 2.71109 0
M  V30 2666 N 240.93 -0.123565 1.57115 0
M  V30 2667 C 241.86 -1.15309 2.03042 0
M  V30 2668 C 242.841 -1.43454 0.914061 0
M  V30 2669 O 244.026 -1.53973 1.18347 0
M  V30 2670 C 241.156 -2.48043 2.43089 0
M  V30 2671 C 240.11 -2.3437 3.58127 0
M  V30 2672 C 239.436 -3.72026 3.84059 0
M  V30 2673 C 240.736 -1.80804 4.90007 0
M  V30 2674 H 242.43 -0.771102 2.893 0
M  V30 2675 H 239.976 -0.369479 1.39179 0
M  V30 2676 H 241.929 -3.20311 2.73823 0
M  V30 2677 H 240.653 -2.88122 1.53796 0
M  V30 2678 H 239.312 -1.64551 3.27595 0
M  V30 2679 H 238.96 -4.09582 2.91979 0
M  V30 2680 H 238.66 -3.63732 4.6149 0
M  V30 2681 H 240.184 -4.45806 4.1724 0
M  V30 2682 H 241.598 -2.42886 5.19307 0
M  V30 2683 H 239.995 -1.83343 5.71407 0
M  V30 2684 H 241.065 -0.76528 4.78823 0
M  V30 2685 N 242.408 -1.52605 -0.393616 0
M  V30 2686 C 243.341 -1.71798 -1.50202 0
M  V30 2687 C 244.319 -0.565743 -1.52441 0
M  V30 2688 O 245.503 -0.794987 -1.70916 0
M  V30 2689 C 242.63 -1.7714 -2.88685 0
M  V30 2690 C 241.676 -2.98845 -3.04292 0
M  V30 2691 S 242.509 -4.58909 -2.75976 0
M  V30 2692 C 243.665 -4.6706 -4.1666 0
M  V30 2693 H 243.898 -2.65542 -1.33696 0
M  V30 2694 H 241.431 -1.42839 -0.586195 0
M  V30 2695 H 243.389 -1.80903 -3.68489 0
M  V30 2696 H 242.05 -0.844969 -3.02521 0
M  V30 2697 H 241.243 -2.99111 -4.05646 0
M  V30 2698 H 240.845 -2.9305 -2.32374 0
M  V30 2699 H 243.137 -4.45391 -5.10523 0
M  V30 2700 H 244.08 -5.6905 -4.21412 0
M  V30 2701 H 244.488 -3.95944 -4.02354 0
M  V30 2702 N 243.887 0.651787 -1.4349 0
M  V30 2703 C 245.164 1.40909 -1.35661 0
M  V30 2704 C 245.544 2.11099 -0.00511733 0
M  V30 2705 O 244.892 2.04892 1.0115 0
M  V30 2706 C 245.102 2.3926 -2.54078 0
M  V30 2707 C 246.45 3.03217 -2.97228 0
M  V30 2708 O 247.474 2.49588 -2.54135 0
M  V30 2709 O 246.333 4.00455 -3.71885 0
M  V30 2710 H 243.427 0.629625 -0.536191 0
M  V30 2711 H 245.973 0.678575 -1.55542 0
M  V30 2712 H 244.745 1.86352 -3.44076 0
M  V30 2713 H 244.368 3.1976 -2.36303 0
M  V30 2714 N 245.365 1.30045 0.890287 0
M  V30 2715 C 246.776 1.16738 1.45702 0
M  V30 2716 C 247.127 -0.233939 1.948 0
M  V30 2717 O 246.252 -1.13021 1.84541 0
M  V30 2718 C 246.847 2.11313 2.64825 0
M  V30 2719 C 245.406 2.02001 3.17604 0
M  V30 2720 C 244.553 2.01699 1.90296 0
M  V30 2721 H 247.504 1.42392 0.700726 0
M  V30 2722 H 247.525 1.69086 3.40867 0
M  V30 2723 H 247.037 3.13294 2.2906 0
M  V30 2724 H 245.138 1.03142 3.5804 0
M  V30 2725 H 245.251 2.90128 3.81264 0
M  V30 2726 H 243.615 1.46427 2.08402 0
M  V30 2727 H 244.398 3.05402 1.56795 0
M  V30 2728 N 246.843 -1.10192 1.12674 0
M  V30 2729 C 248.071 -1.85983 0.906527 0
M  V30 2730 C 248.486 -1.80783 -0.544333 0
M  V30 2731 O 247.843 -1.19834 -1.37645 0
M  V30 2732 C 247.894 -3.34281 1.37618 0
M  V30 2733 O 247.615 -3.39401 2.77017 0
M  V30 2734 C 249.116 -4.26938 1.19325 0
M  V30 2735 H 246.336 -0.587716 0.323775 0
M  V30 2736 H 248.88 -1.39284 1.49734 0
M  V30 2737 H 247.035 -3.78436 0.828539 0
M  V30 2738 H 247.449 -4.31838 2.97684 0
M  V30 2739 H 248.923 -5.29181 1.57071 0
M  V30 2740 H 249.4 -4.38995 0.134097 0
M  V30 2741 H 250.006 -3.8859 1.72852 0
M  V30 2742 N 248.321 -0.919034 -1.28029 0
M  V30 2743 C 249.568 -0.554934 -1.94748 0
M  V30 2744 C 249.896 0.90231 -1.72304 0
M  V30 2745 O 249.151 1.65767 -1.04018 0
M  V30 2746 C 249.45 -0.816855 -3.4794 0
M  V30 2747 C 249.116 -2.25448 -3.90492 0
M  V30 2748 C 247.778 -2.64752 -4.01821 0
M  V30 2749 C 250.13 -3.18977 -4.12193 0
M  V30 2750 C 247.458 -3.96727 -4.32232 0
M  V30 2751 C 249.81 -4.50523 -4.44086 0
M  V30 2752 C 248.474 -4.89673 -4.53626 0
M  V30 2753 H 247.744 -0.203065 -0.712633 0
M  V30 2754 H 250.391 -1.16136 -1.52265 0
M  V30 2755 H 248.696 -0.127677 -3.91592 0
M  V30 2756 H 250.393 -0.514238 -3.97689 0
M  V30 2757 H 246.983 -1.93952 -3.82205 0
M  V30 2758 H 251.167 -2.89817 -4.02889 0
M  V30 2759 H 246.423 -4.26754 -4.37825 0
M  V30 2760 H 250.597 -5.23005 -4.59825 0
M  V30 2761 H 248.224 -5.91969 -4.76946 0
M  V30 2762 N 249.799 1.42003 -0.683588 0
M  V30 2763 C 250.729 2.33487 -0.024866 0
M  V30 2764 C 251.71 1.51163 0.779975 0
M  V30 2765 O 252.895 1.79739 0.735362 0
M  V30 2766 C 250.025 3.3487 0.920836 0
M  V30 2767 C 248.979 4.27414 0.223958 0
M  V30 2768 C 248.305 5.19074 1.2832 0
M  V30 2769 C 249.605 5.14445 -0.90242 0
M  V30 2770 H 251.299 2.88819 -0.788921 0
M  V30 2771 H 248.845 1.38873 -0.38083 0
M  V30 2772 H 250.798 3.97787 1.39081 0
M  V30 2773 H 249.522 2.77861 1.71642 0
M  V30 2774 H 248.181 3.65904 -0.225864 0
M  V30 2775 H 247.829 4.58387 2.071 0
M  V30 2776 H 247.529 5.81822 0.821995 0
M  V30 2777 H 249.053 5.84867 1.75392 0
M  V30 2778 H 250.467 5.70998 -0.513272 0
M  V30 2779 H 248.864 5.86072 -1.28997 0
M  V30 2780 H 249.934 4.52322 -1.74737 0
M  V30 2781 N 251.277 0.427512 1.51691 0
M  V30 2782 C 252.524 -0.142229 2.02 0
M  V30 2783 C 252.852 -1.43566 1.31221 0
M  V30 2784 O 252.107 -1.91298 0.412744 0
M  V30 2785 C 252.406 -0.418249 3.54944 0
M  V30 2786 C 252.072 0.788187 4.43958 0
M  V30 2787 C 250.734 1.11906 4.68007 0
M  V30 2788 C 253.086 1.59347 4.96244 0
M  V30 2789 C 250.414 2.25608 5.41588 0
M  V30 2790 C 252.766 2.7214 5.71072 0
M  V30 2791 C 251.43 3.05692 5.93387 0
M  V30 2792 H 250.7 -0.0520451 0.73917 0
M  V30 2793 H 253.347 0.572697 1.82736 0
M  V30 2794 H 251.652 -1.21496 3.72486 0
M  V30 2795 H 253.349 -0.872339 3.91397 0
M  V30 2796 H 249.939 0.520344 4.2543 0
M  V30 2797 H 254.123 1.35106 4.77556 0
M  V30 2798 H 249.379 2.51929 5.57083 0
M  V30 2799 H 253.553 3.34914 6.10578 0
M  V30 2800 H 251.18 3.9391 6.50184 0
M  V30 2801 N 252.755 -1.56801 0.158532 0
M  V30 2802 C 253.687 -2.14488 -0.807923 0
M  V30 2803 C 254.7 -1.09721 -1.20271 0
M  V30 2804 O 255.889 -1.36956 -1.14478 0
M  V30 2805 C 252.989 -2.66217 -2.09718 0
M  V30 2806 C 252.162 -3.95507 -1.86796 0
M  V30 2807 C 251.221 -4.3243 -2.99818 0
M  V30 2808 O 250.247 -5.00543 -2.71008 0
M  V30 2809 N 251.449 -3.92947 -4.27285 0
M  V30 2810 H 254.214 -2.98042 -0.314816 0
M  V30 2811 H 251.775 -1.61881 -0.0246692 0
M  V30 2812 H 253.767 -2.87924 -2.84398 0
M  V30 2813 H 252.337 -1.87324 -2.50257 0
M  V30 2814 H 251.557 -3.82309 -0.96089 0
M  V30 2815 H 252.845 -4.79972 -1.68833 0
M  V30 2816 H 252.243 -3.38087 -4.53557 0
M  V30 2817 H 250.8 -4.19681 -4.9871 0
M  V30 2818 N 254.233 0.115231 -1.57178 0
M  V30 2819 C 255.458 0.840354 -1.89612 0
M  V30 2820 C 255.883 1.72464 -0.750845 0
M  V30 2821 O 255.241 1.78826 0.298478 0
M  V30 2822 C 255.289 1.64654 -3.20814 0
M  V30 2823 O 254.393 2.7538 -3.06985 0
M  V30 2824 H 253.734 0.232158 -0.622092 0
M  V30 2825 H 256.264 0.0964977 -2.04372 0
M  V30 2826 H 256.274 2.03499 -3.53627 0
M  V30 2827 H 254.949 0.997416 -4.03763 0
M  V30 2828 H 253.526 2.3971 -2.85646 0
M  V30 2829 N 255.711 1.52812 0.385517 0
M  V30 2830 C 256.96 1.67249 1.12741 0
M  V30 2831 C 257.273 0.4205 1.91027 0
M  V30 2832 O 258.479 0.445064 2.67827 0
M  V30 2833 C 256.935 2.95583 2.05326 0
M  V30 2834 C 256.543 4.27974 1.32447 0
M  V30 2835 C 258.287 3.19386 2.7963 0
M  V30 2836 C 256.194 5.47412 2.23818 0
M  V30 2837 H 255.124 0.6231 0.424573 0
M  V30 2838 H 257.775 1.79309 0.389924 0
M  V30 2839 H 256.157 2.77277 2.82725 0
M  V30 2840 H 257.331 4.56844 0.602495 0
M  V30 2841 H 255.646 4.10459 0.700885 0
M  V30 2842 H 258.243 4.05801 3.48181 0
M  V30 2843 H 258.586 2.34604 3.43899 0
M  V30 2844 H 259.119 3.38274 2.09322 0
M  V30 2845 H 255.858 6.34612 1.64157 0
M  V30 2846 H 255.378 5.22849 2.93921 0
M  V30 2847 H 257.057 5.81423 2.83824 0
M  V30 2848 N 257.189 -0.644168 1.43834 0
M  V30 2849 C 258.417 -1.43147 1.49387 0
M  V30 2850 C 258.832 -1.88452 0.114583 0
M  V30 2851 O 258.189 -1.60047 -0.876989 0
M  V30 2852 C 258.24 -2.66046 2.44748 0
M  V30 2853 O 257.961 -2.22633 3.77314 0
M  V30 2854 C 259.462 -3.59311 2.59635 0
M  V30 2855 H 256.682 -0.439447 0.507077 0
M  V30 2856 H 259.226 -0.78895 1.88669 0
M  V30 2857 H 257.381 -3.26418 2.08638 0
M  V30 2858 H 257.795 -3.02216 4.28679 0
M  V30 2859 H 259.269 -4.42187 3.30416 0
M  V30 2860 H 259.746 -4.07259 1.64427 0
M  V30 2861 H 260.352 -3.04816 2.96593 0
M  V30 2862 N 258.668 -1.30515 -0.883378 0
M  V30 2863 C 259.631 -1.1701 -1.97082 0
M  V30 2864 C 260.631 -0.10089 -1.60483 0
M  V30 2865 O 261.821 -0.349127 -1.70666 0
M  V30 2866 C 258.953 -0.793045 -3.31547 0
M  V30 2867 H 260.146 -2.13622 -2.10489 0
M  V30 2868 H 257.699 -1.13935 -1.06998 0
M  V30 2869 H 258.434 0.172499 -3.23841 0
M  V30 2870 H 258.219 -1.56576 -3.5948 0
M  V30 2871 H 259.709 -0.722073 -4.1131 0
M  V30 2872 N 260.146 1.09593 -1.13257 0
M  V30 2873 C 261.094 2.18271 -0.803783 0
M  V30 2874 C 262.088 1.68054 0.213148 0
M  V30 2875 O 263.294 1.79862 0.0704699 0
M  V30 2876 H 259.669 0.711949 -0.242143 0
M  V30 2877 H 261.64 2.43235 -1.72856 0
M  V30 2878 C 260.389 3.46536 -0.28424 0
M  V30 2879 H 259.712 3.85545 -1.05807 0
M  V30 2880 H 261.152 4.23899 -0.0925945 0
M  V30 2881 C 259.611 3.22036 0.989684 0
M  V30 2882 O 260.141 3.44509 2.06584 0
M  V30 2883 N 258.347 2.7565 0.920086 0
M  V30 2884 H 257.894 2.57562 0.0442019 0
M  V30 2885 H 257.852 2.59635 1.77306 0
M  V30 2886 N 261.624 0.925811 1.2754 0
M  V30 2887 C 262.873 0.561084 1.93739 0
M  V30 2888 C 263.186 -0.901685 1.73577 0
M  V30 2889 O 264.392 -1.37511 2.34101 0
M  V30 2890 C 262.848 0.952668 3.47062 0
M  V30 2891 C 262.456 2.43599 3.75983 0
M  V30 2892 C 264.2 0.659103 4.19352 0
M  V30 2893 C 262.107 2.76707 5.22673 0
M  V30 2894 H 261.037 0.206122 0.725279 0
M  V30 2895 H 263.688 1.12637 1.44863 0
M  V30 2896 H 262.07 0.316053 3.94737 0
M  V30 2897 H 263.244 3.12035 3.39073 0
M  V30 2898 H 261.559 2.70125 3.16893 0
M  V30 2899 H 264.156 0.882985 5.27359 0
M  V30 2900 H 264.499 -0.403607 4.14339 0
M  V30 2901 H 265.032 1.25473 3.77494 0
M  V30 2902 H 261.771 3.8188 5.32774 0
M  V30 2903 H 261.291 2.12919 5.60737 0
M  V30 2904 H 262.97 2.6435 5.90532 0
M  V30 2905 N 263.102 -1.41638 0.69111 0
M  V30 2906 C 264.351 -2.00526 0.217318 0
M  V30 2907 C 264.664 -1.55353 -1.18848 0
M  V30 2908 O 265.87 -2.06769 -1.75951 0
M  V30 2909 C 264.326 -3.58313 0.337639 0
M  V30 2910 C 263.934 -4.12469 1.74852 0
M  V30 2911 C 265.678 -4.24431 -0.0766066 0
M  V30 2912 C 263.585 -5.62675 1.82074 0
M  V30 2913 H 262.515 -0.750008 0.0774893 0
M  V30 2914 H 265.166 -1.6217 0.858661 0
M  V30 2915 H 263.548 -3.9425 -0.371879 0
M  V30 2916 H 264.722 -3.8796 2.48644 0
M  V30 2917 H 263.037 -3.58861 2.11205 0
M  V30 2918 H 265.634 -5.34683 -0.0430284 0
M  V30 2919 H 265.977 -4.01101 -1.1146 0
M  V30 2920 H 266.51 -3.93512 0.582476 0
M  V30 2921 H 263.249 -5.90826 2.83911 0
M  V30 2922 H 262.769 -5.89124 1.12661 0
M  V30 2923 H 264.448 -6.27371 1.58159 0
M  V30 2924 N 264.58 -0.43555 -1.51462 0
M  V30 2925 C 265.82 0.130708 -2.03982 0
M  V30 2926 C 266.184 1.40117 -1.31268 0
M  V30 2927 O 267.385 2.04755 -1.74152 0
M  V30 2928 C 265.656 0.346102 -3.5572 0
M  V30 2929 S 267.215 0.876022 -4.29967 0
M  V30 2930 H 264.033 0.0326881 -0.710248 0
M  V30 2931 H 266.635 -0.594544 -1.8624 0
M  V30 2932 H 265.339 -0.584911 -4.0621 0
M  V30 2933 H 264.87 1.09849 -3.77752 0
M  V30 2934 H 266.885 2.15379 -4.47019 0
M  V30 2935 N 266.058 1.56714 -0.166846 0
M  V30 2936 C 267.283 2.01557 0.488833 0
M  V30 2937 C 267.708 1.0463 1.56314 0
M  V30 2938 O 267.066 0.0251304 1.81283 0
M  V30 2939 C 267.114 3.4503 1.04818 0
M  V30 2940 O 266.218 3.51163 2.16236 0
M  V30 2941 H 265.559 0.653516 0.117526 0
M  V30 2942 H 268.089 2.02818 -0.269421 0
M  V30 2943 H 268.099 3.84243 1.37191 0
M  V30 2944 H 266.774 4.15077 0.261572 0
M  V30 2945 H 265.351 3.23807 1.84942 0
M  V30 2946 N 267.536 -0.106894 1.57237 0
M  V30 2947 C 268.785 -0.811163 1.8467 0
M  V30 2948 C 269.098 -1.80469 0.754342 0
M  V30 2949 O 270.304 -2.55601 0.915439 0
M  V30 2950 C 268.76 -1.49337 3.27454 0
M  V30 2951 C 268.368 -0.540217 4.44731 0
M  V30 2952 C 270.112 -2.18206 3.64124 0
M  V30 2953 C 268.019 -1.22634 5.78545 0
M  V30 2954 H 266.949 -0.306679 0.688813 0
M  V30 2955 H 269.6 -0.0639887 1.83388 0
M  V30 2956 H 267.982 -2.2876 3.23241 0
M  V30 2957 H 269.156 0.221659 4.60267 0
M  V30 2958 H 267.471 0.042146 4.16379 0
M  V30 2959 H 270.068 -2.70253 4.61376 0
M  V30 2960 H 270.411 -2.96562 2.92158 0
M  V30 2961 H 270.944 -1.45658 3.70174 0
M  V30 2962 H 267.683 -0.483832 6.53712 0
M  V30 2963 H 267.203 -1.95993 5.66874 0
M  V30 2964 H 268.882 -1.75615 6.2271 0
M  V30 2965 N 269.014 -1.53014 -0.377408 0
M  V30 2966 C 270.26 -1.68872 -1.12294 0
M  V30 2967 C 270.593 -0.433224 -1.89306 0
M  V30 2968 O 269.868 0.569258 -1.85983 0
M  V30 2969 C 270.151 -2.93115 -2.09179 0
M  V30 2970 C 270.004 -4.28794 -1.35853 0
M  V30 2971 C 271.323 -3.12928 -3.09458 0
M  V30 2972 H 268.442 -0.614518 -0.406862 0
M  V30 2973 H 271.084 -1.85633 -0.40503 0
M  V30 2974 H 269.234 -2.78956 -2.70399 0
M  V30 2975 H 270.906 -4.54742 -0.775082 0
M  V30 2976 H 269.149 -4.28744 -0.660364 0
M  V30 2977 H 269.82 -5.11837 -2.06706 0
M  V30 2978 H 272.296 -3.26194 -2.58334 0
M  V30 2979 H 271.172 -4.01316 -3.74482 0
M  V30 2980 H 271.433 -2.27669 -3.78971 0
M  V30 2981 N 270.492 0.636531 -1.44174 0
M  V30 2982 C 271.739 1.39619 -1.46672 0
M  V30 2983 C 272.067 1.94257 -0.0972691 0
M  V30 2984 O 271.322 1.73768 0.900175 0
M  V30 2985 C 271.621 2.58309 -2.47005 0
M  V30 2986 C 271.287 2.21992 -3.92467 0
M  V30 2987 C 269.949 2.118 -4.32081 0
M  V30 2988 C 272.301 1.9321 -4.84065 0
M  V30 2989 C 269.629 1.71007 -5.61225 0
M  V30 2990 C 271.981 1.53911 -6.13591 0
M  V30 2991 C 270.645 1.42257 -6.52165 0
M  V30 2992 H 269.915 0.510902 -0.536712 0
M  V30 2993 H 272.562 0.722328 -1.77355 0
M  V30 2994 H 270.867 3.30903 -2.09786 0
M  V30 2995 H 272.564 3.16533 -2.46186 0
M  V30 2996 H 269.154 2.30841 -3.61124 0
M  V30 2997 H 273.338 1.99997 -4.54219 0
M  V30 2998 H 268.594 1.60583 -5.89935 0
M  V30 2999 H 272.768 1.30677 -6.8403 0
M  V30 3000 H 270.395 1.10419 -7.52138 0
M  V30 3001 N 271.97 1.30982 0.876444 0
M  V30 3002 C 273.218 1.20058 1.62575 0
M  V30 3003 C 273.539 -0.242947 1.93481 0
M  V30 3004 O 272.809 -1.1619 1.57724 0
M  V30 3005 H 271.389 0.44135 0.602677 0
M  V30 3006 H 274.051 1.64222 1.04962 0
M  V30 3007 H 273.147 1.76762 2.57219 0
M  V30 3008 N 273.449 -1.08991 1.13837 0
M  V30 3009 C 274.396 -2.15748 0.819835 0
M  V30 3010 C 275.366 -1.64636 -0.220026 0
M  V30 3011 O 276.551 -1.90582 -0.0912757 0
M  V30 3012 C 273.691 -3.4382 0.296913 0
M  V30 3013 C 272.804 -4.0881 1.39636 0
M  V30 3014 C 271.939 -5.24655 0.831314 0
M  V30 3015 C 270.978 -5.81575 1.90886 0
M  V30 3016 N 270.115 -6.88774 1.36142 0
M  V30 3017 H 274.955 -2.42338 1.73426 0
M  V30 3018 H 272.492 -1.18935 0.865613 0
M  V30 3019 H 274.45 -4.17193 -0.0244339 0
M  V30 3020 H 273.08 -3.17535 -0.580628 0
M  V30 3021 H 272.132 -3.33258 1.83422 0
M  V30 3022 H 273.444 -4.47141 2.21058 0
M  V30 3023 H 272.598 -6.04942 0.461515 0
M  V30 3024 H 271.337 -4.87698 -0.013932 0
M  V30 3025 H 270.342 -4.99946 2.28767 0
M  V30 3026 H 271.567 -6.20592 2.75758 0
M  V30 3027 H 269.513 -6.53788 0.538254 0
M  V30 3028 H 269.43 -7.25898 2.11208 0
M  V30 3029 H 270.698 -7.72806 1.01933 0
M  V30 3030 N 274.927 -0.932562 -1.27047 0
M  V30 3031 C 276.343 -0.633544 -1.46487 0
M  V30 3032 C 276.543 0.815746 -1.84249 0
M  V30 3033 O 275.599 1.59319 -1.95892 0
M  V30 3034 C 276.912 -1.58758 -2.55375 0
M  V30 3035 C 278.46 -1.59634 -2.69232 0
M  V30 3036 C 278.935 -2.53747 -3.81283 0
M  V30 3037 N 280.426 -2.51982 -3.88664 0
M  V30 3038 C 281.161 -3.21491 -4.74796 0
M  V30 3039 N 280.657 -4.00395 -5.65381 0
M  V30 3040 N 282.45 -3.10485 -4.68568 0
M  V30 3041 H 274.601 -1.86946 -1.00821 0
M  V30 3042 H 276.864 -0.802897 -0.504044 0
M  V30 3043 H 276.57 -2.62172 -2.34432 0
M  V30 3044 H 276.444 -1.33301 -3.52861 0
M  V30 3045 H 278.831 -0.569488 -2.89553 0
M  V30 3046 H 278.912 -1.89142 -1.72218 0
M  V30 3047 H 278.556 -3.56545 -3.61715 0
M  V30 3048 H 278.486 -2.21532 -4.77735 0
M  V30 3049 H 280.977 -1.94681 -3.23895 0
M  V30 3050 H 281.29 -4.50406 -6.27976 0
M  V30 3051 H 279.635 -4.04498 -5.65161 0
M  V30 3052 H 282.826 -2.48331 -3.96799 0
M  V30 3053 H 282.999 -3.64925 -5.35475 0
M  V30 3054 N 276.405 1.4127 -0.698611 0
M  V30 3055 C 277.652 2.0118 -0.230865 0
M  V30 3056 C 277.98 1.55338 1.17049 0
M  V30 3057 O 277.235 0.756775 1.80475 0
M  V30 3058 C 277.534 3.56592 -0.240192 0
M  V30 3059 C 277.2 4.21955 -1.58948 0
M  V30 3060 C 275.862 4.39524 -1.95887 0
M  V30 3061 C 278.214 4.58576 -2.47704 0
M  V30 3062 C 275.542 4.90992 -3.2116 0
M  V30 3063 C 277.894 5.11435 -3.72313 0
M  V30 3064 C 276.558 5.27215 -4.0939 0
M  V30 3065 H 275.828 0.736169 -0.0844796 0
M  V30 3066 H 278.475 1.69124 -0.8983 0
M  V30 3067 H 276.78 3.88456 0.510797 0
M  V30 3068 H 278.477 4.00758 0.139296 0
M  V30 3069 H 275.067 4.08657 -1.29219 0
M  V30 3070 H 279.251 4.44654 -2.20445 0
M  V30 3071 H 274.507 5.01393 -3.49878 0
M  V30 3072 H 278.681 5.38752 -4.4127 0
M  V30 3073 H 276.308 5.66859 -5.06533 0
M  V30 3074 N 277.883 0.443576 1.51229 0
M  V30 3075 C 278.833 -0.382787 2.24764 0
M  V30 3076 C 279.817 -0.984836 1.27239 0
M  V30 3077 O 281.009 -0.901943 1.52296 0
M  V30 3078 C 278.138 -1.47989 3.09765 0
M  V30 3079 C 277.224 -0.886931 4.14722 0
M  V30 3080 N 277.615 -0.0237103 5.05794 0
M  V30 3081 C 275.913 -1.15385 4.30816 0
M  V30 3082 C 276.614 0.309971 5.80874 0
M  V30 3083 N 275.59 -0.307989 5.42727 0
M  V30 3084 H 279.392 0.282624 2.92538 0
M  V30 3085 H 276.906 0.256027 1.60369 0
M  V30 3086 H 278.903 -2.08482 3.61027 0
M  V30 3087 H 277.563 -2.14758 2.43535 0
M  V30 3088 H 278.574 0.34318 5.16762 0
M  V30 3089 H 275.251 -1.81857 3.75812 0
M  V30 3090 H 276.641 1.01279 6.64223 0
M  V30 3091 N 279.361 -1.56624 0.175154 0
M  V30 3092 C 280.591 -2.01082 -0.474283 0
M  V30 3093 C 280.999 -1.05447 -1.57091 0
M  V30 3094 O 280.342 -0.0480595 -1.83637 0
M  V30 3095 C 280.404 -3.41963 -1.10911 0
M  V30 3096 C 280.068 -4.56742 -0.153666 0
M  V30 3097 C 281.065 -5.16076 0.629448 0
M  V30 3098 C 278.75 -5.02277 -0.0483776 0
M  V30 3099 C 280.744 -6.19377 1.50501 0
M  V30 3100 C 278.431 -6.05427 0.830768 0
M  V30 3101 C 279.429 -6.63849 1.60605 0
M  V30 3102 O 279.117 -7.64998 2.47049 0
M  V30 3103 H 278.849 -0.664261 -0.125432 0
M  V30 3104 H 281.403 -2.03549 0.275163 0
M  V30 3105 H 279.633 -3.36422 -1.90676 0
M  V30 3106 H 281.322 -3.70352 -1.66114 0
M  V30 3107 H 282.088 -4.81776 0.558297 0
M  V30 3108 H 277.967 -4.56513 -0.641611 0
M  V30 3109 H 281.511 -6.64906 2.1106 0
M  V30 3110 H 277.408 -6.39151 0.903107 0
M  V30 3111 H 278.176 -7.82336 2.40607 0
M  V30 3112 N 280.839 0.0985539 -1.57292 0
M  V30 3113 C 281.771 1.14595 -1.98496 0
M  V30 3114 C 282.784 1.36512 -0.887031 0
M  V30 3115 O 283.973 1.35225 -1.16518 0
M  V30 3116 C 281.073 2.50216 -2.28572 0
M  V30 3117 C 280.246 2.48624 -3.59868 0
M  V30 3118 C 279.305 3.66146 -3.7792 0
M  V30 3119 O 278.331 3.48795 -4.49812 0
M  V30 3120 N 279.533 4.85496 -3.18235 0
M  V30 3121 H 282.298 0.795277 -2.88956 0
M  V30 3122 H 279.859 0.287579 -1.59325 0
M  V30 3123 H 281.851 3.27432 -2.37845 0
M  V30 3124 H 280.421 2.77387 -1.44136 0
M  V30 3125 H 279.641 1.56978 -3.61596 0
M  V30 3126 H 280.929 2.44635 -4.46129 0
M  V30 3127 H 280.327 5.02497 -2.59833 0
M  V30 3128 H 278.884 5.60317 -3.32999 0
M  V30 3129 N 282.317 1.53212 0.369288 0
M  V30 3130 C 283.594 1.59815 1.12776 0
M  V30 3131 C 283.974 0.403402 2.0721 0
M  V30 3132 O 283.322 -0.606667 2.20299 0
M  V30 3133 C 283.532 2.94664 1.87013 0
M  V30 3134 C 284.88 3.49109 2.41677 0
M  V30 3135 O 285.904 2.96669 1.97144 0
M  V30 3136 O 284.763 4.40775 3.23079 0
M  V30 3137 H 281.857 0.645376 0.517125 0
M  V30 3138 H 284.403 1.65553 0.37285 0
M  V30 3139 H 283.175 3.73061 1.18071 0
M  V30 3140 H 282.798 2.92401 2.69421 0
M  V30 3141 N 283.795 -0.628877 1.44509 0
M  V30 3142 C 284.727 -1.754 1.47538 0
M  V30 3143 C 285.74 -1.58575 0.368506 0
M  V30 3144 O 286.929 -1.66847 0.634376 0
M  V30 3145 C 284.029 -3.1315 1.29577 0
M  V30 3146 C 283.202 -3.56413 2.53551 0
M  V30 3147 C 282.261 -4.7305 2.30457 0
M  V30 3148 O 281.287 -4.81247 3.03957 0
M  V30 3149 N 282.489 -5.64903 1.3366 0
M  V30 3150 H 285.254 -1.73272 2.44534 0
M  V30 3151 H 282.815 -0.813512 1.39977 0
M  V30 3152 H 284.807 -3.88902 1.11971 0
M  V30 3153 H 283.377 -3.09908 0.409371 0
M  V30 3154 H 282.597 -2.70847 2.86419 0
M  V30 3155 H 283.885 -3.82071 3.36005 0
M  V30 3156 H 283.283 -5.60975 0.729604 0
M  V30 3157 H 281.84 -6.40275 1.22032 0
M  V30 3158 N 285.273 -1.31445 -0.869486 0
M  V30 3159 C 286.183 -1.21097 -2.0093 0
M  V30 3160 C 287.199 -0.127584 -1.73532 0
M  V30 3161 O 288.375 -0.345477 -1.98415 0
M  V30 3162 C 285.44 -0.919378 -3.34288 0
M  V30 3163 C 284.501 -2.08971 -3.75006 0
M  V30 3164 C 283.734 -1.81194 -5.02001 0
M  V30 3165 O 283.957 -0.747296 -5.65484 0
M  V30 3166 O 282.891 -2.66883 -5.39497 0
M  V30 3167 H 286.717 -2.16883 -2.12592 0
M  V30 3168 H 284.302 -1.11189 -0.997868 0
M  V30 3169 H 286.184 -0.772625 -4.14257 0
M  V30 3170 H 284.859 0.00844772 -3.23699 0
M  V30 3171 H 283.766 -2.29187 -2.95676 0
M  V30 3172 H 285.099 -2.9998 -3.90221 0
M  V30 3173 N 286.751 1.08385 -1.14413 0
M  V30 3174 C 287.998 1.80776 -0.912482 0
M  V30 3175 C 288.326 1.86236 0.560934 0
M  V30 3176 O 287.581 1.33431 1.43159 0
M  V30 3177 C 287.88 3.26273 -1.45879 0
M  V30 3178 C 287.546 3.4093 -2.95089 0
M  V30 3179 C 286.208 3.44638 -3.35824 0
M  V30 3180 C 288.56 3.44591 -3.91033 0
M  V30 3181 C 285.888 3.49597 -4.71167 0
M  V30 3182 C 288.24 3.51086 -5.26233 0
M  V30 3183 C 286.904 3.53067 -5.6648 0
M  V30 3184 H 286.174 0.661507 -0.333901 0
M  V30 3185 H 288.821 1.27613 -1.42784 0
M  V30 3186 H 287.126 3.82146 -0.864376 0
M  V30 3187 H 288.823 3.80839 -1.2555 0
M  V30 3188 H 285.413 3.38736 -2.62594 0
M  V30 3189 H 289.597 3.40957 -3.60641 0
M  V30 3190 H 284.853 3.49424 -5.0171 0
M  V30 3191 H 289.027 3.52864 -6.00383 0
M  V30 3192 H 286.654 3.56662 -6.71339 0
M  V30 3193 N 288.23 0.939286 1.26551 0
M  V30 3194 C 289.16 0.465044 2.28822 0
M  V30 3195 C 290.141 -0.480692 1.63167 0
M  V30 3196 O 291.326 -0.382955 1.90387 0
M  V30 3197 C 288.456 -0.27234 3.46231 0
M  V30 3198 C 287.41 0.58666 4.2396 0
M  V30 3199 C 286.736 -0.280573 5.33963 0
M  V30 3200 C 288.036 1.85704 4.88171 0
M  V30 3201 H 289.73 1.31979 2.68741 0
M  V30 3202 H 287.276 0.636061 1.29191 0
M  V30 3203 H 289.229 -0.615133 4.16886 0
M  V30 3204 H 287.953 -1.16121 3.0526 0
M  V30 3205 H 286.612 0.91232 3.55067 0
M  V30 3206 H 286.26 -1.16874 4.89234 0
M  V30 3207 H 285.96 0.29076 5.8688 0
M  V30 3208 H 287.484 -0.618678 6.07458 0
M  V30 3209 H 288.898 1.58161 5.51052 0
M  V30 3210 H 287.295 2.37279 5.51197 0
M  V30 3211 H 288.365 2.56957 4.11219 0
M  V30 3212 N 289.708 -1.40897 0.706093 0
M  V30 3213 C 290.655 -2.30751 0.0474474 0
M  V30 3214 C 291.625 -1.47678 -0.76029 0
M  V30 3215 O 292.81 -1.76441 -0.726177 0
M  V30 3216 C 289.95 -3.33815 -0.875309 0
M  V30 3217 C 289.063 -4.31961 -0.0580623 0
M  V30 3218 C 288.198 -5.22093 -0.979425 0
M  V30 3219 C 287.237 -6.11902 -0.155706 0
M  V30 3220 N 286.374 -6.94482 -1.03144 0
M  V30 3221 H 291.214 -2.86513 0.819413 0
M  V30 3222 H 288.751 -1.41102 0.415783 0
M  V30 3223 H 290.709 -3.92129 -1.42446 0
M  V30 3224 H 289.339 -2.79579 -1.61356 0
M  V30 3225 H 288.391 -3.75507 0.608147 0
M  V30 3226 H 289.703 -4.95415 0.580082 0
M  V30 3227 H 288.857 -5.85292 -1.59744 0
M  V30 3228 H 287.596 -4.5889 -1.65141 0
M  V30 3229 H 286.601 -5.47742 0.475309 0
M  V30 3230 H 287.826 -6.77162 0.512635 0
M  V30 3231 H 285.772 -6.33877 -1.68924 0
M  V30 3232 H 285.689 -7.54665 -0.449108 0
M  V30 3233 H 286.957 -7.6214 -1.63593 0
M  V30 3234 N 291.186 -0.45159 -1.50991 0
M  V30 3235 C 292.119 0.398179 -2.24699 0
M  V30 3236 C 293.097 1.01276 -1.27208 0
M  V30 3237 O 294.281 1.05247 -1.56382 0
M  V30 3238 C 291.408 1.55618 -3.00833 0
M  V30 3239 C 290.454 1.0609 -4.13095 0
M  V30 3240 S 291.287 -0.00865136 -5.35499 0
M  V30 3241 C 292.443 1.15369 -6.15175 0
M  V30 3242 H 292.676 -0.227555 -2.96428 0
M  V30 3243 H 290.209 -0.236251 -1.52582 0
M  V30 3244 H 292.167 2.21997 -3.45293 0
M  V30 3245 H 290.828 2.15337 -2.28667 0
M  V30 3246 H 290.021 1.92726 -4.65696 0
M  V30 3247 H 289.623 0.47513 -3.7097 0
M  V30 3248 H 291.915 2.06925 -6.45126 0
M  V30 3249 H 292.858 0.667344 -7.04948 0
M  V30 3250 H 293.266 1.3987 -5.46897 0
M  V30 3251 N 292.664 1.56529 -0.183458 0
M  V30 3252 C 293.594 2.21549 0.737456 0
M  V30 3253 C 294.575 1.17489 1.23005 0
M  V30 3254 O 295.76 1.45959 1.281 0
M  V30 3255 C 292.89 2.86575 1.96194 0
M  V30 3256 C 291.844 3.96778 1.60473 0
M  V30 3257 C 291.17 4.48911 2.90487 0
M  V30 3258 C 292.47 5.15767 0.823497 0
M  V30 3259 H 294.164 2.98761 0.195453 0
M  V30 3260 H 291.71 1.43702 0.0925686 0
M  V30 3261 H 293.663 3.30739 2.61131 0
M  V30 3262 H 292.387 2.06749 2.52828 0
M  V30 3263 H 291.046 3.53286 0.978997 0
M  V30 3264 H 290.694 3.65862 3.45186 0
M  V30 3265 H 290.394 5.23265 2.67335 0
M  V30 3266 H 291.918 4.95771 3.56432 0
M  V30 3267 H 293.332 5.56549 1.37571 0
M  V30 3268 H 291.729 5.96114 0.690551 0
M  V30 3269 H 292.799 4.84574 -0.177782 0
M  V30 3270 N 294.142 -0.090211 1.57342 0
M  V30 3271 C 295.09 -1.12792 2.03422 0
M  V30 3272 C 296.084 -1.41182 0.936166 0
M  V30 3273 O 297.29 -1.40805 1.12133 0
M  V30 3274 H 293.665 -0.380986 0.648347 0
M  V30 3275 H 295.636 -0.71299 2.89757 0
M  V30 3276 C 294.385 -2.43855 2.47851 0
M  V30 3277 H 293.708 -2.22855 3.31927 0
M  V30 3278 H 295.148 -3.14955 2.83865 0
M  V30 3279 C 293.607 -3.08503 1.3538 0
M  V30 3280 O 294.137 -3.95805 0.685641 0
M  V30 3281 N 292.343 -2.68831 1.10355 0
M  V30 3282 H 291.89 -1.97929 1.64869 0
M  V30 3283 H 291.848 -3.12412 0.353031 0
M  V30 3284 N 295.62 -1.53406 -0.361157 0
M  V30 3285 C 296.55 -1.83136 -1.44857 0
M  V30 3286 C 297.531 -0.685174 -1.5569 0
M  V30 3287 O 298.716 -0.93544 -1.70186 0
M  V30 3288 C 295.846 -2.02522 -2.82138 0
M  V30 3289 C 294.8 -3.18302 -2.86126 0
M  V30 3290 C 294.126 -3.22989 -4.26125 0
M  V30 3291 C 295.426 -4.56796 -2.53248 0
M  V30 3292 H 297.12 -2.74201 -1.20226 0
M  V30 3293 H 294.666 -1.31938 -0.576922 0
M  V30 3294 H 296.619 -2.21904 -3.58241 0
M  V30 3295 H 295.343 -1.08172 -3.08166 0
M  V30 3296 H 294.002 -2.98747 -2.12475 0
M  V30 3297 H 293.65 -2.26267 -4.49235 0
M  V30 3298 H 293.35 -4.00781 -4.29708 0
M  V30 3299 H 294.874 -3.44559 -5.04094 0
M  V30 3300 H 296.288 -4.7631 -3.19064 0
M  V30 3301 H 294.685 -5.36862 -2.68141 0
M  V30 3302 H 295.755 -4.61606 -1.48484 0
M  V30 3303 N 297.098 0.621204 -1.44841 0
M  V30 3304 C 298.345 1.38055 -1.48145 0
M  V30 3305 C 298.673 1.94143 -0.117867 0
M  V30 3306 O 297.928 1.74713 0.881694 0
M  V30 3307 C 298.227 2.55675 -2.4973 0
M  V30 3308 C 297.893 2.17817 -3.94799 0
M  V30 3309 C 296.555 2.07205 -4.34303 0
M  V30 3310 C 298.907 1.88065 -4.86087 0
M  V30 3311 C 296.235 1.65045 -5.63007 0
M  V30 3312 C 298.587 1.47394 -6.15189 0
M  V30 3313 C 297.251 1.35331 -6.53637 0
M  V30 3314 H 296.521 0.505181 -0.542101 0
M  V30 3315 H 299.168 0.703477 -1.78111 0
M  V30 3316 H 297.473 3.2866 -2.13284 0
M  V30 3317 H 299.17 3.13904 -2.4953 0
M  V30 3318 H 295.76 2.26998 -3.63552 0
M  V30 3319 H 299.944 1.95168 -4.56315 0
M  V30 3320 H 295.2 1.54317 -5.91605 0
M  V30 3321 H 299.374 1.23415 -6.85377 0
M  V30 3322 H 297.001 1.02435 -7.53267 0
M  V30 3323 N 298.576 1.31904 0.862503 0
M  V30 3324 C 299.806 1.24817 1.64634 0
M  V30 3325 C 300.214 -0.187579 1.88268 0
M  V30 3326 O 299.557 -1.13253 1.44635 0
M  V30 3327 C 299.619 1.92996 3.03303 0
M  V30 3328 C 299.283 3.42336 3.02746 0
M  V30 3329 C 300.28 4.37956 2.80162 0
M  V30 3330 C 297.965 3.84147 3.2363 0
M  V30 3331 C 299.959 5.73361 2.78453 0
M  V30 3332 C 297.646 5.19663 3.21549 0
M  V30 3333 C 298.644 6.14081 2.98988 0
M  V30 3334 O 298.332 7.47118 2.96766 0
M  V30 3335 H 298.064 0.432222 0.519769 0
M  V30 3336 H 300.618 1.7445 1.08427 0
M  V30 3337 H 298.848 1.37922 3.61268 0
M  V30 3338 H 300.537 1.79723 3.63943 0
M  V30 3339 H 301.303 4.06981 2.63802 0
M  V30 3340 H 297.182 3.11083 3.40218 0
M  V30 3341 H 300.726 6.4703 2.60763 0
M  V30 3342 H 296.623 5.5027 3.37451 0
M  V30 3343 H 297.391 7.56382 3.12775 0
M  V30 3344 N 300.054 -1.07777 1.14986 0
M  V30 3345 C 300.986 -2.14769 0.800436 0
M  V30 3346 C 301.999 -1.61739 -0.185595 0
M  V30 3347 O 303.188 -1.78462 0.0370358 0
M  V30 3348 C 300.288 -3.38481 0.168533 0
M  V30 3349 C 299.461 -4.20876 1.1909 0
M  V30 3350 C 298.52 -5.22976 0.581575 0
M  V30 3351 O 297.546 -5.55388 1.24633 0
M  V30 3352 N 298.748 -5.76976 -0.638706 0
M  V30 3353 H 301.513 -2.45348 1.72118 0
M  V30 3354 H 299.074 -1.23645 1.04515 0
M  V30 3355 H 301.066 -4.03916 -0.251764 0
M  V30 3356 H 299.636 -3.05651 -0.655467 0
M  V30 3357 H 298.856 -3.51322 1.78791 0
M  V30 3358 H 300.144 -4.7274 1.88133 0
M  V30 3359 H 299.542 -5.52886 -1.19723 0
M  V30 3360 H 298.099 -6.44061 -1.00142 0
M  V30 3361 N 301.532 -0.945985 -1.26051 0
M  V30 3362 C 302.76 -0.613025 -1.9761 0
M  V30 3363 C 303.175 0.813035 -1.70397 0
M  V30 3364 O 302.532 1.54274 -0.974979 0
M  V30 3365 C 302.583 -0.85159 -3.51326 0
M  V30 3366 O 302.304 -2.22157 -3.77595 0
M  V30 3367 C 303.805 -0.529831 -4.40122 0
M  V30 3368 H 301.025 -0.230593 -0.630133 0
M  V30 3369 H 303.569 -1.268 -1.60443 0
M  V30 3370 H 301.724 -0.243151 -3.86636 0
M  V30 3371 H 302.138 -2.2852 -4.721 0
M  V30 3372 H 303.612 -0.747348 -5.46917 0
M  V30 3373 H 304.089 0.535341 -4.35925 0
M  V30 3374 H 304.695 -1.11721 -4.10364 0
M  V30 3375 N 303.011 1.40521 -0.713556 0
M  V30 3376 C 304.258 2.00923 -0.25219 0
M  V30 3377 C 304.586 1.56571 1.15395 0
M  V30 3378 O 303.841 0.775874 1.79663 0
M  V30 3379 C 304.14 3.56317 -0.278 0
M  V30 3380 C 303.806 4.20246 -1.63415 0
M  V30 3381 C 302.468 4.37422 -2.00538 0
M  V30 3382 C 304.82 4.55923 -2.52554 0
M  V30 3383 C 302.148 4.87558 -3.2635 0
M  V30 3384 C 304.5 5.07458 -3.77716 0
M  V30 3385 C 303.164 5.22843 -4.14959 0
M  V30 3386 H 302.434 0.735231 -0.0922829 0
M  V30 3387 H 305.081 1.68161 -0.916188 0
M  V30 3388 H 303.386 3.88976 0.469567 0
M  V30 3389 H 305.083 4.00883 0.0967819 0
M  V30 3390 H 301.673 4.07263 -1.33546 0
M  V30 3391 H 305.857 4.42291 -2.25149 0
M  V30 3392 H 301.113 4.97654 -3.55176 0
M  V30 3393 H 305.287 5.34041 -4.4696 0
M  V30 3394 H 302.914 5.61454 -5.12516 0
M  V30 3395 N 304.489 0.459591 1.5075 0
M  V30 3396 C 305.714 -0.0996819 2.0716 0
M  V30 3397 C 306.139 -1.33761 1.32249 0
M  V30 3398 O 305.497 -1.77551 0.366786 0
M  V30 3399 C 305.545 -0.378226 3.58611 0
M  V30 3400 O 304.649 -1.46081 3.85661 0
M  V30 3401 H 303.99 0.00791392 0.663953 0
M  V30 3402 H 306.52 0.647329 1.9409 0
M  V30 3403 H 306.53 -0.622135 4.03229 0
M  V30 3404 H 305.205 0.526439 4.12555 0
M  V30 3405 H 303.782 -1.20511 3.5289 0
M  V30 3406 N 305.967 -1.56429 0.191757 0
M  V30 3407 C 306.897 -2.21937 -0.725696 0
M  V30 3408 C 307.878 -1.1814 -1.2238 0
M  V30 3409 O 309.063 -1.46636 -1.27325 0
M  V30 3410 C 306.193 -2.87611 -1.94672 0
M  V30 3411 C 305.147 -3.97623 -1.58366 0
M  V30 3412 C 304.473 -4.50446 -2.88102 0
M  V30 3413 C 305.773 -5.16197 -0.796133 0
M  V30 3414 H 307.467 -2.98861 -0.179606 0
M  V30 3415 H 305.013 -1.43749 -0.0849464 0
M  V30 3416 H 306.966 -3.3212 -2.59373 0
M  V30 3417 H 305.69 -2.08087 -2.51728 0
M  V30 3418 H 304.349 -3.53801 -0.960247 0
M  V30 3419 H 303.997 -3.67688 -3.43241 0
M  V30 3420 H 303.697 -5.24675 -2.64556 0
M  V30 3421 H 305.221 -4.97654 -3.53798 0
M  V30 3422 H 306.635 -5.57271 -1.34618 0
M  V30 3423 H 305.032 -5.96471 -0.658928 0
M  V30 3424 H 306.102 -4.84473 0.203478 0
M  V30 3425 N 307.445 0.0818655 -1.57387 0
M  V30 3426 C 308.694 0.781681 -1.85937 0
M  V30 3427 C 309.007 1.79246 -0.782957 0
M  V30 3428 O 310.213 2.54112 -0.955987 0
M  V30 3429 C 308.669 1.44109 -3.29789 0
M  V30 3430 C 308.277 0.469396 -4.45534 0
M  V30 3431 C 310.021 2.12386 -3.67549 0
M  V30 3432 C 307.928 1.13415 -5.80423 0
M  V30 3433 H 306.858 0.295682 -0.693605 0
M  V30 3434 H 309.509 0.0348051 -1.83467 0
M  V30 3435 H 307.891 2.23588 -3.2684 0
M  V30 3436 H 309.065 -0.294856 -4.59856 0
M  V30 3437 H 307.38 -0.108383 -4.16259 0
M  V30 3438 H 309.977 2.62878 -4.65617 0
M  V30 3439 H 310.32 2.91877 -2.96839 0
M  V30 3440 H 310.853 1.39751 -3.72444 0
M  V30 3441 H 307.592 0.379771 -6.54399 0
M  V30 3442 H 307.112 1.8695 -5.69921 0
M  V30 3443 H 308.791 1.65686 -6.25426 0
M  V30 3444 N 308.923 1.53595 0.353017 0
M  V30 3445 C 310.148 1.7462 1.11904 0
M  V30 3446 C 310.573 0.479721 1.8188 0
M  V30 3447 O 309.931 -0.567066 1.72204 0
M  V30 3448 C 309.979 2.92029 2.11545 0
M  V30 3449 O 309.083 2.61516 3.18878 0
M  V30 3450 H 308.424 0.579531 0.324099 0
M  V30 3451 H 310.954 2.00525 0.406301 0
M  V30 3452 H 310.964 3.18551 2.5493 0
M  V30 3453 H 309.639 3.83888 1.60008 0
M  V30 3454 H 308.216 2.45852 2.80377 0
M  V30 3455 N 310.401 -0.613514 1.45168 0
M  V30 3456 C 311.626 -1.40437 1.52618 0
M  V30 3457 C 312.051 -1.87438 0.157707 0
M  V30 3458 O 311.409 -1.59791 -0.856537 0
M  V30 3459 C 311.457 -2.58894 2.51011 0
M  V30 3460 O 310.561 -3.59326 2.02382 0
M  V30 3461 H 309.902 -0.419506 0.514695 0
M  V30 3462 H 312.432 -0.747215 1.90467 0
M  V30 3463 H 312.442 -3.06214 2.69624 0
M  V30 3464 H 311.117 -2.24032 3.50403 0
M  V30 3465 H 309.694 -3.18695 1.93618 0
M  V30 3466 N 311.879 -1.3236 -0.855495 0
M  V30 3467 C 313.125 -1.23054 -1.612 0
M  V30 3468 C 313.458 0.207404 -1.93089 0
M  V30 3469 O 312.733 1.14432 -1.57275 0
M  V30 3470 C 313.016 -2.08937 -2.93287 0
M  V30 3471 C 312.869 -3.61105 -2.68185 0
M  V30 3472 C 314.188 -1.94986 -3.94549 0
M  V30 3473 H 311.307 -0.448364 -0.584926 0
M  V30 3474 H 313.949 -1.62297 -0.987917 0
M  V30 3475 H 312.099 -1.75599 -3.46551 0
M  V30 3476 H 313.771 -4.04652 -2.21483 0
M  V30 3477 H 312.014 -3.83813 -2.02164 0
M  V30 3478 H 312.685 -4.16522 -3.62234 0
M  V30 3479 H 315.161 -2.24189 -3.5054 0
M  V30 3480 H 314.037 -2.57356 -4.84829 0
M  V30 3481 H 314.298 -0.917263 -4.3248 0
M  V30 3482 N 313.357 1.07166 -1.15556 0
M  V30 3483 C 314.604 1.79798 -0.931604 0
M  V30 3484 C 314.932 1.8682 0.54115 0
M  V30 3485 O 314.187 1.34942 1.41736 0
M  V30 3486 C 314.486 3.24707 -1.49332 0
M  V30 3487 C 314.152 3.37781 -2.98688 0
M  V30 3488 C 312.814 3.41057 -3.39461 0
M  V30 3489 C 315.166 3.40424 -3.94665 0
M  V30 3490 C 312.494 3.4458 -4.74849 0
M  V30 3491 C 314.846 3.45485 -5.29927 0
M  V30 3492 C 313.51 3.47039 -5.70193 0
M  V30 3493 H 312.78 0.657928 -0.340898 0
M  V30 3494 H 315.427 1.26091 -1.44129 0
M  V30 3495 H 313.732 3.81208 -0.904859 0
M  V30 3496 H 315.429 3.79486 -1.29582 0
M  V30 3497 H 312.019 3.35932 -2.66172 0
M  V30 3498 H 316.203 3.37113 -3.64237 0
M  V30 3499 H 311.459 3.44083 -5.05388 0
M  V30 3500 H 315.633 3.46476 -6.04092 0
M  V30 3501 H 313.26 3.49522 -6.75084 0
M  V30 3502 N 314.835 0.952656 1.25548 0
M  V30 3503 C 316.083 0.605176 1.92826 0
M  V30 3504 C 316.404 -0.860261 1.74999 0
M  V30 3505 O 315.674 -1.6125 1.11244 0
M  V30 3506 H 314.254 0.220832 0.713612 0
M  V30 3507 H 316.916 1.21047 1.52754 0
M  V30 3508 H 316.012 0.832798 3.00784 0
M  V30 3509 N 316.313 -1.40141 0.720998 0
M  V30 3510 C 317.245 -2.29177 0.0324669 0
M  V30 3511 C 318.258 -1.46105 -0.718126 0
M  V30 3512 O 319.447 -1.69335 -0.564608 0
M  V30 3513 C 316.547 -3.24473 -0.978292 0
M  V30 3514 C 315.72 -4.36423 -0.292115 0
M  V30 3515 C 314.779 -5.12122 -1.20901 0
M  V30 3516 O 313.805 -5.64981 -0.691766 0
M  V30 3517 N 315.007 -5.21992 -2.53978 0
M  V30 3518 H 317.772 -2.88909 0.796984 0
M  V30 3519 H 315.333 -1.51569 0.569068 0
M  V30 3520 H 317.325 -3.71987 -1.59398 0
M  V30 3521 H 315.895 -2.65871 -1.64413 0
M  V30 3522 H 315.115 -3.90967 0.503847 0
M  V30 3523 H 316.403 -5.08467 0.183971 0
M  V30 3524 H 315.801 -4.8054 -2.98493 0
M  V30 3525 H 314.358 -5.72995 -3.10677 0
M  V30 3526 N 317.792 -0.46758 -1.50504 0
M  V30 3527 C 318.722 0.318381 -2.31319 0
M  V30 3528 C 319.703 0.993564 -1.38066 0
M  V30 3529 O 320.888 0.991411 -1.66987 0
M  V30 3530 C 318.018 1.40275 -3.17711 0
M  V30 3531 C 316.972 0.849373 -4.19487 0
M  V30 3532 C 316.298 2.03177 -4.94594 0
M  V30 3533 C 317.598 -0.136942 -5.2212 0
M  V30 3534 H 319.292 -0.356106 -2.97275 0
M  V30 3535 H 316.838 -0.172703 -1.42961 0
M  V30 3536 H 318.791 1.96004 -3.73042 0
M  V30 3537 H 317.515 2.10596 -2.49634 0
M  V30 3538 H 316.174 0.314076 -3.65252 0
M  V30 3539 H 315.822 2.72187 -4.22993 0
M  V30 3540 H 315.522 1.66774 -5.63436 0
M  V30 3541 H 317.046 2.59403 -5.52759 0
M  V30 3542 H 318.46 0.331056 -5.72343 0
M  V30 3543 H 316.857 -0.41507 -5.98663 0
M  V30 3544 H 317.927 -1.06398 -4.73083 0
M  V30 3545 N 319.27 1.56325 -0.20005 0
M  V30 3546 C 320.517 1.97719 0.437411 0
M  V30 3547 C 320.845 1.08709 1.61284 0
M  V30 3548 O 320.1 0.127261 1.95286 0
M  V30 3549 C 320.399 3.4495 0.935103 0
M  V30 3550 C 320.065 4.5072 -0.12749 0
M  V30 3551 C 318.727 4.79368 -0.419451 0
M  V30 3552 C 321.079 5.14268 -0.847231 0
M  V30 3553 C 318.407 5.68854 -1.43604 0
M  V30 3554 C 320.759 6.04852 -1.85301 0
M  V30 3555 C 319.423 6.31855 -2.15211 0
M  V30 3556 H 318.693 0.723507 0.16006 0
M  V30 3557 H 321.34 1.89166 -0.298056 0
M  V30 3558 H 319.645 3.50599 1.74894 0
M  V30 3559 H 321.342 3.74337 1.43781 0
M  V30 3560 H 317.932 4.28458 0.11023 0
M  V30 3561 H 322.116 4.92222 -0.634901 0
M  V30 3562 H 317.372 5.88047 -1.67364 0
M  V30 3563 H 321.546 6.53152 -2.41591 0
M  V30 3564 H 319.173 7.00994 -2.94129 0
M  V30 3565 N 320.748 -0.0735177 1.57428 0
M  V30 3566 C 321.658 -1.10547 2.06922 0
M  V30 3567 C 322.674 -1.42506 0.998402 0
M  V30 3568 O 323.85 -1.52717 1.31299 0
M  V30 3569 C 320.915 -2.40019 2.50184 0
M  V30 3570 C 319.976 -2.15046 3.71556 0
M  V30 3571 C 319.209 -3.38345 4.12745 0
M  V30 3572 O 319.432 -4.47399 3.53822 0
M  V30 3573 O 318.366 -3.2666 5.05546 0
M  V30 3574 H 322.192 -0.715013 2.95163 0
M  V30 3575 H 319.777 -0.287531 1.46607 0
M  V30 3576 H 321.659 -3.16218 2.78539 0
M  V30 3577 H 320.334 -2.78447 1.65072 0
M  V30 3578 H 319.241 -1.36558 3.48285 0
M  V30 3579 H 320.574 -1.81499 4.57514 0
M  V30 3580 N 322.226 -1.5378 -0.344866 0
M  V30 3581 C 323.156 -1.84662 -1.42906 0
M  V30 3582 C 324.137 -0.701648 -1.54955 0
M  V30 3583 O 325.322 -0.953438 -1.69184 0
M  V30 3584 C 322.452 -2.05503 -2.79974 0
M  V30 3585 C 321.406 -3.21318 -2.82734 0
M  V30 3586 C 320.732 -3.2749 -4.22675 0
M  V30 3587 C 322.032 -4.59456 -2.48389 0
M  V30 3588 H 323.726 -2.75461 -1.17311 0
M  V30 3589 H 321.272 -1.32542 -0.562896 0
M  V30 3590 H 323.225 -2.25691 -3.55867 0
M  V30 3591 H 321.949 -1.11434 -3.07002 0
M  V30 3592 H 320.608 -3.00984 -2.09294 0
M  V30 3593 H 320.256 -2.31019 -4.4681 0
M  V30 3594 H 319.956 -4.05316 -4.25433 0
M  V30 3595 H 321.48 -3.49887 -5.00412 0
M  V30 3596 H 322.894 -4.79667 -3.13995 0
M  V30 3597 H 321.291 -5.39675 -2.62432 0
M  V30 3598 H 322.361 -4.63155 -1.4358 0
M  V30 3599 N 323.704 0.605807 -1.45491 0
M  V30 3600 C 324.951 1.36476 -1.49601 0
M  V30 3601 C 325.279 1.94007 -0.138452 0
M  V30 3602 O 324.534 1.75638 0.863114 0
M  V30 3603 C 324.833 2.53012 -2.52428 0
M  V30 3604 C 324.499 2.13617 -3.97087 0
M  V30 3605 C 323.161 2.02587 -4.36477 0
M  V30 3606 C 325.513 1.82899 -4.88055 0
M  V30 3607 C 322.841 1.59064 -5.64726 0
M  V30 3608 C 325.193 1.40861 -6.16718 0
M  V30 3609 C 323.857 1.28391 -6.55036 0
M  V30 3610 H 323.127 0.499402 -0.547429 0
M  V30 3611 H 325.774 0.684546 -1.78847 0
M  V30 3612 H 324.079 3.26379 -2.16758 0
M  V30 3613 H 325.776 3.1124 -2.52845 0
M  V30 3614 H 322.366 2.23129 -3.65939 0
M  V30 3615 H 326.55 1.90317 -4.58359 0
M  V30 3616 H 321.806 1.48034 -5.93208 0
M  V30 3617 H 325.98 1.16138 -6.86648 0
M  V30 3618 H 323.607 0.944403 -7.54311 0
M  V30 3619 N 325.182 1.32811 0.848464 0
M  V30 3620 C 326.407 1.26882 1.6406 0
M  V30 3621 C 326.832 -0.15913 1.87426 0
M  V30 3622 O 326.19 -1.11258 1.43148 0
M  V30 3623 C 326.238 2.03997 2.97351 0
M  V30 3624 O 325.342 1.39201 3.88197 0
M  V30 3625 H 324.683 0.436982 0.499943 0
M  V30 3626 H 327.213 1.75224 1.0563 0
M  V30 3627 H 327.223 2.14403 3.47124 0
M  V30 3628 H 325.898 3.0783 2.79666 0
M  V30 3629 H 324.475 1.37381 3.46671 0
M  V30 3630 N 326.66 -1.06551 1.16123 0
M  V30 3631 C 327.908 -1.78947 0.939267 0
M  V30 3632 C 328.229 -1.87532 -0.534476 0
M  V30 3633 O 327.499 -1.38211 -1.38833 0
M  V30 3634 H 326.079 -0.662807 0.344523 0
M  V30 3635 H 328.741 -1.28725 1.46342 0
M  V30 3636 H 327.837 -2.81117 1.35572 0
M  V30 3637 N 328.138 -0.959301 -1.25041 0
M  V30 3638 C 329.385 -0.616611 -1.92884 0
M  V30 3639 C 329.713 0.847036 -1.75087 0
M  V30 3640 O 328.968 1.62374 -1.09239 0
M  V30 3641 C 329.267 -0.927136 -3.45165 0
M  V30 3642 C 328.933 -2.37757 -3.83122 0
M  V30 3643 C 327.595 -2.77402 -3.93194 0
M  V30 3644 C 329.947 -3.31929 -4.01836 0
M  V30 3645 C 327.275 -4.10277 -4.19392 0
M  V30 3646 C 329.627 -4.64423 -4.29528 0
M  V30 3647 C 328.291 -5.03857 -4.37818 0
M  V30 3648 H 327.561 -0.225634 -0.705812 0
M  V30 3649 H 330.208 -1.20921 -1.48493 0
M  V30 3650 H 328.513 -0.252195 -3.90987 0
M  V30 3651 H 330.21 -0.6405 -3.95852 0
M  V30 3652 H 326.8 -2.06013 -3.75841 0
M  V30 3653 H 330.984 -3.02488 -3.93465 0
M  V30 3654 H 326.24 -4.40467 -4.24027 0
M  V30 3655 H 330.414 -5.37369 -4.42953 0
M  V30 3656 H 328.041 -6.06843 -4.57871 0
M  V30 3657 N 329.616 1.39756 -0.72842 0
M  V30 3658 C 330.546 2.33289 -0.0991354 0
M  V30 3659 C 331.527 1.53568 0.731489 0
M  V30 3660 O 332.712 1.81987 0.677807 0
M  V30 3661 C 329.842 3.3763 0.813834 0
M  V30 3662 C 328.796 4.2791 0.0878663 0
M  V30 3663 C 328.122 5.22894 1.11741 0
M  V30 3664 C 329.422 5.11314 -1.06563 0
M  V30 3665 H 331.116 2.86163 -0.880408 0
M  V30 3666 H 328.662 1.37591 -0.424819 0
M  V30 3667 H 330.615 4.0201 1.26355 0
M  V30 3668 H 329.339 2.83181 1.62715 0
M  V30 3669 H 327.998 3.65 -0.342159 0
M  V30 3670 H 327.646 4.64744 1.92412 0
M  V30 3671 H 327.346 5.84143 0.636477 0
M  V30 3672 H 328.87 5.90151 1.56697 0
M  V30 3673 H 330.284 5.69076 -0.694671 0
M  V30 3674 H 328.681 5.81671 -1.47577 0
M  V30 3675 H 329.751 4.46534 -1.89038 0
M  V30 3676 N 331.094 0.475555 1.50254 0
M  V30 3677 C 332.041 -0.316293 2.28622 0
M  V30 3678 C 333.011 -0.983227 1.33873 0
M  V30 3679 O 334.196 -0.994805 1.62814 0
M  V30 3680 C 331.336 -1.38975 3.1588 0
M  V30 3681 C 330.449 -0.737146 4.25664 0
M  V30 3682 C 329.584 -1.78887 5.00173 0
M  V30 3683 C 328.623 -1.11676 6.01826 0
M  V30 3684 N 327.76 -2.11154 6.69596 0
M  V30 3685 H 332.6 0.358297 2.95838 0
M  V30 3686 H 330.137 0.188541 1.45887 0
M  V30 3687 H 332.095 -2.02383 3.64825 0
M  V30 3688 H 330.725 -2.03344 2.50701 0
M  V30 3689 H 329.777 0.0096065 3.80399 0
M  V30 3690 H 331.089 -0.206816 4.98371 0
M  V30 3691 H 330.243 -2.49865 5.52859 0
M  V30 3692 H 328.982 -2.35302 4.27182 0
M  V30 3693 H 327.987 -0.392633 5.48396 0
M  V30 3694 H 329.212 -0.55945 6.76792 0
M  V30 3695 H 327.158 -2.66577 5.99394 0
M  V30 3696 H 327.075 -1.63118 7.38193 0
M  V30 3697 H 328.343 -2.81497 7.26897 0
M  V30 3698 N 332.573 -1.56217 0.208337 0
M  V30 3699 C 333.803 -2.02043 -0.431523 0
M  V30 3700 C 334.211 -1.08755 -1.54819 0
M  V30 3701 O 333.554 -0.0870009 -1.83494 0
M  V30 3702 C 333.616 -3.44239 -1.03633 0
M  V30 3703 C 333.28 -4.56965 -0.0567502 0
M  V30 3704 C 334.277 -5.14624 0.738773 0
M  V30 3705 C 331.962 -5.02266 0.0581736 0
M  V30 3706 C 333.956 -6.16045 1.63605 0
M  V30 3707 C 331.643 -6.03528 0.959001 0
M  V30 3708 C 332.641 -6.60293 1.7465 0
M  V30 3709 O 332.329 -7.59586 2.6322 0
M  V30 3710 H 332.061 -0.666772 -0.111313 0
M  V30 3711 H 334.615 -2.02919 0.318277 0
M  V30 3712 H 332.845 -3.40391 -1.83497 0
M  V30 3713 H 334.534 -3.73793 -1.58221 0
M  V30 3714 H 335.3 -4.80483 0.660364 0
M  V30 3715 H 331.179 -4.57771 -0.544633 0
M  V30 3716 H 334.723 -6.60279 2.25116 0
M  V30 3717 H 330.62 -6.37092 1.03848 0
M  V30 3718 H 331.388 -7.77057 2.57148 0
M  V30 3719 N 334.051 0.0651679 -1.57465 0
M  V30 3720 C 335.298 0.763063 -1.87573 0
M  V30 3721 C 335.626 1.77242 -0.800961 0
M  V30 3722 O 334.881 1.94651 0.202316 0
M  V30 3723 C 335.18 1.50081 -3.24362 0
M  V30 3724 C 334.846 0.630816 -4.46466 0
M  V30 3725 C 333.508 0.391082 -4.79608 0
M  V30 3726 C 335.86 0.0279465 -5.21193 0
M  V30 3727 C 333.188 -0.460894 -5.84887 0
M  V30 3728 C 335.54 -0.811522 -6.27373 0
M  V30 3729 C 334.204 -1.06106 -6.59013 0
M  V30 3730 H 333.474 0.279224 -0.686378 0
M  V30 3731 H 336.121 0.0236726 -1.91485 0
M  V30 3732 H 334.426 2.31258 -3.16271 0
M  V30 3733 H 336.123 2.04571 -3.44894 0
M  V30 3734 H 332.713 0.8278 -4.2053 0
M  V30 3735 H 336.897 0.200262 -4.95896 0
M  V30 3736 H 332.153 -0.662907 -6.07796 0
M  V30 3737 H 336.327 -1.28537 -6.84435 0
M  V30 3738 H 333.954 -1.723 -7.40417 0
M  V30 3739 N 335.529 1.53961 0.336706 0
M  V30 3740 C 336.94 1.62914 0.911925 0
M  V30 3741 C 337.291 0.514795 1.89326 0
M  V30 3742 O 336.416 -0.354395 2.13478 0
M  V30 3743 C 337.011 2.95304 1.66076 0
M  V30 3744 C 335.57 3.06496 2.18489 0
M  V30 3745 C 334.717 2.58403 1.00613 0
M  V30 3746 H 337.668 1.58285 0.114649 0
M  V30 3747 H 337.689 2.84727 2.5241 0
M  V30 3748 H 337.201 3.76387 0.946276 0
M  V30 3749 H 335.302 2.3006 2.93092 0
M  V30 3750 H 335.415 4.1208 2.44391 0
M  V30 3751 H 333.779 2.13977 1.38152 0
M  V30 3752 H 334.562 3.41932 0.306179 0
M  V30 3753 N 337.007 -0.598083 1.45811 0
M  V30 3754 C 338.255 -1.35413 1.50026 0
M  V30 3755 C 338.576 -1.94444 0.147177 0
M  V30 3756 O 337.846 -1.77701 -0.824571 0
M  V30 3757 H 336.426 -0.502727 0.552517 0
M  V30 3758 H 339.088 -0.701606 1.81834 0
M  V30 3759 H 338.184 -2.16871 2.2444 0
M  V30 3760 N 338.485 -1.33259 -0.841409 0
M  V30 3761 C 339.448 -1.23221 -1.9326 0
M  V30 3762 C 340.448 -0.151895 -1.60081 0
M  V30 3763 O 341.638 -0.403246 -1.69468 0
M  V30 3764 C 338.77 -0.898123 -3.28856 0
M  V30 3765 H 339.963 -2.2021 -2.03587 0
M  V30 3766 H 337.516 -1.17281 -1.03319 0
M  V30 3767 H 338.251 0.0693841 -3.24226 0
M  V30 3768 H 338.036 -1.67934 -3.54317 0
M  V30 3769 H 339.526 -0.852563 -4.08805 0
M  V30 3770 N 339.963 1.05934 -1.16686 0
M  V30 3771 C 340.913 2.11764 -0.844978 0
M  V30 3772 C 341.897 1.59922 0.177178 0
M  V30 3773 O 343.089 1.76983 -0.0241768 0
M  V30 3774 C 340.218 3.41493 -0.351812 0
M  V30 3775 C 339.304 4.00152 -1.40496 0
M  V30 3776 N 339.695 4.32874 -2.61636 0
M  V30 3777 C 337.993 4.278 -1.26106 0
M  V30 3778 C 338.694 4.79552 -3.29249 0
M  V30 3779 N 337.67 4.79211 -2.56628 0
M  V30 3780 H 341.472 2.34916 -1.76612 0
M  V30 3781 H 338.986 1.23511 -1.05446 0
M  V30 3782 H 340.983 4.16773 -0.102796 0
M  V30 3783 H 339.643 3.19778 0.56322 0
M  V30 3784 H 340.654 4.23109 -2.98663 0
M  V30 3785 H 337.331 4.15511 -0.407081 0
M  V30 3786 H 338.721 5.14045 -4.32675 0
M  V30 3787 N 341.441 0.965919 1.2453 0
M  V30 3788 C 342.857 0.67216 1.44756 0
M  V30 3789 C 343.057 -0.766609 1.86347 0
M  V30 3790 O 342.113 -1.5407 2.00047 0
M  V30 3791 C 343.426 1.65473 2.51076 0
M  V30 3792 C 344.974 1.66716 2.64905 0
M  V30 3793 C 345.449 2.63766 3.74421 0
M  V30 3794 N 346.94 2.62198 3.81846 0
M  V30 3795 C 347.675 3.33966 4.66106 0
M  V30 3796 N 347.171 4.15245 5.54566 0
M  V30 3797 N 348.964 3.22799 4.60171 0
M  V30 3798 H 341.115 1.89553 0.958293 0
M  V30 3799 H 343.378 0.815979 0.482579 0
M  V30 3800 H 343.084 2.68296 2.27399 0
M  V30 3801 H 342.958 1.4261 3.49202 0
M  V30 3802 H 345.345 0.646057 2.87941 0
M  V30 3803 H 345.426 1.93642 1.67142 0
M  V30 3804 H 345.07 3.6601 3.52135 0
M  V30 3805 H 345 2.34121 4.71694 0
M  V30 3806 H 347.491 2.032 3.18619 0
M  V30 3807 H 347.804 4.66898 6.15814 0
M  V30 3808 H 346.149 4.1934 5.54237 0
M  V30 3809 H 349.34 2.58764 3.90075 0
M  V30 3810 H 349.513 3.78994 5.25612 0
M  V30 3811 N 342.919 -1.39368 0.735821 0
M  V30 3812 C 343.851 -2.2913 0.0567723 0
M  V30 3813 C 344.864 -1.46859 -0.702589 0
M  V30 3814 O 346.053 -1.69925 -0.546616 0
M  V30 3815 C 343.153 -3.25492 -0.943823 0
M  V30 3816 C 342.326 -4.36709 -0.24581 0
M  V30 3817 C 341.385 -5.13376 -1.15463 0
M  V30 3818 O 340.411 -5.65683 -0.631803 0
M  V30 3819 N 341.613 -5.24656 -2.48427 0
M  V30 3820 H 344.378 -2.88047 0.827582 0
M  V30 3821 H 341.939 -1.50957 0.585112 0
M  V30 3822 H 343.931 -3.73657 -1.55443 0
M  V30 3823 H 342.501 -2.676 -1.61583 0
M  V30 3824 H 341.721 -3.9041 0.545286 0
M  V30 3825 H 343.009 -5.08244 0.237891 0
M  V30 3826 H 342.407 -4.83679 -2.93379 0
M  V30 3827 H 340.964 -5.76258 -3.04582 0
M  V30 3828 N 344.397 -0.483516 -1.5 0
M  V30 3829 C 345.643 0.0672592 -2.02688 0
M  V30 3830 C 345.976 1.38247 -1.36387 0
M  V30 3831 O 345.251 1.88131 -0.493675 0
M  V30 3832 C 345.534 0.238109 -3.59312 0
M  V30 3833 C 345.387 -1.099 -4.36168 0
M  V30 3834 C 346.706 0.986916 -4.28892 0
M  V30 3835 H 343.825 0.0229696 -0.736642 0
M  V30 3836 H 346.467 -0.631527 -1.79197 0
M  V30 3837 H 344.617 0.8333 -3.79458 0
M  V30 3838 H 346.289 -1.73172 -4.27562 0
M  V30 3839 H 344.532 -1.69261 -3.99416 0
M  V30 3840 H 345.203 -0.932954 -5.44059 0
M  V30 3841 H 347.679 0.482302 -4.13295 0
M  V30 3842 H 346.555 1.07527 -5.38265 0
M  V30 3843 H 346.816 2.0265 -3.92919 0
M  V30 3844 N 345.875 1.56104 -0.216619 0
M  V30 3845 C 347.105 2.02269 0.420802 0
M  V30 3846 C 347.513 1.09575 1.5424 0
M  V30 3847 O 346.856 0.0967308 1.83445 0
M  V30 3848 C 346.918 3.44784 1.01806 0
M  V30 3849 C 346.582 4.56988 0.0325154 0
M  V30 3850 C 347.579 5.14225 -0.766055 0
M  V30 3851 C 345.264 5.02228 -0.0848092 0
M  V30 3852 C 347.258 6.15169 -1.6687 0
M  V30 3853 C 344.945 6.03011 -0.990994 0
M  V30 3854 C 345.943 6.59357 -1.78149 0
M  V30 3855 O 345.631 7.58179 -2.67245 0
M  V30 3856 H 345.363 0.667353 0.107776 0
M  V30 3857 H 347.917 2.02747 -0.329034 0
M  V30 3858 H 346.147 3.41359 1.81689 0
M  V30 3859 H 347.836 3.74626 1.56237 0
M  V30 3860 H 348.602 4.80126 -0.685836 0
M  V30 3861 H 344.481 4.58054 0.520349 0
M  V30 3862 H 348.025 6.59076 -2.28615 0
M  V30 3863 H 343.922 6.36532 -1.07225 0
M  V30 3864 H 344.69 7.75682 -2.61265 0
M  V30 3865 N 347.353 -0.0568162 1.57498 0
M  V30 3866 C 348.3 -1.06591 2.04712 0
M  V30 3867 C 349.27 -1.3758 0.930644 0
M  V30 3868 O 350.455 -1.48392 1.19935 0
M  V30 3869 C 347.595 -2.3701 2.50839 0
M  V30 3870 C 346.708 -2.12421 3.76167 0
M  V30 3871 C 345.843 -3.36511 4.11015 0
M  V30 3872 C 344.882 -3.07353 5.2934 0
M  V30 3873 N 344.019 -4.23816 5.59754 0
M  V30 3874 H 348.859 -0.65631 2.90683 0
M  V30 3875 H 346.396 -0.312481 1.43743 0
M  V30 3876 H 348.354 -3.13175 2.7564 0
M  V30 3877 H 346.984 -2.75744 1.67825 0
M  V30 3878 H 346.036 -1.2688 3.58616 0
M  V30 3879 H 347.348 -1.86894 4.62463 0
M  V30 3880 H 346.502 -4.21062 4.36797 0
M  V30 3881 H 345.241 -3.65128 3.23315 0
M  V30 3882 H 344.246 -2.212 5.03339 0
M  V30 3883 H 345.471 -2.80043 6.1867 0
M  V30 3884 H 343.417 -4.52436 4.75014 0
M  V30 3885 H 343.334 -4.01614 6.40501 0
M  V30 3886 H 344.602 -5.0932 5.90096 0
M  V30 3887 N 348.832 -1.54138 -0.328536 0
M  V30 3888 C 349.78 -1.83894 -1.42428 0
M  V30 3889 C 350.774 -0.710478 -1.53781 0
M  V30 3890 O 351.98 -0.894062 -1.56226 0
M  V30 3891 H 348.355 -0.582837 -0.475189 0
M  V30 3892 H 350.326 -2.75537 -1.14552 0
M  V30 3893 C 349.075 -2.07866 -2.78724 0
M  V30 3894 H 348.398 -2.94158 -2.7076 0
M  V30 3895 H 349.838 -2.32644 -3.54476 0
M  V30 3896 C 348.297 -0.868689 -3.25508 0
M  V30 3897 O 348.827 -0.0754908 -4.01629 0
M  V30 3898 N 347.033 -0.681711 -2.82491 0
M  V30 3899 H 346.58 -1.32838 -2.20708 0
M  V30 3900 H 346.538 0.126374 -3.14146 0
M  V30 3901 N 350.31 0.590341 -1.46126 0
M  V30 3902 C 351.24 1.71032 -1.58966 0
M  V30 3903 C 352.221 1.64302 -0.440335 0
M  V30 3904 O 353.406 1.82436 -0.665634 0
M  V30 3905 C 350.536 3.09665 -1.57241 0
M  V30 3906 C 349.49 3.31221 -2.71066 0
M  V30 3907 C 348.816 4.70303 -2.54399 0
M  V30 3908 C 350.116 3.19796 -4.1295 0
M  V30 3909 H 351.81 1.60543 -2.52718 0
M  V30 3910 H 349.356 0.770933 -1.21625 0
M  V30 3911 H 351.309 3.87831 -1.64819 0
M  V30 3912 H 350.033 3.21036 -0.600289 0
M  V30 3913 H 348.692 2.55452 -2.62944 0
M  V30 3914 H 348.34 4.78429 -1.55288 0
M  V30 3915 H 348.04 4.85679 -3.30741 0
M  V30 3916 H 349.564 5.50647 -2.63857 0
M  V30 3917 H 350.978 3.87815 -4.22223 0
M  V30 3918 H 349.375 3.46696 -4.89818 0
M  V30 3919 H 350.445 2.16983 -4.33643 0
M  V30 3920 N 351.788 1.33704 0.83433 0
M  V30 3921 C 352.72 1.20172 1.9517 0
M  V30 3922 C 353.733 0.131572 1.62267 0
M  V30 3923 O 354.922 0.382406 1.74356 0
M  V30 3924 C 352.022 0.821716 3.28787 0
M  V30 3925 C 351.195 1.98446 3.89792 0
M  V30 3926 C 350.254 1.58469 5.01771 0
M  V30 3927 O 349.28 2.29968 5.20676 0
M  V30 3928 N 350.482 0.492291 5.78409 0
M  V30 3929 H 353.247 2.16429 2.07313 0
M  V30 3930 H 350.808 1.26509 1.0103 0
M  V30 3931 H 352.8 0.536291 4.01131 0
M  V30 3932 H 351.37 -0.0503058 3.1256 0
M  V30 3933 H 350.59 2.43526 3.09982 0
M  V30 3934 H 351.878 2.76236 4.27283 0
M  V30 3935 H 351.276 -0.102349 5.65607 0
M  V30 3936 H 349.833 0.266555 6.51255 0
M  V30 3937 N 353.266 -1.05314 1.17247 0
M  V30 3938 C 354.176 -2.16538 0.90268 0
M  V30 3939 C 355.192 -1.73523 -0.128707 0
M  V30 3940 O 356.368 -2.01337 0.0502701 0
M  V30 3941 C 353.433 -3.44167 0.418356 0
M  V30 3942 C 352.494 -4.01635 1.51618 0
M  V30 3943 C 351.727 -5.23171 1.05487 0
M  V30 3944 O 351.95 -5.70327 -0.0914715 0
M  V30 3945 O 350.884 -5.72848 1.8474 0
M  V30 3946 H 354.71 -2.42145 1.83302 0
M  V30 3947 H 352.295 -1.15037 0.953246 0
M  V30 3948 H 354.177 -4.21112 0.155726 0
M  V30 3949 H 352.852 -3.20063 -0.48385 0
M  V30 3950 H 351.759 -3.26135 1.83268 0
M  V30 3951 H 353.092 -4.30053 2.39405 0
M  V30 3952 N 354.744 -0.972509 -1.24016 0
M  V30 3953 C 355.993 -0.632603 -1.91523 0
M  V30 3954 C 356.306 0.836641 -1.76804 0
M  V30 3955 O 357.512 1.28728 -2.39043 0
M  V30 3956 C 355.968 -1.08082 -3.43287 0
M  V30 3957 C 355.576 -2.57386 -3.66683 0
M  V30 3958 C 357.32 -0.814288 -4.16617 0
M  V30 3959 C 355.227 -2.95915 -5.12043 0
M  V30 3960 H 354.157 -0.232898 -0.717129 0
M  V30 3961 H 356.808 -1.17936 -1.40582 0
M  V30 3962 H 355.19 -0.462339 -3.93292 0
M  V30 3963 H 356.364 -3.24405 -3.27258 0
M  V30 3964 H 354.679 -2.81701 -3.06649 0
M  V30 3965 H 357.276 -1.0781 -5.23718 0
M  V30 3966 H 357.619 0.24955 -4.15551 0
M  V30 3967 H 358.152 -1.39397 -3.72577 0
M  V30 3968 H 354.891 -4.0139 -5.18234 0
M  V30 3969 H 354.411 -2.33584 -5.52448 0
M  V30 3970 H 356.09 -2.86086 -5.80314 0
M  V30 3971 N 356.222 1.38976 -0.743202 0
M  V30 3972 C 357.17 2.32394 -0.0978389 0
M  V30 3973 C 358.164 1.53486 0.716824 0
M  V30 3974 O 359.37 1.69092 0.617088 0
M  V30 3975 H 355.745 0.75189 -0.0128402 0
M  V30 3976 H 357.716 2.84441 -0.901981 0
M  V30 3977 C 356.465 3.38629 0.789036 0
M  V30 3978 H 355.788 3.99432 0.171559 0
M  V30 3979 H 357.228 4.06426 1.20807 0
M  V30 3980 C 355.687 2.76347 1.92702 0
M  V30 3981 O 356.217 2.64836 3.02034 0
M  V30 3982 N 354.423 2.34311 1.71891 0
M  V30 3983 H 353.97 2.43873 0.829675 0
M  V30 3984 H 353.928 1.9298 2.48205 0
M  V30 3985 N 357.7 0.491464 1.49741 0
M  V30 3986 C 358.663 -0.280906 2.27472 0
M  V30 3987 C 359.663 -0.902454 1.33088 0
M  V30 3988 O 360.853 -0.768465 1.56334 0
M  V30 3989 C 357.985 -1.40209 3.10732 0
M  V30 3990 H 359.178 0.401056 2.97206 0
M  V30 3991 H 356.731 0.246131 1.5435 0
M  V30 3992 H 357.466 -2.11849 2.45541 0
M  V30 3993 H 357.251 -0.961969 3.80117 0
M  V30 3994 H 358.741 -1.9464 3.69466 0
M  V30 3995 N 359.178 -1.55987 0.224894 0
M  V30 3996 C 360.408 -2.02489 -0.41007 0
M  V30 3997 C 360.816 -1.10391 -1.53657 0
M  V30 3998 O 360.159 -0.106458 -1.83391 0
M  V30 3999 C 360.221 -3.45319 -0.999757 0
M  V30 4000 C 359.885 -4.56999 -0.00827976 0
M  V30 4001 C 360.882 -5.13812 0.793314 0
M  V30 4002 C 358.567 -5.02176 0.111442 0
M  V30 4003 C 360.561 -6.14276 1.7013 0
M  V30 4004 C 358.248 -6.02477 1.02296 0
M  V30 4005 C 359.246 -6.58403 1.81643 0
M  V30 4006 O 358.934 -7.56751 2.71262 0
M  V30 4007 H 358.666 -0.667915 -0.104235 0
M  V30 4008 H 361.22 -2.0257 0.339782 0
M  V30 4009 H 359.45 -3.42318 -1.79876 0
M  V30 4010 H 361.139 -3.7545 -1.54248 0
M  V30 4011 H 361.905 -4.79756 0.711288 0
M  V30 4012 H 357.784 -4.58323 -0.49605 0
M  V30 4013 H 361.328 -6.57854 2.32107 0
M  V30 4014 H 357.225 -6.35954 1.10599 0
M  V30 4015 H 357.993 -7.74286 2.65375 0
M  V30 4016 N 360.656 0.0484629 -1.57525 0
M  V30 4017 C 361.905 0.742065 -1.87553 0
M  V30 4018 C 362.218 1.77545 -0.820802 0
M  V30 4019 O 363.424 2.52027 -1.00967 0
M  V30 4020 C 361.88 1.37081 -3.32771 0
M  V30 4021 C 361.488 0.374786 -4.4643 0
M  V30 4022 C 363.232 2.04542 -3.71972 0
M  V30 4023 C 361.139 1.01077 -5.82698 0
M  V30 4024 H 360.069 0.280903 -0.699721 0
M  V30 4025 H 362.72 -0.00411877 -1.835 0
M  V30 4026 H 361.102 2.16605 -3.31509 0
M  V30 4027 H 362.276 -0.392331 -4.59127 0
M  V30 4028 H 360.591 -0.196653 -4.15935 0
M  V30 4029 H 363.188 2.52943 -4.71088 0
M  V30 4030 H 363.531 2.85515 -3.02964 0
M  V30 4031 H 364.064 1.31819 -3.75325 0
M  V30 4032 H 360.803 0.240878 -6.55057 0
M  V30 4033 H 360.323 1.74819 -5.73758 0
M  V30 4034 H 362.002 1.52383 -6.28799 0
M  V30 4035 N 362.134 1.5431 0.320358 0
M  V30 4036 C 363.382 1.72327 1.05583 0
M  V30 4037 C 363.703 0.50149 1.88441 0
M  V30 4038 O 362.973 -0.48448 1.89815 0
M  V30 4039 H 361.553 0.635387 0.3928 0
M  V30 4040 H 364.215 1.91621 0.356019 0
M  V30 4041 H 363.311 2.60426 1.72003 0
M  V30 4042 N 363.613 -0.582584 1.46437 0
M  V30 4043 C 364.563 -1.68654 1.53426 0
M  V30 4044 C 365.547 -1.55971 0.395194 0
M  V30 4045 O 366.739 -1.64884 0.643612 0
M  V30 4046 C 363.868 -3.07439 1.52762 0
M  V30 4047 C 362.954 -3.25418 2.71963 0
M  V30 4048 N 363.345 -3.13556 3.96883 0
M  V30 4049 C 361.643 -3.56357 2.68189 0
M  V30 4050 C 362.344 -3.33543 4.76575 0
M  V30 4051 N 361.32 -3.58704 4.08451 0
M  V30 4052 H 365.122 -1.58014 2.47808 0
M  V30 4053 H 362.636 -0.786617 1.42078 0
M  V30 4054 H 364.633 -3.86671 1.55857 0
M  V30 4055 H 363.293 -3.1921 0.594573 0
M  V30 4056 H 364.304 -2.9142 4.28129 0
M  V30 4057 H 360.981 -3.74812 1.83908 0
M  V30 4058 H 362.371 -3.29555 5.85528 0
M  V30 4059 N 365.091 -1.34144 -0.827227 0
M  V30 4060 C 366.316 -1.29476 -1.62021 0
M  V30 4061 C 366.741 0.129292 -1.87655 0
M  V30 4062 O 366.099 1.08967 -1.449 0
M  V30 4063 C 366.147 -2.08702 -2.94068 0
M  V30 4064 O 365.251 -1.45359 -3.85933 0
M  V30 4065 H 364.592 -0.444881 -0.492927 0
M  V30 4066 H 367.122 -1.76882 -1.02829 0
M  V30 4067 H 367.132 -2.19898 -3.43669 0
M  V30 4068 H 365.807 -3.12241 -2.74734 0
M  V30 4069 H 364.384 -1.42879 -3.44442 0
M  V30 4070 N 366.569 1.04691 -1.17803 0
M  V30 4071 C 367.815 1.78045 -0.970969 0
M  V30 4072 C 368.148 1.87686 0.498751 0
M  V30 4073 O 367.423 1.38035 1.37027 0
M  V30 4074 C 367.706 3.2166 -1.61884 0
M  V30 4075 C 367.559 3.20001 -3.161 0
M  V30 4076 C 368.878 4.1962 -1.3269 0
M  V30 4077 H 365.997 0.64633 -0.354155 0
M  V30 4078 H 368.639 1.22333 -1.45378 0
M  V30 4079 H 366.789 3.69232 -1.20831 0
M  V30 4080 H 368.461 2.80467 -3.66246 0
M  V30 4081 H 366.704 2.58203 -3.48588 0
M  V30 4082 H 367.375 4.21386 -3.56564 0
M  V30 4083 H 369.851 3.80567 -1.68249 0
M  V30 4084 H 368.727 5.18339 -1.80599 0
M  V30 4085 H 368.988 4.414 -0.248622 0
M  V30 4086 N 368.047 0.979072 1.23499 0
M  V30 4087 C 368.957 0.526431 2.28617 0
M  V30 4088 C 369.973 -0.418126 1.68901 0
M  V30 4089 O 371.149 -0.288372 1.99325 0
M  V30 4090 C 368.214 -0.165235 3.46306 0
M  V30 4091 C 367.275 0.82056 4.21385 0
M  V30 4092 C 366.508 0.161807 5.33455 0
M  V30 4093 O 366.731 -1.04742 5.60701 0
M  V30 4094 O 365.665 0.859708 5.95729 0
M  V30 4095 H 369.491 1.4006 2.69475 0
M  V30 4096 H 367.076 0.746643 1.29405 0
M  V30 4097 H 368.958 -0.553287 4.17752 0
M  V30 4098 H 367.633 -1.01419 3.07402 0
M  V30 4099 H 366.54 1.25929 3.52268 0
M  V30 4100 H 367.873 1.63828 4.64135 0
M  V30 4101 N 369.525 -1.3858 0.750561 0
M  V30 4102 C 370.472 -2.30483 0.120835 0
M  V30 4103 C 371.442 -1.50022 -0.712923 0
M  V30 4104 O 372.627 -1.78662 -0.669676 0
M  V30 4105 C 369.767 -3.36431 -0.768666 0
M  V30 4106 C 368.88 -4.31927 0.0793922 0
M  V30 4107 C 368.015 -5.24944 -0.81283 0
M  V30 4108 C 367.054 -6.12088 0.0390447 0
M  V30 4109 N 366.191 -6.97412 -0.809969 0
M  V30 4110 H 371.031 -2.83761 0.91015 0
M  V30 4111 H 368.568 -1.39707 0.460463 0
M  V30 4112 H 370.526 -3.96462 -1.29898 0
M  V30 4113 H 369.156 -2.8457 -1.5238 0
M  V30 4114 H 368.208 -3.73382 0.727303 0
M  V30 4115 H 369.52 -4.93319 0.737401 0
M  V30 4116 H 368.674 -5.90078 -1.41042 0
M  V30 4117 H 367.413 -4.63911 -1.50458 0
M  V30 4118 H 366.418 -5.45952 0.649328 0
M  V30 4119 H 367.643 -6.75189 0.727809 0
M  V30 4120 H 365.589 -6.38931 -1.48672 0
M  V30 4121 H 365.506 -7.55712 -0.208789 0
M  V30 4122 H 366.774 -7.66959 -1.39263 0
M  V30 4123 N 371.003 -0.499398 -1.49478 0
M  V30 4124 C 371.953 0.299103 -2.2603 0
M  V30 4125 C 372.937 0.936934 -1.30807 0
M  V30 4126 O 374.129 0.844798 -1.55538 0
M  V30 4127 C 371.258 1.36391 -3.15044 0
M  V30 4128 C 370.344 0.732398 -4.17728 0
M  V30 4129 N 370.735 -0.164028 -5.05534 0
M  V30 4130 C 369.033 0.993162 -4.34801 0
M  V30 4131 C 369.734 -0.525345 -5.79323 0
M  V30 4132 N 368.71 0.106348 -5.43496 0
M  V30 4133 H 372.512 -0.391003 -2.91287 0
M  V30 4134 H 370.026 -0.31537 -1.59308 0
M  V30 4135 H 372.023 1.94939 -3.68516 0
M  V30 4136 H 370.683 2.05571 -2.51338 0
M  V30 4137 H 371.694 -0.534736 -5.15132 0
M  V30 4138 H 368.371 1.67783 -3.82302 0
M  V30 4139 H 369.761 -1.25862 -6.60006 0
M  V30 4140 N 372.481 1.55866 -0.233164 0
M  V30 4141 C 373.897 1.59133 0.121988 0
M  V30 4142 C 374.097 1.25016 1.58029 0
M  V30 4143 O 373.153 0.990922 2.32243 0
M  V30 4144 C 374.466 2.99932 -0.214792 0
M  V30 4145 C 376.014 3.12601 -0.157971 0
M  V30 4146 C 376.489 4.55597 -0.46859 0
M  V30 4147 N 377.98 4.61305 -0.418585 0
M  V30 4148 C 378.715 5.69903 -0.63227 0
M  V30 4149 N 378.211 6.86819 -0.90835 0
M  V30 4150 N 380.004 5.59264 -0.563913 0
M  V30 4151 H 372.155 1.76315 -1.18434 0
M  V30 4152 H 374.418 0.820093 -0.475553 0
M  V30 4153 H 374.124 3.29588 -1.22739 0
M  V30 4154 H 373.998 3.74327 0.464691 0
M  V30 4155 H 376.385 2.82735 0.845283 0
M  V30 4156 H 376.466 2.40511 -0.871102 0
M  V30 4157 H 376.11 4.86182 -1.46934 0
M  V30 4158 H 376.04 5.25928 0.265865 0
M  V30 4159 H 378.531 3.77297 -0.213368 0
M  V30 4160 H 378.844 7.65507 -1.05919 0
M  V30 4161 H 377.189 6.88536 -0.945673 0
M  V30 4162 H 380.38 4.66802 -0.348372 0
M  V30 4163 H 380.553 6.43831 -0.733847 0
M  V30 4164 N 373.959 -0.0401083 1.57549 0
M  V30 4165 C 374.869 -1.06133 2.0922 0
M  V30 4166 C 375.885 -1.40356 1.0284 0
M  V30 4167 O 377.061 -1.49897 1.34509 0
M  V30 4168 C 374.126 -2.34658 2.55218 0
M  V30 4169 C 373.187 -2.07117 3.76033 0
M  V30 4170 C 372.42 -3.29514 4.19829 0
M  V30 4171 O 372.643 -4.39794 3.63232 0
M  V30 4172 O 371.577 -3.15863 5.12362 0
M  V30 4173 H 375.403 -0.652244 2.96613 0
M  V30 4174 H 372.988 -0.256368 1.47184 0
M  V30 4175 H 374.87 -3.10239 2.85184 0
M  V30 4176 H 373.545 -2.74883 1.70941 0
M  V30 4177 H 372.452 -1.29139 3.51104 0
M  V30 4178 H 373.785 -1.71754 4.61261 0
M  V30 4179 N 375.437 -1.54477 -0.31217 0
M  V30 4180 C 376.665 -1.77205 -1.068 0
M  V30 4181 C 377.08 -0.526114 -1.81321 0
M  V30 4182 O 376.437 0.503647 -1.75413 0
M  V30 4183 C 376.488 -2.97253 -2.05725 0
M  V30 4184 O 376.209 -4.1703 -1.34228 0
M  V30 4185 C 377.71 -3.32281 -2.93435 0
M  V30 4186 H 374.93 -0.591287 -0.317208 0
M  V30 4187 H 377.474 -2.01398 -0.354834 0
M  V30 4188 H 375.629 -2.753 -2.72559 0
M  V30 4189 H 376.043 -4.84636 -2.00571 0
M  V30 4190 H 377.517 -4.19551 -3.58721 0
M  V30 4191 H 377.994 -2.49945 -3.61143 0
M  V30 4192 H 378.6 -3.56353 -2.32147 0
M  V30 4193 N 376.915 0.57481 -1.46744 0
M  V30 4194 C 377.845 1.69337 -1.60771 0
M  V30 4195 C 378.826 1.63825 -0.457736 0
M  V30 4196 O 380.011 1.8172 -0.684947 0
M  V30 4197 C 377.141 3.0798 -1.60517 0
M  V30 4198 C 376.095 3.28327 -2.74564 0
M  V30 4199 C 375.421 4.67578 -2.59373 0
M  V30 4200 C 376.721 3.15398 -4.16319 0
M  V30 4201 H 378.415 1.57853 -2.54407 0
M  V30 4202 H 375.961 0.75799 -1.22436 0
M  V30 4203 H 377.914 3.86061 -1.68923 0
M  V30 4204 H 376.638 3.20381 -0.634305 0
M  V30 4205 H 375.297 2.52649 -2.65639 0
M  V30 4206 H 374.945 4.76755 -1.60353 0
M  V30 4207 H 374.645 4.82144 -3.35873 0
M  V30 4208 H 376.169 5.47817 -2.69682 0
M  V30 4209 H 377.583 3.83315 -4.26313 0
M  V30 4210 H 375.98 3.41482 -4.93468 0
M  V30 4211 H 377.05 2.12372 -4.3592 0
M  V30 4212 N 378.394 1.34581 0.820102 0
M  V30 4213 C 379.671 1.17675 1.56244 0
M  V30 4214 C 380.051 -0.249541 2.0962 0
M  V30 4215 O 379.399 -1.25125 1.91196 0
M  V30 4216 C 379.609 2.23364 2.6816 0
M  V30 4217 C 380.957 2.58485 3.36854 0
M  V30 4218 O 381.981 2.22175 2.78418 0
M  V30 4219 O 380.84 3.20868 4.42386 0
M  V30 4220 H 377.934 0.456333 0.689702 0
M  V30 4221 H 380.48 1.46222 0.861231 0
M  V30 4222 H 379.252 3.19087 2.26493 0
M  V30 4223 H 378.875 1.96009 3.45928 0
M  V30 4224 N 379.872 -1.04064 1.18357 0
M  V30 4225 C 381.283 -1.58719 0.98312 0
M  V30 4226 C 381.634 -1.90556 -0.467193 0
M  V30 4227 O 380.759 -1.69561 -1.34454 0
M  V30 4228 C 381.354 -2.88379 1.77828 0
M  V30 4229 C 379.913 -3.3965 1.62218 0
M  V30 4230 C 379.06 -2.13235 1.77274 0
M  V30 4231 H 382.011 -0.867359 1.32901 0
M  V30 4232 H 382.032 -3.58773 1.26737 0
M  V30 4233 H 381.544 -2.65176 2.83379 0
M  V30 4234 H 379.645 -3.67866 0.592036 0
M  V30 4235 H 379.758 -4.13475 2.42023 0
M  V30 4236 H 378.122 -2.24542 1.20221 0
M  V30 4237 H 378.905 -1.92487 2.8426 0
M  V30 4238 N 381.35 -0.985608 -1.22978 0
M  V30 4239 C 382.575 -0.675254 -1.961 0
M  V30 4240 C 383 0.752154 -1.72407 0
M  V30 4241 O 382.358 1.5131 -0.998751 0
M  V30 4242 C 382.406 -0.977899 -3.47087 0
M  V30 4243 O 381.51 -0.072685 -4.12336 0
M  V30 4244 H 380.851 -0.253443 -0.613728 0
M  V30 4245 H 383.381 -1.32061 -1.56272 0
M  V30 4246 H 383.391 -0.916739 -3.97567 0
M  V30 4247 H 382.066 -2.01807 -3.63657 0
M  V30 4248 H 380.643 -0.188703 -3.72422 0
M  V30 4249 N 382.828 1.3818 -0.7579 0
M  V30 4250 C 383.791 2.28764 -0.141286 0
M  V30 4251 C 384.791 1.47388 0.642907 0
M  V30 4252 O 385.981 1.67781 0.468536 0
M  V30 4253 C 383.113 3.31184 0.808069 0
M  V30 4254 H 384.306 2.848 -0.939633 0
M  V30 4255 H 381.859 1.47212 -0.525191 0
M  V30 4256 H 382.594 2.80247 1.63193 0
M  V30 4257 H 382.379 3.91314 0.248104 0
M  V30 4258 H 383.869 3.98909 1.23536 0
M  V30 4259 N 384.306 0.507319 1.49211 0
M  V30 4260 C 385.717 0.0611118 1.866 0
M  V30 4261 C 386.068 -1.35488 1.41907 0
M  V30 4262 O 385.193 -2.0108 0.799726 0
M  V30 4263 C 385.788 0.104125 3.3864 0
M  V30 4264 C 384.347 -0.28677 3.75306 0
M  V30 4265 C 383.494 0.473893 2.73221 0
M  V30 4266 H 386.445 0.719775 1.41439 0
M  V30 4267 H 386.466 -0.689672 3.74198 0
M  V30 4268 H 385.978 1.13482 3.71138 0
M  V30 4269 H 384.079 -1.32046 3.48417 0
M  V30 4270 H 384.192 0.0370745 4.79086 0
M  V30 4271 H 382.556 -0.0770644 2.54583 0
M  V30 4272 H 383.339 1.50478 3.08563 0
M  V30 4273 N 385.784 -1.5574 0.241426 0
M  V30 4274 C 386.731 -2.21149 -0.660432 0
M  V30 4275 C 387.701 -1.17356 -1.17545 0
M  V30 4276 O 388.886 -1.45784 -1.23093 0
M  V30 4277 C 386.026 -2.91059 -1.85414 0
M  V30 4278 C 385.139 -4.09495 -1.37616 0
M  V30 4279 C 384.274 -4.67135 -2.529 0
M  V30 4280 C 383.313 -5.77831 -2.01936 0
M  V30 4281 N 382.45 -6.29677 -3.10566 0
M  V30 4282 H 387.29 -2.97845 -0.095955 0
M  V30 4283 H 384.827 -1.47057 -0.0356024 0
M  V30 4284 H 386.785 -3.29788 -2.5553 0
M  V30 4285 H 385.415 -2.16846 -2.39118 0
M  V30 4286 H 384.467 -3.76117 -0.569235 0
M  V30 4287 H 385.779 -4.89423 -0.962618 0
M  V30 4288 H 384.933 -5.08409 -3.31067 0
M  V30 4289 H 383.672 -3.86411 -2.97553 0
M  V30 4290 H 382.677 -5.36039 -1.22238 0
M  V30 4291 H 383.902 -6.60402 -1.58259 0
M  V30 4292 H 381.848 -5.5186 -3.54664 0
M  V30 4293 H 381.765 -7.04783 -2.73526 0
M  V30 4294 H 383.033 -6.75609 -3.88809 0
M  V30 4295 N 387.262 0.0317525 -1.57568 0
M  V30 4296 C 388.539 0.758366 -1.803 0
M  V30 4297 C 388.919 1.93718 -0.838845 0
M  V30 4298 O 388.267 2.28187 0.119571 0
M  V30 4299 C 388.477 1.19392 -3.27943 0
M  V30 4300 C 389.825 1.61094 -3.92854 0
M  V30 4301 O 390.849 1.28857 -3.32076 0
M  V30 4302 O 389.708 2.20918 -4.99858 0
M  V30 4303 H 386.802 0.366514 -0.741348 0
M  V30 4304 H 389.348 0.00873765 -1.69698 0
M  V30 4305 H 388.12 0.352275 -3.89711 0
M  V30 4306 H 387.743 2.00365 -3.43424 0
M  V30 4307 N 388.74 1.54641 0.303973 0
M  V30 4308 C 389.67 1.88386 1.3796 0
M  V30 4309 C 390.651 0.742485 1.5304 0
M  V30 4310 O 391.836 0.997959 1.66597 0
M  V30 4311 C 388.966 2.12854 2.74427 0
M  V30 4312 C 387.92 3.28702 2.74115 0
M  V30 4313 C 387.246 3.38582 4.13844 0
M  V30 4314 C 388.546 4.65881 2.3612 0
M  V30 4315 H 390.24 2.78474 1.09966 0
M  V30 4316 H 387.786 1.33988 0.527556 0
M  V30 4317 H 389.739 2.35047 3.49758 0
M  V30 4318 H 388.463 1.19535 3.03939 0
M  V30 4319 H 387.122 3.06428 2.0124 0
M  V30 4320 H 386.77 2.42784 4.40528 0
M  V30 4321 H 386.47 4.16453 4.14537 0
M  V30 4322 H 387.994 3.63031 4.90959 0
M  V30 4323 H 389.408 4.87823 3.01167 0
M  V30 4324 H 387.805 5.46444 2.48031 0
M  V30 4325 H 388.875 4.66799 1.3125 0
M  V30 4326 N 390.218 -0.567019 1.47046 0
M  V30 4327 C 391.467 -1.32091 1.5243 0
M  V30 4328 C 391.78 -1.94704 0.187021 0
M  V30 4329 O 392.986 -2.7124 0.118771 0
M  V30 4330 C 391.442 -2.39479 2.68659 0
M  V30 4331 C 391.05 -1.831 4.08874 0
M  V30 4332 C 392.794 -3.16111 2.83327 0
M  V30 4333 C 390.701 -2.8821 5.16419 0
M  V30 4334 H 389.631 -0.496629 0.56734 0
M  V30 4335 H 392.282 -0.603354 1.73297 0
M  V30 4336 H 390.664 -3.14105 2.41152 0
M  V30 4337 H 391.838 -1.14913 4.46242 0
M  V30 4338 H 390.153 -1.19085 3.99008 0
M  V30 4339 H 392.75 -3.94585 3.60842 0
M  V30 4340 H 393.093 -3.69686 1.91411 0
M  V30 4341 H 393.626 -2.48595 3.10556 0
M  V30 4342 H 390.365 -2.39504 6.10179 0
M  V30 4343 H 389.885 -3.54839 4.8358 0
M  V30 4344 H 391.564 -3.51881 5.42945 0
M  V30 4345 N 391.696 -1.35014 -0.812953 0
M  V30 4346 C 392.973 -1.18502 -1.55617 0
M  V30 4347 C 393.353 0.238421 -2.09749 0
M  V30 4348 O 392.701 1.2411 -1.91857 0
M  V30 4349 C 392.911 -2.24783 -2.66971 0
M  V30 4350 C 394.259 -2.60268 -3.35478 0
M  V30 4351 O 395.283 -2.23648 -2.77236 0
M  V30 4352 O 394.142 -3.2321 -4.40678 0
M  V30 4353 H 391.236 -0.459984 -0.687272 0
M  V30 4354 H 393.782 -1.46677 -0.853464 0
M  V30 4355 H 392.554 -3.20284 -2.24798 0
M  V30 4356 H 392.177 -1.97841 -3.44884 0
M  V30 4357 N 393.175 1.03435 -1.18907 0
M  V30 4358 C 394.403 1.80381 -1.01342 0
M  V30 4359 C 394.818 1.83649 0.438005 0
M  V30 4360 O 394.175 1.27655 1.30424 0
M  V30 4361 C 394.226 3.25689 -1.56873 0
M  V30 4362 O 393.947 3.22673 -2.96334 0
M  V30 4363 C 395.448 4.19255 -1.44014 0
M  V30 4364 H 392.668 0.56784 -0.35749 0
M  V30 4365 H 395.212 1.30317 -1.576 0
M  V30 4366 H 393.367 3.72962 -1.04777 0
M  V30 4367 H 393.781 4.13748 -3.22355 0
M  V30 4368 H 395.255 5.19123 -1.87657 0
M  V30 4369 H 395.732 4.37467 -0.389815 0
M  V30 4370 H 396.338 3.77851 -1.95214 0
M  V30 4371 N 394.653 0.992116 1.22453 0
M  V30 4372 C 395.883 0.684949 1.94915 0
M  V30 4373 C 396.291 -0.754292 1.73514 0
M  V30 4374 O 395.634 -1.52056 1.03076 0
M  V30 4375 C 395.696 0.910054 3.47791 0
M  V30 4376 C 395.36 2.33363 3.92926 0
M  V30 4377 C 396.357 3.31308 4.00663 0
M  V30 4378 C 394.042 2.66785 4.25595 0
M  V30 4379 C 396.036 4.6075 4.40441 0
M  V30 4380 C 393.723 3.96446 4.65053 0
M  V30 4381 C 394.721 4.9324 4.72444 0
M  V30 4382 O 394.409 6.20584 5.1101 0
M  V30 4383 H 394.141 0.25258 0.62704 0
M  V30 4384 H 396.695 1.32939 1.56577 0
M  V30 4385 H 394.925 0.208443 3.86138 0
M  V30 4386 H 396.614 0.598257 4.01467 0
M  V30 4387 H 397.38 3.0682 3.75615 0
M  V30 4388 H 393.259 1.92148 4.19047 0
M  V30 4389 H 396.803 5.363 4.46126 0
M  V30 4390 H 392.7 4.20724 4.89552 0
M  V30 4391 H 393.468 6.24509 5.29085 0
M  V30 4392 N 396.131 -1.37776 0.765217 0
M  V30 4393 C 397.061 -2.32945 0.160953 0
M  V30 4394 C 398.042 -1.55454 -0.690516 0
M  V30 4395 O 399.227 -1.83721 -0.629318 0
M  V30 4396 C 396.357 -3.39669 -0.724031 0
M  V30 4397 C 395.311 -4.27992 0.0256173 0
M  V30 4398 C 394.637 -5.25673 -0.978383 0
M  V30 4399 C 395.937 -5.08309 1.20082 0
M  V30 4400 H 397.631 -2.83728 0.955969 0
M  V30 4401 H 395.177 -1.36416 0.461149 0
M  V30 4402 H 397.13 -4.05219 -1.15652 0
M  V30 4403 H 395.854 -2.87396 -1.5515 0
M  V30 4404 H 394.513 -3.63964 0.438812 0
M  V30 4405 H 394.161 -4.69682 -1.80022 0
M  V30 4406 H 393.861 -5.85625 -0.481378 0
M  V30 4407 H 395.385 -5.94098 -1.40995 0
M  V30 4408 H 396.799 -5.67034 0.845307 0
M  V30 4409 H 395.196 -5.77554 1.62947 0
M  V30 4410 H 396.266 -4.41365 2.00811 0
M  V30 4411 N 397.609 -0.515225 -1.4894 0
M  V30 4412 C 398.539 0.244628 -2.32215 0
M  V30 4413 C 399.52 0.949136 -1.41157 0
M  V30 4414 O 400.705 0.937783 -1.70057 0
M  V30 4415 C 397.835 1.30096 -3.22013 0
M  V30 4416 C 396.789 0.715486 -4.21977 0
M  V30 4417 C 396.115 1.87339 -5.00808 0
M  V30 4418 C 397.415 -0.302982 -5.2142 0
M  V30 4419 H 399.109 -0.450501 -2.95991 0
M  V30 4420 H 396.655 -0.218098 -1.42339 0
M  V30 4421 H 398.608 1.84037 -3.79089 0
M  V30 4422 H 397.332 2.02547 -2.56207 0
M  V30 4423 H 395.991 0.197715 -3.66066 0
M  V30 4424 H 395.639 2.58592 -4.31438 0
M  V30 4425 H 395.339 1.48764 -5.68457 0
M  V30 4426 H 396.863 2.41686 -5.60732 0
M  V30 4427 H 398.277 0.148802 -5.73107 0
M  V30 4428 H 396.674 -0.60532 -5.97039 0
M  V30 4429 H 397.744 -1.21395 -4.69459 0
M  V30 4430 N 399.087 1.5561 -0.249682 0
M  V30 4431 C 400.037 2.18157 0.662673 0
M  V30 4432 C 401.021 1.1383 1.13717 0
M  V30 4433 O 402.213 1.39731 1.08648 0
M  V30 4434 C 399.342 2.88672 1.85805 0
M  V30 4435 C 398.428 4.00258 1.40193 0
M  V30 4436 N 398.819 5.01473 0.660213 0
M  V30 4437 C 397.117 4.12864 1.68698 0
M  V30 4438 C 397.818 5.80155 0.423695 0
M  V30 4439 N 396.794 5.34533 0.988721 0
M  V30 4440 H 400.596 2.93769 0.0878688 0
M  V30 4441 H 398.11 1.62316 -0.0521183 0
M  V30 4442 H 400.107 3.31912 2.5227 0
M  V30 4443 H 398.767 2.14564 2.43705 0
M  V30 4444 H 399.778 5.16971 0.310047 0
M  V30 4445 H 396.455 3.4993 2.27717 0
M  V30 4446 H 397.845 6.71688 -0.168616 0
M  V30 4447 N 400.565 -0.0233959 1.57583 0
M  V30 4448 C 401.498 -1.05549 2.02323 0
M  V30 4449 C 402.476 -1.34843 0.908626 0
M  V30 4450 O 403.66 -1.47404 1.17491 0
M  V30 4451 C 400.787 -2.38885 2.40108 0
M  V30 4452 C 399.833 -2.2541 3.62067 0
M  V30 4453 S 400.666 -1.60217 5.1097 0
M  V30 4454 C 401.822 -2.95032 5.52003 0
M  V30 4455 H 402.055 -0.674435 2.89549 0
M  V30 4456 H 399.588 -0.23355 1.52623 0
M  V30 4457 H 401.546 -3.15562 2.62547 0
M  V30 4458 H 400.207 -2.74137 1.53323 0
M  V30 4459 H 399.4 -3.23854 3.86179 0
M  V30 4460 H 399.002 -1.56876 3.39508 0
M  V30 4461 H 401.294 -3.91357 5.53033 0
M  V30 4462 H 402.237 -2.75646 6.52246 0
M  V30 4463 H 402.645 -2.97865 4.79517 0
M  V30 4464 N 402.043 -1.548 -0.295768 0
M  V30 4465 C 402.953 -1.89177 -1.38742 0
M  V30 4466 C 403.969 -0.786481 -1.55211 0
M  V30 4467 O 405.145 -1.08344 -1.69775 0
M  V30 4468 C 402.21 -2.13663 -2.73036 0
M  V30 4469 C 401.271 -3.37349 -2.65508 0
M  V30 4470 C 400.504 -3.60658 -3.93398 0
M  V30 4471 O 400.727 -2.86882 -4.93006 0
M  V30 4472 O 399.661 -4.54179 -3.94975 0
M  V30 4473 H 403.487 -2.82059 -1.12589 0
M  V30 4474 H 401.072 -1.41056 -0.492295 0
M  V30 4475 H 402.954 -2.3094 -3.52484 0
M  V30 4476 H 401.629 -1.23967 -2.99022 0
M  V30 4477 H 400.536 -3.25431 -1.84514 0
M  V30 4478 H 401.869 -4.27192 -2.44474 0
M  V30 4479 N 403.521 0.559213 -1.47345 0
M  V30 4480 C 404.468 1.66645 -1.59682 0
M  V30 4481 C 405.438 1.60168 -0.43994 0
M  V30 4482 O 406.623 1.79031 -0.659736 0
M  V30 4483 C 403.763 3.04969 -1.61518 0
M  V30 4484 C 402.876 3.21897 -2.88108 0
M  V30 4485 C 402.011 4.50608 -2.81294 0
M  V30 4486 C 401.05 4.60961 -4.02717 0
M  V30 4487 N 400.187 5.81024 -3.94151 0
M  V30 4488 H 405.027 1.55439 -2.54249 0
M  V30 4489 H 402.564 0.757219 -1.26113 0
M  V30 4490 H 404.522 3.85064 -1.60566 0
M  V30 4491 H 403.152 3.15015 -0.704645 0
M  V30 4492 H 402.204 2.35248 -2.98936 0
M  V30 4493 H 403.516 3.25412 -3.78032 0
M  V30 4494 H 402.67 5.3896 -2.7858 0
M  V30 4495 H 401.409 4.49568 -1.89049 0
M  V30 4496 H 400.414 3.71021 -4.05738 0
M  V30 4497 H 401.639 4.63761 -4.96087 0
M  V30 4498 H 399.585 5.80938 -3.04708 0
M  V30 4499 H 399.502 5.85909 -4.77752 0
M  V30 4500 H 400.77 6.71744 -3.9545 0
M  V30 4501 N 404.999 1.35443 0.805782 0
M  V30 4502 C 405.909 1.30546 1.94923 0
M  V30 4503 C 406.925 0.210233 1.72725 0
M  V30 4504 O 408.101 0.43975 1.9654 0
M  V30 4505 C 405.166 1.07782 3.29521 0
M  V30 4506 C 404.227 2.26625 3.64609 0
M  V30 4507 C 403.46 2.04938 4.92784 0
M  V30 4508 O 403.683 1.01624 5.61274 0
M  V30 4509 O 402.617 2.9232 5.26149 0
M  V30 4510 H 406.443 2.26779 2.02002 0
M  V30 4511 H 404.028 1.15823 0.943682 0
M  V30 4512 H 405.91 0.969392 4.10098 0
M  V30 4513 H 404.585 0.146003 3.23371 0
M  V30 4514 H 403.492 2.43033 2.84404 0
M  V30 4515 H 404.825 3.18257 3.75464 0
M  V30 4516 N 406.477 -1.02803 1.19454 0
M  V30 4517 C 407.424 -2.11099 0.933046 0
M  V30 4518 C 408.394 -1.65571 -0.132447 0
M  V30 4519 O 409.579 -1.90797 0.00987576 0
M  V30 4520 C 406.719 -3.41763 0.478747 0
M  V30 4521 C 405.832 -4.00833 1.6111 0
M  V30 4522 C 404.967 -5.19511 1.10825 0
M  V30 4523 C 404.006 -5.70639 2.21445 0
M  V30 4524 N 403.143 -6.80589 1.72461 0
M  V30 4525 H 407.983 -2.32804 1.86028 0
M  V30 4526 H 405.52 -1.14179 0.927441 0
M  V30 4527 H 407.478 -4.16736 0.196745 0
M  V30 4528 H 406.108 -3.20166 -0.411493 0
M  V30 4529 H 405.16 -3.23066 2.00829 0
M  V30 4530 H 406.472 -4.34794 2.4445 0
M  V30 4531 H 405.626 -6.01645 0.781533 0
M  V30 4532 H 404.365 -4.87086 0.244606 0
M  V30 4533 H 403.37 -4.87116 2.54947 0
M  V30 4534 H 404.595 -6.05102 3.08267 0
M  V30 4535 H 402.541 -6.50016 0.884056 0
M  V30 4536 H 402.458 -7.13681 2.49389 0
M  V30 4537 H 403.726 -7.66317 1.42755 0
M  V30 4538 N 407.956 -0.998596 -1.21925 0
M  V30 4539 C 409.181 -0.696015 -1.95372 0
M  V30 4540 C 409.606 0.733826 -1.73195 0
M  V30 4541 O 408.964 1.50242 -1.01474 0
M  V30 4542 C 409.012 -1.01466 -3.4603 0
M  V30 4543 O 408.116 -0.116415 -4.12236 0
M  V30 4544 H 407.457 -0.259938 -0.611006 0
M  V30 4545 H 409.987 -1.33711 -1.54863 0
M  V30 4546 H 409.997 -0.958855 -3.96573 0
M  V30 4547 H 408.672 -2.05653 -3.61497 0
M  V30 4548 H 407.249 -0.228193 -3.72201 0
M  V30 4549 N 409.434 1.37368 -0.772513 0
M  V30 4550 C 410.382 2.32134 -0.147111 0
M  V30 4551 C 411.376 1.54972 0.684106 0
M  V30 4552 O 412.582 1.70363 0.581083 0
M  V30 4553 H 408.957 0.751449 -0.028786 0
M  V30 4554 H 410.928 2.82464 -0.962112 0
M  V30 4555 C 409.677 3.40226 0.71703 0
M  V30 4556 H 409 3.99706 0.0867951 0
M  V30 4557 H 410.44 4.08897 1.12159 0
M  V30 4558 C 408.899 2.80372 1.86797 0
M  V30 4559 O 409.429 2.71183 2.96349 0
M  V30 4560 N 407.635 2.37904 1.66883 0
M  V30 4561 H 407.182 2.45578 0.777759 0
M  V30 4562 H 407.14 1.98202 2.44056 0
M  V30 4563 N 410.912 0.523116 1.48665 0
M  V30 4564 C 411.875 -0.232592 2.28017 0
M  V30 4565 C 412.875 -0.874021 1.34972 0
M  V30 4566 O 414.065 -0.735132 1.57929 0
M  V30 4567 C 411.197 -1.33586 3.13636 0
M  V30 4568 H 412.39 0.464008 2.96289 0
M  V30 4569 H 409.943 0.278816 1.53793 0
M  V30 4570 H 410.678 -2.06593 2.4998 0
M  V30 4571 H 410.463 -0.881125 3.82071 0
M  V30 4572 H 411.953 -1.86759 3.73511 0
M  V30 4573 N 412.39 -1.55475 0.257931 0
M  V30 4574 C 413.34 -2.18506 -0.651094 0
M  V30 4575 C 414.324 -1.14431 -1.13112 0
M  V30 4576 O 415.516 -1.40305 -1.07905 0
M  V30 4577 C 412.645 -2.89653 -1.84272 0
M  V30 4578 C 411.731 -4.00996 -1.38068 0
M  V30 4579 N 412.122 -5.01816 -0.633609 0
M  V30 4580 C 410.42 -4.13753 -1.66506 0
M  V30 4581 C 411.121 -5.80371 -0.392922 0
M  V30 4582 N 410.097 -5.3505 -0.960359 0
M  V30 4583 H 413.899 -2.93811 -0.0722883 0
M  V30 4584 H 411.413 -1.62286 0.0607256 0
M  V30 4585 H 413.41 -3.33245 -2.50506 0
M  V30 4586 H 412.07 -2.15854 -2.42564 0
M  V30 4587 H 413.081 -5.17128 -0.282626 0
M  V30 4588 H 409.758 -3.51133 -2.25858 0
M  V30 4589 H 411.148 -6.7159 0.204235 0
M  V30 4590 N 413.868 0.0150385 -1.57593 0
M  V30 4591 C 415.093 0.718067 -1.94573 0
M  V30 4592 C 415.518 1.6734 -0.859005 0
M  V30 4593 O 414.876 1.80362 0.184147 0
M  V30 4594 C 414.924 1.43918 -3.30636 0
M  V30 4595 O 414.028 2.55299 -3.23876 0
M  V30 4596 H 413.369 0.192125 -0.635597 0
M  V30 4597 H 415.899 -0.0336708 -2.04572 0
M  V30 4598 H 415.909 1.80598 -3.65853 0
M  V30 4599 H 414.584 0.738619 -4.09289 0
M  V30 4600 H 413.161 2.21058 -3.00312 0
M  V30 4601 N 415.346 1.54954 0.287554 0
M  V30 4602 C 416.256 1.8991 1.37736 0
M  V30 4603 C 417.272 0.794701 1.54792 0
M  V30 4604 O 418.448 1.09243 1.69198 0
M  V30 4605 C 415.513 2.15108 2.71899 0
M  V30 4606 C 414.574 3.38752 2.63715 0
M  V30 4607 C 413.807 3.62739 3.91479 0
M  V30 4608 O 414.03 2.89492 4.91478 0
M  V30 4609 O 412.964 4.56267 3.92561 0
M  V30 4610 H 416.79 2.82652 1.11092 0
M  V30 4611 H 414.375 1.41315 0.484807 0
M  V30 4612 H 416.257 2.32806 3.51254 0
M  V30 4613 H 414.932 1.25551 2.9836 0
M  V30 4614 H 413.839 3.26405 1.82786 0
M  V30 4615 H 415.172 4.28483 2.42205 0
M  V30 4616 N 416.824 -0.551391 1.4764 0
M  V30 4617 C 418.071 -1.3083 1.54563 0
M  V30 4618 C 418.399 -1.93359 0.210361 0
M  V30 4619 O 417.654 -1.78721 -0.797332 0
M  V30 4620 C 417.953 -2.43469 2.61644 0
M  V30 4621 C 417.619 -1.98732 4.04742 0
M  V30 4622 C 416.281 -1.86248 4.43695 0
M  V30 4623 C 418.633 -1.64659 4.94507 0
M  V30 4624 C 415.961 -1.37995 5.70241 0
M  V30 4625 C 418.313 -1.17875 6.21521 0
M  V30 4626 C 416.977 -1.03992 6.5935 0
M  V30 4627 H 416.247 -0.478741 0.565587 0
M  V30 4628 H 418.894 -0.617697 1.81264 0
M  V30 4629 H 417.199 -3.18109 2.28722 0
M  V30 4630 H 418.896 -3.01642 2.64222 0
M  V30 4631 H 415.486 -2.09393 3.73968 0
M  V30 4632 H 419.67 -1.73174 4.65107 0
M  V30 4633 H 414.926 -1.25915 5.98294 0
M  V30 4634 H 419.1 -0.905739 6.90485 0
M  V30 4635 H 416.727 -0.663794 7.57296 0
M  V30 4636 N 418.302 -1.35869 -0.798587 0
M  V30 4637 C 419.527 -1.32883 -1.59238 0
M  V30 4638 C 419.952 0.0894587 -1.87887 0
M  V30 4639 O 419.31 1.05869 -1.47178 0
M  V30 4640 C 419.358 -2.14892 -2.89575 0
M  V30 4641 O 418.462 -1.53512 -3.82763 0
M  V30 4642 H 417.803 -0.455236 -0.48338 0
M  V30 4643 H 420.333 -1.79024 -0.990539 0
M  V30 4644 H 420.343 -2.27139 -3.38928 0
M  V30 4645 H 419.018 -3.17998 -2.68049 0
M  V30 4646 H 417.595 -1.50153 -3.41334 0
M  V30 4647 N 419.78 1.02168 -1.19998 0
M  V30 4648 C 420.73 2.08969 -0.911921 0
M  V30 4649 C 421.714 1.60404 0.12621 0
M  V30 4650 O 422.906 1.76817 -0.0804706 0
M  V30 4651 C 420.035 3.402 -0.460277 0
M  V30 4652 C 419.121 3.9548 -1.53155 0
M  V30 4653 N 419.512 4.24332 -2.75275 0
M  V30 4654 C 417.81 4.23572 -1.39653 0
M  V30 4655 C 418.511 4.68834 -3.44339 0
M  V30 4656 N 417.487 4.70804 -2.71744 0
M  V30 4657 H 421.289 2.29178 -1.83997 0
M  V30 4658 H 418.803 1.20094 -1.09322 0
M  V30 4659 H 420.8 4.16235 -0.235337 0
M  V30 4660 H 419.46 3.21408 0.4612 0
M  V30 4661 H 420.471 4.13393 -3.11973 0
M  V30 4662 H 417.148 4.14005 -0.539067 0
M  V30 4663 H 418.538 5.00019 -4.4881 0
M  V30 4664 N 421.258 1.00505 1.21394 0
M  V30 4665 C 422.19 0.52372 2.23136 0
M  V30 4666 C 423.203 -0.387714 1.58116 0
M  V30 4667 O 424.392 -0.187905 1.77508 0
M  V30 4668 C 421.492 -0.258885 3.3791 0
M  V30 4669 C 420.665 0.651634 4.32519 0
M  V30 4670 C 419.724 -0.0813705 5.26137 0
M  V30 4671 O 418.75 0.537295 5.66658 0
M  V30 4672 N 419.952 -1.35992 5.64346 0
M  V30 4673 H 422.717 1.39865 2.65062 0
M  V30 4674 H 420.278 0.881196 1.35818 0
M  V30 4675 H 422.27 -0.758208 3.97534 0
M  V30 4676 H 420.84 -1.035 2.94968 0
M  V30 4677 H 420.06 1.33145 3.71034 0
M  V30 4678 H 421.348 1.27129 4.92662 0
M  V30 4679 H 420.746 -1.88368 5.33417 0
M  V30 4680 H 419.303 -1.8042 6.26332 0
M  V30 4681 N 422.737 -1.36956 0.779787 0
M  V30 4682 C 423.685 -2.32053 0.15942 0
M  V30 4683 C 424.679 -1.55333 -0.675878 0
M  V30 4684 O 425.885 -1.70668 -0.57204 0
M  V30 4685 H 422.26 -0.751286 0.0327707 0
M  V30 4686 H 424.231 -2.8195 0.977078 0
M  V30 4687 C 422.98 -3.40602 -0.698977 0
M  V30 4688 H 422.303 -3.99746 -0.0655966 0
M  V30 4689 H 423.743 -4.09486 -1.09989 0
M  V30 4690 C 422.202 -2.81359 -1.85307 0
M  V30 4691 O 422.732 -2.72751 -2.94906 0
M  V30 4692 N 420.938 -2.38786 -1.65619 0
M  V30 4693 H 420.485 -2.45987 -0.764725 0
M  V30 4694 H 420.443 -1.99493 -2.43002 0
M  V30 4695 N 424.215 -0.530993 -1.48385 0
M  V30 4696 C 425.145 0.219985 -2.32461 0
M  V30 4697 C 426.126 0.934111 -1.42156 0
M  V30 4698 O 427.311 0.919694 -1.71042 0
M  V30 4699 C 424.441 1.26674 -3.23375 0
M  V30 4700 C 423.395 0.67069 -4.22712 0
M  V30 4701 C 422.721 1.82017 -5.02766 0
M  V30 4702 C 424.021 -0.358268 -5.2107 0
M  V30 4703 H 425.715 -0.48187 -2.95497 0
M  V30 4704 H 423.261 -0.233182 -1.42099 0
M  V30 4705 H 425.214 1.80006 -3.81019 0
M  V30 4706 H 423.938 1.99818 -2.58341 0
M  V30 4707 H 422.597 0.158878 -3.66256 0
M  V30 4708 H 422.245 2.54002 -4.34157 0
M  V30 4709 H 421.945 1.42727 -5.70003 0
M  V30 4710 H 423.469 2.35725 -5.63264 0
M  V30 4711 H 424.883 0.0880081 -5.73232 0
M  V30 4712 H 423.28 -0.66861 -5.96364 0
M  V30 4713 H 424.35 -1.26367 -4.68145 0
M  V30 4714 N 425.693 1.55336 -0.266172 0
M  V30 4715 C 426.641 2.23587 0.641228 0
M  V30 4716 C 427.635 1.22986 1.16494 0
M  V30 4717 O 428.841 1.40943 1.1196 0
M  V30 4718 H 425.216 0.717452 0.225315 0
M  V30 4719 H 427.187 2.9837 0.0426561 0
M  V30 4720 C 425.936 2.96369 1.81826 0
M  V30 4721 H 425.259 3.73563 1.42445 0
M  V30 4722 H 426.699 3.47459 2.42998 0
M  V30 4723 C 425.158 2.0133 2.70125 0
M  V30 4724 O 425.688 1.55875 3.70224 0
M  V30 4725 N 423.894 1.6802 2.37102 0
M  V30 4726 H 423.441 2.05181 1.55751 0
M  V30 4727 H 423.399 1.047 2.96454 0
M  V30 4728 N 427.171 -0.0066808 1.57599 0
M  V30 4729 C 428.101 -0.999296 2.11036 0
M  V30 4730 C 429.082 -1.36278 1.01795 0
M  V30 4731 O 430.267 -1.4477 1.29442 0
M  V30 4732 C 427.397 -2.29328 2.60818 0
M  V30 4733 C 426.351 -2.07159 3.74525 0
M  V30 4734 C 425.677 -3.42512 4.10596 0
M  V30 4735 C 426.977 -1.43959 5.02069 0
M  V30 4736 H 428.671 -0.554382 2.94223 0
M  V30 4737 H 426.217 -0.265221 1.41536 0
M  V30 4738 H 428.17 -2.99117 2.96828 0
M  V30 4739 H 426.894 -2.7592 1.74745 0
M  V30 4740 H 425.553 -1.39797 3.38899 0
M  V30 4741 H 425.201 -3.86795 3.21556 0
M  V30 4742 H 424.901 -3.28498 4.87199 0
M  V30 4743 H 426.425 -4.13628 4.4916 0
M  V30 4744 H 427.839 -2.03696 5.35893 0
M  V30 4745 H 426.236 -1.40452 5.83432 0
M  V30 4746 H 427.306 -0.407992 4.83181 0
M  V30 4747 N 428.649 -1.55105 -0.279332 0
M  V30 4748 C 429.597 -1.88333 -1.36505 0
M  V30 4749 C 430.591 -0.759043 -1.51443 0
M  V30 4750 O 431.797 -0.943312 -1.53302 0
M  V30 4751 H 428.172 -0.59766 -0.456406 0
M  V30 4752 H 430.143 -2.79041 -1.05728 0
M  V30 4753 C 428.892 -2.16628 -2.7197 0
M  V30 4754 H 428.215 -3.02624 -2.61264 0
M  V30 4755 H 429.655 -2.43803 -3.46895 0
M  V30 4756 C 428.114 -0.971807 -3.22579 0
M  V30 4757 O 428.644 -0.203228 -4.01186 0
M  V30 4758 N 426.85 -0.771238 -2.80179 0
M  V30 4759 H 426.397 -1.39792 -2.1637 0
M  V30 4760 H 426.355 0.0263667 -3.14389 0
M  V30 4761 N 430.127 0.543554 -1.4793 0
M  V30 4762 C 431.355 1.32516 -1.58894 0
M  V30 4763 C 431.77 1.87215 -0.244131 0
M  V30 4764 O 431.127 1.65709 0.764652 0
M  V30 4765 C 431.178 2.48554 -2.62494 0
M  V30 4766 O 430.899 1.96112 -3.91755 0
M  V30 4767 C 432.4 3.40572 -2.8377 0
M  V30 4768 H 429.62 0.403472 -0.536145 0
M  V30 4769 H 432.164 0.657106 -1.93655 0
M  V30 4770 H 430.319 3.1127 -2.30629 0
M  V30 4771 H 430.733 2.71967 -4.4848 0
M  V30 4772 H 432.207 4.18375 -3.60093 0
M  V30 4773 H 432.684 3.94965 -1.92092 0
M  V30 4774 H 433.29 2.8366 -3.16887 0
M  V30 4775 N 431.605 1.3629 0.791371 0
M  V30 4776 C 432.535 1.33137 1.91825 0
M  V30 4777 C 433.516 0.203168 1.68882 0
M  V30 4778 O 434.701 0.400509 1.90025 0
M  V30 4779 C 431.831 1.11793 3.28816 0
M  V30 4780 C 430.785 2.21417 3.66277 0
M  V30 4781 C 430.111 1.85218 5.01596 0
M  V30 4782 C 431.411 3.63489 3.75064 0
M  V30 4783 H 433.105 2.2743 1.9472 0
M  V30 4784 H 430.651 1.09479 0.935437 0
M  V30 4785 H 432.604 1.08222 4.07266 0
M  V30 4786 H 431.328 0.139501 3.26302 0
M  V30 4787 H 429.987 2.2411 2.90121 0
M  V30 4788 H 429.635 0.859544 4.95602 0
M  V30 4789 H 429.335 2.58611 5.27631 0
M  V30 4790 H 430.859 1.832 5.82469 0
M  V30 4791 H 432.273 3.63034 4.43711 0
M  V30 4792 H 430.67 4.35771 4.12582 0
M  V30 4793 H 431.74 3.98536 2.76219 0
M  V30 4794 N 433.083 -1.0153 1.20538 0
M  V30 4795 C 434.308 -1.79283 1.04271 0
M  V30 4796 C 434.733 -1.8372 -0.403544 0
M  V30 4797 O 434.091 -1.27321 -1.2907 0
M  V30 4798 C 434.139 -3.21535 1.63241 0
M  V30 4799 O 433.243 -4.03099 0.870908 0
M  V30 4800 H 432.584 -0.55293 0.367647 0
M  V30 4801 H 435.114 -1.27696 1.59859 0
M  V30 4802 H 435.124 -3.72243 1.6703 0
M  V30 4803 H 433.799 -3.1762 2.68497 0
M  V30 4804 H 432.376 -3.61693 0.907323 0
M  V30 4805 N 434.561 -1.01147 -1.20859 0
M  V30 4806 C 435.491 -0.597663 -2.25722 0
M  V30 4807 C 436.472 0.384744 -1.65692 0
M  V30 4808 O 437.657 0.271303 -1.92296 0
M  V30 4809 C 434.787 0.0700149 -3.47229 0
M  V30 4810 C 433.741 -0.832843 -4.19819 0
M  V30 4811 C 433.067 -0.0312202 -5.34691 0
M  V30 4812 C 434.367 -2.1385 -4.76514 0
M  V30 4813 H 436.061 -1.47423 -2.60589 0
M  V30 4814 H 433.607 -0.710301 -1.25263 0
M  V30 4815 H 435.56 0.37103 -4.19763 0
M  V30 4816 H 434.284 0.981259 -3.11511 0
M  V30 4817 H 432.943 -1.11778 -3.49144 0
M  V30 4818 H 432.591 0.881515 -4.95215 0
M  V30 4819 H 432.291 -0.632434 -5.84187 0
M  V30 4820 H 433.815 0.26346 -6.10031 0
M  V30 4821 H 435.229 -1.9002 -5.40893 0
M  V30 4822 H 433.626 -2.69012 -5.36426 0
M  V30 4823 H 434.696 -2.80495 -3.95538 0
M  V30 4824 N 436.039 1.36541 -0.78704 0
M  V30 4825 C 437.286 1.99304 -0.358341 0
M  V30 4826 C 437.614 1.62467 1.06933 0
M  V30 4827 O 436.869 0.870019 1.75297 0
M  V30 4828 C 437.168 3.54343 -0.466485 0
M  V30 4829 C 436.834 4.10993 -1.85461 0
M  V30 4830 C 435.496 4.26177 -2.23443 0
M  V30 4831 C 437.848 4.41895 -2.76366 0
M  V30 4832 C 435.176 4.69573 -3.51736 0
M  V30 4833 C 437.528 4.86722 -4.04084 0
M  V30 4834 C 436.192 5.00112 -4.42091 0
M  V30 4835 H 435.462 0.729306 -0.131126 0
M  V30 4836 H 438.109 1.63068 -1.00404 0
M  V30 4837 H 436.414 3.90918 0.262719 0
M  V30 4838 H 438.111 4.00833 -0.115854 0
M  V30 4839 H 434.701 3.99612 -1.54946 0
M  V30 4840 H 438.885 4.29735 -2.48277 0
M  V30 4841 H 434.141 4.78127 -3.81057 0
M  V30 4842 H 438.315 5.09598 -4.7464 0
M  V30 4843 H 435.942 5.33498 -5.41557 0
M  V30 4844 N 437.518 0.538854 1.48102 0
M  V30 4845 C 438.765 0.0080018 2.02498 0
M  V30 4846 C 439.093 -1.33437 1.41509 0
M  V30 4847 O 438.348 -1.87709 0.553507 0
M  V30 4848 C 438.647 -0.153808 3.57069 0
M  V30 4849 C 438.313 1.11533 4.36888 0
M  V30 4850 C 436.975 1.46314 4.58417 0
M  V30 4851 C 439.327 1.95718 4.83057 0
M  V30 4852 C 436.655 2.6516 5.23361 0
M  V30 4853 C 439.007 3.13751 5.49312 0
M  V30 4854 C 437.671 3.48866 5.69077 0
M  V30 4855 H 436.941 0.00292807 0.740994 0
M  V30 4856 H 439.588 0.706668 1.77984 0
M  V30 4857 H 437.893 -0.935309 3.80472 0
M  V30 4858 H 439.59 -0.579607 3.96789 0
M  V30 4859 H 436.18 0.834484 4.20398 0
M  V30 4860 H 440.364 1.70158 4.66219 0
M  V30 4861 H 435.62 2.92558 5.36861 0
M  V30 4862 H 439.794 3.79282 5.84053 0
M  V30 4863 H 437.421 4.41054 6.19173 0
M  V30 4864 N 438.996 -1.55193 0.274407 0
M  V30 4865 C 439.959 -2.212 -0.600279 0
M  V30 4866 C 440.959 -1.18963 -1.08187 0
M  V30 4867 O 442.149 -1.43873 -0.982158 0
M  V30 4868 C 439.281 -2.87739 -1.82809 0
M  V30 4869 H 440.474 -2.9989 -0.0239682 0
M  V30 4870 H 438.027 -1.5628 0.0250192 0
M  V30 4871 H 438.762 -2.13058 -2.44493 0
M  V30 4872 H 438.547 -3.62658 -1.49069 0
M  V30 4873 H 440.037 -3.38171 -2.45011 0
M  V30 4874 N 440.474 -0.00167713 -1.576 0
M  V30 4875 C 441.722 0.681471 -1.90264 0
M  V30 4876 C 442.043 1.7422 -0.875924 0
M  V30 4877 O 441.313 1.95709 0.0864412 0
M  V30 4878 H 439.893 0.254696 -0.702239 0
M  V30 4879 H 442.555 -0.0429996 -1.94853 0
M  V30 4880 H 441.651 1.15166 -2.90075 0
M  V30 4881 N 441.952 1.55251 0.271103 0
M  V30 4882 C 443.18 1.79974 1.02064 0
M  V30 4883 C 443.595 0.574003 1.79863 0
M  V30 4884 O 442.952 -0.456962 1.76686 0
M  V30 4885 C 443.003 3.02603 1.97772 0
M  V30 4886 O 442.724 4.20443 1.23124 0
M  V30 4887 C 444.225 3.39944 2.84522 0
M  V30 4888 H 441.445 0.599489 0.301419 0
M  V30 4889 H 443.989 2.02268 0.301313 0
M  V30 4890 H 442.144 2.8243 2.65165 0
M  V30 4891 H 442.558 4.89783 1.87651 0
M  V30 4892 H 444.032 4.28915 3.47471 0
M  V30 4893 H 444.509 2.59432 3.54389 0
M  V30 4894 H 445.115 3.62383 2.22618 0
M  V30 4895 N 443.43 -0.535701 1.48216 0
M  V30 4896 C 444.34 -1.66785 1.64985 0
M  V30 4897 C 445.356 -1.65654 0.532414 0
M  V30 4898 O 446.532 -1.8471 0.80275 0
M  V30 4899 C 443.597 -3.0326 1.68031 0
M  V30 4900 C 442.658 -3.1529 2.9136 0
M  V30 4901 C 441.891 -4.45255 2.94252 0
M  V30 4902 O 442.114 -5.32011 2.05719 0
M  V30 4903 O 441.048 -4.6153 3.86359 0
M  V30 4904 H 444.874 -1.55576 2.60825 0
M  V30 4905 H 442.459 -0.70815 1.31551 0
M  V30 4906 H 444.341 -3.84436 1.72589 0
M  V30 4907 H 443.016 -3.14805 0.753628 0
M  V30 4908 H 441.923 -2.3343 2.92337 0
M  V30 4909 H 443.256 -3.08658 3.83394 0
M  V30 4910 N 444.908 -1.36708 -0.784132 0
M  V30 4911 C 446.136 -1.34398 -1.57305 0
M  V30 4912 C 446.551 0.0735577 -1.88657 0
M  V30 4913 O 445.908 1.03193 -1.50524 0
M  V30 4914 C 445.959 -2.17053 -2.89085 0
M  V30 4915 O 445.68 -3.53281 -2.59083 0
M  V30 4916 C 447.181 -2.22583 -3.83369 0
M  V30 4917 H 444.401 -0.460819 -0.487736 0
M  V30 4918 H 446.945 -1.79879 -0.972819 0
M  V30 4919 H 445.1 -1.75113 -3.45564 0
M  V30 4920 H 445.514 -3.9647 -3.43383 0
M  V30 4921 H 446.988 -2.84763 -4.72878 0
M  V30 4922 H 447.465 -1.23075 -4.21603 0
M  V30 4923 H 448.071 -2.64781 -3.32823 0
M  V30 4924 N 446.386 1.0089 -1.21074 0
M  V30 4925 C 447.614 1.78191 -1.05145 0
M  V30 4926 C 448.029 1.84537 0.398952 0
M  V30 4927 O 447.386 1.30393 1.27687 0
M  V30 4928 C 447.437 3.22288 -1.63746 0
M  V30 4929 O 447.158 3.16315 -3.03111 0
M  V30 4930 C 448.659 4.16106 -1.52875 0
M  V30 4931 H 445.879 0.560129 -0.369454 0
M  V30 4932 H 448.423 1.26945 -1.60328 0
M  V30 4933 H 446.578 3.70655 -1.12664 0
M  V30 4934 H 446.992 4.06817 -3.31059 0
M  V30 4935 H 448.466 5.15026 -1.98626 0
M  V30 4936 H 448.943 4.36541 -0.482521 0
M  V30 4937 H 449.549 3.73625 -2.03185 0
M  V30 4938 N 447.864 1.01787 1.20321 0
M  V30 4939 C 449.089 0.727009 1.9424 0
M  V30 4940 C 449.514 -0.706179 1.74341 0
M  V30 4941 O 448.872 -1.48609 1.03852 0
M  V30 4942 C 448.92 1.06958 3.44372 0
M  V30 4943 O 448.024 0.181983 4.11998 0
M  V30 4944 H 447.365 0.269626 0.606793 0
M  V30 4945 H 449.895 1.36158 1.52716 0
M  V30 4946 H 449.905 1.02182 3.94997 0
M  V30 4947 H 448.58 2.11378 3.58179 0
M  V30 4948 H 447.157 0.287378 3.71791 0
M  V30 4949 N 449.342 -1.36122 0.79427 0
M  V30 4950 C 450.57 -2.03362 0.380989 0
M  V30 4951 C 450.985 -1.59881 -1.00416 0
M  V30 4952 O 450.342 -0.790515 -1.6449 0
M  V30 4953 C 450.393 -3.58804 0.440649 0
M  V30 4954 O 450.114 -4.007 1.77118 0
M  V30 4955 C 451.615 -4.43296 0.0186117 0
M  V30 4956 H 448.835 -0.652526 0.156367 0
M  V30 4957 H 451.379 -1.73998 1.07447 0
M  V30 4958 H 449.534 -3.8686 -0.204458 0
M  V30 4959 H 449.948 -4.95309 1.72538 0
M  V30 4960 H 451.422 -5.51887 0.111488 0
M  V30 4961 H 451.899 -4.2684 -1.03461 0
M  V30 4962 H 452.505 -4.20512 0.636395 0
M  V30 4963 N 450.82 -0.546701 -1.47814 0
M  V30 4964 C 452.048 -0.0232857 -2.06887 0
M  V30 4965 C 452.463 1.26571 -1.4009 0
M  V30 4966 O 451.82 1.7569 -0.493906 0
M  V30 4967 C 451.871 0.186975 -3.61016 0
M  V30 4968 O 451.592 -1.05097 -4.25307 0
M  V30 4969 C 453.093 0.748872 -4.36929 0
M  V30 4970 H 450.313 -0.0410763 -0.669742 0
M  V30 4971 H 452.857 -0.757117 -1.89968 0
M  V30 4972 H 451.012 0.870903 -3.77484 0
M  V30 4973 H 451.426 -0.842121 -5.17695 0
M  V30 4974 H 452.9 0.845334 -5.45489 0
M  V30 4975 H 453.377 1.75772 -4.02493 0
M  V30 4976 H 453.983 0.100979 -4.2518 0
M  V30 4977 N 452.299 1.55045 -0.282633 0
M  V30 4978 C 453.229 2.2579 0.595066 0
M  V30 4979 C 454.21 1.25074 1.15284 0
M  V30 4980 O 455.395 1.5381 1.18559 0
M  V30 4981 C 452.525 2.98472 1.77572 0
M  V30 4982 C 451.479 4.0618 1.34914 0
M  V30 4983 C 450.805 4.66477 2.6135 0
M  V30 4984 C 452.105 5.1996 0.493821 0
M  V30 4985 H 453.799 2.994 0.00505653 0
M  V30 4986 H 451.345 1.44 0.000992001 0
M  V30 4987 H 453.298 3.46677 2.39568 0
M  V30 4988 H 452.022 2.2241 2.39168 0
M  V30 4989 H 450.681 3.58797 0.752338 0
M  V30 4990 H 450.329 3.87074 3.2122 0
M  V30 4991 H 450.029 5.39207 2.33516 0
M  V30 4992 H 451.553 5.17435 3.24181 0
M  V30 4993 H 452.967 5.64172 1.01898 0
M  V30 4994 H 451.364 5.99299 0.310047 0
M  V30 4995 H 452.434 4.82462 -0.485593 0
M  V30 4996 N 453.777 0.010035 1.57597 0
M  V30 4997 C 455.193 -0.346164 1.55801 0
M  V30 4998 C 455.393 -1.74144 1.01371 0
M  V30 4999 O 454.449 -2.43938 0.651968 0
M  V30 5000 C 455.762 -0.212216 2.9995 0
M  V30 5001 C 457.31 -0.286409 3.11687 0
M  V30 5002 C 457.785 -0.18147 4.5764 0
M  V30 5003 N 459.276 -0.239056 4.62583 0
M  V30 5004 C 460.011 -0.181351 5.73113 0
M  V30 5005 N 459.507 -0.073661 6.92761 0
M  V30 5006 N 461.3 -0.233949 5.61613 0
M  V30 5007 H 453.451 0.922657 1.91313 0
M  V30 5008 H 455.714 0.354595 0.879185 0
M  V30 5009 H 455.42 0.748169 3.4365 0
M  V30 5010 H 455.294 -0.990224 3.6397 0
M  V30 5011 H 457.681 -1.23724 2.67911 0
M  V30 5012 H 457.762 0.521645 2.50425 0
M  V30 5013 H 457.406 0.765863 5.02093 0
M  V30 5014 H 457.336 -1.00814 5.1686 0
M  V30 5015 H 459.827 -0.32321 3.76515 0
M  V30 5016 H 460.14 -0.0358003 7.72792 0
M  V30 5017 H 458.485 -0.0391461 6.94989 0
M  V30 5018 H 461.676 -0.316347 4.6703 0
M  V30 5019 H 461.849 -0.185514 6.47734 0
M  V30 5020 N 455.255 -1.55392 -0.262866 0
M  V30 5021 C 456.485 -1.80251 -1.00961 0
M  V30 5022 C 456.893 -0.58117 -1.80053 0
M  V30 5023 O 456.236 0.459427 -1.77862 0
M  V30 5024 C 456.298 -2.98207 -2.00781 0
M  V30 5025 C 455.962 -4.34856 -1.40533 0
M  V30 5026 C 456.959 -5.13459 -0.815853 0
M  V30 5027 C 454.644 -4.8153 -1.42948 0
M  V30 5028 C 456.638 -6.36875 -0.258562 0
M  V30 5029 C 454.325 -6.04899 -0.868334 0
M  V30 5030 C 455.323 -6.8241 -0.283884 0
M  V30 5031 O 455.011 -8.03451 0.268644 0
M  V30 5032 H 454.743 -0.604049 -0.303482 0
M  V30 5033 H 457.297 -2.03257 -0.295926 0
M  V30 5034 H 455.527 -2.70917 -2.75936 0
M  V30 5035 H 457.216 -3.10299 -2.61667 0
M  V30 5036 H 457.982 -4.78526 -0.789812 0
M  V30 5037 H 453.861 -4.21201 -1.87378 0
M  V30 5038 H 457.405 -6.97318 0.198257 0
M  V30 5039 H 453.302 -6.39312 -0.891649 0
M  V30 5040 H 454.07 -8.18346 0.158974 0
M  V30 5041 N 456.733 0.527833 -1.48498 0
M  V30 5042 C 457.981 1.28101 -1.56316 0
M  V30 5043 C 458.302 1.9352 -0.239781 0
M  V30 5044 O 457.572 1.81433 0.738849 0
M  V30 5045 H 456.152 0.475793 -0.575873 0
M  V30 5046 H 458.814 0.614052 -1.84974 0
M  V30 5047 H 457.91 2.05916 -2.34532 0
M  V30 5048 N 458.211 1.37122 0.776871 0
M  V30 5049 C 459.458 1.32047 1.53524 0
M  V30 5050 C 459.786 -0.0965631 1.9426 0
M  V30 5051 O 459.041 -1.06866 1.63945 0
M  V30 5052 C 459.34 2.20068 2.81611 0
M  V30 5053 C 459.006 3.68423 2.59953 0
M  V30 5054 C 457.668 4.08854 2.53755 0
M  V30 5055 C 460.02 4.62431 2.40431 0
M  V30 5056 C 457.348 5.41417 2.26018 0
M  V30 5057 C 459.7 5.95225 2.14219 0
M  V30 5058 C 458.364 6.34767 2.06462 0
M  V30 5059 H 457.634 0.483196 0.561785 0
M  V30 5060 H 460.281 1.69284 0.895268 0
M  V30 5061 H 458.586 1.75809 3.50141 0
M  V30 5062 H 460.283 2.13458 3.39465 0
M  V30 5063 H 456.873 3.36354 2.65638 0
M  V30 5064 H 461.057 4.32057 2.44213 0
M  V30 5065 H 456.313 5.71022 2.18504 0
M  V30 5066 H 460.487 6.67626 1.98112 0
M  V30 5067 H 458.114 7.37413 1.84733 0
M  V30 5068 N 459.689 -1.00246 1.21608 0
M  V30 5069 C 460.619 -2.10921 1.00172 0
M  V30 5070 C 461.6 -1.69938 -0.0741587 0
M  V30 5071 O 462.785 -1.94009 0.0861753 0
M  V30 5072 C 459.915 -3.42618 0.568355 0
M  V30 5073 C 458.869 -3.97407 1.58909 0
M  V30 5074 C 458.195 -5.25038 1.01187 0
M  V30 5075 C 459.495 -4.2918 2.97661 0
M  V30 5076 H 461.189 -2.29112 1.92739 0
M  V30 5077 H 458.735 -1.10101 0.928102 0
M  V30 5078 H 460.688 -4.19444 0.405555 0
M  V30 5079 H 459.412 -3.24227 -0.392961 0
M  V30 5080 H 458.071 -3.22703 1.73949 0
M  V30 5081 H 457.719 -5.02982 0.0421965 0
M  V30 5082 H 457.419 -5.62661 1.6937 0
M  V30 5083 H 458.943 -6.04507 0.860448 0
M  V30 5084 H 460.357 -4.96839 2.86049 0
M  V30 5085 H 458.754 -4.77952 3.6288 0
M  V30 5086 H 459.824 -3.3735 3.48315 0
M  V30 5087 N 461.167 -1.02423 -1.1978 0
M  V30 5088 C 462.097 -0.62157 -2.25075 0
M  V30 5089 C 463.078 0.367148 -1.6609 0
M  V30 5090 O 464.263 0.250892 -1.92573 0
M  V30 5091 C 461.393 0.0331826 -3.47284 0
M  V30 5092 C 460.347 -0.877323 -4.18912 0
M  V30 5093 C 459.673 -0.0879296 -5.34628 0
M  V30 5094 C 460.973 -2.18892 -4.74219 0
M  V30 5095 H 462.667 -1.50179 -2.59011 0
M  V30 5096 H 460.213 -0.723547 -1.24502 0
M  V30 5097 H 462.166 0.326488 -4.20133 0
M  V30 5098 H 460.89 0.948164 -3.12534 0
M  V30 5099 H 459.549 -1.15475 -3.47938 0
M  V30 5100 H 459.197 0.828941 -4.96123 0
M  V30 5101 H 458.897 -0.694359 -5.83483 0
M  V30 5102 H 460.421 0.198743 -6.10276 0
M  V30 5103 H 461.835 -1.95746 -5.38847 0
M  V30 5104 H 460.232 -2.74686 -5.33542 0
M  V30 5105 H 461.302 -2.84674 -3.92541 0
M  V30 5106 N 462.645 1.35699 -0.801477 0
M  V30 5107 C 463.578 2.2768 -0.153922 0
M  V30 5108 C 464.556 1.47832 0.67709 0
M  V30 5109 O 465.74 1.77104 0.645474 0
M  V30 5110 C 462.867 3.2943 0.786986 0
M  V30 5111 C 461.913 4.26485 0.0362447 0
M  V30 5112 S 462.746 5.19573 -1.2963 0
M  V30 5113 C 463.902 6.24866 -0.359705 0
M  V30 5114 H 464.135 2.82254 -0.9338 0
M  V30 5115 H 461.668 1.42421 -0.596283 0
M  V30 5116 H 463.626 3.8855 1.32436 0
M  V30 5117 H 462.287 2.73745 1.54021 0
M  V30 5118 H 461.48 4.98378 0.750668 0
M  V30 5119 H 461.082 3.71508 -0.431017 0
M  V30 5120 H 463.374 6.75957 0.456954 0
M  V30 5121 H 464.317 7.00307 -1.04768 0
M  V30 5122 H 464.725 5.64484 0.0423274 0
M  V30 5123 N 464.123 0.554532 1.47522 0
M  V30 5124 C 465.053 -0.182974 2.32782 0
M  V30 5125 C 466.034 -0.911377 1.43624 0
M  V30 5126 O 467.219 -0.892366 1.72483 0
M  V30 5127 C 464.349 -1.21513 3.25349 0
M  V30 5128 C 463.303 -0.603355 4.23726 0
M  V30 5129 C 462.629 -1.73995 5.05598 0
M  V30 5130 C 463.929 0.441121 5.20434 0
M  V30 5131 H 465.623 0.52882 2.94693 0
M  V30 5132 H 463.169 0.255759 1.41711 0
M  V30 5133 H 465.122 -1.73922 3.83835 0
M  V30 5134 H 463.846 -1.95683 2.61487 0
M  V30 5135 H 462.505 -0.10059 3.66462 0
M  V30 5136 H 462.153 -2.47063 4.38143 0
M  V30 5137 H 461.853 -1.3364 5.72201 0
M  V30 5138 H 463.377 -2.26735 5.66942 0
M  V30 5139 H 464.791 0.00319931 5.733 0
M  V30 5140 H 463.188 0.763402 5.95224 0
M  V30 5141 H 464.258 1.33799 4.66075 0
M  V30 5142 N 465.601 -1.54893 0.290851 0
M  V30 5143 C 466.548 -2.23138 -0.58974 0
M  V30 5144 C 467.518 -1.21036 -1.13752 0
M  V30 5145 O 468.703 -1.49626 -1.18392 0
M  V30 5146 C 465.843 -2.96811 -1.76061 0
M  V30 5147 C 464.956 -4.13665 -1.24519 0
M  V30 5148 C 464.091 -4.74944 -2.3791 0
M  V30 5149 C 463.13 -5.83963 -1.83451 0
M  V30 5150 N 462.267 -6.39239 -2.90376 0
M  V30 5151 H 467.107 -2.98 -0.00114915 0
M  V30 5152 H 464.644 -1.47096 0.0112006 0
M  V30 5153 H 466.602 -3.37751 -2.44909 0
M  V30 5154 H 465.232 -2.24344 -2.32098 0
M  V30 5155 H 464.284 -3.77737 -0.449288 0
M  V30 5156 H 465.596 -4.92238 -0.806424 0
M  V30 5157 H 464.75 -5.18684 -3.14724 0
M  V30 5158 H 463.489 -3.95682 -2.85109 0
M  V30 5159 H 462.494 -5.39657 -1.05122 0
M  V30 5160 H 463.719 -6.65103 -1.37169 0
M  V30 5161 H 461.665 -5.62864 -3.36927 0
M  V30 5162 H 461.582 -7.13129 -2.50965 0
M  V30 5163 H 462.85 -6.87637 -3.67118 0
M  V30 5164 N 467.08 -0.0183926 -1.57589 0
M  V30 5165 C 468.31 0.67207 -1.95363 0
M  V30 5166 C 468.718 1.66807 -0.892872 0
M  V30 5167 O 468.061 1.83204 0.134958 0
M  V30 5168 C 468.123 1.44397 -3.29226 0
M  V30 5169 C 467.787 0.607511 -4.52944 0
M  V30 5170 C 468.784 -0.112657 -5.19778 0
M  V30 5171 C 466.469 0.548068 -4.99301 0
M  V30 5172 C 468.463 -0.881057 -6.31281 0
M  V30 5173 C 466.15 -0.224044 -6.10689 0
M  V30 5174 C 467.148 -0.937323 -6.76538 0
M  V30 5175 O 466.836 -1.6968 -7.85789 0
M  V30 5176 H 466.568 0.190925 -0.648478 0
M  V30 5177 H 469.122 -0.0711994 -2.05277 0
M  V30 5178 H 467.352 2.23214 -3.15773 0
M  V30 5179 H 469.041 2.02152 -3.51979 0
M  V30 5180 H 469.807 -0.0759998 -4.8494 0
M  V30 5181 H 465.686 1.09281 -4.4786 0
M  V30 5182 H 469.23 -1.43832 -6.82611 0
M  V30 5183 H 465.127 -0.262457 -6.44966 0
M  V30 5184 H 465.895 -1.61544 -8.024 0
M  V30 5185 N 468.558 1.5553 0.254621 0
M  V30 5186 C 469.969 1.67518 0.824286 0
M  V30 5187 C 470.32 0.614429 1.86331 0
M  V30 5188 O 469.445 -0.240736 2.15057 0
M  V30 5189 C 470.04 3.03692 1.50189 0
M  V30 5190 C 468.599 3.17646 2.01935 0
M  V30 5191 C 467.746 2.63373 0.867746 0
M  V30 5192 H 470.697 1.58671 0.0305843 0
M  V30 5193 H 470.718 2.97706 2.36962 0
M  V30 5194 H 470.23 3.80874 0.745431 0
M  V30 5195 H 468.331 2.45273 2.80485 0
M  V30 5196 H 468.444 4.24455 2.22204 0
M  V30 5197 H 466.808 2.20999 1.26616 0
M  V30 5198 H 467.591 3.43074 0.124498 0
M  V30 5199 N 470.036 -0.519951 1.48776 0
M  V30 5200 C 470.986 -1.61995 1.60442 0
M  V30 5201 C 471.97 -1.54155 0.460991 0
M  V30 5202 O 473.162 -1.62006 0.712965 0
M  V30 5203 C 470.291 -3.00683 1.65664 0
M  V30 5204 C 469.377 -3.1359 2.8552 0
M  V30 5205 N 469.768 -2.96441 4.09825 0
M  V30 5206 C 468.066 -3.44662 2.83062 0
M  V30 5207 C 468.767 -3.1303 4.90293 0
M  V30 5208 N 467.743 -3.41058 4.23297 0
M  V30 5209 H 471.545 -1.47362 2.54287 0
M  V30 5210 H 469.059 -0.725649 1.45286 0
M  V30 5211 H 471.056 -3.79712 1.72117 0
M  V30 5212 H 469.716 -3.16401 0.729425 0
M  V30 5213 H 470.727 -2.72999 4.40104 0
M  V30 5214 H 467.404 -3.66675 1.9964 0
M  V30 5215 H 468.794 -3.04424 5.98979 0
M  V30 5216 N 471.514 -1.37532 -0.769588 0
M  V30 5217 C 472.76 -1.33057 -1.53048 0
M  V30 5218 C 473.093 0.0841865 -1.94017 0
M  V30 5219 O 472.368 1.04198 -1.64235 0
M  V30 5220 C 472.651 -2.27166 -2.79406 0
M  V30 5221 C 472.504 -3.77429 -2.44677 0
M  V30 5222 C 473.823 -2.19683 -3.81349 0
M  V30 5223 H 470.942 -0.484655 -0.555228 0
M  V30 5224 H 473.584 -1.68251 -0.882702 0
M  V30 5225 H 471.734 -1.97283 -3.34682 0
M  V30 5226 H 473.406 -4.17918 -1.953 0
M  V30 5227 H 471.649 -3.95892 -1.77346 0
M  V30 5228 H 472.32 -4.38716 -3.35011 0
M  V30 5229 H 474.796 -2.46029 -3.35573 0
M  V30 5230 H 473.672 -2.87668 -4.67481 0
M  V30 5231 H 473.933 -1.19045 -4.25771 0
M  V30 5232 N 472.992 0.995999 -1.22138 0
M  V30 5233 C 473.955 2.06711 -0.990109 0
M  V30 5234 C 474.955 1.60744 0.0422978 0
M  V30 5235 O 476.145 1.73095 -0.195895 0
M  V30 5236 C 473.277 3.37288 -0.49491 0
M  V30 5237 H 474.47 2.28661 -1.94047 0
M  V30 5238 H 472.023 1.16711 -1.03963 0
M  V30 5239 H 472.758 3.21022 0.459948 0
M  V30 5240 H 472.543 3.71986 -1.23971 0
M  V30 5241 H 474.033 4.16103 -0.353253 0
M  V30 5242 N 474.47 1.03057 1.19235 0
M  V30 5243 C 475.38 0.622922 2.26179 0
M  V30 5244 C 476.396 -0.346113 1.70523 0
M  V30 5245 O 477.572 -0.203572 2.00369 0
M  V30 5246 C 474.637 -0.0182063 3.46695 0
M  V30 5247 C 473.698 0.998546 4.17526 0
M  V30 5248 C 472.931 0.387917 5.32288 0
M  V30 5249 O 473.154 -0.808668 5.64639 0
M  V30 5250 O 472.088 1.1116 5.91546 0
M  V30 5251 H 475.914 1.51363 2.63292 0
M  V30 5252 H 473.499 0.800856 1.26122 0
M  V30 5253 H 475.381 -0.375606 4.19723 0
M  V30 5254 H 474.056 -0.882895 3.11427 0
M  V30 5255 H 472.963 1.40756 3.4661 0
M  V30 5256 H 474.296 1.83366 4.56769 0
M  V30 5257 N 475.948 -1.35272 0.808662 0
M  V30 5258 C 477.364 -1.51806 0.492653 0
M  V30 5259 C 477.564 -1.7574 -0.985778 0
M  V30 5260 O 476.62 -1.80003 -1.77074 0
M  V30 5261 C 477.933 -2.69202 1.33981 0
M  V30 5262 C 479.481 -2.8308 1.33547 0
M  V30 5263 C 479.956 -4.03502 2.16679 0
M  V30 5264 N 481.447 -4.10684 2.14227 0
M  V30 5265 C 482.182 -5.02984 2.75308 0
M  V30 5266 N 481.678 -6.00603 3.45323 0
M  V30 5267 N 483.471 -4.95746 2.64938 0
M  V30 5268 H 475.622 -1.17993 1.76611 0
M  V30 5269 H 477.885 -0.577476 0.751814 0
M  V30 5270 H 477.591 -2.581 2.38909 0
M  V30 5271 H 477.465 -3.63854 0.994491 0
M  V30 5272 H 479.852 -2.93631 0.294036 0
M  V30 5273 H 479.933 -1.89278 1.72068 0
M  V30 5274 H 479.577 -3.93711 3.20864 0
M  V30 5275 H 479.507 -4.96489 1.75517 0
M  V30 5276 H 481.998 -3.40802 1.63285 0
M  V30 5277 H 482.311 -6.67633 3.89212 0
M  V30 5278 H 480.656 -6.0077 3.49428 0
M  V30 5279 H 483.847 -4.18439 2.09825 0
M  V30 5280 H 484.02 -5.67487 3.12829 0
M  V30 5281 N 477.426 -0.562348 -1.47226 0
M  V30 5282 C 478.672 -0.0402761 -2.0276 0
M  V30 5283 C 479.005 1.30823 -1.43523 0
M  V30 5284 O 478.28 1.85249 -0.592705 0
M  V30 5285 C 478.563 0.047311 -3.60069 0
M  V30 5286 C 478.416 -1.32865 -4.29729 0
M  V30 5287 C 479.735 0.758182 -4.3352 0
M  V30 5288 H 476.854 -0.0161105 -0.736824 0
M  V30 5289 H 479.496 -0.725628 -1.75598 0
M  V30 5290 H 477.646 0.630986 -3.83342 0
M  V30 5291 H 479.318 -1.95593 -4.17781 0
M  V30 5292 H 477.561 -1.90195 -3.89882 0
M  V30 5293 H 478.232 -1.22004 -5.38349 0
M  V30 5294 H 480.708 0.262546 -4.15271 0
M  V30 5295 H 479.584 0.78844 -5.43208 0
M  V30 5296 H 479.845 1.81537 -4.03109 0
M  V30 5297 N 478.904 1.54736 -0.299062 0
M  V30 5298 C 480.134 2.04215 0.312992 0
M  V30 5299 C 480.542 1.17596 1.48215 0
M  V30 5300 O 479.885 0.193835 1.82674 0
M  V30 5301 C 479.947 3.49696 0.833862 0
M  V30 5302 C 479.611 4.56518 -0.20977 0
M  V30 5303 C 480.608 5.09442 -1.03756 0
M  V30 5304 C 478.293 5.01073 -0.35091 0
M  V30 5305 C 480.287 6.05459 -1.99244 0
M  V30 5306 C 477.974 5.9691 -1.30924 0
M  V30 5307 C 478.972 6.48987 -2.1285 0
M  V30 5308 O 478.66 7.42947 -3.07059 0
M  V30 5309 H 478.392 0.672128 0.0722494 0
M  V30 5310 H 480.946 2.00718 -0.436043 0
M  V30 5311 H 479.176 3.5051 1.63339 0
M  V30 5312 H 480.865 3.82381 1.36159 0
M  V30 5313 H 481.631 4.75816 -0.939376 0
M  V30 5314 H 477.51 4.60168 0.276813 0
M  V30 5315 H 481.054 6.46031 -2.63229 0
M  V30 5316 H 476.951 6.29953 -1.40815 0
M  V30 5317 H 477.719 7.60743 -3.02015 0
M  V30 5318 N 480.382 0.0267497 1.57577 0
M  V30 5319 C 481.798 -0.32962 1.56159 0
M  V30 5320 C 481.998 -1.73059 1.03213 0
M  V30 5321 O 481.054 -2.43233 0.677804 0
M  V30 5322 C 482.367 -0.18039 3.00158 0
M  V30 5323 C 483.915 -0.253334 3.11973 0
M  V30 5324 C 484.39 -0.132921 4.57807 0
M  V30 5325 N 485.881 -0.189979 4.6281 0
M  V30 5326 C 486.616 -0.120554 5.73273 0
M  V30 5327 N 486.112 -0.000180315 6.928 0
M  V30 5328 N 487.905 -0.174369 5.61829 0
M  V30 5329 H 480.056 0.942896 1.90324 0
M  V30 5330 H 482.319 0.3639 0.875375 0
M  V30 5331 H 482.025 0.784576 3.42837 0
M  V30 5332 H 481.899 -0.951565 3.65 0
M  V30 5333 H 484.286 -1.20876 2.69208 0
M  V30 5334 H 484.367 0.548177 2.49857 0
M  V30 5335 H 484.011 0.819073 5.01252 0
M  V30 5336 H 483.941 -0.953264 5.179 0
M  V30 5337 H 486.432 -0.283257 3.76837 0
M  V30 5338 H 486.745 0.0461666 7.72786 0
M  V30 5339 H 485.09 0.034569 6.94991 0
M  V30 5340 H 488.281 -0.266794 4.67339 0
M  V30 5341 H 488.454 -0.116802 6.47895 0
M  V30 5342 N 481.861 -1.55662 -0.24637 0
M  V30 5343 C 482.771 -1.93495 -1.32653 0
M  V30 5344 C 483.787 -0.835462 -1.5263 0
M  V30 5345 O 484.963 -1.1369 -1.66242 0
M  V30 5346 C 482.028 -2.22242 -2.66101 0
M  V30 5347 C 481.089 -3.45625 -2.54641 0
M  V30 5348 C 480.322 -3.72991 -3.81724 0
M  V30 5349 O 480.545 -3.02421 -4.8363 0
M  V30 5350 O 479.479 -4.66515 -3.80325 0
M  V30 5351 H 483.305 -2.85498 -1.03559 0
M  V30 5352 H 480.89 -1.42551 -0.44717 0
M  V30 5353 H 482.772 -2.42037 -3.44958 0
M  V30 5354 H 481.447 -1.33417 -2.94926 0
M  V30 5355 H 480.354 -3.31136 -1.74067 0
M  V30 5356 H 481.687 -4.34754 -2.3076 0
M  V30 5357 N 483.339 0.512053 -1.4905 0
M  V30 5358 C 484.588 1.26343 -1.57227 0
M  V30 5359 C 484.901 1.93876 -0.259155 0
M  V30 5360 O 486.107 2.70612 -0.219358 0
M  V30 5361 C 484.563 2.29343 -2.77362 0
M  V30 5362 C 484.171 1.67799 -4.15388 0
M  V30 5363 C 485.915 3.05378 -2.94864 0
M  V30 5364 C 483.822 2.68845 -5.2676 0
M  V30 5365 H 482.752 0.475231 -0.585382 0
M  V30 5366 H 485.403 0.53862 -1.75417 0
M  V30 5367 H 483.785 3.04938 -2.52643 0
M  V30 5368 H 484.959 0.982715 -4.50199 0
M  V30 5369 H 483.274 1.04194 -4.03153 0
M  V30 5370 H 485.871 3.80921 -3.75238 0
M  V30 5371 H 486.214 3.62327 -2.05 0
M  V30 5372 H 486.747 2.36898 -3.19569 0
M  V30 5373 H 483.486 2.16692 -6.18647 0
M  V30 5374 H 483.006 3.36647 -4.96416 0
M  V30 5375 H 484.685 3.31487 -5.5563 0
M  V30 5376 N 484.817 1.37938 0.762283 0
M  V30 5377 C 485.727 1.36681 1.90671 0
M  V30 5378 C 486.743 0.265078 1.71969 0
M  V30 5379 O 487.919 0.502055 1.95042 0
M  V30 5380 C 484.984 1.18211 3.25925 0
M  V30 5381 C 484.045 2.3811 3.57214 0
M  V30 5382 C 483.278 2.20512 4.86014 0
M  V30 5383 O 483.501 1.19429 5.57757 0
M  V30 5384 O 482.435 3.08911 5.16583 0
M  V30 5385 H 486.261 2.33091 1.94685 0
M  V30 5386 H 483.846 1.18767 0.906356 0
M  V30 5387 H 485.728 1.09937 4.06807 0
M  V30 5388 H 484.403 0.248807 3.22742 0
M  V30 5389 H 483.31 2.51958 2.76529 0
M  V30 5390 H 484.643 3.30041 3.65149 0
M  V30 5391 N 486.295 -0.989507 1.22664 0
M  V30 5392 C 487.227 -2.0824 0.957542 0
M  V30 5393 C 488.24 -1.6267 -0.0651098 0
M  V30 5394 O 489.429 -1.77695 0.169312 0
M  V30 5395 C 486.529 -3.36298 0.419145 0
M  V30 5396 C 485.702 -4.10882 1.49982 0
M  V30 5397 C 484.761 -5.17221 0.967904 0
M  V30 5398 O 483.787 -5.44613 1.65487 0
M  V30 5399 N 484.989 -5.80124 -0.20896 0
M  V30 5400 H 487.754 -2.31904 1.89843 0
M  V30 5401 H 485.315 -1.15552 1.13399 0
M  V30 5402 H 487.307 -4.04671 0.0485451 0
M  V30 5403 H 485.877 -3.09671 -0.426937 0
M  V30 5404 H 485.097 -3.37092 2.04359 0
M  V30 5405 H 486.385 -4.57482 2.22682 0
M  V30 5406 H 485.783 -5.60244 -0.783818 0
M  V30 5407 H 484.34 -6.49715 -0.520913 0
M  V30 5408 N 487.773 -1.03688 -1.18687 0
M  V30 5409 C 489.019 -0.739123 -1.88851 0
M  V30 5410 C 489.352 0.731042 -1.79915 0
M  V30 5411 O 488.627 1.53313 -1.19688 0
M  V30 5412 C 488.91 -1.20106 -3.3948 0
M  V30 5413 C 488.763 -2.73304 -3.57246 0
M  V30 5414 C 490.082 -0.788134 -4.32986 0
M  V30 5415 H 487.201 -0.269978 -0.68577 0
M  V30 5416 H 489.843 -1.28822 -1.3966 0
M  V30 5417 H 487.993 -0.733915 -3.81505 0
M  V30 5418 H 489.665 -3.28027 -3.24339 0
M  V30 5419 H 487.908 -3.13313 -3.00029 0
M  V30 5420 H 488.579 -3.00684 -4.62918 0
M  V30 5421 H 491.055 -1.19005 -3.98719 0
M  V30 5422 H 489.931 -1.13915 -5.36949 0
M  V30 5423 H 490.192 0.308988 -4.41019 0
M  V30 5424 N 489.251 1.34841 -0.815825 0
M  V30 5425 C 490.5 1.97755 -0.396976 0
M  V30 5426 C 490.813 1.65422 1.04379 0
M  V30 5427 O 492.019 2.21771 1.5662 0
M  V30 5428 C 490.475 3.53818 -0.658869 0
M  V30 5429 C 490.083 3.95051 -2.11278 0
M  V30 5430 C 491.827 4.23397 -0.305834 0
M  V30 5431 C 489.734 5.43997 -2.31994 0
M  V30 5432 H 488.664 0.739985 -0.1447 0
M  V30 5433 H 491.315 1.53781 -1.00118 0
M  V30 5434 H 489.697 3.95997 0.0154112 0
M  V30 5435 H 490.871 3.63998 -2.82564 0
M  V30 5436 H 489.186 3.38388 -2.42657 0
M  V30 5437 H 491.783 5.32899 -0.43854 0
M  V30 5438 H 492.126 4.09508 0.748952 0
M  V30 5439 H 492.659 3.8667 -0.934403 0
M  V30 5440 H 489.398 5.62865 -3.35952 0
M  V30 5441 H 488.918 5.76589 -1.65244 0
M  V30 5442 H 490.597 6.10584 -2.14001 0
M  V30 5443 N 490.729 0.570148 1.46925 0
M  V30 5444 C 491.977 0.0508523 2.02036 0
M  V30 5445 C 492.298 -1.30885 1.44548 0
M  V30 5446 O 491.568 -1.85647 0.625453 0
M  V30 5447 H 490.148 0.0158088 0.746833 0
M  V30 5448 H 492.81 0.743086 1.80178 0
M  V30 5449 H 491.906 -0.027575 3.12088 0
M  V30 5450 N 492.207 -1.54576 0.307264 0
M  V30 5451 C 493.618 -1.8579 -0.184121 0
M  V30 5452 C 493.969 -1.22914 -1.52927 0
M  V30 5453 O 493.094 -0.529126 -2.09831 0
M  V30 5454 C 493.689 -3.37081 -0.340862 0
M  V30 5455 C 492.248 -3.68304 -0.776465 0
M  V30 5456 C 491.395 -2.77076 0.111503 0
M  V30 5457 H 494.346 -1.49656 0.528078 0
M  V30 5458 H 494.367 -3.61922 -1.17443 0
M  V30 5459 H 493.879 -3.82815 0.638309 0
M  V30 5460 H 491.98 -3.28092 -1.76596 0
M  V30 5461 H 492.093 -4.75434 -0.591512 0
M  V30 5462 H 490.457 -2.51374 -0.410256 0
M  V30 5463 H 491.24 -3.25632 1.08714 0
M  V30 5464 N 493.685 -0.035106 -1.57561 0
M  V30 5465 C 494.635 0.954034 -2.0708 0
M  V30 5466 C 495.619 1.2818 -0.972558 0
M  V30 5467 O 496.811 1.26691 -1.23606 0
M  V30 5468 C 493.94 2.23442 -2.60631 0
M  V30 5469 C 493.026 1.93475 -3.77396 0
M  V30 5470 N 493.417 1.33802 -4.87781 0
M  V30 5471 C 491.715 2.23434 -3.85996 0
M  V30 5472 C 492.416 1.21103 -5.68954 0
M  V30 5473 N 491.392 1.70855 -5.16052 0
M  V30 5474 H 495.194 0.487731 -2.89825 0
M  V30 5475 H 492.708 0.169759 -1.6151 0
M  V30 5476 H 494.705 2.95183 -2.94402 0
M  V30 5477 H 493.365 2.70693 -1.79319 0
M  V30 5478 H 494.376 1.01227 -5.07911 0
M  V30 5479 H 491.053 2.73317 -3.15601 0
M  V30 5480 H 492.443 0.749105 -6.67711 0
M  V30 5481 N 495.163 1.55791 0.238111 0
M  V30 5482 C 496.579 1.48411 0.587045 0
M  V30 5483 C 496.779 0.72702 1.87927 0
M  V30 5484 O 495.835 0.259942 2.51158 0
M  V30 5485 C 497.148 2.92873 0.681623 0
M  V30 5486 C 498.696 3.03295 0.773363 0
M  V30 5487 C 499.171 4.49082 0.899428 0
M  V30 5488 N 500.662 4.53056 0.964075 0
M  V30 5489 C 501.397 5.63117 1.08104 0
M  V30 5490 N 500.893 6.82969 1.16299 0
M  V30 5491 N 502.686 5.50933 1.11488 0
M  V30 5492 H 494.837 2.0345 -0.610076 0
M  V30 5493 H 497.1 0.924034 -0.211813 0
M  V30 5494 H 496.806 3.51142 -0.19802 0
M  V30 5495 H 496.68 3.43851 1.55069 0
M  V30 5496 H 499.067 2.45101 1.64346 0
M  V30 5497 H 499.148 2.55513 -0.121034 0
M  V30 5498 H 498.792 5.07889 0.0338586 0
M  V30 5499 H 498.722 4.94553 1.809 0
M  V30 5500 H 501.213 3.66737 0.91173 0
M  V30 5501 H 501.526 7.62598 1.25155 0
M  V30 5502 H 499.871 6.85712 1.13241 0
M  V30 5503 H 503.062 4.56231 1.0474 0
M  V30 5504 H 503.235 6.36743 1.20259 0
M  V30 5505 N 496.642 -0.504142 1.49319 0
M  V30 5506 C 498.053 -1.08572 1.51885 0
M  V30 5507 C 498.404 -1.93842 0.303255 0
M  V30 5508 O 497.529 -2.0828 -0.58724 0
M  V30 5509 C 498.124 -1.97574 2.75227 0
M  V30 5510 C 496.683 -2.509 2.80581 0
M  V30 5511 C 495.83 -1.28447 2.45757 0
M  V30 5512 H 498.781 -0.288194 1.56061 0
M  V30 5513 H 498.802 -2.82219 2.55211 0
M  V30 5514 H 498.314 -1.35486 3.63683 0
M  V30 5515 H 496.415 -3.16636 1.96398 0
M  V30 5516 H 496.528 -2.88268 3.82673 0
M  V30 5517 H 494.892 -1.60868 1.97468 0
M  V30 5518 H 495.675 -0.68072 3.36483 0
M  V30 5519 N 498.12 -1.38341 -0.754957 0
M  V30 5520 C 499.531 -1.30803 -1.3322 0
M  V30 5521 C 499.882 0.0368 -1.96165 0
M  V30 5522 O 499.007 0.938844 -1.94974 0
M  V30 5523 C 499.602 -2.3688 -2.42225 0
M  V30 5524 C 498.161 -2.32925 -2.95674 0
M  V30 5525 C 497.308 -2.19819 -1.69042 0
M  V30 5526 H 500.259 -1.48719 -0.553937 0
M  V30 5527 H 500.28 -2.02517 -3.22129 0
M  V30 5528 H 499.792 -3.34747 -1.96383 0
M  V30 5529 H 497.893 -1.38635 -3.45848 0
M  V30 5530 H 498.006 -3.27008 -3.50146 0
M  V30 5531 H 496.37 -1.66648 -1.92615 0
M  V30 5532 H 497.153 -3.19625 -1.25279 0
M  V30 5533 N 499.598 0.982988 -1.23187 0
M  V30 5534 C 500.508 2.10907 -1.02739 0
M  V30 5535 C 501.524 1.73979 0.0273188 0
M  V30 5536 O 502.7 2.00702 -0.16757 0
M  V30 5537 C 499.765 3.41142 -0.618304 0
M  V30 5538 C 498.826 3.92112 -1.74777 0
M  V30 5539 C 498.059 5.16131 -1.3581 0
M  V30 5540 O 498.282 5.6989 -0.241201 0
M  V30 5541 O 497.216 5.61103 -2.17824 0
M  V30 5542 H 501.042 2.31046 -1.97108 0
M  V30 5543 H 498.627 1.09284 -1.01869 0
M  V30 5544 H 500.509 4.19488 -0.400982 0
M  V30 5545 H 499.184 3.2234 0.296421 0
M  V30 5546 H 498.091 3.14895 -2.0197 0
M  V30 5547 H 499.424 4.15364 -2.64071 0
M  V30 5548 N 501.076 1.04316 1.18135 0
M  V30 5549 C 502.006 0.657299 2.24058 0
M  V30 5550 C 502.987 -0.340678 1.66654 0
M  V30 5551 O 504.172 -0.220223 1.92947 0
M  V30 5552 C 501.302 0.0220715 3.47293 0
M  V30 5553 C 500.256 0.943857 4.17463 0
M  V30 5554 C 499.582 0.172973 5.3442 0
M  V30 5555 C 500.882 2.26409 4.70677 0
M  V30 5556 H 502.576 1.5428 2.56589 0
M  V30 5557 H 500.122 0.743263 1.23335 0
M  V30 5558 H 502.075 -0.259607 4.206 0
M  V30 5559 H 500.799 -0.898323 3.14003 0
M  V30 5560 H 499.458 1.20996 3.46057 0
M  V30 5561 H 499.106 -0.749907 4.97379 0
M  V30 5562 H 498.806 0.787098 5.82304 0
M  V30 5563 H 500.33 -0.101628 6.10515 0
M  V30 5564 H 501.744 2.04294 5.35665 0
M  V30 5565 H 500.141 2.8314 5.29105 0
M  V30 5566 H 501.211 2.90883 3.87962 0
M  V30 5567 N 502.554 -1.34406 0.822964 0
M  V30 5568 C 503.504 -2.26963 0.217208 0
M  V30 5569 C 504.488 -1.48536 -0.618545 0
M  V30 5570 O 505.68 -1.7056 -0.473118 0
M  V30 5571 C 502.809 -3.37655 -0.619973 0
M  V30 5572 C 501.895 -4.23495 0.226411 0
M  V30 5573 N 502.286 -4.88876 1.29744 0
M  V30 5574 C 500.584 -4.45999 0.0107554 0
M  V30 5575 C 501.285 -5.52642 1.81553 0
M  V30 5576 N 500.261 -5.31949 1.11942 0
M  V30 5577 H 504.063 -2.75017 1.03647 0
M  V30 5578 H 501.577 -1.48126 0.665777 0
M  V30 5579 H 503.574 -4.02932 -1.07011 0
M  V30 5580 H 502.234 -2.91151 -1.43739 0
M  V30 5581 H 503.245 -4.89886 1.68024 0
M  V30 5582 H 499.922 -4.10253 -0.774495 0
M  V30 5583 H 501.312 -6.14755 2.71156 0
M  V30 5584 N 504.032 -0.577932 -1.46621 0
M  V30 5585 C 505.309 0.00495287 -1.95599 0
M  V30 5586 C 505.689 1.46428 -1.5206 0
M  V30 5587 O 505.037 2.1517 -0.769046 0
M  V30 5588 C 505.247 -0.162114 -3.48623 0
M  V30 5589 C 506.595 -0.0274623 -4.24591 0
M  V30 5590 O 507.619 -0.0907067 -3.56084 0
M  V30 5591 O 506.478 0.1122 -5.46385 0
M  V30 5592 H 503.572 0.0525057 -0.825332 0
M  V30 5593 H 506.118 -0.645914 -1.56927 0
M  V30 5594 H 504.89 -1.17679 -3.73185 0
M  V30 5595 H 504.513 0.525407 -3.94113 0
M  V30 5596 N 505.51 1.54411 -0.315457 0
M  V30 5597 C 506.926 1.59556 0.037464 0
M  V30 5598 C 507.126 1.33217 1.5118 0
M  V30 5599 O 506.182 1.11264 2.26664 0
M  V30 5600 C 507.495 2.98372 -0.373477 0
M  V30 5601 C 509.043 3.11324 -0.323452 0
M  V30 5602 C 509.518 4.52472 -0.709433 0
M  V30 5603 N 511.009 4.58437 -0.662524 0
M  V30 5604 C 511.744 5.65751 -0.933474 0
M  V30 5605 N 511.24 6.81039 -1.27114 0
M  V30 5606 N 513.033 5.55489 -0.859573 0
M  V30 5607 H 505.184 1.6979 -1.27614 0
M  V30 5608 H 507.447 0.793732 -0.518356 0
M  V30 5609 H 507.153 3.22618 -1.40037 0
M  V30 5610 H 507.027 3.76264 0.265615 0
M  V30 5611 H 509.414 2.86818 0.694223 0
M  V30 5612 H 509.495 2.35555 -0.997367 0
M  V30 5613 H 509.139 4.7771 -1.72498 0
M  V30 5614 H 509.069 5.26598 -0.0132923 0
M  V30 5615 H 511.56 3.75636 -0.413065 0
M  V30 5616 H 511.873 7.58816 -1.46348 0
M  V30 5617 H 510.218 6.82555 -1.30932 0
M  V30 5618 H 513.409 4.64299 -0.595324 0
M  V30 5619 H 513.582 6.39036 -1.0741 0
M  V30 5620 N 506.988 0.0434614 1.5754 0
M  V30 5621 C 507.951 -0.918696 2.09982 0
M  V30 5622 C 508.951 -1.24488 1.01781 0
M  V30 5623 O 510.141 -1.18284 1.27885 0
M  V30 5624 C 507.273 -2.23093 2.57764 0
M  V30 5625 H 508.466 -0.464229 2.96285 0
M  V30 5626 H 506.019 -0.204818 1.54952 0
M  V30 5627 H 506.754 -2.73137 1.74832 0
M  V30 5628 H 506.539 -2.00724 3.36827 0
M  V30 5629 H 508.029 -2.92028 2.98512 0
M  V30 5630 N 508.466 -1.55915 -0.229846 0
M  V30 5631 C 509.413 -1.91734 -1.28478 0
M  V30 5632 C 510.383 -0.773539 -1.46988 0
M  V30 5633 O 511.568 -1.02871 -1.60693 0
M  V30 5634 C 508.708 -2.23224 -2.63182 0
M  V30 5635 C 507.821 -3.50497 -2.52539 0
M  V30 5636 C 506.956 -3.71474 -3.79711 0
M  V30 5637 C 505.995 -4.92289 -3.63755 0
M  V30 5638 N 505.132 -5.09698 -4.82858 0
M  V30 5639 H 509.972 -2.81692 -0.972308 0
M  V30 5640 H 507.509 -1.39429 -0.468815 0
M  V30 5641 H 509.467 -2.3949 -3.41614 0
M  V30 5642 H 508.097 -1.36451 -2.92542 0
M  V30 5643 H 507.149 -3.4247 -1.65585 0
M  V30 5644 H 508.461 -4.39079 -2.36666 0
M  V30 5645 H 507.615 -3.87791 -4.66586 0
M  V30 5646 H 506.354 -2.81157 -3.985 0
M  V30 5647 H 505.359 -4.7593 -2.75264 0
M  V30 5648 H 506.584 -5.84083 -3.46445 0
M  V30 5649 H 504.53 -4.22322 -5.01976 0
M  V30 5650 H 504.447 -5.92399 -4.69681 0
M  V30 5651 H 505.715 -5.30443 -5.71183 0
M  V30 5652 N 509.944 0.496216 -1.49584 0
M  V30 5653 C 510.877 1.61508 -1.61215 0
M  V30 5654 C 511.855 1.55927 -0.461045 0
M  V30 5655 O 513.039 1.75914 -0.677231 0
M  V30 5656 C 510.166 3.00035 -1.57152 0
M  V30 5657 C 509.212 3.23861 -2.77518 0
M  V30 5658 S 510.045 3.06466 -4.39134 0
M  V30 5659 C 511.201 4.4738 -4.37724 0
M  V30 5660 H 511.434 1.51398 -2.55863 0
M  V30 5661 H 508.967 0.681727 -1.38535 0
M  V30 5662 H 510.925 3.7991 -1.55494 0
M  V30 5663 H 509.586 3.07556 -0.637834 0
M  V30 5664 H 508.779 4.25 -2.70908 0
M  V30 5665 H 508.381 2.51716 -2.76614 0
M  V30 5666 H 510.673 5.39556 -4.09738 0
M  V30 5667 H 511.616 4.59038 -5.39156 0
M  V30 5668 H 512.024 4.28283 -3.67742 0
M  V30 5669 N 511.423 1.38739 0.74761 0
M  V30 5670 C 512.834 1.31507 1.32524 0
M  V30 5671 C 513.185 -0.0263963 1.96182 0
M  V30 5672 O 512.31 -0.92849 1.95469 0
M  V30 5673 C 512.905 2.38162 2.40966 0
M  V30 5674 C 511.464 2.34489 2.94434 0
M  V30 5675 C 510.611 2.20712 1.67873 0
M  V30 5676 H 513.562 1.4901 0.546043 0
M  V30 5677 H 513.583 2.04222 3.21051 0
M  V30 5678 H 513.095 3.35783 1.94605 0
M  V30 5679 H 511.196 1.40467 3.45108 0
M  V30 5680 H 511.309 3.28861 3.48407 0
M  V30 5681 H 509.673 1.67667 1.91729 0
M  V30 5682 H 510.456 3.20285 1.23582 0
M  V30 5683 N 512.901 -0.976442 1.23707 0
M  V30 5684 C 514.131 -1.75087 1.09673 0
M  V30 5685 C 514.539 -1.85852 -0.354344 0
M  V30 5686 O 513.882 -1.33985 -1.25673 0
M  V30 5687 C 513.944 -3.19272 1.65245 0
M  V30 5688 C 513.608 -3.32004 3.14042 0
M  V30 5689 C 514.605 -3.18017 4.11292 0
M  V30 5690 C 512.29 -3.56525 3.53829 0
M  V30 5691 C 514.284 -3.28363 5.46312 0
M  V30 5692 C 511.971 -3.6651 4.88993 0
M  V30 5693 C 512.969 -3.52439 5.85043 0
M  V30 5694 O 512.657 -3.62063 7.1775 0
M  V30 5695 H 512.389 -0.556164 0.384262 0
M  V30 5696 H 514.943 -1.23518 1.64111 0
M  V30 5697 H 513.173 -3.72107 1.05231 0
M  V30 5698 H 514.862 -3.7849 1.46629 0
M  V30 5699 H 515.628 -2.98966 3.81896 0
M  V30 5700 H 511.507 -3.66547 2.79579 0
M  V30 5701 H 515.051 -3.17297 6.21263 0
M  V30 5702 H 510.948 -3.85072 5.18063 0
M  V30 5703 H 511.716 -3.78833 7.25553 0
M  V30 5704 N 514.379 -1.04941 -1.1758 0
M  V30 5705 C 515.607 -0.778294 -1.91703 0
M  V30 5706 C 516.022 0.665697 -1.76675 0
M  V30 5707 O 515.379 1.45456 -1.10222 0
M  V30 5708 C 515.43 -1.14628 -3.42845 0
M  V30 5709 O 515.151 -2.53359 -3.57409 0
M  V30 5710 C 516.652 -0.900931 -4.34049 0
M  V30 5711 H 513.872 -0.283167 -0.608323 0
M  V30 5712 H 516.416 -1.39942 -1.49119 0
M  V30 5713 H 514.571 -0.569953 -3.83184 0
M  V30 5714 H 514.985 -2.67709 -4.51035 0
M  V30 5715 H 516.459 -1.20817 -5.38616 0
M  V30 5716 H 516.936 0.163966 -4.38894 0
M  V30 5717 H 517.542 -1.46097 -3.99419 0
M  V30 5718 N 515.857 1.33968 -0.830081 0
M  V30 5719 C 516.767 2.33164 -0.259207 0
M  V30 5720 C 517.783 1.62951 0.610164 0
M  V30 5721 O 518.959 1.94668 0.516369 0
M  V30 5722 C 516.024 3.42088 0.563598 0
M  V30 5723 C 515.085 4.28037 -0.329014 0
M  V30 5724 C 514.318 5.3176 0.454616 0
M  V30 5725 O 514.541 5.44876 1.6872 0
M  V30 5726 O 513.475 6.01669 -0.166794 0
M  V30 5727 H 517.301 2.83832 -1.08041 0
M  V30 5728 H 514.886 1.37154 -0.59239 0
M  V30 5729 H 516.768 4.08581 1.03147 0
M  V30 5730 H 515.443 2.93651 1.36201 0
M  V30 5731 H 514.35 3.64443 -0.844538 0
M  V30 5732 H 515.683 4.79934 -1.09196 0
M  V30 5733 N 517.335 0.585699 1.46312 0
M  V30 5734 C 518.298 -0.135673 2.28798 0
M  V30 5735 C 519.298 -0.815988 1.38558 0
M  V30 5736 O 520.488 -0.667487 1.60904 0
M  V30 5737 C 517.62 -1.20163 3.1902 0
M  V30 5738 H 518.813 0.589257 2.94054 0
M  V30 5739 H 516.366 0.343794 1.52472 0
M  V30 5740 H 517.101 -1.95804 2.58517 0
M  V30 5741 H 516.886 -0.718282 3.85465 0
M  V30 5742 H 518.376 -1.70749 3.81096 0
M  V30 5743 N 518.813 -1.54241 0.323641 0
M  V30 5744 C 520.059 -2.00867 -0.279323 0
M  V30 5745 C 520.392 -1.21146 -1.5178 0
M  V30 5746 O 519.667 -0.29378 -1.92269 0
M  V30 5747 C 519.95 -3.54837 -0.613387 0
M  V30 5748 C 519.803 -4.45284 0.635803 0
M  V30 5749 C 521.122 -4.16186 -1.43099 0
M  V30 5750 H 518.241 -0.730177 -0.100049 0
M  V30 5751 H 520.883 -1.84829 0.440235 0
M  V30 5752 H 519.033 -3.68634 -1.22641 0
M  V30 5753 H 520.705 -4.43357 1.27406 0
M  V30 5754 H 518.948 -4.14956 1.26466 0
M  V30 5755 H 519.619 -5.5084 0.357597 0
M  V30 5756 H 522.095 -4.05964 -0.912814 0
M  V30 5757 H 520.971 -5.24031 -1.6335 0
M  V30 5758 H 521.232 -3.69516 -2.42715 0
M  V30 5759 N 520.291 -0.0518155 -1.57515 0
M  V30 5760 C 521.54 0.621286 -1.91893 0
M  V30 5761 C 521.853 1.71966 -0.932052 0
M  V30 5762 O 523.059 2.45096 -1.16791 0
M  V30 5763 C 521.515 1.15641 -3.40816 0
M  V30 5764 C 521.123 0.0901146 -4.47909 0
M  V30 5765 C 522.867 1.80472 -3.84227 0
M  V30 5766 C 520.774 0.638154 -5.87947 0
M  V30 5767 H 519.704 0.235835 -0.716169 0
M  V30 5768 H 522.355 -0.120809 -1.83102 0
M  V30 5769 H 520.737 1.95084 -3.44613 0
M  V30 5770 H 521.911 -0.683525 -4.55702 0
M  V30 5771 H 520.226 -0.460774 -4.13843 0
M  V30 5772 H 522.823 2.22471 -4.86221 0
M  V30 5773 H 523.166 2.65669 -3.20508 0
M  V30 5774 H 523.699 1.07683 -3.82948 0
M  V30 5775 H 520.438 -0.176202 -6.55263 0
M  V30 5776 H 519.958 1.37976 -5.83714 0
M  V30 5777 H 521.637 1.12085 -6.37217 0
M  V30 5778 N 521.769 1.56035 0.221574 0
M  V30 5779 C 522.999 1.82864 0.961468 0
M  V30 5780 C 523.407 0.628703 1.78449 0
M  V30 5781 O 522.75 -0.412109 1.79018 0
M  V30 5782 C 522.812 3.03425 1.92804 0
M  V30 5783 C 522.476 4.38429 1.28954 0
M  V30 5784 C 523.473 5.15441 0.679431 0
M  V30 5785 C 521.158 4.85151 1.30131 0
M  V30 5786 C 523.152 6.37337 0.0896148 0
M  V30 5787 C 520.839 6.06989 0.707651 0
M  V30 5788 C 521.837 6.82923 0.102855 0
M  V30 5789 O 521.525 8.02456 -0.48157 0
M  V30 5790 H 521.257 0.611883 0.28736 0
M  V30 5791 H 523.811 2.0397 0.241932 0
M  V30 5792 H 522.041 2.78138 2.68656 0
M  V30 5793 H 523.73 3.17127 2.53348 0
M  V30 5794 H 524.496 4.80452 0.662661 0
M  V30 5795 H 520.375 4.26021 1.76145 0
M  V30 5796 H 523.919 6.96547 -0.383069 0
M  V30 5797 H 519.816 6.41451 0.721834 0
M  V30 5798 H 520.584 8.17636 -0.375887 0
M  V30 5799 N 523.247 -0.488276 1.49845 0
M  V30 5800 C 524.157 -1.61451 1.70207 0
M  V30 5801 C 525.173 -1.63877 0.584846 0
M  V30 5802 O 526.349 -1.82063 0.861107 0
M  V30 5803 C 523.414 -2.9776 1.77594 0
M  V30 5804 C 522.475 -3.05861 3.01243 0
M  V30 5805 C 521.708 -4.35668 3.08268 0
M  V30 5806 O 521.931 -5.25197 2.22541 0
M  V30 5807 O 520.865 -4.49005 4.00847 0
M  V30 5808 H 524.691 -1.47199 2.65643 0
M  V30 5809 H 522.276 -0.665939 1.33737 0
M  V30 5810 H 524.158 -3.7875 1.84732 0
M  V30 5811 H 522.833 -3.12248 0.8534 0
M  V30 5812 H 521.74 -2.24012 2.99616 0
M  V30 5813 H 523.073 -2.96304 3.9302 0
M  V30 5814 N 524.725 -1.39134 -0.740242 0
M  V30 5815 C 525.974 -1.35384 -1.49512 0
M  V30 5816 C 526.287 0.04919 -1.95538 0
M  V30 5817 O 527.493 0.209257 -2.70692 0
M  V30 5818 C 525.949 -2.37812 -2.70136 0
M  V30 5819 C 525.557 -3.83804 -2.31081 0
M  V30 5820 C 527.301 -2.4313 -3.47977 0
M  V30 5821 C 525.208 -4.77886 -3.48395 0
M  V30 5822 H 524.138 -0.503297 -0.561434 0
M  V30 5823 H 526.789 -1.64754 -0.807974 0
M  V30 5824 H 525.171 -2.01505 -3.40899 0
M  V30 5825 H 526.345 -4.29123 -1.67898 0
M  V30 5826 H 524.66 -3.81732 -1.66343 0
M  V30 5827 H 527.257 -3.10614 -4.35228 0
M  V30 5828 H 527.6 -1.45423 -3.90074 0
M  V30 5829 H 528.133 -2.78304 -2.84239 0
M  V30 5830 H 524.872 -5.76836 -3.11353 0
M  V30 5831 H 524.392 -4.3725 -4.10576 0
M  V30 5832 H 526.071 -4.96538 -4.148 0
M  V30 5833 N 526.204 0.969867 -1.24223 0
M  V30 5834 C 527.136 2.0669 -0.99055 0
M  V30 5835 C 528.149 1.62753 0.0392222 0
M  V30 5836 O 529.338 1.77403 -0.197561 0
M  V30 5837 C 526.438 3.35589 -0.472594 0
M  V30 5838 C 525.611 4.08444 -1.56499 0
M  V30 5839 C 524.67 5.15616 -1.05007 0
M  V30 5840 O 523.696 5.41911 -1.7413 0
M  V30 5841 N 524.898 5.80383 0.116641 0
M  V30 5842 H 527.663 2.28855 -1.93508 0
M  V30 5843 H 525.224 1.13733 -1.15223 0
M  V30 5844 H 527.216 4.04542 -0.112919 0
M  V30 5845 H 525.786 3.10311 0.377617 0
M  V30 5846 H 525.006 3.33798 -2.09696 0
M  V30 5847 H 526.294 4.53882 -2.29932 0
M  V30 5848 H 525.692 5.6142 0.694589 0
M  V30 5849 H 524.249 6.50462 0.417483 0
M  V30 5850 N 527.682 1.05563 1.17022 0
M  V30 5851 C 529.098 0.777684 1.39371 0
M  V30 5852 C 529.298 -0.626269 1.91521 0
M  V30 5853 O 528.354 -1.38806 2.10924 0
M  V30 5854 C 529.667 1.83642 2.3811 0
M  V30 5855 C 531.215 1.85907 2.51809 0
M  V30 5856 C 531.69 2.90813 3.53824 0
M  V30 5857 N 533.181 2.898 3.61345 0
M  V30 5858 C 533.916 3.6762 4.40049 0
M  V30 5859 N 533.412 4.55237 5.22237 0
M  V30 5860 N 535.205 3.56044 4.34959 0
M  V30 5861 H 527.356 1.9614 0.815047 0
M  V30 5862 H 529.619 0.849527 0.420722 0
M  V30 5863 H 529.325 2.84425 2.06871 0
M  V30 5864 H 529.199 1.6812 3.37662 0
M  V30 5865 H 531.586 0.857865 2.82356 0
M  V30 5866 H 531.667 2.05506 1.52318 0
M  V30 5867 H 531.311 3.91122 3.24015 0
M  V30 5868 H 531.241 2.68465 4.53028 0
M  V30 5869 H 533.732 2.26274 3.02669 0
M  V30 5870 H 534.045 5.11291 5.79484 0
M  V30 5871 H 532.39 4.59296 5.21605 0
M  V30 5872 H 535.581 2.86986 3.69806 0
M  V30 5873 H 535.754 4.16938 4.96051 0
M  V30 5874 N 529.16 -1.33526 0.837174 0
M  V30 5875 C 530.407 -1.97837 0.432064 0
M  V30 5876 C 530.735 -1.66324 -1.00829 0
M  V30 5877 O 529.99 -0.93448 -1.71948 0
M  V30 5878 C 530.289 -3.52367 0.597675 0
M  V30 5879 C 529.955 -4.03826 2.00587 0
M  V30 5880 C 528.617 -4.1759 2.39106 0
M  V30 5881 C 530.969 -4.31333 2.92576 0
M  V30 5882 C 528.297 -4.56195 3.68921 0
M  V30 5883 C 530.649 -4.7139 4.2187 0
M  V30 5884 C 529.313 -4.8336 4.60347 0
M  V30 5885 H 528.583 -0.723937 0.158104 0
M  V30 5886 H 531.23 -1.5923 1.06387 0
M  V30 5887 H 529.535 -3.91624 -0.117452 0
M  V30 5888 H 531.232 -4.00126 0.26454 0
M  V30 5889 H 527.822 -3.93586 1.69671 0
M  V30 5890 H 532.006 -4.20224 2.64056 0
M  V30 5891 H 527.262 -4.63655 3.9854 0
M  V30 5892 H 531.436 -4.91631 4.93226 0
M  V30 5893 H 529.063 -5.1303 5.60985 0
M  V30 5894 N 530.638 -0.59345 -1.46 0
M  V30 5895 C 531.863 -0.0872365 -2.07216 0
M  V30 5896 C 532.288 1.2131 -1.43755 0
M  V30 5897 O 531.646 1.73528 -0.525152 0
M  V30 5898 C 531.694 0.0538197 -3.6056 0
M  V30 5899 O 530.798 1.10765 -3.97247 0
M  V30 5900 H 530.139 -0.0676598 -0.660544 0
M  V30 5901 H 532.669 -0.819445 -1.87473 0
M  V30 5902 H 532.679 0.256567 -4.07193 0
M  V30 5903 H 531.354 -0.895739 -4.0614 0
M  V30 5904 H 529.931 0.882501 -3.62307 0
M  V30 5905 N 532.116 1.54067 -0.331816 0
M  V30 5906 C 533.393 1.92915 0.322955 0
M  V30 5907 C 533.773 1.26225 1.69205 0
M  V30 5908 O 533.121 0.408919 2.24811 0
M  V30 5909 C 533.331 3.46619 0.406946 0
M  V30 5910 C 534.679 4.19386 0.663339 0
M  V30 5911 O 535.703 3.5282 0.489536 0
M  V30 5912 O 534.562 5.37288 0.999193 0
M  V30 5913 H 531.656 0.805808 0.186016 0
M  V30 5914 H 534.202 1.65342 -0.382135 0
M  V30 5915 H 532.974 3.87354 -0.554287 0
M  V30 5916 H 532.597 3.80324 1.15929 0
M  V30 5917 N 533.594 0.0601682 1.57485 0
M  V30 5918 C 534.524 -0.90889 2.15085 0
M  V30 5919 C 535.505 -1.31838 1.07484 0
M  V30 5920 O 536.69 -1.3915 1.35466 0
M  V30 5921 C 533.82 -2.18059 2.7031 0
M  V30 5922 C 532.774 -1.91088 3.82974 0
M  V30 5923 C 532.1 -3.24789 4.24754 0
M  V30 5924 C 533.4 -1.22535 5.07723 0
M  V30 5925 H 535.094 -0.429093 2.96309 0
M  V30 5926 H 532.64 -0.204952 1.42534 0
M  V30 5927 H 534.593 -2.86258 3.09248 0
M  V30 5928 H 533.317 -2.6826 1.8629 0
M  V30 5929 H 531.976 -1.25297 3.44523 0
M  V30 5930 H 531.624 -3.72809 3.37672 0
M  V30 5931 H 531.324 -3.07538 5.00694 0
M  V30 5932 H 532.848 -3.94205 4.66299 0
M  V30 5933 H 534.262 -1.80783 5.4405 0
M  V30 5934 H 532.659 -1.1558 5.88864 0
M  V30 5935 H 533.729 -0.202692 4.84476 0
M  V30 5936 N 535.072 -1.5615 -0.213296 0
M  V30 5937 C 536.002 -1.96109 -1.26742 0
M  V30 5938 C 536.983 -0.830448 -1.48451 0
M  V30 5939 O 538.168 -1.09339 -1.60495 0
M  V30 5940 C 535.298 -2.28492 -2.61551 0
M  V30 5941 C 534.252 -3.44124 -2.54485 0
M  V30 5942 C 533.578 -3.62134 -3.93399 0
M  V30 5943 C 534.878 -4.78855 -2.08556 0
M  V30 5944 H 536.572 -2.84412 -0.935434 0
M  V30 5945 H 534.118 -1.36836 -0.44854 0
M  V30 5946 H 536.071 -2.55039 -3.3546 0
M  V30 5947 H 534.795 -1.37052 -2.96453 0
M  V30 5948 H 533.454 -3.17639 -1.83033 0
M  V30 5949 H 533.102 -2.68055 -4.25623 0
M  V30 5950 H 532.802 -4.39913 -3.89551 0
M  V30 5951 H 534.326 -3.91038 -4.68958 0
M  V30 5952 H 535.74 -5.04552 -2.72213 0
M  V30 5953 H 534.137 -5.59975 -2.1575 0
M  V30 5954 H 535.207 -4.73657 -1.03811 0
M  V30 5955 N 536.55 0.480323 -1.50102 0
M  V30 5956 C 537.961 1.06142 -1.53593 0
M  V30 5957 C 538.312 1.93335 -0.334055 0
M  V30 5958 O 537.437 2.09188 0.55403 0
M  V30 5959 C 538.032 1.9317 -2.78336 0
M  V30 5960 C 536.591 2.46405 -2.84538 0
M  V30 5961 C 535.738 1.24521 -2.4777 0
M  V30 5962 H 538.689 0.26333 -1.565 0
M  V30 5963 H 538.71 2.78123 -2.59669 0
M  V30 5964 H 538.222 1.29683 -3.65792 0
M  V30 5965 H 536.323 3.13472 -2.01411 0
M  V30 5966 H 536.436 2.82143 -3.87211 0
M  V30 5967 H 534.8 1.57706 -2.00003 0
M  V30 5968 H 535.583 0.627102 -3.37524 0
M  V30 5969 N 538.028 1.39524 0.732853 0
M  V30 5970 C 538.961 1.32806 1.85574 0
M  V30 5971 C 539.939 0.201354 1.61348 0
M  V30 5972 O 541.123 0.38216 1.84585 0
M  V30 5973 C 538.25 1.06271 3.21596 0
M  V30 5974 C 537.296 2.21161 3.64678 0
M  V30 5975 S 538.129 3.83454 3.73796 0
M  V30 5976 C 539.285 3.59149 5.12604 0
M  V30 5977 H 539.518 2.27838 1.9099 0
M  V30 5978 H 537.051 1.25605 0.897927 0
M  V30 5979 H 539.009 0.916461 4.00139 0
M  V30 5980 H 537.67 0.129223 3.13834 0
M  V30 5981 H 536.863 1.98193 4.63396 0
M  V30 5982 H 536.465 2.32 2.93346 0
M  V30 5983 H 538.757 3.16547 5.99003 0
M  V30 5984 H 539.7 4.57335 5.40602 0
M  V30 5985 H 540.108 2.93203 4.82382 0
M  V30 5986 N 539.506 -0.963266 1.24736 0
M  V30 5987 C 540.754 -1.70343 1.08755 0
M  V30 5988 C 541.075 -1.91387 -0.373619 0
M  V30 5989 O 540.345 -1.4948 -1.2662 0
M  V30 5990 H 538.925 -0.631224 0.399456 0
M  V30 5991 H 541.587 -1.15859 1.56725 0
M  V30 5992 H 540.683 -2.68616 1.58909 0
M  V30 5993 N 540.985 -1.06182 -1.16461 0
M  V30 5994 C 542.231 -0.779015 -1.87241 0
M  V30 5995 C 542.564 0.692715 -1.81425 0
M  V30 5996 O 541.839 1.5074 -1.22913 0
M  V30 5997 C 542.122 -1.2728 -3.36856 0
M  V30 5998 C 541.975 -2.80821 -3.51368 0
M  V30 5999 C 543.294 -0.879799 -4.31216 0
M  V30 6000 H 540.413 -0.284464 -0.679889 0
M  V30 6001 H 543.055 -1.31755 -1.36896 0
M  V30 6002 H 541.205 -0.814673 -3.79862 0
M  V30 6003 H 542.877 -3.34833 -3.17308 0
M  V30 6004 H 541.12 -3.19606 -2.93316 0
M  V30 6005 H 541.791 -3.10435 -4.56436 0
M  V30 6006 H 544.267 -1.27436 -3.96105 0
M  V30 6007 H 543.143 -1.25278 -5.34412 0
M  V30 6008 H 543.404 0.215372 -4.41575 0
M  V30 6009 N 542.463 1.3308 -0.844243 0
M  V30 6010 C 543.874 1.7992 -0.498566 0
M  V30 6011 C 544.225 1.69808 0.982834 0
M  V30 6012 O 543.35 1.25051 1.7661 0
M  V30 6013 C 543.945 3.26677 -0.898204 0
M  V30 6014 C 542.504 3.71513 -0.604583 0
M  V30 6015 C 541.651 2.54393 -1.10362 0
M  V30 6016 H 544.602 1.20526 -1.03244 0
M  V30 6017 H 544.623 3.79918 -0.21039 0
M  V30 6018 H 544.135 3.34004 -1.97643 0
M  V30 6019 H 542.236 3.69708 0.46335 0
M  V30 6020 H 542.349 4.64755 -1.16358 0
M  V30 6021 H 540.713 2.49246 -0.524273 0
M  V30 6022 H 541.496 2.6448 -2.18873 0
M  V30 6023 N 543.941 0.601185 1.45683 0
M  V30 6024 C 544.891 -0.142686 2.27553 0
M  V30 6025 C 545.875 -0.844598 1.3695 0
M  V30 6026 O 547.067 -0.735644 1.60988 0
M  V30 6027 C 544.196 -1.14364 3.23691 0
M  V30 6028 C 543.282 -0.442894 4.21781 0
M  V30 6029 N 543.673 0.51189 5.03203 0
M  V30 6030 C 541.971 -0.691277 4.4061 0
M  V30 6031 C 542.672 0.92318 5.74328 0
M  V30 6032 N 541.648 0.268308 5.42937 0
M  V30 6033 H 545.45 0.590736 2.87902 0
M  V30 6034 H 542.964 0.424365 1.56757 0
M  V30 6035 H 544.961 -1.6909 3.8107 0
M  V30 6036 H 543.621 -1.87768 2.64902 0
M  V30 6037 H 544.632 0.888329 5.10225 0
M  V30 6038 H 541.309 -1.41049 3.92952 0
M  V30 6039 H 542.699 1.71029 6.49768 0
M  V30 6040 N 545.419 -1.53889 0.339982 0
M  V30 6041 C 546.668 -2.00035 -0.258604 0
M  V30 6042 C 546.981 -1.23179 -1.51942 0
M  V30 6043 O 548.187 -1.59784 -2.19503 0
M  V30 6044 C 546.643 -3.56249 -0.511359 0
M  V30 6045 C 546.251 -4.41957 0.733349 0
M  V30 6046 C 547.995 -4.1082 -1.069 0
M  V30 6047 C 545.902 -5.89673 0.451591 0
M  V30 6048 H 544.832 -0.747284 -0.10041 0
M  V30 6049 H 547.483 -1.77776 0.454758 0
M  V30 6050 H 545.865 -3.7456 -1.28533 0
M  V30 6051 H 547.039 -4.35421 1.50815 0
M  V30 6052 H 545.354 -3.9836 1.21237 0
M  V30 6053 H 547.951 -5.18789 -1.2947 0
M  V30 6054 H 548.294 -3.63817 -2.02343 0
M  V30 6055 H 548.827 -3.96205 -0.355817 0
M  V30 6056 H 545.566 -6.40903 1.37565 0
M  V30 6057 H 545.086 -5.99122 -0.285193 0
M  V30 6058 H 546.765 -6.46965 0.0675067 0
M  V30 6059 N 546.897 -0.0685191 -1.57451 0
M  V30 6060 C 548.143 0.602239 -1.93652 0
M  V30 6061 C 548.476 1.6946 -0.948526 0
M  V30 6062 O 547.751 1.94487 0.022782 0
M  V30 6063 C 548.034 1.18223 -3.4014 0
M  V30 6064 C 547.887 0.0967431 -4.49696 0
M  V30 6065 C 549.206 2.08872 -3.87377 0
M  V30 6066 H 546.325 0.217453 -0.70419 0
M  V30 6067 H 548.967 -0.133821 -1.89528 0
M  V30 6068 H 547.117 1.80953 -3.43785 0
M  V30 6069 H 548.789 -0.536155 -4.58174 0
M  V30 6070 H 547.032 -0.573063 -4.29998 0
M  V30 6071 H 547.703 0.542894 -5.49324 0
M  V30 6072 H 550.179 1.56081 -3.85717 0
M  V30 6073 H 549.055 2.46389 -4.90493 0
M  V30 6074 H 549.316 2.99572 -3.25129 0
M  V30 6075 N 548.375 1.56261 0.205012 0
M  V30 6076 C 549.603 1.84141 0.943386 0
M  V30 6077 C 550.018 0.649772 1.77266 0
M  V30 6078 O 549.375 -0.381612 1.78466 0
M  V30 6079 C 549.426 3.10719 1.84759 0
M  V30 6080 O 549.147 4.25286 1.05181 0
M  V30 6081 C 550.648 3.51706 2.69848 0
M  V30 6082 H 547.868 0.611734 0.275721 0
M  V30 6083 H 550.412 2.03364 0.215253 0
M  V30 6084 H 548.567 2.93422 2.52947 0
M  V30 6085 H 548.981 4.97301 1.66709 0
M  V30 6086 H 550.455 4.43266 3.28967 0
M  V30 6087 H 550.932 2.7423 3.43067 0
M  V30 6088 H 551.538 3.71499 2.07047 0
M  V30 6089 N 549.853 -0.472356 1.50355 0
M  V30 6090 C 550.785 -1.58795 1.65278 0
M  V30 6091 C 551.798 -1.53782 0.534313 0
M  V30 6092 O 552.987 -1.59193 0.807446 0
M  V30 6093 C 550.087 -2.97672 1.62001 0
M  V30 6094 C 549.26 -3.27568 2.89859 0
M  V30 6095 C 548.319 -4.45993 2.79242 0
M  V30 6096 O 547.345 -4.46364 3.53197 0
M  V30 6097 N 548.547 -5.47578 1.92713 0
M  V30 6098 H 551.312 -1.46411 2.61503 0
M  V30 6099 H 548.873 -0.660751 1.47803 0
M  V30 6100 H 550.865 -3.74862 1.52513 0
M  V30 6101 H 549.435 -3.03832 0.735159 0
M  V30 6102 H 548.655 -2.39003 3.13483 0
M  V30 6103 H 549.943 -3.44352 3.74565 0
M  V30 6104 H 549.341 -5.50099 1.31939 0
M  V30 6105 H 547.898 -6.23757 1.8913 0
M  V30 6106 N 551.331 -1.39911 -0.725443 0
M  V30 6107 C 552.281 -1.35878 -1.83088 0
M  V30 6108 C 553.265 -0.237989 -1.5913 0
M  V30 6109 O 554.457 -0.476302 -1.70471 0
M  V30 6110 C 551.586 -1.21403 -3.21117 0
M  V30 6111 C 550.672 -2.38223 -3.50871 0
M  V30 6112 N 551.063 -3.63703 -3.51502 0
M  V30 6113 C 549.361 -2.31388 -3.81281 0
M  V30 6114 C 550.062 -4.4101 -3.79322 0
M  V30 6115 N 549.038 -3.7072 -3.97577 0
M  V30 6116 H 552.84 -2.3085 -1.81895 0
M  V30 6117 H 550.354 -1.33543 -0.924125 0
M  V30 6118 H 552.351 -1.16597 -4.00263 0
M  V30 6119 H 551.011 -0.273902 -3.23543 0
M  V30 6120 H 552.022 -3.96998 -3.32586 0
M  V30 6121 H 548.699 -1.45689 -3.91256 0
M  V30 6122 H 550.089 -5.49819 -3.86198 0
M  V30 6123 N 552.809 0.956637 -1.25245 0
M  V30 6124 C 554.037 1.73571 -1.12608 0
M  V30 6125 C 554.452 1.86063 0.320324 0
M  V30 6126 O 553.809 1.35691 1.22042 0
M  V30 6127 C 553.86 3.15053 -1.77268 0
M  V30 6128 O 553.581 3.03174 -3.16255 0
M  V30 6129 C 555.082 4.09248 -1.70386 0
M  V30 6130 H 552.302 0.543955 -0.392879 0
M  V30 6131 H 554.846 1.20031 -1.65568 0
M  V30 6132 H 553.001 3.65543 -1.28284 0
M  V30 6133 H 553.415 3.9241 -3.48015 0
M  V30 6134 H 554.889 5.06138 -2.20291 0
M  V30 6135 H 555.366 4.34102 -0.667239 0
M  V30 6136 H 555.972 3.64672 -2.18849 0
M  V30 6137 N 554.287 1.06798 1.15896 0
M  V30 6138 C 555.512 0.808739 1.90982 0
M  V30 6139 C 555.937 -0.6316 1.77179 0
M  V30 6140 O 555.295 -1.4407 1.10061 0
M  V30 6141 C 555.343 1.21468 3.39526 0
M  V30 6142 O 554.447 0.356562 4.10856 0
M  V30 6143 H 553.788 0.29512 0.594811 0
M  V30 6144 H 556.318 1.42513 1.46804 0
M  V30 6145 H 556.328 1.18844 3.90308 0
M  V30 6146 H 555.003 2.26379 3.48891 0
M  V30 6147 H 553.58 0.444808 3.70238 0
M  V30 6148 N 555.766 -1.3263 0.851289 0
M  V30 6149 C 557.013 -1.97368 0.453023 0
M  V30 6150 C 557.341 -1.67384 -0.990596 0
M  V30 6151 O 556.596 -0.952665 -1.70947 0
M  V30 6152 C 556.895 -3.51713 0.635015 0
M  V30 6153 C 556.561 -4.01676 2.04859 0
M  V30 6154 C 555.223 -4.15031 2.43522 0
M  V30 6155 C 557.575 -4.28206 2.97135 0
M  V30 6156 C 554.903 -4.52257 3.73739 0
M  V30 6157 C 557.255 -4.66889 4.26846 0
M  V30 6158 C 555.919 -4.7845 4.65448 0
M  V30 6159 H 555.189 -0.722219 0.165773 0
M  V30 6160 H 557.836 -1.58092 1.0807 0
M  V30 6161 H 556.141 -3.91726 -0.0759081 0
M  V30 6162 H 557.838 -3.99823 0.306964 0
M  V30 6163 H 554.428 -3.91764 1.73836 0
M  V30 6164 H 558.612 -4.174 2.68498 0
M  V30 6165 H 553.868 -4.59402 4.03435 0
M  V30 6166 H 558.042 -4.86372 4.98413 0
M  V30 6167 H 555.669 -5.07052 5.66395 0
M  V30 6168 N 557.244 -0.608902 -1.45362 0
M  V30 6169 C 558.66 -0.272659 -1.57254 0
M  V30 6170 C 558.86 1.22477 -1.60005 0
M  V30 6171 O 557.916 2.00785 -1.53106 0
M  V30 6172 C 559.229 -0.944991 -2.85465 0
M  V30 6173 C 560.777 -0.921033 -2.99142 0
M  V30 6174 C 561.252 -1.5734 -4.30126 0
M  V30 6175 N 562.743 -1.53895 -4.36887 0
M  V30 6176 C 563.478 -2.01286 -5.36909 0
M  V30 6177 N 562.974 -2.56768 -6.43461 0
M  V30 6178 N 564.767 -1.92046 -5.28275 0
M  V30 6179 H 556.918 -1.58117 -1.4182 0
M  V30 6180 H 559.181 -0.662437 -0.678146 0
M  V30 6181 H 558.887 -1.99941 -2.89338 0
M  V30 6182 H 558.761 -0.469079 -3.74272 0
M  V30 6183 H 561.148 0.124846 -2.94836 0
M  V30 6184 H 561.229 -1.43522 -2.11743 0
M  V30 6185 H 560.873 -2.61862 -4.35191 0
M  V30 6186 H 560.803 -1.03422 -5.16344 0
M  V30 6187 H 563.294 -1.13366 -3.60495 0
M  V30 6188 H 563.607 -2.9072 -7.16032 0
M  V30 6189 H 561.952 -2.60808 -6.44208 0
M  V30 6190 H 565.143 -1.48439 -4.43941 0
M  V30 6191 H 565.316 -2.29293 -6.06077 0
M  V30 6192 N 558.722 1.53707 -0.348139 0
M  V30 6193 C 559.97 2.00591 0.246478 0
M  V30 6194 C 560.291 1.23753 1.50699 0
M  V30 6195 O 559.561 0.345964 1.92821 0
M  V30 6196 H 558.141 0.741053 0.0940679 0
M  V30 6197 H 560.803 1.89139 -0.470354 0
M  V30 6198 H 559.899 3.08297 0.485714 0
M  V30 6199 N 560.2 0.0768682 1.57412 0
M  V30 6200 C 561.43 -0.5991 1.97723 0
M  V30 6201 C 561.838 -1.63378 0.954166 0
M  V30 6202 O 561.181 -1.83578 -0.0668706 0
M  V30 6203 C 561.243 -1.32078 3.34358 0
M  V30 6204 C 560.907 -0.438985 4.54887 0
M  V30 6205 C 561.904 0.305492 5.19002 0
M  V30 6206 C 559.589 -0.362378 5.00991 0
M  V30 6207 C 561.583 1.11475 6.27576 0
M  V30 6208 C 559.27 0.450543 6.09437 0
M  V30 6209 C 560.268 1.18777 6.72593 0
M  V30 6210 O 559.956 1.98727 7.7895 0
M  V30 6211 H 559.688 -0.166725 0.655117 0
M  V30 6212 H 562.242 0.147337 2.04871 0
M  V30 6213 H 560.472 -2.1134 3.2384 0
M  V30 6214 H 562.161 -1.88949 3.5924 0
M  V30 6215 H 562.927 0.25593 4.84324 0
M  V30 6216 H 558.806 -0.925832 4.51608 0
M  V30 6217 H 562.35 1.69068 6.76803 0
M  V30 6218 H 558.247 0.501651 6.43548 0
M  V30 6219 H 559.015 1.91214 7.95851 0
M  V30 6220 N 561.678 -1.56367 -0.196722 0
M  V30 6221 C 562.927 -1.79724 -0.915539 0
M  V30 6222 C 563.24 -0.649804 -1.84491 0
M  V30 6223 O 564.446 -0.767631 -2.60422 0
M  V30 6224 C 562.902 -3.18369 -1.67836 0
M  V30 6225 C 562.51 -4.4091 -0.793897 0
M  V30 6226 C 564.254 -3.51037 -2.38691 0
M  V30 6227 C 562.161 -5.70577 -1.55549 0
M  V30 6228 H 561.091 -0.67013 -0.345604 0
M  V30 6229 H 563.742 -1.82721 -0.168856 0
M  V30 6230 H 562.124 -3.09617 -2.46887 0
M  V30 6231 H 563.298 -4.60781 -0.042163 0
M  V30 6232 H 561.613 -4.15937 -0.19626 0
M  V30 6233 H 564.21 -4.4515 -2.96219 0
M  V30 6234 H 564.553 -2.74704 -3.12799 0
M  V30 6235 H 565.086 -3.61229 -1.66608 0
M  V30 6236 H 561.825 -6.49871 -0.857226 0
M  V30 6237 H 561.345 -5.54726 -2.2812 0
M  V30 6238 H 563.024 -6.11637 -2.10971 0
M  V30 6239 N 563.156 0.464375 -1.50603 0
M  V30 6240 C 564.405 1.21277 -1.61167 0
M  V30 6241 C 564.718 1.92953 -0.320704 0
M  V30 6242 O 565.924 2.69778 -0.30534 0
M  V30 6243 C 564.38 2.20403 -2.84518 0
M  V30 6244 C 563.988 1.54499 -4.20516 0
M  V30 6245 C 565.732 2.95843 -3.0443 0
M  V30 6246 C 563.639 2.51951 -5.35047 0
M  V30 6247 H 562.569 0.456367 -0.600204 0
M  V30 6248 H 565.22 0.48254 -1.77042 0
M  V30 6249 H 563.602 2.96746 -2.62217 0
M  V30 6250 H 564.776 0.83899 -4.53098 0
M  V30 6251 H 563.091 0.913152 -4.06264 0
M  V30 6252 H 565.688 3.6879 -3.87167 0
M  V30 6253 H 566.031 3.55622 -2.16423 0
M  V30 6254 H 566.564 2.26611 -3.26944 0
M  V30 6255 H 563.303 1.96901 -6.25228 0
M  V30 6256 H 562.823 3.20683 -5.06875 0
M  V30 6257 H 564.502 3.13643 -5.65895 0
M  V30 6258 N 564.634 1.40294 0.718013 0
M  V30 6259 C 566.045 1.34289 1.29705 0
M  V30 6260 C 566.396 0.0152228 1.96194 0
M  V30 6261 O 565.521 -0.88682 1.97394 0
M  V30 6262 C 566.116 2.43219 2.3586 0
M  V30 6263 C 564.675 2.40682 2.89394 0
M  V30 6264 C 563.822 2.24223 1.63154 0
M  V30 6265 H 566.773 1.50135 0.514312 0
M  V30 6266 H 566.794 2.10986 3.16647 0
M  V30 6267 H 566.306 3.39836 1.87439 0
M  V30 6268 H 564.407 1.47756 3.42051 0
M  V30 6269 H 564.52 3.36177 3.41353 0
M  V30 6270 H 562.884 1.71696 1.88129 0
M  V30 6271 H 563.667 3.22834 1.16761 0
M  V30 6272 N 566.112 -0.949982 1.2575 0
M  V30 6273 C 567.059 -2.04738 1.06541 0
M  V30 6274 C 568.029 -1.66078 -0.0268818 0
M  V30 6275 O 569.214 -1.90348 0.131196 0
M  V30 6276 C 566.354 -3.38027 0.695127 0
M  V30 6277 C 565.467 -3.89776 1.86276 0
M  V30 6278 C 564.602 -5.11411 1.4364 0
M  V30 6279 C 563.641 -5.554 2.57287 0
M  V30 6280 N 562.778 -6.68244 2.15395 0
M  V30 6281 H 567.618 -2.20502 2.00457 0
M  V30 6282 H 565.155 -1.0805 0.998178 0
M  V30 6283 H 567.113 -4.14641 0.461375 0
M  V30 6284 H 565.743 -3.22135 -0.207046 0
M  V30 6285 H 564.795 -3.0964 2.20969 0
M  V30 6286 H 566.107 -4.18368 2.71606 0
M  V30 6287 H 565.261 -5.95457 1.16257 0
M  V30 6288 H 564 -4.84545 0.553879 0
M  V30 6289 H 563.005 -4.69916 2.85409 0
M  V30 6290 H 564.23 -5.84272 3.46125 0
M  V30 6291 H 562.176 -6.43078 1.29565 0
M  V30 6292 H 562.093 -6.96377 2.94272 0
M  V30 6293 H 563.361 -7.55687 1.91201 0
M  V30 6294 N 567.59 -1.07411 -1.15328 0
M  V30 6295 C 568.867 -0.710732 -1.82231 0
M  V30 6296 C 569.247 0.806732 -1.95077 0
M  V30 6297 O 568.595 1.72139 -1.50268 0
M  V30 6298 C 568.805 -1.42586 -3.18544 0
M  V30 6299 C 570.153 -1.57836 -3.94174 0
M  V30 6300 O 571.177 -1.38669 -3.281 0
M  V30 6301 O 570.036 -1.8938 -5.12638 0
M  V30 6302 H 567.13 -0.25297 -0.78736 0
M  V30 6303 H 569.676 -1.17508 -1.22434 0
M  V30 6304 H 568.448 -2.46008 -3.04296 0
M  V30 6305 H 568.071 -0.952332 -3.86026 0
M  V30 6306 N 569.068 1.32177 -0.85831 0
M  V30 6307 C 570.296 2.01313 -0.477582 0
M  V30 6308 C 570.711 1.6449 0.926736 0
M  V30 6309 O 570.068 0.868096 1.60531 0
M  V30 6310 C 570.119 3.56293 -0.611337 0
M  V30 6311 O 569.84 3.91794 -1.96034 0
M  V30 6312 C 571.341 4.42702 -0.230093 0
M  V30 6313 H 568.561 0.644323 -0.187322 0
M  V30 6314 H 571.105 1.68674 -1.15626 0
M  V30 6315 H 569.26 3.87395 0.0196494 0
M  V30 6316 H 569.674 4.86513 -1.95973 0
M  V30 6317 H 571.148 5.50727 -0.374674 0
M  V30 6318 H 571.625 4.3129 0.829779 0
M  V30 6319 H 572.231 4.16997 -0.836302 0
M  V30 6320 N 570.547 0.616602 1.45037 0
M  V30 6321 C 571.457 -0.0985401 2.34393 0
M  V30 6322 C 572.473 -0.850971 1.51771 0
M  V30 6323 O 573.649 -0.806521 1.84546 0
M  V30 6324 C 570.714 -1.07748 3.29532 0
M  V30 6325 C 569.775 -0.326022 4.2806 0
M  V30 6326 C 569.008 -1.25833 5.18654 0
M  V30 6327 O 569.231 -2.49652 5.12864 0
M  V30 6328 O 568.165 -0.750512 5.97203 0
M  V30 6329 H 571.991 0.636016 2.96966 0
M  V30 6330 H 569.576 0.376832 1.44569 0
M  V30 6331 H 571.458 -1.64107 3.88133 0
M  V30 6332 H 570.133 -1.79291 2.69512 0
M  V30 6333 H 569.04 0.280253 3.73049 0
M  V30 6334 H 570.373 0.349091 4.9096 0
M  V30 6335 N 572.025 -1.5352 0.356285 0
M  V30 6336 C 573.271 -2.01414 -0.236653 0
M  V30 6337 C 573.604 -1.24339 -1.49176 0
M  V30 6338 O 572.879 -0.334496 -1.91602 0
M  V30 6339 C 573.162 -3.56059 -0.537982 0
M  V30 6340 C 573.015 -4.43835 0.730112 0
M  V30 6341 C 574.334 -4.19127 -1.34239 0
M  V30 6342 H 571.453 -0.732135 -0.0845386 0
M  V30 6343 H 574.095 -1.83854 0.479341 0
M  V30 6344 H 572.245 -3.71153 -1.14795 0
M  V30 6345 H 573.917 -4.40555 1.36782 0
M  V30 6346 H 572.16 -4.1218 1.3524 0
M  V30 6347 H 572.831 -5.49958 0.474358 0
M  V30 6348 H 575.307 -4.07809 -0.826498 0
M  V30 6349 H 574.183 -5.27378 -1.52198 0
M  V30 6350 H 574.444 -3.74581 -2.34822 0
M  V30 6351 N 573.503 -0.0852151 -1.57369 0
M  V30 6352 C 574.75 0.580806 -1.93992 0
M  V30 6353 C 575.078 1.68801 -0.966252 0
M  V30 6354 O 574.333 1.95694 0.0158649 0
M  V30 6355 C 574.632 1.18482 -3.3719 0
M  V30 6356 C 574.298 0.2024 -4.50446 0
M  V30 6357 C 572.96 -0.0678318 -4.81152 0
M  V30 6358 C 575.312 -0.46895 -5.19086 0
M  V30 6359 C 572.64 -1.01627 -5.77831 0
M  V30 6360 C 574.992 -1.4058 -6.16782 0
M  V30 6361 C 573.656 -1.68436 -6.45899 0
M  V30 6362 H 572.926 0.212532 -0.709867 0
M  V30 6363 H 575.573 -0.158947 -1.90839 0
M  V30 6364 H 573.878 2.0006 -3.36873 0
M  V30 6365 H 575.575 1.70767 -3.62822 0
M  V30 6366 H 572.165 0.423208 -4.26505 0
M  V30 6367 H 576.349 -0.273307 -4.95547 0
M  V30 6368 H 571.605 -1.2392 -5.9871 0
M  V30 6369 H 575.779 -1.93188 -6.69068 0
M  V30 6370 H 573.406 -2.42088 -7.20623 0
M  V30 6371 N 574.981 1.5647 0.188427 0
M  V30 6372 C 575.911 1.98101 1.23606 0
M  V30 6373 C 576.892 0.853961 1.47111 0
M  V30 6374 O 578.077 1.11879 1.58735 0
M  V30 6375 C 575.207 2.32624 2.57882 0
M  V30 6376 C 574.161 3.48129 2.48978 0
M  V30 6377 C 573.487 3.68347 3.87588 0
M  V30 6378 C 574.787 4.82112 2.00911 0
M  V30 6379 H 576.481 2.85864 0.890068 0
M  V30 6380 H 574.027 1.37532 0.426714 0
M  V30 6381 H 575.98 2.60343 3.3136 0
M  V30 6382 H 574.704 1.41751 2.94235 0
M  V30 6383 H 573.363 3.20511 1.77956 0
M  V30 6384 H 573.011 2.74793 4.21305 0
M  V30 6385 H 572.711 4.46055 3.82503 0
M  V30 6386 H 574.235 3.98449 4.62678 0
M  V30 6387 H 575.649 5.08819 2.64151 0
M  V30 6388 H 574.046 5.63337 2.06814 0
M  V30 6389 H 575.116 4.75249 0.96262 0
M  V30 6390 N 576.459 -0.456382 1.50847 0
M  V30 6391 C 577.708 -1.2042 1.61808 0
M  V30 6392 C 578.021 -1.9278 0.330932 0
M  V30 6393 O 579.227 -2.69612 0.319643 0
M  V30 6394 C 577.683 -2.18891 2.85683 0
M  V30 6395 C 577.291 -1.52267 4.2133 0
M  V30 6396 C 579.035 -2.94224 3.05994 0
M  V30 6397 C 576.942 -2.4911 5.36375 0
M  V30 6398 H 575.872 -0.453177 0.602616 0
M  V30 6399 H 578.523 -0.473144 1.77295 0
M  V30 6400 H 576.905 -2.95351 2.63787 0
M  V30 6401 H 578.079 -0.814949 4.53536 0
M  V30 6402 H 576.394 -0.891594 4.06743 0
M  V30 6403 H 578.991 -3.66732 3.89117 0
M  V30 6404 H 579.334 -3.54469 2.18306 0
M  V30 6405 H 579.867 -2.24874 3.28141 0
M  V30 6406 H 576.606 -1.93582 6.26264 0
M  V30 6407 H 576.126 -3.17991 5.08569 0
M  V30 6408 H 577.805 -3.10637 5.67551 0
M  V30 6409 N 577.937 -1.40673 -0.710563 0
M  V30 6410 C 578.867 -1.44095 -1.83736 0
M  V30 6411 C 579.848 -0.301286 -1.67411 0
M  V30 6412 O 581.033 -0.510618 -1.87367 0
M  V30 6413 C 578.163 -1.30773 -3.21738 0
M  V30 6414 C 577.117 -2.42395 -3.52745 0
M  V30 6415 C 576.443 -2.14147 -4.89944 0
M  V30 6416 C 577.743 -3.84738 -3.53234 0
M  V30 6417 H 579.437 -2.38396 -1.81129 0
M  V30 6418 H 576.983 -1.14746 -0.870017 0
M  V30 6419 H 578.936 -1.31783 -4.00264 0
M  V30 6420 H 577.66 -0.329507 -3.24934 0
M  V30 6421 H 576.319 -2.40643 -2.76562 0
M  V30 6422 H 575.967 -1.14703 -4.89747 0
M  V30 6423 H 575.667 -2.88934 -5.11655 0
M  V30 6424 H 577.191 -2.16848 -5.70797 0
M  V30 6425 H 578.605 -3.88286 -4.2179 0
M  V30 6426 H 577.002 -4.59085 -3.86473 0
M  V30 6427 H 578.072 -4.13962 -2.52514 0
M  V30 6428 N 579.415 0.9433 -1.26252 0
M  V30 6429 C 580.64 1.72898 -1.14547 0
M  V30 6430 C 581.065 1.85761 0.295743 0
M  V30 6431 O 580.423 1.3463 1.21427 0
M  V30 6432 C 580.471 3.11471 -1.8171 0
M  V30 6433 O 579.575 3.97336 -1.10445 0
M  V30 6434 H 578.916 0.530555 -0.399259 0
M  V30 6435 H 581.446 1.18159 -1.67032 0
M  V30 6436 H 581.456 3.61872 -1.88449 0
M  V30 6437 H 580.131 3.01425 -2.86558 0
M  V30 6438 H 578.708 3.55788 -1.11666 0
M  V30 6439 N 580.893 1.08022 1.14757 0
M  V30 6440 C 582.121 0.828847 1.89572 0
M  V30 6441 C 582.536 -0.618621 1.78377 0
M  V30 6442 O 581.893 -1.42482 1.1404 0
M  V30 6443 C 581.944 1.23677 3.39685 0
M  V30 6444 O 581.665 2.62746 3.50566 0
M  V30 6445 C 583.166 1.01569 4.31507 0
M  V30 6446 H 580.386 0.299196 0.600602 0
M  V30 6447 H 582.93 1.43846 1.45357 0
M  V30 6448 H 581.085 0.671347 3.81539 0
M  V30 6449 H 581.499 2.79573 4.43778 0
M  V30 6450 H 582.973 1.35055 5.35223 0
M  V30 6451 H 583.45 -0.0475433 4.39174 0
M  V30 6452 H 584.056 1.56636 3.95405 0
M  V30 6453 N 582.371 -1.3172 0.865308 0
M  V30 6454 C 583.334 -2.26918 0.322627 0
M  V30 6455 C 584.334 -1.52031 -0.523751 0
M  V30 6456 O 585.524 -1.70973 -0.333727 0
M  V30 6457 C 582.656 -3.36558 -0.542338 0
M  V30 6458 H 583.849 -2.76432 1.16298 0
M  V30 6459 H 581.402 -1.42573 0.640512 0
M  V30 6460 H 582.137 -2.92329 -1.40407 0
M  V30 6461 H 581.922 -3.92048 0.0636395 0
M  V30 6462 H 583.412 -4.07465 -0.91446 0
M  V30 6463 N 583.85 -0.624285 -1.44708 0
M  V30 6464 C 584.779 0.0717025 -2.3339 0
M  V30 6465 C 585.76 0.841814 -1.47809 0
M  V30 6466 O 586.946 0.809056 -1.76544 0
M  V30 6467 C 584.076 1.05852 -3.30776 0
M  V30 6468 C 583.029 0.400503 -4.26122 0
M  V30 6469 C 582.356 1.49674 -5.13324 0
M  V30 6470 C 583.656 -0.688924 -5.17737 0
M  V30 6471 H 585.35 -0.668819 -2.91834 0
M  V30 6472 H 582.896 -0.32308 -1.40329 0
M  V30 6473 H 584.849 1.5541 -3.91696 0
M  V30 6474 H 583.572 1.82984 -2.70526 0
M  V30 6475 H 582.231 -0.0743687 -3.66525 0
M  V30 6476 H 581.88 2.25877 -4.49431 0
M  V30 6477 H 581.58 1.06188 -5.77926 0
M  V30 6478 H 583.104 1.99427 -5.77115 0
M  V30 6479 H 584.518 -0.276724 -5.72632 0
M  V30 6480 H 582.915 -1.04652 -5.90904 0
M  V30 6481 H 583.985 -1.55884 -4.5916 0
M  V30 6482 N 585.328 1.53329 -0.364422 0
M  V30 6483 C 586.278 2.22472 0.499024 0
M  V30 6484 C 587.262 1.21952 1.0496 0
M  V30 6485 O 588.454 1.47405 0.979836 0
M  V30 6486 C 585.583 3.01659 1.6388 0
M  V30 6487 C 584.669 4.09555 1.10116 0
M  V30 6488 N 585.06 5.04988 0.286414 0
M  V30 6489 C 583.358 4.2424 1.37608 0
M  V30 6490 C 584.059 5.81699 -0.00781682 0
M  V30 6491 N 583.035 5.40394 0.589494 0
M  V30 6492 H 586.837 2.93611 -0.130284 0
M  V30 6493 H 584.351 1.61483 -0.172377 0
M  V30 6494 H 586.348 3.4971 2.26954 0
M  V30 6495 H 585.008 2.32051 2.27118 0
M  V30 6496 H 586.019 5.17847 -0.0742839 0
M  V30 6497 H 582.696 3.65858 2.01133 0
M  V30 6498 H 584.086 6.68587 -0.666394 0
M  V30 6499 N 586.806 0.0935595 1.57322 0
M  V30 6500 C 588.083 -0.612692 1.85756 0
M  V30 6501 C 588.463 -1.86439 0.99013 0
M  V30 6502 O 587.811 -2.28416 0.0621362 0
M  V30 6503 C 588.021 -0.929547 3.36393 0
M  V30 6504 C 589.369 -1.29366 4.04413 0
M  V30 6505 O 590.393 -1.02061 3.41265 0
M  V30 6506 O 589.252 -1.80498 5.15832 0
M  V30 6507 H 586.346 -0.306444 0.768128 0
M  V30 6508 H 588.892 0.126141 1.69231 0
M  V30 6509 H 587.664 -0.0414766 3.91278 0
M  V30 6510 H 587.287 -1.72441 3.5826 0
M  V30 6511 N 588.284 -1.56567 -0.180126 0
M  V30 6512 C 589.695 -1.7126 -0.743422 0
M  V30 6513 C 590.046 -0.70263 -1.83187 0
M  V30 6514 O 589.171 0.137856 -2.1596 0
M  V30 6515 C 589.766 -3.10512 -1.35528 0
M  V30 6516 C 588.325 -3.26919 -1.8655 0
M  V30 6517 C 587.472 -2.67213 -0.741099 0
M  V30 6518 H 590.423 -1.58636 0.0451543 0
M  V30 6519 H 590.444 -3.08673 -2.22489 0
M  V30 6520 H 589.956 -3.83997 -0.562862 0
M  V30 6521 H 588.057 -2.58376 -2.68464 0
M  V30 6522 H 588.17 -4.34574 -2.01699 0
M  V30 6523 H 586.534 -2.26788 -1.15927 0
M  V30 6524 H 587.317 -3.43277 0.0393291 0
M  V30 6525 N 589.762 0.448376 -1.51087 0
M  V30 6526 C 590.712 1.54156 -1.67988 0
M  V30 6527 C 591.696 1.5178 -0.534015 0
M  V30 6528 O 592.888 1.58419 -0.789448 0
M  V30 6529 C 590.017 2.92437 -1.79822 0
M  V30 6530 C 589.103 2.99611 -3.00157 0
M  V30 6531 N 589.494 2.7655 -4.23502 0
M  V30 6532 C 587.792 3.30764 -2.99184 0
M  V30 6533 C 588.493 2.89281 -5.0467 0
M  V30 6534 N 587.469 3.20473 -4.39088 0
M  V30 6535 H 591.271 1.35061 -2.61028 0
M  V30 6536 H 588.785 0.655504 -1.48583 0
M  V30 6537 H 590.782 3.71068 -1.90037 0
M  V30 6538 H 589.442 3.1256 -0.879554 0
M  V30 6539 H 590.453 2.5169 -4.52628 0
M  V30 6540 H 587.13 3.56732 -2.16907 0
M  V30 6541 H 588.52 2.75499 -6.12821 0
M  V30 6542 N 591.24 1.41047 0.703093 0
M  V30 6543 C 592.47 1.43133 1.48985 0
M  V30 6544 C 592.878 0.0328537 1.89171 0
M  V30 6545 O 592.221 -0.956469 1.56835 0
M  V30 6546 C 592.283 2.26991 2.78775 0
M  V30 6547 C 591.947 3.7525 2.60837 0
M  V30 6548 C 592.944 4.67591 2.27276 0
M  V30 6549 C 590.629 4.19208 2.76712 0
M  V30 6550 C 592.623 6.01877 2.09817 0
M  V30 6551 C 590.31 5.53561 2.5887 0
M  V30 6552 C 591.308 6.4471 2.25472 0
M  V30 6553 O 590.996 7.76584 2.07778 0
M  V30 6554 H 590.728 0.489788 0.465922 0
M  V30 6555 H 593.282 1.85886 0.873822 0
M  V30 6556 H 591.512 1.79038 3.42757 0
M  V30 6557 H 593.201 2.20867 3.40547 0
M  V30 6558 H 593.967 4.34923 2.14633 0
M  V30 6559 H 589.846 3.48572 3.01693 0
M  V30 6560 H 593.39 6.72986 1.83671 0
M  V30 6561 H 589.287 5.85811 2.71102 0
M  V30 6562 H 590.055 7.87649 2.22601 0
M  V30 6563 N 592.718 -0.936591 1.26751 0
M  V30 6564 C 593.965 -1.68331 1.12566 0
M  V30 6565 C 594.293 -1.91677 -0.330168 0
M  V30 6566 O 593.548 -1.49859 -1.2586 0
M  V30 6567 C 593.847 -3.06099 1.84494 0
M  V30 6568 C 593.513 -3.02493 3.34378 0
M  V30 6569 C 592.175 -3.01217 3.75262 0
M  V30 6570 C 594.527 -2.94453 4.30055 0
M  V30 6571 C 591.855 -2.89672 5.10203 0
M  V30 6572 C 594.207 -2.84449 5.65041 0
M  V30 6573 C 592.871 -2.81518 6.0523 0
M  V30 6574 H 592.141 -0.615965 0.411907 0
M  V30 6575 H 594.788 -1.09292 1.5725 0
M  V30 6576 H 593.093 -3.6879 1.32292 0
M  V30 6577 H 594.79 -3.62733 1.70955 0
M  V30 6578 H 591.38 -3.04269 3.01858 0
M  V30 6579 H 595.564 -2.94544 3.99447 0
M  V30 6580 H 590.82 -2.85783 5.40498 0
M  V30 6581 H 594.994 -2.77192 6.38856 0
M  V30 6582 H 592.621 -2.72329 7.09747 0
M  V30 6583 N 594.196 -1.08629 -1.14182 0
M  V30 6584 C 595.106 -0.730126 -2.22949 0
M  V30 6585 C 596.122 0.26436 -1.7198 0
M  V30 6586 O 597.298 0.107742 -2.01112 0
M  V30 6587 C 594.363 -0.147227 -3.46387 0
M  V30 6588 C 593.424 -1.19662 -4.12286 0
M  V30 6589 C 592.657 -0.641437 -5.29831 0
M  V30 6590 O 592.88 0.538351 -5.67854 0
M  V30 6591 O 591.814 -1.39257 -5.85569 0
M  V30 6592 H 595.64 -1.63753 -2.55771 0
M  V30 6593 H 593.225 -0.860118 -1.22157 0
M  V30 6594 H 595.107 0.174923 -4.21037 0
M  V30 6595 H 593.782 0.733304 -3.15285 0
M  V30 6596 H 592.689 -1.57133 -3.395 0
M  V30 6597 H 594.022 -2.0495 -4.475 0
M  V30 6598 N 595.674 1.31259 -0.872281 0
M  V30 6599 C 596.621 2.28459 -0.327857 0
M  V30 6600 C 597.591 1.55831 0.574957 0
M  V30 6601 O 598.776 1.83965 0.506101 0
M  V30 6602 C 595.916 3.41985 0.462644 0
M  V30 6603 C 595.029 4.29458 -0.467949 0
M  V30 6604 C 594.164 5.30131 0.336903 0
M  V30 6605 C 593.203 6.0925 -0.58997 0
M  V30 6606 N 592.34 7.01872 0.178775 0
M  V30 6607 H 597.18 2.74414 -1.16193 0
M  V30 6608 H 594.717 1.34994 -0.584376 0
M  V30 6609 H 596.675 4.06547 0.936759 0
M  V30 6610 H 595.305 2.97134 1.2614 0
M  V30 6611 H 594.357 3.65318 -1.06052 0
M  V30 6612 H 595.669 4.84677 -1.17856 0
M  V30 6613 H 594.823 6.0038 0.873427 0
M  V30 6614 H 593.562 4.75573 1.08079 0
M  V30 6615 H 592.567 5.37889 -1.13823 0
M  V30 6616 H 593.792 6.65894 -1.33275 0
M  V30 6617 H 591.738 6.49721 0.905435 0
M  V30 6618 H 591.655 7.54522 -0.472452 0
M  V30 6619 H 592.923 7.76382 0.696454 0
M  V30 6620 N 597.152 0.631951 1.44375 0
M  V30 6621 C 598.563 0.219036 1.85411 0
M  V30 6622 C 598.914 -1.22974 1.52879 0
M  V30 6623 O 598.039 -1.93579 0.967266 0
M  V30 6624 C 598.634 0.39075 3.36539 0
M  V30 6625 C 597.193 0.0323351 3.76386 0
M  V30 6626 C 596.34 0.703744 2.68221 0
M  V30 6627 H 599.291 0.837056 1.3483 0
M  V30 6628 H 599.312 -0.370056 3.78696 0
M  V30 6629 H 598.824 1.44527 3.60185 0
M  V30 6630 H 596.925 -1.02042 3.58355 0
M  V30 6631 H 597.038 0.442969 4.77048 0
M  V30 6632 H 595.402 0.138974 2.54321 0
M  V30 6633 H 596.185 1.76088 2.947 0
M  V30 6634 N 598.631 -1.53133 0.372548 0
M  V30 6635 C 599.908 -1.93704 -0.271693 0
M  V30 6636 C 600.288 -1.30667 -1.65799 0
M  V30 6637 O 599.636 -0.46838 -2.23648 0
M  V30 6638 C 599.846 -3.47576 -0.314903 0
M  V30 6639 C 601.194 -4.20998 -0.551912 0
M  V30 6640 O 602.218 -3.53994 -0.39582 0
M  V30 6641 O 601.077 -5.39748 -0.85639 0
M  V30 6642 H 598.171 -0.810457 -0.164586 0
M  V30 6643 H 600.717 -1.6427 0.425838 0
M  V30 6644 H 599.489 -3.85749 0.656792 0
M  V30 6645 H 599.112 -3.83264 -1.05804 0
M  V30 6646 N 600.109 -0.101901 -1.5727 0
M  V30 6647 C 601.072 0.840129 -2.13247 0
M  V30 6648 C 602.072 1.20625 -1.06331 0
M  V30 6649 O 603.262 1.13456 -1.32186 0
M  V30 6650 C 600.394 2.13372 -2.65867 0
M  V30 6651 H 601.587 0.353945 -2.97804 0
M  V30 6652 H 599.14 0.147167 -1.55606 0
M  V30 6653 H 599.875 2.66461 -1.84849 0
M  V30 6654 H 599.66 1.88085 -3.44044 0
M  V30 6655 H 601.15 2.80748 -3.09145 0
M  V30 6656 N 601.587 1.56661 0.17182 0
M  V30 6657 C 602.834 1.81965 0.888529 0
M  V30 6658 C 603.162 0.6789 1.82267 0
M  V30 6659 O 602.417 -0.333875 1.92831 0
M  V30 6660 C 602.716 3.13435 1.71736 0
M  V30 6661 C 602.382 4.41159 0.932184 0
M  V30 6662 C 601.044 4.75851 0.715481 0
M  V30 6663 C 603.396 5.19803 0.381387 0
M  V30 6664 C 600.724 5.86666 -0.063126 0
M  V30 6665 C 603.076 6.31433 -0.384129 0
M  V30 6666 C 601.74 6.64692 -0.611637 0
M  V30 6667 H 601.01 0.665859 0.325136 0
M  V30 6668 H 603.657 1.90884 0.153495 0
M  V30 6669 H 601.962 2.99857 2.52177 0
M  V30 6670 H 603.659 3.30224 2.27493 0
M  V30 6671 H 600.249 4.13947 1.11112 0
M  V30 6672 H 604.433 4.93396 0.536148 0
M  V30 6673 H 599.689 6.10892 -0.249136 0
M  V30 6674 H 603.863 6.91577 -0.818185 0
M  V30 6675 H 601.49 7.50398 -1.21684 0
M  V30 6676 N 603.065 -0.440357 1.51323 0
M  V30 6677 C 604.013 -1.55492 1.72988 0
M  V30 6678 C 605.007 -1.58564 0.596138 0
M  V30 6679 O 606.213 -1.62345 0.777443 0
M  V30 6680 H 602.588 -0.516532 0.546533 0
M  V30 6681 H 604.559 -1.34392 2.66423 0
M  V30 6682 C 603.308 -2.93176 1.86931 0
M  V30 6683 H 602.631 -2.91543 2.73574 0
M  V30 6684 H 604.071 -3.70537 2.06103 0
M  V30 6685 C 602.53 -3.30988 0.628365 0
M  V30 6686 O 603.06 -4.01106 -0.218367 0
M  V30 6687 N 601.266 -2.86719 0.473339 0
M  V30 6688 H 600.813 -2.2983 1.16345 0
M  V30 6689 H 600.771 -3.12381 -0.355727 0
M  V30 6690 N 604.543 -1.41418 -0.695603 0
M  V30 6691 C 605.954 -1.36335 -1.27552 0
M  V30 6692 C 606.305 -0.0464336 -1.96145 0
M  V30 6693 O 605.43 0.855304 -1.9878 0
M  V30 6694 C 606.025 -2.46941 -2.3196 0
M  V30 6695 C 604.584 -2.45256 -2.85529 0
M  V30 6696 C 603.731 -2.2679 -1.59566 0
M  V30 6697 H 606.682 -1.50934 -0.490362 0
M  V30 6698 H 606.703 -2.15997 -3.1325 0
M  V30 6699 H 606.215 -3.42775 -1.82008 0
M  V30 6700 H 604.316 -1.53179 -3.39657 0
M  V30 6701 H 604.429 -3.41565 -3.35961 0
M  V30 6702 H 602.793 -1.74667 -1.85374 0
M  V30 6703 H 603.576 -3.24651 -1.1161 0
M  V30 6704 N 606.021 0.929856 -1.27246 0
M  V30 6705 C 607.298 1.65544 -1.04186 0
M  V30 6706 C 607.678 2.06796 0.424097 0
M  V30 6707 O 607.026 1.80053 1.40688 0
M  V30 6708 C 607.236 2.85912 -2.00138 0
M  V30 6709 C 608.584 3.57305 -2.29387 0
M  V30 6710 O 609.608 2.96036 -1.98094 0
M  V30 6711 O 608.467 4.67688 -2.82719 0
M  V30 6712 H 605.561 0.725473 -0.397011 0
M  V30 6713 H 608.107 0.980583 -1.38501 0
M  V30 6714 H 606.879 2.52403 -2.99013 0
M  V30 6715 H 606.502 3.61118 -1.66371 0
M  V30 6716 N 607.499 1.09233 1.13605 0
M  V30 6717 C 608.449 0.6994 2.17008 0
M  V30 6718 C 609.433 -0.285238 1.58352 0
M  V30 6719 O 610.625 -0.09592 1.7674 0
M  V30 6720 C 607.754 0.11938 3.43092 0
M  V30 6721 C 606.84 1.13031 4.0876 0
M  V30 6722 N 607.231 2.31673 4.49623 0
M  V30 6723 C 605.529 0.967999 4.35369 0
M  V30 6724 C 606.23 2.95964 5.00779 0
M  V30 6725 N 605.206 2.23534 4.95513 0
M  V30 6726 H 609.008 1.60272 2.46354 0
M  V30 6727 H 606.522 0.968257 1.30378 0
M  V30 6728 H 608.519 -0.180122 4.16511 0
M  V30 6729 H 607.179 -0.778816 3.15221 0
M  V30 6730 H 608.19 2.69277 4.42391 0
M  V30 6731 H 604.867 0.124319 4.17315 0
M  V30 6732 H 606.257 3.96813 5.42208 0
M  V30 6733 N 608.977 -1.30795 0.87923 0
M  V30 6734 C 610.224 -1.96362 0.494786 0
M  V30 6735 C 610.552 -1.69448 -0.954868 0
M  V30 6736 O 609.807 -0.988711 -1.68888 0
M  V30 6737 C 610.106 -3.50287 0.709476 0
M  V30 6738 C 609.772 -3.9724 2.13333 0
M  V30 6739 C 608.434 -4.09772 2.52271 0
M  V30 6740 C 610.786 -4.21807 3.06151 0
M  V30 6741 C 608.114 -4.44227 3.83248 0
M  V30 6742 C 610.466 -4.5773 4.36654 0
M  V30 6743 C 609.13 -4.68469 4.75492 0
M  V30 6744 H 608.4 -0.71854 0.181055 0
M  V30 6745 H 611.047 -1.55764 1.11399 0
M  V30 6746 H 609.352 -3.91799 0.0072 0
M  V30 6747 H 611.049 -3.99082 0.391703 0
M  V30 6748 H 607.639 -3.87988 1.82107 0
M  V30 6749 H 611.823 -4.11611 2.77291 0
M  V30 6750 H 607.079 -4.50741 4.13089 0
M  V30 6751 H 611.253 -4.7569 5.08617 0
M  V30 6752 H 608.88 -4.94923 5.77022 0
M  V30 6753 N 610.455 -0.639598 -1.44038 0
M  V30 6754 C 611.385 0.0469443 -2.33453 0
M  V30 6755 C 612.366 0.82609 -1.48694 0
M  V30 6756 O 613.551 0.790285 -1.77393 0
M  V30 6757 C 610.681 1.02338 -3.3188 0
M  V30 6758 C 609.635 0.355284 -4.26523 0
M  V30 6759 C 608.961 1.44221 -5.14883 0
M  V30 6760 C 610.261 -0.743798 -5.16977 0
M  V30 6761 H 611.955 -0.699735 -2.91108 0
M  V30 6762 H 609.501 -0.337946 -1.39978 0
M  V30 6763 H 611.454 1.51247 -3.93322 0
M  V30 6764 H 610.178 1.80105 -2.72451 0
M  V30 6765 H 608.837 -0.113239 -3.66425 0
M  V30 6766 H 608.485 2.21097 -4.51802 0
M  V30 6767 H 608.185 1.00052 -5.79019 0
M  V30 6768 H 609.709 1.93295 -5.79197 0
M  V30 6769 H 611.123 -0.337444 -5.72306 0
M  V30 6770 H 609.52 -1.10914 -5.89761 0
M  V30 6771 H 610.59 -1.60745 -4.57481 0
M  V30 6772 N 611.933 1.52934 -0.380664 0
M  V30 6773 C 613.21 1.93845 0.261417 0
M  V30 6774 C 613.59 1.31544 1.65104 0
M  V30 6775 O 612.938 0.480234 2.23397 0
M  V30 6776 C 613.148 3.47739 0.296466 0
M  V30 6777 C 614.496 4.21284 0.529578 0
M  V30 6778 O 615.52 3.54199 0.377041 0
M  V30 6779 O 614.379 5.40195 0.827753 0
M  V30 6780 H 611.473 0.811318 0.160285 0
M  V30 6781 H 614.019 1.64042 -0.434544 0
M  V30 6782 H 612.791 3.85395 -0.67724 0
M  V30 6783 H 612.414 3.8382 1.0377 0
M  V30 6784 N 613.412 0.11024 1.57214 0
M  V30 6785 C 614.375 -0.828808 2.1369 0
M  V30 6786 C 615.375 -1.20059 1.06969 0
M  V30 6787 O 616.565 -1.12754 1.32786 0
M  V30 6788 C 613.697 -2.11959 2.66994 0
M  V30 6789 H 614.89 -0.338146 2.97988 0
M  V30 6790 H 612.443 -0.138913 1.55681 0
M  V30 6791 H 613.178 -2.65476 1.8626 0
M  V30 6792 H 612.963 -1.86258 3.45037 0
M  V30 6793 H 614.453 -2.79105 3.10629 0
M  V30 6794 N 614.89 -1.56749 -0.16351 0
M  V30 6795 C 615.838 -1.97939 -1.22159 0
M  V30 6796 C 616.832 -0.869288 -1.45395 0
M  V30 6797 O 618.038 -1.05443 -1.45883 0
M  V30 6798 H 614.413 -0.629869 -0.410815 0
M  V30 6799 H 616.384 -2.86115 -0.847381 0
M  V30 6800 C 615.133 -2.36206 -2.55151 0
M  V30 6801 H 614.456 -3.2117 -2.38097 0
M  V30 6802 H 615.896 -2.68863 -3.27854 0
M  V30 6803 C 614.355 -1.20841 -3.14482 0
M  V30 6804 O 614.885 -0.500258 -3.98573 0
M  V30 6805 N 613.091 -0.976943 -2.73686 0
M  V30 6806 H 612.638 -1.55457 -2.05404 0
M  V30 6807 H 612.596 -0.206912 -3.13718 0
M  V30 6808 N 616.368 0.432326 -1.51554 0
M  V30 6809 C 617.616 1.17901 -1.64146 0
M  V30 6810 C 617.937 1.91604 -0.362367 0
M  V30 6811 O 617.207 1.85764 0.621968 0
M  V30 6812 H 615.787 0.438206 -0.604966 0
M  V30 6813 H 618.449 0.495172 -1.88505 0
M  V30 6814 H 617.545 1.90584 -2.47152 0
M  V30 6815 N 617.846 1.41785 0.688094 0
M  V30 6816 C 618.809 1.43936 1.78368 0
M  V30 6817 C 619.809 0.328866 1.57401 0
M  V30 6818 O 620.999 0.589093 1.63937 0
M  V30 6819 C 618.131 1.25804 3.16838 0
M  V30 6820 H 619.324 2.41472 1.77852 0
M  V30 6821 H 616.877 1.28037 0.896448 0
M  V30 6822 H 617.612 0.291386 3.22988 0
M  V30 6823 H 617.397 2.06272 3.33458 0
M  V30 6824 H 618.887 1.30162 3.96797 0
M  V30 6825 N 619.324 -0.923095 1.27737 0
M  V30 6826 C 620.254 -2.04124 1.13383 0
M  V30 6827 C 621.235 -1.70066 0.0340658 0
M  V30 6828 O 622.42 -1.93068 0.209383 0
M  V30 6829 C 619.55 -3.3831 0.785097 0
M  V30 6830 C 618.504 -3.86496 1.8386 0
M  V30 6831 C 617.83 -5.1754 1.34373 0
M  V30 6832 C 619.13 -4.09381 3.24353 0
M  V30 6833 H 620.824 -2.1639 2.06919 0
M  V30 6834 H 618.37 -1.03976 0.996243 0
M  V30 6835 H 620.323 -4.16016 0.671485 0
M  V30 6836 H 619.047 -3.2607 -0.185969 0
M  V30 6837 H 617.706 -3.10987 1.9412 0
M  V30 6838 H 617.354 -5.01696 0.361989 0
M  V30 6839 H 617.054 -5.50751 2.04811 0
M  V30 6840 H 618.578 -5.97811 1.24315 0
M  V30 6841 H 619.992 -4.77641 3.17067 0
M  V30 6842 H 618.389 -4.53906 3.92542 0
M  V30 6843 H 619.459 -3.14515 3.69064 0
M  V30 6844 N 620.802 -1.09834 -1.13024 0
M  V30 6845 C 621.749 -0.741522 -2.18564 0
M  V30 6846 C 622.719 0.279236 -1.63736 0
M  V30 6847 O 623.904 0.159923 -1.90129 0
M  V30 6848 C 621.044 -0.17277 -3.44667 0
M  V30 6849 C 620.157 -1.24808 -4.13578 0
M  V30 6850 C 619.292 -0.641631 -5.27311 0
M  V30 6851 C 618.331 -1.69795 -5.88078 0
M  V30 6852 N 617.468 -1.11223 -6.93234 0
M  V30 6853 H 622.308 -1.64576 -2.48432 0
M  V30 6854 H 619.845 -0.822174 -1.21978 0
M  V30 6855 H 621.803 0.17482 -4.16834 0
M  V30 6856 H 620.433 0.694725 -3.15235 0
M  V30 6857 H 619.485 -1.71288 -3.39653 0
M  V30 6858 H 620.797 -2.04795 -4.54819 0
M  V30 6859 H 619.951 -0.243128 -6.06213 0
M  V30 6860 H 618.69 0.189742 -4.87331 0
M  V30 6861 H 617.695 -2.10595 -5.07868 0
M  V30 6862 H 618.92 -2.53206 -6.3013 0
M  V30 6863 H 616.866 -0.302208 -6.55304 0
M  V30 6864 H 616.783 -1.84901 -7.3304 0
M  V30 6865 H 618.051 -0.740068 -7.75979 0
M  V30 6866 N 622.28 1.30327 -0.886154 0
M  V30 6867 C 623.227 2.28099 -0.352069 0
M  V30 6868 C 624.197 1.56433 0.558397 0
M  V30 6869 O 625.382 1.84492 0.486561 0
M  V30 6870 C 622.522 3.42456 0.426346 0
M  V30 6871 C 621.635 4.28938 -0.513472 0
M  V30 6872 C 620.77 5.30458 0.280657 0
M  V30 6873 C 619.809 6.0859 -0.654556 0
M  V30 6874 N 618.946 7.02022 0.104322 0
M  V30 6875 H 623.786 2.73166 -1.19097 0
M  V30 6876 H 621.323 1.34367 -0.598662 0
M  V30 6877 H 623.281 4.07518 0.893587 0
M  V30 6878 H 621.911 2.98455 1.22981 0
M  V30 6879 H 620.963 3.64173 -1.09921 0
M  V30 6880 H 622.275 4.83399 -1.2299 0
M  V30 6881 H 621.429 6.01273 0.8097 0
M  V30 6882 H 620.168 4.76693 1.03029 0
M  V30 6883 H 619.173 5.36651 -1.19522 0
M  V30 6884 H 620.398 6.64443 -1.4033 0
M  V30 6885 H 618.344 6.50645 0.836472 0
M  V30 6886 H 618.261 7.53979 -0.552453 0
M  V30 6887 H 619.529 7.77077 0.614069 0
M  V30 6888 N 623.758 0.647228 1.43697 0
M  V30 6889 C 624.986 0.16575 2.06235 0
M  V30 6890 C 625.401 -1.1662 1.48476 0
M  V30 6891 O 624.758 -1.7187 0.613762 0
M  V30 6892 C 624.809 0.0621651 3.61447 0
M  V30 6893 O 624.53 1.34146 4.17057 0
M  V30 6894 C 626.031 -0.446102 4.4105 0
M  V30 6895 H 623.251 0.0871158 0.665321 0
M  V30 6896 H 625.795 0.886183 1.84301 0
M  V30 6897 H 623.95 -0.608794 3.82587 0
M  V30 6898 H 624.364 1.19675 5.10664 0
M  V30 6899 H 625.838 -0.46755 5.50016 0
M  V30 6900 H 626.315 -1.47627 4.13646 0
M  V30 6901 H 626.921 0.192159 4.24866 0
M  V30 6902 N 625.236 -1.5273 0.388769 0
M  V30 6903 C 626.146 -2.30165 -0.453993 0
M  V30 6904 C 627.162 -1.37058 -1.07197 0
M  V30 6905 O 628.338 -1.70127 -1.0779 0
M  V30 6906 C 625.403 -3.09303 -1.56628 0
M  V30 6907 C 624.464 -4.18117 -0.973467 0
M  V30 6908 C 623.697 -4.93472 -2.03275 0
M  V30 6909 O 623.92 -4.68913 -3.24772 0
M  V30 6910 O 622.854 -5.78833 -1.65034 0
M  V30 6911 H 626.68 -3.03185 0.176816 0
M  V30 6912 H 624.265 -1.4862 0.152501 0
M  V30 6913 H 626.147 -3.58648 -2.21246 0
M  V30 6914 H 624.822 -2.39098 -2.18206 0
M  V30 6915 H 623.729 -3.7297 -0.290556 0
M  V30 6916 H 625.062 -4.90556 -0.401908 0
M  V30 6917 N 626.714 -0.118576 -1.57153 0
M  V30 6918 C 627.677 0.817464 -2.14127 0
M  V30 6919 C 628.677 1.1949 -1.07604 0
M  V30 6920 O 629.867 1.12048 -1.33382 0
M  V30 6921 C 626.999 2.10541 -2.68115 0
M  V30 6922 H 628.192 0.322339 -2.98163 0
M  V30 6923 H 625.745 0.130655 -1.55753 0
M  V30 6924 H 626.48 2.64485 -1.87665 0
M  V30 6925 H 626.265 1.84425 -3.4602 0
M  V30 6926 H 627.755 2.77453 -3.12105 0
M  V30 6927 N 628.193 1.56834 0.155195 0
M  V30 6928 C 629.44 1.82898 0.869179 0
M  V30 6929 C 629.768 0.698194 1.81537 0
M  V30 6930 O 629.023 -0.313404 1.93174 0
M  V30 6931 C 629.322 3.15239 1.68402 0
M  V30 6932 C 628.988 4.42123 0.885341 0
M  V30 6933 C 627.65 4.76583 0.664971 0
M  V30 6934 C 630.002 5.20178 0.326234 0
M  V30 6935 C 627.33 5.86566 -0.125346 0
M  V30 6936 C 629.682 6.3099 -0.45108 0
M  V30 6937 C 628.346 6.64006 -0.682102 0
M  V30 6938 H 627.616 0.66927 0.318055 0
M  V30 6939 H 630.263 1.91036 0.133241 0
M  V30 6940 H 628.568 3.02515 2.48982 0
M  V30 6941 H 630.265 3.32618 2.23978 0
M  V30 6942 H 626.855 4.15102 1.06716 0
M  V30 6943 H 631.039 4.93936 0.483787 0
M  V30 6944 H 626.295 6.10594 -0.313915 0
M  V30 6945 H 630.469 6.9067 -0.89149 0
M  V30 6946 H 628.096 7.49065 -1.29636 0
M  V30 6947 N 629.671 -0.424282 1.51781 0
M  V30 6948 C 630.92 -1.16961 1.64326 0
M  V30 6949 C 631.233 -1.92035 0.371749 0
M  V30 6950 O 632.439 -2.68873 0.37676 0
M  V30 6951 C 630.895 -2.12782 2.90262 0
M  V30 6952 C 630.503 -1.43295 4.24465 0
M  V30 6953 C 632.247 -2.87667 3.12166 0
M  V30 6954 C 630.154 -2.37676 5.41538 0
M  V30 6955 H 629.084 -0.440293 0.612093 0
M  V30 6956 H 631.735 -0.435431 1.78259 0
M  V30 6957 H 630.117 -2.8969 2.69992 0
M  V30 6958 H 631.291 -0.718564 4.55163 0
M  V30 6959 H 629.606 -0.805118 4.08542 0
M  V30 6960 H 632.203 -3.58395 3.96808 0
M  V30 6961 H 632.546 -3.49758 2.25776 0
M  V30 6962 H 633.079 -2.17863 3.32837 0
M  V30 6963 H 629.818 -1.80255 6.30229 0
M  V30 6964 H 629.338 -3.07132 5.15199 0
M  V30 6965 H 631.017 -2.98529 5.74012 0
M  V30 6966 N 631.149 -1.42148 -0.680565 0
M  V30 6967 C 632.56 -1.3768 -1.26099 0
M  V30 6968 C 632.911 -0.0672348 -1.96085 0
M  V30 6969 O 632.036 0.834172 -1.99676 0
M  V30 6970 C 632.631 -2.49387 -2.29328 0
M  V30 6971 C 631.19 -2.4827 -2.82911 0
M  V30 6972 C 630.337 -2.2847 -1.57152 0
M  V30 6973 H 633.288 -1.51446 -0.474326 0
M  V30 6974 H 633.309 -2.19307 -3.10941 0
M  V30 6975 H 632.821 -3.44686 -1.78363 0
M  V30 6976 H 630.922 -1.56773 -3.38013 0
M  V30 6977 H 631.035 -3.45109 -3.3232 0
M  V30 6978 H 629.399 -1.76623 -1.83511 0
M  V30 6979 H 630.182 -3.25816 -1.0816 0
M  V30 6980 N 632.627 0.916307 -1.28225 0
M  V30 6981 C 633.874 1.66518 -1.1523 0
M  V30 6982 C 634.202 1.92178 0.299632 0
M  V30 6983 O 633.457 1.51842 1.2346 0
M  V30 6984 C 633.756 3.03125 -1.8934 0
M  V30 6985 C 633.422 2.97135 -3.39148 0
M  V30 6986 C 632.084 2.95208 -3.80007 0
M  V30 6987 C 634.436 2.87574 -4.34685 0
M  V30 6988 C 631.764 2.81518 -5.14747 0
M  V30 6989 C 634.116 2.75424 -5.69495 0
M  V30 6990 C 632.78 2.71854 -6.09632 0
M  V30 6991 H 632.05 0.609334 -0.421655 0
M  V30 6992 H 634.697 1.06776 -1.58969 0
M  V30 6993 H 633.002 3.66639 -1.38143 0
M  V30 6994 H 634.699 3.59968 -1.76704 0
M  V30 6995 H 631.289 2.99428 -3.06661 0
M  V30 6996 H 635.473 2.88152 -4.04082 0
M  V30 6997 H 630.729 2.77148 -5.44976 0
M  V30 6998 H 634.903 2.66993 -6.43185 0
M  V30 6999 H 632.53 2.61003 -7.1399 0
M  V30 7000 N 634.105 1.10431 1.1244 0
M  V30 7001 C 635.33 0.869089 1.88313 0
M  V30 7002 C 635.755 -0.574912 1.79099 0
M  V30 7003 O 635.113 -1.40496 1.14589 0
M  V30 7004 C 635.161 1.32208 3.3549 0
M  V30 7005 O 634.265 0.487092 4.09513 0
M  V30 7006 H 633.606 0.313894 0.585121 0
M  V30 7007 H 636.136 1.47111 1.42195 0
M  V30 7008 H 636.146 1.31201 3.86329 0
M  V30 7009 H 634.821 2.37364 3.41513 0
M  V30 7010 H 633.398 0.562372 3.68635 0
M  V30 7011 N 635.583 -1.29855 0.893053 0
M  V30 7012 C 636.513 -2.3035 0.382249 0
M  V30 7013 C 637.494 -1.61328 -0.539203 0
M  V30 7014 O 638.679 -1.88882 -0.451342 0
M  V30 7015 C 635.809 -3.45024 -0.396983 0
M  V30 7016 C 634.763 -4.258 0.433437 0
M  V30 7017 C 634.089 -5.32605 -0.472889 0
M  V30 7018 C 635.389 -4.94549 1.67984 0
M  V30 7019 H 637.083 -2.73325 1.22205 0
M  V30 7020 H 634.629 -1.314 0.589073 0
M  V30 7021 H 636.582 -4.14398 -0.765024 0
M  V30 7022 H 635.306 -3.00875 -1.2705 0
M  V30 7023 H 633.965 -3.58125 0.783723 0
M  V30 7024 H 633.613 -4.84702 -1.34435 0
M  V30 7025 H 633.313 -5.87547 0.0789958 0
M  V30 7026 H 634.837 -6.04832 -0.837269 0
M  V30 7027 H 636.251 -5.56395 1.38192 0
M  V30 7028 H 634.648 -5.59393 2.17254 0
M  V30 7029 H 635.718 -4.20215 2.41965 0
M  V30 7030 N 637.061 -0.65484 -1.43351 0
M  V30 7031 C 638.309 -0.168559 -2.01396 0
M  V30 7032 C 638.63 1.22235 -1.51933 0
M  V30 7033 O 637.9 1.81685 -0.732627 0
M  V30 7034 H 636.48 -0.0593244 -0.744641 0
M  V30 7035 H 639.142 -0.846871 -1.75539 0
M  V30 7036 H 638.238 -0.154428 -3.11718 0
M  V30 7037 N 638.539 1.52521 -0.396863 0
M  V30 7038 C 639.486 2.26671 0.434624 0
M  V30 7039 C 640.456 1.28584 1.05144 0
M  V30 7040 O 641.641 1.57426 1.07804 0
M  V30 7041 C 638.781 3.08234 1.55196 0
M  V30 7042 C 637.894 4.21261 0.957262 0
M  V30 7043 C 637.029 4.90205 2.04627 0
M  V30 7044 C 636.068 5.95213 1.42787 0
M  V30 7045 N 635.205 6.57723 2.45651 0
M  V30 7046 H 640.045 2.973 -0.204139 0
M  V30 7047 H 637.582 1.46669 -0.112505 0
M  V30 7048 H 639.54 3.53819 2.2106 0
M  V30 7049 H 638.17 2.398 2.16092 0
M  V30 7050 H 637.222 3.79935 0.188005 0
M  V30 7051 H 638.534 4.96624 0.465416 0
M  V30 7052 H 637.688 5.39133 2.78246 0
M  V30 7053 H 636.427 4.14383 2.57174 0
M  V30 7054 H 635.432 5.45616 0.676968 0
M  V30 7055 H 636.657 6.72972 0.910255 0
M  V30 7056 H 634.603 5.84737 2.97353 0
M  V30 7057 H 634.52 7.28723 2.01243 0
M  V30 7058 H 635.788 7.11293 3.18876 0
M  V30 7059 N 640.017 0.126909 1.57088 0
M  V30 7060 C 641.433 -0.229641 1.57939 0
M  V30 7061 C 641.633 -1.66145 1.1401 0
M  V30 7062 O 640.689 -2.3843 0.831119 0
M  V30 7063 C 642.002 0.0108648 3.00698 0
M  V30 7064 C 643.55 -0.054418 3.12953 0
M  V30 7065 C 644.025 0.158497 4.57726 0
M  V30 7066 N 645.516 0.104735 4.63082 0
M  V30 7067 C 646.251 0.24427 5.72879 0
M  V30 7068 N 645.747 0.440415 6.91399 0
M  V30 7069 N 647.54 0.183286 5.61801 0
M  V30 7070 H 639.691 1.06203 1.83942 0
M  V30 7071 H 641.954 0.418834 0.85046 0
M  V30 7072 H 641.66 1.00102 3.37154 0
M  V30 7073 H 641.534 -0.717512 3.70313 0
M  V30 7074 H 643.921 -1.0351 2.7635 0
M  V30 7075 H 644.002 0.705967 2.45865 0
M  V30 7076 H 643.646 1.13619 4.95028 0
M  V30 7077 H 643.576 -0.62197 5.22914 0
M  V30 7078 H 646.067 -0.0430298 3.77876 0
M  V30 7079 H 646.38 0.537536 7.70928 0
M  V30 7080 H 644.725 0.476488 6.93365 0
M  V30 7081 H 647.916 0.0309561 4.6809 0
M  V30 7082 H 648.089 0.295471 6.47326 0
M  V30 7083 N 641.495 -1.56914 -0.146875 0
M  V30 7084 C 642.744 -1.82546 -0.857898 0
M  V30 7085 C 643.057 -0.708169 -1.8233 0
M  V30 7086 O 644.263 -0.850093 -2.57848 0
M  V30 7087 C 642.719 -3.23548 -1.57623 0
M  V30 7088 C 642.327 -4.43212 -0.653224 0
M  V30 7089 C 644.071 -3.58453 -2.27402 0
M  V30 7090 C 641.978 -5.75237 -1.37318 0
M  V30 7091 H 640.908 -0.680786 -0.32411 0
M  V30 7092 H 643.559 -1.83166 -0.110639 0
M  V30 7093 H 641.941 -3.17315 -2.36912 0
M  V30 7094 H 643.115 -4.60682 0.104452 0
M  V30 7095 H 641.43 -4.16351 -0.0638336 0
M  V30 7096 H 644.027 -4.54349 -2.81907 0
M  V30 7097 H 644.37 -2.84516 -3.03901 0
M  V30 7098 H 644.903 -3.66347 -1.55032 0
M  V30 7099 H 641.642 -6.52269 -0.650041 0
M  V30 7100 H 641.162 -5.61703 -2.10357 0
M  V30 7101 H 642.841 -6.18039 -1.91406 0
M  V30 7102 N 642.974 0.416227 -1.52004 0
M  V30 7103 C 644.214 1.17307 -1.67387 0
M  V30 7104 C 644.578 1.87959 -0.39183 0
M  V30 7105 O 645.779 2.65472 -0.421671 0
M  V30 7106 C 644.05 2.14661 -2.85754 0
M  V30 7107 S 645.609 2.98549 -3.21581 0
M  V30 7108 H 642.427 0.397505 -0.5895 0
M  V30 7109 H 645.029 0.461431 -1.89976 0
M  V30 7110 H 643.733 1.61431 -3.77317 0
M  V30 7111 H 643.264 2.90375 -2.65417 0
M  V30 7112 H 645.279 4.16536 -2.69652 0
M  V30 7113 N 644.452 1.42507 0.673017 0
M  V30 7114 C 645.382 1.48916 1.79851 0
M  V30 7115 C 646.363 0.345566 1.66553 0
M  V30 7116 O 647.548 0.560116 1.85947 0
M  V30 7117 C 644.678 1.39258 3.18158 0
M  V30 7118 C 643.632 2.51662 3.46194 0
M  V30 7119 C 642.958 2.27062 4.84094 0
M  V30 7120 C 644.258 3.93968 3.42909 0
M  V30 7121 H 645.952 2.43114 1.74745 0
M  V30 7122 H 643.498 1.17013 0.839288 0
M  V30 7123 H 645.451 1.42349 3.96629 0
M  V30 7124 H 644.175 0.415542 3.23946 0
M  V30 7125 H 642.834 2.47891 2.70084 0
M  V30 7126 H 642.482 1.27648 4.86534 0
M  V30 7127 H 642.182 3.02398 5.03815 0
M  V30 7128 H 643.706 2.31905 5.64847 0
M  V30 7129 H 645.12 3.99332 4.11347 0
M  V30 7130 H 643.517 4.6917 3.74165 0
M  V30 7131 H 644.587 4.20512 2.41449 0
M  V30 7132 N 645.93 -0.909495 1.28709 0
M  V30 7133 C 647.178 -1.65577 1.15882 0
M  V30 7134 C 647.499 -1.928 -0.292108 0
M  V30 7135 O 646.769 -1.54716 -1.20166 0
M  V30 7136 H 645.349 -0.613714 0.425869 0
M  V30 7137 H 648.011 -1.09108 1.61498 0
M  V30 7138 H 647.107 -2.61634 1.70159 0
M  V30 7139 N 647.408 -1.11026 -1.11852 0
M  V30 7140 C 648.318 -0.777252 -2.2135 0
M  V30 7141 C 649.334 0.227821 -1.72502 0
M  V30 7142 O 650.51 0.0650587 -2.01295 0
M  V30 7143 C 647.575 -0.220668 -3.45997 0
M  V30 7144 C 646.636 -1.2838 -4.09655 0
M  V30 7145 C 645.869 -0.753678 -5.28352 0
M  V30 7146 O 646.092 0.417779 -5.68868 0
M  V30 7147 O 645.026 -1.51647 -5.82483 0
M  V30 7148 H 648.852 -1.69141 -2.5224 0
M  V30 7149 H 646.437 -0.885836 -1.20305 0
M  V30 7150 H 648.319 0.0855756 -4.21313 0
M  V30 7151 H 646.994 0.666262 -3.16769 0
M  V30 7152 H 645.901 -1.64299 -3.3609 0
M  V30 7153 H 647.234 -2.14396 -4.43052 0
M  V30 7154 N 648.886 1.2938 -0.899927 0
M  V30 7155 C 650.134 1.95164 -0.524924 0
M  V30 7156 C 650.455 1.71292 0.931888 0
M  V30 7157 O 649.725 1.04481 1.65712 0
M  V30 7158 H 648.305 0.722133 -0.191135 0
M  V30 7159 H 650.967 1.57628 -1.14627 0
M  V30 7160 H 650.063 3.0397 -0.707711 0
M  V30 7161 N 650.364 0.662433 1.43002 0
M  V30 7162 C 651.613 0.176873 2.00923 0
M  V30 7163 C 651.926 -1.21954 1.52927 0
M  V30 7164 O 653.132 -1.80081 2.03182 0
M  V30 7165 C 651.588 0.265379 3.5892 0
M  V30 7166 C 651.196 1.66507 4.15908 0
M  V30 7167 C 652.94 -0.162103 4.2419 0
M  V30 7168 C 650.847 1.707 5.66229 0
M  V30 7169 H 649.777 0.0623627 0.751417 0
M  V30 7170 H 652.428 0.825813 1.63868 0
M  V30 7171 H 650.81 -0.451235 3.93421 0
M  V30 7172 H 651.984 2.40777 3.92891 0
M  V30 7173 H 650.299 2.03932 3.63044 0
M  V30 7174 H 652.896 -0.150745 5.34487 0
M  V30 7175 H 653.239 -1.19519 3.98774 0
M  V30 7176 H 653.772 0.503075 3.94606 0
M  V30 7177 H 650.511 2.7195 5.96426 0
M  V30 7178 H 650.031 1.00768 5.91275 0
M  V30 7179 H 651.71 1.45487 6.3043 0
M  V30 7180 N 651.842 -1.52309 0.404946 0
M  V30 7181 C 652.805 -2.25491 -0.410651 0
M  V30 7182 C 653.805 -1.27704 -0.977154 0
M  V30 7183 O 654.995 -1.51679 -0.856691 0
M  V30 7184 C 652.127 -3.02197 -1.57765 0
M  V30 7185 H 653.32 -2.99015 0.230277 0
M  V30 7186 H 650.873 -1.55506 0.157377 0
M  V30 7187 H 651.608 -2.33013 -2.25556 0
M  V30 7188 H 651.393 -3.73987 -1.17797 0
M  V30 7189 H 652.883 -3.57719 -2.15469 0
M  V30 7190 N 653.32 -0.135238 -1.57019 0
M  V30 7191 C 654.736 0.221262 -1.58059 0
M  V30 7192 C 654.936 1.65538 -1.14889 0
M  V30 7193 O 653.992 2.37985 -0.843751 0
M  V30 7194 C 655.305 -0.0268114 -3.00688 0
M  V30 7195 C 656.853 0.0378206 -3.12977 0
M  V30 7196 C 657.328 -0.182769 -4.57635 0
M  V30 7197 N 658.819 -0.129292 -4.6302 0
M  V30 7198 C 659.554 -0.274648 -5.72742 0
M  V30 7199 N 659.05 -0.477075 -6.91155 0
M  V30 7200 N 660.843 -0.213077 -5.61696 0
M  V30 7201 H 652.994 -1.07177 -1.83376 0
M  V30 7202 H 655.257 -0.423338 -0.848227 0
M  V30 7203 H 654.963 -1.01889 -3.36618 0
M  V30 7204 H 654.837 0.697863 -3.70688 0
M  V30 7205 H 657.224 1.02043 -2.76896 0
M  V30 7206 H 657.305 -0.718996 -2.45487 0
M  V30 7207 H 656.949 -1.16243 -4.94419 0
M  V30 7208 H 656.879 0.59423 -5.23237 0
M  V30 7209 H 659.37 0.0229896 -3.77893 0
M  V30 7210 H 659.683 -0.578413 -7.70632 0
M  V30 7211 H 658.028 -0.513252 -6.93102 0
M  V30 7212 H 661.219 -0.0557796 -4.68067 0
M  V30 7213 H 661.392 -0.329796 -6.4716 0
M  V30 7214 N 654.798 1.5699 0.138552 0
M  V30 7215 C 655.761 1.97984 1.15478 0
M  V30 7216 C 656.761 0.867416 1.35398 0
M  V30 7217 O 657.951 1.13387 1.32246 0
M  V30 7218 C 655.083 2.3031 2.51337 0
M  V30 7219 H 656.276 2.88953 0.802896 0
M  V30 7220 H 653.829 1.51555 0.382189 0
M  V30 7221 H 654.564 1.42159 2.91481 0
M  V30 7222 H 654.349 3.11425 2.38237 0
M  V30 7223 H 655.839 2.62834 3.24512 0
M  V30 7224 N 656.276 -0.40816 1.52223 0
M  V30 7225 C 657.186 -1.52202 1.78526 0
M  V30 7226 C 658.202 -1.60546 0.670892 0
M  V30 7227 O 659.378 -1.77242 0.956404 0
M  V30 7228 C 656.443 -2.87928 1.93128 0
M  V30 7229 C 655.504 -2.89463 3.17033 0
M  V30 7230 C 654.737 -4.18715 3.30929 0
M  V30 7231 O 654.96 -5.12662 2.50067 0
M  V30 7232 O 653.894 -4.27125 4.24084 0
M  V30 7233 H 657.72 -1.32911 2.73072 0
M  V30 7234 H 655.305 -0.594112 1.37079 0
M  V30 7235 H 657.187 -3.68426 2.04549 0
M  V30 7236 H 655.862 -3.07285 1.01772 0
M  V30 7237 H 654.769 -2.07815 3.11069 0
M  V30 7238 H 656.102 -2.75055 4.08174 0
M  V30 7239 N 657.755 -1.42862 -0.66545 0
M  V30 7240 C 658.685 -1.49867 -1.79059 0
M  V30 7241 C 659.666 -0.354394 -1.66367 0
M  V30 7242 O 660.851 -0.569969 -1.85647 0
M  V30 7243 C 657.981 -1.40943 -3.17415 0
M  V30 7244 C 656.935 -2.53495 -3.44854 0
M  V30 7245 C 656.261 -2.29626 -4.82883 0
M  V30 7246 C 657.561 -3.95781 -3.40815 0
M  V30 7247 H 659.255 -2.44037 -1.73453 0
M  V30 7248 H 656.801 -1.17456 -0.833071 0
M  V30 7249 H 658.754 -1.4445 -3.95869 0
M  V30 7250 H 657.478 -0.432716 -3.23721 0
M  V30 7251 H 656.137 -2.4932 -2.68766 0
M  V30 7252 H 655.785 -1.30226 -4.8585 0
M  V30 7253 H 655.485 -3.05065 -5.02204 0
M  V30 7254 H 657.009 -2.34897 -5.63609 0
M  V30 7255 H 658.423 -4.01508 -4.09224 0
M  V30 7256 H 656.82 -4.71148 -3.71672 0
M  V30 7257 H 657.89 -4.21786 -2.39216 0
M  V30 7258 N 659.233 0.902656 -1.29189 0
M  V30 7259 C 660.48 1.65287 -1.16989 0
M  V30 7260 C 660.808 1.92485 0.279232 0
M  V30 7261 O 660.063 1.53143 1.21843 0
M  V30 7262 C 660.362 3.011 -1.92545 0
M  V30 7263 C 660.028 2.93521 -3.42281 0
M  V30 7264 C 658.69 2.91161 -3.83117 0
M  V30 7265 C 661.042 2.82947 -4.3771 0
M  V30 7266 C 658.37 2.76043 -5.17704 0
M  V30 7267 C 660.722 2.69368 -5.72384 0
M  V30 7268 C 659.386 2.65373 -6.12482 0
M  V30 7269 H 658.656 0.604828 -0.428094 0
M  V30 7270 H 661.303 1.05084 -1.60092 0
M  V30 7271 H 659.608 3.65153 -1.42024 0
M  V30 7272 H 661.305 3.58073 -1.80512 0
M  V30 7273 H 657.895 2.96158 -3.09819 0
M  V30 7274 H 662.079 2.83849 -4.07116 0
M  V30 7275 H 657.335 2.71352 -5.47885 0
M  V30 7276 H 661.509 2.60156 -6.45981 0
M  V30 7277 H 659.136 2.53415 -7.16718 0
M  V30 7278 N 660.711 1.11618 1.11262 0
M  V30 7279 C 661.641 0.79846 2.19424 0
M  V30 7280 C 662.622 -0.234003 1.68483 0
M  V30 7281 O 663.807 -0.0970704 1.93957 0
M  V30 7282 C 660.937 0.242892 3.4645 0
M  V30 7283 C 659.891 1.20744 4.10615 0
M  V30 7284 C 659.217 0.512494 5.32238 0
M  V30 7285 C 660.517 2.55884 4.55325 0
M  V30 7286 H 662.211 1.70286 2.46258 0
M  V30 7287 H 659.757 0.820195 1.18359 0
M  V30 7288 H 661.71 0.00840447 4.21399 0
M  V30 7289 H 660.434 -0.696811 3.1908 0
M  V30 7290 H 659.093 1.42759 3.37662 0
M  V30 7291 H 658.741 -0.432075 5.01141 0
M  V30 7292 H 658.441 1.15583 5.7612 0
M  V30 7293 H 659.965 0.286842 6.09926 0
M  V30 7294 H 661.379 2.37946 5.21588 0
M  V30 7295 H 659.776 3.16216 5.10027 0
M  V30 7296 H 660.846 3.14968 3.68678 0
M  V30 7297 N 662.189 -1.289 0.906776 0
M  V30 7298 C 663.436 -1.95269 0.536326 0
M  V30 7299 C 663.764 -1.71435 -0.918711 0
M  V30 7300 O 663.019 -1.02431 -1.66752 0
M  V30 7301 C 663.318 -3.48704 0.783617 0
M  V30 7302 C 662.984 -3.92626 2.21711 0
M  V30 7303 C 661.646 -4.04329 2.60906 0
M  V30 7304 C 663.998 -4.15218 3.15029 0
M  V30 7305 C 661.326 -4.35998 3.92584 0
M  V30 7306 C 663.678 -4.48365 4.46264 0
M  V30 7307 C 662.342 -4.58278 4.85322 0
M  V30 7308 H 661.612 -0.714538 0.196256 0
M  V30 7309 H 664.259 -1.53366 1.14678 0
M  V30 7310 H 662.564 -3.91696 0.0903048 0
M  V30 7311 H 664.261 -3.98162 0.476267 0
M  V30 7312 H 660.851 -3.84038 1.90296 0
M  V30 7313 H 665.035 -4.05636 2.8596 0
M  V30 7314 H 660.291 -4.41878 4.22557 0
M  V30 7315 H 664.465 -4.64795 5.18593 0
M  V30 7316 H 662.092 -4.82573 5.87391 0
M  V30 7317 N 663.667 -0.670007 -1.42649 0
M  V30 7318 C 664.914 -0.190286 -2.01604 0
M  V30 7319 C 665.242 1.20155 -1.52948 0
M  V30 7320 O 664.497 1.81964 -0.72026 0
M  V30 7321 C 664.796 -0.168298 -3.57004 0
M  V30 7322 C 664.462 -1.50415 -4.25072 0
M  V30 7323 C 663.124 -1.86992 -4.43382 0
M  V30 7324 C 665.476 -2.38414 -4.63474 0
M  V30 7325 C 662.804 -3.11203 -4.97363 0
M  V30 7326 C 665.156 -3.61933 -5.18833 0
M  V30 7327 C 663.82 -3.98685 -5.35356 0
M  V30 7328 H 663.09 -0.0696305 -0.737721 0
M  V30 7329 H 665.737 -0.864044 -1.70899 0
M  V30 7330 H 664.042 0.588958 -3.87348 0
M  V30 7331 H 665.739 0.22001 -4.00396 0
M  V30 7332 H 662.329 -1.20959 -4.11177 0
M  V30 7333 H 666.513 -2.11442 -4.49006 0
M  V30 7334 H 661.769 -3.39705 -5.08341 0
M  V30 7335 H 665.943 -4.30326 -5.47533 0
M  V30 7336 H 663.57 -4.95009 -5.76949 0
M  V30 7337 N 665.145 1.52092 -0.413018 0
M  V30 7338 C 666.373 2.06274 0.160881 0
M  V30 7339 C 666.788 1.28273 1.38533 0
M  V30 7340 O 666.145 0.33563 1.79387 0
M  V30 7341 C 666.196 3.57921 0.507443 0
M  V30 7342 O 665.917 4.32971 -0.668388 0
M  V30 7343 C 667.418 4.28533 1.13465 0
M  V30 7344 H 664.638 0.67074 0.0186759 0
M  V30 7345 H 667.182 1.95951 -0.585092 0
M  V30 7346 H 665.337 3.68238 1.20331 0
M  V30 7347 H 665.751 5.23135 -0.378169 0
M  V30 7348 H 667.225 5.35804 1.32732 0
M  V30 7349 H 667.702 3.85258 2.10886 0
M  V30 7350 H 668.308 4.22595 0.478876 0
M  V30 7351 N 666.623 0.143563 1.56945 0
M  V30 7352 C 667.851 -0.515447 2.00377 0
M  V30 7353 C 668.266 -1.58643 1.02361 0
M  V30 7354 O 667.623 -1.82489 0.0201039 0
M  V30 7355 C 667.674 -1.11923 3.43737 0
M  V30 7356 O 667.395 -0.0910318 4.38005 0
M  V30 7357 C 668.896 -1.85918 4.02429 0
M  V30 7358 H 666.116 -0.134478 0.657386 0
M  V30 7359 H 668.66 0.237135 2.0312 0
M  V30 7360 H 666.815 -1.82245 3.41856 0
M  V30 7361 H 667.229 -0.532916 5.21786 0
M  V30 7362 H 668.703 -2.2346 5.04747 0
M  V30 7363 H 669.18 -2.7438 3.42947 0
M  V30 7364 H 669.786 -1.20303 4.07931 0
M  V30 7365 N 668.101 -1.57061 -0.130224 0
M  V30 7366 C 669.35 -1.83446 -0.838488 0
M  V30 7367 C 669.663 -0.727468 -1.81569 0
M  V30 7368 O 670.869 -0.877394 -2.56932 0
M  V30 7369 C 669.325 -3.25201 -1.54182 0
M  V30 7370 C 668.933 -4.4388 -0.606178 0
M  V30 7371 C 670.677 -3.60844 -2.23588 0
M  V30 7372 C 668.584 -5.76661 -1.31209 0
M  V30 7373 H 667.514 -0.684185 -0.316871 0
M  V30 7374 H 670.165 -1.83273 -0.0912059 0
M  V30 7375 H 668.547 -3.1981 -2.33533 0
M  V30 7376 H 669.721 -4.60545 0.153308 0
M  V30 7377 H 668.036 -4.16395 -0.0196705 0
M  V30 7378 H 670.633 -4.57313 -2.77072 0
M  V30 7379 H 670.976 -2.87724 -3.00867 0
M  V30 7380 H 671.509 -3.67971 -1.51137 0
M  V30 7381 H 668.248 -6.52922 -0.580823 0
M  V30 7382 H 667.768 -5.63902 -2.04387 0
M  V30 7383 H 669.447 -6.20035 -1.8484 0
M  V30 7384 N 669.579 0.400081 -1.52437 0
M  V30 7385 C 670.509 1.4947 -1.7939 0
M  V30 7386 C 671.49 1.57383 -0.645329 0
M  V30 7387 O 672.675 1.72511 -0.891826 0
M  V30 7388 C 669.805 2.87201 -1.95276 0
M  V30 7389 C 668.759 2.94134 -3.10917 0
M  V30 7390 C 668.085 4.34207 -3.1204 0
M  V30 7391 C 669.385 2.64791 -4.50203 0
M  V30 7392 H 671.079 1.27165 -2.71052 0
M  V30 7393 H 668.625 0.610312 -1.30427 0
M  V30 7394 H 670.578 3.63772 -2.12715 0
M  V30 7395 H 669.302 3.10819 -1.00294 0
M  V30 7396 H 667.961 2.20009 -2.93243 0
M  V30 7397 H 667.609 4.54848 -2.14761 0
M  V30 7398 H 667.309 4.39768 -3.89715 0
M  V30 7399 H 668.833 5.127 -3.31619 0
M  V30 7400 H 670.247 3.31083 -4.68035 0
M  V30 7401 H 668.644 2.81717 -5.29864 0
M  V30 7402 H 669.714 1.60184 -4.57678 0
M  V30 7403 N 671.057 1.43213 0.657864 0
M  V30 7404 C 671.989 1.43974 1.78337 0
M  V30 7405 C 673.002 0.336482 1.59285 0
M  V30 7406 O 674.191 0.600631 1.68091 0
M  V30 7407 C 671.291 1.23242 3.15697 0
M  V30 7408 C 670.464 2.46319 3.61449 0
M  V30 7409 C 669.523 2.2088 4.77597 0
M  V30 7410 O 668.549 2.942 4.87273 0
M  V30 7411 N 669.751 1.22251 5.67481 0
M  V30 7412 H 672.516 2.40993 1.78164 0
M  V30 7413 H 670.077 1.3831 0.841549 0
M  V30 7414 H 672.069 1.04113 3.91079 0
M  V30 7415 H 670.639 0.346849 3.1067 0
M  V30 7416 H 669.859 2.80904 2.76563 0
M  V30 7417 H 671.147 3.28239 3.88763 0
M  V30 7418 H 670.545 0.616433 5.62331 0
M  V30 7419 H 669.102 1.09107 6.42603 0
M  V30 7420 N 672.536 -0.895792 1.29666 0
M  V30 7421 C 673.484 -2.02173 1.15017 0
M  V30 7422 C 674.478 -1.69276 0.0647651 0
M  V30 7423 O 675.684 -1.7859 0.224846 0
M  V30 7424 H 672.059 -0.662719 0.355397 0
M  V30 7425 H 674.03 -2.11666 2.10334 0
M  V30 7426 C 672.779 -3.37212 0.847555 0
M  V30 7427 H 672.102 -3.6303 1.67479 0
M  V30 7428 H 673.542 -4.16668 0.785106 0
M  V30 7429 C 672.001 -3.33891 -0.44929 0
M  V30 7430 O 672.531 -3.73673 -1.47415 0
M  V30 7431 N 670.737 -2.86991 -0.456547 0
M  V30 7432 H 670.284 -2.54813 0.377925 0
M  V30 7433 H 670.242 -2.85152 -1.32423 0
M  V30 7434 N 674.014 -1.12206 -1.10668 0
M  V30 7435 C 675.261 -0.875875 -1.82578 0
M  V30 7436 C 675.589 0.598342 -1.85068 0
M  V30 7437 O 674.844 1.45818 -1.3052 0
M  V30 7438 C 675.143 -1.39276 -3.29146 0
M  V30 7439 C 674.809 -2.8816 -3.46806 0
M  V30 7440 C 673.471 -3.28813 -3.51334 0
M  V30 7441 C 675.823 -3.8401 -3.52399 0
M  V30 7442 C 673.151 -4.64028 -3.59019 0
M  V30 7443 C 675.503 -5.19053 -3.61617 0
M  V30 7444 C 674.167 -5.59252 -3.64408 0
M  V30 7445 H 673.437 -0.320505 -0.6681 0
M  V30 7446 H 676.084 -1.40184 -1.30464 0
M  V30 7447 H 674.389 -0.787207 -3.8381 0
M  V30 7448 H 676.086 -1.17851 -3.83291 0
M  V30 7449 H 672.676 -2.55716 -3.43958 0
M  V30 7450 H 676.86 -3.53698 -3.48154 0
M  V30 7451 H 672.116 -4.94568 -3.59461 0
M  V30 7452 H 676.29 -5.93152 -3.64889 0
M  V30 7453 H 673.917 -6.64017 -3.70116 0
M  V30 7454 N 675.492 1.28418 -0.913599 0
M  V30 7455 C 676.717 1.99643 -0.561899 0
M  V30 7456 C 677.142 1.67819 0.849608 0
M  V30 7457 O 676.5 0.910503 1.56779 0
M  V30 7458 C 676.548 3.52116 -0.777622 0
M  V30 7459 O 675.652 4.12076 0.163457 0
M  V30 7460 H 674.993 0.627229 -0.217898 0
M  V30 7461 H 677.523 1.63575 -1.229 0
M  V30 7462 H 677.533 4.02163 -0.687666 0
M  V30 7463 H 676.208 3.74613 -1.8066 0
M  V30 7464 H 674.785 3.72892 0.0247827 0
M  V30 7465 N 676.97 0.677563 1.42291 0
M  V30 7466 C 677.903 -0.0492638 2.28147 0
M  V30 7467 C 678.881 -0.805936 1.41221 0
M  V30 7468 O 680.065 -0.80049 1.70659 0
M  V30 7469 C 677.192 -1.07697 3.21122 0
M  V30 7470 C 676.238 -0.41556 4.24471 0
M  V30 7471 S 677.071 0.828876 5.29046 0
M  V30 7472 C 678.227 -0.197687 6.25588 0
M  V30 7473 H 678.46 0.678965 2.89443 0
M  V30 7474 H 675.993 0.467201 1.47162 0
M  V30 7475 H 677.951 -1.66482 3.75225 0
M  V30 7476 H 676.612 -1.77766 2.58956 0
M  V30 7477 H 675.805 -1.19112 4.89723 0
M  V30 7478 H 675.407 0.0987632 3.7387 0
M  V30 7479 H 677.699 -1.05656 6.69211 0
M  V30 7480 H 678.642 0.420437 7.06851 0
M  V30 7481 H 679.05 -0.544401 5.61869 0
M  V30 7482 N 678.448 -1.51871 0.421078 0
M  V30 7483 C 679.411 -2.25914 -0.386712 0
M  V30 7484 C 680.411 -1.28733 -0.963555 0
M  V30 7485 O 681.601 -1.52579 -0.840556 0
M  V30 7486 C 678.733 -3.03853 -1.54551 0
M  V30 7487 H 679.926 -2.98754 0.261978 0
M  V30 7488 H 677.479 -1.5533 0.173862 0
M  V30 7489 H 678.214 -2.35392 -2.23072 0
M  V30 7490 H 677.999 -3.75215 -1.13824 0
M  V30 7491 H 679.489 -3.59984 -2.11663 0
M  V30 7492 N 679.926 -0.151884 -1.56866 0
M  V30 7493 C 681.151 0.508044 -2.01081 0
M  V30 7494 C 681.576 1.57306 -1.03134 0
M  V30 7495 O 680.934 1.81298 -0.0078309 0
M  V30 7496 C 680.982 1.08106 -3.44014 0
M  V30 7497 O 680.086 2.19577 -3.49084 0
M  V30 7498 H 679.427 0.123757 -0.652365 0
M  V30 7499 H 681.957 -0.250055 -2.03066 0
M  V30 7500 H 681.967 1.40851 -3.82916 0
M  V30 7501 H 680.642 0.301168 -4.14808 0
M  V30 7502 H 679.219 1.88023 -3.22027 0
M  V30 7503 N 681.404 1.57128 0.121893 0
M  V30 7504 C 682.815 1.73902 0.679348 0
M  V30 7505 C 683.166 0.770135 1.80453 0
M  V30 7506 O 682.291 -0.0576083 2.16323 0
M  V30 7507 C 682.886 3.15328 1.2391 0
M  V30 7508 C 681.445 3.33618 1.74288 0
M  V30 7509 C 680.592 2.6978 0.641414 0
M  V30 7510 H 683.543 1.58359 -0.104 0
M  V30 7511 H 683.564 3.16718 2.10879 0
M  V30 7512 H 683.076 3.85821 0.419957 0
M  V30 7513 H 681.177 2.68162 2.58689 0
M  V30 7514 H 681.29 4.4176 1.85432 0
M  V30 7515 H 679.654 2.30935 1.0743 0
M  V30 7516 H 680.437 3.42895 -0.166707 0
M  V30 7517 N 682.882 -0.391992 1.52647 0
M  V30 7518 C 684.128 -1.139 1.67793 0
M  V30 7519 C 684.461 -1.89711 0.41514 0
M  V30 7520 O 683.736 -1.85431 -0.586979 0
M  V30 7521 C 684.019 -2.11966 2.91105 0
M  V30 7522 C 683.872 -1.39939 4.27478 0
M  V30 7523 C 685.191 -3.1243 3.09961 0
M  V30 7524 H 682.31 -0.412707 0.610608 0
M  V30 7525 H 684.952 -0.422725 1.85238 0
M  V30 7526 H 683.102 -2.73048 2.76364 0
M  V30 7527 H 684.774 -0.818439 4.53982 0
M  V30 7528 H 683.017 -0.701246 4.28095 0
M  V30 7529 H 683.688 -2.1158 5.09841 0
M  V30 7530 H 686.164 -2.61435 3.23714 0
M  V30 7531 H 685.04 -3.78294 3.97725 0
M  V30 7532 H 685.301 -3.81127 2.24042 0
M  V30 7533 N 684.36 -1.4356 -0.65026 0
M  V30 7534 C 685.323 -1.48615 -1.74489 0
M  V30 7535 C 686.323 -0.370483 -1.56474 0
M  V30 7536 O 687.513 -0.632351 -1.62317 0
M  V30 7537 C 684.645 -1.34161 -3.13391 0
M  V30 7538 H 685.838 -2.46103 -1.71387 0
M  V30 7539 H 683.391 -1.30369 -0.862186 0
M  V30 7540 H 684.126 -0.376918 -3.22102 0
M  V30 7541 H 683.911 -2.1504 -3.27872 0
M  V30 7542 H 685.401 -1.40637 -3.93206 0
M  V30 7543 N 685.838 0.888903 -1.30139 0
M  V30 7544 C 687.249 1.45578 -1.16893 0
M  V30 7545 C 687.6 1.94825 0.231866 0
M  V30 7546 O 686.725 1.84661 1.12824 0
M  V30 7547 C 687.32 2.646 -2.11595 0
M  V30 7548 C 685.879 3.17389 -2.02339 0
M  V30 7549 C 685.026 1.90081 -2.01902 0
M  V30 7550 H 687.977 0.69921 -1.42467 0
M  V30 7551 H 687.998 3.40687 -1.69449 0
M  V30 7552 H 687.51 2.28726 -3.13538 0
M  V30 7553 H 685.611 3.5793 -1.03523 0
M  V30 7554 H 685.724 3.80955 -2.90534 0
M  V30 7555 H 684.088 2.08246 -1.46648 0
M  V30 7556 H 684.871 1.5647 -3.05568 0
M  V30 7557 N 687.317 1.12792 1.10072 0
M  V30 7558 C 688.227 0.812369 2.20086 0
M  V30 7559 C 689.243 -0.200349 1.72843 0
M  V30 7560 O 690.419 -0.0330262 2.01373 0
M  V30 7561 C 687.484 0.275685 3.45602 0
M  V30 7562 C 686.545 1.34881 4.07561 0
M  V30 7563 C 685.778 0.837639 5.27086 0
M  V30 7564 O 686.001 -0.327224 5.69461 0
M  V30 7565 O 684.935 1.60894 5.79997 0
M  V30 7566 H 688.761 1.73133 2.49517 0
M  V30 7567 H 686.346 0.904863 1.18881 0
M  V30 7568 H 688.228 -0.0185375 4.21396 0
M  V30 7569 H 686.903 -0.615783 3.17789 0
M  V30 7570 H 685.81 1.69625 3.33434 0
M  V30 7571 H 687.143 2.21418 4.39585 0
M  V30 7572 N 688.795 -1.27931 0.920396 0
M  V30 7573 C 690.072 -1.89728 0.475687 0
M  V30 7574 C 690.452 -1.8337 -1.04588 0
M  V30 7575 O 689.8 -1.27404 -1.89685 0
M  V30 7576 C 690.01 -3.33959 1.01354 0
M  V30 7577 C 691.358 -4.10907 1.06963 0
M  V30 7578 O 692.382 -3.42945 0.962646 0
M  V30 7579 O 691.241 -5.32399 1.23343 0
M  V30 7580 H 688.335 -0.81294 0.151845 0
M  V30 7581 H 690.881 -1.36252 1.01161 0
M  V30 7582 H 689.653 -3.32843 2.05746 0
M  V30 7583 H 689.276 -3.94944 0.458829 0
M  V30 7584 N 690.273 -0.685099 -1.4193 0
M  V30 7585 C 691.522 -0.208816 -2.00616 0
M  V30 7586 C 691.835 1.19506 -1.54847 0
M  V30 7587 O 693.041 1.76826 -2.06021 0
M  V30 7588 C 691.497 -0.322446 -3.58453 0
M  V30 7589 C 691.105 -1.73102 -4.13206 0
M  V30 7590 C 692.849 0.0945979 -4.24395 0
M  V30 7591 C 690.756 -1.79687 -5.63442 0
M  V30 7592 H 689.686 -0.0743092 -0.750329 0
M  V30 7593 H 692.337 -0.851778 -1.62533 0
M  V30 7594 H 690.719 0.388588 -3.94089 0
M  V30 7595 H 691.893 -2.46997 -3.8901 0
M  V30 7596 H 690.208 -2.09682 -3.59753 0
M  V30 7597 H 692.805 0.0656937 -5.3466 0
M  V30 7598 H 693.148 1.1316 -4.00625 0
M  V30 7599 H 693.681 -0.56579 -3.93756 0
M  V30 7600 H 690.42 -2.81404 -5.92024 0
M  V30 7601 H 689.94 -1.10162 -5.89597 0
M  V30 7602 H 691.619 -1.55498 -6.28036 0
M  V30 7603 N 691.751 1.51645 -0.429126 0
M  V30 7604 C 693.028 1.94579 0.199614 0
M  V30 7605 C 693.408 1.3673 1.60836 0
M  V30 7606 O 692.756 0.551062 2.21756 0
M  V30 7607 C 692.966 3.48506 0.185685 0
M  V30 7608 C 694.314 4.22756 0.395282 0
M  V30 7609 O 695.338 3.55219 0.264165 0
M  V30 7610 O 694.197 5.42555 0.655475 0
M  V30 7611 H 691.291 0.816007 0.134393 0
M  V30 7612 H 693.837 1.62577 -0.486513 0
M  V30 7613 H 692.609 3.83045 -0.799508 0
M  V30 7614 H 692.232 3.86927 0.91507 0
M  V30 7615 N 693.229 0.160201 1.56784 0
M  V30 7616 C 694.159 -0.770264 2.2043 0
M  V30 7617 C 695.14 -1.24736 1.15651 0
M  V30 7618 O 696.325 -1.30253 1.44041 0
M  V30 7619 C 693.455 -2.00427 2.83631 0
M  V30 7620 C 692.409 -1.66345 3.94352 0
M  V30 7621 C 691.735 -2.97119 4.4455 0
M  V30 7622 C 693.035 -0.899972 5.14488 0
M  V30 7623 H 694.729 -0.239783 2.98438 0
M  V30 7624 H 692.275 -0.113891 1.43549 0
M  V30 7625 H 694.228 -2.66012 3.26827 0
M  V30 7626 H 692.952 -2.5587 2.02973 0
M  V30 7627 H 691.611 -1.03133 3.51794 0
M  V30 7628 H 691.259 -3.5058 3.60698 0
M  V30 7629 H 690.959 -2.75073 5.19238 0
M  V30 7630 H 692.483 -3.63753 4.90425 0
M  V30 7631 H 693.897 -1.45818 5.54446 0
M  V30 7632 H 692.294 -0.778968 5.95023 0
M  V30 7633 H 693.364 0.105827 4.84785 0
M  V30 7634 N 694.707 -1.5719 -0.113559 0
M  V30 7635 C 695.935 -1.89328 -0.834422 0
M  V30 7636 C 696.35 -0.752018 -1.73177 0
M  V30 7637 O 695.707 0.276912 -1.80387 0
M  V30 7638 C 695.758 -3.20962 -1.66329 0
M  V30 7639 O 695.479 -4.30695 -0.802069 0
M  V30 7640 C 696.98 -3.6684 -2.48884 0
M  V30 7641 H 694.2 -0.626769 -0.239587 0
M  V30 7642 H 696.744 -2.04273 -0.0963195 0
M  V30 7643 H 694.899 -3.0767 -2.35409 0
M  V30 7644 H 695.313 -5.06175 -1.37431 0
M  V30 7645 H 696.787 -4.61692 -3.02563 0
M  V30 7646 H 697.264 -2.93765 -3.26495 0
M  V30 7647 H 697.87 -3.82938 -1.85036 0
M  V30 7648 N 696.185 0.383891 -1.52853 0
M  V30 7649 C 697.596 0.961591 -1.60032 0
M  V30 7650 C 697.947 1.90819 -0.456333 0
M  V30 7651 O 697.072 2.12288 0.419873 0
M  V30 7652 C 697.667 1.75078 -2.90057 0
M  V30 7653 C 696.226 2.2781 -2.99632 0
M  V30 7654 C 695.373 1.08512 -2.55187 0
M  V30 7655 H 698.324 0.163269 -1.57858 0
M  V30 7656 H 698.345 2.61046 -2.7683 0
M  V30 7657 H 697.857 1.06157 -3.73299 0
M  V30 7658 H 695.958 3.00028 -2.20939 0
M  V30 7659 H 696.071 2.56947 -4.0437 0
M  V30 7660 H 694.435 1.44667 -2.09627 0
M  V30 7661 H 695.218 0.41118 -3.40829 0
M  V30 7662 N 697.663 1.43903 0.642637 0
M  V30 7663 C 698.595 1.45857 1.768 0
M  V30 7664 C 699.608 0.353358 1.58919 0
M  V30 7665 O 700.797 0.618426 1.67445 0
M  V30 7666 C 697.897 1.26583 3.14372 0
M  V30 7667 C 697.07 2.50139 3.58817 0
M  V30 7668 C 696.129 2.25933 4.75227 0
M  V30 7669 O 695.155 2.99351 4.84125 0
M  V30 7670 N 696.357 1.28263 5.66153 0
M  V30 7671 H 699.122 2.42869 1.75598 0
M  V30 7672 H 696.683 1.39194 0.826832 0
M  V30 7673 H 698.675 1.08255 3.89953 0
M  V30 7674 H 697.245 0.37978 3.10284 0
M  V30 7675 H 696.465 2.83821 2.73568 0
M  V30 7676 H 697.753 3.32344 3.8526 0
M  V30 7677 H 697.151 0.676041 5.61646 0
M  V30 7678 H 695.708 1.15916 6.4141 0
M  V30 7679 N 699.141 -0.881989 1.30609 0
M  V30 7680 C 700.051 -2.02076 1.19174 0
M  V30 7681 C 701.067 -1.73645 0.11102 0
M  V30 7682 O 702.243 -1.98735 0.326528 0
M  V30 7683 C 699.308 -3.3515 0.887438 0
M  V30 7684 C 698.369 -3.76983 2.05383 0
M  V30 7685 C 697.602 -5.03707 1.76395 0
M  V30 7686 O 697.825 -5.66171 0.693302 0
M  V30 7687 O 696.759 -5.42019 2.61723 0
M  V30 7688 H 700.585 -2.14652 2.14845 0
M  V30 7689 H 698.17 -1.00843 1.10232 0
M  V30 7690 H 700.052 -4.14975 0.73306 0
M  V30 7691 H 698.727 -3.23676 -0.0393354 0
M  V30 7692 H 697.634 -2.97849 2.26355 0
M  V30 7693 H 698.967 -3.93066 2.96243 0
M  V30 7694 N 700.619 -1.13374 -1.09472 0
M  V30 7695 C 701.859 -0.905422 -1.83252 0
M  V30 7696 C 702.223 0.558396 -1.83701 0
M  V30 7697 O 703.424 0.904254 -2.53134 0
M  V30 7698 C 701.695 -1.47658 -3.25472 0
M  V30 7699 S 703.254 -1.38825 -4.16261 0
M  V30 7700 H 700.072 -0.326371 -0.631667 0
M  V30 7701 H 702.674 -1.44517 -1.31663 0
M  V30 7702 H 701.378 -2.53533 -3.22722 0
M  V30 7703 H 700.909 -0.934756 -3.82133 0
M  V30 7704 H 702.924 -0.366379 -4.94846 0
M  V30 7705 N 702.098 1.27442 -0.927168 0
M  V30 7706 C 703.346 1.94007 -0.566203 0
M  V30 7707 C 703.667 1.7323 0.895345 0
M  V30 7708 O 702.937 1.07973 1.63459 0
M  V30 7709 H 701.517 0.717917 -0.206409 0
M  V30 7710 H 704.179 1.55161 -1.17945 0
M  V30 7711 H 703.275 3.02401 -0.772028 0
M  V30 7712 N 703.576 0.692616 1.41565 0
M  V30 7713 C 704.822 0.222664 2.01574 0
M  V30 7714 C 705.155 -1.1737 1.54719 0
M  V30 7715 O 704.43 -1.79161 0.757084 0
M  V30 7716 C 704.713 0.277064 3.59033 0
M  V30 7717 C 704.566 1.71016 4.16021 0
M  V30 7718 C 705.885 -0.36479 4.38586 0
M  V30 7719 H 703.004 0.0823839 0.732381 0
M  V30 7720 H 705.646 0.880778 1.68352 0
M  V30 7721 H 703.796 -0.283288 3.87466 0
M  V30 7722 H 705.468 2.32413 3.98475 0
M  V30 7723 H 703.711 2.24525 3.71175 0
M  V30 7724 H 704.382 1.69978 5.25178 0
M  V30 7725 H 706.858 0.112404 4.15948 0
M  V30 7726 H 705.734 -0.296169 5.481 0
M  V30 7727 H 705.995 -1.44506 4.17816 0
M  V30 7728 N 705.054 -1.51416 0.437162 0
M  V30 7729 C 706.302 -2.01687 -0.129108 0
M  V30 7730 C 706.623 -1.32329 -1.43227 0
M  V30 7731 O 705.893 -0.457796 -1.90476 0
M  V30 7732 H 704.473 -0.745277 -0.0507023 0
M  V30 7733 H 707.135 -1.86075 0.579828 0
M  V30 7734 H 706.231 -3.10605 -0.305141 0
M  V30 7735 N 706.532 -0.168513 -1.56696 0
M  V30 7736 C 707.479 0.762875 -2.17828 0
M  V30 7737 C 708.449 1.22892 -1.11745 0
M  V30 7738 O 709.634 1.29759 -1.39883 0
M  V30 7739 C 706.774 1.9879 -2.82093 0
M  V30 7740 C 705.887 1.56568 -4.02629 0
M  V30 7741 C 705.022 2.74416 -4.54829 0
M  V30 7742 C 704.061 2.28671 -5.67782 0
M  V30 7743 N 703.198 3.39602 -6.14504 0
M  V30 7744 H 708.038 0.23479 -2.97074 0
M  V30 7745 H 705.575 0.104163 -1.46731 0
M  V30 7746 H 707.533 2.70636 -3.17509 0
M  V30 7747 H 706.163 2.48973 -2.05456 0
M  V30 7748 H 705.215 0.744067 -3.73052 0
M  V30 7749 H 706.527 1.18988 -4.844 0
M  V30 7750 H 705.681 3.54423 -4.92412 0
M  V30 7751 H 704.42 3.15254 -3.7211 0
M  V30 7752 H 703.425 1.4711 -5.29753 0
M  V30 7753 H 704.65 1.88894 -6.52301 0
M  V30 7754 H 702.596 3.80021 -5.34715 0
M  V30 7755 H 702.513 3.06105 -6.91257 0
M  V30 7756 H 703.781 4.19902 -6.56737 0
M  V30 7757 N 708.01 1.57248 0.105221 0
M  V30 7758 C 709.259 1.84756 0.809198 0
M  V30 7759 C 709.572 0.756262 1.80389 0
M  V30 7760 O 710.778 0.918158 2.55504 0
M  V30 7761 C 709.234 3.27613 1.48989 0
M  V30 7762 C 708.842 4.44788 0.535484 0
M  V30 7763 C 710.586 3.64356 2.17819 0
M  V30 7764 C 708.493 5.78676 1.22019 0
M  V30 7765 H 707.423 0.689139 0.305946 0
M  V30 7766 H 710.074 1.83395 0.0620371 0
M  V30 7767 H 708.456 3.23485 2.28415 0
M  V30 7768 H 709.63 4.60243 -0.226557 0
M  V30 7769 H 707.945 4.16374 -0.0465769 0
M  V30 7770 H 710.542 4.61663 2.69761 0
M  V30 7771 H 710.885 2.92474 2.96251 0
M  V30 7772 H 711.418 3.70328 1.45264 0
M  V30 7773 H 708.157 6.53763 0.476875 0
M  V30 7774 H 707.677 5.67083 1.9539 0
M  V30 7775 H 709.356 6.22897 1.74952 0
M  V30 7776 N 709.488 -0.375779 1.53054 0
M  V30 7777 C 710.899 -0.95309 1.6054 0
M  V30 7778 C 711.25 -1.90575 0.466446 0
M  V30 7779 O 710.375 -2.12507 -0.408609 0
M  V30 7780 C 710.97 -1.73537 2.90982 0
M  V30 7781 C 709.529 -2.26218 3.00836 0
M  V30 7782 C 708.676 -1.07157 2.55759 0
M  V30 7783 H 711.627 -0.154895 1.57942 0
M  V30 7784 H 711.648 -2.59574 2.78211 0
M  V30 7785 H 711.16 -1.04176 3.73857 0
M  V30 7786 H 709.261 -2.98852 2.22527 0
M  V30 7787 H 709.374 -2.54799 4.05727 0
M  V30 7788 H 707.738 -1.43553 2.10391 0
M  V30 7789 H 708.521 -0.393099 3.41042 0
M  V30 7790 N 710.966 -1.44241 -0.634997 0
M  V30 7791 C 712.377 -1.41622 -1.21655 0
M  V30 7792 C 712.728 -0.129584 -1.95772 0
M  V30 7793 O 711.853 0.770225 -2.02229 0
M  V30 7794 C 712.448 -2.56557 -2.21278 0
M  V30 7795 C 711.007 -2.57145 -2.7487 0
M  V30 7796 C 710.154 -2.33354 -1.49804 0
M  V30 7797 H 713.105 -1.52878 -0.425905 0
M  V30 7798 H 713.126 -2.29089 -3.03807 0
M  V30 7799 H 712.638 -3.50186 -1.67306 0
M  V30 7800 H 710.739 -1.67447 -3.32855 0
M  V30 7801 H 710.852 -3.55507 -3.21172 0
M  V30 7802 H 709.216 -1.82372 -1.77799 0
M  V30 7803 H 709.999 -3.29092 -0.977402 0
M  V30 7804 N 712.444 0.87505 -1.31075 0
M  V30 7805 C 713.672 1.66058 -1.23419 0
M  V30 7806 C 714.087 1.87723 0.201347 0
M  V30 7807 O 713.444 1.43178 1.13165 0
M  V30 7808 C 713.495 3.03142 -1.96945 0
M  V30 7809 O 713.216 2.82448 -3.34895 0
M  V30 7810 C 714.717 3.97583 -1.96067 0
M  V30 7811 H 711.937 0.517868 -0.426677 0
M  V30 7812 H 714.481 1.09258 -1.72867 0
M  V30 7813 H 712.636 3.56645 -1.51271 0
M  V30 7814 H 713.05 3.69483 -3.72267 0
M  V30 7815 H 714.524 4.91104 -2.52034 0
M  V30 7816 H 715.001 4.2898 -0.941961 0
M  V30 7817 H 715.607 3.50015 -2.41597 0
M  V30 7818 N 713.922 1.13953 1.08869 0
M  V30 7819 C 715.152 0.926825 1.84644 0
M  V30 7820 C 715.56 -0.527941 1.81685 0
M  V30 7821 O 714.903 -1.37742 1.21543 0
M  V30 7822 C 714.965 1.34416 3.33426 0
M  V30 7823 C 714.629 2.81351 3.60126 0
M  V30 7824 C 715.626 3.79486 3.55368 0
M  V30 7825 C 713.311 3.1865 3.88288 0
M  V30 7826 C 715.305 5.1293 3.78393 0
M  V30 7827 C 712.992 4.5227 4.10968 0
M  V30 7828 C 713.99 5.4922 4.06013 0
M  V30 7829 O 713.678 6.80429 4.28102 0
M  V30 7830 H 713.41 0.33013 0.589907 0
M  V30 7831 H 715.964 1.51738 1.38436 0
M  V30 7832 H 714.194 0.696901 3.80368 0
M  V30 7833 H 715.883 1.10302 3.90626 0
M  V30 7834 H 716.649 3.52017 3.3363 0
M  V30 7835 H 712.528 2.43785 3.91267 0
M  V30 7836 H 716.072 5.88591 3.74442 0
M  V30 7837 H 711.969 4.79462 4.32188 0
M  V30 7838 H 712.737 6.86617 4.45533 0
M  V30 7839 N 715.4 -1.26948 0.933913 0
M  V30 7840 C 716.332 -2.25768 0.395137 0
M  V30 7841 C 717.345 -1.55637 -0.477585 0
M  V30 7842 O 718.534 -1.76142 -0.289204 0
M  V30 7843 C 715.634 -3.35874 -0.451882 0
M  V30 7844 C 714.807 -4.3554 0.40299 0
M  V30 7845 C 713.866 -5.24809 -0.3824 0
M  V30 7846 O 712.892 -5.68805 0.212057 0
M  V30 7847 N 714.094 -5.55636 -1.68072 0
M  V30 7848 H 716.859 -2.72634 1.24463 0
M  V30 7849 H 714.42 -1.40639 0.802008 0
M  V30 7850 H 716.412 -3.92542 -0.984516 0
M  V30 7851 H 714.982 -2.8856 -1.20215 0
M  V30 7852 H 714.202 -3.78047 1.11688 0
M  V30 7853 H 715.49 -4.99131 0.987201 0
M  V30 7854 H 714.888 -5.2176 -2.18592 0
M  V30 7855 H 713.445 -6.14978 -2.15975 0
M  V30 7856 N 716.879 -0.700114 -1.41195 0
M  V30 7857 C 718.128 -0.230082 -2.00383 0
M  V30 7858 C 718.441 1.17857 -1.56106 0
M  V30 7859 O 719.647 1.74631 -2.07885 0
M  V30 7860 C 718.103 -0.360447 -3.5809 0
M  V30 7861 C 717.711 -1.77475 -4.11347 0
M  V30 7862 C 719.455 0.0495799 -4.24471 0
M  V30 7863 C 717.362 -1.85653 -5.61504 0
M  V30 7864 H 716.292 -0.0822633 -0.749499 0
M  V30 7865 H 718.943 -0.868969 -1.6162 0
M  V30 7866 H 717.325 0.346768 -3.94479 0
M  V30 7867 H 718.499 -2.51109 -3.86369 0
M  V30 7868 H 716.814 -2.13486 -3.57509 0
M  V30 7869 H 719.411 0.00898219 -5.34699 0
M  V30 7870 H 719.754 1.08904 -4.01803 0
M  V30 7871 H 720.287 -0.607521 -3.93134 0
M  V30 7872 H 717.026 -2.87667 -5.89006 0
M  V30 7873 H 716.546 -1.1641 -5.88395 0
M  V30 7874 H 718.225 -1.62151 -6.26351 0
M  V30 7875 N 718.357 1.51182 -0.445186 0
M  V30 7876 C 719.773 1.59299 -0.0978954 0
M  V30 7877 C 719.973 1.4555 1.39346 0
M  V30 7878 O 719.029 1.30073 2.16419 0
M  V30 7879 C 720.342 2.94133 -0.625005 0
M  V30 7880 C 721.89 3.07463 -0.586137 0
M  V30 7881 C 722.365 4.44832 -1.09035 0
M  V30 7882 N 723.856 4.51173 -1.04867 0
M  V30 7883 C 724.591 5.55804 -1.40959 0
M  V30 7884 N 724.087 6.67816 -1.84375 0
M  V30 7885 N 725.88 5.46205 -1.32726 0
M  V30 7886 H 718.031 1.58363 -1.41544 0
M  V30 7887 H 720.294 0.746946 -0.58376 0
M  V30 7888 H 720 3.09589 -1.66876 0
M  V30 7889 H 719.874 3.77161 -0.0542262 0
M  V30 7890 H 722.261 2.9167 0.448646 0
M  V30 7891 H 722.342 2.26255 -1.19341 0
M  V30 7892 H 721.986 4.61372 -2.12364 0
M  V30 7893 H 721.916 5.24591 -0.459539 0
M  V30 7894 H 724.407 3.70783 -0.729932 0
M  V30 7895 H 724.72 7.43683 -2.10131 0
M  V30 7896 H 723.065 6.69003 -1.88308 0
M  V30 7897 H 726.256 4.57583 -0.986678 0
M  V30 7898 H 726.429 6.27634 -1.61182 0
M  V30 7899 N 719.835 0.176821 1.56605 0
M  V30 7900 C 721.082 -0.466715 1.97048 0
M  V30 7901 C 721.41 -1.6288 1.06302 0
M  V30 7902 O 720.665 -1.95453 0.0982571 0
M  V30 7903 C 720.964 -0.986208 3.43524 0
M  V30 7904 C 720.63 0.0605667 4.50859 0
M  V30 7905 C 719.292 0.348242 4.79938 0
M  V30 7906 C 721.644 0.770794 5.15469 0
M  V30 7907 C 718.972 1.35144 5.70923 0
M  V30 7908 C 721.324 1.76301 6.07537 0
M  V30 7909 C 719.988 2.05808 6.3498 0
M  V30 7910 H 719.258 -0.170783 0.721051 0
M  V30 7911 H 721.905 0.269942 1.89588 0
M  V30 7912 H 720.21 -1.80079 3.47964 0
M  V30 7913 H 721.907 -1.49323 3.72161 0
M  V30 7914 H 718.497 -0.173823 4.28247 0
M  V30 7915 H 722.681 0.56176 4.9311 0
M  V30 7916 H 717.937 1.58616 5.90467 0
M  V30 7917 H 722.111 2.31868 6.56666 0
M  V30 7918 H 719.738 2.8369 7.05283 0
M  V30 7919 N 721.313 -1.57302 -0.09688 0
M  V30 7920 C 722.243 -2.0497 -1.11846 0
M  V30 7921 C 723.224 -0.938278 -1.41882 0
M  V30 7922 O 724.409 -1.20943 -1.51942 0
M  V30 7923 C 721.539 -2.47264 -2.43881 0
M  V30 7924 C 720.493 -3.62053 -2.28257 0
M  V30 7925 C 719.819 -3.90318 -3.65453 0
M  V30 7926 C 721.119 -4.93005 -1.72461 0
M  V30 7927 H 722.813 -2.90567 -0.721888 0
M  V30 7928 H 720.359 -1.39786 -0.345803 0
M  V30 7929 H 722.312 -2.7922 -3.15617 0
M  V30 7930 H 721.036 -1.58664 -2.8547 0
M  V30 7931 H 719.695 -3.30341 -1.58967 0
M  V30 7932 H 719.343 -2.98889 -4.04567 0
M  V30 7933 H 719.043 -4.67597 -3.55846 0
M  V30 7934 H 720.567 -4.24747 -4.3866 0
M  V30 7935 H 721.981 -5.23354 -2.34036 0
M  V30 7936 H 720.378 -5.74436 -1.73618 0
M  V30 7937 H 721.448 -4.80053 -0.683898 0
M  V30 7938 N 722.791 0.367657 -1.53252 0
M  V30 7939 C 724.202 0.944563 -1.61043 0
M  V30 7940 C 724.553 1.90325 -0.476546 0
M  V30 7941 O 723.678 2.12721 0.397333 0
M  V30 7942 C 724.273 1.71992 -2.91898 0
M  V30 7943 C 722.832 2.2462 -3.02031 0
M  V30 7944 C 721.979 1.05799 -2.56324 0
M  V30 7945 H 724.93 0.146516 -1.58022 0
M  V30 7946 H 724.951 2.58095 -2.79584 0
M  V30 7947 H 724.463 1.02192 -3.74404 0
M  V30 7948 H 722.564 2.97668 -2.24108 0
M  V30 7949 H 722.677 2.52644 -4.07073 0
M  V30 7950 H 721.041 1.42435 -2.1115 0
M  V30 7951 H 721.824 0.375008 -3.41246 0
M  V30 7952 N 724.269 1.44576 0.627338 0
M  V30 7953 C 725.685 1.28546 0.945938 0
M  V30 7954 C 725.885 0.224003 2.00251 0
M  V30 7955 O 724.941 -0.388817 2.49488 0
M  V30 7956 C 726.254 2.65825 1.40561 0
M  V30 7957 C 727.802 2.73566 1.52088 0
M  V30 7958 C 728.277 4.11323 2.01438 0
M  V30 7959 N 729.768 4.13519 2.08702 0
M  V30 7960 C 730.503 5.16964 2.48065 0
M  V30 7961 N 729.999 6.30768 2.86538 0
M  V30 7962 N 731.792 5.04319 2.48232 0
M  V30 7963 H 723.943 2.1228 -0.0713567 0
M  V30 7964 H 726.206 0.947503 0.0307081 0
M  V30 7965 H 725.912 3.44591 0.703539 0
M  V30 7966 H 725.786 2.92969 2.37591 0
M  V30 7967 H 728.173 1.95116 2.21391 0
M  V30 7968 H 728.254 2.50159 0.534237 0
M  V30 7969 H 727.898 4.9025 1.32729 0
M  V30 7970 H 727.828 4.32109 3.0098 0
M  V30 7971 H 730.319 3.31385 1.81638 0
M  V30 7972 H 730.632 7.0551 3.15398 0
M  V30 7973 H 728.977 6.342 2.84281 0
M  V30 7974 H 732.168 4.14465 2.17569 0
M  V30 7975 H 732.341 5.85059 2.78585 0
M  V30 7976 O 725.786 -0.770871 1.41915 0
M  V30 7977 H 726.477 -1.41834 1.31919 0
M  V30 END ATOM
M  V30 BEGIN BOND
M  V30 END BOND
M  V30 END CTAB
M  END
$$$$
