drugbank_target|Q13362 Serine/threonine-protein phosphatase 2A 56 kDa regulatory subunit gamma isoform (DB02506; DB06905)
 OpenBabel12092120383D

  0  0  0     0  0            999 V3000
M  V30 BEGIN CTAB
M  V30 COUNTS 8636 8745 0 0 0
M  V30 BEGIN ATOM
M  V30 1 H -0.908 1.98254 -0.117106 0
M  V30 2 N 0 1.576 0 0
M  V30 3 C 0.933 2.03868 1.02534 0
M  V30 4 C 1.911 0.928543 1.3348 0
M  V30 5 O 3.095 1.19667 1.45644 0
M  V30 6 C 0.222 2.43627 2.35294 0
M  V30 7 C -0.732 3.65373 2.2001 0
M  V30 8 S 0.101 5.13292 1.52614 0
M  V30 9 C 1.257 5.56322 2.86805 0
M  V30 10 H 1.49 2.90518 0.631377 0
M  V30 11 H -0.977 1.52953 0.210867 0
M  V30 12 H 0.981 2.67203 3.11629 0
M  V30 13 H -0.358 1.57376 2.7183 0
M  V30 14 H -1.165 3.90944 3.18086 0
M  V30 15 H -1.563 3.418 1.51819 0
M  V30 16 H 0.729 5.58782 3.83104 0
M  V30 17 H 1.672 6.56266 2.65933 0
M  V30 18 H 2.08 4.83886 2.90714 0
M  V30 19 N 1.4781 -0.272755 1.55222 0
M  V30 20 C 2.4081 -1.34136 1.91127 0
M  V30 21 C 3.3891 -1.51513 0.773168 0
M  V30 22 O 4.5741 -1.64552 1.03132 0
M  V30 23 C 1.7041 -2.70083 2.1834 0
M  V30 24 C 0.6581 -2.67437 3.34158 0
M  V30 25 C -0.0159 -4.06938 3.46851 0
M  V30 26 C 1.2841 -2.26686 4.70543 0
M  V30 27 H 2.9781 -1.04333 2.80633 0
M  V30 28 H 0.5241 -0.500454 1.35024 0
M  V30 29 H 2.4771 -3.44952 2.42046 0
M  V30 30 H 1.2011 -3.01469 1.25634 0
M  V30 31 H -0.1399 -1.95026 3.1042 0
M  V30 32 H -0.4919 -4.35547 2.51611 0
M  V30 33 H -0.7919 -4.06062 4.2472 0
M  V30 34 H 0.7321 -4.83545 3.72849 0
M  V30 35 H 2.1461 -2.91277 4.93792 0
M  V30 36 H 0.5431 -2.36971 5.5133 0
M  V30 37 H 1.6131 -1.21818 4.69349 0
M  V30 38 N 2.9562 -1.48159 -0.537278 0
M  V30 39 C 4.1842 -1.59454 -1.31841 0
M  V30 40 C 4.5992 -0.252065 -1.8711 0
M  V30 41 O 3.9562 0.757621 -1.66031 0
M  V30 42 C 4.0072 -2.63546 -2.47439 0
M  V30 43 O 3.7282 -3.92583 -1.94449 0
M  V30 44 C 5.2292 -2.85212 -3.39366 0
M  V30 45 H 2.4492 -0.53785 -0.401196 0
M  V30 46 H 4.9932 -1.93932 -0.648891 0
M  V30 47 H 3.1482 -2.31946 -3.1029 0
M  V30 48 H 3.5622 -4.49629 -2.70063 0
M  V30 49 H 5.0362 -3.61863 -4.16844 0
M  V30 50 H 5.5132 -1.93765 -3.94147 0
M  V30 51 H 6.1192 -3.18086 -2.82314 0
M  V30 52 N 4.4343 0.785586 -1.36625 0
M  V30 53 C 5.6743 1.55678 -1.32453 0
M  V30 54 C 6.0383 1.91769 0.0941089 0
M  V30 55 O 7.2393 2.67536 0.26042 0
M  V30 56 C 5.5103 2.79701 -2.22491 0
M  V30 57 S 7.0693 3.69907 -2.36038 0
M  V30 58 H 3.8873 0.533141 -0.470405 0
M  V30 59 H 6.4893 0.924953 -1.72235 0
M  V30 60 H 5.1933 2.51244 -3.24507 0
M  V30 61 H 4.7243 3.47854 -1.83742 0
M  V30 62 H 6.7393 4.71016 -1.56072 0
M  V30 63 N 5.9124 1.20967 1.01018 0
M  V30 64 C 6.8604 0.961223 2.1181 0
M  V30 65 C 7.8544 -0.0897034 1.69162 0
M  V30 66 O 9.0604 0.0612271 1.79896 0
M  V30 67 H 5.4354 0.29355 0.692338 0
M  V30 68 H 7.4064 1.90178 2.29946 0
M  V30 69 C 6.1554 0.536854 3.4353 0
M  V30 70 H 5.4784 1.33713 3.76777 0
M  V30 71 H 6.9184 0.402286 4.22087 0
M  V30 72 C 5.3774 -0.751574 3.2841 0
M  V30 73 O 5.9074 -1.80841 3.58691 0
M  V30 74 N 4.1134 -0.716079 2.81639 0
M  V30 75 H 3.6604 0.144236 2.57196 0
M  V30 76 H 3.6184 -1.57847 2.71904 0
M  V30 77 N 7.3905 -1.2043 1.01659 0
M  V30 78 C 8.3375 -2.23215 0.586822 0
M  V30 79 C 9.3075 -1.61382 -0.393085 0
M  V30 80 O 10.4925 -1.88544 -0.292525 0
M  V30 81 C 7.6325 -3.45032 -0.0687464 0
M  V30 82 C 6.7455 -4.21296 0.955724 0
M  V30 83 C 5.8805 -5.30507 0.271208 0
M  V30 84 C 4.9195 -5.98515 1.28244 0
M  V30 85 N 4.0565 -6.99316 0.62459 0
M  V30 86 H 8.8965 -2.59336 1.46796 0
M  V30 87 H 6.4335 -1.27431 0.734836 0
M  V30 88 H 8.3915 -4.1459 -0.465965 0
M  V30 89 H 7.0215 -3.09604 -0.913529 0
M  V30 90 H 6.0735 -3.50803 1.4711 0
M  V30 91 H 7.3855 -4.6803 1.72479 0
M  V30 92 H 6.5395 -6.06428 -0.18151 0
M  V30 93 H 5.2785 -4.8481 -0.530163 0
M  V30 94 H 4.2835 -5.21355 1.74554 0
M  V30 95 H 5.5085 -6.46298 2.08509 0
M  V30 96 H 3.4545 -6.55812 -0.156914 0
M  V30 97 H 3.3715 -7.44178 1.33172 0
M  V30 98 H 4.6395 -7.79255 0.195462 0
M  V30 99 N 8.8686 -0.792821 -1.36206 0
M  V30 100 C 9.8316 -0.199459 -2.2833 0
M  V30 101 C 10.8316 0.605189 -1.48977 0
M  V30 102 O 12.0216 0.425685 -1.68919 0
M  V30 103 C 9.1536 0.723523 -3.33134 0
M  V30 104 H 10.3466 -1.01181 -2.82316 0
M  V30 105 H 7.8996 -0.562485 -1.45828 0
M  V30 106 H 8.6346 1.56008 -2.84309 0
M  V30 107 H 8.4196 0.148436 -3.91819 0
M  V30 108 H 9.9096 1.13344 -4.01924 0
M  V30 109 N 10.3467 1.47872 -0.545128 0
M  V30 110 C 11.5947 2.02093 -0.016553 0
M  V30 111 C 11.9157 1.42305 1.3332 0
M  V30 112 O 11.1857 0.593853 1.86682 0
M  V30 113 H 9.7657 0.746993 -0.00313038 0
M  V30 114 H 12.4277 1.81414 -0.712397 0
M  V30 115 H 11.5237 3.11996 0.0805422 0
M  V30 116 N 11.8248 0.280983 1.55075 0
M  V30 117 C 13.0498 -0.340154 2.04592 0
M  V30 118 C 13.4748 -1.48246 1.15779 0
M  V30 119 O 12.8328 -1.80614 0.15761 0
M  V30 120 C 12.8808 -0.793104 3.5177 0
M  V30 121 O 11.9848 -1.89981 3.66034 0
M  V30 122 H 11.3258 -0.0694289 0.66036 0
M  V30 123 H 13.8558 0.416993 2.00306 0
M  V30 124 H 13.8658 -1.08729 3.93245 0
M  V30 125 H 12.5408 0.0426163 4.15878 0
M  V30 126 H 11.1178 -1.60771 3.36463 0
M  V30 127 N 13.3029 -1.57598 0.00835791 0
M  V30 128 C 14.7189 -1.55764 -0.347822 0
M  V30 129 C 14.9189 -1.01186 -1.74252 0
M  V30 130 O 13.9749 -0.649371 -2.44007 0
M  V30 131 C 15.2879 -2.99927 -0.215407 0
M  V30 132 C 16.8359 -3.11656 -0.289725 0
M  V30 133 C 17.3109 -4.57621 -0.18634 0
M  V30 134 N 18.8019 -4.62557 -0.243978 0
M  V30 135 C 19.5369 -5.73094 -0.18745 0
M  V30 136 N 19.0329 -6.92753 -0.0810331 0
M  V30 137 N 20.8259 -5.61588 -0.239925 0
M  V30 138 H 12.9769 -1.91411 0.92062 0
M  V30 139 H 15.2399 -0.879562 0.353659 0
M  V30 140 H 14.9459 -3.43729 0.744512 0
M  V30 141 H 14.8199 -3.63865 -0.994097 0
M  V30 142 H 17.2069 -2.67779 -1.24009 0
M  V30 143 H 17.2879 -2.5048 0.51898 0
M  V30 144 H 16.9319 -5.02174 0.760519 0
M  V30 145 H 16.8619 -5.16752 -1.01364 0
M  V30 146 H 19.3529 -3.76481 -0.327217 0
M  V30 147 H 19.6659 -7.72787 -0.0440241 0
M  V30 148 H 18.0109 -6.94984 -0.0465419 0
M  V30 149 H 21.2019 -4.66996 -0.321317 0
M  V30 150 H 21.3749 -6.47714 -0.192407 0
M  V30 151 N 14.781 0.264519 -1.55364 0
M  V30 152 C 15.714 1.35297 -1.83766 0
M  V30 153 C 16.692 1.47171 -0.691336 0
M  V30 154 O 17.876 1.63663 -0.935238 0
M  V30 155 C 15.003 2.72847 -2.00679 0
M  V30 156 C 14.049 2.78214 -3.23263 0
M  V30 157 S 14.882 2.36601 -4.80396 0
M  V30 158 C 16.038 3.7611 -5.00292 0
M  V30 159 H 16.271 1.11003 -2.758 0
M  V30 160 H 13.804 0.464596 -1.47244 0
M  V30 161 H 15.762 3.52057 -2.11108 0
M  V30 162 H 14.423 2.94388 -1.09518 0
M  V30 163 H 13.616 3.7919 -3.3201 0
M  V30 164 H 13.218 2.07034 -3.11469 0
M  V30 165 H 15.51 4.71457 -4.86554 0
M  V30 166 H 16.453 3.7231 -6.02321 0
M  V30 167 H 16.861 3.67806 -4.28228 0
M  V30 168 N 16.2591 1.48442 0.529413 0
M  V30 169 C 17.5051 1.5672 1.28711 0
M  V30 170 C 17.8381 0.2406 1.92704 0
M  V30 171 O 17.1131 -0.753454 1.79313 0
M  V30 172 C 17.3961 2.70587 2.37603 0
M  V30 173 C 17.2491 4.12953 1.78297 0
M  V30 174 C 18.5681 2.80212 3.39366 0
M  V30 175 H 15.6871 0.570474 0.466613 0
M  V30 176 H 18.3291 1.80617 0.589706 0
M  V30 177 H 16.4791 2.50342 2.97088 0
M  V30 178 H 18.1511 4.44639 1.22858 0
M  V30 179 H 16.3941 4.19927 1.0883 0
M  V30 180 H 17.0651 4.88448 2.57144 0
M  V30 181 H 19.5411 2.98553 2.89836 0
M  V30 182 H 18.4171 3.61611 4.12951 0
M  V30 183 H 18.6781 1.88393 3.99951 0
M  V30 184 N 17.7372 -0.778329 1.37039 0
M  V30 185 C 18.9832 -1.53892 1.32079 0
M  V30 186 C 19.3162 -1.9396 -0.0965386 0
M  V30 187 O 18.5912 -1.63568 -1.05242 0
M  V30 188 C 18.8742 -2.80847 2.25382 0
M  V30 189 C 18.7272 -2.47076 3.75864 0
M  V30 190 C 20.0462 -3.82741 2.1725 0
M  V30 191 H 17.1652 -0.558303 0.48111 0
M  V30 192 H 19.8072 -0.893397 1.67685 0
M  V30 193 H 17.9572 -3.35931 1.95148 0
M  V30 194 H 19.6292 -1.97957 4.16666 0
M  V30 195 H 17.8722 -1.79863 3.94755 0
M  V30 196 H 18.5432 -3.37798 4.36574 0
M  V30 197 H 21.0192 -3.37133 2.43887 0
M  V30 198 H 19.8952 -4.69303 2.84686 0
M  V30 199 H 20.1562 -4.2652 1.16331 0
M  V30 200 N 19.2153 -1.21501 -1.00376 0
M  V30 201 C 20.4923 -0.941745 -1.71437 0
M  V30 202 C 20.8723 0.546114 -2.03914 0
M  V30 203 O 20.2203 1.51128 -1.71384 0
M  V30 204 C 20.4303 -1.82812 -2.97289 0
M  V30 205 C 21.7783 -2.07771 -3.70292 0
M  V30 206 O 22.8023 -1.80171 -3.07273 0
M  V30 207 O 21.6613 -2.54456 -4.83647 0
M  V30 208 H 18.7553 -0.353243 -0.747762 0
M  V30 209 H 21.3013 -1.32436 -1.06108 0
M  V30 210 H 20.0733 -2.83501 -2.69709 0
M  V30 211 H 19.6963 -1.4464 -3.70358 0
M  V30 212 N 20.6934 1.19889 -1.02296 0
M  V30 213 C 21.6564 2.21116 -0.603351 0
M  V30 214 C 22.6564 1.5738 0.329884 0
M  V30 215 O 23.8464 1.73802 0.117702 0
M  V30 216 C 20.9784 3.40696 0.117992 0
M  V30 217 H 22.1714 2.59754 -1.49893 0
M  V30 218 H 19.7244 1.33463 -0.813468 0
M  V30 219 H 20.4594 3.07569 1.0282 0
M  V30 220 H 20.2444 3.88188 -0.552511 0
M  V30 221 H 21.7344 4.15692 0.398696 0
M  V30 222 N 22.1715 0.800033 1.35784 0
M  V30 223 C 23.1345 0.211565 2.28221 0
M  V30 224 C 24.1345 -0.59728 1.49296 0
M  V30 225 O 25.3245 -0.416721 1.69142 0
M  V30 226 C 22.4565 -0.705846 3.33513 0
M  V30 227 H 23.6495 1.02677 2.81776 0
M  V30 228 H 21.2025 0.570211 1.45528 0
M  V30 229 H 21.9375 -1.54498 2.85133 0
M  V30 230 H 21.7225 -0.127655 3.91892 0
M  V30 231 H 23.2125 -1.11211 4.02519 0
M  V30 232 N 23.6496 -1.47581 0.552962 0
M  V30 233 C 24.5976 -2.31648 -0.21023 0
M  V30 234 C 25.5916 -1.42663 -0.913432 0
M  V30 235 O 26.7976 -1.5945 -0.835201 0
M  V30 236 H 23.1726 -0.746989 -0.0866676 0
M  V30 237 H 25.1436 -2.93869 0.518051 0
M  V30 238 C 23.8926 -3.25226 -1.22976 0
M  V30 239 H 23.2156 -3.93658 -0.698077 0
M  V30 240 H 24.6556 -3.86889 -1.73473 0
M  V30 241 C 23.1146 -2.48448 -2.27542 0
M  V30 242 O 23.6446 -2.22585 -3.34393 0
M  V30 243 N 21.8506 -2.09532 -2.01357 0
M  V30 244 H 21.3976 -2.30765 -1.14478 0
M  V30 245 H 21.3556 -1.58476 -2.71538 0
M  V30 246 N 25.1277 -0.289203 -1.54924 0
M  V30 247 C 26.3527 0.329299 -2.04769 0
M  V30 248 C 26.7777 1.4763 -1.16564 0
M  V30 249 O 26.1357 1.80527 -0.167186 0
M  V30 250 C 26.1837 0.774438 -3.52186 0
M  V30 251 O 25.2877 1.88038 -3.67036 0
M  V30 252 H 24.6287 0.0659259 -0.660719 0
M  V30 253 H 27.1587 -0.42761 -2.00082 0
M  V30 254 H 27.1687 1.06642 -3.93816 0
M  V30 255 H 25.8437 -0.0646707 -4.1585 0
M  V30 256 H 24.4207 1.58985 -3.3731 0
M  V30 257 N 26.6058 1.57591 -0.0167156 0
M  V30 258 C 27.5538 2.10604 0.987353 0
M  V30 259 C 28.5478 1.02977 1.34507 0
M  V30 260 O 29.7538 1.21425 1.32875 0
M  V30 261 H 26.1288 0.672695 0.336134 0
M  V30 262 H 28.0998 2.93925 0.514817 0
M  V30 263 C 26.8488 2.6382 2.26483 0
M  V30 264 H 26.1718 3.46278 1.99829 0
M  V30 265 H 27.6118 3.04573 2.94977 0
M  V30 266 C 26.0708 1.55992 2.9861 0
M  V30 267 O 26.6008 0.952521 3.90243 0
M  V30 268 N 24.8068 1.28335 2.60727 0
M  V30 269 H 24.3538 1.77914 1.86291 0
M  V30 270 H 24.3118 0.564115 3.09298 0
M  V30 271 N 28.0839 -0.256276 1.55502 0
M  V30 272 C 29.3319 -0.983672 1.76545 0
M  V30 273 C 29.6529 -1.86206 0.578982 0
M  V30 274 O 28.9229 -1.91656 -0.405577 0
M  V30 275 H 27.5029 -0.366191 0.651086 0
M  V30 276 H 30.1649 -0.276479 1.92929 0
M  V30 277 H 29.2609 -1.61087 2.67315 0
M  V30 278 N 29.562 -1.4872 -0.521534 0
M  V30 279 C 30.973 -1.50607 -1.10337 0
M  V30 280 C 31.324 -0.280612 -1.94183 0
M  V30 281 O 30.449 0.611507 -2.0758 0
M  V30 282 C 31.044 -2.72903 -2.00772 0
M  V30 283 C 29.603 -2.77634 -2.54158 0
M  V30 284 C 28.75 -2.44241 -1.31307 0
M  V30 285 H 31.701 -1.55714 -0.306388 0
M  V30 286 H 31.722 -2.519 -2.85178 0
M  V30 287 H 31.234 -3.62077 -1.39721 0
M  V30 288 H 29.335 -1.92689 -3.18907 0
M  V30 289 H 29.448 -3.79283 -2.92714 0
M  V30 290 H 27.812 -1.95577 -1.63161 0
M  V30 291 H 28.595 -3.35666 -0.719943 0
M  V30 292 N 31.0401 0.771051 -1.3745 0
M  V30 293 C 32.2871 1.52963 -1.32697 0
M  V30 294 C 32.6151 1.94299 0.0883274 0
M  V30 295 O 31.8701 1.64397 1.0617 0
M  V30 296 C 32.1691 2.80676 -2.2126 0
M  V30 297 C 31.8351 2.58389 -3.69521 0
M  V30 298 C 30.4971 2.52019 -4.09927 0
M  V30 299 C 32.8491 2.38469 -4.63446 0
M  V30 300 C 30.1771 2.23721 -5.42371 0
M  V30 301 C 32.5291 2.11694 -5.96128 0
M  V30 302 C 31.1931 2.03769 -6.35637 0
M  V30 303 H 30.4631 0.559732 -0.485573 0
M  V30 304 H 33.1101 0.888083 -1.69662 0
M  V30 305 H 31.4151 3.49392 -1.77291 0
M  V30 306 H 33.1121 3.38557 -2.14895 0
M  V30 307 H 29.7021 2.6421 -3.37478 0
M  V30 308 H 33.8861 2.4238 -4.33089 0
M  V30 309 H 29.1421 2.16081 -5.71943 0
M  V30 310 H 33.3161 1.9528 -6.6846 0
M  V30 311 H 30.9431 1.81606 -7.38189 0
M  V30 312 N 32.5182 1.22032 0.997298 0
M  V30 313 C 33.4502 0.944263 2.08845 0
M  V30 314 C 34.4632 -0.0754663 1.62625 0
M  V30 315 O 35.6522 0.157994 1.77799 0
M  V30 316 C 32.7522 0.397723 3.36558 0
M  V30 317 C 31.9252 1.47362 4.11829 0
M  V30 318 C 30.9842 0.934951 5.17827 0
M  V30 319 O 30.0102 1.62016 5.45655 0
M  V30 320 N 31.2122 -0.245895 5.79979 0
M  V30 321 H 33.9772 1.88363 2.33109 0
M  V30 322 H 31.5382 1.12661 1.16272 0
M  V30 323 H 33.5302 0.0227771 4.04694 0
M  V30 324 H 32.1002 -0.446646 3.09393 0
M  V30 325 H 31.3202 2.02208 3.38386 0
M  V30 326 H 32.6082 2.19764 4.58891 0
M  V30 327 H 32.0062 -0.819475 5.59733 0
M  V30 328 H 30.5632 -0.562272 6.4937 0
M  V30 329 N 33.9963 -1.19345 1.0293 0
M  V30 330 C 35.4073 -1.70725 0.755633 0
M  V30 331 C 35.7583 -1.82326 -0.724676 0
M  V30 332 O 34.8833 -1.49471 -1.56484 0
M  V30 333 C 35.4783 -3.10084 1.36503 0
M  V30 334 C 34.0373 -3.58723 1.13994 0
M  V30 335 C 33.1843 -2.35577 1.46283 0
M  V30 336 H 36.1353 -1.0418 1.19718 0
M  V30 337 H 36.1563 -3.72787 0.762217 0
M  V30 338 H 35.6683 -3.01609 2.44241 0
M  V30 339 H 33.7693 -3.72512 0.0807901 0
M  V30 340 H 33.8823 -4.42816 1.82894 0
M  V30 341 H 32.2463 -2.38935 0.88217 0
M  V30 342 H 33.0293 -2.29731 2.55105 0
M  V30 343 N 35.4744 -0.807222 -1.35358 0
M  V30 344 C 36.7204 -0.388463 -1.99045 0
M  V30 345 C 37.0534 1.04184 -1.63888 0
M  V30 346 O 36.3284 1.72292 -0.902535 0
M  V30 347 C 36.6114 -0.572783 -3.55515 0
M  V30 348 C 36.4644 -2.04807 -4.00468 0
M  V30 349 C 37.7834 0.00114064 -4.401 0
M  V30 350 H 34.9024 -0.142619 -0.723069 0
M  V30 351 H 37.5444 -1.01687 -1.60498 0
M  V30 352 H 35.6944 -0.0378425 -3.88482 0
M  V30 353 H 37.3664 -2.64544 -3.77908 0
M  V30 354 H 35.6094 -2.54427 -3.51353 0
M  V30 355 H 36.2804 -2.12792 -5.09337 0
M  V30 356 H 38.7564 -0.455716 -4.13597 0
M  V30 357 H 37.6324 -0.157737 -5.48673 0
M  V30 358 H 37.8934 1.09488 -4.28328 0
M  V30 359 N 36.9525 1.47285 -0.560781 0
M  V30 360 C 38.1985 2.02764 -0.0381184 0
M  V30 361 C 38.5315 1.43384 1.30976 0
M  V30 362 O 37.8065 0.590733 1.85312 0
M  V30 363 C 38.0895 3.60064 0.0511427 0
M  V30 364 C 37.9425 4.2987 -1.32408 0
M  V30 365 C 39.2615 4.33439 0.762795 0
M  V30 366 H 36.3805 0.736841 -0.0153264 0
M  V30 367 H 39.0225 1.75675 -0.723759 0
M  V30 368 H 37.1725 3.83274 0.635065 0
M  V30 369 H 38.8445 4.17989 -1.95148 0
M  V30 370 H 37.0875 3.90085 -1.8978 0
M  V30 371 H 37.7585 5.38478 -1.21431 0
M  V30 372 H 40.2345 4.15243 0.266965 0
M  V30 373 H 39.1105 5.43124 0.794221 0
M  V30 374 H 39.3715 4.02915 1.81966 0
M  V30 375 N 38.4306 0.297415 1.54768 0
M  V30 376 C 39.3606 -0.573494 2.26348 0
M  V30 377 C 40.3416 -1.14085 1.26169 0
M  V30 378 O 41.5266 -1.17086 1.54934 0
M  V30 379 C 38.6566 -1.74716 3.00153 0
M  V30 380 C 37.6106 -1.31032 4.07449 0
M  V30 381 C 36.9366 -2.56887 4.68949 0
M  V30 382 C 38.2366 -0.444183 5.20408 0
M  V30 383 H 39.9306 0.0235131 2.99391 0
M  V30 384 H 37.4766 0.0127488 1.43994 0
M  V30 385 H 39.4296 -2.3625 3.48947 0
M  V30 386 H 38.1536 -2.37035 2.24682 0
M  V30 387 H 36.8126 -0.718066 3.59499 0
M  V30 388 H 36.4606 -3.17512 3.90122 0
M  V30 389 H 36.1606 -2.2836 5.41411 0
M  V30 390 H 37.6846 -3.19229 5.20505 0
M  V30 391 H 39.0986 -0.9651 5.65118 0
M  V30 392 H 37.4956 -0.252846 5.99567 0
M  V30 393 H 38.5656 0.531609 4.81977 0
M  V30 394 N 39.9087 -1.5758 0.0250728 0
M  V30 395 C 40.8387 -2.13007 -0.956575 0
M  V30 396 C 41.8197 -1.0452 -1.342 0
M  V30 397 O 43.0047 -1.32332 -1.42133 0
M  V30 398 C 40.1347 -2.65386 -2.24026 0
M  V30 399 C 39.0887 -3.78623 -1.99571 0
M  V30 400 C 38.4147 -4.17414 -3.3417 0
M  V30 401 C 39.7147 -5.04867 -1.33814 0
M  V30 402 H 41.4087 -2.9528 -0.494991 0
M  V30 403 H 38.9547 -1.42042 -0.236651 0
M  V30 404 H 40.9077 -3.02794 -2.93076 0
M  V30 405 H 39.6317 -1.80268 -2.72343 0
M  V30 406 H 38.2907 -3.41646 -1.32941 0
M  V30 407 H 37.9387 -3.29284 -3.80238 0
M  V30 408 H 37.6387 -4.93719 -3.18615 0
M  V30 409 H 39.1627 -4.57402 -4.04495 0
M  V30 410 H 40.5767 -5.39888 -1.92857 0
M  V30 411 H 38.9737 -5.86144 -1.28669 0
M  V30 412 H 40.0437 -4.83904 -0.310561 0
M  V30 413 N 41.3868 0.248026 -1.55636 0
M  V30 414 C 42.3368 1.30994 -1.86614 0
M  V30 415 C 43.3208 1.43543 -0.726918 0
M  V30 416 O 44.5128 1.46804 -0.988818 0
M  V30 417 C 41.6418 2.6656 -2.16335 0
M  V30 418 C 40.7278 2.58019 -3.36581 0
M  V30 419 N 41.1188 2.1911 -4.55878 0
M  V30 420 C 39.4168 2.89035 -3.39669 0
M  V30 421 C 40.1178 2.21174 -5.38012 0
M  V30 422 N 39.0938 2.60632 -4.77045 0
M  V30 423 H 42.8958 0.999583 -2.76379 0
M  V30 424 H 40.4098 0.456652 -1.55848 0
M  V30 425 H 42.4068 3.43194 -2.36692 0
M  V30 426 H 41.0668 2.98463 -1.27867 0
M  V30 427 H 42.0778 1.90672 -4.81523 0
M  V30 428 H 38.7548 3.25485 -2.61469 0
M  V30 429 H 40.1448 1.9344 -6.43452 0
M  V30 430 N 42.8649 1.48995 0.513639 0
M  V30 431 C 44.1139 1.57093 1.2651 0
M  V30 432 C 44.4269 0.257091 1.93903 0
M  V30 433 O 45.6329 0.216478 2.70636 0
M  V30 434 C 44.0889 2.77118 2.29638 0
M  V30 435 C 43.6969 4.15209 1.68241 0
M  V30 436 C 45.4409 2.94538 3.05692 0
M  V30 437 C 43.3479 5.26474 2.69406 0
M  V30 438 H 42.2779 0.584876 0.475854 0
M  V30 439 H 44.9289 1.7536 0.540487 0
M  V30 440 H 43.3109 2.52319 3.05207 0
M  V30 441 H 44.4849 4.50094 0.987505 0
M  V30 442 H 42.7999 4.03042 1.04623 0
M  V30 443 H 45.3969 3.74832 3.8132 0
M  V30 444 H 45.7399 2.04614 3.62545 0
M  V30 445 H 46.2729 3.19316 2.37238 0
M  V30 446 H 43.0119 6.18417 2.17351 0
M  V30 447 H 42.5319 4.96058 3.37175 0
M  V30 448 H 44.2109 5.55277 3.32078 0
M  V30 449 N 44.343 -0.763751 1.37857 0
M  V30 450 C 45.759 -1.06542 1.18832 0
M  V30 451 C 45.959 -2.01478 0.0299722 0
M  V30 452 O 45.015 -2.4458 -0.627447 0
M  V30 453 C 46.328 -1.65525 2.51042 0
M  V30 454 C 47.876 -1.77745 2.57635 0
M  V30 455 C 48.351 -2.4014 3.89996 0
M  V30 456 N 49.842 -2.47582 3.91481 0
M  V30 457 C 50.577 -2.96732 4.9065 0
M  V30 458 N 50.073 -3.45993 6.00217 0
M  V30 459 N 51.866 -2.95679 4.78048 0
M  V30 460 H 44.017 -0.133556 2.1198 0
M  V30 461 H 46.28 -0.121879 0.940133 0
M  V30 462 H 45.986 -1.03236 3.36207 0
M  V30 463 H 45.86 -2.64719 2.68707 0
M  V30 464 H 48.247 -2.39164 1.72872 0
M  V30 465 H 48.328 -0.772836 2.43846 0
M  V30 466 H 47.972 -1.79358 4.75177 0
M  V30 467 H 47.902 -3.41223 4.01092 0
M  V30 468 H 50.393 -2.1273 3.12337 0
M  V30 469 H 50.706 -3.81922 6.7183 0
M  V30 470 H 49.051 -3.44077 6.03851 0
M  V30 471 H 52.242 -2.56499 3.91568 0
M  V30 472 H 52.415 -3.33672 5.55488 0
M  V30 473 N 45.8211 -1.22559 -0.990812 0
M  V30 474 C 47.0981 -0.959875 -1.70428 0
M  V30 475 C 47.4781 0.524455 -2.04481 0
M  V30 476 O 46.8261 1.49302 -1.72977 0
M  V30 477 C 47.0361 -1.85955 -2.95333 0
M  V30 478 C 48.3841 -2.11687 -3.68068 0
M  V30 479 O 49.4081 -1.8342 -3.05345 0
M  V30 480 O 48.2671 -2.59572 -4.80921 0
M  V30 481 H 45.3611 -0.361154 -0.743974 0
M  V30 482 H 47.9071 -1.33554 -1.04697 0
M  V30 483 H 46.6791 -2.86346 -2.66687 0
M  V30 484 H 46.3021 -1.4856 -3.68803 0
M  V30 485 N 47.2992 1.18797 -1.03562 0
M  V30 486 C 48.5452 1.8893 -0.737113 0
M  V30 487 C 48.8782 1.79837 0.732956 0
M  V30 488 O 48.1532 1.19525 1.5344 0
M  V30 489 C 48.4362 3.39607 -1.19745 0
M  V30 490 C 48.2892 3.57537 -2.72924 0
M  V30 491 C 49.6082 4.33069 -0.783526 0
M  V30 492 H 46.7272 0.686057 -0.269249 0
M  V30 493 H 49.3692 1.39797 -1.28673 0
M  V30 494 H 47.5192 3.81583 -0.729855 0
M  V30 495 H 49.1912 3.24688 -3.27682 0
M  V30 496 H 47.4342 3.00363 -3.12993 0
M  V30 497 H 48.1052 4.63238 -3.00191 0
M  V30 498 H 50.5812 3.98846 -1.18581 0
M  V30 499 H 49.4572 5.3707 -1.13343 0
M  V30 500 H 49.7182 4.40986 0.313681 0
M  V30 501 N 48.7773 0.814389 1.34928 0
M  V30 502 C 50.1883 0.458364 1.80986 0
M  V30 503 C 50.5393 -1.02042 1.67577 0
M  V30 504 O 49.6643 -1.79352 1.21086 0
M  V30 505 C 50.2593 0.825212 3.28597 0
M  V30 506 C 48.8183 0.521677 3.72767 0
M  V30 507 C 47.9653 1.04668 2.56788 0
M  V30 508 H 50.9163 1.00533 1.22795 0
M  V30 509 H 50.9373 0.12571 3.80292 0
M  V30 510 H 50.4493 1.90154 3.38324 0
M  V30 511 H 48.5503 -0.545589 3.68584 0
M  V30 512 H 48.6633 1.05977 4.67232 0
M  V30 513 H 47.0273 0.468622 2.50352 0
M  V30 514 H 47.8103 2.12927 2.6929 0
M  V30 515 N 50.2554 -1.46986 0.568584 0
M  V30 516 C 51.6664 -1.86188 0.138219 0
M  V30 517 C 52.0174 -1.47388 -1.29504 0
M  V30 518 O 51.1424 -0.88219 -1.97602 0
M  V30 519 C 51.7374 -3.3792 0.244065 0
M  V30 520 C 50.2964 -3.76171 -0.131335 0
M  V30 521 C 49.4434 -2.71027 0.586465 0
M  V30 522 H 52.3944 -1.38342 0.777645 0
M  V30 523 H 52.4154 -3.76729 -0.534351 0
M  V30 524 H 51.9274 -3.66128 1.28731 0
M  V30 525 H 50.0284 -3.5358 -1.17526 0
M  V30 526 H 50.1414 -4.78523 0.235146 0
M  V30 527 H 48.5054 -2.54684 0.0282722 0
M  V30 528 H 49.2884 -3.02077 1.63109 0
M  V30 529 N 51.7335 -0.305618 -1.54608 0
M  V30 530 C 52.6965 0.555591 -2.22364 0
M  V30 531 C 53.6965 1.05768 -1.21119 0
M  V30 532 O 54.8865 0.952972 -1.45822 0
M  V30 533 C 52.0185 1.76974 -2.91364 0
M  V30 534 H 53.2115 -0.0364572 -2.99878 0
M  V30 535 H 50.7645 -0.0565007 -1.56198 0
M  V30 536 H 51.4995 2.40151 -2.17941 0
M  V30 537 H 51.2845 1.41732 -3.65588 0
M  V30 538 H 52.7745 2.38148 -3.43038 0
M  V30 539 N 53.2116 1.57565 -0.0334293 0
M  V30 540 C 54.4886 1.83282 0.683163 0
M  V30 541 C 54.8686 0.91823 1.90084 0
M  V30 542 O 54.2166 -0.025113 2.28486 0
M  V30 543 C 54.4266 3.32599 1.0573 0
M  V30 544 C 55.7746 3.99179 1.44711 0
M  V30 545 O 56.7986 3.3712 1.15015 0
M  V30 546 O 55.6576 5.08565 2.0006 0
M  V30 547 H 52.7516 0.755869 0.335546 0
M  V30 548 H 55.2976 1.69589 -0.0614402 0
M  V30 549 H 54.0696 3.90834 0.190828 0
M  V30 550 H 53.6926 3.51415 1.85993 0
M  V30 551 N 54.6897 -0.239769 1.55765 0
M  V30 552 C 55.6217 -1.32001 1.87372 0
M  V30 553 C 56.6347 -1.43944 0.760522 0
M  V30 554 O 57.8237 -1.45167 1.0387 0
M  V30 555 C 54.9237 -2.69779 2.05115 0
M  V30 556 C 54.0967 -2.80014 3.36022 0
M  V30 557 C 53.1557 -3.98684 3.4342 0
M  V30 558 O 52.1817 -3.87877 4.16582 0
M  V30 559 N 53.3837 -5.12176 2.73232 0
M  V30 560 H 56.1487 -1.0522 2.80622 0
M  V30 561 H 53.7097 -0.429857 1.56089 0
M  V30 562 H 55.7017 -3.47517 2.07399 0
M  V30 563 H 54.2717 -2.89237 1.18577 0
M  V30 564 H 53.4917 -1.88896 3.45994 0
M  V30 565 H 54.7797 -2.83808 4.22292 0
M  V30 566 H 54.1777 -5.2385 2.13536 0
M  V30 567 H 52.7347 -5.88022 2.81199 0
M  V30 568 N 56.1678 -1.49265 -0.50573 0
M  V30 569 C 57.0778 -1.68312 -1.63427 0
M  V30 570 C 58.0938 -0.565682 -1.64548 0
M  V30 571 O 59.2698 -0.839801 -1.83055 0
M  V30 572 C 56.3348 -1.74107 -2.99813 0
M  V30 573 C 55.3958 -2.97653 -3.09356 0
M  V30 574 C 54.6288 -3.03163 -4.39236 0
M  V30 575 O 54.8518 -2.16396 -5.27758 0
M  V30 576 O 53.7858 -3.9558 -4.53652 0
M  V30 577 H 57.6118 -2.63907 -1.50289 0
M  V30 578 H 55.1968 -1.32951 -0.681502 0
M  V30 579 H 57.0788 -1.803 -3.80881 0
M  V30 580 H 55.7538 -0.816901 -3.13223 0
M  V30 581 H 54.6608 -2.96981 -2.27493 0
M  V30 582 H 55.9938 -3.89535 -3.00871 0
M  V30 583 N 57.6459 0.756429 -1.3826 0
M  V30 584 C 58.5929 1.87011 -1.35261 0
M  V30 585 C 59.5629 1.64695 -0.215616 0
M  V30 586 O 60.7479 1.864 -0.407399 0
M  V30 587 C 57.8879 3.24275 -1.18068 0
M  V30 588 C 57.0009 3.58442 -2.41129 0
M  V30 589 C 56.1359 4.84994 -2.16689 0
M  V30 590 C 55.1749 5.11939 -3.35537 0
M  V30 591 N 54.3119 6.29685 -3.10549 0
M  V30 592 H 59.1519 1.8891 -2.30472 0
M  V30 593 H 56.6889 0.923373 -1.14509 0
M  V30 594 H 58.6469 4.03479 -1.06116 0
M  V30 595 H 57.2769 3.21711 -0.264973 0
M  V30 596 H 56.3289 2.74103 -2.63764 0
M  V30 597 H 57.6409 3.74283 -3.29717 0
M  V30 598 H 56.7949 5.72135 -2.01857 0
M  V30 599 H 55.5339 4.71286 -1.25462 0
M  V30 600 H 54.5389 4.23268 -3.50891 0
M  V30 601 H 55.7639 5.27546 -4.27635 0
M  V30 602 H 53.7099 6.17306 -2.21967 0
M  V30 603 H 53.6269 6.46014 -3.92686 0
M  V30 604 H 54.8949 7.19722 -2.99367 0
M  V30 605 N 59.124 1.23083 0.984299 0
M  V30 606 C 60.054 1.03292 2.09411 0
M  V30 607 C 61.035 -0.048923 1.7003 0
M  V30 608 O 62.22 0.114967 1.93859 0
M  V30 609 C 59.35 0.619155 3.41736 0
M  V30 610 C 58.304 1.64791 3.95004 0
M  V30 611 C 57.63 1.0897 5.23478 0
M  V30 612 C 58.93 3.03999 4.24714 0
M  V30 613 H 60.624 1.96119 2.26225 0
M  V30 614 H 58.17 0.944344 1.08711 0
M  V30 615 H 60.123 0.467777 4.18796 0
M  V30 616 H 58.847 -0.344786 3.24775 0
M  V30 617 H 57.506 1.78721 3.20085 0
M  V30 618 H 57.154 0.11686 5.02864 0
M  V30 619 H 56.854 1.77704 5.60085 0
M  V30 620 H 58.378 0.950093 6.03163 0
M  V30 621 H 59.792 2.93393 4.92538 0
M  V30 622 H 58.189 3.69936 4.72512 0
M  V30 623 H 59.259 3.53285 3.32142 0
M  V30 624 N 60.6021 -1.18246 1.0419 0
M  V30 625 C 61.8491 -1.88257 0.746017 0
M  V30 626 C 62.1771 -1.80429 -0.726331 0
M  V30 627 O 61.4321 -1.2 -1.54591 0
M  V30 628 C 61.7311 -3.38082 1.15911 0
M  V30 629 C 61.3971 -3.66114 2.63195 0
M  V30 630 C 60.0591 -3.73474 3.03432 0
M  V30 631 C 62.4111 -3.78398 3.5842 0
M  V30 632 C 59.7391 -3.90599 4.37778 0
M  V30 633 C 62.0911 -3.97039 4.92487 0
M  V30 634 C 60.7551 -4.02635 5.32392 0
M  V30 635 H 60.0251 -0.688883 0.272987 0
M  V30 636 H 62.6721 -1.3995 1.30715 0
M  V30 637 H 60.9771 -3.88377 0.516806 0
M  V30 638 H 62.6741 -3.90596 0.907516 0
M  V30 639 H 59.2641 -3.61003 2.3103 0
M  V30 640 H 63.4481 -3.72042 3.28479 0
M  V30 641 H 58.7041 -3.93175 4.68213 0
M  V30 642 H 62.8781 -4.05486 5.66175 0
M  V30 643 H 60.5051 -4.15657 6.36501 0
M  V30 644 N 62.0802 -0.821533 -1.34494 0
M  V30 645 C 63.3292 -0.405355 -1.97585 0
M  V30 646 C 63.6422 1.03677 -1.65863 0
M  V30 647 O 64.8482 1.55679 -2.22433 0
M  V30 648 C 63.3042 -0.673861 -3.53535 0
M  V30 649 C 62.9122 -2.12951 -3.94152 0
M  V30 650 C 64.6562 -0.32378 -4.23263 0
M  V30 651 C 62.5632 -2.34298 -5.43009 0
M  V30 652 H 61.4932 -0.147836 -0.739365 0
M  V30 653 H 64.1442 -1.00769 -1.53355 0
M  V30 654 H 62.5262 -0.00137554 -3.96 0
M  V30 655 H 63.7002 -2.84104 -3.62797 0
M  V30 656 H 62.0152 -2.44089 -3.37356 0
M  V30 657 H 64.6122 -0.461126 -5.32708 0
M  V30 658 H 64.9552 0.731586 -4.09821 0
M  V30 659 H 65.4882 -0.950786 -3.8627 0
M  V30 660 H 62.2272 -3.38335 -5.61435 0
M  V30 661 H 61.7472 -1.67687 -5.75883 0
M  V30 662 H 63.4262 -2.16588 -6.09671 0
M  V30 663 N 63.5583 1.46682 -0.576371 0
M  V30 664 C 64.4903 2.28341 0.198231 0
M  V30 665 C 65.5033 1.38141 0.861453 0
M  V30 666 O 66.6923 1.62797 0.732082 0
M  V30 667 C 63.7923 3.12986 1.29972 0
M  V30 668 C 62.9653 4.31271 0.729639 0
M  V30 669 C 62.0243 4.97363 1.71803 0
M  V30 670 O 61.0503 5.55156 1.25658 0
M  V30 671 N 62.2523 4.93796 3.05198 0
M  V30 672 H 65.0173 2.9546 -0.502324 0
M  V30 673 H 62.5783 1.56525 -0.413715 0
M  V30 674 H 64.5703 3.54066 1.96008 0
M  V30 675 H 63.1403 2.47984 1.90323 0
M  V30 676 H 62.3603 3.94052 -0.108012 0
M  V30 677 H 63.6483 5.07739 0.328438 0
M  V30 678 H 63.0463 4.48077 3.45317 0
M  V30 679 H 61.6033 5.38837 3.6674 0
M  V30 680 N 65.0364 0.313813 1.54444 0
M  V30 681 C 65.9834 -0.55655 2.23989 0
M  V30 682 C 66.9534 -1.11943 1.22711 0
M  V30 683 O 68.1384 -1.16158 1.51367 0
M  V30 684 C 65.2784 -1.71635 2.99392 0
M  V30 685 C 64.3914 -1.18364 4.15468 0
M  V30 686 C 63.5264 -2.30834 4.78424 0
M  V30 687 C 62.5654 -1.74762 5.86622 0
M  V30 688 N 61.7024 -2.80855 6.43479 0
M  V30 689 H 66.5424 0.0430893 2.97969 0
M  V30 690 H 64.0794 0.0330359 1.47063 0
M  V30 691 H 66.0374 -2.39868 3.41349 0
M  V30 692 H 64.6674 -2.28742 2.27765 0
M  V30 693 H 63.7194 -0.393163 3.78363 0
M  V30 694 H 65.0314 -0.733262 4.93381 0
M  V30 695 H 64.1854 -3.0699 5.23299 0
M  V30 696 H 62.9244 -2.79204 3.99871 0
M  V30 697 H 61.9294 -0.970995 5.41158 0
M  V30 698 H 63.1544 -1.2728 6.67066 0
M  V30 699 H 61.1004 -3.28535 5.67804 0
M  V30 700 H 61.0174 -2.40351 7.16776 0
M  V30 701 H 62.2854 -3.5687 6.93011 0
M  V30 702 N 66.5145 -1.57545 0.0417849 0
M  V30 703 C 67.4445 -2.14009 -0.933929 0
M  V30 704 C 68.4255 -1.05938 -1.33083 0
M  V30 705 O 69.6105 -1.33833 -1.40721 0
M  V30 706 C 66.7405 -2.67747 -2.21199 0
M  V30 707 C 65.6945 -3.80718 -1.95544 0
M  V30 708 C 65.0205 -4.20935 -3.29724 0
M  V30 709 C 66.3205 -5.06258 -1.28452 0
M  V30 710 H 68.0145 -2.95788 -0.463645 0
M  V30 711 H 65.5605 -1.42285 -0.221573 0
M  V30 712 H 67.5135 -3.05886 -2.89848 0
M  V30 713 H 66.2375 -1.83147 -2.70416 0
M  V30 714 H 64.8965 -3.43037 -1.2931 0
M  V30 715 H 64.5445 -3.33298 -3.76724 0
M  V30 716 H 64.2445 -4.9707 -3.13361 0
M  V30 717 H 65.7685 -4.61666 -3.9962 0
M  V30 718 H 67.1825 -5.41903 -1.8712 0
M  V30 719 H 65.5795 -5.87475 -1.22445 0
M  V30 720 H 66.6495 -4.84207 -0.259219 0
M  V30 721 N 67.9926 0.231505 -1.5589 0
M  V30 722 C 69.4086 0.580748 -1.48659 0
M  V30 723 C 69.6086 1.87617 -0.73498 0
M  V30 724 O 68.6646 2.51046 -0.270586 0
M  V30 725 C 69.9776 0.669202 -2.93159 0
M  V30 726 C 71.5256 0.760499 -3.03621 0
M  V30 727 C 72.0006 0.880383 -4.49459 0
M  V30 728 N 73.4916 0.944861 -4.53461 0
M  V30 729 C 74.2266 1.05716 -5.63571 0
M  V30 730 N 73.7226 1.13403 -6.83456 0
M  V30 731 N 75.5156 1.09152 -5.514 0
M  V30 732 H 67.6666 -0.618695 -2.03189 0
M  V30 733 H 69.9296 -0.215728 -0.923128 0
M  V30 734 H 69.6356 -0.212904 -3.51055 0
M  V30 735 H 69.5096 1.5361 -3.44505 0
M  V30 736 H 71.8966 1.63305 -2.45796 0
M  V30 737 H 71.9776 -0.131864 -2.5546 0
M  V30 738 H 71.6216 0.0123284 -5.07899 0
M  V30 739 H 71.5516 1.78802 -4.95316 0
M  V30 740 H 74.0426 0.896176 -3.6712 0
M  V30 741 H 74.3556 1.21921 -7.63122 0
M  V30 742 H 72.7006 1.10333 -6.86186 0
M  V30 743 H 75.8916 1.02805 -4.56671 0
M  V30 744 H 76.0646 1.17558 -6.37247 0
M  V30 745 N 69.4707 1.49531 0.497807 0
M  V30 746 C 70.4027 1.62559 1.61578 0
M  V30 747 C 71.4157 0.508134 1.54667 0
M  V30 748 O 72.6047 0.780309 1.60541 0
M  V30 749 C 69.7047 1.56925 3.00379 0
M  V30 750 C 68.8777 2.84257 3.3244 0
M  V30 751 C 67.9367 2.71632 4.50669 0
M  V30 752 O 66.9627 3.4557 4.52294 0
M  V30 753 N 68.1647 1.83391 5.5077 0
M  V30 754 H 70.9297 2.58981 1.50828 0
M  V30 755 H 68.4907 1.4666 0.685743 0
M  V30 756 H 70.4827 1.46129 3.77397 0
M  V30 757 H 69.0527 0.683483 3.05037 0
M  V30 758 H 68.2727 3.09381 2.44289 0
M  V30 759 H 69.5607 3.68666 3.5066 0
M  V30 760 H 68.9587 1.22583 5.52259 0
M  V30 761 H 67.5157 1.78515 6.26878 0
M  V30 762 N 70.9488 -0.749086 1.3866 0
M  V30 763 C 72.1888 -1.52112 1.36534 0
M  V30 764 C 72.5528 -1.91951 -0.0432316 0
M  V30 765 O 73.7538 -2.68132 -0.189396 0
M  V30 766 C 72.0248 -2.73704 2.29828 0
M  V30 767 S 73.5838 -3.63519 2.45763 0
M  V30 768 H 70.4018 -0.520482 0.484375 0
M  V30 769 H 73.0038 -0.878963 1.74627 0
M  V30 770 H 71.7078 -2.42552 3.31054 0
M  V30 771 H 71.2388 -3.4286 1.929 0
M  V30 772 H 73.2538 -4.66712 1.68505 0
M  V30 773 N 72.4269 -1.23603 -0.977757 0
M  V30 774 C 73.6669 -1.08148 -1.73446 0
M  V30 775 C 74.0309 0.374785 -1.88307 0
M  V30 776 O 75.2319 0.650588 -2.60808 0
M  V30 777 C 73.5029 -1.78991 -3.0935 0
M  V30 778 S 75.0619 -1.79141 -4.00567 0
M  V30 779 H 71.8799 -0.386987 -0.596458 0
M  V30 780 H 74.4819 -1.5678 -1.16792 0
M  V30 781 H 73.1859 -2.8408 -2.96187 0
M  V30 782 H 72.7169 -1.30651 -3.71071 0
M  V30 783 H 74.7319 -0.851892 -4.88833 0
M  V30 784 N 73.905 1.17692 -1.04816 0
M  V30 785 C 75.151 1.88137 -0.75711 0
M  V30 786 C 75.484 1.80604 0.713841 0
M  V30 787 O 74.759 1.21146 1.52164 0
M  V30 788 C 75.042 3.38318 -1.2334 0
M  V30 789 C 74.895 3.54622 -2.76701 0
M  V30 790 C 76.214 4.32214 -0.829415 0
M  V30 791 H 73.333 0.683163 -0.27651 0
M  V30 792 H 75.975 1.38424 -1.30149 0
M  V30 793 H 74.125 3.80787 -0.770286 0
M  V30 794 H 75.797 3.21194 -3.31107 0
M  V30 795 H 74.04 2.97026 -3.16161 0
M  V30 796 H 74.711 4.60028 -3.05088 0
M  V30 797 H 77.187 3.97565 -1.22805 0
M  V30 798 H 76.063 5.35838 -1.19033 0
M  V30 799 H 76.324 4.41294 0.266891 0
M  V30 800 N 75.3831 0.828654 1.34056 0
M  V30 801 C 76.3131 0.269443 2.3194 0
M  V30 802 C 77.2941 -0.617247 1.58506 0
M  V30 803 O 78.4791 -0.542931 1.86456 0
M  V30 804 C 75.6091 -0.564793 3.42677 0
M  V30 805 C 74.5631 0.225241 4.27407 0
M  V30 806 C 73.8891 -0.7321 5.29664 0
M  V30 807 C 75.1891 1.43663 5.02154 0
M  V30 808 H 76.8831 1.08728 2.7896 0
M  V30 809 H 74.4291 0.524283 1.34117 0
M  V30 810 H 76.3821 -0.966233 4.10173 0
M  V30 811 H 75.1061 -1.41574 2.9432 0
M  V30 812 H 73.7651 0.608117 3.61521 0
M  V30 813 H 73.4131 -1.57916 4.77568 0
M  V30 814 H 73.1131 -0.20767 5.87233 0
M  V30 815 H 74.6371 -1.13128 6.00029 0
M  V30 816 H 76.0511 1.1089 5.62473 0
M  V30 817 H 74.4481 1.89711 5.69324 0
M  V30 818 H 75.5181 2.21181 4.31517 0
M  V30 819 N 76.8612 -1.46375 0.584142 0
M  V30 820 C 78.1082 -2.02378 0.0702675 0
M  V30 821 C 78.4362 -1.45545 -1.29023 0
M  V30 822 O 77.6912 -0.610967 -1.85918 0
M  V30 823 C 77.9902 -3.57373 -0.0439342 0
M  V30 824 C 77.6562 -4.33252 1.24915 0
M  V30 825 C 76.3182 -4.53701 1.60341 0
M  V30 826 C 78.6702 -4.7681 2.1048 0
M  V30 827 C 75.9982 -5.1496 2.81128 0
M  V30 828 C 78.3502 -5.39404 3.30494 0
M  V30 829 C 77.0142 -5.5808 3.66201 0
M  V30 830 H 76.2842 -0.740554 0.0257127 0
M  V30 831 H 78.9312 -1.75727 0.761065 0
M  V30 832 H 77.2362 -3.83169 -0.817869 0
M  V30 833 H 78.9332 -3.98384 -0.457318 0
M  V30 834 H 75.5232 -4.17633 0.963364 0
M  V30 835 H 79.7072 -4.60766 1.84414 0
M  V30 836 H 74.9632 -5.27611 3.08928 0
M  V30 837 H 79.1372 -5.72114 3.97063 0
M  V30 838 H 76.7642 -6.05318 4.59885 0
M  V30 839 N 78.3393 -0.321999 -1.54275 0
M  V30 840 C 79.6163 0.335232 -1.92706 0
M  V30 841 C 79.9963 1.70006 -1.25145 0
M  V30 842 O 79.3443 2.25067 -0.394596 0
M  V30 843 C 79.5543 0.429008 -3.46353 0
M  V30 844 C 80.9023 0.690029 -4.18956 0
M  V30 845 O 81.9263 0.511992 -3.52501 0
M  V30 846 O 80.7853 1.03338 -5.36641 0
M  V30 847 H 77.8793 0.191143 -0.804608 0
M  V30 848 H 80.4253 -0.3716 -1.65581 0
M  V30 849 H 79.1973 -0.529611 -3.87699 0
M  V30 850 H 78.8203 1.18348 -3.79578 0
M  V30 851 N 79.8174 1.5752 -0.0501392 0
M  V30 852 C 81.0644 1.9265 0.623874 0
M  V30 853 C 81.3924 0.928411 1.70912 0
M  V30 854 O 80.6474 -0.0594525 1.9561 0
M  V30 855 C 80.9464 3.34467 1.25963 0
M  V30 856 C 80.6124 4.49883 0.302689 0
M  V30 857 C 79.2744 4.81184 0.0393636 0
M  V30 858 C 81.6264 5.20002 -0.353205 0
M  V30 859 C 78.9544 5.79951 -0.887308 0
M  V30 860 C 81.3064 6.1976 -1.26806 0
M  V30 861 C 79.9704 6.49491 -1.54007 0
M  V30 862 H 79.2404 0.704957 0.228292 0
M  V30 863 H 81.8874 1.91146 -0.116398 0
M  V30 864 H 80.1924 3.32333 2.07514 0
M  V30 865 H 81.8894 3.58928 1.78806 0
M  V30 866 H 78.4794 4.25457 0.518109 0
M  V30 867 H 82.6634 4.96033 -0.162854 0
M  V30 868 H 77.9194 6.01322 -1.10553 0
M  V30 869 H 82.0934 6.73205 -1.78236 0
M  V30 870 H 79.7204 7.25837 -2.25976 0
M  V30 871 N 81.2955 -0.223234 1.56011 0
M  V30 872 C 82.5415 -0.949279 1.79211 0
M  V30 873 C 82.8745 -1.84054 0.619494 0
M  V30 874 O 82.1495 -1.90726 -0.381317 0
M  V30 875 C 82.4325 -1.78965 3.12479 0
M  V30 876 C 82.2855 -0.924997 4.40186 0
M  V30 877 C 83.6045 -2.76774 3.42175 0
M  V30 878 H 80.7235 -0.343676 0.651963 0
M  V30 879 H 83.3655 -0.218253 1.88742 0
M  V30 880 H 81.5155 -2.41291 3.04485 0
M  V30 881 H 83.1875 -0.318615 4.60198 0
M  V30 882 H 81.4305 -0.230344 4.33188 0
M  V30 883 H 82.1015 -1.54735 5.29869 0
M  V30 884 H 84.5775 -2.24584 3.50287 0
M  V30 885 H 83.4535 -3.32678 4.36597 0
M  V30 886 H 83.7145 -3.54429 2.64258 0
M  V30 887 N 82.7736 -1.49793 -0.48987 0
M  V30 888 C 83.9986 -1.63836 -1.27172 0
M  V30 889 C 84.4236 -0.31402 -1.8546 0
M  V30 890 O 83.7816 0.719803 -1.66399 0
M  V30 891 C 83.8296 -2.71797 -2.36978 0
M  V30 892 O 82.9336 -2.31744 -3.41128 0
M  V30 893 H 82.2746 -0.547997 -0.37496 0
M  V30 894 H 84.8046 -1.96053 -0.585191 0
M  V30 895 H 84.8146 -2.94305 -2.82575 0
M  V30 896 H 83.4896 -3.67923 -1.93921 0
M  V30 897 H 82.0666 -2.1961 -3.01373 0
M  V30 898 N 84.2517 0.741722 -1.39055 0
M  V30 899 C 85.5287 1.49252 -1.26425 0
M  V30 900 C 85.9087 2.10705 0.129144 0
M  V30 901 O 85.2567 1.98045 1.13976 0
M  V30 902 C 85.4667 2.54934 -2.38347 0
M  V30 903 C 86.8147 3.21506 -2.77343 0
M  V30 904 O 87.8387 2.65245 -2.37747 0
M  V30 905 O 86.6977 4.23294 -3.45665 0
M  V30 906 H 83.7917 0.662451 -0.495064 0
M  V30 907 H 86.3377 0.776121 -1.50912 0
M  V30 908 H 85.1097 2.07857 -3.31529 0
M  V30 909 H 84.7327 3.34141 -2.15489 0
M  V30 910 N 85.7298 1.2412 0.971189 0
M  V30 911 C 87.1408 1.07236 1.52831 0
M  V30 912 C 87.4918 -0.357352 1.92918 0
M  V30 913 O 86.6168 -1.24528 1.76979 0
M  V30 914 C 87.2118 1.94043 2.77728 0
M  V30 915 C 85.7708 1.81394 3.29808 0
M  V30 916 C 84.9178 1.89189 2.02738 0
M  V30 917 H 87.8688 1.37648 0.789864 0
M  V30 918 H 87.8898 1.47066 3.5093 0
M  V30 919 H 87.4018 2.98093 2.4852 0
M  V30 920 H 85.5028 0.801634 3.63874 0
M  V30 921 H 85.6158 2.65294 3.98944 0
M  V30 922 H 83.9798 1.32877 2.17292 0
M  V30 923 H 84.7628 2.94812 1.759 0
M  V30 924 N 87.2079 -1.17134 1.05439 0
M  V30 925 C 88.1379 -2.2342 0.678649 0
M  V30 926 C 89.1189 -1.66971 -0.32476 0
M  V30 927 O 90.3039 -1.93149 -0.201802 0
M  V30 928 C 87.4339 -3.47256 0.0552099 0
M  V30 929 C 86.3879 -4.16543 0.98365 0
M  V30 930 C 85.7139 -5.34231 0.223961 0
M  V30 931 C 87.0139 -4.68495 2.3089 0
M  V30 932 H 88.7079 -2.55105 1.56722 0
M  V30 933 H 86.2539 -1.2262 0.754998 0
M  V30 934 H 88.2069 -4.20828 -0.21946 0
M  V30 935 H 86.9309 -3.14846 -0.868319 0
M  V30 936 H 85.5899 -3.44887 1.24293 0
M  V30 937 H 85.2379 -4.98071 -0.702412 0
M  V30 938 H 84.9379 -5.81527 0.842627 0
M  V30 939 H 86.4619 -6.10585 -0.0433671 0
M  V30 940 H 87.8759 -5.33691 2.09396 0
M  V30 941 H 86.2729 -5.26379 2.88176 0
M  V30 942 H 87.3429 -3.85169 2.94572 0
M  V30 943 N 88.686 -0.835752 -1.33615 0
M  V30 944 C 89.911 -0.442389 -2.02627 0
M  V30 945 C 90.336 0.947735 -1.62479 0
M  V30 946 O 89.694 1.61907 -0.815826 0
M  V30 947 C 89.742 -0.567216 -3.56111 0
M  V30 948 O 88.846 0.407799 -4.10379 0
M  V30 949 H 88.187 -0.180278 -0.639059 0
M  V30 950 H 90.717 -1.12972 -1.70583 0
M  V30 951 H 90.727 -0.447708 -4.05536 0
M  V30 952 H 89.402 -1.58103 -3.84677 0
M  V30 953 H 87.979 0.246107 -3.72087 0
M  V30 954 N 90.1641 1.46063 -0.591896 0
M  V30 955 C 91.4411 1.95595 -0.0137119 0
M  V30 956 C 91.8211 1.5345 1.4497 0
M  V30 957 O 91.1691 0.789543 2.14426 0
M  V30 958 C 91.3791 3.48453 -0.195373 0
M  V30 959 C 92.7271 4.24546 -0.0679765 0
M  V30 960 O 93.7511 3.55982 -0.124681 0
M  V30 961 O 92.6101 5.46467 0.0600579 0
M  V30 962 H 89.7041 0.825795 0.0446279 0
M  V30 963 H 92.2501 1.56303 -0.660859 0
M  V30 964 H 91.0221 3.72045 -1.21235 0
M  V30 965 H 90.6451 3.94597 0.487775 0
M  V30 966 N 91.6422 0.330177 1.54103 0
M  V30 967 C 92.5722 -0.525353 2.27513 0
M  V30 968 C 93.5532 -1.11383 1.2856 0
M  V30 969 O 94.7382 -1.13773 1.57383 0
M  V30 970 C 91.8682 -1.6831 3.03791 0
M  V30 971 C 90.8222 -1.2236 4.10137 0
M  V30 972 C 90.1482 -2.46882 4.74293 0
M  V30 973 C 91.4482 -0.333697 5.21233 0
M  V30 974 H 93.1422 0.087013 2.99274 0
M  V30 975 H 90.6882 0.0432893 1.43935 0
M  V30 976 H 92.6412 -2.28795 3.5388 0
M  V30 977 H 91.3652 -2.32216 2.29659 0
M  V30 978 H 90.0242 -0.64165 3.60941 0
M  V30 979 H 89.6722 -3.09165 3.96769 0
M  V30 980 H 89.3722 -2.16825 5.46133 0
M  V30 981 H 90.8962 -3.08117 5.27159 0
M  V30 982 H 92.3102 -0.845013 5.67038 0
M  V30 983 H 90.7072 -0.125612 5.99969 0
M  V30 984 H 91.7772 0.633724 4.80741 0
M  V30 985 N 93.1203 -1.57491 0.0584922 0
M  V30 986 C 94.0673 -2.11958 -0.913376 0
M  V30 987 C 95.0373 -1.02875 -1.30407 0
M  V30 988 O 96.2223 -1.30464 -1.39226 0
M  V30 989 C 93.3623 -2.67497 -2.18035 0
M  V30 990 C 92.4753 -3.90691 -1.84349 0
M  V30 991 C 91.6103 -4.3452 -3.05559 0
M  V30 992 C 90.6493 -5.50395 -2.67827 0
M  V30 993 N 89.7863 -5.89244 -3.81754 0
M  V30 994 H 94.6263 -2.94704 -0.442017 0
M  V30 995 H 92.1633 -1.45643 -0.206545 0
M  V30 996 H 94.1213 -2.978 -2.92183 0
M  V30 997 H 92.7513 -1.87537 -2.62735 0
M  V30 998 H 91.8033 -3.66934 -1.00319 0
M  V30 999 H 93.1153 -4.7489 -1.5258 0
M  V30 1000 H 92.2693 -4.66414 -3.87998 0
M  V30 1001 H 91.0083 -3.49147 -3.40511 0
M  V30 1002 H 90.0133 -5.18165 -1.83806 0
M  V30 1003 H 91.2383 -6.3749 -2.34059 0
M  V30 1004 H 89.1843 -5.06823 -4.16493 0
M  V30 1005 H 89.1013 -6.68151 -3.53708 0
M  V30 1006 H 90.3693 -6.25756 -4.64811 0
M  V30 1007 N 94.5984 0.214957 -1.56127 0
M  V30 1008 C 95.8444 0.935325 -1.80619 0
M  V30 1009 C 96.1994 1.81706 -0.632507 0
M  V30 1010 O 95.4924 1.87931 0.373182 0
M  V30 1011 C 95.6864 1.80314 -3.0858 0
M  V30 1012 C 95.5154 1.00691 -4.38282 0
M  V30 1013 C 94.2854 0.699211 -5.00439 0
M  V30 1014 C 96.4834 0.369057 -5.12974 0
M  V30 1015 N 94.4654 -0.117734 -6.13787 0
M  V30 1016 C 95.8364 -0.310981 -6.1922 0
M  V30 1017 C 97.8914 0.282759 -4.97096 0
M  V30 1018 C 96.5944 -1.06907 -7.11311 0
M  V30 1019 C 98.6204 -0.461881 -5.89594 0
M  V30 1020 C 97.9824 -1.13044 -6.9527 0
M  V30 1021 H 94.0814 0.322307 -0.71249 0
M  V30 1022 H 96.6654 0.205649 -1.93611 0
M  V30 1023 H 94.8364 2.50458 -2.96859 0
M  V30 1024 H 96.5684 2.46148 -3.21237 0
M  V30 1025 H 93.3234 1.01884 -4.62511 0
M  V30 1026 H 93.7474 -0.515235 -6.75037 0
M  V30 1027 H 98.3894 0.785292 -4.15443 0
M  V30 1028 H 96.1074 -1.5831 -7.92442 0
M  V30 1029 H 99.6934 -0.529746 -5.79383 0
M  V30 1030 H 98.5734 -1.69742 -7.65609 0
M  V30 1031 N 96.0765 1.50051 0.48192 0
M  V30 1032 C 97.0235 1.68122 1.58125 0
M  V30 1033 C 97.9935 0.522545 1.57666 0
M  V30 1034 O 99.1785 0.751844 1.75362 0
M  V30 1035 C 96.3185 1.77142 2.96167 0
M  V30 1036 C 95.4315 3.0444 3.06497 0
M  V30 1037 C 94.5665 3.04321 4.35387 0
M  V30 1038 C 93.6055 4.26118 4.3942 0
M  V30 1039 N 92.7425 4.238 5.59766 0
M  V30 1040 H 97.5825 2.6198 1.42022 0
M  V30 1041 H 95.1195 1.29877 0.690687 0
M  V30 1042 H 97.0775 1.80352 3.76203 0
M  V30 1043 H 95.7075 0.867329 3.1093 0
M  V30 1044 H 94.7595 3.10752 2.19402 0
M  V30 1045 H 96.0715 3.94426 3.05336 0
M  V30 1046 H 95.2255 3.062 5.23762 0
M  V30 1047 H 93.9645 2.12147 4.39141 0
M  V30 1048 H 92.9695 4.24463 3.49444 0
M  V30 1049 H 94.1945 5.19507 4.37366 0
M  V30 1050 H 92.1405 3.34474 5.64326 0
M  V30 1051 H 92.0575 5.07542 5.60301 0
M  V30 1052 H 93.3255 4.2981 6.50295 0
M  V30 1053 N 97.5546 -0.734337 1.39446 0
M  V30 1054 C 98.4646 -1.87879 1.40495 0
M  V30 1055 C 99.4806 -1.714 0.299672 0
M  V30 1056 O 100.657 -1.93991 0.541249 0
M  V30 1057 C 97.7216 -3.23477 1.24754 0
M  V30 1058 C 96.7826 -3.52344 2.45259 0
M  V30 1059 C 96.0156 -4.81473 2.30259 0
M  V30 1060 O 96.2386 -5.55237 1.30643 0
M  V30 1061 O 95.1726 -5.10254 3.19256 0
M  V30 1062 H 98.9986 -1.89949 2.36966 0
M  V30 1063 H 96.5836 -0.882243 1.20569 0
M  V30 1064 H 98.4656 -4.04509 1.18111 0
M  V30 1065 H 97.1406 -3.22176 0.313781 0
M  V30 1066 H 96.0476 -2.71396 2.57478 0
M  V30 1067 H 97.3806 -3.58426 3.37331 0
M  V30 1068 N 99.0327 -1.24633 -0.964593 0
M  V30 1069 C 100.279 -1.08949 -1.71049 0
M  V30 1070 C 100.612 0.370302 -1.90637 0
M  V30 1071 O 99.8867 1.27349 -1.47011 0
M  V30 1072 C 100.17 -1.83329 -3.0994 0
M  V30 1073 C 100.023 -3.37077 -2.97824 0
M  V30 1074 C 101.342 -1.60846 -4.09654 0
M  V30 1075 H 98.4607 -0.397178 -0.620821 0
M  V30 1076 H 101.103 -1.5334 -1.12191 0
M  V30 1077 H 99.2527 -1.45597 -3.60186 0
M  V30 1078 H 100.925 -3.84425 -2.5498 0
M  V30 1079 H 99.1677 -3.65298 -2.33965 0
M  V30 1080 H 99.8387 -3.84324 -3.96231 0
M  V30 1081 H 102.315 -1.93674 -3.68279 0
M  V30 1082 H 101.191 -2.1534 -5.04896 0
M  V30 1083 H 101.452 -0.547434 -4.38698 0
M  V30 1084 N 100.511 1.16574 -1.06058 0
M  V30 1085 C 101.458 2.20883 -0.669263 0
M  V30 1086 C 102.428 1.62729 0.332918 0
M  V30 1087 O 103.613 1.895 0.222346 0
M  V30 1088 C 100.753 3.45049 -0.0593572 0
M  V30 1089 C 99.8658 4.17458 -1.11143 0
M  V30 1090 C 99.0008 5.29135 -0.467916 0
M  V30 1091 C 98.0398 5.93343 -1.50369 0
M  V30 1092 N 97.1768 6.96516 -0.883706 0
M  V30 1093 H 102.017 2.53709 -1.5632 0
M  V30 1094 H 99.5538 1.24616 -0.781625 0
M  V30 1095 H 101.512 4.16033 0.311771 0
M  V30 1096 H 100.142 3.12781 0.797992 0
M  V30 1097 H 99.1938 3.45101 -1.60029 0
M  V30 1098 H 100.506 4.61307 -1.89731 0
M  V30 1099 H 99.6598 6.06684 -0.0436871 0
M  V30 1100 H 98.3988 4.86443 0.349864 0
M  V30 1101 H 97.4038 5.14517 -1.93784 0
M  V30 1102 H 98.6288 6.38114 -2.32352 0
M  V30 1103 H 96.5748 6.55943 -0.086595 0
M  V30 1104 H 96.4918 7.38723 -1.607 0
M  V30 1105 H 97.7598 7.77993 -0.484543 0
M  V30 1106 N 101.989 0.842826 1.3317 0
M  V30 1107 C 103.405 0.531128 1.50503 0
M  V30 1108 C 103.605 -0.940734 1.78192 0
M  V30 1109 O 102.661 -1.72436 1.84451 0
M  V30 1110 C 103.974 1.40789 2.65705 0
M  V30 1111 C 105.522 1.40708 2.79589 0
M  V30 1112 C 105.997 2.26878 3.97857 0
M  V30 1113 N 107.488 2.24609 4.05099 0
M  V30 1114 C 108.223 2.88019 4.95815 0
M  V30 1115 N 107.719 3.60496 5.9162 0
M  V30 1116 N 109.512 2.77469 4.88843 0
M  V30 1117 H 101.663 1.79557 1.1346 0
M  V30 1118 H 103.926 0.766267 0.558156 0
M  V30 1119 H 103.632 2.454 2.51936 0
M  V30 1120 H 103.506 1.08677 3.61205 0
M  V30 1121 H 105.893 0.368668 2.92788 0
M  V30 1122 H 105.974 1.76829 1.84838 0
M  V30 1123 H 105.618 3.3078 3.85418 0
M  V30 1124 H 105.548 1.88096 4.91861 0
M  V30 1125 H 108.039 1.71906 3.36536 0
M  V30 1126 H 108.352 4.06076 6.57512 0
M  V30 1127 H 106.697 3.64604 5.91683 0
M  V30 1128 H 109.888 2.20406 4.12963 0
M  V30 1129 H 110.061 3.2717 5.59342 0
M  V30 1130 N 103.467 -1.45747 0.599634 0
M  V30 1131 C 104.43 -2.28917 -0.113835 0
M  V30 1132 C 105.43 -1.3933 -0.802729 0
M  V30 1133 O 106.62 -1.61534 -0.652103 0
M  V30 1134 C 103.752 -3.20152 -1.17114 0
M  V30 1135 H 104.945 -2.93478 0.617289 0
M  V30 1136 H 102.498 -1.52137 0.358327 0
M  V30 1137 H 103.233 -2.60374 -1.93329 0
M  V30 1138 H 103.018 -3.86133 -0.681468 0
M  V30 1139 H 104.508 -3.82708 -1.67105 0
M  V30 1140 N 104.945 -0.338344 -1.53925 0
M  V30 1141 C 105.908 0.508299 -2.23493 0
M  V30 1142 C 106.908 1.03175 -1.23335 0
M  V30 1143 O 108.098 0.921826 -1.47811 0
M  V30 1144 C 105.23 1.70754 -2.95052 0
M  V30 1145 H 106.423 -0.100058 -2.99733 0
M  V30 1146 H 103.976 -0.0896198 -1.56043 0
M  V30 1147 H 104.711 2.35474 -2.22986 0
M  V30 1148 H 104.496 1.33946 -3.68512 0
M  V30 1149 H 105.986 2.30818 -3.48013 0
M  V30 1150 N 106.423 1.57458 -0.0668435 0
M  V30 1151 C 107.353 2.15468 0.899764 0
M  V30 1152 C 108.334 1.08042 1.31381 0
M  V30 1153 O 109.519 1.36054 1.38574 0
M  V30 1154 C 106.649 2.71232 2.16911 0
M  V30 1155 C 105.603 3.83781 1.89463 0
M  V30 1156 C 104.929 4.26127 3.22986 0
M  V30 1157 C 106.229 5.08238 1.20381 0
M  V30 1158 H 107.923 2.96488 0.416529 0
M  V30 1159 H 105.469 1.4262 0.198908 0
M  V30 1160 H 107.422 3.10458 2.84945 0
M  V30 1161 H 106.146 1.87426 2.67468 0
M  V30 1162 H 104.805 3.45051 1.23836 0
M  V30 1163 H 104.453 3.39249 3.71374 0
M  V30 1164 H 104.153 5.01993 3.05413 0
M  V30 1165 H 105.677 4.67966 3.92225 0
M  V30 1166 H 107.091 5.44811 1.78475 0
M  V30 1167 H 105.488 5.89349 1.13083 0
M  V30 1168 H 106.558 4.84558 0.182153 0
M  V30 1169 N 107.901 -0.206675 1.56239 0
M  V30 1170 C 109.126 -0.949474 1.8439 0
M  V30 1171 C 109.551 -1.76549 0.649016 0
M  V30 1172 O 108.909 -1.76782 -0.402231 0
M  V30 1173 C 108.957 -1.83078 3.10668 0
M  V30 1174 O 108.061 -2.9281 2.90407 0
M  V30 1175 H 107.402 -0.268033 0.607499 0
M  V30 1176 H 109.932 -0.215488 2.03462 0
M  V30 1177 H 109.942 -2.2377 3.41161 0
M  V30 1178 H 108.617 -1.23112 3.97261 0
M  V30 1179 H 107.194 -2.55956 2.71184 0
M  V30 1180 N 109.379 -1.50304 -0.473955 0
M  V30 1181 C 110.289 -1.7174 -1.5982 0
M  V30 1182 C 111.305 -0.600457 -1.63311 0
M  V30 1183 O 112.481 -0.878441 -1.81233 0
M  V30 1184 C 109.546 -1.80427 -2.96052 0
M  V30 1185 C 108.607 -3.04148 -3.02972 0
M  V30 1186 C 107.84 -3.12411 -4.32706 0
M  V30 1187 O 108.063 -2.27542 -5.23049 0
M  V30 1188 O 106.997 -4.05113 -4.45159 0
M  V30 1189 H 110.823 -2.67035 -1.44657 0
M  V30 1190 H 108.408 -1.34366 -0.653148 0
M  V30 1191 H 110.29 -1.88338 -3.7697 0
M  V30 1192 H 108.965 -0.883156 -3.11419 0
M  V30 1193 H 107.872 -3.0174 -2.21142 0
M  V30 1194 H 109.205 -3.95829 -2.92541 0
M  V30 1195 N 110.857 0.726932 -1.39834 0
M  V30 1196 C 111.79 1.8501 -1.33592 0
M  V30 1197 C 112.768 1.61262 -0.208191 0
M  V30 1198 O 113.952 1.84422 -0.389981 0
M  V30 1199 C 111.079 3.21143 -1.07633 0
M  V30 1200 C 110.125 3.63737 -2.22705 0
M  V30 1201 S 110.958 3.72167 -3.85035 0
M  V30 1202 C 112.114 5.11077 -3.61318 0
M  V30 1203 H 112.347 1.90022 -2.28646 0
M  V30 1204 H 109.88 0.892595 -1.25985 0
M  V30 1205 H 111.838 3.99747 -0.933415 0
M  V30 1206 H 110.499 3.13776 -0.142526 0
M  V30 1207 H 109.692 4.62551 -2.00155 0
M  V30 1208 H 109.294 2.9236 -2.33242 0
M  V30 1209 H 111.586 5.97656 -3.19083 0
M  V30 1210 H 112.529 5.38658 -4.59623 0
M  V30 1211 H 112.937 4.81135 -2.95245 0
M  V30 1212 N 112.336 1.25143 0.95797 0
M  V30 1213 C 113.582 1.09855 1.70469 0
M  V30 1214 C 113.915 -0.360187 1.90831 0
M  V30 1215 O 113.19 -1.26568 1.47685 0
M  V30 1216 C 113.473 1.8497 3.08963 0
M  V30 1217 C 113.326 3.38652 2.96032 0
M  V30 1218 C 114.645 1.63016 4.08795 0
M  V30 1219 H 111.764 0.400465 0.618706 0
M  V30 1220 H 114.406 1.53933 1.11376 0
M  V30 1221 H 112.556 1.47505 3.59409 0
M  V30 1222 H 114.228 3.85772 2.52938 0
M  V30 1223 H 112.471 3.66534 2.32025 0
M  V30 1224 H 113.142 3.8642 3.94187 0
M  V30 1225 H 115.618 1.95625 3.67247 0
M  V30 1226 H 114.494 2.18015 5.03747 0
M  V30 1227 H 114.755 0.570692 4.38401 0
M  V30 1228 N 113.814 -1.1601 1.06675 0
M  V30 1229 C 114.724 -2.24156 0.692179 0
M  V30 1230 C 115.74 -1.71507 -0.293513 0
M  V30 1231 O 116.916 -2.009 -0.141861 0
M  V30 1232 C 113.981 -3.46587 0.0884131 0
M  V30 1233 C 113.042 -4.14257 1.12646 0
M  V30 1234 C 112.275 -5.30844 0.551416 0
M  V30 1235 O 112.498 -5.66858 -0.634656 0
M  V30 1236 O 111.432 -5.87848 1.29298 0
M  V30 1237 H 115.258 -2.58513 1.59388 0
M  V30 1238 H 112.843 -1.23599 0.83926 0
M  V30 1239 H 114.725 -4.20679 -0.246361 0
M  V30 1240 H 113.4 -3.13994 -0.786712 0
M  V30 1241 H 112.307 -3.42118 1.51348 0
M  V30 1242 H 113.64 -4.50914 1.97325 0
M  V30 1243 N 115.292 -0.849877 -1.32721 0
M  V30 1244 C 116.522 -0.46408 -2.0132 0
M  V30 1245 C 116.93 0.94246 -1.64056 0
M  V30 1246 O 116.273 1.6257 -0.855379 0
M  V30 1247 C 116.335 -0.517887 -3.5575 0
M  V30 1248 C 115.999 -1.88248 -4.16427 0
M  V30 1249 C 116.996 -2.84726 -4.35002 0
M  V30 1250 C 114.681 -2.17832 -4.52609 0
M  V30 1251 C 116.675 -4.08945 -4.8892 0
M  V30 1252 C 114.362 -3.42304 -5.06232 0
M  V30 1253 C 115.36 -4.37677 -5.24335 0
M  V30 1254 O 115.048 -5.59946 -5.76815 0
M  V30 1255 H 114.78 -0.181327 -0.651227 0
M  V30 1256 H 117.334 -1.14713 -1.70382 0
M  V30 1257 H 115.564 0.221997 -3.86062 0
M  V30 1258 H 117.253 -0.148366 -4.05629 0
M  V30 1259 H 118.019 -2.63174 -4.07388 0
M  V30 1260 H 113.898 -1.44385 -4.37806 0
M  V30 1261 H 117.442 -4.83396 -5.02966 0
M  V30 1262 H 113.339 -3.63709 -5.33278 0
M  V30 1263 H 114.107 -5.61838 -5.95214 0
M  V30 1264 N 116.77 1.45427 -0.607355 0
M  V30 1265 C 118.019 2.01452 -0.100036 0
M  V30 1266 C 118.332 1.48159 1.27704 0
M  V30 1267 O 119.538 1.96159 1.87707 0
M  V30 1268 C 117.994 3.59672 -0.128158 0
M  V30 1269 C 117.602 4.21962 -1.50507 0
M  V30 1270 C 119.346 4.23262 0.323932 0
M  V30 1271 C 117.253 5.72333 -1.48959 0
M  V30 1272 H 116.183 0.75325 -0.0336299 0
M  V30 1273 H 118.834 1.66901 -0.76265 0
M  V30 1274 H 117.216 3.91411 0.601105 0
M  V30 1275 H 118.39 4.01796 -2.25602 0
M  V30 1276 H 116.705 3.70565 -1.89923 0
M  V30 1277 H 119.302 5.33522 0.354691 0
M  V30 1278 H 119.645 3.93921 1.34656 0
M  V30 1279 H 120.178 3.96239 -0.352056 0
M  V30 1280 H 116.917 6.06373 -2.48981 0
M  V30 1281 H 116.437 5.94691 -0.781214 0
M  V30 1282 H 118.116 6.35525 -1.21313 0
M  V30 1283 N 118.248 0.346503 1.53744 0
M  V30 1284 C 119.476 -0.25041 2.05379 0
M  V30 1285 C 119.891 -1.43979 1.22129 0
M  V30 1286 O 119.248 -1.80677 0.257321 0
M  V30 1287 C 119.299 -0.662575 3.55376 0
M  V30 1288 O 119.02 0.479515 4.35468 0
M  V30 1289 C 120.521 -1.31989 4.23195 0
M  V30 1290 H 117.741 -0.0478198 0.669294 0
M  V30 1291 H 120.285 0.499346 1.9831 0
M  V30 1292 H 118.44 -1.36227 3.62658 0
M  V30 1293 H 118.854 0.15037 5.24284 0
M  V30 1294 H 120.328 -1.55902 5.29527 0
M  V30 1295 H 120.805 -2.27436 3.75725 0
M  V30 1296 H 121.411 -0.662154 4.20114 0
M  V30 1297 N 119.726 -1.57421 0.075193 0
M  V30 1298 C 120.676 -2.09441 -0.901025 0
M  V30 1299 C 121.66 -1.00486 -1.25663 0
M  V30 1300 O 122.852 -1.2679 -1.23504 0
M  V30 1301 C 119.981 -2.66233 -2.16737 0
M  V30 1302 C 119.067 -3.82198 -1.83808 0
M  V30 1303 N 119.458 -4.91028 -1.21345 0
M  V30 1304 C 117.756 -3.91558 -2.13538 0
M  V30 1305 C 118.457 -5.71852 -1.06585 0
M  V30 1306 N 117.433 -5.20233 -1.57667 0
M  V30 1307 H 121.235 -2.90972 -0.413815 0
M  V30 1308 H 118.749 -1.6189 -0.128601 0
M  V30 1309 H 120.746 -3.01819 -2.87595 0
M  V30 1310 H 119.406 -1.8615 -2.66042 0
M  V30 1311 H 120.417 -5.10323 -0.88268 0
M  V30 1312 H 117.094 -3.22454 -2.65197 0
M  V30 1313 H 118.484 -6.69401 -0.578933 0
M  V30 1314 N 121.204 0.198386 -1.56346 0
M  V30 1315 C 122.152 1.26538 -1.95169 0
M  V30 1316 C 123.146 1.47295 -0.836685 0
M  V30 1317 O 124.352 1.48195 -1.02167 0
M  V30 1318 H 120.727 0.424744 -0.620561 0
M  V30 1319 H 122.698 0.910904 -2.84157 0
M  V30 1320 C 121.447 2.6035 -2.30463 0
M  V30 1321 H 120.77 2.45192 -3.15786 0
M  V30 1322 H 122.21 3.33762 -2.61494 0
M  V30 1323 C 120.669 3.17096 -1.13806 0
M  V30 1324 O 121.199 3.99588 -0.41135 0
M  V30 1325 N 119.405 2.75795 -0.915736 0
M  V30 1326 H 118.952 2.08816 -1.50843 0
M  V30 1327 H 118.91 3.14101 -0.136979 0
M  V30 1328 N 122.682 1.50554 0.465978 0
M  V30 1329 C 124.098 1.38093 0.800154 0
M  V30 1330 C 124.298 0.440988 1.96615 0
M  V30 1331 O 123.354 -0.114499 2.5224 0
M  V30 1332 C 124.667 2.79565 1.10742 0
M  V30 1333 C 126.215 2.88516 1.21357 0
M  V30 1334 C 126.69 4.30833 1.55393 0
M  V30 1335 N 128.181 4.33807 1.62375 0
M  V30 1336 C 128.916 5.40927 1.90225 0
M  V30 1337 N 128.412 6.58247 2.16062 0
M  V30 1338 N 130.205 5.28376 1.9177 0
M  V30 1339 H 122.356 2.10237 -0.302366 0
M  V30 1340 H 124.619 0.945203 -0.0727746 0
M  V30 1341 H 124.325 3.50208 0.323661 0
M  V30 1342 H 124.199 3.17125 2.04234 0
M  V30 1343 H 126.586 2.1809 1.98799 0
M  V30 1344 H 126.667 2.54492 0.258321 0
M  V30 1345 H 126.311 5.01799 0.784889 0
M  V30 1346 H 126.241 4.62347 2.52076 0
M  V30 1347 H 128.732 3.49212 1.44427 0
M  V30 1348 H 129.045 7.3569 2.36601 0
M  V30 1349 H 127.39 6.61413 2.13444 0
M  V30 1350 H 130.581 4.35715 1.71085 0
M  V30 1351 H 130.754 6.11944 2.13139 0
M  V30 1352 N 124.16 -0.719506 1.40217 0
M  V30 1353 C 125.108 -1.85493 1.40339 0
M  V30 1354 C 126.102 -1.66995 0.284415 0
M  V30 1355 O 127.308 -1.74148 0.455252 0
M  V30 1356 H 123.683 -0.610857 0.438586 0
M  V30 1357 H 125.654 -1.82506 2.36081 0
M  V30 1358 C 124.403 -3.23321 1.27901 0
M  V30 1359 H 123.726 -3.38159 2.1328 0
M  V30 1360 H 125.166 -4.02914 1.32045 0
M  V30 1361 C 123.625 -3.36898 -0.0111355 0
M  V30 1362 O 124.155 -3.89674 -0.975538 0
M  V30 1363 N 122.361 -2.90492 -0.0793393 0
M  V30 1364 H 121.908 -2.47731 0.706183 0
M  V30 1365 H 121.866 -2.99955 -0.942038 0
M  V30 1366 N 125.638 -1.25649 -0.95132 0
M  V30 1367 C 126.884 -1.10757 -1.69884 0
M  V30 1368 C 127.217 0.350061 -1.91019 0
M  V30 1369 O 126.492 1.25783 -1.48354 0
M  V30 1370 C 126.775 -1.86606 -3.07978 0
M  V30 1371 C 126.628 -3.40217 -2.94232 0
M  V30 1372 C 127.947 -1.65182 -4.07925 0
M  V30 1373 H 125.066 -0.40374 -0.616574 0
M  V30 1374 H 127.708 -1.54521 -1.10558 0
M  V30 1375 H 125.858 -1.49409 -3.58621 0
M  V30 1376 H 127.53 -3.87108 -2.50889 0
M  V30 1377 H 125.773 -3.67759 -2.30078 0
M  V30 1378 H 126.444 -3.88505 -3.92133 0
M  V30 1379 H 128.92 -1.9757 -3.66204 0
M  V30 1380 H 127.796 -2.20683 -5.02583 0
M  V30 1381 H 128.057 -0.593933 -4.38092 0
M  V30 1382 N 127.117 1.15442 -1.07289 0
M  V30 1383 C 128.366 1.85557 -0.790669 0
M  V30 1384 C 128.679 1.83186 0.685739 0
M  V30 1385 O 129.885 2.48977 1.0827 0
M  V30 1386 C 128.341 3.33038 -1.36433 0
M  V30 1387 C 127.949 3.43856 -2.8717 0
M  V30 1388 C 129.693 4.0834 -1.1601 0
M  V30 1389 C 127.6 4.85482 -3.3773 0
M  V30 1390 H 126.53 0.695122 -0.292098 0
M  V30 1391 H 129.181 1.30219 -1.29287 0
M  V30 1392 H 127.563 3.88043 -0.789864 0
M  V30 1393 H 128.737 2.98961 -3.50655 0
M  V30 1394 H 127.052 2.81998 -3.06376 0
M  V30 1395 H 129.649 5.12859 -1.51262 0
M  V30 1396 H 129.992 4.16182 -0.0991007 0
M  V30 1397 H 130.525 3.59603 -1.70089 0
M  V30 1398 H 127.264 4.82823 -4.43353 0
M  V30 1399 H 126.784 5.30961 -2.78999 0
M  V30 1400 H 128.463 5.54335 -3.33648 0
M  V30 1401 N 128.595 0.856903 1.32268 0
M  V30 1402 C 129.823 0.475439 2.01363 0
M  V30 1403 C 130.238 -0.928486 1.64392 0
M  V30 1404 O 129.595 -1.60624 0.866387 0
M  V30 1405 C 129.646 0.607545 3.56358 0
M  V30 1406 O 129.367 1.95617 3.92002 0
M  V30 1407 C 130.868 0.225382 4.42727 0
M  V30 1408 H 128.088 0.186636 0.644521 0
M  V30 1409 H 130.632 1.15446 1.68797 0
M  V30 1410 H 128.787 -0.0237719 3.87393 0
M  V30 1411 H 129.201 1.95455 4.86721 0
M  V30 1412 H 130.675 0.368813 5.50767 0
M  V30 1413 H 131.152 -0.834369 4.31202 0
M  V30 1414 H 131.758 0.831864 4.17085 0
M  V30 1415 N 130.073 -1.45103 0.615059 0
M  V30 1416 C 130.983 -2.34382 -0.101034 0
M  V30 1417 C 131.999 -1.51681 -0.852585 0
M  V30 1418 O 133.175 -1.8446 -0.808484 0
M  V30 1419 C 130.24 -3.29417 -1.08099 0
M  V30 1420 C 129.301 -4.28025 -0.330577 0
M  V30 1421 C 128.534 -5.1852 -1.26385 0
M  V30 1422 O 128.757 -5.12598 -2.50198 0
M  V30 1423 O 127.691 -5.97122 -0.756866 0
M  V30 1424 H 131.517 -2.97033 0.632855 0
M  V30 1425 H 129.102 -1.4461 0.375293 0
M  V30 1426 H 130.984 -3.87958 -1.6452 0
M  V30 1427 H 129.659 -2.69321 -1.79577 0
M  V30 1428 H 128.566 -3.73078 0.276283 0
M  V30 1429 H 129.899 -4.90997 0.343866 0
M  V30 1430 N 131.551 -0.354651 -1.53558 0
M  V30 1431 C 132.962 0.126902 -1.86268 0
M  V30 1432 C 133.313 1.49075 -1.27558 0
M  V30 1433 O 132.438 2.08105 -0.5934 0
M  V30 1434 C 133.033 0.237046 -3.3797 0
M  V30 1435 C 131.592 0.662842 -3.70518 0
M  V30 1436 C 130.739 -0.196652 -2.76602 0
M  V30 1437 H 133.69 -0.573849 -1.47962 0
M  V30 1438 H 133.711 1.06259 -3.65362 0
M  V30 1439 H 133.223 -0.755725 -3.80671 0
M  V30 1440 H 131.324 1.66424 -3.33367 0
M  V30 1441 H 131.437 0.445034 -4.77029 0
M  V30 1442 H 129.801 0.332763 -2.52517 0
M  V30 1443 H 130.584 -1.18676 -3.22135 0
M  V30 1444 N 133.029 1.57378 -0.0835403 0
M  V30 1445 C 134.278 1.93106 0.582498 0
M  V30 1446 C 134.591 0.96651 1.70053 0
M  V30 1447 O 135.797 1.21705 2.42693 0
M  V30 1448 C 134.253 3.43076 1.08751 0
M  V30 1449 C 133.861 4.48 -0.000146404 0
M  V30 1450 C 135.605 3.87785 1.72694 0
M  V30 1451 C 133.512 5.89113 0.519568 0
M  V30 1452 H 132.442 0.720775 0.221358 0
M  V30 1453 H 135.093 1.82821 -0.157675 0
M  V30 1454 H 133.475 3.48474 1.88101 0
M  V30 1455 H 134.649 4.54233 -0.775199 0
M  V30 1456 H 132.964 4.1283 -0.54406 0
M  V30 1457 H 135.561 4.90604 2.1263 0
M  V30 1458 H 135.904 3.25796 2.59158 0
M  V30 1459 H 136.437 3.8504 0.999457 0
M  V30 1460 H 133.176 6.54775 -0.308186 0
M  V30 1461 H 132.696 5.86376 1.26188 0
M  V30 1462 H 134.375 6.39346 0.992237 0
M  V30 1463 N 134.507 -0.190092 1.56449 0
M  V30 1464 C 135.737 -0.92443 1.84764 0
M  V30 1465 C 136.145 -1.77146 0.664529 0
M  V30 1466 O 135.488 -1.79812 -0.375957 0
M  V30 1467 C 135.55 -1.86651 3.07248 0
M  V30 1468 C 135.214 -1.20094 4.40938 0
M  V30 1469 C 136.211 -0.575445 5.16706 0
M  V30 1470 C 133.896 -1.2033 4.87674 0
M  V30 1471 C 135.89 0.0388111 6.37388 0
M  V30 1472 C 133.577 -0.585214 6.08291 0
M  V30 1473 C 134.575 0.0347578 6.82991 0
M  V30 1474 O 134.263 0.643147 8.01323 0
M  V30 1475 H 133.995 -0.274974 0.617548 0
M  V30 1476 H 136.549 -0.200788 2.04416 0
M  V30 1477 H 134.779 -2.62998 2.83494 0
M  V30 1478 H 136.468 -2.46907 3.22167 0
M  V30 1479 H 137.234 -0.565728 4.81689 0
M  V30 1480 H 133.113 -1.67526 4.29484 0
M  V30 1481 H 136.657 0.523329 6.95634 0
M  V30 1482 H 132.554 -0.592451 6.42775 0
M  V30 1483 H 133.322 0.540545 8.16713 0
M  V30 1484 N 135.985 -1.50799 -0.457987 0
M  V30 1485 C 137.396 -1.55152 -1.0385 0
M  V30 1486 C 137.747 -0.362719 -1.92818 0
M  V30 1487 O 136.872 0.522915 -2.09987 0
M  V30 1488 C 137.467 -2.81173 -1.89017 0
M  V30 1489 C 136.026 -2.88164 -2.42154 0
M  V30 1490 C 135.173 -2.49591 -1.20829 0
M  V30 1491 H 138.124 -1.56874 -0.240068 0
M  V30 1492 H 138.145 -2.63769 -2.74238 0
M  V30 1493 H 137.657 -3.67677 -1.24238 0
M  V30 1494 H 135.758 -2.06042 -3.10447 0
M  V30 1495 H 135.871 -3.91356 -2.76364 0
M  V30 1496 H 134.235 -2.02322 -1.54719 0
M  V30 1497 H 135.018 -3.38418 -0.576927 0
M  V30 1498 N 137.463 0.71206 -1.40597 0
M  V30 1499 C 138.373 1.8562 -1.43466 0
M  V30 1500 C 139.389 1.70902 -0.326902 0
M  V30 1501 O 140.565 1.93105 -0.572043 0
M  V30 1502 C 137.63 3.21451 -1.29884 0
M  V30 1503 C 136.691 3.48398 -2.50833 0
M  V30 1504 C 135.924 4.77749 -2.3789 0
M  V30 1505 O 136.147 5.53089 -1.39459 0
M  V30 1506 O 135.081 5.05111 -3.27333 0
M  V30 1507 H 138.907 1.86155 -2.39958 0
M  V30 1508 H 136.492 0.86295 -1.21957 0
M  V30 1509 H 138.374 4.02579 -1.24531 0
M  V30 1510 H 137.049 3.21636 -0.364997 0
M  V30 1511 H 135.956 2.67265 -2.61763 0
M  V30 1512 H 137.289 3.53014 -3.4299 0
M  V30 1513 N 138.941 1.26152 0.944643 0
M  V30 1514 C 140.187 1.11657 1.69294 0
M  V30 1515 C 140.52 -0.339926 1.91202 0
M  V30 1516 O 139.795 -1.24994 1.49019 0
M  V30 1517 C 140.078 1.88236 3.06984 0
M  V30 1518 C 139.931 3.41772 2.92424 0
M  V30 1519 C 141.25 1.67343 4.07043 0
M  V30 1520 H 138.369 0.407004 0.614424 0
M  V30 1521 H 141.011 1.55106 1.09737 0
M  V30 1522 H 139.161 1.51308 3.57824 0
M  V30 1523 H 140.833 3.88433 2.48832 0
M  V30 1524 H 139.076 3.68974 2.28124 0
M  V30 1525 H 139.747 3.90579 3.90067 0
M  V30 1526 H 142.223 1.99509 3.65151 0
M  V30 1527 H 141.099 2.23346 5.01406 0
M  V30 1528 H 141.36 0.617158 4.37771 0
M  V30 1529 N 140.419 -1.14872 1.07899 0
M  V30 1530 C 141.665 -1.86064 0.806725 0
M  V30 1531 C 141.998 -1.82434 -0.665706 0
M  V30 1532 O 141.273 -1.25138 -1.48899 0
M  V30 1533 C 141.556 -3.34929 1.32267 0
M  V30 1534 C 141.409 -3.47161 2.86006 0
M  V30 1535 C 142.728 -4.29863 0.943717 0
M  V30 1536 H 139.847 -0.675591 0.294526 0
M  V30 1537 H 142.489 -1.34925 1.33773 0
M  V30 1538 H 140.639 -3.78611 0.870974 0
M  V30 1539 H 142.311 -3.12302 3.39507 0
M  V30 1540 H 140.554 -2.88539 3.23925 0
M  V30 1541 H 141.225 -4.51777 3.17177 0
M  V30 1542 H 143.701 -3.9417 1.33302 0
M  V30 1543 H 142.577 -5.32494 1.33198 0
M  V30 1544 H 142.838 -4.41846 -0.149796 0
M  V30 1545 N 141.898 -0.863906 -1.31812 0
M  V30 1546 C 142.848 -0.286898 -2.26188 0
M  V30 1547 C 143.832 0.572577 -1.50367 0
M  V30 1548 O 145.024 0.420447 -1.71934 0
M  V30 1549 C 142.153 0.515849 -3.39402 0
M  V30 1550 C 141.239 -0.356531 -4.22599 0
M  V30 1551 N 141.63 -1.44716 -4.84656 0
M  V30 1552 C 139.928 -0.147898 -4.45755 0
M  V30 1553 C 140.629 -1.98462 -5.46798 0
M  V30 1554 N 139.605 -1.28247 -5.28255 0
M  V30 1555 H 143.407 -1.12055 -2.717 0
M  V30 1556 H 140.921 -0.711012 -1.46008 0
M  V30 1557 H 142.918 0.945701 -4.06032 0
M  V30 1558 H 141.578 1.34718 -2.95434 0
M  V30 1559 H 142.589 -1.83008 -4.84488 0
M  V30 1560 H 139.266 0.647973 -4.12441 0
M  V30 1561 H 140.656 -2.89932 -6.06126 0
M  V30 1562 N 143.376 1.44774 -0.622745 0
M  V30 1563 C 144.309 2.27792 0.136329 0
M  V30 1564 C 145.287 1.38041 0.859264 0
M  V30 1565 O 146.471 1.67478 0.86506 0
M  V30 1566 C 143.598 3.16776 1.19878 0
M  V30 1567 C 142.644 4.22575 0.57731 0
M  V30 1568 S 143.477 5.31825 -0.626294 0
M  V30 1569 C 144.633 6.24377 0.436378 0
M  V30 1570 H 144.866 2.91824 -0.567967 0
M  V30 1571 H 142.399 1.48838 -0.410677 0
M  V30 1572 H 144.357 3.68596 1.80686 0
M  V30 1573 H 143.018 2.5198 1.87523 0
M  V30 1574 H 142.211 4.84818 1.37721 0
M  V30 1575 H 141.813 3.73974 0.0440439 0
M  V30 1576 H 144.105 6.64689 1.31128 0
M  V30 1577 H 145.048 7.07941 -0.150271 0
M  V30 1578 H 145.456 5.59381 0.758513 0
M  V30 1579 N 144.854 0.36279 1.53368 0
M  V30 1580 C 146.101 -0.227776 2.01215 0
M  V30 1581 C 146.429 -1.49003 1.25014 0
M  V30 1582 O 145.684 -1.92876 0.331236 0
M  V30 1583 C 145.983 -0.568417 3.52851 0
M  V30 1584 C 145.649 0.59918 4.46901 0
M  V30 1585 C 144.311 0.919559 4.72332 0
M  V30 1586 C 146.663 1.38156 5.02556 0
M  V30 1587 C 143.991 2.02434 5.5067 0
M  V30 1588 C 146.343 2.47674 5.821 0
M  V30 1589 C 145.007 2.8025 6.05819 0
M  V30 1590 H 144.277 -0.083349 0.736297 0
M  V30 1591 H 146.924 0.494677 1.85001 0
M  V30 1592 H 145.229 -1.37185 3.66998 0
M  V30 1593 H 146.926 -1.03756 3.87344 0
M  V30 1594 H 143.516 0.339437 4.27254 0
M  V30 1595 H 147.7 1.14729 4.82857 0
M  V30 1596 H 142.956 2.28075 5.67267 0
M  V30 1597 H 147.13 3.08716 6.24234 0
M  V30 1598 H 144.757 3.65979 6.66306 0
M  V30 1599 N 146.332 -1.57332 0.0918853 0
M  V30 1600 C 147.295 -2.12708 -0.85369 0
M  V30 1601 C 148.295 -1.05561 -1.213 0
M  V30 1602 O 149.485 -1.31461 -1.14296 0
M  V30 1603 C 146.617 -2.64503 -2.15061 0
M  V30 1604 H 147.81 -2.97573 -0.3729 0
M  V30 1605 H 145.363 -1.55509 -0.157072 0
M  V30 1606 H 146.098 -1.83149 -2.67632 0
M  V30 1607 H 145.883 -3.4284 -1.90272 0
M  V30 1608 H 147.373 -3.07351 -2.82711 0
M  V30 1609 N 147.81 0.181792 -1.56548 0
M  V30 1610 C 149.056 0.901431 -1.81665 0
M  V30 1611 C 149.389 1.82347 -0.668075 0
M  V30 1612 O 148.664 1.91669 0.330615 0
M  V30 1613 C 148.947 1.70618 -3.17115 0
M  V30 1614 C 148.8 0.807964 -4.42484 0
M  V30 1615 C 150.119 2.67605 -3.49393 0
M  V30 1616 H 147.238 0.32627 -0.660846 0
M  V30 1617 H 149.88 0.168134 -1.89255 0
M  V30 1618 H 148.03 2.33133 -3.10775 0
M  V30 1619 H 149.702 0.19649 -4.60881 0
M  V30 1620 H 147.945 0.115411 -4.33646 0
M  V30 1621 H 148.616 1.40632 -5.33785 0
M  V30 1622 H 151.092 2.15218 -3.56118 0
M  V30 1623 H 149.968 3.20985 -4.45264 0
M  V30 1624 H 150.229 3.47298 -2.73563 0
M  V30 1625 N 149.288 1.51039 0.449983 0
M  V30 1626 C 150.236 1.71995 1.5659 0
M  V30 1627 C 151.23 0.586029 1.5894 0
M  V30 1628 O 152.436 0.76709 1.62837 0
M  V30 1629 H 148.811 0.543233 0.520001 0
M  V30 1630 H 150.782 2.65562 1.36085 0
M  V30 1631 C 149.531 1.8506 2.9436 0
M  V30 1632 H 148.854 2.71712 2.93279 0
M  V30 1633 H 150.294 2.0374 3.71842 0
M  V30 1634 C 148.753 0.607277 3.31382 0
M  V30 1635 O 149.283 -0.243903 4.00959 0
M  V30 1636 N 147.489 0.455073 2.87015 0
M  V30 1637 H 147.036 1.14879 2.30566 0
M  V30 1638 H 146.994 -0.375611 3.12148 0
M  V30 1639 N 150.766 -0.704594 1.40972 0
M  V30 1640 C 151.699 -1.82861 1.36518 0
M  V30 1641 C 152.677 -1.6091 0.23382 0
M  V30 1642 O 153.861 -1.83778 0.419271 0
M  V30 1643 C 150.988 -3.1939 1.12729 0
M  V30 1644 C 150.034 -3.60148 2.28463 0
M  V30 1645 S 150.867 -3.65994 3.90907 0
M  V30 1646 C 152.023 -5.05264 3.69403 0
M  V30 1647 H 152.256 -1.86361 2.3164 0
M  V30 1648 H 149.789 -0.872439 1.27389 0
M  V30 1649 H 151.747 -3.98211 0.996893 0
M  V30 1650 H 150.408 -3.1351 0.192427 0
M  V30 1651 H 149.601 -4.59309 2.07489 0
M  V30 1652 H 149.203 -2.88612 2.37863 0
M  V30 1653 H 151.495 -5.92504 3.28551 0
M  V30 1654 H 152.438 -5.31278 4.68134 0
M  V30 1655 H 152.846 -4.76377 3.02862 0
M  V30 1656 N 152.244 -1.26651 -0.937939 0
M  V30 1657 C 153.491 -1.12387 -1.6845 0
M  V30 1658 C 153.819 0.332208 -1.91642 0
M  V30 1659 O 153.074 1.2602 -1.49725 0
M  V30 1660 C 153.373 -1.84168 -3.06295 0
M  V30 1661 C 153.039 -3.34056 -3.02849 0
M  V30 1662 C 151.701 -3.74942 -3.01616 0
M  V30 1663 C 154.053 -4.29741 -2.9491 0
M  V30 1664 C 151.381 -5.09894 -2.90215 0
M  V30 1665 C 153.733 -5.64738 -2.8505 0
M  V30 1666 C 152.397 -6.0493 -2.82162 0
M  V30 1667 H 151.667 -0.411252 -0.616403 0
M  V30 1668 H 154.314 -1.57134 -1.09459 0
M  V30 1669 H 152.619 -1.319 -3.6893 0
M  V30 1670 H 154.316 -1.70569 -3.62915 0
M  V30 1671 H 150.906 -3.01534 -3.0459 0
M  V30 1672 H 155.09 -3.99133 -2.94969 0
M  V30 1673 H 150.346 -5.40194 -2.86358 0
M  V30 1674 H 154.52 -6.38561 -2.77872 0
M  V30 1675 H 152.147 -7.09457 -2.73084 0
M  V30 1676 N 153.722 1.14298 -1.08507 0
M  V30 1677 C 155.138 1.37347 -0.812901 0
M  V30 1678 C 155.338 1.93052 0.577325 0
M  V30 1679 O 154.394 2.14389 1.33393 0
M  V30 1680 C 155.707 2.33359 -1.89642 0
M  V30 1681 C 157.255 2.46996 -1.92255 0
M  V30 1682 C 157.73 3.46309 -2.99724 0
M  V30 1683 N 159.221 3.53853 -2.98902 0
M  V30 1684 C 159.956 4.3055 -3.787 0
M  V30 1685 N 159.452 5.10482 -4.6838 0
M  V30 1686 N 161.245 4.25757 -3.66998 0
M  V30 1687 H 153.396 0.764867 -1.9815 0
M  V30 1688 H 155.659 0.398966 -0.859959 0
M  V30 1689 H 155.365 1.99565 -2.89597 0
M  V30 1690 H 155.239 3.33274 -1.76659 0
M  V30 1691 H 157.626 2.80081 -0.929445 0
M  V30 1692 H 157.707 1.47039 -2.09316 0
M  V30 1693 H 157.351 3.13957 -3.99241 0
M  V30 1694 H 157.281 4.46049 -2.79907 0
M  V30 1695 H 159.772 2.96812 -2.33904 0
M  V30 1696 H 160.085 5.66284 -5.25873 0
M  V30 1697 H 158.43 5.09747 -4.72422 0
M  V30 1698 H 161.621 3.62383 -2.96304 0
M  V30 1699 H 161.794 4.85279 -4.29427 0
M  V30 1700 N 155.201 0.870884 1.31352 0
M  V30 1701 C 156.429 0.49677 2.00848 0
M  V30 1702 C 156.844 -0.910998 1.65367 0
M  V30 1703 O 156.201 -1.59696 0.883374 0
M  V30 1704 C 156.252 0.645308 3.55694 0
M  V30 1705 O 155.973 1.99764 3.89905 0
M  V30 1706 C 157.474 0.272326 4.42463 0
M  V30 1707 H 154.694 0.193462 0.642506 0
M  V30 1708 H 157.238 1.1723 1.67563 0
M  V30 1709 H 155.393 0.0173176 3.87396 0
M  V30 1710 H 155.807 2.00607 4.84621 0
M  V30 1711 H 157.281 0.427208 5.50344 0
M  V30 1712 H 157.758 -0.788587 4.32062 0
M  V30 1713 H 158.364 0.876054 4.1618 0
M  V30 1714 N 156.679 -1.44442 0.630414 0
M  V30 1715 C 157.609 -2.33418 -0.0618083 0
M  V30 1716 C 158.59 -1.48165 -0.835541 0
M  V30 1717 O 159.775 -1.76886 -0.801564 0
M  V30 1718 C 156.905 -3.31222 -1.04449 0
M  V30 1719 C 155.859 -4.26288 -0.382436 0
M  V30 1720 C 155.185 -5.13954 -1.47497 0
M  V30 1721 C 156.485 -5.1744 0.710865 0
M  V30 1722 H 158.179 -2.91548 0.681184 0
M  V30 1723 H 155.725 -1.40191 0.329026 0
M  V30 1724 H 157.678 -3.92351 -1.53748 0
M  V30 1725 H 156.402 -2.71299 -1.81836 0
M  V30 1726 H 155.061 -3.6649 0.0899054 0
M  V30 1727 H 154.709 -4.50385 -2.2397 0
M  V30 1728 H 154.409 -5.7837 -1.03737 0
M  V30 1729 H 155.933 -5.77955 -1.96979 0
M  V30 1730 H 157.347 -5.72509 0.300996 0
M  V30 1731 H 155.744 -5.90455 1.07156 0
M  V30 1732 H 156.814 -4.58496 1.57829 0
M  V30 1733 N 158.157 -0.370918 -1.53173 0
M  V30 1734 C 159.568 0.107139 -1.86392 0
M  V30 1735 C 159.919 1.47714 -1.29132 0
M  V30 1736 O 159.044 2.07464 -0.615439 0
M  V30 1737 C 159.639 0.201187 -3.38202 0
M  V30 1738 C 158.198 0.623507 -3.712 0
M  V30 1739 C 157.345 -0.225978 -2.76378 0
M  V30 1740 H 160.296 -0.58951 -1.47345 0
M  V30 1741 H 160.317 1.02377 -3.66468 0
M  V30 1742 H 159.829 -0.796058 -3.79848 0
M  V30 1743 H 157.93 1.62879 -3.35114 0
M  V30 1744 H 158.043 0.394414 -4.77474 0
M  V30 1745 H 156.407 0.305962 -2.52856 0
M  V30 1746 H 157.19 -1.22086 -3.20858 0
M  V30 1747 N 159.635 1.57281 -0.100228 0
M  V30 1748 C 161.046 1.81725 0.428107 0
M  V30 1749 C 161.397 1.01619 1.67833 0
M  V30 1750 O 160.522 0.247098 2.14985 0
M  V30 1751 C 161.117 3.29617 0.78347 0
M  V30 1752 C 159.676 3.54808 1.25653 0
M  V30 1753 C 158.823 2.76118 0.255752 0
M  V30 1754 H 161.774 1.55324 -0.325608 0
M  V30 1755 H 161.795 3.4322 1.64256 0
M  V30 1756 H 161.307 3.87893 -0.12665 0
M  V30 1757 H 159.408 3.01868 2.18418 0
M  V30 1758 H 159.521 4.63443 1.21482 0
M  V30 1759 H 157.885 2.43745 0.738956 0
M  V30 1760 H 158.668 3.37145 -0.647136 0
M  V30 1761 N 161.113 -0.173488 1.56642 0
M  V30 1762 C 162.338 -0.910149 1.86363 0
M  V30 1763 C 162.763 -1.75132 0.686318 0
M  V30 1764 O 162.121 -1.77595 -0.364643 0
M  V30 1765 C 162.169 -1.76447 3.14482 0
M  V30 1766 O 161.273 -2.86584 2.96553 0
M  V30 1767 H 160.614 -0.255086 0.613047 0
M  V30 1768 H 163.144 -0.172283 2.03873 0
M  V30 1769 H 163.154 -2.16483 3.45831 0
M  V30 1770 H 161.829 -1.14658 3.99783 0
M  V30 1771 H 160.406 -2.50146 2.76553 0
M  V30 1772 N 162.591 -1.51276 -0.441967 0
M  V30 1773 C 163.816 -1.67799 -1.21895 0
M  V30 1774 C 164.241 -0.372864 -1.84367 0
M  V30 1775 O 163.599 0.666501 -1.68604 0
M  V30 1776 C 163.647 -2.79199 -2.28211 0
M  V30 1777 O 162.751 -2.42479 -3.33583 0
M  V30 1778 H 162.092 -0.559649 -0.357336 0
M  V30 1779 H 164.622 -1.97815 -0.522522 0
M  V30 1780 H 164.632 -3.03146 -2.73069 0
M  V30 1781 H 163.307 -3.73906 -1.82118 0
M  V30 1782 H 161.884 -2.29087 -2.94234 0
M  V30 1783 N 164.069 0.697108 -1.41344 0
M  V30 1784 C 165.017 1.83237 -1.43272 0
M  V30 1785 C 166.011 1.66522 -0.310947 0
M  V30 1786 O 167.217 1.73402 -0.482899 0
M  V30 1787 H 163.592 0.603802 -0.448249 0
M  V30 1788 H 165.563 1.78727 -2.38954 0
M  V30 1789 C 164.312 3.21245 -1.33029 0
M  V30 1790 H 163.635 3.34723 -2.18633 0
M  V30 1791 H 165.075 4.00763 -1.38439 0
M  V30 1792 C 163.534 3.36873 -0.0424635 0
M  V30 1793 O 164.064 3.91177 0.913421 0
M  V30 1794 N 162.27 2.90581 0.0331145 0
M  V30 1795 H 161.817 2.46577 -0.745506 0
M  V30 1796 H 161.775 3.01416 0.894199 0
M  V30 1797 N 165.547 1.27147 0.931209 0
M  V30 1798 C 166.958 1.12044 1.49342 0
M  V30 1799 C 167.309 -0.295795 1.93957 0
M  V30 1800 O 166.434 -1.18835 1.80852 0
M  V30 1801 C 167.029 2.02781 2.71414 0
M  V30 1802 C 165.588 1.91794 3.2387 0
M  V30 1803 C 164.735 1.95543 1.96617 0
M  V30 1804 H 167.686 1.40091 0.745672 0
M  V30 1805 H 167.707 1.58156 3.46074 0
M  V30 1806 H 167.219 3.05848 2.38911 0
M  V30 1807 H 165.32 0.916992 3.6114 0
M  V30 1808 H 165.433 2.77852 3.90302 0
M  V30 1809 H 163.797 1.39722 2.12955 0
M  V30 1810 H 164.58 3.00259 1.66432 0
M  V30 1811 N 167.025 -1.13721 1.09112 0
M  V30 1812 C 168.253 -1.88773 0.846899 0
M  V30 1813 C 168.668 -1.7896 -0.601572 0
M  V30 1814 O 168.025 -1.15394 -1.41388 0
M  V30 1815 C 168.076 -3.3849 1.26913 0
M  V30 1816 O 167.797 -3.48043 2.66079 0
M  V30 1817 C 169.298 -4.30518 1.05682 0
M  V30 1818 H 166.518 -0.59772 0.304914 0
M  V30 1819 H 169.062 -1.43977 1.45227 0
M  V30 1820 H 167.217 -3.80881 0.707723 0
M  V30 1821 H 167.631 -4.4109 2.83795 0
M  V30 1822 H 169.105 -5.3391 1.40156 0
M  V30 1823 H 169.582 -4.392 -0.00563416 0
M  V30 1824 H 170.188 -3.93893 1.60402 0
M  V30 1825 N 168.503 -0.877838 -1.30888 0
M  V30 1826 C 169.751 -0.491723 -1.96027 0
M  V30 1827 C 170.072 0.960827 -1.69685 0
M  V30 1828 O 169.342 1.67462 -1.01654 0
M  V30 1829 H 167.922 -0.17885 -0.725273 0
M  V30 1830 H 170.584 -1.11935 -1.59551 0
M  V30 1831 H 169.68 -0.656016 -3.05128 0
M  V30 1832 N 169.982 1.44106 -0.638065 0
M  V30 1833 C 170.945 2.29138 0.0531013 0
M  V30 1834 C 171.945 1.41409 0.765506 0
M  V30 1835 O 173.135 1.63206 0.609046 0
M  V30 1836 C 170.267 3.23144 1.08584 0
M  V30 1837 H 171.46 2.91739 -0.694883 0
M  V30 1838 H 169.013 1.51134 -0.398538 0
M  V30 1839 H 169.748 2.65408 1.86357 0
M  V30 1840 H 169.533 3.87804 0.578852 0
M  V30 1841 H 171.023 3.87004 1.56899 0
M  V30 1842 N 171.46 0.379036 1.52974 0
M  V30 1843 C 172.37 -0.468639 2.29872 0
M  V30 1844 C 173.386 -1.08067 1.36373 0
M  V30 1845 O 174.562 -1.08871 1.69438 0
M  V30 1846 C 171.627 -1.58594 3.083 0
M  V30 1847 C 170.688 -1.00007 4.17489 0
M  V30 1848 C 169.921 -2.06413 4.92168 0
M  V30 1849 O 170.144 -3.27751 4.66835 0
M  V30 1850 O 169.078 -1.68717 5.7777 0
M  V30 1851 H 172.904 0.157508 3.03291 0
M  V30 1852 H 170.489 0.143035 1.48714 0
M  V30 1853 H 172.371 -2.23525 3.57232 0
M  V30 1854 H 171.046 -2.19724 2.37703 0
M  V30 1855 H 169.953 -0.314299 3.72777 0
M  V30 1856 H 171.286 -0.433135 4.90291 0
M  V30 1857 N 172.938 -1.57226 0.108567 0
M  V30 1858 C 174.185 -1.94833 -0.551943 0
M  V30 1859 C 174.513 -0.991204 -1.67348 0
M  V30 1860 O 173.768 -0.0131878 -1.95696 0
M  V30 1861 C 174.067 -3.38911 -1.13463 0
M  V30 1862 C 173.733 -4.50696 -0.135509 0
M  V30 1863 C 172.395 -4.80998 0.139252 0
M  V30 1864 C 174.747 -5.18333 0.545957 0
M  V30 1865 C 172.075 -5.76259 1.10194 0
M  V30 1866 C 174.427 -6.14627 1.49721 0
M  V30 1867 C 173.091 -6.43327 1.78006 0
M  V30 1868 H 172.361 -0.712944 -0.20197 0
M  V30 1869 H 175.008 -1.90582 0.18726 0
M  V30 1870 H 173.313 -3.39805 -1.95037 0
M  V30 1871 H 175.01 -3.65317 -1.65362 0
M  V30 1872 H 171.6 -4.27087 -0.359846 0
M  V30 1873 H 175.784 -4.95087 0.346842 0
M  V30 1874 H 171.04 -5.96804 1.32795 0
M  V30 1875 H 175.214 -6.66126 2.03099 0
M  V30 1876 H 172.841 -7.1695 2.52759 0
M  V30 1877 N 174.416 0.165178 -1.56732 0
M  V30 1878 C 175.693 0.908443 -1.73224 0
M  V30 1879 C 176.073 2.0013 -0.67165 0
M  V30 1880 O 175.421 2.26353 0.31253 0
M  V30 1881 C 175.631 1.46756 -3.16644 0
M  V30 1882 C 176.979 1.93809 -3.77787 0
M  V30 1883 O 178.003 1.56537 -3.1996 0
M  V30 1884 O 176.862 2.62486 -4.79336 0
M  V30 1885 H 173.956 0.428025 -0.707618 0
M  V30 1886 H 176.502 0.152526 -1.69013 0
M  V30 1887 H 175.274 0.68129 -3.85323 0
M  V30 1888 H 174.897 2.28749 -3.25207 0
M  V30 1889 N 175.894 1.51508 0.433938 0
M  V30 1890 C 177.305 1.56784 1.01369 0
M  V30 1891 C 177.656 0.393349 1.92217 0
M  V30 1892 O 176.781 -0.489441 2.10792 0
M  V30 1893 C 177.376 2.84144 1.8452 0
M  V30 1894 C 175.935 2.9198 2.37539 0
M  V30 1895 C 175.082 2.51482 1.16843 0
M  V30 1896 H 178.033 1.57236 0.215081 0
M  V30 1897 H 178.054 2.68098 2.70007 0
M  V30 1898 H 177.566 3.69607 1.18373 0
M  V30 1899 H 175.667 2.10955 3.0713 0
M  V30 1900 H 175.78 3.95704 2.70103 0
M  V30 1901 H 174.144 2.04758 1.51481 0
M  V30 1902 H 174.927 3.39293 0.523015 0
M  V30 1903 N 177.372 -0.689602 1.41712 0
M  V30 1904 C 178.282 -1.83314 1.46401 0
M  V30 1905 C 179.298 -1.7036 0.35405 0
M  V30 1906 O 180.474 -1.92171 0.602692 0
M  V30 1907 C 177.539 -3.19344 1.34982 0
M  V30 1908 C 176.6 -3.44363 2.56344 0
M  V30 1909 C 175.833 -4.73904 2.45461 0
M  V30 1910 O 176.056 -5.508 1.48241 0
M  V30 1911 O 174.99 -4.99839 3.35328 0
M  V30 1912 H 178.816 -1.82314 2.42889 0
M  V30 1913 H 176.401 -0.843438 1.23315 0
M  V30 1914 H 178.283 -4.00547 1.3092 0
M  V30 1915 H 176.958 -3.21014 0.41612 0
M  V30 1916 H 175.865 -2.63067 2.65982 0
M  V30 1917 H 177.198 -3.47512 3.48563 0
M  V30 1918 N 178.85 -1.27639 -0.924453 0
M  V30 1919 C 179.76 -1.12466 -2.05885 0
M  V30 1920 C 180.776 -0.053869 -1.73917 0
M  V30 1921 O 181.952 -0.261012 -1.99702 0
M  V30 1922 C 179.017 -0.776768 -3.37886 0
M  V30 1923 C 178.078 -1.92878 -3.83532 0
M  V30 1924 C 177.311 -1.59739 -5.09234 0
M  V30 1925 O 177.534 -0.506782 -5.68144 0
M  V30 1926 O 176.468 -2.43761 -5.50331 0
M  V30 1927 H 180.294 -2.07671 -2.21599 0
M  V30 1928 H 177.879 -1.06857 -1.04413 0
M  V30 1929 H 179.761 -0.596229 -4.17161 0
M  V30 1930 H 178.436 0.145732 -3.23372 0
M  V30 1931 H 177.343 -2.1644 -3.0513 0
M  V30 1932 H 178.676 -2.8316 -4.02593 0
M  V30 1933 N 180.328 1.1314 -1.09713 0
M  V30 1934 C 181.605 1.80762 -0.747302 0
M  V30 1935 C 181.985 1.96663 0.767265 0
M  V30 1936 O 181.333 1.53706 1.69076 0
M  V30 1937 C 181.543 3.15606 -1.48975 0
M  V30 1938 C 182.891 3.90914 -1.65746 0
M  V30 1939 O 183.915 3.25239 -1.45251 0
M  V30 1940 O 182.774 5.08718 -1.9967 0
M  V30 1941 H 179.868 0.782103 -0.268782 0
M  V30 1942 H 182.414 1.20041 -1.19951 0
M  V30 1943 H 181.186 2.99278 -2.52088 0
M  V30 1944 H 180.809 3.84029 -1.02991 0
M  V30 1945 N 181.806 0.884767 1.30421 0
M  V30 1946 C 182.716 0.355398 2.31892 0
M  V30 1947 C 183.732 -0.542261 1.65335 0
M  V30 1948 O 184.908 -0.435432 1.96637 0
M  V30 1949 C 181.973 -0.421661 3.44126 0
M  V30 1950 C 181.034 0.505727 4.26311 0
M  V30 1951 C 180.267 -0.234343 5.33185 0
M  V30 1952 O 180.49 -1.46045 5.51386 0
M  V30 1953 O 179.424 0.415443 6.00465 0
M  V30 1954 H 183.25 1.19685 2.79122 0
M  V30 1955 H 180.835 0.648596 1.34587 0
M  V30 1956 H 182.717 -0.861641 4.12497 0
M  V30 1957 H 181.392 -1.23942 2.99032 0
M  V30 1958 H 180.299 0.994513 3.60639 0
M  V30 1959 H 181.632 1.28948 4.75009 0
M  V30 1960 N 183.284 -1.43765 0.645699 0
M  V30 1961 C 184.695 -1.85193 0.236719 0
M  V30 1962 C 185.046 -1.54045 -1.21509 0
M  V30 1963 O 184.171 -0.985694 -1.92647 0
M  V30 1964 C 184.766 -3.36151 0.422845 0
M  V30 1965 C 183.325 -3.76338 0.0682492 0
M  V30 1966 C 182.472 -2.67538 0.729306 0
M  V30 1967 H 185.423 -1.34025 0.849883 0
M  V30 1968 H 185.444 -3.79032 -0.333904 0
M  V30 1969 H 184.956 -3.5879 1.47958 0
M  V30 1970 H 183.057 -3.59312 -0.986179 0
M  V30 1971 H 183.17 -4.76603 0.488469 0
M  V30 1972 H 181.534 -2.54176 0.163235 0
M  V30 1973 H 182.317 -2.93006 1.78892 0
M  V30 1974 N 184.763 -0.387143 -1.52771 0
M  V30 1975 C 185.991 0.195869 -2.05971 0
M  V30 1976 C 186.406 1.40691 -1.25903 0
M  V30 1977 O 185.763 1.79931 -0.305134 0
M  V30 1978 C 185.814 0.56812 -3.57008 0
M  V30 1979 O 185.535 -0.594803 -4.34043 0
M  V30 1980 C 187.036 1.20723 -4.26545 0
M  V30 1981 H 184.256 0.0300578 -0.670326 0
M  V30 1982 H 186.8 -0.551749 -1.96916 0
M  V30 1983 H 184.955 1.26564 -3.66143 0
M  V30 1984 H 185.369 -0.289322 -5.23701 0
M  V30 1985 H 186.843 1.41807 -5.33474 0
M  V30 1986 H 187.32 2.17395 -3.81623 0
M  V30 1987 H 187.926 0.550535 -4.21722 0
M  V30 1988 N 186.241 1.57166 -0.116904 0
M  V30 1989 C 187.171 2.18222 0.830759 0
M  V30 1990 C 188.152 1.12167 1.27877 0
M  V30 1991 O 189.337 1.40394 1.34176 0
M  V30 1992 C 186.467 2.77996 2.08172 0
M  V30 1993 C 185.421 3.89614 1.77157 0
M  V30 1994 C 184.747 4.36187 3.09265 0
M  V30 1995 C 186.047 5.1181 1.04151 0
M  V30 1996 H 187.741 2.97664 0.321992 0
M  V30 1997 H 185.287 1.4318 0.153434 0
M  V30 1998 H 187.24 3.19366 2.74924 0
M  V30 1999 H 185.964 1.9584 2.6137 0
M  V30 2000 H 184.623 3.48816 1.12796 0
M  V30 2001 H 184.271 3.50893 3.60393 0
M  V30 2002 H 183.971 5.11455 2.89288 0
M  V30 2003 H 185.495 4.80207 3.77139 0
M  V30 2004 H 186.909 5.50214 1.61052 0
M  V30 2005 H 185.306 5.92648 0.942762 0
M  V30 2006 H 186.376 4.84892 0.0279022 0
M  V30 2007 N 187.719 -0.156864 1.56817 0
M  V30 2008 C 188.629 -1.2136 2.00771 0
M  V30 2009 C 189.645 -1.47598 0.921459 0
M  V30 2010 O 190.821 -1.59462 1.2302 0
M  V30 2011 C 187.886 -2.52943 2.37109 0
M  V30 2012 C 186.947 -2.34439 3.59634 0
M  V30 2013 C 186.18 -3.59748 3.94229 0
M  V30 2014 O 186.403 -4.65526 3.29609 0
M  V30 2015 O 185.337 -3.52998 4.8752 0
M  V30 2016 H 189.163 -0.870468 2.90958 0
M  V30 2017 H 186.748 -0.36484 1.44877 0
M  V30 2018 H 188.63 -3.30538 2.61386 0
M  V30 2019 H 187.305 -2.86806 1.5008 0
M  V30 2020 H 186.212 -1.54828 3.40557 0
M  V30 2021 H 187.545 -2.05496 4.4725 0
M  V30 2022 N 189.197 -1.51736 -0.425897 0
M  V30 2023 C 190.16 -1.73271 -1.50032 0
M  V30 2024 C 191.16 -0.602639 -1.4908 0
M  V30 2025 O 192.35 -0.87033 -1.509 0
M  V30 2026 C 189.482 -1.79969 -2.89523 0
M  V30 2027 H 190.675 -2.69172 -1.32237 0
M  V30 2028 H 188.228 -1.41899 -0.65532 0
M  V30 2029 H 188.963 -0.859241 -3.1271 0
M  V30 2030 H 188.748 -2.62109 -2.91619 0
M  V30 2031 H 190.238 -1.9843 -3.67444 0
M  V30 2032 N 190.675 0.682077 -1.42076 0
M  V30 2033 C 191.638 1.77756 -1.44691 0
M  V30 2034 C 192.638 1.5726 -0.335535 0
M  V30 2035 O 193.828 1.63686 -0.596037 0
M  V30 2036 C 190.96 3.16301 -1.27146 0
M  V30 2037 H 192.153 1.76826 -2.42224 0
M  V30 2038 H 189.706 0.891012 -1.28416 0
M  V30 2039 H 190.441 3.22862 -0.305075 0
M  V30 2040 H 190.226 3.32581 -2.07683 0
M  V30 2041 H 191.716 3.96241 -1.31843 0
M  V30 2042 N 192.153 1.28127 0.917671 0
M  V30 2043 C 193.399 1.16232 1.66918 0
M  V30 2044 C 193.754 -0.28701 1.90247 0
M  V30 2045 O 193.047 -1.20586 1.48895 0
M  V30 2046 C 193.241 1.89018 3.03327 0
M  V30 2047 C 193.07 3.4088 2.9331 0
M  V30 2048 C 191.84 4.10214 2.95047 0
M  V30 2049 C 194.038 4.36689 2.71675 0
M  V30 2050 N 192.02 5.48571 2.75577 0
M  V30 2051 C 193.391 5.62382 2.6101 0
M  V30 2052 C 195.446 4.26661 2.56641 0
M  V30 2053 C 194.149 6.79189 2.36843 0
M  V30 2054 C 196.175 5.432 2.33853 0
M  V30 2055 C 195.537 6.67855 2.23939 0
M  V30 2056 H 191.636 0.48024 0.617166 0
M  V30 2057 H 194.22 1.61727 1.08409 0
M  V30 2058 H 192.391 1.45963 3.59929 0
M  V30 2059 H 194.123 1.69541 3.67475 0
M  V30 2060 H 190.878 3.61762 3.05655 0
M  V30 2061 H 191.302 6.21287 2.68945 0
M  V30 2062 H 195.944 3.30998 2.63059 0
M  V30 2063 H 193.662 7.74926 2.29164 0
M  V30 2064 H 197.248 5.37328 2.23091 0
M  V30 2065 H 196.128 7.56511 2.06546 0
M  V30 2066 N 193.631 -1.12557 1.10312 0
M  V30 2067 C 195.042 -1.65574 0.862678 0
M  V30 2068 C 195.393 -1.86566 -0.607256 0
M  V30 2069 O 194.518 -1.59121 -1.46662 0
M  V30 2070 C 195.113 -3.00776 1.55947 0
M  V30 2071 C 193.672 -3.50748 1.36576 0
M  V30 2072 C 192.819 -2.25797 1.60968 0
M  V30 2073 H 195.77 -0.963552 1.26101 0
M  V30 2074 H 195.791 -3.67185 0.997753 0
M  V30 2075 H 195.303 -2.85465 2.62928 0
M  V30 2076 H 193.404 -3.71245 0.317531 0
M  V30 2077 H 193.517 -4.30289 2.10686 0
M  V30 2078 H 191.881 -2.32841 1.03234 0
M  V30 2079 H 192.664 -2.13043 2.69198 0
M  V30 2080 N 195.109 -0.891671 -1.2995 0
M  V30 2081 C 196.059 -0.334811 -2.25528 0
M  V30 2082 C 197.043 0.540553 -1.51548 0
M  V30 2083 O 198.235 0.383882 -1.72787 0
M  V30 2084 C 195.364 0.44374 -3.4042 0
M  V30 2085 C 194.45 -0.44609 -4.21747 0
M  V30 2086 N 194.841 -1.54963 -4.81477 0
M  V30 2087 C 193.139 -0.242415 -4.45341 0
M  V30 2088 C 193.84 -2.10015 -5.42465 0
M  V30 2089 N 192.816 -1.39423 -5.25416 0
M  V30 2090 H 196.618 -1.17792 -2.69262 0
M  V30 2091 H 194.132 -0.741822 -1.44467 0
M  V30 2092 H 196.129 0.859362 -4.07947 0
M  V30 2093 H 194.789 1.28421 -2.98225 0
M  V30 2094 H 195.8 -1.93244 -4.80497 0
M  V30 2095 H 192.477 0.560342 -4.13723 0
M  V30 2096 H 193.867 -3.02724 -5.9984 0
M  V30 2097 N 196.587 1.43421 -0.653314 0
M  V30 2098 C 197.517 2.33487 0.0246656 0
M  V30 2099 C 198.498 1.49475 0.811863 0
M  V30 2100 O 199.683 1.78139 0.773322 0
M  V30 2101 C 196.813 3.32841 0.99166 0
M  V30 2102 C 195.767 4.26842 0.314568 0
M  V30 2103 C 195.093 5.16236 1.39302 0
M  V30 2104 C 196.393 5.16243 -0.793095 0
M  V30 2105 H 198.087 2.90427 -0.727481 0
M  V30 2106 H 195.633 1.39649 -0.351287 0
M  V30 2107 H 197.586 3.94747 1.47487 0
M  V30 2108 H 196.31 2.74158 1.77497 0
M  V30 2109 H 194.969 3.663 -0.148199 0
M  V30 2110 H 194.617 4.53891 2.16776 0
M  V30 2111 H 194.317 5.79948 0.945223 0
M  V30 2112 H 195.841 5.81015 1.87759 0
M  V30 2113 H 197.255 5.71958 -0.392039 0
M  V30 2114 H 195.652 5.88676 -1.16536 0
M  V30 2115 H 196.722 4.55927 -1.65103 0
M  V30 2116 N 198.065 0.39524 1.52563 0
M  V30 2117 C 198.997 -0.472201 2.24283 0
M  V30 2118 C 200.01 -1.02178 1.26742 0
M  V30 2119 O 201.199 -0.923097 1.52778 0
M  V30 2120 C 198.299 -1.66775 2.95024 0
M  V30 2121 C 197.472 -1.2445 4.19322 0
M  V30 2122 C 196.531 -2.30539 4.7301 0
M  V30 2123 O 195.557 -1.91702 5.35947 0
M  V30 2124 N 196.759 -3.6253 4.53379 0
M  V30 2125 H 199.524 0.142282 2.99362 0
M  V30 2126 H 197.085 0.2219 1.60372 0
M  V30 2127 H 199.077 -2.37283 3.27839 0
M  V30 2128 H 197.647 -2.18845 2.23217 0
M  V30 2129 H 196.867 -0.368069 3.92478 0
M  V30 2130 H 198.155 -0.938457 5.0007 0
M  V30 2131 H 197.553 -3.96841 4.03154 0
M  V30 2132 H 196.11 -4.29055 4.90668 0
M  V30 2133 N 199.544 -1.57102 0.125237 0
M  V30 2134 C 200.474 -2.18659 -0.819174 0
M  V30 2135 C 201.455 -1.12843 -1.27281 0
M  V30 2136 O 202.64 -1.41104 -1.33429 0
M  V30 2137 C 199.77 -2.79096 -2.06695 0
M  V30 2138 C 198.724 -3.90548 -1.75088 0
M  V30 2139 C 198.05 -4.37821 -3.06948 0
M  V30 2140 C 199.35 -5.12356 -1.01435 0
M  V30 2141 H 201.044 -2.9783 -0.306202 0
M  V30 2142 H 198.59 -1.4326 -0.145839 0
M  V30 2143 H 200.543 -3.2082 -2.73226 0
M  V30 2144 H 199.267 -1.97223 -2.60328 0
M  V30 2145 H 197.926 -3.49409 -1.10944 0
M  V30 2146 H 197.574 -3.52799 -3.58527 0
M  V30 2147 H 197.274 -5.12982 -2.86571 0
M  V30 2148 H 198.798 -4.822 -3.74587 0
M  V30 2149 H 200.212 -5.5106 -1.58132 0
M  V30 2150 H 198.609 -5.9314 -0.911319 0
M  V30 2151 H 199.679 -4.849 -0.00218681 0
M  V30 2152 N 201.022 0.148545 -1.56898 0
M  V30 2153 C 202.268 0.862694 -1.83536 0
M  V30 2154 C 202.601 1.80889 -0.706604 0
M  V30 2155 O 201.876 1.92328 0.289885 0
M  V30 2156 C 202.159 1.63853 -3.20662 0
M  V30 2157 C 202.012 0.713925 -4.44098 0
M  V30 2158 C 203.331 2.60133 -3.54991 0
M  V30 2159 H 200.45 0.312179 -0.667618 0
M  V30 2160 H 203.092 0.127953 -1.89569 0
M  V30 2161 H 201.242 2.26489 -3.1565 0
M  V30 2162 H 202.914 0.098686 -4.61194 0
M  V30 2163 H 201.157 0.0234019 -4.33794 0
M  V30 2164 H 201.828 1.29278 -5.36648 0
M  V30 2165 H 204.304 2.07616 -3.60603 0
M  V30 2166 H 203.18 3.11468 -4.51972 0
M  V30 2167 H 203.441 3.41417 -2.80868 0
M  V30 2168 N 202.5 1.5196 0.417844 0
M  V30 2169 C 203.73 1.69181 1.18581 0
M  V30 2170 C 204.138 0.397104 1.84986 0
M  V30 2171 O 203.481 -0.636011 1.72339 0
M  V30 2172 C 203.543 2.76497 2.29759 0
M  V30 2173 C 203.207 4.18514 1.83563 0
M  V30 2174 C 204.204 5.02648 1.32821 0
M  V30 2175 C 201.889 4.64708 1.90661 0
M  V30 2176 C 203.883 6.31044 0.897894 0
M  V30 2177 C 201.57 5.93096 1.47241 0
M  V30 2178 C 202.568 6.76093 0.968891 0
M  V30 2179 O 202.256 8.02078 0.540924 0
M  V30 2180 H 201.988 0.570457 0.362705 0
M  V30 2181 H 204.542 1.99249 0.498885 0
M  V30 2182 H 202.772 2.41786 3.01789 0
M  V30 2183 H 204.461 2.82403 2.91553 0
M  V30 2184 H 205.227 4.68154 1.26716 0
M  V30 2185 H 201.106 4.00216 2.28797 0
M  V30 2186 H 204.65 6.95776 0.504192 0
M  V30 2187 H 200.547 6.271 1.53022 0
M  V30 2188 H 201.315 8.15794 0.66502 0
M  V30 2189 N 203.978 -0.674533 1.42435 0
M  V30 2190 C 204.888 -1.81751 1.48337 0
M  V30 2191 C 205.904 -1.69975 0.372099 0
M  V30 2192 O 207.08 -1.91521 0.62304 0
M  V30 2193 C 204.145 -3.17895 1.38361 0
M  V30 2194 C 203.206 -3.41625 2.59982 0
M  V30 2195 C 202.439 -4.71274 2.50473 0
M  V30 2196 O 202.662 -5.49197 1.54075 0
M  V30 2197 O 201.596 -4.96254 3.4061 0
M  V30 2198 H 205.422 -1.79728 2.44809 0
M  V30 2199 H 203.007 -0.830312 1.24202 0
M  V30 2200 H 204.889 -3.99136 1.35161 0
M  V30 2201 H 203.564 -3.20555 0.450144 0
M  V30 2202 H 202.471 -2.60231 2.68757 0
M  V30 2203 H 203.804 -3.43796 3.52229 0
M  V30 2204 N 205.456 -1.28612 -0.910864 0
M  V30 2205 C 206.703 -1.15934 -1.66029 0
M  V30 2206 C 207.031 0.291483 -1.92303 0
M  V30 2207 O 206.286 1.22816 -1.52364 0
M  V30 2208 C 206.585 -1.90624 -3.0232 0
M  V30 2209 C 206.251 -3.40405 -2.95695 0
M  V30 2210 C 204.913 -3.81255 -2.93595 0
M  V30 2211 C 207.265 -4.359 -2.85728 0
M  V30 2212 C 204.593 -5.15936 -2.79334 0
M  V30 2213 C 206.945 -5.70657 -2.73007 0
M  V30 2214 C 205.609 -6.10779 -2.69267 0
M  V30 2215 H 204.879 -0.424234 -0.607541 0
M  V30 2216 H 207.526 -1.5942 -1.06101 0
M  V30 2217 H 205.831 -1.39696 -3.6605 0
M  V30 2218 H 207.528 -1.78228 -3.59215 0
M  V30 2219 H 204.118 -3.07927 -2.98125 0
M  V30 2220 H 208.302 -4.053 -2.86436 0
M  V30 2221 H 203.558 -5.46146 -2.74835 0
M  V30 2222 H 207.732 -6.44311 -2.64264 0
M  V30 2223 H 205.359 -7.1509 -2.57974 0
M  V30 2224 N 206.934 1.1197 -1.10907 0
M  V30 2225 C 208.181 1.83588 -0.854507 0
M  V30 2226 C 208.509 1.84357 0.6199 0
M  V30 2227 O 207.764 1.28809 1.47332 0
M  V30 2228 C 208.063 3.30749 -1.35425 0
M  V30 2229 C 207.729 3.50146 -2.84093 0
M  V30 2230 C 206.391 3.55148 -3.2469 0
M  V30 2231 C 208.743 3.56857 -3.79872 0
M  V30 2232 C 206.071 3.6441 -4.59806 0
M  V30 2233 C 208.423 3.6765 -5.14797 0
M  V30 2234 C 207.087 3.7091 -5.54961 0
M  V30 2235 H 206.357 0.671795 -0.312686 0
M  V30 2236 H 209.004 1.32091 -1.38652 0
M  V30 2237 H 207.309 3.84703 -0.742361 0
M  V30 2238 H 209.006 3.8464 -1.1337 0
M  V30 2239 H 205.596 3.46919 -2.51685 0
M  V30 2240 H 209.78 3.52258 -3.49611 0
M  V30 2241 H 205.036 3.65208 -4.9034 0
M  V30 2242 H 209.21 3.71786 -5.88853 0
M  V30 2243 H 206.837 3.7784 -6.59652 0
M  V30 2244 N 208.412 0.89855 1.29475 0
M  V30 2245 C 209.342 0.39201 2.30186 0
M  V30 2246 C 210.323 -0.532359 1.61555 0
M  V30 2247 O 211.508 -0.443331 1.89072 0
M  V30 2248 C 208.638 -0.382353 3.45189 0
M  V30 2249 C 207.592 0.451483 4.25612 0
M  V30 2250 C 206.918 -0.450307 5.328 0
M  V30 2251 C 208.218 1.70079 4.93832 0
M  V30 2252 H 209.912 1.23362 2.72804 0
M  V30 2253 H 207.458 0.594638 1.31149 0
M  V30 2254 H 209.411 -0.747451 4.14718 0
M  V30 2255 H 208.135 -1.25774 3.01411 0
M  V30 2256 H 206.794 0.798897 3.57789 0
M  V30 2257 H 206.442 -1.32379 4.85268 0
M  V30 2258 H 206.142 0.103902 5.87508 0
M  V30 2259 H 207.666 -0.811623 6.05182 0
M  V30 2260 H 209.08 1.40549 5.55805 0
M  V30 2261 H 207.477 2.19623 5.58467 0
M  V30 2262 H 208.547 2.43744 4.19186 0
M  V30 2263 N 209.89 -1.43072 0.660911 0
M  V30 2264 C 211.306 -1.56169 0.329173 0
M  V30 2265 C 211.506 -1.64317 -1.16629 0
M  V30 2266 O 210.562 -1.60245 -1.95135 0
M  V30 2267 C 211.875 -2.81873 1.04729 0
M  V30 2268 C 213.423 -2.95627 1.02828 0
M  V30 2269 C 213.898 -4.24174 1.72744 0
M  V30 2270 N 215.389 -4.31055 1.69545 0
M  V30 2271 C 216.124 -5.29304 2.20511 0
M  V30 2272 N 215.62 -6.33786 2.79799 0
M  V30 2273 N 217.413 -5.21008 2.10966 0
M  V30 2274 H 209.564 -1.36027 1.63127 0
M  V30 2275 H 211.827 -0.653823 0.686454 0
M  V30 2276 H 211.533 -2.81942 2.10242 0
M  V30 2277 H 211.407 -3.72338 0.603702 0
M  V30 2278 H 213.794 -2.95094 -0.0184742 0
M  V30 2279 H 213.875 -2.06431 1.51063 0
M  V30 2280 H 213.519 -4.25467 2.7738 0
M  V30 2281 H 213.449 -5.1228 1.2197 0
M  V30 2282 H 215.94 -3.56174 1.26288 0
M  V30 2283 H 216.253 -7.05086 3.16344 0
M  V30 2284 H 214.598 -6.34387 2.83863 0
M  V30 2285 H 217.789 -4.38301 1.64347 0
M  V30 2286 H 217.962 -5.97416 2.50993 0
M  V30 2287 N 211.368 -0.403325 -1.52352 0
M  V30 2288 C 212.615 0.174347 -2.01748 0
M  V30 2289 C 212.943 1.45636 -1.2892 0
M  V30 2290 O 212.198 1.9193 -0.382258 0
M  V30 2291 C 212.497 0.474665 -3.54234 0
M  V30 2292 C 212.163 -0.717458 -4.45155 0
M  V30 2293 C 210.825 -1.04447 -4.69728 0
M  V30 2294 C 213.177 -1.51432 -4.98716 0
M  V30 2295 C 210.505 -2.16963 -5.45109 0
M  V30 2296 C 212.857 -2.6302 -5.75329 0
M  V30 2297 C 211.521 -2.96213 -5.98175 0
M  V30 2298 H 210.791 0.0637981 -0.738248 0
M  V30 2299 H 213.438 -0.543553 -1.83624 0
M  V30 2300 H 211.743 1.27406 -3.70506 0
M  V30 2301 H 213.44 0.934496 -3.89959 0
M  V30 2302 H 210.03 -0.452596 -4.26204 0
M  V30 2303 H 214.214 -1.27491 -4.79645 0
M  V30 2304 H 209.47 -2.43034 -5.61021 0
M  V30 2305 H 213.644 -3.25158 -6.15829 0
M  V30 2306 H 211.271 -3.83516 -6.56368 0
M  V30 2307 N 212.846 1.57033 -0.133567 0
M  V30 2308 C 213.776 2.1909 0.807567 0
M  V30 2309 C 214.757 1.13517 1.26681 0
M  V30 2310 O 215.942 1.41809 1.32679 0
M  V30 2311 C 213.072 2.80188 2.05212 0
M  V30 2312 C 212.026 3.91471 1.73015 0
M  V30 2313 C 211.352 4.39443 3.04622 0
M  V30 2314 C 212.652 5.12886 0.987168 0
M  V30 2315 H 214.346 2.97988 0.290403 0
M  V30 2316 H 211.892 1.43335 0.138239 0
M  V30 2317 H 213.845 3.22264 2.71521 0
M  V30 2318 H 212.569 1.98601 2.59278 0
M  V30 2319 H 211.228 3.49993 1.0909 0
M  V30 2320 H 210.876 3.54695 3.56651 0
M  V30 2321 H 210.576 5.14495 2.83847 0
M  V30 2322 H 212.1 4.8418 3.72024 0
M  V30 2323 H 213.514 5.51891 1.55208 0
M  V30 2324 H 211.911 5.93615 0.87985 0
M  V30 2325 H 212.981 4.84894 -0.0235286 0
M  V30 2326 N 214.325 -0.140222 1.56975 0
M  V30 2327 C 215.235 -1.19223 2.02047 0
M  V30 2328 C 216.251 -1.46612 0.937062 0
M  V30 2329 O 217.427 -1.58148 1.24704 0
M  V30 2330 C 214.492 -2.50414 2.39778 0
M  V30 2331 C 213.553 -2.30612 3.621 0
M  V30 2332 C 212.786 -3.55547 3.98023 0
M  V30 2333 O 213.009 -4.62004 3.34528 0
M  V30 2334 O 211.943 -3.47808 4.91237 0
M  V30 2335 H 215.769 -0.839559 2.91865 0
M  V30 2336 H 213.354 -0.349453 1.45256 0
M  V30 2337 H 215.236 -3.27747 2.64877 0
M  V30 2338 H 213.911 -2.85198 1.53114 0
M  V30 2339 H 212.818 -1.51207 3.4218 0
M  V30 2340 H 214.151 -2.00741 4.49404 0
M  V30 2341 N 215.803 -1.52179 -0.40978 0
M  V30 2342 C 217.028 -1.70347 -1.18308 0
M  V30 2343 C 217.453 -0.411887 -1.83535 0
M  V30 2344 O 216.811 0.630587 -1.6998 0
M  V30 2345 C 216.859 -2.83977 -2.22238 0
M  V30 2346 O 215.963 -2.495 -3.28365 0
M  V30 2347 H 215.304 -0.567103 -0.345384 0
M  V30 2348 H 217.834 -1.98879 -0.480445 0
M  V30 2349 H 217.844 -3.0887 -2.66577 0
M  V30 2350 H 216.519 -3.77685 -1.74146 0
M  V30 2351 H 215.096 -2.35277 -2.89308 0
M  V30 2352 N 217.281 0.66697 -1.42791 0
M  V30 2353 C 218.692 1.2478 -1.38877 0
M  V30 2354 C 219.043 1.96012 -0.0859426 0
M  V30 2355 O 218.168 2.00463 0.815081 0
M  V30 2356 C 218.763 2.26938 -2.51564 0
M  V30 2357 C 217.322 2.80529 -2.50959 0
M  V30 2358 C 216.469 1.54965 -2.29959 0
M  V30 2359 H 219.42 0.459853 -1.51892 0
M  V30 2360 H 219.441 3.08834 -2.22265 0
M  V30 2361 H 218.953 1.75065 -3.46372 0
M  V30 2362 H 217.054 3.36502 -1.59991 0
M  V30 2363 H 217.167 3.29012 -3.48265 0
M  V30 2364 H 215.531 1.81817 -1.78366 0
M  V30 2365 H 216.314 1.05047 -3.26833 0
M  V30 2366 N 218.759 1.29093 0.90403 0
M  V30 2367 C 220.036 1.075 1.63411 0
M  V30 2368 C 220.416 -0.382346 2.07609 0
M  V30 2369 O 219.764 -1.37031 1.82851 0
M  V30 2370 C 219.974 2.05858 2.81822 0
M  V30 2371 C 221.322 2.36539 3.52611 0
M  V30 2372 O 222.346 2.04019 2.91984 0
M  V30 2373 O 221.205 2.92085 4.61897 0
M  V30 2374 H 218.299 0.411547 0.717327 0
M  V30 2375 H 220.845 1.40449 0.952479 0
M  V30 2376 H 219.617 3.04037 2.46327 0
M  V30 2377 H 219.24 1.73613 3.57693 0
M  V30 2378 N 220.237 -1.11381 1.11499 0
M  V30 2379 C 221.484 -1.83132 0.864231 0
M  V30 2380 C 221.812 -1.84683 -0.610114 0
M  V30 2381 O 221.067 -1.29589 -1.46646 0
M  V30 2382 C 221.366 -3.30026 1.37177 0
M  V30 2383 C 221.032 -3.48634 2.85946 0
M  V30 2384 C 219.694 -3.53421 3.26569 0
M  V30 2385 C 222.046 -3.54837 3.81759 0
M  V30 2386 C 219.374 -3.61967 4.61733 0
M  V30 2387 C 221.726 -3.64915 5.1674 0
M  V30 2388 C 220.39 -3.67962 5.5692 0
M  V30 2389 H 219.66 -0.670127 0.316245 0
M  V30 2390 H 222.307 -1.31354 1.3935 0
M  V30 2391 H 220.612 -3.84304 0.762753 0
M  V30 2392 H 222.309 -3.84034 1.15408 0
M  V30 2393 H 218.899 -3.45579 2.53521 0
M  V30 2394 H 223.083 -3.50399 3.51474 0
M  V30 2395 H 218.339 -3.62603 4.92269 0
M  V30 2396 H 222.513 -3.68658 5.90816 0
M  V30 2397 H 220.14 -3.74336 6.61647 0
M  V30 2398 N 221.715 -0.905404 -1.28997 0
M  V30 2399 C 222.647 -0.344748 -2.26592 0
M  V30 2400 C 223.66 0.512135 -1.54535 0
M  V30 2401 O 224.849 0.328368 -1.75454 0
M  V30 2402 C 221.949 0.526587 -3.34784 0
M  V30 2403 C 221.122 -0.305871 -4.36329 0
M  V30 2404 C 220.181 0.499209 -5.23827 0
M  V30 2405 O 219.207 -0.0853004 -5.69136 0
M  V30 2406 N 220.409 1.80408 -5.51755 0
M  V30 2407 H 223.174 -1.18359 -2.75338 0
M  V30 2408 H 220.735 -0.770481 -1.42391 0
M  V30 2409 H 222.727 1.07171 -3.90252 0
M  V30 2410 H 221.297 1.26613 -2.85811 0
M  V30 2411 H 220.517 -1.0324 -3.80441 0
M  V30 2412 H 221.805 -0.875773 -5.01206 0
M  V30 2413 H 221.203 2.3016 -5.16762 0
M  V30 2414 H 219.76 2.29621 -6.10014 0
M  V30 2415 N 223.193 1.4272 -0.668489 0
M  V30 2416 C 224.604 1.84793 -0.266151 0
M  V30 2417 C 224.955 1.55959 1.19043 0
M  V30 2418 O 224.08 1.01622 1.91055 0
M  V30 2419 C 224.675 3.35436 -0.476271 0
M  V30 2420 C 223.234 3.76182 -0.128113 0
M  V30 2421 C 222.381 2.66344 -0.771777 0
M  V30 2422 H 225.332 1.32656 -0.871098 0
M  V30 2423 H 225.353 3.79515 0.273561 0
M  V30 2424 H 224.865 3.5639 -1.53647 0
M  V30 2425 H 222.966 3.60836 0.928891 0
M  V30 2426 H 223.079 4.75766 -0.564231 0
M  V30 2427 H 221.443 2.53885 -0.203652 0
M  V30 2428 H 222.226 2.90123 -1.83531 0
M  V30 2429 N 224.671 0.411399 1.52136 0
M  V30 2430 C 225.619 -0.427633 2.28635 0
M  V30 2431 C 226.613 -1.04383 1.33419 0
M  V30 2432 O 227.819 -0.981772 1.50868 0
M  V30 2433 H 224.194 -0.156689 0.735495 0
M  V30 2434 H 226.165 0.238761 2.97443 0
M  V30 2435 C 224.914 -1.53082 3.12188 0
M  V30 2436 H 224.237 -1.06601 3.85326 0
M  V30 2437 H 225.677 -2.09167 3.68816 0
M  V30 2438 C 224.136 -2.49946 2.25895 0
M  V30 2439 O 224.666 -3.53884 1.90076 0
M  V30 2440 N 222.872 -2.2021 1.8962 0
M  V30 2441 H 222.419 -1.35719 2.18948 0
M  V30 2442 H 222.377 -2.85266 1.32176 0
M  V30 2443 N 226.149 -1.5696 0.141893 0
M  V30 2444 C 227.398 -1.95135 -0.510427 0
M  V30 2445 C 227.711 -1.02896 -1.66348 0
M  V30 2446 O 228.917 -1.30629 -2.38009 0
M  V30 2447 C 227.373 -3.46876 -0.959427 0
M  V30 2448 C 226.981 -4.47691 0.166419 0
M  V30 2449 C 228.725 -3.93927 -1.58183 0
M  V30 2450 C 226.632 -5.90636 -0.300565 0
M  V30 2451 H 225.562 -0.728494 -0.194454 0
M  V30 2452 H 228.213 -1.8211 0.22542 0
M  V30 2453 H 226.595 -3.55215 -1.75038 0
M  V30 2454 H 227.769 -4.51043 0.94325 0
M  V30 2455 H 226.084 -4.10527 0.696905 0
M  V30 2456 H 228.681 -4.98158 -1.94275 0
M  V30 2457 H 229.024 -3.3519 -2.46888 0
M  V30 2458 H 229.557 -3.88484 -0.855863 0
M  V30 2459 H 226.296 -6.5318 0.550989 0
M  V30 2460 H 225.816 -5.90655 -1.04338 0
M  V30 2461 H 227.495 -6.42588 -0.754265 0
M  V30 2462 N 227.627 0.131896 -1.57047 0
M  V30 2463 C 228.59 1.14638 -1.98471 0
M  V30 2464 C 229.59 1.35029 -0.873148 0
M  V30 2465 O 230.78 1.31764 -1.13946 0
M  V30 2466 C 227.912 2.50358 -2.31373 0
M  V30 2467 H 229.105 0.79064 -2.8929 0
M  V30 2468 H 226.658 0.375761 -1.51716 0
M  V30 2469 H 227.393 2.90876 -1.43393 0
M  V30 2470 H 227.178 2.36915 -3.12432 0
M  V30 2471 H 228.668 3.23395 -2.64207 0
M  V30 2472 N 229.106 1.52395 0.401703 0
M  V30 2473 C 230.053 1.76268 1.48991 0
M  V30 2474 C 231.023 0.605386 1.54675 0
M  V30 2475 O 232.208 0.843742 1.7113 0
M  V30 2476 C 229.348 1.92592 2.86361 0
M  V30 2477 C 228.461 3.20259 2.89928 0
M  V30 2478 C 227.596 3.26972 4.18644 0
M  V30 2479 C 226.635 4.48812 4.16214 0
M  V30 2480 N 225.772 4.52877 5.36514 0
M  V30 2481 H 230.612 2.6914 1.27935 0
M  V30 2482 H 228.149 1.33355 0.620871 0
M  V30 2483 H 230.107 2.0004 3.66115 0
M  V30 2484 H 228.737 1.03093 3.05895 0
M  V30 2485 H 227.789 3.21945 2.02621 0
M  V30 2486 H 229.101 4.10056 2.83999 0
M  V30 2487 H 228.255 3.33533 5.06794 0
M  V30 2488 H 226.994 2.35126 4.27278 0
M  V30 2489 H 225.999 4.4239 3.26453 0
M  V30 2490 H 227.224 5.41961 4.09213 0
M  V30 2491 H 225.17 3.63917 5.45802 0
M  V30 2492 H 225.087 5.36529 5.32609 0
M  V30 2493 H 226.355 4.63676 6.26597 0
M  V30 2494 N 230.584 -0.659388 1.43143 0
M  V30 2495 C 231.531 -1.77249 1.47822 0
M  V30 2496 C 232.501 -1.62818 0.328558 0
M  V30 2497 O 233.686 -1.83151 0.534838 0
M  V30 2498 C 230.826 -3.15371 1.40126 0
M  V30 2499 C 229.939 -3.4098 2.65249 0
M  V30 2500 C 229.074 -4.68915 2.49584 0
M  V30 2501 C 228.113 -4.87608 3.70006 0
M  V30 2502 N 227.25 -6.06796 3.53189 0
M  V30 2503 H 232.09 -1.72584 2.42938 0
M  V30 2504 H 229.627 -0.842297 1.20598 0
M  V30 2505 H 231.585 -3.9521 1.33659 0
M  V30 2506 H 230.215 -3.19121 0.485964 0
M  V30 2507 H 229.267 -2.55282 2.8202 0
M  V30 2508 H 230.579 -3.50681 3.54717 0
M  V30 2509 H 229.733 -5.56871 2.4079 0
M  V30 2510 H 228.472 -4.61524 1.5763 0
M  V30 2511 H 227.477 -3.9809 3.79215 0
M  V30 2512 H 228.702 -4.96834 4.62961 0
M  V30 2513 H 226.648 -6.00549 2.63965 0
M  V30 2514 H 226.565 -6.17428 4.36255 0
M  V30 2515 H 227.833 -6.9739 3.48236 0
M  V30 2516 N 232.062 -1.29571 -0.897171 0
M  V30 2517 C 233.292 -1.20408 -1.67886 0
M  V30 2518 C 233.7 0.237429 -1.87704 0
M  V30 2519 O 233.043 1.17048 -1.41582 0
M  V30 2520 C 233.105 -1.84887 -3.08314 0
M  V30 2521 C 232.769 -3.34189 -3.11716 0
M  V30 2522 C 233.766 -4.30374 -2.91675 0
M  V30 2523 C 231.451 -3.75431 -3.33701 0
M  V30 2524 C 233.445 -5.65776 -2.93557 0
M  V30 2525 C 231.132 -5.10955 -3.35214 0
M  V30 2526 C 232.13 -6.05938 -3.15164 0
M  V30 2527 O 231.818 -7.38987 -3.1647 0
M  V30 2528 H 231.55 -0.418289 -0.531046 0
M  V30 2529 H 234.104 -1.71514 -1.13014 0
M  V30 2530 H 232.334 -1.28295 -3.64798 0
M  V30 2531 H 234.023 -1.70011 -3.6858 0
M  V30 2532 H 234.789 -3.99844 -2.74499 0
M  V30 2533 H 230.668 -3.01953 -3.48347 0
M  V30 2534 H 234.212 -6.39889 -2.77826 0
M  V30 2535 H 230.109 -5.4113 -3.51922 0
M  V30 2536 H 230.877 -7.47823 -3.3272 0
M  V30 2537 N 233.54 1.10788 -1.12088 0
M  V30 2538 C 234.789 1.82036 -0.868659 0
M  V30 2539 C 235.102 1.85929 0.607426 0
M  V30 2540 O 236.308 2.53346 0.97613 0
M  V30 2541 C 234.764 3.26951 -1.50435 0
M  V30 2542 C 234.372 3.31367 -3.01496 0
M  V30 2543 C 236.116 4.03053 -1.33225 0
M  V30 2544 C 234.023 4.7072 -3.58017 0
M  V30 2545 H 232.953 0.682108 -0.321318 0
M  V30 2546 H 235.604 1.24618 -1.34694 0
M  V30 2547 H 233.986 3.84343 -0.953735 0
M  V30 2548 H 235.16 2.83819 -3.6302 0
M  V30 2549 H 233.475 2.6875 -3.18061 0
M  V30 2550 H 236.072 5.05981 -1.72878 0
M  V30 2551 H 236.415 4.15387 -0.275529 0
M  V30 2552 H 236.948 3.52066 -1.85188 0
M  V30 2553 H 233.687 4.63585 -4.63432 0
M  V30 2554 H 233.207 5.1865 -3.01268 0
M  V30 2555 H 234.886 5.39685 -3.56859 0
M  V30 2556 N 235.018 0.912232 1.28515 0
M  V30 2557 C 236.295 0.463597 1.90027 0
M  V30 2558 C 236.675 -1.05753 1.82701 0
M  V30 2559 O 236.023 -1.90492 1.26194 0
M  V30 2560 C 236.233 0.992253 3.34597 0
M  V30 2561 C 237.581 1.04344 4.11579 0
M  V30 2562 O 238.605 0.94079 3.43551 0
M  V30 2563 O 237.464 1.1995 5.33174 0
M  V30 2564 H 234.558 0.146666 0.813891 0
M  V30 2565 H 237.104 1.00292 1.36893 0
M  V30 2566 H 235.876 2.03623 3.34146 0
M  V30 2567 H 235.499 0.433672 3.95228 0
M  V30 2568 N 236.496 -1.42363 0.676048 0
M  V30 2569 C 237.428 -2.29164 -0.0404605 0
M  V30 2570 C 238.441 -1.43747 -0.764245 0
M  V30 2571 O 239.63 -1.67453 -0.618195 0
M  V30 2572 C 236.73 -3.21196 -1.08103 0
M  V30 2573 C 235.903 -4.35273 -0.430812 0
M  V30 2574 C 234.962 -5.08017 -1.37133 0
M  V30 2575 O 233.988 -5.62494 -0.87116 0
M  V30 2576 N 235.19 -5.13647 -2.70456 0
M  V30 2577 H 237.955 -2.91298 0.704667 0
M  V30 2578 H 235.516 -1.53303 0.520559 0
M  V30 2579 H 237.508 -3.66728 -1.71152 0
M  V30 2580 H 236.078 -2.60505 -1.72788 0
M  V30 2581 H 235.298 -3.92372 0.379209 0
M  V30 2582 H 236.586 -5.08795 0.0221132 0
M  V30 2583 H 235.984 -4.708 -3.1363 0
M  V30 2584 H 234.541 -5.62821 -3.28749 0
M  V30 2585 N 237.974 -0.419461 -1.51915 0
M  V30 2586 C 238.921 0.400927 -2.27291 0
M  V30 2587 C 239.891 1.03224 -1.30131 0
M  V30 2588 O 241.076 1.05455 -1.59009 0
M  V30 2589 C 238.216 1.50603 -3.10504 0
M  V30 2590 C 237.329 0.89462 -4.22635 0
M  V30 2591 C 236.464 1.97328 -4.93189 0
M  V30 2592 C 235.503 1.33935 -5.97267 0
M  V30 2593 N 234.64 2.3586 -6.61298 0
M  V30 2594 H 239.48 -0.248251 -2.96964 0
M  V30 2595 H 237.017 -0.134266 -1.46486 0
M  V30 2596 H 238.975 2.15783 -3.57062 0
M  V30 2597 H 237.605 2.12509 -2.42981 0
M  V30 2598 H 236.657 0.131583 -3.80172 0
M  V30 2599 H 237.969 0.391641 -4.9726 0
M  V30 2600 H 237.123 2.70211 -5.43204 0
M  V30 2601 H 235.862 2.50994 -4.18155 0
M  V30 2602 H 234.867 0.595896 -5.46561 0
M  V30 2603 H 236.092 0.810252 -6.74249 0
M  V30 2604 H 234.038 2.88639 -5.89087 0
M  V30 2605 H 233.955 1.90403 -7.3163 0
M  V30 2606 H 235.223 3.08282 -7.15949 0
M  V30 2607 N 239.452 1.56882 -0.150215 0
M  V30 2608 C 240.699 1.96228 0.500093 0
M  V30 2609 C 241.027 1.03522 1.64661 0
M  V30 2610 O 240.282 0.0650683 1.95592 0
M  V30 2611 C 240.581 3.41801 1.04437 0
M  V30 2612 C 240.247 4.50897 0.0159671 0
M  V30 2613 C 238.909 4.8046 -0.266731 0
M  V30 2614 C 241.261 5.16703 -0.683192 0
M  V30 2615 C 238.589 5.73135 -1.25434 0
M  V30 2616 C 240.941 6.10441 -1.65964 0
M  V30 2617 C 239.605 6.38382 -1.95 0
M  V30 2618 H 238.875 0.718048 0.182997 0
M  V30 2619 H 241.522 1.90019 -0.237724 0
M  V30 2620 H 239.827 3.44857 1.85959 0
M  V30 2621 H 241.524 3.69573 1.55618 0
M  V30 2622 H 238.114 4.27891 0.246485 0
M  V30 2623 H 242.298 4.93993 -0.477983 0
M  V30 2624 H 237.554 5.93074 -1.48571 0
M  V30 2625 H 241.728 6.60507 -2.20689 0
M  V30 2626 H 239.355 7.09996 -2.71679 0
M  V30 2627 N 240.93 -0.123565 1.57115 0
M  V30 2628 C 242.176 -0.833386 1.84885 0
M  V30 2629 C 242.509 -1.79742 0.735292 0
M  V30 2630 O 241.784 -1.92764 -0.25925 0
M  V30 2631 C 242.067 -1.5873 3.23228 0
M  V30 2632 C 241.92 -0.643183 4.45178 0
M  V30 2633 C 243.239 -2.54453 3.59085 0
M  V30 2634 H 240.358 -0.301518 0.6725 0
M  V30 2635 H 243 -0.097778 1.89748 0
M  V30 2636 H 241.15 -2.21438 3.19214 0
M  V30 2637 H 242.822 -0.0253015 4.61293 0
M  V30 2638 H 241.065 0.0456139 4.33776 0
M  V30 2639 H 241.736 -1.20724 5.38637 0
M  V30 2640 H 244.212 -2.01853 3.63861 0
M  V30 2641 H 243.088 -3.04238 4.5687 0
M  V30 2642 H 243.349 -3.36906 2.86264 0
M  V30 2643 N 242.408 -1.52605 -0.393616 0
M  V30 2644 C 243.338 -1.80022 -1.48709 0
M  V30 2645 C 244.319 -0.651995 -1.57108 0
M  V30 2646 O 245.504 -0.89913 -1.72132 0
M  V30 2647 C 242.634 -1.96492 -2.86371 0
M  V30 2648 C 241.588 -3.12161 -2.92813 0
M  V30 2649 C 240.914 -3.13877 -4.3288 0
M  V30 2650 C 242.214 -4.51322 -2.6288 0
M  V30 2651 H 243.908 -2.71589 -1.26015 0
M  V30 2652 H 241.454 -1.30684 -0.604778 0
M  V30 2653 H 243.407 -2.14255 -3.62867 0
M  V30 2654 H 242.131 -1.01611 -3.10391 0
M  V30 2655 H 240.79 -2.94173 -2.18764 0
M  V30 2656 H 240.438 -2.16687 -4.53933 0
M  V30 2657 H 240.138 -3.91576 -4.38112 0
M  V30 2658 H 241.662 -3.33789 -5.1129 0
M  V30 2659 H 243.076 -4.69435 -3.29096 0
M  V30 2660 H 241.473 -5.31053 -2.79468 0
M  V30 2661 H 242.543 -4.58353 -1.58242 0
M  V30 2662 N 243.887 0.651787 -1.4349 0
M  V30 2663 C 244.819 1.77725 -1.44729 0
M  V30 2664 C 245.832 1.59141 -0.343231 0
M  V30 2665 O 247.021 1.67835 -0.607751 0
M  V30 2666 C 244.121 3.15172 -1.24579 0
M  V30 2667 C 243.294 3.60402 -2.47849 0
M  V30 2668 C 242.353 4.76656 -2.22902 0
M  V30 2669 O 241.379 4.86022 -2.96263 0
M  V30 2670 N 242.581 5.66958 -1.24656 0
M  V30 2671 H 245.346 1.77141 -2.41746 0
M  V30 2672 H 242.907 0.835678 -1.38665 0
M  V30 2673 H 244.899 3.90634 -1.0577 0
M  V30 2674 H 243.469 3.1052 -0.360015 0
M  V30 2675 H 242.689 2.75369 -2.82073 0
M  V30 2676 H 243.977 3.87368 -3.29884 0
M  V30 2677 H 243.375 5.62065 -0.640265 0
M  V30 2678 H 241.932 6.42135 -1.1183 0
M  V30 2679 N 245.365 1.30045 0.890287 0
M  V30 2680 C 246.295 1.18541 2.01172 0
M  V30 2681 C 247.276 0.0773356 1.69924 0
M  V30 2682 O 248.461 0.25845 1.92473 0
M  V30 2683 C 245.591 0.870941 3.36202 0
M  V30 2684 C 244.545 1.93637 3.81692 0
M  V30 2685 C 243.871 1.475 5.13953 0
M  V30 2686 C 245.171 3.34666 4.00994 0
M  V30 2687 H 246.865 2.12359 2.11054 0
M  V30 2688 H 244.411 1.02238 1.01407 0
M  V30 2689 H 246.364 0.777141 4.14172 0
M  V30 2690 H 245.088 -0.102926 3.26438 0
M  V30 2691 H 243.747 2.01972 3.05946 0
M  V30 2692 H 243.395 0.489551 5.00612 0
M  V30 2693 H 243.095 2.1876 5.4536 0
M  V30 2694 H 244.619 1.39489 5.94454 0
M  V30 2695 H 246.033 3.2912 4.69417 0
M  V30 2696 H 244.43 4.03966 4.43769 0
M  V30 2697 H 245.5 3.76949 3.05021 0
M  V30 2698 N 246.843 -1.10192 1.12674 0
M  V30 2699 C 247.773 -2.18652 0.819362 0
M  V30 2700 C 248.754 -1.68698 -0.217915 0
M  V30 2701 O 249.939 -1.94041 -0.0785581 0
M  V30 2702 C 247.069 -3.46202 0.27594 0
M  V30 2703 C 246.023 -4.09444 1.24656 0
M  V30 2704 C 245.349 -5.31725 0.563258 0
M  V30 2705 C 246.649 -4.52863 2.60217 0
M  V30 2706 H 248.343 -2.44622 1.72628 0
M  V30 2707 H 245.889 -1.17571 0.831451 0
M  V30 2708 H 247.842 -4.21372 0.0486149 0
M  V30 2709 H 246.566 -3.1973 -0.666331 0
M  V30 2710 H 245.225 -3.36284 1.45974 0
M  V30 2711 H 244.873 -5.0153 -0.384235 0
M  V30 2712 H 244.573 -5.74991 1.21075 0
M  V30 2713 H 246.097 -6.09624 0.34503 0
M  V30 2714 H 247.511 -5.19294 2.42913 0
M  V30 2715 H 245.908 -5.06986 3.21068 0
M  V30 2716 H 246.978 -3.65656 3.18471 0
M  V30 2717 N 248.321 -0.919034 -1.28029 0
M  V30 2718 C 249.231 -0.416756 -2.30869 0
M  V30 2719 C 250.247 0.498235 -1.66714 0
M  V30 2720 O 251.423 0.383144 -1.97722 0
M  V30 2721 C 248.488 0.330274 -3.45123 0
M  V30 2722 C 247.549 -0.618578 -4.2482 0
M  V30 2723 C 246.782 0.0928959 -5.33619 0
M  V30 2724 O 247.005 1.31375 -5.55065 0
M  V30 2725 O 245.939 -0.574499 -5.99152 0
M  V30 2726 H 249.765 -1.27043 -2.75851 0
M  V30 2727 H 247.35 -0.684052 -1.3282 0
M  V30 2728 H 249.232 0.751972 -4.14636 0
M  V30 2729 H 247.907 1.1597 -3.02213 0
M  V30 2730 H 246.814 -1.08978 -3.57875 0
M  V30 2731 H 248.147 -1.41497 -4.71423 0
M  V30 2732 N 249.799 1.42003 -0.683588 0
M  V30 2733 C 250.729 2.33487 -0.024866 0
M  V30 2734 C 251.71 1.51163 0.779975 0
M  V30 2735 O 252.895 1.79739 0.735362 0
M  V30 2736 C 250.025 3.3487 0.920836 0
M  V30 2737 C 248.979 4.27414 0.223958 0
M  V30 2738 C 248.305 5.19074 1.2832 0
M  V30 2739 C 249.605 5.14445 -0.90242 0
M  V30 2740 H 251.299 2.88819 -0.788921 0
M  V30 2741 H 248.845 1.38873 -0.38083 0
M  V30 2742 H 250.798 3.97787 1.39081 0
M  V30 2743 H 249.522 2.77861 1.71642 0
M  V30 2744 H 248.181 3.65904 -0.225864 0
M  V30 2745 H 247.829 4.58387 2.071 0
M  V30 2746 H 247.529 5.81822 0.821995 0
M  V30 2747 H 249.053 5.84867 1.75392 0
M  V30 2748 H 250.467 5.70998 -0.513272 0
M  V30 2749 H 248.864 5.86072 -1.28997 0
M  V30 2750 H 249.934 4.52322 -1.74737 0
M  V30 2751 N 251.277 0.427512 1.51691 0
M  V30 2752 C 252.524 -0.142229 2.02 0
M  V30 2753 C 252.852 -1.43566 1.31221 0
M  V30 2754 O 252.107 -1.91298 0.412744 0
M  V30 2755 C 252.406 -0.418249 3.54944 0
M  V30 2756 C 252.072 0.788187 4.43958 0
M  V30 2757 C 250.734 1.11906 4.68007 0
M  V30 2758 C 253.086 1.59347 4.96244 0
M  V30 2759 C 250.414 2.25608 5.41588 0
M  V30 2760 C 252.766 2.7214 5.71072 0
M  V30 2761 C 251.43 3.05692 5.93387 0
M  V30 2762 H 250.7 -0.0520451 0.73917 0
M  V30 2763 H 253.347 0.572697 1.82736 0
M  V30 2764 H 251.652 -1.21496 3.72486 0
M  V30 2765 H 253.349 -0.872339 3.91397 0
M  V30 2766 H 249.939 0.520344 4.2543 0
M  V30 2767 H 254.123 1.35106 4.77556 0
M  V30 2768 H 249.379 2.51929 5.57083 0
M  V30 2769 H 253.553 3.34914 6.10578 0
M  V30 2770 H 251.18 3.9391 6.50184 0
M  V30 2771 N 252.755 -1.56801 0.158532 0
M  V30 2772 C 254.032 -1.88131 -0.535357 0
M  V30 2773 C 254.412 -1.06638 -1.82186 0
M  V30 2774 O 253.76 -0.156533 -2.27963 0
M  V30 2775 C 253.97 -3.39949 -0.789653 0
M  V30 2776 C 255.318 -4.09416 -1.12533 0
M  V30 2777 O 256.342 -3.45194 -0.878622 0
M  V30 2778 O 255.201 -5.22855 -1.59014 0
M  V30 2779 H 252.295 -0.780143 -0.27442 0
M  V30 2780 H 254.841 -1.68564 0.19601 0
M  V30 2781 H 253.613 -3.91115 0.120353 0
M  V30 2782 H 253.236 -3.65084 -1.57479 0
M  V30 2783 N 254.233 0.115231 -1.57178 0
M  V30 2784 C 255.458 0.840354 -1.89612 0
M  V30 2785 C 255.883 1.72464 -0.750845 0
M  V30 2786 O 255.241 1.78826 0.298478 0
M  V30 2787 C 255.289 1.64654 -3.20814 0
M  V30 2788 O 254.393 2.7538 -3.06985 0
M  V30 2789 H 253.734 0.232158 -0.622092 0
M  V30 2790 H 256.264 0.0964977 -2.04372 0
M  V30 2791 H 256.274 2.03499 -3.53627 0
M  V30 2792 H 254.949 0.997416 -4.03763 0
M  V30 2793 H 253.526 2.3971 -2.85646 0
M  V30 2794 N 255.711 1.52812 0.385517 0
M  V30 2795 C 256.621 1.80766 1.49535 0
M  V30 2796 C 257.637 0.694651 1.59532 0
M  V30 2797 O 258.813 0.982611 1.75803 0
M  V30 2798 C 255.878 1.97381 2.85029 0
M  V30 2799 C 254.939 3.21295 2.84724 0
M  V30 2800 C 254.172 3.37108 4.13756 0
M  V30 2801 O 254.395 2.5765 5.08893 0
M  V30 2802 O 253.329 4.30378 4.20783 0
M  V30 2803 H 257.155 2.75015 1.28842 0
M  V30 2804 H 254.74 1.37946 0.573697 0
M  V30 2805 H 256.622 2.09996 3.65349 0
M  V30 2806 H 255.297 1.06322 3.05741 0
M  V30 2807 H 254.204 3.1412 2.03174 0
M  V30 2808 H 255.537 4.12212 2.68965 0
M  V30 2809 N 257.189 -0.644168 1.43834 0
M  V30 2810 C 258.466 -1.40188 1.36406 0
M  V30 2811 C 258.846 -2.11094 0.0163124 0
M  V30 2812 O 258.194 -2.05426 -1.00062 0
M  V30 2813 C 258.404 -2.3791 2.55343 0
M  V30 2814 C 259.752 -3.01637 2.98832 0
M  V30 2815 O 260.776 -2.48237 2.55455 0
M  V30 2816 O 259.635 -3.98477 3.74003 0
M  V30 2817 H 256.729 -0.626773 0.539523 0
M  V30 2818 H 259.275 -0.670317 1.559 0
M  V30 2819 H 258.047 -1.84525 3.4506 0
M  V30 2820 H 257.67 -3.18503 2.37995 0
M  V30 2821 N 258.668 -1.30515 -0.883378 0
M  V30 2822 C 260.079 -1.17509 -1.45081 0
M  V30 2823 C 260.43 0.223605 -1.94922 0
M  V30 2824 O 259.555 1.12041 -1.85137 0
M  V30 2825 C 260.15 -2.12715 -2.63701 0
M  V30 2826 C 258.709 -2.03682 -3.16529 0
M  V30 2827 C 257.856 -2.02706 -1.89224 0
M  V30 2828 H 260.807 -1.42762 -0.693165 0
M  V30 2829 H 260.828 -1.70891 -3.39965 0
M  V30 2830 H 260.34 -3.14505 -2.27395 0
M  V30 2831 H 258.441 -1.05039 -3.57488 0
M  V30 2832 H 258.554 -2.92146 -3.7972 0
M  V30 2833 H 256.918 -1.4753 -2.07622 0
M  V30 2834 H 257.701 -3.06229 -1.55174 0
M  V30 2835 N 260.146 1.09593 -1.13257 0
M  V30 2836 C 261.562 1.33775 -0.870423 0
M  V30 2837 C 261.762 1.95327 0.494926 0
M  V30 2838 O 260.818 2.19853 1.2418 0
M  V30 2839 C 262.131 2.25106 -1.99369 0
M  V30 2840 C 263.679 2.3862 -2.02558 0
M  V30 2841 C 264.154 3.33285 -3.14142 0
M  V30 2842 N 265.645 3.40857 -3.13641 0
M  V30 2843 C 266.38 4.14101 -3.96621 0
M  V30 2844 N 265.876 4.90157 -4.8961 0
M  V30 2845 N 267.669 4.09808 -3.84726 0
M  V30 2846 H 259.82 0.680136 -2.01216 0
M  V30 2847 H 262.083 0.362133 -0.876107 0
M  V30 2848 H 261.789 1.87103 -2.97801 0
M  V30 2849 H 261.663 3.25481 -1.90635 0
M  V30 2850 H 264.05 2.75887 -1.0474 0
M  V30 2851 H 264.131 1.38028 -2.15364 0
M  V30 2852 H 263.775 2.96741 -4.12198 0
M  V30 2853 H 263.705 4.33776 -2.98574 0
M  V30 2854 H 266.196 2.86624 -2.46282 0
M  V30 2855 H 266.509 5.4347 -5.49418 0
M  V30 2856 H 264.854 4.89251 -4.93617 0
M  V30 2857 H 268.045 3.4949 -3.11408 0
M  V30 2858 H 268.218 4.66629 -4.49623 0
M  V30 2859 N 261.624 0.925811 1.2754 0
M  V30 2860 C 262.534 0.428993 2.30644 0
M  V30 2861 C 263.55 -0.489387 1.66976 0
M  V30 2862 O 264.726 -0.372653 1.97922 0
M  V30 2863 C 261.791 -0.311967 3.45294 0
M  V30 2864 C 260.852 0.641098 4.24486 0
M  V30 2865 C 260.085 -0.0645955 5.33661 0
M  V30 2866 O 260.308 -1.28429 5.55754 0
M  V30 2867 O 259.242 0.606265 5.98839 0
M  V30 2868 H 263.068 1.28504 2.75173 0
M  V30 2869 H 260.653 0.691086 1.32455 0
M  V30 2870 H 262.535 -0.729972 4.15029 0
M  V30 2871 H 261.21 -1.14365 3.02824 0
M  V30 2872 H 260.117 1.10874 3.57292 0
M  V30 2873 H 261.45 1.43995 4.70666 0
M  V30 2874 N 263.102 -1.41638 0.69111 0
M  V30 2875 C 264.518 -1.55435 0.362224 0
M  V30 2876 C 264.718 -1.66754 -1.13117 0
M  V30 2877 O 263.774 -1.64348 -1.91692 0
M  V30 2878 C 265.087 -2.79588 1.10684 0
M  V30 2879 C 266.635 -2.9338 1.09075 0
M  V30 2880 C 267.11 -4.20414 1.81703 0
M  V30 2881 N 268.601 -4.27362 1.7865 0
M  V30 2882 C 269.336 -5.24507 2.31689 0
M  V30 2883 N 268.832 -6.27708 2.93179 0
M  V30 2884 N 270.625 -5.16416 2.2197 0
M  V30 2885 H 262.776 -1.32536 1.65976 0
M  V30 2886 H 265.039 -0.639115 0.700168 0
M  V30 2887 H 264.745 -2.77419 2.16175 0
M  V30 2888 H 264.619 -3.70973 0.682545 0
M  V30 2889 H 267.006 -2.95067 0.0441238 0
M  V30 2890 H 267.087 -2.0318 1.55407 0
M  V30 2891 H 266.731 -4.19488 2.86343 0
M  V30 2892 H 266.661 -5.09578 1.32808 0
M  V30 2893 H 269.152 -3.53415 1.33815 0
M  V30 2894 H 269.465 -6.98217 3.31229 0
M  V30 2895 H 267.81 -6.28223 2.97255 0
M  V30 2896 H 271.001 -4.34716 1.73607 0
M  V30 2897 H 271.174 -5.91958 2.63609 0
M  V30 2898 N 264.58 -0.43555 -1.51462 0
M  V30 2899 C 265.857 0.191364 -1.94662 0
M  V30 2900 C 266.237 1.60254 -1.37411 0
M  V30 2901 O 265.585 2.2152 -0.560458 0
M  V30 2902 C 265.795 0.17091 -3.48581 0
M  V30 2903 C 267.143 0.377357 -4.2292 0
M  V30 2904 O 268.167 0.249104 -3.55328 0
M  V30 2905 O 267.026 0.63247 -5.42828 0
M  V30 2906 H 264.12 0.130932 -0.816569 0
M  V30 2907 H 266.666 -0.4934 -1.62369 0
M  V30 2908 H 265.438 -0.815738 -3.82703 0
M  V30 2909 H 265.061 0.898659 -3.87311 0
M  V30 2910 N 266.058 1.56714 -0.166846 0
M  V30 2911 C 267.305 1.96747 0.479252 0
M  V30 2912 C 267.633 1.05263 1.63554 0
M  V30 2913 O 266.888 0.0858098 1.95512 0
M  V30 2914 C 267.187 3.42889 1.00806 0
M  V30 2915 C 266.853 4.50889 -0.0318574 0
M  V30 2916 C 265.515 4.8015 -0.317675 0
M  V30 2917 C 267.867 5.15949 -0.737956 0
M  V30 2918 C 265.195 5.71772 -1.31506 0
M  V30 2919 C 267.547 6.08647 -1.72429 0
M  V30 2920 C 266.211 6.36277 -2.0176 0
M  V30 2921 H 265.481 0.719949 0.175371 0
M  V30 2922 H 268.128 1.89756 -0.257864 0
M  V30 2923 H 266.433 3.4681 1.82291 0
M  V30 2924 H 268.13 3.71203 1.51689 0
M  V30 2925 H 264.72 4.28128 0.201088 0
M  V30 2926 H 268.904 4.93458 -0.530351 0
M  V30 2927 H 264.16 5.91465 -1.54853 0
M  V30 2928 H 268.334 6.58129 -2.27682 0
M  V30 2929 H 265.961 7.07075 -2.79194 0
M  V30 2930 N 267.536 -0.106894 1.57237 0
M  V30 2931 C 268.466 -1.13148 2.04254 0
M  V30 2932 C 269.447 -1.42476 0.929224 0
M  V30 2933 O 270.632 -1.52709 1.19973 0
M  V30 2934 C 267.762 -2.4545 2.45706 0
M  V30 2935 C 266.716 -2.30558 3.60592 0
M  V30 2936 C 266.042 -3.67931 3.87983 0
M  V30 2937 C 267.342 -1.75597 4.91897 0
M  V30 2938 H 269.036 -0.740374 2.90101 0
M  V30 2939 H 266.582 -0.354696 1.39563 0
M  V30 2940 H 268.535 -3.17389 2.77205 0
M  V30 2941 H 267.259 -2.86475 1.56843 0
M  V30 2942 H 265.918 -1.61067 3.29322 0
M  V30 2943 H 265.566 -4.06462 2.96306 0
M  V30 2944 H 265.266 -3.58817 4.65322 0
M  V30 2945 H 266.79 -4.41356 4.21945 0
M  V30 2946 H 268.204 -2.37364 5.21854 0
M  V30 2947 H 266.601 -1.77272 5.73319 0
M  V30 2948 H 267.671 -0.714451 4.79608 0
M  V30 2949 N 269.014 -1.53014 -0.377408 0
M  V30 2950 C 269.961 -1.78616 -1.46168 0
M  V30 2951 C 270.931 -0.629917 -1.53692 0
M  V30 2952 O 272.116 -0.870861 -1.69766 0
M  V30 2953 C 269.256 -1.97123 -2.8326 0
M  V30 2954 C 268.369 -3.24831 -2.84796 0
M  V30 2955 C 267.504 -3.33591 -4.13389 0
M  V30 2956 C 266.543 -4.55377 -4.09021 0
M  V30 2957 N 265.68 -4.61355 -5.29241 0
M  V30 2958 H 270.52 -2.71142 -1.23637 0
M  V30 2959 H 268.057 -1.34326 -0.599577 0
M  V30 2960 H 270.015 -2.05839 -3.62886 0
M  V30 2961 H 268.645 -1.07946 -3.04216 0
M  V30 2962 H 267.697 -3.25128 -1.97474 0
M  V30 2963 H 269.009 -4.14523 -2.77439 0
M  V30 2964 H 268.163 -3.41554 -5.01424 0
M  V30 2965 H 266.902 -2.41894 -4.23484 0
M  V30 2966 H 265.907 -4.47527 -3.19373 0
M  V30 2967 H 267.132 -5.48402 -4.00539 0
M  V30 2968 H 265.078 -3.72554 -5.39944 0
M  V30 2969 H 264.995 -5.44935 -5.24006 0
M  V30 2970 H 266.263 -4.73586 -6.19141 0
M  V30 2971 N 270.492 0.636531 -1.44174 0
M  V30 2972 C 271.72 1.42353 -1.50144 0
M  V30 2973 C 272.135 1.88389 -0.124575 0
M  V30 2974 O 271.492 1.6051 0.868489 0
M  V30 2975 C 271.543 2.64744 -2.46156 0
M  V30 2976 O 271.264 2.20629 -3.7849 0
M  V30 2977 C 272.765 3.57929 -2.61537 0
M  V30 2978 H 269.985 0.436752 -0.5094 0
M  V30 2979 H 272.529 0.778933 -1.89084 0
M  V30 2980 H 270.684 3.25307 -2.10366 0
M  V30 2981 H 271.098 2.99938 -4.30276 0
M  V30 2982 H 272.572 4.40428 -3.32757 0
M  V30 2983 H 273.049 4.06382 -1.66585 0
M  V30 2984 H 273.655 3.03238 -2.98206 0
M  V30 2985 N 271.97 1.30982 0.876444 0
M  V30 2986 C 273.198 1.23242 1.6619 0
M  V30 2987 C 273.613 -0.203345 1.87702 0
M  V30 2988 O 272.97 -1.13317 1.43057 0
M  V30 2989 C 273.021 1.96623 3.03351 0
M  V30 2990 O 272.742 3.34594 2.82804 0
M  V30 2991 C 274.243 1.95644 3.97792 0
M  V30 2992 H 271.463 0.426126 0.518322 0
M  V30 2993 H 274.007 1.7275 1.09442 0
M  V30 2994 H 272.162 1.50892 3.56806 0
M  V30 2995 H 272.576 3.71873 3.69879 0
M  V30 2996 H 274.05 2.51511 4.91372 0
M  V30 2997 H 274.527 0.937395 4.2908 0
M  V30 2998 H 275.133 2.41225 3.50272 0
M  V30 2999 N 273.449 -1.08991 1.13837 0
M  V30 3000 C 274.379 -2.17771 0.842507 0
M  V30 3001 C 275.36 -1.6892 -0.20001 0
M  V30 3002 O 276.545 -1.94113 -0.0579731 0
M  V30 3003 C 273.675 -3.4589 0.312644 0
M  V30 3004 C 272.629 -4.08099 1.28992 0
M  V30 3005 C 271.955 -5.31098 0.619623 0
M  V30 3006 C 273.255 -4.50077 2.65005 0
M  V30 3007 H 274.949 -2.42777 1.75213 0
M  V30 3008 H 272.495 -1.16682 0.843875 0
M  V30 3009 H 274.448 -4.21297 0.0933043 0
M  V30 3010 H 273.172 -3.20419 -0.632382 0
M  V30 3011 H 271.831 -3.34717 1.49533 0
M  V30 3012 H 271.479 -5.0191 -0.33102 0
M  V30 3013 H 271.179 -5.73674 1.27167 0
M  V30 3014 H 272.703 -6.09224 0.409669 0
M  V30 3015 H 274.117 -5.16688 2.48407 0
M  V30 3016 H 272.514 -5.03553 3.26427 0
M  V30 3017 H 273.584 -3.62257 3.22332 0
M  V30 3018 N 274.927 -0.932562 -1.27047 0
M  V30 3019 C 275.877 -0.406392 -2.24349 0
M  V30 3020 C 276.861 0.492066 -1.53191 0
M  V30 3021 O 278.053 0.328717 -1.73921 0
M  V30 3022 C 275.182 0.335214 -3.41659 0
M  V30 3023 C 274.268 -0.58004 -4.20115 0
M  V30 3024 N 274.659 -1.70203 -4.76303 0
M  V30 3025 C 272.957 -0.383974 -4.44344 0
M  V30 3026 C 273.658 -2.27167 -5.35509 0
M  V30 3027 N 272.634 -1.56068 -5.20715 0
M  V30 3028 H 276.436 -1.26299 -2.65378 0
M  V30 3029 H 273.95 -0.787408 -1.42034 0
M  V30 3030 H 275.947 0.729142 -4.10474 0
M  V30 3031 H 274.607 1.18868 -3.0216 0
M  V30 3032 H 275.618 -2.08433 -4.74106 0
M  V30 3033 H 272.295 0.428436 -4.15296 0
M  V30 3034 H 273.685 -3.21654 -5.89905 0
M  V30 3035 N 276.405 1.4127 -0.698611 0
M  V30 3036 C 277.821 1.55241 -0.370462 0
M  V30 3037 C 278.021 1.67351 1.12231 0
M  V30 3038 O 277.077 1.65363 1.90818 0
M  V30 3039 C 278.39 2.78997 -1.12165 0
M  V30 3040 C 279.938 2.92797 -1.1063 0
M  V30 3041 C 280.413 4.19445 -1.8393 0
M  V30 3042 N 281.904 4.26409 -1.80914 0
M  V30 3043 C 282.639 5.23271 -2.34467 0
M  V30 3044 N 282.135 6.26145 -2.96504 0
M  V30 3045 N 283.928 5.15232 -2.24706 0
M  V30 3046 H 276.079 1.31654 -1.66676 0
M  V30 3047 H 278.342 0.635393 -0.703548 0
M  V30 3048 H 278.048 2.76268 -2.17644 0
M  V30 3049 H 277.922 3.70606 -0.702209 0
M  V30 3050 H 280.309 2.95039 -0.0597713 0
M  V30 3051 H 280.39 2.02353 -1.56483 0
M  V30 3052 H 280.034 4.17964 -2.88563 0
M  V30 3053 H 279.964 5.08866 -1.35509 0
M  V30 3054 H 282.455 3.527 -1.35687 0
M  V30 3055 H 282.768 6.96451 -3.34927 0
M  V30 3056 H 281.113 6.26638 -3.00583 0
M  V30 3057 H 284.304 4.33789 -1.7591 0
M  V30 3058 H 284.477 5.90552 -2.66745 0
M  V30 3059 N 277.883 0.443576 1.51229 0
M  V30 3060 C 279.132 -0.122332 2.01329 0
M  V30 3061 C 279.445 -1.43237 1.33201 0
M  V30 3062 O 280.651 -2.0816 1.74304 0
M  V30 3063 C 279.107 -0.268551 3.58897 0
M  V30 3064 C 278.715 1.03142 4.35965 0
M  V30 3065 C 280.459 -0.787894 4.17124 0
M  V30 3066 C 278.366 0.850504 5.85252 0
M  V30 3067 H 277.296 -0.0494929 0.752374 0
M  V30 3068 H 279.947 0.574289 1.74282 0
M  V30 3069 H 278.329 -1.02832 3.82415 0
M  V30 3070 H 279.503 1.80001 4.24189 0
M  V30 3071 H 277.818 1.47977 3.89219 0
M  V30 3072 H 280.415 -0.939841 5.26375 0
M  V30 3073 H 280.758 -1.77201 3.76703 0
M  V30 3074 H 281.291 -0.0862669 3.97706 0
M  V30 3075 H 278.03 1.80718 6.30096 0
M  V30 3076 H 277.55 0.121825 5.99676 0
M  V30 3077 H 279.229 0.506163 6.45017 0
M  V30 3078 N 279.361 -1.56624 0.175154 0
M  V30 3079 C 280.591 -2.01082 -0.474283 0
M  V30 3080 C 280.999 -1.05447 -1.57091 0
M  V30 3081 O 280.342 -0.0480595 -1.83637 0
M  V30 3082 C 280.404 -3.41963 -1.10911 0
M  V30 3083 C 280.068 -4.56742 -0.153666 0
M  V30 3084 C 281.065 -5.16076 0.629448 0
M  V30 3085 C 278.75 -5.02277 -0.0483776 0
M  V30 3086 C 280.744 -6.19377 1.50501 0
M  V30 3087 C 278.431 -6.05427 0.830768 0
M  V30 3088 C 279.429 -6.63849 1.60605 0
M  V30 3089 O 279.117 -7.64998 2.47049 0
M  V30 3090 H 278.849 -0.664261 -0.125432 0
M  V30 3091 H 281.403 -2.03549 0.275163 0
M  V30 3092 H 279.633 -3.36422 -1.90676 0
M  V30 3093 H 281.322 -3.70352 -1.66114 0
M  V30 3094 H 282.088 -4.81776 0.558297 0
M  V30 3095 H 277.967 -4.56513 -0.641611 0
M  V30 3096 H 281.511 -6.64906 2.1106 0
M  V30 3097 H 277.408 -6.39151 0.903107 0
M  V30 3098 H 278.176 -7.82336 2.40607 0
M  V30 3099 N 280.839 0.0985539 -1.57292 0
M  V30 3100 C 282.087 0.801092 -1.85545 0
M  V30 3101 C 282.408 1.79438 -0.763353 0
M  V30 3102 O 281.678 1.94763 0.21073 0
M  V30 3103 H 280.258 0.29884 -0.684619 0
M  V30 3104 H 282.92 0.0810064 -1.94732 0
M  V30 3105 H 282.016 1.3338 -2.82163 0
M  V30 3106 N 282.317 1.53212 0.369288 0
M  V30 3107 C 283.264 1.79388 1.45219 0
M  V30 3108 C 284.234 0.638059 1.53356 0
M  V30 3109 O 285.419 0.879852 1.69302 0
M  V30 3110 C 282.559 1.98623 2.82211 0
M  V30 3111 C 281.672 3.26337 2.8307 0
M  V30 3112 C 280.807 3.35779 4.11614 0
M  V30 3113 C 279.846 4.5754 4.06601 0
M  V30 3114 N 278.983 4.64155 5.26787 0
M  V30 3115 H 283.823 2.71794 1.22198 0
M  V30 3116 H 281.36 1.34642 0.592444 0
M  V30 3117 H 283.318 2.07761 3.61789 0
M  V30 3118 H 281.948 1.09558 3.03639 0
M  V30 3119 H 281 3.26171 1.95747 0
M  V30 3120 H 282.312 4.15988 2.75237 0
M  V30 3121 H 281.466 3.44208 4.99606 0
M  V30 3122 H 280.205 2.44137 4.22195 0
M  V30 3123 H 279.21 4.49215 3.16996 0
M  V30 3124 H 280.435 5.50519 3.97625 0
M  V30 3125 H 278.381 3.75413 5.3796 0
M  V30 3126 H 278.298 5.47706 5.21109 0
M  V30 3127 H 279.566 4.76863 6.16621 0
M  V30 3128 N 283.795 -0.628877 1.44509 0
M  V30 3129 C 285.042 -1.38839 1.47411 0
M  V30 3130 C 285.37 -1.94202 0.10757 0
M  V30 3131 O 284.625 -1.74243 -0.890947 0
M  V30 3132 C 284.924 -2.56995 2.48371 0
M  V30 3133 C 284.59 -2.19908 3.93639 0
M  V30 3134 C 283.252 -2.09506 4.33198 0
M  V30 3135 C 285.604 -1.9064 4.85083 0
M  V30 3136 C 282.932 -1.68028 5.62124 0
M  V30 3137 C 285.284 -1.50655 6.14399 0
M  V30 3138 C 283.948 -1.38796 6.5291 0
M  V30 3139 H 283.218 -0.508048 0.539414 0
M  V30 3140 H 285.865 -0.712913 1.77735 0
M  V30 3141 H 284.17 -3.29786 2.11538 0
M  V30 3142 H 285.867 -3.15223 2.47861 0
M  V30 3143 H 282.457 -2.28922 3.62343 0
M  V30 3144 H 286.641 -1.97585 4.55273 0
M  V30 3145 H 281.897 -1.57452 5.90778 0
M  V30 3146 H 286.071 -1.27048 6.84713 0
M  V30 3147 H 283.698 -1.06429 7.52713 0
M  V30 3148 N 285.273 -1.31445 -0.869486 0
M  V30 3149 C 286.203 -1.21727 -1.99261 0
M  V30 3150 C 287.184 -0.104359 -1.6978 0
M  V30 3151 O 288.369 -0.289038 -1.92037 0
M  V30 3152 C 285.499 -0.924317 -3.34774 0
M  V30 3153 C 284.453 -1.99685 -3.78563 0
M  V30 3154 C 283.779 -1.55658 -5.11541 0
M  V30 3155 C 285.079 -3.41003 -3.95619 0
M  V30 3156 H 286.773 -2.1569 -2.07649 0
M  V30 3157 H 284.319 -1.03839 -0.997675 0
M  V30 3158 H 286.272 -0.842934 -4.12883 0
M  V30 3159 H 284.996 0.0509793 -3.2656 0
M  V30 3160 H 283.655 -2.06813 -3.02694 0
M  V30 3161 H 283.303 -0.569132 -4.9977 0
M  V30 3162 H 283.003 -2.27409 -5.41811 0
M  V30 3163 H 284.527 -1.48928 -5.92159 0
M  V30 3164 H 285.941 -3.36547 -4.64122 0
M  V30 3165 H 284.338 -4.10975 -4.37286 0
M  V30 3166 H 285.408 -3.81754 -2.98985 0
M  V30 3167 N 286.751 1.08385 -1.14413 0
M  V30 3168 C 287.999 1.80419 -0.910679 0
M  V30 3169 C 288.32 1.86658 0.564243 0
M  V30 3170 O 287.59 1.35985 1.41014 0
M  V30 3171 H 286.17 0.668204 -0.333934 0
M  V30 3172 H 288.832 1.31037 -1.44275 0
M  V30 3173 H 287.928 2.83238 -1.31082 0
M  V30 3174 N 288.23 0.939286 1.26551 0
M  V30 3175 C 289.16 0.465044 2.28822 0
M  V30 3176 C 290.141 -0.480692 1.63167 0
M  V30 3177 O 291.326 -0.382955 1.90387 0
M  V30 3178 C 288.456 -0.27234 3.46231 0
M  V30 3179 C 287.41 0.58666 4.2396 0
M  V30 3180 C 286.736 -0.280573 5.33963 0
M  V30 3181 C 288.036 1.85704 4.88171 0
M  V30 3182 H 289.73 1.31979 2.68741 0
M  V30 3183 H 287.276 0.636061 1.29191 0
M  V30 3184 H 289.229 -0.615133 4.16886 0
M  V30 3185 H 287.953 -1.16121 3.0526 0
M  V30 3186 H 286.612 0.91232 3.55067 0
M  V30 3187 H 286.26 -1.16874 4.89234 0
M  V30 3188 H 285.96 0.29076 5.8688 0
M  V30 3189 H 287.484 -0.618678 6.07458 0
M  V30 3190 H 288.898 1.58161 5.51052 0
M  V30 3191 H 287.295 2.37279 5.51197 0
M  V30 3192 H 288.365 2.56957 4.11219 0
M  V30 3193 N 289.708 -1.40897 0.706093 0
M  V30 3194 C 291.124 -1.55042 0.37869 0
M  V30 3195 C 291.324 -1.67944 -1.11342 0
M  V30 3196 O 290.38 -1.66372 -1.89938 0
M  V30 3197 C 291.693 -2.78398 1.13643 0
M  V30 3198 C 293.241 -2.92206 1.12181 0
M  V30 3199 C 293.716 -4.18463 1.86152 0
M  V30 3200 N 295.207 -4.25443 1.83173 0
M  V30 3201 C 295.942 -5.2202 2.37239 0
M  V30 3202 N 295.438 -6.24563 2.99821 0
M  V30 3203 N 297.231 -5.14033 2.27435 0
M  V30 3204 H 289.382 -1.30769 1.67372 0
M  V30 3205 H 291.645 -0.631653 0.706907 0
M  V30 3206 H 291.351 -2.7511 2.19106 0
M  V30 3207 H 291.225 -3.70228 0.721853 0
M  V30 3208 H 293.612 -2.95004 0.0754171 0
M  V30 3209 H 293.693 -2.01521 1.57554 0
M  V30 3210 H 293.337 -4.16427 2.90776 0
M  V30 3211 H 293.267 -5.08141 1.38206 0
M  V30 3212 H 295.758 -3.51976 1.37556 0
M  V30 3213 H 296.071 -6.94665 3.38616 0
M  V30 3214 H 294.416 -6.25035 3.03902 0
M  V30 3215 H 297.607 -4.3285 1.78208 0
M  V30 3216 H 297.78 -5.89129 2.69873 0
M  V30 3217 N 291.186 -0.45159 -1.50991 0
M  V30 3218 C 292.149 0.341117 -2.26647 0
M  V30 3219 C 293.149 0.937422 -1.30649 0
M  V30 3220 O 294.339 0.809644 -1.54241 0
M  V30 3221 C 291.471 1.48398 -3.06905 0
M  V30 3222 H 292.664 -0.322117 -2.98165 0
M  V30 3223 H 290.217 -0.205122 -1.54948 0
M  V30 3224 H 290.952 2.18284 -2.39838 0
M  V30 3225 H 290.737 1.06241 -3.77432 0
M  V30 3226 H 292.227 2.04367 -3.64176 0
M  V30 3227 N 292.664 1.56529 -0.183458 0
M  V30 3228 C 293.894 2.01331 0.463612 0
M  V30 3229 C 294.302 1.06278 1.5653 0
M  V30 3230 O 293.645 0.0577976 1.83609 0
M  V30 3231 C 293.707 3.42547 1.09096 0
M  V30 3232 C 293.371 4.56817 0.129442 0
M  V30 3233 C 294.368 5.15734 -0.656807 0
M  V30 3234 C 292.053 5.02295 0.02174 0
M  V30 3235 C 294.047 6.1857 -1.53784 0
M  V30 3236 C 291.734 6.04978 -0.862864 0
M  V30 3237 C 292.732 6.62988 -1.64123 0
M  V30 3238 O 292.42 7.63677 -2.51103 0
M  V30 3239 H 292.152 0.664917 0.121907 0
M  V30 3240 H 294.706 2.034 -0.285954 0
M  V30 3241 H 292.936 3.37428 1.88889 0
M  V30 3242 H 294.625 3.71228 1.64148 0
M  V30 3243 H 295.391 4.81473 -0.583839 0
M  V30 3244 H 291.27 4.56847 0.617392 0
M  V30 3245 H 294.814 6.63777 -2.14583 0
M  V30 3246 H 290.711 6.38663 -0.93699 0
M  V30 3247 H 291.479 7.81049 -2.44753 0
M  V30 3248 N 294.142 -0.090211 1.57342 0
M  V30 3249 C 295.391 -0.791531 1.8552 0
M  V30 3250 C 295.704 -1.79659 0.773441 0
M  V30 3251 O 296.91 -2.54616 0.942497 0
M  V30 3252 C 295.366 -1.45856 3.2902 0
M  V30 3253 C 294.974 -0.493017 4.45279 0
M  V30 3254 C 296.718 -2.14332 3.66418 0
M  V30 3255 C 294.625 -1.16491 5.79814 0
M  V30 3256 H 293.555 -0.299356 0.692027 0
M  V30 3257 H 296.206 -0.0445343 1.83446 0
M  V30 3258 H 294.588 -2.25318 3.2565 0
M  V30 3259 H 295.762 0.270464 4.60006 0
M  V30 3260 H 294.077 0.0863061 4.16311 0
M  V30 3261 H 296.674 -2.65344 4.64216 0
M  V30 3262 H 297.017 -2.93447 2.95287 0
M  V30 3263 H 297.55 -1.41724 3.71698 0
M  V30 3264 H 294.289 -0.41447 6.54188 0
M  V30 3265 H 293.809 -1.8997 5.68921 0
M  V30 3266 H 295.488 -1.69001 6.24538 0
M  V30 3267 N 295.62 -1.53406 -0.361157 0
M  V30 3268 C 297.036 -1.43277 -0.703124 0
M  V30 3269 C 297.236 -0.575384 -1.9311 0
M  V30 3270 O 296.292 -0.0595362 -2.5243 0
M  V30 3271 C 297.605 -2.8653 -0.9122 0
M  V30 3272 C 299.153 -2.96191 -1.01193 0
M  V30 3273 C 299.628 -4.40514 -1.25345 0
M  V30 3274 N 301.119 -4.43962 -1.32105 0
M  V30 3275 C 301.854 -5.52746 -1.5251 0
M  V30 3276 N 301.35 -6.71567 -1.70203 0
M  V30 3277 N 303.143 -5.40331 -1.54916 0
M  V30 3278 H 295.294 -2.07654 0.446475 0
M  V30 3279 H 297.557 -0.937944 0.137715 0
M  V30 3280 H 297.263 -3.51605 -0.0816414 0
M  V30 3281 H 297.137 -3.30441 -1.81903 0
M  V30 3282 H 299.524 -2.31266 -1.83303 0
M  V30 3283 H 299.605 -2.55667 -0.0823929 0
M  V30 3284 H 299.249 -5.06014 -0.437346 0
M  V30 3285 H 299.179 -4.78614 -2.19627 0
M  V30 3286 H 301.67 -3.58332 -1.20028 0
M  V30 3287 H 301.983 -7.50241 -1.85359 0
M  V30 3288 H 300.328 -6.74545 -1.67373 0
M  V30 3289 H 303.519 -4.46465 -1.40663 0
M  V30 3290 H 303.692 -6.25173 -1.70477 0
M  V30 3291 N 297.098 0.621204 -1.44841 0
M  V30 3292 C 298.045 1.73267 -1.5247 0
M  V30 3293 C 299.015 1.6189 -0.371611 0
M  V30 3294 O 300.2 1.81668 -0.58321 0
M  V30 3295 C 297.34 3.11545 -1.48438 0
M  V30 3296 C 296.453 3.33827 -2.74196 0
M  V30 3297 C 295.588 4.62133 -2.61929 0
M  V30 3298 C 294.627 4.77627 -3.82804 0
M  V30 3299 N 293.764 5.97219 -3.69153 0
M  V30 3300 H 298.604 1.66082 -2.47428 0
M  V30 3301 H 296.141 0.810026 -1.22788 0
M  V30 3302 H 298.099 3.91528 -1.4409 0
M  V30 3303 H 296.729 3.1772 -0.570402 0
M  V30 3304 H 295.781 2.47715 -2.88689 0
M  V30 3305 H 297.093 3.41153 -3.6389 0
M  V30 3306 H 296.247 5.50291 -2.5547 0
M  V30 3307 H 294.986 4.57182 -1.69811 0
M  V30 3308 H 293.991 3.87896 -3.89637 0
M  V30 3309 H 295.216 4.84385 -4.75971 0
M  V30 3310 H 293.162 5.93339 -2.79794 0
M  V30 3311 H 293.079 6.05644 -4.52472 0
M  V30 3312 H 294.347 6.87912 -3.66603 0
M  V30 3313 N 298.576 1.31904 0.862503 0
M  V30 3314 C 299.508 1.16005 1.97675 0
M  V30 3315 C 300.521 0.0971234 1.6251 0
M  V30 3316 O 301.71 0.345337 1.75128 0
M  V30 3317 C 298.81 0.751791 3.30456 0
M  V30 3318 C 297.983 1.90133 3.93914 0
M  V30 3319 C 297.042 1.4779 5.05019 0
M  V30 3320 O 296.068 2.18872 5.25437 0
M  V30 3321 N 297.27 0.369491 5.79323 0
M  V30 3322 H 300.035 2.11982 2.11857 0
M  V30 3323 H 297.596 1.24337 1.03691 0
M  V30 3324 H 299.588 0.451084 4.02178 0
M  V30 3325 H 298.158 -0.116593 3.12382 0
M  V30 3326 H 297.378 2.36896 3.15078 0
M  V30 3327 H 298.666 2.67111 4.33047 0
M  V30 3328 H 298.064 -0.222299 5.65263 0
M  V30 3329 H 296.621 0.128354 6.51674 0
M  V30 3330 N 300.054 -1.07777 1.14986 0
M  V30 3331 C 301.303 -1.79669 0.916617 0
M  V30 3332 C 301.616 -1.87474 -0.557917 0
M  V30 3333 O 302.822 -2.55845 -0.908617 0
M  V30 3334 C 301.278 -3.22848 1.59051 0
M  V30 3335 C 300.886 -3.23257 3.10176 0
M  V30 3336 C 302.63 -3.99379 1.43864 0
M  V30 3337 C 300.537 -4.61063 3.70372 0
M  V30 3338 H 299.467 -0.673349 0.33929 0
M  V30 3339 H 302.118 -1.21003 1.37951 0
M  V30 3340 H 300.5 -3.8168 1.0553 0
M  V30 3341 H 301.674 -2.74095 3.70417 0
M  V30 3342 H 299.989 -2.60222 3.25074 0
M  V30 3343 H 302.586 -5.0122 1.86232 0
M  V30 3344 H 302.929 -4.14511 0.385564 0
M  V30 3345 H 303.462 -3.47032 1.94457 0
M  V30 3346 H 300.201 -4.51135 4.7556 0
M  V30 3347 H 299.721 -5.1048 3.14913 0
M  V30 3348 H 301.4 -5.30034 3.71043 0
M  V30 3349 N 301.532 -0.945985 -1.26051 0
M  V30 3350 C 302.48 -0.450259 -2.282 0
M  V30 3351 C 303.474 0.47497 -1.62605 0
M  V30 3352 O 304.68 0.352653 -1.76512 0
M  V30 3353 H 301.055 -0.127081 -0.741184 0
M  V30 3354 H 303.026 -1.32422 -2.67408 0
M  V30 3355 C 301.775 0.26467 -3.46691 0
M  V30 3356 H 301.098 -0.438123 -3.97392 0
M  V30 3357 H 302.538 0.575678 -4.20074 0
M  V30 3358 C 300.997 1.48416 -3.02447 0
M  V30 3359 O 301.527 2.58227 -3.07704 0
M  V30 3360 N 299.733 1.34243 -2.57735 0
M  V30 3361 H 299.28 0.448994 -2.53657 0
M  V30 3362 H 299.238 2.15957 -2.28495 0
M  V30 3363 N 303.011 1.40521 -0.713556 0
M  V30 3364 C 303.959 2.32549 -0.0485227 0
M  V30 3365 C 304.953 1.51931 0.74922 0
M  V30 3366 O 306.159 1.67745 0.652816 0
M  V30 3367 H 302.534 0.751994 0.00311138 0
M  V30 3368 H 304.505 2.86291 -0.841443 0
M  V30 3369 C 303.254 3.36879 0.860687 0
M  V30 3370 H 302.577 3.98978 0.256246 0
M  V30 3371 H 304.017 4.03772 1.294 0
M  V30 3372 C 302.476 2.72197 1.9852 0
M  V30 3373 O 303.006 2.5837 3.07584 0
M  V30 3374 N 301.212 2.30612 1.76823 0
M  V30 3375 H 300.759 2.42059 0.881217 0
M  V30 3376 H 300.717 1.87672 2.52243 0
M  V30 3377 N 304.489 0.459591 1.5075 0
M  V30 3378 C 305.738 -0.100971 2.01447 0
M  V30 3379 C 306.051 -1.41816 1.34713 0
M  V30 3380 O 307.257 -2.06299 1.76502 0
M  V30 3381 C 305.713 -0.23047 3.59161 0
M  V30 3382 C 305.321 1.0776 4.34847 0
M  V30 3383 C 307.065 -0.743608 4.17936 0
M  V30 3384 C 304.972 0.91253 5.84317 0
M  V30 3385 H 303.902 -0.0415102 0.752856 0
M  V30 3386 H 306.553 0.592742 1.73663 0
M  V30 3387 H 304.935 -0.987703 3.83485 0
M  V30 3388 H 306.109 1.8449 4.22256 0
M  V30 3389 H 304.424 1.52097 3.87628 0
M  V30 3390 H 307.021 -0.883959 5.27343 0
M  V30 3391 H 307.364 -1.73196 3.78562 0
M  V30 3392 H 307.897 -0.04408 3.97776 0
M  V30 3393 H 304.636 1.87391 6.28144 0
M  V30 3394 H 304.156 0.185422 5.99513 0
M  V30 3395 H 305.835 0.574547 6.44444 0
M  V30 3396 N 305.967 -1.56429 0.191757 0
M  V30 3397 C 307.214 -1.97485 -0.447891 0
M  V30 3398 C 307.542 -1.07852 -1.61859 0
M  V30 3399 O 306.797 -0.116903 -1.95351 0
M  V30 3400 C 307.096 -3.44449 -0.953384 0
M  V30 3401 C 306.762 -4.50781 0.103586 0
M  V30 3402 C 305.424 -4.79584 0.394023 0
M  V30 3403 C 307.776 -5.1471 0.819946 0
M  V30 3404 C 305.104 -5.69607 1.40585 0
M  V30 3405 C 307.456 -6.05827 1.8209 0
M  V30 3406 C 306.12 -6.32987 2.11857 0
M  V30 3407 H 305.39 -0.722648 -0.163895 0
M  V30 3408 H 308.037 -1.89322 0.28802 0
M  V30 3409 H 306.342 -3.49666 -1.76751 0
M  V30 3410 H 308.039 -3.73569 -1.45765 0
M  V30 3411 H 304.629 -4.28394 -0.132951 0
M  V30 3412 H 308.813 -4.92552 0.608789 0
M  V30 3413 H 304.069 -5.88926 1.64243 0
M  V30 3414 H 308.243 -6.54424 2.38123 0
M  V30 3415 H 305.87 -7.02544 2.90407 0
M  V30 3416 N 307.445 0.0818655 -1.57387 0
M  V30 3417 C 308.675 0.794954 -1.90694 0
M  V30 3418 C 309.083 1.72147 -0.784982 0
M  V30 3419 O 308.426 1.81974 0.251196 0
M  V30 3420 C 308.488 1.65042 -3.19376 0
M  V30 3421 C 308.152 0.894337 -4.48164 0
M  V30 3422 C 309.149 0.21813 -5.19442 0
M  V30 3423 C 306.834 0.864495 -4.94805 0
M  V30 3424 C 308.828 -0.477802 -6.35607 0
M  V30 3425 C 306.515 0.164785 -6.10878 0
M  V30 3426 C 307.513 -0.505173 -6.81129 0
M  V30 3427 O 307.201 -1.19363 -7.94989 0
M  V30 3428 H 306.933 0.231779 -0.635023 0
M  V30 3429 H 309.487 0.059493 -2.05314 0
M  V30 3430 H 307.717 2.42844 -3.00938 0
M  V30 3431 H 309.406 2.24127 -3.38411 0
M  V30 3432 H 310.172 0.232558 -4.84442 0
M  V30 3433 H 306.051 1.37542 -4.40004 0
M  V30 3434 H 309.595 -1.00129 -6.90377 0
M  V30 3435 H 305.492 0.148249 -6.4533 0
M  V30 3436 H 306.26 -1.10188 -8.11049 0
M  V30 3437 N 308.923 1.53595 0.353017 0
M  V30 3438 C 310.339 1.43648 0.695516 0
M  V30 3439 C 310.539 0.585617 1.92802 0
M  V30 3440 O 309.595 0.0729223 2.52395 0
M  V30 3441 C 310.908 2.8701 0.896991 0
M  V30 3442 C 312.456 2.96723 0.996209 0
M  V30 3443 C 312.931 4.41173 1.23007 0
M  V30 3444 N 314.422 4.44657 1.29749 0
M  V30 3445 C 315.157 5.53547 1.49577 0
M  V30 3446 N 314.653 6.72461 1.66639 0
M  V30 3447 N 316.446 5.41145 1.52048 0
M  V30 3448 H 308.597 2.07415 -0.457481 0
M  V30 3449 H 310.86 0.9372 -0.142687 0
M  V30 3450 H 310.566 3.51644 0.0629938 0
M  V30 3451 H 310.44 3.31401 1.80148 0
M  V30 3452 H 312.827 2.32235 1.82074 0
M  V30 3453 H 312.908 2.55707 0.0688331 0
M  V30 3454 H 312.552 5.06238 0.410505 0
M  V30 3455 H 312.482 4.79772 2.17086 0
M  V30 3456 H 314.973 3.58963 1.18126 0
M  V30 3457 H 315.286 7.51214 1.81378 0
M  V30 3458 H 313.631 6.75423 1.63794 0
M  V30 3459 H 316.822 4.47205 1.38294 0
M  V30 3460 H 316.995 6.26068 1.67159 0
M  V30 3461 N 310.401 -0.613514 1.45168 0
M  V30 3462 C 311.648 -1.37268 1.48875 0
M  V30 3463 C 311.976 -1.94077 0.128161 0
M  V30 3464 O 311.231 -1.75178 -0.872416 0
M  V30 3465 C 311.53 -2.54347 2.51083 0
M  V30 3466 C 311.196 -2.1572 3.95949 0
M  V30 3467 C 309.858 -2.04899 4.35396 0
M  V30 3468 C 312.21 -1.85485 4.87078 0
M  V30 3469 C 309.538 -1.62057 5.63875 0
M  V30 3470 C 311.89 -1.4413 6.15962 0
M  V30 3471 C 310.554 -1.31863 6.54346 0
M  V30 3472 H 309.824 -0.502299 0.544773 0
M  V30 3473 H 312.471 -0.694021 1.78481 0
M  V30 3474 H 310.776 -3.27524 2.15024 0
M  V30 3475 H 312.473 -3.12577 2.51191 0
M  V30 3476 H 309.063 -2.25066 3.64751 0
M  V30 3477 H 313.247 -1.92745 4.57343 0
M  V30 3478 H 308.503 -1.51177 5.92415 0
M  V30 3479 H 312.677 -1.19778 6.86022 0
M  V30 3480 H 310.304 -0.984392 7.538 0
M  V30 3481 N 311.879 -1.3236 -0.855495 0
M  V30 3482 C 313.128 -1.22226 -1.60448 0
M  V30 3483 C 313.441 0.214733 -1.94418 0
M  V30 3484 O 314.647 0.437917 -2.67945 0
M  V30 3485 C 313.103 -2.14063 -2.89318 0
M  V30 3486 C 312.711 -3.62839 -2.62777 0
M  V30 3487 C 314.455 -2.12764 -3.67331 0
M  V30 3488 C 312.362 -4.4664 -3.87643 0
M  V30 3489 H 311.292 -0.453904 -0.602069 0
M  V30 3490 H 313.943 -1.57314 -0.944698 0
M  V30 3491 H 312.325 -1.71889 -3.5675 0
M  V30 3492 H 313.499 -4.1335 -2.03662 0
M  V30 3493 H 311.814 -3.66261 -1.98096 0
M  V30 3494 H 314.411 -2.72611 -4.59987 0
M  V30 3495 H 314.754 -1.11841 -4.00995 0
M  V30 3496 H 315.287 -2.53214 -3.06802 0
M  V30 3497 H 312.026 -5.48373 -3.5912 0
M  V30 3498 H 311.546 -4.0088 -4.46156 0
M  V30 3499 H 313.225 -4.59597 -4.55389 0
M  V30 3500 N 313.357 1.07166 -1.15556 0
M  V30 3501 C 314.587 1.83248 -0.954133 0
M  V30 3502 C 314.995 1.82449 0.500911 0
M  V30 3503 O 314.338 1.23575 1.35923 0
M  V30 3504 C 314.4 3.31393 -1.39351 0
M  V30 3505 C 314.064 3.5591 -2.86666 0
M  V30 3506 C 315.061 3.49695 -3.8472 0
M  V30 3507 C 312.746 3.83515 -3.24379 0
M  V30 3508 C 314.74 3.70737 -5.18491 0
M  V30 3509 C 312.427 4.04209 -4.58321 0
M  V30 3510 C 313.425 3.97815 -5.55186 0
M  V30 3511 O 313.113 4.17954 -6.86709 0
M  V30 3512 H 312.845 0.584941 -0.338851 0
M  V30 3513 H 315.399 1.36169 -1.53777 0
M  V30 3514 H 313.629 3.79292 -0.75329 0
M  V30 3515 H 315.318 3.88945 -1.16089 0
M  V30 3516 H 316.084 3.28368 -3.56931 0
M  V30 3517 H 311.963 3.87605 -2.49567 0
M  V30 3518 H 315.507 3.65663 -5.94085 0
M  V30 3519 H 311.404 4.25023 -4.85825 0
M  V30 3520 H 312.172 4.35291 -6.93155 0
M  V30 3521 N 314.835 0.952656 1.25548 0
M  V30 3522 C 315.745 0.47782 2.29682 0
M  V30 3523 C 316.761 -0.453859 1.67977 0
M  V30 3524 O 317.937 -0.330587 1.98668 0
M  V30 3525 C 315.002 -0.238655 3.45878 0
M  V30 3526 C 314.063 0.730994 4.23031 0
M  V30 3527 C 313.296 0.0486165 5.33678 0
M  V30 3528 O 313.519 -1.16612 5.58353 0
M  V30 3529 O 312.453 0.733152 5.97418 0
M  V30 3530 H 316.279 1.34312 2.72386 0
M  V30 3531 H 313.864 0.719026 1.30959 0
M  V30 3532 H 315.746 -0.641774 4.16484 0
M  V30 3533 H 314.421 -1.07916 3.05181 0
M  V30 3534 H 313.328 1.18428 3.5486 0
M  V30 3535 H 314.661 1.53946 4.67506 0
M  V30 3536 N 316.313 -1.40141 0.720998 0
M  V30 3537 C 317.541 -2.05096 0.272656 0
M  V30 3538 C 317.956 -1.54334 -1.0875 0
M  V30 3539 O 317.313 -0.702211 -1.6845 0
M  V30 3540 C 317.364 -3.60636 0.249835 0
M  V30 3541 O 317.085 -4.09526 1.55629 0
M  V30 3542 C 318.586 -4.42772 -0.216396 0
M  V30 3543 H 315.806 -0.659897 0.121558 0
M  V30 3544 H 318.35 -1.79449 0.980723 0
M  V30 3545 H 316.505 -3.85232 -0.409237 0
M  V30 3546 H 316.919 -5.03758 1.4604 0
M  V30 3547 H 318.393 -5.51702 -0.181212 0
M  V30 3548 H 318.87 -4.20756 -1.25941 0
M  V30 3549 H 319.476 -4.23294 0.412596 0
M  V30 3550 N 317.792 -0.46758 -1.50504 0
M  V30 3551 C 318.702 0.33382 -2.32213 0
M  V30 3552 C 319.718 0.999323 -1.42441 0
M  V30 3553 O 320.894 0.988068 -1.75497 0
M  V30 3554 C 317.959 1.4035 -3.17022 0
M  V30 3555 C 317.02 0.754961 -4.2261 0
M  V30 3556 C 316.253 1.77367 -5.03365 0
M  V30 3557 O 316.476 2.99976 -4.8515 0
M  V30 3558 O 315.41 1.34744 -5.86624 0
M  V30 3559 H 319.236 -0.334067 -3.01857 0
M  V30 3560 H 316.821 -0.229496 -1.47627 0
M  V30 3561 H 318.703 2.02318 -3.69656 0
M  V30 3562 H 317.378 2.05492 -2.5011 0
M  V30 3563 H 316.285 0.0964244 -3.73976 0
M  V30 3564 H 317.618 0.146545 -4.91982 0
M  V30 3565 N 319.27 1.56325 -0.20005 0
M  V30 3566 C 320.22 2.15939 0.731743 0
M  V30 3567 C 321.204 1.10154 1.17281 0
M  V30 3568 O 322.396 1.36203 1.13038 0
M  V30 3569 C 319.525 2.82614 1.94895 0
M  V30 3570 C 318.611 3.95596 1.52855 0
M  V30 3571 N 319.002 4.99118 0.819418 0
M  V30 3572 C 317.3 4.07288 1.81748 0
M  V30 3573 C 318.001 5.78513 0.608053 0
M  V30 3574 N 316.977 5.31117 1.15828 0
M  V30 3575 H 320.779 2.9334 0.181285 0
M  V30 3576 H 318.293 1.624 -0.000452172 0
M  V30 3577 H 320.29 3.23718 2.62702 0
M  V30 3578 H 318.95 2.06702 2.50408 0
M  V30 3579 H 319.961 5.15723 0.47436 0
M  V30 3580 H 316.638 3.42509 2.38734 0
M  V30 3581 H 318.028 6.71885 0.0451619 0
M  V30 3582 N 320.748 -0.0735177 1.57428 0
M  V30 3583 C 321.698 -1.09442 2.00016 0
M  V30 3584 C 322.682 -1.34575 0.881947 0
M  V30 3585 O 323.874 -1.34905 1.14585 0
M  V30 3586 C 321.003 -2.40865 2.4462 0
M  V30 3587 C 320.089 -2.19014 3.63172 0
M  V30 3588 N 320.48 -1.67087 4.77405 0
M  V30 3589 C 318.778 -2.49494 3.69688 0
M  V30 3590 C 319.479 -1.6001 5.5926 0
M  V30 3591 N 318.455 -2.05999 5.03056 0
M  V30 3592 H 322.257 -0.686227 2.85776 0
M  V30 3593 H 319.771 -0.280617 1.59957 0
M  V30 3594 H 321.768 -3.14763 2.73368 0
M  V30 3595 H 320.428 -2.82403 1.60246 0
M  V30 3596 H 321.439 -1.35975 4.99731 0
M  V30 3597 H 318.116 -2.94409 2.96023 0
M  V30 3598 H 319.506 -1.2073 6.60964 0
M  V30 3599 N 322.226 -1.5378 -0.344866 0
M  V30 3600 C 323.174 -1.82373 -1.4437 0
M  V30 3601 C 324.168 -0.694128 -1.54526 0
M  V30 3602 O 325.374 -0.877442 -1.57165 0
M  V30 3603 H 321.749 -0.577765 -0.481344 0
M  V30 3604 H 323.72 -2.74306 -1.17468 0
M  V30 3605 C 322.469 -2.04898 -2.80913 0
M  V30 3606 H 321.792 -2.9127 -2.73865 0
M  V30 3607 H 323.232 -2.28871 -3.56923 0
M  V30 3608 C 321.691 -0.834116 -3.26411 0
M  V30 3609 O 322.221 -0.0328885 -4.01687 0
M  V30 3610 N 320.427 -0.65171 -2.83198 0
M  V30 3611 H 319.974 -1.30489 -2.22104 0
M  V30 3612 H 319.932 0.159686 -3.13994 0
M  V30 3613 N 323.704 0.605807 -1.45491 0
M  V30 3614 C 324.952 1.36207 -1.49305 0
M  V30 3615 C 325.273 1.94519 -0.136863 0
M  V30 3616 O 324.543 1.77261 0.833983 0
M  V30 3617 H 323.123 0.50565 -0.549843 0
M  V30 3618 H 325.785 0.711239 -1.81459 0
M  V30 3619 H 324.881 2.18058 -2.23287 0
M  V30 3620 N 325.182 1.32811 0.848464 0
M  V30 3621 C 326.431 1.23075 1.59798 0
M  V30 3622 C 326.744 -0.204419 1.94529 0
M  V30 3623 O 327.95 -0.423701 2.68173 0
M  V30 3624 C 326.406 2.15594 2.88179 0
M  V30 3625 C 326.014 3.64228 2.60849 0
M  V30 3626 C 327.758 2.14709 3.66197 0
M  V30 3627 C 325.665 4.48689 3.85269 0
M  V30 3628 H 324.595 0.457091 0.599653 0
M  V30 3629 H 327.246 1.57813 0.936342 0
M  V30 3630 H 325.628 1.73778 3.55833 0
M  V30 3631 H 326.802 4.14424 2.01467 0
M  V30 3632 H 325.117 3.67306 1.96151 0
M  V30 3633 H 327.714 2.75046 4.58534 0
M  V30 3634 H 328.057 1.13966 4.00397 0
M  V30 3635 H 328.59 2.54837 3.05455 0
M  V30 3636 H 325.329 5.5027 3.56207 0
M  V30 3637 H 324.849 4.03241 4.44024 0
M  V30 3638 H 326.528 4.62006 4.52946 0
M  V30 3639 N 326.66 -1.06551 1.16123 0
M  V30 3640 C 327.623 -2.12132 0.867906 0
M  V30 3641 C 328.623 -1.60224 -0.135944 0
M  V30 3642 O 329.813 -1.73943 0.0946422 0
M  V30 3643 C 326.945 -3.396 0.297419 0
M  V30 3644 H 328.138 -2.39586 1.80385 0
M  V30 3645 H 325.691 -1.22574 0.969812 0
M  V30 3646 H 326.426 -3.17794 -0.64633 0
M  V30 3647 H 326.211 -3.78581 1.02073 0
M  V30 3648 H 327.701 -4.17455 0.110052 0
M  V30 3649 N 328.138 -0.959301 -1.25041 0
M  V30 3650 C 329.048 -0.489994 -2.29426 0
M  V30 3651 C 330.064 0.444944 -1.68215 0
M  V30 3652 O 331.24 0.320046 -1.98841 0
M  V30 3653 C 328.305 0.220309 -3.45999 0
M  V30 3654 C 327.366 -0.753418 -4.22637 0
M  V30 3655 C 326.599 -0.076918 -5.33645 0
M  V30 3656 O 326.822 1.13649 -5.58963 0
M  V30 3657 O 325.756 -0.764824 -5.97021 0
M  V30 3658 H 329.582 -1.35755 -2.71669 0
M  V30 3659 H 327.167 -0.725961 -1.30576 0
M  V30 3660 H 329.049 0.619677 -4.16819 0
M  V30 3661 H 327.724 1.06296 -3.0575 0
M  V30 3662 H 326.631 -1.20308 -3.54227 0
M  V30 3663 H 327.964 -1.56423 -4.66683 0
M  V30 3664 N 329.616 1.39756 -0.72842 0
M  V30 3665 C 330.546 2.33289 -0.0991354 0
M  V30 3666 C 331.527 1.53568 0.731489 0
M  V30 3667 O 332.712 1.81987 0.677807 0
M  V30 3668 C 329.842 3.3763 0.813834 0
M  V30 3669 C 328.796 4.2791 0.0878663 0
M  V30 3670 C 328.122 5.22894 1.11741 0
M  V30 3671 C 329.422 5.11314 -1.06563 0
M  V30 3672 H 331.116 2.86163 -0.880408 0
M  V30 3673 H 328.662 1.37591 -0.424819 0
M  V30 3674 H 330.615 4.0201 1.26355 0
M  V30 3675 H 329.339 2.83181 1.62715 0
M  V30 3676 H 327.998 3.65 -0.342159 0
M  V30 3677 H 327.646 4.64744 1.92412 0
M  V30 3678 H 327.346 5.84143 0.636477 0
M  V30 3679 H 328.87 5.90151 1.56697 0
M  V30 3680 H 330.284 5.69076 -0.694671 0
M  V30 3681 H 328.681 5.81671 -1.47577 0
M  V30 3682 H 329.751 4.46534 -1.89038 0
M  V30 3683 N 331.094 0.475555 1.50254 0
M  V30 3684 C 332.024 -0.30611 2.31485 0
M  V30 3685 C 333.005 -0.986228 1.38591 0
M  V30 3686 O 334.19 -0.982541 1.67511 0
M  V30 3687 C 331.32 -1.38588 3.1845 0
M  V30 3688 C 330.274 -0.827115 4.19932 0
M  V30 3689 C 329.6 -2.00551 4.95665 0
M  V30 3690 C 330.9 0.16463 5.2204 0
M  V30 3691 H 332.594 0.371866 2.97082 0
M  V30 3692 H 330.14 0.180282 1.42867 0
M  V30 3693 H 332.093 -1.94023 3.74076 0
M  V30 3694 H 330.817 -2.09269 2.50747 0
M  V30 3695 H 329.476 -0.294702 3.65414 0
M  V30 3696 H 329.124 -2.6994 4.2443 0
M  V30 3697 H 328.824 -1.63784 5.64313 0
M  V30 3698 H 330.348 -2.56468 5.54127 0
M  V30 3699 H 331.762 -0.300699 5.72511 0
M  V30 3700 H 330.159 0.446813 5.98434 0
M  V30 3701 H 331.229 1.08905 4.72512 0
M  V30 3702 N 332.573 -1.56217 0.208337 0
M  V30 3703 C 333.483 -2.23316 -0.718836 0
M  V30 3704 C 334.499 -1.23648 -1.22422 0
M  V30 3705 O 335.675 -1.56423 -1.26861 0
M  V30 3706 C 332.74 -2.88968 -1.91568 0
M  V30 3707 C 331.801 -4.03943 -1.45357 0
M  V30 3708 C 331.034 -4.66455 -2.59337 0
M  V30 3709 O 331.257 -4.27919 -3.77149 0
M  V30 3710 O 330.191 -5.55686 -2.31293 0
M  V30 3711 H 334.017 -3.03182 -0.177315 0
M  V30 3712 H 331.602 -1.49384 -0.0215402 0
M  V30 3713 H 333.484 -3.30455 -2.61491 0
M  V30 3714 H 332.159 -2.12071 -2.44556 0
M  V30 3715 H 331.066 -3.67052 -0.722746 0
M  V30 3716 H 332.399 -4.82543 -0.970219 0
M  V30 3717 N 334.051 0.0651679 -1.57465 0
M  V30 3718 C 335.3 0.761916 -1.86756 0
M  V30 3719 C 335.613 1.78406 -0.801925 0
M  V30 3720 O 336.819 2.53084 -0.982885 0
M  V30 3721 C 335.275 1.40603 -3.31299 0
M  V30 3722 C 334.883 0.422115 -4.46007 0
M  V30 3723 C 336.627 2.08476 -3.69781 0
M  V30 3724 C 334.534 1.07252 -5.81593 0
M  V30 3725 H 333.464 0.288308 -0.696702 0
M  V30 3726 H 336.115 0.015344 -1.83494 0
M  V30 3727 H 334.497 2.20109 -3.29193 0
M  V30 3728 H 335.671 -0.343613 -4.59517 0
M  V30 3729 H 333.986 -0.152527 -4.16121 0
M  V30 3730 H 336.583 2.57925 -4.68379 0
M  V30 3731 H 336.926 2.88712 -2.99919 0
M  V30 3732 H 337.459 1.35792 -3.73905 0
M  V30 3733 H 334.198 0.310342 -6.54765 0
M  V30 3734 H 333.718 1.80895 -5.71872 0
M  V30 3735 H 335.397 1.59043 -6.27148 0
M  V30 3736 N 335.529 1.53961 0.336706 0
M  V30 3737 C 336.459 1.85417 1.41925 0
M  V30 3738 C 337.44 0.709856 1.5458 0
M  V30 3739 O 338.625 0.962396 1.68676 0
M  V30 3740 C 335.755 2.06985 2.78881 0
M  V30 3741 C 334.709 3.22813 2.81026 0
M  V30 3742 C 334.035 3.29727 4.20932 0
M  V30 3743 C 335.335 4.60767 2.45949 0
M  V30 3744 H 337.029 2.76079 1.15848 0
M  V30 3745 H 334.575 1.32839 0.555859 0
M  V30 3746 H 336.528 2.27575 3.54665 0
M  V30 3747 H 335.252 1.13061 3.06406 0
M  V30 3748 H 333.911 3.0209 2.07695 0
M  V30 3749 H 333.559 2.33385 4.45579 0
M  V30 3750 H 333.259 4.07566 4.23277 0
M  V30 3751 H 334.783 3.52536 4.98549 0
M  V30 3752 H 336.197 4.81325 3.11446 0
M  V30 3753 H 334.594 5.4106 2.59566 0
M  V30 3754 H 335.664 4.6391 1.41122 0
M  V30 3755 N 337.007 -0.598083 1.45811 0
M  V30 3756 C 338.255 -1.35413 1.50026 0
M  V30 3757 C 338.576 -1.94444 0.147177 0
M  V30 3758 O 337.846 -1.77701 -0.824571 0
M  V30 3759 H 336.426 -0.502727 0.552517 0
M  V30 3760 H 339.088 -0.701606 1.81834 0
M  V30 3761 H 338.184 -2.16871 2.2444 0
M  V30 3762 N 338.485 -1.33259 -0.841409 0
M  V30 3763 C 339.71 -1.2775 -1.63385 0
M  V30 3764 C 340.135 0.149188 -1.87507 0
M  V30 3765 O 339.493 1.10498 -1.43736 0
M  V30 3766 C 339.541 -2.05571 -2.96265 0
M  V30 3767 O 338.645 -1.41257 -3.87453 0
M  V30 3768 H 337.986 -0.439627 -0.497618 0
M  V30 3769 H 340.516 -1.75782 -1.04699 0
M  V30 3770 H 340.526 -2.16241 -3.45982 0
M  V30 3771 H 339.201 -3.09309 -2.7803 0
M  V30 3772 H 337.778 -1.39217 -3.45938 0
M  V30 3773 N 339.963 1.05934 -1.16686 0
M  V30 3774 C 341.212 1.78188 -0.945085 0
M  V30 3775 C 341.525 1.88338 0.528021 0
M  V30 3776 O 342.731 2.57258 0.867799 0
M  V30 3777 C 341.187 3.20277 -1.64167 0
M  V30 3778 C 340.795 3.18281 -3.15279 0
M  V30 3779 C 342.539 3.97039 -1.502 0
M  V30 3780 C 340.446 4.55112 -3.7766 0
M  V30 3781 H 339.376 0.667866 -0.349959 0
M  V30 3782 H 342.027 1.18794 -1.39858 0
M  V30 3783 H 340.409 3.79952 -1.11589 0
M  V30 3784 H 341.583 2.68167 -3.74731 0
M  V30 3785 H 339.898 2.55018 -3.29173 0
M  V30 3786 H 342.495 4.98194 -1.94183 0
M  V30 3787 H 342.838 4.13845 -0.451461 0
M  V30 3788 H 343.371 3.43894 -1.99954 0
M  V30 3789 H 340.11 4.43512 -4.82677 0
M  V30 3790 H 339.63 5.05406 -3.22994 0
M  V30 3791 H 341.309 5.24064 -3.79428 0
M  V30 3792 N 341.441 0.965919 1.2453 0
M  V30 3793 C 342.69 0.622437 1.91856 0
M  V30 3794 C 343.003 -0.846006 1.76358 0
M  V30 3795 O 344.209 -1.29993 2.38357 0
M  V30 3796 C 342.665 1.0626 3.43856 0
M  V30 3797 C 342.273 2.55437 3.68043 0
M  V30 3798 C 344.017 0.792183 4.17043 0
M  V30 3799 C 341.924 2.93196 5.13605 0
M  V30 3800 H 340.854 0.229092 0.718354 0
M  V30 3801 H 343.505 1.17189 1.41206 0
M  V30 3802 H 341.887 0.441476 3.93531 0
M  V30 3803 H 343.061 3.22665 3.28974 0
M  V30 3804 H 341.376 2.8007 3.08139 0
M  V30 3805 H 343.973 1.05031 5.24283 0
M  V30 3806 H 344.316 -0.271584 4.15413 0
M  V30 3807 H 344.849 1.37419 3.73311 0
M  V30 3808 H 341.588 3.98636 5.20355 0
M  V30 3809 H 341.108 2.30651 5.53679 0
M  V30 3810 H 342.787 2.83004 5.81823 0
M  V30 3811 N 342.919 -1.39368 0.735821 0
M  V30 3812 C 343.867 -2.32443 0.0855131 0
M  V30 3813 C 344.861 -1.53104 -0.724954 0
M  V30 3814 O 346.067 -1.68762 -0.626047 0
M  V30 3815 H 342.442 -0.751948 0.00885257 0
M  V30 3816 H 344.413 -2.84916 0.886883 0
M  V30 3817 C 343.162 -3.38206 -0.806983 0
M  V30 3818 H 342.485 -3.99335 -0.19274 0
M  V30 3819 H 343.925 -4.05779 -1.2296 0
M  V30 3820 C 342.384 -2.75321 -1.94165 0
M  V30 3821 O 342.914 -2.63231 -3.03435 0
M  V30 3822 N 341.12 -2.33396 -1.73132 0
M  V30 3823 H 340.667 -2.4343 -0.842596 0
M  V30 3824 H 340.625 -1.91661 -2.49225 0
M  V30 3825 N 344.397 -0.483516 -1.5 0
M  V30 3826 C 345.645 0.067027 -2.01989 0
M  V30 3827 C 345.966 1.3909 -1.36671 0
M  V30 3828 O 345.236 1.88978 -0.516152 0
M  V30 3829 H 343.816 0.0277606 -0.746484 0
M  V30 3830 H 346.478 -0.636773 -1.84204 0
M  V30 3831 H 345.574 0.209484 -3.11396 0
M  V30 3832 N 345.875 1.56104 -0.216619 0
M  V30 3833 C 347.122 1.98172 0.416416 0
M  V30 3834 C 347.45 1.10413 1.60122 0
M  V30 3835 O 346.705 0.147967 1.9514 0
M  V30 3836 C 347.004 3.45923 0.898464 0
M  V30 3837 C 346.67 4.50559 -0.175288 0
M  V30 3838 C 345.332 4.78897 -0.470271 0
M  V30 3839 C 347.684 5.1334 -0.901728 0
M  V30 3840 C 345.012 5.67299 -1.4963 0
M  V30 3841 C 347.364 6.02853 -1.91705 0
M  V30 3842 C 346.028 6.29537 -2.21901 0
M  V30 3843 H 345.298 0.725164 0.152377 0
M  V30 3844 H 347.945 1.88839 -0.318103 0
M  V30 3845 H 346.25 3.52434 1.71165 0
M  V30 3846 H 347.947 3.75841 1.39803 0
M  V30 3847 H 344.537 4.28551 0.0647806 0
M  V30 3848 H 348.721 4.91521 -0.687072 0
M  V30 3849 H 343.977 5.86239 -1.73592 0
M  V30 3850 H 348.151 6.50552 -2.48505 0
M  V30 3851 H 345.778 6.97835 -3.01548 0
M  V30 3852 N 347.353 -0.0568162 1.57498 0
M  V30 3853 C 348.316 -1.05038 2.03715 0
M  V30 3854 C 349.316 -1.30709 0.936577 0
M  V30 3855 O 350.506 -1.26178 1.20103 0
M  V30 3856 C 347.638 -2.39034 2.43055 0
M  V30 3857 H 348.831 -0.651715 2.92733 0
M  V30 3858 H 346.384 -0.302947 1.53336 0
M  V30 3859 H 347.119 -2.83703 1.57108 0
M  V30 3860 H 346.904 -2.21739 3.2338 0
M  V30 3861 H 348.394 -3.10421 2.79336 0
M  V30 3862 N 348.832 -1.54138 -0.328536 0
M  V30 3863 C 349.762 -1.86167 -1.40939 0
M  V30 3864 C 350.743 -0.718044 -1.54202 0
M  V30 3865 O 351.928 -0.971328 -1.68163 0
M  V30 3866 C 349.058 -2.08461 -2.77779 0
M  V30 3867 C 348.012 -3.24299 -2.7931 0
M  V30 3868 C 347.338 -3.31955 -4.19178 0
M  V30 3869 C 348.638 -4.62065 -2.43502 0
M  V30 3870 H 350.332 -2.76689 -1.14383 0
M  V30 3871 H 347.878 -1.33132 -0.548806 0
M  V30 3872 H 349.831 -2.29453 -3.53454 0
M  V30 3873 H 348.555 -1.14684 -3.05802 0
M  V30 3874 H 347.214 -3.03187 -2.0609 0
M  V30 3875 H 346.862 -2.35745 -4.44335 0
M  V30 3876 H 346.562 -4.09805 -4.2111 0
M  V30 3877 H 348.086 -3.55175 -4.96672 0
M  V30 3878 H 349.5 -4.8297 -3.08889 0
M  V30 3879 H 347.897 -5.42429 -2.56693 0
M  V30 3880 H 348.967 -4.64652 -1.38659 0
M  V30 3881 N 350.31 0.590341 -1.46126 0
M  V30 3882 C 351.721 1.17243 -1.45296 0
M  V30 3883 C 352.072 1.95281 -0.189723 0
M  V30 3884 O 351.197 2.04502 0.707674 0
M  V30 3885 C 351.792 2.13284 -2.6324 0
M  V30 3886 C 350.351 2.66832 -2.65476 0
M  V30 3887 C 349.498 1.42557 -2.3785 0
M  V30 3888 H 352.449 0.378692 -1.54116 0
M  V30 3889 H 352.47 2.96619 -2.38323 0
M  V30 3890 H 351.982 1.56459 -3.55165 0
M  V30 3891 H 350.083 3.27548 -1.77603 0
M  V30 3892 H 350.196 3.10088 -3.65215 0
M  V30 3893 H 348.56 1.72107 -1.87753 0
M  V30 3894 H 349.343 0.875741 -3.31942 0
M  V30 3895 N 351.788 1.33704 0.83433 0
M  V30 3896 C 352.718 1.26967 1.95963 0
M  V30 3897 C 353.699 0.149337 1.69443 0
M  V30 3898 O 354.884 0.339852 1.91203 0
M  V30 3899 C 352.014 1.01275 3.32206 0
M  V30 3900 C 350.968 2.09652 3.73136 0
M  V30 3901 C 350.294 1.69166 5.07235 0
M  V30 3902 C 351.594 3.51372 3.86439 0
M  V30 3903 H 353.288 2.2112 2.01857 0
M  V30 3904 H 350.834 1.06447 0.969793 0
M  V30 3905 H 352.787 0.952106 4.10503 0
M  V30 3906 H 351.511 0.0356203 3.26581 0
M  V30 3907 H 350.17 2.14766 2.97104 0
M  V30 3908 H 349.818 0.701437 4.98085 0
M  V30 3909 H 349.518 2.41694 5.35591 0
M  V30 3910 H 351.042 1.64576 5.88003 0
M  V30 3911 H 352.456 3.48734 4.55036 0
M  V30 3912 H 350.853 4.22425 4.26236 0
M  V30 3913 H 351.923 3.89546 2.88759 0
M  V30 3914 N 353.266 -1.05314 1.17247 0
M  V30 3915 C 354.213 -2.13031 0.888058 0
M  V30 3916 C 355.183 -1.65253 -0.167537 0
M  V30 3917 O 356.368 -1.90775 -0.0305974 0
M  V30 3918 C 353.508 -3.42702 0.406147 0
M  V30 3919 C 352.621 -4.04161 1.52572 0
M  V30 3920 C 351.756 -5.21744 0.997808 0
M  V30 3921 C 350.795 -5.75207 2.09291 0
M  V30 3922 N 349.932 -6.84094 1.57986 0
M  V30 3923 H 354.772 -2.36698 1.81048 0
M  V30 3924 H 352.309 -1.16121 0.903013 0
M  V30 3925 H 354.267 -4.17059 0.108305 0
M  V30 3926 H 352.897 -3.19222 -0.479313 0
M  V30 3927 H 351.949 -3.27253 1.93931 0
M  V30 3928 H 353.261 -4.39881 2.35172 0
M  V30 3929 H 352.415 -6.03168 0.653739 0
M  V30 3930 H 351.154 -4.87495 0.141232 0
M  V30 3931 H 350.159 -4.92414 2.44557 0
M  V30 3932 H 351.384 -6.11505 2.95362 0
M  V30 3933 H 349.33 -6.51745 0.74598 0
M  V30 3934 H 349.247 -7.18811 2.34195 0
M  V30 3935 H 350.515 -7.69172 1.26468 0
M  V30 3936 N 354.744 -0.972509 -1.24016 0
M  V30 3937 C 355.654 -0.5143 -2.28893 0
M  V30 3938 C 356.67 0.427078 -1.68677 0
M  V30 3939 O 357.846 0.298939 -1.99169 0
M  V30 3940 C 354.911 0.183598 -3.46214 0
M  V30 3941 C 353.972 -0.798202 -4.21814 0
M  V30 3942 C 353.205 -0.133514 -5.33533 0
M  V30 3943 O 353.428 1.07714 -5.60137 0
M  V30 3944 O 352.362 -0.828103 -5.96176 0
M  V30 3945 H 356.188 -1.38629 -2.70214 0
M  V30 3946 H 353.773 -0.739769 -1.29799 0
M  V30 3947 H 355.655 0.575433 -4.17453 0
M  V30 3948 H 354.33 1.03048 -3.0686 0
M  V30 3949 H 353.237 -1.24059 -3.52931 0
M  V30 3950 H 354.57 -1.61364 -4.64997 0
M  V30 3951 N 356.222 1.38976 -0.743202 0
M  V30 3952 C 357.132 2.3434 -0.110399 0
M  V30 3953 C 358.148 1.58741 0.712559 0
M  V30 3954 O 359.324 1.9099 0.639125 0
M  V30 3955 C 356.389 3.37812 0.780012 0
M  V30 3956 C 355.45 4.29263 -0.0561319 0
M  V30 3957 C 354.683 5.27793 0.791875 0
M  V30 3958 O 354.906 5.33043 2.03031 0
M  V30 3959 O 353.84 6.01512 0.216183 0
M  V30 3960 H 357.666 2.90129 -0.897714 0
M  V30 3961 H 355.251 1.40643 -0.503966 0
M  V30 3962 H 357.133 4.01194 1.28923 0
M  V30 3963 H 355.808 2.84395 1.546 0
M  V30 3964 H 354.715 3.69076 -0.611056 0
M  V30 3965 H 356.048 4.85907 -0.784531 0
M  V30 3966 N 357.7 0.491464 1.49741 0
M  V30 3967 C 358.65 -0.311086 2.25868 0
M  V30 3968 C 359.634 -0.943857 1.30308 0
M  V30 3969 O 360.826 -0.853035 1.55088 0
M  V30 3970 C 357.955 -1.38059 3.14316 0
M  V30 3971 C 357.041 -0.754541 4.17334 0
M  V30 3972 N 357.432 0.137216 5.05614 0
M  V30 3973 C 355.73 -1.01621 4.34269 0
M  V30 3974 C 356.431 0.494614 5.79593 0
M  V30 3975 N 355.407 -0.135169 5.43432 0
M  V30 3976 H 359.209 0.37555 2.91491 0
M  V30 3977 H 356.723 0.306917 1.59473 0
M  V30 3978 H 358.72 -1.96891 3.67477 0
M  V30 3979 H 357.38 -2.06901 2.50244 0
M  V30 3980 H 358.391 0.50741 5.15408 0
M  V30 3981 H 355.068 -1.69808 3.81407 0
M  V30 3982 H 356.458 1.2236 6.60665 0
M  V30 3983 N 359.178 -1.55987 0.224894 0
M  V30 3984 C 360.125 -2.20436 -0.68385 0
M  V30 3985 C 361.095 -1.16102 -1.18783 0
M  V30 3986 O 362.28 -1.4447 -1.24632 0
M  V30 3987 C 359.42 -2.89076 -1.88491 0
M  V30 3988 C 358.533 -4.08012 -1.41951 0
M  V30 3989 C 357.668 -4.64426 -2.5784 0
M  V30 3990 C 356.707 -5.75656 -2.08053 0
M  V30 3991 N 355.844 -6.26347 -3.17227 0
M  V30 3992 H 360.684 -2.97727 -0.12754 0
M  V30 3993 H 358.221 -1.47011 -0.0511978 0
M  V30 3994 H 360.179 -3.27059 -2.59014 0
M  V30 3995 H 358.809 -2.14298 -2.41405 0
M  V30 3996 H 357.861 -3.75492 -0.609095 0
M  V30 3997 H 359.173 -4.88375 -1.01447 0
M  V30 3998 H 358.327 -5.04869 -3.3644 0
M  V30 3999 H 357.066 -3.83233 -3.01635 0
M  V30 4000 H 356.071 -5.34712 -1.27916 0
M  V30 4001 H 357.296 -6.58686 -1.65255 0
M  V30 4002 H 355.242 -5.48067 -3.60497 0
M  V30 4003 H 355.159 -7.01843 -2.80986 0
M  V30 4004 H 356.427 -6.71447 -3.95953 0
M  V30 4005 N 360.656 0.0484629 -1.57525 0
M  V30 4006 C 361.905 0.742065 -1.87553 0
M  V30 4007 C 362.218 1.77545 -0.820802 0
M  V30 4008 O 363.424 2.52027 -1.00967 0
M  V30 4009 C 361.88 1.37081 -3.32771 0
M  V30 4010 C 361.488 0.374786 -4.4643 0
M  V30 4011 C 363.232 2.04542 -3.71972 0
M  V30 4012 C 361.139 1.01077 -5.82698 0
M  V30 4013 H 360.069 0.280903 -0.699721 0
M  V30 4014 H 362.72 -0.00411877 -1.835 0
M  V30 4015 H 361.102 2.16605 -3.31509 0
M  V30 4016 H 362.276 -0.392331 -4.59127 0
M  V30 4017 H 360.591 -0.196653 -4.15935 0
M  V30 4018 H 363.188 2.52943 -4.71088 0
M  V30 4019 H 363.531 2.85515 -3.02964 0
M  V30 4020 H 364.064 1.31819 -3.75325 0
M  V30 4021 H 360.803 0.240878 -6.55057 0
M  V30 4022 H 360.323 1.74819 -5.73758 0
M  V30 4023 H 362.002 1.52383 -6.28799 0
M  V30 4024 N 362.134 1.5431 0.320358 0
M  V30 4025 C 363.381 1.72668 1.05792 0
M  V30 4026 C 363.709 0.502084 1.87908 0
M  V30 4027 O 362.964 -0.516149 1.88771 0
M  V30 4028 C 363.263 2.95639 2.00828 0
M  V30 4029 C 362.929 4.30265 1.34843 0
M  V30 4030 C 361.591 4.66865 1.16578 0
M  V30 4031 C 363.943 5.13801 0.875095 0
M  V30 4032 C 361.271 5.84597 0.496336 0
M  V30 4033 C 363.623 6.32219 0.219463 0
M  V30 4034 C 362.287 6.67495 0.0246915 0
M  V30 4035 H 361.557 0.631837 0.387121 0
M  V30 4036 H 364.204 1.88552 0.334735 0
M  V30 4037 H 362.509 2.74456 2.79609 0
M  V30 4038 H 364.206 3.07038 2.57932 0
M  V30 4039 H 360.796 4.01472 1.50061 0
M  V30 4040 H 364.98 4.86039 1.00398 0
M  V30 4041 H 360.236 6.10486 0.334264 0
M  V30 4042 H 364.41 6.96227 -0.155291 0
M  V30 4043 H 362.037 7.5858 -0.496065 0
M  V30 4044 N 363.613 -0.582584 1.46437 0
M  V30 4045 C 364.543 -1.70187 1.59871 0
M  V30 4046 C 365.524 -1.64066 0.449042 0
M  V30 4047 O 366.709 -1.82081 0.6753 0
M  V30 4048 C 363.839 -3.08827 1.58881 0
M  V30 4049 C 362.793 -3.29779 2.72819 0
M  V30 4050 C 362.119 -4.68947 2.5689 0
M  V30 4051 C 363.419 -3.17601 4.1464 0
M  V30 4052 H 365.113 -1.592 2.53566 0
M  V30 4053 H 362.659 -0.764472 1.22032 0
M  V30 4054 H 364.612 -3.86951 1.66873 0
M  V30 4055 H 363.336 -3.20713 0.617306 0
M  V30 4056 H 361.995 -2.54054 2.64296 0
M  V30 4057 H 361.643 -4.77599 1.57823 0
M  V30 4058 H 361.343 -4.83919 3.33312 0
M  V30 4059 H 362.867 -5.4924 2.66773 0
M  V30 4060 H 364.281 -3.8557 4.24274 0
M  V30 4061 H 362.678 -3.44094 4.9165 0
M  V30 4062 H 363.748 -2.14681 4.34788 0
M  V30 4063 N 365.091 -1.34144 -0.827227 0
M  V30 4064 C 366.021 -1.28005 -1.95287 0
M  V30 4065 C 367.002 -0.158321 -1.69362 0
M  V30 4066 O 368.187 -0.349987 -1.9102 0
M  V30 4067 C 365.317 -1.03036 -3.31664 0
M  V30 4068 C 364.271 -2.11628 -3.72019 0
M  V30 4069 C 363.597 -1.71854 -5.0633 0
M  V30 4070 C 364.897 -3.53417 -3.8457 0
M  V30 4071 H 366.591 -2.22187 -2.00682 0
M  V30 4072 H 364.137 -1.0696 -0.964135 0
M  V30 4073 H 366.09 -0.973863 -4.09993 0
M  V30 4074 H 364.814 -0.0529391 -3.26557 0
M  V30 4075 H 363.473 -2.16339 -2.95961 0
M  V30 4076 H 363.121 -0.727841 -4.97706 0
M  V30 4077 H 362.821 -2.44531 -5.34302 0
M  V30 4078 H 364.345 -1.67692 -5.87122 0
M  V30 4079 H 365.759 -3.51142 -4.5318 0
M  V30 4080 H 364.156 -4.24679 -4.2399 0
M  V30 4081 H 365.226 -3.91072 -2.86689 0
M  V30 4082 N 366.569 1.04691 -1.17803 0
M  V30 4083 C 367.516 2.12557 -0.899343 0
M  V30 4084 C 368.486 1.65339 0.158771 0
M  V30 4085 O 369.671 1.90789 0.0204797 0
M  V30 4086 C 366.811 3.42481 -0.424315 0
M  V30 4087 C 365.924 4.03346 -1.54713 0
M  V30 4088 C 365.059 5.21208 -1.02546 0
M  V30 4089 C 364.098 5.74089 -2.12339 0
M  V30 4090 N 363.235 6.83247 -1.61612 0
M  V30 4091 H 368.075 2.35734 -1.823 0
M  V30 4092 H 365.612 1.1564 -0.909159 0
M  V30 4093 H 367.57 4.16996 -0.130421 0
M  V30 4094 H 366.2 3.19471 0.462377 0
M  V30 4095 H 365.252 3.2622 -1.95664 0
M  V30 4096 H 366.564 4.38628 -2.37501 0
M  V30 4097 H 365.718 6.02812 -0.685718 0
M  V30 4098 H 364.457 4.87414 -0.167084 0
M  V30 4099 H 363.462 4.91111 -2.47165 0
M  V30 4100 H 364.687 6.0993 -2.98601 0
M  V30 4101 H 362.633 6.5134 -0.780533 0
M  V30 4102 H 362.55 7.17559 -2.38003 0
M  V30 4103 H 363.818 7.68491 -1.30545 0
M  V30 4104 N 368.047 0.979072 1.23499 0
M  V30 4105 C 369.293 0.648178 1.92163 0
M  V30 4106 C 369.626 -0.816049 1.76222 0
M  V30 4107 O 368.901 -1.58849 1.12237 0
M  V30 4108 C 369.184 1.03773 3.44824 0
M  V30 4109 C 369.037 2.55948 3.69879 0
M  V30 4110 C 370.356 0.580653 4.36253 0
M  V30 4111 H 367.475 0.236952 0.69787 0
M  V30 4112 H 370.117 1.22012 1.45647 0
M  V30 4113 H 368.267 0.551058 3.84572 0
M  V30 4114 H 369.939 3.12179 3.3962 0
M  V30 4115 H 368.182 2.98641 3.14636 0
M  V30 4116 H 368.853 2.78255 4.76737 0
M  V30 4117 H 371.329 0.998465 4.03943 0
M  V30 4118 H 370.205 0.881663 5.41773 0
M  V30 4119 H 370.466 -0.519052 4.39042 0
M  V30 4120 N 369.525 -1.3858 0.750561 0
M  V30 4121 C 370.455 -2.33102 0.136237 0
M  V30 4122 C 371.436 -1.54713 -0.706965 0
M  V30 4123 O 372.621 -1.83043 -0.648769 0
M  V30 4124 C 369.751 -3.38882 -0.760017 0
M  V30 4125 C 368.705 -4.27995 -0.0197785 0
M  V30 4126 C 368.031 -5.24605 -1.03408 0
M  V30 4127 C 369.331 -5.09554 1.14684 0
M  V30 4128 H 371.025 -2.84726 0.925822 0
M  V30 4129 H 368.571 -1.36898 0.446654 0
M  V30 4130 H 370.524 -4.0397 -1.19943 0
M  V30 4131 H 369.248 -2.85734 -1.58189 0
M  V30 4132 H 367.907 -3.64409 0.400184 0
M  V30 4133 H 367.555 -4.67746 -1.84994 0
M  V30 4134 H 367.255 -5.85081 -0.543464 0
M  V30 4135 H 368.779 -5.9257 -1.47288 0
M  V30 4136 H 370.193 -5.67899 0.785118 0
M  V30 4137 H 368.59 -5.7925 1.56812 0
M  V30 4138 H 369.66 -4.4347 1.96118 0
M  V30 4139 N 371.003 -0.499398 -1.49478 0
M  V30 4140 C 371.933 0.269244 -2.31943 0
M  V30 4141 C 372.914 0.964054 -1.40143 0
M  V30 4142 O 374.099 0.955767 -1.69052 0
M  V30 4143 C 371.229 1.33504 -3.20615 0
M  V30 4144 C 370.183 0.760202 -4.21195 0
M  V30 4145 C 369.509 1.9264 -4.98792 0
M  V30 4146 C 370.809 -0.247661 -5.21712 0
M  V30 4147 H 372.503 -0.419082 -2.96452 0
M  V30 4148 H 370.049 -0.202988 -1.42562 0
M  V30 4149 H 372.002 1.88048 -3.77115 0
M  V30 4150 H 370.726 2.05253 -2.54045 0
M  V30 4151 H 369.385 0.23653 -3.65836 0
M  V30 4152 H 369.033 2.63154 -4.28671 0
M  V30 4153 H 368.733 1.54785 -5.66847 0
M  V30 4154 H 370.257 2.4762 -5.58137 0
M  V30 4155 H 371.671 0.209579 -5.72917 0
M  V30 4156 H 370.068 -0.541962 -5.97648 0
M  V30 4157 H 371.138 -1.16409 -4.7072 0
M  V30 4158 N 372.481 1.55866 -0.233164 0
M  V30 4159 C 373.892 1.847 0.272554 0
M  V30 4160 C 374.243 1.15477 1.58617 0
M  V30 4161 O 373.368 0.42841 2.12117 0
M  V30 4162 C 373.963 3.35071 0.501299 0
M  V30 4163 C 372.522 3.6418 0.951304 0
M  V30 4164 C 371.669 2.77292 0.0208209 0
M  V30 4165 H 374.62 1.52005 -0.456074 0
M  V30 4166 H 374.641 3.55906 1.34577 0
M  V30 4167 H 374.153 3.85424 -0.454936 0
M  V30 4168 H 372.254 3.19293 1.92049 0
M  V30 4169 H 372.367 4.72071 0.817675 0
M  V30 4170 H 370.731 2.49131 0.529723 0
M  V30 4171 H 371.514 3.30448 -0.93054 0
M  V30 4172 N 373.959 -0.0401083 1.57549 0
M  V30 4173 C 374.889 -1.04384 2.08869 0
M  V30 4174 C 375.87 -1.38407 0.988817 0
M  V30 4175 O 377.055 -1.47483 1.26342 0
M  V30 4176 C 374.185 -2.34808 2.55895 0
M  V30 4177 C 373.139 -2.15057 3.70047 0
M  V30 4178 C 372.465 -3.51145 4.03239 0
M  V30 4179 C 373.765 -1.54576 4.98902 0
M  V30 4180 H 375.459 -0.616666 2.92981 0
M  V30 4181 H 373.005 -0.295184 1.40942 0
M  V30 4182 H 374.958 -3.05346 2.90417 0
M  V30 4183 H 373.682 -2.79565 1.68853 0
M  V30 4184 H 372.341 -1.46954 3.35857 0
M  V30 4185 H 371.989 -3.93529 3.13279 0
M  V30 4186 H 371.689 -3.38758 4.80122 0
M  V30 4187 H 373.213 -4.23062 4.40285 0
M  V30 4188 H 374.627 -2.15017 5.31451 0
M  V30 4189 H 373.024 -1.52796 5.80322 0
M  V30 4190 H 374.094 -0.51039 4.82206 0
M  V30 4191 N 375.437 -1.54477 -0.31217 0
M  V30 4192 C 376.387 -1.81037 -1.38598 0
M  V30 4193 C 377.371 -0.666941 -1.46426 0
M  V30 4194 O 378.563 -0.927269 -1.50767 0
M  V30 4195 C 375.692 -2.05127 -2.75277 0
M  V30 4196 C 374.778 -3.25624 -2.71716 0
M  V30 4197 N 375.169 -4.46428 -2.37773 0
M  V30 4198 C 373.467 -3.27427 -3.02833 0
M  V30 4199 C 374.168 -5.28406 -2.43232 0
M  V30 4200 N 373.144 -4.6586 -2.80135 0
M  V30 4201 H 376.946 -2.7201 -1.11301 0
M  V30 4202 H 374.46 -1.53826 -0.520705 0
M  V30 4203 H 376.457 -2.22299 -3.52688 0
M  V30 4204 H 375.117 -1.15416 -3.03495 0
M  V30 4205 H 376.128 -4.73227 -2.1042 0
M  V30 4206 H 372.805 -2.47786 -3.36018 0
M  V30 4207 H 374.195 -6.34903 -2.19882 0
M  V30 4208 N 376.915 0.57481 -1.46744 0
M  V30 4209 C 377.862 1.68329 -1.57905 0
M  V30 4210 C 378.832 1.60625 -0.422927 0
M  V30 4211 O 380.017 1.79721 -0.640711 0
M  V30 4212 C 377.157 3.06665 -1.58274 0
M  V30 4213 C 376.27 3.24935 -2.84678 0
M  V30 4214 C 375.405 4.53566 -2.76499 0
M  V30 4215 C 374.444 4.65207 -3.97806 0
M  V30 4216 N 373.581 5.85172 -3.87967 0
M  V30 4217 H 378.421 1.58127 -2.52587 0
M  V30 4218 H 375.958 0.770552 -1.25303 0
M  V30 4219 H 377.916 3.86745 -1.56473 0
M  V30 4220 H 376.546 3.15745 -0.671194 0
M  V30 4221 H 375.598 2.38405 -2.96424 0
M  V30 4222 H 376.91 3.29403 -3.7456 0
M  V30 4223 H 376.064 5.41885 -2.72848 0
M  V30 4224 H 374.803 4.51548 -1.8427 0
M  V30 4225 H 373.808 3.75304 -4.0178 0
M  V30 4226 H 375.033 4.68997 -4.9114 0
M  V30 4227 H 372.979 5.84137 -2.98529 0
M  V30 4228 H 372.896 5.90943 -4.71511 0
M  V30 4229 H 374.164 6.759 -3.88303 0
M  V30 4230 N 378.394 1.34581 0.820102 0
M  V30 4231 C 379.64 1.27285 1.57881 0
M  V30 4232 C 379.973 -0.156137 1.93571 0
M  V30 4233 O 379.248 -1.10222 1.60254 0
M  V30 4234 C 379.531 2.16639 2.87645 0
M  V30 4235 C 379.384 3.68088 2.58517 0
M  V30 4236 C 380.703 2.05378 3.8924 0
M  V30 4237 H 377.822 0.463714 0.572833 0
M  V30 4238 H 380.464 1.64859 0.944539 0
M  V30 4239 H 378.614 1.84725 3.41773 0
M  V30 4240 H 380.286 4.10382 2.10676 0
M  V30 4241 H 378.529 3.89038 1.91917 0
M  V30 4242 H 379.2 4.2598 3.51063 0
M  V30 4243 H 381.676 2.33404 3.44473 0
M  V30 4244 H 380.552 2.7012 4.77835 0
M  V30 4245 H 380.813 1.0316 4.29896 0
M  V30 4246 N 379.872 -1.04064 1.18357 0
M  V30 4247 C 380.819 -2.12077 0.910603 0
M  V30 4248 C 381.789 -1.65421 -0.15 0
M  V30 4249 O 382.974 -1.90797 -0.0103614 0
M  V30 4250 C 380.114 -3.42252 0.442472 0
M  V30 4251 C 379.227 -4.0252 1.5685 0
M  V30 4252 C 378.362 -5.20657 1.05309 0
M  V30 4253 C 377.401 -5.72955 2.1538 0
M  V30 4254 N 376.538 -6.8238 1.65233 0
M  V30 4255 H 381.378 -2.34764 1.83548 0
M  V30 4256 H 378.915 -1.15157 0.915279 0
M  V30 4257 H 380.873 -4.16921 0.152534 0
M  V30 4258 H 379.503 -3.19712 -0.445428 0
M  V30 4259 H 378.555 -3.25178 1.97391 0
M  V30 4260 H 379.867 -4.37362 2.39824 0
M  V30 4261 H 379.021 -6.0244 0.717677 0
M  V30 4262 H 377.76 -4.87318 0.19293 0
M  V30 4263 H 376.765 -4.89793 2.49766 0
M  V30 4264 H 377.99 -6.08337 3.01832 0
M  V30 4265 H 375.936 -6.50917 0.815064 0
M  V30 4266 H 375.853 -7.16286 2.41805 0
M  V30 4267 H 377.121 -7.67788 1.34619 0
M  V30 4268 N 381.35 -0.985608 -1.22978 0
M  V30 4269 C 382.575 -0.675254 -1.961 0
M  V30 4270 C 383 0.752154 -1.72407 0
M  V30 4271 O 382.358 1.5131 -0.998751 0
M  V30 4272 C 382.406 -0.977899 -3.47087 0
M  V30 4273 O 381.51 -0.072685 -4.12336 0
M  V30 4274 H 380.851 -0.253443 -0.613728 0
M  V30 4275 H 383.381 -1.32061 -1.56272 0
M  V30 4276 H 383.391 -0.916739 -3.97567 0
M  V30 4277 H 382.066 -2.01807 -3.63657 0
M  V30 4278 H 380.643 -0.188703 -3.72422 0
M  V30 4279 N 382.828 1.3818 -0.7579 0
M  V30 4280 C 383.758 2.33027 -0.148597 0
M  V30 4281 C 384.739 1.55085 0.69875 0
M  V30 4282 O 385.924 1.83384 0.639053 0
M  V30 4283 C 383.054 3.3928 0.742034 0
M  V30 4284 C 382.008 4.28 -0.00291946 0
M  V30 4285 C 381.334 5.25146 1.00625 0
M  V30 4286 C 382.634 5.08938 -1.17385 0
M  V30 4287 H 384.328 2.84231 -0.940909 0
M  V30 4288 H 381.874 1.36659 -0.453908 0
M  V30 4289 H 383.827 4.046 1.17799 0
M  V30 4290 H 382.551 2.86569 1.56671 0
M  V30 4291 H 381.21 3.64192 -0.419504 0
M  V30 4292 H 380.858 4.68721 1.8251 0
M  V30 4293 H 380.558 5.85361 0.512428 0
M  V30 4294 H 382.082 5.93342 1.44143 0
M  V30 4295 H 383.496 5.67474 -0.815224 0
M  V30 4296 H 381.893 5.7841 -1.59882 0
M  V30 4297 H 382.963 4.42424 -1.98468 0
M  V30 4298 N 384.306 0.507319 1.49211 0
M  V30 4299 C 385.531 -0.033725 2.07373 0
M  V30 4300 C 385.956 -1.29485 1.36437 0
M  V30 4301 O 385.314 -1.76294 0.423087 0
M  V30 4302 C 385.362 -0.263945 3.59633 0
M  V30 4303 O 384.466 -1.33737 3.90113 0
M  V30 4304 H 383.807 0.0290331 0.663365 0
M  V30 4305 H 386.337 0.708749 1.91932 0
M  V30 4306 H 386.347 -0.493536 4.05004 0
M  V30 4307 H 385.022 0.657424 4.10671 0
M  V30 4308 H 383.599 -1.09224 3.56545 0
M  V30 4309 N 385.784 -1.5574 0.241426 0
M  V30 4310 C 387.03 -1.99104 -0.385406 0
M  V30 4311 C 387.363 -1.1293 -1.57988 0
M  V30 4312 O 386.638 -0.191449 -1.93555 0
M  V30 4313 C 386.921 -3.51087 -0.800616 0
M  V30 4314 C 386.774 -4.48028 0.398874 0
M  V30 4315 C 388.093 -4.08015 -1.64959 0
M  V30 4316 H 385.212 -0.723848 -0.138614 0
M  V30 4317 H 387.854 -1.86903 0.341642 0
M  V30 4318 H 386.004 -3.61615 -1.4201 0
M  V30 4319 H 387.676 -4.49487 1.03726 0
M  V30 4320 H 385.919 -4.21077 1.04293 0
M  V30 4321 H 386.59 -5.51962 0.0651056 0
M  V30 4322 H 389.066 -4.00555 -1.12672 0
M  V30 4323 H 387.942 -5.14635 -1.90898 0
M  V30 4324 H 388.203 -3.56131 -2.61961 0
M  V30 4325 N 387.262 0.0317525 -1.57568 0
M  V30 4326 C 388.492 0.733884 -1.93126 0
M  V30 4327 C 388.9 1.69563 -0.839352 0
M  V30 4328 O 388.243 1.82681 0.193175 0
M  V30 4329 C 388.305 1.54798 -3.24465 0
M  V30 4330 C 387.969 0.751304 -4.50782 0
M  V30 4331 C 388.966 0.0527632 -5.19873 0
M  V30 4332 C 386.651 0.706639 -4.97305 0
M  V30 4333 C 388.645 -0.679774 -6.33765 0
M  V30 4334 C 386.332 -0.0296449 -6.11093 0
M  V30 4335 C 387.33 -0.721614 -6.79177 0
M  V30 4336 O 387.018 -1.44595 -7.90789 0
M  V30 4337 H 386.75 0.211459 -0.642076 0
M  V30 4338 H 389.304 -0.00585615 -2.05399 0
M  V30 4339 H 387.534 2.33147 -3.08512 0
M  V30 4340 H 389.223 2.13247 -3.4537 0
M  V30 4341 H 389.989 0.0783188 -4.84937 0
M  V30 4342 H 385.868 1.23474 -4.44157 0
M  V30 4343 H 389.412 -1.22042 -6.86842 0
M  V30 4344 H 385.309 -0.0571331 -6.45475 0
M  V30 4345 H 386.077 -1.35935 -8.07133 0
M  V30 4346 N 388.74 1.54641 0.303973 0
M  V30 4347 C 389.69 1.8177 1.37636 0
M  V30 4348 C 390.674 0.674697 1.46071 0
M  V30 4349 O 391.866 0.935251 1.50273 0
M  V30 4350 C 388.995 2.06584 2.74186 0
M  V30 4351 C 388.081 3.2706 2.69986 0
M  V30 4352 N 388.472 4.47682 2.35402 0
M  V30 4353 C 386.77 3.29028 3.01092 0
M  V30 4354 C 387.471 5.29689 2.40426 0
M  V30 4355 N 386.447 4.67339 2.7766 0
M  V30 4356 H 390.249 2.72596 1.09857 0
M  V30 4357 H 387.763 1.541 0.51254 0
M  V30 4358 H 389.76 2.24166 3.51504 0
M  V30 4359 H 388.42 1.17024 3.02879 0
M  V30 4360 H 389.431 4.74336 2.07908 0
M  V30 4361 H 386.108 2.49565 3.34699 0
M  V30 4362 H 387.498 6.3606 2.16512 0
M  V30 4363 N 390.218 -0.567019 1.47046 0
M  V30 4364 C 391.629 -1.14916 1.47143 0
M  V30 4365 C 391.98 -1.94954 0.220767 0
M  V30 4366 O 391.105 -2.05602 -0.67505 0
M  V30 4367 C 391.7 -2.09069 2.666 0
M  V30 4368 C 390.259 -2.62575 2.69687 0
M  V30 4369 C 389.406 -1.38755 2.40088 0
M  V30 4370 H 392.357 -0.354126 1.54699 0
M  V30 4371 H 392.378 -2.92789 2.43011 0
M  V30 4372 H 391.89 -1.50789 3.57609 0
M  V30 4373 H 389.991 -3.24681 1.82792 0
M  V30 4374 H 390.104 -3.04239 3.70102 0
M  V30 4375 H 388.468 -1.69098 1.90468 0
M  V30 4376 H 389.251 -0.822822 3.33293 0
M  V30 4377 N 391.696 -1.35014 -0.812953 0
M  V30 4378 C 392.628 -1.23262 -1.93233 0
M  V30 4379 C 393.641 -0.157371 -1.62038 0
M  V30 4380 O 394.83 -0.410096 -1.73725 0
M  V30 4381 C 391.93 -0.87392 -3.27438 0
M  V30 4382 C 391.103 -2.04622 -3.86586 0
M  V30 4383 C 390.162 -1.66432 -4.99186 0
M  V30 4384 O 389.188 -2.38222 -5.16951 0
M  V30 4385 N 390.39 -0.584248 -5.77552 0
M  V30 4386 H 393.155 -2.19699 -2.03844 0
M  V30 4387 H 390.716 -1.281 -0.99005 0
M  V30 4388 H 392.708 -0.600039 -4.00227 0
M  V30 4389 H 391.278 0.00057392 -3.126 0
M  V30 4390 H 390.498 -2.48427 -3.06068 0
M  V30 4391 H 391.786 -2.82999 -4.22835 0
M  V30 4392 H 391.184 0.0123526 -5.65699 0
M  V30 4393 H 389.741 -0.37013 -6.50748 0
M  V30 4394 N 393.175 1.03435 -1.18907 0
M  V30 4395 C 394.105 2.13503 -0.945448 0
M  V30 4396 C 395.086 1.69682 0.119189 0
M  V30 4397 O 396.271 1.94169 -0.034707 0
M  V30 4398 C 393.401 3.44004 -0.477316 0
M  V30 4399 C 392.355 4.0148 -1.48316 0
M  V30 4400 C 391.681 5.27537 -0.872311 0
M  V30 4401 C 392.981 4.36921 -2.86177 0
M  V30 4402 H 394.675 2.34141 -1.86597 0
M  V30 4403 H 392.221 1.12523 -0.898584 0
M  V30 4404 H 394.174 4.20372 -0.294204 0
M  V30 4405 H 392.898 3.23072 0.478786 0
M  V30 4406 H 391.557 3.27201 -1.65332 0
M  V30 4407 H 391.205 5.02917 0.0911752 0
M  V30 4408 H 390.905 5.66954 -1.54393 0
M  V30 4409 H 392.429 6.06576 -0.699871 0
M  V30 4410 H 393.843 5.04248 -2.72776 0
M  V30 4411 H 392.24 4.87405 -3.50081 0
M  V30 4412 H 393.31 3.46466 -3.39248 0
M  V30 4413 N 394.653 0.992116 1.22453 0
M  V30 4414 C 395.616 0.546883 2.2258 0
M  V30 4415 C 396.616 -0.369829 1.56489 0
M  V30 4416 O 397.806 -0.161896 1.73446 0
M  V30 4417 C 394.938 -0.204659 3.40285 0
M  V30 4418 H 396.131 1.43234 2.63484 0
M  V30 4419 H 393.684 0.779239 1.3549 0
M  V30 4420 H 394.419 -1.10614 3.04853 0
M  V30 4421 H 394.204 0.45354 3.89468 0
M  V30 4422 H 395.694 -0.504358 4.14543 0
M  V30 4423 N 396.131 -1.37776 0.765217 0
M  V30 4424 C 397.361 -2.03828 0.337277 0
M  V30 4425 C 397.769 -1.57841 -1.04321 0
M  V30 4426 O 397.112 -0.752043 -1.67601 0
M  V30 4427 C 397.174 -3.58292 0.294407 0
M  V30 4428 C 396.838 -4.27384 1.61838 0
M  V30 4429 C 397.835 -4.51956 2.56967 0
M  V30 4430 C 395.52 -4.65345 1.89102 0
M  V30 4431 C 397.514 -5.13536 3.77571 0
M  V30 4432 C 395.201 -5.26647 3.09978 0
M  V30 4433 C 396.199 -5.50679 4.04032 0
M  V30 4434 O 395.887 -6.10702 5.2278 0
M  V30 4435 H 395.619 -0.661292 0.140248 0
M  V30 4436 H 398.173 -1.77222 1.03834 0
M  V30 4437 H 396.403 -3.83918 -0.462983 0
M  V30 4438 H 398.092 -4.05763 -0.105581 0
M  V30 4439 H 398.858 -4.23048 2.37183 0
M  V30 4440 H 394.737 -4.45978 1.16725 0
M  V30 4441 H 398.281 -5.3221 4.50997 0
M  V30 4442 H 394.178 -5.54979 3.29649 0
M  V30 4443 H 394.946 -6.29183 5.23517 0
M  V30 4444 N 397.609 -0.515225 -1.4894 0
M  V30 4445 C 398.849 0.0223983 -2.04388 0
M  V30 4446 C 399.213 1.32961 -1.38511 0
M  V30 4447 O 400.414 1.95236 -1.8476 0
M  V30 4448 C 398.685 0.157056 -3.57055 0
M  V30 4449 S 400.244 0.646875 -4.34006 0
M  V30 4450 H 397.062 -0.00500662 -0.710982 0
M  V30 4451 H 399.664 -0.69243 -1.82827 0
M  V30 4452 H 398.368 -0.799412 -4.02539 0
M  V30 4453 H 397.899 0.896704 -3.83044 0
M  V30 4454 H 399.914 1.91381 -4.57808 0
M  V30 4455 N 399.087 1.5561 -0.249682 0
M  V30 4456 C 400.333 1.99306 0.374841 0
M  V30 4457 C 400.666 1.13767 1.57387 0
M  V30 4458 O 399.941 0.201711 1.93451 0
M  V30 4459 C 400.224 3.51507 0.781986 0
M  V30 4460 C 400.077 4.4781 -0.422629 0
M  V30 4461 C 401.396 4.08884 1.62793 0
M  V30 4462 H 398.515 0.724572 0.134773 0
M  V30 4463 H 401.157 1.86719 -0.351549 0
M  V30 4464 H 399.307 3.62363 1.4009 0
M  V30 4465 H 400.979 4.48931 -1.06108 0
M  V30 4466 H 399.222 4.20518 -1.06524 0
M  V30 4467 H 399.893 5.51919 -0.0943766 0
M  V30 4468 H 402.369 4.01147 1.10547 0
M  V30 4469 H 401.245 5.1564 1.88166 0
M  V30 4470 H 401.506 3.57515 2.60068 0
M  V30 4471 N 400.565 -0.0233959 1.57583 0
M  V30 4472 C 401.811 -0.714119 1.89811 0
M  V30 4473 C 402.144 -1.74702 0.848113 0
M  V30 4474 O 401.419 -1.94023 -0.136135 0
M  V30 4475 C 401.702 -1.37853 3.32669 0
M  V30 4476 C 401.555 -0.358764 4.48367 0
M  V30 4477 C 402.874 -2.31101 3.7454 0
M  V30 4478 H 399.993 -0.25814 0.690314 0
M  V30 4479 H 402.635 0.0230927 1.89986 0
M  V30 4480 H 400.785 -2.00689 3.3265 0
M  V30 4481 H 402.457 0.268115 4.6052 0
M  V30 4482 H 400.7 0.321387 4.32608 0
M  V30 4483 H 401.371 -0.862242 5.45224 0
M  V30 4484 H 403.847 -1.78304 3.75961 0
M  V30 4485 H 402.723 -2.74567 4.75294 0
M  V30 4486 H 402.984 -3.18018 3.0711 0
M  V30 4487 N 402.043 -1.548 -0.295768 0
M  V30 4488 C 402.975 -1.82492 -1.3867 0
M  V30 4489 C 403.988 -0.708134 -1.46592 0
M  V30 4490 O 405.177 -0.985686 -1.48817 0
M  V30 4491 C 402.277 -1.95256 -2.76999 0
M  V30 4492 C 401.45 -3.25709 -2.91946 0
M  V30 4493 C 400.509 -3.28824 -4.10806 0
M  V30 4494 O 399.535 -4.02328 -4.02643 0
M  V30 4495 N 400.737 -2.5459 -5.21694 0
M  V30 4496 H 403.502 -2.76646 -1.15269 0
M  V30 4497 H 401.063 -1.54438 -0.485849 0
M  V30 4498 H 403.055 -1.94736 -3.54768 0
M  V30 4499 H 401.625 -1.08072 -2.93324 0
M  V30 4500 H 400.845 -3.38959 -2.01247 0
M  V30 4501 H 402.133 -4.11786 -2.98847 0
M  V30 4502 H 401.531 -1.94512 -5.31208 0
M  V30 4503 H 400.088 -2.59818 -5.97778 0
M  V30 4504 N 403.521 0.559213 -1.47345 0
M  V30 4505 C 404.768 1.31648 -1.53867 0
M  V30 4506 C 405.096 1.93468 -0.200104 0
M  V30 4507 O 404.351 1.78295 0.806799 0
M  V30 4508 C 404.65 2.44853 -2.6035 0
M  V30 4509 C 404.316 2.00876 -4.03683 0
M  V30 4510 C 402.978 1.88599 -4.42701 0
M  V30 4511 C 405.33 1.67279 -4.93626 0
M  V30 4512 C 402.658 1.41017 -5.69501 0
M  V30 4513 C 405.01 1.21169 -6.20887 0
M  V30 4514 C 403.674 1.07487 -6.58789 0
M  V30 4515 H 402.944 0.481734 -0.56304 0
M  V30 4516 H 405.591 0.627301 -1.80934 0
M  V30 4517 H 403.896 3.19318 -2.27032 0
M  V30 4518 H 405.593 3.03039 -2.62619 0
M  V30 4519 H 402.183 2.11374 -3.72853 0
M  V30 4520 H 406.367 1.75638 -4.64182 0
M  V30 4521 H 401.623 1.29086 -5.97618 0
M  V30 4522 H 405.797 0.942345 -6.89995 0
M  V30 4523 H 403.424 0.703946 -7.56934 0
M  V30 4524 N 404.999 1.35443 0.805782 0
M  V30 4525 C 405.929 1.31095 1.93226 0
M  V30 4526 C 406.91 0.185244 1.69088 0
M  V30 4527 O 408.095 0.380332 1.90439 0
M  V30 4528 C 405.225 1.08299 3.29983 0
M  V30 4529 C 404.179 2.17519 3.68605 0
M  V30 4530 C 403.505 1.79887 5.03532 0
M  V30 4531 C 404.805 3.5949 3.78898 0
M  V30 4532 H 406.499 2.25352 1.97122 0
M  V30 4533 H 404.045 1.0848 0.946996 0
M  V30 4534 H 405.998 1.03897 4.08391 0
M  V30 4535 H 404.722 0.104885 3.26432 0
M  V30 4536 H 403.381 2.2102 2.92482 0
M  V30 4537 H 403.029 0.80693 4.96485 0
M  V30 4538 H 402.729 2.53001 5.30344 0
M  V30 4539 H 404.253 1.77011 5.84379 0
M  V30 4540 H 405.667 3.58307 4.47536 0
M  V30 4541 H 404.064 4.31371 4.1718 0
M  V30 4542 H 405.134 3.95584 2.80431 0
M  V30 4543 N 406.477 -1.02803 1.19454 0
M  V30 4544 C 407.387 -2.14575 0.948408 0
M  V30 4545 C 408.403 -1.73757 -0.091871 0
M  V30 4546 O 409.579 -2.01185 0.0929654 0
M  V30 4547 C 406.644 -3.43202 0.491265 0
M  V30 4548 C 405.705 -3.98328 1.60103 0
M  V30 4549 C 404.938 -5.20816 1.16561 0
M  V30 4550 O 405.161 -5.70392 0.0295238 0
M  V30 4551 O 404.095 -5.68801 1.96849 0
M  V30 4552 H 407.921 -2.38202 1.88397 0
M  V30 4553 H 405.506 -1.12989 0.977433 0
M  V30 4554 H 407.388 -4.20687 0.245015 0
M  V30 4555 H 406.063 -3.21018 -0.415851 0
M  V30 4556 H 404.97 -3.22174 1.90144 0
M  V30 4557 H 406.303 -4.24879 2.48473 0
M  V30 4558 N 407.956 -0.998596 -1.21925 0
M  V30 4559 C 408.903 -0.553621 -2.24062 0
M  V30 4560 C 409.873 0.416999 -1.6078 0
M  V30 4561 O 411.058 0.320482 -1.88089 0
M  V30 4562 C 408.198 0.119959 -3.44891 0
M  V30 4563 C 407.311 -0.893077 -4.22668 0
M  V30 4564 C 406.446 -0.192424 -5.30851 0
M  V30 4565 C 405.485 -1.19344 -6.00353 0
M  V30 4566 N 404.622 -0.520707 -7.00166 0
M  V30 4567 H 409.462 -1.4293 -2.61486 0
M  V30 4568 H 406.999 -0.715838 -1.28507 0
M  V30 4569 H 408.957 0.527459 -4.13852 0
M  V30 4570 H 407.587 0.959389 -3.08214 0
M  V30 4571 H 406.639 -1.41886 -3.52948 0
M  V30 4572 H 407.951 -1.65512 -4.70539 0
M  V30 4573 H 407.105 0.271515 -6.06092 0
M  V30 4574 H 405.844 0.602075 -4.83969 0
M  V30 4575 H 404.849 -1.66795 -5.23889 0
M  V30 4576 H 406.074 -1.98891 -6.49322 0
M  V30 4577 H 404.02 0.254252 -6.55507 0
M  V30 4578 H 403.937 -1.2211 -7.46073 0
M  V30 4579 H 405.205 -0.0797596 -7.79459 0
M  V30 4580 N 409.434 1.37368 -0.772513 0
M  V30 4581 C 410.711 1.93839 -0.26188 0
M  V30 4582 C 411.091 1.7061 1.24319 0
M  V30 4583 O 410.439 1.05534 2.02669 0
M  V30 4584 C 410.649 3.43154 -0.636102 0
M  V30 4585 C 411.997 4.20249 -0.606324 0
M  V30 4586 O 413.021 3.5152 -0.575538 0
M  V30 4587 O 411.88 5.42809 -0.634086 0
M  V30 4588 H 408.974 0.82478 -0.0605555 0
M  V30 4589 H 411.52 1.4665 -0.853917 0
M  V30 4590 H 410.292 3.53647 -1.6748 0
M  V30 4591 H 409.915 3.97596 -0.0170516 0
M  V30 4592 N 410.912 0.523116 1.48665 0
M  V30 4593 C 412.137 -0.0117284 2.07397 0
M  V30 4594 C 412.562 -1.28031 1.37803 0
M  V30 4595 O 411.92 -1.75836 0.441762 0
M  V30 4596 C 411.968 -0.225786 3.59892 0
M  V30 4597 O 411.072 -1.29592 3.91509 0
M  V30 4598 H 410.413 0.0360673 0.66302 0
M  V30 4599 H 412.943 0.729066 1.9117 0
M  V30 4600 H 412.953 -0.450552 4.05505 0
M  V30 4601 H 411.628 0.700944 4.09951 0
M  V30 4602 H 410.205 -1.05436 3.57684 0
M  V30 4603 N 412.39 -1.55475 0.257931 0
M  V30 4604 C 413.618 -2.03609 -0.367559 0
M  V30 4605 C 414.033 -1.13687 -1.50734 0
M  V30 4606 O 413.39 -0.153479 -1.81853 0
M  V30 4607 C 413.441 -3.51001 -0.864908 0
M  V30 4608 O 413.162 -4.37499 0.229465 0
M  V30 4609 C 414.663 -4.14946 -1.55997 0
M  V30 4610 H 411.883 -0.665459 -0.0860521 0
M  V30 4611 H 414.427 -2.00843 0.385014 0
M  V30 4612 H 412.582 -3.54266 -1.56762 0
M  V30 4613 H 412.996 -5.24286 -0.14998 0
M  V30 4614 H 414.47 -5.19735 -1.85956 0
M  V30 4615 H 414.947 -3.6209 -2.4857 0
M  V30 4616 H 415.553 -4.15635 -0.901543 0
M  V30 4617 N 413.868 0.0150385 -1.57593 0
M  V30 4618 C 414.798 1.01047 -2.10503 0
M  V30 4619 C 415.779 1.36816 -1.01071 0
M  V30 4620 O 416.964 1.45455 -1.28672 0
M  V30 4621 C 414.094 2.30708 -2.59598 0
M  V30 4622 C 413.048 2.09142 -3.73421 0
M  V30 4623 C 412.374 3.44685 -4.08774 0
M  V30 4624 C 413.674 1.46619 -5.01298 0
M  V30 4625 H 415.368 0.569978 -2.93925 0
M  V30 4626 H 412.914 0.272724 -1.41394 0
M  V30 4627 H 414.867 3.00687 -2.95238 0
M  V30 4628 H 413.591 2.76843 -1.73279 0
M  V30 4629 H 412.25 1.41592 -3.38153 0
M  V30 4630 H 411.898 3.88495 -3.195 0
M  V30 4631 H 411.598 3.31077 -4.8545 0
M  V30 4632 H 413.122 4.16004 -4.4696 0
M  V30 4633 H 414.536 2.06535 -5.34805 0
M  V30 4634 H 412.933 1.43544 -5.82679 0
M  V30 4635 H 414.003 0.433611 -4.82957 0
M  V30 4636 N 415.346 1.54954 0.287554 0
M  V30 4637 C 416.574 1.78881 1.03967 0
M  V30 4638 C 416.989 0.554894 1.80462 0
M  V30 4639 O 416.346 -0.475676 1.76192 0
M  V30 4640 C 416.397 3.00488 2.0097 0
M  V30 4641 O 416.118 4.19113 1.27577 0
M  V30 4642 C 417.619 3.36907 2.88112 0
M  V30 4643 H 414.839 0.596259 0.307761 0
M  V30 4644 H 417.383 2.01937 0.322749 0
M  V30 4645 H 415.538 2.79601 2.68145 0
M  V30 4646 H 415.952 4.87765 1.92835 0
M  V30 4647 H 417.426 4.25205 3.52001 0
M  V30 4648 H 417.903 2.55659 3.57121 0
M  V30 4649 H 418.509 3.60001 2.26449 0
M  V30 4650 N 416.824 -0.551391 1.4764 0
M  V30 4651 C 417.734 -1.68525 1.63207 0
M  V30 4652 C 418.75 -1.6621 0.514815 0
M  V30 4653 O 419.926 -1.85551 0.783113 0
M  V30 4654 C 416.991 -3.05025 1.64805 0
M  V30 4655 C 416.052 -3.18362 2.88 0
M  V30 4656 C 415.285 -4.4835 2.89513 0
M  V30 4657 O 415.508 -5.34163 2.00065 0
M  V30 4658 O 414.442 -4.65602 3.81443 0
M  V30 4659 H 418.268 -1.58333 2.59161 0
M  V30 4660 H 415.853 -0.722063 1.30792 0
M  V30 4661 H 417.735 -3.86245 1.68502 0
M  V30 4662 H 416.41 -3.15587 0.720197 0
M  V30 4663 H 415.317 -2.36518 2.89845 0
M  V30 4664 H 416.65 -3.12707 3.80099 0
M  V30 4665 N 418.302 -1.35869 -0.798587 0
M  V30 4666 C 419.713 -1.26498 -1.37314 0
M  V30 4667 C 420.064 0.0991899 -1.95949 0
M  V30 4668 O 419.189 1.0004 -1.91888 0
M  V30 4669 C 419.784 -2.29054 -2.49639 0
M  V30 4670 C 418.343 -2.234 -3.02935 0
M  V30 4671 C 417.49 -2.14329 -1.75949 0
M  V30 4672 H 420.441 -1.46881 -0.600971 0
M  V30 4673 H 420.462 -1.92166 -3.28409 0
M  V30 4674 H 419.974 -3.2833 -2.06933 0
M  V30 4675 H 418.075 -1.27562 -3.50084 0
M  V30 4676 H 418.188 -3.15703 -3.60372 0
M  V30 4677 H 416.552 -1.60435 -1.9782 0
M  V30 4678 H 417.335 -3.15477 -1.35384 0
M  V30 4679 N 419.78 1.02168 -1.19998 0
M  V30 4680 C 421.026 1.75945 -1.00852 0
M  V30 4681 C 421.359 1.88702 0.458828 0
M  V30 4682 O 420.634 1.40911 1.34069 0
M  V30 4683 C 420.917 3.18154 -1.68671 0
M  V30 4684 C 420.77 3.13224 -3.22817 0
M  V30 4685 C 422.089 4.16711 -1.41561 0
M  V30 4686 H 419.208 0.638673 -0.367785 0
M  V30 4687 H 421.85 1.19222 -1.4794 0
M  V30 4688 H 420 3.66586 -1.28636 0
M  V30 4689 H 421.672 2.72635 -3.72112 0
M  V30 4690 H 419.915 2.50751 -3.53986 0
M  V30 4691 H 420.586 4.13728 -3.65422 0
M  V30 4692 H 423.062 3.76913 -1.76284 0
M  V30 4693 H 421.938 5.14391 -1.91553 0
M  V30 4694 H 422.199 4.40774 -0.342193 0
M  V30 4695 N 421.258 1.00505 1.21394 0
M  V30 4696 C 422.504 0.688793 1.90745 0
M  V30 4697 C 422.837 -0.778486 1.77914 0
M  V30 4698 O 422.112 -1.56433 1.15581 0
M  V30 4699 C 422.395 1.11063 3.42545 0
M  V30 4700 C 422.248 2.63737 3.64367 0
M  V30 4701 C 423.567 0.673059 4.34923 0
M  V30 4702 H 420.686 0.251702 0.692687 0
M  V30 4703 H 423.328 1.25074 1.43026 0
M  V30 4704 H 421.478 0.632508 3.83317 0
M  V30 4705 H 423.15 3.19313 3.32922 0
M  V30 4706 H 421.393 3.05248 3.08231 0
M  V30 4707 H 422.064 2.88305 4.70727 0
M  V30 4708 H 424.54 1.08392 4.01734 0
M  V30 4709 H 423.416 0.996383 5.39781 0
M  V30 4710 H 423.677 -0.425808 4.40045 0
M  V30 4711 N 422.737 -1.36956 0.779787 0
M  V30 4712 C 423.67 -2.27896 0.117681 0
M  V30 4713 C 424.648 -1.46736 -0.700523 0
M  V30 4714 O 425.832 -1.76055 -0.673568 0
M  V30 4715 C 422.959 -3.28136 -0.839296 0
M  V30 4716 C 422.005 -4.26373 -0.10409 0
M  V30 4717 S 422.838 -5.2157 1.21348 0
M  V30 4718 C 423.994 -6.25359 0.260249 0
M  V30 4719 H 424.227 -2.83704 0.888778 0
M  V30 4720 H 421.76 -1.43352 0.57355 0
M  V30 4721 H 423.718 -3.86394 -1.38601 0
M  V30 4722 H 422.379 -2.7126 -1.58356 0
M  V30 4723 H 421.572 -4.97121 -0.82986 0
M  V30 4724 H 421.174 -3.72147 0.371858 0
M  V30 4725 H 423.466 -6.75145 -0.564435 0
M  V30 4726 H 424.409 -7.01885 0.936135 0
M  V30 4727 H 424.817 -5.64345 -0.132127 0
M  V30 4728 N 424.215 -0.530993 -1.48385 0
M  V30 4729 C 425.178 0.220497 -2.28137 0
M  V30 4730 C 426.178 0.866851 -1.35434 0
M  V30 4731 O 427.368 0.726746 -1.58316 0
M  V30 4732 C 424.5 1.31921 -3.1434 0
M  V30 4733 H 425.693 -0.479714 -2.96038 0
M  V30 4734 H 423.246 -0.286968 -1.53643 0
M  V30 4735 H 423.981 2.05264 -2.51072 0
M  V30 4736 H 423.766 0.86085 -3.82533 0
M  V30 4737 H 425.256 1.84776 -3.74497 0
M  V30 4738 N 425.693 1.55336 -0.266172 0
M  V30 4739 C 426.623 2.25146 0.618981 0
M  V30 4740 C 427.604 1.23845 1.16604 0
M  V30 4741 O 428.789 1.52544 1.20183 0
M  V30 4742 C 425.919 2.96572 1.80728 0
M  V30 4743 C 424.873 4.04726 1.39215 0
M  V30 4744 C 424.199 4.63678 2.66283 0
M  V30 4745 C 425.499 5.19407 0.548942 0
M  V30 4746 H 427.193 2.99377 0.0368116 0
M  V30 4747 H 424.739 1.43991 0.0162651 0
M  V30 4748 H 426.692 3.44116 2.43232 0
M  V30 4749 H 425.416 2.19861 2.41514 0
M  V30 4750 H 424.075 3.57979 0.790351 0
M  V30 4751 H 423.723 3.83646 3.25308 0
M  V30 4752 H 423.423 5.367 2.39222 0
M  V30 4753 H 424.947 5.13967 3.29651 0
M  V30 4754 H 426.361 5.63059 1.07876 0
M  V30 4755 H 424.758 5.98936 0.373593 0
M  V30 4756 H 425.828 4.8295 -0.434394 0
M  V30 4757 N 427.171 -0.0066808 1.57599 0
M  V30 4758 C 428.101 -0.999296 2.11036 0
M  V30 4759 C 429.082 -1.36278 1.01795 0
M  V30 4760 O 430.267 -1.4477 1.29442 0
M  V30 4761 C 427.397 -2.29328 2.60818 0
M  V30 4762 C 426.351 -2.07159 3.74525 0
M  V30 4763 C 425.677 -3.42512 4.10596 0
M  V30 4764 C 426.977 -1.43959 5.02069 0
M  V30 4765 H 428.671 -0.554382 2.94223 0
M  V30 4766 H 426.217 -0.265221 1.41536 0
M  V30 4767 H 428.17 -2.99117 2.96828 0
M  V30 4768 H 426.894 -2.7592 1.74745 0
M  V30 4769 H 425.553 -1.39797 3.38899 0
M  V30 4770 H 425.201 -3.86795 3.21556 0
M  V30 4771 H 424.901 -3.28498 4.87199 0
M  V30 4772 H 426.425 -4.13628 4.4916 0
M  V30 4773 H 427.839 -2.03696 5.35893 0
M  V30 4774 H 426.236 -1.40452 5.83432 0
M  V30 4775 H 427.306 -0.407992 4.83181 0
M  V30 4776 N 428.649 -1.55105 -0.279332 0
M  V30 4777 C 429.596 -1.8755 -1.34513 0
M  V30 4778 C 430.566 -0.726384 -1.49375 0
M  V30 4779 O 431.751 -0.977063 -1.63884 0
M  V30 4780 C 428.891 -2.14738 -2.70151 0
M  V30 4781 C 428.004 -3.42285 -2.63562 0
M  V30 4782 C 427.139 -3.59206 -3.91337 0
M  V30 4783 C 426.178 -4.80467 -3.79233 0
M  V30 4784 N 425.315 -4.94079 -4.98829 0
M  V30 4785 H 430.155 -2.78456 -1.06143 0
M  V30 4786 H 427.692 -1.37867 -0.512936 0
M  V30 4787 H 429.65 -2.28501 -3.49061 0
M  V30 4788 H 428.28 -1.27075 -2.96735 0
M  V30 4789 H 427.332 -3.37029 -1.76397 0
M  V30 4790 H 428.644 -4.31328 -2.50515 0
M  V30 4791 H 427.798 -3.72751 -4.78687 0
M  V30 4792 H 426.537 -2.68337 -4.07243 0
M  V30 4793 H 425.542 -4.66932 -2.90266 0
M  V30 4794 H 426.767 -5.72765 -3.64852 0
M  V30 4795 H 424.713 -4.06139 -5.15158 0
M  V30 4796 H 424.63 -5.77156 -4.8829 0
M  V30 4797 H 425.898 -5.12003 -5.8777 0
M  V30 4798 N 430.127 0.543554 -1.4793 0
M  V30 4799 C 431.357 1.32324 -1.58663 0
M  V30 4800 C 431.765 1.8766 -0.240896 0
M  V30 4801 O 431.108 1.66411 0.778011 0
M  V30 4802 C 431.17 2.52094 -2.56299 0
M  V30 4803 C 430.834 2.17944 -4.01683 0
M  V30 4804 C 431.831 1.74422 -4.89768 0
M  V30 4805 C 429.516 2.28884 -4.47121 0
M  V30 4806 C 431.51 1.42287 -6.21316 0
M  V30 4807 C 429.197 1.96361 -5.78693 0
M  V30 4808 C 430.195 1.53132 -6.65612 0
M  V30 4809 O 429.883 1.21029 -7.94737 0
M  V30 4810 H 429.615 0.409174 -0.538101 0
M  V30 4811 H 432.169 0.663887 -1.94375 0
M  V30 4812 H 430.399 3.20965 -2.15681 0
M  V30 4813 H 432.088 3.14165 -2.57012 0
M  V30 4814 H 432.854 1.65452 -4.55907 0
M  V30 4815 H 428.733 2.61488 -3.79664 0
M  V30 4816 H 432.277 1.08472 -6.89115 0
M  V30 4817 H 428.174 2.04967 -6.12094 0
M  V30 4818 H 428.942 1.34543 -8.07366 0
M  V30 4819 N 431.605 1.3629 0.791371 0
M  V30 4820 C 432.851 1.31613 1.5508 0
M  V30 4821 C 433.206 -0.104372 1.92117 0
M  V30 4822 O 432.499 -1.05845 1.5971 0
M  V30 4823 C 432.693 2.17068 2.8393 0
M  V30 4824 C 432.522 3.67285 2.59484 0
M  V30 4825 C 431.292 4.36469 2.54604 0
M  V30 4826 C 433.49 4.60595 2.28816 0
M  V30 4827 N 431.472 5.7234 2.22036 0
M  V30 4828 C 432.843 5.847 2.06218 0
M  V30 4829 C 434.898 4.4918 2.14806 0
M  V30 4830 C 433.601 6.98671 1.71028 0
M  V30 4831 C 435.627 5.63017 1.81014 0
M  V30 4832 C 434.989 6.86159 1.59263 0
M  V30 4833 H 431.088 0.536878 0.568582 0
M  V30 4834 H 433.672 1.71323 0.925007 0
M  V30 4835 H 431.843 1.79605 3.44378 0
M  V30 4836 H 433.575 2.03795 3.49642 0
M  V30 4837 H 430.33 3.89249 2.69782 0
M  V30 4838 H 430.754 6.44093 2.08503 0
M  V30 4839 H 435.396 3.54564 2.30313 0
M  V30 4840 H 433.114 7.9324 1.54259 0
M  V30 4841 H 436.7 5.56146 1.70861 0
M  V30 4842 H 435.58 7.72753 1.335 0
M  V30 4843 N 433.083 -1.0153 1.20538 0
M  V30 4844 C 434.494 -1.56598 1.01657 0
M  V30 4845 C 434.845 -1.91505 -0.426668 0
M  V30 4846 O 433.97 -1.72375 -1.30827 0
M  V30 4847 C 434.565 -2.84542 1.83905 0
M  V30 4848 C 433.124 -3.36133 1.69386 0
M  V30 4849 C 432.271 -2.09427 1.81757 0
M  V30 4850 H 435.222 -0.838974 1.34711 0
M  V30 4851 H 435.243 -3.56004 1.34319 0
M  V30 4852 H 434.755 -2.59105 2.8894 0
M  V30 4853 H 432.856 -3.66528 0.669933 0
M  V30 4854 H 432.969 -4.08248 2.50739 0
M  V30 4855 H 431.333 -2.21941 1.24957 0
M  V30 4856 H 432.116 -1.86414 2.88279 0
M  V30 4857 N 434.561 -1.01147 -1.20859 0
M  V30 4858 C 435.508 -0.577354 -2.23462 0
M  V30 4859 C 436.478 0.399922 -1.61214 0
M  V30 4860 O 437.663 0.300515 -1.88419 0
M  V30 4861 C 434.803 0.083372 -3.44999 0
M  V30 4862 C 433.916 -0.937856 -4.21697 0
M  V30 4863 C 433.051 -0.248717 -5.30617 0
M  V30 4864 C 432.09 -1.25705 -5.99053 0
M  V30 4865 N 431.227 -0.594939 -6.99575 0
M  V30 4866 H 436.067 -1.45695 -2.59956 0
M  V30 4867 H 433.604 -0.729428 -1.27741 0
M  V30 4868 H 435.562 0.483535 -4.14388 0
M  V30 4869 H 434.192 0.926645 -3.09214 0
M  V30 4870 H 433.244 -1.45622 -3.51423 0
M  V30 4871 H 434.556 -1.70493 -4.68757 0
M  V30 4872 H 433.71 0.207215 -6.06346 0
M  V30 4873 H 432.449 0.55071 -4.84581 0
M  V30 4874 H 431.454 -1.72343 -5.2209 0
M  V30 4875 H 432.679 -2.05767 -6.47176 0
M  V30 4876 H 430.625 0.184713 -6.5574 0
M  V30 4877 H 430.542 -1.30017 -7.44736 0
M  V30 4878 H 431.81 -0.162427 -7.79331 0
M  V30 4879 N 436.039 1.36541 -0.78704 0
M  V30 4880 C 437.267 2.03561 -0.370199 0
M  V30 4881 C 437.682 1.59347 1.01263 0
M  V30 4882 O 437.039 0.781781 1.64907 0
M  V30 4883 C 437.09 3.59033 -0.421614 0
M  V30 4884 O 436.811 4.01634 -1.7499 0
M  V30 4885 C 438.312 4.433 0.00489763 0
M  V30 4886 H 435.532 0.653346 -0.152904 0
M  V30 4887 H 438.076 1.74566 -1.06522 0
M  V30 4888 H 436.231 3.86746 0.224971 0
M  V30 4889 H 436.645 4.96217 -1.69909 0
M  V30 4890 H 438.119 5.51939 -0.0822184 0
M  V30 4891 H 438.596 4.26285 1.05723 0
M  V30 4892 H 439.202 4.20843 -0.614085 0
M  V30 4893 N 437.518 0.538854 1.48102 0
M  V30 4894 C 438.468 -0.23907 2.26743 0
M  V30 4895 C 439.452 -0.901923 1.33245 0
M  V30 4896 O 440.644 -0.803263 1.57723 0
M  V30 4897 C 437.773 -1.2799 3.18549 0
M  V30 4898 C 436.859 -0.621388 4.19523 0
M  V30 4899 N 437.25 0.298004 5.04921 0
M  V30 4900 C 435.548 -0.877533 4.37282 0
M  V30 4901 C 436.249 0.678757 5.77726 0
M  V30 4902 N 435.225 0.0377881 5.43587 0
M  V30 4903 H 439.027 0.468096 2.90148 0
M  V30 4904 H 436.541 0.357497 1.58416 0
M  V30 4905 H 438.538 -1.851 3.73555 0
M  V30 4906 H 437.198 -1.98835 2.567 0
M  V30 4907 H 438.209 0.671126 5.13533 0
M  V30 4908 H 434.886 -1.57588 3.86616 0
M  V30 4909 H 436.276 1.43316 6.56437 0
M  V30 4910 N 438.996 -1.55193 0.274407 0
M  V30 4911 C 440.221 -2.04446 -0.348824 0
M  V30 4912 C 440.646 -1.15149 -1.48735 0
M  V30 4913 O 440.004 -0.149952 -1.80679 0
M  V30 4914 C 440.052 -3.51431 -0.808009 0
M  V30 4915 O 439.156 -3.65225 -1.91531 0
M  V30 4916 H 438.497 -0.66006 -0.0722276 0
M  V30 4917 H 441.027 -2.00481 0.408498 0
M  V30 4918 H 441.037 -3.92781 -1.10395 0
M  V30 4919 H 439.712 -4.15892 0.0249865 0
M  V30 4920 H 438.289 -3.35778 -1.62196 0
M  V30 4921 N 440.474 -0.00167713 -1.576 0
M  V30 4922 C 441.885 0.54091 -1.78693 0
M  V30 4923 C 442.236 1.7386 -0.909247 0
M  V30 4924 O 441.361 2.16109 -0.112176 0
M  V30 4925 C 441.956 0.98806 -3.24072 0
M  V30 4926 C 440.515 1.47594 -3.46256 0
M  V30 4927 C 439.662 0.42792 -2.73978 0
M  V30 4928 H 442.613 -0.22784 -1.57056 0
M  V30 4929 H 442.634 1.85398 -3.32277 0
M  V30 4930 H 442.146 0.116164 -3.87926 0
M  V30 4931 H 440.247 2.36868 -2.87618 0
M  V30 4932 H 440.36 1.50225 -4.54939 0
M  V30 4933 H 438.724 0.889934 -2.38647 0
M  V30 4934 H 439.507 -0.435038 -3.40532 0
M  V30 4935 N 441.952 1.55251 0.271103 0
M  V30 4936 C 442.899 1.88261 1.33516 0
M  V30 4937 C 443.869 0.734296 1.48988 0
M  V30 4938 O 445.054 0.985741 1.63364 0
M  V30 4939 C 442.194 2.16168 2.69008 0
M  V30 4940 C 441.307 3.43678 2.61743 0
M  V30 4941 C 440.442 3.61276 3.89427 0
M  V30 4942 C 439.481 4.82472 3.7668 0
M  V30 4943 N 438.618 4.96717 4.96202 0
M  V30 4944 H 443.458 2.79015 1.04665 0
M  V30 4945 H 440.995 1.38137 0.505618 0
M  V30 4946 H 442.953 2.30349 3.47844 0
M  V30 4947 H 441.583 1.28646 2.96057 0
M  V30 4948 H 440.635 3.37959 1.74607 0
M  V30 4949 H 441.947 4.3265 2.48224 0
M  V30 4950 H 441.101 3.75284 4.76704 0
M  V30 4951 H 439.84 2.70492 4.05814 0
M  V30 4952 H 438.845 4.68465 2.87786 0
M  V30 4953 H 440.07 5.74692 3.61809 0
M  V30 4954 H 438.016 4.08865 5.12997 0
M  V30 4955 H 437.933 5.79738 4.85222 0
M  V30 4956 H 439.201 5.15113 5.85046 0
M  V30 4957 N 443.43 -0.535701 1.48216 0
M  V30 4958 C 444.34 -1.66785 1.64985 0
M  V30 4959 C 445.356 -1.65654 0.532414 0
M  V30 4960 O 446.532 -1.8471 0.80275 0
M  V30 4961 C 443.597 -3.0326 1.68031 0
M  V30 4962 C 442.658 -3.1529 2.9136 0
M  V30 4963 C 441.891 -4.45255 2.94252 0
M  V30 4964 O 442.114 -5.32011 2.05719 0
M  V30 4965 O 441.048 -4.6153 3.86359 0
M  V30 4966 H 444.874 -1.55576 2.60825 0
M  V30 4967 H 442.459 -0.70815 1.31551 0
M  V30 4968 H 444.341 -3.84436 1.72589 0
M  V30 4969 H 443.016 -3.14805 0.753628 0
M  V30 4970 H 441.923 -2.3343 2.92337 0
M  V30 4971 H 443.256 -3.08658 3.83394 0
M  V30 4972 N 444.908 -1.36708 -0.784132 0
M  V30 4973 C 446.154 -1.31426 -1.54451 0
M  V30 4974 C 446.487 0.10476 -1.93917 0
M  V30 4975 O 445.762 1.05934 -1.6312 0
M  V30 4976 C 446.045 -2.24189 -2.818 0
M  V30 4977 C 445.898 -3.74813 -2.48667 0
M  V30 4978 C 447.217 -2.15626 -3.83658 0
M  V30 4979 H 444.336 -0.478739 -0.560337 0
M  V30 4980 H 446.978 -1.67305 -0.900498 0
M  V30 4981 H 445.128 -1.93722 -3.36755 0
M  V30 4982 H 446.8 -4.15823 -1.99722 0
M  V30 4983 H 445.043 -3.93989 -1.81535 0
M  V30 4984 H 445.714 -4.35138 -3.39646 0
M  V30 4985 H 448.19 -2.42456 -3.38163 0
M  V30 4986 H 447.066 -2.82694 -4.70506 0
M  V30 4987 H 447.327 -1.14522 -4.27009 0
M  V30 4988 N 446.386 1.0089 -1.21074 0
M  V30 4989 C 447.319 2.09279 -0.909806 0
M  V30 4990 C 448.297 1.61986 0.141145 0
M  V30 4991 O 449.481 1.88495 0.0130332 0
M  V30 4992 C 446.608 3.36723 -0.365374 0
M  V30 4993 C 445.654 4.02919 -1.39852 0
M  V30 4994 S 446.487 4.45835 -2.96633 0
M  V30 4995 C 447.643 5.76471 -2.43786 0
M  V30 4996 H 447.876 2.34484 -1.82769 0
M  V30 4997 H 445.409 1.14115 -1.04006 0
M  V30 4998 H 447.367 4.10459 -0.0578203 0
M  V30 4999 H 446.028 3.09577 0.531136 0
M  V30 5000 H 445.221 4.94634 -0.967117 0
M  V30 5001 H 444.823 3.35441 -1.65395 0
M  V30 5002 H 447.115 6.52027 -1.84029 0
M  V30 5003 H 448.058 6.24418 -3.33928 0
M  V30 5004 H 448.466 5.33104 -1.85636 0
M  V30 5005 N 447.864 1.01787 1.20321 0
M  V30 5006 C 449.111 0.707936 1.89722 0
M  V30 5007 C 449.439 -0.762535 1.78929 0
M  V30 5008 O 448.694 -1.56977 1.16861 0
M  V30 5009 C 448.993 1.09076 3.40349 0
M  V30 5010 C 448.659 2.55765 3.71342 0
M  V30 5011 C 447.321 2.95845 3.79511 0
M  V30 5012 C 449.673 3.50723 3.85542 0
M  V30 5013 C 447.001 4.2982 3.99339 0
M  V30 5014 C 449.353 4.84387 4.06881 0
M  V30 5015 C 448.017 5.24172 4.1328 0
M  V30 5016 H 447.287 0.259052 0.694243 0
M  V30 5017 H 449.934 1.27868 1.42555 0
M  V30 5018 H 448.239 0.438453 3.89339 0
M  V30 5019 H 449.936 0.828636 3.92345 0
M  V30 5020 H 446.526 2.2371 3.65584 0
M  V30 5021 H 450.71 3.20916 3.78585 0
M  V30 5022 H 445.966 4.60196 4.02529 0
M  V30 5023 H 450.14 5.57891 4.1681 0
M  V30 5024 H 447.767 6.27997 4.28396 0
M  V30 5025 N 449.342 -1.36122 0.79427 0
M  V30 5026 C 450.272 -2.32551 0.210328 0
M  V30 5027 C 451.253 -1.56884 -0.657386 0
M  V30 5028 O 452.438 -1.85014 -0.590207 0
M  V30 5029 C 449.568 -3.41128 -0.651819 0
M  V30 5030 C 448.522 -4.27842 0.116395 0
M  V30 5031 C 447.848 -5.2763 -0.86666 0
M  V30 5032 C 449.148 -5.05647 1.30837 0
M  V30 5033 H 450.842 -2.81636 1.01594 0
M  V30 5034 H 448.388 -1.35407 0.489981 0
M  V30 5035 H 450.341 -4.07581 -1.07031 0
M  V30 5036 H 449.065 -2.90622 -1.49019 0
M  V30 5037 H 447.724 -3.62952 0.515915 0
M  V30 5038 H 447.372 -4.73395 -1.70019 0
M  V30 5039 H 447.072 -5.86514 -0.35705 0
M  V30 5040 H 448.596 -5.96955 -1.28361 0
M  V30 5041 H 450.01 -5.65113 0.965393 0
M  V30 5042 H 448.407 -5.73967 1.75161 0
M  V30 5043 H 449.477 -4.37006 2.10128 0
M  V30 5044 N 450.82 -0.546701 -1.47814 0
M  V30 5045 C 451.768 0.220048 -2.31557 0
M  V30 5046 C 452.762 0.919472 -1.42275 0
M  V30 5047 O 453.968 0.841953 -1.59095 0
M  V30 5048 H 450.343 0.0898334 -0.746615 0
M  V30 5049 H 452.314 -0.505589 -2.94086 0
M  V30 5050 C 451.063 1.24353 -3.24702 0
M  V30 5051 H 450.386 0.714758 -3.93359 0
M  V30 5052 H 451.826 1.75112 -3.8615 0
M  V30 5053 C 450.285 2.28593 -2.47481 0
M  V30 5054 O 450.815 3.35334 -2.21165 0
M  V30 5055 N 449.021 2.02244 -2.08676 0
M  V30 5056 H 448.568 1.15455 -2.30278 0
M  V30 5057 H 448.526 2.72207 -1.57323 0
M  V30 5058 N 452.299 1.55045 -0.282633 0
M  V30 5059 C 453.209 2.26491 0.61147 0
M  V30 5060 C 454.225 1.29348 1.16384 0
M  V30 5061 O 455.401 1.62298 1.19253 0
M  V30 5062 C 452.466 2.97779 1.77563 0
M  V30 5063 C 451.527 4.10418 1.25919 0
M  V30 5064 C 450.76 4.78297 2.36786 0
M  V30 5065 O 450.983 4.45426 3.56303 0
M  V30 5066 O 449.917 5.66089 2.04517 0
M  V30 5067 H 453.743 3.03683 0.0324615 0
M  V30 5068 H 451.328 1.49317 -0.0497576 0
M  V30 5069 H 453.21 3.42554 2.45427 0
M  V30 5070 H 451.885 2.23498 2.34159 0
M  V30 5071 H 450.792 3.70082 0.546797 0
M  V30 5072 H 452.125 4.86622 0.738887 0
M  V30 5073 N 453.777 0.010035 1.57597 0
M  V30 5074 C 454.707 -0.976857 2.12084 0
M  V30 5075 C 455.688 -1.35191 1.03235 0
M  V30 5076 O 456.873 -1.43389 1.3097 0
M  V30 5077 C 454.003 -2.26548 2.63236 0
M  V30 5078 C 452.957 -2.03175 3.76701 0
M  V30 5079 C 452.283 -3.38138 4.14206 0
M  V30 5080 C 453.583 -1.38625 5.03568 0
M  V30 5081 H 455.277 -0.523145 2.94794 0
M  V30 5082 H 452.823 -0.250195 1.4181 0
M  V30 5083 H 454.776 -2.95952 2.99984 0
M  V30 5084 H 453.5 -2.74051 1.77661 0
M  V30 5085 H 452.159 -1.36195 3.40362 0
M  V30 5086 H 451.807 -3.83363 3.25641 0
M  V30 5087 H 451.507 -3.23312 4.90656 0
M  V30 5088 H 453.031 -4.08841 4.53521 0
M  V30 5089 H 454.445 -1.98 5.38023 0
M  V30 5090 H 452.842 -1.34256 5.84889 0
M  V30 5091 H 453.912 -0.356722 4.83586 0
M  V30 5092 N 455.255 -1.55392 -0.262866 0
M  V30 5093 C 456.165 -1.92077 -1.34698 0
M  V30 5094 C 457.181 -0.819227 -1.53508 0
M  V30 5095 O 458.357 -1.11921 -1.67439 0
M  V30 5096 C 455.422 -2.19407 -2.68443 0
M  V30 5097 C 454.483 -3.42905 -2.58292 0
M  V30 5098 C 453.716 -3.68921 -3.85659 0
M  V30 5099 O 453.939 -2.97275 -4.8681 0
M  V30 5100 O 452.873 -4.62455 -3.85252 0
M  V30 5101 H 456.699 -2.84384 -1.06581 0
M  V30 5102 H 454.284 -1.42069 -0.462264 0
M  V30 5103 H 456.166 -2.38365 -3.47506 0
M  V30 5104 H 454.841 -1.30282 -2.96325 0
M  V30 5105 H 453.748 -3.29272 -1.7757 0
M  V30 5106 H 455.081 -4.32282 -2.35358 0
M  V30 5107 N 456.733 0.527833 -1.48498 0
M  V30 5108 C 457.643 1.65907 -1.65867 0
M  V30 5109 C 458.659 1.6537 -0.541192 0
M  V30 5110 O 459.835 1.84282 -0.812534 0
M  V30 5111 C 456.9 3.02364 -1.69637 0
M  V30 5112 C 455.961 3.1374 -2.93028 0
M  V30 5113 C 455.194 4.43688 -2.96609 0
M  V30 5114 O 455.417 5.30913 -2.08538 0
M  V30 5115 O 454.351 4.59475 -3.88802 0
M  V30 5116 H 458.177 1.5419 -2.61647 0
M  V30 5117 H 455.762 0.701163 -1.31924 0
M  V30 5118 H 457.644 3.83515 -1.74625 0
M  V30 5119 H 456.319 3.14401 -0.770312 0
M  V30 5120 H 455.226 2.31877 -2.93571 0
M  V30 5121 H 456.559 3.06621 -3.85026 0
M  V30 5122 N 458.211 1.37122 0.776871 0
M  V30 5123 C 459.46 1.31373 1.53049 0
M  V30 5124 C 459.773 -0.101016 1.95339 0
M  V30 5125 O 460.979 -0.280953 2.70042 0
M  V30 5126 C 459.435 2.30567 2.76346 0
M  V30 5127 C 459.043 3.77543 2.41175 0
M  V30 5128 C 460.787 2.33818 3.54301 0
M  V30 5129 C 458.694 4.68481 3.60943 0
M  V30 5130 H 457.624 0.488234 0.574581 0
M  V30 5131 H 460.275 1.62554 0.851372 0
M  V30 5132 H 458.657 1.92396 3.46121 0
M  V30 5133 H 459.831 4.24521 1.79216 0
M  V30 5134 H 458.146 3.77187 1.76405 0
M  V30 5135 H 460.743 2.98965 4.4331 0
M  V30 5136 H 461.086 1.3503 3.93793 0
M  V30 5137 H 461.619 2.7067 2.91518 0
M  V30 5138 H 458.358 5.68378 3.26537 0
M  V30 5139 H 457.878 4.2621 4.22025 0
M  V30 5140 H 459.557 4.85366 4.27819 0
M  V30 5141 N 459.689 -1.00246 1.21608 0
M  V30 5142 C 460.619 -2.10921 1.00172 0
M  V30 5143 C 461.6 -1.69938 -0.0741587 0
M  V30 5144 O 462.785 -1.94009 0.0861753 0
M  V30 5145 C 459.915 -3.42618 0.568355 0
M  V30 5146 C 458.869 -3.97407 1.58909 0
M  V30 5147 C 458.195 -5.25038 1.01187 0
M  V30 5148 C 459.495 -4.2918 2.97661 0
M  V30 5149 H 461.189 -2.29112 1.92739 0
M  V30 5150 H 458.735 -1.10101 0.928102 0
M  V30 5151 H 460.688 -4.19444 0.405555 0
M  V30 5152 H 459.412 -3.24227 -0.392961 0
M  V30 5153 H 458.071 -3.22703 1.73949 0
M  V30 5154 H 457.719 -5.02982 0.0421965 0
M  V30 5155 H 457.419 -5.62661 1.6937 0
M  V30 5156 H 458.943 -6.04507 0.860448 0
M  V30 5157 H 460.357 -4.96839 2.86049 0
M  V30 5158 H 458.754 -4.77952 3.6288 0
M  V30 5159 H 459.824 -3.3735 3.48315 0
M  V30 5160 N 461.167 -1.02423 -1.1978 0
M  V30 5161 C 462.444 -0.632802 -1.85081 0
M  V30 5162 C 462.824 0.888745 -1.9148 0
M  V30 5163 O 462.172 1.78357 -1.42832 0
M  V30 5164 C 462.382 -1.28947 -3.24305 0
M  V30 5165 C 463.73 -1.40976 -4.00513 0
M  V30 5166 O 464.754 -1.24628 -3.33686 0
M  V30 5167 O 463.613 -1.67467 -5.20209 0
M  V30 5168 H 460.707 -0.219348 -0.79738 0
M  V30 5169 H 463.253 -1.12209 -1.27307 0
M  V30 5170 H 462.025 -2.3288 -3.14456 0
M  V30 5171 H 461.648 -0.787748 -3.89718 0
M  V30 5172 N 462.645 1.35699 -0.801477 0
M  V30 5173 C 463.891 1.99208 -0.380022 0
M  V30 5174 C 464.224 1.63445 1.04878 0
M  V30 5175 O 463.499 0.895223 1.72673 0
M  V30 5176 C 463.782 3.55755 -0.557708 0
M  V30 5177 C 463.635 4.01332 -2.03107 0
M  V30 5178 C 464.954 4.40096 0.0197968 0
M  V30 5179 H 462.073 0.723667 -0.139552 0
M  V30 5180 H 464.715 1.60928 -1.01006 0
M  V30 5181 H 462.865 3.88494 -0.0213741 0
M  V30 5182 H 464.537 3.79026 -2.62939 0
M  V30 5183 H 462.78 3.52429 -2.52936 0
M  V30 5184 H 463.451 5.10234 -2.1063 0
M  V30 5185 H 465.927 4.13786 -0.438179 0
M  V30 5186 H 464.803 5.48735 -0.134477 0
M  V30 5187 H 465.064 4.2786 1.11303 0
M  V30 5188 N 464.123 0.554532 1.47522 0
M  V30 5189 C 465.372 0.0273458 2.01681 0
M  V30 5190 C 465.685 -1.32962 1.43459 0
M  V30 5191 O 466.891 -1.94657 1.89265 0
M  V30 5192 C 465.347 -0.00159057 3.599 0
M  V30 5193 C 464.955 1.35197 4.27113 0
M  V30 5194 C 466.699 -0.476311 4.21819 0
M  V30 5195 C 464.606 1.28229 5.77331 0
M  V30 5196 H 463.536 0.00645269 0.753972 0
M  V30 5197 H 466.187 0.701985 1.69542 0
M  V30 5198 H 464.569 -0.741821 3.8899 0
M  V30 5199 H 465.743 2.1097 4.09668 0
M  V30 5200 H 464.058 1.76441 3.77171 0
M  V30 5201 H 466.655 -0.5468 5.31897 0
M  V30 5202 H 466.998 -1.4877 3.8881 0
M  V30 5203 H 467.531 0.20898 3.97251 0
M  V30 5204 H 464.27 2.26959 6.14955 0
M  V30 5205 H 463.79 0.566314 5.97121 0
M  V30 5206 H 465.469 0.983226 6.39485 0
M  V30 5207 N 465.601 -1.54893 0.290851 0
M  V30 5208 C 466.511 -2.26812 -0.59945 0
M  V30 5209 C 467.527 -1.29963 -1.15696 0
M  V30 5210 O 468.703 -1.62928 -1.18391 0
M  V30 5211 C 465.768 -2.98716 -1.75982 0
M  V30 5212 C 464.829 -4.1108 -1.2374 0
M  V30 5213 C 464.062 -4.79546 -2.34246 0
M  V30 5214 O 464.285 -4.47309 -3.53936 0
M  V30 5215 O 463.219 -5.67165 -2.01512 0
M  V30 5216 H 467.045 -3.03696 -0.0163561 0
M  V30 5217 H 464.63 -1.49289 0.0576755 0
M  V30 5218 H 466.512 -3.43851 -2.43607 0
M  V30 5219 H 465.187 -2.24737 -2.3297 0
M  V30 5220 H 464.094 -3.70367 -0.527163 0
M  V30 5221 H 465.427 -4.87007 -0.71307 0
M  V30 5222 N 467.08 -0.0183926 -1.57589 0
M  V30 5223 C 468.491 0.521927 -1.79256 0
M  V30 5224 C 468.842 1.72885 -0.927636 0
M  V30 5225 O 467.967 2.15978 -0.135091 0
M  V30 5226 C 468.562 0.953632 -3.25102 0
M  V30 5227 C 467.121 1.43913 -3.47801 0
M  V30 5228 C 466.268 0.398837 -2.74417 0
M  V30 5229 H 469.219 -0.244485 -1.56805 0
M  V30 5230 H 469.24 1.81863 -3.34224 0
M  V30 5231 H 468.752 0.0750123 -3.88028 0
M  V30 5232 H 466.853 2.33804 -2.90115 0
M  V30 5233 H 466.966 1.45391 -4.56507 0
M  V30 5234 H 465.33 0.864572 -2.39577 0
M  V30 5235 H 466.113 -0.471132 -3.40052 0
M  V30 5236 N 468.558 1.5553 0.254621 0
M  V30 5237 C 469.783 1.81383 1.00573 0
M  V30 5238 C 470.208 0.594419 1.78461 0
M  V30 5239 O 469.566 -0.456403 1.75461 0
M  V30 5240 C 469.614 3.04892 1.92545 0
M  V30 5241 O 468.718 2.81266 3.01601 0
M  V30 5242 H 468.059 0.598969 0.286587 0
M  V30 5243 H 470.589 2.02703 0.277952 0
M  V30 5244 H 470.599 3.34119 2.34155 0
M  V30 5245 H 469.274 3.93287 1.3527 0
M  V30 5246 H 467.851 2.63185 2.64174 0
M  V30 5247 N 470.036 -0.519951 1.48776 0
M  V30 5248 C 470.946 -1.65025 1.66745 0
M  V30 5249 C 471.962 -1.6508 0.549954 0
M  V30 5250 O 473.138 -1.83848 0.822295 0
M  V30 5251 C 470.203 -3.0146 1.71238 0
M  V30 5252 C 469.264 -3.12182 2.94688 0
M  V30 5253 C 468.497 -4.42109 2.98958 0
M  V30 5254 O 468.72 -5.29799 2.1135 0
M  V30 5255 O 467.654 -4.57406 3.91233 0
M  V30 5256 H 471.48 -1.52801 2.62461 0
M  V30 5257 H 469.065 -0.694157 1.32294 0
M  V30 5258 H 470.947 -3.82584 1.76657 0
M  V30 5259 H 469.622 -3.13988 0.786975 0
M  V30 5260 H 468.529 -2.30316 2.94797 0
M  V30 5261 H 469.862 -3.04574 3.86646 0
M  V30 5262 N 471.514 -1.37532 -0.769588 0
M  V30 5263 C 472.761 -1.3286 -1.52822 0
M  V30 5264 C 473.089 0.0862597 -1.94309 0
M  V30 5265 O 472.344 1.05995 -1.6451 0
M  V30 5266 C 472.643 -2.21558 -2.8044 0
M  V30 5267 C 472.309 -3.69796 -2.57996 0
M  V30 5268 C 470.971 -4.10194 -2.51583 0
M  V30 5269 C 473.323 -4.63699 -2.37976 0
M  V30 5270 C 470.651 -5.42608 -2.23144 0
M  V30 5271 C 473.003 -5.96353 -2.1106 0
M  V30 5272 C 471.667 -6.35853 -2.03093 0
M  V30 5273 H 470.937 -0.486168 -0.559215 0
M  V30 5274 H 473.584 -1.69757 -0.886277 0
M  V30 5275 H 471.889 -1.77663 -3.49204 0
M  V30 5276 H 473.586 -2.15256 -3.38328 0
M  V30 5277 H 470.176 -3.37759 -2.63851 0
M  V30 5278 H 474.36 -4.33346 -2.41919 0
M  V30 5279 H 469.616 -5.72173 -2.15472 0
M  V30 5280 H 473.79 -6.68667 -1.94568 0
M  V30 5281 H 471.417 -7.38382 -1.8082 0
M  V30 5282 N 472.992 0.995999 -1.22138 0
M  V30 5283 C 474.238 1.73767 -1.04561 0
M  V30 5284 C 474.571 1.89633 0.418698 0
M  V30 5285 O 473.846 1.43723 1.3105 0
M  V30 5286 C 474.129 3.14505 -1.75382 0
M  V30 5287 C 473.982 3.06306 -3.29388 0
M  V30 5288 C 475.301 4.13615 -1.50369 0
M  V30 5289 H 472.42 0.630728 -0.38125 0
M  V30 5290 H 475.062 1.16057 -1.50435 0
M  V30 5291 H 473.212 3.63775 -1.36383 0
M  V30 5292 H 474.884 2.64681 -3.77812 0
M  V30 5293 H 473.127 2.43186 -3.59226 0
M  V30 5294 H 473.798 4.05884 -3.74116 0
M  V30 5295 H 476.274 3.73089 -1.84239 0
M  V30 5296 H 475.15 5.10212 -2.02421 0
M  V30 5297 H 475.411 4.39949 -0.435611 0
M  V30 5298 N 474.47 1.03057 1.19235 0
M  V30 5299 C 475.417 0.612832 2.22515 0
M  V30 5300 C 476.387 -0.374224 1.61829 0
M  V30 5301 O 477.572 -0.270501 1.88873 0
M  V30 5302 C 474.712 -0.028475 3.45088 0
M  V30 5303 C 473.825 1.00483 4.20151 0
M  V30 5304 C 472.96 0.333102 5.30155 0
M  V30 5305 C 471.999 1.3522 5.96977 0
M  V30 5306 N 471.136 0.70616 6.9854 0
M  V30 5307 H 475.976 1.49812 2.57605 0
M  V30 5308 H 473.513 0.749658 1.26564 0
M  V30 5309 H 475.471 -0.417548 4.15105 0
M  V30 5310 H 474.101 -0.877334 3.10649 0
M  V30 5311 H 473.153 1.51194 3.49062 0
M  V30 5312 H 474.465 1.77929 4.65986 0
M  V30 5313 H 473.619 -0.110725 6.06599 0
M  V30 5314 H 472.358 -0.473547 4.85396 0
M  V30 5315 H 471.363 1.80627 5.19282 0
M  V30 5316 H 472.588 2.16037 6.4382 0
M  V30 5317 H 470.534 -0.0803667 6.55951 0
M  V30 5318 H 470.451 1.41848 7.42573 0
M  V30 5319 H 471.719 0.286391 7.78974 0
M  V30 5320 N 475.948 -1.35272 0.808662 0
M  V30 5321 C 477.197 -1.97963 0.386483 0
M  V30 5322 C 477.51 -1.64866 -1.05255 0
M  V30 5323 O 478.716 -2.20937 -1.57794 0
M  V30 5324 C 477.172 -3.54162 0.640096 0
M  V30 5325 C 476.78 -3.96166 2.0918 0
M  V30 5326 C 478.524 -4.23553 0.283376 0
M  V30 5327 C 476.431 -5.4522 2.29106 0
M  V30 5328 H 475.361 -0.740742 0.140774 0
M  V30 5329 H 478.012 -1.5431 0.993012 0
M  V30 5330 H 476.394 -3.95983 -0.0364117 0
M  V30 5331 H 477.568 -3.65491 2.80629 0
M  V30 5332 H 475.883 -3.3967 2.40859 0
M  V30 5333 H 478.48 -5.33124 0.410273 0
M  V30 5334 H 478.823 -4.09105 -0.770659 0
M  V30 5335 H 479.356 -3.8716 0.913884 0
M  V30 5336 H 476.095 -5.64638 3.32962 0
M  V30 5337 H 475.615 -5.77457 1.62184 0
M  V30 5338 H 477.294 -6.1171 2.1076 0
M  V30 5339 N 477.426 -0.562348 -1.47226 0
M  V30 5340 C 478.359 0.230405 -2.27034 0
M  V30 5341 C 479.337 0.915609 -1.3437 0
M  V30 5342 O 480.521 0.933573 -1.63758 0
M  V30 5343 C 477.648 1.32874 -3.11548 0
M  V30 5344 C 476.694 0.751552 -4.19826 0
M  V30 5345 S 477.527 -0.405848 -5.3396 0
M  V30 5346 C 478.683 0.694186 -6.22038 0
M  V30 5347 H 478.916 -0.446811 -2.93923 0
M  V30 5348 H 476.449 -0.348781 -1.50409 0
M  V30 5349 H 478.407 1.95773 -3.60809 0
M  V30 5350 H 477.068 1.97782 -2.44011 0
M  V30 5351 H 476.261 1.57651 -4.78709 0
M  V30 5352 H 475.863 0.198645 -3.73472 0
M  V30 5353 H 478.155 1.58501 -6.58698 0
M  V30 5354 H 479.098 0.142592 -7.07956 0
M  V30 5355 H 479.506 0.989169 -5.55766 0
M  V30 5356 N 478.904 1.54736 -0.299062 0
M  V30 5357 C 479.814 2.27127 0.587413 0
M  V30 5358 C 480.83 1.30575 1.15005 0
M  V30 5359 O 482.006 1.63554 1.17525 0
M  V30 5360 C 479.071 2.99645 1.74395 0
M  V30 5361 C 478.132 4.11731 1.21559 0
M  V30 5362 C 477.365 4.80781 2.317 0
M  V30 5363 O 477.588 4.4918 3.51558 0
M  V30 5364 O 476.522 5.68226 1.98501 0
M  V30 5365 H 480.348 3.037 0.000250109 0
M  V30 5366 H 477.933 1.49256 -0.0655919 0
M  V30 5367 H 479.815 3.45138 2.4178 0
M  V30 5368 H 478.49 2.25969 2.31775 0
M  V30 5369 H 477.397 3.70641 0.507514 0
M  V30 5370 H 478.73 4.87379 0.687233 0
M  V30 5371 N 480.382 0.0267497 1.57577 0
M  V30 5372 C 481.793 -0.512413 1.79531 0
M  V30 5373 C 482.144 -1.72391 0.936791 0
M  V30 5374 O 481.269 -2.15903 0.146543 0
M  V30 5375 C 481.864 -0.936378 3.25603 0
M  V30 5376 C 480.423 -1.42067 3.4856 0
M  V30 5377 C 479.57 -0.384278 2.74624 0
M  V30 5378 H 482.521 0.252797 1.56674 0
M  V30 5379 H 482.542 -1.80088 3.35184 0
M  V30 5380 H 482.054 -0.0544332 3.88062 0
M  V30 5381 H 480.155 -2.32262 2.9135 0
M  V30 5382 H 480.268 -1.42968 4.57271 0
M  V30 5383 H 478.632 -0.851855 2.40032 0
M  V30 5384 H 479.415 0.489159 3.39797 0
M  V30 5385 N 481.861 -1.55662 -0.24637 0
M  V30 5386 C 482.791 -1.93377 -1.30873 0
M  V30 5387 C 483.772 -0.798773 -1.50179 0
M  V30 5388 O 484.957 -1.0591 -1.62778 0
M  V30 5389 C 482.087 -2.22893 -2.66338 0
M  V30 5390 C 481.041 -3.38649 -2.61727 0
M  V30 5391 C 480.367 -3.53708 -4.00992 0
M  V30 5392 C 481.667 -4.74323 -2.18666 0
M  V30 5393 H 483.361 -2.82363 -0.995552 0
M  V30 5394 H 480.907 -1.35854 -0.477464 0
M  V30 5395 H 482.86 -2.47866 -3.40794 0
M  V30 5396 H 481.584 -1.30733 -2.99293 0
M  V30 5397 H 480.243 -3.13685 -1.89729 0
M  V30 5398 H 479.891 -2.58967 -4.31214 0
M  V30 5399 H 479.591 -4.31551 -3.98795 0
M  V30 5400 H 481.115 -3.81003 -4.77147 0
M  V30 5401 H 482.529 -4.98665 -2.82854 0
M  V30 5402 H 480.926 -5.55273 -2.27579 0
M  V30 5403 H 481.996 -4.71349 -1.13834 0
M  V30 5404 N 483.339 0.512053 -1.4905 0
M  V30 5405 C 484.586 1.26686 -1.57978 0
M  V30 5406 C 484.914 1.92733 -0.261553 0
M  V30 5407 O 484.169 1.80772 0.749667 0
M  V30 5408 C 484.468 2.36446 -2.68008 0
M  V30 5409 C 484.134 1.87932 -4.09869 0
M  V30 5410 C 482.796 1.74419 -4.48477 0
M  V30 5411 C 485.148 1.5149 -4.98698 0
M  V30 5412 C 482.476 1.22827 -5.73699 0
M  V30 5413 C 484.828 1.01355 -6.24428 0
M  V30 5414 C 483.492 0.864735 -6.61875 0
M  V30 5415 H 482.762 0.463577 -0.578081 0
M  V30 5416 H 485.409 0.569421 -1.82838 0
M  V30 5417 H 483.714 3.11933 -2.37076 0
M  V30 5418 H 485.411 2.9453 -2.72127 0
M  V30 5419 H 482.001 1.99405 -3.79389 0
M  V30 5420 H 486.185 1.60782 -4.69535 0
M  V30 5421 H 481.441 1.10008 -6.01422 0
M  V30 5422 H 485.615 0.722351 -6.92644 0
M  V30 5423 H 483.242 0.462777 -7.5879 0
M  V30 5424 N 484.817 1.37938 0.762283 0
M  V30 5425 C 486.233 1.18945 1.06415 0
M  V30 5426 C 486.433 0.0321163 2.01474 0
M  V30 5427 O 485.489 -0.624844 2.44647 0
M  V30 5428 C 486.802 2.51218 1.65258 0
M  V30 5429 C 488.35 2.57824 1.7747 0
M  V30 5430 C 488.825 3.90251 2.39725 0
M  V30 5431 N 490.316 3.91744 2.47166 0
M  V30 5432 C 491.051 4.90966 2.96209 0
M  V30 5433 N 490.547 6.00585 3.45354 0
M  V30 5434 N 492.34 4.78363 2.9517 0
M  V30 5435 H 484.491 2.11994 0.131301 0
M  V30 5436 H 486.754 0.940262 0.120879 0
M  V30 5437 H 486.46 3.36317 1.02878 0
M  V30 5438 H 486.334 2.68989 2.64433 0
M  V30 5439 H 488.721 1.73126 2.3898 0
M  V30 5440 H 488.802 2.43928 0.770241 0
M  V30 5441 H 488.446 4.75368 1.78852 0
M  V30 5442 H 488.376 4.01454 3.40796 0
M  V30 5443 H 490.867 3.12563 2.12397 0
M  V30 5444 H 491.18 6.72236 3.81207 0
M  V30 5445 H 489.525 6.04217 3.43434 0
M  V30 5446 H 492.716 3.91841 2.56082 0
M  V30 5447 H 492.889 5.55843 3.33081 0
M  V30 5448 N 486.295 -0.989507 1.22664 0
M  V30 5449 C 487.227 -2.0824 0.957542 0
M  V30 5450 C 488.24 -1.6267 -0.0651098 0
M  V30 5451 O 489.429 -1.77695 0.169312 0
M  V30 5452 C 486.529 -3.36298 0.419145 0
M  V30 5453 C 485.702 -4.10882 1.49982 0
M  V30 5454 C 484.761 -5.17221 0.967904 0
M  V30 5455 O 483.787 -5.44613 1.65487 0
M  V30 5456 N 484.989 -5.80124 -0.20896 0
M  V30 5457 H 487.754 -2.31904 1.89843 0
M  V30 5458 H 485.315 -1.15552 1.13399 0
M  V30 5459 H 487.307 -4.04671 0.0485451 0
M  V30 5460 H 485.877 -3.09671 -0.426937 0
M  V30 5461 H 485.097 -3.37092 2.04359 0
M  V30 5462 H 486.385 -4.57482 2.22682 0
M  V30 5463 H 485.783 -5.60244 -0.783818 0
M  V30 5464 H 484.34 -6.49715 -0.520913 0
M  V30 5465 N 487.773 -1.03688 -1.18687 0
M  V30 5466 C 488.703 -0.645407 -2.24403 0
M  V30 5467 C 489.684 0.349511 -1.66471 0
M  V30 5468 O 490.869 0.230453 -1.92828 0
M  V30 5469 C 487.999 -0.00365337 -3.473 0
M  V30 5470 C 486.953 -0.921705 -4.17958 0
M  V30 5471 C 486.279 -0.144629 -5.34504 0
M  V30 5472 C 487.579 -2.23909 -4.71871 0
M  V30 5473 H 489.273 -1.52917 -2.57404 0
M  V30 5474 H 486.819 -0.736711 -1.23728 0
M  V30 5475 H 488.772 0.281908 -4.20456 0
M  V30 5476 H 487.496 0.914963 -3.13522 0
M  V30 5477 H 486.155 -1.19159 -3.46694 0
M  V30 5478 H 485.803 0.776274 -4.96974 0
M  V30 5479 H 485.503 -0.756206 -5.82714 0
M  V30 5480 H 487.027 0.134004 -6.10453 0
M  V30 5481 H 488.441 -2.0145 -5.36741 0
M  V30 5482 H 486.838 -2.8033 -5.30599 0
M  V30 5483 H 487.908 -2.88822 -3.895 0
M  V30 5484 N 489.251 1.34841 -0.815825 0
M  V30 5485 C 490.214 2.27959 -0.238185 0
M  V30 5486 C 491.214 1.49983 0.579816 0
M  V30 5487 O 492.404 1.69617 0.396953 0
M  V30 5488 C 489.536 3.34314 0.666876 0
M  V30 5489 H 490.729 2.80558 -1.05958 0
M  V30 5490 H 488.282 1.44852 -0.587156 0
M  V30 5491 H 489.017 2.86916 1.5116 0
M  V30 5492 H 488.802 3.92014 0.0819106 0
M  V30 5493 H 490.292 4.0379 1.06506 0
M  V30 5494 N 490.729 0.570148 1.46925 0
M  V30 5495 C 491.676 -0.170257 2.30171 0
M  V30 5496 C 492.646 -0.896099 1.39855 0
M  V30 5497 O 493.831 -0.889248 1.68811 0
M  V30 5498 C 490.971 -1.18605 3.24079 0
M  V30 5499 C 490.084 -0.464947 4.29491 0
M  V30 5500 C 489.219 -1.46716 5.10537 0
M  V30 5501 C 488.258 -0.731758 6.0771 0
M  V30 5502 N 487.395 -1.68142 6.81669 0
M  V30 5503 H 492.235 0.545713 2.92961 0
M  V30 5504 H 489.772 0.280938 1.44392 0
M  V30 5505 H 491.73 -1.78771 3.76957 0
M  V30 5506 H 490.36 -1.86989 2.63125 0
M  V30 5507 H 489.412 0.251506 3.79568 0
M  V30 5508 H 490.724 0.110548 4.98677 0
M  V30 5509 H 489.878 -2.14199 5.6763 0
M  V30 5510 H 488.617 -2.07658 4.41282 0
M  V30 5511 H 487.622 -0.0430787 5.49783 0
M  V30 5512 H 488.847 -0.127904 6.7898 0
M  V30 5513 H 486.793 -2.27918 6.15134 0
M  V30 5514 H 486.71 -1.15841 7.47072 0
M  V30 5515 H 487.978 -2.347 7.43328 0
M  V30 5516 N 492.207 -1.54576 0.307264 0
M  V30 5517 C 493.447 -2.02172 -0.300962 0
M  V30 5518 C 493.811 -1.19081 -1.50611 0
M  V30 5519 O 495.012 -1.56405 -2.18612 0
M  V30 5520 C 493.283 -3.51576 -0.642591 0
M  V30 5521 S 494.842 -4.21127 -1.23279 0
M  V30 5522 H 491.66 -0.705021 -0.0920141 0
M  V30 5523 H 494.262 -1.90563 0.436594 0
M  V30 5524 H 492.966 -4.09681 0.242901 0
M  V30 5525 H 492.497 -3.67234 -1.41077 0
M  V30 5526 H 494.512 -4.27426 -2.52034 0
M  V30 5527 N 493.685 -0.035106 -1.57561 0
M  V30 5528 C 494.931 0.64318 -1.92331 0
M  V30 5529 C 495.264 1.71434 -0.912368 0
M  V30 5530 O 494.539 1.94395 0.0640303 0
M  V30 5531 C 494.822 1.25411 -3.37556 0
M  V30 5532 C 494.675 0.192109 -4.4939 0
M  V30 5533 C 495.994 2.17041 -3.82859 0
M  V30 5534 H 493.113 0.232341 -0.699419 0
M  V30 5535 H 495.755 -0.0935889 -1.89769 0
M  V30 5536 H 493.905 1.88205 -3.39869 0
M  V30 5537 H 495.577 -0.438849 -4.59208 0
M  V30 5538 H 493.82 -0.481725 -4.31117 0
M  V30 5539 H 494.491 0.659292 -5.48049 0
M  V30 5540 H 496.967 1.64228 -3.8232 0
M  V30 5541 H 495.843 2.56738 -4.85157 0
M  V30 5542 H 496.104 3.06401 -3.18702 0
M  V30 5543 N 495.163 1.55791 0.238111 0
M  V30 5544 C 496.388 1.8244 0.986432 0
M  V30 5545 C 496.813 0.613314 1.7782 0
M  V30 5546 O 496.171 -0.437767 1.75935 0
M  V30 5547 C 496.219 3.06917 1.893 0
M  V30 5548 O 495.323 2.84449 2.98601 0
M  V30 5549 H 494.664 0.601975 0.280218 0
M  V30 5550 H 497.194 2.02987 0.256437 0
M  V30 5551 H 497.204 3.36583 2.30598 0
M  V30 5552 H 495.879 3.947 1.31091 0
M  V30 5553 H 494.456 2.65972 2.61368 0
M  V30 5554 N 496.642 -0.504142 1.49319 0
M  V30 5555 C 497.867 -1.28729 1.62615 0
M  V30 5556 C 498.292 -1.85752 0.296309 0
M  V30 5557 O 497.65 -1.65704 -0.735649 0
M  V30 5558 C 497.698 -2.39561 2.69524 0
M  V30 5559 O 496.802 -3.43324 2.28478 0
M  V30 5560 H 496.143 -0.380172 0.544395 0
M  V30 5561 H 498.673 -0.603872 1.95485 0
M  V30 5562 H 498.683 -2.8537 2.91595 0
M  V30 5563 H 497.358 -1.97423 3.66056 0
M  V30 5564 H 495.935 -3.03455 2.16725 0
M  V30 5565 N 498.12 -1.38341 -0.754957 0
M  V30 5566 C 499.531 -1.30803 -1.3322 0
M  V30 5567 C 499.882 0.0368 -1.96165 0
M  V30 5568 O 499.007 0.938844 -1.94974 0
M  V30 5569 C 499.602 -2.3688 -2.42225 0
M  V30 5570 C 498.161 -2.32925 -2.95674 0
M  V30 5571 C 497.308 -2.19819 -1.69042 0
M  V30 5572 H 500.259 -1.48719 -0.553937 0
M  V30 5573 H 500.28 -2.02517 -3.22129 0
M  V30 5574 H 499.792 -3.34747 -1.96383 0
M  V30 5575 H 497.893 -1.38635 -3.45848 0
M  V30 5576 H 498.006 -3.27008 -3.50146 0
M  V30 5577 H 496.37 -1.66648 -1.92615 0
M  V30 5578 H 497.153 -3.19625 -1.25279 0
M  V30 5579 N 499.598 0.982988 -1.23187 0
M  V30 5580 C 500.548 2.05962 -0.977942 0
M  V30 5581 C 501.532 1.60725 0.0751148 0
M  V30 5582 O 502.724 1.76471 -0.136683 0
M  V30 5583 C 499.853 3.38564 -0.568276 0
M  V30 5584 C 498.939 3.90407 -1.6566 0
M  V30 5585 N 499.33 4.15359 -2.88635 0
M  V30 5586 C 497.628 4.18915 -1.53058 0
M  V30 5587 C 498.329 4.57642 -3.5908 0
M  V30 5588 N 497.305 4.6192 -2.86584 0
M  V30 5589 H 501.107 2.23208 -1.91195 0
M  V30 5590 H 498.621 1.16555 -1.13087 0
M  V30 5591 H 500.618 4.15276 -0.36764 0
M  V30 5592 H 499.278 3.22712 0.358713 0
M  V30 5593 H 500.289 4.03258 -3.24966 0
M  V30 5594 H 496.966 4.12081 -0.670506 0
M  V30 5595 H 498.356 4.85488 -4.6449 0
M  V30 5596 N 501.076 1.04316 1.18135 0
M  V30 5597 C 502.323 0.74802 1.88178 0
M  V30 5598 C 502.651 -0.72441 1.80506 0
M  V30 5599 O 501.906 -1.54463 1.20165 0
M  V30 5600 C 502.205 1.16271 3.37958 0
M  V30 5601 C 501.871 2.63585 3.65833 0
M  V30 5602 C 500.533 3.03829 3.73151 0
M  V30 5603 C 502.885 3.58822 3.78016 0
M  V30 5604 C 500.213 4.38194 3.90132 0
M  V30 5605 C 502.565 4.92909 3.96514 0
M  V30 5606 C 501.229 5.3282 4.02068 0
M  V30 5607 H 500.499 0.27372 0.688592 0
M  V30 5608 H 503.146 1.30863 1.39811 0
M  V30 5609 H 501.451 0.520938 3.88321 0
M  V30 5610 H 503.148 0.911672 3.90499 0
M  V30 5611 H 499.738 2.31414 3.60757 0
M  V30 5612 H 503.922 3.28875 3.71692 0
M  V30 5613 H 499.178 4.68631 3.92677 0
M  V30 5614 H 503.352 5.66606 4.04883 0
M  V30 5615 H 500.979 6.36943 4.14979 0
M  V30 5616 N 502.554 -1.34406 0.822964 0
M  V30 5617 C 503.486 -2.28305 0.202375 0
M  V30 5618 C 504.499 -1.5103 -0.60777 0
M  V30 5619 O 505.688 -1.73057 -0.437444 0
M  V30 5620 C 502.788 -3.30836 -0.734911 0
M  V30 5621 C 501.961 -4.37388 0.0324177 0
M  V30 5622 C 501.02 -5.1968 -0.825803 0
M  V30 5623 O 500.046 -5.68556 -0.270771 0
M  V30 5624 N 501.248 -5.39393 -2.14558 0
M  V30 5625 H 504.013 -2.82201 1.00909 0
M  V30 5626 H 501.574 -1.4693 0.67993 0
M  V30 5627 H 503.566 -3.82786 -1.31365 0
M  V30 5628 H 502.136 -2.77334 -1.44238 0
M  V30 5629 H 501.356 -3.86152 0.792469 0
M  V30 5630 H 502.644 -5.05702 0.560633 0
M  V30 5631 H 502.042 -5.01357 -2.62025 0
M  V30 5632 H 500.599 -5.94461 -2.67318 0
M  V30 5633 N 504.032 -0.577932 -1.46621 0
M  V30 5634 C 505.278 -0.0617793 -2.02706 0
M  V30 5635 C 505.611 1.29294 -1.44903 0
M  V30 5636 O 504.886 1.8461 -0.61232 0
M  V30 5637 C 505.169 0.00911824 -3.60099 0
M  V30 5638 C 505.022 -1.37416 -4.28295 0
M  V30 5639 C 506.341 0.712159 -4.343 0
M  V30 5640 H 503.46 -0.0239246 -0.736612 0
M  V30 5641 H 506.102 -0.744211 -1.74818 0
M  V30 5642 H 504.252 0.590292 -3.83989 0
M  V30 5643 H 505.924 -2.00013 -4.15683 0
M  V30 5644 H 504.167 -1.94319 -3.87843 0
M  V30 5645 H 504.838 -1.27707 -5.37024 0
M  V30 5646 H 507.314 0.218486 -4.15526 0
M  V30 5647 H 506.19 0.730782 -5.44014 0
M  V30 5648 H 506.451 1.77251 -4.05012 0
M  V30 5649 N 505.51 1.54411 -0.315457 0
M  V30 5650 C 506.473 2.22713 0.54142 0
M  V30 5651 C 507.473 1.2179 1.04995 0
M  V30 5652 O 508.663 1.46426 0.943667 0
M  V30 5653 C 505.795 2.92485 1.75116 0
M  V30 5654 H 506.988 2.99849 -0.0555508 0
M  V30 5655 H 504.541 1.56159 -0.0664453 0
M  V30 5656 H 505.276 2.19466 2.38758 0
M  V30 5657 H 505.061 3.66483 1.39401 0
M  V30 5658 H 506.551 3.44548 2.35959 0
M  V30 5659 N 506.988 0.0434614 1.5754 0
M  V30 5660 C 507.898 -0.94893 2.14552 0
M  V30 5661 C 508.914 -1.34707 1.10136 0
M  V30 5662 O 510.09 -1.42557 1.42266 0
M  V30 5663 C 507.155 -2.208 2.67298 0
M  V30 5664 C 506.216 -1.86893 3.86484 0
M  V30 5665 C 505.449 -3.06797 4.36705 0
M  V30 5666 O 505.672 -4.19921 3.86034 0
M  V30 5667 O 504.606 -2.8826 5.28384 0
M  V30 5668 H 508.432 -0.494099 2.99654 0
M  V30 5669 H 506.017 -0.177989 1.48336 0
M  V30 5670 H 507.899 -2.94686 3.01228 0
M  V30 5671 H 506.574 -2.65436 1.85272 0
M  V30 5672 H 505.481 -1.10347 3.57455 0
M  V30 5673 H 506.814 -1.47062 4.69716 0
M  V30 5674 N 508.466 -1.55915 -0.229846 0
M  V30 5675 C 509.882 -1.48721 -0.579166 0
M  V30 5676 C 510.082 -0.736976 -1.87539 0
M  V30 5677 O 509.138 -0.273258 -2.51017 0
M  V30 5678 C 510.451 -2.9323 -0.666082 0
M  V30 5679 C 511.999 -3.03701 -0.757267 0
M  V30 5680 C 512.474 -4.49552 -0.8756 0
M  V30 5681 N 513.965 -4.53561 -0.940035 0
M  V30 5682 C 514.7 -5.63683 -1.05116 0
M  V30 5683 N 514.196 -6.83576 -1.12675 0
M  V30 5684 N 515.989 -5.51516 -1.08565 0
M  V30 5685 H 508.14 -2.03123 0.620857 0
M  V30 5686 H 510.403 -0.922898 0.21671 0
M  V30 5687 H 510.109 -3.51032 0.21664 0
M  V30 5688 H 509.983 -3.44668 -1.53243 0
M  V30 5689 H 512.37 -2.45969 -1.63043 0
M  V30 5690 H 512.451 -2.55446 0.134583 0
M  V30 5691 H 512.095 -5.079 -0.00692351 0
M  V30 5692 H 512.025 -4.95506 -1.78274 0
M  V30 5693 H 514.516 -3.67215 -0.892269 0
M  V30 5694 H 514.829 -7.63251 -1.21109 0
M  V30 5695 H 513.174 -6.86303 -1.09603 0
M  V30 5696 H 516.365 -4.5678 -1.02319 0
M  V30 5697 H 516.538 -6.37372 -1.1688 0
M  V30 5698 N 509.944 0.496216 -1.49584 0
M  V30 5699 C 510.907 1.57952 -1.66084 0
M  V30 5700 C 511.907 1.51729 -0.53244 0
M  V30 5701 O 513.097 1.54796 -0.79899 0
M  V30 5702 C 510.229 2.97604 -1.66268 0
M  V30 5703 H 511.422 1.44649 -2.6271 0
M  V30 5704 H 508.975 0.7208 -1.38687 0
M  V30 5705 H 509.71 3.16378 -0.712432 0
M  V30 5706 H 509.495 3.03528 -2.4822 0
M  V30 5707 H 510.985 3.76301 -1.81073 0
M  V30 5708 N 511.423 1.38739 0.74761 0
M  V30 5709 C 512.353 1.39173 1.87492 0
M  V30 5710 C 513.334 0.256794 1.6815 0
M  V30 5711 O 514.519 0.460762 1.88655 0
M  V30 5712 C 511.649 1.22197 3.25093 0
M  V30 5713 C 510.603 2.32957 3.59047 0
M  V30 5714 C 509.929 2.01082 4.95449 0
M  V30 5715 C 511.229 3.75237 3.6331 0
M  V30 5716 H 512.923 2.3351 1.87386 0
M  V30 5717 H 510.469 1.12399 0.900134 0
M  V30 5718 H 512.422 1.21124 4.03617 0
M  V30 5719 H 511.146 0.243241 3.25693 0
M  V30 5720 H 509.805 2.33226 2.82845 0
M  V30 5721 H 509.453 1.01678 4.92616 0
M  V30 5722 H 509.153 2.75267 5.19136 0
M  V30 5723 H 510.677 2.01638 5.76346 0
M  V30 5724 H 512.091 3.76966 4.31937 0
M  V30 5725 H 510.488 4.48677 3.98509 0
M  V30 5726 H 511.558 4.07122 2.634 0
M  V30 5727 N 512.901 -0.976442 1.23707 0
M  V30 5728 C 514.131 -1.75087 1.09673 0
M  V30 5729 C 514.539 -1.85852 -0.354344 0
M  V30 5730 O 513.882 -1.33985 -1.25673 0
M  V30 5731 C 513.944 -3.19272 1.65245 0
M  V30 5732 C 513.608 -3.32004 3.14042 0
M  V30 5733 C 514.605 -3.18017 4.11292 0
M  V30 5734 C 512.29 -3.56525 3.53829 0
M  V30 5735 C 514.284 -3.28363 5.46312 0
M  V30 5736 C 511.971 -3.6651 4.88993 0
M  V30 5737 C 512.969 -3.52439 5.85043 0
M  V30 5738 O 512.657 -3.62063 7.1775 0
M  V30 5739 H 512.389 -0.556164 0.384262 0
M  V30 5740 H 514.943 -1.23518 1.64111 0
M  V30 5741 H 513.173 -3.72107 1.05231 0
M  V30 5742 H 514.862 -3.7849 1.46629 0
M  V30 5743 H 515.628 -2.98966 3.81896 0
M  V30 5744 H 511.507 -3.66547 2.79579 0
M  V30 5745 H 515.051 -3.17297 6.21263 0
M  V30 5746 H 510.948 -3.85072 5.18063 0
M  V30 5747 H 511.716 -3.78833 7.25553 0
M  V30 5748 N 514.379 -1.04941 -1.1758 0
M  V30 5749 C 515.609 -0.777166 -1.91425 0
M  V30 5750 C 516.017 0.670647 -1.76915 0
M  V30 5751 O 515.36 1.46965 -1.10213 0
M  V30 5752 C 515.422 -1.07495 -3.43052 0
M  V30 5753 C 515.086 -2.51844 -3.81345 0
M  V30 5754 C 516.083 -3.50047 -3.844 0
M  V30 5755 C 513.768 -2.86787 -4.12382 0
M  V30 5756 C 515.762 -4.81239 -4.17957 0
M  V30 5757 C 513.449 -4.18182 -4.45608 0
M  V30 5758 C 514.447 -5.15219 -4.48373 0
M  V30 5759 O 514.135 -6.44258 -4.80819 0
M  V30 5760 H 513.867 -0.282209 -0.614275 0
M  V30 5761 H 516.421 -1.40258 -1.50056 0
M  V30 5762 H 514.651 -0.392437 -3.84704 0
M  V30 5763 H 516.34 -0.78912 -3.98155 0
M  V30 5764 H 517.106 -3.24391 -3.60548 0
M  V30 5765 H 512.985 -2.11922 -4.09402 0
M  V30 5766 H 516.529 -5.56974 -4.2003 0
M  V30 5767 H 512.426 -4.43602 -4.68922 0
M  V30 5768 H 513.194 -6.49041 -4.98686 0
M  V30 5769 N 515.857 1.33968 -0.830081 0
M  V30 5770 C 517.103 1.98773 -0.431394 0
M  V30 5771 C 517.458 1.64598 0.99626 0
M  V30 5772 O 516.751 0.911022 1.68555 0
M  V30 5773 C 516.945 3.52679 -0.57898 0
M  V30 5774 C 516.774 4.01807 -2.01943 0
M  V30 5775 C 515.544 4.30062 -2.65282 0
M  V30 5776 C 517.742 4.18663 -2.98707 0
M  V30 5777 N 515.724 4.65272 -4.00493 0
M  V30 5778 C 517.095 4.57133 -4.18843 0
M  V30 5779 C 519.15 4.00929 -2.95229 0
M  V30 5780 C 517.853 4.79723 -5.35965 0
M  V30 5781 C 519.879 4.2469 -4.11573 0
M  V30 5782 C 519.241 4.63454 -5.30462 0
M  V30 5783 H 515.34 0.75435 -0.206107 0
M  V30 5784 H 517.924 1.62247 -1.07629 0
M  V30 5785 H 516.095 3.88383 0.0360632 0
M  V30 5786 H 517.827 4.04412 -0.152596 0
M  V30 5787 H 514.582 4.21231 -2.16475 0
M  V30 5788 H 515.006 4.87101 -4.70172 0
M  V30 5789 H 519.648 3.70082 -2.04448 0
M  V30 5790 H 517.366 5.09434 -6.27297 0
M  V30 5791 H 520.952 4.12497 -4.10289 0
M  V30 5792 H 519.832 4.81476 -6.18992 0
M  V30 5793 N 517.335 0.585699 1.46312 0
M  V30 5794 C 518.283 -0.158577 2.32059 0
M  V30 5795 C 519.277 -0.881427 1.44662 0
M  V30 5796 O 520.483 -0.799476 1.61271 0
M  V30 5797 H 516.858 -0.0700066 0.748734 0
M  V30 5798 H 518.829 0.583383 2.92642 0
M  V30 5799 C 517.578 -1.15701 3.27885 0
M  V30 5800 H 516.901 -0.610215 3.95116 0
M  V30 5801 H 518.341 -1.64812 3.90657 0
M  V30 5802 C 516.8 -2.21951 2.53455 0
M  V30 5803 O 517.33 -3.29352 2.29978 0
M  V30 5804 N 515.536 -1.9664 2.13965 0
M  V30 5805 H 515.083 -1.09309 2.33258 0
M  V30 5806 H 515.041 -2.6794 1.64485 0
M  V30 5807 N 518.813 -1.54241 0.323641 0
M  V30 5808 C 519.761 -2.25813 -0.557804 0
M  V30 5809 C 520.755 -1.27225 -1.11849 0
M  V30 5810 O 521.961 -1.45001 -1.06652 0
M  V30 5811 H 518.336 -0.72532 -0.198532 0
M  V30 5812 H 520.307 -2.98322 0.0681112 0
M  V30 5813 C 519.056 -3.02913 -1.70701 0
M  V30 5814 H 518.379 -3.78593 -1.28482 0
M  V30 5815 H 519.819 -3.56238 -2.29935 0
M  V30 5816 C 518.278 -2.11217 -2.62467 0
M  V30 5817 O 518.808 -1.69508 -3.64184 0
M  V30 5818 N 517.014 -1.76704 -2.30703 0
M  V30 5819 H 516.561 -2.1082 -1.48029 0
M  V30 5820 H 516.519 -1.15631 -2.92364 0
M  V30 5821 N 520.291 -0.0518155 -1.57515 0
M  V30 5822 C 521.201 0.937539 -2.15052 0
M  V30 5823 C 522.217 1.34121 -1.10849 0
M  V30 5824 O 523.393 1.418 -1.4302 0
M  V30 5825 C 520.458 2.19379 -2.68466 0
M  V30 5826 C 519.519 1.84841 -3.87469 0
M  V30 5827 C 518.752 3.04477 -4.38326 0
M  V30 5828 O 518.975 4.17868 -3.88256 0
M  V30 5829 O 517.909 2.85453 -5.29906 0
M  V30 5830 H 521.735 0.478201 -2.99912 0
M  V30 5831 H 519.32 0.17012 -1.48428 0
M  V30 5832 H 521.202 2.93084 -3.02787 0
M  V30 5833 H 519.877 2.64449 -1.86677 0
M  V30 5834 H 518.784 1.08449 -3.58036 0
M  V30 5835 H 520.117 1.44569 -4.7049 0
M  V30 5836 N 521.769 1.56035 0.221574 0
M  V30 5837 C 522.999 1.82864 0.961468 0
M  V30 5838 C 523.407 0.628703 1.78449 0
M  V30 5839 O 522.75 -0.412109 1.79018 0
M  V30 5840 C 522.812 3.03425 1.92804 0
M  V30 5841 C 522.476 4.38429 1.28954 0
M  V30 5842 C 523.473 5.15441 0.679431 0
M  V30 5843 C 521.158 4.85151 1.30131 0
M  V30 5844 C 523.152 6.37337 0.0896148 0
M  V30 5845 C 520.839 6.06989 0.707651 0
M  V30 5846 C 521.837 6.82923 0.102855 0
M  V30 5847 O 521.525 8.02456 -0.48157 0
M  V30 5848 H 521.257 0.611883 0.28736 0
M  V30 5849 H 523.811 2.0397 0.241932 0
M  V30 5850 H 522.041 2.78138 2.68656 0
M  V30 5851 H 523.73 3.17127 2.53348 0
M  V30 5852 H 524.496 4.80452 0.662661 0
M  V30 5853 H 520.375 4.26021 1.76145 0
M  V30 5854 H 523.919 6.96547 -0.383069 0
M  V30 5855 H 519.816 6.41451 0.721834 0
M  V30 5856 H 520.584 8.17636 -0.375887 0
M  V30 5857 N 523.247 -0.488276 1.49845 0
M  V30 5858 C 524.496 -1.23826 1.59217 0
M  V30 5859 C 524.809 -1.93439 0.289966 0
M  V30 5860 O 526.015 -2.70229 0.262382 0
M  V30 5861 C 524.471 -2.24902 2.80976 0
M  V30 5862 C 524.079 -1.6117 4.18005 0
M  V30 5863 C 525.823 -3.00648 2.99685 0
M  V30 5864 C 523.73 -2.60431 5.3097 0
M  V30 5865 H 522.66 -0.465858 0.592868 0
M  V30 5866 H 525.311 -0.510645 1.76252 0
M  V30 5867 H 523.693 -3.0088 2.57463 0
M  V30 5868 H 524.867 -0.910968 4.51706 0
M  V30 5869 H 523.182 -0.97767 4.0476 0
M  V30 5870 H 525.779 -3.74903 3.81251 0
M  V30 5871 H 526.122 -3.5902 2.10738 0
M  V30 5872 H 526.655 -2.31784 3.23297 0
M  V30 5873 H 523.394 -2.06823 6.22017 0
M  V30 5874 H 522.914 -3.28707 5.01709 0
M  V30 5875 H 524.593 -3.22606 5.60834 0
M  V30 5876 N 524.725 -1.39134 -0.740242 0
M  V30 5877 C 525.658 -1.3182 -1.86276 0
M  V30 5878 C 526.636 -0.192794 -1.61453 0
M  V30 5879 O 527.82 -0.372365 -1.84786 0
M  V30 5880 C 524.947 -1.04564 -3.22155 0
M  V30 5881 C 523.993 -2.19224 -3.65846 0
M  V30 5882 S 524.826 -3.81466 -3.75824 0
M  V30 5883 C 525.982 -3.56425 -5.14502 0
M  V30 5884 H 526.215 -2.26822 -1.92195 0
M  V30 5885 H 523.748 -1.25127 -0.904576 0
M  V30 5886 H 525.706 -0.895228 -4.00619 0
M  V30 5887 H 524.367 -0.112578 -3.13898 0
M  V30 5888 H 523.56 -1.95732 -4.6444 0
M  V30 5889 H 523.162 -2.30441 -2.94572 0
M  V30 5890 H 525.454 -3.13366 -6.00673 0
M  V30 5891 H 526.397 -4.54462 -5.43019 0
M  V30 5892 H 526.805 -2.90641 -4.8393 0
M  V30 5893 N 526.204 0.969867 -1.24223 0
M  V30 5894 C 527.429 1.75289 -1.10853 0
M  V30 5895 C 527.854 1.85091 0.335079 0
M  V30 5896 O 527.212 1.32024 1.24255 0
M  V30 5897 C 527.26 3.15255 -1.75062 0
M  V30 5898 O 526.364 3.99589 -1.01992 0
M  V30 5899 H 525.705 0.538904 -0.387915 0
M  V30 5900 H 528.235 1.21675 -1.64488 0
M  V30 5901 H 528.245 3.65787 -1.80731 0
M  V30 5902 H 526.92 3.07436 -2.801 0
M  V30 5903 H 525.497 3.58077 -1.04094 0
M  V30 5904 N 527.682 1.05563 1.17022 0
M  V30 5905 C 528.612 0.681026 2.23348 0
M  V30 5906 C 529.593 -0.322983 1.67005 0
M  V30 5907 O 530.778 -0.199746 1.9317 0
M  V30 5908 C 527.908 0.0589053 3.4725 0
M  V30 5909 C 526.862 0.988082 4.16438 0
M  V30 5910 C 526.188 0.229646 5.34207 0
M  V30 5911 C 527.488 2.31388 4.68249 0
M  V30 5912 H 529.182 1.56993 2.54938 0
M  V30 5913 H 526.728 0.756302 1.2254 0
M  V30 5914 H 528.681 -0.214982 4.20851 0
M  V30 5915 H 527.405 -0.864968 3.14938 0
M  V30 5916 H 526.064 1.24659 3.44754 0
M  V30 5917 H 525.712 -0.697111 4.98146 0
M  V30 5918 H 525.412 0.848815 5.81437 0
M  V30 5919 H 526.936 -0.0368694 6.10589 0
M  V30 5920 H 528.35 2.09964 5.33468 0
M  V30 5921 H 526.747 2.88736 5.26072 0
M  V30 5922 H 527.817 2.94982 3.84855 0
M  V30 5923 N 529.16 -1.33526 0.837174 0
M  V30 5924 C 530.409 -1.97098 0.428387 0
M  V30 5925 C 530.722 -1.67062 -1.01734 0
M  V30 5926 O 531.928 -2.24235 -1.53072 0
M  V30 5927 C 530.384 -3.52725 0.715075 0
M  V30 5928 C 529.992 -3.9164 2.17537 0
M  V30 5929 C 531.736 -4.22857 0.373154 0
M  V30 5930 C 529.643 -5.40237 2.40619 0
M  V30 5931 H 528.573 -0.737589 0.156455 0
M  V30 5932 H 531.224 -1.52169 1.02552 0
M  V30 5933 H 529.606 -3.95971 0.0475904 0
M  V30 5934 H 530.78 -3.59456 2.88319 0
M  V30 5935 H 529.095 -3.34485 2.4801 0
M  V30 5936 H 531.692 -5.32133 0.523264 0
M  V30 5937 H 532.035 -4.10647 -0.683708 0
M  V30 5938 H 532.568 -3.85135 0.995801 0
M  V30 5939 H 529.307 -5.57449 3.44864 0
M  V30 5940 H 528.827 -5.73887 1.74396 0
M  V30 5941 H 530.506 -6.07102 2.23688 0
M  V30 5942 N 530.638 -0.59345 -1.46 0
M  V30 5943 C 531.863 -0.0872365 -2.07216 0
M  V30 5944 C 532.288 1.2131 -1.43755 0
M  V30 5945 O 531.646 1.73528 -0.525152 0
M  V30 5946 C 531.694 0.0538197 -3.6056 0
M  V30 5947 O 530.798 1.10765 -3.97247 0
M  V30 5948 H 530.139 -0.0676598 -0.660544 0
M  V30 5949 H 532.669 -0.819445 -1.87473 0
M  V30 5950 H 532.679 0.256567 -4.07193 0
M  V30 5951 H 531.354 -0.895739 -4.0614 0
M  V30 5952 H 529.931 0.882501 -3.62307 0
M  V30 5953 N 532.116 1.54067 -0.331816 0
M  V30 5954 C 533.393 1.92915 0.322955 0
M  V30 5955 C 533.773 1.26225 1.69205 0
M  V30 5956 O 533.121 0.408919 2.24811 0
M  V30 5957 C 533.331 3.46619 0.406946 0
M  V30 5958 C 534.679 4.19386 0.663339 0
M  V30 5959 O 535.703 3.5282 0.489536 0
M  V30 5960 O 534.562 5.37288 0.999193 0
M  V30 5961 H 531.656 0.805808 0.186016 0
M  V30 5962 H 534.202 1.65342 -0.382135 0
M  V30 5963 H 532.974 3.87354 -0.554287 0
M  V30 5964 H 532.597 3.80324 1.15929 0
M  V30 5965 N 533.594 0.0601682 1.57485 0
M  V30 5966 C 534.542 -0.928899 2.13247 0
M  V30 5967 C 535.536 -1.31616 1.06647 0
M  V30 5968 O 536.742 -1.29476 1.25043 0
M  V30 5969 H 533.117 -0.317455 0.681708 0
M  V30 5970 H 535.088 -0.433566 2.95233 0
M  V30 5971 C 533.837 -2.19121 2.69965 0
M  V30 5972 H 533.16 -1.90204 3.51657 0
M  V30 5973 H 534.6 -2.86465 3.12592 0
M  V30 5974 C 533.059 -2.94195 1.64168 0
M  V30 5975 O 533.589 -3.87468 1.05978 0
M  V30 5976 N 531.795 -2.57089 1.35476 0
M  V30 5977 H 531.342 -1.81314 1.82984 0
M  V30 5978 H 531.3 -3.07624 0.649196 0
M  V30 5979 N 535.072 -1.5615 -0.213296 0
M  V30 5980 C 536.035 -1.92249 -1.24792 0
M  V30 5981 C 537.035 -0.801828 -1.39382 0
M  V30 5982 O 538.225 -1.06948 -1.37506 0
M  V30 5983 C 535.357 -2.18056 -2.62039 0
M  V30 5984 H 536.55 -2.84793 -0.939845 0
M  V30 5985 H 534.103 -1.49559 -0.454062 0
M  V30 5986 H 534.838 -1.2809 -2.97932 0
M  V30 5987 H 534.623 -2.99703 -2.52825 0
M  V30 5988 H 536.113 -2.47051 -3.36683 0
M  V30 5989 N 536.55 0.480323 -1.50102 0
M  V30 5990 C 537.513 1.56181 -1.6775 0
M  V30 5991 C 538.513 1.51156 -0.548503 0
M  V30 5992 O 539.703 1.5394 -0.815363 0
M  V30 5993 C 536.835 2.95823 -1.69415 0
M  V30 5994 H 538.028 1.41855 -2.6423 0
M  V30 5995 H 535.581 0.70605 -1.39444 0
M  V30 5996 H 536.316 3.15604 -0.745948 0
M  V30 5997 H 536.101 3.00878 -2.51425 0
M  V30 5998 H 537.591 3.74359 -1.85054 0
M  V30 5999 N 538.028 1.39524 0.732853 0
M  V30 6000 C 538.975 1.38416 1.84688 0
M  V30 6001 C 539.945 0.243539 1.64305 0
M  V30 6002 O 541.13 0.438979 1.85681 0
M  V30 6003 C 538.27 1.23555 3.22224 0
M  V30 6004 C 537.383 2.47179 3.54298 0
M  V30 6005 C 536.518 2.2489 4.81246 0
M  V30 6006 C 535.557 3.44178 5.0617 0
M  V30 6007 N 534.694 3.21192 6.24323 0
M  V30 6008 H 539.534 2.33645 1.84971 0
M  V30 6009 H 537.071 1.16059 0.903804 0
M  V30 6010 H 539.029 1.12949 4.0162 0
M  V30 6011 H 537.659 0.31954 3.21215 0
M  V30 6012 H 536.711 2.68379 2.69587 0
M  V30 6013 H 538.023 3.36022 3.68633 0
M  V30 6014 H 537.177 2.11538 5.68627 0
M  V30 6015 H 535.916 1.33443 4.69089 0
M  V30 6016 H 534.921 3.58025 4.17251 0
M  V30 6017 H 536.146 4.36528 5.20212 0
M  V30 6018 H 534.092 2.32413 6.1345 0
M  V30 6019 H 534.009 4.03594 6.39256 0
M  V30 6020 H 535.277 3.1154 7.14537 0
M  V30 6021 N 539.506 -0.963266 1.24736 0
M  V30 6022 C 540.755 -1.70115 1.08369 0
M  V30 6023 C 541.068 -1.91939 -0.376688 0
M  V30 6024 O 542.274 -2.6334 -0.660624 0
M  V30 6025 C 540.73 -3.06218 1.89099 0
M  V30 6026 C 540.338 -2.92221 3.39574 0
M  V30 6027 C 542.082 -3.83848 1.81275 0
M  V30 6028 C 539.989 -4.23662 4.12631 0
M  V30 6029 H 538.919 -0.637944 0.401924 0
M  V30 6030 H 541.57 -1.07304 1.48856 0
M  V30 6031 H 539.952 -3.69884 1.41429 0
M  V30 6032 H 541.126 -2.37541 3.94856 0
M  V30 6033 H 539.441 -2.28054 3.48397 0
M  V30 6034 H 542.038 -4.81188 2.33158 0
M  V30 6035 H 542.381 -4.08949 0.778895 0
M  V30 6036 H 542.914 -3.26918 2.26649 0
M  V30 6037 H 539.653 -4.03753 5.16395 0
M  V30 6038 H 539.173 -4.78141 3.62135 0
M  V30 6039 H 540.852 -4.92256 4.19873 0
M  V30 6040 N 540.985 -1.06182 -1.16461 0
M  V30 6041 C 541.915 -0.692861 -2.22984 0
M  V30 6042 C 542.896 0.314122 -1.67174 0
M  V30 6043 O 544.081 0.189499 -1.93273 0
M  V30 6044 C 541.211 -0.07732 -3.47214 0
M  V30 6045 C 540.165 -1.01015 -4.15909 0
M  V30 6046 C 539.491 -0.257973 -5.34077 0
M  V30 6047 C 540.791 -2.33868 -4.67015 0
M  V30 6048 H 542.485 -1.58343 -2.54102 0
M  V30 6049 H 540.031 -0.76279 -1.22137 0
M  V30 6050 H 541.984 0.19266 -4.20959 0
M  V30 6051 H 540.708 0.848254 -3.15392 0
M  V30 6052 H 539.367 -1.26486 -3.44088 0
M  V30 6053 H 539.015 0.670684 -4.98509 0
M  V30 6054 H 538.715 -0.879638 -5.80979 0
M  V30 6055 H 540.239 0.00448788 -6.106 0
M  V30 6056 H 541.653 -2.1279 -5.32347 0
M  V30 6057 H 540.05 -2.91522 -5.24533 0
M  V30 6058 H 541.12 -2.97019 -3.83286 0
M  V30 6059 N 542.463 1.3308 -0.844243 0
M  V30 6060 C 543.874 1.7992 -0.498566 0
M  V30 6061 C 544.225 1.69808 0.982834 0
M  V30 6062 O 543.35 1.25051 1.7661 0
M  V30 6063 C 543.945 3.26677 -0.898204 0
M  V30 6064 C 542.504 3.71513 -0.604583 0
M  V30 6065 C 541.651 2.54393 -1.10362 0
M  V30 6066 H 544.602 1.20526 -1.03244 0
M  V30 6067 H 544.623 3.79918 -0.21039 0
M  V30 6068 H 544.135 3.34004 -1.97643 0
M  V30 6069 H 542.236 3.69708 0.46335 0
M  V30 6070 H 542.349 4.64755 -1.16358 0
M  V30 6071 H 540.713 2.49246 -0.524273 0
M  V30 6072 H 541.496 2.6448 -2.18873 0
M  V30 6073 N 543.941 0.601185 1.45683 0
M  V30 6074 C 545.19 0.0914953 2.01492 0
M  V30 6075 C 545.503 -1.28331 1.47616 0
M  V30 6076 O 546.709 -1.88537 1.95362 0
M  V30 6077 C 545.165 0.11291 3.59723 0
M  V30 6078 C 544.773 1.48717 4.22596 0
M  V30 6079 C 546.517 -0.341871 4.23121 0
M  V30 6080 C 544.424 1.46531 5.7296 0
M  V30 6081 H 543.354 0.0304365 0.753385 0
M  V30 6082 H 546.005 0.755568 1.67223 0
M  V30 6083 H 544.387 -0.617692 3.91153 0
M  V30 6084 H 545.561 2.23897 4.02749 0
M  V30 6085 H 543.876 1.88351 3.71366 0
M  V30 6086 H 546.473 -0.377304 5.33367 0
M  V30 6087 H 546.816 -1.36325 3.93346 0
M  V30 6088 H 547.349 0.335256 3.96385 0
M  V30 6089 H 544.088 2.46408 6.07423 0
M  V30 6090 H 543.608 0.755997 5.95017 0
M  V30 6091 H 545.287 1.18618 6.36034 0
M  V30 6092 N 545.419 -1.53889 0.339982 0
M  V30 6093 C 546.352 -2.21187 -0.561405 0
M  V30 6094 C 547.33 -1.19463 -1.10306 0
M  V30 6095 O 548.514 -1.48268 -1.164 0
M  V30 6096 C 545.641 -2.8865 -1.77198 0
M  V30 6097 C 544.687 -4.04232 -1.3601 0
M  V30 6098 S 545.52 -5.34129 -0.382909 0
M  V30 6099 C 546.676 -6.05094 -1.60039 0
M  V30 6100 H 546.909 -2.97298 0.0102092 0
M  V30 6101 H 544.442 -1.53901 0.124056 0
M  V30 6102 H 546.4 -3.28138 -2.4665 0
M  V30 6103 H 545.061 -2.12311 -2.3148 0
M  V30 6104 H 544.254 -4.50358 -2.2626 0
M  V30 6105 H 543.856 -3.66503 -0.745098 0
M  V30 6106 H 546.148 -6.2827 -2.53541 0
M  V30 6107 H 547.091 -6.98182 -1.18099 0
M  V30 6108 H 547.499 -5.35207 -1.79483 0
M  V30 6109 N 546.897 -0.0685191 -1.57451 0
M  V30 6110 C 548.144 0.601348 -1.93365 0
M  V30 6111 C 548.472 1.69816 -0.948294 0
M  V30 6112 O 547.727 1.95666 0.0366199 0
M  V30 6113 C 548.026 1.22051 -3.35914 0
M  V30 6114 C 547.692 0.250165 -4.50205 0
M  V30 6115 C 546.354 -0.0167954 -4.81197 0
M  V30 6116 C 548.706 -0.413867 -5.19554 0
M  V30 6117 C 546.034 -0.95493 -5.78876 0
M  V30 6118 C 548.386 -1.3403 -6.18238 0
M  V30 6119 C 547.05 -1.61576 -6.47649 0
M  V30 6120 H 546.32 0.220049 -0.707573 0
M  V30 6121 H 548.967 -0.138697 -1.90997 0
M  V30 6122 H 547.272 2.03622 -3.34732 0
M  V30 6123 H 548.969 1.74605 -3.6099 0
M  V30 6124 H 545.559 0.468421 -4.26033 0
M  V30 6125 H 549.743 -0.220733 -4.95809 0
M  V30 6126 H 544.999 -1.17563 -5.99991 0
M  V30 6127 H 549.173 -1.86081 -6.71079 0
M  V30 6128 H 546.8 -2.34431 -7.2315 0
M  V30 6129 N 548.375 1.56261 0.205012 0
M  V30 6130 C 549.786 1.70056 0.770574 0
M  V30 6131 C 550.137 0.673398 1.84282 0
M  V30 6132 O 549.262 -0.172196 2.15714 0
M  V30 6133 C 549.857 3.08316 1.40451 0
M  V30 6134 C 548.416 3.2391 1.91727 0
M  V30 6135 C 547.563 2.66001 0.783516 0
M  V30 6136 H 550.514 1.58688 -0.019911 0
M  V30 6137 H 550.535 3.05094 2.27371 0
M  V30 6138 H 550.047 3.83053 0.623882 0
M  V30 6139 H 548.148 2.54072 2.7254 0
M  V30 6140 H 548.261 4.3131 2.08588 0
M  V30 6141 H 546.625 2.24915 1.19521 0
M  V30 6142 H 547.408 3.43297 0.0152883 0
M  V30 6143 N 549.853 -0.472356 1.50355 0
M  V30 6144 C 551.078 -1.25251 1.65309 0
M  V30 6145 C 551.503 -1.85081 0.335643 0
M  V30 6146 O 550.861 -1.67227 -0.700335 0
M  V30 6147 C 550.909 -2.3379 2.74544 0
M  V30 6148 O 550.013 -3.38401 2.35709 0
M  V30 6149 H 549.354 -0.368539 0.552336 0
M  V30 6150 H 551.884 -0.562271 1.96722 0
M  V30 6151 H 551.894 -2.79121 2.97583 0
M  V30 6152 H 550.569 -1.89614 3.70161 0
M  V30 6153 H 549.146 -2.9879 2.23112 0
M  V30 6154 N 551.331 -1.39911 -0.725443 0
M  V30 6155 C 552.261 -1.42138 -1.85254 0
M  V30 6156 C 553.242 -0.283513 -1.67721 0
M  V30 6157 O 554.427 -0.490717 -1.87898 0
M  V30 6158 C 551.557 -1.27354 -3.23107 0
M  V30 6159 C 550.511 -2.3864 -3.55296 0
M  V30 6160 C 549.837 -2.08939 -4.92188 0
M  V30 6161 C 551.137 -3.8097 -3.57295 0
M  V30 6162 H 552.831 -2.36461 -1.83648 0
M  V30 6163 H 550.377 -1.13817 -0.882138 0
M  V30 6164 H 552.33 -1.2753 -4.01639 0
M  V30 6165 H 551.054 -0.295025 -3.25265 0
M  V30 6166 H 549.713 -2.37696 -2.79099 0
M  V30 6167 H 549.361 -1.09502 -4.90936 0
M  V30 6168 H 549.061 -2.83491 -5.14691 0
M  V30 6169 H 550.585 -2.10781 -5.73065 0
M  V30 6170 H 551.999 -3.8379 -4.25885 0
M  V30 6171 H 550.396 -4.5496 -3.9132 0
M  V30 6172 H 551.466 -4.11261 -2.5689 0
M  V30 6173 N 552.809 0.956637 -1.25245 0
M  V30 6174 C 554.039 1.7332 -1.12445 0
M  V30 6175 C 554.447 1.86392 0.324732 0
M  V30 6176 O 553.79 1.35967 1.23526 0
M  V30 6177 C 553.852 3.16603 -1.70303 0
M  V30 6178 C 553.516 3.26966 -3.19284 0
M  V30 6179 C 554.513 3.11434 -4.16299 0
M  V30 6180 C 552.198 3.50851 -3.59456 0
M  V30 6181 C 554.192 3.1963 -5.51467 0
M  V30 6182 C 551.879 3.58684 -4.94761 0
M  V30 6183 C 552.877 3.43087 -5.90576 0
M  V30 6184 O 552.565 3.50598 -7.2342 0
M  V30 6185 H 552.297 0.549981 -0.393061 0
M  V30 6186 H 554.851 1.20892 -1.66055 0
M  V30 6187 H 553.081 3.70385 -1.11138 0
M  V30 6188 H 554.77 3.76109 -1.52632 0
M  V30 6189 H 555.536 2.92853 -3.86604 0
M  V30 6190 H 551.415 3.62053 -2.85375 0
M  V30 6191 H 554.959 3.07373 -6.26233 0
M  V30 6192 H 550.856 3.76782 -5.24124 0
M  V30 6193 H 551.624 3.67242 -7.31489 0
M  V30 6194 N 554.287 1.06798 1.15896 0
M  V30 6195 C 555.703 0.792423 1.38538 0
M  V30 6196 C 555.903 -0.60592 1.92174 0
M  V30 6197 O 554.959 -1.36561 2.12385 0
M  V30 6198 C 556.272 1.86157 2.36149 0
M  V30 6199 C 557.82 1.88567 2.49823 0
M  V30 6200 C 558.295 2.9455 3.5072 0
M  V30 6201 N 559.786 2.93616 3.58251 0
M  V30 6202 C 560.521 3.72267 4.36125 0
M  V30 6203 N 560.017 4.60751 5.17379 0
M  V30 6204 N 561.81 3.60637 4.31158 0
M  V30 6205 H 553.961 1.96993 0.794198 0
M  V30 6206 H 556.224 0.853942 0.411688 0
M  V30 6207 H 555.93 2.86603 2.03843 0
M  V30 6208 H 555.804 1.71692 3.3586 0
M  V30 6209 H 558.191 0.887765 2.8143 0
M  V30 6210 H 558.272 2.0711 1.5013 0
M  V30 6211 H 557.916 3.94537 3.19849 0
M  V30 6212 H 557.846 2.73255 4.50155 0
M  V30 6213 H 560.337 2.29472 3.00252 0
M  V30 6214 H 560.65 5.17408 5.74028 0
M  V30 6215 H 558.995 4.64803 5.16704 0
M  V30 6216 H 562.186 2.90892 3.66742 0
M  V30 6217 H 562.359 4.22176 4.91601 0
M  V30 6218 N 555.766 -1.3263 0.851289 0
M  V30 6219 C 556.714 -2.30882 0.282202 0
M  V30 6220 C 557.708 -1.58697 -0.592589 0
M  V30 6221 O 558.914 -1.73461 -0.480768 0
M  V30 6222 H 555.289 -0.748492 0.0725487 0
M  V30 6223 H 557.26 -2.76374 1.12516 0
M  V30 6224 C 556.009 -3.43828 -0.517449 0
M  V30 6225 H 555.332 -3.99532 0.146392 0
M  V30 6226 H 556.772 -4.1474 -0.88128 0
M  V30 6227 C 555.231 -2.90786 -1.70133 0
M  V30 6228 O 555.761 -2.88 -2.80034 0
M  V30 6229 N 553.967 -2.4723 -1.52728 0
M  V30 6230 H 553.514 -2.49695 -0.633257 0
M  V30 6231 H 553.472 -2.12094 -2.32085 0
M  V30 6232 N 557.244 -0.608902 -1.45362 0
M  V30 6233 C 558.469 -0.10921 -2.07112 0
M  V30 6234 C 558.894 1.19779 -1.45033 0
M  V30 6235 O 558.252 1.72961 -0.543527 0
M  V30 6236 C 558.3 0.0155745 -3.60597 0
M  V30 6237 O 557.404 1.06546 -3.98399 0
M  V30 6238 H 556.745 -0.0746619 -0.659789 0
M  V30 6239 H 559.275 -0.839283 -1.86594 0
M  V30 6240 H 559.285 0.213364 -4.07442 0
M  V30 6241 H 557.96 -0.938765 -4.05167 0
M  V30 6242 H 556.537 0.844024 -3.63223 0
M  V30 6243 N 558.722 1.53707 -0.348139 0
M  V30 6244 C 559.669 2.25173 0.506518 0
M  V30 6245 C 560.639 1.25174 1.09182 0
M  V30 6246 O 561.824 1.53917 1.12757 0
M  V30 6247 C 558.964 3.03141 1.64923 0
M  V30 6248 C 558.077 4.18002 1.0908 0
M  V30 6249 C 557.212 4.83447 2.20119 0
M  V30 6250 C 556.251 5.90369 1.61651 0
M  V30 6251 N 555.388 6.49575 2.66451 0
M  V30 6252 H 560.228 2.97799 -0.109452 0
M  V30 6253 H 557.765 1.46953 -0.0657866 0
M  V30 6254 H 559.723 3.46607 2.32205 0
M  V30 6255 H 558.353 2.32803 2.23612 0
M  V30 6256 H 557.405 3.79145 0.308783 0
M  V30 6257 H 558.717 4.94892 0.623178 0
M  V30 6258 H 557.871 5.30008 2.95257 0
M  V30 6259 H 556.61 4.05991 2.70227 0
M  V30 6260 H 555.615 5.43186 0.850209 0
M  V30 6261 H 556.84 6.69735 1.1239 0
M  V30 6262 H 554.786 5.74981 3.15805 0
M  V30 6263 H 554.703 7.21952 2.24325 0
M  V30 6264 H 555.971 7.00789 3.41344 0
M  V30 6265 N 560.2 0.0768682 1.57412 0
M  V30 6266 C 561.428 -0.59997 1.9801 0
M  V30 6267 C 561.843 -1.62842 0.955408 0
M  V30 6268 O 561.2 -1.8241 -0.057314 0
M  V30 6269 C 561.251 -1.26401 3.38681 0
M  V30 6270 O 560.972 -0.276723 4.37225 0
M  V30 6271 C 562.473 -2.0282 3.94182 0
M  V30 6272 H 559.693 -0.162239 0.651091 0
M  V30 6273 H 562.237 0.150771 2.03943 0
M  V30 6274 H 560.392 -1.96581 3.33819 0
M  V30 6275 H 560.806 -0.753744 5.19056 0
M  V30 6276 H 562.28 -2.44667 4.94815 0
M  V30 6277 H 562.757 -2.88678 3.31001 0
M  V30 6278 H 563.363 -1.37496 4.02461 0
M  V30 6279 N 561.678 -1.56367 -0.196722 0
M  V30 6280 C 562.628 -1.9082 -1.24787 0
M  V30 6281 C 563.612 -0.773719 -1.41076 0
M  V30 6282 O 564.804 -1.03655 -1.43474 0
M  V30 6283 C 561.933 -2.24982 -2.59303 0
M  V30 6284 C 561.019 -3.44882 -2.46814 0
M  V30 6285 N 561.41 -4.62835 -2.04003 0
M  V30 6286 C 559.708 -3.48988 -2.77711 0
M  V30 6287 C 560.409 -5.44993 -2.03366 0
M  V30 6288 N 559.385 -4.85356 -2.44807 0
M  V30 6289 H 563.187 -2.79516 -0.908175 0
M  V30 6290 H 560.701 -1.57265 -0.405166 0
M  V30 6291 H 562.698 -2.47848 -3.35227 0
M  V30 6292 H 561.358 -1.37611 -2.94098 0
M  V30 6293 H 562.369 -4.87532 -1.74738 0
M  V30 6294 H 559.046 -2.72029 -3.16712 0
M  V30 6295 H 560.436 -6.49464 -1.72181 0
M  V30 6296 N 563.156 0.464375 -1.50603 0
M  V30 6297 C 564.402 1.21485 -1.63135 0
M  V30 6298 C 564.757 1.89538 -0.33063 0
M  V30 6299 O 564.05 1.79432 0.671903 0
M  V30 6300 C 564.244 2.278 -2.75394 0
M  V30 6301 C 564.073 1.70178 -4.16257 0
M  V30 6302 C 562.843 1.49854 -4.82568 0
M  V30 6303 C 565.041 1.19298 -5.00272 0
M  V30 6304 N 563.023 0.875458 -6.07626 0
M  V30 6305 C 564.394 0.693527 -6.16109 0
M  V30 6306 C 566.449 1.08216 -4.85998 0
M  V30 6307 C 565.152 0.0941808 -7.19238 0
M  V30 6308 C 567.178 0.496745 -5.8931 0
M  V30 6309 C 566.54 0.00770448 -7.044 0
M  V30 6310 H 562.639 0.433184 -0.651057 0
M  V30 6311 H 565.223 0.515748 -1.87745 0
M  V30 6312 H 563.394 2.95129 -2.52495 0
M  V30 6313 H 565.126 2.94814 -2.77249 0
M  V30 6314 H 561.881 1.75269 -4.39975 0
M  V30 6315 H 562.305 0.582135 -6.74493 0
M  V30 6316 H 566.947 1.44617 -3.97298 0
M  V30 6317 H 564.665 -0.28202 -8.07608 0
M  V30 6318 H 568.251 0.413275 -5.8033 0
M  V30 6319 H 567.131 -0.438188 -7.82975 0
M  V30 6320 N 564.634 1.40294 0.718013 0
M  V30 6321 C 565.582 1.40536 1.85344 0
M  V30 6322 C 566.576 0.286192 1.66965 0
M  V30 6323 O 567.782 0.457105 1.74099 0
M  V30 6324 H 564.157 0.439236 0.61039 0
M  V30 6325 H 566.128 2.36275 1.82255 0
M  V30 6326 C 564.877 1.28245 3.23185 0
M  V30 6327 H 564.2 2.1364 3.37932 0
M  V30 6328 H 565.64 1.32474 4.02774 0
M  V30 6329 C 564.099 -0.0075503 3.36899 0
M  V30 6330 O 564.629 -0.971391 3.89778 0
M  V30 6331 N 562.835 -0.0762479 2.905 0
M  V30 6332 H 562.382 0.708819 2.47656 0
M  V30 6333 H 562.34 -0.938846 3.00055 0
M  V30 6334 N 566.112 -0.949982 1.2575 0
M  V30 6335 C 567.059 -2.04738 1.06541 0
M  V30 6336 C 568.029 -1.66078 -0.0268818 0
M  V30 6337 O 569.214 -1.90348 0.131196 0
M  V30 6338 C 566.354 -3.38027 0.695127 0
M  V30 6339 C 565.467 -3.89776 1.86276 0
M  V30 6340 C 564.602 -5.11411 1.4364 0
M  V30 6341 C 563.641 -5.554 2.57287 0
M  V30 6342 N 562.778 -6.68244 2.15395 0
M  V30 6343 H 567.618 -2.20502 2.00457 0
M  V30 6344 H 565.155 -1.0805 0.998178 0
M  V30 6345 H 567.113 -4.14641 0.461375 0
M  V30 6346 H 565.743 -3.22135 -0.207046 0
M  V30 6347 H 564.795 -3.0964 2.20969 0
M  V30 6348 H 566.107 -4.18368 2.71606 0
M  V30 6349 H 565.261 -5.95457 1.16257 0
M  V30 6350 H 564 -4.84545 0.553879 0
M  V30 6351 H 563.005 -4.69916 2.85409 0
M  V30 6352 H 564.23 -5.84272 3.46125 0
M  V30 6353 H 562.176 -6.43078 1.29565 0
M  V30 6354 H 562.093 -6.96377 2.94272 0
M  V30 6355 H 563.361 -7.55687 1.91201 0
M  V30 6356 N 567.59 -1.07411 -1.15328 0
M  V30 6357 C 568.818 -0.818782 -1.90009 0
M  V30 6358 C 569.233 0.628072 -1.78047 0
M  V30 6359 O 568.59 1.43085 -1.13282 0
M  V30 6360 C 568.641 -1.21874 -3.40337 0
M  V30 6361 O 568.362 -2.60883 -3.51954 0
M  V30 6362 C 569.863 -0.992796 -4.3204 0
M  V30 6363 H 567.083 -0.296007 -0.60218 0
M  V30 6364 H 569.627 -1.43073 -1.46117 0
M  V30 6365 H 567.782 -0.651103 -3.81889 0
M  V30 6366 H 568.196 -2.77216 -4.45255 0
M  V30 6367 H 569.67 -1.32215 -5.35932 0
M  V30 6368 H 570.147 0.0708331 -4.39143 0
M  V30 6369 H 570.753 -1.54537 -3.9623 0
M  V30 6370 N 569.068 1.32177 -0.85831 0
M  V30 6371 C 570.317 1.96392 -0.459689 0
M  V30 6372 C 570.63 1.68659 0.990632 0
M  V30 6373 O 571.836 2.26641 1.49485 0
M  V30 6374 C 570.292 3.51542 -0.7711 0
M  V30 6375 C 569.9 3.8813 -2.2374 0
M  V30 6376 C 571.644 4.2221 -0.44038 0
M  V30 6377 C 569.551 5.36341 -2.49183 0
M  V30 6378 H 568.481 0.735007 -0.168169 0
M  V30 6379 H 571.132 1.50518 -1.0496 0
M  V30 6380 H 569.514 3.95846 -0.11058 0
M  V30 6381 H 570.688 3.54824 -2.94001 0
M  V30 6382 H 569.003 3.30497 -2.533 0
M  V30 6383 H 571.6 5.31234 -0.607855 0
M  V30 6384 H 571.943 4.11683 0.618291 0
M  V30 6385 H 572.476 3.83502 -1.05695 0
M  V30 6386 H 569.215 5.51892 -3.53689 0
M  V30 6387 H 568.735 5.7104 -1.83504 0
M  V30 6388 H 570.414 6.03466 -2.33318 0
M  V30 6389 N 570.547 0.616602 1.45037 0
M  V30 6390 C 571.497 -0.118543 2.27692 0
M  V30 6391 C 572.481 -0.830025 1.37838 0
M  V30 6392 O 573.673 -0.718528 1.6176 0
M  V30 6393 C 570.802 -1.10924 3.24886 0
M  V30 6394 C 569.888 -0.398134 4.22227 0
M  V30 6395 N 570.279 0.565233 5.02632 0
M  V30 6396 C 568.577 -0.644506 4.41319 0
M  V30 6397 C 569.278 0.984043 5.73316 0
M  V30 6398 N 568.254 0.325879 5.42622 0
M  V30 6399 H 572.056 0.621239 2.87259 0
M  V30 6400 H 569.57 0.440968 1.56299 0
M  V30 6401 H 571.567 -1.65038 3.82842 0
M  V30 6402 H 570.227 -1.84948 2.66879 0
M  V30 6403 H 571.238 0.942395 5.09254 0
M  V30 6404 H 567.915 -1.36873 3.94426 0
M  V30 6405 H 569.305 1.77911 6.47918 0
M  V30 6406 N 572.025 -1.5352 0.356285 0
M  V30 6407 C 573.273 -2.00719 -0.235837 0
M  V30 6408 C 573.594 -1.24551 -1.5004 0
M  V30 6409 O 572.864 -0.356185 -1.92635 0
M  V30 6410 H 571.444 -0.741542 -0.0901366 0
M  V30 6411 H 574.106 -1.88887 0.480378 0
M  V30 6412 H 573.202 -3.08551 -0.469357 0
M  V30 6413 N 573.503 -0.0852151 -1.57369 0
M  V30 6414 C 574.433 0.874556 -2.16503 0
M  V30 6415 C 575.414 1.30111 -1.09568 0
M  V30 6416 O 576.599 1.36977 -1.37662 0
M  V30 6417 C 573.729 2.13731 -2.73745 0
M  V30 6418 C 572.683 1.84971 -3.85966 0
M  V30 6419 C 572.009 3.17991 -4.29867 0
M  V30 6420 C 573.309 1.14442 -5.09608 0
M  V30 6421 H 575.003 0.381899 -2.96954 0
M  V30 6422 H 572.549 0.18225 -1.42842 0
M  V30 6423 H 574.502 2.81302 -3.13763 0
M  V30 6424 H 573.226 2.65263 -1.90534 0
M  V30 6425 H 571.885 1.19801 -3.46473 0
M  V30 6426 H 571.533 3.6739 -3.4356 0
M  V30 6427 H 571.233 2.99534 -5.05523 0
M  V30 6428 H 572.757 3.86737 -4.72511 0
M  V30 6429 H 574.171 1.72105 -5.46857 0
M  V30 6430 H 572.568 1.06197 -5.90629 0
M  V30 6431 H 573.638 0.12559 -4.84737 0
M  V30 6432 N 574.981 1.5647 0.188427 0
M  V30 6433 C 576.23 1.80207 0.905995 0
M  V30 6434 C 576.543 0.659579 1.84144 0
M  V30 6435 O 577.749 0.781431 2.60011 0
M  V30 6436 C 576.205 3.19255 1.66145 0
M  V30 6437 C 575.813 4.41324 0.770504 0
M  V30 6438 C 577.557 3.52298 2.36826 0
M  V30 6439 C 575.464 5.71394 1.52521 0
M  V30 6440 H 574.394 0.671953 0.342045 0
M  V30 6441 H 577.045 1.82808 0.159164 0
M  V30 6442 H 575.427 3.10922 2.45242 0
M  V30 6443 H 576.601 4.60797 0.0177261 0
M  V30 6444 H 574.916 4.16035 0.174199 0
M  V30 6445 H 577.513 4.46715 2.93854 0
M  V30 6446 H 577.856 2.76359 3.11338 0
M  V30 6447 H 578.389 3.62108 1.6469 0
M  V30 6448 H 575.128 6.50316 0.82275 0
M  V30 6449 H 574.648 5.55928 2.25175 0
M  V30 6450 H 576.327 6.12747 2.07725 0
M  V30 6451 N 576.459 -0.456382 1.50847 0
M  V30 6452 C 577.689 -1.22848 1.66108 0
M  V30 6453 C 578.097 -1.85936 0.349897 0
M  V30 6454 O 577.44 -1.70664 -0.679665 0
M  V30 6455 C 577.502 -2.36722 2.70561 0
M  V30 6456 C 577.166 -1.94154 4.13707 0
M  V30 6457 C 578.163 -1.4557 4.99105 0
M  V30 6458 C 575.848 -2.02426 4.59705 0
M  V30 6459 C 577.842 -1.0582 6.28555 0
M  V30 6460 C 575.529 -1.62287 5.89157 0
M  V30 6461 C 576.527 -1.14064 6.73408 0
M  V30 6462 O 576.215 -0.744873 8.00442 0
M  V30 6463 H 575.947 -0.377105 0.561042 0
M  V30 6464 H 578.501 -0.549431 1.97915 0
M  V30 6465 H 576.731 -3.07844 2.34027 0
M  V30 6466 H 578.42 -2.98646 2.74892 0
M  V30 6467 H 579.186 -1.38589 4.64777 0
M  V30 6468 H 575.065 -2.38908 3.94264 0
M  V30 6469 H 578.609 -0.6811 6.94267 0
M  V30 6470 H 574.506 -1.68932 6.23003 0
M  V30 6471 H 575.274 -0.87242 8.13837 0
M  V30 6472 N 577.937 -1.40673 -0.710563 0
M  V30 6473 C 578.885 -1.41517 -1.84596 0
M  V30 6474 C 579.879 -0.295043 -1.66811 0
M  V30 6475 O 581.085 -0.466331 -1.73854 0
M  V30 6476 H 577.46 -0.442467 -0.608052 0
M  V30 6477 H 579.431 -2.37238 -1.80999 0
M  V30 6478 C 578.18 -1.29957 -3.225 0
M  V30 6479 H 577.503 -2.15429 -3.36794 0
M  V30 6480 H 578.943 -1.34608 -4.02066 0
M  V30 6481 C 577.402 -0.0103164 -3.36898 0
M  V30 6482 O 577.932 0.950707 -3.90288 0
M  V30 6483 N 576.138 0.0608409 -2.90536 0
M  V30 6484 H 575.685 -0.721943 -2.47277 0
M  V30 6485 H 575.643 0.92292 -3.00549 0
M  V30 6486 N 579.415 0.9433 -1.26252 0
M  V30 6487 C 580.378 2.02326 -1.07689 0
M  V30 6488 C 581.378 1.60779 -0.0259174 0
M  V30 6489 O 582.568 1.72108 -0.269134 0
M  V30 6490 C 579.7 3.34886 -0.63752 0
M  V30 6491 H 580.893 2.20225 -2.0357 0
M  V30 6492 H 578.446 1.12197 -1.08819 0
M  V30 6493 H 579.181 3.22684 0.323377 0
M  V30 6494 H 578.966 3.66393 -1.39637 0
M  V30 6495 H 580.456 4.14231 -0.529418 0
M  V30 6496 N 580.893 1.08022 1.14757 0
M  V30 6497 C 581.823 0.728248 2.21853 0
M  V30 6498 C 582.804 -0.287486 1.67653 0
M  V30 6499 O 583.989 -0.158727 1.9355 0
M  V30 6500 C 581.119 0.132549 3.47047 0
M  V30 6501 C 580.073 1.07619 4.14249 0
M  V30 6502 C 579.399 0.342907 5.33599 0
M  V30 6503 C 580.699 2.41268 4.63235 0
M  V30 6504 H 582.393 1.62365 2.51551 0
M  V30 6505 H 579.939 0.782125 1.20908 0
M  V30 6506 H 581.892 -0.125665 4.21213 0
M  V30 6507 H 580.616 -0.797971 3.16702 0
M  V30 6508 H 579.275 1.31944 3.42033 0
M  V30 6509 H 578.923 -0.59129 4.99513 0
M  V30 6510 H 578.623 0.971955 5.79506 0
M  V30 6511 H 580.147 0.0926538 6.1053 0
M  V30 6512 H 581.561 2.21232 5.28894 0
M  V30 6513 H 579.958 2.9983 5.19829 0
M  V30 6514 H 581.028 3.03079 3.78512 0
M  V30 6515 N 582.371 -1.3172 0.865308 0
M  V30 6516 C 583.318 -2.2863 0.315736 0
M  V30 6517 C 584.288 -1.55524 -0.583213 0
M  V30 6518 O 585.473 -1.83694 -0.51585 0
M  V30 6519 C 582.613 -3.41735 -0.480773 0
M  V30 6520 C 581.726 -4.297 0.445167 0
M  V30 6521 C 580.861 -5.29944 -0.365012 0
M  V30 6522 C 579.9 -6.09554 0.557651 0
M  V30 6523 N 579.037 -7.01768 -0.215994 0
M  V30 6524 H 583.877 -2.75026 1.14736 0
M  V30 6525 H 581.414 -1.35302 0.577209 0
M  V30 6526 H 583.372 -4.06045 -0.958306 0
M  V30 6527 H 582.002 -2.96461 -1.27714 0
M  V30 6528 H 581.054 -3.65875 1.04113 0
M  V30 6529 H 582.366 -4.85295 1.15284 0
M  V30 6530 H 581.52 -5.99908 -0.905255 0
M  V30 6531 H 580.259 -4.74994 -1.106 0
M  V30 6532 H 579.264 -5.38485 1.10969 0
M  V30 6533 H 580.489 -6.66591 1.29742 0
M  V30 6534 H 578.435 -6.49232 -0.939878 0
M  V30 6535 H 578.352 -7.54762 0.432431 0
M  V30 6536 H 579.62 -7.76002 -0.737618 0
M  V30 6537 N 583.85 -0.624285 -1.44708 0
M  V30 6538 C 584.779 0.0717025 -2.3339 0
M  V30 6539 C 585.76 0.841814 -1.47809 0
M  V30 6540 O 586.946 0.809056 -1.76544 0
M  V30 6541 C 584.076 1.05852 -3.30776 0
M  V30 6542 C 583.029 0.400503 -4.26122 0
M  V30 6543 C 582.356 1.49674 -5.13324 0
M  V30 6544 C 583.656 -0.688924 -5.17737 0
M  V30 6545 H 585.35 -0.668819 -2.91834 0
M  V30 6546 H 582.896 -0.32308 -1.40329 0
M  V30 6547 H 584.849 1.5541 -3.91696 0
M  V30 6548 H 583.572 1.82984 -2.70526 0
M  V30 6549 H 582.231 -0.0743687 -3.66525 0
M  V30 6550 H 581.88 2.25877 -4.49431 0
M  V30 6551 H 581.58 1.06188 -5.77926 0
M  V30 6552 H 583.104 1.99427 -5.77115 0
M  V30 6553 H 584.518 -0.276724 -5.72632 0
M  V30 6554 H 582.915 -1.04652 -5.90904 0
M  V30 6555 H 583.985 -1.55884 -4.5916 0
M  V30 6556 N 585.328 1.53329 -0.364422 0
M  V30 6557 C 586.575 2.01239 0.225634 0
M  V30 6558 C 586.903 1.25172 1.48869 0
M  V30 6559 O 586.158 0.333289 1.92841 0
M  V30 6560 C 586.457 3.52911 0.564661 0
M  V30 6561 C 586.123 4.46837 -0.603936 0
M  V30 6562 C 584.785 4.72234 -0.924585 0
M  V30 6563 C 587.137 5.02409 -1.38691 0
M  V30 6564 C 584.465 5.50454 -2.0302 0
M  V30 6565 C 586.817 5.81836 -2.48293 0
M  V30 6566 C 585.481 6.0552 -2.80894 0
M  V30 6567 H 584.751 0.736386 0.0825654 0
M  V30 6568 H 587.398 1.84948 -0.496645 0
M  V30 6569 H 585.703 3.67144 1.36794 0
M  V30 6570 H 587.4 3.87455 1.03344 0
M  V30 6571 H 583.99 4.27217 -0.343983 0
M  V30 6572 H 588.174 4.82735 -1.15243 0
M  V30 6573 H 583.43 5.67024 -2.28678 0
M  V30 6574 H 587.604 6.23905 -3.0938 0
M  V30 6575 H 585.231 6.65916 -3.66688 0
M  V30 6576 N 586.806 0.0935595 1.57322 0
M  V30 6577 C 587.739 -0.902505 2.09595 0
M  V30 6578 C 588.717 -1.27732 1.00615 0
M  V30 6579 O 589.901 -1.38283 1.28102 0
M  V30 6580 C 587.028 -2.20416 2.57166 0
M  V30 6581 C 586.074 -1.97932 3.7779 0
M  V30 6582 S 586.907 -1.21873 5.21447 0
M  V30 6583 C 588.063 -2.53273 5.72367 0
M  V30 6584 H 588.296 -0.457797 2.93754 0
M  V30 6585 H 585.829 -0.119694 1.53935 0
M  V30 6586 H 587.787 -2.95217 2.85232 0
M  V30 6587 H 586.448 -2.62008 1.73235 0
M  V30 6588 H 585.641 -2.94316 4.09138 0
M  V30 6589 H 585.243 -1.3126 3.5021 0
M  V30 6590 H 587.535 -3.49256 5.8054 0
M  V30 6591 H 588.478 -2.26505 6.70896 0
M  V30 6592 H 588.886 -2.61475 5.00291 0
M  V30 6593 N 588.284 -1.56567 -0.180126 0
M  V30 6594 C 589.194 -1.98947 -1.24327 0
M  V30 6595 C 590.21 -0.899446 -1.4895 0
M  V30 6596 O 591.386 -1.20639 -1.61271 0
M  V30 6597 C 588.451 -2.33328 -2.56435 0
M  V30 6598 C 587.512 -3.56114 -2.39752 0
M  V30 6599 C 586.745 -3.88845 -3.65561 0
M  V30 6600 O 586.968 -3.22662 -4.70368 0
M  V30 6601 O 585.902 -4.82226 -3.60197 0
M  V30 6602 H 589.728 -2.89634 -0.913565 0
M  V30 6603 H 587.313 -1.44319 -0.386306 0
M  V30 6604 H 589.195 -2.5645 -3.34382 0
M  V30 6605 H 587.87 -1.45806 -2.89002 0
M  V30 6606 H 586.777 -3.38221 -1.59866 0
M  V30 6607 H 588.11 -4.4415 -2.12113 0
M  V30 6608 N 589.762 0.448376 -1.51087 0
M  V30 6609 C 590.695 1.56298 -1.66272 0
M  V30 6610 C 591.673 1.54381 -0.510419 0
M  V30 6611 O 592.857 1.73671 -0.732854 0
M  V30 6612 C 589.984 2.94883 -1.66618 0
M  V30 6613 C 589.03 3.14868 -2.87681 0
M  V30 6614 S 589.863 2.9234 -4.48662 0
M  V30 6615 C 591.019 4.33227 -4.51735 0
M  V30 6616 H 591.252 1.43182 -2.6055 0
M  V30 6617 H 588.785 0.637309 -1.40633 0
M  V30 6618 H 590.743 3.74771 -1.67502 0
M  V30 6619 H 589.404 3.05371 -0.735358 0
M  V30 6620 H 588.597 4.16166 -2.84292 0
M  V30 6621 H 588.199 2.42788 -2.84482 0
M  V30 6622 H 590.491 5.26247 -4.26697 0
M  V30 6623 H 591.434 4.41653 -5.53487 0
M  V30 6624 H 591.842 4.16367 -3.81181 0
M  V30 6625 N 591.24 1.41047 0.703093 0
M  V30 6626 C 592.188 1.42494 1.83843 0
M  V30 6627 C 593.182 0.303885 1.66652 0
M  V30 6628 O 594.388 0.475544 1.73605 0
M  V30 6629 H 590.763 0.445685 0.605697 0
M  V30 6630 H 592.734 2.38194 1.79739 0
M  V30 6631 C 591.483 1.31666 3.21807 0
M  V30 6632 H 590.806 2.17212 3.35647 0
M  V30 6633 H 592.246 1.36738 4.01346 0
M  V30 6634 C 590.705 0.0281828 3.36888 0
M  V30 6635 O 591.235 -0.929995 3.90786 0
M  V30 6636 N 589.441 -0.0454322 2.90564 0
M  V30 6637 H 588.988 0.735046 2.4689 0
M  V30 6638 H 588.946 -0.906968 3.01034 0
M  V30 6639 N 592.718 -0.936591 1.26751 0
M  V30 6640 C 593.65 -2.03991 1.045 0
M  V30 6641 C 594.663 -1.628 0.00394261 0
M  V30 6642 O 595.852 -1.76817 0.244526 0
M  V30 6643 C 592.952 -3.34218 0.561403 0
M  V30 6644 C 592.125 -4.04151 1.67274 0
M  V30 6645 C 591.184 -5.12651 1.1864 0
M  V30 6646 O 590.21 -5.37104 1.88437 0
M  V30 6647 N 591.412 -5.80488 0.037278 0
M  V30 6648 H 594.177 -2.23644 1.99508 0
M  V30 6649 H 591.738 -1.10638 1.18198 0
M  V30 6650 H 593.73 -4.04101 0.220136 0
M  V30 6651 H 592.3 -3.11203 -0.295211 0
M  V30 6652 H 591.52 -3.28121 2.18472 0
M  V30 6653 H 592.808 -4.47626 2.41885 0
M  V30 6654 H 592.206 -5.63064 -0.545494 0
M  V30 6655 H 590.763 -6.5134 -0.244877 0
M  V30 6656 N 594.196 -1.08629 -1.14182 0
M  V30 6657 C 595.143 -0.718299 -2.19338 0
M  V30 6658 C 596.113 0.296587 -1.63431 0
M  V30 6659 O 597.298 0.180079 -1.89948 0
M  V30 6660 C 594.438 -0.136203 -3.44831 0
M  V30 6661 C 593.551 -1.20414 -4.14879 0
M  V30 6662 C 592.686 -0.585666 -5.27962 0
M  V30 6663 C 591.725 -1.63548 -5.89846 0
M  V30 6664 N 590.862 -1.03864 -6.94375 0
M  V30 6665 H 595.702 -1.61932 -2.50164 0
M  V30 6666 H 593.239 -0.80919 -1.22844 0
M  V30 6667 H 595.197 0.219021 -4.16625 0
M  V30 6668 H 593.827 0.728121 -3.14481 0
M  V30 6669 H 592.879 -1.67676 -3.41451 0
M  V30 6670 H 594.191 -1.99959 -4.56966 0
M  V30 6671 H 593.345 -0.178818 -6.06436 0
M  V30 6672 H 592.084 0.24142 -4.87102 0
M  V30 6673 H 591.089 -2.05197 -5.10073 0
M  V30 6674 H 592.314 -2.46509 -6.3278 0
M  V30 6675 H 590.26 -0.232687 -6.55587 0
M  V30 6676 H 590.177 -1.77116 -7.3496 0
M  V30 6677 H 591.445 -0.657724 -7.7672 0
M  V30 6678 N 595.674 1.31259 -0.872281 0
M  V30 6679 C 596.604 2.30929 -0.345554 0
M  V30 6680 C 597.585 1.60449 0.5648 0
M  V30 6681 O 598.77 1.8814 0.481335 0
M  V30 6682 C 595.9 3.44348 0.451823 0
M  V30 6683 C 594.854 4.26435 -0.365641 0
M  V30 6684 C 594.18 5.31785 0.557562 0
M  V30 6685 C 595.48 4.97159 -1.60095 0
M  V30 6686 H 597.174 2.75234 -1.17841 0
M  V30 6687 H 594.72 1.3232 -0.568094 0
M  V30 6688 H 596.673 4.13128 0.830854 0
M  V30 6689 H 595.397 2.98816 1.31821 0
M  V30 6690 H 594.056 3.59326 -0.726649 0
M  V30 6691 H 593.704 4.82502 1.4213 0
M  V30 6692 H 593.404 5.87598 0.0144878 0
M  V30 6693 H 594.928 6.03424 0.933387 0
M  V30 6694 H 596.342 5.58523 -1.29323 0
M  V30 6695 H 594.739 5.62779 -2.08327 0
M  V30 6696 H 595.809 4.24012 -2.35249 0
M  V30 6697 N 597.152 0.631951 1.44375 0
M  V30 6698 C 598.399 0.136767 2.02038 0
M  V30 6699 C 598.727 -1.24168 1.49709 0
M  V30 6700 O 597.982 -1.83809 0.671763 0
M  V30 6701 C 598.281 0.0735861 3.57324 0
M  V30 6702 C 597.947 1.39092 4.28911 0
M  V30 6703 C 596.609 1.75171 4.48184 0
M  V30 6704 C 598.961 2.26042 4.69632 0
M  V30 6705 C 596.289 2.97907 5.05439 0
M  V30 6706 C 598.641 3.4805 5.28246 0
M  V30 6707 C 597.305 3.84351 5.45738 0
M  V30 6708 H 596.575 0.0500466 0.739308 0
M  V30 6709 H 599.222 0.818429 1.7313 0
M  V30 6710 H 597.527 -0.691449 3.8565 0
M  V30 6711 H 599.224 -0.326091 3.99672 0
M  V30 6712 H 595.814 1.10015 4.1424 0
M  V30 6713 H 599.998 1.99463 4.54454 0
M  V30 6714 H 595.254 3.26108 5.17169 0
M  V30 6715 H 599.428 4.15658 5.5875 0
M  V30 6716 H 597.055 4.79538 5.8987 0
M  V30 6717 N 598.631 -1.53133 0.372548 0
M  V30 6718 C 599.908 -1.93704 -0.271693 0
M  V30 6719 C 600.288 -1.30667 -1.65799 0
M  V30 6720 O 599.636 -0.46838 -2.23648 0
M  V30 6721 C 599.846 -3.47576 -0.314903 0
M  V30 6722 C 601.194 -4.20998 -0.551912 0
M  V30 6723 O 602.218 -3.53994 -0.39582 0
M  V30 6724 O 601.077 -5.39748 -0.85639 0
M  V30 6725 H 598.171 -0.810457 -0.164586 0
M  V30 6726 H 600.717 -1.6427 0.425838 0
M  V30 6727 H 599.489 -3.85749 0.656792 0
M  V30 6728 H 599.112 -3.83264 -1.05804 0
M  V30 6729 N 600.109 -0.101901 -1.5727 0
M  V30 6730 C 601.386 0.602832 -1.86079 0
M  V30 6731 C 601.766 1.85912 -1 0
M  V30 6732 O 601.114 2.28379 -0.0742488 0
M  V30 6733 C 601.324 0.911694 -3.36881 0
M  V30 6734 C 602.672 1.2722 -4.05093 0
M  V30 6735 O 603.696 1.0025 -3.41802 0
M  V30 6736 O 602.555 1.7776 -5.16782 0
M  V30 6737 H 599.649 0.302366 -0.769743 0
M  V30 6738 H 602.195 -0.135113 -1.69161 0
M  V30 6739 H 600.967 0.0207256 -3.91295 0
M  V30 6740 H 600.59 1.70538 -3.59169 0
M  V30 6741 N 601.587 1.56661 0.17182 0
M  V30 6742 C 602.827 1.83762 0.895029 0
M  V30 6743 C 603.191 0.682752 1.79451 0
M  V30 6744 O 604.392 0.834208 2.55528 0
M  V30 6745 C 602.663 3.15976 1.67015 0
M  V30 6746 S 604.222 3.64558 2.44219 0
M  V30 6747 H 601.04 0.644713 0.299778 0
M  V30 6748 H 603.642 1.94871 0.156701 0
M  V30 6749 H 602.346 3.98021 1.00039 0
M  V30 6750 H 601.877 3.07807 2.44986 0
M  V30 6751 H 603.892 3.31845 3.68909 0
M  V30 6752 N 603.065 -0.440357 1.51323 0
M  V30 6753 C 604.293 -1.21255 1.67645 0
M  V30 6754 C 604.708 -1.85088 0.37252 0
M  V30 6755 O 604.065 -1.70582 -0.648683 0
M  V30 6756 C 604.116 -2.29881 2.78993 0
M  V30 6757 O 603.837 -1.68659 4.04334 0
M  V30 6758 C 605.338 -3.20214 3.06558 0
M  V30 6759 H 602.558 -0.36558 0.562666 0
M  V30 6760 H 605.102 -0.52214 1.97722 0
M  V30 6761 H 603.257 -2.94643 2.51524 0
M  V30 6762 H 603.671 -2.40426 4.6615 0
M  V30 6763 H 605.145 -3.92575 3.88058 0
M  V30 6764 H 605.622 -3.80794 2.18844 0
M  V30 6765 H 606.228 -2.61156 3.35675 0
M  V30 6766 N 604.543 -1.41418 -0.695603 0
M  V30 6767 C 605.475 -1.39195 -1.82092 0
M  V30 6768 C 606.488 -0.294132 -1.60121 0
M  V30 6769 O 607.677 -0.555854 -1.69625 0
M  V30 6770 C 604.777 -1.14828 -3.18854 0
M  V30 6771 C 603.95 -2.36649 -3.67853 0
M  V30 6772 C 603.009 -2.08139 -4.83285 0
M  V30 6773 O 602.035 -2.81177 -4.94902 0
M  V30 6774 N 603.237 -1.07162 -5.70523 0
M  V30 6775 H 606.002 -2.36185 -1.84491 0
M  V30 6776 H 603.563 -1.3603 -0.877923 0
M  V30 6777 H 605.555 -0.937075 -3.93702 0
M  V30 6778 H 604.125 -0.264358 -3.1148 0
M  V30 6779 H 603.345 -2.73472 -2.83913 0
M  V30 6780 H 604.633 -3.17816 -3.97329 0
M  V30 6781 H 604.031 -0.467124 -5.63768 0
M  V30 6782 H 602.588 -0.920311 -6.4527 0
M  V30 6783 N 606.021 0.929856 -1.27246 0
M  V30 6784 C 606.953 2.03434 -1.0558 0
M  V30 6785 C 607.966 1.62795 -0.0125762 0
M  V30 6786 O 609.155 1.76685 -0.2539 0
M  V30 6787 C 606.255 3.33915 -0.57912 0
M  V30 6788 C 605.428 4.03259 -1.69415 0
M  V30 6789 C 604.487 5.12014 -1.21357 0
M  V30 6790 O 603.513 5.36097 -1.91282 0
M  V30 6791 N 604.715 5.8046 -0.0680622 0
M  V30 6792 H 607.48 2.22583 -2.00691 0
M  V30 6793 H 605.041 1.1001 -1.18783 0
M  V30 6794 H 607.033 4.03978 -0.241563 0
M  V30 6795 H 605.603 3.11355 0.278703 0
M  V30 6796 H 604.823 3.26958 -2.20209 0
M  V30 6797 H 606.111 4.46337 -2.44255 0
M  V30 6798 H 605.509 5.63345 0.515626 0
M  V30 6799 H 604.066 6.51461 0.210332 0
M  V30 6800 N 607.499 1.09233 1.13605 0
M  V30 6801 C 608.746 0.827159 1.84836 0
M  V30 6802 C 609.074 -0.647199 1.83416 0
M  V30 6803 O 608.329 -1.49228 1.26608 0
M  V30 6804 C 608.628 1.305 3.32723 0
M  V30 6805 C 608.294 2.78864 3.54325 0
M  V30 6806 C 606.956 3.19382 3.59928 0
M  V30 6807 C 609.308 3.74532 3.62457 0
M  V30 6808 C 606.636 4.54346 3.71196 0
M  V30 6809 C 608.988 5.09283 3.75252 0
M  V30 6810 C 607.652 5.49394 3.79108 0
M  V30 6811 H 606.922 0.302679 0.676363 0
M  V30 6812 H 609.569 1.36676 1.34134 0
M  V30 6813 H 607.874 0.68517 3.85762 0
M  V30 6814 H 609.571 1.07648 3.86281 0
M  V30 6815 H 606.161 2.46507 3.50617 0
M  V30 6816 H 610.345 3.44343 3.57409 0
M  V30 6817 H 605.601 4.84864 3.72447 0
M  V30 6818 H 609.775 5.83269 3.80487 0
M  V30 6819 H 607.402 6.5397 3.87591 0
M  V30 6820 N 608.977 -1.30795 0.87923 0
M  V30 6821 C 609.924 -2.28282 0.339968 0
M  V30 6822 C 610.894 -1.56134 -0.566685 0
M  V30 6823 O 612.079 -1.84231 -0.496338 0
M  V30 6824 C 609.219 -3.42225 -0.444501 0
M  V30 6825 C 608.332 -4.29204 0.490717 0
M  V30 6826 C 607.467 -5.30302 -0.308784 0
M  V30 6827 C 606.506 -6.08929 0.622272 0
M  V30 6828 N 605.643 -7.01957 -0.14155 0
M  V30 6829 H 610.483 -2.73794 1.17647 0
M  V30 6830 H 608.02 -1.34682 0.591527 0
M  V30 6831 H 609.978 -4.07038 -0.915186 0
M  V30 6832 H 608.608 -2.97799 -1.24562 0
M  V30 6833 H 607.66 -3.6475 1.07988 0
M  V30 6834 H 608.972 -4.84045 1.20425 0
M  V30 6835 H 608.126 -6.00835 -0.841575 0
M  V30 6836 H 606.865 -4.7614 -1.05556 0
M  V30 6837 H 605.87 -5.37278 1.16674 0
M  V30 6838 H 607.095 -6.65178 1.36804 0
M  V30 6839 H 605.041 -6.50192 -0.870966 0
M  V30 6840 H 604.958 -7.54261 0.51246 0
M  V30 6841 H 606.226 -7.76741 -0.655271 0
M  V30 6842 N 610.455 -0.639598 -1.44038 0
M  V30 6843 C 611.418 0.0506628 -2.29144 0
M  V30 6844 C 612.418 0.764001 -1.41491 0
M  V30 6845 O 613.608 0.607309 -1.63271 0
M  V30 6846 C 610.74 1.0824 -3.2326 0
M  V30 6847 H 611.933 -0.697987 -2.91664 0
M  V30 6848 H 609.486 -0.400146 -1.51091 0
M  V30 6849 H 610.221 1.86075 -2.65606 0
M  V30 6850 H 610.006 0.574725 -3.87865 0
M  V30 6851 H 611.496 1.56487 -3.87171 0
M  V30 6852 N 611.933 1.52934 -0.380664 0
M  V30 6853 C 612.843 2.29921 0.466192 0
M  V30 6854 C 613.859 1.36488 1.07922 0
M  V30 6855 O 615.035 1.69553 1.0869 0
M  V30 6856 C 612.1 3.08468 1.58266 0
M  V30 6857 C 611.161 4.17595 0.995627 0
M  V30 6858 C 610.394 4.92387 2.05889 0
M  V30 6859 O 610.617 4.67184 3.27254 0
M  V30 6860 O 609.551 5.77949 1.68102 0
M  V30 6861 H 613.377 3.03274 -0.160735 0
M  V30 6862 H 610.962 1.48698 -0.144617 0
M  V30 6863 H 612.844 3.57469 2.23145 0
M  V30 6864 H 611.519 2.37937 2.19471 0
M  V30 6865 H 610.426 3.72811 0.310332 0
M  V30 6866 H 611.759 4.90336 0.427918 0
M  V30 6867 N 613.412 0.11024 1.57214 0
M  V30 6868 C 614.359 -0.843195 2.14846 0
M  V30 6869 C 615.329 -1.26954 1.07107 0
M  V30 6870 O 616.514 -1.34861 1.34971 0
M  V30 6871 C 613.654 -2.09123 2.74521 0
M  V30 6872 C 612.767 -1.71404 3.96541 0
M  V30 6873 C 611.902 -2.91107 4.44331 0
M  V30 6874 C 610.941 -2.49586 5.58903 0
M  V30 6875 N 610.078 -3.62175 6.01477 0
M  V30 6876 H 614.918 -0.344886 2.95998 0
M  V30 6877 H 612.455 -0.15855 1.46243 0
M  V30 6878 H 614.413 -2.82234 3.07246 0
M  V30 6879 H 613.043 -2.56427 1.96074 0
M  V30 6880 H 612.095 -0.88201 3.70033 0
M  V30 6881 H 613.407 -1.36884 4.7965 0
M  V30 6882 H 612.561 -3.72454 4.78919 0
M  V30 6883 H 611.3 -3.28848 3.60153 0
M  V30 6884 H 610.305 -1.6667 5.23929 0
M  V30 6885 H 611.53 -2.12973 6.4484 0
M  V30 6886 H 609.476 -3.99605 5.20242 0
M  V30 6887 H 609.393 -3.3155 6.79419 0
M  V30 6888 H 610.661 -4.43987 6.407 0
M  V30 6889 N 614.89 -1.56749 -0.16351 0
M  V30 6890 C 615.82 -2.00042 -1.20438 0
M  V30 6891 C 616.801 -0.877256 -1.45733 0
M  V30 6892 O 617.986 -1.1439 -1.56935 0
M  V30 6893 C 615.116 -2.36697 -2.54149 0
M  V30 6894 C 614.07 -3.52046 -2.43408 0
M  V30 6895 C 613.396 -3.74466 -3.81679 0
M  V30 6896 C 614.696 -4.85247 -1.93216 0
M  V30 6897 H 616.39 -2.87244 -0.844477 0
M  V30 6898 H 613.936 -1.38194 -0.40478 0
M  V30 6899 H 615.889 -2.65582 -3.27176 0
M  V30 6900 H 614.613 -1.46414 -2.91943 0
M  V30 6901 H 613.272 -3.23301 -1.72834 0
M  V30 6902 H 612.92 -2.81461 -4.1688 0
M  V30 6903 H 612.62 -4.52084 -3.75359 0
M  V30 6904 H 614.144 -4.0576 -4.5628 0
M  V30 6905 H 615.558 -5.12957 -2.56023 0
M  V30 6906 H 613.955 -5.66556 -1.97825 0
M  V30 6907 H 615.025 -4.7672 -0.88689 0
M  V30 6908 N 616.368 0.432326 -1.51554 0
M  V30 6909 C 617.315 1.52512 -1.7323 0
M  V30 6910 C 618.285 1.55863 -0.5741 0
M  V30 6911 O 619.47 1.72796 -0.809093 0
M  V30 6912 C 616.61 2.90183 -1.86783 0
M  V30 6913 C 615.723 2.96322 -3.14352 0
M  V30 6914 C 614.858 4.25147 -3.18471 0
M  V30 6915 C 613.897 4.25172 -4.40335 0
M  V30 6916 N 613.034 5.45529 -4.41975 0
M  V30 6917 H 617.874 1.33332 -2.66508 0
M  V30 6918 H 615.411 0.647613 -1.32077 0
M  V30 6919 H 617.369 3.70071 -1.92623 0
M  V30 6920 H 615.999 3.0791 -0.969087 0
M  V30 6921 H 615.051 2.09066 -3.17798 0
M  V30 6922 H 616.363 2.92203 -4.04251 0
M  V30 6923 H 615.517 5.13411 -3.23255 0
M  V30 6924 H 614.256 4.31929 -2.2647 0
M  V30 6925 H 613.261 3.353 -4.35723 0
M  V30 6926 H 614.486 4.20049 -5.33606 0
M  V30 6927 H 612.432 5.53024 -3.52847 0
M  V30 6928 H 612.349 5.43311 -5.25689 0
M  V30 6929 H 613.617 6.35812 -4.50958 0
M  V30 6930 N 617.846 1.41785 0.688094 0
M  V30 6931 C 618.756 1.46596 1.83158 0
M  V30 6932 C 619.772 0.355862 1.70322 0
M  V30 6933 O 620.948 0.604737 1.92106 0
M  V30 6934 C 618.013 1.35322 3.192 0
M  V30 6935 C 617.074 2.56711 3.4409 0
M  V30 6936 C 616.307 2.45965 4.73642 0
M  V30 6937 O 616.53 1.48827 5.50642 0
M  V30 6938 O 615.464 3.35859 4.99482 0
M  V30 6939 H 619.29 2.43083 1.82056 0
M  V30 6940 H 616.875 1.23404 0.842126 0
M  V30 6941 H 618.757 1.31347 4.00407 0
M  V30 6942 H 617.432 0.419536 3.2097 0
M  V30 6943 H 616.339 2.66262 2.62784 0
M  V30 6944 H 617.672 3.48933 3.47141 0
M  V30 6945 N 619.324 -0.923095 1.27737 0
M  V30 6946 C 620.271 -2.02432 1.1086 0
M  V30 6947 C 621.241 -1.66098 0.00835195 0
M  V30 6948 O 622.426 -1.90027 0.171542 0
M  V30 6949 C 619.566 -3.36476 0.766671 0
M  V30 6950 C 618.679 -3.85737 1.94501 0
M  V30 6951 C 617.814 -5.08249 1.54455 0
M  V30 6952 C 616.853 -5.49818 2.6901 0
M  V30 6953 N 615.99 -6.63524 2.29521 0
M  V30 6954 H 620.83 -2.16201 2.05089 0
M  V30 6955 H 618.367 -1.05909 1.02087 0
M  V30 6956 H 620.325 -4.13569 0.549223 0
M  V30 6957 H 618.955 -3.22502 -0.13867 0
M  V30 6958 H 618.007 -3.04883 2.27487 0
M  V30 6959 H 619.319 -4.12513 2.80419 0
M  V30 6960 H 618.473 -5.92857 1.28862 0
M  V30 6961 H 617.212 -4.83261 0.656534 0
M  V30 6962 H 616.217 -4.63757 2.95313 0
M  V30 6963 H 617.442 -5.76799 3.5844 0
M  V30 6964 H 615.388 -6.40185 1.43177 0
M  V30 6965 H 615.305 -6.89978 3.08977 0
M  V30 6966 H 616.573 -7.51461 2.07187 0
M  V30 6967 N 620.802 -1.09834 -1.13024 0
M  V30 6968 C 621.732 -0.763451 -2.20666 0
M  V30 6969 C 622.713 0.260778 -1.68089 0
M  V30 6970 O 623.898 0.127915 -1.93778 0
M  V30 6971 C 621.028 -0.187744 -3.46792 0
M  V30 6972 C 619.982 -1.14196 -4.12484 0
M  V30 6973 C 619.308 -0.427755 -5.32986 0
M  V30 6974 C 620.608 -2.48607 -4.59338 0
M  V30 6975 H 622.302 -1.66347 -2.48936 0
M  V30 6976 H 619.848 -0.801261 -1.19649 0
M  V30 6977 H 621.801 0.0586375 -4.21359 0
M  V30 6978 H 620.525 0.747485 -3.17931 0
M  V30 6979 H 619.184 -1.37369 -3.3989 0
M  V30 6980 H 618.832 0.511747 -5.0039 0
M  V30 6981 H 618.532 -1.06403 -5.77886 0
M  V30 6982 H 620.056 -0.189772 -6.10305 0
M  V30 6983 H 621.47 -2.29618 -5.25308 0
M  V30 6984 H 619.867 -3.08062 -5.14993 0
M  V30 6985 H 620.937 -3.09062 -3.73642 0
M  V30 6986 N 622.28 1.30327 -0.886154 0
M  V30 6987 C 623.227 2.28099 -0.352069 0
M  V30 6988 C 624.197 1.56433 0.558397 0
M  V30 6989 O 625.382 1.84492 0.486561 0
M  V30 6990 C 622.522 3.42456 0.426346 0
M  V30 6991 C 621.635 4.28938 -0.513472 0
M  V30 6992 C 620.77 5.30458 0.280657 0
M  V30 6993 C 619.809 6.0859 -0.654556 0
M  V30 6994 N 618.946 7.02022 0.104322 0
M  V30 6995 H 623.786 2.73166 -1.19097 0
M  V30 6996 H 621.323 1.34367 -0.598662 0
M  V30 6997 H 623.281 4.07518 0.893587 0
M  V30 6998 H 621.911 2.98455 1.22981 0
M  V30 6999 H 620.963 3.64173 -1.09921 0
M  V30 7000 H 622.275 4.83399 -1.2299 0
M  V30 7001 H 621.429 6.01273 0.8097 0
M  V30 7002 H 620.168 4.76693 1.03029 0
M  V30 7003 H 619.173 5.36651 -1.19522 0
M  V30 7004 H 620.398 6.64443 -1.4033 0
M  V30 7005 H 618.344 6.50645 0.836472 0
M  V30 7006 H 618.261 7.53979 -0.552453 0
M  V30 7007 H 619.529 7.77077 0.614069 0
M  V30 7008 N 623.758 0.647228 1.43697 0
M  V30 7009 C 624.691 -0.097646 2.27991 0
M  V30 7010 C 625.669 -0.83571 1.3948 0
M  V30 7011 O 626.853 -0.836509 1.68922 0
M  V30 7012 C 623.98 -1.14484 3.18765 0
M  V30 7013 C 623.026 -0.505503 4.23494 0
M  V30 7014 S 623.859 0.716471 5.30685 0
M  V30 7015 C 625.015 -0.330339 6.25028 0
M  V30 7016 H 625.248 0.617417 2.90818 0
M  V30 7017 H 622.781 0.435881 1.4812 0
M  V30 7018 H 624.739 -1.74403 3.7161 0
M  V30 7019 H 623.4 -1.83219 2.55127 0
M  V30 7020 H 622.593 -1.29473 4.87086 0
M  V30 7021 H 622.195 0.0194377 3.73995 0
M  V30 7022 H 624.487 -1.19828 6.66819 0
M  V30 7023 H 625.43 0.270409 7.07583 0
M  V30 7024 H 625.838 -0.663459 5.60588 0
M  V30 7025 N 625.236 -1.5273 0.388769 0
M  V30 7026 C 626.183 -2.26437 -0.446639 0
M  V30 7027 C 627.153 -1.28025 -1.05824 0
M  V30 7028 O 628.338 -1.56852 -1.08637 0
M  V30 7029 C 625.478 -3.07407 -1.56828 0
M  V30 7030 C 624.591 -4.20747 -0.979589 0
M  V30 7031 C 623.726 -4.89113 -2.07224 0
M  V30 7032 C 622.765 -5.94447 -1.45942 0
M  V30 7033 N 621.902 -6.56411 -2.49135 0
M  V30 7034 H 626.742 -2.97404 0.18837 0
M  V30 7035 H 624.279 -1.46727 0.104725 0
M  V30 7036 H 626.237 -3.52642 -2.22934 0
M  V30 7037 H 624.867 -2.3865 -2.17361 0
M  V30 7038 H 623.919 -3.7983 -0.208151 0
M  V30 7039 H 625.231 -4.9637 -0.491747 0
M  V30 7040 H 624.385 -5.3765 -2.81101 0
M  V30 7041 H 623.124 -4.13013 -2.59368 0
M  V30 7042 H 622.129 -5.4525 -0.705894 0
M  V30 7043 H 623.354 -6.7248 -0.945932 0
M  V30 7044 H 621.3 -5.83152 -3.00449 0
M  V30 7045 H 621.217 -7.27645 -2.05105 0
M  V30 7046 H 622.485 -7.09592 -3.22644 0
M  V30 7047 N 626.714 -0.118576 -1.57153 0
M  V30 7048 C 627.624 0.845484 -2.18835 0
M  V30 7049 C 628.64 1.29299 -1.16438 0
M  V30 7050 O 629.816 1.35607 -1.48905 0
M  V30 7051 C 626.881 2.07795 -2.77529 0
M  V30 7052 C 625.942 1.6824 -3.9496 0
M  V30 7053 C 625.175 2.85612 -4.50845 0
M  V30 7054 O 625.398 4.01025 -4.05629 0
M  V30 7055 O 624.332 2.62721 -5.41536 0
M  V30 7056 H 628.158 0.350568 -3.0167 0
M  V30 7057 H 625.743 0.107013 -1.49016 0
M  V30 7058 H 627.625 2.79978 -3.14945 0
M  V30 7059 H 626.3 2.56294 -1.97725 0
M  V30 7060 H 625.207 0.931663 -3.62313 0
M  V30 7061 H 626.54 1.24484 -4.76198 0
M  V30 7062 N 628.193 1.56834 0.155195 0
M  V30 7063 C 629.609 1.51315 0.50755 0
M  V30 7064 C 629.809 0.825614 1.83809 0
M  V30 7065 O 628.865 0.39271 2.49427 0
M  V30 7066 C 630.178 2.96074 0.52542 0
M  V30 7067 C 631.726 3.06968 0.611505 0
M  V30 7068 C 632.201 4.53218 0.660115 0
M  V30 7069 N 633.692 4.5753 0.722564 0
M  V30 7070 C 634.427 5.68056 0.781023 0
M  V30 7071 N 633.923 6.88173 0.799327 0
M  V30 7072 N 635.716 5.56068 0.821278 0
M  V30 7073 H 627.867 1.9993 -0.717063 0
M  V30 7074 H 630.13 0.911507 -0.260496 0
M  V30 7075 H 629.836 3.49599 -0.383875 0
M  V30 7076 H 629.71 3.51587 1.36624 0
M  V30 7077 H 632.097 2.53468 1.51122 0
M  V30 7078 H 632.178 2.54513 -0.256306 0
M  V30 7079 H 631.822 5.07354 -0.23541 0
M  V30 7080 H 631.752 5.03447 1.5443 0
M  V30 7081 H 634.243 3.71054 0.716049 0
M  V30 7082 H 634.556 7.6816 0.845553 0
M  V30 7083 H 632.901 6.90751 0.767337 0
M  V30 7084 H 636.092 4.61142 0.804091 0
M  V30 7085 H 636.265 6.42223 0.863372 0
M  V30 7086 N 629.671 -0.424282 1.51781 0
M  V30 7087 C 630.581 -1.54087 1.76902 0
M  V30 7088 C 631.597 -1.61249 0.653826 0
M  V30 7089 O 632.773 -1.78247 0.937552 0
M  V30 7090 C 629.838 -2.8996 1.90063 0
M  V30 7091 C 628.899 -2.92809 3.13945 0
M  V30 7092 C 628.132 -4.22201 3.26469 0
M  V30 7093 O 628.355 -5.15286 2.44616 0
M  V30 7094 O 627.289 -4.31599 4.1953 0
M  V30 7095 H 631.115 -1.358 2.71647 0
M  V30 7096 H 628.7 -0.608618 1.36441 0
M  V30 7097 H 630.582 -3.70575 2.0063 0
M  V30 7098 H 629.257 -3.08347 0.985067 0
M  V30 7099 H 628.164 -2.11102 3.08847 0
M  V30 7100 H 629.497 -2.79369 4.05233 0
M  V30 7101 N 631.149 -1.42148 -0.680565 0
M  V30 7102 C 632.059 -1.47565 -1.82378 0
M  V30 7103 C 633.075 -0.36489 -1.70131 0
M  V30 7104 O 634.251 -0.614916 -1.91783 0
M  V30 7105 C 631.316 -1.37013 -3.18478 0
M  V30 7106 C 630.377 -2.58532 -3.42724 0
M  V30 7107 C 629.61 -2.48473 -4.72331 0
M  V30 7108 O 629.833 -1.51745 -5.49845 0
M  V30 7109 O 628.767 -3.38503 -4.97694 0
M  V30 7110 H 632.593 -2.44045 -1.80764 0
M  V30 7111 H 630.178 -1.23849 -0.835569 0
M  V30 7112 H 632.06 -1.33468 -3.99705 0
M  V30 7113 H 630.735 -0.436552 -3.20743 0
M  V30 7114 H 629.642 -2.67652 -2.61368 0
M  V30 7115 H 630.975 -3.50769 -3.45286 0
M  V30 7116 N 632.627 0.916307 -1.28225 0
M  V30 7117 C 633.59 1.99996 -1.11957 0
M  V30 7118 C 634.59 1.60688 -0.0600152 0
M  V30 7119 O 635.78 1.71499 -0.30558 0
M  V30 7120 C 632.912 3.33458 -0.708411 0
M  V30 7121 H 634.105 2.15858 -2.08196 0
M  V30 7122 H 631.658 1.09863 -1.11175 0
M  V30 7123 H 632.393 3.23297 0.254859 0
M  V30 7124 H 632.178 3.63349 -1.47377 0
M  V30 7125 H 633.668 4.13014 -0.617164 0
M  V30 7126 N 634.105 1.10431 1.1244 0
M  V30 7127 C 635.351 0.857864 1.84424 0
M  V30 7128 C 635.706 -0.609995 1.82474 0
M  V30 7129 O 634.999 -1.44401 1.25932 0
M  V30 7130 C 635.193 1.34022 3.3132 0
M  V30 7131 C 635.022 2.85344 3.47576 0
M  V30 7132 C 633.792 3.53345 3.61213 0
M  V30 7133 C 635.99 3.83446 3.42744 0
M  V30 7134 N 633.972 4.92989 3.65834 0
M  V30 7135 C 635.343 5.09101 3.5386 0
M  V30 7136 C 637.398 3.76154 3.26209 0
M  V30 7137 C 636.101 6.28323 3.50146 0
M  V30 7138 C 638.127 4.94876 3.23809 0
M  V30 7139 C 637.489 6.19378 3.35485 0
M  V30 7140 H 633.588 0.366917 0.690577 0
M  V30 7141 H 636.172 1.40668 1.34613 0
M  V30 7142 H 634.343 0.818727 3.79673 0
M  V30 7143 H 636.075 1.03801 3.91162 0
M  V30 7144 H 632.83 3.03791 3.63329 0
M  V30 7145 H 633.254 5.65762 3.71809 0
M  V30 7146 H 637.896 2.80813 3.16076 0
M  V30 7147 H 635.614 7.23953 3.5905 0
M  V30 7148 H 639.2 4.90942 3.12197 0
M  V30 7149 H 638.08 7.09704 3.33602 0
M  V30 7150 N 635.583 -1.29855 0.893053 0
M  V30 7151 C 636.829 -1.96116 0.516349 0
M  V30 7152 C 637.162 -1.70281 -0.933695 0
M  V30 7153 O 636.437 -1.01205 -1.66096 0
M  V30 7154 C 636.72 -3.51068 0.801455 0
M  V30 7155 C 636.573 -3.86387 2.30272 0
M  V30 7156 C 637.892 -4.39186 0.283423 0
M  V30 7157 H 635.011 -0.712335 0.189072 0
M  V30 7158 H 637.653 -1.53587 1.11852 0
M  V30 7159 H 635.803 -3.87424 0.288949 0
M  V30 7160 H 637.475 -3.60012 2.88425 0
M  V30 7161 H 635.718 -3.34167 2.76613 0
M  V30 7162 H 636.389 -4.94512 2.45279 0
M  V30 7163 H 638.865 -4.09785 0.722187 0
M  V30 7164 H 637.741 -5.46505 0.512169 0
M  V30 7165 H 638.002 -4.34511 -0.815643 0
M  V30 7166 N 637.061 -0.65484 -1.43351 0
M  V30 7167 C 638.008 0.0357713 -2.30772 0
M  V30 7168 C 638.978 0.813035 -1.44841 0
M  V30 7169 O 640.163 0.789314 -1.73708 0
M  V30 7170 C 637.303 0.995084 -3.30442 0
M  V30 7171 C 636.416 0.21375 -4.31471 0
M  V30 7172 C 635.551 1.16701 -5.18222 0
M  V30 7173 C 634.59 0.376201 -6.10943 0
M  V30 7174 N 633.727 1.28113 -6.90313 0
M  V30 7175 H 638.567 -0.71559 -2.89281 0
M  V30 7176 H 636.104 -0.364645 -1.42509 0
M  V30 7177 H 638.062 1.5649 -3.86739 0
M  V30 7178 H 636.692 1.7133 -2.7358 0
M  V30 7179 H 635.744 -0.472377 -3.77456 0
M  V30 7180 H 637.056 -0.401103 -4.97185 0
M  V30 7181 H 636.21 1.8074 -5.79153 0
M  V30 7182 H 634.949 1.81577 -4.52638 0
M  V30 7183 H 633.954 -0.277534 -5.49099 0
M  V30 7184 H 635.179 -0.268178 -6.7857 0
M  V30 7185 H 633.125 1.91666 -6.27376 0
M  V30 7186 H 633.042 0.720879 -7.52555 0
M  V30 7187 H 634.31 1.90962 -7.55747 0
M  V30 7188 N 638.539 1.52521 -0.396863 0
M  V30 7189 C 639.788 2.00857 0.184184 0
M  V30 7190 C 640.101 1.28733 1.47265 0
M  V30 7191 O 641.307 1.67821 2.13421 0
M  V30 7192 C 639.763 3.57901 0.378787 0
M  V30 7193 C 639.371 4.38931 -0.896873 0
M  V30 7194 C 641.115 4.14504 0.915789 0
M  V30 7195 C 639.022 5.87591 -0.670133 0
M  V30 7196 H 637.952 0.750496 0.0726055 0
M  V30 7197 H 640.603 1.75965 -0.520425 0
M  V30 7198 H 638.985 3.79072 1.14543 0
M  V30 7199 H 640.159 4.29524 -1.66872 0
M  V30 7200 H 638.474 3.93586 -1.35938 0
M  V30 7201 H 641.071 5.23236 1.10126 0
M  V30 7202 H 641.414 3.71076 1.88701 0
M  V30 7203 H 641.947 3.97253 0.208523 0
M  V30 7204 H 638.686 6.35355 -1.61257 0
M  V30 7205 H 638.206 5.99767 0.0626368 0
M  V30 7206 H 639.885 6.46268 -0.307577 0
M  V30 7207 N 640.017 0.126909 1.57088 0
M  V30 7208 C 640.927 -0.833867 2.1928 0
M  V30 7209 C 641.943 -1.2868 1.17122 0
M  V30 7210 O 643.119 -1.34815 1.49622 0
M  V30 7211 C 640.184 -2.0632 2.78627 0
M  V30 7212 C 639.245 -1.66143 3.95847 0
M  V30 7213 C 638.478 -2.83217 4.52354 0
M  V30 7214 O 638.701 -3.98868 4.0775 0
M  V30 7215 O 637.635 -2.59846 5.42922 0
M  V30 7216 H 641.461 -0.334564 3.01852 0
M  V30 7217 H 639.046 -0.0991091 1.49071 0
M  V30 7218 H 640.928 -2.78304 3.16425 0
M  V30 7219 H 639.603 -2.55242 1.99082 0
M  V30 7220 H 638.51 -0.912435 3.62802 0
M  V30 7221 H 639.843 -1.21957 4.76852 0
M  V30 7222 N 641.495 -1.56914 -0.146875 0
M  V30 7223 C 642.443 -1.99224 -1.20053 0
M  V30 7224 C 643.437 -0.884661 -1.44465 0
M  V30 7225 O 644.643 -1.06984 -1.44756 0
M  V30 7226 H 641.018 -0.634191 -0.404112 0
M  V30 7227 H 642.989 -2.86998 -0.816987 0
M  V30 7228 C 641.738 -2.38899 -2.52632 0
M  V30 7229 H 641.061 -3.23677 -2.34677 0
M  V30 7230 H 642.501 -2.72326 -3.24984 0
M  V30 7231 C 640.96 -1.2417 -3.13183 0
M  V30 7232 O 641.49 -0.542503 -3.9802 0
M  V30 7233 N 639.696 -1.00592 -2.72635 0
M  V30 7234 H 639.243 -1.57627 -2.03744 0
M  V30 7235 H 639.201 -0.240174 -3.13481 0
M  V30 7236 N 642.974 0.416227 -1.52004 0
M  V30 7237 C 643.904 1.51365 -1.77795 0
M  V30 7238 C 644.885 1.58059 -0.628601 0
M  V30 7239 O 646.07 1.73447 -0.873478 0
M  V30 7240 C 643.2 2.89256 -1.92219 0
M  V30 7241 C 642.154 2.97415 -3.0778 0
M  V30 7242 C 641.48 4.37492 -3.07417 0
M  V30 7243 C 642.78 2.69551 -4.47369 0
M  V30 7244 H 644.474 1.30033 -2.69688 0
M  V30 7245 H 642.02 0.624112 -1.29772 0
M  V30 7246 H 643.973 3.66008 -2.08845 0
M  V30 7247 H 642.697 3.11866 -0.969917 0
M  V30 7248 H 641.356 2.23107 -2.90893 0
M  V30 7249 H 641.004 4.571 -2.09925 0
M  V30 7250 H 640.704 4.43877 -3.85029 0
M  V30 7251 H 642.228 5.16188 -3.26162 0
M  V30 7252 H 643.642 3.36028 -4.64497 0
M  V30 7253 H 642.039 2.87321 -5.26846 0
M  V30 7254 H 643.109 1.65029 -4.55953 0
M  V30 7255 N 644.452 1.42507 0.673017 0
M  V30 7256 C 645.415 1.4582 1.76831 0
M  V30 7257 C 646.415 0.345542 1.57043 0
M  V30 7258 O 647.605 0.606447 1.63303 0
M  V30 7259 C 644.737 1.29158 3.15485 0
M  V30 7260 H 645.93 2.43345 1.7528 0
M  V30 7261 H 643.483 1.28981 0.882817 0
M  V30 7262 H 644.218 0.325626 3.22661 0
M  V30 7263 H 644.003 2.09797 3.31252 0
M  V30 7264 H 645.493 1.34363 3.95394 0
M  V30 7265 N 645.93 -0.909495 1.28709 0
M  V30 7266 C 646.877 -2.01245 1.13 0
M  V30 7267 C 647.847 -1.6608 0.0259684 0
M  V30 7268 O 649.032 -1.89835 0.191687 0
M  V30 7269 C 646.172 -3.35644 0.802315 0
M  V30 7270 C 645.285 -3.83653 1.98582 0
M  V30 7271 C 644.42 -5.06582 1.59837 0
M  V30 7272 C 643.459 -5.46934 2.74827 0
M  V30 7273 N 642.596 -6.61053 2.36546 0
M  V30 7274 H 647.436 -2.14013 2.0737 0
M  V30 7275 H 644.973 -1.0482 1.03205 0
M  V30 7276 H 646.931 -4.12963 0.593057 0
M  V30 7277 H 645.561 -3.22631 -0.104457 0
M  V30 7278 H 644.613 -3.02454 2.30708 0
M  V30 7279 H 645.925 -4.09515 2.84779 0
M  V30 7280 H 645.079 -5.91457 1.35143 0
M  V30 7281 H 643.818 -4.82537 0.707753 0
M  V30 7282 H 642.823 -4.60599 3.00215 0
M  V30 7283 H 644.048 -5.72965 3.64538 0
M  V30 7284 H 641.994 -6.3863 1.49959 0
M  V30 7285 H 641.911 -6.86662 3.16277 0
M  V30 7286 H 643.179 -7.49221 2.15146 0
M  V30 7287 N 647.408 -1.11026 -1.11852 0
M  V30 7288 C 648.371 -0.768006 -2.1595 0
M  V30 7289 C 649.371 0.210538 -1.59416 0
M  V30 7290 O 650.561 -0.0133978 -1.74195 0
M  V30 7291 C 647.693 -0.138678 -3.40618 0
M  V30 7292 H 648.886 -1.69012 -2.4774 0
M  V30 7293 H 646.439 -0.911578 -1.26964 0
M  V30 7294 H 647.174 0.793872 -3.14433 0
M  V30 7295 H 646.959 -0.843012 -3.8293 0
M  V30 7296 H 648.449 0.0848039 -4.17514 0
M  V30 7297 N 648.886 1.2938 -0.899927 0
M  V30 7298 C 649.834 2.29675 -0.367698 0
M  V30 7299 C 650.828 1.60787 0.533282 0
M  V30 7300 O 652.034 1.75126 0.416058 0
M  V30 7301 H 648.409 0.745284 -0.100279 0
M  V30 7302 H 650.38 2.72008 -1.22696 0
M  V30 7303 C 649.129 3.45512 0.389483 0
M  V30 7304 H 648.452 3.98713 -0.294575 0
M  V30 7305 H 649.892 4.17725 0.726744 0
M  V30 7306 C 648.351 2.969 1.59223 0
M  V30 7307 O 648.881 2.98195 2.69152 0
M  V30 7308 N 647.087 2.52728 1.43447 0
M  V30 7309 H 646.634 2.51873 0.540148 0
M  V30 7310 H 646.592 2.20561 2.24054 0
M  V30 7311 N 650.364 0.662433 1.43002 0
M  V30 7312 C 651.775 0.258315 1.84904 0
M  V30 7313 C 652.126 -1.19703 1.55453 0
M  V30 7314 O 651.251 -1.91484 1.00811 0
M  V30 7315 C 651.846 0.462047 3.35635 0
M  V30 7316 C 650.405 0.112165 3.76233 0
M  V30 7317 C 649.552 0.760479 2.66668 0
M  V30 7318 H 652.503 0.865467 1.33024 0
M  V30 7319 H 652.524 -0.289646 3.79396 0
M  V30 7320 H 652.036 1.52135 3.57039 0
M  V30 7321 H 650.137 -0.944179 3.60439 0
M  V30 7322 H 650.25 0.544058 4.76001 0
M  V30 7323 H 648.614 0.192887 2.53969 0
M  V30 7324 H 649.397 1.82299 2.90898 0
M  V30 7325 N 651.842 -1.52309 0.404946 0
M  V30 7326 C 652.774 -2.24579 -0.45791 0
M  V30 7327 C 653.787 -1.2739 -1.01369 0
M  V30 7328 O 654.976 -1.53363 -0.91335 0
M  V30 7329 C 652.076 -2.9608 -1.64893 0
M  V30 7330 C 651.249 -4.20106 -1.21777 0
M  V30 7331 C 650.308 -4.74468 -2.27523 0
M  V30 7332 O 649.334 -5.37157 -1.88285 0
M  V30 7333 N 650.536 -4.55678 -3.59635 0
M  V30 7334 H 653.301 -2.99265 0.161341 0
M  V30 7335 H 650.862 -1.60228 0.232107 0
M  V30 7336 H 652.854 -3.29344 -2.35191 0
M  V30 7337 H 651.424 -2.24606 -2.17419 0
M  V30 7338 H 650.644 -3.92704 -0.343071 0
M  V30 7339 H 651.932 -5.00658 -0.906596 0
M  V30 7340 H 651.33 -4.05673 -3.94266 0
M  V30 7341 H 649.887 -4.9339 -4.25922 0
M  V30 7342 N 653.32 -0.135238 -1.57019 0
M  V30 7343 C 654.55 0.525303 -1.9981 0
M  V30 7344 C 654.958 1.59724 -1.01415 0
M  V30 7345 O 654.301 1.837 -0.00130938 0
M  V30 7346 C 654.363 1.19578 -3.3903 0
M  V30 7347 C 654.027 0.269855 -4.56203 0
M  V30 7348 C 655.024 -0.497905 -5.1751 0
M  V30 7349 C 652.709 0.176188 -5.01991 0
M  V30 7350 C 654.703 -1.3469 -6.23007 0
M  V30 7351 C 652.39 -0.676422 -6.07345 0
M  V30 7352 C 653.388 -1.43658 -6.67721 0
M  V30 7353 O 653.076 -2.27501 -7.71037 0
M  V30 7354 H 652.808 0.142296 -0.660854 0
M  V30 7355 H 655.362 -0.223272 -2.04183 0
M  V30 7356 H 653.592 1.99176 -3.3146 0
M  V30 7357 H 655.281 1.75486 -3.66005 0
M  V30 7358 H 656.047 -0.435507 -4.83041 0
M  V30 7359 H 651.926 0.757583 -4.54733 0
M  V30 7360 H 655.47 -1.9407 -6.70062 0
M  V30 7361 H 651.367 -0.740154 -6.41243 0
M  V30 7362 H 652.135 -2.20619 -7.88206 0
M  V30 7363 N 654.798 1.5699 0.138552 0
M  V30 7364 C 656.026 1.87976 0.864437 0
M  V30 7365 C 656.441 0.724372 1.74351 0
M  V30 7366 O 655.798 -0.305575 1.79924 0
M  V30 7367 C 655.849 3.18276 1.71414 0
M  V30 7368 O 655.57 4.29365 0.870487 0
M  V30 7369 C 657.071 3.62834 2.54688 0
M  V30 7370 H 654.291 0.622878 0.249528 0
M  V30 7371 H 656.835 2.04094 0.128805 0
M  V30 7372 H 654.99 3.03886 2.40274 0
M  V30 7373 H 655.404 5.03924 1.45466 0
M  V30 7374 H 656.878 4.5682 3.0987 0
M  V30 7375 H 657.355 2.88533 3.31127 0
M  V30 7376 H 657.961 3.79946 1.91105 0
M  V30 7377 N 656.276 -0.40816 1.52223 0
M  V30 7378 C 657.522 -1.15673 1.66576 0
M  V30 7379 C 657.855 -1.90141 0.394996 0
M  V30 7380 O 657.13 -1.84798 -0.606613 0
M  V30 7381 C 657.413 -2.15042 2.88841 0
M  V30 7382 C 657.266 -1.44465 4.25969 0
M  V30 7383 C 658.585 -3.15699 3.0663 0
M  V30 7384 H 655.704 -0.41916 0.606196 0
M  V30 7385 H 658.346 -0.442348 1.84779 0
M  V30 7386 H 656.496 -2.75964 2.73452 0
M  V30 7387 H 658.168 -0.866544 4.53088 0
M  V30 7388 H 656.411 -0.746612 4.27327 0
M  V30 7389 H 657.082 -2.16976 5.07568 0
M  V30 7390 H 659.558 -2.64854 3.20923 0
M  V30 7391 H 658.434 -3.82491 3.9369 0
M  V30 7392 H 658.695 -3.83481 2.19987 0
M  V30 7393 N 657.755 -1.42862 -0.66545 0
M  V30 7394 C 658.985 -1.47032 -1.45138 0
M  V30 7395 C 659.393 -0.0829977 -1.89018 0
M  V30 7396 O 658.736 0.914551 -1.59316 0
M  V30 7397 C 658.798 -2.34302 -2.72659 0
M  V30 7398 C 658.462 -3.82034 -2.50796 0
M  V30 7399 C 659.459 -4.73453 -2.14799 0
M  V30 7400 C 657.144 -4.26397 -2.655 0
M  V30 7401 C 659.138 -6.07228 -1.93785 0
M  V30 7402 C 656.825 -5.6023 -2.44103 0
M  V30 7403 C 657.823 -6.50462 -2.08299 0
M  V30 7404 O 657.511 -7.8182 -1.87116 0
M  V30 7405 H 657.243 -0.501969 -0.452772 0
M  V30 7406 H 659.797 -1.88137 -0.82423 0
M  V30 7407 H 658.027 -1.88063 -3.37889 0
M  V30 7408 H 659.716 -2.29818 -3.34572 0
M  V30 7409 H 660.482 -4.4046 -2.03026 0
M  V30 7410 H 656.361 -3.56448 -2.92345 0
M  V30 7411 H 659.905 -6.7762 -1.65763 0
M  V30 7412 H 655.802 -5.92793 -2.55475 0
M  V30 7413 H 656.57 -7.93274 -2.01639 0
M  V30 7414 N 659.233 0.902656 -1.29189 0
M  V30 7415 C 660.458 1.69167 -1.19989 0
M  V30 7416 C 660.883 1.86607 0.236495 0
M  V30 7417 O 660.241 1.38425 1.17082 0
M  V30 7418 C 660.289 3.05532 -1.91527 0
M  V30 7419 O 659.393 3.93621 -1.2303 0
M  V30 7420 H 658.734 0.517584 -0.415936 0
M  V30 7421 H 661.264 1.12785 -1.70706 0
M  V30 7422 H 661.274 3.55693 -1.99866 0
M  V30 7423 H 659.949 2.92156 -2.96003 0
M  V30 7424 H 658.526 3.52055 -1.22928 0
M  V30 7425 N 660.711 1.11618 1.11262 0
M  V30 7426 C 661.643 0.734015 2.17129 0
M  V30 7427 C 662.656 -0.235243 1.61091 0
M  V30 7428 O 663.845 -0.0178597 1.78491 0
M  V30 7429 C 660.945 0.0643682 3.38839 0
M  V30 7430 C 660.118 1.06092 4.24339 0
M  V30 7431 C 659.177 0.420482 5.24517 0
M  V30 7432 O 658.203 1.07495 5.58957 0
M  V30 7433 N 659.405 -0.815828 5.74739 0
M  V30 7434 H 662.17 1.64492 2.50524 0
M  V30 7435 H 659.731 1.00664 1.26801 0
M  V30 7436 H 661.723 -0.375851 4.02951 0
M  V30 7437 H 660.293 -0.749147 3.03491 0
M  V30 7438 H 659.513 1.67903 3.56654 0
M  V30 7439 H 660.801 1.73507 4.78302 0
M  V30 7440 H 660.199 -1.36668 5.48943 0
M  V30 7441 H 658.756 -1.199 6.40677 0
M  V30 7442 N 662.189 -1.289 0.906776 0
M  V30 7443 C 663.152 -2.25777 0.394656 0
M  V30 7444 C 664.152 -1.53621 -0.475119 0
M  V30 7445 O 665.342 -1.71949 -0.279165 0
M  V30 7446 C 662.474 -3.38113 -0.43499 0
M  V30 7447 H 663.667 -2.72592 1.25033 0
M  V30 7448 H 661.22 -1.40463 0.685547 0
M  V30 7449 H 661.955 -2.96648 -1.31036 0
M  V30 7450 H 661.74 -3.91647 0.188334 0
M  V30 7451 H 663.23 -4.10168 -0.784365 0
M  V30 7452 N 663.667 -0.670007 -1.42649 0
M  V30 7453 C 664.892 -0.196955 -2.06463 0
M  V30 7454 C 665.317 1.1352 -1.49983 0
M  V30 7455 O 664.675 1.705 -0.616397 0
M  V30 7456 C 664.723 -0.137381 -3.60338 0
M  V30 7457 O 663.827 0.895523 -4.02559 0
M  V30 7458 H 663.168 -0.102579 -0.656029 0
M  V30 7459 H 665.698 -0.917669 -1.82866 0
M  V30 7460 H 665.708 0.0403625 -4.0798 0
M  V30 7461 H 664.383 -1.10977 -4.0082 0
M  V30 7462 H 662.96 0.689209 -3.66476 0
M  V30 7463 N 665.145 1.52092 -0.413018 0
M  V30 7464 C 666.373 2.06274 0.160881 0
M  V30 7465 C 666.788 1.28273 1.38533 0
M  V30 7466 O 666.145 0.33563 1.79387 0
M  V30 7467 C 666.196 3.57921 0.507443 0
M  V30 7468 O 665.917 4.32971 -0.668388 0
M  V30 7469 C 667.418 4.28533 1.13465 0
M  V30 7470 H 664.638 0.67074 0.0186759 0
M  V30 7471 H 667.182 1.95951 -0.585092 0
M  V30 7472 H 665.337 3.68238 1.20331 0
M  V30 7473 H 665.751 5.23135 -0.378169 0
M  V30 7474 H 667.225 5.35804 1.32732 0
M  V30 7475 H 667.702 3.85258 2.10886 0
M  V30 7476 H 668.308 4.22595 0.478876 0
M  V30 7477 N 666.623 0.143563 1.56945 0
M  V30 7478 C 667.556 -0.835367 2.1236 0
M  V30 7479 C 668.534 -1.24466 1.04627 0
M  V30 7480 O 669.718 -1.34138 1.32436 0
M  V30 7481 C 666.845 -2.12123 2.64048 0
M  V30 7482 C 665.891 -1.85812 3.83896 0
M  V30 7483 S 666.724 -1.05222 5.25061 0
M  V30 7484 C 667.88 -2.34935 5.80135 0
M  V30 7485 H 668.113 -0.364109 2.95062 0
M  V30 7486 H 665.646 -0.0706601 1.54238 0
M  V30 7487 H 667.604 -2.85993 2.94479 0
M  V30 7488 H 666.265 -2.56364 1.81483 0
M  V30 7489 H 665.458 -2.81151 4.18294 0
M  V30 7490 H 665.06 -1.20052 3.54208 0
M  V30 7491 H 667.352 -3.3061 5.91357 0
M  V30 7492 H 668.295 -2.05046 6.77762 0
M  V30 7493 H 668.703 -2.45426 5.08356 0
M  V30 7494 N 668.101 -1.57061 -0.130224 0
M  V30 7495 C 669.326 -1.88802 -0.858409 0
M  V30 7496 C 669.751 -0.734353 -1.73173 0
M  V30 7497 O 669.109 0.315529 -1.78533 0
M  V30 7498 C 669.157 -3.19228 -1.67708 0
M  V30 7499 O 668.261 -3.04343 -2.78297 0
M  V30 7500 H 667.602 -0.619849 -0.238083 0
M  V30 7501 H 670.132 -2.04271 -0.115995 0
M  V30 7502 H 670.142 -3.51669 -2.06864 0
M  V30 7503 H 668.817 -4.02793 -1.0359 0
M  V30 7504 H 667.394 -2.83346 -2.42425 0
M  V30 7505 N 669.579 0.400081 -1.52437 0
M  V30 7506 C 670.828 1.14332 -1.66166 0
M  V30 7507 C 671.141 1.91419 -0.402253 0
M  V30 7508 O 672.347 2.6824 -0.419487 0
M  V30 7509 C 670.803 2.08137 -2.9361 0
M  V30 7510 C 670.411 1.36524 -4.26691 0
M  V30 7511 C 672.155 2.82664 -3.16703 0
M  V30 7512 C 670.062 2.29031 -5.45251 0
M  V30 7513 H 668.992 0.430499 -0.61902 0
M  V30 7514 H 671.643 0.407017 -1.78929 0
M  V30 7515 H 670.025 2.85358 -2.74567 0
M  V30 7516 H 671.199 0.646061 -4.56249 0
M  V30 7517 H 669.514 0.74002 -4.09771 0
M  V30 7518 H 672.111 3.52037 -4.0246 0
M  V30 7519 H 672.454 3.46122 -2.31312 0
M  V30 7520 H 672.987 2.12541 -3.36261 0
M  V30 7521 H 669.726 1.70206 -6.33017 0
M  V30 7522 H 669.246 2.98896 -5.2002 0
M  V30 7523 H 670.925 2.89359 -5.78689 0
M  V30 7524 N 671.057 1.43213 0.657864 0
M  V30 7525 C 672.468 1.39669 1.23893 0
M  V30 7526 C 672.819 0.0984217 1.95953 0
M  V30 7527 O 671.944 -0.8023 2.00978 0
M  V30 7528 C 672.539 2.53004 2.25332 0
M  V30 7529 C 671.098 2.5274 2.78926 0
M  V30 7530 C 670.245 2.30941 1.53497 0
M  V30 7531 H 673.196 1.52181 0.450172 0
M  V30 7532 H 673.217 2.24226 3.07413 0
M  V30 7533 H 672.729 3.4748 1.72856 0
M  V30 7534 H 670.83 1.6213 3.35477 0
M  V30 7535 H 670.943 3.50352 3.26787 0
M  V30 7536 H 669.307 1.7952 1.80678 0
M  V30 7537 H 670.09 3.27496 1.02963 0
M  V30 7538 N 672.536 -0.895792 1.29666 0
M  V30 7539 C 673.782 -1.64908 1.18039 0
M  V30 7540 C 674.115 -1.9236 -0.266682 0
M  V30 7541 O 673.39 -1.53682 -1.19214 0
M  V30 7542 C 673.673 -2.99574 1.99819 0
M  V30 7543 C 673.526 -2.79163 3.52687 0
M  V30 7544 C 674.845 -4.00358 1.82761 0
M  V30 7545 H 671.964 -0.598437 0.430165 0
M  V30 7546 H 674.606 -1.03736 1.59182 0
M  V30 7547 H 672.756 -3.51786 1.64859 0
M  V30 7548 H 674.428 -2.33821 3.9765 0
M  V30 7549 H 672.671 -2.13871 3.77414 0
M  V30 7550 H 673.342 -3.74871 4.05186 0
M  V30 7551 H 675.818 -3.57268 2.13304 0
M  V30 7552 H 674.694 -4.92514 2.42325 0
M  V30 7553 H 674.955 -4.35096 0.783839 0
M  V30 7554 N 674.014 -1.12206 -1.10668 0
M  V30 7555 C 674.977 -0.790867 -2.15123 0
M  V30 7556 C 675.977 0.193618 -1.5963 0
M  V30 7557 O 677.167 -0.0318728 -1.74171 0
M  V30 7558 C 674.299 -0.174797 -3.40452 0
M  V30 7559 H 675.492 -1.7163 -2.45933 0
M  V30 7560 H 673.045 -0.924993 -1.2599 0
M  V30 7561 H 673.78 0.760478 -3.15257 0
M  V30 7562 H 673.565 -0.88358 -3.82015 0
M  V30 7563 H 675.055 0.0405162 -4.1758 0
M  V30 7564 N 675.492 1.28418 -0.913599 0
M  V30 7565 C 676.425 2.25557 -0.346328 0
M  V30 7566 C 677.403 1.53038 0.549366 0
M  V30 7567 O 678.587 1.81937 0.493055 0
M  V30 7568 C 675.714 3.34915 0.504961 0
M  V30 7569 C 674.76 4.25257 -0.325334 0
M  V30 7570 S 675.593 5.06718 -1.73198 0
M  V30 7571 C 676.749 6.19569 -0.887988 0
M  V30 7572 H 676.982 2.73325 -1.16965 0
M  V30 7573 H 674.515 1.36855 -0.714841 0
M  V30 7574 H 676.473 3.98376 0.990301 0
M  V30 7575 H 675.134 2.85814 1.30267 0
M  V30 7576 H 674.327 5.02947 0.325589 0
M  V30 7577 H 673.929 3.66519 -0.744321 0
M  V30 7578 H 676.221 6.77398 -0.117568 0
M  V30 7579 H 677.164 6.88908 -1.63742 0
M  V30 7580 H 677.572 5.62812 -0.436228 0
M  V30 7581 N 676.97 0.677563 1.42291 0
M  V30 7582 C 677.88 0.000962654 2.346 0
M  V30 7583 C 678.896 -0.785833 1.55244 0
M  V30 7584 O 680.072 -0.727523 1.87801 0
M  V30 7585 C 677.137 -0.936746 3.33805 0
M  V30 7586 C 676.198 -0.144173 4.29058 0
M  V30 7587 C 675.431 -1.03722 5.23524 0
M  V30 7588 O 675.654 -2.27675 5.22992 0
M  V30 7589 O 674.588 -0.496542 5.99848 0
M  V30 7590 H 678.414 0.761397 2.94001 0
M  V30 7591 H 675.999 0.43781 1.42841 0
M  V30 7592 H 677.881 -1.47497 3.94744 0
M  V30 7593 H 676.556 -1.67698 2.76874 0
M  V30 7594 H 675.463 0.438224 3.71524 0
M  V30 7595 H 676.796 0.55701 4.89038 0
M  V30 7596 N 678.448 -1.51871 0.421078 0
M  V30 7597 C 679.676 -2.06356 -0.14994 0
M  V30 7598 C 680.091 -1.29006 -1.37851 0
M  V30 7599 O 679.448 -0.345139 -1.79207 0
M  V30 7600 C 679.499 -3.58185 -0.488454 0
M  V30 7601 O 679.22 -4.32611 0.691341 0
M  V30 7602 C 680.721 -4.29129 -1.11191 0
M  V30 7603 H 677.941 -0.67083 -0.0151186 0
M  V30 7604 H 680.485 -1.95638 0.595476 0
M  V30 7605 H 678.64 -3.68871 -1.18376 0
M  V30 7606 H 679.054 -5.22927 0.405906 0
M  V30 7607 H 680.528 -5.36501 -1.29889 0
M  V30 7608 H 681.005 -3.86371 -2.0884 0
M  V30 7609 H 681.611 -4.22843 -0.456458 0
M  V30 7610 N 679.926 -0.151884 -1.56866 0
M  V30 7611 C 681.203 0.543328 -1.87902 0
M  V30 7612 C 681.583 1.82636 -1.05864 0
M  V30 7613 O 680.931 2.28028 -0.146868 0
M  V30 7614 C 681.141 0.804056 -3.39611 0
M  V30 7615 C 682.489 1.14267 -4.08935 0
M  V30 7616 O 683.513 0.893248 -3.44818 0
M  V30 7617 O 682.372 1.61229 -5.22176 0
M  V30 7618 H 679.466 0.277724 -0.778973 0
M  V30 7619 H 682.012 -0.188862 -1.68646 0
M  V30 7620 H 680.784 -0.103772 -3.91162 0
M  V30 7621 H 680.407 1.59025 -3.64413 0
M  V30 7622 N 681.404 1.57128 0.121893 0
M  V30 7623 C 682.652 1.84335 0.828548 0
M  V30 7624 C 682.973 0.736632 1.80551 0
M  V30 7625 O 682.243 -0.23962 1.94429 0
M  V30 7626 H 680.823 0.680108 0.30897 0
M  V30 7627 H 683.485 1.9459 0.109906 0
M  V30 7628 H 682.581 2.80152 1.37554 0
M  V30 7629 N 682.882 -0.391992 1.52647 0
M  V30 7630 C 684.293 -0.970064 1.5952 0
M  V30 7631 C 684.644 -1.91059 0.446207 0
M  V30 7632 O 683.769 -2.12062 -0.431125 0
M  V30 7633 C 684.364 -1.76614 2.89125 0
M  V30 7634 C 682.923 -2.29396 2.9842 0
M  V30 7635 C 682.07 -1.09864 2.54608 0
M  V30 7636 H 685.021 -0.171638 1.57769 0
M  V30 7637 H 685.042 -2.62511 2.75442 0
M  V30 7638 H 684.554 -1.08135 3.72731 0
M  V30 7639 H 682.655 -3.01196 2.19344 0
M  V30 7640 H 682.768 -2.59088 4.03002 0
M  V30 7641 H 681.132 -1.45777 2.08857 0
M  V30 7642 H 681.915 -0.429249 3.40606 0
M  V30 7643 N 684.36 -1.4356 -0.65026 0
M  V30 7644 C 685.29 -1.51758 -1.77459 0
M  V30 7645 C 686.271 -0.372019 -1.65982 0
M  V30 7646 O 687.456 -0.589627 -1.85033 0
M  V30 7647 C 684.586 -1.44302 -3.15902 0
M  V30 7648 C 683.54 -2.57138 -3.42146 0
M  V30 7649 C 682.866 -2.34735 -4.8042 0
M  V30 7650 C 684.166 -3.99373 -3.36598 0
M  V30 7651 H 685.86 -2.45863 -1.70855 0
M  V30 7652 H 683.406 -1.18333 -0.820566 0
M  V30 7653 H 685.359 -1.48641 -3.94314 0
M  V30 7654 H 684.083 -0.467026 -3.23244 0
M  V30 7655 H 682.742 -2.52157 -2.66106 0
M  V30 7656 H 682.39 -1.35372 -4.84441 0
M  V30 7657 H 682.09 -3.10375 -4.9894 0
M  V30 7658 H 683.614 -2.40862 -5.61086 0
M  V30 7659 H 685.028 -4.05826 -4.04942 0
M  V30 7660 H 683.425 -4.75063 -3.66654 0
M  V30 7661 H 684.495 -4.243 -2.34729 0
M  V30 7662 N 685.838 0.888903 -1.30139 0
M  V30 7663 C 687.085 1.64037 -1.18736 0
M  V30 7664 C 687.413 1.92771 0.258801 0
M  V30 7665 O 686.668 1.54427 1.20212 0
M  V30 7666 C 686.967 2.99041 -1.95728 0
M  V30 7667 C 686.633 2.89874 -3.45375 0
M  V30 7668 C 685.295 2.87082 -3.86183 0
M  V30 7669 C 687.647 2.78289 -4.40687 0
M  V30 7670 C 684.975 2.70536 -5.20603 0
M  V30 7671 C 687.327 2.63282 -5.75209 0
M  V30 7672 C 685.991 2.58861 -6.15262 0
M  V30 7673 H 685.261 0.600253 -0.434485 0
M  V30 7674 H 687.908 1.0338 -1.61198 0
M  V30 7675 H 686.213 3.63626 -1.45888 0
M  V30 7676 H 687.91 3.56139 -1.843 0
M  V30 7677 H 684.5 2.92856 -3.12943 0
M  V30 7678 H 688.684 2.79516 -4.10103 0
M  V30 7679 H 683.94 2.65526 -5.50732 0
M  V30 7680 H 688.114 2.5329 -6.48704 0
M  V30 7681 H 685.741 2.45799 -7.19366 0
M  V30 7682 N 687.317 1.12792 1.10072 0
M  V30 7683 C 688.227 0.812369 2.20086 0
M  V30 7684 C 689.243 -0.200349 1.72843 0
M  V30 7685 O 690.419 -0.0330262 2.01373 0
M  V30 7686 C 687.484 0.275685 3.45602 0
M  V30 7687 C 686.545 1.34881 4.07561 0
M  V30 7688 C 685.778 0.837639 5.27086 0
M  V30 7689 O 686.001 -0.327224 5.69461 0
M  V30 7690 O 684.935 1.60894 5.79997 0
M  V30 7691 H 688.761 1.73133 2.49517 0
M  V30 7692 H 686.346 0.904863 1.18881 0
M  V30 7693 H 688.228 -0.0185375 4.21396 0
M  V30 7694 H 686.903 -0.615783 3.17789 0
M  V30 7695 H 685.81 1.69625 3.33434 0
M  V30 7696 H 687.143 2.21418 4.39585 0
M  V30 7697 N 688.795 -1.27931 0.920396 0
M  V30 7698 C 690.072 -1.89728 0.475687 0
M  V30 7699 C 690.452 -1.8337 -1.04588 0
M  V30 7700 O 689.8 -1.27404 -1.89685 0
M  V30 7701 C 690.01 -3.33959 1.01354 0
M  V30 7702 C 691.358 -4.10907 1.06963 0
M  V30 7703 O 692.382 -3.42945 0.962646 0
M  V30 7704 O 691.241 -5.32399 1.23343 0
M  V30 7705 H 688.335 -0.81294 0.151845 0
M  V30 7706 H 690.881 -1.36252 1.01161 0
M  V30 7707 H 689.653 -3.32843 2.05746 0
M  V30 7708 H 689.276 -3.94944 0.458829 0
M  V30 7709 N 690.273 -0.685099 -1.4193 0
M  V30 7710 C 691.519 -0.211971 -2.01689 0
M  V30 7711 C 691.852 1.18189 -1.54094 0
M  V30 7712 O 691.127 1.79559 -0.747572 0
M  V30 7713 C 691.41 -0.258019 -3.59174 0
M  V30 7714 C 691.263 -1.68807 -4.16922 0
M  V30 7715 C 692.582 0.388044 -4.38386 0
M  V30 7716 H 689.701 -0.0784987 -0.732808 0
M  V30 7717 H 692.343 -0.871837 -1.68816 0
M  V30 7718 H 690.493 0.303832 -3.8731 0
M  V30 7719 H 692.165 -2.30296 -3.99702 0
M  V30 7720 H 690.408 -2.22553 -3.72361 0
M  V30 7721 H 691.079 -1.6719 -5.26072 0
M  V30 7722 H 693.555 -0.0903432 -4.16002 0
M  V30 7723 H 692.431 0.325232 -5.47936 0
M  V30 7724 H 692.692 1.4672 -4.17044 0
M  V30 7725 N 691.751 1.51645 -0.429126 0
M  V30 7726 C 692.683 2.25279 0.422124 0
M  V30 7727 C 693.696 1.28986 0.993299 0
M  V30 7728 O 694.885 1.54797 0.888836 0
M  V30 7729 C 691.985 2.98666 1.60162 0
M  V30 7730 C 691.158 4.2199 1.15078 0
M  V30 7731 C 690.217 4.78028 2.19946 0
M  V30 7732 O 689.243 5.40084 1.79716 0
M  V30 7733 N 690.445 4.61342 3.5234 0
M  V30 7734 H 693.21 2.98971 -0.208931 0
M  V30 7735 H 690.771 1.59838 -0.257568 0
M  V30 7736 H 692.763 3.33044 2.29922 0
M  V30 7737 H 691.333 2.28036 2.13818 0
M  V30 7738 H 690.553 3.932 0.280552 0
M  V30 7739 H 691.841 5.02037 0.826831 0
M  V30 7740 H 691.239 4.11894 3.87763 0
M  V30 7741 H 689.796 5.00104 4.18019 0
M  V30 7742 N 693.229 0.160201 1.56784 0
M  V30 7743 C 694.162 -0.812797 2.13234 0
M  V30 7744 C 695.14 -1.2335 1.05942 0
M  V30 7745 O 696.324 -1.32725 1.33852 0
M  V30 7746 C 693.451 -2.09311 2.66283 0
M  V30 7747 C 692.497 -1.8173 3.85845 0
M  V30 7748 S 693.33 -0.996473 5.26147 0
M  V30 7749 C 694.486 -2.28769 5.82594 0
M  V30 7750 H 694.719 -0.332794 2.95432 0
M  V30 7751 H 692.252 -0.0542971 1.54304 0
M  V30 7752 H 694.21 -2.82854 2.97496 0
M  V30 7753 H 692.871 -2.54425 1.84192 0
M  V30 7754 H 692.064 -2.76699 4.21253 0
M  V30 7755 H 691.666 -1.16289 3.55462 0
M  V30 7756 H 693.958 -3.24319 5.9483 0
M  V30 7757 H 694.901 -1.97846 6.79899 0
M  V30 7758 H 695.309 -2.40021 5.10931 0
M  V30 7759 N 694.707 -1.5719 -0.113559 0
M  V30 7760 C 695.637 -2.03772 -1.14013 0
M  V30 7761 C 696.618 -0.923176 -1.42869 0
M  V30 7762 O 697.803 -1.19325 -1.53216 0
M  V30 7763 C 694.933 -2.44663 -2.4649 0
M  V30 7764 C 693.887 -3.59612 -2.32085 0
M  V30 7765 C 693.213 -3.8642 -3.69573 0
M  V30 7766 C 694.513 -4.91149 -1.7768 0
M  V30 7767 H 696.207 -2.89785 -0.752665 0
M  V30 7768 H 693.753 -1.39412 -0.360609 0
M  V30 7769 H 695.706 -2.75857 -3.18561 0
M  V30 7770 H 694.43 -1.55628 -2.87137 0
M  V30 7771 H 693.089 -3.28636 -1.62461 0
M  V30 7772 H 692.737 -2.94581 -4.07715 0
M  V30 7773 H 692.437 -4.63797 -3.60786 0
M  V30 7774 H 693.961 -4.2007 -4.4314 0
M  V30 7775 H 695.375 -5.20843 -2.39574 0
M  V30 7776 H 693.772 -5.72562 -1.79701 0
M  V30 7777 H 694.842 -4.79301 -0.734776 0
M  V30 7778 N 696.185 0.383891 -1.52853 0
M  V30 7779 C 697.601 0.724316 -1.42218 0
M  V30 7780 C 697.801 1.93943 -0.546654 0
M  V30 7781 O 696.857 2.5249 -0.0220562 0
M  V30 7782 C 698.17 0.954635 -2.85144 0
M  V30 7783 C 699.718 1.05579 -2.94656 0
M  V30 7784 C 700.193 1.3187 -4.38605 0
M  V30 7785 N 701.684 1.38681 -4.41952 0
M  V30 7786 C 702.419 1.60699 -5.50421 0
M  V30 7787 N 701.915 1.80154 -6.68967 0
M  V30 7788 N 703.708 1.6292 -5.37972 0
M  V30 7789 H 695.859 -0.4156 -2.08294 0
M  V30 7790 H 698.122 -0.123776 -0.939885 0
M  V30 7791 H 697.828 0.133829 -3.51445 0
M  V30 7792 H 697.702 1.86788 -3.27704 0
M  V30 7793 H 700.089 1.86716 -2.2852 0
M  V30 7794 H 700.17 0.120338 -2.55517 0
M  V30 7795 H 699.814 0.512416 -5.05309 0
M  V30 7796 H 699.744 2.26708 -4.75301 0
M  V30 7797 H 702.235 1.25334 -3.56511 0
M  V30 7798 H 702.548 1.96476 -7.47407 0
M  V30 7799 H 700.893 1.77368 -6.71986 0
M  V30 7800 H 704.084 1.47276 -4.44328 0
M  V30 7801 H 704.257 1.79739 -6.22574 0
M  V30 7802 N 697.663 1.43903 0.642637 0
M  V30 7803 C 698.61 1.49881 1.75512 0
M  V30 7804 C 699.58 0.347538 1.62423 0
M  V30 7805 O 700.765 0.556177 1.82514 0
M  V30 7806 C 697.905 1.43797 3.13714 0
M  V30 7807 C 697.018 2.6921 3.37861 0
M  V30 7808 C 696.153 2.5504 4.6597 0
M  V30 7809 C 695.192 3.75671 4.83257 0
M  V30 7810 N 694.329 3.60247 6.02633 0
M  V30 7811 H 699.169 2.44935 1.69737 0
M  V30 7812 H 696.706 1.21572 0.828165 0
M  V30 7813 H 698.664 1.38262 3.93624 0
M  V30 7814 H 697.294 0.523173 3.18532 0
M  V30 7815 H 696.346 2.8498 2.51973 0
M  V30 7816 H 697.658 3.58786 3.46517 0
M  V30 7817 H 696.812 2.47273 5.54023 0
M  V30 7818 H 695.551 1.63006 4.59653 0
M  V30 7819 H 694.556 3.83836 3.93637 0
M  V30 7820 H 695.781 4.68728 4.91397 0
M  V30 7821 H 693.727 2.70955 5.97427 0
M  V30 7822 H 693.644 4.43431 6.12295 0
M  V30 7823 H 694.912 3.56351 6.93278 0
M  V30 7824 N 699.141 -0.881989 1.30609 0
M  V30 7825 C 700.369 -1.66711 1.22536 0
M  V30 7826 C 700.784 -1.87614 -0.2113 0
M  V30 7827 O 700.141 -1.42576 -1.13923 0
M  V30 7828 C 700.192 -3.04182 1.95335 0
M  V30 7829 O 699.913 -2.8422 3.33393 0
M  V30 7830 C 701.414 -3.98617 1.93956 0
M  V30 7831 H 698.634 -0.520124 0.423925 0
M  V30 7832 H 701.178 -1.10174 1.72285 0
M  V30 7833 H 699.333 -3.57442 1.49378 0
M  V30 7834 H 699.747 -3.71452 3.70302 0
M  V30 7835 H 701.221 -4.92433 2.49426 0
M  V30 7836 H 701.698 -4.29473 0.919198 0
M  V30 7837 H 702.304 -3.51292 2.39738 0
M  V30 7838 N 700.619 -1.13374 -1.09472 0
M  V30 7839 C 701.865 -0.896516 -1.81908 0
M  V30 7840 C 702.198 0.575933 -1.85463 0
M  V30 7841 O 701.473 1.42618 -1.32251 0
M  V30 7842 C 701.756 -1.48445 -3.28079 0
M  V30 7843 C 701.609 -3.02598 -3.32798 0
M  V30 7844 C 702.928 -1.15226 -4.24748 0
M  V30 7845 H 700.047 -0.327127 -0.660422 0
M  V30 7846 H 702.689 -1.40195 -1.2824 0
M  V30 7847 H 700.839 -1.0546 -3.73912 0
M  V30 7848 H 702.511 -3.54335 -2.95372 0
M  V30 7849 H 700.754 -3.37613 -2.72397 0
M  V30 7850 H 701.425 -3.38835 -4.3577 0
M  V30 7851 H 703.901 -1.52369 -3.87199 0
M  V30 7852 H 702.777 -1.59012 -5.25363 0
M  V30 7853 H 703.038 -0.0658891 -4.42051 0
M  V30 7854 N 702.098 1.27442 -0.927168 0
M  V30 7855 C 703.045 2.26863 -0.424459 0
M  V30 7856 C 704.015 1.5813 0.508346 0
M  V30 7857 O 705.2 1.85946 0.42762 0
M  V30 7858 C 702.34 3.43639 0.31718 0
M  V30 7859 C 701.453 4.27087 -0.649675 0
M  V30 7860 C 700.588 5.31082 0.111753 0
M  V30 7861 C 699.627 6.062 -0.847843 0
M  V30 7862 N 698.764 7.01999 -0.119074 0
M  V30 7863 H 703.604 2.69239 -1.27728 0
M  V30 7864 H 701.141 1.32394 -0.641106 0
M  V30 7865 H 703.099 4.10155 0.763486 0
M  V30 7866 H 701.729 3.02217 1.13424 0
M  V30 7867 H 700.781 3.60491 -1.21451 0
M  V30 7868 H 702.093 4.79242 -1.38307 0
M  V30 7869 H 701.247 6.03544 0.618 0
M  V30 7870 H 699.986 4.7973 0.878114 0
M  V30 7871 H 698.991 5.32577 -1.36534 0
M  V30 7872 H 700.216 6.59642 -1.61398 0
M  V30 7873 H 698.162 6.52977 0.629051 0
M  V30 7874 H 698.079 7.5184 -0.792046 0
M  V30 7875 H 699.347 7.78638 0.366537 0
M  V30 7876 N 703.576 0.692616 1.41565 0
M  V30 7877 C 704.853 0.150496 1.9502 0
M  V30 7878 C 705.233 -1.33881 1.63215 0
M  V30 7879 O 704.581 -2.08378 0.937598 0
M  V30 7880 C 704.791 0.438636 3.46233 0
M  V30 7881 C 706.139 0.364777 4.2303 0
M  V30 7882 O 707.163 0.373383 3.54238 0
M  V30 7883 O 706.022 0.32234 5.45549 0
M  V30 7884 H 703.116 0.0132454 0.826894 0
M  V30 7885 H 705.662 0.768574 1.51298 0
M  V30 7886 H 704.434 1.46962 3.62654 0
M  V30 7887 H 704.057 -0.210562 3.97042 0
M  V30 7888 N 705.054 -1.51416 0.437162 0
M  V30 7889 C 705.964 -2.31493 -0.380537 0
M  V30 7890 C 706.98 -1.40399 -1.02782 0
M  V30 7891 O 708.156 -1.73471 -1.02323 0
M  V30 7892 C 705.221 -3.1413 -1.46709 0
M  V30 7893 C 704.282 -4.21003 -0.839953 0
M  V30 7894 C 703.515 -4.9969 -1.87473 0
M  V30 7895 O 703.738 -4.79008 -3.09689 0
M  V30 7896 O 702.672 -5.8379 -1.46536 0
M  V30 7897 H 706.498 -3.02469 0.273183 0
M  V30 7898 H 704.083 -1.48059 0.199706 0
M  V30 7899 H 705.965 -3.65505 -2.09724 0
M  V30 7900 H 704.64 -2.45919 -2.10489 0
M  V30 7901 H 703.547 -3.73706 -0.171752 0
M  V30 7902 H 704.88 -4.91587 -0.245638 0
M  V30 7903 N 706.532 -0.168513 -1.56696 0
M  V30 7904 C 707.495 0.748928 -2.16619 0
M  V30 7905 C 708.495 1.16007 -1.11351 0
M  V30 7906 O 709.685 1.07748 -1.3688 0
M  V30 7907 C 706.817 2.01904 -2.74677 0
M  V30 7908 H 708.01 0.227317 -2.99037 0
M  V30 7909 H 705.563 0.0810372 -1.5609 0
M  V30 7910 H 706.298 2.58381 -1.95985 0
M  V30 7911 H 706.083 1.73323 -3.51712 0
M  V30 7912 H 707.573 2.67383 -3.20774 0
M  V30 7913 N 708.01 1.57248 0.105221 0
M  V30 7914 C 708.96 1.9777 1.1345 0
M  V30 7915 C 709.944 0.854654 1.36325 0
M  V30 7916 O 711.136 1.11844 1.37186 0
M  V30 7917 C 708.265 2.39717 2.45745 0
M  V30 7918 C 707.351 3.58686 2.26286 0
M  V30 7919 N 707.742 4.73942 1.76671 0
M  V30 7920 C 706.04 3.64586 2.56891 0
M  V30 7921 C 706.741 5.55923 1.71245 0
M  V30 7922 N 705.717 4.98803 2.16093 0
M  V30 7923 H 709.519 2.84336 0.743664 0
M  V30 7924 H 707.033 1.59359 0.312787 0
M  V30 7925 H 709.03 2.66971 3.20206 0
M  V30 7926 H 707.69 1.54523 2.85574 0
M  V30 7927 H 708.701 4.9689 1.46016 0
M  V30 7928 H 705.378 2.90031 3.00314 0
M  V30 7929 H 706.768 6.58398 1.34022 0
M  V30 7930 N 709.488 -0.375779 1.53054 0
M  V30 7931 C 710.42 -1.47963 1.75042 0
M  V30 7932 C 711.433 -1.50073 0.631031 0
M  V30 7933 O 712.622 -1.53736 0.907052 0
M  V30 7934 C 709.722 -2.86767 1.80604 0
M  V30 7935 C 708.895 -3.08471 3.10104 0
M  V30 7936 C 707.954 -4.27332 3.07041 0
M  V30 7937 O 706.98 -4.22998 3.80869 0
M  V30 7938 N 708.182 -5.34214 2.27147 0
M  V30 7939 H 710.947 -1.29484 2.70285 0
M  V30 7940 H 708.508 -0.565416 1.51706 0
M  V30 7941 H 710.5 -3.64404 1.76045 0
M  V30 7942 H 709.07 -2.98542 0.926897 0
M  V30 7943 H 708.29 -2.18583 3.28048 0
M  V30 7944 H 709.578 -3.19834 3.95706 0
M  V30 7945 H 708.976 -5.40594 1.66656 0
M  V30 7946 H 707.533 -6.10467 2.28415 0
M  V30 7947 N 710.966 -1.44241 -0.634997 0
M  V30 7948 C 711.929 -1.50457 -1.72903 0
M  V30 7949 C 712.929 -0.387058 -1.56072 0
M  V30 7950 O 714.119 -0.649531 -1.61638 0
M  V30 7951 C 711.251 -1.37477 -3.1195 0
M  V30 7952 H 712.444 -2.47907 -1.68767 0
M  V30 7953 H 709.997 -1.31276 -0.84831 0
M  V30 7954 H 710.732 -0.41106 -3.21684 0
M  V30 7955 H 710.517 -2.18506 -3.25573 0
M  V30 7956 H 712.007 -1.44799 -3.91692 0
M  V30 7957 N 712.444 0.87505 -1.31075 0
M  V30 7958 C 713.376 1.98773 -1.14114 0
M  V30 7959 C 714.389 1.62595 -0.0816119 0
M  V30 7960 O 715.578 1.75449 -0.32861 0
M  V30 7961 C 712.678 3.31159 -0.720224 0
M  V30 7962 C 711.851 3.9571 -1.86366 0
M  V30 7963 C 710.91 5.06407 -1.42965 0
M  V30 7964 O 709.936 5.27501 -2.13848 0
M  V30 7965 N 711.138 5.79649 -0.314194 0
M  V30 7966 H 713.903 2.1387 -2.09951 0
M  V30 7967 H 711.464 1.04873 -1.23342 0
M  V30 7968 H 713.456 4.0259 -0.412687 0
M  V30 7969 H 712.026 3.12257 0.146396 0
M  V30 7970 H 711.246 3.17324 -2.33879 0
M  V30 7971 H 712.534 4.35576 -2.62966 0
M  V30 7972 H 711.932 5.65025 0.276228 0
M  V30 7973 H 710.489 6.51766 -0.0661641 0
M  V30 7974 N 713.922 1.13953 1.08869 0
M  V30 7975 C 714.869 0.82213 2.15661 0
M  V30 7976 C 715.839 -0.218274 1.6466 0
M  V30 7977 O 717.024 -0.0892475 1.90591 0
M  V30 7978 C 714.164 0.300572 3.43789 0
M  V30 7979 C 713.277 1.40071 4.08661 0
M  V30 7980 C 712.412 0.836897 5.24566 0
M  V30 7981 C 711.451 1.91504 5.81371 0
M  V30 7982 N 710.588 1.36875 6.88629 0
M  V30 7983 H 715.428 1.73683 2.42153 0
M  V30 7984 H 712.965 0.866879 1.18843 0
M  V30 7985 H 714.923 -0.0199943 4.17195 0
M  V30 7986 H 713.553 -0.577248 3.17597 0
M  V30 7987 H 712.605 1.83776 3.33062 0
M  V30 7988 H 713.917 2.21534 4.46905 0
M  V30 7989 H 713.071 0.467953 6.04893 0
M  V30 7990 H 711.81 -0.00874207 4.87699 0
M  V30 7991 H 710.815 2.29299 4.99702 0
M  V30 7992 H 712.04 2.76419 6.20298 0
M  V30 7993 H 709.986 0.545211 6.5373 0
M  V30 7994 H 709.903 2.1198 7.25672 0
M  V30 7995 H 711.171 1.02756 7.72698 0
M  V30 7996 N 715.4 -1.26948 0.933913 0
M  V30 7997 C 716.677 -1.89212 0.495784 0
M  V30 7998 C 717.057 -1.84469 -1.02637 0
M  V30 7999 O 716.405 -1.29409 -1.88323 0
M  V30 8000 C 716.615 -3.32865 1.0489 0
M  V30 8001 C 717.963 -4.09749 1.11315 0
M  V30 8002 O 718.987 -3.41905 0.998966 0
M  V30 8003 O 717.846 -5.31061 1.28983 0
M  V30 8004 H 714.94 -0.811284 0.160459 0
M  V30 8005 H 717.486 -1.35171 1.02601 0
M  V30 8006 H 716.258 -3.30642 2.09265 0
M  V30 8007 H 715.881 -3.94435 0.500692 0
M  V30 8008 N 716.879 -0.700114 -1.41195 0
M  V30 8009 C 718.29 -0.307249 -1.84154 0
M  V30 8010 C 718.641 1.15539 -1.58572 0
M  V30 8011 O 717.766 1.88744 -1.05852 0
M  V30 8012 C 718.361 -0.550872 -3.34292 0
M  V30 8013 C 716.92 -0.211877 -3.75803 0
M  V30 8014 C 716.067 -0.830915 -2.64558 0
M  V30 8015 H 719.018 -0.900431 -1.30683 0
M  V30 8016 H 719.039 0.188954 -3.80031 0
M  V30 8017 H 718.551 -1.61548 -3.5288 0
M  V30 8018 H 716.652 0.848283 -3.62815 0
M  V30 8019 H 716.765 -0.67007 -4.74391 0
M  V30 8020 H 715.129 -0.260155 -2.53368 0
M  V30 8021 H 715.912 -1.89948 -2.85963 0
M  V30 8022 N 718.357 1.51182 -0.445186 0
M  V30 8023 C 719.304 2.27939 0.362291 0
M  V30 8024 C 720.274 1.31864 1.01 0
M  V30 8025 O 721.459 1.60776 1.02741 0
M  V30 8026 C 718.599 3.13016 1.45311 0
M  V30 8027 C 717.712 4.24093 0.822757 0
M  V30 8028 C 716.847 4.96467 1.88928 0
M  V30 8029 C 715.886 5.99454 1.23778 0
M  V30 8030 N 715.023 6.65206 2.24602 0
M  V30 8031 H 719.863 2.965 -0.29862 0
M  V30 8032 H 717.4 1.46237 -0.15911 0
M  V30 8033 H 719.358 3.60673 2.09692 0
M  V30 8034 H 717.988 2.46553 2.08354 0
M  V30 8035 H 717.04 3.80341 0.0670364 0
M  V30 8036 H 718.352 4.97853 0.307184 0
M  V30 8037 H 717.506 5.47712 2.60953 0
M  V30 8038 H 716.245 4.22355 2.4386 0
M  V30 8039 H 715.25 5.47494 0.503042 0
M  V30 8040 H 716.475 6.75527 0.695694 0
M  V30 8041 H 714.421 5.93901 2.78599 0
M  V30 8042 H 714.338 7.34756 1.77958 0
M  V30 8043 H 715.606 7.21078 2.96085 0
M  V30 8044 N 719.835 0.176821 1.56605 0
M  V30 8045 C 720.782 -0.751312 2.18229 0
M  V30 8046 C 721.752 -1.22297 1.12395 0
M  V30 8047 O 722.937 -1.29015 1.40569 0
M  V30 8048 C 720.077 -1.97291 2.83143 0
M  V30 8049 C 719.19 -1.54431 4.03454 0
M  V30 8050 C 718.325 -2.72 4.56278 0
M  V30 8051 C 717.364 -2.25657 5.68986 0
M  V30 8052 N 716.501 -3.36338 6.16296 0
M  V30 8053 H 721.341 -0.219033 2.97194 0
M  V30 8054 H 718.878 -0.0963803 1.46784 0
M  V30 8055 H 720.836 -2.68949 3.1894 0
M  V30 8056 H 719.466 -2.4788 2.06773 0
M  V30 8057 H 718.518 -0.724273 3.73441 0
M  V30 8058 H 719.83 -1.16417 4.85024 0
M  V30 8059 H 718.984 -3.51806 4.94285 0
M  V30 8060 H 717.723 -3.13277 3.73777 0
M  V30 8061 H 716.728 -1.44299 5.30526 0
M  V30 8062 H 717.953 -1.85432 6.53293 0
M  V30 8063 H 715.899 -3.7718 5.36723 0
M  V30 8064 H 715.816 -3.02435 6.9287 0
M  V30 8065 H 717.084 -4.16413 6.58954 0
M  V30 8066 N 721.313 -1.57302 -0.09688 0
M  V30 8067 C 722.59 -1.7701 -0.832272 0
M  V30 8068 C 722.97 -0.758025 -1.97021 0
M  V30 8069 O 722.318 0.213824 -2.27497 0
M  V30 8070 C 722.528 -3.22725 -1.32851 0
M  V30 8071 C 723.876 -3.85856 -1.772 0
M  V30 8072 O 724.9 -3.26464 -1.42478 0
M  V30 8073 O 723.759 -4.90295 -2.41398 0
M  V30 8074 H 720.853 -0.725558 -0.396856 0
M  V30 8075 H 723.399 -1.69516 -0.0789005 0
M  V30 8076 H 722.171 -3.87921 -0.51312 0
M  V30 8077 H 721.794 -3.34845 -2.14394 0
M  V30 8078 N 722.791 0.367657 -1.53252 0
M  V30 8079 C 724.207 0.709191 -1.42978 0
M  V30 8080 C 724.407 1.93352 -0.567193 0
M  V30 8081 O 723.463 2.52453 -0.0488349 0
M  V30 8082 C 724.776 0.924338 -2.86141 0
M  V30 8083 C 726.324 1.02448 -2.95759 0
M  V30 8084 C 726.799 1.27211 -4.39979 0
M  V30 8085 N 728.29 1.33986 -4.43398 0
M  V30 8086 C 729.025 1.54852 -5.52095 0
M  V30 8087 N 728.521 1.73049 -6.7084 0
M  V30 8088 N 730.314 1.57205 -5.39669 0
M  V30 8089 H 722.465 -0.437669 -2.07842 0
M  V30 8090 H 724.728 -0.133737 -0.938519 0
M  V30 8091 H 724.434 0.0965455 -3.51567 0
M  V30 8092 H 724.308 1.83302 -3.29667 0
M  V30 8093 H 726.695 1.84282 -2.30487 0
M  V30 8094 H 726.776 0.0932301 -2.5563 0
M  V30 8095 H 726.42 0.458792 -5.05824 0
M  V30 8096 H 726.35 2.21654 -4.77679 0
M  V30 8097 H 728.841 1.21545 -3.5782 0
M  V30 8098 H 729.154 1.88538 -7.49449 0
M  V30 8099 H 727.499 1.70231 -6.7383 0
M  V30 8100 H 730.69 1.42555 -4.45865 0
M  V30 8101 H 730.863 1.73126 -6.24445 0
M  V30 8102 N 724.269 1.44576 0.627338 0
M  V30 8103 C 725.68 1.42266 1.20902 0
M  V30 8104 C 726.031 0.139964 1.957 0
M  V30 8105 O 725.156 -0.759489 2.02634 0
M  V30 8106 C 725.751 2.57727 2.19914 0
M  V30 8107 C 724.31 2.58599 2.73502 0
M  V30 8108 C 723.457 2.34145 1.48564 0
M  V30 8109 H 726.408 1.53102 0.417791 0
M  V30 8110 H 726.429 2.30697 3.02588 0
M  V30 8111 H 725.941 3.51068 1.65447 0
M  V30 8112 H 724.042 1.6921 3.31962 0
M  V30 8113 H 724.155 3.57205 3.19282 0
M  V30 8114 H 722.519 1.83313 1.76829 0
M  V30 8115 H 723.302 3.29606 0.959935 0
M  V30 8116 N 725.747 -0.868086 1.31537 0
M  V30 8117 C 726.677 -1.99131 1.21939 0
M  V30 8118 C 727.658 -1.69768 0.106166 0
M  V30 8119 O 728.843 -1.92006 0.291081 0
M  V30 8120 C 725.973 -3.34676 0.927879 0
M  V30 8121 C 724.927 -3.7835 2.00088 0
M  V30 8122 C 724.253 -5.11375 1.56203 0
M  V30 8123 C 725.553 -3.95256 3.41424 0
M  V30 8124 H 727.247 -2.07419 2.15911 0
M  V30 8125 H 724.793 -0.996569 1.03945 0
M  V30 8126 H 726.746 -4.12793 0.847327 0
M  V30 8127 H 725.47 -3.26565 -0.0475042 0
M  V30 8128 H 724.129 -3.02474 2.07135 0
M  V30 8129 H 723.777 -4.99709 0.57445 0
M  V30 8130 H 723.477 -5.41568 2.27985 0
M  V30 8131 H 725.001 -5.92001 1.49558 0
M  V30 8132 H 726.415 -4.63764 3.3704 0
M  V30 8133 H 724.812 -4.36849 4.1144 0
M  V30 8134 H 725.882 -2.98579 3.82072 0
M  V30 8135 N 727.225 -1.14528 -1.08264 0
M  V30 8136 C 728.188 -0.83632 -2.13397 0
M  V30 8137 C 729.188 0.159715 -1.60005 0
M  V30 8138 O 730.378 -0.0688098 -1.74064 0
M  V30 8139 C 727.51 -0.246973 -3.40004 0
M  V30 8140 H 728.703 -1.76808 -2.42237 0
M  V30 8141 H 726.256 -0.951509 -1.24 0
M  V30 8142 H 726.991 0.693436 -3.168 0
M  V30 8143 H 726.776 -0.964412 -3.80055 0
M  V30 8144 H 728.266 -0.0480679 -4.17572 0
M  V30 8145 N 728.703 1.26451 -0.940633 0
M  V30 8146 C 730.119 1.4608 -0.642859 0
M  V30 8147 C 730.319 1.84765 0.803998 0
M  V30 8148 O 729.375 1.96902 1.58069 0
M  V30 8149 C 730.688 2.54359 -1.60381 0
M  V30 8150 C 732.236 2.6821 -1.61345 0
M  V30 8151 C 732.711 3.79659 -2.56169 0
M  V30 8152 N 734.202 3.87051 -2.54452 0
M  V30 8153 C 734.937 4.72739 -3.24507 0
M  V30 8154 N 734.433 5.6282 -4.03987 0
M  V30 8155 N 736.226 4.66581 -3.13462 0
M  V30 8156 H 728.377 0.996289 -1.87584 0
M  V30 8157 H 730.64 0.498921 -0.80609 0
M  V30 8158 H 730.346 2.32758 -2.6366 0
M  V30 8159 H 730.22 3.52005 -1.35545 0
M  V30 8160 H 732.607 2.89184 -0.587913 0
M  V30 8161 H 732.688 1.7101 -1.90235 0
M  V30 8162 H 732.332 3.59438 -3.58841 0
M  V30 8163 H 732.262 4.76315 -2.2457 0
M  V30 8164 H 734.753 3.22649 -1.96739 0
M  V30 8165 H 735.066 6.25095 -4.54396 0
M  V30 8166 H 733.411 5.62574 -4.08088 0
M  V30 8167 H 736.602 3.9521 -2.50852 0
M  V30 8168 H 736.775 5.33141 -3.68327 0
M  V30 8169 N 730.181 0.707592 1.40822 0
M  V30 8170 C 731.597 0.38034 1.55002 0
M  V30 8171 C 731.797 -1.11163 1.68062 0
M  V30 8172 O 730.853 -1.89761 1.66574 0
M  V30 8173 C 732.166 1.1394 2.78277 0
M  V30 8174 C 733.714 1.12492 2.92087 0
M  V30 8175 C 734.189 1.86597 4.18265 0
M  V30 8176 N 735.68 1.83626 4.25248 0
M  V30 8177 C 736.415 2.37794 5.21768 0
M  V30 8178 N 735.911 3.00485 6.24244 0
M  V30 8179 N 737.704 2.27982 5.13791 0
M  V30 8180 H 729.855 1.67511 1.3059 0
M  V30 8181 H 732.118 0.707579 0.630901 0
M  V30 8182 H 731.824 2.19398 2.74877 0
M  V30 8183 H 731.698 0.725793 3.70151 0
M  V30 8184 H 734.085 0.0785564 2.94995 0
M  V30 8185 H 734.166 1.57768 2.01353 0
M  V30 8186 H 733.81 2.91219 4.16118 0
M  V30 8187 H 733.74 1.38746 5.07993 0
M  V30 8188 H 736.231 1.3793 3.51829 0
M  V30 8189 H 736.544 3.39355 6.94304 0
M  V30 8190 H 734.889 3.04567 6.24711 0
M  V30 8191 H 738.08 1.78669 4.3266 0
M  V30 8192 H 738.253 2.70499 5.88841 0
M  V30 8193 N 731.66 -1.50943 0.453197 0
M  V30 8194 C 732.607 -2.28128 -0.350197 0
M  V30 8195 C 733.577 -1.32398 -1.00299 0
M  V30 8196 O 734.762 -1.61319 -1.01887 0
M  V30 8197 C 731.902 -3.13782 -1.43649 0
M  V30 8198 C 731.015 -4.24523 -0.800255 0
M  V30 8199 C 730.15 -4.97462 -1.86293 0
M  V30 8200 C 729.189 -6.00102 -1.20598 0
M  V30 8201 N 728.326 -6.66387 -2.21071 0
M  V30 8202 H 733.166 -2.96337 0.31434 0
M  V30 8203 H 730.703 -1.46151 0.166863 0
M  V30 8204 H 732.661 -3.6178 -2.07776 0
M  V30 8205 H 731.291 -2.47655 -2.07044 0
M  V30 8206 H 730.343 -3.80371 -0.0468651 0
M  V30 8207 H 731.655 -4.98009 -0.280777 0
M  V30 8208 H 730.809 -5.49088 -2.58044 0
M  V30 8209 H 729.548 -4.23642 -2.41617 0
M  V30 8210 H 728.553 -5.47753 -0.474 0
M  V30 8211 H 729.778 -6.75887 -0.659859 0
M  V30 8212 H 727.724 -5.9537 -2.75446 0
M  V30 8213 H 727.641 -7.3569 -1.74058 0
M  V30 8214 H 728.909 -7.22638 -2.92257 0
M  V30 8215 N 733.138 -0.185124 -1.56509 0
M  V30 8216 C 734.363 0.465278 -2.02114 0
M  V30 8217 C 734.788 1.55083 -1.06447 0
M  V30 8218 O 734.146 1.81241 -0.0462852 0
M  V30 8219 C 734.194 1.00784 -3.46229 0
M  V30 8220 O 733.298 2.12123 -3.53663 0
M  V30 8221 H 732.639 0.109891 -0.654843 0
M  V30 8222 H 735.169 -0.293072 -2.0249 0
M  V30 8223 H 735.179 1.32697 -3.85818 0
M  V30 8224 H 733.854 0.213113 -4.15354 0
M  V30 8225 H 732.431 1.8115 -3.25943 0
M  V30 8226 N 734.616 1.57351 0.0885366 0
M  V30 8227 C 735.526 2.05858 1.12516 0
M  V30 8228 C 736.542 0.984758 1.43452 0
M  V30 8229 O 737.718 1.29836 1.53963 0
M  V30 8230 C 734.783 2.47882 2.42395 0
M  V30 8231 C 733.844 3.69487 2.18582 0
M  V30 8232 C 733.077 4.09497 3.42268 0
M  V30 8233 O 733.3 3.49536 4.50755 0
M  V30 8234 O 732.234 5.02406 3.31469 0
M  V30 8235 H 736.06 2.94467 0.743146 0
M  V30 8236 H 733.645 1.46326 0.301507 0
M  V30 8237 H 735.527 2.75509 3.18862 0
M  V30 8238 H 734.202 1.62408 2.8001 0
M  V30 8239 H 733.109 3.46967 1.39875 0
M  V30 8240 H 734.442 4.55761 1.85857 0
M  V30 8241 N 736.094 -0.359525 1.53444 0
M  V30 8242 C 737.024 -1.44662 1.8329 0
M  V30 8243 C 738.005 -1.55617 0.68683 0
M  V30 8244 O 739.19 -1.70086 0.93725 0
M  V30 8245 C 736.32 -2.81923 2.02822 0
M  V30 8246 C 735.274 -2.85787 3.18606 0
M  V30 8247 C 734.6 -4.25781 3.23442 0
M  V30 8248 C 735.9 -2.52762 4.57065 0
M  V30 8249 H 737.594 -1.19934 2.74329 0
M  V30 8250 H 735.14 -0.575517 1.31999 0
M  V30 8251 H 737.093 -3.58005 2.22285 0
M  V30 8252 H 735.817 -3.08051 1.085 0
M  V30 8253 H 734.476 -2.12157 2.98973 0
M  V30 8254 H 734.124 -4.48994 2.26745 0
M  V30 8255 H 733.824 -4.29281 4.01238 0
M  V30 8256 H 735.348 -5.03727 3.45096 0
M  V30 8257 H 736.762 -3.18557 4.76649 0
M  V30 8258 H 735.159 -2.67569 5.37147 0
M  V30 8259 H 736.229 -1.47993 4.61764 0
M  V30 8260 N 737.572 -1.44907 -0.619662 0
M  V30 8261 C 738.983 -1.42905 -1.20146 0
M  V30 8262 C 739.334 -0.150341 -1.95623 0
M  V30 8263 O 738.459 0.748732 -2.03034 0
M  V30 8264 C 739.054 -2.58889 -2.18545 0
M  V30 8265 C 737.613 -2.60046 -2.72127 0
M  V30 8266 C 736.76 -2.3493 -1.4732 0
M  V30 8267 H 739.711 -1.53321 -0.409666 0
M  V30 8268 H 739.732 -2.32298 -3.0136 0
M  V30 8269 H 739.244 -3.51941 -1.63583 0
M  V30 8270 H 737.345 -1.70968 -3.3106 0
M  V30 8271 H 737.458 -3.58893 -3.17384 0
M  V30 8272 H 735.822 -1.84248 -1.75855 0
M  V30 8273 H 736.605 -3.3011 -0.942442 0
M  V30 8274 N 739.05 0.861098 -1.31996 0
M  V30 8275 C 739.982 1.97551 -1.16216 0
M  V30 8276 C 740.995 1.625 -0.0988527 0
M  V30 8277 O 742.184 1.75091 -0.3472 0
M  V30 8278 C 739.284 3.30376 -0.755307 0
M  V30 8279 C 738.457 3.93711 -1.90552 0
M  V30 8280 C 737.516 5.04862 -1.48328 0
M  V30 8281 O 736.542 5.25204 -2.19431 0
M  V30 8282 N 737.744 5.79283 -0.375656 0
M  V30 8283 H 740.509 2.11632 -2.12208 0
M  V30 8284 H 738.07 1.03559 -1.24448 0
M  V30 8285 H 740.062 4.0213 -0.455364 0
M  V30 8286 H 738.632 3.12395 0.113269 0
M  V30 8287 H 737.852 3.14825 -2.37231 0
M  V30 8288 H 739.14 4.32762 -2.67571 0
M  V30 8289 H 738.538 5.65286 0.216284 0
M  V30 8290 H 737.095 6.5166 -0.135289 0
M  V30 8291 N 740.528 1.15101 1.07655 0
M  V30 8292 C 741.805 0.834578 1.76902 0
M  V30 8293 C 742.185 -0.670431 2.00171 0
M  V30 8294 O 741.533 -1.61378 1.6177 0
M  V30 8295 C 741.743 1.64191 3.07965 0
M  V30 8296 C 743.091 1.84615 3.82364 0
M  V30 8297 O 744.115 1.60941 3.17768 0
M  V30 8298 O 742.974 2.24244 4.98374 0
M  V30 8299 H 740.068 0.306608 0.768063 0
M  V30 8300 H 742.614 1.25663 1.14048 0
M  V30 8301 H 741.386 2.66386 2.86626 0
M  V30 8302 H 741.009 1.216 3.78549 0
M  V30 8303 N 742.006 -1.2595 0.947325 0
M  V30 8304 C 743.417 -1.75389 0.639963 0
M  V30 8305 C 743.768 -1.77081 -0.844788 0
M  V30 8306 O 742.893 -1.3869 -1.66114 0
M  V30 8307 C 743.488 -3.18506 1.15496 0
M  V30 8308 C 742.047 -3.65534 0.897894 0
M  V30 8309 C 741.194 -2.44818 1.30228 0
M  V30 8310 H 744.145 -1.1194 1.12495 0
M  V30 8311 H 744.166 -3.77045 0.511627 0
M  V30 8312 H 743.678 -3.17243 2.23559 0
M  V30 8313 H 741.779 -3.72221 -0.168096 0
M  V30 8314 H 741.892 -4.54039 1.52922 0
M  V30 8315 H 740.256 -2.44291 0.720678 0
M  V30 8316 H 741.039 -2.46251 2.39198 0
M  V30 8317 N 743.484 -0.715051 -1.40445 0
M  V30 8318 C 744.434 -0.038591 -2.27967 0
M  V30 8319 C 745.418 0.733099 -1.43229 0
M  V30 8320 O 746.61 0.605388 -1.66325 0
M  V30 8321 C 743.739 0.882801 -3.31755 0
M  V30 8322 C 742.825 0.106325 -4.23967 0
M  V30 8323 N 743.216 -0.910143 -4.97544 0
M  V30 8324 C 741.514 0.33896 -4.4471 0
M  V30 8325 C 742.215 -1.37665 -5.65175 0
M  V30 8326 N 741.191 -0.698905 -5.39088 0
M  V30 8327 H 744.993 -0.81765 -2.82297 0
M  V30 8328 H 742.507 -0.547591 -1.5289 0
M  V30 8329 H 744.504 1.38273 -3.93302 0
M  V30 8330 H 743.164 1.66124 -2.78985 0
M  V30 8331 H 744.175 -1.29097 -5.01552 0
M  V30 8332 H 740.852 1.09377 -4.02918 0
M  V30 8333 H 742.242 -2.22122 -6.34123 0
M  V30 8334 N 744.962 1.50701 -0.461195 0
M  V30 8335 C 746.19 2.06681 0.0951756 0
M  V30 8336 C 746.605 1.32615 1.34382 0
M  V30 8337 O 745.962 0.392531 1.78229 0
M  V30 8338 C 746.013 3.59354 0.393316 0
M  V30 8339 O 745.734 4.30626 -0.805797 0
M  V30 8340 C 747.235 4.31926 0.997744 0
M  V30 8341 H 744.455 0.670995 -0.00267259 0
M  V30 8342 H 746.999 1.93991 -0.647137 0
M  V30 8343 H 745.154 3.7188 1.08555 0
M  V30 8344 H 745.568 5.21667 -0.544409 0
M  V30 8345 H 747.042 5.39756 1.15619 0
M  V30 8346 H 747.519 3.91772 1.98523 0
M  V30 8347 H 748.125 4.23905 0.344188 0
M  V30 8348 N 746.441 0.193421 1.56409 0
M  V30 8349 C 747.388 -0.728124 2.19014 0
M  V30 8350 C 748.358 -1.21098 1.13686 0
M  V30 8351 O 749.543 -1.27517 1.4193 0
M  V30 8352 C 746.683 -1.94277 2.8522 0
M  V30 8353 C 745.796 -1.50143 4.05069 0
M  V30 8354 C 744.931 -2.67145 4.59137 0
M  V30 8355 C 743.97 -2.19609 5.71348 0
M  V30 8356 N 743.107 -3.29782 6.19829 0
M  V30 8357 H 747.947 -0.187499 2.9741 0
M  V30 8358 H 745.484 -0.0808064 1.46878 0
M  V30 8359 H 747.442 -2.65551 3.21774 0
M  V30 8360 H 746.072 -2.45673 2.09391 0
M  V30 8361 H 745.124 -0.684624 3.74189 0
M  V30 8362 H 746.436 -1.11266 4.86232 0
M  V30 8363 H 745.59 -3.46544 4.97988 0
M  V30 8364 H 744.329 -3.09295 3.77078 0
M  V30 8365 H 743.334 -1.38664 5.32027 0
M  V30 8366 H 744.559 -1.78492 6.55223 0
M  V30 8367 H 742.505 -3.71466 5.40693 0
M  V30 8368 H 742.422 -2.95069 6.96039 0
M  V30 8369 H 743.69 -4.094 6.63334 0
M  V30 8370 N 747.919 -1.57396 -0.0801906 0
M  V30 8371 C 748.866 -2.03107 -1.09618 0
M  V30 8372 C 749.836 -0.910118 -1.38946 0
M  V30 8373 O 751.021 -1.17719 -1.50156 0
M  V30 8374 C 748.161 -2.47293 -2.40708 0
M  V30 8375 C 747.274 -3.72972 -2.17982 0
M  V30 8376 C 746.409 -4.05975 -3.42576 0
M  V30 8377 C 745.448 -5.24719 -3.15177 0
M  V30 8378 N 744.585 -5.53401 -4.32078 0
M  V30 8379 H 749.425 -2.89677 -0.69939 0
M  V30 8380 H 746.962 -1.43263 -0.333785 0
M  V30 8381 H 748.92 -2.7096 -3.17232 0
M  V30 8382 H 747.55 -1.63713 -2.78205 0
M  V30 8383 H 746.602 -3.56693 -1.32189 0
M  V30 8384 H 747.914 -4.59638 -1.93738 0
M  V30 8385 H 747.068 -4.30498 -4.275 0
M  V30 8386 H 745.807 -3.17859 -3.69887 0
M  V30 8387 H 744.812 -5 -2.28648 0
M  V30 8388 H 746.037 -6.14445 -2.89197 0
M  V30 8389 H 743.983 -4.68245 -4.59437 0
M  V30 8390 H 743.9 -6.34469 -4.11078 0
M  V30 8391 H 745.168 -5.8247 -5.18024 0
M  V30 8392 N 749.397 0.351382 -1.53633 0
M  V30 8393 C 750.36 1.41403 -1.80383 0
M  V30 8394 C 751.36 1.45963 -0.674635 0
M  V30 8395 O 752.55 1.46476 -0.942895 0
M  V30 8396 C 749.682 2.80401 -1.93876 0
M  V30 8397 H 750.875 1.18951 -2.75301 0
M  V30 8398 H 748.428 0.58533 -1.44926 0
M  V30 8399 H 749.163 3.08147 -1.01074 0
M  V30 8400 H 748.948 2.78488 -2.7602 0
M  V30 8401 H 750.438 3.57329 -2.16116 0
M  V30 8402 N 750.875 1.45233 0.611969 0
M  V30 8403 C 751.805 1.5641 1.73373 0
M  V30 8404 C 752.786 0.415896 1.64937 0
M  V30 8405 O 753.971 0.638478 1.83404 0
M  V30 8406 C 751.101 1.52627 3.11965 0
M  V30 8407 C 750.055 2.66119 3.35208 0
M  V30 8408 C 749.381 2.4739 4.74028 0
M  V30 8409 C 750.681 4.08157 3.25891 0
M  V30 8410 H 752.375 2.50307 1.64277 0
M  V30 8411 H 749.921 1.20467 0.788904 0
M  V30 8412 H 751.874 1.59043 3.90235 0
M  V30 8413 H 750.598 0.552564 3.21892 0
M  V30 8414 H 749.257 2.59123 2.59327 0
M  V30 8415 H 748.905 1.48168 4.80682 0
M  V30 8416 H 748.605 3.23494 4.90536 0
M  V30 8417 H 750.129 2.55653 5.54503 0
M  V30 8418 H 751.543 4.1642 3.9404 0
M  V30 8419 H 749.94 4.84617 3.5393 0
M  V30 8420 H 751.01 4.30374 2.23397 0
M  V30 8421 N 752.353 -0.854086 1.3245 0
M  V30 8422 C 753.263 -1.99503 1.23434 0
M  V30 8423 C 754.279 -1.73371 0.147828 0
M  V30 8424 O 755.455 -1.97998 0.368609 0
M  V30 8425 C 752.52 -3.33192 0.958328 0
M  V30 8426 C 751.581 -3.72542 2.13333 0
M  V30 8427 C 750.814 -4.99852 1.8704 0
M  V30 8428 O 751.037 -5.64573 0.813239 0
M  V30 8429 O 749.971 -5.36345 2.73161 0
M  V30 8430 H 753.797 -2.10046 2.1935 0
M  V30 8431 H 751.382 -0.984823 1.12346 0
M  V30 8432 H 753.264 -4.13327 0.820918 0
M  V30 8433 H 751.939 -3.23687 0.0293299 0
M  V30 8434 H 750.846 -2.92981 2.32622 0
M  V30 8435 H 752.179 -3.86694 3.04514 0
M  V30 8436 N 753.831 -1.1567 -1.07043 0
M  V30 8437 C 754.794 -0.858906 -2.12498 0
M  V30 8438 C 755.794 0.142735 -1.60165 0
M  V30 8439 O 756.984 -0.0872678 -1.73981 0
M  V30 8440 C 754.116 -0.283021 -3.39723 0
M  V30 8441 H 755.309 -1.79368 -2.40348 0
M  V30 8442 H 752.862 -0.964608 -1.22984 0
M  V30 8443 H 753.597 0.659796 -3.17517 0
M  V30 8444 H 753.382 -1.00467 -3.7901 0
M  V30 8445 H 754.872 -0.0923543 -4.17498 0
M  V30 8446 N 755.309 1.25446 -0.953992 0
M  V30 8447 C 756.259 2.23627 -0.444413 0
M  V30 8448 C 757.243 1.54004 0.465993 0
M  V30 8449 O 758.435 1.74454 0.29915 0
M  V30 8450 C 755.564 3.42179 0.277175 0
M  V30 8451 C 754.65 4.1907 -0.651263 0
M  V30 8452 N 755.041 4.73346 -1.78262 0
M  V30 8453 C 753.339 4.43628 -0.459338 0
M  V30 8454 C 754.04 5.31576 -2.36224 0
M  V30 8455 N 753.016 5.17991 -1.64884 0
M  V30 8456 H 756.818 2.63197 -1.30785 0
M  V30 8457 H 754.332 1.40677 -0.811402 0
M  V30 8458 H 756.329 4.11653 0.659367 0
M  V30 8459 H 754.989 3.04134 1.13723 0
M  V30 8460 H 756 4.705 -2.1645 0
M  V30 8461 H 752.677 4.15963 0.357885 0
M  V30 8462 H 754.067 5.84361 -3.3162 0
M  V30 8463 N 756.787 0.722489 1.40064 0
M  V30 8464 C 758.027 0.269491 2.02616 0
M  V30 8465 C 758.391 -1.11835 1.56067 0
M  V30 8466 O 759.592 -1.66873 2.1073 0
M  V30 8467 C 757.863 0.354066 3.55642 0
M  V30 8468 S 759.422 -0.0209309 4.38795 0
M  V30 8469 H 756.24 0.106412 0.702992 0
M  V30 8470 H 758.842 0.946237 1.71075 0
M  V30 8471 H 757.546 1.36565 3.87012 0
M  V30 8472 H 757.077 -0.340925 3.9192 0
M  V30 8473 H 759.092 -1.24093 4.80432 0
M  V30 8474 N 758.265 -1.50454 0.469181 0
M  V30 8475 C 759.681 -1.59124 0.123226 0
M  V30 8476 C 759.881 -1.47749 -1.37013 0
M  V30 8477 O 758.937 -1.335 -2.14322 0
M  V30 8478 C 760.25 -2.93101 0.67172 0
M  V30 8479 C 761.798 -3.06491 0.634978 0
M  V30 8480 C 762.273 -4.43041 1.16098 0
M  V30 8481 N 763.764 -4.49448 1.12031 0
M  V30 8482 C 764.499 -5.53491 1.49784 0
M  V30 8483 N 763.995 -6.64798 1.94976 0
M  V30 8484 N 765.788 -5.44025 1.41399 0
M  V30 8485 H 757.939 -1.56091 1.44046 0
M  V30 8486 H 760.202 -0.737564 0.59557 0
M  V30 8487 H 759.908 -3.06895 1.7178 0
M  V30 8488 H 759.782 -3.77027 0.114222 0
M  V30 8489 H 762.169 -2.92346 -0.402187 0
M  V30 8490 H 762.25 -2.24328 1.22926 0
M  V30 8491 H 761.894 -4.57935 2.19677 0
M  V30 8492 H 761.824 -5.23794 0.542939 0
M  V30 8493 H 764.315 -3.69575 0.788828 0
M  V30 8494 H 764.628 -7.40246 2.21936 0
M  V30 8495 H 762.973 -6.65923 1.98927 0
M  V30 8496 H 766.164 -4.55955 1.05935 0
M  V30 8497 H 766.337 -6.2499 1.71147 0
M  V30 8498 N 759.743 -0.201713 -1.56304 0
M  V30 8499 C 760.706 0.702811 -2.18159 0
M  V30 8500 C 761.706 1.13619 -1.13787 0
M  V30 8501 O 762.896 1.0482 -1.39134 0
M  V30 8502 C 760.028 1.96032 -2.78898 0
M  V30 8503 H 761.221 0.163836 -2.99452 0
M  V30 8504 H 758.774 0.04791 -1.56227 0
M  V30 8505 H 759.509 2.54165 -2.01421 0
M  V30 8506 H 759.294 1.65824 -3.55309 0
M  V30 8507 H 760.784 2.60519 -3.26373 0
M  V30 8508 N 761.222 1.57436 0.0718424 0
M  V30 8509 C 762.499 1.78312 0.804006 0
M  V30 8510 C 762.879 0.789273 1.9579 0
M  V30 8511 O 762.227 -0.177605 2.27809 0
M  V30 8512 C 762.437 3.24798 1.277 0
M  V30 8513 C 763.785 3.88627 1.71039 0
M  V30 8514 O 764.809 3.28689 1.37266 0
M  V30 8515 O 763.668 4.94073 2.33567 0
M  V30 8516 H 760.762 0.73178 0.385262 0
M  V30 8517 H 763.308 1.69621 0.0519219 0
M  V30 8518 H 762.08 3.88688 0.45134 0
M  V30 8519 H 761.703 3.38213 2.0904 0
M  V30 8520 N 762.7 -0.34323 1.53817 0
M  V30 8521 C 763.61 -1.44493 1.84821 0
M  V30 8522 C 764.626 -1.57556 0.738381 0
M  V30 8523 O 765.802 -1.73026 1.03072 0
M  V30 8524 C 762.867 -2.79478 2.05166 0
M  V30 8525 C 761.928 -2.75756 3.29025 0
M  V30 8526 C 761.161 -4.04302 3.4839 0
M  V30 8527 O 761.384 -5.01595 2.71586 0
M  V30 8528 O 760.318 -4.08754 4.41819 0
M  V30 8529 H 764.144 -1.21209 2.78464 0
M  V30 8530 H 761.729 -0.535437 1.39476 0
M  V30 8531 H 763.611 -3.59419 2.19991 0
M  V30 8532 H 762.286 -3.02692 1.14713 0
M  V30 8533 H 761.193 -1.94434 3.19603 0
M  V30 8534 H 762.526 -2.57495 4.19472 0
M  V30 8535 N 764.178 -1.45556 -0.604258 0
M  V30 8536 C 765.108 -1.57327 -1.72541 0
M  V30 8537 C 766.089 -0.424637 -1.64714 0
M  V30 8538 O 767.274 -0.648196 -1.83063 0
M  V30 8539 C 764.404 -1.54279 -3.11152 0
M  V30 8540 C 763.358 -2.67893 -3.33792 0
M  V30 8541 C 762.684 -2.499 -4.72709 0
M  V30 8542 C 763.984 -4.0988 -3.23722 0
M  V30 8543 H 765.678 -2.51175 -1.62947 0
M  V30 8544 H 763.224 -1.20884 -0.782504 0
M  V30 8545 H 765.177 -1.6111 -3.89386 0
M  V30 8546 H 763.901 -0.569627 -3.21594 0
M  V30 8547 H 762.56 -2.60495 -2.57949 0
M  V30 8548 H 762.208 -1.50715 -4.79889 0
M  V30 8549 H 761.908 -3.26091 -4.88813 0
M  V30 8550 H 763.432 -2.5859 -5.5314 0
M  V30 8551 H 764.846 -4.18503 -3.91826 0
M  V30 8552 H 763.243 -4.86487 -3.51355 0
M  V30 8553 H 764.313 -4.31553 -2.21111 0
M  V30 8554 N 765.656 0.84705 -1.32902 0
M  V30 8555 C 766.619 1.9378 -1.224 0
M  V30 8556 C 767.619 1.60144 -0.145108 0
M  V30 8557 O 768.809 1.69638 -0.396058 0
M  V30 8558 C 765.941 3.29234 -0.884174 0
M  V30 8559 H 767.134 2.04518 -2.19345 0
M  V30 8560 H 764.687 1.03816 -1.16842 0
M  V30 8561 H 765.422 3.24193 0.0831277 0
M  V30 8562 H 765.207 3.55026 -1.6643 0
M  V30 8563 H 766.697 4.09162 -0.835226 0
M  V30 8564 N 767.134 1.16236 1.06428 0
M  V30 8565 C 768.359 0.967688 1.83441 0
M  V30 8566 C 768.784 -0.479167 1.81894 0
M  V30 8567 O 768.142 -1.34224 1.21875 0
M  V30 8568 C 768.19 1.49806 3.2801 0
M  V30 8569 O 767.294 0.703481 4.06356 0
M  V30 8570 H 766.635 0.344468 0.56766 0
M  V30 8571 H 769.165 1.54442 1.34197 0
M  V30 8572 H 769.175 1.51495 3.78831 0
M  V30 8573 H 767.85 2.55133 3.2845 0
M  V30 8574 H 766.427 0.756986 3.65136 0
M  V30 8575 N 768.612 -1.24939 0.960631 0
M  V30 8576 C 769.544 -2.24879 0.442937 0
M  V30 8577 C 770.557 -1.56615 -0.444464 0
M  V30 8578 O 771.746 -1.76715 -0.251776 0
M  V30 8579 C 768.846 -3.36757 -0.380537 0
M  V30 8580 C 768.019 -4.34587 0.495283 0
M  V30 8581 C 767.078 -5.25502 -0.270995 0
M  V30 8582 O 766.104 -5.68227 0.332661 0
M  V30 8583 N 767.306 -5.59077 -1.56249 0
M  V30 8584 H 770.071 -2.69932 1.30218 0
M  V30 8585 H 767.632 -1.38907 0.83166 0
M  V30 8586 H 769.624 -3.94542 -0.90103 0
M  V30 8587 H 768.194 -2.91045 -1.14067 0
M  V30 8588 H 767.414 -3.75593 1.19682 0
M  V30 8589 H 768.702 -4.96925 1.09285 0
M  V30 8590 H 768.1 -5.2628 -2.07476 0
M  V30 8591 H 766.657 -6.19421 -2.02882 0
M  V30 8592 N 770.09 -0.729906 -1.39679 0
M  V30 8593 C 771.367 -0.202149 -1.94553 0
M  V30 8594 C 771.747 1.29507 -1.66707 0
M  V30 8595 O 771.095 2.05819 -0.992517 0
M  V30 8596 C 771.305 -0.530279 -3.44948 0
M  V30 8597 C 772.653 -0.476808 -4.21914 0
M  V30 8598 O 773.677 -0.467171 -3.53123 0
M  V30 8599 O 772.536 -0.466869 -5.44502 0
M  V30 8600 H 769.63 -0.0351644 -0.826252 0
M  V30 8601 H 772.176 -0.808417 -1.49207 0
M  V30 8602 H 770.948 -1.56526 -3.5863 0
M  V30 8603 H 770.571 0.10522 -3.97461 0
M  V30 8604 N 771.568 1.50203 -0.477153 0
M  V30 8605 C 772.816 2.01959 0.0755889 0
M  V30 8606 C 773.137 1.3608 1.39668 0
M  V30 8607 O 772.407 0.508136 1.89195 0
M  V30 8608 H 770.987 0.74636 0.0309248 0
M  V30 8609 H 773.649 1.84473 -0.628959 0
M  V30 8610 H 772.745 3.11305 0.222683 0
M  V30 8611 N 773.046 0.209999 1.56195 0
M  V30 8612 C 774.462 -0.145598 1.58934 0
M  V30 8613 C 774.662 -1.59868 1.22656 0
M  V30 8614 O 773.718 -2.33689 0.956336 0
M  V30 8615 C 775.031 0.170243 3.00218 0
M  V30 8616 C 776.579 0.111548 3.12801 0
M  V30 8617 C 777.054 0.400904 4.56242 0
M  V30 8618 N 778.545 0.350058 4.61875 0
M  V30 8619 C 779.28 0.547598 5.70779 0
M  V30 8620 N 778.776 0.806291 6.88092 0
M  V30 8621 N 780.569 0.480827 5.6004 0
M  V30 8622 H 772.72 1.15804 1.78054 0
M  V30 8623 H 774.983 0.463326 0.827063 0
M  V30 8624 H 774.689 1.17833 3.31373 0
M  V30 8625 H 774.563 -0.520208 3.73596 0
M  V30 8626 H 776.95 -0.887162 2.81449 0
M  V30 8627 H 777.031 0.835302 2.41777 0
M  V30 8628 H 776.675 1.397 4.8831 0
M  V30 8629 H 776.605 -0.34391 5.25476 0
M  V30 8630 H 779.096 0.157334 3.77572 0
M  V30 8631 H 779.409 0.945433 7.66995 0
M  V30 8632 H 777.754 0.843355 6.89864 0
M  V30 8633 H 780.945 0.279037 4.67268 0
M  V30 8634 H 781.118 0.638189 6.4485 0
M  V30 8635 O 774.563 -1.61333 0.0733639 0
M  V30 8636 H 775.254 -1.86233 -0.532616 0
M  V30 END ATOM
M  V30 BEGIN BOND
M  V30 END BOND
M  V30 END CTAB
M  END
$$$$
