drugbank_target|P0A8V6 Fatty acid metabolism regulator protein (DB08231)
 OpenBabel12092120493D

  0  0  0     0  0            999 V3000
M  V30 BEGIN CTAB
M  V30 COUNTS 3791 3835 0 0 0
M  V30 BEGIN ATOM
M  V30 1 H -0.908 1.98254 -0.117106 0
M  V30 2 N 0 1.576 0 0
M  V30 3 C 0.933 2.03868 1.02534 0
M  V30 4 C 1.911 0.928543 1.3348 0
M  V30 5 O 3.095 1.19667 1.45644 0
M  V30 6 C 0.222 2.43627 2.35294 0
M  V30 7 C -0.732 3.65373 2.2001 0
M  V30 8 S 0.101 5.13292 1.52614 0
M  V30 9 C 1.257 5.56322 2.86805 0
M  V30 10 H 1.49 2.90518 0.631377 0
M  V30 11 H -0.977 1.52953 0.210867 0
M  V30 12 H 0.981 2.67203 3.11629 0
M  V30 13 H -0.358 1.57376 2.7183 0
M  V30 14 H -1.165 3.90944 3.18086 0
M  V30 15 H -1.563 3.418 1.51819 0
M  V30 16 H 0.729 5.58782 3.83104 0
M  V30 17 H 1.672 6.56266 2.65933 0
M  V30 18 H 2.08 4.83886 2.90714 0
M  V30 19 N 1.4781 -0.272755 1.55222 0
M  V30 20 C 2.7241 -1.00581 1.761 0
M  V30 21 C 3.0571 -1.85932 0.560625 0
M  V30 22 O 2.3321 -1.89416 -0.441801 0
M  V30 23 C 2.6151 -1.88816 3.06628 0
M  V30 24 C 2.4681 -1.06457 4.37021 0
M  V30 25 C 3.7871 -2.8752 3.33197 0
M  V30 26 H 0.9061 -0.364244 0.640699 0
M  V30 27 H 3.5481 -0.278189 1.87952 0
M  V30 28 H 1.6981 -2.50856 2.96654 0
M  V30 29 H 3.3701 -0.464863 4.58952 0
M  V30 30 H 1.6131 -0.368043 4.32236 0
M  V30 31 H 2.2841 -1.71514 5.24678 0
M  V30 32 H 4.7601 -2.35615 3.42965 0
M  V30 33 H 3.6361 -3.46399 4.25792 0
M  V30 34 H 3.8971 -3.62657 2.52849 0
M  V30 35 N 2.9562 -1.48159 -0.537278 0
M  V30 36 C 4.2052 -1.5506 -1.28993 0
M  V30 37 C 4.5182 -0.226211 -1.94288 0
M  V30 38 O 5.7242 -0.173395 -2.70946 0
M  V30 39 C 4.1802 -2.73429 -2.34018 0
M  V30 40 C 3.7882 -4.1248 -1.74825 0
M  V30 41 C 5.5322 -2.89638 -3.10339 0
M  V30 42 C 3.4392 -5.22121 -2.77747 0
M  V30 43 H 2.3692 -0.577231 -0.485098 0
M  V30 44 H 5.0202 -1.74478 -0.568317 0
M  V30 45 H 3.4022 -2.47431 -3.09182 0
M  V30 46 H 4.5762 -4.48466 -1.05899 0
M  V30 47 H 2.8912 -4.01327 -1.11022 0
M  V30 48 H 5.4882 -3.68718 -3.87235 0
M  V30 49 H 5.8312 -1.9882 -3.65754 0
M  V30 50 H 6.3642 -3.15502 -2.42288 0
M  V30 51 H 3.1032 -6.1488 -2.27161 0
M  V30 52 H 2.6232 -4.90631 -3.45024 0
M  V30 53 H 4.3022 -5.49924 -3.4087 0
M  V30 54 N 4.4343 0.785586 -1.36625 0
M  V30 55 C 5.3813 1.89838 -1.31264 0
M  V30 56 C 6.3513 1.65115 -0.180633 0
M  V30 57 O 7.5363 1.87222 -0.36777 0
M  V30 58 C 4.6763 3.26706 -1.11163 0
M  V30 59 C 3.7893 3.63476 -2.33472 0
M  V30 60 C 2.9243 4.89481 -2.06353 0
M  V30 61 C 1.9633 5.18941 -3.24602 0
M  V30 62 N 1.1003 6.36131 -2.97123 0
M  V30 63 H 5.9403 1.93756 -2.26413 0
M  V30 64 H 3.4773 0.947454 -1.12524 0
M  V30 65 H 5.4353 4.05639 -0.975337 0
M  V30 66 H 4.0653 3.222 -0.196674 0
M  V30 67 H 3.1173 2.79636 -2.57891 0
M  V30 68 H 4.4293 3.81193 -3.21704 0
M  V30 69 H 3.5833 5.76288 -1.89675 0
M  V30 70 H 2.3223 4.73841 -1.15437 0
M  V30 71 H 1.3273 4.30615 -3.41834 0
M  V30 72 H 2.5523 5.36498 -4.16349 0
M  V30 73 H 0.4983 6.21875 -2.08823 0
M  V30 74 H 0.4153 6.54198 -3.78894 0
M  V30 75 H 1.6833 7.2591 -2.84033 0
M  V30 76 N 5.9124 1.20967 1.01018 0
M  V30 77 C 6.8754 0.965918 2.07853 0
M  V30 78 C 7.8754 -0.0610545 1.60684 0
M  V30 79 O 9.0654 0.175681 1.73312 0
M  V30 80 C 6.1974 0.455513 3.37843 0
M  V30 81 H 7.3904 1.91365 2.3091 0
M  V30 82 H 4.9434 1.02594 1.17916 0
M  V30 83 H 5.6784 -0.497381 3.20463 0
M  V30 84 H 5.4634 1.19622 3.73407 0
M  V30 85 H 6.9534 0.304667 4.16487 0
M  V30 86 N 7.3905 -1.2043 1.01659 0
M  V30 87 C 8.3225 -2.22626 0.544988 0
M  V30 88 C 9.3355 -1.58479 -0.372609 0
M  V30 89 O 10.5245 -1.77679 -0.170958 0
M  V30 90 C 7.6245 -3.38141 -0.22663 0
M  V30 91 C 6.7975 -4.31877 0.692876 0
M  V30 92 C 5.8565 -5.26191 -0.0311616 0
M  V30 93 O 4.8825 -5.6612 0.591343 0
M  V30 94 N 6.0845 -5.65618 -1.30601 0
M  V30 95 H 8.8495 -2.63716 1.42388 0
M  V30 96 H 6.4105 -1.34971 0.894116 0
M  V30 97 H 8.4025 -3.98239 -0.72024 0
M  V30 98 H 6.9725 -2.95943 -1.00681 0
M  V30 99 H 6.1925 -3.69746 1.36679 0
M  V30 100 H 7.4805 -4.91426 1.31824 0
M  V30 101 H 6.8785 -5.3519 -1.83269 0
M  V30 102 H 5.4355 -6.28025 -1.74435 0
M  V30 103 N 8.8686 -0.792821 -1.36206 0
M  V30 104 C 10.0936 -0.377701 -2.03932 0
M  V30 105 C 10.5186 0.998947 -1.59382 0
M  V30 106 O 9.8766 1.64421 -0.763903 0
M  V30 107 C 9.9246 -0.453635 -3.57735 0
M  V30 108 O 9.0286 0.538151 -4.08874 0
M  V30 109 H 8.3696 -0.159855 -0.644471 0
M  V30 110 H 10.8996 -1.07488 -1.7409 0
M  V30 111 H 10.9096 -0.318464 -4.06755 0
M  V30 112 H 9.5846 -1.45784 -3.89512 0
M  V30 113 H 8.1616 0.364359 -3.71116 0
M  V30 114 N 10.3467 1.47872 -0.545128 0
M  V30 115 C 11.7577 1.86384 -0.108581 0
M  V30 116 C 12.1087 1.45309 1.31832 0
M  V30 117 O 11.2337 0.850641 1.9898 0
M  V30 118 C 11.8287 3.38265 -0.190274 0
M  V30 119 C 10.3877 3.75914 0.191164 0
M  V30 120 C 9.5347 2.71926 -0.543273 0
M  V30 121 H 12.4857 1.39561 -0.755537 0
M  V30 122 H 12.5067 3.75831 0.594217 0
M  V30 123 H 12.0187 3.6813 -1.2289 0
M  V30 124 H 10.1197 3.51665 1.23136 0
M  V30 125 H 10.2327 4.78836 -0.158987 0
M  V30 126 H 8.5967 2.54697 0.0122495 0
M  V30 127 H 9.3797 3.04634 -1.58282 0
M  V30 128 N 11.8248 0.280983 1.55075 0
M  V30 129 C 12.7878 -0.590896 2.21452 0
M  V30 130 C 13.7878 -1.07682 1.19421 0
M  V30 131 O 14.9778 -0.97605 1.44288 0
M  V30 132 C 12.1098 -1.81587 2.88511 0
M  V30 133 H 13.3028 -0.0112554 2.99898 0
M  V30 134 H 10.8558 0.0316438 1.56268 0
M  V30 135 H 11.5908 -2.43587 2.14093 0
M  V30 136 H 11.3758 -1.4753 3.63287 0
M  V30 137 H 12.8658 -2.43575 3.39206 0
M  V30 138 N 13.3029 -1.57598 0.00835791 0
M  V30 139 C 14.5509 -1.90551 -0.6734 0
M  V30 140 C 14.8719 -0.883301 -1.73847 0
M  V30 141 O 14.1419 0.0781442 -1.95744 0
M  V30 142 H 12.7219 -0.703312 -0.251717 0
M  V30 143 H 15.3839 -1.94833 0.0512592 0
M  V30 144 H 14.4799 -2.9056 -1.13935 0
M  V30 145 N 14.781 0.264519 -1.55364 0
M  V30 146 C 16.028 0.994986 -1.7637 0
M  V30 147 C 16.356 1.85976 -0.5695 0
M  V30 148 O 15.611 1.90509 0.44776 0
M  V30 149 C 15.91 1.9004 -3.02687 0
M  V30 150 C 15.576 1.19243 -4.34847 0
M  V30 151 C 14.238 0.996709 -4.70764 0
M  V30 152 C 16.59 0.689296 -5.16622 0
M  V30 153 C 13.918 0.285261 -5.86006 0
M  V30 154 C 16.27 -0.00860079 -6.32599 0
M  V30 155 C 14.934 -0.215963 -6.67151 0
M  V30 156 H 14.204 0.364091 -0.645383 0
M  V30 157 H 16.851 0.266543 -1.89636 0
M  V30 158 H 15.156 2.69533 -2.84357 0
M  V30 159 H 16.853 2.46695 -3.16137 0
M  V30 160 H 13.443 1.3549 -4.06621 0
M  V30 161 H 17.627 0.828108 -4.89342 0
M  V30 162 H 12.883 0.113961 -6.11294 0
M  V30 163 H 17.057 -0.406186 -6.95214 0
M  V30 164 H 14.684 -0.769217 -7.56298 0
M  V30 165 N 16.2591 1.48442 0.529413 0
M  V30 166 C 17.2221 1.62524 1.61612 0
M  V30 167 C 18.2221 0.498509 1.52877 0
M  V30 168 O 19.4121 0.76431 1.56537 0
M  V30 169 C 16.5441 1.59597 3.01233 0
M  V30 170 H 17.7371 2.59423 1.50465 0
M  V30 171 H 15.2901 1.37047 0.751514 0
M  V30 172 H 16.0251 0.641781 3.17886 0
M  V30 173 H 15.8101 2.41397 3.08982 0
M  V30 174 H 17.3001 1.72646 3.80241 0
M  V30 175 N 17.7372 -0.778329 1.37039 0
M  V30 176 C 18.6472 -1.92253 1.34446 0
M  V30 177 C 19.6632 -1.72267 0.244991 0
M  V30 178 O 20.8392 -1.95615 0.479258 0
M  V30 179 C 17.9042 -3.27282 1.144 0
M  V30 180 C 16.9652 -3.59969 2.33925 0
M  V30 181 C 16.1982 -4.88555 2.14825 0
M  V30 182 O 16.4212 -5.59113 1.12912 0
M  V30 183 O 15.3552 -5.20153 3.02861 0
M  V30 184 H 19.1812 -1.97392 2.30803 0
M  V30 185 H 16.7662 -0.920154 1.17701 0
M  V30 186 H 18.6482 -4.08062 1.05182 0
M  V30 187 H 17.3232 -3.23011 0.211124 0
M  V30 188 H 16.2302 -2.7945 2.48714 0
M  V30 189 H 17.5632 -3.68976 3.25757 0
M  V30 190 N 19.2153 -1.21501 -1.00376 0
M  V30 191 C 20.1253 -0.991447 -2.12621 0
M  V30 192 C 21.1413 0.0568446 -1.73907 0
M  V30 193 O 22.3173 -0.13348 -2.00957 0
M  V30 194 C 19.3823 -0.560312 -3.42142 0
M  V30 195 C 18.4433 -1.68096 -3.95022 0
M  V30 196 C 17.6763 -1.2703 -5.18362 0
M  V30 197 O 17.8993 -0.144438 -5.70217 0
M  V30 198 O 16.8333 -2.08269 -5.64719 0
M  V30 199 H 20.6593 -1.93158 -2.34358 0
M  V30 200 H 18.2443 -0.999999 -1.10997 0
M  V30 201 H 20.1263 -0.329724 -4.20108 0
M  V30 202 H 18.8013 0.351089 -3.2179 0
M  V30 203 H 17.7083 -1.96597 -3.18278 0
M  V30 204 H 19.0413 -2.56983 -4.19786 0
M  V30 205 N 20.6934 1.19889 -1.02296 0
M  V30 206 C 21.9234 1.93109 -0.734332 0
M  V30 207 C 22.3314 1.75377 0.709889 0
M  V30 208 O 21.6744 1.06912 1.49384 0
M  V30 209 C 21.7364 3.45362 -0.99827 0
M  V30 210 C 21.4004 3.8686 -2.43287 0
M  V30 211 C 22.3974 3.92102 -3.41397 0
M  V30 212 C 20.0824 4.18668 -2.77529 0
M  V30 213 C 22.0764 4.28573 -4.71809 0
M  V30 214 C 19.7634 4.54813 -4.08153 0
M  V30 215 C 20.7614 4.59739 -5.05103 0
M  V30 216 O 20.4494 4.95051 -6.33388 0
M  V30 217 H 20.1814 0.620409 -0.268456 0
M  V30 218 H 22.7354 1.53144 -1.3688 0
M  V30 219 H 20.9654 3.85482 -0.306645 0
M  V30 220 H 22.6544 3.99814 -0.700234 0
M  V30 221 H 23.4204 3.67685 -3.1628 0
M  V30 222 H 19.2994 4.14021 -2.0275 0
M  V30 223 H 22.8434 4.32333 -5.4748 0
M  V30 224 H 18.7404 4.78687 -4.33047 0
M  V30 225 H 19.5084 5.1302 -6.37772 0
M  V30 226 N 22.1715 0.800033 1.35784 0
M  V30 227 C 23.4205 0.37387 1.98205 0
M  V30 228 C 23.7335 -1.06302 1.64193 0
M  V30 229 O 24.9395 -1.59198 2.19928 0
M  V30 230 C 23.3955 0.617532 3.54562 0
M  V30 231 C 23.0035 2.06654 3.9749 0
M  V30 232 C 24.7475 0.256401 4.23725 0
M  V30 233 C 22.6545 2.2563 5.46667 0
M  V30 234 H 21.5845 0.136055 0.741623 0
M  V30 235 H 24.2355 0.983166 1.54939 0
M  V30 236 H 22.6175 -0.0616248 3.95952 0
M  V30 237 H 23.7915 2.78296 3.67271 0
M  V30 238 H 22.1065 2.38691 3.41197 0
M  V30 239 H 24.7035 0.376318 5.33374 0
M  V30 240 H 25.0465 -0.796692 4.08606 0
M  V30 241 H 25.5795 0.889214 3.87734 0
M  V30 242 H 22.3185 3.2936 5.66747 0
M  V30 243 H 21.8385 1.58504 5.78478 0
M  V30 244 H 23.5175 2.06861 6.1304 0
M  V30 245 N 23.6496 -1.47581 0.552962 0
M  V30 246 C 24.8986 -2.01684 0.0251995 0
M  V30 247 C 25.2116 -1.43317 -1.33115 0
M  V30 248 O 26.4176 -1.89057 -1.94858 0
M  V30 249 C 24.8736 -3.599 -0.00542052 0
M  V30 250 C 24.4816 -4.27257 1.34742 0
M  V30 251 C 26.2256 -4.21768 -0.4808 0
M  V30 252 C 24.1326 -5.77467 1.27614 0
M  V30 253 H 23.0626 -0.753979 0.00565033 0
M  V30 254 H 25.7136 -1.69616 0.70018 0
M  V30 255 H 24.0956 -3.88911 -0.745961 0
M  V30 256 H 25.2696 -4.09893 2.10534 0
M  V30 257 H 23.5846 -3.77358 1.76039 0
M  V30 258 H 26.1816 -5.31838 -0.55246 0
M  V30 259 H 26.5246 -3.88651 -1.49184 0
M  V30 260 H 27.0576 -3.97273 0.204752 0
M  V30 261 H 23.7966 -6.15196 2.26304 0
M  V30 262 H 23.3166 -5.9718 0.55996 0
M  V30 263 H 24.9956 -6.3959 0.976421 0
M  V30 264 N 25.1277 -0.289203 -1.54924 0
M  V30 265 C 26.0377 0.601863 -2.26748 0
M  V30 266 C 27.0537 1.15834 -1.2984 0
M  V30 267 O 28.2297 1.18564 -1.62802 0
M  V30 268 C 25.2947 1.76299 -2.98529 0
M  V30 269 C 24.3557 1.24178 -4.10948 0
M  V30 270 C 23.5887 2.34757 -4.79296 0
M  V30 271 O 23.8117 3.54411 -4.46933 0
M  V30 272 O 22.7457 2.02115 -5.66951 0
M  V30 273 H 26.5717 0.0195879 -3.03694 0
M  V30 274 H 24.1567 -0.0560868 -1.49295 0
M  V30 275 H 26.0387 2.43973 -3.43592 0
M  V30 276 H 24.7137 2.33209 -2.24488 0
M  V30 277 H 23.6207 0.531104 -3.70311 0
M  V30 278 H 24.9537 0.718252 -4.86931 0
M  V30 279 N 26.6058 1.57591 -0.0167156 0
M  V30 280 C 27.8308 1.9598 0.67872 0
M  V30 281 C 28.2558 0.892546 1.65575 0
M  V30 282 O 27.6138 -0.147772 1.80697 0
M  V30 283 C 27.6618 3.33468 1.37227 0
M  V30 284 O 26.7658 3.28954 2.48722 0
M  V30 285 H 26.1068 0.639339 0.17928 0
M  V30 286 H 28.6368 2.04463 -0.0748802 0
M  V30 287 H 28.6468 3.69417 1.7319 0
M  V30 288 H 27.3218 4.10694 0.656007 0
M  V30 289 H 25.8988 3.04705 2.14963 0
M  V30 290 N 28.0839 -0.256276 1.55502 0
M  V30 291 C 29.3329 -0.983486 1.76098 0
M  V30 292 C 29.6459 -1.86837 0.578896 0
M  V30 293 O 30.8519 -2.63163 0.667648 0
M  V30 294 C 29.3079 -1.79868 3.1173 0
M  V30 295 C 28.9159 -0.961648 4.37557 0
M  V30 296 C 30.6599 -2.51919 3.41668 0
M  V30 297 C 28.5669 -1.77219 5.64223 0
M  V30 298 H 27.4969 -0.370936 0.656447 0
M  V30 299 H 30.1479 -0.238492 1.81944 0
M  V30 300 H 28.5299 -2.58527 2.99966 0
M  V30 301 H 29.7039 -0.218048 4.60284 0
M  V30 302 H 28.0189 -0.354913 4.14885 0
M  V30 303 H 30.6159 -3.12998 4.33516 0
M  V30 304 H 30.9589 -3.23059 2.62562 0
M  V30 305 H 31.4919 -1.80278 3.54605 0
M  V30 306 H 28.2309 -1.10471 6.46124 0
M  V30 307 H 27.7509 -2.49132 5.45613 0
M  V30 308 H 29.4299 -2.34169 6.03137 0
M  V30 309 N 29.562 -1.4872 -0.521534 0
M  V30 310 C 30.808 -1.58378 -1.27624 0
M  V30 311 C 31.163 -0.258028 -1.90662 0
M  V30 312 O 30.456 0.739917 -1.76736 0
M  V30 313 C 30.65 -2.66497 -2.38148 0
M  V30 314 C 30.479 -4.09456 -1.85945 0
M  V30 315 C 29.249 -4.76495 -1.68168 0
M  V30 316 C 31.447 -4.95353 -1.3831 0
M  V30 317 N 29.429 -6.0384 -1.1068 0
M  V30 318 C 30.8 -6.13012 -0.928238 0
M  V30 319 C 32.855 -4.81512 -1.26692 0
M  V30 320 C 31.558 -7.18354 -0.368701 0
M  V30 321 C 33.584 -5.86984 -0.721368 0
M  V30 322 C 32.946 -7.03857 -0.276623 0
M  V30 323 H 29.045 -0.634045 -0.457724 0
M  V30 324 H 31.629 -1.85639 -0.587049 0
M  V30 325 H 29.8 -2.41043 -3.04553 0
M  V30 326 H 31.532 -2.65791 -3.05184 0
M  V30 327 H 28.287 -4.32962 -1.91939 0
M  V30 328 H 28.711 -6.71778 -0.839217 0
M  V30 329 H 33.353 -3.91487 -1.5968 0
M  V30 330 H 31.071 -8.08096 -0.0265122 0
M  V30 331 H 34.657 -5.78329 -0.634531 0
M  V30 332 H 33.537 -7.84077 0.138947 0
M  V30 333 N 31.0401 0.771051 -1.3745 0
M  V30 334 C 31.9881 1.90574 -1.33358 0
M  V30 335 C 32.9821 1.67936 -0.22224 0
M  V30 336 O 34.1881 1.75717 -0.390304 0
M  V30 337 H 30.5631 0.626714 -0.415612 0
M  V30 338 H 32.5341 1.91142 -2.29144 0
M  V30 339 C 31.2831 3.27845 -1.15813 0
M  V30 340 H 30.6061 3.45842 -2.00583 0
M  V30 341 H 32.0461 4.07538 -1.17 0
M  V30 342 C 30.5051 3.36625 0.136165 0
M  V30 343 O 31.0351 3.85785 1.11949 0
M  V30 344 N 29.2411 2.89997 0.187099 0
M  V30 345 H 28.7881 2.50182 -0.613753 0
M  V30 346 H 28.7461 2.96252 1.05272 0
M  V30 347 N 32.5182 1.22032 0.997298 0
M  V30 348 C 33.4662 0.983634 2.10778 0
M  V30 349 C 34.4602 -0.0717564 1.69248 0
M  V30 350 O 35.6662 0.080304 1.79821 0
M  V30 351 H 32.0412 0.300877 0.689186 0
M  V30 352 H 34.0122 1.92606 2.27916 0
M  V30 353 C 32.7612 0.57326 3.42942 0
M  V30 354 H 32.0842 1.37702 3.75338 0
M  V30 355 H 33.5242 0.447031 4.21637 0
M  V30 356 C 31.9832 -0.7167 3.29188 0
M  V30 357 O 32.5132 -1.77027 3.60589 0
M  V30 358 N 30.7192 -0.686167 2.82383 0
M  V30 359 H 30.2662 0.171507 2.57028 0
M  V30 360 H 30.2242 -1.54955 2.73562 0
M  V30 361 N 33.9963 -1.19345 1.0293 0
M  V30 362 C 35.4123 -1.41069 0.746446 0
M  V30 363 C 35.6123 -1.90078 -0.668776 0
M  V30 364 O 34.6683 -2.0778 -1.4347 0
M  V30 365 C 35.9813 -2.42141 1.78292 0
M  V30 366 C 37.5293 -2.55887 1.80252 0
M  V30 367 C 38.0043 -3.60214 2.8286 0
M  V30 368 N 39.4953 -3.67711 2.81679 0
M  V30 369 C 40.2303 -4.48128 3.57727 0
M  V30 370 N 39.7263 -5.32248 4.43491 0
M  V30 371 N 41.5193 -4.42782 3.46267 0
M  V30 372 H 33.6703 -0.858536 1.94275 0
M  V30 373 H 35.9333 -0.439541 0.839945 0
M  V30 374 H 35.6393 -2.13155 2.79746 0
M  V30 375 H 35.5133 -3.41323 1.60557 0
M  V30 376 H 37.9003 -2.84196 0.794757 0
M  V30 377 H 37.9813 -1.56858 2.02062 0
M  V30 378 H 37.6253 -3.32647 3.83807 0
M  V30 379 H 37.5553 -4.58895 2.58307 0
M  V30 380 H 40.0463 -3.07634 2.19476 0
M  V30 381 H 40.3593 -5.90729 4.98256 0
M  V30 382 H 38.7043 -5.31707 4.47564 0
M  V30 383 H 41.8953 -3.76107 2.78677 0
M  V30 384 H 42.0683 -5.05215 4.05785 0
M  V30 385 N 35.4744 -0.807222 -1.35358 0
M  V30 386 C 36.7214 -0.387888 -1.9875 0
M  V30 387 C 37.0494 1.04509 -1.64037 0
M  V30 388 O 36.3044 1.73986 -0.895946 0
M  V30 389 C 36.6034 -0.519036 -3.53611 0
M  V30 390 C 36.2694 -1.91542 -4.08194 0
M  V30 391 C 34.9314 -2.29745 -4.22813 0
M  V30 392 C 37.2834 -2.82896 -4.37744 0
M  V30 393 C 34.6114 -3.58668 -4.643 0
M  V30 394 C 36.9634 -4.11265 -4.8067 0
M  V30 395 C 35.6274 -4.49466 -4.93494 0
M  V30 396 H 34.8974 -0.141938 -0.727279 0
M  V30 397 H 37.5444 -1.02814 -1.6156 0
M  V30 398 H 35.8494 0.204658 -3.91265 0
M  V30 399 H 37.5464 -0.175345 -4.00616 0
M  V30 400 H 34.1364 -1.60862 -3.97268 0
M  V30 401 H 38.3204 -2.54629 -4.26002 0
M  V30 402 H 33.5764 -3.88113 -4.72418 0
M  V30 403 H 37.7504 -4.82153 -5.02496 0
M  V30 404 H 35.3774 -5.49418 -5.25399 0
M  V30 405 N 36.9525 1.47285 -0.560781 0
M  V30 406 C 38.3635 1.86258 -0.128343 0
M  V30 407 C 38.7145 1.46699 1.30284 0
M  V30 408 O 37.8395 0.871698 1.98067 0
M  V30 409 C 38.4345 3.38044 -0.22614 0
M  V30 410 C 36.9935 3.76096 0.151283 0
M  V30 411 C 36.1405 2.71335 -0.572084 0
M  V30 412 H 39.0915 1.38752 -0.770297 0
M  V30 413 H 39.1125 3.76441 0.554322 0
M  V30 414 H 38.6245 3.66806 -1.26788 0
M  V30 415 H 36.7255 3.52951 1.19399 0
M  V30 416 H 36.8385 4.78641 -0.209765 0
M  V30 417 H 35.2025 2.54696 -0.0147653 0
M  V30 418 H 35.9855 3.02938 -1.61504 0
M  V30 419 N 38.4306 0.297415 1.54768 0
M  V30 420 C 39.8416 -0.195947 1.85669 0
M  V30 421 C 40.1926 -1.53707 1.21937 0
M  V30 422 O 39.3176 -2.10164 0.515754 0
M  V30 423 C 39.9126 -0.362318 3.36857 0
M  V30 424 C 38.4716 -0.799901 3.67802 0
M  V30 425 C 37.6186 0.0938578 2.77141 0
M  V30 426 H 40.5696 0.518538 1.4999 0
M  V30 427 H 40.5906 -1.19745 3.61167 0
M  V30 428 H 40.1026 0.613921 3.83214 0
M  V30 429 H 38.2036 -1.78682 3.26961 0
M  V30 430 H 38.3166 -0.621773 4.75048 0
M  V30 431 H 36.6806 -0.426254 2.51108 0
M  V30 432 H 37.4636 1.06639 3.26318 0
M  V30 433 N 39.9087 -1.5758 0.0250728 0
M  V30 434 C 41.1567 -1.91255 -0.653151 0
M  V30 435 C 41.4777 -0.901691 -1.729 0
M  V30 436 O 40.7477 0.0573785 -1.95816 0
M  V30 437 H 39.3277 -0.705942 -0.244243 0
M  V30 438 H 41.9897 -1.94767 0.0719209 0
M  V30 439 H 41.0857 -2.91752 -1.10847 0
M  V30 440 N 41.3868 0.248026 -1.55636 0
M  V30 441 C 42.6148 0.993808 -1.81469 0
M  V30 442 C 43.0298 1.78991 -0.60064 0
M  V30 443 O 42.3868 1.77345 0.430682 0
M  V30 444 C 42.4378 1.93258 -3.05506 0
M  V30 445 O 42.1588 1.16869 -4.22224 0
M  V30 446 C 43.6598 2.79444 -3.4413 0
M  V30 447 H 40.8798 0.292486 -0.603898 0
M  V30 448 H 43.4238 0.271253 -2.02693 0
M  V30 449 H 41.5788 2.60943 -2.86335 0
M  V30 450 H 41.9928 1.80359 -4.92515 0
M  V30 451 H 43.4668 3.41066 -4.34026 0
M  V30 452 H 43.9438 3.50499 -2.64665 0
M  V30 453 H 44.5498 2.17214 -3.65648 0
M  V30 454 N 42.8649 1.48995 0.513639 0
M  V30 455 C 44.1139 1.57093 1.2651 0
M  V30 456 C 44.4269 0.257091 1.93903 0
M  V30 457 O 45.6329 0.216478 2.70636 0
M  V30 458 C 44.0889 2.77118 2.29638 0
M  V30 459 C 43.6969 4.15209 1.68241 0
M  V30 460 C 45.4409 2.94538 3.05692 0
M  V30 461 C 43.3479 5.26474 2.69406 0
M  V30 462 H 42.2779 0.584876 0.475854 0
M  V30 463 H 44.9289 1.7536 0.540487 0
M  V30 464 H 43.3109 2.52319 3.05207 0
M  V30 465 H 44.4849 4.50094 0.987505 0
M  V30 466 H 42.7999 4.03042 1.04623 0
M  V30 467 H 45.3969 3.74832 3.8132 0
M  V30 468 H 45.7399 2.04614 3.62545 0
M  V30 469 H 46.2729 3.19316 2.37238 0
M  V30 470 H 43.0119 6.18417 2.17351 0
M  V30 471 H 42.5319 4.96058 3.37175 0
M  V30 472 H 44.2109 5.55277 3.32078 0
M  V30 473 N 44.343 -0.763751 1.37857 0
M  V30 474 C 45.273 -1.89103 1.36975 0
M  V30 475 C 46.254 -1.68439 0.237152 0
M  V30 476 O 47.439 -1.8918 0.438713 0
M  V30 477 C 44.569 -3.26496 1.18395 0
M  V30 478 C 43.523 -3.61741 2.28751 0
M  V30 479 C 42.849 -4.97762 1.95286 0
M  V30 480 C 44.149 -3.67665 3.70972 0
M  V30 481 H 45.843 -1.90099 2.31307 0
M  V30 482 H 43.389 -0.91319 1.11341 0
M  V30 483 H 45.342 -4.05003 1.16406 0
M  V30 484 H 44.066 -3.25955 0.205215 0
M  V30 485 H 42.725 -2.85547 2.29909 0
M  V30 486 H 42.373 -4.93769 0.959221 0
M  V30 487 H 42.073 -5.22313 2.69189 0
M  V30 488 H 43.597 -5.7866 1.94898 0
M  V30 489 H 45.011 -4.36307 3.719 0
M  V30 490 H 43.408 -4.03718 4.43995 0
M  V30 491 H 44.478 -2.68134 4.0402 0
M  V30 492 N 45.8211 -1.22559 -0.990812 0
M  V30 493 C 47.2321 -1.04791 -1.54518 0
M  V30 494 C 47.5831 0.387998 -1.92325 0
M  V30 495 O 46.7081 1.27328 -1.74976 0
M  V30 496 C 47.3031 -1.896 -2.80779 0
M  V30 497 C 45.8621 -1.76124 -3.32652 0
M  V30 498 C 45.0091 -1.8594 -2.05722 0
M  V30 499 H 47.9601 -1.36374 -0.811662 0
M  V30 500 H 47.9811 -1.41464 -3.53225 0
M  V30 501 H 47.4931 -2.94101 -2.53231 0
M  V30 502 H 45.5941 -0.743643 -3.65104 0
M  V30 503 H 45.7071 -2.58913 -4.03114 0
M  V30 504 H 44.0711 -1.29403 -2.19379 0
M  V30 505 H 44.8541 -2.91976 -1.80568 0
M  V30 506 N 47.2992 1.18797 -1.03562 0
M  V30 507 C 48.2622 2.20464 -0.626769 0
M  V30 508 C 49.2622 1.57721 0.313173 0
M  V30 509 O 50.4522 1.73917 0.0992615 0
M  V30 510 C 47.5842 3.40802 0.0818498 0
M  V30 511 H 48.7772 2.58149 -1.5264 0
M  V30 512 H 46.3302 1.32593 -0.827578 0
M  V30 513 H 47.0652 3.08642 0.995518 0
M  V30 514 H 46.8502 3.8758 -0.593652 0
M  V30 515 H 48.3402 4.16092 0.354584 0
M  V30 516 N 48.7773 0.814389 1.34928 0
M  V30 517 C 49.6873 0.231978 2.3345 0
M  V30 518 C 50.7033 -0.629139 1.62228 0
M  V30 519 O 51.8793 -0.539052 1.94052 0
M  V30 520 C 48.9443 -0.603482 3.41407 0
M  V30 521 C 48.0053 0.279037 4.28392 0
M  V30 522 C 47.2383 -0.516643 5.31193 0
M  V30 523 O 47.4613 -1.75068 5.4287 0
M  V30 524 O 46.3953 0.0965652 6.01823 0
M  V30 525 H 50.2213 1.04721 2.85074 0
M  V30 526 H 47.8063 0.576343 1.37836 0
M  V30 527 H 49.6883 -1.07908 4.0735 0
M  V30 528 H 48.3633 -1.39618 2.92042 0
M  V30 529 H 47.2703 0.801948 3.65403 0
M  V30 530 H 48.6033 1.03588 4.81176 0
M  V30 531 N 50.2554 -1.46986 0.568584 0
M  V30 532 C 51.6714 -1.57946 0.229189 0
M  V30 533 C 51.8714 -1.56567 -1.26843 0
M  V30 534 O 50.9274 -1.47511 -2.04931 0
M  V30 535 C 52.2404 -2.87963 0.865909 0
M  V30 536 C 53.7884 -3.01568 0.838188 0
M  V30 537 C 54.2634 -4.34301 1.45419 0
M  V30 538 N 55.7544 -4.40965 1.41788 0
M  V30 539 C 56.4894 -5.42256 1.86403 0
M  V30 540 N 55.9854 -6.50297 2.38926 0
M  V30 541 N 57.7784 -5.3337 1.77405 0
M  V30 542 H 49.9294 -1.46126 1.54146 0
M  V30 543 H 52.1924 -0.696156 0.643484 0
M  V30 544 H 51.8984 -2.94742 1.91886 0
M  V30 545 H 51.7724 -3.75423 0.365687 0
M  V30 546 H 54.1594 -2.94379 -0.206106 0
M  V30 547 H 54.2404 -2.1562 1.37629 0
M  V30 548 H 53.8844 -4.42247 2.49761 0
M  V30 549 H 53.8144 -5.19 0.891435 0
M  V30 550 H 56.3054 -3.63484 1.03381 0
M  V30 551 H 56.6184 -7.23777 2.70863 0
M  V30 552 H 54.9634 -6.51155 2.42944 0
M  V30 553 H 58.1544 -4.47865 1.3614 0
M  V30 554 H 58.3274 -6.12169 2.12492 0
M  V30 555 N 51.7335 -0.305618 -1.54608 0
M  V30 556 C 52.6435 0.57778 -2.27374 0
M  V30 557 C 53.6595 1.14451 -1.31061 0
M  V30 558 O 54.8355 1.16831 -1.6405 0
M  V30 559 C 51.9005 1.73123 -3.00382 0
M  V30 560 C 50.9615 1.19812 -4.12242 0
M  V30 561 C 50.1945 2.2966 -4.81759 0
M  V30 562 O 50.4175 3.49651 -4.50666 0
M  V30 563 O 49.3515 1.96091 -5.69062 0
M  V30 564 H 53.1775 -0.012624 -3.03697 0
M  V30 565 H 50.7625 -0.0719184 -1.49227 0
M  V30 566 H 52.6445 2.40315 -3.4616 0
M  V30 567 H 51.3195 2.30815 -2.26949 0
M  V30 568 H 50.2265 0.491798 -3.70853 0
M  V30 569 H 51.5595 0.666566 -4.87666 0
M  V30 570 N 53.2116 1.57565 -0.0334293 0
M  V30 571 C 54.1416 2.13511 0.945265 0
M  V30 572 C 55.1226 1.05231 1.33643 0
M  V30 573 O 56.3076 1.33084 1.41429 0
M  V30 574 C 53.4376 2.6657 2.22616 0
M  V30 575 C 52.3916 3.79676 1.97561 0
M  V30 576 C 51.7176 4.1918 3.31952 0
M  V30 577 C 53.0176 5.0557 1.31135 0
M  V30 578 H 54.7116 2.95538 0.479325 0
M  V30 579 H 52.2576 1.42166 0.229115 0
M  V30 580 H 54.2106 3.04344 2.91466 0
M  V30 581 H 52.9346 1.8171 2.71384 0
M  V30 582 H 51.5936 3.42347 1.31127 0
M  V30 583 H 51.2416 3.31296 3.78487 0
M  V30 584 H 50.9416 4.95402 3.15992 0
M  V30 585 H 52.4656 4.59541 4.02063 0
M  V30 586 H 53.8796 5.40903 1.89992 0
M  V30 587 H 52.2766 5.86818 1.25559 0
M  V30 588 H 53.3466 4.84062 0.284894 0
M  V30 589 N 54.6897 -0.239769 1.55765 0
M  V30 590 C 55.9147 -0.988373 1.82335 0
M  V30 591 C 56.3397 -1.77886 0.611421 0
M  V30 592 O 55.6977 -1.75889 -0.439639 0
M  V30 593 C 55.7457 -1.89627 3.06715 0
M  V30 594 O 54.8497 -2.98904 2.84131 0
M  V30 595 H 54.1907 -0.280858 0.601677 0
M  V30 596 H 56.7207 -0.258597 2.02959 0
M  V30 597 H 56.7307 -2.30957 3.36338 0
M  V30 598 H 55.4057 -1.31511 3.9456 0
M  V30 599 H 53.9827 -2.61651 2.65694 0
M  V30 600 N 56.1678 -1.49265 -0.50573 0
M  V30 601 C 57.0778 -1.68312 -1.63427 0
M  V30 602 C 58.0938 -0.565682 -1.64548 0
M  V30 603 O 59.2698 -0.839801 -1.83055 0
M  V30 604 C 56.3348 -1.74107 -2.99813 0
M  V30 605 C 55.3958 -2.97653 -3.09356 0
M  V30 606 C 54.6288 -3.03163 -4.39236 0
M  V30 607 O 54.8518 -2.16396 -5.27758 0
M  V30 608 O 53.7858 -3.9558 -4.53652 0
M  V30 609 H 57.6118 -2.63907 -1.50289 0
M  V30 610 H 55.1968 -1.32951 -0.681502 0
M  V30 611 H 57.0788 -1.803 -3.80881 0
M  V30 612 H 55.7538 -0.816901 -3.13223 0
M  V30 613 H 54.6608 -2.96981 -2.27493 0
M  V30 614 H 55.9938 -3.89535 -3.00871 0
M  V30 615 N 57.6459 0.756429 -1.3826 0
M  V30 616 C 58.5759 1.88374 -1.37976 0
M  V30 617 C 59.5569 1.68311 -0.246082 0
M  V30 618 O 60.7419 1.88944 -0.44874 0
M  V30 619 C 57.8719 3.25864 -1.20125 0
M  V30 620 C 56.8259 3.60523 -2.30666 0
M  V30 621 C 56.1519 4.9672 -1.97923 0
M  V30 622 C 57.4519 3.65692 -3.72916 0
M  V30 623 H 59.1459 1.88869 -2.32312 0
M  V30 624 H 56.6919 0.907272 -1.11824 0
M  V30 625 H 58.6449 4.0438 -1.18552 0
M  V30 626 H 57.3689 3.25841 -0.222498 0
M  V30 627 H 56.0279 2.84324 -2.3142 0
M  V30 628 H 55.6759 4.93253 -0.985393 0
M  V30 629 H 55.3759 5.20878 -2.71955 0
M  V30 630 H 56.8999 5.77618 -1.97964 0
M  V30 631 H 58.3139 4.34328 -3.74208 0
M  V30 632 H 56.7109 4.01358 -4.4613 0
M  V30 633 H 57.7809 2.65987 -4.05436 0
M  V30 634 N 59.124 1.23083 0.984299 0
M  V30 635 C 60.373 1.05466 1.71929 0
M  V30 636 C 60.686 -0.409211 1.91272 0
M  V30 637 O 61.892 -0.705226 2.62181 0
M  V30 638 C 60.348 1.83874 3.09384 0
M  V30 639 C 59.956 3.34566 2.97943 0
M  V30 640 C 61.7 1.74734 3.8687 0
M  V30 641 C 59.607 4.05381 4.30605 0
M  V30 642 H 58.537 0.391039 0.644674 0
M  V30 643 H 61.188 1.47013 1.09815 0
M  V30 644 H 59.57 1.35131 3.72231 0
M  V30 645 H 60.744 3.90767 2.44209 0
M  V30 646 H 59.059 3.44476 2.33934 0
M  V30 647 H 61.656 2.24957 4.85076 0
M  V30 648 H 61.999 0.709372 4.10212 0
M  V30 649 H 62.532 2.21067 3.30717 0
M  V30 650 H 59.271 5.09467 4.1246 0
M  V30 651 H 58.791 3.53967 4.84218 0
M  V30 652 H 60.47 4.11458 4.99311 0
M  V30 653 N 60.6021 -1.18246 1.0419 0
M  V30 654 C 61.8501 -1.87886 0.744543 0
M  V30 655 C 62.1711 -1.8082 -0.730006 0
M  V30 656 O 61.4411 -1.22736 -1.52685 0
M  V30 657 H 60.0211 -0.695556 0.272417 0
M  V30 658 H 62.6831 -1.43494 1.31892 0
M  V30 659 H 61.7791 -2.9389 1.05049 0
M  V30 660 N 62.0802 -0.821533 -1.34494 0
M  V30 661 C 63.3262 -0.409552 -1.98622 0
M  V30 662 C 63.6592 1.0244 -1.64984 0
M  V30 663 O 62.9342 1.71325 -0.920758 0
M  V30 664 C 63.2172 -0.610458 -3.54888 0
M  V30 665 C 63.0702 -2.09043 -3.98273 0
M  V30 666 C 64.3892 -0.0455379 -4.40076 0
M  V30 667 H 61.5082 -0.15028 -0.721516 0
M  V30 668 H 64.1502 -1.03384 -1.59411 0
M  V30 669 H 62.3002 -0.079044 -3.8842 0
M  V30 670 H 63.9722 -2.68537 -3.75081 0
M  V30 671 H 62.2152 -2.58139 -3.48635 0
M  V30 672 H 62.8862 -2.18182 -5.07051 0
M  V30 673 H 65.3622 -0.499557 -4.1309 0
M  V30 674 H 64.2382 -0.215922 -5.48475 0
M  V30 675 H 64.4992 1.04939 -4.29465 0
M  V30 676 N 63.5583 1.46682 -0.576371 0
M  V30 677 C 64.7863 2.06798 -0.0649635 0
M  V30 678 C 65.2013 1.42612 1.23723 0
M  V30 679 O 64.5583 0.529203 1.74659 0
M  V30 680 C 64.6093 3.6132 0.114202 0
M  V30 681 O 64.3303 4.23104 -1.13644 0
M  V30 682 C 65.8313 4.38349 0.66069 0
M  V30 683 H 63.0513 0.668778 -0.0545616 0
M  V30 684 H 65.5953 1.88404 -0.795237 0
M  V30 685 H 63.7503 3.79162 0.794673 0
M  V30 686 H 64.1643 5.15894 -0.946253 0
M  V30 687 H 65.6383 5.47081 0.73526 0
M  V30 688 H 66.1153 4.05953 1.67627 0
M  V30 689 H 66.7213 4.25297 0.0152951 0
M  V30 690 N 65.0364 0.313813 1.54444 0
M  V30 691 C 66.4524 -0.0391619 1.59552 0
M  V30 692 C 66.6524 -1.51322 1.33056 0
M  V30 693 O 65.7084 -2.26782 1.11022 0
M  V30 694 C 67.0214 0.370302 2.98411 0
M  V30 695 C 68.5694 0.320139 3.11358 0
M  V30 696 C 69.0444 0.704617 4.52547 0
M  V30 697 N 70.5354 0.657645 4.58508 0
M  V30 698 C 71.2704 0.927453 5.6585 0
M  V30 699 N 70.7664 1.26389 6.81174 0
M  V30 700 N 72.5594 0.853662 5.5558 0
M  V30 701 H 64.7104 1.27433 1.69925 0
M  V30 702 H 66.9734 0.517511 0.794284 0
M  V30 703 H 66.6794 1.39694 3.22767 0
M  V30 704 H 66.5534 -0.269619 3.76235 0
M  V30 705 H 68.9404 -0.697275 2.86744 0
M  V30 706 H 69.0214 0.99486 2.35661 0
M  V30 707 H 68.6654 1.7199 4.77893 0
M  V30 708 H 68.5954 0.00768843 5.26599 0
M  V30 709 H 71.0864 0.409067 3.75679 0
M  V30 710 H 71.3994 1.4554 7.58972 0
M  V30 711 H 69.7444 1.30206 6.82694 0
M  V30 712 H 72.9354 0.590383 4.64362 0
M  V30 713 H 73.1084 1.0673 6.3915 0
M  V30 714 N 66.5145 -1.57545 0.0417849 0
M  V30 715 C 67.7425 -1.96624 -0.643928 0
M  V30 716 C 68.1575 -0.918897 -1.64929 0
M  V30 717 O 67.5145 0.0979323 -1.82237 0
M  V30 718 C 67.5655 -3.35781 -1.33914 0
M  V30 719 O 67.2865 -4.365 -0.374048 0
M  V30 720 C 68.7875 -3.89566 -2.1155 0
M  V30 721 H 66.0075 -0.647316 -0.176702 0
M  V30 722 H 68.5515 -2.04229 0.105304 0
M  V30 723 H 66.7065 -3.29357 -2.03968 0
M  V30 724 H 67.1205 -5.17248 -0.869179 0
M  V30 725 H 68.5945 -4.89242 -2.55628 0
M  V30 726 H 69.0715 -3.24488 -2.9598 0
M  V30 727 H 69.6775 -3.99298 -1.46427 0
M  V30 728 N 67.9926 0.231505 -1.5589 0
M  V30 729 C 69.2206 0.974505 -1.82513 0
M  V30 730 C 69.6356 1.78344 -0.619591 0
M  V30 731 O 68.9926 1.77792 0.411848 0
M  V30 732 C 69.0436 1.90007 -3.07538 0
M  V30 733 O 68.7646 1.12385 -4.2344 0
M  V30 734 C 70.2656 2.75779 -3.47075 0
M  V30 735 H 67.4856 0.286065 -0.606966 0
M  V30 736 H 70.0296 0.249739 -2.02969 0
M  V30 737 H 68.1846 2.57891 -2.89086 0
M  V30 738 H 68.5986 1.75125 -4.944 0
M  V30 739 H 70.0726 3.36443 -4.37619 0
M  V30 740 H 70.5496 3.47672 -2.68367 0
M  V30 741 H 71.1556 2.13323 -3.67931 0
M  V30 742 N 69.4707 1.49531 0.497807 0
M  V30 743 C 70.4007 1.6935 1.60757 0
M  V30 744 C 71.3817 0.542218 1.61227 0
M  V30 745 O 72.5667 0.778417 1.77917 0
M  V30 746 C 69.6967 1.76298 2.99226 0
M  V30 747 C 68.6507 2.91248 3.13622 0
M  V30 748 C 67.9767 2.83312 4.53474 0
M  V30 749 C 69.2767 4.3214 2.93346 0
M  V30 750 H 70.9707 2.62263 1.44425 0
M  V30 751 H 68.5167 1.26208 0.693367 0
M  V30 752 H 70.4697 1.88749 3.76765 0
M  V30 753 H 69.1937 0.799871 3.16654 0
M  V30 754 H 67.8527 2.78404 2.38509 0
M  V30 755 H 67.5007 1.84902 4.67782 0
M  V30 756 H 67.2007 3.60465 4.64046 0
M  V30 757 H 68.7247 2.97775 5.33069 0
M  V30 758 H 70.1387 4.45649 3.60652 0
M  V30 759 H 68.5357 5.1054 3.15387 0
M  V30 760 H 69.6057 4.46363 1.89441 0
M  V30 761 N 70.9488 -0.749086 1.3866 0
M  V30 762 C 72.3648 -1.05276 1.19955 0
M  V30 763 C 72.5648 -2.01435 0.05134 0
M  V30 764 O 71.6208 -2.45232 -0.60147 0
M  V30 765 C 72.9338 -1.62853 2.52783 0
M  V30 766 C 74.4818 -1.75002 2.59506 0
M  V30 767 C 74.9568 -2.35991 3.92521 0
M  V30 768 N 76.4478 -2.43416 3.94085 0
M  V30 769 C 77.1828 -2.91511 4.9377 0
M  V30 770 N 76.6788 -3.39608 6.03853 0
M  V30 771 N 78.4718 -2.90592 4.81157 0
M  V30 772 H 70.6228 -0.111066 2.12109 0
M  V30 773 H 72.8858 -0.111901 0.941373 0
M  V30 774 H 72.5918 -0.99664 3.37283 0
M  V30 775 H 72.4658 -2.61854 2.715 0
M  V30 776 H 74.8528 -2.37317 1.75398 0
M  V30 777 H 74.9338 -0.74693 2.44652 0
M  V30 778 H 74.5778 -1.74308 4.77053 0
M  V30 779 H 74.5078 -3.3695 4.04688 0
M  V30 780 H 76.9988 -2.09405 3.14576 0
M  V30 781 H 77.3118 -3.74775 6.75843 0
M  V30 782 H 75.6568 -3.37653 6.07466 0
M  V30 783 H 78.8478 -2.52332 3.94267 0
M  V30 784 H 79.0208 -3.27762 5.58996 0
M  V30 785 N 72.4269 -1.23603 -0.977757 0
M  V30 786 C 73.3369 -1.03632 -2.1047 0
M  V30 787 C 74.3529 0.0199435 -1.73989 0
M  V30 788 O 75.5289 -0.176076 -2.00629 0
M  V30 789 C 72.5939 -0.63276 -3.40877 0
M  V30 790 C 71.6549 -1.76437 -3.91367 0
M  V30 791 C 70.8879 -1.37997 -5.15551 0
M  V30 792 O 71.1109 -0.265357 -5.69782 0
M  V30 793 O 70.0449 -2.20201 -5.60174 0
M  V30 794 H 73.8709 -1.98086 -2.30208 0
M  V30 795 H 71.4559 -1.02332 -1.08851 0
M  V30 796 H 73.3379 -0.418761 -4.19314 0
M  V30 797 H 72.0129 0.282754 -3.22463 0
M  V30 798 H 70.9199 -2.03304 -3.14036 0
M  V30 799 H 72.2529 -2.6583 -4.14241 0
M  V30 800 N 73.905 1.17692 -1.04816 0
M  V30 801 C 75.151 1.88137 -0.75711 0
M  V30 802 C 75.484 1.80604 0.713841 0
M  V30 803 O 74.759 1.21146 1.52164 0
M  V30 804 C 75.042 3.38318 -1.2334 0
M  V30 805 C 74.895 3.54622 -2.76701 0
M  V30 806 C 76.214 4.32214 -0.829415 0
M  V30 807 H 73.333 0.683163 -0.27651 0
M  V30 808 H 75.975 1.38424 -1.30149 0
M  V30 809 H 74.125 3.80787 -0.770286 0
M  V30 810 H 75.797 3.21194 -3.31107 0
M  V30 811 H 74.04 2.97026 -3.16161 0
M  V30 812 H 74.711 4.60028 -3.05088 0
M  V30 813 H 77.187 3.97565 -1.22805 0
M  V30 814 H 76.063 5.35838 -1.19033 0
M  V30 815 H 76.324 4.41294 0.266891 0
M  V30 816 N 75.3831 0.828654 1.34056 0
M  V30 817 C 76.3131 0.269443 2.3194 0
M  V30 818 C 77.2941 -0.617247 1.58506 0
M  V30 819 O 78.4791 -0.542931 1.86456 0
M  V30 820 C 75.6091 -0.564793 3.42677 0
M  V30 821 C 74.5631 0.225241 4.27407 0
M  V30 822 C 73.8891 -0.7321 5.29664 0
M  V30 823 C 75.1891 1.43663 5.02154 0
M  V30 824 H 76.8831 1.08728 2.7896 0
M  V30 825 H 74.4291 0.524283 1.34117 0
M  V30 826 H 76.3821 -0.966233 4.10173 0
M  V30 827 H 75.1061 -1.41574 2.9432 0
M  V30 828 H 73.7651 0.608117 3.61521 0
M  V30 829 H 73.4131 -1.57916 4.77568 0
M  V30 830 H 73.1131 -0.20767 5.87233 0
M  V30 831 H 74.6371 -1.13128 6.00029 0
M  V30 832 H 76.0511 1.1089 5.62473 0
M  V30 833 H 74.4481 1.89711 5.69324 0
M  V30 834 H 75.5181 2.21181 4.31517 0
M  V30 835 N 76.8612 -1.46375 0.584142 0
M  V30 836 C 77.7932 -2.28443 -0.186119 0
M  V30 837 C 78.8062 -1.38596 -0.854115 0
M  V30 838 O 79.9952 -1.63183 -0.723438 0
M  V30 839 C 77.0952 -3.13671 -1.28311 0
M  V30 840 C 76.2682 -4.31652 -0.706758 0
M  V30 841 C 75.3272 -4.98267 -1.69163 0
M  V30 842 O 74.3532 -5.55815 -1.22712 0
M  V30 843 N 75.5552 -4.95408 -3.02575 0
M  V30 844 H 78.3202 -2.9519 0.517986 0
M  V30 845 H 75.8812 -1.56303 0.42201 0
M  V30 846 H 77.8732 -3.55101 -1.94128 0
M  V30 847 H 76.4432 -2.48989 -1.89005 0
M  V30 848 H 75.6632 -3.93989 0.128908 0
M  V30 849 H 76.9512 -5.07906 -0.301506 0
M  V30 850 H 76.3492 -4.49902 -3.42936 0
M  V30 851 H 74.9062 -5.40774 -3.63877 0
M  V30 852 N 78.3393 -0.321999 -1.54275 0
M  V30 853 C 79.7553 0.0306999 -1.5957 0
M  V30 854 C 79.9553 1.50614 -1.33857 0
M  V30 855 O 79.0113 2.2619 -1.12223 0
M  V30 856 C 80.3243 -0.386122 -2.98211 0
M  V30 857 C 81.8723 -0.336647 -3.11184 0
M  V30 858 C 82.3473 -0.728607 -4.52167 0
M  V30 859 N 83.8383 -0.681952 -4.58152 0
M  V30 860 C 84.5733 -0.957449 -5.6535 0
M  V30 861 N 84.0693 -1.3 -6.80494 0
M  V30 862 N 85.8623 -0.883113 -5.55119 0
M  V30 863 H 78.0133 -1.28332 -1.69247 0
M  V30 864 H 80.2763 -0.521716 -0.791528 0
M  V30 865 H 79.9823 -1.41404 -3.22022 0
M  V30 866 H 79.8563 0.249662 -3.76373 0
M  V30 867 H 82.2433 0.682058 -2.8711 0
M  V30 868 H 82.3243 -1.00734 -2.3513 0
M  V30 869 H 81.9683 -1.74522 -4.76974 0
M  V30 870 H 81.8983 -0.0356152 -5.26588 0
M  V30 871 H 84.3893 -0.428985 -3.75457 0
M  V30 872 H 84.7023 -1.49563 -7.58189 0
M  V30 873 H 83.0473 -1.33824 -6.81994 0
M  V30 874 H 86.2383 -0.615001 -4.64042 0
M  V30 875 H 86.4113 -1.10118 -6.38575 0
M  V30 876 N 79.8174 1.5752 -0.0501392 0
M  V30 877 C 80.7474 2.14502 0.922566 0
M  V30 878 C 81.7284 1.06642 1.3252 0
M  V30 879 O 82.9134 1.34577 1.4001 0
M  V30 880 C 80.0434 2.68916 2.19776 0
M  V30 881 C 78.9974 3.8175 1.93523 0
M  V30 882 C 78.3234 4.22677 3.27487 0
M  V30 883 C 79.6234 5.06932 1.25765 0
M  V30 884 H 81.3174 2.9603 0.447952 0
M  V30 885 H 78.8634 1.42401 0.214024 0
M  V30 886 H 80.8164 3.07419 2.88222 0
M  V30 887 H 79.5404 1.84578 2.69441 0
M  V30 888 H 78.1994 3.43718 1.27489 0
M  V30 889 H 77.8474 3.35291 3.74952 0
M  V30 890 H 77.5474 4.98725 3.1072 0
M  V30 891 H 79.0714 4.63779 3.97166 0
M  V30 892 H 80.4854 5.42888 1.84244 0
M  V30 893 H 78.8824 5.88116 1.19328 0
M  V30 894 H 79.9524 4.84337 0.233536 0
M  V30 895 N 81.2955 -0.223234 1.56011 0
M  V30 896 C 82.2585 -1.26014 1.9145 0
M  V30 897 C 83.2585 -1.3989 0.792937 0
M  V30 898 O 84.4485 -1.38184 1.0607 0
M  V30 899 C 81.5805 -2.63422 2.16383 0
M  V30 900 H 82.7735 -0.95796 2.84189 0
M  V30 901 H 80.3265 -0.463576 1.49267 0
M  V30 902 H 81.0615 -2.98741 1.2619 0
M  V30 903 H 80.8465 -2.54728 2.98088 0
M  V30 904 H 82.3365 -3.38249 2.44903 0
M  V30 905 N 82.7736 -1.49793 -0.48987 0
M  V30 906 C 84.1896 -1.36803 -0.822022 0
M  V30 907 C 84.3896 -0.409652 -1.97292 0
M  V30 908 O 83.4456 0.154614 -2.52026 0
M  V30 909 C 84.7586 -2.77768 -1.15175 0
M  V30 910 C 86.3066 -2.86549 -1.25931 0
M  V30 911 C 86.7816 -4.28306 -1.62228 0
M  V30 912 N 88.2726 -4.31169 -1.69256 0
M  V30 913 C 89.0076 -5.37832 -1.98807 0
M  V30 914 N 88.5036 -6.54726 -2.26507 0
M  V30 915 N 90.2966 -5.25258 -2.00152 0
M  V30 916 H 82.4476 -2.10691 0.268881 0
M  V30 917 H 84.7106 -0.946241 0.057728 0
M  V30 918 H 84.4166 -3.49648 -0.379335 0
M  V30 919 H 84.2906 -3.13836 -2.09253 0
M  V30 920 H 86.6776 -2.14899 -2.02243 0
M  V30 921 H 86.7586 -2.54049 -0.298776 0
M  V30 922 H 86.4026 -5.00486 -0.864622 0
M  V30 923 H 86.3326 -4.58279 -2.594 0
M  V30 924 H 88.8236 -3.4687 -1.49965 0
M  V30 925 H 89.1366 -7.31833 -2.48276 0
M  V30 926 H 87.4816 -6.57933 -2.23939 0
M  V30 927 H 90.6726 -4.32938 -1.77996 0
M  V30 928 H 90.8456 -6.08476 -2.22848 0
M  V30 929 N 84.2517 0.741722 -1.39055 0
M  V30 930 C 85.5287 1.49252 -1.26425 0
M  V30 931 C 85.9087 2.10705 0.129144 0
M  V30 932 O 85.2567 1.98045 1.13976 0
M  V30 933 C 85.4667 2.54934 -2.38347 0
M  V30 934 C 86.8147 3.21506 -2.77343 0
M  V30 935 O 87.8387 2.65245 -2.37747 0
M  V30 936 O 86.6977 4.23294 -3.45665 0
M  V30 937 H 83.7917 0.662451 -0.495064 0
M  V30 938 H 86.3377 0.776121 -1.50912 0
M  V30 939 H 85.1097 2.07857 -3.31529 0
M  V30 940 H 84.7327 3.34141 -2.15489 0
M  V30 941 N 85.7298 1.2412 0.971189 0
M  V30 942 C 86.9778 1.07668 1.71032 0
M  V30 943 C 87.2988 -0.385797 1.91146 0
M  V30 944 O 86.5688 -1.27569 1.4867 0
M  V30 945 H 85.1488 0.395429 0.633755 0
M  V30 946 H 87.8108 1.55984 1.16855 0
M  V30 947 H 86.9068 1.57195 2.69622 0
M  V30 948 N 87.2079 -1.17134 1.05439 0
M  V30 949 C 88.4539 -1.87979 0.776872 0
M  V30 950 C 88.8089 -1.7965 -0.688751 0
M  V30 951 O 88.1019 -1.19535 -1.4974 0
M  V30 952 C 88.2959 -3.36833 1.19491 0
M  V30 953 C 88.1249 -3.59653 2.69963 0
M  V30 954 C 86.8949 -3.76234 3.37307 0
M  V30 955 C 89.0929 -3.59091 3.68182 0
M  V30 956 N 87.0749 -3.86922 4.76618 0
M  V30 957 C 88.4459 -3.75659 4.93235 0
M  V30 958 C 90.5009 -3.42255 3.61616 0
M  V30 959 C 89.2039 -3.77133 6.12506 0
M  V30 960 C 91.2299 -3.45018 4.8033 0
M  V30 961 C 90.5919 -3.62096 6.04207 0
M  V30 962 H 86.6909 -0.705876 0.336546 0
M  V30 963 H 89.2749 -1.40602 1.34682 0
M  V30 964 H 87.4459 -3.82873 0.652884 0
M  V30 965 H 89.1779 -3.95305 0.866966 0
M  V30 966 H 85.9329 -3.76193 2.87708 0
M  V30 967 H 86.3569 -3.96055 5.49062 0
M  V30 968 H 90.9989 -3.27986 2.66805 0
M  V30 969 H 88.7169 -3.90186 7.07659 0
M  V30 970 H 92.3029 -3.33246 4.76905 0
M  V30 971 H 91.1829 -3.64142 6.94529 0
M  V30 972 N 88.686 -0.835752 -1.33615 0
M  V30 973 C 89.616 -0.281739 -2.31794 0
M  V30 974 C 90.597 0.608833 -1.58831 0
M  V30 975 O 91.782 0.533035 -1.86741 0
M  V30 976 C 88.912 0.546612 -3.42971 0
M  V30 977 C 87.866 -0.247904 -4.27281 0
M  V30 978 C 87.192 0.704001 -5.30045 0
M  V30 979 C 88.492 -1.46324 -5.01385 0
M  V30 980 H 90.186 -1.10206 -2.78379 0
M  V30 981 H 87.732 -0.531388 -1.33837 0
M  V30 982 H 89.685 0.944467 -4.1068 0
M  V30 983 H 88.409 1.40011 -2.95067 0
M  V30 984 H 87.068 -0.627281 -3.61194 0
M  V30 985 H 86.716 1.55381 -4.78399 0
M  V30 986 H 86.416 0.176524 -5.87335 0
M  V30 987 H 87.94 1.09944 -6.0062 0
M  V30 988 H 89.354 -1.13871 -5.61877 0
M  V30 989 H 87.751 -1.92728 -5.6831 0
M  V30 990 H 88.821 -2.23467 -4.30338 0
M  V30 991 N 90.1641 1.46063 -0.591896 0
M  V30 992 C 91.3921 2.06717 -0.0868936 0
M  V30 993 C 91.8071 1.43916 1.22203 0
M  V30 994 O 91.1641 0.547698 1.74088 0
M  V30 995 C 91.2151 3.6142 0.0758725 0
M  V30 996 O 90.9361 4.21874 -1.18126 0
M  V30 997 C 92.4371 4.39025 0.61416 0
M  V30 998 H 89.6571 0.668162 -0.0616518 0
M  V30 999 H 92.2011 1.8755 -0.815175 0
M  V30 1000 H 90.3561 3.79983 0.754413 0
M  V30 1001 H 90.7701 5.14861 -1.00092 0
M  V30 1002 H 92.2441 5.4783 0.677193 0
M  V30 1003 H 92.7211 4.07708 1.63312 0
M  V30 1004 H 93.3271 4.2529 -0.0298142 0
M  V30 1005 N 91.6422 0.330177 1.54103 0
M  V30 1006 C 92.8912 -0.271336 1.99867 0
M  V30 1007 C 93.2042 -1.52723 1.22209 0
M  V30 1008 O 94.4102 -2.20515 1.58383 0
M  V30 1009 C 92.8662 -0.534032 3.55916 0
M  V30 1010 C 92.4742 0.705193 4.42415 0
M  V30 1011 C 94.2182 -1.09514 4.1013 0
M  V30 1012 C 92.1252 0.414035 5.89949 0
M  V30 1013 H 91.0552 -0.105166 0.74663 0
M  V30 1014 H 93.7062 0.443429 1.78062 0
M  V30 1015 H 92.0882 -1.30915 3.73734 0
M  V30 1016 H 93.2622 1.4804 4.36372 0
M  V30 1017 H 91.5772 1.18698 3.99124 0
M  V30 1018 H 94.1742 -1.3277 5.17954 0
M  V30 1019 H 94.5172 -2.04656 3.62521 0
M  V30 1020 H 95.0502 -0.381038 3.95971 0
M  V30 1021 H 91.7892 1.33481 6.41766 0
M  V30 1022 H 91.3092 -0.323336 5.98928 0
M  V30 1023 H 92.9882 0.0263105 6.46995 0
M  V30 1024 N 93.1203 -1.57491 0.0584922 0
M  V30 1025 C 94.0523 -2.08916 -0.942694 0
M  V30 1026 C 95.0653 -1.0185 -1.27006 0
M  V30 1027 O 96.2543 -1.29398 -1.22957 0
M  V30 1028 C 93.3543 -2.52341 -2.26224 0
M  V30 1029 C 92.5273 -3.82827 -2.1157 0
M  V30 1030 C 91.5863 -4.12487 -3.26712 0
M  V30 1031 O 90.6123 -4.82295 -3.02292 0
M  V30 1032 N 91.8143 -3.64978 -4.5141 0
M  V30 1033 H 94.5793 -2.95437 -0.503722 0
M  V30 1034 H 92.1403 -1.61397 -0.12757 0
M  V30 1035 H 94.1323 -2.69254 -3.02133 0
M  V30 1036 H 92.7023 -1.7103 -2.61663 0
M  V30 1037 H 91.9223 -3.75425 -1.20208 0
M  V30 1038 H 93.2103 -4.68263 -1.99015 0
M  V30 1039 H 92.6083 -3.08558 -4.7414 0
M  V30 1040 H 91.1653 -3.87115 -5.2439 0
M  V30 1041 N 94.5984 0.214957 -1.56127 0
M  V30 1042 C 95.5484 1.27006 -1.8935 0
M  V30 1043 C 96.5324 1.41969 -0.757202 0
M  V30 1044 O 97.7244 1.44673 -1.01973 0
M  V30 1045 C 94.8534 2.61911 -2.2194 0
M  V30 1046 C 93.9394 2.50822 -3.41978 0
M  V30 1047 N 94.3304 2.09391 -4.60423 0
M  V30 1048 C 92.6284 2.81765 -3.45723 0
M  V30 1049 C 93.3294 2.09712 -5.42582 0
M  V30 1050 N 92.3054 2.50454 -4.82466 0
M  V30 1051 H 96.1074 0.940734 -2.78437 0
M  V30 1052 H 93.6214 0.423492 -1.56781 0
M  V30 1053 H 95.6184 3.38096 -2.43919 0
M  V30 1054 H 94.2784 2.95684 -1.34169 0
M  V30 1055 H 95.2894 1.80416 -4.85459 0
M  V30 1056 H 91.9664 3.19865 -2.68314 0
M  V30 1057 H 93.3564 1.79748 -6.4741 0
M  V30 1058 N 96.0765 1.50051 0.48192 0
M  V30 1059 C 97.3245 1.60181 1.23234 0
M  V30 1060 C 97.6455 0.299176 1.92691 0
M  V30 1061 O 96.9155 -0.682708 1.83619 0
M  V30 1062 H 95.4955 0.590232 0.457859 0
M  V30 1063 H 98.1575 1.86775 0.556881 0
M  V30 1064 H 97.2535 2.40753 1.98607 0
M  V30 1065 N 97.5546 -0.734337 1.39446 0
M  V30 1066 C 98.5016 -1.84835 1.38219 0
M  V30 1067 C 99.4716 -1.64331 0.24179 0
M  V30 1068 O 100.657 -1.85728 0.437002 0
M  V30 1069 C 97.7966 -3.22355 1.23212 0
M  V30 1070 C 96.9096 -3.5456 2.46801 0
M  V30 1071 C 96.0446 -4.81485 2.24377 0
M  V30 1072 C 95.0836 -5.06536 3.43639 0
M  V30 1073 N 94.2206 -6.24665 3.20528 0
M  V30 1074 H 99.0606 -1.85219 2.33448 0
M  V30 1075 H 96.5976 -0.905039 1.15963 0
M  V30 1076 H 98.5556 -4.0174 1.12522 0
M  V30 1077 H 97.1856 -3.21248 0.316121 0
M  V30 1078 H 96.2376 -2.69872 2.68092 0
M  V30 1079 H 97.5496 -3.6899 3.3563 0
M  V30 1080 H 96.7036 -5.68852 2.10933 0
M  V30 1081 H 95.4426 -4.6923 1.32944 0
M  V30 1082 H 94.4476 -4.17632 3.5758 0
M  V30 1083 H 95.6726 -5.20676 4.35974 0
M  V30 1084 H 93.6186 -6.13696 2.3176 0
M  V30 1085 H 93.5356 -6.39685 4.02913 0
M  V30 1086 H 94.8036 -7.14868 3.10779 0
M  V30 1087 N 99.0327 -1.24633 -0.964593 0
M  V30 1088 C 100.444 -1.08045 -1.5226 0
M  V30 1089 C 100.795 0.347116 -1.93105 0
M  V30 1090 O 99.9197 1.23588 -1.77637 0
M  V30 1091 C 100.515 -1.95514 -2.76695 0
M  V30 1092 C 99.0737 -1.8314 -3.28841 0
M  V30 1093 C 98.2207 -1.90262 -2.01732 0
M  V30 1094 H 101.172 -1.38064 -0.782553 0
M  V30 1095 H 101.193 -1.48925 -3.50145 0
M  V30 1096 H 100.705 -2.99407 -2.46936 0
M  V30 1097 H 98.8057 -0.82092 -3.63444 0
M  V30 1098 H 98.9187 -2.67406 -3.97531 0
M  V30 1099 H 97.2827 -1.34027 -2.16584 0
M  V30 1100 H 98.0657 -2.9574 -1.74334 0
M  V30 1101 N 100.511 1.16574 -1.06058 0
M  V30 1102 C 101.739 1.90952 -0.796552 0
M  V30 1103 C 102.154 1.77302 0.648808 0
M  V30 1104 O 101.511 1.11605 1.44397 0
M  V30 1105 C 101.562 3.41736 -1.17894 0
M  V30 1106 O 101.283 3.54975 -2.56758 0
M  V30 1107 C 102.784 4.33169 -0.942308 0
M  V30 1108 H 100.004 0.605594 -0.288959 0
M  V30 1109 H 102.548 1.47777 -1.41358 0
M  V30 1110 H 100.703 3.82623 -0.606491 0
M  V30 1111 H 101.117 4.4846 -2.72 0
M  V30 1112 H 102.591 5.37439 -1.25952 0
M  V30 1113 H 103.068 4.3903 0.122078 0
M  V30 1114 H 103.674 3.98007 -1.49902 0
M  V30 1115 N 101.989 0.842826 1.3317 0
M  V30 1116 C 102.936 0.276885 2.29133 0
M  V30 1117 C 103.906 -0.609527 1.54512 0
M  V30 1118 O 105.091 -0.546955 1.82792 0
M  V30 1119 C 102.231 -0.538707 3.40869 0
M  V30 1120 C 101.344 0.372169 4.30394 0
M  V30 1121 C 100.479 -0.454908 5.29249 0
M  V30 1122 C 99.5179 0.45411 6.10413 0
M  V30 1123 N 98.6549 -0.335075 7.013 0
M  V30 1124 H 103.495 1.10052 2.76934 0
M  V30 1125 H 101.032 0.554161 1.36262 0
M  V30 1126 H 102.99 -1.02709 4.0436 0
M  V30 1127 H 101.62 -1.32727 2.9425 0
M  V30 1128 H 100.672 0.97888 3.6759 0
M  V30 1129 H 101.984 1.0703 4.87182 0
M  V30 1130 H 101.138 -1.00695 5.98285 0
M  V30 1131 H 99.8769 -1.18646 4.73048 0
M  V30 1132 H 98.8819 1.01813 5.40291 0
M  V30 1133 H 100.107 1.18409 6.68697 0
M  V30 1134 H 98.0529 -1.04994 6.47543 0
M  V30 1135 H 97.9699 0.304262 7.55387 0
M  V30 1136 H 99.2379 -0.869224 7.74638 0
M  V30 1137 N 103.467 -1.45747 0.599634 0
M  V30 1138 C 104.713 -2.02592 0.0918643 0
M  V30 1139 C 105.046 -1.46806 -1.27128 0
M  V30 1140 O 104.321 -0.639658 -1.83681 0
M  V30 1141 C 104.604 -3.60073 0.0443398 0
M  V30 1142 C 104.457 -4.26208 1.43759 0
M  V30 1143 C 105.776 -4.35309 -0.647608 0
M  V30 1144 H 102.895 -0.736175 0.034857 0
M  V30 1145 H 105.537 -1.73694 0.770081 0
M  V30 1146 H 103.687 -3.84823 -0.533224 0
M  V30 1147 H 105.359 -4.12668 2.06162 0
M  V30 1148 H 103.602 -3.84916 2.00056 0
M  V30 1149 H 104.273 -5.35069 1.35665 0
M  V30 1150 H 106.749 -4.15805 -0.156776 0
M  V30 1151 H 105.625 -5.45038 -0.649942 0
M  V30 1152 H 105.886 -4.07598 -1.71219 0
M  V30 1153 N 104.945 -0.338344 -1.53925 0
M  V30 1154 C 105.893 0.536231 -2.26335 0
M  V30 1155 C 106.887 1.1063 -1.28286 0
M  V30 1156 O 108.093 1.05264 -1.46012 0
M  V30 1157 H 104.468 0.191602 -0.727181 0
M  V30 1158 H 106.439 -0.0965747 -2.98244 0
M  V30 1159 C 105.188 1.67803 -3.04528 0
M  V30 1160 H 104.511 1.24864 -3.79801 0
M  V30 1161 H 105.951 2.26526 -3.58416 0
M  V30 1162 C 104.41 2.60439 -2.13712 0
M  V30 1163 O 104.94 3.6255 -1.72975 0
M  V30 1164 N 103.146 2.29006 -1.78898 0
M  V30 1165 H 102.693 1.46011 -2.12223 0
M  V30 1166 H 102.651 2.91248 -1.18416 0
M  V30 1167 N 106.423 1.57458 -0.0668435 0
M  V30 1168 C 107.371 2.13639 0.919851 0
M  V30 1169 C 108.365 1.07204 1.31163 0
M  V30 1170 O 109.571 1.25591 1.28945 0
M  V30 1171 H 105.946 0.683048 0.314562 0
M  V30 1172 H 107.917 2.95415 0.421047 0
M  V30 1173 C 106.666 2.70892 2.17975 0
M  V30 1174 H 105.989 3.5246 1.88711 0
M  V30 1175 H 107.429 3.13803 2.85138 0
M  V30 1176 C 105.888 1.65414 2.93496 0
M  V30 1177 O 106.418 1.07619 3.87015 0
M  V30 1178 N 104.624 1.36564 2.56512 0
M  V30 1179 H 104.171 1.83751 1.80536 0
M  V30 1180 H 104.129 0.66223 3.07347 0
M  V30 1181 N 107.901 -0.206675 1.56239 0
M  V30 1182 C 109.148 -0.928842 1.79941 0
M  V30 1183 C 109.476 -1.83734 0.638131 0
M  V30 1184 O 108.731 -1.92039 -0.376746 0
M  V30 1185 C 109.03 -1.78675 3.09532 0
M  V30 1186 C 108.696 -1.03022 4.38973 0
M  V30 1187 C 107.358 -0.821302 4.74139 0
M  V30 1188 C 109.71 -0.497081 5.18824 0
M  V30 1189 C 107.038 -0.0675719 5.86661 0
M  V30 1190 C 109.39 0.24338 6.32132 0
M  V30 1191 C 108.054 0.463422 6.65889 0
M  V30 1192 H 107.324 -0.339887 0.658451 0
M  V30 1193 H 109.971 -0.195977 1.90495 0
M  V30 1194 H 108.276 -2.58794 2.94165 0
M  V30 1195 H 109.973 -2.34792 3.25075 0
M  V30 1196 H 106.563 -1.20306 4.11369 0
M  V30 1197 H 110.747 -0.645921 4.92079 0
M  V30 1198 H 106.003 0.112995 6.11296 0
M  V30 1199 H 110.177 0.66393 6.93228 0
M  V30 1200 H 107.804 1.04938 7.52922 0
M  V30 1201 N 109.379 -1.50304 -0.473955 0
M  V30 1202 C 110.625 -1.62358 -1.22521 0
M  V30 1203 C 110.98 -0.318555 -1.89745 0
M  V30 1204 O 110.273 0.683315 -1.79001 0
M  V30 1205 C 110.467 -2.73938 -2.29549 0
M  V30 1206 C 110.296 -4.15165 -1.72825 0
M  V30 1207 C 109.066 -4.81604 -1.52924 0
M  V30 1208 C 111.264 -4.99503 -1.22481 0
M  V30 1209 N 109.246 -6.07056 -0.91413 0
M  V30 1210 C 110.617 -6.15655 -0.732743 0
M  V30 1211 C 112.672 -4.85299 -1.11308 0
M  V30 1212 C 111.375 -7.19164 -0.139976 0
M  V30 1213 C 113.401 -5.88982 -0.534258 0
M  V30 1214 C 112.763 -7.0438 -0.0525562 0
M  V30 1215 H 108.862 -0.648286 -0.437321 0
M  V30 1216 H 111.446 -1.87413 -0.527692 0
M  V30 1217 H 109.617 -2.50611 -2.9673 0
M  V30 1218 H 111.349 -2.75366 -2.96573 0
M  V30 1219 H 108.104 -4.3885 -1.78067 0
M  V30 1220 H 108.528 -6.74108 -0.625071 0
M  V30 1221 H 113.17 -3.96369 -1.47144 0
M  V30 1222 H 110.888 -8.07771 0.230591 0
M  V30 1223 H 114.474 -5.80055 -0.450219 0
M  V30 1224 H 113.354 -7.83238 0.388324 0
M  V30 1225 N 110.857 0.726932 -1.39834 0
M  V30 1226 C 111.767 1.87131 -1.41489 0
M  V30 1227 C 112.783 1.71239 -0.308757 0
M  V30 1228 O 113.959 1.93701 -0.551529 0
M  V30 1229 C 111.024 3.22811 -1.26468 0
M  V30 1230 C 110.085 3.51039 -2.47124 0
M  V30 1231 C 109.318 4.80245 -2.3281 0
M  V30 1232 O 109.541 5.54537 -1.33585 0
M  V30 1233 O 108.475 5.08554 -3.21957 0
M  V30 1234 H 112.301 1.8869 -2.3797 0
M  V30 1235 H 109.886 0.875837 -1.21035 0
M  V30 1236 H 111.768 4.03877 -1.20255 0
M  V30 1237 H 110.443 3.22005 -0.330862 0
M  V30 1238 H 109.35 2.70027 -2.58914 0
M  V30 1239 H 110.683 3.56632 -3.39227 0
M  V30 1240 N 112.336 1.25143 0.95797 0
M  V30 1241 C 113.564 1.12424 1.73691 0
M  V30 1242 C 113.979 -0.322304 1.86029 0
M  V30 1243 O 113.336 -1.22186 1.35561 0
M  V30 1244 C 113.387 1.76933 3.15241 0
M  V30 1245 O 113.108 3.15932 3.03511 0
M  V30 1246 C 114.609 1.6995 4.09429 0
M  V30 1247 H 111.829 0.3923 0.544373 0
M  V30 1248 H 114.373 1.6544 1.20207 0
M  V30 1249 H 112.528 1.27895 3.6568 0
M  V30 1250 H 112.942 3.47598 3.9278 0
M  V30 1251 H 114.416 2.19753 5.06372 0
M  V30 1252 H 114.893 0.662619 4.34173 0
M  V30 1253 H 115.499 2.18461 3.64904 0
M  V30 1254 N 113.814 -1.1601 1.06675 0
M  V30 1255 C 115.039 -1.91068 0.806706 0
M  V30 1256 C 115.464 -1.77112 -0.633485 0
M  V30 1257 O 114.822 -1.09908 -1.44187 0
M  V30 1258 C 114.87 -3.39655 1.21106 0
M  V30 1259 O 113.974 -4.10893 0.352189 0
M  V30 1260 H 113.315 -0.595125 0.294486 0
M  V30 1261 H 115.845 -1.46955 1.42356 0
M  V30 1262 H 115.855 -3.90434 1.18428 0
M  V30 1263 H 114.53 -3.49132 2.26008 0
M  V30 1264 H 113.107 -3.70285 0.440868 0
M  V30 1265 N 115.292 -0.849877 -1.32721 0
M  V30 1266 C 116.54 -0.450032 -1.97026 0
M  V30 1267 C 116.861 0.996604 -1.67609 0
M  V30 1268 O 116.131 1.6958 -0.980786 0
M  V30 1269 H 114.711 -0.163426 -0.728904 0
M  V30 1270 H 117.373 -1.08526 -1.6189 0
M  V30 1271 H 116.469 -0.591146 -3.0645 0
M  V30 1272 N 116.77 1.45427 -0.607355 0
M  V30 1273 C 117.7 2.3329 0.0989352 0
M  V30 1274 C 118.681 1.46816 0.859007 0
M  V30 1275 O 119.866 1.75588 0.829604 0
M  V30 1276 C 116.996 3.29518 1.09705 0
M  V30 1277 C 115.95 4.25626 0.450206 0
M  V30 1278 C 115.276 5.11542 1.55655 0
M  V30 1279 C 116.576 5.18505 -0.628455 0
M  V30 1280 H 118.27 2.92595 -0.634716 0
M  V30 1281 H 115.816 1.40696 -0.306681 0
M  V30 1282 H 117.769 3.89855 1.59971 0
M  V30 1283 H 116.493 2.68372 1.86129 0
M  V30 1284 H 115.152 3.66586 -0.0315886 0
M  V30 1285 H 114.8 4.46765 2.31107 0
M  V30 1286 H 114.5 5.76647 1.12925 0
M  V30 1287 H 116.024 5.74748 2.06148 0
M  V30 1288 H 117.438 5.72916 -0.209877 0
M  V30 1289 H 115.835 5.92085 -0.977489 0
M  V30 1290 H 116.905 4.60948 -1.50514 0
M  V30 1291 N 118.248 0.346503 1.53744 0
M  V30 1292 C 119.196 -0.52422 2.26616 0
M  V30 1293 C 120.19 -1.09948 1.28871 0
M  V30 1294 O 121.396 -1.04488 1.46568 0
M  V30 1295 H 117.771 -0.187743 0.728187 0
M  V30 1296 H 119.742 0.11239 2.98188 0
M  V30 1297 C 118.491 -1.66186 3.05414 0
M  V30 1298 H 117.814 -1.22848 3.80458 0
M  V30 1299 H 119.254 -2.24622 3.59612 0
M  V30 1300 C 117.713 -2.59302 2.1509 0
M  V30 1301 O 118.243 -3.61628 1.74895 0
M  V30 1302 N 116.449 -2.28055 1.8011 0
M  V30 1303 H 115.996 -1.44883 2.12994 0
M  V30 1304 H 115.954 -2.90615 1.19958 0
M  V30 1305 N 119.726 -1.57421 0.075193 0
M  V30 1306 C 120.975 -1.92794 -0.592731 0
M  V30 1307 C 121.288 -0.957478 -1.70563 0
M  V30 1308 O 122.494 -1.20417 -2.43335 0
M  V30 1309 C 120.95 -3.42495 -1.10569 0
M  V30 1310 C 120.558 -4.47994 -0.0236121 0
M  V30 1311 C 122.302 -3.86864 -1.74748 0
M  V30 1312 C 120.209 -5.88829 -0.550803 0
M  V30 1313 H 119.139 -0.719591 -0.225177 0
M  V30 1314 H 121.79 -1.82902 0.147978 0
M  V30 1315 H 120.172 -3.47471 -1.89947 0
M  V30 1316 H 121.346 -4.54637 0.751099 0
M  V30 1317 H 119.661 -4.13113 0.522159 0
M  V30 1318 H 122.258 -4.8947 -2.15229 0
M  V30 1319 H 122.601 -3.24417 -2.60882 0
M  V30 1320 H 123.134 -3.84504 -1.01986 0
M  V30 1321 H 119.873 -6.54929 0.273457 0
M  V30 1322 H 119.393 -5.85698 -1.29296 0
M  V30 1323 H 121.072 -6.38811 -1.02613 0
M  V30 1324 N 121.204 0.198386 -1.56346 0
M  V30 1325 C 122.134 1.24865 -1.9731 0
M  V30 1326 C 123.115 1.47651 -0.844576 0
M  V30 1327 O 124.3 1.59444 -1.10866 0
M  V30 1328 C 121.43 2.59358 -2.30977 0
M  V30 1329 C 120.384 2.5119 -3.46537 0
M  V30 1330 C 119.71 3.89926 -3.65871 0
M  V30 1331 C 121.01 2.03977 -4.80823 0
M  V30 1332 H 122.704 0.908252 -2.85291 0
M  V30 1333 H 120.25 0.435462 -1.37258 0
M  V30 1334 H 122.203 3.33011 -2.58228 0
M  V30 1335 H 120.927 2.95132 -1.39874 0
M  V30 1336 H 119.586 1.79993 -3.19371 0
M  V30 1337 H 119.234 4.23046 -2.72105 0
M  V30 1338 H 118.934 3.85336 -4.4361 0
M  V30 1339 H 120.458 4.65205 -3.95495 0
M  V30 1340 H 121.872 2.67386 -5.07127 0
M  V30 1341 H 120.269 2.10397 -5.62008 0
M  V30 1342 H 121.339 0.992861 -4.74626 0
M  V30 1343 N 122.682 1.50554 0.465978 0
M  V30 1344 C 123.592 1.72585 1.58907 0
M  V30 1345 C 124.608 0.60911 1.6299 0
M  V30 1346 O 125.784 0.88804 1.80765 0
M  V30 1347 C 122.849 1.81995 2.95091 0
M  V30 1348 C 121.91 3.05751 3.01355 0
M  V30 1349 C 121.143 3.14702 4.31043 0
M  V30 1350 O 121.366 2.30313 5.21835 0
M  V30 1351 O 120.3 4.07468 4.43005 0
M  V30 1352 H 124.126 2.67799 1.43239 0
M  V30 1353 H 121.711 1.34711 0.646013 0
M  V30 1354 H 123.593 1.90335 3.75966 0
M  V30 1355 H 122.268 0.899659 3.10947 0
M  V30 1356 H 121.175 3.02908 2.19539 0
M  V30 1357 H 122.508 3.97375 2.90437 0
M  V30 1358 N 124.16 -0.719506 1.40217 0
M  V30 1359 C 125.388 -1.50864 1.41589 0
M  V30 1360 C 125.803 -1.88794 0.0145275 0
M  V30 1361 O 125.16 -1.55174 -0.960594 0
M  V30 1362 C 125.211 -2.78646 2.30302 0
M  V30 1363 O 124.932 -2.42321 3.64983 0
M  V30 1364 C 126.433 -3.72569 2.40224 0
M  V30 1365 H 123.653 -0.465709 0.48307 0
M  V30 1366 H 126.197 -0.88785 1.84221 0
M  V30 1367 H 124.352 -3.37019 1.91042 0
M  V30 1368 H 124.766 -3.24514 4.12057 0
M  V30 1369 H 126.24 -4.5908 3.06512 0
M  V30 1370 H 126.717 -4.15403 1.42608 0
M  V30 1371 H 127.323 -3.20109 2.80019 0
M  V30 1372 N 125.638 -1.25649 -0.95132 0
M  V30 1373 C 126.568 -1.08808 -2.06599 0
M  V30 1374 C 127.549 0.00382547 -1.701 0
M  V30 1375 O 128.734 -0.166325 -1.93486 0
M  V30 1376 C 125.864 -0.709542 -3.39975 0
M  V30 1377 C 124.818 -1.75206 -3.90496 0
M  V30 1378 C 124.144 -1.22811 -5.20405 0
M  V30 1379 C 125.444 -3.15153 -4.16504 0
M  V30 1380 H 127.138 -2.02048 -2.20946 0
M  V30 1381 H 124.684 -0.972835 -1.06169 0
M  V30 1382 H 126.637 -0.578649 -4.17408 0
M  V30 1383 H 125.361 0.258556 -3.25575 0
M  V30 1384 H 124.02 -1.87145 -3.15234 0
M  V30 1385 H 123.668 -0.250145 -5.02378 0
M  V30 1386 H 123.368 -1.92492 -5.55176 0
M  V30 1387 H 124.892 -1.10968 -6.00432 0
M  V30 1388 H 126.306 -3.06349 -4.84586 0
M  V30 1389 H 124.703 -3.82333 -4.62538 0
M  V30 1390 H 125.773 -3.61966 -3.22658 0
M  V30 1391 N 127.117 1.15442 -1.07289 0
M  V30 1392 C 128.08 2.18358 -0.696591 0
M  V30 1393 C 129.08 1.58637 0.262837 0
M  V30 1394 O 130.27 1.74145 0.0438809 0
M  V30 1395 C 127.402 3.4089 -0.0266151 0
M  V30 1396 H 128.595 2.53162 -1.60776 0
M  V30 1397 H 126.148 1.29893 -0.869342 0
M  V30 1398 H 126.883 3.11653 0.896822 0
M  V30 1399 H 126.668 3.85495 -0.716657 0
M  V30 1400 H 128.158 4.17009 0.222028 0
M  V30 1401 N 128.595 0.856903 1.32268 0
M  V30 1402 C 130.011 0.547061 1.49931 0
M  V30 1403 C 130.211 -0.921781 1.7918 0
M  V30 1404 O 129.267 -1.70469 1.8627 0
M  V30 1405 C 130.58 1.43599 2.64196 0
M  V30 1406 C 132.128 1.43665 2.78081 0
M  V30 1407 C 132.603 2.31085 3.95428 0
M  V30 1408 N 134.094 2.28893 4.02694 0
M  V30 1409 C 134.829 2.93262 4.92732 0
M  V30 1410 N 134.325 3.66751 5.87763 0
M  V30 1411 N 136.118 2.82638 4.85873 0
M  V30 1412 H 128.269 1.8075 1.11549 0
M  V30 1413 H 130.532 0.772144 0.549997 0
M  V30 1414 H 130.238 2.48058 2.49319 0
M  V30 1415 H 130.112 1.12502 3.60032 0
M  V30 1416 H 132.499 0.399701 2.92381 0
M  V30 1417 H 132.58 1.7878 1.82952 0
M  V30 1418 H 132.224 3.34849 3.81888 0
M  V30 1419 H 132.154 1.93302 4.89839 0
M  V30 1420 H 134.645 1.75466 3.34694 0
M  V30 1421 H 134.958 4.13027 6.53168 0
M  V30 1422 H 133.303 3.70859 5.87783 0
M  V30 1423 H 136.494 2.24774 4.10602 0
M  V30 1424 H 136.667 3.33084 5.55841 0
M  V30 1425 N 130.073 -1.45103 0.615059 0
M  V30 1426 C 131.003 -2.33339 -0.0865619 0
M  V30 1427 C 131.984 -1.4727 -0.851209 0
M  V30 1428 O 133.169 -1.76026 -0.820281 0
M  V30 1429 C 130.299 -3.30095 -1.07956 0
M  V30 1430 C 129.253 -4.25858 -0.427628 0
M  V30 1431 C 128.579 -5.12361 -1.5294 0
M  V30 1432 C 129.879 -5.18165 0.655944 0
M  V30 1433 H 131.573 -2.92254 0.650224 0
M  V30 1434 H 129.119 -1.40532 0.314138 0
M  V30 1435 H 131.072 -3.90698 -1.57901 0
M  V30 1436 H 129.796 -2.69355 -1.84703 0
M  V30 1437 H 128.455 -3.66564 0.0510292 0
M  V30 1438 H 128.103 -4.47984 -2.28734 0
M  V30 1439 H 127.803 -5.77238 -1.09865 0
M  V30 1440 H 129.327 -5.75833 -2.03098 0
M  V30 1441 H 130.741 -5.72796 0.240257 0
M  V30 1442 H 129.138 -5.91559 1.00888 0
M  V30 1443 H 130.208 -4.60144 1.52957 0
M  V30 1444 N 131.551 -0.354651 -1.53558 0
M  V30 1445 C 132.828 0.294281 -1.93374 0
M  V30 1446 C 133.208 1.67313 -1.28723 0
M  V30 1447 O 132.556 2.24179 -0.442247 0
M  V30 1448 C 132.766 0.355445 -3.47185 0
M  V30 1449 C 134.114 0.601007 -4.20325 0
M  V30 1450 O 135.138 0.437106 -3.53508 0
M  V30 1451 O 133.997 0.919322 -5.38712 0
M  V30 1452 H 131.091 0.174033 -0.808481 0
M  V30 1453 H 133.637 -0.406638 -1.64756 0
M  V30 1454 H 132.409 -0.611729 -3.86489 0
M  V30 1455 H 132.032 1.1027 -3.82003 0
M  V30 1456 N 133.029 1.57378 -0.0835403 0
M  V30 1457 C 133.979 2.09916 0.889905 0
M  V30 1458 C 134.963 1.01151 1.25129 0
M  V30 1459 O 136.155 1.27443 1.2283 0
M  V30 1460 C 133.284 2.67379 2.15322 0
M  V30 1461 C 132.37 3.83167 1.81779 0
M  V30 1462 N 132.761 4.91665 1.18739 0
M  V30 1463 C 131.059 3.92685 2.11459 0
M  V30 1464 C 131.76 5.72409 1.0355 0
M  V30 1465 N 130.736 5.21062 1.54906 0
M  V30 1466 H 134.538 2.91188 0.398378 0
M  V30 1467 H 132.052 1.61956 0.120013 0
M  V30 1468 H 134.049 3.0334 2.8599 0
M  V30 1469 H 132.709 1.87558 2.65051 0
M  V30 1470 H 133.72 5.10784 0.855604 0
M  V30 1471 H 130.397 3.23856 2.63483 0
M  V30 1472 H 131.787 6.69699 0.543425 0
M  V30 1473 N 134.507 -0.190092 1.56449 0
M  V30 1474 C 135.417 -1.25591 1.98152 0
M  V30 1475 C 136.433 -1.49519 0.889944 0
M  V30 1476 O 137.609 -1.62036 1.19609 0
M  V30 1477 C 134.674 -2.57916 2.3169 0
M  V30 1478 C 133.735 -2.42015 3.5458 0
M  V30 1479 C 132.968 -3.6803 3.8651 0
M  V30 1480 O 133.191 -4.72413 3.1966 0
M  V30 1481 O 132.125 -3.6326 4.79923 0
M  V30 1482 H 135.951 -0.931988 2.89046 0
M  V30 1483 H 133.536 -0.395488 1.4407 0
M  V30 1484 H 135.418 -3.36008 2.54316 0
M  V30 1485 H 134.093 -2.89925 1.43963 0
M  V30 1486 H 133 -1.62017 3.37196 0
M  V30 1487 H 134.333 -2.14937 4.4279 0
M  V30 1488 N 135.985 -1.50799 -0.457987 0
M  V30 1489 C 137.21 -1.66496 -1.23668 0
M  V30 1490 C 137.635 -0.353288 -1.84752 0
M  V30 1491 O 136.993 0.684346 -1.67888 0
M  V30 1492 C 137.041 -2.76763 -2.3116 0
M  V30 1493 O 136.145 -2.38928 -3.36136 0
M  V30 1494 H 135.486 -0.555828 -0.363252 0
M  V30 1495 H 138.016 -1.9725 -0.543474 0
M  V30 1496 H 138.026 -3.00232 -2.76269 0
M  V30 1497 H 136.701 -3.71954 -1.86073 0
M  V30 1498 H 135.278 -2.25953 -2.96647 0
M  V30 1499 N 137.463 0.71206 -1.40597 0
M  V30 1500 C 138.709 1.47416 -1.39271 0
M  V30 1501 C 139.042 1.942 0.00388791 0
M  V30 1502 O 138.317 1.68403 0.973179 0
M  V30 1503 C 138.6 2.69774 -2.38525 0
M  V30 1504 C 138.453 2.28861 -3.87224 0
M  V30 1505 C 139.772 3.71939 -2.35264 0
M  V30 1506 H 136.891 0.534713 -0.5072 0
M  V30 1507 H 139.533 0.812375 -1.71757 0
M  V30 1508 H 137.683 3.26238 -2.10953 0
M  V30 1509 H 139.355 1.77852 -4.25636 0
M  V30 1510 H 137.598 1.60824 -4.02887 0
M  V30 1511 H 138.269 3.16584 -4.52193 0
M  V30 1512 H 140.745 3.25113 -2.59694 0
M  V30 1513 H 139.621 4.55186 -3.06753 0
M  V30 1514 H 139.882 4.20484 -1.36549 0
M  V30 1515 N 138.941 1.26152 0.944643 0
M  V30 1516 C 140.352 1.10454 1.50522 0
M  V30 1517 C 140.703 -0.31635 1.93633 0
M  V30 1518 O 139.828 -1.20746 1.79581 0
M  V30 1519 C 140.423 1.99891 2.73549 0
M  V30 1520 C 138.982 1.88348 3.25886 0
M  V30 1521 C 138.129 1.93447 1.9868 0
M  V30 1522 H 141.08 1.39292 0.760489 0
M  V30 1523 H 141.101 1.54477 3.47732 0
M  V30 1524 H 140.613 3.03297 2.42141 0
M  V30 1525 H 138.714 0.878636 3.62092 0
M  V30 1526 H 138.827 2.73696 3.93227 0
M  V30 1527 H 137.191 1.37456 2.14425 0
M  V30 1528 H 137.974 2.98476 1.69607 0
M  V30 1529 N 140.419 -1.14872 1.07899 0
M  V30 1530 C 141.351 -2.19425 0.662231 0
M  V30 1531 C 142.364 -1.60231 -0.288079 0
M  V30 1532 O 143.553 -1.78336 -0.076534 0
M  V30 1533 C 140.653 -3.38867 -0.0470695 0
M  V30 1534 C 139.826 -4.27597 0.920831 0
M  V30 1535 C 138.885 -5.25616 0.247805 0
M  V30 1536 O 137.911 -5.62189 0.890599 0
M  V30 1537 N 139.113 -5.71746 -1.00435 0
M  V30 1538 H 141.878 -2.55797 1.56166 0
M  V30 1539 H 139.439 -1.30042 0.964404 0
M  V30 1540 H 141.431 -4.01497 -0.50813 0
M  V30 1541 H 140.001 -3.00864 -0.848523 0
M  V30 1542 H 139.221 -3.61982 1.56087 0
M  V30 1543 H 140.509 -4.83748 1.57688 0
M  V30 1544 H 139.907 -5.44153 -1.54642 0
M  V30 1545 H 138.464 -6.36389 -1.40899 0
M  V30 1546 N 141.898 -0.863906 -1.31812 0
M  V30 1547 C 142.828 -0.330843 -2.31144 0
M  V30 1548 C 143.809 0.575005 -1.60087 0
M  V30 1549 O 144.994 0.493304 -1.8783 0
M  V30 1550 C 142.124 0.47374 -3.44054 0
M  V30 1551 C 141.078 -0.338481 -4.26659 0
M  V30 1552 C 140.404 0.591412 -5.31419 0
M  V30 1553 C 141.704 -1.56926 -4.98168 0
M  V30 1554 H 143.398 -1.16086 -2.75979 0
M  V30 1555 H 140.944 -0.559657 -1.32679 0
M  V30 1556 H 142.897 0.857143 -4.12591 0
M  V30 1557 H 141.621 1.33721 -2.9797 0
M  V30 1558 H 140.28 -0.703754 -3.59782 0
M  V30 1559 H 139.928 1.45199 -4.81587 0
M  V30 1560 H 139.628 0.0519022 -5.87577 0
M  V30 1561 H 141.152 0.97179 -6.02817 0
M  V30 1562 H 142.566 -1.25764 -5.59336 0
M  V30 1563 H 140.963 -2.04739 -5.64094 0
M  V30 1564 H 142.033 -2.32544 -4.25501 0
M  V30 1565 N 143.376 1.44774 -0.622745 0
M  V30 1566 C 144.625 2.01334 -0.121397 0
M  V30 1567 C 144.938 1.49505 1.26125 0
M  V30 1568 O 146.144 1.98139 1.85616 0
M  V30 1569 C 144.6 3.59516 -0.166298 0
M  V30 1570 C 144.208 4.20342 -1.54974 0
M  V30 1571 C 145.952 4.23582 0.279021 0
M  V30 1572 C 143.859 5.70721 -1.55021 0
M  V30 1573 H 142.789 0.752851 -0.0416172 0
M  V30 1574 H 145.44 1.66083 -0.780309 0
M  V30 1575 H 143.822 3.92027 0.559557 0
M  V30 1576 H 144.996 3.99381 -2.29851 0
M  V30 1577 H 143.311 3.68529 -1.93843 0
M  V30 1578 H 145.908 5.33868 0.298083 0
M  V30 1579 H 146.251 3.95327 1.30471 0
M  V30 1580 H 146.784 3.95843 -0.394063 0
M  V30 1581 H 143.523 6.03698 -2.55399 0
M  V30 1582 H 143.043 5.93829 -0.844245 0
M  V30 1583 H 144.722 6.34203 -1.28047 0
M  V30 1584 N 144.854 0.36279 1.53368 0
M  V30 1585 C 146.131 -0.284021 1.93527 0
M  V30 1586 C 146.511 -1.66628 1.29608 0
M  V30 1587 O 145.859 -2.23942 0.45413 0
M  V30 1588 C 146.069 -0.337028 3.47369 0
M  V30 1589 C 147.417 -0.578708 4.20638 0
M  V30 1590 O 148.441 -0.418352 3.53735 0
M  V30 1591 O 147.3 -0.89074 5.39192 0
M  V30 1592 H 144.394 -0.169743 0.809393 0
M  V30 1593 H 146.94 0.41537 1.64538 0
M  V30 1594 H 145.712 0.632217 3.86159 0
M  V30 1595 H 145.335 -1.08243 3.82582 0
M  V30 1596 N 146.332 -1.57332 0.0918853 0
M  V30 1597 C 147.28 -2.15075 -0.885747 0
M  V30 1598 C 148.274 -1.09277 -1.29441 0
M  V30 1599 O 149.48 -1.27627 -1.26931 0
M  V30 1600 H 145.855 -0.687966 -0.303656 0
M  V30 1601 H 147.826 -2.96047 -0.373995 0
M  V30 1602 C 146.575 -2.74325 -2.13638 0
M  V30 1603 H 145.898 -3.55418 -1.8308 0
M  V30 1604 H 147.338 -3.183 -2.80109 0
M  V30 1605 C 145.797 -1.70062 -2.90827 0
M  V30 1606 O 146.327 -1.13763 -3.85254 0
M  V30 1607 N 144.533 -1.40628 -2.54307 0
M  V30 1608 H 144.08 -1.866 -1.7759 0
M  V30 1609 H 144.038 -0.711043 -3.06254 0
M  V30 1610 N 147.81 0.181792 -1.56548 0
M  V30 1611 C 148.74 1.22765 -1.98623 0
M  V30 1612 C 149.721 1.46747 -0.860189 0
M  V30 1613 O 150.906 1.58259 -1.12551 0
M  V30 1614 C 148.036 2.56894 -2.33715 0
M  V30 1615 C 146.99 2.475 -3.49182 0
M  V30 1616 C 146.316 3.86023 -3.69986 0
M  V30 1617 C 147.616 1.98866 -4.82959 0
M  V30 1618 H 149.31 0.877942 -2.86239 0
M  V30 1619 H 146.856 0.42088 -1.37712 0
M  V30 1620 H 148.809 3.30253 -2.61746 0
M  V30 1621 H 147.533 2.93632 -1.42997 0
M  V30 1622 H 146.192 1.76596 -3.21262 0
M  V30 1623 H 145.84 4.20136 -2.76576 0
M  V30 1624 H 145.54 3.80609 -4.47672 0
M  V30 1625 H 147.064 4.60984 -4.00407 0
M  V30 1626 H 148.478 2.61992 -5.09934 0
M  V30 1627 H 146.875 2.04424 -5.64208 0
M  V30 1628 H 147.945 0.942465 -4.75653 0
M  V30 1629 N 149.288 1.51039 0.449983 0
M  V30 1630 C 150.218 1.74379 1.55288 0
M  V30 1631 C 151.199 0.593236 1.5942 0
M  V30 1632 O 152.384 0.834625 1.7535 0
M  V30 1633 C 149.514 1.85728 2.93466 0
M  V30 1634 C 148.468 3.01078 3.04197 0
M  V30 1635 C 147.794 2.97595 4.44231 0
M  V30 1636 C 149.094 4.41254 2.7945 0
M  V30 1637 H 150.788 2.66725 1.36008 0
M  V30 1638 H 148.334 1.2835 0.652864 0
M  V30 1639 H 150.287 2.0064 3.70569 0
M  V30 1640 H 149.011 0.900207 3.13949 0
M  V30 1641 H 147.67 2.85851 2.29531 0
M  V30 1642 H 147.318 1.99691 4.61663 0
M  V30 1643 H 147.018 3.75046 4.52343 0
M  V30 1644 H 148.542 3.14583 5.23326 0
M  V30 1645 H 149.956 4.56897 3.46292 0
M  V30 1646 H 148.353 5.20315 2.98985 0
M  V30 1647 H 149.423 4.52164 1.75144 0
M  V30 1648 N 150.766 -0.704594 1.40972 0
M  V30 1649 C 151.991 -1.49858 1.43378 0
M  V30 1650 C 152.416 -1.88061 0.038184 0
M  V30 1651 O 151.774 -1.5402 -0.956425 0
M  V30 1652 C 151.822 -2.74333 2.34038 0
M  V30 1653 O 150.926 -3.7147 1.7912 0
M  V30 1654 H 150.267 -0.45139 0.486974 0
M  V30 1655 H 152.797 -0.866832 1.8533 0
M  V30 1656 H 152.807 -3.22741 2.49604 0
M  V30 1657 H 151.482 -2.45863 3.35446 0
M  V30 1658 H 150.059 -3.30363 1.72958 0
M  V30 1659 N 152.244 -1.26651 -0.937939 0
M  V30 1660 C 153.49 -1.12553 -1.687 0
M  V30 1661 C 153.823 0.329782 -1.91379 0
M  V30 1662 O 153.098 1.24202 -1.4968 0
M  V30 1663 C 153.381 -1.89862 -3.05981 0
M  V30 1664 C 153.234 -3.43318 -2.90607 0
M  V30 1665 C 154.553 -1.69499 -4.0615 0
M  V30 1666 H 151.672 -0.410257 -0.612257 0
M  V30 1667 H 154.314 -1.55685 -1.08913 0
M  V30 1668 H 152.464 -1.53204 -3.57017 0
M  V30 1669 H 154.136 -3.89747 -2.46769 0
M  V30 1670 H 152.379 -3.70179 -2.26164 0
M  V30 1671 H 153.05 -3.92642 -3.8799 0
M  V30 1672 H 155.526 -2.01442 -3.64088 0
M  V30 1673 H 154.402 -2.26002 -5.00214 0
M  V30 1674 H 154.663 -0.640365 -4.37438 0
M  V30 1675 N 153.722 1.14298 -1.08507 0
M  V30 1676 C 155.138 1.37347 -0.812901 0
M  V30 1677 C 155.338 1.93052 0.577325 0
M  V30 1678 O 154.394 2.14389 1.33393 0
M  V30 1679 C 155.707 2.33359 -1.89642 0
M  V30 1680 C 157.255 2.46996 -1.92255 0
M  V30 1681 C 157.73 3.46309 -2.99724 0
M  V30 1682 N 159.221 3.53853 -2.98902 0
M  V30 1683 C 159.956 4.3055 -3.787 0
M  V30 1684 N 159.452 5.10482 -4.6838 0
M  V30 1685 N 161.245 4.25757 -3.66998 0
M  V30 1686 H 153.396 0.764867 -1.9815 0
M  V30 1687 H 155.659 0.398966 -0.859959 0
M  V30 1688 H 155.365 1.99565 -2.89597 0
M  V30 1689 H 155.239 3.33274 -1.76659 0
M  V30 1690 H 157.626 2.80081 -0.929445 0
M  V30 1691 H 157.707 1.47039 -2.09316 0
M  V30 1692 H 157.351 3.13957 -3.99241 0
M  V30 1693 H 157.281 4.46049 -2.79907 0
M  V30 1694 H 159.772 2.96812 -2.33904 0
M  V30 1695 H 160.085 5.66284 -5.25873 0
M  V30 1696 H 158.43 5.09747 -4.72422 0
M  V30 1697 H 161.621 3.62383 -2.96304 0
M  V30 1698 H 161.794 4.85279 -4.29427 0
M  V30 1699 N 155.201 0.870884 1.31352 0
M  V30 1700 C 156.429 0.49677 2.00848 0
M  V30 1701 C 156.844 -0.910998 1.65367 0
M  V30 1702 O 156.201 -1.59696 0.883374 0
M  V30 1703 C 156.252 0.645308 3.55694 0
M  V30 1704 O 155.973 1.99764 3.89905 0
M  V30 1705 C 157.474 0.272326 4.42463 0
M  V30 1706 H 154.694 0.193462 0.642506 0
M  V30 1707 H 157.238 1.1723 1.67563 0
M  V30 1708 H 155.393 0.0173176 3.87396 0
M  V30 1709 H 155.807 2.00607 4.84621 0
M  V30 1710 H 157.281 0.427208 5.50344 0
M  V30 1711 H 157.758 -0.788587 4.32062 0
M  V30 1712 H 158.364 0.876054 4.1618 0
M  V30 1713 N 156.679 -1.44442 0.630414 0
M  V30 1714 C 157.627 -2.32437 -0.0871428 0
M  V30 1715 C 158.621 -1.47304 -0.836525 0
M  V30 1716 O 159.827 -1.63653 -0.749506 0
M  V30 1717 H 156.202 -0.750533 -0.0469495 0
M  V30 1718 H 158.173 -2.90709 0.673096 0
M  V30 1719 C 156.922 -3.31288 -1.05563 0
M  V30 1720 H 156.245 -3.96805 -0.488426 0
M  V30 1721 H 157.685 -3.9554 -1.52721 0
M  V30 1722 C 156.144 -2.6016 -2.14052 0
M  V30 1723 O 156.674 -2.39997 -3.22124 0
M  V30 1724 N 154.88 -2.19911 -1.89967 0
M  V30 1725 H 154.427 -2.36509 -1.02085 0
M  V30 1726 H 154.385 -1.72646 -2.62756 0
M  V30 1727 N 158.157 -0.370918 -1.53173 0
M  V30 1728 C 159.406 0.218249 -2.00516 0
M  V30 1729 C 159.719 1.49429 -1.26215 0
M  V30 1730 O 160.925 2.16239 -1.64174 0
M  V30 1731 C 159.381 0.43948 -3.57207 0
M  V30 1732 C 158.989 -0.822244 -4.4039 0
M  V30 1733 C 160.733 0.986012 -4.1289 0
M  V30 1734 C 158.64 -0.570304 -5.88644 0
M  V30 1735 H 157.57 0.0853333 -0.749156 0
M  V30 1736 H 160.221 -0.490483 -1.76823 0
M  V30 1737 H 158.603 1.20961 -3.77074 0
M  V30 1738 H 159.777 -1.59557 -4.32294 0
M  V30 1739 H 158.092 -1.29238 -3.95836 0
M  V30 1740 H 160.689 1.18991 -5.21292 0
M  V30 1741 H 161.032 1.94972 -3.6782 0
M  V30 1742 H 161.565 0.27592 -3.96842 0
M  V30 1743 H 158.304 -1.50449 -6.38001 0
M  V30 1744 H 157.824 0.164427 -5.99575 0
M  V30 1745 H 159.503 -0.19784 -6.46697 0
M  V30 1746 N 159.635 1.57281 -0.100228 0
M  V30 1747 C 160.86 1.99302 0.573881 0
M  V30 1748 C 161.285 0.979059 1.60611 0
M  V30 1749 O 160.643 -0.0517803 1.81226 0
M  V30 1750 C 160.691 3.40274 1.19358 0
M  V30 1751 O 159.795 3.41676 2.30935 0
M  V30 1752 H 159.136 0.647944 0.145138 0
M  V30 1753 H 161.666 2.03779 -0.183156 0
M  V30 1754 H 161.676 3.78078 1.53365 0
M  V30 1755 H 160.351 4.13594 0.437385 0
M  V30 1756 H 158.928 3.15672 1.98509 0
M  V30 1757 N 161.113 -0.173488 1.56642 0
M  V30 1758 C 162.341 -0.906095 1.86004 0
M  V30 1759 C 162.756 -1.75921 0.685355 0
M  V30 1760 O 162.113 -1.79198 -0.345578 0
M  V30 1761 C 162.164 -1.78462 3.14378 0
M  V30 1762 O 161.885 -0.965914 4.27319 0
M  V30 1763 C 163.386 -2.62707 3.57071 0
M  V30 1764 H 160.606 -0.263341 0.617165 0
M  V30 1765 H 163.15 -0.174236 2.03756 0
M  V30 1766 H 161.305 -2.46984 2.98459 0
M  V30 1767 H 161.719 -1.56655 5.00559 0
M  V30 1768 H 163.193 -3.19969 4.49804 0
M  V30 1769 H 163.67 -3.37472 2.81086 0
M  V30 1770 H 164.276 -1.99521 3.75595 0
M  V30 1771 N 162.591 -1.51276 -0.441967 0
M  V30 1772 C 163.84 -1.6295 -1.18871 0
M  V30 1773 C 164.153 -0.349312 -1.92456 0
M  V30 1774 O 165.359 -0.345355 -2.69295 0
M  V30 1775 C 163.815 -2.87759 -2.16155 0
M  V30 1776 C 163.423 -4.22764 -1.48239 0
M  V30 1777 C 165.167 -3.08788 -2.91291 0
M  V30 1778 C 163.074 -5.38728 -2.4398 0
M  V30 1779 H 162.004 -0.606913 -0.447406 0
M  V30 1780 H 164.655 -1.77739 -0.456205 0
M  V30 1781 H 163.037 -2.66593 -2.92821 0
M  V30 1782 H 164.211 -4.54293 -0.771635 0
M  V30 1783 H 162.526 -4.07575 -0.852741 0
M  V30 1784 H 165.123 -3.92599 -3.63002 0
M  V30 1785 H 165.466 -2.21679 -3.5237 0
M  V30 1786 H 165.999 -3.30272 -2.21733 0
M  V30 1787 H 162.738 -6.28082 -1.87598 0
M  V30 1788 H 162.258 -5.1158 -3.13123 0
M  V30 1789 H 163.937 -5.70489 -3.05207 0
M  V30 1790 N 164.069 0.697108 -1.41344 0
M  V30 1791 C 165.316 1.45714 -1.40619 0
M  V30 1792 C 165.644 1.94494 -0.0147907 0
M  V30 1793 O 164.899 1.69794 0.973066 0
M  V30 1794 C 165.198 2.68553 -2.35826 0
M  V30 1795 C 164.864 2.38438 -3.82698 0
M  V30 1796 C 163.526 2.29936 -4.22709 0
M  V30 1797 C 165.878 2.13567 -4.75435 0
M  V30 1798 C 163.206 1.94656 -5.53467 0
M  V30 1799 C 165.558 1.79797 -6.06511 0
M  V30 1800 C 164.222 1.69789 -6.45545 0
M  V30 1801 H 163.492 0.533206 -0.51456 0
M  V30 1802 H 166.139 0.796901 -1.74131 0
M  V30 1803 H 164.444 3.39503 -1.95563 0
M  V30 1804 H 166.141 3.2669 -2.32539 0
M  V30 1805 H 162.731 2.4595 -3.51008 0
M  V30 1806 H 166.915 2.19082 -4.45328 0
M  V30 1807 H 162.171 1.8546 -5.82593 0
M  V30 1808 H 166.345 1.59572 -6.77872 0
M  V30 1809 H 163.972 1.4222 -7.46778 0
M  V30 1810 N 165.547 1.27147 0.931209 0
M  V30 1811 C 166.796 1.12664 1.67302 0
M  V30 1812 C 167.109 -0.327718 1.92835 0
M  V30 1813 O 168.315 -0.593392 2.64936 0
M  V30 1814 C 166.771 1.9683 3.01307 0
M  V30 1815 C 166.379 3.46901 2.83485 0
M  V30 1816 C 168.123 1.90985 3.79111 0
M  V30 1817 C 166.03 4.23279 4.13024 0
M  V30 1818 H 164.96 0.41803 0.627509 0
M  V30 1819 H 167.611 1.51539 1.03481 0
M  V30 1820 H 165.993 1.50797 3.66164 0
M  V30 1821 H 167.167 4.00773 2.27415 0
M  V30 1822 H 165.482 3.54088 2.19113 0
M  V30 1823 H 168.079 2.45328 4.75098 0
M  V30 1824 H 168.422 0.882718 4.06834 0
M  V30 1825 H 168.955 2.34895 3.21044 0
M  V30 1826 H 165.694 5.26503 3.90481 0
M  V30 1827 H 165.214 3.74186 4.6877 0
M  V30 1828 H 166.893 4.32265 4.81411 0
M  V30 1829 N 167.025 -1.13721 1.09112 0
M  V30 1830 C 168.441 -1.36914 0.820174 0
M  V30 1831 C 168.641 -1.93356 -0.567079 0
M  V30 1832 O 167.697 -2.15093 -1.32255 0
M  V30 1833 C 169.01 -2.3235 1.90877 0
M  V30 1834 C 170.558 -2.45973 1.93562 0
M  V30 1835 C 171.033 -3.44714 3.01556 0
M  V30 1836 N 172.524 -3.52263 3.00775 0
M  V30 1837 C 173.259 -4.28536 3.80978 0
M  V30 1838 N 172.755 -5.07991 4.71081 0
M  V30 1839 N 174.548 -4.23804 3.69251 0
M  V30 1840 H 166.699 -0.754348 1.98553 0
M  V30 1841 H 168.962 -0.3944 0.862063 0
M  V30 1842 H 168.668 -1.98027 2.90651 0
M  V30 1843 H 168.542 -3.32332 1.78424 0
M  V30 1844 H 170.929 -2.79584 0.944286 0
M  V30 1845 H 171.01 -1.45926 2.10093 0
M  V30 1846 H 170.654 -3.11835 4.00901 0
M  V30 1847 H 170.584 -4.44558 2.82269 0
M  V30 1848 H 173.075 -2.95567 2.35475 0
M  V30 1849 H 173.388 -5.63487 5.28869 0
M  V30 1850 H 171.733 -5.07235 4.75119 0
M  V30 1851 H 174.924 -3.60806 2.98222 0
M  V30 1852 H 175.097 -4.82995 4.31995 0
M  V30 1853 N 168.503 -0.877838 -1.30888 0
M  V30 1854 C 169.731 -0.507414 -2.00581 0
M  V30 1855 C 170.146 0.902216 -1.65848 0
M  V30 1856 O 169.503 1.59225 -0.891831 0
M  V30 1857 C 169.554 -0.664162 -3.55347 0
M  V30 1858 O 169.275 -2.01829 -3.8884 0
M  V30 1859 C 170.776 -0.295787 -4.42312 0
M  V30 1860 H 167.996 -0.196866 -0.641471 0
M  V30 1861 H 170.54 -1.18117 -1.66939 0
M  V30 1862 H 168.695 -0.0378619 -3.87381 0
M  V30 1863 H 169.109 -2.03174 -4.8355 0
M  V30 1864 H 170.583 -0.456388 -5.5011 0
M  V30 1865 H 171.06 0.765663 -4.32475 0
M  V30 1866 H 171.666 -0.898113 -4.15709 0
M  V30 1867 N 169.982 1.44106 -0.638065 0
M  V30 1868 C 170.945 2.29138 0.0531013 0
M  V30 1869 C 171.945 1.41409 0.765506 0
M  V30 1870 O 173.135 1.63206 0.609046 0
M  V30 1871 C 170.267 3.23144 1.08584 0
M  V30 1872 H 171.46 2.91739 -0.694883 0
M  V30 1873 H 169.013 1.51134 -0.398538 0
M  V30 1874 H 169.748 2.65408 1.86357 0
M  V30 1875 H 169.533 3.87804 0.578852 0
M  V30 1876 H 171.023 3.87004 1.56899 0
M  V30 1877 N 171.46 0.379036 1.52974 0
M  V30 1878 C 172.707 -0.206421 2.01445 0
M  V30 1879 C 173.035 -1.47668 1.26587 0
M  V30 1880 O 172.29 -1.92514 0.351675 0
M  V30 1881 C 172.589 -0.53096 3.53434 0
M  V30 1882 C 172.255 0.646546 4.46241 0
M  V30 1883 C 170.917 0.969604 4.7133 0
M  V30 1884 C 173.269 1.43479 5.01062 0
M  V30 1885 C 170.597 2.08263 5.48492 0
M  V30 1886 C 172.949 2.53834 5.7944 0
M  V30 1887 C 171.613 2.86659 6.02812 0
M  V30 1888 H 170.883 -0.0755349 0.73714 0
M  V30 1889 H 173.53 0.514271 1.84465 0
M  V30 1890 H 171.835 -1.33285 3.68432 0
M  V30 1891 H 173.532 -0.996417 3.88423 0
M  V30 1892 H 170.122 0.384734 4.2687 0
M  V30 1893 H 174.306 1.19844 4.81613 0
M  V30 1894 H 169.562 2.34078 5.64816 0
M  V30 1895 H 173.736 3.15319 6.20924 0
M  V30 1896 H 171.363 3.73026 6.62387 0
M  V30 1897 N 172.938 -1.57226 0.108567 0
M  V30 1898 C 174.354 -1.5766 -0.248058 0
M  V30 1899 C 174.554 -1.12063 -1.67464 0
M  V30 1900 O 173.61 -0.803236 -2.39383 0
M  V30 1901 C 174.923 -3.0069 -0.0242287 0
M  V30 1902 C 176.471 -3.12868 -0.0909372 0
M  V30 1903 C 176.946 -4.57879 0.105067 0
M  V30 1904 N 178.437 -4.63172 0.0506846 0
M  V30 1905 C 179.172 -5.73126 0.177396 0
M  V30 1906 N 178.668 -6.91866 0.359696 0
M  V30 1907 N 180.461 -5.61977 0.117709 0
M  V30 1908 H 172.612 -1.85169 1.04049 0
M  V30 1909 H 174.875 -0.85529 0.40888 0
M  V30 1910 H 174.581 -3.38299 0.961604 0
M  V30 1911 H 174.455 -3.6945 -0.76068 0
M  V30 1912 H 176.842 -2.75124 -1.06729 0
M  V30 1913 H 176.923 -2.46672 0.677225 0
M  V30 1914 H 176.567 -4.96321 1.07834 0
M  V30 1915 H 176.497 -5.22153 -0.682954 0
M  V30 1916 H 178.988 -3.778 -0.0871266 0
M  V30 1917 H 179.301 -7.71503 0.447529 0
M  V30 1918 H 177.646 -6.93874 0.395536 0
M  V30 1919 H 180.837 -4.68094 -0.0236741 0
M  V30 1920 H 181.01 -6.47627 0.219905 0
M  V30 1921 N 174.416 0.165178 -1.56732 0
M  V30 1922 C 175.348 1.22911 -1.93457 0
M  V30 1923 C 176.361 1.40152 -0.828333 0
M  V30 1924 O 177.55 1.40046 -1.10677 0
M  V30 1925 C 174.65 2.59686 -2.17753 0
M  V30 1926 C 173.823 2.63663 -3.48999 0
M  V30 1927 C 172.882 3.81845 -3.62051 0
M  V30 1928 O 171.908 3.67559 -4.34613 0
M  V30 1929 N 173.11 4.98557 -2.97357 0
M  V30 1930 H 175.875 0.917118 -2.85323 0
M  V30 1931 H 173.436 0.354895 -1.57962 0
M  V30 1932 H 175.428 3.37225 -2.23743 0
M  V30 1933 H 173.998 2.83251 -1.32242 0
M  V30 1934 H 173.218 1.72173 -3.54612 0
M  V30 1935 H 174.506 2.63336 -4.35352 0
M  V30 1936 H 173.904 5.13065 -2.38287 0
M  V30 1937 H 172.461 5.73936 -3.08934 0
M  V30 1938 N 175.894 1.51508 0.433938 0
M  V30 1939 C 176.844 1.69451 1.52546 0
M  V30 1940 C 177.828 0.548474 1.51263 0
M  V30 1941 O 179.02 0.804529 1.57659 0
M  V30 1942 C 176.149 1.82604 2.90707 0
M  V30 1943 C 175.235 3.03002 2.96733 0
M  V30 1944 N 175.626 4.26121 2.72496 0
M  V30 1945 C 173.924 3.02327 3.27894 0
M  V30 1946 C 174.625 5.07407 2.84452 0
M  V30 1947 N 173.601 4.42126 3.16269 0
M  V30 1948 H 177.403 2.62305 1.32564 0
M  V30 1949 H 174.917 1.49202 0.641297 0
M  V30 1950 H 176.914 1.93569 3.69238 0
M  V30 1951 H 175.574 0.909339 3.11707 0
M  V30 1952 H 176.585 4.55009 2.4736 0
M  V30 1953 H 173.262 2.20301 3.54646 0
M  V30 1954 H 174.652 6.15422 2.69639 0
M  V30 1955 N 177.372 -0.689602 1.41712 0
M  V30 1956 C 178.783 -1.26973 1.36875 0
M  V30 1957 C 179.134 -1.96124 0.054748 0
M  V30 1958 O 178.259 -1.99141 -0.84687 0
M  V30 1959 C 178.854 -2.30912 2.47922 0
M  V30 1960 C 177.413 -2.84486 2.46464 0
M  V30 1961 C 176.56 -1.58603 2.27465 0
M  V30 1962 H 179.511 -0.48396 1.51141 0
M  V30 1963 H 179.532 -3.12331 2.17323 0
M  V30 1964 H 179.044 -1.80554 3.43543 0
M  V30 1965 H 177.145 -3.39005 1.54617 0
M  V30 1966 H 177.258 -3.34511 3.42986 0
M  V30 1967 H 175.622 -1.84632 1.75451 0
M  V30 1968 H 176.405 -1.10233 3.25121 0
M  V30 1969 N 178.85 -1.27639 -0.924453 0
M  V30 1970 C 180.127 -1.04887 -1.651 0
M  V30 1971 C 180.507 0.415327 -2.06974 0
M  V30 1972 O 179.855 1.39923 -1.80648 0
M  V30 1973 C 180.065 -2.01348 -2.85061 0
M  V30 1974 C 181.413 -2.30899 -3.56329 0
M  V30 1975 O 182.437 -1.99348 -2.95193 0
M  V30 1976 O 181.296 -2.84699 -4.66485 0
M  V30 1977 H 178.39 -0.400083 -0.723784 0
M  V30 1978 H 180.936 -1.38916 -0.974703 0
M  V30 1979 H 179.708 -3.0008 -2.51133 0
M  V30 1980 H 179.331 -1.679 -3.6041 0
M  V30 1981 N 180.328 1.1314 -1.09713 0
M  V30 1982 C 181.275 2.18642 -0.739196 0
M  V30 1983 C 182.245 1.63706 0.280978 0
M  V30 1984 O 183.43 1.90111 0.161946 0
M  V30 1985 C 180.57 3.44685 -0.169102 0
M  V30 1986 C 179.683 4.13711 -1.24367 0
M  V30 1987 C 178.818 5.27379 -0.636019 0
M  V30 1988 C 177.857 5.88259 -1.69169 0
M  V30 1989 N 176.994 6.93352 -1.10485 0
M  V30 1990 H 181.834 2.48607 -1.64312 0
M  V30 1991 H 179.371 1.22066 -0.820875 0
M  V30 1992 H 181.329 4.16815 0.179256 0
M  V30 1993 H 179.959 3.15161 0.698079 0
M  V30 1994 H 179.011 3.39835 -1.70927 0
M  V30 1995 H 180.323 4.55037 -2.04311 0
M  V30 1996 H 179.477 6.06238 -0.236677 0
M  V30 1997 H 178.216 4.8731 0.194928 0
M  V30 1998 H 177.221 5.08092 -2.10055 0
M  V30 1999 H 178.446 6.30399 -2.52536 0
M  V30 2000 H 176.392 6.55335 -0.295234 0
M  V30 2001 H 176.309 7.33236 -1.84121 0
M  V30 2002 H 177.577 7.76057 -0.73181 0
M  V30 2003 N 181.806 0.884767 1.30421 0
M  V30 2004 C 182.769 0.356277 2.26414 0
M  V30 2005 C 183.769 -0.501124 1.52792 0
M  V30 2006 O 184.959 -0.30831 1.7145 0
M  V30 2007 C 182.091 -0.492316 3.37326 0
M  V30 2008 H 183.284 1.20389 2.74675 0
M  V30 2009 H 180.837 0.661607 1.41607 0
M  V30 2010 H 181.572 -1.36052 2.94381 0
M  V30 2011 H 181.357 0.121832 3.91911 0
M  V30 2012 H 182.847 -0.853871 4.08777 0
M  V30 2013 N 183.284 -1.43765 0.645699 0
M  V30 2014 C 184.216 -2.29027 -0.0890605 0
M  V30 2015 C 185.229 -1.42093 -0.794563 0
M  V30 2016 O 186.418 -1.66104 -0.653575 0
M  V30 2017 C 183.518 -3.18831 -1.14891 0
M  V30 2018 C 182.691 -4.34261 -0.523043 0
M  V30 2019 C 181.75 -5.04994 -1.47878 0
M  V30 2020 O 180.776 -5.6052 -0.990277 0
M  V30 2021 N 181.978 -5.07795 -2.81291 0
M  V30 2022 H 184.743 -2.92727 0.64272 0
M  V30 2023 H 182.304 -1.54373 0.487924 0
M  V30 2024 H 184.296 -3.63015 -1.78892 0
M  V30 2025 H 182.866 -2.56782 -1.78275 0
M  V30 2026 H 182.086 -3.93088 0.295896 0
M  V30 2027 H 183.374 -5.08728 -0.0858147 0
M  V30 2028 H 182.772 -4.64042 -3.23546 0
M  V30 2029 H 181.329 -5.55721 -3.40614 0
M  V30 2030 N 184.763 -0.387143 -1.52771 0
M  V30 2031 C 185.673 0.456442 -2.30117 0
M  V30 2032 C 186.689 1.07342 -1.36944 0
M  V30 2033 O 187.865 1.07971 -1.70013 0
M  V30 2034 C 184.93 1.56957 -3.09136 0
M  V30 2035 C 183.991 0.977916 -4.18014 0
M  V30 2036 C 183.224 2.038 -4.93256 0
M  V30 2037 O 183.447 3.25271 -4.68567 0
M  V30 2038 O 182.381 1.6565 -5.78657 0
M  V30 2039 H 186.207 -0.17359 -3.03203 0
M  V30 2040 H 183.792 -0.150919 -1.48636 0
M  V30 2041 H 185.674 2.21628 -3.58412 0
M  V30 2042 H 184.349 2.18461 -2.38865 0
M  V30 2043 H 183.256 0.294525 -3.72939 0
M  V30 2044 H 184.589 0.407128 -4.90513 0
M  V30 2045 N 186.241 1.57166 -0.116904 0
M  V30 2046 C 187.487 1.95412 0.542405 0
M  V30 2047 C 187.82 1.00019 1.66463 0
M  V30 2048 O 187.095 0.0370346 1.94465 0
M  V30 2049 C 187.378 3.43615 1.07708 0
M  V30 2050 C 187.231 4.49781 -0.0415868 0
M  V30 2051 C 188.55 3.93616 1.96861 0
M  V30 2052 H 185.669 0.710543 0.195696 0
M  V30 2053 H 188.311 1.89027 -0.192038 0
M  V30 2054 H 186.461 3.49187 1.70296 0
M  V30 2055 H 188.133 4.56308 -0.676793 0
M  V30 2056 H 186.376 4.28033 -0.705019 0
M  V30 2057 H 187.047 5.50733 0.373717 0
M  V30 2058 H 189.523 3.90335 1.44146 0
M  V30 2059 H 188.399 4.97838 2.3119 0
M  V30 2060 H 188.66 3.34188 2.89432 0
M  V30 2061 N 187.719 -0.156864 1.56817 0
M  V30 2062 C 188.649 -1.19589 2.00551 0
M  V30 2063 C 189.63 -1.4536 0.883426 0
M  V30 2064 O 190.815 -1.56449 1.15054 0
M  V30 2065 C 187.945 -2.53143 2.37773 0
M  V30 2066 C 186.899 -2.41913 3.53075 0
M  V30 2067 C 186.225 -3.80088 3.76081 0
M  V30 2068 C 187.525 -1.91157 4.86062 0
M  V30 2069 H 189.219 -0.832293 2.87599 0
M  V30 2070 H 186.765 -0.398918 1.38364 0
M  V30 2071 H 188.718 -3.26047 2.66967 0
M  V30 2072 H 187.442 -2.91319 1.4765 0
M  V30 2073 H 186.101 -1.71462 3.24031 0
M  V30 2074 H 185.749 -4.15683 2.83225 0
M  V30 2075 H 185.449 -3.73439 4.53671 0
M  V30 2076 H 186.973 -4.54556 4.0769 0
M  V30 2077 H 188.387 -2.53846 5.14038 0
M  V30 2078 H 186.784 -1.95422 5.67389 0
M  V30 2079 H 187.854 -0.866673 4.77092 0
M  V30 2080 N 189.197 -1.51736 -0.425897 0
M  V30 2081 C 190.16 -1.73271 -1.50032 0
M  V30 2082 C 191.16 -0.602639 -1.4908 0
M  V30 2083 O 192.35 -0.87033 -1.509 0
M  V30 2084 C 189.482 -1.79969 -2.89523 0
M  V30 2085 H 190.675 -2.69172 -1.32237 0
M  V30 2086 H 188.228 -1.41899 -0.65532 0
M  V30 2087 H 188.963 -0.859241 -3.1271 0
M  V30 2088 H 188.748 -2.62109 -2.91619 0
M  V30 2089 H 190.238 -1.9843 -3.67444 0
M  V30 2090 N 190.675 0.682077 -1.42076 0
M  V30 2091 C 191.903 1.47057 -1.4554 0
M  V30 2092 C 192.318 1.8869 -0.0645779 0
M  V30 2093 O 191.675 1.57666 0.919115 0
M  V30 2094 C 191.726 2.72442 -2.37609 0
M  V30 2095 O 191.447 2.32559 -3.71279 0
M  V30 2096 C 192.948 3.66069 -2.50017 0
M  V30 2097 H 190.168 0.452737 -0.495248 0
M  V30 2098 H 192.712 0.838695 -1.8651 0
M  V30 2099 H 190.867 3.31835 -1.9991 0
M  V30 2100 H 191.281 3.13475 -4.20516 0
M  V30 2101 H 192.755 4.50792 -3.18576 0
M  V30 2102 H 193.232 4.11476 -1.53572 0
M  V30 2103 H 193.838 3.12572 -2.88407 0
M  V30 2104 N 192.153 1.28127 0.917671 0
M  V30 2105 C 193.116 1.11744 2.00115 0
M  V30 2106 C 194.116 0.0583052 1.60694 0
M  V30 2107 O 195.306 0.303755 1.71531 0
M  V30 2108 C 192.438 0.704862 3.33533 0
M  V30 2109 H 193.631 2.07966 2.16079 0
M  V30 2110 H 191.184 1.11058 1.09981 0
M  V30 2111 H 191.919 -0.258299 3.2327 0
M  V30 2112 H 191.704 1.4699 3.63505 0
M  V30 2113 H 193.194 0.612768 4.1308 0
M  V30 2114 N 193.631 -1.12557 1.10312 0
M  V30 2115 C 194.579 -2.20325 0.745629 0
M  V30 2116 C 195.573 -1.67429 -0.25763 0
M  V30 2117 O 196.779 -1.79612 -0.118132 0
M  V30 2118 H 193.154 -0.718118 0.223182 0
M  V30 2119 H 195.125 -2.47733 1.66346 0
M  V30 2120 C 193.874 -3.47168 0.192262 0
M  V30 2121 H 193.197 -3.88215 0.955475 0
M  V30 2122 H 194.637 -4.23995 -0.0198274 0
M  V30 2123 C 193.096 -3.19298 -1.07472 0
M  V30 2124 O 193.626 -3.3891 -2.15645 0
M  V30 2125 N 191.832 -2.73113 -0.992847 0
M  V30 2126 H 191.379 -2.57354 -0.112474 0
M  V30 2127 H 191.337 -2.54842 -1.84127 0
M  V30 2128 N 195.109 -0.891671 -1.2995 0
M  V30 2129 C 196.019 -0.367691 -2.31701 0
M  V30 2130 C 197.035 0.533486 -1.6562 0
M  V30 2131 O 198.211 0.424997 -1.96865 0
M  V30 2132 C 195.276 0.403406 -3.44345 0
M  V30 2133 C 194.337 -0.528328 -4.26037 0
M  V30 2134 C 193.57 0.206063 -5.33302 0
M  V30 2135 O 193.793 1.43119 -5.52153 0
M  V30 2136 O 192.727 -0.447281 -6.00236 0
M  V30 2137 H 196.553 -1.21163 -2.78484 0
M  V30 2138 H 194.138 -0.655725 -1.34241 0
M  V30 2139 H 196.02 0.839753 -4.12948 0
M  V30 2140 H 194.695 1.22354 -2.99685 0
M  V30 2141 H 193.602 -1.01362 -3.60106 0
M  V30 2142 H 194.935 -1.31465 -4.74318 0
M  V30 2143 N 196.587 1.43421 -0.653314 0
M  V30 2144 C 197.833 2.02111 -0.166992 0
M  V30 2145 C 198.166 1.51423 1.21592 0
M  V30 2146 O 197.441 0.707389 1.8118 0
M  V30 2147 C 197.724 3.5966 -0.177948 0
M  V30 2148 C 197.577 4.20579 -1.59478 0
M  V30 2149 C 198.896 4.37413 0.4856 0
M  V30 2150 H 196.015 0.734374 -0.0621557 0
M  V30 2151 H 198.657 1.70717 -0.834016 0
M  V30 2152 H 196.807 3.86537 0.390032 0
M  V30 2153 H 198.479 4.04732 -2.21336 0
M  V30 2154 H 196.722 3.77226 -2.14204 0
M  V30 2155 H 197.393 5.29665 -1.5543 0
M  V30 2156 H 199.869 4.161 0.00234528 0
M  V30 2157 H 198.745 5.47075 0.447207 0
M  V30 2158 H 199.006 4.13672 1.55974 0
M  V30 2159 N 198.065 0.39524 1.52563 0
M  V30 2160 C 199.028 -0.425001 2.25225 0
M  V30 2161 C 200.028 -0.985266 1.27079 0
M  V30 2162 O 201.218 -0.866332 1.5113 0
M  V30 2163 C 198.35 -1.59686 3.01186 0
M  V30 2164 H 199.543 0.211233 2.99155 0
M  V30 2165 H 197.096 0.147472 1.55603 0
M  V30 2166 H 197.831 -2.27035 2.31572 0
M  V30 2167 H 197.616 -1.20176 3.73229 0
M  V30 2168 H 199.106 -2.17743 3.5634 0
M  V30 2169 N 199.544 -1.57102 0.125237 0
M  V30 2170 C 200.821 -1.86953 -0.575142 0
M  V30 2171 C 201.201 -1.02749 -1.84407 0
M  V30 2172 O 200.549 -0.108144 -2.28244 0
M  V30 2173 C 200.759 -3.38198 -0.861583 0
M  V30 2174 C 202.107 -4.06937 -1.21192 0
M  V30 2175 O 203.131 -3.43252 -0.951645 0
M  V30 2176 O 201.99 -5.19364 -1.70068 0
M  V30 2177 H 199.084 -0.774147 -0.290906 0
M  V30 2178 H 201.63 -1.68942 0.160211 0
M  V30 2179 H 200.402 -3.91282 0.0373647 0
M  V30 2180 H 200.025 -3.61661 -1.65188 0
M  V30 2181 N 201.022 0.148545 -1.56898 0
M  V30 2182 C 201.972 1.1886 -1.94567 0
M  V30 2183 C 202.956 1.3863 -0.816735 0
M  V30 2184 O 204.148 1.40218 -1.08018 0
M  V30 2185 C 201.277 2.52262 -2.32849 0
M  V30 2186 C 200.363 2.36092 -3.52309 0
M  V30 2187 N 200.754 1.89674 -4.6889 0
M  V30 2188 C 199.052 2.66848 -3.57363 0
M  V30 2189 C 199.753 1.86511 -5.50989 0
M  V30 2190 N 198.729 2.29766 -4.92655 0
M  V30 2191 H 202.531 0.821793 -2.82177 0
M  V30 2192 H 200.045 0.356615 -1.58436 0
M  V30 2193 H 202.042 3.27447 -2.58039 0
M  V30 2194 H 200.702 2.89727 -1.46589 0
M  V30 2195 H 201.713 1.59663 -4.92674 0
M  V30 2196 H 198.39 3.08198 -2.81639 0
M  V30 2197 H 199.78 1.52128 -6.54452 0
M  V30 2198 N 202.5 1.5196 0.417844 0
M  V30 2199 C 203.463 1.74065 1.49111 0
M  V30 2200 C 204.463 0.610537 1.48758 0
M  V30 2201 O 205.653 0.87832 1.50437 0
M  V30 2202 C 202.785 1.81502 2.88565 0
M  V30 2203 H 203.978 2.69869 1.30807 0
M  V30 2204 H 201.531 1.42244 0.647785 0
M  V30 2205 H 202.266 0.875813 3.1225 0
M  V30 2206 H 202.051 2.63651 2.90225 0
M  V30 2207 H 203.541 2.00376 3.66387 0
M  V30 2208 N 203.978 -0.674533 1.42435 0
M  V30 2209 C 205.255 -1.4305 1.33402 0
M  V30 2210 C 205.635 -2.11081 -0.0284674 0
M  V30 2211 O 204.983 -2.03257 -1.04397 0
M  V30 2212 C 205.193 -2.43272 2.50239 0
M  V30 2213 C 206.541 -3.07907 2.92367 0
M  V30 2214 O 207.565 -2.53599 2.50132 0
M  V30 2215 O 206.424 -4.0632 3.65467 0
M  V30 2216 H 203.518 -0.638076 0.526106 0
M  V30 2217 H 206.064 -0.703235 1.54443 0
M  V30 2218 H 204.836 -1.91803 3.41068 0
M  V30 2219 H 204.459 -3.23479 2.31186 0
M  V30 2220 N 205.456 -1.28612 -0.910864 0
M  V30 2221 C 206.419 -1.12803 -1.9952 0
M  V30 2222 C 207.419 -0.0668264 -1.60661 0
M  V30 2223 O 208.609 -0.312847 -1.71368 0
M  V30 2224 C 205.741 -0.72254 -3.33155 0
M  V30 2225 H 206.934 -2.09109 -2.14973 0
M  V30 2226 H 204.487 -1.11639 -1.09391 0
M  V30 2227 H 205.222 0.241152 -3.23402 0
M  V30 2228 H 205.007 -1.48916 -3.62721 0
M  V30 2229 H 206.497 -0.634666 -4.12749 0
M  V30 2230 N 206.934 1.1197 -1.10907 0
M  V30 2231 C 208.181 1.83588 -0.854507 0
M  V30 2232 C 208.509 1.84357 0.6199 0
M  V30 2233 O 207.764 1.28809 1.47332 0
M  V30 2234 C 208.063 3.30749 -1.35425 0
M  V30 2235 C 207.729 3.50146 -2.84093 0
M  V30 2236 C 206.391 3.55148 -3.2469 0
M  V30 2237 C 208.743 3.56857 -3.79872 0
M  V30 2238 C 206.071 3.6441 -4.59806 0
M  V30 2239 C 208.423 3.6765 -5.14797 0
M  V30 2240 C 207.087 3.7091 -5.54961 0
M  V30 2241 H 206.357 0.671795 -0.312686 0
M  V30 2242 H 209.004 1.32091 -1.38652 0
M  V30 2243 H 207.309 3.84703 -0.742361 0
M  V30 2244 H 209.006 3.8464 -1.1337 0
M  V30 2245 H 205.596 3.46919 -2.51685 0
M  V30 2246 H 209.78 3.52258 -3.49611 0
M  V30 2247 H 205.036 3.65208 -4.9034 0
M  V30 2248 H 209.21 3.71786 -5.88853 0
M  V30 2249 H 206.837 3.7784 -6.59652 0
M  V30 2250 N 208.412 0.89855 1.29475 0
M  V30 2251 C 209.375 0.380272 2.26023 0
M  V30 2252 C 210.375 -0.484891 1.53315 0
M  V30 2253 O 211.565 -0.290108 1.71767 0
M  V30 2254 C 208.697 -0.45651 3.3783 0
M  V30 2255 H 209.89 1.23295 2.73383 0
M  V30 2256 H 207.443 0.676589 1.40897 0
M  V30 2257 H 208.178 -1.32922 2.95808 0
M  V30 2258 H 207.963 0.163393 3.91759 0
M  V30 2259 H 209.453 -0.810466 4.0966 0
M  V30 2260 N 209.89 -1.43072 0.660911 0
M  V30 2261 C 210.8 -2.34585 -0.0264163 0
M  V30 2262 C 211.816 -1.54316 -0.803898 0
M  V30 2263 O 212.992 -1.86939 -0.749391 0
M  V30 2264 C 210.057 -3.32689 -0.975639 0
M  V30 2265 C 209.118 -4.2886 -0.194236 0
M  V30 2266 C 208.351 -5.22278 -1.09825 0
M  V30 2267 O 208.574 -5.20299 -2.33763 0
M  V30 2268 O 207.508 -5.99228 -0.566513 0
M  V30 2269 H 211.334 -2.94869 0.727034 0
M  V30 2270 H 208.919 -1.43342 0.42111 0
M  V30 2271 H 210.801 -3.92995 -1.52094 0
M  V30 2272 H 209.476 -2.74898 -1.70918 0
M  V30 2273 H 208.383 -3.72011 0.394835 0
M  V30 2274 H 209.716 -4.89655 0.499899 0
M  V30 2275 N 211.368 -0.403325 -1.52352 0
M  V30 2276 C 212.298 0.416205 -2.29761 0
M  V30 2277 C 213.279 1.05123 -1.33728 0
M  V30 2278 O 214.464 1.06134 -1.62632 0
M  V30 2279 C 211.594 1.53624 -3.11475 0
M  V30 2280 C 210.548 1.02653 -4.15507 0
M  V30 2281 C 209.874 2.23971 -4.85532 0
M  V30 2282 C 211.174 0.08463 -5.22231 0
M  V30 2283 H 212.868 -0.229701 -2.98518 0
M  V30 2284 H 210.414 -0.111913 -1.43564 0
M  V30 2285 H 212.367 2.1165 -3.64393 0
M  V30 2286 H 211.091 2.20994 -2.40477 0
M  V30 2287 H 209.75 0.46871 -3.63591 0
M  V30 2288 H 209.398 2.89883 -4.11068 0
M  V30 2289 H 209.098 1.90521 -5.55856 0
M  V30 2290 H 210.622 2.82614 -5.41259 0
M  V30 2291 H 212.036 0.573509 -5.70424 0
M  V30 2292 H 210.433 -0.160783 -5.99885 0
M  V30 2293 H 211.503 -0.86237 -4.7717 0
M  V30 2294 N 212.846 1.57033 -0.133567 0
M  V30 2295 C 214.123 1.87256 0.56522 0
M  V30 2296 C 214.503 1.03726 1.83859 0
M  V30 2297 O 213.851 0.120247 2.28183 0
M  V30 2298 C 214.061 3.3865 0.843636 0
M  V30 2299 C 215.409 4.07574 1.19032 0
M  V30 2300 O 216.433 3.43752 0.933429 0
M  V30 2301 O 215.292 5.20259 1.67312 0
M  V30 2302 H 212.386 0.775678 0.286796 0
M  V30 2303 H 214.932 1.68855 -0.169168 0
M  V30 2304 H 213.704 3.91257 -0.0581149 0
M  V30 2305 H 213.327 3.62532 1.63268 0
M  V30 2306 N 214.325 -0.140222 1.56975 0
M  V30 2307 C 215.555 -0.865181 1.87612 0
M  V30 2308 C 215.963 -1.74942 0.72055 0
M  V30 2309 O 215.306 -1.80917 -0.318561 0
M  V30 2310 C 215.368 -1.76782 3.13031 0
M  V30 2311 C 215.032 -1.06005 4.44536 0
M  V30 2312 C 216.029 -0.410768 5.18275 0
M  V30 2313 C 213.714 -1.04754 4.91255 0
M  V30 2314 C 215.708 0.241572 6.36942 0
M  V30 2315 C 213.395 -0.391394 6.09845 0
M  V30 2316 C 214.393 0.252029 6.82535 0
M  V30 2317 O 214.081 0.897757 7.98871 0
M  V30 2318 H 213.813 -0.255188 0.625983 0
M  V30 2319 H 216.367 -0.135653 2.04952 0
M  V30 2320 H 214.597 -2.53846 2.91718 0
M  V30 2321 H 216.286 -2.36533 3.29859 0
M  V30 2322 H 217.052 -0.412195 4.83245 0
M  V30 2323 H 212.931 -1.53777 4.34596 0
M  V30 2324 H 216.475 0.744375 6.93617 0
M  V30 2325 H 212.372 -0.387656 6.44335 0
M  V30 2326 H 213.14 0.800102 8.1458 0
M  V30 2327 N 215.803 -1.52179 -0.40978 0
M  V30 2328 C 216.751 -1.76086 -1.51975 0
M  V30 2329 C 217.745 -0.627964 -1.57331 0
M  V30 2330 O 218.951 -0.809993 -1.60745 0
M  V30 2331 H 215.326 -0.556829 -0.505416 0
M  V30 2332 H 217.297 -2.69077 -1.28996 0
M  V30 2333 C 216.046 -1.92799 -2.8935 0
M  V30 2334 H 215.369 -2.79392 -2.85972 0
M  V30 2335 H 216.809 -2.13527 -3.66309 0
M  V30 2336 C 215.268 -0.694923 -3.29655 0
M  V30 2337 O 215.798 0.13751 -4.01465 0
M  V30 2338 N 214.004 -0.53101 -2.85707 0
M  V30 2339 H 213.551 -1.20952 -2.27439 0
M  V30 2340 H 213.509 0.292718 -3.13034 0
M  V30 2341 N 217.281 0.66697 -1.42791 0
M  V30 2342 C 218.53 1.42278 -1.42968 0
M  V30 2343 C 218.843 1.9553 -0.0524489 0
M  V30 2344 O 220.049 2.71414 0.068363 0
M  V30 2345 C 218.505 2.57418 -2.51524 0
M  V30 2346 C 218.113 2.10832 -3.9529 0
M  V30 2347 C 219.857 3.34878 -2.60877 0
M  V30 2348 C 217.764 3.23101 -4.95338 0
M  V30 2349 H 216.694 0.534533 -0.531781 0
M  V30 2350 H 219.345 0.721302 -1.68729 0
M  V30 2351 H 217.727 3.29971 -2.18941 0
M  V30 2352 H 218.901 1.4538 -4.37266 0
M  V30 2353 H 217.216 1.46289 -3.89857 0
M  V30 2354 H 219.813 4.18505 -3.32802 0
M  V30 2355 H 220.156 3.81993 -1.6549 0
M  V30 2356 H 220.689 2.69398 -2.92693 0
M  V30 2357 H 217.428 2.80969 -5.9223 0
M  V30 2358 H 216.948 3.87309 -4.57987 0
M  V30 2359 H 218.627 3.88447 -5.17415 0
M  V30 2360 N 218.759 1.29093 0.90403 0
M  V30 2361 C 220.006 1.16813 1.65411 0
M  V30 2362 C 220.334 -0.28128 1.92455 0
M  V30 2363 O 219.589 -1.22006 1.53013 0
M  V30 2364 C 219.888 1.92224 3.01305 0
M  V30 2365 C 219.554 3.41968 2.93885 0
M  V30 2366 C 218.216 3.82807 2.91569 0
M  V30 2367 C 220.568 4.37409 2.83413 0
M  V30 2368 C 217.896 5.1741 2.76594 0
M  V30 2369 C 220.248 5.72097 2.69977 0
M  V30 2370 C 218.912 6.12199 2.66024 0
M  V30 2371 H 218.182 0.42745 0.605283 0
M  V30 2372 H 220.829 1.59981 1.05254 0
M  V30 2373 H 219.134 1.41635 3.65304 0
M  V30 2374 H 220.831 1.80131 3.58265 0
M  V30 2375 H 217.421 3.09504 2.96488 0
M  V30 2376 H 221.605 4.06813 2.84283 0
M  V30 2377 H 216.861 5.47596 2.71935 0
M  V30 2378 H 221.035 6.45704 2.60844 0
M  V30 2379 H 218.662 7.16448 2.54178 0
M  V30 2380 N 220.237 -1.11381 1.11499 0
M  V30 2381 C 221.653 -1.35143 0.849031 0
M  V30 2382 C 221.853 -1.94515 -0.525938 0
M  V30 2383 O 220.909 -2.1785 -1.27662 0
M  V30 2384 C 222.222 -2.28249 1.95762 0
M  V30 2385 C 223.77 -2.41812 1.98736 0
M  V30 2386 C 224.245 -3.3824 3.088 0
M  V30 2387 N 225.736 -3.45803 3.08179 0
M  V30 2388 C 226.471 -4.20358 3.89982 0
M  V30 2389 N 225.967 -4.97884 4.8175 0
M  V30 2390 N 227.76 -4.15877 3.78157 0
M  V30 2391 H 219.911 -0.712062 2.00109 0
M  V30 2392 H 222.174 -0.376025 0.870235 0
M  V30 2393 H 221.88 -1.91817 2.94787 0
M  V30 2394 H 221.754 -3.28473 1.85433 0
M  V30 2395 H 224.141 -2.77518 1.00338 0
M  V30 2396 H 224.222 -1.41437 2.13141 0
M  V30 2397 H 223.866 -3.03261 4.07425 0
M  V30 2398 H 223.796 -4.38471 2.91635 0
M  V30 2399 H 226.287 -2.90506 2.41691 0
M  V30 2400 H 226.6 -5.52142 5.40702 0
M  V30 2401 H 224.945 -4.97043 4.85771 0
M  V30 2402 H 228.136 -3.544 3.05808 0
M  V30 2403 H 228.309 -4.73723 4.42143 0
M  V30 2404 N 221.715 -0.905404 -1.28997 0
M  V30 2405 C 222.963 -0.533192 -1.9494 0
M  V30 2406 C 223.284 0.924618 -1.71685 0
M  V30 2407 O 222.554 1.65268 -1.05183 0
M  V30 2408 H 221.134 -0.194194 -0.721317 0
M  V30 2409 H 223.796 -1.15294 -1.57141 0
M  V30 2410 H 222.892 -0.72059 -3.03667 0
M  V30 2411 N 223.193 1.4272 -0.668489 0
M  V30 2412 C 224.123 2.335 -0.000100175 0
M  V30 2413 C 225.104 1.50328 0.795964 0
M  V30 2414 O 226.289 1.78949 0.754385 0
M  V30 2415 C 223.419 3.33874 0.956302 0
M  V30 2416 C 222.373 4.27152 0.269278 0
M  V30 2417 C 221.699 5.17684 1.33818 0
M  V30 2418 C 222.999 5.15373 -0.847805 0
M  V30 2419 H 224.693 2.89639 -0.758244 0
M  V30 2420 H 222.239 1.39269 -0.366079 0
M  V30 2421 H 224.192 3.9629 1.43292 0
M  V30 2422 H 222.916 2.76025 1.74579 0
M  V30 2423 H 221.575 3.66123 -0.187042 0
M  V30 2424 H 221.223 4.56165 2.1195 0
M  V30 2425 H 220.923 5.80918 0.883659 0
M  V30 2426 H 222.447 5.82974 1.81586 0
M  V30 2427 H 223.861 5.7151 -0.452681 0
M  V30 2428 H 222.258 5.87407 -1.22773 0
M  V30 2429 H 223.328 4.5415 -1.69929 0
M  V30 2430 N 224.671 0.411399 1.52136 0
M  V30 2431 C 225.634 -0.401089 2.25663 0
M  V30 2432 C 226.634 -0.971732 1.28117 0
M  V30 2433 O 227.824 -0.850254 1.52041 0
M  V30 2434 C 224.956 -1.56483 3.02863 0
M  V30 2435 H 226.149 0.24295 2.98914 0
M  V30 2436 H 223.702 0.163968 1.55438 0
M  V30 2437 H 224.437 -2.24567 2.33967 0
M  V30 2438 H 224.222 -1.16211 3.74483 0
M  V30 2439 H 225.712 -2.13951 3.58629 0
M  V30 2440 N 226.149 -1.5696 0.141893 0
M  V30 2441 C 227.396 -1.9596 -0.510492 0
M  V30 2442 C 227.724 -1.02648 -1.65208 0
M  V30 2443 O 226.979 -0.0546947 -1.95624 0
M  V30 2444 C 227.278 -3.41242 -1.06249 0
M  V30 2445 C 226.944 -4.50882 -0.0398791 0
M  V30 2446 C 225.606 -4.80595 0.241247 0
M  V30 2447 C 227.958 -5.17058 0.65578 0
M  V30 2448 C 225.286 -5.73792 1.22393 0
M  V30 2449 C 227.638 -6.11313 1.62724 0
M  V30 2450 C 226.302 -6.39407 1.91612 0
M  V30 2451 H 225.572 -0.717068 -0.186802 0
M  V30 2452 H 228.219 -1.90142 0.227643 0
M  V30 2453 H 226.524 -3.43866 -1.87785 0
M  V30 2454 H 228.221 -3.68742 -1.57576 0
M  V30 2455 H 224.811 -4.27754 -0.269174 0
M  V30 2456 H 228.995 -4.94239 0.451779 0
M  V30 2457 H 224.251 -5.93853 1.45424 0
M  V30 2458 H 228.425 -6.61668 2.17183 0
M  V30 2459 H 226.052 -7.11427 2.6791 0
M  V30 2460 N 227.627 0.131896 -1.57047 0
M  V30 2461 C 228.59 1.14638 -1.98471 0
M  V30 2462 C 229.59 1.35029 -0.873148 0
M  V30 2463 O 230.78 1.31764 -1.13946 0
M  V30 2464 C 227.912 2.50358 -2.31373 0
M  V30 2465 H 229.105 0.79064 -2.8929 0
M  V30 2466 H 226.658 0.375761 -1.51716 0
M  V30 2467 H 227.393 2.90876 -1.43393 0
M  V30 2468 H 227.178 2.36915 -3.12432 0
M  V30 2469 H 228.668 3.23395 -2.64207 0
M  V30 2470 N 229.106 1.52395 0.401703 0
M  V30 2471 C 230.331 1.70972 1.17403 0
M  V30 2472 C 230.756 0.421615 1.83314 0
M  V30 2473 O 230.114 -0.621564 1.70312 0
M  V30 2474 C 230.162 2.85151 2.20728 0
M  V30 2475 O 229.266 2.51238 3.27037 0
M  V30 2476 H 228.607 0.568927 0.342372 0
M  V30 2477 H 231.137 1.99131 0.469891 0
M  V30 2478 H 231.147 3.10279 2.64936 0
M  V30 2479 H 229.822 3.78603 1.7214 0
M  V30 2480 H 228.399 2.36808 2.88057 0
M  V30 2481 N 230.584 -0.659388 1.43143 0
M  V30 2482 C 231.832 -1.41654 1.44147 0
M  V30 2483 C 232.153 -1.94893 0.0645739 0
M  V30 2484 O 231.423 -1.74044 -0.899198 0
M  V30 2485 H 230.003 -0.525708 0.530697 0
M  V30 2486 H 232.665 -0.778097 1.78694 0
M  V30 2487 H 231.761 -2.26195 2.1504 0
M  V30 2488 N 232.062 -1.29571 -0.897171 0
M  V30 2489 C 233.01 -1.14802 -2.02295 0
M  V30 2490 C 234.004 -0.0629637 -1.69283 0
M  V30 2491 O 235.21 -0.222945 -1.78614 0
M  V30 2492 H 231.585 -0.354692 -0.663097 0
M  V30 2493 H 233.556 -2.10108 -2.11889 0
M  V30 2494 C 232.305 -0.843966 -3.37302 0
M  V30 2495 H 231.628 -1.67093 -3.63208 0
M  V30 2496 H 233.068 -0.780672 -4.16751 0
M  V30 2497 C 231.527 0.452843 -3.33843 0
M  V30 2498 O 232.057 1.47813 -3.73516 0
M  V30 2499 N 230.263 0.459601 -2.86943 0
M  V30 2500 H 229.81 -0.375213 -2.54853 0
M  V30 2501 H 229.768 1.32726 -2.85011 0
M  V30 2502 N 233.54 1.10788 -1.12088 0
M  V30 2503 C 234.951 1.64181 -0.88891 0
M  V30 2504 C 235.302 1.87508 0.577498 0
M  V30 2505 O 234.427 1.61434 1.44112 0
M  V30 2506 C 235.022 2.98257 -1.60712 0
M  V30 2507 C 233.581 3.4853 -1.42139 0
M  V30 2508 C 232.728 2.23208 -1.6454 0
M  V30 2509 H 235.679 0.943368 -1.27618 0
M  V30 2510 H 235.7 3.65552 -1.05604 0
M  V30 2511 H 235.212 2.81246 -2.67436 0
M  V30 2512 H 233.313 3.70692 -0.376552 0
M  V30 2513 H 233.426 4.26882 -2.17505 0
M  V30 2514 H 231.79 2.31169 -1.06925 0
M  V30 2515 H 232.573 2.08733 -2.72554 0
M  V30 2516 N 235.018 0.912232 1.28515 0
M  V30 2517 C 236.267 0.540504 1.94323 0
M  V30 2518 C 236.58 -0.920044 1.72611 0
M  V30 2519 O 237.786 -1.39986 2.32629 0
M  V30 2520 C 236.242 0.915803 3.48053 0
M  V30 2521 C 235.85 2.39598 3.78546 0
M  V30 2522 C 237.594 0.614588 4.20027 0
M  V30 2523 C 235.501 2.71148 5.25578 0
M  V30 2524 H 234.431 0.198418 0.727424 0
M  V30 2525 H 237.082 1.11094 1.46049 0
M  V30 2526 H 235.464 0.274168 3.9505 0
M  V30 2527 H 236.638 3.08422 3.42364 0
M  V30 2528 H 234.953 2.66749 3.1974 0
M  V30 2529 H 237.55 0.827002 5.28266 0
M  V30 2530 H 237.893 -0.447531 4.13887 0
M  V30 2531 H 238.426 1.21462 3.78803 0
M  V30 2532 H 235.165 3.76207 5.36794 0
M  V30 2533 H 234.685 2.0696 5.62963 0
M  V30 2534 H 236.364 2.58072 5.93302 0
M  V30 2535 N 236.496 -1.42363 0.676048 0
M  V30 2536 C 237.726 -2.05561 0.206967 0
M  V30 2537 C 238.134 -1.50887 -1.14148 0
M  V30 2538 O 237.477 -0.643933 -1.72044 0
M  V30 2539 C 237.539 -3.5944 0.0659508 0
M  V30 2540 C 237.203 -4.36812 1.34331 0
M  V30 2541 C 238.2 -4.67383 2.27704 0
M  V30 2542 C 235.885 -4.76429 1.59125 0
M  V30 2543 C 237.879 -5.36509 3.44147 0
M  V30 2544 C 235.566 -5.45294 2.75857 0
M  V30 2545 C 236.564 -5.75259 3.68193 0
M  V30 2546 O 236.252 -6.42712 4.82883 0
M  V30 2547 H 235.984 -0.668872 0.0979084 0
M  V30 2548 H 238.538 -1.83467 0.923531 0
M  V30 2549 H 236.768 -3.80197 -0.706204 0
M  V30 2550 H 238.457 -4.0427 -0.363418 0
M  V30 2551 H 239.223 -4.37275 2.09799 0
M  V30 2552 H 235.102 -4.52498 0.881258 0
M  V30 2553 H 238.646 -5.59814 4.16238 0
M  V30 2554 H 234.543 -5.7482 2.93688 0
M  V30 2555 H 235.311 -6.61204 4.82444 0
M  V30 2556 N 237.974 -0.419461 -1.51915 0
M  V30 2557 C 239.222 0.152637 -2.01523 0
M  V30 2558 C 239.543 1.44762 -1.30649 0
M  V30 2559 O 238.813 1.90997 -0.435535 0
M  V30 2560 H 237.393 0.0593966 -0.744635 0
M  V30 2561 H 240.055 -0.558073 -1.86739 0
M  V30 2562 H 239.151 0.341369 -3.10227 0
M  V30 2563 N 239.452 1.56882 -0.150215 0
M  V30 2564 C 240.382 2.19935 0.784284 0
M  V30 2565 C 241.363 1.14854 1.25469 0
M  V30 2566 O 242.548 1.43209 1.31168 0
M  V30 2567 C 239.678 2.82349 2.02229 0
M  V30 2568 C 238.632 3.93285 1.68853 0
M  V30 2569 C 237.958 4.42649 2.99944 0
M  V30 2570 C 239.258 5.13904 0.932714 0
M  V30 2571 H 240.952 2.9828 0.258781 0
M  V30 2572 H 238.498 1.43473 0.123029 0
M  V30 2573 H 240.451 3.25126 2.68088 0
M  V30 2574 H 239.175 2.0134 2.57157 0
M  V30 2575 H 237.834 3.5113 1.05371 0
M  V30 2576 H 237.482 3.58458 3.52869 0
M  V30 2577 H 237.182 5.17476 2.78374 0
M  V30 2578 H 238.706 4.88099 3.66868 0
M  V30 2579 H 240.12 5.53506 1.49345 0
M  V30 2580 H 238.517 5.94515 0.81684 0
M  V30 2581 H 239.587 4.84842 -0.0749568 0
M  V30 2582 N 240.93 -0.123565 1.57115 0
M  V30 2583 C 242.179 -0.830704 1.83799 0
M  V30 2584 C 242.492 -1.81259 0.735158 0
M  V30 2585 O 243.698 -2.56558 0.888278 0
M  V30 2586 C 242.154 -1.52802 3.25852 0
M  V30 2587 C 241.762 -0.587356 4.44133 0
M  V30 2588 C 243.506 -2.22056 3.61789 0
M  V30 2589 C 241.413 -1.28764 5.77212 0
M  V30 2590 H 240.343 -0.313967 0.685522 0
M  V30 2591 H 242.994 -0.0834359 1.8331 0
M  V30 2592 H 241.376 -2.32175 3.20797 0
M  V30 2593 H 242.55 0.172829 4.60476 0
M  V30 2594 H 240.865 -0.00201892 4.164 0
M  V30 2595 H 243.462 -2.75131 4.58483 0
M  V30 2596 H 243.805 -2.99644 2.88997 0
M  V30 2597 H 244.338 -1.49576 3.68608 0
M  V30 2598 H 241.077 -0.55314 6.53162 0
M  V30 2599 H 240.597 -2.01995 5.64764 0
M  V30 2600 H 242.276 -1.8221 6.20813 0
M  V30 2601 N 242.408 -1.52605 -0.393616 0
M  V30 2602 C 243.338 -1.80022 -1.48709 0
M  V30 2603 C 244.319 -0.651995 -1.57108 0
M  V30 2604 O 245.504 -0.89913 -1.72132 0
M  V30 2605 C 242.634 -1.96492 -2.86371 0
M  V30 2606 C 241.588 -3.12161 -2.92813 0
M  V30 2607 C 240.914 -3.13877 -4.3288 0
M  V30 2608 C 242.214 -4.51322 -2.6288 0
M  V30 2609 H 243.908 -2.71589 -1.26015 0
M  V30 2610 H 241.454 -1.30684 -0.604778 0
M  V30 2611 H 243.407 -2.14255 -3.62867 0
M  V30 2612 H 242.131 -1.01611 -3.10391 0
M  V30 2613 H 240.79 -2.94173 -2.18764 0
M  V30 2614 H 240.438 -2.16687 -4.53933 0
M  V30 2615 H 240.138 -3.91576 -4.38112 0
M  V30 2616 H 241.662 -3.33789 -5.1129 0
M  V30 2617 H 243.076 -4.69435 -3.29096 0
M  V30 2618 H 241.473 -5.31053 -2.79468 0
M  V30 2619 H 242.543 -4.58353 -1.58242 0
M  V30 2620 N 243.887 0.651787 -1.4349 0
M  V30 2621 C 244.835 1.78586 -1.49029 0
M  V30 2622 C 245.829 1.65448 -0.363767 0
M  V30 2623 O 247.035 1.71777 -0.537821 0
M  V30 2624 H 243.41 0.589236 -0.467231 0
M  V30 2625 H 245.381 1.71035 -2.44519 0
M  V30 2626 C 244.13 3.16851 -1.43181 0
M  V30 2627 H 243.453 3.27598 -2.29171 0
M  V30 2628 H 244.893 3.96156 -1.51118 0
M  V30 2629 C 243.352 3.36568 -0.149616 0
M  V30 2630 O 243.882 3.93885 0.788509 0
M  V30 2631 N 242.088 2.90539 -0.0593484 0
M  V30 2632 H 241.635 2.4408 -0.823575 0
M  V30 2633 H 241.593 3.04108 0.797853 0
M  V30 2634 N 245.365 1.30045 0.890287 0
M  V30 2635 C 246.613 1.18327 1.63839 0
M  V30 2636 C 246.934 -0.263455 1.93212 0
M  V30 2637 O 246.204 -1.17856 1.56482 0
M  V30 2638 H 244.784 0.434933 0.607324 0
M  V30 2639 H 247.446 1.631 1.06698 0
M  V30 2640 H 246.542 1.74024 2.59079 0
M  V30 2641 N 246.843 -1.10192 1.12674 0
M  V30 2642 C 247.776 -2.15847 0.740625 0
M  V30 2643 C 248.754 -1.60352 -0.269421 0
M  V30 2644 O 249.938 -1.87796 -0.16278 0
M  V30 2645 C 247.065 -3.38562 0.096641 0
M  V30 2646 C 246.111 -4.12758 1.07391 0
M  V30 2647 S 246.944 -4.67997 2.60267 0
M  V30 2648 C 248.1 -5.94021 1.97206 0
M  V30 2649 H 248.333 -2.48266 1.63558 0
M  V30 2650 H 245.866 -1.22019 0.946087 0
M  V30 2651 H 247.824 -4.09621 -0.268535 0
M  V30 2652 H 246.485 -3.04377 -0.775462 0
M  V30 2653 H 245.678 -5.00755 0.570997 0
M  V30 2654 H 245.28 -3.47523 1.38216 0
M  V30 2655 H 247.572 -6.64589 1.31634 0
M  V30 2656 H 248.515 -6.48979 2.83253 0
M  V30 2657 H 248.923 -5.46169 1.42686 0
M  V30 2658 N 248.321 -0.919034 -1.28029 0
M  V30 2659 C 249.268 -0.410005 -2.27129 0
M  V30 2660 C 250.238 0.518405 -1.57803 0
M  V30 2661 O 251.423 0.439451 -1.8567 0
M  V30 2662 C 248.563 0.339054 -3.4343 0
M  V30 2663 C 247.676 -0.622468 -4.27492 0
M  V30 2664 C 246.811 0.145567 -5.31001 0
M  V30 2665 C 245.85 -0.809226 -6.06727 0
M  V30 2666 N 244.987 -0.0743728 -7.02061 0
M  V30 2667 H 249.827 -1.26011 -2.70047 0
M  V30 2668 H 247.364 -0.632663 -1.328 0
M  V30 2669 H 249.322 0.789586 -4.0966 0
M  V30 2670 H 247.952 1.15346 -3.01488 0
M  V30 2671 H 247.004 -1.19153 -3.61257 0
M  V30 2672 H 248.316 -1.35252 -4.80113 0
M  V30 2673 H 247.47 0.656417 -6.03139 0
M  V30 2674 H 246.209 0.908643 -4.79161 0
M  V30 2675 H 245.214 -1.3314 -5.33436 0
M  V30 2676 H 246.439 -1.57194 -6.60656 0
M  V30 2677 H 244.385 0.670616 -6.52563 0
M  V30 2678 H 244.302 -0.744157 -7.52329 0
M  V30 2679 H 245.57 0.416109 -7.78389 0
M  V30 2680 N 249.799 1.42003 -0.683588 0
M  V30 2681 C 251.047 2.01015 -0.209101 0
M  V30 2682 C 251.368 1.54365 1.19149 0
M  V30 2683 O 250.638 0.769083 1.80172 0
M  V30 2684 H 249.218 0.743294 -0.074315 0
M  V30 2685 H 251.88 1.73798 -0.882066 0
M  V30 2686 H 250.976 3.11343 -0.2172 0
M  V30 2687 N 251.277 0.427512 1.51691 0
M  V30 2688 C 252.207 -0.3796 2.30394 0
M  V30 2689 C 253.188 -1.02982 1.35384 0
M  V30 2690 O 254.373 -1.03534 1.643 0
M  V30 2691 C 251.503 -1.48649 3.1388 0
M  V30 2692 C 250.457 -0.960294 4.17088 0
M  V30 2693 C 249.783 -2.16219 4.89033 0
M  V30 2694 C 251.083 -0.00153679 5.223 0
M  V30 2695 H 252.777 0.277164 2.98114 0
M  V30 2696 H 250.323 0.134739 1.43368 0
M  V30 2697 H 252.276 -2.05826 3.67714 0
M  V30 2698 H 251 -2.1714 2.43962 0
M  V30 2699 H 249.659 -0.410806 3.64291 0
M  V30 2700 H 249.307 -2.83307 4.15628 0
M  V30 2701 H 249.007 -1.81654 5.58816 0
M  V30 2702 H 250.531 -2.73968 5.45687 0
M  V30 2703 H 251.945 -0.482687 5.71264 0
M  V30 2704 H 250.342 0.256199 5.99553 0
M  V30 2705 H 251.412 0.938174 4.75738 0
M  V30 2706 N 252.755 -1.56801 0.158532 0
M  V30 2707 C 253.985 -2.00568 -0.495583 0
M  V30 2708 C 254.393 -1.03774 -1.58201 0
M  V30 2709 O 253.736 -0.0285797 -1.83678 0
M  V30 2710 C 253.798 -3.40768 -1.14532 0
M  V30 2711 C 253.462 -4.56553 -0.202101 0
M  V30 2712 C 254.459 -5.16714 0.574675 0
M  V30 2713 C 252.144 -5.02197 -0.101648 0
M  V30 2714 C 254.138 -6.20939 1.43924 0
M  V30 2715 C 251.825 -6.06274 0.766508 0
M  V30 2716 C 252.823 -6.65515 1.53555 0
M  V30 2717 O 252.511 -7.67575 2.38922 0
M  V30 2718 H 252.243 -0.662893 -0.13247 0
M  V30 2719 H 254.797 -2.03829 0.253559 0
M  V30 2720 H 253.027 -3.34381 -1.94233 0
M  V30 2721 H 254.716 -3.6857 -1.70033 0
M  V30 2722 H 255.482 -4.82341 0.507167 0
M  V30 2723 H 251.361 -4.55807 -0.689994 0
M  V30 2724 H 254.905 -6.67107 2.03996 0
M  V30 2725 H 250.802 -6.40073 0.835266 0
M  V30 2726 H 251.57 -7.84844 2.32296 0
M  V30 2727 N 254.233 0.115231 -1.57178 0
M  V30 2728 C 255.461 0.836437 -1.89239 0
M  V30 2729 C 255.876 1.73256 -0.750175 0
M  V30 2730 O 255.233 1.80357 0.278832 0
M  V30 2731 C 255.284 1.66671 -3.20785 0
M  V30 2732 O 255.005 0.806652 -4.3061 0
M  V30 2733 C 256.506 2.49274 -3.66575 0
M  V30 2734 H 253.726 0.240253 -0.626514 0
M  V30 2735 H 256.27 0.0984932 -2.04263 0
M  V30 2736 H 254.425 2.35737 -3.0742 0
M  V30 2737 H 254.839 1.37969 -5.06028 0
M  V30 2738 H 256.313 3.03055 -4.6137 0
M  V30 2739 H 256.79 3.26807 -2.93417 0
M  V30 2740 H 257.396 1.85443 -3.82741 0
M  V30 2741 N 255.711 1.52812 0.385517 0
M  V30 2742 C 257.127 1.4214 0.725829 0
M  V30 2743 C 257.327 0.544589 1.94001 0
M  V30 2744 O 256.383 0.0193693 2.52493 0
M  V30 2745 C 257.696 2.85042 0.957668 0
M  V30 2746 C 259.244 2.94543 1.05892 0
M  V30 2747 C 259.719 4.38464 1.32337 0
M  V30 2748 N 261.21 4.41804 1.39151 0
M  V30 2749 C 261.945 5.5025 1.61285 0
M  V30 2750 N 261.441 6.68775 1.80866 0
M  V30 2751 N 263.234 5.37798 1.63492 0
M  V30 2752 H 255.385 2.08338 -0.413383 0
M  V30 2753 H 257.648 0.940016 -0.122775 0
M  V30 2754 H 257.354 3.51431 0.137568 0
M  V30 2755 H 257.228 3.27505 1.87137 0
M  V30 2756 H 259.615 2.28321 1.86959 0
M  V30 2757 H 259.696 2.55504 0.123057 0
M  V30 2758 H 259.34 5.05254 0.517793 0
M  V30 2759 H 259.27 4.75059 2.27214 0
M  V30 2760 H 261.761 3.56377 1.25713 0
M  V30 2761 H 262.074 7.47197 1.97271 0
M  V30 2762 H 260.419 6.71797 1.78083 0
M  V30 2763 H 263.61 4.44171 1.47749 0
M  V30 2764 H 263.783 6.22382 1.80402 0
M  V30 2765 N 257.189 -0.644168 1.43834 0
M  V30 2766 C 258.438 -1.39985 1.45214 0
M  V30 2767 C 258.751 -1.95421 0.0835494 0
M  V30 2768 O 259.957 -2.71488 -0.0251748 0
M  V30 2769 C 258.413 -2.53384 2.55587 0
M  V30 2770 C 258.021 -2.04517 3.98594 0
M  V30 2771 C 259.765 -3.30685 2.66172 0
M  V30 2772 C 257.672 -3.1518 5.00416 0
M  V30 2773 H 256.602 -0.526005 0.540218 0
M  V30 2774 H 259.253 -0.694367 1.69855 0
M  V30 2775 H 257.635 -3.26446 2.24163 0
M  V30 2776 H 258.809 -1.38405 4.39523 0
M  V30 2777 H 257.124 -1.40068 3.92135 0
M  V30 2778 H 259.721 -4.13158 3.39418 0
M  V30 2779 H 260.064 -3.79312 1.71546 0
M  V30 2780 H 260.597 -2.64708 2.96942 0
M  V30 2781 H 257.336 -2.71511 5.96625 0
M  V30 2782 H 256.856 -3.79974 4.64091 0
M  V30 2783 H 258.535 -3.80166 5.23529 0
M  V30 2784 N 258.668 -1.30515 -0.883378 0
M  V30 2785 C 259.916 -1.19194 -1.63209 0
M  V30 2786 C 260.237 0.253205 -1.93349 0
M  V30 2787 O 259.507 1.17025 -1.57105 0
M  V30 2788 H 258.087 -0.438148 -0.605009 0
M  V30 2789 H 260.749 -1.63663 -1.05832 0
M  V30 2790 H 259.845 -1.75396 -2.58153 0
M  V30 2791 N 260.146 1.09593 -1.13257 0
M  V30 2792 C 261.562 1.33775 -0.870423 0
M  V30 2793 C 261.762 1.95327 0.494926 0
M  V30 2794 O 260.818 2.19853 1.2418 0
M  V30 2795 C 262.131 2.25106 -1.99369 0
M  V30 2796 C 263.679 2.3862 -2.02558 0
M  V30 2797 C 264.154 3.33285 -3.14142 0
M  V30 2798 N 265.645 3.40857 -3.13641 0
M  V30 2799 C 266.38 4.14101 -3.96621 0
M  V30 2800 N 265.876 4.90157 -4.8961 0
M  V30 2801 N 267.669 4.09808 -3.84726 0
M  V30 2802 H 259.82 0.680136 -2.01216 0
M  V30 2803 H 262.083 0.362133 -0.876107 0
M  V30 2804 H 261.789 1.87103 -2.97801 0
M  V30 2805 H 261.663 3.25481 -1.90635 0
M  V30 2806 H 264.05 2.75887 -1.0474 0
M  V30 2807 H 264.131 1.38028 -2.15364 0
M  V30 2808 H 263.775 2.96741 -4.12198 0
M  V30 2809 H 263.705 4.33776 -2.98574 0
M  V30 2810 H 266.196 2.86624 -2.46282 0
M  V30 2811 H 266.509 5.4347 -5.49418 0
M  V30 2812 H 264.854 4.89251 -4.93617 0
M  V30 2813 H 268.045 3.4949 -3.11408 0
M  V30 2814 H 268.218 4.66629 -4.49623 0
M  V30 2815 N 261.624 0.925811 1.2754 0
M  V30 2816 C 262.574 0.394488 2.24561 0
M  V30 2817 C 263.558 -0.500183 1.52928 0
M  V30 2818 O 264.75 -0.337936 1.73744 0
M  V30 2819 C 261.879 -0.353328 3.41477 0
M  V30 2820 C 260.965 0.557752 4.20416 0
M  V30 2821 N 261.356 1.67674 4.77199 0
M  V30 2822 C 259.654 0.360404 4.44541 0
M  V30 2823 C 260.355 2.24324 5.36706 0
M  V30 2824 N 259.331 1.53305 5.21535 0
M  V30 2825 H 263.133 1.2489 2.66045 0
M  V30 2826 H 260.647 0.779864 1.4245 0
M  V30 2827 H 262.644 -0.7509 4.10082 0
M  V30 2828 H 261.304 -1.20469 3.01525 0
M  V30 2829 H 262.315 2.05915 4.75204 0
M  V30 2830 H 258.992 -0.450454 4.15063 0
M  V30 2831 H 260.382 3.18521 5.91603 0
M  V30 2832 N 263.102 -1.41638 0.69111 0
M  V30 2833 C 264.332 -2.0533 0.228758 0
M  V30 2834 C 264.74 -1.52089 -1.12541 0
M  V30 2835 O 264.083 -0.662145 -1.71351 0
M  V30 2836 C 264.145 -3.59349 0.10407 0
M  V30 2837 C 263.809 -4.35362 1.38956 0
M  V30 2838 C 264.806 -4.64942 2.32648 0
M  V30 2839 C 262.491 -4.74714 1.64169 0
M  V30 2840 C 264.485 -5.32828 3.49818 0
M  V30 2841 C 262.172 -5.42338 2.81625 0
M  V30 2842 C 263.17 -5.71322 3.74273 0
M  V30 2843 O 262.858 -6.37554 4.89673 0
M  V30 2844 H 262.59 -0.667796 0.104997 0
M  V30 2845 H 265.144 -1.82477 0.942938 0
M  V30 2846 H 263.374 -3.80924 -0.665839 0
M  V30 2847 H 265.063 -4.04633 -0.320519 0
M  V30 2848 H 265.829 -4.35025 2.14425 0
M  V30 2849 H 261.708 -4.51538 0.929202 0
M  V30 2850 H 265.252 -5.55368 4.22152 0
M  V30 2851 H 261.149 -5.71673 2.99768 0
M  V30 2852 H 261.917 -6.56049 4.8943 0
M  V30 2853 N 264.58 -0.43555 -1.51462 0
M  V30 2854 C 265.827 0.131514 -2.02072 0
M  V30 2855 C 266.155 1.42868 -1.31981 0
M  V30 2856 O 265.41 1.91076 -0.422883 0
M  V30 2857 C 265.709 0.39942 -3.55161 0
M  V30 2858 C 265.375 -0.81172 -4.43533 0
M  V30 2859 C 264.037 -1.14387 -4.67407 0
M  V30 2860 C 266.389 -1.61976 -4.95392 0
M  V30 2861 C 263.717 -2.28477 -5.40384 0
M  V30 2862 C 266.069 -2.75164 -5.6962 0
M  V30 2863 C 264.733 -3.08835 -5.91758 0
M  V30 2864 H 264.003 0.0481244 -0.739436 0
M  V30 2865 H 266.65 -0.58238 -1.8243 0
M  V30 2866 H 264.955 1.19519 -3.73125 0
M  V30 2867 H 266.652 0.85157 -3.91854 0
M  V30 2868 H 263.242 -0.542898 -4.25148 0
M  V30 2869 H 267.426 -1.37637 -4.76833 0
M  V30 2870 H 262.682 -2.5488 -5.55739 0
M  V30 2871 H 266.856 -3.38147 -6.08793 0
M  V30 2872 H 264.483 -3.97353 -6.48086 0
M  V30 2873 N 266.058 1.56714 -0.166846 0
M  V30 2874 C 267.021 2.16539 0.751232 0
M  V30 2875 C 268.021 1.11228 1.16125 0
M  V30 2876 O 269.211 1.36765 1.07894 0
M  V30 2877 C 266.343 2.74462 2.02196 0
M  V30 2878 H 267.536 2.99013 0.230499 0
M  V30 2879 H 265.089 1.56081 0.0826982 0
M  V30 2880 H 265.824 1.95709 2.58589 0
M  V30 2881 H 265.609 3.51527 1.73698 0
M  V30 2882 H 267.099 3.20489 2.67725 0
M  V30 2883 N 267.536 -0.106894 1.57237 0
M  V30 2884 C 268.484 -1.14944 2.02215 0
M  V30 2885 C 269.478 -1.42167 0.92114 0
M  V30 2886 O 270.684 -1.41987 1.10634 0
M  V30 2887 H 267.059 -0.387841 0.64427 0
M  V30 2888 H 269.03 -0.743683 2.88984 0
M  V30 2889 C 267.779 -2.4647 2.4525 0
M  V30 2890 H 267.102 -2.26363 3.29545 0
M  V30 2891 H 268.542 -3.17948 2.80508 0
M  V30 2892 C 267.001 -3.09921 1.321 0
M  V30 2893 O 267.531 -3.9651 0.643622 0
M  V30 2894 N 265.737 -2.69986 1.07497 0
M  V30 2895 H 265.284 -1.99667 1.62761 0
M  V30 2896 H 265.242 -3.12769 0.319876 0
M  V30 2897 N 269.014 -1.53014 -0.377408 0
M  V30 2898 C 270.425 -1.60438 -0.954798 0
M  V30 2899 C 270.776 -0.464418 -1.90624 0
M  V30 2900 O 269.901 0.41087 -2.12464 0
M  V30 2901 C 270.496 -2.90797 -1.73847 0
M  V30 2902 C 269.055 -3.00595 -2.26538 0
M  V30 2903 C 268.202 -2.55645 -1.07429 0
M  V30 2904 H 271.153 -1.57926 -0.156575 0
M  V30 2905 H 271.174 -2.77935 -2.5987 0
M  V30 2906 H 270.686 -3.73746 -1.04574 0
M  V30 2907 H 268.787 -2.22208 -2.99089 0
M  V30 2908 H 268.9 -4.05456 -2.5523 0
M  V30 2909 H 267.264 -2.10239 -1.43777 0
M  V30 2910 H 268.047 -3.41 -0.396728 0
M  V30 2911 N 270.492 0.636531 -1.44174 0
M  V30 2912 C 271.402 1.77754 -1.53103 0
M  V30 2913 C 272.418 1.68928 -0.417034 0
M  V30 2914 O 273.594 1.89801 -0.6736 0
M  V30 2915 C 270.659 3.14115 -1.46741 0
M  V30 2916 C 269.72 3.34612 -2.68948 0
M  V30 2917 C 268.953 4.64467 -2.6288 0
M  V30 2918 O 269.176 5.44919 -1.68581 0
M  V30 2919 O 268.11 4.87049 -3.53648 0
M  V30 2920 H 271.936 1.73174 -2.49489 0
M  V30 2921 H 269.521 0.79709 -1.2636 0
M  V30 2922 H 271.403 3.95412 -1.45696 0
M  V30 2923 H 270.078 3.19249 -0.534975 0
M  V30 2924 H 268.985 2.53014 -2.75562 0
M  V30 2925 H 270.318 3.34336 -3.61221 0
M  V30 2926 N 271.97 1.30982 0.876444 0
M  V30 2927 C 272.933 1.18054 1.96459 0
M  V30 2928 C 273.933 0.109399 1.60427 0
M  V30 2929 O 275.123 0.358173 1.70478 0
M  V30 2930 C 272.255 0.810616 3.31122 0
M  V30 2931 H 273.448 2.14735 2.09354 0
M  V30 2932 H 271.001 1.145 1.06392 0
M  V30 2933 H 271.736 -0.155322 3.23928 0
M  V30 2934 H 271.521 1.58481 3.58645 0
M  V30 2935 H 273.011 0.743876 4.10921 0
M  V30 2936 N 273.449 -1.08991 1.13837 0
M  V30 2937 C 274.865 -1.33312 0.877506 0
M  V30 2938 C 275.065 -1.95587 -0.48456 0
M  V30 2939 O 274.121 -2.20509 -1.23013 0
M  V30 2940 C 275.434 -2.24045 2.0056 0
M  V30 2941 C 276.982 -2.37542 2.03821 0
M  V30 2942 C 277.457 -3.31614 3.15905 0
M  V30 2943 N 278.948 -3.39189 3.15445 0
M  V30 2944 C 279.683 -4.11992 3.98811 0
M  V30 2945 N 279.179 -4.87553 4.92203 0
M  V30 2946 N 280.972 -4.07762 3.86894 0
M  V30 2947 H 273.123 -0.669456 2.01574 0
M  V30 2948 H 275.386 -0.357482 0.878015 0
M  V30 2949 H 275.092 -1.85521 2.98789 0
M  V30 2950 H 274.966 -3.24466 1.92359 0
M  V30 2951 H 277.353 -2.75327 1.06202 0
M  V30 2952 H 277.434 -1.36884 2.16093 0
M  V30 2953 H 277.078 -2.94551 4.13766 0
M  V30 2954 H 277.008 -4.32186 3.0087 0
M  V30 2955 H 279.499 -2.85314 2.47799 0
M  V30 2956 H 279.812 -5.40549 5.52292 0
M  V30 2957 H 278.157 -4.86627 4.96205 0
M  V30 2958 H 281.348 -3.47833 3.13257 0
M  V30 2959 H 281.521 -4.64238 4.52092 0
M  V30 2960 N 274.927 -0.932562 -1.27047 0
M  V30 2961 C 276.152 -0.591474 -1.98787 0
M  V30 2962 C 276.577 0.824601 -1.69062 0
M  V30 2963 O 275.935 1.5541 -0.933677 0
M  V30 2964 C 275.983 -0.829808 -3.50922 0
M  V30 2965 O 275.087 0.102266 -4.12273 0
M  V30 2966 H 274.428 -0.227185 -0.623926 0
M  V30 2967 H 276.958 -1.25314 -1.61733 0
M  V30 2968 H 276.968 -0.747292 -4.01098 0
M  V30 2969 H 275.643 -1.86201 -3.7189 0
M  V30 2970 H 274.22 -0.0305761 -3.72887 0
M  V30 2971 N 276.405 1.4127 -0.698611 0
M  V30 2972 C 277.335 2.33447 -0.049629 0
M  V30 2973 C 278.316 1.51982 0.763898 0
M  V30 2974 O 279.501 1.80509 0.716257 0
M  V30 2975 C 276.631 3.35828 0.885267 0
M  V30 2976 C 275.585 4.27627 0.178613 0
M  V30 2977 C 274.911 5.20406 1.22807 0
M  V30 2978 C 276.211 5.13459 -0.956933 0
M  V30 2979 H 277.905 2.87966 -0.81951 0
M  V30 2980 H 275.451 1.38461 -0.395538 0
M  V30 2981 H 277.404 3.9924 1.34854 0
M  V30 2982 H 276.128 2.79666 1.68685 0
M  V30 2983 H 274.787 3.65643 -0.26466 0
M  V30 2984 H 274.435 4.60558 2.02226 0
M  V30 2985 H 274.135 5.82661 0.760239 0
M  V30 2986 H 275.659 5.86695 1.69179 0
M  V30 2987 H 277.073 5.70421 -0.573805 0
M  V30 2988 H 275.47 5.8467 -1.35205 0
M  V30 2989 H 276.54 4.50443 -1.79524 0
M  V30 2990 N 277.883 0.443576 1.51229 0
M  V30 2991 C 278.846 -0.353132 2.26463 0
M  V30 2992 C 279.846 -0.944338 1.3015 0
M  V30 2993 O 281.036 -0.817813 1.5381 0
M  V30 2994 C 278.168 -1.50023 3.06114 0
M  V30 2995 H 279.361 0.3063 2.98332 0
M  V30 2996 H 276.914 0.196902 1.55055 0
M  V30 2997 H 277.649 -2.19553 2.38677 0
M  V30 2998 H 277.434 -1.08241 3.76864 0
M  V30 2999 H 278.924 -2.06296 3.63087 0
M  V30 3000 N 279.361 -1.56624 0.175154 0
M  V30 3001 C 280.291 -2.21155 -0.749195 0
M  V30 3002 C 281.272 -1.16836 -1.23626 0
M  V30 3003 O 282.457 -1.45277 -1.28873 0
M  V30 3004 C 279.587 -2.8553 -1.97711 0
M  V30 3005 C 278.541 -3.95921 -1.62575 0
M  V30 3006 C 277.867 -4.47365 -2.92864 0
M  V30 3007 C 279.167 -5.15323 -0.850838 0
M  V30 3008 H 280.861 -2.98653 -0.211295 0
M  V30 3009 H 278.407 -1.43651 -0.100188 0
M  V30 3010 H 280.36 -3.2935 -2.62881 0
M  V30 3011 H 279.084 -2.05406 -2.53921 0
M  V30 3012 H 277.743 -3.52762 -0.997719 0
M  V30 3013 H 277.391 -3.64027 -3.47122 0
M  V30 3014 H 277.091 -5.21839 -2.70106 0
M  V30 3015 H 278.615 -4.93873 -3.59056 0
M  V30 3016 H 280.029 -5.55812 -1.40521 0
M  V30 3017 H 278.426 -5.95739 -0.722154 0
M  V30 3018 H 279.496 -4.84661 0.152082 0
M  V30 3019 N 280.839 0.0985539 -1.57292 0
M  V30 3020 C 282.087 0.801092 -1.85545 0
M  V30 3021 C 282.408 1.79438 -0.763353 0
M  V30 3022 O 281.678 1.94763 0.21073 0
M  V30 3023 H 280.258 0.29884 -0.684619 0
M  V30 3024 H 282.92 0.0810064 -1.94732 0
M  V30 3025 H 282.016 1.3338 -2.82163 0
M  V30 3026 N 282.317 1.53212 0.369288 0
M  V30 3027 C 283.564 1.69215 1.11232 0
M  V30 3028 C 283.892 0.442048 1.8941 0
M  V30 3029 O 283.147 -0.575944 1.87033 0
M  V30 3030 C 283.446 2.89101 2.10132 0
M  V30 3031 C 283.112 4.25758 1.48463 0
M  V30 3032 C 281.774 4.6292 1.31372 0
M  V30 3033 C 284.126 5.10757 1.03811 0
M  V30 3034 C 281.454 5.82722 0.68207 0
M  V30 3035 C 283.806 6.31201 0.420487 0
M  V30 3036 C 282.47 6.67079 0.237038 0
M  V30 3037 H 281.74 0.619201 0.407027 0
M  V30 3038 H 284.387 1.87391 0.394552 0
M  V30 3039 H 282.692 2.65421 2.88199 0
M  V30 3040 H 284.389 2.98676 2.6757 0
M  V30 3041 H 280.979 3.96494 1.62758 0
M  V30 3042 H 285.163 4.82599 1.1581 0
M  V30 3043 H 280.419 6.09113 0.528316 0
M  V30 3044 H 284.593 6.96368 0.0662874 0
M  V30 3045 H 282.22 7.59774 -0.254477 0
M  V30 3046 N 283.795 -0.628877 1.44509 0
M  V30 3047 C 285.025 -1.41349 1.50678 0
M  V30 3048 C 285.433 -1.88745 0.131075 0
M  V30 3049 O 284.776 -1.61592 -0.87371 0
M  V30 3050 C 284.838 -2.66608 2.41165 0
M  V30 3051 C 284.502 -2.40993 3.88293 0
M  V30 3052 C 285.499 -2.0268 4.78766 0
M  V30 3053 C 283.184 -2.54563 4.33016 0
M  V30 3054 C 285.178 -1.78269 6.11963 0
M  V30 3055 C 282.865 -2.29766 5.6626 0
M  V30 3056 C 283.863 -1.91678 6.55552 0
M  V30 3057 O 283.551 -1.67158 7.86329 0
M  V30 3058 H 283.283 -0.439851 0.51333 0
M  V30 3059 H 285.837 -0.776084 1.90174 0
M  V30 3060 H 284.067 -3.32994 1.96601 0
M  V30 3061 H 285.756 -3.28615 2.38259 0
M  V30 3062 H 286.522 -1.91751 4.45485 0
M  V30 3063 H 282.401 -2.83179 3.63773 0
M  V30 3064 H 285.945 -1.48465 6.81619 0
M  V30 3065 H 281.842 -2.40306 5.99102 0
M  V30 3066 H 282.61 -1.81386 7.98149 0
M  V30 3067 N 285.273 -1.31445 -0.869486 0
M  V30 3068 C 286.223 -1.15731 -1.96444 0
M  V30 3069 C 287.207 -0.0681855 -1.60755 0
M  V30 3070 O 288.399 -0.293154 -1.74555 0
M  V30 3071 C 285.528 -0.867255 -3.32165 0
M  V30 3072 C 284.614 -1.99738 -3.74119 0
M  V30 3073 N 285.005 -3.24447 -3.88031 0
M  V30 3074 C 283.303 -1.89723 -4.03635 0
M  V30 3075 C 284.004 -3.98374 -4.23879 0
M  V30 3076 N 282.98 -3.26547 -4.3459 0
M  V30 3077 H 286.782 -2.10296 -2.05312 0
M  V30 3078 H 284.296 -1.23009 -1.06031 0
M  V30 3079 H 286.293 -0.735668 -4.10358 0
M  V30 3080 H 284.953 0.0701614 -3.24624 0
M  V30 3081 H 285.964 -3.59557 -3.72746 0
M  V30 3082 H 282.641 -1.03449 -4.04481 0
M  V30 3083 H 284.031 -5.05844 -4.42235 0
M  V30 3084 N 286.751 1.08385 -1.14413 0
M  V30 3085 C 287.698 2.15311 -0.831265 0
M  V30 3086 C 288.668 1.64751 0.211292 0
M  V30 3087 O 289.853 1.90627 0.0811674 0
M  V30 3088 C 286.993 3.43658 -0.315143 0
M  V30 3089 C 286.106 4.08064 -1.41802 0
M  V30 3090 C 285.241 5.24207 -0.859126 0
M  V30 3091 C 284.28 5.80554 -1.93967 0
M  V30 3092 N 283.417 6.88042 -1.39793 0
M  V30 3093 H 288.257 2.41415 -1.74708 0
M  V30 3094 H 285.794 1.18474 -0.871909 0
M  V30 3095 H 287.752 4.172 0.00230884 0
M  V30 3096 H 286.382 3.17839 0.56378 0
M  V30 3097 H 285.434 3.3228 -1.85187 0
M  V30 3098 H 286.746 4.45962 -2.23427 0
M  V30 3099 H 285.9 6.04689 -0.49359 0
M  V30 3100 H 284.639 4.87699 -0.011932 0
M  V30 3101 H 283.644 4.98725 -2.31415 0
M  V30 3102 H 284.869 6.19121 -2.79046 0
M  V30 3103 H 282.815 6.53493 -0.572919 0
M  V30 3104 H 282.732 7.24767 -2.15054 0
M  V30 3105 H 284 7.72255 -1.0603 0
M  V30 3106 N 288.23 0.939286 1.26551 0
M  V30 3107 C 289.16 0.465044 2.28822 0
M  V30 3108 C 290.141 -0.480692 1.63167 0
M  V30 3109 O 291.326 -0.382955 1.90387 0
M  V30 3110 C 288.456 -0.27234 3.46231 0
M  V30 3111 C 287.41 0.58666 4.2396 0
M  V30 3112 C 286.736 -0.280573 5.33963 0
M  V30 3113 C 288.036 1.85704 4.88171 0
M  V30 3114 H 289.73 1.31979 2.68741 0
M  V30 3115 H 287.276 0.636061 1.29191 0
M  V30 3116 H 289.229 -0.615133 4.16886 0
M  V30 3117 H 287.953 -1.16121 3.0526 0
M  V30 3118 H 286.612 0.91232 3.55067 0
M  V30 3119 H 286.26 -1.16874 4.89234 0
M  V30 3120 H 285.96 0.29076 5.8688 0
M  V30 3121 H 287.484 -0.618678 6.07458 0
M  V30 3122 H 288.898 1.58161 5.51052 0
M  V30 3123 H 287.295 2.37279 5.51197 0
M  V30 3124 H 288.365 2.56957 4.11219 0
M  V30 3125 N 289.708 -1.40897 0.706093 0
M  V30 3126 C 290.933 -2.05895 0.249435 0
M  V30 3127 C 291.358 -1.52823 -1.09666 0
M  V30 3128 O 290.716 -0.659589 -1.68876 0
M  V30 3129 C 290.764 -3.59872 0.22904 0
M  V30 3130 O 289.868 -4.04708 -0.792784 0
M  V30 3131 H 289.209 -0.653206 0.119241 0
M  V30 3132 H 291.739 -1.80471 0.96391 0
M  V30 3133 H 291.749 -4.07951 0.0634791 0
M  V30 3134 H 290.424 -3.97866 1.21141 0
M  V30 3135 H 289.001 -3.68111 -0.59572 0
M  V30 3136 N 291.186 -0.45159 -1.50991 0
M  V30 3137 C 292.149 0.341117 -2.26647 0
M  V30 3138 C 293.149 0.937422 -1.30649 0
M  V30 3139 O 294.339 0.809644 -1.54241 0
M  V30 3140 C 291.471 1.48398 -3.06905 0
M  V30 3141 H 292.664 -0.322117 -2.98165 0
M  V30 3142 H 290.217 -0.205122 -1.54948 0
M  V30 3143 H 290.952 2.18284 -2.39838 0
M  V30 3144 H 290.737 1.06241 -3.77432 0
M  V30 3145 H 292.227 2.04367 -3.64176 0
M  V30 3146 N 292.664 1.56529 -0.183458 0
M  V30 3147 C 293.594 2.21549 0.737456 0
M  V30 3148 C 294.575 1.17489 1.23005 0
M  V30 3149 O 295.76 1.45959 1.281 0
M  V30 3150 C 292.89 2.86575 1.96194 0
M  V30 3151 C 291.844 3.96778 1.60473 0
M  V30 3152 C 291.17 4.48911 2.90487 0
M  V30 3153 C 292.47 5.15767 0.823497 0
M  V30 3154 H 294.164 2.98761 0.195453 0
M  V30 3155 H 291.71 1.43702 0.0925686 0
M  V30 3156 H 293.663 3.30739 2.61131 0
M  V30 3157 H 292.387 2.06749 2.52828 0
M  V30 3158 H 291.046 3.53286 0.978997 0
M  V30 3159 H 290.694 3.65862 3.45186 0
M  V30 3160 H 290.394 5.23265 2.67335 0
M  V30 3161 H 291.918 4.95771 3.56432 0
M  V30 3162 H 293.332 5.56549 1.37571 0
M  V30 3163 H 291.729 5.96114 0.690551 0
M  V30 3164 H 292.799 4.84574 -0.177782 0
M  V30 3165 N 294.142 -0.090211 1.57342 0
M  V30 3166 C 295.382 -0.798365 1.88163 0
M  V30 3167 C 295.746 -1.75662 0.775046 0
M  V30 3168 O 296.947 -2.50849 0.965816 0
M  V30 3169 C 295.218 -1.50376 3.24225 0
M  V30 3170 S 296.777 -2.24952 3.76752 0
M  V30 3171 H 293.595 -0.265883 0.659414 0
M  V30 3172 H 296.197 -0.055264 1.95422 0
M  V30 3173 H 294.901 -0.792286 4.0268 0
M  V30 3174 H 294.432 -2.28666 3.20118 0
M  V30 3175 H 296.447 -3.51173 3.5056 0
M  V30 3176 N 295.62 -1.53406 -0.361157 0
M  V30 3177 C 296.845 -1.74024 -1.12829 0
M  V30 3178 C 297.27 -0.470069 -1.82132 0
M  V30 3179 O 296.628 0.57619 -1.719 0
M  V30 3180 C 296.676 -2.90903 -2.13091 0
M  V30 3181 O 295.78 -2.59821 -3.20261 0
M  V30 3182 H 295.121 -0.577804 -0.327168 0
M  V30 3183 H 297.651 -2.00307 -0.41693 0
M  V30 3184 H 297.661 -3.17194 -2.56616 0
M  V30 3185 H 296.336 -3.83034 -1.62042 0
M  V30 3186 H 294.913 -2.44362 -2.81677 0
M  V30 3187 N 297.098 0.621204 -1.44841 0
M  V30 3188 C 298.008 1.7612 -1.5498 0
M  V30 3189 C 299.024 1.68477 -0.434927 0
M  V30 3190 O 300.2 1.89076 -0.693693 0
M  V30 3191 C 297.265 3.1254 -1.50065 0
M  V30 3192 C 296.326 3.31741 -2.72482 0
M  V30 3193 C 295.559 4.61653 -2.67792 0
M  V30 3194 O 295.782 5.431 -1.74352 0
M  V30 3195 O 294.716 4.83271 -3.58794 0
M  V30 3196 H 298.542 1.70518 -2.51311 0
M  V30 3197 H 296.127 0.783643 -1.27198 0
M  V30 3198 H 298.009 3.93844 -1.49882 0
M  V30 3199 H 296.684 3.18663 -0.568806 0
M  V30 3200 H 295.591 2.50077 -2.7823 0
M  V30 3201 H 296.924 3.30486 -3.64746 0
M  V30 3202 N 298.576 1.31904 0.862503 0
M  V30 3203 C 299.824 1.21776 1.61292 0
M  V30 3204 C 300.145 -0.222413 1.93727 0
M  V30 3205 O 299.415 -1.1451 1.58947 0
M  V30 3206 H 297.995 0.447717 0.597962 0
M  V30 3207 H 300.657 1.65326 1.03215 0
M  V30 3208 H 299.753 1.7948 2.5533 0
M  V30 3209 N 300.054 -1.07777 1.14986 0
M  V30 3210 C 301.017 -2.13041 0.845358 0
M  V30 3211 C 302.017 -1.60071 -0.152931 0
M  V30 3212 O 303.207 -1.74033 0.0761879 0
M  V30 3213 C 300.339 -3.39896 0.261383 0
M  V30 3214 H 301.532 -2.41485 1.77834 0
M  V30 3215 H 299.085 -1.23595 0.956757 0
M  V30 3216 H 299.82 -3.17091 -0.68 0
M  V30 3217 H 299.605 -3.79642 0.980514 0
M  V30 3218 H 301.095 -4.17548 0.0657687 0
M  V30 3219 N 301.532 -0.945985 -1.26051 0
M  V30 3220 C 302.482 -0.430164 -2.23905 0
M  V30 3221 C 303.466 0.47579 -1.53704 0
M  V30 3222 O 304.658 0.310252 -1.7426 0
M  V30 3223 C 301.787 0.298957 -3.41996 0
M  V30 3224 C 300.873 -0.624566 -4.19476 0
M  V30 3225 N 301.264 -1.75245 -4.74471 0
M  V30 3226 C 299.562 -0.431082 -4.43912 0
M  V30 3227 C 300.263 -2.32834 -5.3307 0
M  V30 3228 N 299.239 -1.61583 -5.1903 0
M  V30 3229 H 303.041 -1.29107 -2.64024 0
M  V30 3230 H 300.555 -0.802428 -1.41191 0
M  V30 3231 H 302.552 0.685565 -4.11225 0
M  V30 3232 H 301.212 1.15657 -3.03403 0
M  V30 3233 H 302.223 -2.13449 -4.71868 0
M  V30 3234 H 298.9 0.384364 -4.15727 0
M  V30 3235 H 300.29 -3.27893 -5.86461 0
M  V30 3236 N 303.011 1.40521 -0.713556 0
M  V30 3237 C 304.288 1.94775 -0.17943 0
M  V30 3238 C 304.668 1.65184 1.31444 0
M  V30 3239 O 304.016 0.968429 2.06963 0
M  V30 3240 C 304.226 3.45543 -0.489986 0
M  V30 3241 C 305.574 4.22442 -0.427536 0
M  V30 3242 O 306.598 3.53644 -0.425929 0
M  V30 3243 O 305.457 5.4501 -0.403292 0
M  V30 3244 H 302.551 0.826606 -0.0255192 0
M  V30 3245 H 305.097 1.5014 -0.790949 0
M  V30 3246 H 303.869 3.60432 -1.5233 0
M  V30 3247 H 303.492 3.97311 0.151598 0
M  V30 3248 N 304.489 0.459591 1.5075 0
M  V30 3249 C 305.421 -0.37665 2.26084 0
M  V30 3250 C 306.434 -0.967109 1.30961 0
M  V30 3251 O 307.623 -0.857468 1.56556 0
M  V30 3252 C 304.723 -1.54112 3.01832 0
M  V30 3253 C 303.896 -1.06553 4.24223 0
M  V30 3254 C 302.955 -2.1027 4.82362 0
M  V30 3255 O 301.981 -1.68798 5.43595 0
M  V30 3256 N 303.183 -3.42974 4.68347 0
M  V30 3257 H 305.948 0.269124 2.98489 0
M  V30 3258 H 303.509 0.28972 1.59287 0
M  V30 3259 H 305.501 -2.23165 3.37608 0
M  V30 3260 H 304.071 -2.0918 2.32298 0
M  V30 3261 H 303.291 -0.201274 3.93686 0
M  V30 3262 H 304.579 -0.725516 5.03601 0
M  V30 3263 H 303.977 -3.79385 4.19623 0
M  V30 3264 H 302.534 -4.07858 5.08424 0
M  V30 3265 N 305.967 -1.56429 0.191757 0
M  V30 3266 C 307.213 -1.97777 -0.448554 0
M  V30 3267 C 307.546 -1.07847 -1.61501 0
M  V30 3268 O 306.821 -0.129774 -1.94067 0
M  V30 3269 C 307.104 -3.48362 -0.911906 0
M  V30 3270 C 306.957 -4.4907 0.256136 0
M  V30 3271 C 308.276 -4.02561 -1.77857 0
M  V30 3272 H 305.395 -0.719071 -0.161572 0
M  V30 3273 H 308.037 -1.87896 0.282007 0
M  V30 3274 H 306.187 -3.56914 -1.53442 0
M  V30 3275 H 307.859 -4.5256 0.893733 0
M  V30 3276 H 306.102 -4.24181 0.908436 0
M  V30 3277 H 306.773 -5.51889 -0.11053 0
M  V30 3278 H 309.249 -3.96767 -1.25359 0
M  V30 3279 H 308.125 -5.08301 -2.07174 0
M  V30 3280 H 308.386 -3.47616 -2.73158 0
M  V30 3281 N 307.445 0.0818655 -1.57387 0
M  V30 3282 C 308.675 0.794954 -1.90694 0
M  V30 3283 C 309.083 1.72147 -0.784982 0
M  V30 3284 O 308.426 1.81974 0.251196 0
M  V30 3285 C 308.488 1.65042 -3.19376 0
M  V30 3286 C 308.152 0.894337 -4.48164 0
M  V30 3287 C 309.149 0.21813 -5.19442 0
M  V30 3288 C 306.834 0.864495 -4.94805 0
M  V30 3289 C 308.828 -0.477802 -6.35607 0
M  V30 3290 C 306.515 0.164785 -6.10878 0
M  V30 3291 C 307.513 -0.505173 -6.81129 0
M  V30 3292 O 307.201 -1.19363 -7.94989 0
M  V30 3293 H 306.933 0.231779 -0.635023 0
M  V30 3294 H 309.487 0.059493 -2.05314 0
M  V30 3295 H 307.717 2.42844 -3.00938 0
M  V30 3296 H 309.406 2.24127 -3.38411 0
M  V30 3297 H 310.172 0.232558 -4.84442 0
M  V30 3298 H 306.051 1.37542 -4.40004 0
M  V30 3299 H 309.595 -1.00129 -6.90377 0
M  V30 3300 H 305.492 0.148249 -6.4533 0
M  V30 3301 H 306.26 -1.10188 -8.11049 0
M  V30 3302 N 308.923 1.53595 0.353017 0
M  V30 3303 C 309.833 1.83897 1.45667 0
M  V30 3304 C 310.849 0.728334 1.58023 0
M  V30 3305 O 312.025 1.01968 1.73679 0
M  V30 3306 C 309.09 2.03383 2.80778 0
M  V30 3307 C 308.151 3.27262 2.77845 0
M  V30 3308 C 307.384 3.45809 4.06512 0
M  V30 3309 O 307.607 2.68387 5.03314 0
M  V30 3310 O 306.541 4.39207 4.11559 0
M  V30 3311 H 310.367 2.77686 1.2298 0
M  V30 3312 H 307.952 1.39132 0.544308 0
M  V30 3313 H 309.834 2.17698 3.60812 0
M  V30 3314 H 308.509 1.12783 3.03417 0
M  V30 3315 H 307.416 3.18359 1.96465 0
M  V30 3316 H 308.749 4.17824 2.60161 0
M  V30 3317 N 310.401 -0.613514 1.45168 0
M  V30 3318 C 311.629 -1.39946 1.5239 0
M  V30 3319 C 312.044 -1.88167 0.154531 0
M  V30 3320 O 311.401 -1.61872 -0.842843 0
M  V30 3321 C 311.452 -2.60795 2.50337 0
M  V30 3322 O 311.173 -2.1458 3.81952 0
M  V30 3323 C 312.674 -3.53723 2.67198 0
M  V30 3324 H 309.894 -0.428593 0.516284 0
M  V30 3325 H 312.438 -0.748753 1.903 0
M  V30 3326 H 310.593 -3.21919 2.15515 0
M  V30 3327 H 311.007 -2.93055 4.34993 0
M  V30 3328 H 312.481 -4.35079 3.39721 0
M  V30 3329 H 312.958 -4.0368 1.73029 0
M  V30 3330 H 313.564 -2.98456 3.02992 0
M  V30 3331 N 311.879 -1.3236 -0.855495 0
M  V30 3332 C 313.125 -1.23054 -1.612 0
M  V30 3333 C 313.458 0.207404 -1.93089 0
M  V30 3334 O 312.733 1.14432 -1.57275 0
M  V30 3335 C 313.016 -2.08937 -2.93287 0
M  V30 3336 C 312.869 -3.61105 -2.68185 0
M  V30 3337 C 314.188 -1.94986 -3.94549 0
M  V30 3338 H 311.307 -0.448364 -0.584926 0
M  V30 3339 H 313.949 -1.62297 -0.987917 0
M  V30 3340 H 312.099 -1.75599 -3.46551 0
M  V30 3341 H 313.771 -4.04652 -2.21483 0
M  V30 3342 H 312.014 -3.83813 -2.02164 0
M  V30 3343 H 312.685 -4.16522 -3.62234 0
M  V30 3344 H 315.161 -2.24189 -3.5054 0
M  V30 3345 H 314.037 -2.57356 -4.84829 0
M  V30 3346 H 314.298 -0.917263 -4.3248 0
M  V30 3347 N 313.357 1.07166 -1.15556 0
M  V30 3348 C 314.773 1.31899 -0.898603 0
M  V30 3349 C 314.973 1.96333 0.453383 0
M  V30 3350 O 314.029 2.22438 1.19489 0
M  V30 3351 C 315.342 2.20826 -2.04099 0
M  V30 3352 C 316.89 2.34269 -2.07574 0
M  V30 3353 C 317.365 3.26546 -3.21141 0
M  V30 3354 N 318.856 3.34127 -3.20801 0
M  V30 3355 C 319.591 4.05595 -4.05315 0
M  V30 3356 N 319.087 4.79661 -4.99897 0
M  V30 3357 N 320.88 4.01555 -3.93332 0
M  V30 3358 H 313.031 0.637302 -2.02613 0
M  V30 3359 H 315.294 0.343468 -0.883591 0
M  V30 3360 H 315 1.80744 -3.01703 0
M  V30 3361 H 314.874 3.21364 -1.97496 0
M  V30 3362 H 317.261 2.73603 -1.10568 0
M  V30 3363 H 317.342 1.33429 -2.18244 0
M  V30 3364 H 316.986 2.87931 -4.184 0
M  V30 3365 H 316.916 4.27345 -3.07708 0
M  V30 3366 H 319.407 2.81336 -2.52306 0
M  V30 3367 H 319.72 5.31694 -5.60822 0
M  V30 3368 H 318.065 4.78671 -5.03884 0
M  V30 3369 H 321.256 3.42806 -3.18751 0
M  V30 3370 H 321.429 4.56987 -4.5942 0
M  V30 3371 N 314.835 0.952656 1.25548 0
M  V30 3372 C 316.251 0.656769 1.4546 0
M  V30 3373 C 316.451 -0.78633 1.85524 0
M  V30 3374 O 315.507 -1.56183 1.98402 0
M  V30 3375 C 316.82 1.62801 2.52817 0
M  V30 3376 C 318.368 1.63897 2.66659 0
M  V30 3377 C 318.843 2.5978 3.77198 0
M  V30 3378 N 320.334 2.58133 3.84606 0
M  V30 3379 C 321.069 3.29003 4.69621 0
M  V30 3380 N 320.565 4.09339 5.58939 0
M  V30 3381 N 322.358 3.179 4.63569 0
M  V30 3382 H 314.509 1.88526 0.978344 0
M  V30 3383 H 316.772 0.810815 0.491206 0
M  V30 3384 H 316.478 2.65869 2.30232 0
M  V30 3385 H 316.352 1.38898 3.50695 0
M  V30 3386 H 318.739 0.615481 2.8861 0
M  V30 3387 H 318.82 1.91858 1.69187 0
M  V30 3388 H 318.464 3.62254 3.55997 0
M  V30 3389 H 318.394 2.29105 4.7415 0
M  V30 3390 H 320.885 1.99809 3.20757 0
M  V30 3391 H 321.198 4.6034 6.20731 0
M  V30 3392 H 319.543 4.13438 5.58654 0
M  V30 3393 H 322.734 2.54612 3.92798 0
M  V30 3394 H 322.907 3.73398 5.29602 0
M  V30 3395 N 316.313 -1.40141 0.720998 0
M  V30 3396 C 317.543 -2.04798 0.27226 0
M  V30 3397 C 317.951 -1.54442 -1.09289 0
M  V30 3398 O 317.294 -0.698342 -1.69908 0
M  V30 3399 C 317.356 -3.59048 0.18027 0
M  V30 3400 C 317.02 -4.32317 1.48159 0
M  V30 3401 C 318.017 -4.59902 2.42458 0
M  V30 3402 C 315.702 -4.71125 1.74202 0
M  V30 3403 C 317.696 -5.25288 3.61042 0
M  V30 3404 C 315.383 -5.36242 2.93066 0
M  V30 3405 C 316.381 -5.63254 3.86308 0
M  V30 3406 O 316.069 -6.27024 5.03086 0
M  V30 3407 H 315.801 -0.665419 0.119139 0
M  V30 3408 H 318.355 -1.80436 0.981432 0
M  V30 3409 H 316.585 -3.82251 -0.58489 0
M  V30 3410 H 318.274 -4.05221 -0.234618 0
M  V30 3411 H 319.04 -4.30379 2.23604 0
M  V30 3412 H 314.919 -4.49466 1.02477 0
M  V30 3413 H 318.463 -5.46289 4.33837 0
M  V30 3414 H 314.36 -5.65185 3.11826 0
M  V30 3415 H 315.128 -6.4552 5.03235 0
M  V30 3416 N 317.792 -0.46758 -1.50504 0
M  V30 3417 C 319.04 0.0884469 -2.01906 0
M  V30 3418 C 319.361 1.40532 -1.35188 0
M  V30 3419 O 318.631 1.89515 -0.496079 0
M  V30 3420 H 317.211 0.0356765 -0.746148 0
M  V30 3421 H 319.873 -0.6172 -1.84869 0
M  V30 3422 H 318.969 0.2425 -3.11156 0
M  V30 3423 N 319.27 1.56325 -0.20005 0
M  V30 3424 C 320.22 2.15939 0.731743 0
M  V30 3425 C 321.204 1.10154 1.17281 0
M  V30 3426 O 322.396 1.36203 1.13038 0
M  V30 3427 C 319.525 2.82614 1.94895 0
M  V30 3428 C 318.611 3.95596 1.52855 0
M  V30 3429 N 319.002 4.99118 0.819418 0
M  V30 3430 C 317.3 4.07288 1.81748 0
M  V30 3431 C 318.001 5.78513 0.608053 0
M  V30 3432 N 316.977 5.31117 1.15828 0
M  V30 3433 H 320.779 2.9334 0.181285 0
M  V30 3434 H 318.293 1.624 -0.000452172 0
M  V30 3435 H 320.29 3.23718 2.62702 0
M  V30 3436 H 318.95 2.06702 2.50408 0
M  V30 3437 H 319.961 5.15723 0.47436 0
M  V30 3438 H 316.638 3.42509 2.38734 0
M  V30 3439 H 318.028 6.71885 0.0451619 0
M  V30 3440 N 320.748 -0.0735177 1.57428 0
M  V30 3441 C 321.658 -1.10547 2.06922 0
M  V30 3442 C 322.674 -1.42506 0.998402 0
M  V30 3443 O 323.85 -1.52717 1.31299 0
M  V30 3444 C 320.915 -2.40019 2.50184 0
M  V30 3445 C 319.976 -2.15046 3.71556 0
M  V30 3446 C 319.209 -3.38345 4.12745 0
M  V30 3447 O 319.432 -4.47399 3.53822 0
M  V30 3448 O 318.366 -3.2666 5.05546 0
M  V30 3449 H 322.192 -0.715013 2.95163 0
M  V30 3450 H 319.777 -0.287531 1.46607 0
M  V30 3451 H 321.659 -3.16218 2.78539 0
M  V30 3452 H 320.334 -2.78447 1.65072 0
M  V30 3453 H 319.241 -1.36558 3.48285 0
M  V30 3454 H 320.574 -1.81499 4.57514 0
M  V30 3455 N 322.226 -1.5378 -0.344866 0
M  V30 3456 C 323.451 -1.75211 -1.10977 0
M  V30 3457 C 323.876 -0.48936 -1.81623 0
M  V30 3458 O 323.234 0.557925 -1.72502 0
M  V30 3459 C 323.282 -2.93147 -2.09993 0
M  V30 3460 O 322.386 -2.63203 -3.17487 0
M  V30 3461 H 321.727 -0.581241 -0.321021 0
M  V30 3462 H 324.257 -2.00738 -0.395661 0
M  V30 3463 H 324.267 -3.19898 -2.53237 0
M  V30 3464 H 322.942 -3.84731 -1.5797 0
M  V30 3465 H 321.519 -2.47336 -2.79069 0
M  V30 3466 N 323.704 0.605807 -1.45491 0
M  V30 3467 C 324.952 1.36207 -1.49305 0
M  V30 3468 C 325.273 1.94519 -0.136863 0
M  V30 3469 O 324.543 1.77261 0.833983 0
M  V30 3470 H 323.123 0.50565 -0.549843 0
M  V30 3471 H 325.785 0.711239 -1.81459 0
M  V30 3472 H 324.881 2.18058 -2.23287 0
M  V30 3473 N 325.182 1.32811 0.848464 0
M  V30 3474 C 326.092 1.24278 1.98978 0
M  V30 3475 C 327.108 0.155176 1.73307 0
M  V30 3476 O 328.284 0.376999 1.9784 0
M  V30 3477 C 325.349 0.972444 3.32783 0
M  V30 3478 C 324.41 2.14911 3.71634 0
M  V30 3479 C 323.643 1.89157 4.99054 0
M  V30 3480 O 323.866 0.837165 5.64223 0
M  V30 3481 O 322.8 2.75433 5.35183 0
M  V30 3482 H 326.626 2.20238 2.09115 0
M  V30 3483 H 324.211 1.12762 0.980052 0
M  V30 3484 H 326.093 0.838432 4.12975 0
M  V30 3485 H 324.768 0.043051 3.23671 0
M  V30 3486 H 323.675 2.33862 2.91992 0
M  V30 3487 H 325.008 3.06151 3.85399 0
M  V30 3488 N 326.66 -1.06551 1.16123 0
M  V30 3489 C 327.909 -1.78687 0.935622 0
M  V30 3490 C 328.222 -1.88056 -0.538001 0
M  V30 3491 O 329.428 -2.56794 -0.88143 0
M  V30 3492 C 327.884 -3.21143 1.62466 0
M  V30 3493 C 327.492 -3.19949 3.13587 0
M  V30 3494 C 329.236 -3.9783 1.48092 0
M  V30 3495 C 327.143 -4.57108 3.75241 0
M  V30 3496 H 326.073 -0.669712 0.346412 0
M  V30 3497 H 328.724 -1.19534 1.39226 0
M  V30 3498 H 327.106 -3.80539 1.09572 0
M  V30 3499 H 328.28 -2.70151 3.73303 0
M  V30 3500 H 326.595 -2.5676 3.27816 0
M  V30 3501 H 329.192 -4.99217 1.91538 0
M  V30 3502 H 329.535 -4.14078 0.429507 0
M  V30 3503 H 330.068 -3.4495 1.98127 0
M  V30 3504 H 326.807 -4.46065 4.80319 0
M  V30 3505 H 326.327 -5.07111 3.20309 0
M  V30 3506 H 328.006 -5.26069 3.76644 0
M  V30 3507 N 328.138 -0.959301 -1.25041 0
M  V30 3508 C 329.384 -0.627096 -1.93492 0
M  V30 3509 C 329.739 0.827484 -1.73696 0
M  V30 3510 O 329.032 1.58651 -1.07427 0
M  V30 3511 C 329.226 -0.927136 -3.45165 0
M  V30 3512 C 329.055 -2.40933 -3.79712 0
M  V30 3513 C 327.825 -3.0677 -4.01522 0
M  V30 3514 C 330.023 -3.38894 -3.86853 0
M  V30 3515 N 328.005 -4.44815 -4.231 0
M  V30 3516 C 329.376 -4.62263 -4.13174 0
M  V30 3517 C 331.431 -3.33668 -3.69554 0
M  V30 3518 C 330.134 -5.81052 -4.23995 0
M  V30 3519 C 332.16 -4.518 -3.81616 0
M  V30 3520 C 331.522 -5.73957 -4.08354 0
M  V30 3521 H 327.621 -0.280166 -0.73009 0
M  V30 3522 H 330.205 -1.23244 -1.50729 0
M  V30 3523 H 328.376 -0.350685 -3.86814 0
M  V30 3524 H 330.108 -0.554361 -4.00885 0
M  V30 3525 H 326.863 -2.57327 -3.97593 0
M  V30 3526 H 327.287 -5.16319 -4.37885 0
M  V30 3527 H 331.929 -2.40268 -3.47895 0
M  V30 3528 H 329.647 -6.74888 -4.44468 0
M  V30 3529 H 333.233 -4.49309 -3.69612 0
M  V30 3530 H 332.113 -6.6384 -4.17475 0
M  V30 3531 N 329.616 1.39756 -0.72842 0
M  V30 3532 C 330.566 2.2792 -0.0603424 0
M  V30 3533 C 331.55 1.43922 0.719399 0
M  V30 3534 O 332.742 1.66895 0.589489 0
M  V30 3535 C 329.871 3.32582 0.851104 0
M  V30 3536 C 328.957 4.24049 0.0658641 0
M  V30 3537 N 329.348 4.96653 -0.957578 0
M  V30 3538 C 327.646 4.45013 0.296509 0
M  V30 3539 C 328.347 5.63836 -1.43052 0
M  V30 3540 N 327.323 5.38397 -0.750315 0
M  V30 3541 H 331.125 2.81504 -0.84455 0
M  V30 3542 H 328.639 1.5236 -0.562155 0
M  V30 3543 H 330.636 3.94603 1.34514 0
M  V30 3544 H 329.296 2.80558 1.63454 0
M  V30 3545 H 330.307 5.00297 -1.33877 0
M  V30 3546 H 326.984 4.03943 1.05527 0
M  V30 3547 H 328.374 6.31974 -2.28163 0
M  V30 3548 N 331.094 0.475555 1.50254 0
M  V30 3549 C 332.51 0.12997 1.5907 0
M  V30 3550 C 332.71 -1.36385 1.48328 0
M  V30 3551 O 331.766 -2.13754 1.34407 0
M  V30 3552 C 333.079 0.684139 2.92814 0
M  V30 3553 C 334.627 0.647965 3.0622 0
M  V30 3554 C 335.102 1.17975 4.42545 0
M  V30 3555 N 336.593 1.13936 4.48969 0
M  V30 3556 C 337.328 1.52129 5.52851 0
M  V30 3557 N 336.824 1.97793 6.63965 0
M  V30 3558 N 338.617 1.43704 5.4342 0
M  V30 3559 H 330.768 1.44706 1.55479 0
M  V30 3560 H 333.031 0.598691 0.735033 0
M  V30 3561 H 332.737 1.73079 3.06164 0
M  V30 3562 H 332.611 0.130204 3.76975 0
M  V30 3563 H 334.998 -0.38979 2.92514 0
M  V30 3564 H 335.079 1.23876 2.23805 0
M  V30 3565 H 334.723 2.21616 4.57 0
M  V30 3566 H 334.653 0.565138 5.23559 0
M  V30 3567 H 337.144 0.804488 3.69238 0
M  V30 3568 H 337.457 2.25072 7.39299 0
M  V30 3569 H 335.802 2.01749 6.65073 0
M  V30 3570 H 338.993 1.07867 4.55502 0
M  V30 3571 H 339.166 1.73794 6.24259 0
M  V30 3572 N 332.573 -1.56217 0.208337 0
M  V30 3573 C 333.506 -2.15633 -0.746842 0
M  V30 3574 C 334.484 -1.09685 -1.20034 0
M  V30 3575 O 335.668 -1.3787 -1.28547 0
M  V30 3576 C 332.795 -2.72594 -2.01023 0
M  V30 3577 C 331.841 -3.91251 -1.69779 0
M  V30 3578 S 332.674 -5.28962 -0.834209 0
M  V30 3579 C 333.83 -5.89353 -2.10745 0
M  V30 3580 H 334.063 -2.96315 -0.241789 0
M  V30 3581 H 331.596 -1.54398 -0.00682183 0
M  V30 3582 H 333.554 -3.06053 -2.73572 0
M  V30 3583 H 332.215 -1.91929 -2.48641 0
M  V30 3584 H 331.408 -4.29562 -2.63614 0
M  V30 3585 H 331.01 -3.58869 -1.05303 0
M  V30 3586 H 333.302 -6.04522 -3.05875 0
M  V30 3587 H 334.245 -6.85661 -1.76845 0
M  V30 3588 H 334.653 -5.1807 -2.24196 0
M  V30 3589 N 334.051 0.0651679 -1.57465 0
M  V30 3590 C 334.983 1.10359 -2.00882 0
M  V30 3591 C 335.996 1.346 -0.915788 0
M  V30 3592 O 337.185 1.32723 -1.1936 0
M  V30 3593 C 334.285 2.45312 -2.33828 0
M  V30 3594 C 333.458 2.40934 -3.65061 0
M  V30 3595 C 332.517 3.58047 -3.85602 0
M  V30 3596 O 331.543 3.39175 -4.57109 0
M  V30 3597 N 332.745 4.78637 -3.28462 0
M  V30 3598 H 335.51 0.733807 -2.90578 0
M  V30 3599 H 333.071 0.253719 -1.599 0
M  V30 3600 H 335.063 3.22314 -2.44737 0
M  V30 3601 H 333.633 2.74267 -1.49988 0
M  V30 3602 H 332.853 1.49273 -3.64844 0
M  V30 3603 H 334.141 2.35117 -4.51218 0
M  V30 3604 H 333.539 4.96872 -2.70433 0
M  V30 3605 H 332.096 5.53127 -3.44809 0
M  V30 3606 N 335.529 1.53961 0.336706 0
M  V30 3607 C 336.476 1.82428 1.41381 0
M  V30 3608 C 337.446 0.670444 1.51968 0
M  V30 3609 O 338.631 0.915565 1.67398 0
M  V30 3610 C 335.771 2.04564 2.77934 0
M  V30 3611 C 334.884 3.32267 2.76084 0
M  V30 3612 C 334.019 3.44434 4.04399 0
M  V30 3613 C 333.058 4.66061 3.96804 0
M  V30 3614 N 332.195 4.75224 5.16823 0
M  V30 3615 H 337.035 2.74324 1.16405 0
M  V30 3616 H 334.572 1.35869 0.563752 0
M  V30 3617 H 336.53 2.15388 3.57301 0
M  V30 3618 H 335.16 1.15974 3.01247 0
M  V30 3619 H 334.212 3.3025 1.88784 0
M  V30 3620 H 335.524 4.21733 2.66351 0
M  V30 3621 H 334.678 3.54728 4.92192 0
M  V30 3622 H 333.417 2.53037 4.16921 0
M  V30 3623 H 332.422 4.55838 3.07396 0
M  V30 3624 H 333.647 5.58829 3.85858 0
M  V30 3625 H 331.593 3.86739 5.29876 0
M  V30 3626 H 331.51 5.58636 5.09374 0
M  V30 3627 H 332.778 4.89835 6.06367 0
M  V30 3628 N 337.007 -0.598083 1.45811 0
M  V30 3629 C 337.955 -1.72932 1.55555 0
M  V30 3630 C 338.949 -1.63984 0.424921 0
M  V30 3631 O 340.155 -1.69663 0.601205 0
M  V30 3632 H 336.53 -0.571489 0.488779 0
M  V30 3633 H 338.501 -1.61842 2.50699 0
M  V30 3634 C 337.25 -3.11318 1.54843 0
M  V30 3635 H 336.573 -3.18867 2.41172 0
M  V30 3636 H 338.013 -3.90274 1.65717 0
M  V30 3637 C 336.472 -3.3578 0.274427 0
M  V30 3638 O 337.002 -3.9654 -0.641778 0
M  V30 3639 N 335.208 -2.90119 0.167139 0
M  V30 3640 H 334.755 -2.40855 0.913596 0
M  V30 3641 H 334.713 -3.0686 -0.684435 0
M  V30 3642 N 338.485 -1.33259 -0.841409 0
M  V30 3643 C 339.415 -1.25926 -1.96634 0
M  V30 3644 C 340.396 -0.140349 -1.6952 0
M  V30 3645 O 341.581 -0.329707 -1.91381 0
M  V30 3646 C 338.711 -0.99512 -3.32738 0
M  V30 3647 C 337.665 -2.0767 -3.74242 0
M  V30 3648 C 336.991 -1.66474 -5.08125 0
M  V30 3649 C 338.291 -3.49318 -3.88297 0
M  V30 3650 H 339.985 -2.20046 -2.03027 0
M  V30 3651 H 337.531 -1.05931 -0.975425 0
M  V30 3652 H 339.484 -0.930323 -4.11002 0
M  V30 3653 H 338.208 -0.0183004 -3.26595 0
M  V30 3654 H 336.867 -2.13187 -2.98239 0
M  V30 3655 H 336.515 -0.675012 -4.9845 0
M  V30 3656 H 336.215 -2.3885 -5.36865 0
M  V30 3657 H 337.739 -1.61455 -5.88867 0
M  V30 3658 H 339.153 -3.46316 -4.56879 0
M  V30 3659 H 337.55 -4.20158 -4.28471 0
M  V30 3660 H 338.62 -3.8801 -2.9082 0
M  V30 3661 N 339.963 1.05934 -1.16686 0
M  V30 3662 C 341.374 1.60263 -0.957745 0
M  V30 3663 C 341.725 1.89789 0.49745 0
M  V30 3664 O 340.85 1.67401 1.37135 0
M  V30 3665 C 341.445 2.91172 -1.73218 0
M  V30 3666 C 340.004 3.42188 -1.56794 0
M  V30 3667 C 339.151 2.16028 -1.73859 0
M  V30 3668 H 342.102 0.888392 -1.31504 0
M  V30 3669 H 342.123 3.60744 -1.21014 0
M  V30 3670 H 341.635 2.6965 -2.79124 0
M  V30 3671 H 339.736 3.68762 -0.533437 0
M  V30 3672 H 339.849 4.17273 -2.35414 0
M  V30 3673 H 338.213 2.26426 -1.16633 0
M  V30 3674 H 338.996 1.96985 -2.81161 0
M  V30 3675 N 341.441 0.965919 1.2453 0
M  V30 3676 C 342.689 0.625593 1.92174 0
M  V30 3677 C 343.01 -0.841652 1.75901 0
M  V30 3678 O 342.28 -1.60061 1.12948 0
M  V30 3679 H 340.86 0.228388 0.71123 0
M  V30 3680 H 343.522 1.2266 1.51461 0
M  V30 3681 H 342.618 0.864653 2.99884 0
M  V30 3682 N 342.919 -1.39368 0.735821 0
M  V30 3683 C 344.196 -1.94465 0.210395 0
M  V30 3684 C 344.576 -1.67254 -1.28799 0
M  V30 3685 O 343.924 -1.00123 -2.05396 0
M  V30 3686 C 344.134 -3.4472 0.544897 0
M  V30 3687 C 345.482 -4.21708 0.494689 0
M  V30 3688 O 346.506 -3.52922 0.482136 0
M  V30 3689 O 345.365 -5.44299 0.489947 0
M  V30 3690 H 342.459 -0.826096 0.0386666 0
M  V30 3691 H 345.005 -1.48863 0.814735 0
M  V30 3692 H 343.777 -3.57963 1.58045 0
M  V30 3693 H 343.4 -3.97502 -0.08837 0
M  V30 3694 N 344.397 -0.483516 -1.5 0
M  V30 3695 C 345.327 0.293829 -2.31644 0
M  V30 3696 C 346.308 0.978864 -1.39112 0
M  V30 3697 O 347.493 0.973644 -1.68029 0
M  V30 3698 C 344.623 1.36897 -3.19181 0
M  V30 3699 C 343.577 0.804833 -4.20365 0
M  V30 3700 C 342.903 1.9792 -4.96721 0
M  V30 3701 C 344.203 -0.192313 -5.21946 0
M  V30 3702 H 345.897 -0.387616 -2.9688 0
M  V30 3703 H 343.443 -0.187856 -1.42769 0
M  V30 3704 H 345.396 1.92037 -3.751 0
M  V30 3705 H 344.12 2.07936 -2.51853 0
M  V30 3706 H 342.779 0.275319 -3.65565 0
M  V30 3707 H 342.427 2.67686 -4.25856 0
M  V30 3708 H 342.127 1.60789 -5.65173 0
M  V30 3709 H 343.651 2.53526 -5.55479 0
M  V30 3710 H 345.065 0.270333 -5.72662 0
M  V30 3711 H 343.462 -0.478543 -5.98189 0
M  V30 3712 H 344.532 -1.11409 -4.71928 0
M  V30 3713 N 345.875 1.56104 -0.216619 0
M  V30 3714 C 346.838 2.18819 0.681962 0
M  V30 3715 C 347.838 1.14866 1.12528 0
M  V30 3716 O 349.028 1.40128 1.03488 0
M  V30 3717 C 346.16 2.80756 1.93362 0
M  V30 3718 H 347.353 2.99595 0.135254 0
M  V30 3719 H 344.906 1.56265 0.0330003 0
M  V30 3720 H 345.641 2.03837 2.52232 0
M  V30 3721 H 345.426 3.56876 1.62426 0
M  V30 3722 H 346.916 3.28844 2.57393 0
M  V30 3723 N 347.353 -0.0568162 1.57498 0
M  V30 3724 C 348.602 -0.752001 1.87157 0
M  V30 3725 C 348.915 -1.77978 0.811375 0
M  V30 3726 O 350.121 -2.52559 0.996293 0
M  V30 3727 C 348.577 -1.38844 3.3204 0
M  V30 3728 C 348.185 -0.398456 4.46225 0
M  V30 3729 C 349.929 -2.06512 3.70882 0
M  V30 3730 C 347.836 -1.04166 5.82154 0
M  V30 3731 H 346.766 -0.28461 0.698222 0
M  V30 3732 H 349.417 -0.00561272 1.83499 0
M  V30 3733 H 347.799 -2.1836 3.30356 0
M  V30 3734 H 348.973 0.367977 4.59328 0
M  V30 3735 H 347.288 0.174592 4.16034 0
M  V30 3736 H 349.885 -2.55437 4.6974 0
M  V30 3737 H 350.228 -2.87117 3.01445 0
M  V30 3738 H 350.761 -1.33808 3.7462 0
M  V30 3739 H 347.5 -0.275614 6.5492 0
M  V30 3740 H 347.02 -1.7786 5.72823 0
M  V30 3741 H 348.699 -1.55715 6.27982 0
M  V30 3742 N 348.832 -1.54138 -0.328536 0
M  V30 3743 C 349.764 -1.79509 -1.4251 0
M  V30 3744 C 350.777 -0.67688 -1.48061 0
M  V30 3745 O 351.966 -0.953898 -1.50874 0
M  V30 3746 C 349.066 -1.89337 -2.81078 0
M  V30 3747 C 348.239 -3.19443 -2.98789 0
M  V30 3748 C 347.298 -3.20036 -4.17688 0
M  V30 3749 O 346.324 -3.93697 -4.11086 0
M  V30 3750 N 347.526 -2.43467 -5.26976 0
M  V30 3751 H 350.291 -2.74139 -1.21111 0
M  V30 3752 H 347.852 -1.53373 -0.518499 0
M  V30 3753 H 349.844 -1.87167 -3.58818 0
M  V30 3754 H 348.414 -1.01826 -2.95551 0
M  V30 3755 H 347.634 -3.34614 -2.08391 0
M  V30 3756 H 348.922 -4.05354 -3.07515 0
M  V30 3757 H 348.32 -1.83201 -5.35214 0
M  V30 3758 H 346.877 -2.4708 -6.03154 0
M  V30 3759 N 350.31 0.590341 -1.46126 0
M  V30 3760 C 351.558 1.34616 -1.50742 0
M  V30 3761 C 351.879 1.94363 -0.157486 0
M  V30 3762 O 351.149 1.78136 0.815136 0
M  V30 3763 H 349.729 0.499789 -0.555175 0
M  V30 3764 H 352.391 0.691953 -1.82203 0
M  V30 3765 H 351.487 2.15678 -2.25587 0
M  V30 3766 N 351.788 1.33704 0.83433 0
M  V30 3767 C 353.204 1.13137 1.12571 0
M  V30 3768 C 353.404 -0.0747261 2.01361 0
M  V30 3769 O 352.46 -0.753647 2.4099 0
M  V30 3770 C 353.773 2.42105 1.78342 0
M  V30 3771 C 355.321 2.48054 1.90888 0
M  V30 3772 C 355.796 3.76995 2.60075 0
M  V30 3773 N 357.287 3.78092 2.67584 0
M  V30 3774 C 358.022 4.74574 3.21818 0
M  V30 3775 N 357.518 5.81434 3.76705 0
M  V30 3776 N 359.311 4.62044 3.20112 0
M  V30 3777 H 351.462 2.11 0.243489 0
M  V30 3778 H 353.725 0.932532 0.17055 0
M  V30 3779 H 353.431 3.30391 1.20561 0
M  V30 3780 H 353.305 2.54594 2.7832 0
M  V30 3781 H 355.692 1.60215 2.47821 0
M  V30 3782 H 355.773 2.39502 0.898459 0
M  V30 3783 H 355.417 4.65219 2.03799 0
M  V30 3784 H 355.347 3.82825 3.61597 0
M  V30 3785 H 357.838 3.00865 2.28667 0
M  V30 3786 H 358.151 6.51084 4.16305 0
M  V30 3787 H 356.496 5.85163 3.7498 0
M  V30 3788 H 359.687 3.77716 2.76493 0
M  V30 3789 H 359.86 5.37406 3.62076 0
M  V30 3790 O 353.305 -0.972346 1.28948 0
M  V30 3791 H 353.996 -1.59791 1.09484 0
M  V30 END ATOM
M  V30 BEGIN BOND
M  V30 END BOND
M  V30 END CTAB
M  END
$$$$
