drugbank_target|Q99456 Keratin, type I cytoskeletal 12 (DB00400; DB11157)
 OpenBabel12092120573D

  0  0  0     0  0            999 V3000
M  V30 BEGIN CTAB
M  V30 COUNTS 7411 7447 0 0 0
M  V30 BEGIN ATOM
M  V30 1 H -0.908 1.98254 -0.117106 0
M  V30 2 N 0 1.576 0 0
M  V30 3 C 0.933 2.03868 1.02534 0
M  V30 4 C 1.911 0.928543 1.3348 0
M  V30 5 O 3.095 1.19667 1.45644 0
M  V30 6 C 0.222 2.43627 2.35294 0
M  V30 7 C -0.732 3.65373 2.2001 0
M  V30 8 S 0.101 5.13292 1.52614 0
M  V30 9 C 1.257 5.56322 2.86805 0
M  V30 10 H 1.49 2.90518 0.631377 0
M  V30 11 H -0.977 1.52953 0.210867 0
M  V30 12 H 0.981 2.67203 3.11629 0
M  V30 13 H -0.358 1.57376 2.7183 0
M  V30 14 H -1.165 3.90944 3.18086 0
M  V30 15 H -1.563 3.418 1.51819 0
M  V30 16 H 0.729 5.58782 3.83104 0
M  V30 17 H 1.672 6.56266 2.65933 0
M  V30 18 H 2.08 4.83886 2.90714 0
M  V30 19 N 1.4781 -0.272755 1.55222 0
M  V30 20 C 2.7551 -1.02562 1.66555 0
M  V30 21 C 3.1351 -2.04282 0.532189 0
M  V30 22 O 2.4831 -2.23662 -0.467717 0
M  V30 23 C 2.6931 -1.6822 3.05782 0
M  V30 24 C 4.0411 -2.19373 3.63539 0
M  V30 25 O 5.0651 -1.78206 3.08417 0
M  V30 26 O 3.9241 -2.94883 4.60115 0
M  V30 27 H 1.0181 -0.475755 0.676451 0
M  V30 28 H 3.5641 -0.268593 1.67561 0
M  V30 29 H 2.3361 -0.945112 3.79715 0
M  V30 30 H 1.9591 -2.50609 3.08676 0
M  V30 31 N 2.9562 -1.48159 -0.537278 0
M  V30 32 C 3.8862 -1.65029 -1.6519 0
M  V30 33 C 4.8672 -0.499281 -1.62607 0
M  V30 34 O 6.0522 -0.730972 -1.79918 0
M  V30 35 C 3.1822 -1.68303 -3.03795 0
M  V30 36 C 2.1362 -2.8283 -3.21234 0
M  V30 37 C 1.4622 -2.71189 -4.60826 0
M  V30 38 C 2.7622 -4.24211 -3.04701 0
M  V30 39 H 4.4562 -2.58341 -1.51328 0
M  V30 40 H 2.0022 -1.24325 -0.726585 0
M  V30 41 H 3.9552 -1.78693 -3.81637 0
M  V30 42 H 2.6792 -0.715635 -3.18663 0
M  V30 43 H 1.3382 -2.71983 -2.45807 0
M  V30 44 H 0.9862 -1.72435 -4.7252 0
M  V30 45 H 0.6862 -3.48035 -4.7344 0
M  V30 46 H 2.2102 -2.83537 -5.40777 0
M  V30 47 H 3.6242 -4.3593 -3.72341 0
M  V30 48 H 2.0212 -5.01998 -3.28813 0
M  V30 49 H 3.0912 -4.41184 -2.01209 0
M  V30 50 N 4.4343 0.785586 -1.36625 0
M  V30 51 C 5.6593 1.57963 -1.34397 0
M  V30 52 C 6.0843 1.87964 0.071526 0
M  V30 53 O 5.4423 1.48182 1.0446 0
M  V30 54 C 5.4903 2.87511 -2.17646 0
M  V30 55 O 4.5943 3.81281 -1.57158 0
M  V30 56 H 3.9353 0.479014 -0.459828 0
M  V30 57 H 6.4653 0.973411 -1.79961 0
M  V30 58 H 6.4753 3.36745 -2.30362 0
M  V30 59 H 5.1503 2.65002 -3.20541 0
M  V30 60 H 3.7273 3.39885 -1.53403 0
M  V30 61 N 5.9124 1.20967 1.01018 0
M  V30 62 C 6.8604 0.961223 2.1181 0
M  V30 63 C 7.8544 -0.0897034 1.69162 0
M  V30 64 O 9.0604 0.0612271 1.79896 0
M  V30 65 H 5.4354 0.29355 0.692338 0
M  V30 66 H 7.4064 1.90178 2.29946 0
M  V30 67 C 6.1554 0.536854 3.4353 0
M  V30 68 H 5.4784 1.33713 3.76777 0
M  V30 69 H 6.9184 0.402286 4.22087 0
M  V30 70 C 5.3774 -0.751574 3.2841 0
M  V30 71 O 5.9074 -1.80841 3.58691 0
M  V30 72 N 4.1134 -0.716079 2.81639 0
M  V30 73 H 3.6604 0.144236 2.57196 0
M  V30 74 H 3.6184 -1.57847 2.71904 0
M  V30 75 N 7.3905 -1.2043 1.01659 0
M  V30 76 C 8.3385 -2.25249 0.580143 0
M  V30 77 C 9.3325 -1.65057 -0.381115 0
M  V30 78 O 10.5385 -1.78241 -0.251039 0
M  V30 79 H 6.9135 -0.732695 0.169299 0
M  V30 80 H 8.8845 -2.59389 1.47512 0
M  V30 81 C 7.6335 -3.47638 -0.065788 0
M  V30 82 H 6.9565 -3.94233 0.664874 0
M  V30 83 H 8.3965 -4.2268 -0.334282 0
M  V30 84 C 6.8555 -3.10447 -1.3086 0
M  V30 85 O 7.3855 -3.21981 -2.4019 0
M  V30 86 N 5.5915 -2.64996 -1.1927 0
M  V30 87 H 5.1385 -2.55811 -0.303064 0
M  V30 88 H 5.0965 -2.40482 -2.02523 0
M  V30 89 N 8.8686 -0.792821 -1.36206 0
M  V30 90 C 10.0966 -0.378825 -2.03402 0
M  V30 91 C 10.5116 1.00586 -1.59774 0
M  V30 92 O 9.8686 1.64574 -0.788764 0
M  V30 93 C 9.9196 -0.43683 -3.58851 0
M  V30 94 O 9.6406 -1.76691 -4.00889 0
M  V30 95 C 11.1416 -0.0138943 -4.43298 0
M  V30 96 H 8.3616 -0.155673 -0.652692 0
M  V30 97 H 10.9056 -1.07261 -1.74113 0
M  V30 98 H 9.0606 0.208575 -3.86838 0
M  V30 99 H 9.4746 -1.72011 -4.95492 0
M  V30 100 H 10.9486 -0.105615 -5.51899 0
M  V30 101 H 11.4256 1.03915 -4.2673 0
M  V30 102 H 12.0316 -0.63192 -4.20579 0
M  V30 103 N 10.3467 1.47872 -0.545128 0
M  V30 104 C 11.2797 2.2675 0.256885 0
M  V30 105 C 12.2577 1.33293 0.931228 0
M  V30 106 O 13.4417 1.62657 0.95262 0
M  V30 107 C 10.5687 3.09976 1.36501 0
M  V30 108 C 9.6147 4.1892 0.800496 0
M  V30 109 S 10.4477 5.34397 -0.343505 0
M  V30 110 C 11.6037 6.21186 0.766733 0
M  V30 111 H 11.8367 2.94425 -0.412479 0
M  V30 112 H 9.3697 1.50806 -0.331204 0
M  V30 113 H 11.3277 3.585 1.9997 0
M  V30 114 H 9.9887 2.41686 2.00616 0
M  V30 115 H 9.1817 4.76836 1.63227 0
M  V30 116 H 8.7837 3.73215 0.242217 0
M  V30 117 H 11.0757 6.56804 1.66178 0
M  V30 118 H 12.0187 7.07742 0.225204 0
M  V30 119 H 12.4267 5.54574 1.05396 0
M  V30 120 N 11.8248 0.280983 1.55075 0
M  V30 121 C 13.0498 -0.340154 2.04592 0
M  V30 122 C 13.4748 -1.48246 1.15779 0
M  V30 123 O 12.8328 -1.80614 0.15761 0
M  V30 124 C 12.8808 -0.793104 3.5177 0
M  V30 125 O 11.9848 -1.89981 3.66034 0
M  V30 126 H 11.3258 -0.0694289 0.66036 0
M  V30 127 H 13.8558 0.416993 2.00306 0
M  V30 128 H 13.8658 -1.08729 3.93245 0
M  V30 129 H 12.5408 0.0426163 4.15878 0
M  V30 130 H 11.1178 -1.60771 3.36463 0
M  V30 131 N 13.3029 -1.57598 0.00835791 0
M  V30 132 C 14.2329 -2.1198 -0.979113 0
M  V30 133 C 15.2139 -1.03091 -1.35301 0
M  V30 134 O 16.3989 -1.30818 -1.43528 0
M  V30 135 C 13.5289 -2.62995 -2.26828 0
M  V30 136 C 12.4829 -3.76485 -2.03576 0
M  V30 137 C 11.8089 -4.13846 -3.38579 0
M  V30 138 C 13.1089 -5.0342 -1.39161 0
M  V30 139 H 14.8029 -2.94738 -0.526281 0
M  V30 140 H 12.3489 -1.41783 -0.251704 0
M  V30 141 H 14.3019 -2.99669 -2.96271 0
M  V30 142 H 13.0259 -1.7737 -2.7424 0
M  V30 143 H 11.6849 -3.40217 -1.36557 0
M  V30 144 H 11.3329 -3.25232 -3.83709 0
M  V30 145 H 11.0329 -4.90312 -3.23834 0
M  V30 146 H 12.5569 -4.53086 -4.09323 0
M  V30 147 H 13.9709 -5.37812 -1.98573 0
M  V30 148 H 12.3679 -5.84746 -1.34878 0
M  V30 149 H 13.4379 -4.83548 -0.361868 0
M  V30 150 N 14.781 0.264519 -1.55364 0
M  V30 151 C 16.006 1.01726 -1.80739 0
M  V30 152 C 16.431 1.78836 -0.583044 0
M  V30 153 O 15.789 1.75167 0.467566 0
M  V30 154 C 15.837 1.94482 -3.03659 0
M  V30 155 O 14.941 3.03386 -2.7934 0
M  V30 156 H 14.282 0.290395 -0.597132 0
M  V30 157 H 16.812 0.290854 -2.02522 0
M  V30 158 H 16.822 2.36278 -3.32621 0
M  V30 159 H 15.497 1.37772 -3.92418 0
M  V30 160 H 14.074 2.65844 -2.61498 0
M  V30 161 N 16.2591 1.48442 0.529413 0
M  V30 162 C 17.5051 1.5672 1.28711 0
M  V30 163 C 17.8381 0.2406 1.92704 0
M  V30 164 O 17.1131 -0.753454 1.79313 0
M  V30 165 C 17.3961 2.70587 2.37603 0
M  V30 166 C 17.2491 4.12953 1.78297 0
M  V30 167 C 18.5681 2.80212 3.39366 0
M  V30 168 H 15.6871 0.570474 0.466613 0
M  V30 169 H 18.3291 1.80617 0.589706 0
M  V30 170 H 16.4791 2.50342 2.97088 0
M  V30 171 H 18.1511 4.44639 1.22858 0
M  V30 172 H 16.3941 4.19927 1.0883 0
M  V30 173 H 17.0651 4.88448 2.57144 0
M  V30 174 H 19.5411 2.98553 2.89836 0
M  V30 175 H 18.4171 3.61611 4.12951 0
M  V30 176 H 18.6781 1.88393 3.99951 0
M  V30 177 N 17.7372 -0.778329 1.37039 0
M  V30 178 C 19.1532 -1.07796 1.17695 0
M  V30 179 C 19.3532 -2.01498 0.00860115 0
M  V30 180 O 18.4092 -2.43901 -0.653352 0
M  V30 181 C 19.7222 -1.68178 2.49272 0
M  V30 182 C 21.2702 -1.80467 2.55735 0
M  V30 183 C 21.7452 -2.44263 3.87427 0
M  V30 184 N 23.2362 -2.51721 3.88833 0
M  V30 185 C 23.9712 -3.01919 4.87476 0
M  V30 186 N 23.4672 -3.5234 5.96513 0
M  V30 187 N 25.2602 -3.00733 4.74885 0
M  V30 188 H 17.4112 -0.156032 2.11826 0
M  V30 189 H 19.6742 -0.131844 0.938787 0
M  V30 190 H 19.3802 -1.06796 3.35093 0
M  V30 191 H 19.2542 -2.67554 2.65885 0
M  V30 192 H 21.6412 -2.40984 1.70325 0
M  V30 193 H 21.7222 -0.798656 2.43013 0
M  V30 194 H 21.3662 -1.84388 4.73248 0
M  V30 195 H 21.2962 -3.45458 3.9745 0
M  V30 196 H 23.7872 -2.1603 3.10063 0
M  V30 197 H 24.1002 -3.89027 6.67741 0
M  V30 198 H 22.4452 -3.50462 6.00168 0
M  V30 199 H 25.6362 -2.60638 3.88826 0
M  V30 200 H 25.8092 -3.39545 5.51918 0
M  V30 201 N 19.2153 -1.21501 -1.00376 0
M  V30 202 C 20.4433 -1.059 -1.77744 0
M  V30 203 C 20.8583 0.391125 -1.84704 0
M  V30 204 O 20.2153 1.27133 -1.30933 0
M  V30 205 C 20.2663 -1.65111 -3.21591 0
M  V30 206 O 19.9873 -3.0445 -3.15027 0
M  V30 207 C 21.4883 -1.54637 -4.15454 0
M  V30 208 H 18.7083 -0.371825 -0.558558 0
M  V30 209 H 21.2523 -1.60865 -1.26264 0
M  V30 210 H 19.4073 -1.14235 -3.70175 0
M  V30 211 H 19.8213 -3.3278 -4.0541 0
M  V30 212 H 21.2953 -2.00808 -5.14179 0
M  V30 213 H 21.7723 -0.501022 -4.36333 0
M  V30 214 H 22.3783 -2.04767 -3.72761 0
M  V30 215 N 20.6934 1.19889 -1.02296 0
M  V30 216 C 22.1044 1.71124 -0.746568 0
M  V30 217 C 22.4554 1.81939 0.734335 0
M  V30 218 O 21.5804 1.48639 1.57275 0
M  V30 219 C 22.1754 3.10804 -1.34857 0
M  V30 220 C 20.7344 3.59323 -1.1209 0
M  V30 221 C 19.8814 2.3635 -1.45031 0
M  V30 222 H 22.8324 1.04813 -1.19163 0
M  V30 223 H 22.8534 3.73186 -0.742437 0
M  V30 224 H 22.3654 3.029 -2.42638 0
M  V30 225 H 20.4664 3.7255 -0.0610337 0
M  V30 226 H 20.5794 4.4378 -1.80544 0
M  V30 227 H 18.9434 2.39399 -0.869487 0
M  V30 228 H 19.7264 2.31081 -2.53883 0
M  V30 229 N 22.1715 0.800033 1.35784 0
M  V30 230 C 23.4195 0.376597 1.9856 0
M  V30 231 C 23.7405 -1.05812 1.63795 0
M  V30 232 O 23.0105 -1.73103 0.917171 0
M  V30 233 H 21.5905 0.136261 0.734467 0
M  V30 234 H 24.2525 1.02442 1.65806 0
M  V30 235 H 23.3485 0.477002 3.08433 0
M  V30 236 N 23.6496 -1.47581 0.552962 0
M  V30 237 C 24.5796 -2.32762 -0.185451 0
M  V30 238 C 25.5606 -1.43527 -0.912905 0
M  V30 239 O 26.7456 -1.72388 -0.894201 0
M  V30 240 C 23.8756 -3.25219 -1.21859 0
M  V30 241 C 22.8296 -4.23661 -0.607864 0
M  V30 242 C 22.1556 -5.05413 -1.74533 0
M  V30 243 C 23.4556 -5.20481 0.435582 0
M  V30 244 H 25.1496 -2.94749 0.525684 0
M  V30 245 H 22.6956 -1.41738 0.254251 0
M  V30 246 H 24.6486 -3.8365 -1.7433 0
M  V30 247 H 23.3726 -2.61279 -1.95961 0
M  V30 248 H 22.0316 -3.66451 -0.104489 0
M  V30 249 H 21.6796 -4.3788 -2.47529 0
M  V30 250 H 21.3796 -5.72059 -1.34249 0
M  V30 251 H 22.9036 -5.66701 -2.27338 0
M  V30 252 H 24.3176 -5.733 -0.00290157 0
M  V30 253 H 22.7146 -5.95305 0.757067 0
M  V30 254 H 23.7846 -4.66217 1.33303 0
M  V30 255 N 25.1277 -0.289203 -1.54924 0
M  V30 256 C 26.3527 0.329299 -2.04769 0
M  V30 257 C 26.7777 1.4763 -1.16564 0
M  V30 258 O 26.1357 1.80527 -0.167186 0
M  V30 259 C 26.1837 0.774438 -3.52186 0
M  V30 260 O 25.2877 1.88038 -3.67036 0
M  V30 261 H 24.6287 0.0659259 -0.660719 0
M  V30 262 H 27.1587 -0.42761 -2.00082 0
M  V30 263 H 27.1687 1.06642 -3.93816 0
M  V30 264 H 25.8437 -0.0646707 -4.1585 0
M  V30 265 H 24.4207 1.58985 -3.3731 0
M  V30 266 N 26.6058 1.57591 -0.0167156 0
M  V30 267 C 28.0218 1.55946 0.339557 0
M  V30 268 C 28.2218 1.02109 1.73713 0
M  V30 269 O 27.2778 0.662303 2.43659 0
M  V30 270 C 28.5908 3.00037 0.199499 0
M  V30 271 C 30.1388 3.11805 0.273193 0
M  V30 272 C 30.6138 4.57713 0.162068 0
M  V30 273 N 32.1048 4.6268 0.219444 0
M  V30 274 C 32.8398 5.73185 0.157054 0
M  V30 275 N 32.3358 6.92786 0.0442936 0
M  V30 276 N 34.1288 5.61707 0.21014 0
M  V30 277 H 26.2798 1.90921 -0.930758 0
M  V30 278 H 28.5428 0.877674 -0.358319 0
M  V30 279 H 28.2488 3.4333 -0.76273 0
M  V30 280 H 28.1228 3.64387 0.974786 0
M  V30 281 H 30.5098 2.68433 1.22587 0
M  V30 282 H 30.5908 2.50201 -0.532256 0
M  V30 283 H 30.2348 5.01763 -0.78714 0
M  V30 284 H 30.1648 5.17283 0.986222 0
M  V30 285 H 32.6558 3.76649 0.307246 0
M  V30 286 H 32.9688 7.728 0.00304069 0
M  V30 287 H 31.3138 6.94999 0.00968457 0
M  V30 288 H 34.5048 4.6716 0.296546 0
M  V30 289 H 34.6778 6.47807 0.158054 0
M  V30 290 N 28.0839 -0.256276 1.55502 0
M  V30 291 C 29.4999 -0.604325 1.47716 0
M  V30 292 C 29.6999 -1.88763 0.705039 0
M  V30 293 O 28.7559 -2.51445 0.230613 0
M  V30 294 C 30.0689 -0.715756 2.92057 0
M  V30 295 C 31.6169 -0.808706 3.02372 0
M  V30 296 C 32.0919 -0.951777 4.48001 0
M  V30 297 N 33.5829 -1.01688 4.519 0
M  V30 298 C 34.3179 -1.14668 5.61817 0
M  V30 299 N 33.8139 -1.24261 6.81565 0
M  V30 300 N 35.6069 -1.1791 5.49594 0
M  V30 301 H 27.7579 0.586291 2.04148 0
M  V30 302 H 30.0209 0.201015 0.926443 0
M  V30 303 H 29.7269 0.157027 3.51349 0
M  V30 304 H 29.6009 -1.59071 3.42018 0
M  V30 305 H 31.9879 -1.67195 2.43166 0
M  V30 306 H 32.0689 0.0912063 2.55637 0
M  V30 307 H 31.7129 -0.0931291 5.07815 0
M  V30 308 H 31.6429 -1.86659 4.92408 0
M  V30 309 H 34.1339 -0.954468 3.65648 0
M  V30 310 H 34.4469 -1.34046 7.61086 0
M  V30 311 H 32.7919 -1.21236 6.84344 0
M  V30 312 H 35.9829 -1.10057 4.54978 0
M  V30 313 H 36.1559 -1.27681 6.35296 0
M  V30 314 N 29.562 -1.4872 -0.521534 0
M  V30 315 C 30.492 -1.66771 -1.63431 0
M  V30 316 C 31.473 -0.516499 -1.62069 0
M  V30 317 O 32.658 -0.750013 -1.79132 0
M  V30 318 C 29.788 -1.71515 -3.01993 0
M  V30 319 C 28.742 -2.86222 -3.18216 0
M  V30 320 C 28.068 -2.76061 -4.57924 0
M  V30 321 C 29.368 -4.27419 -3.00184 0
M  V30 322 H 31.062 -2.59932 -1.48579 0
M  V30 323 H 28.608 -1.25089 -0.713358 0
M  V30 324 H 30.561 -1.82731 -3.7972 0
M  V30 325 H 29.285 -0.749393 -3.17886 0
M  V30 326 H 27.944 -2.74575 -2.42908 0
M  V30 327 H 27.592 -1.77437 -4.70665 0
M  V30 328 H 27.292 -3.53037 -4.69722 0
M  V30 329 H 28.816 -2.89256 -5.37739 0
M  V30 330 H 30.23 -4.39855 -3.67697 0
M  V30 331 H 28.627 -5.05458 -3.2347 0
M  V30 332 H 29.697 -4.43293 -1.96518 0
M  V30 333 N 31.0401 0.771051 -1.3745 0
M  V30 334 C 32.2651 1.56529 -1.36065 0
M  V30 335 C 32.6901 1.88029 0.0515859 0
M  V30 336 O 32.0481 1.49282 1.02882 0
M  V30 337 C 32.0961 2.85187 -2.20683 0
M  V30 338 O 31.2001 3.79593 -1.61193 0
M  V30 339 H 30.5411 0.47411 -0.464883 0
M  V30 340 H 33.0711 0.954269 -1.80983 0
M  V30 341 H 33.0811 3.34283 -2.33921 0
M  V30 342 H 31.7561 2.61588 -3.23334 0
M  V30 343 H 30.3331 3.38239 -1.56999 0
M  V30 344 N 32.5182 1.22032 0.997298 0
M  V30 345 C 33.7432 1.06921 1.77715 0
M  V30 346 C 34.1682 -0.376226 1.84299 0
M  V30 347 O 33.5262 -1.27165 1.29223 0
M  V30 348 C 33.5742 1.67996 3.19076 0
M  V30 349 O 32.6782 0.930653 4.01762 0
M  V30 350 H 32.0192 0.375814 0.547412 0
M  V30 351 H 34.5492 1.61737 1.25309 0
M  V30 352 H 34.5592 1.72538 3.69723 0
M  V30 353 H 33.2342 2.73182 3.13599 0
M  V30 354 H 31.8112 0.960917 3.60307 0
M  V30 355 N 33.9963 -1.19345 1.0293 0
M  V30 356 C 34.9283 -2.22036 0.56857 0
M  V30 357 C 35.9413 -1.58865 -0.355779 0
M  V30 358 O 37.1303 -1.77851 -0.152103 0
M  V30 359 C 34.2303 -3.38363 -0.190752 0
M  V30 360 C 33.4033 -4.31118 0.738643 0
M  V30 361 C 32.4623 -5.26194 0.0246497 0
M  V30 362 O 31.4883 -5.65461 0.651354 0
M  V30 363 N 32.6903 -5.66971 -1.24594 0
M  V30 364 H 35.4553 -2.6219 1.45177 0
M  V30 365 H 33.0163 -1.34015 0.908381 0
M  V30 366 H 35.0083 -3.98981 -0.677961 0
M  V30 367 H 33.5783 -2.96994 -0.975366 0
M  V30 368 H 32.7983 -3.68276 1.40593 0
M  V30 369 H 34.0863 -4.90001 1.37029 0
M  V30 370 H 33.4843 -5.37104 -1.77583 0
M  V30 371 H 32.0413 -6.2984 -1.67764 0
M  V30 372 N 35.4744 -0.807222 -1.35358 0
M  V30 373 C 36.6994 -0.399309 -2.0352 0
M  V30 374 C 37.1244 0.981986 -1.60433 0
M  V30 375 O 36.4824 1.63601 -0.781299 0
M  V30 376 C 36.5304 -0.491552 -3.57234 0
M  V30 377 O 35.6344 0.494754 -4.09421 0
M  V30 378 H 34.9754 -0.166682 -0.642739 0
M  V30 379 H 37.5054 -1.09328 -1.72941 0
M  V30 380 H 37.5154 -0.361588 -4.06395 0
M  V30 381 H 36.1904 -1.49907 -3.87944 0
M  V30 382 H 34.7674 0.324977 -3.71481 0
M  V30 383 N 36.9525 1.47285 -0.560781 0
M  V30 384 C 38.1985 2.02764 -0.0381184 0
M  V30 385 C 38.5315 1.43384 1.30976 0
M  V30 386 O 37.8065 0.590733 1.85312 0
M  V30 387 C 38.0895 3.60064 0.0511427 0
M  V30 388 C 37.9425 4.2987 -1.32408 0
M  V30 389 C 39.2615 4.33439 0.762795 0
M  V30 390 H 36.3805 0.736841 -0.0153264 0
M  V30 391 H 39.0225 1.75675 -0.723759 0
M  V30 392 H 37.1725 3.83274 0.635065 0
M  V30 393 H 38.8445 4.17989 -1.95148 0
M  V30 394 H 37.0875 3.90085 -1.8978 0
M  V30 395 H 37.7585 5.38478 -1.21431 0
M  V30 396 H 40.2345 4.15243 0.266965 0
M  V30 397 H 39.1105 5.43124 0.794221 0
M  V30 398 H 39.3715 4.02915 1.81966 0
M  V30 399 N 38.4306 0.297415 1.54768 0
M  V30 400 C 39.6796 -0.313669 1.99246 0
M  V30 401 C 39.9926 -1.55281 1.18942 0
M  V30 402 O 41.1986 -2.23825 1.5367 0
M  V30 403 C 39.6546 -0.609407 3.54703 0
M  V30 404 C 39.2626 0.611192 4.43811 0
M  V30 405 C 41.0066 -1.18188 4.07715 0
M  V30 406 C 38.9136 0.288805 5.90694 0
M  V30 407 H 37.8436 -0.120979 0.744231 0
M  V30 408 H 40.4946 0.40556 1.78962 0
M  V30 409 H 38.8766 -1.38813 3.70873 0
M  V30 410 H 40.0506 1.3875 4.39414 0
M  V30 411 H 38.3656 1.10205 4.01552 0
M  V30 412 H 40.9626 -1.43727 5.15021 0
M  V30 413 H 41.3056 -2.12299 3.58099 0
M  V30 414 H 41.8386 -0.464944 3.95074 0
M  V30 415 H 38.5776 1.19838 6.44453 0
M  V30 416 H 38.0976 -0.450305 5.98107 0
M  V30 417 H 39.7766 -0.110933 6.46905 0
M  V30 418 N 39.9087 -1.5758 0.0250728 0
M  V30 419 C 41.1567 -1.91255 -0.653151 0
M  V30 420 C 41.4777 -0.901691 -1.729 0
M  V30 421 O 40.7477 0.0573785 -1.95816 0
M  V30 422 H 39.3277 -0.705942 -0.244243 0
M  V30 423 H 41.9897 -1.94767 0.0719209 0
M  V30 424 H 41.0857 -2.91752 -1.10847 0
M  V30 425 N 41.3868 0.248026 -1.55636 0
M  V30 426 C 42.8028 0.596483 -1.48035 0
M  V30 427 C 43.0028 1.88386 -0.715039 0
M  V30 428 O 42.0588 2.51319 -0.243944 0
M  V30 429 C 43.3718 0.700258 -2.92433 0
M  V30 430 C 44.9198 0.792659 -3.02797 0
M  V30 431 C 45.3948 0.928005 -4.485 0
M  V30 432 N 46.8858 0.992903 -4.52433 0
M  V30 433 C 47.6208 1.11687 -5.62418 0
M  V30 434 N 47.1168 1.20645 -6.82214 0
M  V30 435 N 48.9098 1.14994 -5.50212 0
M  V30 436 H 41.0608 -0.597109 -2.03834 0
M  V30 437 H 43.3238 -0.205925 -0.925364 0
M  V30 438 H 43.0298 -0.175658 -3.51261 0
M  V30 439 H 42.9038 1.57255 -3.42857 0
M  V30 440 H 45.2908 1.65903 -2.4405 0
M  V30 441 H 45.3718 -0.104762 -2.55585 0
M  V30 442 H 45.0158 0.0661971 -5.07857 0
M  V30 443 H 44.9458 1.84045 -4.93391 0
M  V30 444 H 47.4368 0.935064 -3.66149 0
M  V30 445 H 47.7498 1.30008 -7.61786 0
M  V30 446 H 46.0948 1.17605 -6.84977 0
M  V30 447 H 49.2858 1.07643 -4.55555 0
M  V30 448 H 49.4588 1.24311 -6.35965 0
M  V30 449 N 42.8649 1.48995 0.513639 0
M  V30 450 C 44.2759 1.5119 1.09537 0
M  V30 451 C 44.6269 0.290906 1.94031 0
M  V30 452 O 43.7519 -0.60049 2.07902 0
M  V30 453 C 44.3469 2.73964 1.99322 0
M  V30 454 C 42.9059 2.78978 2.52682 0
M  V30 455 C 42.0529 2.44934 1.30009 0
M  V30 456 H 45.0039 1.55875 0.298125 0
M  V30 457 H 45.0249 2.53409 2.83838 0
M  V30 458 H 44.5369 3.62813 1.37799 0
M  V30 459 H 42.6379 1.94378 3.1788 0
M  V30 460 H 42.7509 3.8083 2.90698 0
M  V30 461 H 41.1149 1.9644 1.62122 0
M  V30 462 H 41.8979 3.36043 0.702131 0
M  V30 463 N 44.343 -0.763751 1.37857 0
M  V30 464 C 45.759 -1.06542 1.18832 0
M  V30 465 C 45.959 -2.01478 0.0299722 0
M  V30 466 O 45.015 -2.4458 -0.627447 0
M  V30 467 C 46.328 -1.65525 2.51042 0
M  V30 468 C 47.876 -1.77745 2.57635 0
M  V30 469 C 48.351 -2.4014 3.89996 0
M  V30 470 N 49.842 -2.47582 3.91481 0
M  V30 471 C 50.577 -2.96732 4.9065 0
M  V30 472 N 50.073 -3.45993 6.00217 0
M  V30 473 N 51.866 -2.95679 4.78048 0
M  V30 474 H 44.017 -0.133556 2.1198 0
M  V30 475 H 46.28 -0.121879 0.940133 0
M  V30 476 H 45.986 -1.03236 3.36207 0
M  V30 477 H 45.86 -2.64719 2.68707 0
M  V30 478 H 48.247 -2.39164 1.72872 0
M  V30 479 H 48.328 -0.772836 2.43846 0
M  V30 480 H 47.972 -1.79358 4.75177 0
M  V30 481 H 47.902 -3.41223 4.01092 0
M  V30 482 H 50.393 -2.1273 3.12337 0
M  V30 483 H 50.706 -3.81922 6.7183 0
M  V30 484 H 49.051 -3.44077 6.03851 0
M  V30 485 H 52.242 -2.56499 3.91568 0
M  V30 486 H 52.415 -3.33672 5.55488 0
M  V30 487 N 45.8211 -1.22559 -0.990812 0
M  V30 488 C 47.0691 -1.04933 -1.72724 0
M  V30 489 C 47.3901 0.416158 -1.90508 0
M  V30 490 O 46.6601 1.29918 -1.46622 0
M  V30 491 H 45.2401 -0.385296 -0.639965 0
M  V30 492 H 47.9021 -1.54105 -1.19322 0
M  V30 493 H 46.9981 -1.52886 -2.72089 0
M  V30 494 N 47.2992 1.18797 -1.03562 0
M  V30 495 C 48.2322 2.2105 -0.56676 0
M  V30 496 C 49.2102 1.57704 0.395993 0
M  V30 497 O 50.3942 1.85908 0.311498 0
M  V30 498 C 47.5212 3.38259 0.172704 0
M  V30 499 C 46.5672 4.19987 -0.74252 0
M  V30 500 S 47.4002 4.87199 -2.22254 0
M  V30 501 C 48.5562 6.07813 -1.49379 0
M  V30 502 H 48.7892 2.60478 -1.43312 0
M  V30 503 H 46.3222 1.29151 -0.846133 0
M  V30 504 H 48.2802 4.06191 0.593191 0
M  V30 505 H 46.9412 2.97252 1.01488 0
M  V30 506 H 46.1342 5.03709 -0.171265 0
M  V30 507 H 45.7362 3.57408 -1.10163 0
M  V30 508 H 48.0282 6.72948 -0.784056 0
M  V30 509 H 48.9712 6.69435 -2.30786 0
M  V30 510 H 49.3792 5.55781 -0.988331 0
M  V30 511 N 48.7773 0.814389 1.34928 0
M  V30 512 C 50.0023 0.410097 2.03305 0
M  V30 513 C 50.4273 -0.973464 1.60951 0
M  V30 514 O 49.7853 -1.63185 0.789964 0
M  V30 515 C 49.8333 0.51049 3.56968 0
M  V30 516 O 48.9373 -0.473035 4.09678 0
M  V30 517 H 48.2783 0.170088 0.641846 0
M  V30 518 H 50.8083 1.10244 1.72358 0
M  V30 519 H 50.8183 0.383135 4.06197 0
M  V30 520 H 49.4933 1.51963 3.87144 0
M  V30 521 H 48.0703 -0.305272 3.71648 0
M  V30 522 N 50.2554 -1.46986 0.568584 0
M  V30 523 C 51.2184 -2.28624 -0.162366 0
M  V30 524 C 52.2184 -1.37596 -0.832103 0
M  V30 525 O 53.4084 -1.60115 -0.68622 0
M  V30 526 C 50.5404 -3.17596 -1.23878 0
M  V30 527 H 51.7334 -2.94722 0.554899 0
M  V30 528 H 49.2864 -1.52863 0.325976 0
M  V30 529 H 50.0214 -2.56214 -1.98808 0
M  V30 530 H 49.8064 -3.846 -0.763219 0
M  V30 531 H 51.2964 -3.79078 -1.75185 0
M  V30 532 N 51.7335 -0.305618 -1.54608 0
M  V30 533 C 52.9585 0.307562 -2.05107 0
M  V30 534 C 53.3835 1.46385 -1.18123 0
M  V30 535 O 52.7415 1.8034 -0.186324 0
M  V30 536 C 52.7895 0.73704 -3.52987 0
M  V30 537 O 51.8935 1.84134 -3.6901 0
M  V30 538 H 51.2345 0.0589143 -0.661381 0
M  V30 539 H 53.7645 -0.448807 -1.99617 0
M  V30 540 H 53.7745 1.02459 -3.94925 0
M  V30 541 H 52.4495 -0.108773 -4.15758 0
M  V30 542 H 51.0265 1.55398 -3.38978 0
M  V30 543 N 53.2116 1.57565 -0.0334293 0
M  V30 544 C 54.4366 1.96689 0.657895 0
M  V30 545 C 54.8616 0.910057 1.64619 0
M  V30 546 O 54.2196 -0.128598 1.80843 0
M  V30 547 C 54.2676 3.34905 1.33683 0
M  V30 548 O 53.3716 3.31574 2.45219 0
M  V30 549 H 52.7126 0.641205 0.172489 0
M  V30 550 H 55.2426 2.04372 -0.0965621 0
M  V30 551 H 55.2526 3.71234 1.69262 0
M  V30 552 H 53.9276 4.11366 0.612411 0
M  V30 553 H 52.5046 3.06968 2.11719 0
M  V30 554 N 54.6897 -0.239769 1.55765 0
M  V30 555 C 55.9357 -0.968234 1.78194 0
M  V30 556 C 56.2687 -1.84701 0.599938 0
M  V30 557 O 55.5437 -1.9031 -0.401524 0
M  V30 558 C 55.8267 -1.8227 3.10564 0
M  V30 559 C 55.6797 -0.971633 4.3918 0
M  V30 560 C 56.9987 -2.80388 3.39221 0
M  V30 561 H 54.1177 -0.350572 0.648281 0
M  V30 562 H 56.7597 -0.238259 1.885 0
M  V30 563 H 54.9097 -2.44507 3.01908 0
M  V30 564 H 56.5817 -0.367408 4.59835 0
M  V30 565 H 54.8247 -0.276276 4.32919 0
M  V30 566 H 55.4957 -1.60346 5.28198 0
M  V30 567 H 57.9717 -2.28287 3.47885 0
M  V30 568 H 56.8477 -3.3729 4.33044 0
M  V30 569 H 57.1087 -3.57212 2.60484 0
M  V30 570 N 56.1678 -1.49265 -0.50573 0
M  V30 571 C 57.4158 -1.582 -1.25766 0
M  V30 572 C 57.7368 -0.268482 -1.93143 0
M  V30 573 O 57.0068 0.711833 -1.8251 0
M  V30 574 H 55.5868 -0.582873 -0.467191 0
M  V30 575 H 58.2488 -1.85865 -0.586525 0
M  V30 576 H 57.3448 -2.37563 -2.02412 0
M  V30 577 N 57.6459 0.756429 -1.3826 0
M  V30 578 C 58.8709 1.55077 -1.37717 0
M  V30 579 C 59.2959 1.88073 0.03164 0
M  V30 580 O 58.6539 1.50364 1.01293 0
M  V30 581 C 58.7019 2.8283 -2.23695 0
M  V30 582 O 57.8059 3.77862 -1.6521 0
M  V30 583 H 57.1469 0.469152 -0.469885 0
M  V30 584 H 59.6769 0.935019 -1.81985 0
M  V30 585 H 59.6869 3.31783 -2.37453 0
M  V30 586 H 58.3619 2.58144 -3.2609 0
M  V30 587 H 56.9389 3.36555 -1.60578 0
M  V30 588 N 59.124 1.23083 0.984299 0
M  V30 589 C 60.372 1.05848 1.72165 0
M  V30 590 C 60.693 -0.406049 1.90726 0
M  V30 591 O 59.963 -1.29139 1.47309 0
M  V30 592 H 58.543 0.388685 0.637913 0
M  V30 593 H 61.205 1.54736 1.18503 0
M  V30 594 H 60.301 1.54327 2.71274 0
M  V30 595 N 60.6021 -1.18246 1.0419 0
M  V30 596 C 61.8321 -1.91916 0.764961 0
M  V30 597 C 62.2401 -1.76485 -0.681898 0
M  V30 598 O 61.5831 -1.09275 -1.47664 0
M  V30 599 C 61.6451 -3.4373 1.05309 0
M  V30 600 C 61.3091 -3.8294 2.4941 0
M  V30 601 C 62.3061 -3.86621 3.47592 0
M  V30 602 C 59.9911 -4.142 2.84155 0
M  V30 603 C 61.9851 -4.21013 4.78568 0
M  V30 604 C 59.6721 -4.48262 4.15337 0
M  V30 605 C 60.6701 -4.51645 5.12353 0
M  V30 606 O 60.3581 -4.84911 6.41183 0
M  V30 607 H 60.0901 -0.61606 0.278292 0
M  V30 608 H 62.6441 -1.50947 1.39299 0
M  V30 609 H 60.8741 -3.84946 0.367933 0
M  V30 610 H 62.5631 -3.9865 0.763752 0
M  V30 611 H 63.3291 -3.62607 3.22089 0
M  V30 612 H 59.2081 -4.10743 2.09311 0
M  V30 613 H 62.7521 -4.23568 5.54289 0
M  V30 614 H 58.6491 -4.71737 4.40607 0
M  V30 615 H 59.4171 -5.02809 6.45852 0
M  V30 616 N 62.0802 -0.821533 -1.34494 0
M  V30 617 C 63.3282 -0.408139 -1.97936 0
M  V30 618 C 63.6492 1.03193 -1.65457 0
M  V30 619 O 62.9192 1.71622 -0.944595 0
M  V30 620 H 61.4992 -0.147928 -0.732206 0
M  V30 621 H 64.1612 -1.05067 -1.64155 0
M  V30 622 H 63.2572 -0.52601 -3.07635 0
M  V30 623 N 63.5583 1.46682 -0.576371 0
M  V30 624 C 64.8063 2.02013 -0.0594163 0
M  V30 625 C 65.1273 1.45101 1.30271 0
M  V30 626 O 64.3973 0.633317 1.8538 0
M  V30 627 H 62.9773 0.746759 -0.0189745 0
M  V30 628 H 65.6393 1.79862 -0.750717 0
M  V30 629 H 64.7353 3.12097 0.014345 0
M  V30 630 N 65.0364 0.313813 1.54444 0
M  V30 631 C 66.2614 -0.296681 2.05267 0
M  V30 632 C 66.6864 -1.45757 1.18897 0
M  V30 633 O 66.0444 -1.80239 0.195886 0
M  V30 634 C 66.0924 -0.71831 3.53373 0
M  V30 635 O 65.1964 -1.82175 3.69981 0
M  V30 636 H 64.5374 -0.0554061 0.661684 0
M  V30 637 H 67.0674 0.459387 1.99376 0
M  V30 638 H 67.0774 -1.00364 3.95463 0
M  V30 639 H 65.7524 0.130821 4.15694 0
M  V30 640 H 64.3294 -1.53598 3.39797 0
M  V30 641 N 66.5145 -1.57545 0.0417849 0
M  V30 642 C 67.4775 -2.09885 -0.92093 0
M  V30 643 C 68.4775 -1.01648 -1.24596 0
M  V30 644 O 69.6675 -1.27759 -1.1842 0
M  V30 645 C 66.7995 -2.57527 -2.23367 0
M  V30 646 H 67.9925 -2.96236 -0.467382 0
M  V30 647 H 65.5455 -1.5493 -0.206467 0
M  V30 648 H 66.2805 -1.74542 -2.73323 0
M  V30 649 H 66.0655 -3.36613 -2.01083 0
M  V30 650 H 67.5555 -2.98201 -2.92346 0
M  V30 651 N 67.9926 0.231505 -1.5589 0
M  V30 652 C 69.2396 0.957352 -1.78441 0
M  V30 653 C 69.5676 1.84726 -0.60882 0
M  V30 654 O 68.8226 1.91416 0.40725 0
M  V30 655 C 69.1216 1.83577 -3.0665 0
M  V30 656 C 68.7876 1.09993 -4.37278 0
M  V30 657 C 67.4496 0.896629 -4.72773 0
M  V30 658 C 69.8016 0.579558 -5.17968 0
M  V30 659 C 67.1296 0.160896 -5.86479 0
M  V30 660 C 69.4816 -0.142783 -6.32439 0
M  V30 661 C 68.1456 -0.357427 -6.66542 0
M  V30 662 H 67.4156 0.35032 -0.65296 0
M  V30 663 H 70.0626 0.226259 -1.90159 0
M  V30 664 H 68.3676 2.63441 -2.90011 0
M  V30 665 H 70.0646 2.39934 -3.21298 0
M  V30 666 H 66.6546 1.26835 -4.09403 0
M  V30 667 H 70.8386 0.724125 -4.90989 0
M  V30 668 H 66.0946 -0.0157293 -6.11398 0
M  V30 669 H 70.2686 -0.553559 -6.94196 0
M  V30 670 H 67.8956 -0.929466 -7.54497 0
M  V30 671 N 69.4707 1.49531 0.497807 0
M  V30 672 C 70.7187 1.58865 1.24926 0
M  V30 673 C 71.0397 0.278721 1.92998 0
M  V30 674 O 70.3097 -0.702144 1.82885 0
M  V30 675 H 68.8897 0.585343 0.464094 0
M  V30 676 H 71.5517 1.86174 0.57666 0
M  V30 677 H 70.6477 2.38633 2.01149 0
M  V30 678 N 70.9488 -0.749086 1.3866 0
M  V30 679 C 72.1958 -1.50833 1.35114 0
M  V30 680 C 72.5238 -1.94415 -0.0574049 0
M  V30 681 O 71.7788 -1.66065 -1.03541 0
M  V30 682 C 72.0778 -2.7712 2.25697 0
M  V30 683 C 71.7438 -2.52477 3.73585 0
M  V30 684 C 70.4058 -2.45466 4.13884 0
M  V30 685 C 72.7578 -2.31066 4.67181 0
M  V30 686 C 70.0858 -2.15064 5.45861 0
M  V30 687 C 72.4378 -2.02183 5.9942 0
M  V30 688 C 71.1018 -1.93631 6.38798 0
M  V30 689 H 70.3718 -0.551936 0.494416 0
M  V30 690 H 73.0188 -0.860979 1.71054 0
M  V30 691 H 71.3238 -3.46528 1.82827 0
M  V30 692 H 73.0208 -3.35096 2.20254 0
M  V30 693 H 69.6108 -2.58807 3.41638 0
M  V30 694 H 73.7948 -2.35459 4.3689 0
M  V30 695 H 69.0508 -2.06954 5.75308 0
M  V30 696 H 73.2248 -1.8462 6.71482 0
M  V30 697 H 70.8518 -1.69839 7.40985 0
M  V30 698 N 72.4269 -1.23603 -0.977757 0
M  V30 699 C 73.6749 -1.06759 -1.71601 0
M  V30 700 C 73.9959 0.395929 -1.90938 0
M  V30 701 O 73.2659 1.28356 -1.47992 0
M  V30 702 H 71.8459 -0.392062 -0.635843 0
M  V30 703 H 74.5079 -1.55362 -1.1768 0
M  V30 704 H 73.6039 -1.55763 -2.70452 0
M  V30 705 N 73.905 1.17692 -1.04816 0
M  V30 706 C 74.868 2.19787 -0.650117 0
M  V30 707 C 75.868 1.58044 0.296427 0
M  V30 708 O 77.058 1.74012 0.0808097 0
M  V30 709 C 74.19 3.40869 0.0456987 0
M  V30 710 H 75.383 2.56516 -1.5537 0
M  V30 711 H 72.936 1.31708 -0.841594 0
M  V30 712 H 73.671 3.09681 0.962726 0
M  V30 713 H 73.456 3.86928 -0.634727 0
M  V30 714 H 74.946 4.16445 0.310432 0
M  V30 715 N 75.3831 0.828654 1.34056 0
M  V30 716 C 76.6081 0.431637 2.02859 0
M  V30 717 C 77.0331 -0.956339 1.61975 0
M  V30 718 O 76.3911 -1.62338 0.807228 0
M  V30 719 C 76.4391 0.548323 3.56407 0
M  V30 720 O 75.5431 -0.429556 4.10157 0
M  V30 721 H 74.8841 0.176886 0.640006 0
M  V30 722 H 77.4141 1.12066 1.71179 0
M  V30 723 H 77.4241 0.426196 4.05768 0
M  V30 724 H 76.0991 1.5606 3.8551 0
M  V30 725 H 74.6761 -0.265836 3.71951 0
M  V30 726 N 76.8612 -1.46375 0.584142 0
M  V30 727 C 78.1012 -2.0427 0.0729695 0
M  V30 728 C 78.4652 -1.44563 -1.26355 0
M  V30 729 O 79.6662 -1.93667 -1.86405 0
M  V30 730 C 77.9372 -3.57399 0.00967464 0
M  V30 731 S 79.4962 -4.36551 -0.443714 0
M  V30 732 H 76.3142 -0.709975 0.0381673 0
M  V30 733 H 78.9162 -1.79398 0.776962 0
M  V30 734 H 77.6202 -3.98372 0.986319 0
M  V30 735 H 77.1512 -3.8681 -0.717044 0
M  V30 736 H 79.1662 -4.66237 -1.69816 0
M  V30 737 N 78.3393 -0.321999 -1.54275 0
M  V30 738 C 79.5873 0.280489 -2.00144 0
M  V30 739 C 79.9083 1.52777 -1.21178 0
M  V30 740 O 79.1783 1.9338 -0.313187 0
M  V30 741 H 77.7583 0.106632 -0.73935 0
M  V30 742 H 80.4203 -0.438184 -1.8991 0
M  V30 743 H 79.5163 0.537972 -3.07428 0
M  V30 744 N 79.8174 1.5752 -0.0501392 0
M  V30 745 C 81.0654 1.9227 0.622642 0
M  V30 746 C 81.3864 0.929083 1.71444 0
M  V30 747 O 80.6564 -0.0262186 1.95882 0
M  V30 748 H 79.2364 0.709739 0.232981 0
M  V30 749 H 81.8984 1.94628 -0.102898 0
M  V30 750 H 80.9944 2.93479 1.06191 0
M  V30 751 N 81.2955 -0.223234 1.56011 0
M  V30 752 C 82.5435 -0.946003 1.78592 0
M  V30 753 C 82.8645 -1.84936 0.618349 0
M  V30 754 O 82.1345 -1.92473 -0.364833 0
M  V30 755 H 80.7145 -0.352298 0.658707 0
M  V30 756 H 83.3765 -0.235494 1.93472 0
M  V30 757 H 82.4725 -1.55381 2.70672 0
M  V30 758 N 82.7736 -1.49793 -0.48987 0
M  V30 759 C 84.0206 -1.59841 -1.24327 0
M  V30 760 C 84.3486 -0.290135 -1.92324 0
M  V30 761 O 83.6036 0.722749 -1.81865 0
M  V30 762 C 83.9026 -2.71488 -2.32441 0
M  V30 763 C 83.5686 -4.12614 -1.81826 0
M  V30 764 C 82.2306 -4.51017 -1.67742 0
M  V30 765 C 84.5826 -5.00892 -1.4407 0
M  V30 766 C 81.9106 -5.75459 -1.14297 0
M  V30 767 C 84.2626 -6.25863 -0.920742 0
M  V30 768 C 82.9266 -6.63086 -0.766383 0
M  V30 769 H 82.1966 -0.584899 -0.454944 0
M  V30 770 H 84.8436 -1.83663 -0.542215 0
M  V30 771 H 83.1486 -2.4168 -3.0838 0
M  V30 772 H 84.8456 -2.76469 -2.90458 0
M  V30 773 H 81.4356 -3.82307 -1.93751 0
M  V30 774 H 85.6196 -4.7187 -1.53794 0
M  V30 775 H 80.8756 -6.02989 -1.01068 0
M  V30 776 H 85.0496 -6.9364 -0.619448 0
M  V30 777 H 82.6766 -7.59393 -0.350083 0
M  V30 778 N 84.2517 0.741722 -1.39055 0
M  V30 779 C 85.4767 1.53607 -1.39354 0
M  V30 780 C 85.9017 1.88096 0.0116905 0
M  V30 781 O 85.2597 1.5143 0.996924 0
M  V30 782 C 85.3077 2.80441 -2.26682 0
M  V30 783 O 84.4117 3.76088 -1.69208 0
M  V30 784 H 83.7527 0.464142 -0.474835 0
M  V30 785 H 86.2827 0.915665 -1.82967 0
M  V30 786 H 86.2927 3.29246 -2.40959 0
M  V30 787 H 84.9677 2.5467 -3.2881 0
M  V30 788 H 83.5447 3.34833 -1.64138 0
M  V30 789 N 85.7298 1.2412 0.971189 0
M  V30 790 C 86.6928 1.03156 2.04674 0
M  V30 791 C 87.6928 -0.00990322 1.60797 0
M  V30 792 O 88.8828 0.230729 1.72665 0
M  V30 793 C 86.0148 0.562765 3.36223 0
M  V30 794 H 87.2078 1.98614 2.24705 0
M  V30 795 H 84.7608 1.06293 1.14593 0
M  V30 796 H 85.4958 -0.395176 3.21883 0
M  V30 797 H 85.2808 1.31441 3.69413 0
M  V30 798 H 86.7708 0.437015 4.15307 0
M  V30 799 N 87.2079 -1.17134 1.05439 0
M  V30 800 C 88.1709 -2.19439 0.661764 0
M  V30 801 C 89.1709 -1.58199 -0.288042 0
M  V30 802 O 90.3609 -1.74053 -0.0715803 0
M  V30 803 C 87.4929 -3.40889 -0.0276209 0
M  V30 804 H 88.6859 -2.55688 1.56728 0
M  V30 805 H 86.2389 -1.31259 0.848567 0
M  V30 806 H 86.9739 -3.10187 -0.94629 0
M  V30 807 H 86.7589 -3.86586 0.655238 0
M  V30 808 H 88.2489 -4.16603 -0.288342 0
M  V30 809 N 88.686 -0.835752 -1.33615 0
M  V30 810 C 89.911 -0.442389 -2.02627 0
M  V30 811 C 90.336 0.947735 -1.62479 0
M  V30 812 O 89.694 1.61907 -0.815826 0
M  V30 813 C 89.742 -0.567216 -3.56111 0
M  V30 814 O 88.846 0.407799 -4.10379 0
M  V30 815 H 88.187 -0.180278 -0.639059 0
M  V30 816 H 90.717 -1.12972 -1.70583 0
M  V30 817 H 90.727 -0.447708 -4.05536 0
M  V30 818 H 89.402 -1.58103 -3.84677 0
M  V30 819 H 87.979 0.246107 -3.72087 0
M  V30 820 N 90.1641 1.46063 -0.591896 0
M  V30 821 C 91.0971 2.27452 0.184617 0
M  V30 822 C 92.0751 1.36188 0.888351 0
M  V30 823 O 93.2591 1.65606 0.90039 0
M  V30 824 C 90.3861 3.14162 1.26571 0
M  V30 825 C 89.4321 4.21255 0.666814 0
M  V30 826 S 90.2651 5.33034 -0.513345 0
M  V30 827 C 91.4211 6.23311 0.56872 0
M  V30 828 H 91.6541 2.92963 -0.505939 0
M  V30 829 H 89.1871 1.49676 -0.379014 0
M  V30 830 H 91.1451 3.6468 1.88463 0
M  V30 831 H 89.8061 2.47946 1.92826 0
M  V30 832 H 88.9991 4.81788 1.47974 0
M  V30 833 H 88.6011 3.73797 0.123359 0
M  V30 834 H 90.8931 6.61758 1.45198 0
M  V30 835 H 91.8361 7.081 -7.23824e-05 0
M  V30 836 H 92.2441 5.57646 0.876996 0
M  V30 837 N 91.6422 0.330177 1.54103 0
M  V30 838 C 92.8892 -0.270405 2.00686 0
M  V30 839 C 93.2172 -1.51621 1.21825 0
M  V30 840 O 92.4722 -1.93536 0.29025 0
M  V30 841 C 92.7712 -0.643134 3.51566 0
M  V30 842 C 92.4372 0.504251 4.48072 0
M  V30 843 C 91.0992 0.819163 4.74176 0
M  V30 844 C 93.4512 1.27465 5.05373 0
M  V30 845 C 90.7792 1.90708 5.5484 0
M  V30 846 C 93.1312 2.35271 5.87223 0
M  V30 847 C 91.7952 2.67336 6.11627 0
M  V30 848 H 91.0652 -0.0989482 0.734364 0
M  V30 849 H 93.7122 0.455324 1.86008 0
M  V30 850 H 92.0172 -1.44938 3.64006 0
M  V30 851 H 93.7142 -1.11949 3.85056 0
M  V30 852 H 90.3042 0.248733 4.27878 0
M  V30 853 H 94.4882 1.04462 4.85182 0
M  V30 854 H 89.7442 2.15991 5.71977 0
M  V30 855 H 93.9182 2.95405 6.30641 0
M  V30 856 H 91.5452 3.51763 6.73919 0
M  V30 857 N 93.1203 -1.57491 0.0584922 0
M  V30 858 C 94.3683 -1.92597 -0.612436 0
M  V30 859 C 94.6893 -0.938162 -1.70949 0
M  V30 860 O 93.9593 0.0158301 -1.95894 0
M  V30 861 H 92.5393 -0.710964 -0.229214 0
M  V30 862 H 95.2013 -1.94571 0.113218 0
M  V30 863 H 94.2973 -2.94038 -1.04633 0
M  V30 864 N 94.5984 0.214957 -1.56127 0
M  V30 865 C 95.8234 0.95924 -1.83884 0
M  V30 866 C 96.2484 1.7689 -0.639644 0
M  V30 867 O 95.6064 1.76566 0.411601 0
M  V30 868 C 95.6544 1.84723 -3.09693 0
M  V30 869 O 94.7584 2.94346 -2.8885 0
M  V30 870 H 94.0994 0.27125 -0.606069 0
M  V30 871 H 96.6294 0.226276 -2.03345 0
M  V30 872 H 96.6394 2.25576 -3.39969 0
M  V30 873 H 95.3144 1.25218 -3.96602 0
M  V30 874 H 93.8914 2.57391 -2.69823 0
M  V30 875 N 96.0765 1.50051 0.48192 0
M  V30 876 C 97.3015 1.64508 1.26301 0
M  V30 877 C 97.7265 0.323851 1.85291 0
M  V30 878 O 97.0845 -0.710969 1.66778 0
M  V30 879 C 97.1325 2.7305 2.35533 0
M  V30 880 O 96.2365 2.3355 3.39895 0
M  V30 881 H 95.5775 0.549978 0.372048 0
M  V30 882 H 98.1075 1.9636 0.574786 0
M  V30 883 H 98.1175 2.95799 2.8101 0
M  V30 884 H 96.7925 3.68946 1.91967 0
M  V30 885 H 95.3695 2.21205 3.00204 0
M  V30 886 N 97.5546 -0.734337 1.39446 0
M  V30 887 C 98.7796 -1.52866 1.40167 0
M  V30 888 C 99.2046 -1.881 -0.00171513 0
M  V30 889 O 98.5626 -1.51957 -0.988879 0
M  V30 890 C 98.6106 -2.79235 2.28167 0
M  V30 891 O 97.7146 -3.75185 1.71201 0
M  V30 892 H 97.0556 -0.461618 0.477289 0
M  V30 893 H 99.5856 -0.905949 1.8345 0
M  V30 894 H 99.5956 -3.27963 2.42702 0
M  V30 895 H 98.2706 -2.52923 3.30156 0
M  V30 896 H 96.8476 -3.33958 1.65912 0
M  V30 897 N 99.0327 -1.24633 -0.964593 0
M  V30 898 C 100.281 -1.08573 -1.70459 0
M  V30 899 C 100.602 0.375655 -1.91347 0
M  V30 900 O 99.8717 1.26779 -1.49345 0
M  V30 901 H 98.4517 -0.398784 -0.631649 0
M  V30 902 H 101.114 -1.56601 -1.16026 0
M  V30 903 H 100.21 -1.58623 -2.68785 0
M  V30 904 N 100.511 1.16574 -1.06058 0
M  V30 905 C 101.758 1.87047 -0.775873 0
M  V30 906 C 102.086 1.81562 0.697534 0
M  V30 907 O 101.341 1.22445 1.52662 0
M  V30 908 C 101.64 3.36195 -1.21275 0
M  V30 909 C 101.306 3.6188 -2.68986 0
M  V30 910 C 99.9678 3.68599 -3.09335 0
M  V30 911 C 102.32 3.72648 -3.64394 0
M  V30 912 C 99.6478 3.83584 -4.43937 0
M  V30 913 C 102 3.89154 -4.98741 0
M  V30 914 C 100.664 3.94114 -5.3873 0
M  V30 915 H 99.9338 0.684452 -0.283912 0
M  V30 916 H 102.581 1.37853 -1.32925 0
M  V30 917 H 100.886 3.87505 -0.578528 0
M  V30 918 H 102.583 3.89103 -0.969542 0
M  V30 919 H 99.1728 3.57281 -2.36744 0
M  V30 920 H 103.357 3.66769 -3.34356 0
M  V30 921 H 98.6128 3.85677 -4.74409 0
M  V30 922 H 102.787 3.96427 -5.72554 0
M  V30 923 H 100.414 4.05478 -6.43033 0
M  V30 924 N 101.989 0.842826 1.3317 0
M  V30 925 C 103.237 0.439577 1.97262 0
M  V30 926 C 103.558 -1.00548 1.67078 0
M  V30 927 O 102.828 -1.70098 0.971779 0
M  V30 928 H 101.408 0.159558 0.72976 0
M  V30 929 H 104.07 1.07665 1.62463 0
M  V30 930 H 103.166 0.574886 3.0676 0
M  V30 931 N 103.467 -1.45747 0.599634 0
M  V30 932 C 104.715 -2.01893 0.0915472 0
M  V30 933 C 105.036 -1.47155 -1.27946 0
M  V30 934 O 104.306 -0.66273 -1.84349 0
M  V30 935 H 102.886 -0.746363 0.0308524 0
M  V30 936 H 105.548 -1.78645 0.779237 0
M  V30 937 H 104.644 -3.1208 0.0353086 0
M  V30 938 N 104.945 -0.338344 -1.53925 0
M  V30 939 C 106.193 0.259245 -2.0043 0
M  V30 940 C 106.514 1.51484 -1.22791 0
M  V30 941 O 105.784 1.93037 -0.33368 0
M  V30 942 H 104.364 0.0987845 -0.740439 0
M  V30 943 H 107.026 -0.458302 -1.89435 0
M  V30 944 H 106.122 0.505334 -3.07982 0
M  V30 945 N 106.423 1.57458 -0.0668435 0
M  V30 946 C 107.648 1.9804 0.616027 0
M  V30 947 C 108.073 0.944771 1.62652 0
M  V30 948 O 107.431 -0.0902094 1.81075 0
M  V30 949 C 107.479 3.37665 1.26549 0
M  V30 950 O 106.583 3.36701 2.38131 0
M  V30 951 H 105.924 0.644719 0.158849 0
M  V30 952 H 108.454 2.04121 -0.139891 0
M  V30 953 H 108.464 3.7474 1.6135 0
M  V30 954 H 107.139 4.12573 0.525016 0
M  V30 955 H 105.716 3.1139 2.0516 0
M  V30 956 N 107.901 -0.206675 1.56239 0
M  V30 957 C 109.149 -0.927007 1.79586 0
M  V30 958 C 109.47 -1.8427 0.637929 0
M  V30 959 O 108.74 -1.92849 -0.344398 0
M  V30 960 H 107.32 -0.345292 0.662407 0
M  V30 961 H 109.982 -0.21496 1.93711 0
M  V30 962 H 109.078 -1.52501 2.72305 0
M  V30 963 N 109.379 -1.50304 -0.473955 0
M  V30 964 C 110.604 -1.65175 -1.25427 0
M  V30 965 C 111.029 -0.333673 -1.85117 0
M  V30 966 O 110.387 0.702114 -1.67153 0
M  V30 967 C 110.435 -2.74295 -2.34082 0
M  V30 968 O 109.539 -2.35349 -3.38651 0
M  V30 969 H 108.88 -0.551944 -0.369126 0
M  V30 970 H 111.41 -1.96662 -0.564364 0
M  V30 971 H 111.42 -2.97285 -2.79438 0
M  V30 972 H 110.095 -3.69959 -1.90008 0
M  V30 973 H 108.672 -2.22794 -2.99027 0
M  V30 974 N 110.857 0.726932 -1.39834 0
M  V30 975 C 112.082 1.52121 -1.40976 0
M  V30 976 C 112.507 1.88098 -0.00826029 0
M  V30 977 O 111.865 1.52479 0.980807 0
M  V30 978 C 111.913 2.78021 -2.29644 0
M  V30 979 O 111.017 3.74272 -1.73188 0
M  V30 980 H 110.358 0.45908 -0.479731 0
M  V30 981 H 112.888 0.896207 -1.83927 0
M  V30 982 H 112.898 3.26671 -2.44438 0
M  V30 983 H 111.573 2.51169 -3.31492 0
M  V30 984 H 110.15 3.33073 -1.6768 0
M  V30 985 N 112.336 1.25143 0.95797 0
M  V30 986 C 113.269 0.995565 2.05338 0
M  V30 987 C 114.247 -0.0740423 1.62431 0
M  V30 988 O 115.431 0.0649212 1.88388 0
M  V30 989 C 112.558 0.504298 3.34925 0
M  V30 990 C 111.604 1.56393 3.96792 0
M  V30 991 S 112.437 3.14815 4.33188 0
M  V30 992 C 113.593 2.67415 5.65898 0
M  V30 993 H 113.826 1.92309 2.26726 0
M  V30 994 H 111.359 1.08635 1.09716 0
M  V30 995 H 113.317 0.227497 4.09869 0
M  V30 996 H 111.978 -0.402671 3.11508 0
M  V30 997 H 111.171 1.17082 4.90212 0
M  V30 998 H 110.773 1.79124 3.28315 0
M  V30 999 H 113.065 2.10833 6.4386 0
M  V30 1000 H 114.008 3.59463 6.10076 0
M  V30 1001 H 114.416 2.07521 5.24972 0
M  V30 1002 N 113.814 -1.1601 1.06675 0
M  V30 1003 C 114.777 -2.18724 0.685001 0
M  V30 1004 C 115.777 -1.58496 -0.271246 0
M  V30 1005 O 116.967 -1.74119 -0.0531156 0
M  V30 1006 C 114.099 -3.40899 0.00853648 0
M  V30 1007 H 115.292 -2.54011 1.59431 0
M  V30 1008 H 112.845 -1.30352 0.862441 0
M  V30 1009 H 113.58 -3.11173 -0.913337 0
M  V30 1010 H 113.365 -3.8587 0.696204 0
M  V30 1011 H 114.855 -4.16886 -0.24414 0
M  V30 1012 N 115.292 -0.849877 -1.32721 0
M  V30 1013 C 116.54 -0.450032 -1.97026 0
M  V30 1014 C 116.861 0.996604 -1.67609 0
M  V30 1015 O 116.131 1.6958 -0.980786 0
M  V30 1016 H 114.711 -0.163426 -0.728904 0
M  V30 1017 H 117.373 -1.08526 -1.6189 0
M  V30 1018 H 116.469 -0.591146 -3.0645 0
M  V30 1019 N 116.77 1.45427 -0.607355 0
M  V30 1020 C 118.018 2.01841 -0.102253 0
M  V30 1021 C 118.339 1.47832 1.27164 0
M  V30 1022 O 117.609 0.672497 1.83995 0
M  V30 1023 H 116.189 0.746188 -0.0348101 0
M  V30 1024 H 118.851 1.78229 -0.7887 0
M  V30 1025 H 117.947 3.12057 -0.0518585 0
M  V30 1026 N 118.248 0.346503 1.53744 0
M  V30 1027 C 119.178 -0.501193 2.28058 0
M  V30 1028 C 120.159 -1.10014 1.29734 0
M  V30 1029 O 121.344 -1.12097 1.58581 0
M  V30 1030 C 118.474 -1.65078 3.05559 0
M  V30 1031 C 117.428 -1.18003 4.11411 0
M  V30 1032 C 116.754 -2.41837 4.76884 0
M  V30 1033 C 118.054 -0.278394 5.21558 0
M  V30 1034 H 119.748 0.11875 2.99164 0
M  V30 1035 H 117.294 0.0585531 1.43881 0
M  V30 1036 H 119.247 -2.25028 3.56287 0
M  V30 1037 H 117.971 -2.29767 2.32109 0
M  V30 1038 H 116.63 -0.603331 3.61601 0
M  V30 1039 H 116.278 -3.0494 4.00026 0
M  V30 1040 H 115.978 -2.1102 5.48402 0
M  V30 1041 H 117.502 -3.02508 5.30397 0
M  V30 1042 H 118.916 -0.784823 5.67903 0
M  V30 1043 H 117.313 -0.0619707 6.00068 0
M  V30 1044 H 118.383 0.684677 4.80042 0
M  V30 1045 N 119.726 -1.57421 0.075193 0
M  V30 1046 C 120.974 -1.93236 -0.591974 0
M  V30 1047 C 121.295 -0.956241 -1.69944 0
M  V30 1048 O 120.565 -0.00494792 -1.95899 0
M  V30 1049 H 119.145 -0.713355 -0.22166 0
M  V30 1050 H 121.807 -1.9444 0.133848 0
M  V30 1051 H 120.903 -2.95131 -1.01509 0
M  V30 1052 N 121.204 0.198386 -1.56346 0
M  V30 1053 C 122.167 1.22952 -1.93431 0
M  V30 1054 C 123.167 1.38611 -0.815092 0
M  V30 1055 O 124.357 1.36479 -1.08255 0
M  V30 1056 C 121.489 2.59946 -2.20546 0
M  V30 1057 H 122.682 0.912626 -2.85677 0
M  V30 1058 H 120.235 0.43977 -1.49986 0
M  V30 1059 H 120.97 2.96696 -1.30927 0
M  V30 1060 H 120.755 2.49953 -3.02102 0
M  V30 1061 H 122.245 3.3431 -2.50253 0
M  V30 1062 N 122.682 1.50554 0.465978 0
M  V30 1063 C 123.93 1.61479 1.21528 0
M  V30 1064 C 124.251 0.319596 1.92363 0
M  V30 1065 O 123.521 -0.663194 1.84333 0
M  V30 1066 H 122.101 0.595055 0.451573 0
M  V30 1067 H 124.763 1.87355 0.53704 0
M  V30 1068 H 123.859 2.42846 1.96042 0
M  V30 1069 N 124.16 -0.719506 1.40217 0
M  V30 1070 C 125.39 -1.50646 1.41384 0
M  V30 1071 C 125.798 -1.89197 0.0107743 0
M  V30 1072 O 125.141 -1.55709 -0.974708 0
M  V30 1073 C 125.203 -2.81405 2.23722 0
M  V30 1074 C 124.867 -2.65199 3.72181 0
M  V30 1075 C 125.864 -2.32717 4.64907 0
M  V30 1076 C 123.549 -2.81586 4.1595 0
M  V30 1077 C 125.543 -2.16827 5.99387 0
M  V30 1078 C 123.23 -2.65313 5.50502 0
M  V30 1079 C 124.228 -2.32981 6.42035 0
M  V30 1080 O 123.916 -2.16827 7.74107 0
M  V30 1081 H 123.648 -0.471606 0.484318 0
M  V30 1082 H 126.202 -0.895456 1.84853 0
M  V30 1083 H 124.432 -3.44823 1.75026 0
M  V30 1084 H 126.121 -3.43102 2.16878 0
M  V30 1085 H 126.887 -2.19694 4.32388 0
M  V30 1086 H 122.766 -3.0574 3.45027 0
M  V30 1087 H 126.31 -1.91513 6.70797 0
M  V30 1088 H 122.207 -2.7792 5.82607 0
M  V30 1089 H 122.975 -2.31778 7.84998 0
M  V30 1090 N 125.638 -1.25649 -0.95132 0
M  V30 1091 C 126.886 -1.10375 -1.69298 0
M  V30 1092 C 127.207 0.355339 -1.91735 0
M  V30 1093 O 126.477 1.25188 -1.50681 0
M  V30 1094 H 125.057 -0.405461 -0.627384 0
M  V30 1095 H 127.719 -1.57823 -1.14358 0
M  V30 1096 H 126.815 -1.61465 -2.67087 0
M  V30 1097 N 127.117 1.15442 -1.07289 0
M  V30 1098 C 128.533 1.38201 -0.798288 0
M  V30 1099 C 128.733 1.92429 0.597769 0
M  V30 1100 O 127.789 2.12962 1.3566 0
M  V30 1101 C 129.102 2.35357 -1.87156 0
M  V30 1102 C 130.65 2.49021 -1.89624 0
M  V30 1103 C 131.125 3.49468 -2.96034 0
M  V30 1104 N 132.616 3.57003 -2.95132 0
M  V30 1105 C 133.351 4.34543 -3.74112 0
M  V30 1106 N 132.847 5.15421 -4.6294 0
M  V30 1107 N 134.64 4.29625 -3.62462 0
M  V30 1108 H 126.791 0.78584 -1.97328 0
M  V30 1109 H 129.054 0.408065 -0.855679 0
M  V30 1110 H 128.76 2.02626 -2.87464 0
M  V30 1111 H 128.634 3.35129 -1.73114 0
M  V30 1112 H 131.021 2.81051 -0.899687 0
M  V30 1113 H 131.102 1.4925 -2.07745 0
M  V30 1114 H 130.746 3.18173 -3.95889 0
M  V30 1115 H 130.676 4.48992 -2.75161 0
M  V30 1116 H 133.167 2.99276 -2.30743 0
M  V30 1117 H 133.48 5.7183 -5.19837 0
M  V30 1118 H 131.825 5.14729 -4.66989 0
M  V30 1119 H 135.016 3.65505 -2.92444 0
M  V30 1120 H 135.189 4.89807 -4.24256 0
M  V30 1121 N 128.595 0.856903 1.32268 0
M  V30 1122 C 129.558 0.308171 2.27119 0
M  V30 1123 C 130.558 -0.533421 1.51695 0
M  V30 1124 O 131.748 -0.344607 1.70757 0
M  V30 1125 C 128.88 -0.563757 3.36206 0
M  V30 1126 H 130.073 1.14535 2.77167 0
M  V30 1127 H 127.626 0.631421 1.42978 0
M  V30 1128 H 128.361 -1.42266 2.91429 0
M  V30 1129 H 128.146 0.0386749 3.92081 0
M  V30 1130 H 129.636 -0.940386 4.06874 0
M  V30 1131 N 130.073 -1.45103 0.615059 0
M  V30 1132 C 131.003 -2.33339 -0.0865619 0
M  V30 1133 C 131.984 -1.4727 -0.851209 0
M  V30 1134 O 133.169 -1.76026 -0.820281 0
M  V30 1135 C 130.299 -3.30095 -1.07956 0
M  V30 1136 C 129.253 -4.25858 -0.427628 0
M  V30 1137 C 128.579 -5.12361 -1.5294 0
M  V30 1138 C 129.879 -5.18165 0.655944 0
M  V30 1139 H 131.573 -2.92254 0.650224 0
M  V30 1140 H 129.119 -1.40532 0.314138 0
M  V30 1141 H 131.072 -3.90698 -1.57901 0
M  V30 1142 H 129.796 -2.69355 -1.84703 0
M  V30 1143 H 128.455 -3.66564 0.0510292 0
M  V30 1144 H 128.103 -4.47984 -2.28734 0
M  V30 1145 H 127.803 -5.77238 -1.09865 0
M  V30 1146 H 129.327 -5.75833 -2.03098 0
M  V30 1147 H 130.741 -5.72796 0.240257 0
M  V30 1148 H 129.138 -5.91559 1.00888 0
M  V30 1149 H 130.208 -4.60144 1.52957 0
M  V30 1150 N 131.551 -0.354651 -1.53558 0
M  V30 1151 C 132.799 0.237972 -2.00694 0
M  V30 1152 C 133.12 1.50173 -1.24391 0
M  V30 1153 O 132.39 1.92673 -0.354135 0
M  V30 1154 H 130.97 0.0909256 -0.741446 0
M  V30 1155 H 133.632 -0.478368 -1.88938 0
M  V30 1156 H 132.728 0.47264 -3.085 0
M  V30 1157 N 133.029 1.57378 -0.0835403 0
M  V30 1158 C 134.277 1.93547 0.581718 0
M  V30 1159 C 134.598 0.96524 1.69435 0
M  V30 1160 O 133.868 0.0153369 1.95894 0
M  V30 1161 H 132.448 0.714521 0.217874 0
M  V30 1162 H 135.11 1.94366 -0.144158 0
M  V30 1163 H 134.206 2.95665 0.999423 0
M  V30 1164 N 134.507 -0.190092 1.56449 0
M  V30 1165 C 135.755 -0.907908 1.80559 0
M  V30 1166 C 136.076 -1.83583 0.657438 0
M  V30 1167 O 135.346 -1.93203 -0.323924 0
M  V30 1168 H 133.926 -0.338247 0.666032 0
M  V30 1169 H 136.588 -0.194403 1.93928 0
M  V30 1170 H 135.684 -1.49604 2.73907 0
M  V30 1171 N 135.985 -1.50799 -0.457987 0
M  V30 1172 C 137.21 -1.66496 -1.23668 0
M  V30 1173 C 137.635 -0.353288 -1.84752 0
M  V30 1174 O 136.993 0.684346 -1.67888 0
M  V30 1175 C 137.041 -2.76763 -2.3116 0
M  V30 1176 O 136.145 -2.38928 -3.36136 0
M  V30 1177 H 135.486 -0.555828 -0.363252 0
M  V30 1178 H 138.016 -1.9725 -0.543474 0
M  V30 1179 H 138.026 -3.00232 -2.76269 0
M  V30 1180 H 136.701 -3.71954 -1.86073 0
M  V30 1181 H 135.278 -2.25953 -2.96647 0
M  V30 1182 N 137.463 0.71206 -1.40597 0
M  V30 1183 C 138.71 1.47197 -1.39065 0
M  V30 1184 C 139.038 1.94499 0.00583891 0
M  V30 1185 O 138.293 1.68752 0.99102 0
M  V30 1186 C 138.592 2.71039 -2.32965 0
M  V30 1187 C 138.258 2.42484 -3.80148 0
M  V30 1188 C 136.92 2.34406 -4.20247 0
M  V30 1189 C 139.272 2.18598 -4.73143 0
M  V30 1190 C 136.6 2.00516 -5.51371 0
M  V30 1191 C 138.952 1.8622 -6.0457 0
M  V30 1192 C 137.616 1.76626 -6.43708 0
M  V30 1193 H 136.886 0.538634 -0.508876 0
M  V30 1194 H 139.533 0.815325 -1.73276 0
M  V30 1195 H 137.838 3.41558 -1.91951 0
M  V30 1196 H 139.535 3.29138 -2.29061 0
M  V30 1197 H 136.125 2.49659 -3.4838 0
M  V30 1198 H 140.309 2.23793 -4.42979 0
M  V30 1199 H 135.565 1.91628 -5.80593 0
M  V30 1200 H 139.739 1.66752 -6.76141 0
M  V30 1201 H 137.366 1.50133 -7.45228 0
M  V30 1202 N 138.941 1.26152 0.944643 0
M  V30 1203 C 140.189 1.11271 1.6871 0
M  V30 1204 C 140.51 -0.345166 1.91921 0
M  V30 1205 O 139.78 -1.24387 1.51343 0
M  V30 1206 H 138.36 0.408783 0.625224 0
M  V30 1207 H 141.022 1.58427 1.1352 0
M  V30 1208 H 140.118 1.62879 2.66227 0
M  V30 1209 N 140.419 -1.14872 1.07899 0
M  V30 1210 C 141.667 -1.85422 0.803941 0
M  V30 1211 C 141.988 -1.83051 -0.67211 0
M  V30 1212 O 141.258 -1.27532 -1.48703 0
M  V30 1213 H 139.838 -0.686537 0.294408 0
M  V30 1214 H 142.5 -1.39226 1.3639 0
M  V30 1215 H 141.596 -2.90399 1.14346 0
M  V30 1216 N 141.898 -0.863906 -1.31812 0
M  V30 1217 C 142.828 -0.330843 -2.31144 0
M  V30 1218 C 143.809 0.575005 -1.60087 0
M  V30 1219 O 144.994 0.493304 -1.8783 0
M  V30 1220 C 142.124 0.47374 -3.44054 0
M  V30 1221 C 141.078 -0.338481 -4.26659 0
M  V30 1222 C 140.404 0.591412 -5.31419 0
M  V30 1223 C 141.704 -1.56926 -4.98168 0
M  V30 1224 H 143.398 -1.16086 -2.75979 0
M  V30 1225 H 140.944 -0.559657 -1.32679 0
M  V30 1226 H 142.897 0.857143 -4.12591 0
M  V30 1227 H 141.621 1.33721 -2.9797 0
M  V30 1228 H 140.28 -0.703754 -3.59782 0
M  V30 1229 H 139.928 1.45199 -4.81587 0
M  V30 1230 H 139.628 0.0519022 -5.87577 0
M  V30 1231 H 141.152 0.97179 -6.02817 0
M  V30 1232 H 142.566 -1.25764 -5.59336 0
M  V30 1233 H 140.963 -2.04739 -5.64094 0
M  V30 1234 H 142.033 -2.32544 -4.25501 0
M  V30 1235 N 143.376 1.44774 -0.622745 0
M  V30 1236 C 144.624 2.01721 -0.123655 0
M  V30 1237 C 144.945 1.49172 1.25589 0
M  V30 1238 O 144.215 0.691974 1.83272 0
M  V30 1239 H 142.795 0.745777 -0.0427225 0
M  V30 1240 H 145.457 1.77382 -0.807559 0
M  V30 1241 H 144.553 3.11984 -0.0849534 0
M  V30 1242 N 144.854 0.36279 1.53368 0
M  V30 1243 C 145.787 -0.528507 2.21996 0
M  V30 1244 C 146.765 -1.0852 1.21087 0
M  V30 1245 O 147.949 -1.14186 1.4998 0
M  V30 1246 C 145.076 -1.72893 2.91249 0
M  V30 1247 C 144.122 -1.29994 4.06207 0
M  V30 1248 S 144.955 -0.303575 5.34639 0
M  V30 1249 C 146.111 -1.51039 6.07403 0
M  V30 1250 H 146.344 0.0543423 2.9725 0
M  V30 1251 H 143.877 0.146889 1.537 0
M  V30 1252 H 145.835 -2.41751 3.31763 0
M  V30 1253 H 144.496 -2.28303 2.15724 0
M  V30 1254 H 143.689 -2.19549 4.53667 0
M  V30 1255 H 143.291 -0.690608 3.67569 0
M  V30 1256 H 145.583 -2.44186 6.31965 0
M  V30 1257 H 146.526 -1.07721 6.99858 0
M  V30 1258 H 146.934 -1.71518 5.37812 0
M  V30 1259 N 146.332 -1.57332 0.0918853 0
M  V30 1260 C 147.58 -1.93853 -0.571446 0
M  V30 1261 C 147.901 -0.974212 -1.6892 0
M  V30 1262 O 147.171 -0.0257254 -1.95883 0
M  V30 1263 H 145.751 -0.715666 -0.214082 0
M  V30 1264 H 148.413 -1.94287 0.154464 0
M  V30 1265 H 147.509 -2.96191 -0.983729 0
M  V30 1266 N 147.81 0.181792 -1.56548 0
M  V30 1267 C 149.057 0.900097 -1.81396 0
M  V30 1268 C 149.385 1.82695 -0.667281 0
M  V30 1269 O 148.64 1.92614 0.346146 0
M  V30 1270 C 148.939 1.73728 -3.12335 0
M  V30 1271 C 148.605 0.960255 -4.40556 0
M  V30 1272 C 147.267 0.745766 -4.75386 0
M  V30 1273 C 149.619 0.414477 -5.19549 0
M  V30 1274 C 146.947 -0.0257694 -5.86694 0
M  V30 1275 C 149.299 -0.343916 -6.31664 0
M  V30 1276 C 147.963 -0.569301 -6.65068 0
M  V30 1277 H 147.233 0.329369 -0.663775 0
M  V30 1278 H 149.88 0.165647 -1.90782 0
M  V30 1279 H 148.185 2.54081 -2.98245 0
M  V30 1280 H 149.882 2.29591 -3.28769 0
M  V30 1281 H 146.472 1.13746 -4.13231 0
M  V30 1282 H 150.656 0.567554 -4.93044 0
M  V30 1283 H 145.912 -0.210233 -6.11038 0
M  V30 1284 H 150.086 -0.774133 -6.92084 0
M  V30 1285 H 147.713 -1.16903 -7.51158 0
M  V30 1286 N 149.288 1.51039 0.449983 0
M  V30 1287 C 150.536 1.62759 1.19808 0
M  V30 1288 C 150.857 0.339981 1.92013 0
M  V30 1289 O 150.127 -0.643606 1.85026 0
M  V30 1290 H 148.707 0.599811 0.445237 0
M  V30 1291 H 151.369 1.87914 0.517138 0
M  V30 1292 H 150.465 2.44911 1.93455 0
M  V30 1293 N 150.766 -0.704594 1.40972 0
M  V30 1294 C 152.014 -1.46169 1.39568 0
M  V30 1295 C 152.335 -1.95 0.00253745 0
M  V30 1296 O 151.605 -1.71095 -0.954114 0
M  V30 1297 H 150.185 -0.542326 0.513704 0
M  V30 1298 H 152.847 -0.834553 1.76128 0
M  V30 1299 H 151.943 -2.32922 2.07735 0
M  V30 1300 N 152.244 -1.26651 -0.937939 0
M  V30 1301 C 153.469 -1.15279 -1.72411 0
M  V30 1302 C 153.894 0.287866 -1.85884 0
M  V30 1303 O 153.252 1.20855 -1.35143 0
M  V30 1304 C 153.3 -1.83028 -3.10698 0
M  V30 1305 O 152.404 -1.12128 -3.96864 0
M  V30 1306 H 151.745 -0.401504 -0.528858 0
M  V30 1307 H 154.275 -1.67531 -1.1745 0
M  V30 1308 H 154.285 -1.89981 -3.6107 0
M  V30 1309 H 152.96 -2.87833 -3.00208 0
M  V30 1310 H 151.537 -1.13173 -3.55312 0
M  V30 1311 N 153.722 1.14298 -1.08507 0
M  V30 1312 C 155.133 1.66926 -0.836227 0
M  V30 1313 C 155.484 1.85576 0.63686 0
M  V30 1314 O 154.609 1.56767 1.49175 0
M  V30 1315 C 155.204 3.03219 -1.51142 0
M  V30 1316 C 153.763 3.52876 -1.30979 0
M  V30 1317 C 152.91 2.2833 -1.57356 0
M  V30 1318 H 155.861 0.983491 -1.24552 0
M  V30 1319 H 155.882 3.68726 -0.939211 0
M  V30 1320 H 155.394 2.89612 -2.58353 0
M  V30 1321 H 153.495 3.71703 -0.258429 0
M  V30 1322 H 153.608 4.33586 -2.03814 0
M  V30 1323 H 151.972 2.34454 -0.995164 0
M  V30 1324 H 152.755 2.17298 -2.65775 0
M  V30 1325 N 155.201 0.870884 1.31352 0
M  V30 1326 C 156.449 0.48132 1.96285 0
M  V30 1327 C 156.77 -0.969813 1.69173 0
M  V30 1328 O 156.04 -1.67998 1.00764 0
M  V30 1329 H 154.62 0.175002 0.726212 0
M  V30 1330 H 157.282 1.11087 1.60143 0
M  V30 1331 H 156.378 0.639825 3.05471 0
M  V30 1332 N 156.679 -1.44442 0.630414 0
M  V30 1333 C 157.927 -2.01653 0.134351 0
M  V30 1334 C 158.248 -1.49836 -1.24796 0
M  V30 1335 O 157.518 -0.701684 -1.82902 0
M  V30 1336 H 156.098 -0.74554 0.0466769 0
M  V30 1337 H 158.76 -1.76952 0.816955 0
M  V30 1338 H 157.856 -3.11935 0.101498 0
M  V30 1339 N 158.157 -0.370918 -1.53173 0
M  V30 1340 C 159.405 0.216673 -2.00935 0
M  V30 1341 C 159.726 1.48845 -1.25977 0
M  V30 1342 O 158.996 1.92286 -0.374551 0
M  V30 1343 H 157.576 0.0830565 -0.742368 0
M  V30 1344 H 160.238 -0.49838 -1.8842 0
M  V30 1345 H 159.334 0.439893 -3.08984 0
M  V30 1346 N 159.635 1.57281 -0.100228 0
M  V30 1347 C 160.86 1.99302 0.573881 0
M  V30 1348 C 161.285 0.979059 1.60611 0
M  V30 1349 O 160.643 -0.0517803 1.81226 0
M  V30 1350 C 160.691 3.40274 1.19358 0
M  V30 1351 O 159.795 3.41676 2.30935 0
M  V30 1352 H 159.136 0.647944 0.145138 0
M  V30 1353 H 161.666 2.03779 -0.183156 0
M  V30 1354 H 161.676 3.78078 1.53365 0
M  V30 1355 H 160.351 4.13594 0.437385 0
M  V30 1356 H 158.928 3.15672 1.98509 0
M  V30 1357 N 161.113 -0.173488 1.56642 0
M  V30 1358 C 162.043 -1.2171 1.99271 0
M  V30 1359 C 163.024 -1.46289 0.867959 0
M  V30 1360 O 164.209 -1.5766 1.13388 0
M  V30 1361 C 161.339 -2.55651 2.35074 0
M  V30 1362 C 160.293 -2.45645 3.50489 0
M  V30 1363 C 159.619 -3.84056 3.72028 0
M  V30 1364 C 160.919 -1.96302 4.84007 0
M  V30 1365 H 162.613 -0.86275 2.867 0
M  V30 1366 H 160.159 -0.413571 1.37933 0
M  V30 1367 H 162.112 -3.2886 2.63494 0
M  V30 1368 H 160.836 -2.92869 1.44552 0
M  V30 1369 H 159.495 -1.7489 3.22194 0
M  V30 1370 H 159.143 -4.18664 2.788 0
M  V30 1371 H 158.843 -3.7823 4.49684 0
M  V30 1372 H 160.367 -4.58854 4.02846 0
M  V30 1373 H 161.781 -2.59284 5.11317 0
M  V30 1374 H 160.178 -2.01429 5.65284 0
M  V30 1375 H 161.248 -0.917226 4.76146 0
M  V30 1376 N 162.591 -1.51276 -0.441967 0
M  V30 1377 C 163.839 -1.63392 -1.18943 0
M  V30 1378 C 164.16 -0.350159 -1.9183 0
M  V30 1379 O 163.43 0.633784 -1.85364 0
M  V30 1380 H 162.01 -0.602164 -0.442049 0
M  V30 1381 H 164.672 -1.88186 -0.507165 0
M  V30 1382 H 163.768 -2.45934 -1.92154 0
M  V30 1383 N 164.069 0.697108 -1.41344 0
M  V30 1384 C 165.318 1.45279 -1.39918 0
M  V30 1385 C 165.631 1.95597 -0.0109624 0
M  V30 1386 O 166.837 2.71208 0.125919 0
M  V30 1387 C 165.293 2.62695 -2.46007 0
M  V30 1388 C 164.901 2.19169 -3.90729 0
M  V30 1389 C 166.645 3.40336 -2.53715 0
M  V30 1390 C 164.552 3.33535 -4.88373 0
M  V30 1391 H 163.482 0.545692 -0.520323 0
M  V30 1392 H 166.133 0.756929 -1.67161 0
M  V30 1393 H 164.515 3.34541 -2.11892 0
M  V30 1394 H 165.689 1.54623 -4.34083 0
M  V30 1395 H 164.004 1.54525 -3.86666 0
M  V30 1396 H 166.601 4.2547 -3.2385 0
M  V30 1397 H 166.944 3.85418 -1.5735 0
M  V30 1398 H 167.477 2.75546 -2.86913 0
M  V30 1399 H 164.216 2.93468 -5.86137 0
M  V30 1400 H 163.736 3.96936 -4.49668 0
M  V30 1401 H 165.415 3.99335 -5.09059 0
M  V30 1402 N 165.547 1.27147 0.931209 0
M  V30 1403 C 166.477 1.12081 2.04842 0
M  V30 1404 C 167.458 0.0232364 1.70084 0
M  V30 1405 O 168.643 0.197085 1.93197 0
M  V30 1406 C 165.773 0.76354 3.38803 0
M  V30 1407 C 164.727 1.81396 3.87659 0
M  V30 1408 C 164.053 1.31075 5.18385 0
M  V30 1409 C 165.353 3.21739 4.11438 0
M  V30 1410 H 167.047 2.05537 2.17703 0
M  V30 1411 H 164.593 0.989603 1.04608 0
M  V30 1412 H 166.546 0.644982 4.16435 0
M  V30 1413 H 165.27 -0.206727 3.25945 0
M  V30 1414 H 163.929 1.92136 3.12217 0
M  V30 1415 H 163.577 0.330037 5.01916 0
M  V30 1416 H 163.277 2.013 5.52044 0
M  V30 1417 H 164.801 1.20506 5.98591 0
M  V30 1418 H 166.215 3.14019 4.79651 0
M  V30 1419 H 164.612 3.89644 4.56397 0
M  V30 1420 H 165.682 3.67054 3.16859 0
M  V30 1421 N 167.025 -1.13721 1.09112 0
M  V30 1422 C 168.25 -1.89314 0.847053 0
M  V30 1423 C 168.675 -1.78416 -0.595774 0
M  V30 1424 O 168.033 -1.12942 -1.41823 0
M  V30 1425 C 168.081 -3.3701 1.28284 0
M  V30 1426 O 167.185 -4.10054 0.439267 0
M  V30 1427 H 166.526 -0.588745 0.307044 0
M  V30 1428 H 169.056 -1.43902 1.45442 0
M  V30 1429 H 169.066 -3.87834 1.26683 0
M  V30 1430 H 167.741 -3.4426 2.33363 0
M  V30 1431 H 166.318 -3.69266 0.519312 0
M  V30 1432 N 168.503 -0.877838 -1.30888 0
M  V30 1433 C 169.751 -0.491723 -1.96027 0
M  V30 1434 C 170.072 0.960827 -1.69685 0
M  V30 1435 O 169.342 1.67462 -1.01654 0
M  V30 1436 H 167.922 -0.17885 -0.725273 0
M  V30 1437 H 170.584 -1.11935 -1.59551 0
M  V30 1438 H 169.68 -0.656016 -3.05128 0
M  V30 1439 N 169.982 1.44106 -0.638065 0
M  V30 1440 C 170.93 2.3248 0.0748149 0
M  V30 1441 C 171.924 1.47746 0.828702 0
M  V30 1442 O 173.13 1.64049 0.740816 0
M  V30 1443 H 169.505 0.750771 0.0429686 0
M  V30 1444 H 171.476 2.90348 -0.688504 0
M  V30 1445 C 170.225 3.31843 1.03805 0
M  V30 1446 H 169.548 3.97059 0.467375 0
M  V30 1447 H 170.988 3.96345 1.50622 0
M  V30 1448 C 169.447 2.61291 2.1267 0
M  V30 1449 O 169.977 2.41702 3.20847 0
M  V30 1450 N 168.183 2.20915 1.88798 0
M  V30 1451 H 167.73 2.37047 1.00829 0
M  V30 1452 H 167.688 1.74038 2.61836 0
M  V30 1453 N 171.46 0.379036 1.52974 0
M  V30 1454 C 172.737 -0.263479 1.93817 0
M  V30 1455 C 173.117 -1.65244 1.31368 0
M  V30 1456 O 172.465 -2.23448 0.477856 0
M  V30 1457 C 172.675 -0.300166 3.47707 0
M  V30 1458 C 174.023 -0.534061 4.21228 0
M  V30 1459 O 175.047 -0.38081 3.54159 0
M  V30 1460 O 173.906 -0.833501 5.40106 0
M  V30 1461 H 171 -0.161149 0.811147 0
M  V30 1462 H 173.546 0.432798 1.64088 0
M  V30 1463 H 172.318 0.673138 3.85467 0
M  V30 1464 H 171.941 -1.04179 3.83709 0
M  V30 1465 N 172.938 -1.57226 0.108567 0
M  V30 1466 C 174.186 -1.94448 -0.550853 0
M  V30 1467 C 174.507 -0.992074 -1.67878 0
M  V30 1468 O 173.777 -0.0465 -1.95845 0
M  V30 1469 H 172.357 -0.717897 -0.206479 0
M  V30 1470 H 175.019 -1.94112 0.175062 0
M  V30 1471 H 174.115 -2.97218 -0.952259 0
M  V30 1472 N 174.416 0.165178 -1.56732 0
M  V30 1473 C 175.664 0.879068 -1.8198 0
M  V30 1474 C 175.985 1.82514 -0.686561 0
M  V30 1475 O 175.255 1.93694 0.293146 0
M  V30 1476 H 173.835 0.327608 -0.671329 0
M  V30 1477 H 176.497 0.163526 -1.94213 0
M  V30 1478 H 175.593 1.45228 -2.76252 0
M  V30 1479 N 175.894 1.51508 0.433938 0
M  V30 1480 C 176.824 1.76016 1.53429 0
M  V30 1481 C 177.805 0.610112 1.58782 0
M  V30 1482 O 178.99 0.853177 1.74455 0
M  V30 1483 C 176.12 1.88831 2.9148 0
M  V30 1484 C 175.074 3.04288 3.00987 0
M  V30 1485 C 174.4 3.0229 4.4105 0
M  V30 1486 C 175.7 4.44193 2.74754 0
M  V30 1487 H 177.394 2.68152 1.33171 0
M  V30 1488 H 174.94 1.29035 0.639214 0
M  V30 1489 H 176.893 2.04559 3.6842 0
M  V30 1490 H 175.617 0.933455 3.12976 0
M  V30 1491 H 174.276 2.8827 2.26486 0
M  V30 1492 H 173.924 2.04576 4.59519 0
M  V30 1493 H 173.624 3.79822 4.4834 0
M  V30 1494 H 175.148 3.20116 5.1996 0
M  V30 1495 H 176.562 4.60544 3.41426 0
M  V30 1496 H 174.959 5.23457 2.9345 0
M  V30 1497 H 176.029 4.53996 1.70339 0
M  V30 1498 N 177.372 -0.689602 1.41712 0
M  V30 1499 C 178.302 -1.81577 1.46806 0
M  V30 1500 C 179.283 -1.66945 0.326105 0
M  V30 1501 O 180.468 -1.86588 0.538377 0
M  V30 1502 C 177.598 -3.19762 1.35535 0
M  V30 1503 C 176.552 -3.49107 2.47605 0
M  V30 1504 C 175.878 -4.86711 2.21397 0
M  V30 1505 C 177.178 -3.47483 3.89939 0
M  V30 1506 H 178.872 -1.7757 2.41058 0
M  V30 1507 H 176.418 -0.852887 1.16025 0
M  V30 1508 H 178.371 -3.98263 1.3771 0
M  V30 1509 H 177.095 -3.24409 0.377708 0
M  V30 1510 H 175.754 -2.72959 2.44722 0
M  V30 1511 H 175.402 -4.8799 1.21961 0
M  V30 1512 H 175.102 -5.0731 2.96497 0
M  V30 1513 H 176.626 -5.67515 2.25297 0
M  V30 1514 H 178.04 -4.1598 3.94505 0
M  V30 1515 H 176.437 -3.79615 4.64771 0
M  V30 1516 H 177.507 -2.46341 4.17665 0
M  V30 1517 N 178.85 -1.27639 -0.924453 0
M  V30 1518 C 180.075 -1.17101 -1.71179 0
M  V30 1519 C 180.5 0.268134 -1.86179 0
M  V30 1520 O 179.858 1.19415 -1.36418 0
M  V30 1521 C 179.906 -1.86313 -3.08739 0
M  V30 1522 O 179.01 -1.16331 -3.95652 0
M  V30 1523 H 178.351 -0.407091 -0.524569 0
M  V30 1524 H 180.881 -1.68767 -1.15666 0
M  V30 1525 H 180.891 -1.938 -3.59034 0
M  V30 1526 H 179.566 -2.91001 -2.97138 0
M  V30 1527 H 178.143 -1.16935 -3.54091 0
M  V30 1528 N 180.328 1.1314 -1.09713 0
M  V30 1529 C 181.576 1.84119 -0.833338 0
M  V30 1530 C 181.897 1.84097 0.642904 0
M  V30 1531 O 181.167 1.29881 1.46655 0
M  V30 1532 H 179.747 0.681766 -0.305293 0
M  V30 1533 H 182.409 1.37038 -1.38588 0
M  V30 1534 H 181.505 2.88543 -1.18951 0
M  V30 1535 N 181.806 0.884767 1.30421 0
M  V30 1536 C 183.031 0.517288 2.00845 0
M  V30 1537 C 183.456 -0.886779 1.65885 0
M  V30 1538 O 182.814 -1.58768 0.875354 0
M  V30 1539 C 182.862 0.698994 3.5376 0
M  V30 1540 O 181.966 -0.255208 4.1161 0
M  V30 1541 H 181.307 0.203872 0.631927 0
M  V30 1542 H 183.837 1.19225 1.66272 0
M  V30 1543 H 183.847 0.597912 4.03595 0
M  V30 1544 H 182.522 1.72271 3.78544 0
M  V30 1545 H 181.099 -0.10784 3.72744 0
M  V30 1546 N 183.284 -1.43765 0.645699 0
M  V30 1547 C 184.194 -2.34544 -0.0512957 0
M  V30 1548 C 185.21 -1.53455 -0.82022 0
M  V30 1549 O 186.386 -1.86133 -0.769176 0
M  V30 1550 C 183.451 -3.31636 -1.01087 0
M  V30 1551 C 182.512 -4.2863 -0.239712 0
M  V30 1552 C 181.745 -5.21084 -1.15358 0
M  V30 1553 O 181.968 -5.1779 -2.39269 0
M  V30 1554 O 180.902 -5.98593 -0.630038 0
M  V30 1555 H 184.728 -2.95624 0.695718 0
M  V30 1556 H 182.313 -1.43781 0.405882 0
M  V30 1557 H 184.195 -3.9136 -1.56254 0
M  V30 1558 H 182.87 -2.73069 -1.73824 0
M  V30 1559 H 181.777 -3.72408 0.355356 0
M  V30 1560 H 183.11 -4.90157 0.447936 0
M  V30 1561 N 184.763 -0.387143 -1.52771 0
M  V30 1562 C 185.71 0.449048 -2.26389 0
M  V30 1563 C 186.68 1.05961 -1.27912 0
M  V30 1564 O 187.865 1.08804 -1.56737 0
M  V30 1565 C 185.005 1.57155 -3.0724 0
M  V30 1566 C 184.118 0.984066 -4.20643 0
M  V30 1567 C 183.253 2.07745 -4.88892 0
M  V30 1568 C 182.292 1.46574 -5.94292 0
M  V30 1569 N 181.429 2.49834 -6.56146 0
M  V30 1570 H 186.269 -0.185205 -2.97424 0
M  V30 1571 H 183.806 -0.103164 -1.46738 0
M  V30 1572 H 185.764 2.23309 -3.52405 0
M  V30 1573 H 184.394 2.17615 -2.38419 0
M  V30 1574 H 183.446 0.212193 -3.79808 0
M  V30 1575 H 184.758 0.497029 -4.96318 0
M  V30 1576 H 183.912 2.81673 -5.3735 0
M  V30 1577 H 182.651 2.59807 -4.12737 0
M  V30 1578 H 181.656 0.711696 -5.45174 0
M  V30 1579 H 182.881 0.953088 -6.72379 0
M  V30 1580 H 180.827 3.0107 -5.82832 0
M  V30 1581 H 180.744 2.05879 -7.27427 0
M  V30 1582 H 182.012 3.23399 -7.09249 0
M  V30 1583 N 186.241 1.57166 -0.116904 0
M  V30 1584 C 187.151 2.18745 0.847812 0
M  V30 1585 C 188.167 1.163 1.29423 0
M  V30 1586 O 189.343 1.48761 1.35765 0
M  V30 1587 C 186.408 2.77307 2.0809 0
M  V30 1588 C 185.469 3.94781 1.68661 0
M  V30 1589 C 184.702 4.50541 2.86091 0
M  V30 1590 O 184.925 4.05202 4.01456 0
M  V30 1591 O 183.859 5.41256 2.63298 0
M  V30 1592 H 187.685 3.01632 0.353778 0
M  V30 1593 H 185.27 1.49005 0.108599 0
M  V30 1594 H 187.152 3.14647 2.80313 0
M  V30 1595 H 185.827 1.97452 2.56504 0
M  V30 1596 H 184.734 3.62214 0.935518 0
M  V30 1597 H 186.067 4.76065 1.24991 0
M  V30 1598 N 187.719 -0.156864 1.56817 0
M  V30 1599 C 188.947 -0.886316 1.86955 0
M  V30 1600 C 189.362 -1.75185 0.703975 0
M  V30 1601 O 188.719 -1.79555 -0.326552 0
M  V30 1602 C 188.77 -1.75117 3.16253 0
M  V30 1603 O 188.491 -0.920537 4.2832 0
M  V30 1604 C 189.992 -2.58905 3.59837 0
M  V30 1605 H 187.212 -0.25678 0.619923 0
M  V30 1606 H 189.756 -0.152615 2.0393 0
M  V30 1607 H 187.911 -2.43805 3.01062 0
M  V30 1608 H 188.325 -1.51337 5.02192 0
M  V30 1609 H 189.799 -3.1518 4.53172 0
M  V30 1610 H 190.276 -3.34472 2.84649 0
M  V30 1611 H 190.882 -1.95526 3.7769 0
M  V30 1612 N 189.197 -1.51736 -0.425897 0
M  V30 1613 C 190.13 -1.68574 -1.53812 0
M  V30 1614 C 191.108 -0.53328 -1.53606 0
M  V30 1615 O 192.292 -0.758555 -1.72564 0
M  V30 1616 C 189.419 -1.70977 -2.92377 0
M  V30 1617 C 188.465 -2.92324 -3.10563 0
M  V30 1618 S 189.298 -4.52952 -2.85648 0
M  V30 1619 C 190.454 -4.58117 -4.26474 0
M  V30 1620 H 190.687 -2.62647 -1.39298 0
M  V30 1621 H 188.22 -1.41564 -0.616361 0
M  V30 1622 H 190.178 -1.73047 -3.72243 0
M  V30 1623 H 188.839 -0.78061 -3.04245 0
M  V30 1624 H 188.032 -2.90439 -4.11899 0
M  V30 1625 H 187.634 -2.88055 -2.38538 0
M  V30 1626 H 189.926 -4.34462 -5.19855 0
M  V30 1627 H 190.869 -5.59983 -4.33388 0
M  V30 1628 H 191.277 -3.8732 -4.10662 0
M  V30 1629 N 190.675 0.682077 -1.42076 0
M  V30 1630 C 191.607 1.80755 -1.40926 0
M  V30 1631 C 192.62 1.59833 -0.309398 0
M  V30 1632 O 193.809 1.69087 -0.572014 0
M  V30 1633 C 190.909 3.17744 -1.17865 0
M  V30 1634 C 190.082 3.65578 -2.40149 0
M  V30 1635 C 189.141 4.81277 -2.12742 0
M  V30 1636 O 188.167 4.92197 -2.85887 0
M  V30 1637 N 189.369 5.69474 -1.12602 0
M  V30 1638 H 192.134 1.82229 -2.37935 0
M  V30 1639 H 189.695 0.864903 -1.36861 0
M  V30 1640 H 191.687 3.9279 -0.9746 0
M  V30 1641 H 190.257 3.11214 -0.294068 0
M  V30 1642 H 189.477 2.81291 -2.76169 0
M  V30 1643 H 190.765 3.94278 -3.21593 0
M  V30 1644 H 190.163 5.63297 -0.520899 0
M  V30 1645 H 188.72 6.44363 -0.981842 0
M  V30 1646 N 192.153 1.28127 0.917671 0
M  V30 1647 C 193.101 1.11569 2.04096 0
M  V30 1648 C 194.095 0.0360242 1.69362 0
M  V30 1649 O 195.301 0.194501 1.78946 0
M  V30 1650 H 191.676 0.344097 0.668656 0
M  V30 1651 H 193.647 2.06711 2.15205 0
M  V30 1652 C 192.396 0.790197 3.38602 0
M  V30 1653 H 191.719 1.61293 3.6582 0
M  V30 1654 H 193.159 0.714271 4.1794 0
M  V30 1655 C 191.618 -0.505897 3.3308 0
M  V30 1656 O 192.148 -1.53736 3.71117 0
M  V30 1657 N 190.354 -0.505193 2.86175 0
M  V30 1658 H 189.901 0.334621 2.55417 0
M  V30 1659 H 189.859 -1.37243 2.82863 0
M  V30 1660 N 193.631 -1.12557 1.10312 0
M  V30 1661 C 194.561 -2.20341 0.772798 0
M  V30 1662 C 195.542 -1.68198 -0.25365 0
M  V30 1663 O 196.727 -1.93831 -0.119699 0
M  V30 1664 C 193.857 -3.46709 0.202443 0
M  V30 1665 C 192.811 -4.11996 1.15943 0
M  V30 1666 C 192.137 -5.328 0.450345 0
M  V30 1667 C 193.437 -4.5828 2.50552 0
M  V30 1668 H 195.131 -2.48229 1.674 0
M  V30 1669 H 192.677 -1.19308 0.806326 0
M  V30 1670 H 194.63 -4.2138 -0.0407752 0
M  V30 1671 H 193.354 -3.18245 -0.734001 0
M  V30 1672 H 192.013 -3.39305 1.38808 0
M  V30 1673 H 191.661 -5.00602 -0.490531 0
M  V30 1674 H 191.361 -5.7743 1.08851 0
M  V30 1675 H 192.885 -6.10219 0.215642 0
M  V30 1676 H 194.299 -5.2433 2.31843 0
M  V30 1677 H 192.696 -5.13683 3.10242 0
M  V30 1678 H 193.766 -3.72329 3.10643 0
M  V30 1679 N 195.109 -0.891671 -1.2995 0
M  V30 1680 C 196.057 -0.353066 -2.29905 0
M  V30 1681 C 197.051 0.543509 -1.60444 0
M  V30 1682 O 198.257 0.4272 -1.74857 0
M  V30 1683 H 194.632 -0.095531 -0.745907 0
M  V30 1684 H 196.603 -1.20961 -2.72784 0
M  V30 1685 C 195.352 0.411475 -3.45257 0
M  V30 1686 H 194.675 -0.269182 -3.98893 0
M  V30 1687 H 196.115 0.753328 -4.17254 0
M  V30 1688 C 194.574 1.6111 -2.9588 0
M  V30 1689 O 195.104 2.71045 -2.96475 0
M  V30 1690 N 193.31 1.45054 -2.51809 0
M  V30 1691 H 192.857 0.556175 -2.51524 0
M  V30 1692 H 192.815 2.25453 -2.1913 0
M  V30 1693 N 196.587 1.43421 -0.653314 0
M  V30 1694 C 197.864 1.95361 -0.0966581 0
M  V30 1695 C 198.244 1.59461 1.38331 0
M  V30 1696 O 197.592 0.879777 2.10884 0
M  V30 1697 C 197.802 3.47311 -0.342988 0
M  V30 1698 C 199.15 4.23875 -0.24798 0
M  V30 1699 O 200.174 3.55133 -0.275553 0
M  V30 1700 O 199.033 5.4623 -0.171771 0
M  V30 1701 H 196.127 0.826945 0.00956291 0
M  V30 1702 H 198.673 1.5336 -0.726558 0
M  V30 1703 H 197.445 3.66569 -1.36906 0
M  V30 1704 H 197.068 3.9631 0.319975 0
M  V30 1705 N 198.065 0.39524 1.52563 0
M  V30 1706 C 199.481 0.0454682 1.59535 0
M  V30 1707 C 199.681 -1.44056 1.4089 0
M  V30 1708 O 198.737 -2.20579 1.22888 0
M  V30 1709 C 200.05 0.527963 2.96029 0
M  V30 1710 C 201.598 0.484733 3.09224 0
M  V30 1711 C 202.073 0.943512 4.48176 0
M  V30 1712 N 203.564 0.899765 4.54377 0
M  V30 1713 C 204.299 1.22609 5.60138 0
M  V30 1714 N 203.795 1.62319 6.73516 0
M  V30 1715 N 205.588 1.14696 5.50274 0
M  V30 1716 H 197.739 1.36261 1.62931 0
M  V30 1717 H 200.002 0.558887 0.765735 0
M  V30 1718 H 199.708 1.56607 3.14908 0
M  V30 1719 H 199.582 -0.0698056 3.77135 0
M  V30 1720 H 201.969 -0.544298 2.90037 0
M  V30 1721 H 202.05 1.11838 2.30056 0
M  V30 1722 H 201.694 1.9708 4.68104 0
M  V30 1723 H 201.624 0.286817 5.25818 0
M  V30 1724 H 204.115 0.607632 3.72983 0
M  V30 1725 H 204.428 1.85567 7.5019 0
M  V30 1726 H 202.773 1.66211 6.74833 0
M  V30 1727 H 205.964 0.835701 4.6058 0
M  V30 1728 H 206.137 1.40459 6.32594 0
M  V30 1729 N 199.544 -1.57102 0.125237 0
M  V30 1730 C 200.474 -2.18659 -0.819174 0
M  V30 1731 C 201.455 -1.12843 -1.27281 0
M  V30 1732 O 202.64 -1.41104 -1.33429 0
M  V30 1733 C 199.77 -2.79096 -2.06695 0
M  V30 1734 C 198.724 -3.90548 -1.75088 0
M  V30 1735 C 198.05 -4.37821 -3.06948 0
M  V30 1736 C 199.35 -5.12356 -1.01435 0
M  V30 1737 H 201.044 -2.9783 -0.306202 0
M  V30 1738 H 198.59 -1.4326 -0.145839 0
M  V30 1739 H 200.543 -3.2082 -2.73226 0
M  V30 1740 H 199.267 -1.97223 -2.60328 0
M  V30 1741 H 197.926 -3.49409 -1.10944 0
M  V30 1742 H 197.574 -3.52799 -3.58527 0
M  V30 1743 H 197.274 -5.12982 -2.86571 0
M  V30 1744 H 198.798 -4.822 -3.74587 0
M  V30 1745 H 200.212 -5.5106 -1.58132 0
M  V30 1746 H 198.609 -5.9314 -0.911319 0
M  V30 1747 H 199.679 -4.849 -0.00218681 0
M  V30 1748 N 201.022 0.148545 -1.56898 0
M  V30 1749 C 201.985 1.16736 -1.97244 0
M  V30 1750 C 202.985 1.35947 -0.858777 0
M  V30 1751 O 204.175 1.32966 -1.12542 0
M  V30 1752 C 201.307 2.52798 -2.28705 0
M  V30 1753 H 202.5 0.821279 -2.88435 0
M  V30 1754 H 200.053 0.391831 -1.51309 0
M  V30 1755 H 200.788 2.92381 -1.403 0
M  V30 1756 H 200.573 2.40216 -3.09901 0
M  V30 1757 H 202.063 3.26179 -2.60762 0
M  V30 1758 N 202.5 1.5196 0.417844 0
M  V30 1759 C 203.725 1.69717 1.1921 0
M  V30 1760 C 204.15 0.402148 1.83751 0
M  V30 1761 O 203.508 -0.639593 1.69643 0
M  V30 1762 C 203.556 2.82794 2.2374 0
M  V30 1763 O 202.66 2.47756 3.29683 0
M  V30 1764 H 202.001 0.565263 0.348387 0
M  V30 1765 H 204.531 1.98621 0.490985 0
M  V30 1766 H 204.541 3.07452 2.68212 0
M  V30 1767 H 203.216 3.76756 1.76146 0
M  V30 1768 H 201.793 2.33739 2.90552 0
M  V30 1769 N 203.978 -0.674533 1.42435 0
M  V30 1770 C 205.208 -1.46071 1.46105 0
M  V30 1771 C 205.616 -1.89067 0.0709605 0
M  V30 1772 O 204.959 -1.58731 -0.924677 0
M  V30 1773 C 205.021 -2.74145 2.32561 0
M  V30 1774 C 204.685 -2.53224 3.8043 0
M  V30 1775 C 205.682 -2.17809 4.72075 0
M  V30 1776 C 203.367 -2.6821 4.24698 0
M  V30 1777 C 205.361 -1.97648 6.05982 0
M  V30 1778 C 203.048 -2.47665 5.58664 0
M  V30 1779 C 204.046 -2.12437 6.49122 0
M  V30 1780 O 203.734 -1.9209 7.80613 0
M  V30 1781 H 203.466 -0.455959 0.499076 0
M  V30 1782 H 206.02 -0.836193 1.87609 0
M  V30 1783 H 204.25 -3.3908 1.85908 0
M  V30 1784 H 205.939 -3.36028 2.27683 0
M  V30 1785 H 206.705 -2.05826 4.39159 0
M  V30 1786 H 202.584 -2.94609 3.54579 0
M  V30 1787 H 206.128 -1.70075 6.7655 0
M  V30 1788 H 202.025 -2.59244 5.91154 0
M  V30 1789 H 202.793 -2.06686 7.91974 0
M  V30 1790 N 205.456 -1.28612 -0.910864 0
M  V30 1791 C 206.386 -1.15326 -2.03032 0
M  V30 1792 C 207.367 -0.0502924 -1.70026 0
M  V30 1793 O 208.552 -0.227797 -1.92859 0
M  V30 1794 C 205.682 -0.817343 -3.37545 0
M  V30 1795 C 204.636 -1.8754 -3.84724 0
M  V30 1796 C 203.962 -1.39305 -5.16235 0
M  V30 1797 C 205.262 -3.28244 -4.06267 0
M  V30 1798 H 206.956 -2.08975 -2.14406 0
M  V30 1799 H 204.502 -1.00612 -1.03021 0
M  V30 1800 H 206.455 -0.711151 -4.15356 0
M  V30 1801 H 205.179 0.154846 -3.26233 0
M  V30 1802 H 203.838 -1.97079 -3.09121 0
M  V30 1803 H 203.486 -0.409846 -5.01328 0
M  V30 1804 H 203.186 -2.10057 -5.48771 0
M  V30 1805 H 204.71 -1.30014 -5.96598 0
M  V30 1806 H 206.124 -3.21611 -4.74594 0
M  V30 1807 H 204.521 -3.96855 -4.5014 0
M  V30 1808 H 205.591 -3.72048 -3.10979 0
M  V30 1809 N 206.934 1.1197 -1.10907 0
M  V30 1810 C 208.211 1.79959 -0.766432 0
M  V30 1811 C 208.591 1.97466 0.746363 0
M  V30 1812 O 207.939 1.55491 1.67436 0
M  V30 1813 C 208.149 3.14009 -1.52314 0
M  V30 1814 C 209.497 3.89134 -1.69883 0
M  V30 1815 O 210.521 3.2368 -1.48692 0
M  V30 1816 O 209.38 5.06572 -2.05054 0
M  V30 1817 H 206.474 0.779208 -0.277062 0
M  V30 1818 H 209.02 1.18762 -1.21217 0
M  V30 1819 H 207.792 2.96587 -2.55249 0
M  V30 1820 H 207.415 3.82915 -1.07059 0
M  V30 1821 N 208.412 0.89855 1.29475 0
M  V30 1822 C 209.359 0.373819 2.27753 0
M  V30 1823 C 210.329 -0.543444 1.56958 0
M  V30 1824 O 211.514 -0.468934 1.84948 0
M  V30 1825 C 208.654 -0.393648 3.42848 0
M  V30 1826 C 207.767 0.554379 4.28428 0
M  V30 1827 C 206.902 -0.230026 5.30702 0
M  V30 1828 C 205.941 0.712599 6.07938 0
M  V30 1829 N 205.078 -0.0373283 7.0209 0
M  V30 1830 H 209.918 1.21699 2.72017 0
M  V30 1831 H 207.455 0.611456 1.33789 0
M  V30 1832 H 209.413 -0.85466 4.08352 0
M  V30 1833 H 208.043 -1.20128 2.99615 0
M  V30 1834 H 207.095 1.13391 3.63107 0
M  V30 1835 H 208.407 1.27597 4.82204 0
M  V30 1836 H 207.561 -0.752288 6.02018 0
M  V30 1837 H 206.3 -0.984758 4.77654 0
M  V30 1838 H 205.305 1.24637 5.35486 0
M  V30 1839 H 206.53 1.46664 6.63074 0
M  V30 1840 H 204.476 -0.774348 6.51414 0
M  V30 1841 H 204.393 0.624374 7.53417 0
M  V30 1842 H 205.661 -0.539891 7.77628 0
M  V30 1843 N 209.89 -1.43072 0.660911 0
M  V30 1844 C 211.136 -2.0202 0.177708 0
M  V30 1845 C 211.469 -1.52066 -1.20787 0
M  V30 1846 O 210.744 -0.716987 -1.80802 0
M  V30 1847 C 211.027 -3.59561 0.197019 0
M  V30 1848 C 210.88 -4.19727 1.61706 0
M  V30 1849 C 212.199 -4.37664 -0.462396 0
M  V30 1850 H 209.318 -0.734034 0.0660494 0
M  V30 1851 H 211.96 -1.70272 0.843058 0
M  V30 1852 H 210.11 -3.86739 -0.369527 0
M  V30 1853 H 211.782 -4.03553 2.23479 0
M  V30 1854 H 210.025 -3.76084 2.16201 0
M  V30 1855 H 210.696 -5.28834 1.58237 0
M  V30 1856 H 213.172 -4.16095 0.0197215 0
M  V30 1857 H 212.048 -5.47305 -0.418188 0
M  V30 1858 H 212.309 -4.14493 -1.53778 0
M  V30 1859 N 211.368 -0.403325 -1.52352 0
M  V30 1860 C 212.784 -0.0539281 -1.59509 0
M  V30 1861 C 212.984 1.43307 -1.41652 0
M  V30 1862 O 212.04 2.19924 -1.24056 0
M  V30 1863 C 213.353 -0.543654 -2.95745 0
M  V30 1864 C 214.901 -0.501125 -3.08962 0
M  V30 1865 C 215.376 -0.967267 -4.47669 0
M  V30 1866 N 216.867 -0.923849 -4.53893 0
M  V30 1867 C 217.602 -1.25578 -5.5948 0
M  V30 1868 N 217.098 -1.65889 -6.72646 0
M  V30 1869 N 218.891 -1.17613 -5.49658 0
M  V30 1870 H 211.042 -1.37123 -1.62206 0
M  V30 1871 H 213.305 -0.56294 -0.76276 0
M  V30 1872 H 213.011 -1.58275 -3.14073 0
M  V30 1873 H 212.885 0.0498042 -3.77167 0
M  V30 1874 H 215.272 0.528909 -2.90321 0
M  V30 1875 H 215.353 -1.13056 -2.2946 0
M  V30 1876 H 214.997 -1.9956 -4.67053 0
M  V30 1877 H 214.927 -0.314698 -5.25659 0
M  V30 1878 H 217.418 -0.627403 -3.72655 0
M  V30 1879 H 217.731 -1.89543 -7.49195 0
M  V30 1880 H 216.076 -1.69787 -6.73942 0
M  V30 1881 H 219.267 -0.860115 -4.6013 0
M  V30 1882 H 219.44 -1.43812 -6.3184 0
M  V30 1883 N 212.846 1.57033 -0.133567 0
M  V30 1884 C 213.809 2.14897 0.796995 0
M  V30 1885 C 214.809 1.0874 1.18458 0
M  V30 1886 O 215.999 1.34446 1.1077 0
M  V30 1887 C 213.131 2.70112 2.07973 0
M  V30 1888 H 214.324 2.98457 0.293873 0
M  V30 1889 H 211.877 1.55871 0.115787 0
M  V30 1890 H 212.612 1.9018 2.62682 0
M  V30 1891 H 212.397 3.47764 1.81115 0
M  V30 1892 H 213.887 3.14738 2.74462 0
M  V30 1893 N 214.325 -0.140222 1.56975 0
M  V30 1894 C 215.255 -1.17456 2.01808 0
M  V30 1895 C 216.236 -1.44415 0.898794 0
M  V30 1896 O 217.421 -1.5522 1.16707 0
M  V30 1897 C 214.551 -2.50607 2.40444 0
M  V30 1898 C 213.505 -2.38155 3.55621 0
M  V30 1899 C 212.831 -3.76078 3.80091 0
M  V30 1900 C 214.131 -1.85991 4.88062 0
M  V30 1901 H 215.825 -0.801743 2.88466 0
M  V30 1902 H 213.371 -0.38422 1.38779 0
M  V30 1903 H 215.324 -3.23197 2.7041 0
M  V30 1904 H 214.048 -2.89737 1.50732 0
M  V30 1905 H 212.707 -1.68016 3.25832 0
M  V30 1906 H 212.355 -4.12656 2.87618 0
M  V30 1907 H 212.055 -3.68606 4.57606 0
M  V30 1908 H 213.579 -4.50206 4.12488 0
M  V30 1909 H 214.993 -2.4838 5.16701 0
M  V30 1910 H 213.39 -1.89393 5.6943 0
M  V30 1911 H 214.46 -0.816023 4.77984 0
M  V30 1912 N 215.803 -1.52179 -0.40978 0
M  V30 1913 C 216.713 -1.78364 -1.52392 0
M  V30 1914 C 217.729 -0.669183 -1.60617 0
M  V30 1915 O 218.905 -0.954518 -1.77344 0
M  V30 1916 C 215.97 -1.92822 -2.88133 0
M  V30 1917 C 215.031 -3.16725 -2.898 0
M  V30 1918 C 214.264 -3.30483 -4.19067 0
M  V30 1919 O 214.487 -2.49522 -5.12928 0
M  V30 1920 O 213.421 -4.2363 -4.27576 0
M  V30 1921 H 217.247 -2.72931 -1.33201 0
M  V30 1922 H 214.832 -1.37016 -0.59557 0
M  V30 1923 H 216.714 -2.04157 -3.68643 0
M  V30 1924 H 215.389 -1.01444 -3.07393 0
M  V30 1925 H 214.296 -3.10848 -2.08146 0
M  V30 1926 H 215.629 -4.07881 -2.75489 0
M  V30 1927 N 217.281 0.66697 -1.42791 0
M  V30 1928 C 218.191 1.80962 -1.49299 0
M  V30 1929 C 219.207 1.69775 -0.381108 0
M  V30 1930 O 220.383 1.91188 -0.633188 0
M  V30 1931 C 217.448 3.17156 -1.40045 0
M  V30 1932 C 216.509 3.40242 -2.6179 0
M  V30 1933 C 215.742 4.69939 -2.52969 0
M  V30 1934 O 215.965 5.48372 -1.56985 0
M  V30 1935 O 214.899 4.94441 -3.43237 0
M  V30 1936 H 218.725 1.78427 -2.45759 0
M  V30 1937 H 216.31 0.823713 -1.24641 0
M  V30 1938 H 218.192 3.98413 -1.37276 0
M  V30 1939 H 216.867 3.20312 -0.467138 0
M  V30 1940 H 215.774 2.58802 -2.70134 0
M  V30 1941 H 217.107 3.41923 -3.54047 0
M  V30 1942 N 218.759 1.29093 0.90403 0
M  V30 1943 C 219.722 1.1386 1.98919 0
M  V30 1944 C 220.722 0.0753457 1.60623 0
M  V30 1945 O 221.912 0.321931 1.71199 0
M  V30 1946 C 219.044 0.740198 3.32767 0
M  V30 1947 H 220.237 2.10246 2.13861 0
M  V30 1948 H 217.79 1.12218 1.08797 0
M  V30 1949 H 218.525 -0.223997 3.23525 0
M  V30 1950 H 218.31 1.50838 3.61926 0
M  V30 1951 H 219.8 0.656546 4.12407 0
M  V30 1952 N 220.237 -1.11381 1.11499 0
M  V30 1953 C 221.185 -2.19522 0.768956 0
M  V30 1954 C 222.179 -1.67693 -0.239857 0
M  V30 1955 O 223.385 -1.79727 -0.0990755 0
M  V30 1956 H 219.76 -0.715711 0.230786 0
M  V30 1957 H 221.731 -2.45954 1.68964 0
M  V30 1958 C 220.48 -3.46945 0.229073 0
M  V30 1959 H 219.803 -3.8718 0.996596 0
M  V30 1960 H 221.243 -4.23993 0.0251441 0
M  V30 1961 C 219.702 -3.2042 -1.04079 0
M  V30 1962 O 220.232 -3.41178 -2.12038 0
M  V30 1963 N 218.438 -2.74151 -0.963823 0
M  V30 1964 H 217.985 -2.57459 -0.0851722 0
M  V30 1965 H 217.943 -2.56781 -1.81414 0
M  V30 1966 N 221.715 -0.905404 -1.28997 0
M  V30 1967 C 222.943 -0.549846 -1.9946 0
M  V30 1968 C 223.358 0.866834 -1.67724 0
M  V30 1969 O 222.715 1.57298 -0.925404 0
M  V30 1970 C 222.766 -0.739387 -3.53858 0
M  V30 1971 O 222.487 -2.10031 -3.84472 0
M  V30 1972 C 223.988 -0.389541 -4.41585 0
M  V30 1973 H 221.208 -0.210429 -0.637151 0
M  V30 1974 H 223.752 -1.21632 -1.64396 0
M  V30 1975 H 221.907 -0.120023 -3.87214 0
M  V30 1976 H 222.321 -2.13385 -4.79132 0
M  V30 1977 H 223.795 -0.572972 -5.49018 0
M  V30 1978 H 224.272 0.673756 -4.34001 0
M  V30 1979 H 224.878 -0.986089 -4.1371 0
M  V30 1980 N 223.193 1.4272 -0.668489 0
M  V30 1981 C 224.103 2.34596 0.0139753 0
M  V30 1982 C 225.119 1.5474 0.795703 0
M  V30 1983 O 226.295 1.87334 0.739466 0
M  V30 1984 C 223.36 3.33202 0.957982 0
M  V30 1985 C 222.421 4.28957 0.17149 0
M  V30 1986 C 221.654 5.22853 1.07053 0
M  V30 1987 O 221.877 5.21531 2.31001 0
M  V30 1988 O 220.811 5.9952 0.534727 0
M  V30 1989 H 224.637 2.9448 -0.742661 0
M  V30 1990 H 222.222 1.43117 -0.428705 0
M  V30 1991 H 224.104 3.93796 1.50008 0
M  V30 1992 H 222.779 2.758 1.69458 0
M  V30 1993 H 221.686 3.71796 -0.414558 0
M  V30 1994 H 223.019 4.89383 -0.52586 0
M  V30 1995 N 224.671 0.411399 1.52136 0
M  V30 1996 C 225.601 -0.404015 2.29978 0
M  V30 1997 C 226.582 -1.04412 1.34284 0
M  V30 1998 O 227.767 -1.0527 1.63192 0
M  V30 1999 C 224.897 -1.5197 3.12286 0
M  V30 2000 C 223.851 -1.00448 4.16046 0
M  V30 2001 C 223.177 -2.21393 4.86712 0
M  V30 2002 C 224.477 -0.0569336 5.22269 0
M  V30 2003 H 226.171 0.245529 2.98392 0
M  V30 2004 H 223.717 0.119525 1.43503 0
M  V30 2005 H 225.67 -2.09715 3.6551 0
M  V30 2006 H 224.394 -2.19716 2.41646 0
M  V30 2007 H 223.053 -0.449421 3.63835 0
M  V30 2008 H 222.701 -2.87699 4.12599 0
M  V30 2009 H 222.401 -1.87571 5.56858 0
M  V30 2010 H 223.925 -2.7974 5.4275 0
M  V30 2011 H 225.339 -0.54325 5.7072 0
M  V30 2012 H 223.736 0.192594 5.99791 0
M  V30 2013 H 224.806 0.887663 4.76706 0
M  V30 2014 N 226.149 -1.5696 0.141893 0
M  V30 2015 C 227.059 -2.20066 -0.812905 0
M  V30 2016 C 228.075 -1.18344 -1.27557 0
M  V30 2017 O 229.251 -1.50902 -1.33381 0
M  V30 2018 C 226.316 -2.80583 -2.03652 0
M  V30 2019 C 225.377 -3.97414 -1.62359 0
M  V30 2020 C 224.61 -4.55036 -2.78887 0
M  V30 2021 O 224.833 -4.11538 -3.94959 0
M  V30 2022 O 223.767 -5.45376 -2.54653 0
M  V30 2023 H 227.593 -3.02157 -0.305746 0
M  V30 2024 H 225.178 -1.49159 -0.0848799 0
M  V30 2025 H 227.06 -3.19067 -2.75272 0
M  V30 2026 H 225.735 -2.01508 -2.5333 0
M  V30 2027 H 224.642 -3.63656 -0.877775 0
M  V30 2028 H 225.975 -4.77994 -1.17401 0
M  V30 2029 N 227.627 0.131896 -1.57047 0
M  V30 2030 C 228.575 1.18146 -2.0036 0
M  V30 2031 C 229.569 1.43614 -0.898406 0
M  V30 2032 O 230.775 1.43729 -1.08361 0
M  V30 2033 H 227.15 0.398042 -0.638018 0
M  V30 2034 H 229.121 0.789564 -2.87765 0
M  V30 2035 C 227.87 2.50341 -2.41298 0
M  V30 2036 H 227.193 2.31578 -3.25902 0
M  V30 2037 H 228.633 3.22371 -2.75414 0
M  V30 2038 C 227.092 3.11984 -1.27153 0
M  V30 2039 O 227.622 3.97484 -0.580459 0
M  V30 2040 N 225.828 2.71662 -1.03189 0
M  V30 2041 H 225.375 2.02231 -1.59564 0
M  V30 2042 H 225.333 3.13238 -0.270077 0
M  V30 2043 N 229.106 1.52395 0.401703 0
M  V30 2044 C 230.053 1.76268 1.48991 0
M  V30 2045 C 231.023 0.605386 1.54675 0
M  V30 2046 O 232.208 0.843742 1.7113 0
M  V30 2047 C 229.348 1.92592 2.86361 0
M  V30 2048 C 228.461 3.20259 2.89928 0
M  V30 2049 C 227.596 3.26972 4.18644 0
M  V30 2050 C 226.635 4.48812 4.16214 0
M  V30 2051 N 225.772 4.52877 5.36514 0
M  V30 2052 H 230.612 2.6914 1.27935 0
M  V30 2053 H 228.149 1.33355 0.620871 0
M  V30 2054 H 230.107 2.0004 3.66115 0
M  V30 2055 H 228.737 1.03093 3.05895 0
M  V30 2056 H 227.789 3.21945 2.02621 0
M  V30 2057 H 229.101 4.10056 2.83999 0
M  V30 2058 H 228.255 3.33533 5.06794 0
M  V30 2059 H 226.994 2.35126 4.27278 0
M  V30 2060 H 225.999 4.4239 3.26453 0
M  V30 2061 H 227.224 5.41961 4.09213 0
M  V30 2062 H 225.17 3.63917 5.45802 0
M  V30 2063 H 225.087 5.36529 5.32609 0
M  V30 2064 H 226.355 4.63676 6.26597 0
M  V30 2065 N 230.584 -0.659388 1.43143 0
M  V30 2066 C 231.833 -1.41518 1.43721 0
M  V30 2067 C 232.146 -1.95499 0.0628176 0
M  V30 2068 O 233.352 -2.71446 -0.0539683 0
M  V30 2069 C 231.808 -2.5608 2.52885 0
M  V30 2070 C 231.416 -2.08733 3.96402 0
M  V30 2071 C 233.16 -3.3349 2.62649 0
M  V30 2072 C 231.067 -3.20469 4.97045 0
M  V30 2073 H 229.997 -0.531705 0.534608 0
M  V30 2074 H 232.648 -0.712343 1.69109 0
M  V30 2075 H 231.03 -3.28805 2.20688 0
M  V30 2076 H 232.204 -1.43059 4.3803 0
M  V30 2077 H 230.519 -1.44219 3.90627 0
M  V30 2078 H 233.116 -4.16734 3.35017 0
M  V30 2079 H 233.459 -3.8111 1.67513 0
M  V30 2080 H 233.992 -2.67842 2.94118 0
M  V30 2081 H 230.731 -2.77824 5.93712 0
M  V30 2082 H 230.251 -3.84874 4.60034 0
M  V30 2083 H 231.93 -3.85698 5.19467 0
M  V30 2084 N 232.062 -1.29571 -0.897171 0
M  V30 2085 C 233.478 -1.07637 -1.17841 0
M  V30 2086 C 233.678 0.170713 -2.00776 0
M  V30 2087 O 232.734 0.867768 -2.3712 0
M  V30 2088 C 234.047 -2.3332 -1.8969 0
M  V30 2089 C 235.595 -2.38664 -2.02505 0
M  V30 2090 C 236.07 -3.64157 -2.77765 0
M  V30 2091 N 237.561 -3.64894 -2.85318 0
M  V30 2092 C 238.296 -4.58679 -3.44094 0
M  V30 2093 N 237.792 -5.62799 -4.04017 0
M  V30 2094 N 239.585 -4.46245 -3.41793 0
M  V30 2095 H 231.736 -2.09598 -0.343883 0
M  V30 2096 H 233.999 -0.923333 -0.214848 0
M  V30 2097 H 233.705 -3.24262 -1.36187 0
M  V30 2098 H 233.579 -2.41025 -2.9015 0
M  V30 2099 H 235.966 -1.48208 -2.55183 0
M  V30 2100 H 236.047 -2.34943 -1.01171 0
M  V30 2101 H 235.691 -4.54965 -2.25763 0
M  V30 2102 H 235.621 -3.65137 -3.7945 0
M  V30 2103 H 238.112 -2.89613 -2.42761 0
M  V30 2104 H 238.425 -6.3048 -4.46895 0
M  V30 2105 H 236.77 -5.66605 -4.02472 0
M  V30 2106 H 239.961 -3.64094 -2.94199 0
M  V30 2107 H 240.134 -5.19518 -3.87304 0
M  V30 2108 N 233.54 1.10788 -1.12088 0
M  V30 2109 C 234.45 2.20599 -0.798338 0
M  V30 2110 C 235.466 1.72712 0.21135 0
M  V30 2111 O 236.642 2.01348 0.0458477 0
M  V30 2112 C 233.707 3.45771 -0.253674 0
M  V30 2113 C 232.768 4.08411 -1.32283 0
M  V30 2114 C 232.001 5.27608 -0.80406 0
M  V30 2115 O 232.224 5.69241 0.363478 0
M  V30 2116 O 231.158 5.8101 -1.57198 0
M  V30 2117 H 234.984 2.50614 -1.7154 0
M  V30 2118 H 232.569 1.19454 -0.897275 0
M  V30 2119 H 234.451 4.21376 0.0453691 0
M  V30 2120 H 233.126 3.1739 0.636005 0
M  V30 2121 H 232.033 3.34507 -1.67499 0
M  V30 2122 H 233.366 4.40986 -2.18614 0
M  V30 2123 N 235.018 0.912232 1.28515 0
M  V30 2124 C 236.264 0.554851 1.95686 0
M  V30 2125 C 236.619 -0.89138 1.70506 0
M  V30 2126 O 235.912 -1.62529 1.01464 0
M  V30 2127 C 236.106 0.798392 3.48368 0
M  V30 2128 C 235.935 2.26674 3.88393 0
M  V30 2129 C 234.705 2.91657 4.12631 0
M  V30 2130 C 236.903 3.24303 3.99164 0
M  V30 2131 N 234.885 4.28805 4.39317 0
M  V30 2132 C 236.256 4.4661 4.30046 0
M  V30 2133 C 238.311 3.19723 3.81683 0
M  V30 2134 C 237.014 5.64915 4.45268 0
M  V30 2135 C 239.04 4.37325 3.98121 0
M  V30 2136 C 238.402 5.58406 4.29375 0
M  V30 2137 H 234.501 0.252876 0.739985 0
M  V30 2138 H 237.085 1.17565 1.55199 0
M  V30 2139 H 235.256 0.20688 3.87849 0
M  V30 2140 H 236.988 0.405193 4.02666 0
M  V30 2141 H 233.743 2.42393 4.06869 0
M  V30 2142 H 234.167 4.99712 4.56746 0
M  V30 2143 H 238.809 2.27191 3.56573 0
M  V30 2144 H 236.527 6.57927 4.6921 0
M  V30 2145 H 240.113 4.35282 3.86033 0
M  V30 2146 H 238.993 6.47889 4.41825 0
M  V30 2147 N 236.496 -1.42363 0.676048 0
M  V30 2148 C 237.726 -2.05561 0.206967 0
M  V30 2149 C 238.134 -1.50887 -1.14148 0
M  V30 2150 O 237.477 -0.643933 -1.72044 0
M  V30 2151 C 237.539 -3.5944 0.0659508 0
M  V30 2152 C 237.203 -4.36812 1.34331 0
M  V30 2153 C 238.2 -4.67383 2.27704 0
M  V30 2154 C 235.885 -4.76429 1.59125 0
M  V30 2155 C 237.879 -5.36509 3.44147 0
M  V30 2156 C 235.566 -5.45294 2.75857 0
M  V30 2157 C 236.564 -5.75259 3.68193 0
M  V30 2158 O 236.252 -6.42712 4.82883 0
M  V30 2159 H 235.984 -0.668872 0.0979084 0
M  V30 2160 H 238.538 -1.83467 0.923531 0
M  V30 2161 H 236.768 -3.80197 -0.706204 0
M  V30 2162 H 238.457 -4.0427 -0.363418 0
M  V30 2163 H 239.223 -4.37275 2.09799 0
M  V30 2164 H 235.102 -4.52498 0.881258 0
M  V30 2165 H 238.646 -5.59814 4.16238 0
M  V30 2166 H 234.543 -5.7482 2.93688 0
M  V30 2167 H 235.311 -6.61204 4.82444 0
M  V30 2168 N 237.974 -0.419461 -1.51915 0
M  V30 2169 C 238.884 0.407528 -2.31033 0
M  V30 2170 C 239.9 1.04413 -1.3919 0
M  V30 2171 O 241.076 1.0434 -1.72265 0
M  V30 2172 C 238.141 1.50365 -3.12396 0
M  V30 2173 C 237.202 0.889029 -4.19994 0
M  V30 2174 C 236.435 1.93291 -4.97468 0
M  V30 2175 O 236.658 3.15259 -4.75361 0
M  V30 2176 O 235.592 1.53339 -5.8204 0
M  V30 2177 H 239.418 -0.237865 -3.02767 0
M  V30 2178 H 237.003 -0.182413 -1.48282 0
M  V30 2179 H 238.885 2.13975 -3.63032 0
M  V30 2180 H 237.56 2.13345 -2.43445 0
M  V30 2181 H 236.467 0.215353 -3.7348 0
M  V30 2182 H 237.8 0.302991 -4.91267 0
M  V30 2183 N 239.452 1.56882 -0.150215 0
M  V30 2184 C 240.68 2.00593 0.506948 0
M  V30 2185 C 241.095 1.03033 1.58208 0
M  V30 2186 O 240.452 0.0278396 1.82479 0
M  V30 2187 C 240.503 3.44209 1.10465 0
M  V30 2188 O 240.224 4.3804 0.0724636 0
M  V30 2189 C 241.725 4.03214 1.84211 0
M  V30 2190 H 238.945 0.65795 0.13169 0
M  V30 2191 H 241.489 2.03018 -0.245743 0
M  V30 2192 H 239.644 3.42625 1.80795 0
M  V30 2193 H 240.058 5.22007 0.510793 0
M  V30 2194 H 241.532 5.0569 2.21318 0
M  V30 2195 H 242.009 3.44107 2.72923 0
M  V30 2196 H 242.615 4.08437 1.18572 0
M  V30 2197 N 240.93 -0.123565 1.57115 0
M  V30 2198 C 242.346 -0.476961 1.52306 0
M  V30 2199 C 242.546 -1.82109 0.86248 0
M  V30 2200 O 241.602 -2.48586 0.442884 0
M  V30 2201 C 242.915 -0.465661 2.97073 0
M  V30 2202 C 244.463 -0.549534 3.08138 0
M  V30 2203 C 244.938 -0.568669 4.54456 0
M  V30 2204 N 246.429 -0.630237 4.58892 0
M  V30 2205 C 247.164 -0.666415 5.69514 0
M  V30 2206 N 246.66 -0.660514 6.89644 0
M  V30 2207 N 248.453 -0.709077 5.5761 0
M  V30 2208 H 240.604 0.757198 1.98445 0
M  V30 2209 H 242.867 0.278808 0.906074 0
M  V30 2210 H 242.573 0.454232 3.48754 0
M  V30 2211 H 242.447 -1.29513 3.54269 0
M  V30 2212 H 244.834 -1.45985 2.56461 0
M  V30 2213 H 244.915 0.307532 2.53945 0
M  V30 2214 H 244.559 0.337581 5.06777 0
M  V30 2215 H 244.489 -1.44256 5.06456 0
M  V30 2216 H 246.98 -0.641146 3.72421 0
M  V30 2217 H 247.293 -0.690616 7.69708 0
M  V30 2218 H 245.638 -0.628012 6.92157 0
M  V30 2219 H 248.829 -0.711019 4.62668 0
M  V30 2220 H 249.002 -0.733804 6.43832 0
M  V30 2221 N 242.408 -1.52605 -0.393616 0
M  V30 2222 C 243.656 -1.67093 -1.13685 0
M  V30 2223 C 243.977 -0.411011 -1.90619 0
M  V30 2224 O 243.247 0.574491 -1.87287 0
M  V30 2225 H 241.827 -0.615923 -0.422668 0
M  V30 2226 H 244.489 -1.89704 -0.447039 0
M  V30 2227 H 243.585 -2.51922 -1.84232 0
M  V30 2228 N 243.887 0.651787 -1.4349 0
M  V30 2229 C 245.115 1.43937 -1.48626 0
M  V30 2230 C 245.53 1.8851 -0.104587 0
M  V30 2231 O 244.887 1.5958 0.885464 0
M  V30 2232 C 244.938 2.6734 -2.43334 0
M  V30 2233 O 244.659 2.24631 -3.76128 0
M  V30 2234 C 246.16 3.60683 -2.57726 0
M  V30 2235 H 243.38 0.44213 -0.504739 0
M  V30 2236 H 245.924 0.798944 -1.88248 0
M  V30 2237 H 244.079 3.2752 -2.06904 0
M  V30 2238 H 244.493 3.04485 -4.2707 0
M  V30 2239 H 245.967 4.43933 -3.28067 0
M  V30 2240 H 246.444 4.08126 -1.62265 0
M  V30 2241 H 247.05 3.06384 -2.94973 0
M  V30 2242 N 245.365 1.30045 0.890287 0
M  V30 2243 C 246.613 1.18327 1.63839 0
M  V30 2244 C 246.934 -0.263455 1.93212 0
M  V30 2245 O 246.204 -1.17856 1.56482 0
M  V30 2246 H 244.784 0.434933 0.607324 0
M  V30 2247 H 247.446 1.631 1.06698 0
M  V30 2248 H 246.542 1.74024 2.59079 0
M  V30 2249 N 246.843 -1.10192 1.12674 0
M  V30 2250 C 248.071 -1.85983 0.906527 0
M  V30 2251 C 248.486 -1.80783 -0.544333 0
M  V30 2252 O 247.843 -1.19834 -1.37645 0
M  V30 2253 C 247.894 -3.34281 1.37618 0
M  V30 2254 O 247.615 -3.39401 2.77017 0
M  V30 2255 C 249.116 -4.26938 1.19325 0
M  V30 2256 H 246.336 -0.587716 0.323775 0
M  V30 2257 H 248.88 -1.39284 1.49734 0
M  V30 2258 H 247.035 -3.78436 0.828539 0
M  V30 2259 H 247.449 -4.31838 2.97684 0
M  V30 2260 H 248.923 -5.29181 1.57071 0
M  V30 2261 H 249.4 -4.38995 0.134097 0
M  V30 2262 H 250.006 -3.8859 1.72852 0
M  V30 2263 N 248.321 -0.919034 -1.28029 0
M  V30 2264 C 249.284 -0.416182 -2.2539 0
M  V30 2265 C 250.284 0.460438 -1.54067 0
M  V30 2266 O 251.474 0.262744 -1.72207 0
M  V30 2267 C 248.606 0.402707 -3.38513 0
M  V30 2268 H 249.799 -1.27629 -2.71387 0
M  V30 2269 H 247.352 -0.698919 -1.39803 0
M  V30 2270 H 248.087 1.282 -2.97885 0
M  V30 2271 H 247.872 -0.225698 -3.9145 0
M  V30 2272 H 249.362 0.745191 -4.10897 0
M  V30 2273 N 249.799 1.42003 -0.683588 0
M  V30 2274 C 251.076 1.95112 -0.138075 0
M  V30 2275 C 251.456 1.62359 1.34918 0
M  V30 2276 O 250.804 0.924311 2.08971 0
M  V30 2277 C 251.014 3.46505 -0.416581 0
M  V30 2278 C 252.362 4.23254 -0.337834 0
M  V30 2279 O 253.386 3.54468 -0.35082 0
M  V30 2280 O 252.245 5.45743 -0.287596 0
M  V30 2281 H 249.339 0.826961 -0.00797996 0
M  V30 2282 H 251.885 1.51784 -0.758924 0
M  V30 2283 H 250.657 3.63582 -1.4465 0
M  V30 2284 H 250.28 3.969 0.235839 0
M  V30 2285 N 251.277 0.427512 1.51691 0
M  V30 2286 C 252.24 -0.377132 2.26076 0
M  V30 2287 C 253.24 -0.958089 1.29141 0
M  V30 2288 O 254.43 -0.83408 1.52934 0
M  V30 2289 C 251.562 -1.53262 3.04506 0
M  V30 2290 H 252.755 0.27464 2.9864 0
M  V30 2291 H 250.308 0.180445 1.55255 0
M  V30 2292 H 251.043 -2.22072 2.36335 0
M  V30 2293 H 250.828 -1.12232 3.75694 0
M  V30 2294 H 252.318 -2.10135 3.60878 0
M  V30 2295 N 252.755 -1.56801 0.158532 0
M  V30 2296 C 253.98 -2.01295 -0.499516 0
M  V30 2297 C 254.405 -1.03799 -1.56867 0
M  V30 2298 O 253.763 -0.0155162 -1.81293 0
M  V30 2299 C 253.811 -3.44469 -1.06647 0
M  V30 2300 O 252.915 -3.50012 -2.18095 0
M  V30 2301 H 252.256 -0.652884 -0.12099 0
M  V30 2302 H 254.786 -2.02958 0.258661 0
M  V30 2303 H 254.796 -3.8351 -1.39227 0
M  V30 2304 H 253.471 -4.14932 -0.283581 0
M  V30 2305 H 252.048 -3.22822 -1.86656 0
M  V30 2306 N 254.233 0.115231 -1.57178 0
M  V30 2307 C 255.165 1.16694 -1.97269 0
M  V30 2308 C 256.178 1.37445 -0.872502 0
M  V30 2309 O 257.367 1.36454 -1.15077 0
M  V30 2310 C 254.467 2.52627 -2.25905 0
M  V30 2311 C 253.64 2.52427 -3.57211 0
M  V30 2312 C 252.699 3.70134 -3.74016 0
M  V30 2313 O 251.725 3.53546 -4.46087 0
M  V30 2314 N 252.927 4.88844 -3.13068 0
M  V30 2315 H 255.692 0.82588 -2.88096 0
M  V30 2316 H 253.253 0.304461 -1.59011 0
M  V30 2317 H 255.245 3.29937 -2.34359 0
M  V30 2318 H 253.815 2.789 -1.41186 0
M  V30 2319 H 253.035 1.60805 -3.5991 0
M  V30 2320 H 254.323 2.49353 -4.43509 0
M  V30 2321 H 253.721 5.05225 -2.54489 0
M  V30 2322 H 252.278 5.63817 -3.27037 0
M  V30 2323 N 255.711 1.52812 0.385517 0
M  V30 2324 C 256.936 1.72207 1.15583 0
M  V30 2325 C 257.361 0.441034 1.82857 0
M  V30 2326 O 256.719 -0.603465 1.70962 0
M  V30 2327 C 256.767 2.87476 2.17692 0
M  V30 2328 O 255.871 2.54693 3.24354 0
M  V30 2329 H 255.212 0.572526 0.336319 0
M  V30 2330 H 257.742 1.99618 0.448744 0
M  V30 2331 H 257.752 3.13072 2.6163 0
M  V30 2332 H 256.427 3.80408 1.68115 0
M  V30 2333 H 255.004 2.3985 2.85529 0
M  V30 2334 N 257.189 -0.644168 1.43834 0
M  V30 2335 C 258.466 -1.40188 1.36406 0
M  V30 2336 C 258.846 -2.11094 0.0163124 0
M  V30 2337 O 258.194 -2.05426 -1.00062 0
M  V30 2338 C 258.404 -2.3791 2.55343 0
M  V30 2339 C 259.752 -3.01637 2.98832 0
M  V30 2340 O 260.776 -2.48237 2.55455 0
M  V30 2341 O 259.635 -3.98477 3.74003 0
M  V30 2342 H 256.729 -0.626773 0.539523 0
M  V30 2343 H 259.275 -0.670317 1.559 0
M  V30 2344 H 258.047 -1.84525 3.4506 0
M  V30 2345 H 257.67 -3.18503 2.37995 0
M  V30 2346 N 258.668 -1.30515 -0.883378 0
M  V30 2347 C 259.898 -1.22182 -1.66599 0
M  V30 2348 C 260.306 0.217507 -1.87946 0
M  V30 2349 O 259.649 1.1554 -1.42815 0
M  V30 2350 C 259.711 -1.88146 -3.06335 0
M  V30 2351 C 259.375 -3.37476 -3.08154 0
M  V30 2352 C 260.372 -4.33443 -2.87094 0
M  V30 2353 C 258.057 -3.7895 -3.29701 0
M  V30 2354 C 260.051 -5.68858 -2.8754 0
M  V30 2355 C 257.738 -5.14482 -3.29776 0
M  V30 2356 C 258.736 -6.09246 -3.0872 0
M  V30 2357 O 258.424 -7.42302 -3.08615 0
M  V30 2358 H 258.156 -0.423898 -0.52658 0
M  V30 2359 H 260.71 -1.72703 -1.11188 0
M  V30 2360 H 258.94 -1.32157 -3.63416 0
M  V30 2361 H 260.629 -1.7391 -3.66756 0
M  V30 2362 H 261.395 -4.02733 -2.70243 0
M  V30 2363 H 257.274 -3.05631 -3.45124 0
M  V30 2364 H 260.818 -6.428 -2.71024 0
M  V30 2365 H 256.715 -5.44832 -3.46163 0
M  V30 2366 H 257.483 -7.5131 -3.24769 0
M  V30 2367 N 260.146 1.09593 -1.13257 0
M  V30 2368 C 261.371 1.8604 -0.916732 0
M  V30 2369 C 261.796 1.80504 0.529146 0
M  V30 2370 O 261.154 1.18127 1.37534 0
M  V30 2371 C 261.202 3.32017 -1.40703 0
M  V30 2372 O 260.306 4.08141 -0.591153 0
M  V30 2373 H 259.647 0.576943 -0.328683 0
M  V30 2374 H 262.177 1.38405 -1.50682 0
M  V30 2375 H 262.187 3.82865 -1.4099 0
M  V30 2376 H 260.862 3.35361 -2.45979 0
M  V30 2377 H 259.439 3.67084 -0.656005 0
M  V30 2378 N 261.624 0.925811 1.2754 0
M  V30 2379 C 262.571 0.422045 2.26908 0
M  V30 2380 C 263.541 -0.510029 1.58076 0
M  V30 2381 O 264.726 -0.429599 1.85901 0
M  V30 2382 C 261.866 -0.320837 3.43605 0
M  V30 2383 C 260.979 0.64513 4.27156 0
M  V30 2384 C 260.114 -0.117405 5.3107 0
M  V30 2385 C 259.153 0.841391 6.0629 0
M  V30 2386 N 258.29 0.111604 7.02011 0
M  V30 2387 H 263.13 1.27441 2.69375 0
M  V30 2388 H 260.667 0.639697 1.32462 0
M  V30 2389 H 262.625 -0.76785 4.10073 0
M  V30 2390 H 261.255 -1.13745 3.02096 0
M  V30 2391 H 260.307 1.21067 3.6062 0
M  V30 2392 H 261.619 1.37797 4.79389 0
M  V30 2393 H 260.773 -0.624422 6.03478 0
M  V30 2394 H 259.512 -0.883219 4.79636 0
M  V30 2395 H 258.517 1.35967 5.32722 0
M  V30 2396 H 259.742 1.60696 6.59813 0
M  V30 2397 H 257.688 -0.635999 6.5291 0
M  V30 2398 H 257.605 0.784044 7.51923 0
M  V30 2399 H 258.873 -0.374823 7.78598 0
M  V30 2400 N 263.102 -1.41638 0.69111 0
M  V30 2401 C 264.332 -2.0533 0.228758 0
M  V30 2402 C 264.74 -1.52089 -1.12541 0
M  V30 2403 O 264.083 -0.662145 -1.71351 0
M  V30 2404 C 264.145 -3.59349 0.10407 0
M  V30 2405 C 263.809 -4.35362 1.38956 0
M  V30 2406 C 264.806 -4.64942 2.32648 0
M  V30 2407 C 262.491 -4.74714 1.64169 0
M  V30 2408 C 264.485 -5.32828 3.49818 0
M  V30 2409 C 262.172 -5.42338 2.81625 0
M  V30 2410 C 263.17 -5.71322 3.74273 0
M  V30 2411 O 262.858 -6.37554 4.89673 0
M  V30 2412 H 262.59 -0.667796 0.104997 0
M  V30 2413 H 265.144 -1.82477 0.942938 0
M  V30 2414 H 263.374 -3.80924 -0.665839 0
M  V30 2415 H 265.063 -4.04633 -0.320519 0
M  V30 2416 H 265.829 -4.35025 2.14425 0
M  V30 2417 H 261.708 -4.51538 0.929202 0
M  V30 2418 H 265.252 -5.55368 4.22152 0
M  V30 2419 H 261.149 -5.71673 2.99768 0
M  V30 2420 H 261.917 -6.56049 4.8943 0
M  V30 2421 N 264.58 -0.43555 -1.51462 0
M  V30 2422 C 265.81 0.130053 -2.0619 0
M  V30 2423 C 266.218 1.37164 -1.30317 0
M  V30 2424 O 265.561 1.80225 -0.355598 0
M  V30 2425 C 265.623 0.519418 -3.55728 0
M  V30 2426 C 265.287 -0.615119 -4.52841 0
M  V30 2427 C 266.284 -1.48671 -4.9819 0
M  V30 2428 C 263.969 -0.795341 -4.95963 0
M  V30 2429 C 265.963 -2.52324 -5.8533 0
M  V30 2430 C 263.65 -1.83514 -5.82894 0
M  V30 2431 C 264.648 -2.69748 -6.27475 0
M  V30 2432 O 264.336 -3.71944 -7.1268 0
M  V30 2433 H 264.068 0.0121612 -0.675891 0
M  V30 2434 H 266.622 -0.6129 -1.96043 0
M  V30 2435 H 264.852 1.31505 -3.63653 0
M  V30 2436 H 266.541 1.01597 -3.92979 0
M  V30 2437 H 267.307 -1.359 -4.65571 0
M  V30 2438 H 263.186 -0.133713 -4.60806 0
M  V30 2439 H 266.73 -3.19665 -6.20048 0
M  V30 2440 H 262.627 -1.96306 -6.14926 0
M  V30 2441 H 263.395 -3.68503 -7.30854 0
M  V30 2442 N 266.058 1.56714 -0.166846 0
M  V30 2443 C 267.469 1.83378 0.350646 0
M  V30 2444 C 267.82 1.08646 1.63372 0
M  V30 2445 O 266.945 0.338058 2.13743 0
M  V30 2446 C 267.54 3.32643 0.642963 0
M  V30 2447 C 266.099 3.59818 1.10491 0
M  V30 2448 C 265.246 2.76954 0.138411 0
M  V30 2449 H 268.197 1.53803 -0.391193 0
M  V30 2450 H 268.218 3.49878 1.49551 0
M  V30 2451 H 267.73 3.87007 -0.291055 0
M  V30 2452 H 265.831 3.1086 2.05418 0
M  V30 2453 H 265.944 4.68178 1.01716 0
M  V30 2454 H 264.308 2.4666 0.634911 0
M  V30 2455 H 265.091 3.34097 -0.789549 0
M  V30 2456 N 267.536 -0.106894 1.57237 0
M  V30 2457 C 268.466 -1.13148 2.04254 0
M  V30 2458 C 269.447 -1.42476 0.929224 0
M  V30 2459 O 270.632 -1.52709 1.19973 0
M  V30 2460 C 267.762 -2.4545 2.45706 0
M  V30 2461 C 266.716 -2.30558 3.60592 0
M  V30 2462 C 266.042 -3.67931 3.87983 0
M  V30 2463 C 267.342 -1.75597 4.91897 0
M  V30 2464 H 269.036 -0.740374 2.90101 0
M  V30 2465 H 266.582 -0.354696 1.39563 0
M  V30 2466 H 268.535 -3.17389 2.77205 0
M  V30 2467 H 267.259 -2.86475 1.56843 0
M  V30 2468 H 265.918 -1.61067 3.29322 0
M  V30 2469 H 265.566 -4.06462 2.96306 0
M  V30 2470 H 265.266 -3.58817 4.65322 0
M  V30 2471 H 266.79 -4.41356 4.21945 0
M  V30 2472 H 268.204 -2.37364 5.21854 0
M  V30 2473 H 266.601 -1.77272 5.73319 0
M  V30 2474 H 267.671 -0.714451 4.79608 0
M  V30 2475 N 269.014 -1.53014 -0.377408 0
M  V30 2476 C 270.263 -1.67845 -1.11853 0
M  V30 2477 C 270.576 -0.430625 -1.90801 0
M  V30 2478 O 271.782 -0.459261 -2.67587 0
M  V30 2479 C 270.238 -2.96668 -2.03756 0
M  V30 2480 C 269.846 -4.28671 -1.30175 0
M  V30 2481 C 271.59 -3.20865 -2.77932 0
M  V30 2482 C 269.497 -5.48591 -2.20911 0
M  V30 2483 H 268.427 -0.625343 -0.421263 0
M  V30 2484 H 271.078 -1.79514 -0.380409 0
M  V30 2485 H 269.46 -2.78773 -2.8125 0
M  V30 2486 H 270.634 -4.57157 -0.578259 0
M  V30 2487 H 268.949 -4.10825 -0.679108 0
M  V30 2488 H 271.546 -4.07642 -3.46024 0
M  V30 2489 H 271.889 -2.36424 -3.4265 0
M  V30 2490 H 272.422 -3.39379 -2.07525 0
M  V30 2491 H 269.161 -6.35474 -1.6079 0
M  V30 2492 H 268.681 -5.244 -2.91144 0
M  V30 2493 H 270.36 -5.8292 -2.80736 0
M  V30 2494 N 270.492 0.636531 -1.44174 0
M  V30 2495 C 271.402 1.77754 -1.53103 0
M  V30 2496 C 272.418 1.68928 -0.417034 0
M  V30 2497 O 273.594 1.89801 -0.6736 0
M  V30 2498 C 270.659 3.14115 -1.46741 0
M  V30 2499 C 269.72 3.34612 -2.68948 0
M  V30 2500 C 268.953 4.64467 -2.6288 0
M  V30 2501 O 269.176 5.44919 -1.68581 0
M  V30 2502 O 268.11 4.87049 -3.53648 0
M  V30 2503 H 271.936 1.73174 -2.49489 0
M  V30 2504 H 269.521 0.79709 -1.2636 0
M  V30 2505 H 271.403 3.95412 -1.45696 0
M  V30 2506 H 270.078 3.19249 -0.534975 0
M  V30 2507 H 268.985 2.53014 -2.75562 0
M  V30 2508 H 270.318 3.34336 -3.61221 0
M  V30 2509 N 271.97 1.30982 0.876444 0
M  V30 2510 C 273.247 1.10942 1.61094 0
M  V30 2511 C 273.627 -0.338223 2.08373 0
M  V30 2512 O 272.975 -1.33122 1.85717 0
M  V30 2513 C 273.185 2.11789 2.77392 0
M  V30 2514 C 274.533 2.43965 3.47514 0
M  V30 2515 O 275.557 2.10166 2.87591 0
M  V30 2516 O 274.416 3.01817 4.55597 0
M  V30 2517 H 271.51 0.42667 0.708436 0
M  V30 2518 H 274.056 1.42438 0.922474 0
M  V30 2519 H 272.828 3.09194 2.39823 0
M  V30 2520 H 272.451 1.81161 3.5393 0
M  V30 2521 N 273.449 -1.08991 1.13837 0
M  V30 2522 C 274.379 -2.17771 0.842507 0
M  V30 2523 C 275.36 -1.6892 -0.20001 0
M  V30 2524 O 276.545 -1.94113 -0.0579731 0
M  V30 2525 C 273.675 -3.4589 0.312644 0
M  V30 2526 C 272.629 -4.08099 1.28992 0
M  V30 2527 C 271.955 -5.31098 0.619623 0
M  V30 2528 C 273.255 -4.50077 2.65005 0
M  V30 2529 H 274.949 -2.42777 1.75213 0
M  V30 2530 H 272.495 -1.16682 0.843875 0
M  V30 2531 H 274.448 -4.21297 0.0933043 0
M  V30 2532 H 273.172 -3.20419 -0.632382 0
M  V30 2533 H 271.831 -3.34717 1.49533 0
M  V30 2534 H 271.479 -5.0191 -0.33102 0
M  V30 2535 H 271.179 -5.73674 1.27167 0
M  V30 2536 H 272.703 -6.09224 0.409669 0
M  V30 2537 H 274.117 -5.16688 2.48407 0
M  V30 2538 H 272.514 -5.03553 3.26427 0
M  V30 2539 H 273.584 -3.62257 3.22332 0
M  V30 2540 N 274.927 -0.932562 -1.27047 0
M  V30 2541 C 276.343 -0.633544 -1.46487 0
M  V30 2542 C 276.543 0.815746 -1.84249 0
M  V30 2543 O 275.599 1.59319 -1.95892 0
M  V30 2544 C 276.912 -1.58758 -2.55375 0
M  V30 2545 C 278.46 -1.59634 -2.69232 0
M  V30 2546 C 278.935 -2.53747 -3.81283 0
M  V30 2547 N 280.426 -2.51982 -3.88664 0
M  V30 2548 C 281.161 -3.21491 -4.74796 0
M  V30 2549 N 280.657 -4.00395 -5.65381 0
M  V30 2550 N 282.45 -3.10485 -4.68568 0
M  V30 2551 H 274.601 -1.86946 -1.00821 0
M  V30 2552 H 276.864 -0.802897 -0.504044 0
M  V30 2553 H 276.57 -2.62172 -2.34432 0
M  V30 2554 H 276.444 -1.33301 -3.52861 0
M  V30 2555 H 278.831 -0.569488 -2.89553 0
M  V30 2556 H 278.912 -1.89142 -1.72218 0
M  V30 2557 H 278.556 -3.56545 -3.61715 0
M  V30 2558 H 278.486 -2.21532 -4.77735 0
M  V30 2559 H 280.977 -1.94681 -3.23895 0
M  V30 2560 H 281.29 -4.50406 -6.27976 0
M  V30 2561 H 279.635 -4.04498 -5.65161 0
M  V30 2562 H 282.826 -2.48331 -3.96799 0
M  V30 2563 H 282.999 -3.64925 -5.35475 0
M  V30 2564 N 276.405 1.4127 -0.698611 0
M  V30 2565 C 277.353 2.32588 -0.023855 0
M  V30 2566 C 278.347 1.51128 0.765292 0
M  V30 2567 O 279.553 1.67043 0.670571 0
M  V30 2568 H 275.928 0.751918 0.0110871 0
M  V30 2569 H 277.899 2.87167 -0.811031 0
M  V30 2570 C 276.648 3.35947 0.896369 0
M  V30 2571 H 275.971 3.98684 0.298548 0
M  V30 2572 H 277.411 4.02376 1.33676 0
M  V30 2573 C 275.87 2.70076 2.01396 0
M  V30 2574 O 276.4 2.55093 3.10307 0
M  V30 2575 N 274.606 2.28724 1.79259 0
M  V30 2576 H 274.153 2.4111 0.906841 0
M  V30 2577 H 274.111 1.84986 2.54219 0
M  V30 2578 N 277.883 0.443576 1.51229 0
M  V30 2579 C 278.83 -0.364716 2.279 0
M  V30 2580 C 279.8 -1.0114 1.31757 0
M  V30 2581 O 280.985 -1.02912 1.60667 0
M  V30 2582 C 278.125 -1.45644 3.12861 0
M  V30 2583 C 277.238 -0.827269 4.24005 0
M  V30 2584 C 276.373 -1.89456 4.96266 0
M  V30 2585 C 275.412 -1.24416 5.99322 0
M  V30 2586 N 274.549 -2.25309 6.64966 0
M  V30 2587 H 279.389 0.295464 2.96532 0
M  V30 2588 H 276.926 0.157554 1.46254 0
M  V30 2589 H 278.884 -2.10076 3.6045 0
M  V30 2590 H 277.514 -2.08616 2.46331 0
M  V30 2591 H 276.566 -0.0710839 3.80334 0
M  V30 2592 H 277.878 -0.312481 4.9782 0
M  V30 2593 H 277.032 -2.61535 5.47434 0
M  V30 2594 H 275.771 -2.4431 4.22095 0
M  V30 2595 H 274.776 -0.508868 5.4744 0
M  V30 2596 H 276.001 -0.702882 6.75453 0
M  V30 2597 H 273.947 -2.79231 5.93604 0
M  V30 2598 H 273.864 -1.78739 7.34567 0
M  V30 2599 H 275.132 -2.96853 7.20763 0
M  V30 2600 N 279.361 -1.56624 0.175154 0
M  V30 2601 C 280.61 -1.96173 -0.468921 0
M  V30 2602 C 280.923 -1.06401 -1.64128 0
M  V30 2603 O 282.129 -1.35648 -2.35185 0
M  V30 2604 C 280.585 -3.48833 -0.885633 0
M  V30 2605 C 280.193 -4.47237 0.261343 0
M  V30 2606 C 281.937 -3.97194 -1.49791 0
M  V30 2607 C 279.844 -5.9114 -0.175214 0
M  V30 2608 H 278.774 -0.732455 -0.178958 0
M  V30 2609 H 281.425 -1.81591 0.263997 0
M  V30 2610 H 279.807 -3.58848 -1.67464 0
M  V30 2611 H 280.981 -4.4894 1.03871 0
M  V30 2612 H 279.296 -4.08956 0.783827 0
M  V30 2613 H 281.893 -5.02167 -1.83665 0
M  V30 2614 H 282.236 -3.40351 -2.39722 0
M  V30 2615 H 282.769 -3.90212 -0.773267 0
M  V30 2616 H 279.508 -6.51865 0.689414 0
M  V30 2617 H 279.028 -5.92735 -0.91786 0
M  V30 2618 H 280.707 -6.44044 -0.617792 0
M  V30 2619 N 280.839 0.0985539 -1.57292 0
M  V30 2620 C 282.088 0.801358 -1.85098 0
M  V30 2621 C 282.401 1.80066 -0.763902 0
M  V30 2622 O 283.607 2.55112 -0.928981 0
M  V30 2623 C 282.063 1.47599 -3.28242 0
M  V30 2624 C 281.671 0.516624 -4.45011 0
M  V30 2625 C 283.415 2.16272 -3.65276 0
M  V30 2626 C 281.322 1.19564 -5.79188 0
M  V30 2627 H 280.252 0.303022 -0.69043 0
M  V30 2628 H 282.903 0.0542623 -1.8342 0
M  V30 2629 H 281.285 2.27042 -3.2445 0
M  V30 2630 H 282.459 -0.246065 -4.60143 0
M  V30 2631 H 280.774 -0.064227 -4.1635 0
M  V30 2632 H 283.371 2.67802 -4.62803 0
M  V30 2633 H 283.714 2.95009 -2.93727 0
M  V30 2634 H 284.247 1.43693 -3.70941 0
M  V30 2635 H 280.986 0.449157 -6.53959 0
M  V30 2636 H 280.506 1.92984 -5.67906 0
M  V30 2637 H 282.185 1.7231 -6.23633 0
M  V30 2638 N 282.317 1.53212 0.369288 0
M  V30 2639 C 283.542 1.73423 1.1375 0
M  V30 2640 C 283.967 0.460404 1.82378 0
M  V30 2641 O 283.325 -0.585298 1.71592 0
M  V30 2642 C 283.373 2.89769 2.1463 0
M  V30 2643 O 282.477 2.58119 3.21634 0
M  V30 2644 H 281.818 0.576061 0.330227 0
M  V30 2645 H 284.348 2.00083 0.427547 0
M  V30 2646 H 284.358 3.15829 2.58294 0
M  V30 2647 H 283.033 3.8217 1.64071 0
M  V30 2648 H 281.61 2.42864 2.82969 0
M  V30 2649 N 283.795 -0.628877 1.44509 0
M  V30 2650 C 284.758 -1.72263 1.51188 0
M  V30 2651 C 285.758 -1.55907 0.39367 0
M  V30 2652 O 286.948 -1.61361 0.656377 0
M  V30 2653 C 284.08 -3.11365 1.38798 0
M  V30 2654 H 285.273 -1.67714 2.4862 0
M  V30 2655 H 282.826 -0.842737 1.31634 0
M  V30 2656 H 283.561 -3.21507 0.424693 0
M  V30 2657 H 283.346 -3.24644 2.19884 0
M  V30 2658 H 284.836 -3.91075 1.46458 0
M  V30 2659 N 285.273 -1.31445 -0.869486 0
M  V30 2660 C 286.498 -1.24256 -1.66058 0
M  V30 2661 C 286.923 0.188928 -1.87149 0
M  V30 2662 O 286.281 1.13522 -1.4136 0
M  V30 2663 C 286.329 -1.9924 -3.00559 0
M  V30 2664 O 285.433 -1.33007 -3.90362 0
M  V30 2665 H 284.774 -0.428973 -0.506831 0
M  V30 2666 H 287.304 -1.73521 -1.08404 0
M  V30 2667 H 287.314 -2.08854 -3.50491 0
M  V30 2668 H 285.989 -3.03342 -2.84528 0
M  V30 2669 H 284.566 -1.31848 -3.48813 0
M  V30 2670 N 286.751 1.08385 -1.14413 0
M  V30 2671 C 288 1.80153 -0.907076 0
M  V30 2672 C 288.313 1.87176 0.567851 0
M  V30 2673 O 289.519 2.55359 0.922172 0
M  V30 2674 C 287.975 3.23687 -1.57336 0
M  V30 2675 C 287.583 3.24897 -3.08457 0
M  V30 2676 C 289.327 4.00136 -1.41744 0
M  V30 2677 C 287.234 4.6302 -3.67921 0
M  V30 2678 H 286.164 0.675139 -0.335714 0
M  V30 2679 H 288.815 1.21733 -1.37307 0
M  V30 2680 H 287.197 3.82234 -1.03505 0
M  V30 2681 H 288.371 2.76055 -3.68958 0
M  V30 2682 H 286.686 2.61943 -3.2369 0
M  V30 2683 H 289.283 5.02201 -1.83572 0
M  V30 2684 H 289.626 4.14709 -0.363576 0
M  V30 2685 H 290.159 3.48058 -1.92614 0
M  V30 2686 H 286.898 4.5365 -4.73161 0
M  V30 2687 H 286.418 5.12143 -3.12201 0
M  V30 2688 H 288.097 5.31994 -3.68227 0
M  V30 2689 N 288.23 0.939286 1.26551 0
M  V30 2690 C 289.478 0.58469 1.93457 0
M  V30 2691 C 289.799 -0.878774 1.74076 0
M  V30 2692 O 289.069 -1.62421 1.09528 0
M  V30 2693 H 287.649 0.21325 0.715914 0
M  V30 2694 H 290.311 1.1942 1.54029 0
M  V30 2695 H 289.407 0.800849 3.0165 0
M  V30 2696 N 289.708 -1.40897 0.706093 0
M  V30 2697 C 290.656 -2.32572 0.0361893 0
M  V30 2698 C 291.65 -1.51532 -0.757266 0
M  V30 2699 O 292.856 -1.67396 -0.661703 0
M  V30 2700 H 289.231 -0.751966 -0.00709935 0
M  V30 2701 H 291.202 -2.86733 0.826249 0
M  V30 2702 C 289.951 -3.36418 -0.87854 0
M  V30 2703 H 289.274 -3.98836 -0.277401 0
M  V30 2704 H 290.714 -4.0308 -1.3154 0
M  V30 2705 C 289.173 -2.71141 -1.99961 0
M  V30 2706 O 289.703 -2.56735 -3.0895 0
M  V30 2707 N 287.909 -2.29671 -1.78043 0
M  V30 2708 H 287.456 -2.41588 -0.894042 0
M  V30 2709 H 287.414 -1.86332 -2.53235 0
M  V30 2710 N 291.186 -0.45159 -1.50991 0
M  V30 2711 C 292.149 0.341117 -2.26647 0
M  V30 2712 C 293.149 0.937422 -1.30649 0
M  V30 2713 O 294.339 0.809644 -1.54241 0
M  V30 2714 C 291.471 1.48398 -3.06905 0
M  V30 2715 H 292.664 -0.322117 -2.98165 0
M  V30 2716 H 290.217 -0.205122 -1.54948 0
M  V30 2717 H 290.952 2.18284 -2.39838 0
M  V30 2718 H 290.737 1.06241 -3.77432 0
M  V30 2719 H 292.227 2.04367 -3.64176 0
M  V30 2720 N 292.664 1.56529 -0.183458 0
M  V30 2721 C 293.596 2.15747 0.773697 0
M  V30 2722 C 294.609 1.1162 1.1851 0
M  V30 2723 O 295.798 1.3876 1.12285 0
M  V30 2724 C 292.898 2.6952 2.05456 0
M  V30 2725 C 292.071 3.98429 1.8048 0
M  V30 2726 C 291.13 4.37145 2.92901 0
M  V30 2727 O 290.156 5.04791 2.6301 0
M  V30 2728 N 291.358 3.99695 4.2098 0
M  V30 2729 H 294.123 2.98505 0.26736 0
M  V30 2730 H 291.684 1.619 -0.0010878 0
M  V30 2731 H 293.676 2.92412 2.79781 0
M  V30 2732 H 292.246 1.91282 2.47245 0
M  V30 2733 H 291.466 3.8379 0.899947 0
M  V30 2734 H 292.754 4.82597 1.61175 0
M  V30 2735 H 292.152 3.4526 4.48121 0
M  V30 2736 H 290.709 4.27562 4.9197 0
M  V30 2737 N 294.142 -0.090211 1.57342 0
M  V30 2738 C 295.072 -1.10976 2.05443 0
M  V30 2739 C 296.053 -1.41482 0.944284 0
M  V30 2740 O 297.238 -1.51428 1.21586 0
M  V30 2741 C 294.368 -2.42831 2.48295 0
M  V30 2742 C 293.322 -2.26721 3.63018 0
M  V30 2743 C 292.648 -3.63796 3.91863 0
M  V30 2744 C 293.948 -1.7037 4.93732 0
M  V30 2745 H 295.642 -0.709564 2.9087 0
M  V30 2746 H 293.188 -0.339874 1.39932 0
M  V30 2747 H 295.141 -3.14431 2.80555 0
M  V30 2748 H 293.865 -2.84795 1.59873 0
M  V30 2749 H 292.524 -1.57565 3.31012 0
M  V30 2750 H 292.172 -4.03297 3.00601 0
M  V30 2751 H 291.872 -3.53861 4.69101 0
M  V30 2752 H 293.396 -4.36855 4.26603 0
M  V30 2753 H 294.81 -2.31816 5.24342 0
M  V30 2754 H 293.207 -1.71181 5.75167 0
M  V30 2755 H 294.277 -0.663542 4.80339 0
M  V30 2756 N 295.62 -1.53406 -0.361157 0
M  V30 2757 C 296.55 -1.83136 -1.44857 0
M  V30 2758 C 297.531 -0.685174 -1.5569 0
M  V30 2759 O 298.716 -0.93544 -1.70186 0
M  V30 2760 C 295.846 -2.02522 -2.82138 0
M  V30 2761 C 294.8 -3.18302 -2.86126 0
M  V30 2762 C 294.126 -3.22989 -4.26125 0
M  V30 2763 C 295.426 -4.56796 -2.53248 0
M  V30 2764 H 297.12 -2.74201 -1.20226 0
M  V30 2765 H 294.666 -1.31938 -0.576922 0
M  V30 2766 H 296.619 -2.21904 -3.58241 0
M  V30 2767 H 295.343 -1.08172 -3.08166 0
M  V30 2768 H 294.002 -2.98747 -2.12475 0
M  V30 2769 H 293.65 -2.26267 -4.49235 0
M  V30 2770 H 293.35 -4.00781 -4.29708 0
M  V30 2771 H 294.874 -3.44559 -5.04094 0
M  V30 2772 H 296.288 -4.7631 -3.19064 0
M  V30 2773 H 294.685 -5.36862 -2.68141 0
M  V30 2774 H 295.755 -4.61606 -1.48484 0
M  V30 2775 N 297.098 0.621204 -1.44841 0
M  V30 2776 C 298.028 1.74366 -1.55303 0
M  V30 2777 C 299.009 1.65199 -0.405385 0
M  V30 2778 O 300.194 1.83807 -0.626787 0
M  V30 2779 C 297.324 3.12931 -1.50637 0
M  V30 2780 C 296.278 3.36896 -2.63979 0
M  V30 2781 C 295.604 4.75594 -2.44366 0
M  V30 2782 C 296.904 3.28483 -4.06074 0
M  V30 2783 H 298.598 1.65867 -2.49256 0
M  V30 2784 H 296.144 0.796558 -1.19962 0
M  V30 2785 H 298.097 3.9124 -1.56555 0
M  V30 2786 H 296.821 3.22237 -0.532057 0
M  V30 2787 H 295.48 2.60972 -2.57467 0
M  V30 2788 H 295.128 4.81616 -1.45105 0
M  V30 2789 H 294.828 4.92586 -3.20364 0
M  V30 2790 H 296.352 5.5612 -2.52117 0
M  V30 2791 H 297.766 3.96684 -4.13902 0
M  V30 2792 H 296.163 3.57008 -4.82354 0
M  V30 2793 H 297.233 2.26133 -4.28943 0
M  V30 2794 N 298.576 1.31904 0.862503 0
M  V30 2795 C 299.508 1.16005 1.97675 0
M  V30 2796 C 300.521 0.0971234 1.6251 0
M  V30 2797 O 301.71 0.345337 1.75128 0
M  V30 2798 C 298.81 0.751791 3.30456 0
M  V30 2799 C 297.983 1.90133 3.93914 0
M  V30 2800 C 297.042 1.4779 5.05019 0
M  V30 2801 O 296.068 2.18872 5.25437 0
M  V30 2802 N 297.27 0.369491 5.79323 0
M  V30 2803 H 300.035 2.11982 2.11857 0
M  V30 2804 H 297.596 1.24337 1.03691 0
M  V30 2805 H 299.588 0.451084 4.02178 0
M  V30 2806 H 298.158 -0.116593 3.12382 0
M  V30 2807 H 297.378 2.36896 3.15078 0
M  V30 2808 H 298.666 2.67111 4.33047 0
M  V30 2809 H 298.064 -0.222299 5.65263 0
M  V30 2810 H 296.621 0.128354 6.51674 0
M  V30 2811 N 300.054 -1.07777 1.14986 0
M  V30 2812 C 301.303 -1.79669 0.916617 0
M  V30 2813 C 301.616 -1.87474 -0.557917 0
M  V30 2814 O 302.822 -2.55845 -0.908617 0
M  V30 2815 C 301.278 -3.22848 1.59051 0
M  V30 2816 C 300.886 -3.23257 3.10176 0
M  V30 2817 C 302.63 -3.99379 1.43864 0
M  V30 2818 C 300.537 -4.61063 3.70372 0
M  V30 2819 H 299.467 -0.673349 0.33929 0
M  V30 2820 H 302.118 -1.21003 1.37951 0
M  V30 2821 H 300.5 -3.8168 1.0553 0
M  V30 2822 H 301.674 -2.74095 3.70417 0
M  V30 2823 H 299.989 -2.60222 3.25074 0
M  V30 2824 H 302.586 -5.0122 1.86232 0
M  V30 2825 H 302.929 -4.14511 0.385564 0
M  V30 2826 H 303.462 -3.47032 1.94457 0
M  V30 2827 H 300.201 -4.51135 4.7556 0
M  V30 2828 H 299.721 -5.1048 3.14913 0
M  V30 2829 H 301.4 -5.30034 3.71043 0
M  V30 2830 N 301.532 -0.945985 -1.26051 0
M  V30 2831 C 302.809 -0.513816 -1.88731 0
M  V30 2832 C 303.189 1.00872 -1.8544 0
M  V30 2833 O 302.537 1.8708 -1.312 0
M  V30 2834 C 302.747 -1.08062 -3.31849 0
M  V30 2835 C 304.095 -1.1522 -4.08668 0
M  V30 2836 O 305.119 -1.03155 -3.40936 0
M  V30 2837 O 303.978 -1.34044 -5.29806 0
M  V30 2838 H 301.072 -0.168193 -0.809716 0
M  V30 2839 H 303.618 -1.03886 -1.34186 0
M  V30 2840 H 302.39 -2.1241 -3.2863 0
M  V30 2841 H 302.013 -0.538307 -3.93939 0
M  V30 2842 N 303.011 1.40521 -0.713556 0
M  V30 2843 C 303.959 2.32549 -0.0485227 0
M  V30 2844 C 304.953 1.51931 0.74922 0
M  V30 2845 O 306.159 1.67745 0.652816 0
M  V30 2846 H 302.534 0.751994 0.00311138 0
M  V30 2847 H 304.505 2.86291 -0.841443 0
M  V30 2848 C 303.254 3.36879 0.860687 0
M  V30 2849 H 302.577 3.98978 0.256246 0
M  V30 2850 H 304.017 4.03772 1.294 0
M  V30 2851 C 302.476 2.72197 1.9852 0
M  V30 2852 O 303.006 2.5837 3.07584 0
M  V30 2853 N 301.212 2.30612 1.76823 0
M  V30 2854 H 300.759 2.42059 0.881217 0
M  V30 2855 H 300.717 1.87672 2.52243 0
M  V30 2856 N 304.489 0.459591 1.5075 0
M  V30 2857 C 305.452 -0.329093 2.26825 0
M  V30 2858 C 306.452 -0.930481 1.31144 0
M  V30 2859 O 307.642 -0.801453 1.54669 0
M  V30 2860 C 304.774 -1.46768 3.07688 0
M  V30 2861 H 305.967 0.337924 2.9799 0
M  V30 2862 H 303.52 0.213336 1.54837 0
M  V30 2863 H 304.255 -2.17009 2.40993 0
M  V30 2864 H 304.04 -1.04238 3.77991 0
M  V30 2865 H 305.53 -2.02433 3.65254 0
M  V30 2866 N 305.967 -1.56429 0.191757 0
M  V30 2867 C 307.383 -1.58754 -0.164137 0
M  V30 2868 C 307.583 -1.20782 -1.61288 0
M  V30 2869 O 306.639 -0.928999 -2.34789 0
M  V30 2870 C 307.952 -3.00396 0.135195 0
M  V30 2871 C 309.5 -3.1291 0.0750351 0
M  V30 2872 C 309.975 -4.56679 0.347632 0
M  V30 2873 N 311.466 -4.62252 0.296131 0
M  V30 2874 C 312.201 -5.71379 0.480948 0
M  V30 2875 N 311.697 -6.88986 0.725933 0
M  V30 2876 N 313.49 -5.60563 0.415435 0
M  V30 2877 H 305.641 -1.79393 1.13718 0
M  V30 2878 H 307.904 -0.832414 0.453643 0
M  V30 2879 H 307.61 -3.32726 1.13958 0
M  V30 2880 H 307.484 -3.72963 -0.563773 0
M  V30 2881 H 309.871 -2.80394 -0.919948 0
M  V30 2882 H 309.952 -2.42736 0.807029 0
M  V30 2883 H 309.596 -4.89907 1.33992 0
M  V30 2884 H 309.526 -5.25039 -0.405212 0
M  V30 2885 H 312.017 -3.7773 0.113259 0
M  V30 2886 H 312.33 -7.68046 0.855857 0
M  V30 2887 H 310.675 -6.90801 0.762788 0
M  V30 2888 H 313.866 -4.67561 0.224486 0
M  V30 2889 H 314.039 -6.45551 0.562889 0
M  V30 2890 N 307.445 0.0818655 -1.57387 0
M  V30 2891 C 308.375 1.09885 -2.06028 0
M  V30 2892 C 309.356 1.4098 -0.951774 0
M  V30 2893 O 310.541 1.50781 -1.22387 0
M  V30 2894 C 307.671 2.4151 -2.4958 0
M  V30 2895 C 306.625 2.24792 -3.64215 0
M  V30 2896 C 305.951 3.61712 -3.93787 0
M  V30 2897 C 307.251 1.67749 -4.94629 0
M  V30 2898 H 308.945 0.694128 -2.91243 0
M  V30 2899 H 306.491 0.332448 -1.4011 0
M  V30 2900 H 308.444 3.12939 -2.82219 0
M  V30 2901 H 307.168 2.83943 -1.61381 0
M  V30 2902 H 305.827 1.55807 -3.31843 0
M  V30 2903 H 305.475 4.01697 -3.02735 0
M  V30 2904 H 305.175 3.51368 -4.70971 0
M  V30 2905 H 306.699 4.34587 -4.28913 0
M  V30 2906 H 308.113 2.29032 -5.25564 0
M  V30 2907 H 306.51 1.68128 -5.76067 0
M  V30 2908 H 307.58 0.638059 -4.80684 0
M  V30 2909 N 308.923 1.53595 0.353017 0
M  V30 2910 C 309.886 1.80232 1.41594 0
M  V30 2911 C 310.886 0.673081 1.46035 0
M  V30 2912 O 312.076 0.941335 1.46576 0
M  V30 2913 C 309.208 1.93578 2.80607 0
M  V30 2914 H 310.401 2.75174 1.19244 0
M  V30 2915 H 307.954 1.44864 0.586872 0
M  V30 2916 H 308.689 1.00746 3.08254 0
M  V30 2917 H 308.474 2.75724 2.78781 0
M  V30 2918 H 309.964 2.15735 3.57558 0
M  V30 2919 N 310.401 -0.613514 1.45168 0
M  V30 2920 C 311.364 -1.7065 1.53007 0
M  V30 2921 C 312.364 -1.5548 0.410184 0
M  V30 2922 O 313.554 -1.60656 0.673455 0
M  V30 2923 C 310.686 -3.09875 1.42093 0
M  V30 2924 H 311.879 -1.65068 2.50385 0
M  V30 2925 H 309.432 -0.828728 1.32521 0
M  V30 2926 H 310.167 -3.21039 0.458769 0
M  V30 2927 H 309.952 -3.22293 2.23315 0
M  V30 2928 H 311.442 -3.895 1.50598 0
M  V30 2929 N 311.879 -1.3236 -0.855495 0
M  V30 2930 C 312.789 -1.23221 -1.99634 0
M  V30 2931 C 313.805 -0.145983 -1.73387 0
M  V30 2932 O 314.981 -0.366502 -1.98037 0
M  V30 2933 C 312.046 -0.954782 -3.33294 0
M  V30 2934 C 311.107 -2.12937 -3.72769 0
M  V30 2935 C 310.34 -1.86508 -5.00051 0
M  V30 2936 O 310.563 -0.807231 -5.64659 0
M  V30 2937 O 309.497 -2.72591 -5.36636 0
M  V30 2938 H 313.323 -2.19126 -2.1028 0
M  V30 2939 H 310.908 -1.12241 -0.986018 0
M  V30 2940 H 312.79 -0.816519 -4.13414 0
M  V30 2941 H 311.465 -0.0258854 -3.2369 0
M  V30 2942 H 310.372 -2.3231 -2.93228 0
M  V30 2943 H 311.705 -3.04102 -3.87018 0
M  V30 2944 N 313.357 1.07166 -1.15556 0
M  V30 2945 C 314.634 1.76546 -0.842069 0
M  V30 2946 C 315.014 2.00453 0.661939 0
M  V30 2947 O 314.362 1.62452 1.60691 0
M  V30 2948 C 314.572 3.07266 -1.65495 0
M  V30 2949 C 315.92 3.81578 -1.86234 0
M  V30 2950 O 316.944 3.17083 -1.62287 0
M  V30 2951 O 315.803 4.97419 -2.26355 0
M  V30 2952 H 312.897 0.766756 -0.309862 0
M  V30 2953 H 315.443 1.13514 -1.26145 0
M  V30 2954 H 314.215 2.85494 -2.67598 0
M  V30 2955 H 313.838 3.7803 -1.23203 0
M  V30 2956 N 314.835 0.952656 1.25548 0
M  V30 2957 C 316.082 0.606373 1.93208 0
M  V30 2958 C 316.41 -0.85631 1.74636 0
M  V30 2959 O 315.665 -1.62951 1.08376 0
M  V30 2960 C 315.964 0.908818 3.45652 0
M  V30 2961 C 315.63 2.35722 3.84378 0
M  V30 2962 C 314.292 2.75312 3.9466 0
M  V30 2963 C 316.644 3.29793 4.03591 0
M  V30 2964 C 313.972 4.08047 4.21562 0
M  V30 2965 C 316.324 4.62138 4.31985 0
M  V30 2966 C 314.988 5.01528 4.40484 0
M  V30 2967 H 314.258 0.221888 0.706998 0
M  V30 2968 H 316.905 1.20132 1.49133 0
M  V30 2969 H 315.21 0.231456 3.91116 0
M  V30 2970 H 316.907 0.619498 3.96186 0
M  V30 2971 H 313.497 2.04017 3.76928 0
M  V30 2972 H 317.681 3.00397 3.95064 0
M  V30 2973 H 312.937 4.38212 4.26357 0
M  V30 2974 H 317.111 5.35012 4.45797 0
M  V30 2975 H 314.738 6.04406 4.61083 0
M  V30 2976 N 316.313 -1.40141 0.720998 0
M  V30 2977 C 317.729 -1.54632 0.395113 0
M  V30 2978 C 317.929 -1.69115 -1.09555 0
M  V30 2979 O 316.985 -1.68377 -1.88163 0
M  V30 2980 C 318.298 -2.77177 1.1659 0
M  V30 2981 C 319.846 -2.91 1.15274 0
M  V30 2982 C 320.321 -4.16465 1.90579 0
M  V30 2983 N 321.812 -4.23476 1.87675 0
M  V30 2984 C 322.547 -5.19475 2.42762 0
M  V30 2985 N 322.043 -6.21348 3.06428 0
M  V30 2986 N 323.836 -5.11592 2.32874 0
M  V30 2987 H 315.987 -1.28986 1.68749 0
M  V30 2988 H 318.25 -0.62412 0.713567 0
M  V30 2989 H 317.956 -2.72771 2.22011 0
M  V30 2990 H 317.83 -3.69442 0.76108 0
M  V30 2991 H 320.217 -2.94907 0.106702 0
M  V30 2992 H 320.298 -1.99838 1.59682 0
M  V30 2993 H 319.942 -4.1332 2.95176 0
M  V30 2994 H 319.872 -5.06646 1.43587 0
M  V30 2995 H 322.363 -3.50497 1.41281 0
M  V30 2996 H 322.676 -6.91034 3.45965 0
M  V30 2997 H 321.021 -6.21777 3.10514 0
M  V30 2998 H 324.212 -4.30936 1.82789 0
M  V30 2999 H 324.385 -5.86233 2.76106 0
M  V30 3000 N 317.792 -0.46758 -1.50504 0
M  V30 3001 C 318.725 0.374324 -2.25109 0
M  V30 3002 C 319.703 0.99921 -1.28275 0
M  V30 3003 O 320.887 1.03583 -1.57489 0
M  V30 3004 C 318.014 1.52419 -3.02467 0
M  V30 3005 C 317.06 1.01702 -4.14197 0
M  V30 3006 S 317.893 -0.0654477 -5.3546 0
M  V30 3007 C 319.049 1.08837 -6.16365 0
M  V30 3008 H 319.282 -0.258983 -2.9617 0
M  V30 3009 H 316.815 -0.252421 -1.52323 0
M  V30 3010 H 318.773 2.18322 -3.47628 0
M  V30 3011 H 317.434 2.129 -2.30938 0
M  V30 3012 H 316.627 1.87776 -4.67714 0
M  V30 3013 H 316.229 0.435757 -3.71453 0
M  V30 3014 H 318.521 2.00071 -6.47285 0
M  V30 3015 H 319.464 0.592538 -7.05616 0
M  V30 3016 H 319.872 1.34061 -5.4835 0
M  V30 3017 N 319.27 1.56325 -0.20005 0
M  V30 3018 C 320.217 2.1932 0.718833 0
M  V30 3019 C 321.187 1.14198 1.20615 0
M  V30 3020 O 322.372 1.42469 1.26914 0
M  V30 3021 C 319.512 2.86041 1.93066 0
M  V30 3022 C 318.625 4.05702 1.48425 0
M  V30 3023 C 317.76 4.60266 2.65196 0
M  V30 3024 C 316.799 5.72273 2.17185 0
M  V30 3025 N 315.936 6.21221 3.27152 0
M  V30 3026 H 320.776 2.97486 0.17489 0
M  V30 3027 H 318.313 1.46911 0.0745794 0
M  V30 3028 H 320.271 3.22897 2.64184 0
M  V30 3029 H 318.901 2.1043 2.44783 0
M  V30 3030 H 317.953 3.74475 0.668755 0
M  V30 3031 H 319.265 4.86699 1.09204 0
M  V30 3032 H 318.419 4.99453 3.4443 0
M  V30 3033 H 317.158 3.78386 3.07693 0
M  V30 3034 H 316.163 5.3261 1.36407 0
M  V30 3035 H 317.388 6.55974 1.75713 0
M  V30 3036 H 315.334 5.42263 3.69171 0
M  V30 3037 H 315.251 6.97284 2.92116 0
M  V30 3038 H 316.519 6.65063 4.06585 0
M  V30 3039 N 320.748 -0.0735177 1.57428 0
M  V30 3040 C 321.978 -0.78483 1.91112 0
M  V30 3041 C 322.386 -1.71729 0.7941 0
M  V30 3042 O 321.729 -1.82105 -0.241542 0
M  V30 3043 C 321.791 -1.63346 3.20247 0
M  V30 3044 C 321.455 -0.870557 4.48632 0
M  V30 3045 C 322.452 -0.19058 5.19551 0
M  V30 3046 C 320.137 -0.838242 4.95256 0
M  V30 3047 C 322.131 0.511503 6.35344 0
M  V30 3048 C 319.818 -0.132386 6.10957 0
M  V30 3049 C 320.816 0.541288 6.80852 0
M  V30 3050 O 320.504 1.23578 7.94345 0
M  V30 3051 H 320.236 -0.228408 0.636244 0
M  V30 3052 H 322.79 -0.0486039 2.05342 0
M  V30 3053 H 321.02 -2.41245 3.02222 0
M  V30 3054 H 322.709 -2.22329 3.39595 0
M  V30 3055 H 323.475 -0.206864 4.84559 0
M  V30 3056 H 319.354 -1.35206 4.40727 0
M  V30 3057 H 322.898 1.03789 6.89836 0
M  V30 3058 H 318.795 -0.114023 6.45399 0
M  V30 3059 H 319.563 1.14487 8.10454 0
M  V30 3060 N 322.226 -1.5378 -0.344866 0
M  V30 3061 C 323.136 -1.84667 -1.4469 0
M  V30 3062 C 324.152 -0.736704 -1.57635 0
M  V30 3063 O 325.328 -1.02888 -1.73136 0
M  V30 3064 C 322.393 -2.04869 -2.79696 0
M  V30 3065 C 321.454 -3.28731 -2.76106 0
M  V30 3066 C 320.687 -3.4796 -4.04673 0
M  V30 3067 O 320.91 -2.71052 -5.01883 0
M  V30 3068 O 319.844 -4.41383 -4.09224 0
M  V30 3069 H 323.67 -2.78334 -1.21506 0
M  V30 3070 H 321.255 -1.39418 -0.536921 0
M  V30 3071 H 323.137 -2.19609 -3.59652 0
M  V30 3072 H 321.812 -1.14391 -3.02814 0
M  V30 3073 H 320.719 -3.19396 -1.94774 0
M  V30 3074 H 322.052 -4.19198 -2.57941 0
M  V30 3075 N 323.704 0.605807 -1.45491 0
M  V30 3076 C 324.652 1.73754 -1.54636 0
M  V30 3077 C 325.646 1.64207 -0.416219 0
M  V30 3078 O 326.852 1.69979 -0.592199 0
M  V30 3079 H 323.227 0.574073 -0.485741 0
M  V30 3080 H 325.198 1.63169 -2.49837 0
M  V30 3081 C 323.947 3.12135 -1.53189 0
M  V30 3082 H 323.27 3.20141 -2.39478 0
M  V30 3083 H 324.71 3.91147 -1.63645 0
M  V30 3084 C 323.169 3.35921 -0.256616 0
M  V30 3085 O 323.699 3.96194 0.662798 0
M  V30 3086 N 321.905 2.90204 -0.151751 0
M  V30 3087 H 321.452 2.41336 -0.90081 0
M  V30 3088 H 321.41 3.06492 0.700699 0
M  V30 3089 N 325.182 1.32811 0.848464 0
M  V30 3090 C 326.092 1.24278 1.98978 0
M  V30 3091 C 327.108 0.155176 1.73307 0
M  V30 3092 O 328.284 0.376999 1.9784 0
M  V30 3093 C 325.349 0.972444 3.32783 0
M  V30 3094 C 324.41 2.14911 3.71634 0
M  V30 3095 C 323.643 1.89157 4.99054 0
M  V30 3096 O 323.866 0.837165 5.64223 0
M  V30 3097 O 322.8 2.75433 5.35183 0
M  V30 3098 H 326.626 2.20238 2.09115 0
M  V30 3099 H 324.211 1.12762 0.980052 0
M  V30 3100 H 326.093 0.838432 4.12975 0
M  V30 3101 H 324.768 0.043051 3.23671 0
M  V30 3102 H 323.675 2.33862 2.91992 0
M  V30 3103 H 325.008 3.06151 3.85399 0
M  V30 3104 N 326.66 -1.06551 1.16123 0
M  V30 3105 C 327.59 -2.15935 0.88851 0
M  V30 3106 C 328.571 -1.69306 -0.164135 0
M  V30 3107 O 329.756 -1.94193 -0.0167857 0
M  V30 3108 C 326.886 -3.45149 0.385942 0
M  V30 3109 C 325.84 -4.05271 1.3762 0
M  V30 3110 C 325.166 -5.29664 0.732137 0
M  V30 3111 C 326.466 -4.44355 2.74493 0
M  V30 3112 H 328.16 -2.39006 1.80323 0
M  V30 3113 H 325.706 -1.14866 0.868435 0
M  V30 3114 H 327.659 -4.21004 0.182647 0
M  V30 3115 H 326.383 -3.21689 -0.564274 0
M  V30 3116 H 325.042 -3.3147 1.56599 0
M  V30 3117 H 324.69 -5.02499 -0.224483 0
M  V30 3118 H 324.39 -5.70848 1.39307 0
M  V30 3119 H 325.914 -6.08218 0.538802 0
M  V30 3120 H 327.328 -5.11303 2.59311 0
M  V30 3121 H 325.725 -4.96515 3.37035 0
M  V30 3122 H 326.795 -3.55339 3.29943 0
M  V30 3123 N 328.138 -0.959301 -1.25041 0
M  V30 3124 C 329.101 -0.487677 -2.23952 0
M  V30 3125 C 330.101 0.41119 -1.55454 0
M  V30 3126 O 331.291 0.207825 -1.72956 0
M  V30 3127 C 328.423 0.294807 -3.39623 0
M  V30 3128 H 329.616 -1.36198 -2.67189 0
M  V30 3129 H 327.169 -0.743042 -1.37508 0
M  V30 3130 H 327.904 1.18658 -3.01813 0
M  V30 3131 H 327.689 -0.35012 -3.90534 0
M  V30 3132 H 329.179 0.614089 -4.1306 0
M  V30 3133 N 329.616 1.39756 -0.72842 0
M  V30 3134 C 330.546 2.33289 -0.0991354 0
M  V30 3135 C 331.527 1.53568 0.731489 0
M  V30 3136 O 332.712 1.81987 0.677807 0
M  V30 3137 C 329.842 3.3763 0.813834 0
M  V30 3138 C 328.796 4.2791 0.0878663 0
M  V30 3139 C 328.122 5.22894 1.11741 0
M  V30 3140 C 329.422 5.11314 -1.06563 0
M  V30 3141 H 331.116 2.86163 -0.880408 0
M  V30 3142 H 328.662 1.37591 -0.424819 0
M  V30 3143 H 330.615 4.0201 1.26355 0
M  V30 3144 H 329.339 2.83181 1.62715 0
M  V30 3145 H 327.998 3.65 -0.342159 0
M  V30 3146 H 327.646 4.64744 1.92412 0
M  V30 3147 H 327.346 5.84143 0.636477 0
M  V30 3148 H 328.87 5.90151 1.56697 0
M  V30 3149 H 330.284 5.69076 -0.694671 0
M  V30 3150 H 328.681 5.81671 -1.47577 0
M  V30 3151 H 329.751 4.46534 -1.89038 0
M  V30 3152 N 331.094 0.475555 1.50254 0
M  V30 3153 C 332.51 0.12997 1.5907 0
M  V30 3154 C 332.71 -1.36385 1.48328 0
M  V30 3155 O 331.766 -2.13754 1.34407 0
M  V30 3156 C 333.079 0.684139 2.92814 0
M  V30 3157 C 334.627 0.647965 3.0622 0
M  V30 3158 C 335.102 1.17975 4.42545 0
M  V30 3159 N 336.593 1.13936 4.48969 0
M  V30 3160 C 337.328 1.52129 5.52851 0
M  V30 3161 N 336.824 1.97793 6.63965 0
M  V30 3162 N 338.617 1.43704 5.4342 0
M  V30 3163 H 330.768 1.44706 1.55479 0
M  V30 3164 H 333.031 0.598691 0.735033 0
M  V30 3165 H 332.737 1.73079 3.06164 0
M  V30 3166 H 332.611 0.130204 3.76975 0
M  V30 3167 H 334.998 -0.38979 2.92514 0
M  V30 3168 H 335.079 1.23876 2.23805 0
M  V30 3169 H 334.723 2.21616 4.57 0
M  V30 3170 H 334.653 0.565138 5.23559 0
M  V30 3171 H 337.144 0.804488 3.69238 0
M  V30 3172 H 337.457 2.25072 7.39299 0
M  V30 3173 H 335.802 2.01749 6.65073 0
M  V30 3174 H 338.993 1.07867 4.55502 0
M  V30 3175 H 339.166 1.73794 6.24259 0
M  V30 3176 N 332.573 -1.56217 0.208337 0
M  V30 3177 C 333.505 -2.1695 -0.739276 0
M  V30 3178 C 334.518 -1.13492 -1.1672 0
M  V30 3179 O 335.707 -1.40529 -1.10063 0
M  V30 3180 C 332.807 -2.72755 -2.01142 0
M  V30 3181 C 331.98 -4.0125 -1.74118 0
M  V30 3182 C 331.039 -4.41749 -2.85909 0
M  V30 3183 O 330.065 -5.08912 -2.54946 0
M  V30 3184 N 331.267 -4.06342 -4.14568 0
M  V30 3185 H 334.032 -2.98893 -0.219837 0
M  V30 3186 H 331.593 -1.61878 0.0268445 0
M  V30 3187 H 333.585 -2.96826 -2.75094 0
M  V30 3188 H 332.155 -1.95191 -2.4417 0
M  V30 3189 H 331.375 -3.85173 -0.838775 0
M  V30 3190 H 332.663 -4.851 -1.53477 0
M  V30 3191 H 332.061 -3.52345 -4.42571 0
M  V30 3192 H 330.618 -4.35335 -4.85105 0
M  V30 3193 N 334.051 0.0651679 -1.57465 0
M  V30 3194 C 335.299 0.761555 -1.87202 0
M  V30 3195 C 335.62 1.77778 -0.801243 0
M  V30 3196 O 334.89 1.95166 0.16937 0
M  V30 3197 H 333.47 0.284251 -0.690804 0
M  V30 3198 H 336.132 0.0396827 -1.9486 0
M  V30 3199 H 335.228 1.27365 -2.84929 0
M  V30 3200 N 335.529 1.53961 0.336706 0
M  V30 3201 C 336.775 1.7179 1.07777 0
M  V30 3202 C 337.108 0.483263 1.88091 0
M  V30 3203 O 336.383 -0.519747 1.87427 0
M  V30 3204 C 336.666 2.98558 2.01334 0
M  V30 3205 C 336.519 4.32245 1.24437 0
M  V30 3206 C 337.838 3.21023 3.01052 0
M  V30 3207 H 334.957 0.625089 0.390426 0
M  V30 3208 H 337.599 1.86641 0.35567 0
M  V30 3209 H 335.749 2.86028 2.62908 0
M  V30 3210 H 337.421 4.56637 0.654243 0
M  V30 3211 H 335.664 4.30344 0.546458 0
M  V30 3212 H 336.335 5.17137 1.93063 0
M  V30 3213 H 338.811 3.32929 2.49595 0
M  V30 3214 H 337.687 4.11104 3.6371 0
M  V30 3215 H 337.948 2.37637 3.72802 0
M  V30 3216 N 337.007 -0.598083 1.45811 0
M  V30 3217 C 337.917 -1.73632 1.57763 0
M  V30 3218 C 338.933 -1.67763 0.461676 0
M  V30 3219 O 340.109 -1.87949 0.723685 0
M  V30 3220 C 337.174 -3.10114 1.55018 0
M  V30 3221 C 336.235 -3.27364 2.77726 0
M  V30 3222 C 335.468 -4.57334 2.75102 0
M  V30 3223 O 335.691 -5.40258 1.8297 0
M  V30 3224 O 334.625 -4.77502 3.66437 0
M  V30 3225 H 338.451 -1.66498 2.53992 0
M  V30 3226 H 336.036 -0.763308 1.28429 0
M  V30 3227 H 337.918 -3.9141 1.56129 0
M  V30 3228 H 336.593 -3.17718 0.619431 0
M  V30 3229 H 335.5 -2.45619 2.82174 0
M  V30 3230 H 336.833 -3.24641 3.69958 0
M  V30 3231 N 338.485 -1.33259 -0.841409 0
M  V30 3232 C 339.448 -1.23221 -1.9326 0
M  V30 3233 C 340.448 -0.151895 -1.60081 0
M  V30 3234 O 341.638 -0.403246 -1.69468 0
M  V30 3235 C 338.77 -0.898123 -3.28856 0
M  V30 3236 H 339.963 -2.2021 -2.03587 0
M  V30 3237 H 337.516 -1.17281 -1.03319 0
M  V30 3238 H 338.251 0.0693841 -3.24226 0
M  V30 3239 H 338.036 -1.67934 -3.54317 0
M  V30 3240 H 339.526 -0.852563 -4.08805 0
M  V30 3241 N 339.963 1.05934 -1.16686 0
M  V30 3242 C 341.24 1.75643 -0.860747 0
M  V30 3243 C 341.62 2.01144 0.640641 0
M  V30 3244 O 340.968 1.64147 1.58959 0
M  V30 3245 C 341.178 3.05493 -1.68745 0
M  V30 3246 C 342.526 3.79581 -1.90271 0
M  V30 3247 O 343.55 3.15344 -1.65641 0
M  V30 3248 O 342.409 4.9499 -2.31618 0
M  V30 3249 H 339.503 0.763426 -0.317977 0
M  V30 3250 H 342.049 1.1217 -1.27342 0
M  V30 3251 H 340.821 2.8264 -2.70611 0
M  V30 3252 H 340.444 3.76702 -1.27206 0
M  V30 3253 N 341.441 0.965919 1.2453 0
M  V30 3254 C 342.69 0.622437 1.91856 0
M  V30 3255 C 343.003 -0.846006 1.76358 0
M  V30 3256 O 344.209 -1.29993 2.38357 0
M  V30 3257 C 342.665 1.0626 3.43856 0
M  V30 3258 C 342.273 2.55437 3.68043 0
M  V30 3259 C 344.017 0.792183 4.17043 0
M  V30 3260 C 341.924 2.93196 5.13605 0
M  V30 3261 H 340.854 0.229092 0.718354 0
M  V30 3262 H 343.505 1.17189 1.41206 0
M  V30 3263 H 341.887 0.441476 3.93531 0
M  V30 3264 H 343.061 3.22665 3.28974 0
M  V30 3265 H 341.376 2.8007 3.08139 0
M  V30 3266 H 343.973 1.05031 5.24283 0
M  V30 3267 H 344.316 -0.271584 4.15413 0
M  V30 3268 H 344.849 1.37419 3.73311 0
M  V30 3269 H 341.588 3.98636 5.20355 0
M  V30 3270 H 341.108 2.30651 5.53679 0
M  V30 3271 H 342.787 2.83004 5.81823 0
M  V30 3272 N 342.919 -1.39368 0.735821 0
M  V30 3273 C 343.867 -2.32443 0.0855131 0
M  V30 3274 C 344.861 -1.53104 -0.724954 0
M  V30 3275 O 346.067 -1.68762 -0.626047 0
M  V30 3276 H 342.442 -0.751948 0.00885257 0
M  V30 3277 H 344.413 -2.84916 0.886883 0
M  V30 3278 C 343.162 -3.38206 -0.806983 0
M  V30 3279 H 342.485 -3.99335 -0.19274 0
M  V30 3280 H 343.925 -4.05779 -1.2296 0
M  V30 3281 C 342.384 -2.75321 -1.94165 0
M  V30 3282 O 342.914 -2.63231 -3.03435 0
M  V30 3283 N 341.12 -2.33396 -1.73132 0
M  V30 3284 H 340.667 -2.4343 -0.842596 0
M  V30 3285 H 340.625 -1.91661 -2.49225 0
M  V30 3286 N 344.397 -0.483516 -1.5 0
M  V30 3287 C 345.645 0.067027 -2.01989 0
M  V30 3288 C 345.966 1.3909 -1.36671 0
M  V30 3289 O 345.236 1.88978 -0.516152 0
M  V30 3290 H 343.816 0.0277606 -0.746484 0
M  V30 3291 H 346.478 -0.636773 -1.84204 0
M  V30 3292 H 345.574 0.209484 -3.11396 0
M  V30 3293 N 345.875 1.56104 -0.216619 0
M  V30 3294 C 346.805 2.23063 0.690296 0
M  V30 3295 C 347.786 1.20072 1.20485 0
M  V30 3296 O 348.971 1.48643 1.24976 0
M  V30 3297 C 346.101 2.90672 1.90072 0
M  V30 3298 C 345.055 4.00092 1.5202 0
M  V30 3299 C 344.381 4.54972 2.80899 0
M  V30 3300 C 345.681 5.17398 0.71391 0
M  V30 3301 H 347.375 2.99109 0.132038 0
M  V30 3302 H 344.921 1.43866 0.0620664 0
M  V30 3303 H 346.874 3.36204 2.54057 0
M  V30 3304 H 345.598 2.12066 2.48386 0
M  V30 3305 H 344.257 3.55283 0.903839 0
M  V30 3306 H 343.905 3.73102 3.37348 0
M  V30 3307 H 343.605 5.28817 2.56176 0
M  V30 3308 H 345.129 5.0322 3.45836 0
M  V30 3309 H 346.543 5.59342 1.25735 0
M  V30 3310 H 344.94 5.97444 0.563951 0
M  V30 3311 H 346.01 4.84088 -0.280527 0
M  V30 3312 N 347.353 -0.0568162 1.57498 0
M  V30 3313 C 348.769 -0.411933 1.54192 0
M  V30 3314 C 348.969 -1.78287 0.938942 0
M  V30 3315 O 348.025 -2.46483 0.547919 0
M  V30 3316 C 349.338 -0.339244 2.9878 0
M  V30 3317 C 350.886 -0.418348 3.10192 0
M  V30 3318 C 351.361 -0.375407 4.56459 0
M  V30 3319 N 352.852 -0.435038 4.61153 0
M  V30 3320 C 353.587 -0.424265 5.71828 0
M  V30 3321 N 353.083 -0.367418 6.91825 0
M  V30 3322 N 354.876 -0.471938 5.60115 0
M  V30 3323 H 347.027 0.840684 1.95055 0
M  V30 3324 H 349.29 0.316987 0.893433 0
M  V30 3325 H 348.996 0.601742 3.46514 0
M  V30 3326 H 348.87 -1.14371 3.59443 0
M  V30 3327 H 351.257 -1.34976 2.62422 0
M  V30 3328 H 351.338 0.414962 2.52412 0
M  V30 3329 H 350.982 0.552219 5.04889 0
M  V30 3330 H 350.912 -1.22645 5.12119 0
M  V30 3331 H 353.403 -0.482612 3.74806 0
M  V30 3332 H 353.716 -0.363535 7.71944 0
M  V30 3333 H 352.061 -0.333879 6.94198 0
M  V30 3334 H 355.252 -0.514145 4.65268 0
M  V30 3335 H 355.425 -0.460073 6.46365 0
M  V30 3336 N 348.832 -1.54138 -0.328536 0
M  V30 3337 C 350.248 -1.44736 -0.672574 0
M  V30 3338 C 350.448 -0.616217 -1.91846 0
M  V30 3339 O 349.504 -0.113067 -2.52247 0
M  V30 3340 C 350.817 -2.884 -0.851217 0
M  V30 3341 C 352.365 -2.98271 -0.948877 0
M  V30 3342 C 352.84 -4.43074 -1.15973 0
M  V30 3343 N 354.331 -4.46665 -1.22658 0
M  V30 3344 C 355.066 -5.55857 -1.40751 0
M  V30 3345 N 354.562 -6.75026 -1.5592 0
M  V30 3346 N 356.355 -5.43495 -1.4342 0
M  V30 3347 H 348.506 -2.06661 0.490421 0
M  V30 3348 H 350.769 -0.934812 0.157579 0
M  V30 3349 H 350.475 -3.51699 -0.00704236 0
M  V30 3350 H 350.349 -3.34225 -1.74853 0
M  V30 3351 H 352.736 -2.35102 -1.78356 0
M  V30 3352 H 352.817 -2.55785 -0.0281435 0
M  V30 3353 H 352.461 -5.06827 -0.329915 0
M  V30 3354 H 352.391 -4.83165 -2.09426 0
M  V30 3355 H 354.882 -3.60797 -1.124 0
M  V30 3356 H 355.195 -7.54004 -1.69404 0
M  V30 3357 H 353.54 -6.77944 -1.53027 0
M  V30 3358 H 356.731 -4.49349 -1.31162 0
M  V30 3359 H 356.904 -6.28649 -1.57178 0
M  V30 3360 N 350.31 0.590341 -1.46126 0
M  V30 3361 C 351.556 1.35082 -1.51264 0
M  V30 3362 C 351.889 1.93534 -0.160711 0
M  V30 3363 O 351.164 1.76045 0.826956 0
M  V30 3364 C 351.447 2.48588 -2.6053 0
M  V30 3365 C 351.3 1.95221 -4.05227 0
M  V30 3366 C 352.619 3.50662 -2.6594 0
M  V30 3367 H 349.738 0.489803 -0.550692 0
M  V30 3368 H 352.38 0.663887 -1.78024 0
M  V30 3369 H 350.53 3.07186 -2.37843 0
M  V30 3370 H 352.202 1.41139 -4.39178 0
M  V30 3371 H 350.445 1.26101 -4.15068 0
M  V30 3372 H 351.116 2.77121 -4.77397 0
M  V30 3373 H 353.592 3.01934 -2.86313 0
M  V30 3374 H 352.468 4.27551 -3.44226 0
M  V30 3375 H 352.729 4.07399 -1.71694 0
M  V30 3376 N 351.788 1.33704 0.83433 0
M  V30 3377 C 352.718 1.26967 1.95963 0
M  V30 3378 C 353.699 0.149337 1.69443 0
M  V30 3379 O 354.884 0.339852 1.91203 0
M  V30 3380 C 352.014 1.01275 3.32206 0
M  V30 3381 C 350.968 2.09652 3.73136 0
M  V30 3382 C 350.294 1.69166 5.07235 0
M  V30 3383 C 351.594 3.51372 3.86439 0
M  V30 3384 H 353.288 2.2112 2.01857 0
M  V30 3385 H 350.834 1.06447 0.969793 0
M  V30 3386 H 352.787 0.952106 4.10503 0
M  V30 3387 H 351.511 0.0356203 3.26581 0
M  V30 3388 H 350.17 2.14766 2.97104 0
M  V30 3389 H 349.818 0.701437 4.98085 0
M  V30 3390 H 349.518 2.41694 5.35591 0
M  V30 3391 H 351.042 1.64576 5.88003 0
M  V30 3392 H 352.456 3.48734 4.55036 0
M  V30 3393 H 350.853 4.22425 4.26236 0
M  V30 3394 H 351.923 3.89546 2.88759 0
M  V30 3395 N 353.266 -1.05314 1.17247 0
M  V30 3396 C 354.543 -1.75184 0.87005 0
M  V30 3397 C 354.923 -2.01481 -0.629965 0
M  V30 3398 O 354.271 -1.64988 -1.58086 0
M  V30 3399 C 354.481 -3.04594 1.70363 0
M  V30 3400 C 355.829 -3.78567 1.92281 0
M  V30 3401 O 356.853 -3.14461 1.67311 0
M  V30 3402 O 355.712 -4.93755 2.3424 0
M  V30 3403 H 352.806 -0.761729 0.322021 0
M  V30 3404 H 355.352 -1.11493 1.27935 0
M  V30 3405 H 354.124 -2.81201 2.72106 0
M  V30 3406 H 353.747 -3.76022 1.29202 0
M  V30 3407 N 354.744 -0.972509 -1.24016 0
M  V30 3408 C 355.654 -0.5143 -2.28893 0
M  V30 3409 C 356.67 0.427078 -1.68677 0
M  V30 3410 O 357.846 0.298939 -1.99169 0
M  V30 3411 C 354.911 0.183598 -3.46214 0
M  V30 3412 C 353.972 -0.798202 -4.21814 0
M  V30 3413 C 353.205 -0.133514 -5.33533 0
M  V30 3414 O 353.428 1.07714 -5.60137 0
M  V30 3415 O 352.362 -0.828103 -5.96176 0
M  V30 3416 H 356.188 -1.38629 -2.70214 0
M  V30 3417 H 353.773 -0.739769 -1.29799 0
M  V30 3418 H 355.655 0.575433 -4.17453 0
M  V30 3419 H 354.33 1.03048 -3.0686 0
M  V30 3420 H 353.237 -1.24059 -3.52931 0
M  V30 3421 H 354.57 -1.61364 -4.64997 0
M  V30 3422 N 356.222 1.38976 -0.743202 0
M  V30 3423 C 357.152 2.33171 -0.123873 0
M  V30 3424 C 358.133 1.54336 0.71516 0
M  V30 3425 O 359.318 1.82696 0.658467 0
M  V30 3426 C 356.448 3.38474 0.777978 0
M  V30 3427 C 355.402 4.27979 0.0424758 0
M  V30 3428 C 354.728 5.2405 1.06189 0
M  V30 3429 C 356.028 5.10155 -1.1198 0
M  V30 3430 H 357.722 2.85213 -0.910709 0
M  V30 3431 H 355.268 1.37133 -0.439388 0
M  V30 3432 H 357.221 4.03328 1.22084 0
M  V30 3433 H 355.945 2.84891 1.59702 0
M  V30 3434 H 354.604 3.64616 -0.380853 0
M  V30 3435 H 354.252 4.66758 1.87472 0
M  V30 3436 H 353.952 5.84785 0.574485 0
M  V30 3437 H 355.476 5.9178 1.50428 0
M  V30 3438 H 356.89 5.68307 -0.75499 0
M  V30 3439 H 355.287 5.80073 -1.53738 0
M  V30 3440 H 356.357 4.44504 -1.93764 0
M  V30 3441 N 357.7 0.491464 1.49741 0
M  V30 3442 C 358.928 -0.0535151 2.06831 0
M  V30 3443 C 359.343 -1.31683 1.35296 0
M  V30 3444 O 358.7 -1.77402 0.42836 0
M  V30 3445 C 358.751 -0.320835 3.60073 0
M  V30 3446 O 358.472 0.892394 4.28915 0
M  V30 3447 C 359.973 -0.910519 4.33848 0
M  V30 3448 H 357.193 0.0161909 0.670805 0
M  V30 3449 H 359.737 0.68609 1.92647 0
M  V30 3450 H 357.892 -1.0104 3.73991 0
M  V30 3451 H 358.306 0.649401 5.20464 0
M  V30 3452 H 359.78 -1.04721 5.41976 0
M  V30 3453 H 360.257 -1.90589 3.95692 0
M  V30 3454 H 360.863 -0.258712 4.24512 0
M  V30 3455 N 359.178 -1.55987 0.224894 0
M  V30 3456 C 360.108 -2.23426 -0.678457 0
M  V30 3457 C 361.089 -1.20709 -1.19847 0
M  V30 3458 O 362.274 -1.49304 -1.24186 0
M  V30 3459 C 359.404 -2.91676 -1.88527 0
M  V30 3460 C 358.358 -4.00893 -1.49896 0
M  V30 3461 C 357.684 -4.56455 -2.78483 0
M  V30 3462 C 358.984 -5.17769 -0.686461 0
M  V30 3463 H 360.678 -2.99175 -0.116173 0
M  V30 3464 H 358.224 -1.43897 -0.054436 0
M  V30 3465 H 360.177 -3.37547 -2.5227 0
M  V30 3466 H 358.901 -2.1338 -2.47258 0
M  V30 3467 H 357.56 -3.55758 -0.884985 0
M  V30 3468 H 357.208 -3.74886 -3.35365 0
M  V30 3469 H 356.908 -5.30169 -2.53368 0
M  V30 3470 H 358.432 -5.05047 -3.43162 0
M  V30 3471 H 359.846 -5.60001 -1.22767 0
M  V30 3472 H 358.243 -5.97735 -0.532259 0
M  V30 3473 H 359.313 -4.83932 0.306196 0
M  V30 3474 N 360.656 0.0484629 -1.57525 0
M  V30 3475 C 361.884 0.755421 -1.92616 0
M  V30 3476 C 362.299 1.69919 -0.822984 0
M  V30 3477 O 361.656 1.81378 0.202085 0
M  V30 3478 C 361.707 1.52915 -3.27566 0
M  V30 3479 O 361.428 0.62329 -4.33644 0
M  V30 3480 C 362.929 2.33502 -3.76818 0
M  V30 3481 H 360.149 0.213465 -0.63614 0
M  V30 3482 H 362.693 0.0117698 -2.04497 0
M  V30 3483 H 360.848 2.22486 -3.17142 0
M  V30 3484 H 361.262 1.16383 -5.11425 0
M  V30 3485 H 362.736 2.83214 -4.73808 0
M  V30 3486 H 363.213 3.14068 -3.07014 0
M  V30 3487 H 363.819 1.69043 -3.90262 0
M  V30 3488 N 362.134 1.5431 0.320358 0
M  V30 3489 C 363.55 1.45091 0.664889 0
M  V30 3490 C 363.75 0.626382 1.91517 0
M  V30 3491 O 362.806 0.126443 2.52183 0
M  V30 3492 C 364.119 2.88848 0.83591 0
M  V30 3493 C 365.667 2.9877 0.933046 0
M  V30 3494 C 366.142 4.43683 1.13621 0
M  V30 3495 N 367.633 4.47309 1.20287 0
M  V30 3496 C 368.368 5.56595 1.37801 0
M  V30 3497 N 367.864 6.75844 1.52338 0
M  V30 3498 N 369.657 5.44248 1.40535 0
M  V30 3499 H 361.808 2.06398 -0.501374 0
M  V30 3500 H 364.071 0.933963 -0.162534 0
M  V30 3501 H 363.777 3.51698 -0.0116092 0
M  V30 3502 H 363.651 3.35148 1.73078 0
M  V30 3503 H 366.038 2.36045 1.77107 0
M  V30 3504 H 366.119 2.55796 0.0145782 0
M  V30 3505 H 365.763 5.06995 0.303032 0
M  V30 3506 H 365.693 4.84269 2.0686 0
M  V30 3507 H 368.184 3.61388 1.10485 0
M  V30 3508 H 368.497 7.54892 1.65403 0
M  V30 3509 H 366.842 6.78746 1.4943 0
M  V30 3510 H 370.033 4.50038 1.28777 0
M  V30 3511 H 370.206 6.29473 1.53842 0
M  V30 3512 N 363.613 -0.582584 1.46437 0
M  V30 3513 C 364.841 -1.36682 1.55324 0
M  V30 3514 C 365.256 -1.87796 0.194409 0
M  V30 3515 O 364.613 -1.63623 -0.808318 0
M  V30 3516 C 364.664 -2.55426 2.55812 0
M  V30 3517 O 364.385 -2.0643 3.86417 0
M  V30 3518 C 365.886 -3.47976 2.74641 0
M  V30 3519 H 363.106 -0.417545 0.525259 0
M  V30 3520 H 365.65 -0.708219 1.91845 0
M  V30 3521 H 363.805 -3.17275 2.22295 0
M  V30 3522 H 364.219 -2.83762 4.41111 0
M  V30 3523 H 365.693 -4.27775 3.48874 0
M  V30 3524 H 366.17 -3.99919 1.81553 0
M  V30 3525 H 366.776 -2.91962 3.09255 0
M  V30 3526 N 365.091 -1.34144 -0.827227 0
M  V30 3527 C 366.368 -1.16844 -1.56865 0
M  V30 3528 C 366.748 0.260654 -2.09485 0
M  V30 3529 O 366.096 1.26138 -1.9053 0
M  V30 3530 C 366.306 -2.21939 -2.6934 0
M  V30 3531 C 367.654 -2.56695 -3.3822 0
M  V30 3532 O 368.678 -2.20695 -2.79593 0
M  V30 3533 O 367.537 -3.18518 -4.44082 0
M  V30 3534 H 364.631 -0.452669 -0.692112 0
M  V30 3535 H 367.177 -1.45763 -0.868973 0
M  V30 3536 H 365.949 -3.17882 -2.28182 0
M  V30 3537 H 365.572 -1.94172 -3.46962 0
M  V30 3538 N 366.569 1.04691 -1.17803 0
M  V30 3539 C 367.499 2.14494 -0.92275 0
M  V30 3540 C 368.48 1.69546 0.137179 0
M  V30 3541 O 369.665 1.94195 -0.0141108 0
M  V30 3542 C 366.795 3.44491 -0.440803 0
M  V30 3543 C 365.749 4.03031 -1.4405 0
M  V30 3544 C 365.075 5.28432 -0.81631 0
M  V30 3545 C 366.375 4.39932 -2.81527 0
M  V30 3546 H 368.069 2.36107 -1.84103 0
M  V30 3547 H 365.615 1.1347 -0.886599 0
M  V30 3548 H 367.568 4.2066 -0.249602 0
M  V30 3549 H 366.292 3.22546 0.513025 0
M  V30 3550 H 364.951 3.28937 -1.61853 0
M  V30 3551 H 364.599 5.02792 0.144511 0
M  V30 3552 H 364.299 5.68559 -1.48371 0
M  V30 3553 H 365.823 6.07284 -0.635496 0
M  V30 3554 H 367.237 5.07113 -2.67412 0
M  V30 3555 H 365.634 4.9109 -3.44892 0
M  V30 3556 H 366.704 3.50045 -3.35554 0
M  V30 3557 N 368.047 0.979072 1.23499 0
M  V30 3558 C 368.957 0.526431 2.28617 0
M  V30 3559 C 369.973 -0.418126 1.68901 0
M  V30 3560 O 371.149 -0.288372 1.99325 0
M  V30 3561 C 368.214 -0.165235 3.46306 0
M  V30 3562 C 367.275 0.82056 4.21385 0
M  V30 3563 C 366.508 0.161807 5.33455 0
M  V30 3564 O 366.731 -1.04742 5.60701 0
M  V30 3565 O 365.665 0.859708 5.95729 0
M  V30 3566 H 369.491 1.4006 2.69475 0
M  V30 3567 H 367.076 0.746643 1.29405 0
M  V30 3568 H 368.958 -0.553287 4.17752 0
M  V30 3569 H 367.633 -1.01419 3.07402 0
M  V30 3570 H 366.54 1.25929 3.52268 0
M  V30 3571 H 367.873 1.63828 4.64135 0
M  V30 3572 N 369.525 -1.3858 0.750561 0
M  V30 3573 C 370.458 -2.28095 0.0693139 0
M  V30 3574 C 371.436 -1.45217 -0.731491 0
M  V30 3575 O 372.62 -1.74587 -0.71076 0
M  V30 3576 C 369.747 -3.26282 -0.90871 0
M  V30 3577 C 368.793 -4.26056 -0.194507 0
M  V30 3578 S 369.626 -5.24026 1.10257 0
M  V30 3579 C 370.782 -6.2577 0.127542 0
M  V30 3580 H 371.015 -2.85526 0.8284 0
M  V30 3581 H 368.548 -1.44536 0.543014 0
M  V30 3582 H 370.506 -3.83367 -1.46766 0
M  V30 3583 H 369.167 -2.6784 -1.64075 0
M  V30 3584 H 368.36 -4.95249 -0.93512 0
M  V30 3585 H 367.962 -3.72852 0.292837 0
M  V30 3586 H 370.254 -6.73796 -0.707516 0
M  V30 3587 H 371.197 -7.03712 0.787044 0
M  V30 3588 H 371.605 -5.63938 -0.251803 0
M  V30 3589 N 371.003 -0.499398 -1.49478 0
M  V30 3590 C 371.935 0.316575 -2.27003 0
M  V30 3591 C 372.948 0.932047 -1.33479 0
M  V30 3592 O 374.137 0.815658 -1.58774 0
M  V30 3593 C 371.237 1.46055 -3.05812 0
M  V30 3594 C 370.41 0.952679 -4.26899 0
M  V30 3595 C 369.469 1.97407 -4.87767 0
M  V30 3596 O 368.495 1.54326 -5.4788 0
M  V30 3597 N 369.697 3.30436 -4.77276 0
M  V30 3598 H 372.462 -0.348168 -2.97671 0
M  V30 3599 H 370.023 -0.33185 -1.58463 0
M  V30 3600 H 372.015 2.14135 -3.43407 0
M  V30 3601 H 370.585 2.02948 -2.37762 0
M  V30 3602 H 369.805 0.0968248 -3.94081 0
M  V30 3603 H 371.093 0.59174 -5.05347 0
M  V30 3604 H 370.491 3.68126 -4.29534 0
M  V30 3605 H 369.048 3.94235 -5.19059 0
M  V30 3606 N 372.481 1.55866 -0.233164 0
M  V30 3607 C 373.73 1.97779 0.39579 0
M  V30 3608 C 374.043 1.12419 1.60066 0
M  V30 3609 O 375.249 1.44283 2.29988 0
M  V30 3610 C 373.705 3.5188 0.755556 0
M  V30 3611 C 373.313 4.45959 -0.427152 0
M  V30 3612 C 375.057 4.02479 1.34946 0
M  V30 3613 C 372.964 5.91383 -0.0443043 0
M  V30 3614 H 371.894 0.738592 0.15165 0
M  V30 3615 H 374.545 1.80486 -0.331212 0
M  V30 3616 H 372.927 3.64816 1.5403 0
M  V30 3617 H 374.101 4.44776 -1.20462 0
M  V30 3618 H 372.416 4.05765 -0.935068 0
M  V30 3619 H 375.013 5.08637 1.649 0
M  V30 3620 H 375.356 3.49014 2.26925 0
M  V30 3621 H 375.889 3.92813 0.62791 0
M  V30 3622 H 372.628 6.48857 -0.930874 0
M  V30 3623 H 372.148 5.95734 0.697238 0
M  V30 3624 H 373.827 6.45893 0.378334 0
M  V30 3625 N 373.959 -0.0401083 1.57549 0
M  V30 3626 C 374.869 -1.06133 2.0922 0
M  V30 3627 C 375.885 -1.40356 1.0284 0
M  V30 3628 O 377.061 -1.49897 1.34509 0
M  V30 3629 C 374.126 -2.34658 2.55218 0
M  V30 3630 C 373.187 -2.07117 3.76033 0
M  V30 3631 C 372.42 -3.29514 4.19829 0
M  V30 3632 O 372.643 -4.39794 3.63232 0
M  V30 3633 O 371.577 -3.15863 5.12362 0
M  V30 3634 H 375.403 -0.652244 2.96613 0
M  V30 3635 H 372.988 -0.256368 1.47184 0
M  V30 3636 H 374.87 -3.10239 2.85184 0
M  V30 3637 H 373.545 -2.74883 1.70941 0
M  V30 3638 H 372.452 -1.29139 3.51104 0
M  V30 3639 H 373.785 -1.71754 4.61261 0
M  V30 3640 N 375.437 -1.54477 -0.31217 0
M  V30 3641 C 376.662 -1.77526 -1.07235 0
M  V30 3642 C 377.087 -0.527775 -1.80544 0
M  V30 3643 O 376.445 0.52121 -1.73646 0
M  V30 3644 C 376.493 -2.97535 -2.03728 0
M  V30 3645 O 375.597 -2.69878 -3.11833 0
M  V30 3646 H 374.938 -0.58792 -0.30862 0
M  V30 3647 H 377.468 -2.01532 -0.352993 0
M  V30 3648 H 377.478 -3.25198 -2.46395 0
M  V30 3649 H 376.153 -3.87996 -1.49774 0
M  V30 3650 H 374.73 -2.53199 -2.7376 0
M  V30 3651 N 376.915 0.57481 -1.46744 0
M  V30 3652 C 377.845 1.69337 -1.60771 0
M  V30 3653 C 378.826 1.63825 -0.457736 0
M  V30 3654 O 380.011 1.8172 -0.684947 0
M  V30 3655 C 377.141 3.0798 -1.60517 0
M  V30 3656 C 376.095 3.28327 -2.74564 0
M  V30 3657 C 375.421 4.67578 -2.59373 0
M  V30 3658 C 376.721 3.15398 -4.16319 0
M  V30 3659 H 378.415 1.57853 -2.54407 0
M  V30 3660 H 375.961 0.75799 -1.22436 0
M  V30 3661 H 377.914 3.86061 -1.68923 0
M  V30 3662 H 376.638 3.20381 -0.634305 0
M  V30 3663 H 375.297 2.52649 -2.65639 0
M  V30 3664 H 374.945 4.76755 -1.60353 0
M  V30 3665 H 374.645 4.82144 -3.35873 0
M  V30 3666 H 376.169 5.47817 -2.69682 0
M  V30 3667 H 377.583 3.83315 -4.26313 0
M  V30 3668 H 375.98 3.41482 -4.93468 0
M  V30 3669 H 377.05 2.12372 -4.3592 0
M  V30 3670 N 378.394 1.34581 0.820102 0
M  V30 3671 C 379.342 1.26401 1.95258 0
M  V30 3672 C 380.336 0.161553 1.68628 0
M  V30 3673 O 381.542 0.326703 1.7701 0
M  V30 3674 H 377.917 0.392749 0.64129 0
M  V30 3675 H 379.888 2.22105 1.99279 0
M  V30 3676 C 378.637 1.03919 3.31807 0
M  V30 3677 H 377.96 1.87984 3.52848 0
M  V30 3678 H 379.4 1.02232 4.11491 0
M  V30 3679 C 377.859 -0.257433 3.35915 0
M  V30 3680 O 378.389 -1.25784 3.81499 0
M  V30 3681 N 376.595 -0.291524 2.89134 0
M  V30 3682 H 376.142 0.523161 2.52232 0
M  V30 3683 H 376.1 -1.15883 2.92264 0
M  V30 3684 N 379.872 -1.04064 1.18357 0
M  V30 3685 C 380.782 -2.15569 0.925596 0
M  V30 3686 C 381.798 -1.7365 -0.110295 0
M  V30 3687 O 382.974 -2.01273 0.0716218 0
M  V30 3688 C 380.039 -3.43704 0.454836 0
M  V30 3689 C 379.1 -4.00004 1.55869 0
M  V30 3690 C 378.333 -5.22023 1.1103 0
M  V30 3691 O 378.556 -5.70392 -0.0309756 0
M  V30 3692 O 377.49 -5.70856 1.90805 0
M  V30 3693 H 381.316 -2.40187 1.8586 0
M  V30 3694 H 378.901 -1.1402 0.965394 0
M  V30 3695 H 380.783 -4.20923 0.200382 0
M  V30 3696 H 379.458 -3.20559 -0.449876 0
M  V30 3697 H 378.365 -3.24172 1.86716 0
M  V30 3698 H 379.698 -4.2749 2.43953 0
M  V30 3699 N 381.35 -0.985608 -1.22978 0
M  V30 3700 C 382.26 -0.538548 -2.28335 0
M  V30 3701 C 383.276 0.409163 -1.69121 0
M  V30 3702 O 384.452 0.277797 -1.99475 0
M  V30 3703 C 381.517 0.146867 -3.46389 0
M  V30 3704 C 380.578 -0.842896 -4.20944 0
M  V30 3705 C 379.811 -0.190095 -5.33361 0
M  V30 3706 O 380.034 1.01767 -5.61248 0
M  V30 3707 O 378.968 -0.891289 -5.95264 0
M  V30 3708 H 382.794 -1.41487 -2.68729 0
M  V30 3709 H 380.379 -0.753495 -1.29007 0
M  V30 3710 H 382.261 0.531125 -4.1804 0
M  V30 3711 H 380.936 0.997871 -3.07935 0
M  V30 3712 H 379.843 -1.27795 -3.51595 0
M  V30 3713 H 381.176 -1.66287 -4.6326 0
M  V30 3714 N 382.828 1.3818 -0.7579 0
M  V30 3715 C 383.758 2.33027 -0.148597 0
M  V30 3716 C 384.739 1.55085 0.69875 0
M  V30 3717 O 385.924 1.83384 0.639053 0
M  V30 3718 C 383.054 3.3928 0.742034 0
M  V30 3719 C 382.008 4.28 -0.00291946 0
M  V30 3720 C 381.334 5.25146 1.00625 0
M  V30 3721 C 382.634 5.08938 -1.17385 0
M  V30 3722 H 384.328 2.84231 -0.940909 0
M  V30 3723 H 381.874 1.36659 -0.453908 0
M  V30 3724 H 383.827 4.046 1.17799 0
M  V30 3725 H 382.551 2.86569 1.56671 0
M  V30 3726 H 381.21 3.64192 -0.419504 0
M  V30 3727 H 380.858 4.68721 1.8251 0
M  V30 3728 H 380.558 5.85361 0.512428 0
M  V30 3729 H 382.082 5.93342 1.44143 0
M  V30 3730 H 383.496 5.67474 -0.815224 0
M  V30 3731 H 381.893 5.7841 -1.59882 0
M  V30 3732 H 382.963 4.42424 -1.98468 0
M  V30 3733 N 384.306 0.507319 1.49211 0
M  V30 3734 C 385.269 -0.256763 2.27757 0
M  V30 3735 C 386.269 -0.888287 1.34038 0
M  V30 3736 O 387.459 -0.751841 1.5714 0
M  V30 3737 C 384.591 -1.36905 3.12202 0
M  V30 3738 H 385.784 0.432557 2.96764 0
M  V30 3739 H 383.337 0.262488 1.5408 0
M  V30 3740 H 384.072 -2.09233 2.47775 0
M  V30 3741 H 383.857 -0.921599 3.81115 0
M  V30 3742 H 385.347 -1.9071 3.7151 0
M  V30 3743 N 385.784 -1.5574 0.241426 0
M  V30 3744 C 387.014 -2.02913 -0.38857 0
M  V30 3745 C 387.422 -1.12014 -1.52478 0
M  V30 3746 O 386.765 -0.125903 -1.83268 0
M  V30 3747 C 386.827 -3.4636 -0.963075 0
M  V30 3748 C 386.491 -4.56982 0.0401916 0
M  V30 3749 C 387.488 -5.12941 0.847766 0
M  V30 3750 C 385.173 -5.0203 0.164699 0
M  V30 3751 C 387.167 -6.12437 1.76636 0
M  V30 3752 C 384.854 -6.01358 1.0868 0
M  V30 3753 C 385.852 -6.5644 1.88616 0
M  V30 3754 O 385.54 -7.53831 2.79273 0
M  V30 3755 H 385.272 -0.668983 -0.0971452 0
M  V30 3756 H 387.826 -2.02198 0.361248 0
M  V30 3757 H 386.056 -3.44206 -1.76235 0
M  V30 3758 H 387.745 -3.77065 -1.50257 0
M  V30 3759 H 388.511 -4.78974 0.762133 0
M  V30 3760 H 384.39 -4.58824 -0.447411 0
M  V30 3761 H 387.934 -6.55355 2.39071 0
M  V30 3762 H 383.831 -6.34746 1.17338 0
M  V30 3763 H 384.599 -7.71428 2.73572 0
M  V30 3764 N 387.262 0.0317525 -1.57568 0
M  V30 3765 C 388.195 1.06621 -2.0176 0
M  V30 3766 C 389.173 1.35323 -0.901462 0
M  V30 3767 O 390.357 1.48025 -1.16708 0
M  V30 3768 C 387.484 2.40155 -2.38837 0
M  V30 3769 C 386.53 2.27327 -3.60867 0
M  V30 3770 S 387.363 1.62925 -5.10113 0
M  V30 3771 C 388.519 2.97955 -5.5043 0
M  V30 3772 H 388.752 0.689781 -2.89187 0
M  V30 3773 H 386.285 0.24164 -1.52497 0
M  V30 3774 H 388.243 3.1695 -2.6087 0
M  V30 3775 H 386.904 2.74946 -1.51867 0
M  V30 3776 H 386.097 3.25898 -3.84456 0
M  V30 3777 H 385.699 1.58675 -3.38671 0
M  V30 3778 H 387.991 3.94285 -5.5095 0
M  V30 3779 H 388.934 2.79102 -6.50775 0
M  V30 3780 H 389.342 3.00404 -4.77931 0
M  V30 3781 N 388.74 1.54641 0.303973 0
M  V30 3782 C 389.687 1.85386 1.37479 0
M  V30 3783 C 390.657 0.702528 1.50512 0
M  V30 3784 O 391.842 0.950867 1.65418 0
M  V30 3785 C 388.982 2.10413 2.73533 0
M  V30 3786 C 388.095 3.38049 2.68974 0
M  V30 3787 C 387.23 3.52934 3.97002 0
M  V30 3788 C 386.269 4.74373 3.86829 0
M  V30 3789 N 385.406 4.8608 5.06627 0
M  V30 3790 H 390.246 2.76732 1.1056 0
M  V30 3791 H 387.783 1.37034 0.534805 0
M  V30 3792 H 389.741 2.22919 3.52652 0
M  V30 3793 H 388.371 1.22338 2.98719 0
M  V30 3794 H 387.423 3.3418 1.81736 0
M  V30 3795 H 388.735 4.27288 2.57346 0
M  V30 3796 H 387.889 3.65088 4.84557 0
M  V30 3797 H 386.628 2.61824 4.1146 0
M  V30 3798 H 385.633 4.62255 2.97658 0
M  V30 3799 H 386.858 5.66888 3.73918 0
M  V30 3800 H 384.804 3.97891 5.21554 0
M  V30 3801 H 384.721 5.69315 4.9741 0
M  V30 3802 H 385.989 5.02587 5.95841 0
M  V30 3803 N 390.218 -0.567019 1.47046 0
M  V30 3804 C 391.165 -1.67489 1.58796 0
M  V30 3805 C 392.135 -1.60399 0.43144 0
M  V30 3806 O 393.32 -1.79378 0.650233 0
M  V30 3807 C 390.46 -3.05821 1.59899 0
M  V30 3808 C 389.573 -3.2342 2.86397 0
M  V30 3809 C 388.708 -4.52093 2.789 0
M  V30 3810 C 387.747 -4.6309 4.00267 0
M  V30 3811 N 386.884 -5.83106 3.91064 0
M  V30 3812 H 391.724 -1.56785 2.53422 0
M  V30 3813 H 389.261 -0.763896 1.2571 0
M  V30 3814 H 391.219 -3.8591 1.58522 0
M  V30 3815 H 389.849 -3.15384 0.687929 0
M  V30 3816 H 388.901 -2.3683 2.97684 0
M  V30 3817 H 390.213 -3.27412 3.76301 0
M  V30 3818 H 389.367 -5.4043 2.75718 0
M  V30 3819 H 388.106 -4.50565 1.86662 0
M  V30 3820 H 387.111 -3.73168 4.03765 0
M  V30 3821 H 388.336 -4.66386 4.93621 0
M  V30 3822 H 386.282 -5.82546 3.01623 0
M  V30 3823 H 386.199 -5.88434 4.74638 0
M  V30 3824 H 387.467 -6.73831 3.91882 0
M  V30 3825 N 391.696 -1.35014 -0.812953 0
M  V30 3826 C 392.644 -1.27435 -1.94585 0
M  V30 3827 C 393.638 -0.170494 -1.6854 0
M  V30 3828 O 394.844 -0.336085 -1.76835 0
M  V30 3829 H 391.219 -0.396144 -0.639198 0
M  V30 3830 H 393.19 -2.23158 -1.98098 0
M  V30 3831 C 391.939 -1.05677 -3.31252 0
M  V30 3832 H 391.262 -1.89853 -3.51846 0
M  V30 3833 H 392.702 -1.04413 -4.10943 0
M  V30 3834 C 391.161 0.239615 -3.36047 0
M  V30 3835 O 391.691 1.23759 -3.8216 0
M  V30 3836 N 389.897 0.276186 -2.89285 0
M  V30 3837 H 389.444 -0.53653 -2.51951 0
M  V30 3838 H 389.402 1.14332 -2.92875 0
M  V30 3839 N 393.175 1.03435 -1.18907 0
M  V30 3840 C 394.125 2.09924 -0.889706 0
M  V30 3841 C 395.109 1.60261 0.143216 0
M  V30 3842 O 396.301 1.76892 -0.0617122 0
M  V30 3843 C 393.43 3.40669 -0.424168 0
M  V30 3844 C 392.516 3.97082 -1.48952 0
M  V30 3845 N 392.907 4.27227 -2.70759 0
M  V30 3846 C 391.205 4.25029 -1.35152 0
M  V30 3847 C 391.906 4.7246 -3.39347 0
M  V30 3848 N 390.882 4.7366 -2.66735 0
M  V30 3849 H 394.684 2.31116 -1.81555 0
M  V30 3850 H 392.198 1.21246 -1.08042 0
M  V30 3851 H 394.195 4.16461 -0.191176 0
M  V30 3852 H 392.855 3.20901 0.495263 0
M  V30 3853 H 393.866 4.16678 -3.0757 0
M  V30 3854 H 390.543 4.14554 -0.495126 0
M  V30 3855 H 391.933 5.04751 -4.43481 0
M  V30 3856 N 394.653 0.992116 1.22453 0
M  V30 3857 C 395.563 0.55065 2.28046 0
M  V30 3858 C 396.579 -0.400189 1.69335 0
M  V30 3859 O 397.755 -0.267215 1.99619 0
M  V30 3860 C 394.82 -0.128496 3.46462 0
M  V30 3861 C 393.881 0.865208 4.20491 0
M  V30 3862 C 393.114 0.218377 5.33253 0
M  V30 3863 O 393.337 -0.987894 5.6178 0
M  V30 3864 O 392.271 0.922845 5.94783 0
M  V30 3865 H 396.097 1.4291 2.67975 0
M  V30 3866 H 393.682 0.760326 1.28606 0
M  V30 3867 H 395.564 -0.508947 4.18315 0
M  V30 3868 H 394.239 -0.981526 3.0846 0
M  V30 3869 H 393.146 1.29658 3.50913 0
M  V30 3870 H 394.479 1.68741 4.62371 0
M  V30 3871 N 396.131 -1.37776 0.765217 0
M  V30 3872 C 397.408 -1.93975 0.251596 0
M  V30 3873 C 397.788 -1.69949 -1.25222 0
M  V30 3874 O 397.136 -1.04457 -2.03226 0
M  V30 3875 C 397.346 -3.43487 0.617895 0
M  V30 3876 C 398.694 -4.20564 0.584029 0
M  V30 3877 O 399.718 -3.5182 0.556888 0
M  V30 3878 O 398.577 -5.43138 0.605291 0
M  V30 3879 H 395.671 -0.82509 0.0561806 0
M  V30 3880 H 398.217 -1.47101 0.846128 0
M  V30 3881 H 396.989 -3.5453 1.65602 0
M  V30 3882 H 396.612 -3.976 -0.00403411 0
M  V30 3883 N 397.609 -0.515225 -1.4894 0
M  V30 3884 C 398.519 0.259774 -2.33157 0
M  V30 3885 C 399.535 0.953501 -1.45548 0
M  V30 3886 O 400.711 0.931735 -1.78552 0
M  V30 3887 C 397.776 1.30193 -3.21326 0
M  V30 3888 C 396.837 0.620129 -4.24797 0
M  V30 3889 C 396.07 1.61263 -5.08753 0
M  V30 3890 O 396.293 2.84389 -4.94448 0
M  V30 3891 O 395.227 1.16013 -5.90614 0
M  V30 3892 H 399.053 -0.429932 -3.00641 0
M  V30 3893 H 396.638 -0.276346 -1.46822 0
M  V30 3894 H 398.52 1.90455 -3.75905 0
M  V30 3895 H 397.195 1.97431 -2.56521 0
M  V30 3896 H 396.102 -0.0226019 -3.74093 0
M  V30 3897 H 397.435 -0.0100493 -4.92199 0
M  V30 3898 N 399.087 1.5561 -0.249682 0
M  V30 3899 C 400.017 2.24477 0.642826 0
M  V30 3900 C 400.998 1.22601 1.17911 0
M  V30 3901 O 402.183 1.5126 1.21795 0
M  V30 3902 C 399.313 2.94638 1.83863 0
M  V30 3903 C 398.267 4.03227 1.435 0
M  V30 3904 C 397.593 4.60828 2.71186 0
M  V30 3905 C 398.893 5.18796 0.604002 0
M  V30 3906 H 400.587 2.99321 0.0685625 0
M  V30 3907 H 398.133 1.43965 0.0315363 0
M  V30 3908 H 400.086 3.41517 2.46868 0
M  V30 3909 H 398.81 2.17287 2.43832 0
M  V30 3910 H 397.469 3.57121 0.828275 0
M  V30 3911 H 397.117 3.80174 3.29358 0
M  V30 3912 H 396.817 5.34132 2.44901 0
M  V30 3913 H 398.341 5.10442 3.35084 0
M  V30 3914 H 399.755 5.61883 1.13842 0
M  V30 3915 H 398.152 5.98506 0.437097 0
M  V30 3916 H 399.222 4.83384 -0.383147 0
M  V30 3917 N 400.565 -0.0233959 1.57583 0
M  V30 3918 C 401.497 -1.04994 2.03737 0
M  V30 3919 C 402.51 -1.32125 0.951152 0
M  V30 3920 O 403.699 -1.29512 1.22837 0
M  V30 3921 C 400.799 -2.39026 2.40249 0
M  V30 3922 C 399.972 -2.31171 3.7132 0
M  V30 3923 C 399.031 -3.47698 3.94959 0
M  V30 3924 O 398.057 -3.26937 4.65941 0
M  V30 3925 N 399.259 -4.6976 3.41037 0
M  V30 3926 H 402.024 -0.656507 2.92421 0
M  V30 3927 H 399.585 -0.211235 1.60516 0
M  V30 3928 H 401.577 -3.15712 2.53196 0
M  V30 3929 H 400.147 -2.70194 1.57207 0
M  V30 3930 H 399.367 -1.39547 3.68674 0
M  V30 3931 H 400.655 -2.23071 4.57293 0
M  V30 3932 H 400.053 -4.89528 2.83512 0
M  V30 3933 H 398.61 -5.43791 3.59353 0
M  V30 3934 N 402.043 -1.548 -0.295768 0
M  V30 3935 C 403.268 -1.78653 -1.05346 0
M  V30 3936 C 403.693 -0.546894 -1.79974 0
M  V30 3937 O 403.051 0.502763 -1.7419 0
M  V30 3938 C 403.099 -2.99679 -2.00561 0
M  V30 3939 O 402.203 -2.7317 -3.08953 0
M  V30 3940 H 401.544 -0.59116 -0.302367 0
M  V30 3941 H 404.074 -2.01895 -0.331598 0
M  V30 3942 H 404.084 -3.27793 -2.42932 0
M  V30 3943 H 402.759 -3.89562 -1.4565 0
M  V30 3944 H 401.336 -2.56089 -2.71059 0
M  V30 3945 N 403.521 0.559213 -1.47345 0
M  V30 3946 C 404.768 1.31648 -1.53867 0
M  V30 3947 C 405.096 1.93468 -0.200104 0
M  V30 3948 O 404.351 1.78295 0.806799 0
M  V30 3949 C 404.65 2.44853 -2.6035 0
M  V30 3950 C 404.316 2.00876 -4.03683 0
M  V30 3951 C 402.978 1.88599 -4.42701 0
M  V30 3952 C 405.33 1.67279 -4.93626 0
M  V30 3953 C 402.658 1.41017 -5.69501 0
M  V30 3954 C 405.01 1.21169 -6.20887 0
M  V30 3955 C 403.674 1.07487 -6.58789 0
M  V30 3956 H 402.944 0.481734 -0.56304 0
M  V30 3957 H 405.591 0.627301 -1.80934 0
M  V30 3958 H 403.896 3.19318 -2.27032 0
M  V30 3959 H 405.593 3.03039 -2.62619 0
M  V30 3960 H 402.183 2.11374 -3.72853 0
M  V30 3961 H 406.367 1.75638 -4.64182 0
M  V30 3962 H 401.623 1.29086 -5.97618 0
M  V30 3963 H 405.797 0.942345 -6.89995 0
M  V30 3964 H 403.424 0.703946 -7.56934 0
M  V30 3965 N 404.999 1.35443 0.805782 0
M  V30 3966 C 406.415 1.15499 1.10146 0
M  V30 3967 C 406.615 -0.0319975 2.01475 0
M  V30 3968 O 405.671 -0.70236 2.42535 0
M  V30 3969 C 406.984 2.45833 1.73166 0
M  V30 3970 C 408.532 2.52047 1.85583 0
M  V30 3971 C 409.007 3.82427 2.52019 0
M  V30 3972 N 410.498 3.83682 2.59504 0
M  V30 3973 C 411.233 4.81294 3.11679 0
M  V30 3974 N 410.729 5.89294 3.64287 0
M  V30 3975 N 412.522 4.6873 3.1024 0
M  V30 3976 H 404.673 2.11469 0.198678 0
M  V30 3977 H 406.936 0.93594 0.150731 0
M  V30 3978 H 406.642 3.32874 1.13526 0
M  V30 3979 H 406.516 2.6044 2.72857 0
M  V30 3980 H 408.903 1.65435 2.44367 0
M  V30 3981 H 408.984 2.41354 0.847455 0
M  V30 3982 H 408.628 4.69437 1.93885 0
M  V30 3983 H 408.558 3.90409 3.53395 0
M  V30 3984 H 411.049 3.05648 2.22234 0
M  V30 3985 H 411.362 6.59768 4.02401 0
M  V30 3986 H 409.707 5.92985 3.62483 0
M  V30 3987 H 412.898 3.83496 2.68419 0
M  V30 3988 H 413.071 5.44965 3.50596 0
M  V30 3989 N 406.477 -1.02803 1.19454 0
M  V30 3990 C 407.723 -1.76478 0.999171 0
M  V30 3991 C 408.056 -1.88456 -0.468828 0
M  V30 3992 O 407.331 -1.40198 -1.34814 0
M  V30 3993 C 407.614 -3.19044 1.66981 0
M  V30 3994 C 407.467 -3.14932 3.21151 0
M  V30 3995 C 408.786 -4.17456 1.39349 0
M  V30 3996 H 405.905 -0.640614 0.364393 0
M  V30 3997 H 408.547 -1.20005 1.47305 0
M  V30 3998 H 406.697 -3.67263 1.2669 0
M  V30 3999 H 408.369 -2.74605 3.70661 0
M  V30 4000 H 406.612 -2.52625 3.52652 0
M  V30 4001 H 407.283 -4.1566 3.63223 0
M  V30 4002 H 409.759 -3.77842 1.74283 0
M  V30 4003 H 408.635 -5.154 1.88823 0
M  V30 4004 H 408.896 -4.40949 0.318813 0
M  V30 4005 N 407.956 -0.998596 -1.21925 0
M  V30 4006 C 409.204 -0.676325 -1.90448 0
M  V30 4007 C 409.525 0.794719 -1.78071 0
M  V30 4008 O 408.795 1.5701 -1.17152 0
M  V30 4009 H 407.375 -0.247165 -0.704925 0
M  V30 4010 H 410.037 -1.26633 -1.48156 0
M  V30 4011 H 409.133 -0.943858 -2.97486 0
M  V30 4012 N 409.434 1.37368 -0.772513 0
M  V30 4013 C 410.682 1.99279 -0.336516 0
M  V30 4014 C 411.003 1.6163 1.09091 0
M  V30 4015 O 410.273 0.882109 1.74916 0
M  V30 4016 H 408.853 0.737063 -0.121435 0
M  V30 4017 H 411.515 1.67836 -0.990809 0
M  V30 4018 H 410.611 3.09332 -0.414763 0
M  V30 4019 N 410.912 0.523116 1.48665 0
M  V30 4020 C 412.323 0.0808997 1.86525 0
M  V30 4021 C 412.674 -1.33975 1.43336 0
M  V30 4022 O 411.799 -2.00221 0.821009 0
M  V30 4023 C 412.394 0.140037 3.3851 0
M  V30 4024 C 410.953 -0.246948 3.75589 0
M  V30 4025 C 410.1 0.502845 2.72703 0
M  V30 4026 H 413.051 0.734736 1.40667 0
M  V30 4027 H 413.072 -0.649945 3.74908 0
M  V30 4028 H 412.584 1.17412 3.69914 0
M  V30 4029 H 410.685 -1.28343 3.49798 0
M  V30 4030 H 410.798 0.0878859 4.79019 0
M  V30 4031 H 409.162 -0.0500581 2.54651 0
M  V30 4032 H 409.945 1.53743 3.0695 0
M  V30 4033 N 412.39 -1.55475 0.257931 0
M  V30 4034 C 413.638 -1.98813 -0.363009 0
M  V30 4035 C 413.959 -1.14757 -1.57657 0
M  V30 4036 O 413.229 -0.232956 -1.9451 0
M  V30 4037 H 411.809 -0.734308 -0.137113 0
M  V30 4038 H 414.471 -1.9156 0.359281 0
M  V30 4039 H 413.567 -3.04941 -0.664634 0
M  V30 4040 N 413.868 0.0150385 -1.57593 0
M  V30 4041 C 414.778 1.02791 -2.10882 0
M  V30 4042 C 415.794 1.38702 -1.0506 0
M  V30 4043 O 416.97 1.47739 -1.36877 0
M  V30 4044 C 414.035 2.30568 -2.58919 0
M  V30 4045 C 413.096 2.01108 -3.79281 0
M  V30 4046 C 412.329 3.22794 -4.25018 0
M  V30 4047 O 412.552 4.33959 -3.70183 0
M  V30 4048 O 411.486 3.07672 -5.17322 0
M  V30 4049 H 415.312 0.604973 -2.97613 0
M  V30 4050 H 412.897 0.23292 -1.47573 0
M  V30 4051 H 414.779 3.05662 -2.90084 0
M  V30 4052 H 413.454 2.72129 -1.75293 0
M  V30 4053 H 412.361 1.23537 -3.53114 0
M  V30 4054 H 413.694 1.64394 -4.63935 0
M  V30 4055 N 415.346 1.54954 0.287554 0
M  V30 4056 C 416.592 1.75132 1.02257 0
M  V30 4057 C 416.925 0.542858 1.86458 0
M  V30 4058 O 416.2 -0.459856 1.88986 0
M  V30 4059 C 416.483 3.04812 1.91733 0
M  V30 4060 C 416.336 4.35985 1.10622 0
M  V30 4061 C 417.655 3.30438 2.90687 0
M  V30 4062 H 414.774 0.637194 0.370341 0
M  V30 4063 H 417.416 1.87678 0.296111 0
M  V30 4064 H 415.566 2.94247 2.53675 0
M  V30 4065 H 417.238 4.58487 0.508636 0
M  V30 4066 H 415.481 4.31865 0.409271 0
M  V30 4067 H 416.152 5.23017 1.76513 0
M  V30 4068 H 418.628 3.40701 2.38877 0
M  V30 4069 H 417.504 4.22467 3.50447 0
M  V30 4070 H 417.765 2.49377 3.65053 0
M  V30 4071 N 416.824 -0.551391 1.4764 0
M  V30 4072 C 418.049 -1.33837 1.58437 0
M  V30 4073 C 418.474 -1.866 0.237063 0
M  V30 4074 O 417.832 -1.6328 -0.787994 0
M  V30 4075 C 417.88 -2.48014 2.61766 0
M  V30 4076 O 416.984 -3.50419 2.1744 0
M  V30 4077 H 416.325 -0.397299 0.532024 0
M  V30 4078 H 418.855 -0.665759 1.93465 0
M  V30 4079 H 418.865 -2.94503 2.82369 0
M  V30 4080 H 417.54 -2.08969 3.5959 0
M  V30 4081 H 416.117 -3.10196 2.06961 0
M  V30 4082 N 418.302 -1.35869 -0.798587 0
M  V30 4083 C 419.548 -1.2978 -1.55836 0
M  V30 4084 C 419.881 0.125322 -1.93795 0
M  V30 4085 O 419.156 1.07658 -1.61987 0
M  V30 4086 C 419.439 -2.21188 -2.84162 0
M  V30 4087 C 419.292 -3.72155 -2.52628 0
M  V30 4088 C 420.611 -2.11545 -3.85923 0
M  V30 4089 H 417.73 -0.472769 -0.565383 0
M  V30 4090 H 420.372 -1.66341 -0.918192 0
M  V30 4091 H 418.522 -1.90139 -3.38791 0
M  V30 4092 H 420.194 -4.13682 -2.04121 0
M  V30 4093 H 418.437 -3.92042 -1.85704 0
M  V30 4094 H 419.108 -4.31511 -3.44242 0
M  V30 4095 H 421.584 -2.38855 -3.40716 0
M  V30 4096 H 420.46 -2.77688 -4.73477 0
M  V30 4097 H 420.721 -1.09987 -4.282 0
M  V30 4098 N 419.78 1.02168 -1.19998 0
M  V30 4099 C 420.69 2.14069 -0.959774 0
M  V30 4100 C 421.706 1.73804 0.082655 0
M  V30 4101 O 422.882 2.01133 -0.103633 0
M  V30 4102 C 419.947 3.42936 -0.509459 0
M  V30 4103 C 419.008 3.97474 -1.62213 0
M  V30 4104 C 418.241 5.2019 -1.19321 0
M  V30 4105 O 418.464 5.70369 -0.0597726 0
M  V30 4106 O 417.398 5.67749 -1.99863 0
M  V30 4107 H 421.224 2.37199 -1.89658 0
M  V30 4108 H 418.809 1.12469 -0.983411 0
M  V30 4109 H 420.691 4.20551 -0.267322 0
M  V30 4110 H 419.366 3.21234 0.398821 0
M  V30 4111 H 418.273 3.21161 -1.9185 0
M  V30 4112 H 419.606 4.23555 -2.50723 0
M  V30 4113 N 421.258 1.00505 1.21394 0
M  V30 4114 C 422.191 0.51032 2.22421 0
M  V30 4115 C 423.169 -0.436 1.56645 0
M  V30 4116 O 424.353 -0.358709 1.85055 0
M  V30 4117 C 421.48 -0.258733 3.3771 0
M  V30 4118 C 420.526 0.635395 4.2174 0
M  V30 4119 S 421.359 2.09783 4.92698 0
M  V30 4120 C 422.515 1.33862 6.11418 0
M  V30 4121 H 422.748 1.36637 2.64041 0
M  V30 4122 H 420.281 0.812991 1.31262 0
M  V30 4123 H 422.239 -0.696372 4.0455 0
M  V30 4124 H 420.9 -1.0902 2.94573 0
M  V30 4125 H 420.093 0.0430189 5.03982 0
M  V30 4126 H 419.695 1.01031 3.60095 0
M  V30 4127 H 421.987 0.612541 6.74725 0
M  V30 4128 H 422.93 2.13675 6.75092 0
M  V30 4129 H 423.338 0.846568 5.58116 0
M  V30 4130 N 422.737 -1.36956 0.779787 0
M  V30 4131 C 424.014 -1.93697 0.272156 0
M  V30 4132 C 424.394 -1.71267 -1.23413 0
M  V30 4133 O 423.742 -1.06607 -2.02107 0
M  V30 4134 C 423.952 -3.42812 0.654291 0
M  V30 4135 C 425.3 -4.19921 0.628602 0
M  V30 4136 O 426.324 -3.51209 0.594172 0
M  V30 4137 O 425.183 -5.42465 0.662864 0
M  V30 4138 H 422.277 -0.824447 0.0649286 0
M  V30 4139 H 424.823 -1.46196 0.861682 0
M  V30 4140 H 423.595 -3.52754 1.69353 0
M  V30 4141 H 423.218 -3.97582 0.0381369 0
M  V30 4142 N 424.215 -0.530993 -1.48385 0
M  V30 4143 C 425.178 0.220497 -2.28137 0
M  V30 4144 C 426.178 0.866851 -1.35434 0
M  V30 4145 O 427.368 0.726746 -1.58316 0
M  V30 4146 C 424.5 1.31921 -3.1434 0
M  V30 4147 H 425.693 -0.479714 -2.96038 0
M  V30 4148 H 423.246 -0.286968 -1.53643 0
M  V30 4149 H 423.981 2.05264 -2.51072 0
M  V30 4150 H 423.766 0.86085 -3.82533 0
M  V30 4151 H 425.256 1.84776 -3.74497 0
M  V30 4152 N 425.693 1.55336 -0.266172 0
M  V30 4153 C 426.656 2.20878 0.612001 0
M  V30 4154 C 427.656 1.18388 1.08816 0
M  V30 4155 O 428.846 1.4335 0.989774 0
M  V30 4156 C 425.978 2.86765 1.84332 0
M  V30 4157 H 427.171 2.99873 0.0398718 0
M  V30 4158 H 424.724 1.56291 -0.0167309 0
M  V30 4159 H 425.459 2.11759 2.45619 0
M  V30 4160 H 425.244 3.61862 1.5099 0
M  V30 4161 H 426.734 3.36867 2.46801 0
M  V30 4162 N 427.171 -0.0066808 1.57599 0
M  V30 4163 C 428.582 -0.550379 1.78403 0
M  V30 4164 C 428.933 -1.74339 0.900014 0
M  V30 4165 O 428.058 -2.16166 0.100713 0
M  V30 4166 C 428.653 -1.00523 3.23544 0
M  V30 4167 C 427.212 -1.49428 3.45468 0
M  V30 4168 C 426.359 -0.442444 2.73748 0
M  V30 4169 H 429.31 0.219508 1.57175 0
M  V30 4170 H 429.331 -1.87157 3.31289 0
M  V30 4171 H 428.843 -0.136735 3.87859 0
M  V30 4172 H 426.944 -2.3839 2.86358 0
M  V30 4173 H 427.057 -1.52635 4.54136 0
M  V30 4174 H 425.421 -0.902578 2.38171 0
M  V30 4175 H 426.204 0.416973 3.40758 0
M  V30 4176 N 428.649 -1.55105 -0.279332 0
M  V30 4177 C 429.897 -1.75066 -1.00977 0
M  V30 4178 C 430.218 -0.551276 -1.87045 0
M  V30 4179 O 429.488 0.433984 -1.91032 0
M  V30 4180 H 428.068 -0.645578 -0.375816 0
M  V30 4181 H 430.73 -1.92497 -0.305089 0
M  V30 4182 H 429.826 -2.64894 -1.65038 0
M  V30 4183 N 430.127 0.543554 -1.4793 0
M  V30 4184 C 431.373 1.30201 -1.55485 0
M  V30 4185 C 431.706 1.92925 -0.222201 0
M  V30 4186 O 430.981 1.78586 0.77053 0
M  V30 4187 C 431.264 2.40174 -2.68307 0
M  V30 4188 C 431.117 1.8223 -4.11233 0
M  V30 4189 C 432.436 3.42024 -2.76961 0
M  V30 4190 H 429.555 0.472036 -0.565996 0
M  V30 4191 H 432.197 0.606914 -1.80046 0
M  V30 4192 H 430.347 2.99463 -2.47495 0
M  V30 4193 H 432.019 1.27096 -4.43446 0
M  V30 4194 H 430.262 1.12832 -4.18869 0
M  V30 4195 H 430.933 2.61793 -4.85972 0
M  V30 4196 H 433.409 2.92672 -2.95774 0
M  V30 4197 H 432.285 4.16383 -3.57654 0
M  V30 4198 H 432.546 4.0173 -1.84568 0
M  V30 4199 N 431.605 1.3629 0.791371 0
M  V30 4200 C 432.882 1.20962 1.53712 0
M  V30 4201 C 433.262 -0.205021 2.10102 0
M  V30 4202 O 432.61 -1.21042 1.93807 0
M  V30 4203 C 432.82 2.29002 2.63361 0
M  V30 4204 C 434.168 2.65572 3.31295 0
M  V30 4205 O 435.192 2.2803 2.73643 0
M  V30 4206 O 434.051 3.3018 4.35481 0
M  V30 4207 H 431.145 0.47086 0.679867 0
M  V30 4208 H 433.691 1.48016 0.830021 0
M  V30 4209 H 432.463 3.2382 2.19674 0
M  V30 4210 H 432.086 2.03303 3.41692 0
M  V30 4211 N 433.083 -1.0153 1.20538 0
M  V30 4212 C 434.013 -2.11972 0.979295 0
M  V30 4213 C 434.994 -1.6985 -0.0921787 0
M  V30 4214 O 436.179 -1.94089 0.0655932 0
M  V30 4215 C 433.309 -3.43201 0.531984 0
M  V30 4216 C 432.263 -3.9907 1.54685 0
M  V30 4217 C 431.589 -5.26082 0.956127 0
M  V30 4218 C 432.889 -4.32313 2.93092 0
M  V30 4219 H 434.583 -2.31143 1.90298 0
M  V30 4220 H 432.129 -1.11079 0.916372 0
M  V30 4221 H 434.082 -4.1985 0.361044 0
M  V30 4222 H 432.806 -3.23792 -0.427327 0
M  V30 4223 H 431.465 -3.2453 1.70517 0
M  V30 4224 H 431.113 -5.02999 -0.0111538 0
M  V30 4225 H 430.813 -5.64426 1.63393 0
M  V30 4226 H 432.337 -6.05386 0.796284 0
M  V30 4227 H 433.751 -4.99845 2.80763 0
M  V30 4228 H 432.148 -4.81774 3.57791 0
M  V30 4229 H 433.218 -3.41025 3.44717 0
M  V30 4230 N 434.561 -1.01147 -1.20859 0
M  V30 4231 C 435.789 -0.716911 -1.94082 0
M  V30 4232 C 436.204 0.721568 -1.74467 0
M  V30 4233 O 435.561 1.48889 -1.05539 0
M  V30 4234 C 435.612 -1.03662 -3.46318 0
M  V30 4235 O 435.333 -2.4186 -3.65288 0
M  V30 4236 C 436.834 -0.762386 -4.36695 0
M  V30 4237 H 434.054 -0.26367 -0.617024 0
M  V30 4238 H 436.598 -1.35127 -1.53496 0
M  V30 4239 H 434.753 -0.447757 -3.84804 0
M  V30 4240 H 435.167 -2.53224 -4.59323 0
M  V30 4241 H 436.641 -1.03621 -5.42187 0
M  V30 4242 H 437.118 0.303514 -4.3815 0
M  V30 4243 H 437.724 -1.33316 -4.03865 0
M  V30 4244 N 436.039 1.36541 -0.78704 0
M  V30 4245 C 437.455 1.52571 -0.46844 0
M  V30 4246 C 437.655 1.7415 1.01361 0
M  V30 4247 O 436.711 1.77163 1.79915 0
M  V30 4248 C 438.024 2.71299 -1.29682 0
M  V30 4249 C 439.572 2.85169 -1.29027 0
M  V30 4250 C 440.047 4.06898 -2.10233 0
M  V30 4251 N 441.538 4.1404 -2.07666 0
M  V30 4252 C 442.273 5.07301 -2.67271 0
M  V30 4253 N 441.769 6.06021 -3.35724 0
M  V30 4254 N 443.562 4.99898 -2.57018 0
M  V30 4255 H 435.713 1.20788 -1.74711 0
M  V30 4256 H 437.976 0.589364 -0.742532 0
M  V30 4257 H 437.682 2.61868 -2.34773 0
M  V30 4258 H 437.556 3.6539 -0.936479 0
M  V30 4259 H 439.943 2.94062 -0.247284 0
M  V30 4260 H 440.024 1.91992 -1.69035 0
M  V30 4261 H 439.668 3.98766 -3.1456 0
M  V30 4262 H 439.598 4.99218 -1.67597 0
M  V30 4263 H 442.089 3.43357 -1.57843 0
M  V30 4264 H 442.402 6.73741 -3.78541 0
M  V30 4265 H 440.747 6.06253 -3.39826 0
M  V30 4266 H 443.938 4.21724 -2.03142 0
M  V30 4267 H 444.111 5.72392 -3.03761 0
M  V30 4268 N 437.518 0.538854 1.48102 0
M  V30 4269 C 438.448 -0.207654 2.32575 0
M  V30 4270 C 439.429 -0.926559 1.4265 0
M  V30 4271 O 440.614 -0.91061 1.71527 0
M  V30 4272 C 437.744 -1.24957 3.24042 0
M  V30 4273 C 436.698 -0.648263 4.23062 0
M  V30 4274 C 436.024 -1.79348 5.03725 0
M  V30 4275 C 437.324 0.385897 5.20872 0
M  V30 4276 H 439.018 0.497534 2.95237 0
M  V30 4277 H 436.564 0.240715 1.41974 0
M  V30 4278 H 438.517 -1.77983 3.81969 0
M  V30 4279 H 437.241 -1.98446 2.59397 0
M  V30 4280 H 435.9 -0.139452 3.66335 0
M  V30 4281 H 435.548 -2.51696 4.35498 0
M  V30 4282 H 435.248 -1.39702 5.70751 0
M  V30 4283 H 436.772 -2.32735 5.64506 0
M  V30 4284 H 438.186 -0.057607 5.73271 0
M  V30 4285 H 436.583 0.700227 5.96001 0
M  V30 4286 H 437.653 1.28848 4.67468 0
M  V30 4287 N 438.996 -1.55193 0.274407 0
M  V30 4288 C 439.926 -2.25471 -0.607032 0
M  V30 4289 C 440.907 -1.24461 -1.15946 0
M  V30 4290 O 442.092 -1.53179 -1.19373 0
M  V30 4291 C 439.222 -2.97526 -1.79153 0
M  V30 4292 C 438.176 -4.05459 -1.37067 0
M  V30 4293 C 437.502 -4.65084 -2.6382 0
M  V30 4294 C 438.802 -5.19691 -0.521389 0
M  V30 4295 H 440.496 -2.99393 -0.0209343 0
M  V30 4296 H 438.042 -1.43997 -0.00862866 0
M  V30 4297 H 439.995 -3.45402 -2.41404 0
M  V30 4298 H 438.719 -2.21138 -2.40344 0
M  V30 4299 H 437.378 -3.58393 -0.771355 0
M  V30 4300 H 437.026 -3.85365 -3.23268 0
M  V30 4301 H 436.726 -5.37961 -2.36372 0
M  V30 4302 H 438.25 -5.15708 -3.26921 0
M  V30 4303 H 439.664 -5.63623 -1.04889 0
M  V30 4304 H 438.061 -5.99126 -0.341825 0
M  V30 4305 H 439.131 -4.82713 0.46 0
M  V30 4306 N 440.474 -0.00167713 -1.576 0
M  V30 4307 C 441.422 1.0074 -2.09652 0
M  V30 4308 C 442.416 1.35483 -1.01689 0
M  V30 4309 O 443.622 1.34028 -1.20152 0
M  V30 4310 H 439.997 0.342537 -0.669457 0
M  V30 4311 H 441.968 0.542841 -2.93421 0
M  V30 4312 C 440.717 2.2899 -2.61647 0
M  V30 4313 H 440.04 2.03124 -3.44355 0
M  V30 4314 H 441.48 2.9787 -3.01744 0
M  V30 4315 C 439.939 3.00085 -1.53136 0
M  V30 4316 O 440.469 3.91135 -0.91524 0
M  V30 4317 N 438.675 2.6194 -1.25841 0
M  V30 4318 H 438.222 1.8798 -1.76129 0
M  V30 4319 H 438.18 3.09822 -0.534576 0
M  V30 4320 N 441.952 1.55251 0.271103 0
M  V30 4321 C 443.229 1.66664 1.02384 0
M  V30 4322 C 443.609 0.534363 2.04225 0
M  V30 4323 O 442.957 -0.465337 2.23712 0
M  V30 4324 C 443.167 3.05961 1.67895 0
M  V30 4325 C 444.515 3.63772 2.18986 0
M  V30 4326 O 445.539 3.08606 1.77878 0
M  V30 4327 O 444.398 4.60429 2.94393 0
M  V30 4328 H 441.492 0.676957 0.475035 0
M  V30 4329 H 444.038 1.67589 0.26681 0
M  V30 4330 H 442.81 3.79815 0.941071 0
M  V30 4331 H 442.433 3.08943 2.5028 0
M  V30 4332 N 443.43 -0.535701 1.48216 0
M  V30 4333 C 444.363 -1.65726 1.56876 0
M  V30 4334 C 445.341 -1.57094 0.419542 0
M  V30 4335 O 446.525 -1.77648 0.630352 0
M  V30 4336 C 443.652 -3.04096 1.49142 0
M  V30 4337 C 442.698 -3.31105 2.68834 0
M  V30 4338 S 443.531 -3.18001 4.30854 0
M  V30 4339 C 444.687 -4.58828 4.25709 0
M  V30 4340 H 444.92 -1.58129 2.51759 0
M  V30 4341 H 442.453 -0.718218 1.36678 0
M  V30 4342 H 444.411 -3.839 1.45366 0
M  V30 4343 H 443.072 -3.09139 0.556067 0
M  V30 4344 H 442.265 -4.32033 2.59545 0
M  V30 4345 H 441.867 -2.58961 2.69843 0
M  V30 4346 H 444.159 -5.5023 3.95289 0
M  V30 4347 H 445.102 -4.73172 5.26796 0
M  V30 4348 H 445.51 -4.37883 3.56257 0
M  V30 4349 N 444.908 -1.36708 -0.784132 0
M  V30 4350 C 446.324 -1.17237 -1.08294 0
M  V30 4351 C 446.524 -5.93947e-05 -2.015 0
M  V30 4352 O 445.58 0.663686 -2.43622 0
M  V30 4353 C 446.893 -2.48557 -1.69233 0
M  V30 4354 C 448.441 -2.54968 -1.8155 0
M  V30 4355 C 448.916 -3.86388 -2.45904 0
M  V30 4356 N 450.407 -3.87762 -2.53367 0
M  V30 4357 C 451.142 -4.86191 -3.03983 0
M  V30 4358 N 450.638 -5.95015 -3.54866 0
M  V30 4359 N 452.431 -4.73606 -3.02743 0
M  V30 4360 H 444.582 -2.11758 -0.16501 0
M  V30 4361 H 446.845 -0.93822 -0.135822 0
M  V30 4362 H 446.551 -3.34638 -1.08215 0
M  V30 4363 H 446.425 -2.64748 -2.68679 0
M  V30 4364 H 448.812 -1.69302 -2.41704 0
M  V30 4365 H 448.893 -2.42672 -0.80895 0
M  V30 4366 H 448.537 -4.72462 -1.86392 0
M  V30 4367 H 448.467 -3.95982 -3.4714 0
M  V30 4368 H 450.958 -3.09145 -2.17343 0
M  V30 4369 H 451.271 -6.66086 -3.91854 0
M  V30 4370 H 449.616 -5.98676 -3.53003 0
M  V30 4371 H 452.807 -3.87717 -2.62284 0
M  V30 4372 H 452.98 -5.50473 -3.41881 0
M  V30 4373 N 446.386 1.0089 -1.21074 0
M  V30 4374 C 447.349 2.0775 -0.968129 0
M  V30 4375 C 448.349 1.6069 0.0593445 0
M  V30 4376 O 449.539 1.73293 -0.177525 0
M  V30 4377 C 446.671 3.37794 -0.459108 0
M  V30 4378 H 447.864 2.30707 -1.9161 0
M  V30 4379 H 445.417 1.17807 -1.02719 0
M  V30 4380 H 446.152 3.20516 0.49397 0
M  V30 4381 H 445.937 3.7328 -1.20019 0
M  V30 4382 H 447.427 4.16454 -0.309099 0
M  V30 4383 N 447.864 1.01787 1.20321 0
M  V30 4384 C 448.796 0.547357 2.22568 0
M  V30 4385 C 449.809 -0.370922 1.58518 0
M  V30 4386 O 450.998 -0.169067 1.77698 0
M  V30 4387 C 448.098 -0.223031 3.38165 0
M  V30 4388 C 447.271 0.697472 4.31803 0
M  V30 4389 C 446.33 -0.025562 5.26194 0
M  V30 4390 O 445.356 0.597367 5.66057 0
M  V30 4391 N 446.558 -1.29999 5.65757 0
M  V30 4392 H 449.323 1.42668 2.63564 0
M  V30 4393 H 446.884 0.895552 1.34876 0
M  V30 4394 H 448.876 -0.716002 3.98316 0
M  V30 4395 H 447.446 -1.00366 2.9605 0
M  V30 4396 H 446.666 1.37073 3.69601 0
M  V30 4397 H 447.954 1.32347 4.91286 0
M  V30 4398 H 447.352 -1.827 5.35385 0
M  V30 4399 H 445.909 -1.73766 6.28211 0
M  V30 4400 N 449.342 -1.36122 0.79427 0
M  V30 4401 C 450.572 -2.03067 0.380437 0
M  V30 4402 C 450.98 -1.60018 -1.00949 0
M  V30 4403 O 450.323 -0.787425 -1.65968 0
M  V30 4404 C 450.385 -3.57587 0.37034 0
M  V30 4405 C 450.049 -4.23855 1.70867 0
M  V30 4406 C 451.046 -4.46404 2.66496 0
M  V30 4407 C 448.731 -4.61229 1.9893 0
M  V30 4408 C 450.725 -5.05412 3.88378 0
M  V30 4409 C 448.412 -5.19953 3.21079 0
M  V30 4410 C 449.41 -5.41985 4.15621 0
M  V30 4411 O 449.098 -5.99475 5.35616 0
M  V30 4412 H 448.83 -0.658168 0.154243 0
M  V30 4413 H 451.384 -1.7498 1.0757 0
M  V30 4414 H 449.614 -3.84814 -0.381444 0
M  V30 4415 H 451.303 -4.05895 -0.0194894 0
M  V30 4416 H 452.069 -4.17921 2.46103 0
M  V30 4417 H 447.948 -4.43402 1.26158 0
M  V30 4418 H 451.492 -5.22524 4.62185 0
M  V30 4419 H 447.389 -5.47862 3.41347 0
M  V30 4420 H 448.157 -6.17937 5.36745 0
M  V30 4421 N 450.82 -0.546701 -1.47814 0
M  V30 4422 C 451.73 0.21026 -2.33656 0
M  V30 4423 C 452.746 0.922413 -1.47538 0
M  V30 4424 O 453.922 0.893652 -1.80488 0
M  V30 4425 C 450.987 1.23348 -3.24016 0
M  V30 4426 C 450.048 0.529883 -4.26017 0
M  V30 4427 C 449.281 1.50435 -5.12059 0
M  V30 4428 O 449.504 2.73837 -5.00369 0
M  V30 4429 O 448.438 1.03459 -5.92942 0
M  V30 4430 H 452.264 -0.493605 -2.99662 0
M  V30 4431 H 449.849 -0.307427 -1.46203 0
M  V30 4432 H 451.731 1.82438 -3.79861 0
M  V30 4433 H 450.406 1.91945 -2.60651 0
M  V30 4434 H 449.313 -0.101948 -3.73961 0
M  V30 4435 H 450.646 -0.11445 -4.92067 0
M  V30 4436 N 452.299 1.55045 -0.282633 0
M  V30 4437 C 453.527 2.04168 0.33512 0
M  V30 4438 C 453.942 1.16071 1.48906 0
M  V30 4439 O 453.299 0.182391 1.81586 0
M  V30 4440 C 453.35 3.52332 0.808957 0
M  V30 4441 O 453.071 4.37078 -0.299038 0
M  V30 4442 C 454.572 4.17375 1.49375 0
M  V30 4443 H 451.792 0.666744 0.0754543 0
M  V30 4444 H 454.336 2.00205 -0.416918 0
M  V30 4445 H 452.491 3.56715 1.51106 0
M  V30 4446 H 452.905 5.24458 0.0665514 0
M  V30 4447 H 454.379 5.22627 1.77664 0
M  V30 4448 H 454.856 3.65999 2.42778 0
M  V30 4449 H 455.462 4.17016 0.835305 0
M  V30 4450 N 453.777 0.010035 1.57597 0
M  V30 4451 C 455.026 -0.671945 1.90178 0
M  V30 4452 C 455.339 -1.74376 0.886131 0
M  V30 4453 O 456.545 -2.48107 1.10252 0
M  V30 4454 C 455.001 -1.24636 3.3763 0
M  V30 4455 C 454.609 -0.208838 4.47513 0
M  V30 4456 C 456.353 -1.90595 3.79307 0
M  V30 4457 C 454.26 -0.793814 5.86048 0
M  V30 4458 H 453.19 -0.25474 0.709665 0
M  V30 4459 H 455.841 0.0722206 1.83358 0
M  V30 4460 H 454.223 -2.04152 3.3932 0
M  V30 4461 H 455.397 0.562463 4.57354 0
M  V30 4462 H 453.712 0.350889 4.14919 0
M  V30 4463 H 456.309 -2.35284 4.80151 0
M  V30 4464 H 456.652 -2.74074 3.13352 0
M  V30 4465 H 457.185 -1.17798 3.79958 0
M  V30 4466 H 453.924 0.00240855 6.555 0
M  V30 4467 H 453.444 -1.53404 5.79851 0
M  V30 4468 H 455.123 -1.2894 6.34022 0
M  V30 4469 N 455.255 -1.55392 -0.262866 0
M  V30 4470 C 456.218 -1.88181 -1.30846 0
M  V30 4471 C 457.218 -0.757079 -1.41862 0
M  V30 4472 O 458.408 -1.02519 -1.40838 0
M  V30 4473 C 455.54 -2.09609 -2.68844 0
M  V30 4474 H 456.733 -2.81659 -1.02997 0
M  V30 4475 H 454.286 -1.48039 -0.501414 0
M  V30 4476 H 455.021 -1.18547 -3.01856 0
M  V30 4477 H 454.806 -2.91508 -2.62231 0
M  V30 4478 H 456.296 -2.36215 -3.44372 0
M  V30 4479 N 456.733 0.527833 -1.48498 0
M  V30 4480 C 457.643 1.65907 -1.65867 0
M  V30 4481 C 458.659 1.6537 -0.541192 0
M  V30 4482 O 459.835 1.84282 -0.812534 0
M  V30 4483 C 456.9 3.02364 -1.69637 0
M  V30 4484 C 455.961 3.1374 -2.93028 0
M  V30 4485 C 455.194 4.43688 -2.96609 0
M  V30 4486 O 455.417 5.30913 -2.08538 0
M  V30 4487 O 454.351 4.59475 -3.88802 0
M  V30 4488 H 458.177 1.5419 -2.61647 0
M  V30 4489 H 455.762 0.701163 -1.31924 0
M  V30 4490 H 457.644 3.83515 -1.74625 0
M  V30 4491 H 456.319 3.14401 -0.770312 0
M  V30 4492 H 455.226 2.31877 -2.93571 0
M  V30 4493 H 456.559 3.06621 -3.85026 0
M  V30 4494 N 458.211 1.37122 0.776871 0
M  V30 4495 C 459.143 1.28342 1.89897 0
M  V30 4496 C 460.156 0.200277 1.61563 0
M  V30 4497 O 461.345 0.456012 1.72577 0
M  V30 4498 C 458.445 0.960427 3.25006 0
M  V30 4499 C 457.618 2.148 3.81025 0
M  V30 4500 C 456.677 1.79608 4.94598 0
M  V30 4501 O 455.703 2.51845 5.10454 0
M  V30 4502 N 456.905 0.737171 5.758 0
M  V30 4503 H 459.67 2.25027 1.97947 0
M  V30 4504 H 457.231 1.3068 0.955739 0
M  V30 4505 H 459.223 0.705942 3.98495 0
M  V30 4506 H 457.793 0.0823066 3.12492 0
M  V30 4507 H 457.013 2.56454 2.99374 0
M  V30 4508 H 458.301 2.9411 4.15183 0
M  V30 4509 H 457.699 0.137637 5.65533 0
M  V30 4510 H 456.256 0.542534 6.49538 0
M  V30 4511 N 459.689 -1.00246 1.21608 0
M  V30 4512 C 460.637 -2.11193 0.97469 0
M  V30 4513 C 461.631 -1.69216 -0.0789303 0
M  V30 4514 O 462.837 -1.79853 0.0726806 0
M  V30 4515 H 459.212 -0.690455 0.297953 0
M  V30 4516 H 461.183 -2.2873 1.91638 0
M  V30 4517 C 459.932 -3.43182 0.558717 0
M  V30 4518 H 459.255 -3.75918 1.3611 0
M  V30 4519 H 460.695 -4.21823 0.429154 0
M  V30 4520 C 459.154 -3.28882 -0.730648 0
M  V30 4521 O 459.684 -3.59835 -1.78554 0
M  V30 4522 N 457.89 -2.8209 -0.698131 0
M  V30 4523 H 457.437 -2.57099 0.16061 0
M  V30 4524 H 457.395 -2.72903 -1.56113 0
M  V30 4525 N 461.167 -1.02423 -1.1978 0
M  V30 4526 C 462.583 -0.740459 -1.41384 0
M  V30 4527 C 462.783 0.676827 -1.89793 0
M  V30 4528 O 461.839 1.4435 -2.0717 0
M  V30 4529 C 463.152 -1.77264 -2.42895 0
M  V30 4530 C 464.7 -1.79165 -2.56649 0
M  V30 4531 C 465.175 -2.8133 -3.6141 0
M  V30 4532 N 466.666 -2.80118 -3.68901 0
M  V30 4533 C 467.401 -3.55824 -4.49641 0
M  V30 4534 N 466.897 -4.41231 -5.34123 0
M  V30 4535 N 468.69 -3.44387 -4.44246 0
M  V30 4536 H 460.841 -1.9391 -0.866764 0
M  V30 4537 H 463.104 -0.838074 -0.443098 0
M  V30 4538 H 462.81 -2.7884 -2.14339 0
M  V30 4539 H 462.684 -1.59108 -3.42001 0
M  V30 4540 H 465.071 -0.782702 -2.84531 0
M  V30 4541 H 465.152 -2.01396 -1.57713 0
M  V30 4542 H 464.796 -3.82394 -3.34271 0
M  V30 4543 H 464.726 -2.56359 -4.59986 0
M  V30 4544 H 467.217 -2.1817 -3.08562 0
M  V30 4545 H 467.53 -4.95747 -5.92836 0
M  V30 4546 H 465.875 -4.45306 -5.33599 0
M  V30 4547 H 469.066 -2.7708 -3.77285 0
M  V30 4548 H 469.239 -4.0364 -5.06931 0
M  V30 4549 N 462.645 1.35699 -0.801477 0
M  V30 4550 C 463.592 2.29876 -0.206294 0
M  V30 4551 C 464.562 1.52565 0.656752 0
M  V30 4552 O 465.747 1.81024 0.602906 0
M  V30 4553 C 462.887 3.39052 0.643272 0
M  V30 4554 C 462 4.31335 -0.239644 0
M  V30 4555 C 461.135 5.27599 0.61744 0
M  V30 4556 C 460.174 6.11521 -0.26619 0
M  V30 4557 N 459.311 6.99938 0.550571 0
M  V30 4558 H 464.151 2.80187 -1.01484 0
M  V30 4559 H 461.688 1.37902 -0.511997 0
M  V30 4560 H 463.646 4.0101 1.15094 0
M  V30 4561 H 462.276 2.9003 1.41713 0
M  V30 4562 H 461.328 3.70426 -0.865381 0
M  V30 4563 H 462.64 4.90243 -0.919985 0
M  V30 4564 H 461.794 5.94906 1.19045 0
M  V30 4565 H 460.533 4.69176 1.33137 0
M  V30 4566 H 459.538 5.43166 -0.851507 0
M  V30 4567 H 460.763 6.72022 -0.9779 0
M  V30 4568 H 458.709 6.44008 1.24856 0
M  V30 4569 H 458.626 7.55966 -0.071832 0
M  V30 4570 H 459.894 7.71599 1.10702 0
M  V30 4571 N 464.123 0.554532 1.47522 0
M  V30 4572 C 465.4 -0.0360704 1.95567 0
M  V30 4573 C 465.78 -1.48828 1.49711 0
M  V30 4574 O 465.128 -2.16366 0.734717 0
M  V30 4575 C 465.338 0.106631 3.48837 0
M  V30 4576 C 466.686 -0.0400899 4.24581 0
M  V30 4577 O 467.71 0.0340453 3.56184 0
M  V30 4578 O 466.569 -0.199111 5.46137 0
M  V30 4579 H 463.663 -0.0656294 0.824392 0
M  V30 4580 H 466.209 0.620867 1.57935 0
M  V30 4581 H 464.981 1.11727 3.7501 0
M  V30 4582 H 464.604 -0.58804 3.93227 0
M  V30 4583 N 465.601 -1.54893 0.290851 0
M  V30 4584 C 466.564 -2.21824 -0.576784 0
M  V30 4585 C 467.564 -1.20104 -1.06919 0
M  V30 4586 O 468.754 -1.44906 -0.966843 0
M  V30 4587 C 465.886 -2.89662 -1.79747 0
M  V30 4588 H 467.079 -2.99899 0.00784051 0
M  V30 4589 H 464.632 -1.56245 0.0415934 0
M  V30 4590 H 465.367 -2.15639 -2.42219 0
M  V30 4591 H 465.152 -3.64219 -1.45214 0
M  V30 4592 H 466.642 -3.4075 -2.4141 0
M  V30 4593 N 467.08 -0.0183926 -1.57589 0
M  V30 4594 C 467.99 0.982943 -2.13015 0
M  V30 4595 C 469.006 1.36443 -1.07979 0
M  V30 4596 O 470.182 1.44802 -1.3998 0
M  V30 4597 C 467.247 2.25024 -2.63752 0
M  V30 4598 C 466.308 1.93018 -3.83461 0
M  V30 4599 C 465.541 3.13706 -4.31769 0
M  V30 4600 O 465.764 4.2601 -3.79305 0
M  V30 4601 O 464.698 2.96629 -5.23732 0
M  V30 4602 H 468.524 0.541709 -2.9883 0
M  V30 4603 H 466.109 0.201565 -1.48034 0
M  V30 4604 H 467.991 2.99441 -2.96502 0
M  V30 4605 H 466.666 2.68349 -1.81026 0
M  V30 4606 H 465.573 1.16019 -3.55655 0
M  V30 4607 H 466.906 1.54516 -4.67317 0
M  V30 4608 N 468.558 1.5553 0.254621 0
M  V30 4609 C 469.521 1.88872 1.29846 0
M  V30 4610 C 470.521 0.764591 1.41459 0
M  V30 4611 O 471.711 1.03265 1.40293 0
M  V30 4612 C 468.843 2.11032 2.67728 0
M  V30 4613 H 470.036 2.82201 1.01502 0
M  V30 4614 H 467.589 1.48303 0.493556 0
M  V30 4615 H 468.324 1.20146 3.01223 0
M  V30 4616 H 468.109 2.92895 2.60682 0
M  V30 4617 H 469.599 2.38038 3.43115 0
M  V30 4618 N 470.036 -0.519951 1.48776 0
M  V30 4619 C 471.282 -1.27456 1.58514 0
M  V30 4620 C 471.637 -1.90634 0.260057 0
M  V30 4621 O 470.93 -1.76815 -0.738036 0
M  V30 4622 C 471.124 -2.37864 2.6675 0
M  V30 4623 C 470.953 -1.85509 4.09654 0
M  V30 4624 C 469.723 -1.67661 4.76674 0
M  V30 4625 C 471.921 -1.37783 4.955 0
M  V30 4626 N 469.903 -1.10037 6.03958 0
M  V30 4627 C 471.274 -0.921714 6.1311 0
M  V30 4628 C 473.329 -1.26179 4.81646 0
M  V30 4629 C 472.032 -0.361057 7.18393 0
M  V30 4630 C 474.058 -0.715121 5.8706 0
M  V30 4631 C 473.42 -0.269132 7.03886 0
M  V30 4632 H 469.519 -0.457049 0.634531 0
M  V30 4633 H 472.103 -0.585073 1.85701 0
M  V30 4634 H 470.274 -3.04296 2.41367 0
M  V30 4635 H 472.006 -3.04901 2.66116 0
M  V30 4636 H 468.761 -1.91478 4.33166 0
M  V30 4637 H 469.185 -0.832067 6.71867 0
M  V30 4638 H 473.827 -1.59263 3.91657 0
M  V30 4639 H 471.545 -0.0179127 8.08098 0
M  V30 4640 H 475.131 -0.628376 5.78397 0
M  V30 4641 H 474.011 0.14729 7.84062 0
M  V30 4642 N 471.514 -1.37532 -0.769588 0
M  V30 4643 C 472.761 -1.3286 -1.52822 0
M  V30 4644 C 473.089 0.0862597 -1.94309 0
M  V30 4645 O 472.344 1.05995 -1.6451 0
M  V30 4646 C 472.643 -2.21558 -2.8044 0
M  V30 4647 C 472.309 -3.69796 -2.57996 0
M  V30 4648 C 470.971 -4.10194 -2.51583 0
M  V30 4649 C 473.323 -4.63699 -2.37976 0
M  V30 4650 C 470.651 -5.42608 -2.23144 0
M  V30 4651 C 473.003 -5.96353 -2.1106 0
M  V30 4652 C 471.667 -6.35853 -2.03093 0
M  V30 4653 H 470.937 -0.486168 -0.559215 0
M  V30 4654 H 473.584 -1.69757 -0.886277 0
M  V30 4655 H 471.889 -1.77663 -3.49204 0
M  V30 4656 H 473.586 -2.15256 -3.38328 0
M  V30 4657 H 470.176 -3.37759 -2.63851 0
M  V30 4658 H 474.36 -4.33346 -2.41919 0
M  V30 4659 H 469.616 -5.72173 -2.15472 0
M  V30 4660 H 473.79 -6.68667 -1.94568 0
M  V30 4661 H 471.417 -7.38382 -1.8082 0
M  V30 4662 N 472.992 0.995999 -1.22138 0
M  V30 4663 C 474.241 1.72928 -1.03821 0
M  V30 4664 C 474.554 1.90872 0.427444 0
M  V30 4665 O 475.76 2.61496 0.730212 0
M  V30 4666 C 474.216 3.11124 -1.80913 0
M  V30 4667 C 473.824 3.01122 -3.31707 0
M  V30 4668 C 475.568 3.8852 -1.71035 0
M  V30 4669 C 473.475 4.34453 -4.01253 0
M  V30 4670 H 472.405 0.648376 -0.384869 0
M  V30 4671 H 475.056 1.11213 -1.45959 0
M  V30 4672 H 473.438 3.73503 -1.31573 0
M  V30 4673 H 474.612 2.47926 -3.88419 0
M  V30 4674 H 472.927 2.3721 -3.42228 0
M  V30 4675 H 475.524 4.872 -2.20318 0
M  V30 4676 H 475.867 4.1087 -0.670196 0
M  V30 4677 H 476.4 3.32812 -2.17902 0
M  V30 4678 H 473.139 4.17303 -5.05508 0
M  V30 4679 H 472.659 4.87574 -3.49331 0
M  V30 4680 H 474.338 5.03215 -4.06674 0
M  V30 4681 N 474.47 1.03057 1.19235 0
M  V30 4682 C 475.38 0.622922 2.26179 0
M  V30 4683 C 476.396 -0.346113 1.70523 0
M  V30 4684 O 477.572 -0.203572 2.00369 0
M  V30 4685 C 474.637 -0.0182063 3.46695 0
M  V30 4686 C 473.698 0.998546 4.17526 0
M  V30 4687 C 472.931 0.387917 5.32288 0
M  V30 4688 O 473.154 -0.808668 5.64639 0
M  V30 4689 O 472.088 1.1116 5.91546 0
M  V30 4690 H 475.914 1.51363 2.63292 0
M  V30 4691 H 473.499 0.800856 1.26122 0
M  V30 4692 H 475.381 -0.375606 4.19723 0
M  V30 4693 H 474.056 -0.882895 3.11427 0
M  V30 4694 H 472.963 1.40756 3.4661 0
M  V30 4695 H 474.296 1.83366 4.56769 0
M  V30 4696 N 475.948 -1.35272 0.808662 0
M  V30 4697 C 476.895 -2.29764 0.218482 0
M  V30 4698 C 477.865 -1.52911 -0.648652 0
M  V30 4699 O 479.05 -1.81341 -0.593297 0
M  V30 4700 C 476.19 -3.39388 -0.625282 0
M  V30 4701 C 475.303 -4.31202 0.262516 0
M  V30 4702 C 474.438 -5.27919 -0.589451 0
M  V30 4703 C 473.477 -6.11371 0.298617 0
M  V30 4704 N 472.614 -7.0022 -0.513443 0
M  V30 4705 H 477.454 -2.79645 1.02968 0
M  V30 4706 H 474.991 -1.37629 0.519303 0
M  V30 4707 H 476.949 -4.01615 -1.12966 0
M  V30 4708 H 475.579 -2.90777 -1.40173 0
M  V30 4709 H 474.631 -3.69962 0.885013 0
M  V30 4710 H 475.943 -4.89748 0.945971 0
M  V30 4711 H 475.097 -5.95529 -1.15888 0
M  V30 4712 H 473.836 -4.69875 -1.30647 0
M  V30 4713 H 472.841 -5.42707 0.880301 0
M  V30 4714 H 474.066 -6.71494 1.01352 0
M  V30 4715 H 472.012 -6.44662 -1.21439 0
M  V30 4716 H 471.929 -7.55917 0.111922 0
M  V30 4717 H 473.197 -7.72175 -1.06608 0
M  V30 4718 N 477.426 -0.562348 -1.47226 0
M  V30 4719 C 478.651 -0.0432632 -2.07355 0
M  V30 4720 C 479.076 1.24332 -1.41149 0
M  V30 4721 O 478.434 1.74603 -0.488226 0
M  V30 4722 C 478.482 0.130288 -3.60365 0
M  V30 4723 O 477.586 1.19166 -3.94808 0
M  V30 4724 H 476.927 -0.0536334 -0.66183 0
M  V30 4725 H 479.457 -0.779495 -1.89169 0
M  V30 4726 H 479.467 0.342881 -4.06557 0
M  V30 4727 H 478.142 -0.809389 -4.07948 0
M  V30 4728 H 476.719 0.959153 -3.60354 0
M  V30 4729 N 478.904 1.54736 -0.299062 0
M  V30 4730 C 480.152 1.99706 0.31017 0
M  V30 4731 C 480.473 1.18896 1.54559 0
M  V30 4732 O 479.743 0.284445 1.93824 0
M  V30 4733 H 478.323 0.737686 0.117596 0
M  V30 4734 H 480.985 1.9054 -0.409943 0
M  V30 4735 H 480.081 3.06596 0.58355 0
M  V30 4736 N 480.382 0.0267497 1.57577 0
M  V30 4737 C 481.292 -0.971633 2.13533 0
M  V30 4738 C 482.308 -1.35868 1.08701 0
M  V30 4739 O 483.484 -1.44058 1.40746 0
M  V30 4740 C 480.549 -2.23622 2.64941 0
M  V30 4741 C 479.61 -1.90982 3.8448 0
M  V30 4742 C 478.843 -3.11411 4.33427 0
M  V30 4743 O 479.066 -4.23992 3.81558 0
M  V30 4744 O 478 -2.93848 5.25297 0
M  V30 4745 H 481.826 -0.525853 2.99113 0
M  V30 4746 H 479.411 -0.193712 1.48139 0
M  V30 4747 H 481.293 -2.97864 2.98086 0
M  V30 4748 H 479.968 -2.67386 1.82446 0
M  V30 4749 H 478.875 -1.14132 3.56265 0
M  V30 4750 H 480.208 -1.52036 4.6813 0
M  V30 4751 N 481.861 -1.55662 -0.24637 0
M  V30 4752 C 482.791 -1.93377 -1.30873 0
M  V30 4753 C 483.772 -0.798773 -1.50179 0
M  V30 4754 O 484.957 -1.0591 -1.62778 0
M  V30 4755 C 482.087 -2.22893 -2.66338 0
M  V30 4756 C 481.041 -3.38649 -2.61727 0
M  V30 4757 C 480.367 -3.53708 -4.00992 0
M  V30 4758 C 481.667 -4.74323 -2.18666 0
M  V30 4759 H 483.361 -2.82363 -0.995552 0
M  V30 4760 H 480.907 -1.35854 -0.477464 0
M  V30 4761 H 482.86 -2.47866 -3.40794 0
M  V30 4762 H 481.584 -1.30733 -2.99293 0
M  V30 4763 H 480.243 -3.13685 -1.89729 0
M  V30 4764 H 479.891 -2.58967 -4.31214 0
M  V30 4765 H 479.591 -4.31551 -3.98795 0
M  V30 4766 H 481.115 -3.81003 -4.77147 0
M  V30 4767 H 482.529 -4.98665 -2.82854 0
M  V30 4768 H 480.926 -5.55273 -2.27579 0
M  V30 4769 H 481.996 -4.71349 -1.13834 0
M  V30 4770 N 483.339 0.512053 -1.4905 0
M  V30 4771 C 484.755 0.84224 -1.35567 0
M  V30 4772 C 484.955 1.97878 -0.380319 0
M  V30 4773 O 484.011 2.51769 0.19201 0
M  V30 4774 C 485.324 1.19286 -2.76028 0
M  V30 4775 C 486.872 1.30171 -2.84648 0
M  V30 4776 C 487.347 1.68568 -4.25851 0
M  V30 4777 N 488.838 1.75638 -4.28609 0
M  V30 4778 C 489.573 2.06769 -5.34821 0
M  V30 4779 N 489.069 2.36201 -6.51292 0
M  V30 4780 N 490.862 2.07927 -5.22229 0
M  V30 4781 H 483.013 -0.237574 -2.11067 0
M  V30 4782 H 485.276 -0.0436747 -0.946993 0
M  V30 4783 H 484.982 0.431199 -3.49047 0
M  V30 4784 H 484.856 2.13889 -3.10695 0
M  V30 4785 H 487.243 2.05411 -2.11873 0
M  V30 4786 H 487.324 0.336457 -2.53578 0
M  V30 4787 H 486.968 0.938824 -4.99148 0
M  V30 4788 H 486.898 2.66174 -4.54377 0
M  V30 4789 H 489.389 1.55097 -3.44606 0
M  V30 4790 H 489.702 2.59112 -7.28066 0
M  V30 4791 H 488.047 2.33681 -6.54536 0
M  V30 4792 H 491.238 1.84403 -4.30248 0
M  V30 4793 H 491.411 2.31856 -6.05101 0
M  V30 4794 N 484.817 1.37938 0.762283 0
M  V30 4795 C 485.764 1.34467 1.87583 0
M  V30 4796 C 486.734 0.208633 1.64785 0
M  V30 4797 O 487.919 0.399494 1.86571 0
M  V30 4798 C 485.059 1.16692 3.24772 0
M  V30 4799 C 484.172 2.39608 3.59461 0
M  V30 4800 C 483.307 2.14631 4.85908 0
M  V30 4801 C 482.346 3.33364 5.13357 0
M  V30 4802 N 481.483 3.07877 6.30996 0
M  V30 4803 H 486.323 2.29669 1.89885 0
M  V30 4804 H 483.86 1.14116 0.928219 0
M  V30 4805 H 485.818 1.04405 4.03925 0
M  V30 4806 H 484.448 0.251333 3.2182 0
M  V30 4807 H 483.5 2.626 2.75219 0
M  V30 4808 H 484.812 3.28128 3.75678 0
M  V30 4809 H 483.966 1.99429 5.72986 0
M  V30 4810 H 482.705 1.23463 4.71814 0
M  V30 4811 H 481.71 3.49094 4.24751 0
M  V30 4812 H 482.935 4.25395 5.29354 0
M  V30 4813 H 480.881 2.19348 6.18241 0
M  V30 4814 H 480.798 3.89944 6.47673 0
M  V30 4815 H 482.066 2.96313 7.20985 0
M  V30 4816 N 486.295 -0.989507 1.22664 0
M  V30 4817 C 487.205 -2.11449 1.01619 0
M  V30 4818 C 488.221 -1.73962 -0.036545 0
M  V30 4819 O 489.397 -2.00788 0.156924 0
M  V30 4820 C 486.462 -3.41465 0.600204 0
M  V30 4821 C 485.523 -3.93033 1.72695 0
M  V30 4822 C 484.756 -5.16844 1.33071 0
M  V30 4823 O 484.979 -5.7001 0.210975 0
M  V30 4824 O 483.913 -5.6225 2.14845 0
M  V30 4825 H 487.739 -2.32088 1.9588 0
M  V30 4826 H 485.324 -1.09823 1.01289 0
M  V30 4827 H 487.206 -4.19695 0.37873 0
M  V30 4828 H 485.881 -3.22178 -0.313511 0
M  V30 4829 H 484.788 -3.15961 2.00298 0
M  V30 4830 H 486.121 -4.16758 2.61865 0
M  V30 4831 N 487.773 -1.03688 -1.18687 0
M  V30 4832 C 489.022 -0.733235 -1.879 0
M  V30 4833 C 489.335 0.741745 -1.8099 0
M  V30 4834 O 490.541 1.15875 -2.4553 0
M  V30 4835 C 488.997 -1.26127 -3.37076 0
M  V30 4836 C 488.605 -2.76461 -3.52524 0
M  V30 4837 C 490.349 -1.03398 -4.11715 0
M  V30 4838 C 488.256 -3.22642 -4.95637 0
M  V30 4839 H 487.186 -0.270584 -0.703776 0
M  V30 4840 H 489.837 -1.25222 -1.34133 0
M  V30 4841 H 488.219 -0.670165 -3.90288 0
M  V30 4842 H 489.393 -3.41296 -3.09602 0
M  V30 4843 H 487.708 -2.97559 -2.91286 0
M  V30 4844 H 490.305 -1.3542 -5.17267 0
M  V30 4845 H 490.648 0.0289246 -4.1629 0
M  V30 4846 H 491.181 -1.5895 -3.64664 0
M  V30 4847 H 487.92 -4.28296 -4.96228 0
M  V30 4848 H 487.44 -2.62539 -5.39289 0
M  V30 4849 H 489.119 -3.16444 -5.64333 0
M  V30 4850 N 489.251 1.34841 -0.815825 0
M  V30 4851 C 490.476 2.03261 -0.41226 0
M  V30 4852 C 490.901 1.61055 0.971751 0
M  V30 4853 O 490.259 0.7917 1.63101 0
M  V30 4854 C 490.307 3.56914 -0.514289 0
M  V30 4855 O 489.411 4.09728 0.468675 0
M  V30 4856 H 488.752 0.641664 -0.170771 0
M  V30 4857 H 491.282 1.72241 -1.10427 0
M  V30 4858 H 491.292 4.06156 -0.387457 0
M  V30 4859 H 489.967 3.86982 -1.52375 0
M  V30 4860 H 488.544 3.71681 0.301316 0
M  V30 4861 N 490.729 0.570148 1.46925 0
M  V30 4862 C 491.957 0.0561966 2.06824 0
M  V30 4863 C 492.372 -1.24326 1.42086 0
M  V30 4864 O 491.729 -1.74882 0.521794 0
M  V30 4865 C 491.78 -0.129517 3.61268 0
M  V30 4866 O 491.501 1.1185 4.23581 0
M  V30 4867 C 493.002 -0.679266 4.38065 0
M  V30 4868 H 490.222 0.0517261 0.669003 0
M  V30 4869 H 492.766 0.787243 1.8874 0
M  V30 4870 H 490.921 -0.810739 3.78822 0
M  V30 4871 H 491.335 0.924375 5.1629 0
M  V30 4872 H 492.809 -0.758445 5.46765 0
M  V30 4873 H 493.286 -1.69346 4.05239 0
M  V30 4874 H 493.892 -0.0333237 4.25287 0
M  V30 4875 N 492.207 -1.54576 0.307264 0
M  V30 4876 C 493.155 -2.25208 -0.581723 0
M  V30 4877 C 494.149 -1.26031 -1.13192 0
M  V30 4878 O 495.355 -1.43862 -1.08184 0
M  V30 4879 H 491.73 -0.723173 -0.206214 0
M  V30 4880 H 493.701 -2.98378 0.0364663 0
M  V30 4881 C 492.45 -3.01086 -1.73904 0
M  V30 4882 H 491.773 -3.77208 -1.32491 0
M  V30 4883 H 493.213 -3.5378 -2.33701 0
M  V30 4884 C 491.672 -2.08422 -2.64692 0
M  V30 4885 O 492.202 -1.65636 -3.65961 0
M  V30 4886 N 490.408 -1.74247 -2.32564 0
M  V30 4887 H 489.955 -2.09238 -1.50257 0
M  V30 4888 H 489.913 -1.12524 -2.93574 0
M  V30 4889 N 493.685 -0.035106 -1.57561 0
M  V30 4890 C 494.913 0.652258 -1.9635 0
M  V30 4891 C 495.328 1.65317 -0.911897 0
M  V30 4892 O 494.685 1.82194 0.105657 0
M  V30 4893 C 494.736 1.35337 -3.35211 0
M  V30 4894 O 494.457 0.392548 -4.36338 0
M  V30 4895 C 495.958 2.13199 -3.88666 0
M  V30 4896 H 493.178 0.179444 -0.646561 0
M  V30 4897 H 495.722 -0.0966459 -2.04271 0
M  V30 4898 H 493.877 2.05362 -3.28489 0
M  V30 4899 H 494.291 0.891097 -5.16875 0
M  V30 4900 H 495.765 2.577 -4.88154 0
M  V30 4901 H 496.242 2.97353 -3.23231 0
M  V30 4902 H 496.848 1.48118 -3.98674 0
M  V30 4903 N 495.163 1.55791 0.238111 0
M  V30 4904 C 496.073 1.94196 1.31625 0
M  V30 4905 C 497.089 0.843545 1.52185 0
M  V30 4906 O 498.265 1.1457 1.65637 0
M  V30 4907 C 495.33 2.2365 2.64918 0
M  V30 4908 C 494.391 3.46971 2.52804 0
M  V30 4909 C 493.624 3.7501 3.79741 0
M  V30 4910 O 493.847 3.04982 4.82019 0
M  V30 4911 O 492.781 4.68525 3.77846 0
M  V30 4912 H 496.607 2.86044 1.02043 0
M  V30 4913 H 494.192 1.42786 0.439603 0
M  V30 4914 H 496.074 2.43863 3.4367 0
M  V30 4915 H 494.749 1.34979 2.94215 0
M  V30 4916 H 493.656 3.32055 1.72309 0
M  V30 4917 H 494.989 4.35971 2.28451 0
M  V30 4918 N 496.642 -0.504142 1.49319 0
M  V30 4919 C 497.574 -1.62265 1.61872 0
M  V30 4920 C 498.587 -1.54881 0.501573 0
M  V30 4921 O 499.776 -1.6087 0.773497 0
M  V30 4922 C 496.876 -3.01042 1.55651 0
M  V30 4923 C 496.049 -3.33642 2.82845 0
M  V30 4924 C 495.108 -4.51816 2.69719 0
M  V30 4925 O 494.134 -4.53755 3.4365 0
M  V30 4926 N 495.336 -5.51543 1.81055 0
M  V30 4927 H 498.101 -1.51924 2.58339 0
M  V30 4928 H 495.662 -0.691954 1.46368 0
M  V30 4929 H 497.654 -3.78013 1.44528 0
M  V30 4930 H 496.224 -3.05323 0.670546 0
M  V30 4931 H 495.444 -2.45598 3.08343 0
M  V30 4932 H 496.732 -3.5222 3.67177 0
M  V30 4933 H 496.13 -5.52774 1.20241 0
M  V30 4934 H 494.687 -6.27629 1.75856 0
M  V30 4935 N 498.12 -1.38341 -0.754957 0
M  V30 4936 C 499.05 -1.38176 -1.88227 0
M  V30 4937 C 500.031 -0.247873 -1.68284 0
M  V30 4938 O 501.216 -0.45075 -1.88896 0
M  V30 4939 C 498.346 -1.20471 -3.25736 0
M  V30 4940 C 497.3 -2.3105 -3.60278 0
M  V30 4941 C 496.626 -1.98452 -4.96509 0
M  V30 4942 C 497.926 -3.73305 -3.65295 0
M  V30 4943 H 499.62 -2.32512 -1.88622 0
M  V30 4944 H 497.166 -1.1192 -0.906082 0
M  V30 4945 H 499.119 -1.18982 -4.04254 0
M  V30 4946 H 497.843 -0.225965 -3.25817 0
M  V30 4947 H 496.502 -2.31723 -2.84078 0
M  V30 4948 H 496.15 -0.990641 -4.93148 0
M  V30 4949 H 495.85 -2.7251 -5.20588 0
M  V30 4950 H 497.374 -1.98578 -5.77407 0
M  V30 4951 H 498.788 -3.7467 -4.3393 0
M  V30 4952 H 497.185 -4.46557 -4.00883 0
M  V30 4953 H 498.255 -4.05719 -2.65556 0
M  V30 4954 N 499.598 0.982988 -1.23187 0
M  V30 4955 C 500.53 2.07729 -0.968572 0
M  V30 4956 C 501.543 1.62702 0.0564821 0
M  V30 4957 O 502.732 1.77603 -0.178733 0
M  V30 4958 C 499.832 3.36071 -0.436974 0
M  V30 4959 C 499.005 4.10081 -1.52159 0
M  V30 4960 C 498.064 5.16701 -0.99532 0
M  V30 4961 O 497.09 5.43727 -1.68373 0
M  V30 4962 N 498.292 5.80226 0.178192 0
M  V30 4963 H 501.057 2.30894 -1.9107 0
M  V30 4964 H 498.618 1.14949 -1.1401 0
M  V30 4965 H 500.61 4.04639 -0.0700051 0
M  V30 4966 H 499.18 3.09893 0.410509 0
M  V30 4967 H 498.4 3.36004 -2.06144 0
M  V30 4968 H 499.688 4.56295 -2.25105 0
M  V30 4969 H 499.086 5.60651 0.754096 0
M  V30 4970 H 497.643 6.49982 0.486449 0
M  V30 4971 N 501.076 1.04316 1.18135 0
M  V30 4972 C 502.301 0.768047 1.92655 0
M  V30 4973 C 502.726 -0.66904 1.758 0
M  V30 4974 O 502.084 -1.46372 1.06981 0
M  V30 4975 C 502.132 1.14239 3.42026 0
M  V30 4976 O 501.236 0.269333 4.1152 0
M  V30 4977 H 500.577 0.282436 0.600937 0
M  V30 4978 H 503.107 1.39367 1.49793 0
M  V30 4979 H 503.117 1.10538 3.92741 0
M  V30 4980 H 501.792 2.18928 3.53615 0
M  V30 4981 H 500.369 0.366175 3.71098 0
M  V30 4982 N 502.554 -1.34406 0.822964 0
M  V30 4983 C 503.779 -2.0304 0.423034 0
M  V30 4984 C 504.204 -1.61568 -0.963196 0
M  V30 4985 O 503.562 -0.800339 -1.62678 0
M  V30 4986 C 503.61 -3.56636 0.53321 0
M  V30 4987 O 502.714 -4.09971 -0.446939 0
M  V30 4988 H 502.055 -0.64075 0.174171 0
M  V30 4989 H 504.585 -1.71653 1.11339 0
M  V30 4990 H 504.595 -4.05945 0.408991 0
M  V30 4991 H 503.27 -3.86168 1.54425 0
M  V30 4992 H 501.847 -3.71835 -0.281601 0
M  V30 4993 N 504.032 -0.577932 -1.46621 0
M  V30 4994 C 504.979 0.158048 -2.30258 0
M  V30 4995 C 505.949 0.888669 -1.40328 0
M  V30 4996 O 507.134 0.880283 -1.6928 0
M  V30 4997 C 504.274 1.16884 -3.24703 0
M  V30 4998 C 503.387 0.442163 -4.29731 0
M  V30 4999 C 502.522 1.44007 -5.11308 0
M  V30 5000 C 501.561 0.69952 -6.0809 0
M  V30 5001 N 500.698 1.64525 -6.82551 0
M  V30 5002 H 505.538 -0.561242 -2.92667 0
M  V30 5003 H 503.075 -0.288591 -1.44241 0
M  V30 5004 H 505.033 1.7677 -3.779 0
M  V30 5005 H 503.663 1.85591 -2.64113 0
M  V30 5006 H 502.715 -0.271632 -3.79429 0
M  V30 5007 H 504.027 -0.136992 -4.98612 0
M  V30 5008 H 503.181 2.11186 -5.68758 0
M  V30 5009 H 501.92 2.05315 -4.42377 0
M  V30 5010 H 500.925 0.0139217 -5.49798 0
M  V30 5011 H 502.15 0.091894 -6.79038 0
M  V30 5012 H 500.096 2.24653 -6.16334 0
M  V30 5013 H 500.013 1.11878 -7.47676 0
M  V30 5014 H 501.281 2.30754 -7.44562 0
M  V30 5015 N 505.51 1.54411 -0.315457 0
M  V30 5016 C 506.735 2.05299 0.294496 0
M  V30 5017 C 507.16 1.19052 1.4563 0
M  V30 5018 O 506.518 0.197804 1.80218 0
M  V30 5019 C 506.566 3.5345 0.714549 0
M  V30 5020 O 505.67 3.70175 1.81781 0
M  V30 5021 H 505.011 0.661743 0.0547019 0
M  V30 5022 H 507.541 1.99327 -0.461508 0
M  V30 5023 H 507.551 3.9557 0.999426 0
M  V30 5024 H 506.226 4.1568 -0.135244 0
M  V30 5025 H 504.803 3.3996 1.53236 0
M  V30 5026 N 506.988 0.0434614 1.5754 0
M  V30 5027 C 507.898 -0.94893 2.14552 0
M  V30 5028 C 508.914 -1.34707 1.10136 0
M  V30 5029 O 510.09 -1.42557 1.42266 0
M  V30 5030 C 507.155 -2.208 2.67298 0
M  V30 5031 C 506.216 -1.86893 3.86484 0
M  V30 5032 C 505.449 -3.06797 4.36705 0
M  V30 5033 O 505.672 -4.19921 3.86034 0
M  V30 5034 O 504.606 -2.8826 5.28384 0
M  V30 5035 H 508.432 -0.494099 2.99654 0
M  V30 5036 H 506.017 -0.177989 1.48336 0
M  V30 5037 H 507.899 -2.94686 3.01228 0
M  V30 5038 H 506.574 -2.65436 1.85272 0
M  V30 5039 H 505.481 -1.10347 3.57455 0
M  V30 5040 H 506.814 -1.47062 4.69716 0
M  V30 5041 N 508.466 -1.55915 -0.229846 0
M  V30 5042 C 509.712 -1.78807 -0.956868 0
M  V30 5043 C 510.045 -0.611687 -1.84315 0
M  V30 5044 O 509.32 0.389398 -1.90562 0
M  V30 5045 C 509.603 -3.11718 -1.80288 0
M  V30 5046 C 509.456 -4.3979 -0.943649 0
M  V30 5047 C 510.775 -3.40999 -2.78222 0
M  V30 5048 H 507.894 -0.6505 -0.346437 0
M  V30 5049 H 510.536 -1.88648 -0.226252 0
M  V30 5050 H 508.686 -3.03459 -2.42579 0
M  V30 5051 H 510.358 -4.60059 -0.338121 0
M  V30 5052 H 508.601 -4.33086 -0.248705 0
M  V30 5053 H 509.272 -5.29208 -1.5698 0
M  V30 5054 H 511.748 -3.49332 -2.26067 0
M  V30 5055 H 510.624 -4.35183 -3.34526 0
M  V30 5056 H 510.885 -2.62754 -3.55546 0
M  V30 5057 N 509.944 0.496216 -1.49584 0
M  V30 5058 C 511.172 1.27394 -1.63029 0
M  V30 5059 C 511.587 1.86344 -0.303569 0
M  V30 5060 O 510.944 1.68057 0.711547 0
M  V30 5061 C 510.995 2.40077 -2.70269 0
M  V30 5062 O 510.716 1.83549 -3.97796 0
M  V30 5063 C 512.217 3.31372 -2.94462 0
M  V30 5064 H 509.437 0.386211 -0.54871 0
M  V30 5065 H 511.981 0.595163 -1.95648 0
M  V30 5066 H 510.136 3.03775 -2.40415 0
M  V30 5067 H 510.55 2.57561 -4.56905 0
M  V30 5068 H 512.024 4.06707 -3.73221 0
M  V30 5069 H 512.501 3.88654 -2.0456 0
M  V30 5070 H 513.107 2.73435 -3.25751 0
M  V30 5071 N 511.423 1.38739 0.74761 0
M  V30 5072 C 512.7 1.25791 1.49786 0
M  V30 5073 C 513.08 -0.138075 2.10648 0
M  V30 5074 O 512.428 -1.14815 1.9756 0
M  V30 5075 C 512.638 2.37265 2.55942 0
M  V30 5076 C 513.986 2.75978 3.22679 0
M  V30 5077 O 515.01 2.36621 2.6625 0
M  V30 5078 O 513.869 3.43867 4.24756 0
M  V30 5079 H 510.963 0.492251 0.664543 0
M  V30 5080 H 513.509 1.50582 0.782511 0
M  V30 5081 H 512.281 3.30644 2.0926 0
M  V30 5082 H 511.904 2.14071 3.35051 0
M  V30 5083 N 512.901 -0.976442 1.23707 0
M  V30 5084 C 513.831 -2.08749 1.04624 0
M  V30 5085 C 514.812 -1.70057 -0.0380956 0
M  V30 5086 O 515.997 -1.93782 0.127308 0
M  V30 5087 C 513.127 -3.41335 0.640902 0
M  V30 5088 C 512.081 -3.93947 1.67302 0
M  V30 5089 C 511.407 -5.22774 1.12301 0
M  V30 5090 C 512.707 -4.22769 3.06697 0
M  V30 5091 H 514.401 -2.24972 1.97555 0
M  V30 5092 H 511.947 -1.08108 0.951247 0
M  V30 5093 H 513.9 -4.18489 0.494434 0
M  V30 5094 H 512.624 -3.24988 -0.324099 0
M  V30 5095 H 511.283 -3.18941 1.80755 0
M  V30 5096 H 510.931 -5.0278 0.148877 0
M  V30 5097 H 510.631 -5.58942 1.81267 0
M  V30 5098 H 512.155 -6.02546 0.988479 0
M  V30 5099 H 513.569 -4.90659 2.96524 0
M  V30 5100 H 511.966 -4.70147 3.72937 0
M  V30 5101 H 513.036 -3.29885 3.55392 0
M  V30 5102 N 514.379 -1.04941 -1.1758 0
M  V30 5103 C 515.795 -0.770282 -1.39781 0
M  V30 5104 C 515.995 0.636417 -1.91186 0
M  V30 5105 O 515.051 1.39923 -2.10185 0
M  V30 5106 C 516.364 -1.82376 -2.3908 0
M  V30 5107 C 517.912 -1.84569 -2.52791 0
M  V30 5108 C 518.387 -2.88933 -3.55361 0
M  V30 5109 N 519.878 -2.8788 -3.62877 0
M  V30 5110 C 520.613 -3.65282 -4.41992 0
M  V30 5111 N 520.109 -4.52461 -5.24643 0
M  V30 5112 N 521.902 -3.53732 -4.36841 0
M  V30 5113 H 514.053 -1.95705 -0.825438 0
M  V30 5114 H 516.316 -0.847284 -0.425222 0
M  V30 5115 H 516.022 -2.83323 -2.08376 0
M  V30 5116 H 515.896 -1.66327 -3.38549 0
M  V30 5117 H 518.283 -0.842879 -2.82807 0
M  V30 5118 H 518.364 -2.04696 -1.53406 0
M  V30 5119 H 518.008 -3.89398 -3.26085 0
M  V30 5120 H 517.938 -2.66059 -4.54445 0
M  V30 5121 H 520.429 -2.24666 -3.03864 0
M  V30 5122 H 520.742 -5.08211 -5.82187 0
M  V30 5123 H 519.087 -4.56524 -5.24033 0
M  V30 5124 H 522.278 -2.85021 -3.71323 0
M  V30 5125 H 522.451 -4.14302 -4.98255 0
M  V30 5126 N 515.857 1.33968 -0.830081 0
M  V30 5127 C 517.273 1.51003 -0.516742 0
M  V30 5128 C 517.473 1.77286 0.957694 0
M  V30 5129 O 516.529 1.82797 1.74188 0
M  V30 5130 C 517.842 2.67036 -1.38247 0
M  V30 5131 C 519.39 2.80919 -1.38034 0
M  V30 5132 C 519.865 4.00004 -2.23071 0
M  V30 5133 N 521.356 4.07224 -2.20733 0
M  V30 5134 C 522.091 4.98541 -2.83275 0
M  V30 5135 N 521.587 5.95033 -3.54835 0
M  V30 5136 N 523.38 4.91469 -2.72791 0
M  V30 5137 H 515.531 1.15168 -1.78466 0
M  V30 5138 H 517.794 0.565443 -0.760906 0
M  V30 5139 H 517.5 2.54266 -2.42985 0
M  V30 5140 H 517.374 3.62226 -1.05225 0
M  V30 5141 H 519.761 2.93127 -0.340713 0
M  V30 5142 H 519.842 1.86517 -1.75057 0
M  V30 5143 H 519.486 3.88557 -3.27087 0
M  V30 5144 H 519.416 4.93634 -1.83394 0
M  V30 5145 H 521.907 3.38162 -1.68687 0
M  V30 5146 H 522.22 6.61357 -3.99784 0
M  V30 5147 H 520.565 5.95135 -3.58942 0
M  V30 5148 H 523.756 4.15048 -2.16456 0
M  V30 5149 H 523.929 5.62439 -3.21818 0
M  V30 5150 N 517.335 0.585699 1.46312 0
M  V30 5151 C 518.298 -0.135673 2.28798 0
M  V30 5152 C 519.298 -0.815988 1.38558 0
M  V30 5153 O 520.488 -0.667487 1.60904 0
M  V30 5154 C 517.62 -1.20163 3.1902 0
M  V30 5155 H 518.813 0.589257 2.94054 0
M  V30 5156 H 516.366 0.343794 1.52472 0
M  V30 5157 H 517.101 -1.95804 2.58517 0
M  V30 5158 H 516.886 -0.718282 3.85465 0
M  V30 5159 H 518.376 -1.70749 3.81096 0
M  V30 5160 N 518.813 -1.54241 0.323641 0
M  V30 5161 C 520.06 -2.0057 -0.27891 0
M  V30 5162 C 520.388 -1.21181 -1.52136 0
M  V30 5163 O 519.643 -0.282043 -1.93657 0
M  V30 5164 C 519.942 -3.5129 -0.658031 0
M  V30 5165 C 519.608 -4.48281 0.485252 0
M  V30 5166 C 518.27 -4.74519 0.799055 0
M  V30 5167 C 520.622 -5.05909 1.25322 0
M  V30 5168 C 517.95 -5.55643 1.88354 0
M  V30 5169 C 520.302 -5.88215 2.32779 0
M  V30 5170 C 518.966 -6.12755 2.64741 0
M  V30 5171 H 518.236 -0.733938 -0.10206 0
M  V30 5172 H 520.883 -1.862 0.447435 0
M  V30 5173 H 519.188 -3.63388 -1.4648 0
M  V30 5174 H 520.885 -3.84578 -1.1358 0
M  V30 5175 H 517.475 -4.27979 0.230593 0
M  V30 5176 H 521.659 -4.8562 1.02404 0
M  V30 5177 H 516.915 -5.72888 2.13564 0
M  V30 5178 H 521.089 -6.31888 2.92729 0
M  V30 5179 H 518.716 -6.75404 3.48904 0
M  V30 5180 N 520.291 -0.0518155 -1.57515 0
M  V30 5181 C 521.223 0.951542 -2.08515 0
M  V30 5182 C 522.236 1.27436 -1.01311 0
M  V30 5183 O 523.425 1.23504 -1.28876 0
M  V30 5184 C 520.525 2.27291 -2.5138 0
M  V30 5185 C 519.698 2.13191 -3.81927 0
M  V30 5186 C 518.757 3.28458 -4.11098 0
M  V30 5187 O 517.783 3.04334 -4.81009 0
M  V30 5188 N 518.985 4.52954 -3.63061 0
M  V30 5189 H 521.75 0.516242 -2.9522 0
M  V30 5190 H 519.311 0.13441 -1.61341 0
M  V30 5191 H 521.303 3.03272 -2.67971 0
M  V30 5192 H 519.873 2.62386 -1.69919 0
M  V30 5193 H 519.093 1.21798 -3.74912 0
M  V30 5194 H 520.381 2.00999 -4.67415 0
M  V30 5195 H 519.779 4.75444 -3.06545 0
M  V30 5196 H 518.336 5.26026 -3.84889 0
M  V30 5197 N 521.769 1.56035 0.221574 0
M  V30 5198 C 522.717 1.93269 1.29421 0
M  V30 5199 C 523.711 0.814727 1.48521 0
M  V30 5200 O 524.917 0.999559 1.49696 0
M  V30 5201 H 521.292 0.614188 0.43391 0
M  V30 5202 H 523.263 2.82773 0.952987 0
M  V30 5203 C 522.012 2.26573 2.63742 0
M  V30 5204 H 521.335 3.12112 2.49853 0
M  V30 5205 H 522.775 2.5651 3.37607 0
M  V30 5206 C 521.234 1.09086 3.1875 0
M  V30 5207 O 521.764 0.351985 4.00155 0
M  V30 5208 N 519.97 0.874693 2.77124 0
M  V30 5209 H 519.517 1.47726 2.11033 0
M  V30 5210 H 519.475 0.0903349 3.1427 0
M  V30 5211 N 523.247 -0.488276 1.49845 0
M  V30 5212 C 524.177 -1.59675 1.70371 0
M  V30 5213 C 525.158 -1.60878 0.552473 0
M  V30 5214 O 526.343 -1.77417 0.78973 0
M  V30 5215 C 523.473 -2.98098 1.782 0
M  V30 5216 C 522.427 -3.11761 2.93239 0
M  V30 5217 C 521.753 -4.51661 2.86193 0
M  V30 5218 C 523.053 -2.90589 4.33999 0
M  V30 5219 H 524.747 -1.42752 2.63177 0
M  V30 5220 H 522.293 -0.685317 1.26647 0
M  V30 5221 H 524.246 -3.75555 1.91144 0
M  V30 5222 H 522.97 -3.16138 0.820018 0
M  V30 5223 H 521.629 -2.36732 2.79917 0
M  V30 5224 H 521.277 -4.66595 1.87877 0
M  V30 5225 H 520.977 -4.61742 3.63412 0
M  V30 5226 H 522.501 -5.31162 3.01163 0
M  V30 5227 H 523.915 -3.57807 4.47936 0
M  V30 5228 H 522.312 -3.1213 5.12538 0
M  V30 5229 H 523.382 -1.86595 4.4756 0
M  V30 5230 N 524.725 -1.39134 -0.740242 0
M  V30 5231 C 525.635 -1.39697 -1.88473 0
M  V30 5232 C 526.651 -0.292403 -1.71526 0
M  V30 5233 O 527.827 -0.533021 -1.94219 0
M  V30 5234 C 524.892 -1.23382 -3.24003 0
M  V30 5235 C 523.953 -2.43763 -3.53381 0
M  V30 5236 C 523.186 -2.28216 -4.82445 0
M  V30 5237 O 523.409 -1.28288 -5.55786 0
M  V30 5238 O 522.343 -3.1709 -5.11603 0
M  V30 5239 H 526.169 -2.36159 -1.90952 0
M  V30 5240 H 523.754 -1.20194 -0.887346 0
M  V30 5241 H 525.636 -1.16395 -4.05006 0
M  V30 5242 H 524.311 -0.300121 -3.22306 0
M  V30 5243 H 523.218 -2.56325 -2.72485 0
M  V30 5244 H 524.551 -3.35808 -3.59852 0
M  V30 5245 N 526.204 0.969867 -1.24223 0
M  V30 5246 C 527.453 1.70687 -1.07466 0
M  V30 5247 C 527.766 1.91736 0.386861 0
M  V30 5248 O 528.972 2.62986 0.674581 0
M  V30 5249 C 527.428 3.07217 -1.87472 0
M  V30 5250 C 527.036 2.94018 -3.3802 0
M  V30 5251 C 528.78 3.84804 -1.79237 0
M  V30 5252 C 526.687 4.25844 -4.10379 0
M  V30 5253 H 525.617 0.640067 -0.398536 0
M  V30 5254 H 528.268 1.08092 -1.48285 0
M  V30 5255 H 526.65 3.70628 -1.39466 0
M  V30 5256 H 527.824 2.39632 -3.9359 0
M  V30 5257 H 526.139 2.29898 -3.47183 0
M  V30 5258 H 528.736 4.82417 -2.30603 0
M  V30 5259 H 529.079 4.09356 -0.757197 0
M  V30 5260 H 529.612 3.28115 -2.24912 0
M  V30 5261 H 526.351 4.06486 -5.14246 0
M  V30 5262 H 525.871 4.80054 -3.59594 0
M  V30 5263 H 527.55 4.94475 -4.17257 0
M  V30 5264 N 527.682 1.05563 1.17022 0
M  V30 5265 C 528.592 0.670758 2.24807 0
M  V30 5266 C 529.608 -0.309865 1.71219 0
M  V30 5267 O 530.784 -0.161025 2.00755 0
M  V30 5268 C 527.849 0.055337 3.46656 0
M  V30 5269 C 526.91 1.08688 4.15314 0
M  V30 5270 C 526.143 0.500736 5.31346 0
M  V30 5271 O 526.366 -0.688718 5.66227 0
M  V30 5272 O 525.3 1.23683 5.89055 0
M  V30 5273 H 529.126 1.56914 2.60023 0
M  V30 5274 H 526.711 0.827428 1.24395 0
M  V30 5275 H 528.593 -0.286492 4.20425 0
M  V30 5276 H 527.268 -0.816638 3.13229 0
M  V30 5277 H 526.175 1.48077 3.43546 0
M  V30 5278 H 527.508 1.93014 4.52777 0
M  V30 5279 N 529.16 -1.33526 0.837174 0
M  V30 5280 C 530.09 -2.31764 0.284206 0
M  V30 5281 C 531.071 -1.58896 -0.607142 0
M  V30 5282 O 532.256 -1.86798 -0.531047 0
M  V30 5283 C 529.386 -3.43029 -0.542962 0
M  V30 5284 C 528.34 -4.27255 0.252451 0
M  V30 5285 C 527.666 -5.3012 -0.69836 0
M  V30 5286 C 528.966 -5.01229 1.46858 0
M  V30 5287 H 530.66 -2.78262 1.10502 0
M  V30 5288 H 528.206 -1.3378 0.532812 0
M  V30 5289 H 530.159 -4.1078 -0.940096 0
M  V30 5290 H 528.883 -2.95216 -1.39697 0
M  V30 5291 H 527.542 -3.61127 0.631124 0
M  V30 5292 H 527.19 -4.78564 -1.54872 0
M  V30 5293 H 526.89 -5.87353 -0.170274 0
M  V30 5294 H 528.414 -6.00737 -1.09305 0
M  V30 5295 H 529.828 -5.61756 1.14469 0
M  V30 5296 H 528.225 -5.68104 1.93333 0
M  V30 5297 H 529.295 -4.301 2.23924 0
M  V30 5298 N 530.638 -0.59345 -1.46 0
M  V30 5299 C 531.57 0.171569 -2.28557 0
M  V30 5300 C 532.583 0.845273 -1.39137 0
M  V30 5301 O 533.772 0.713033 -1.6364 0
M  V30 5302 C 530.872 1.26311 -3.14482 0
M  V30 5303 C 530.045 0.679258 -4.32094 0
M  V30 5304 C 529.104 1.65987 -4.99334 0
M  V30 5305 O 528.13 1.19171 -5.56585 0
M  V30 5306 N 529.332 2.99414 -4.97324 0
M  V30 5307 H 532.097 -0.536771 -2.94854 0
M  V30 5308 H 529.658 -0.431954 -1.56031 0
M  V30 5309 H 531.65 1.91863 -3.5633 0
M  V30 5310 H 530.22 1.87416 -2.50188 0
M  V30 5311 H 529.44 -0.153992 -3.93899 0
M  V30 5312 H 530.728 0.26916 -5.08088 0
M  V30 5313 H 530.126 3.40064 -4.52076 0
M  V30 5314 H 528.683 3.60426 -5.4308 0
M  V30 5315 N 532.116 1.54067 -0.331816 0
M  V30 5316 C 533.341 2.05599 0.272705 0
M  V30 5317 C 533.766 1.2059 1.44359 0
M  V30 5318 O 533.124 0.216907 1.79998 0
M  V30 5319 C 533.172 3.54188 0.677021 0
M  V30 5320 O 532.276 3.72082 1.77844 0
M  V30 5321 H 531.617 0.662286 0.0476801 0
M  V30 5322 H 534.147 1.98826 -0.482624 0
M  V30 5323 H 534.157 3.96608 0.957415 0
M  V30 5324 H 532.832 4.15513 -0.179325 0
M  V30 5325 H 531.409 3.41566 1.49622 0
M  V30 5326 N 533.594 0.0601682 1.57485 0
M  V30 5327 C 534.526 -0.94047 2.09016 0
M  V30 5328 C 535.539 -1.26897 1.01985 0
M  V30 5329 O 536.728 -1.22819 1.29529 0
M  V30 5330 C 533.828 -2.25955 2.52582 0
M  V30 5331 C 533.001 -2.11163 3.83052 0
M  V30 5332 C 532.06 -3.26273 4.12835 0
M  V30 5333 O 531.086 -3.01779 4.82616 0
M  V30 5334 N 532.288 -4.51022 3.65458 0
M  V30 5335 H 535.053 -0.500578 2.9549 0
M  V30 5336 H 532.614 -0.125852 1.6141 0
M  V30 5337 H 534.606 -3.01846 2.69575 0
M  V30 5338 H 533.176 -2.61481 1.71308 0
M  V30 5339 H 532.396 -1.19808 3.75552 0
M  V30 5340 H 533.684 -1.98517 4.68475 0
M  V30 5341 H 533.082 -4.73811 3.09062 0
M  V30 5342 H 531.639 -5.23978 3.87673 0
M  V30 5343 N 535.072 -1.5615 -0.213296 0
M  V30 5344 C 536.002 -1.96109 -1.26742 0
M  V30 5345 C 536.983 -0.830448 -1.48451 0
M  V30 5346 O 538.168 -1.09339 -1.60495 0
M  V30 5347 C 535.298 -2.28492 -2.61551 0
M  V30 5348 C 534.252 -3.44124 -2.54485 0
M  V30 5349 C 533.578 -3.62134 -3.93399 0
M  V30 5350 C 534.878 -4.78855 -2.08556 0
M  V30 5351 H 536.572 -2.84412 -0.935434 0
M  V30 5352 H 534.118 -1.36836 -0.44854 0
M  V30 5353 H 536.071 -2.55039 -3.3546 0
M  V30 5354 H 534.795 -1.37052 -2.96453 0
M  V30 5355 H 533.454 -3.17639 -1.83033 0
M  V30 5356 H 533.102 -2.68055 -4.25623 0
M  V30 5357 H 532.802 -4.39913 -3.89551 0
M  V30 5358 H 534.326 -3.91038 -4.68958 0
M  V30 5359 H 535.74 -5.04552 -2.72213 0
M  V30 5360 H 534.137 -5.59975 -2.1575 0
M  V30 5361 H 535.207 -4.73657 -1.03811 0
M  V30 5362 N 536.55 0.480323 -1.50102 0
M  V30 5363 C 537.513 1.56181 -1.6775 0
M  V30 5364 C 538.513 1.51156 -0.548503 0
M  V30 5365 O 539.703 1.5394 -0.815363 0
M  V30 5366 C 536.835 2.95823 -1.69415 0
M  V30 5367 H 538.028 1.41855 -2.6423 0
M  V30 5368 H 535.581 0.70605 -1.39444 0
M  V30 5369 H 536.316 3.15604 -0.745948 0
M  V30 5370 H 536.101 3.00878 -2.51425 0
M  V30 5371 H 537.591 3.74359 -1.85054 0
M  V30 5372 N 538.028 1.39524 0.732853 0
M  V30 5373 C 538.961 1.32806 1.85574 0
M  V30 5374 C 539.939 0.201354 1.61348 0
M  V30 5375 O 541.123 0.38216 1.84585 0
M  V30 5376 C 538.25 1.06271 3.21596 0
M  V30 5377 C 537.296 2.21161 3.64678 0
M  V30 5378 S 538.129 3.83454 3.73796 0
M  V30 5379 C 539.285 3.59149 5.12604 0
M  V30 5380 H 539.518 2.27838 1.9099 0
M  V30 5381 H 537.051 1.25605 0.897927 0
M  V30 5382 H 539.009 0.916461 4.00139 0
M  V30 5383 H 537.67 0.129223 3.13834 0
M  V30 5384 H 536.863 1.98193 4.63396 0
M  V30 5385 H 536.465 2.32 2.93346 0
M  V30 5386 H 538.757 3.16547 5.99003 0
M  V30 5387 H 539.7 4.57335 5.40602 0
M  V30 5388 H 540.108 2.93203 4.82382 0
M  V30 5389 N 539.506 -0.963266 1.24736 0
M  V30 5390 C 540.453 -2.05857 1.04363 0
M  V30 5391 C 541.423 -1.6604 -0.0444951 0
M  V30 5392 O 542.608 -1.90477 0.110999 0
M  V30 5393 C 539.748 -3.38745 0.659235 0
M  V30 5394 C 538.861 -3.9173 1.82131 0
M  V30 5395 C 537.996 -5.12906 1.38208 0
M  V30 5396 C 537.035 -5.58098 2.51382 0
M  V30 5397 N 536.172 -6.7049 2.08295 0
M  V30 5398 H 541.012 -2.22616 1.98107 0
M  V30 5399 H 538.549 -1.09103 0.986661 0
M  V30 5400 H 540.507 -4.15107 0.417371 0
M  V30 5401 H 539.137 -3.21898 -0.241201 0
M  V30 5402 H 538.189 -3.11966 2.17672 0
M  V30 5403 H 539.501 -4.21225 2.67153 0
M  V30 5404 H 538.655 -5.96657 1.09935 0
M  V30 5405 H 537.394 -4.85105 0.502456 0
M  V30 5406 H 536.399 -4.72917 2.80409 0
M  V30 5407 H 537.624 -5.87911 3.39909 0
M  V30 5408 H 535.57 -6.44416 1.22737 0
M  V30 5409 H 535.487 -6.99458 2.86869 0
M  V30 5410 H 536.755 -7.57672 1.83175 0
M  V30 5411 N 540.985 -1.06182 -1.16461 0
M  V30 5412 C 541.932 -0.671613 -2.20812 0
M  V30 5413 C 542.902 0.331186 -1.62765 0
M  V30 5414 O 544.087 0.22033 -1.89524 0
M  V30 5415 C 541.227 -0.063029 -3.45042 0
M  V30 5416 C 540.34 -1.11587 -4.1734 0
M  V30 5417 C 539.475 -0.473546 -5.29085 0
M  V30 5418 C 538.514 -1.51 -5.93182 0
M  V30 5419 N 537.651 -0.891118 -6.96422 0
M  V30 5420 H 542.491 -1.56589 -2.53542 0
M  V30 5421 H 540.028 -0.782951 -1.24532 0
M  V30 5422 H 541.986 0.307344 -4.16066 0
M  V30 5423 H 540.616 0.794663 -3.12866 0
M  V30 5424 H 539.668 -1.60396 -3.44931 0
M  V30 5425 H 540.98 -1.90221 -4.61104 0
M  V30 5426 H 540.134 -0.0501432 -6.06679 0
M  V30 5427 H 538.873 0.344687 -4.8648 0
M  V30 5428 H 537.878 -1.94331 -5.14311 0
M  V30 5429 H 539.103 -2.33031 -6.37866 0
M  V30 5430 H 537.049 -0.0935753 -6.55933 0
M  V30 5431 H 536.966 -1.61486 -7.38551 0
M  V30 5432 H 538.234 -0.492822 -7.77941 0
M  V30 5433 N 542.463 1.3308 -0.844243 0
M  V30 5434 C 543.688 2.02341 -0.455282 0
M  V30 5435 C 544.113 1.6308 0.93737 0
M  V30 5436 O 543.471 0.826118 1.61385 0
M  V30 5437 C 543.519 3.55743 -0.58988 0
M  V30 5438 O 542.623 4.1063 0.38166 0
M  V30 5439 H 541.964 0.637898 -0.184343 0
M  V30 5440 H 544.494 1.6986 -1.14056 0
M  V30 5441 H 544.504 4.05243 -0.473522 0
M  V30 5442 H 543.179 3.83662 -1.60549 0
M  V30 5443 H 541.756 3.72236 0.22241 0
M  V30 5444 N 543.941 0.601185 1.45683 0
M  V30 5445 C 544.871 -0.108824 2.33246 0
M  V30 5446 C 545.852 -0.865223 1.46451 0
M  V30 5447 O 547.037 -0.83704 1.75235 0
M  V30 5448 C 544.167 -1.11101 3.2905 0
M  V30 5449 C 543.121 -0.468244 4.25431 0
M  V30 5450 C 542.447 -1.57822 5.10878 0
M  V30 5451 C 543.747 0.606469 5.18767 0
M  V30 5452 H 545.441 0.622306 2.92861 0
M  V30 5453 H 542.987 0.300714 1.40825 0
M  V30 5454 H 544.94 -1.61622 3.89174 0
M  V30 5455 H 543.664 -1.87265 2.67581 0
M  V30 5456 H 542.323 0.0160484 3.66596 0
M  V30 5457 H 541.971 -2.32998 4.45781 0
M  V30 5458 H 541.671 -1.15369 5.76163 0
M  V30 5459 H 543.195 -2.08583 5.73869 0
M  V30 5460 H 544.609 0.185589 5.73 0
M  V30 5461 H 543.006 0.952381 5.92494 0
M  V30 5462 H 544.076 1.48559 4.61582 0
M  V30 5463 N 545.419 -1.53889 0.339982 0
M  V30 5464 C 546.329 -2.28604 -0.526988 0
M  V30 5465 C 547.345 -1.33578 -1.11503 0
M  V30 5466 O 548.521 -1.66612 -1.13148 0
M  V30 5467 C 545.586 -3.04164 -1.66389 0
M  V30 5468 C 544.647 -4.14809 -1.10599 0
M  V30 5469 C 543.88 -4.86756 -2.18871 0
M  V30 5470 O 544.103 -4.58343 -3.39526 0
M  V30 5471 O 543.037 -5.73289 -1.83366 0
M  V30 5472 H 546.863 -3.03594 0.0802707 0
M  V30 5473 H 544.448 -1.4903 0.105141 0
M  V30 5474 H 546.33 -3.51427 -2.32544 0
M  V30 5475 H 545.005 -2.32035 -2.25703 0
M  V30 5476 H 543.912 -3.71857 -0.409067 0
M  V30 5477 H 545.245 -4.89029 -0.557771 0
M  V30 5478 N 546.897 -0.0685191 -1.57451 0
M  V30 5479 C 548.174 0.642167 -1.84758 0
M  V30 5480 C 548.554 1.87991 -0.960344 0
M  V30 5481 O 547.902 2.28485 -0.0257894 0
M  V30 5482 C 548.112 0.982946 -3.34872 0
M  V30 5483 C 549.46 1.35784 -4.02303 0
M  V30 5484 O 550.484 1.07477 -3.39598 0
M  V30 5485 O 549.343 1.88681 -5.12895 0
M  V30 5486 H 546.437 0.318625 -0.763156 0
M  V30 5487 H 548.983 -0.0992015 -1.6941 0
M  V30 5488 H 547.755 0.10372 -3.91163 0
M  V30 5489 H 547.378 1.78119 -3.55471 0
M  V30 5490 N 548.375 1.56261 0.205012 0
M  V30 5491 C 549.6 1.84491 0.947512 0
M  V30 5492 C 550.025 0.650894 1.76479 0
M  V30 5493 O 549.383 -0.40035 1.76824 0
M  V30 5494 C 549.431 3.10863 1.82747 0
M  V30 5495 O 548.535 2.90719 2.925 0
M  V30 5496 H 547.876 0.607783 0.267386 0
M  V30 5497 H 550.406 2.03485 0.213323 0
M  V30 5498 H 550.416 3.41399 2.23407 0
M  V30 5499 H 549.091 3.97392 1.2269 0
M  V30 5500 H 547.668 2.71457 2.55667 0
M  V30 5501 N 549.853 -0.472356 1.50355 0
M  V30 5502 C 550.783 -1.57859 1.72055 0
M  V30 5503 C 551.764 -1.60283 0.569505 0
M  V30 5504 O 552.949 -1.7657 0.808503 0
M  V30 5505 C 550.079 -2.96191 1.81351 0
M  V30 5506 C 549.033 -3.08633 2.96529 0
M  V30 5507 C 548.359 -4.486 2.90968 0
M  V30 5508 C 549.659 -2.85969 4.37057 0
M  V30 5509 H 551.353 -1.39953 2.64676 0
M  V30 5510 H 548.899 -0.671846 1.27367 0
M  V30 5511 H 550.852 -3.73507 1.95117 0
M  V30 5512 H 549.576 -3.15251 0.853502 0
M  V30 5513 H 548.235 -2.33749 2.82413 0
M  V30 5514 H 547.883 -4.64577 1.92815 0
M  V30 5515 H 547.583 -4.57861 3.68289 0
M  V30 5516 H 549.107 -5.27938 3.0678 0
M  V30 5517 H 550.521 -3.53036 4.51706 0
M  V30 5518 H 548.918 -3.06677 5.15819 0
M  V30 5519 H 549.988 -1.81838 4.49514 0
M  V30 5520 N 551.331 -1.39911 -0.725443 0
M  V30 5521 C 552.294 -1.39156 -1.82121 0
M  V30 5522 C 553.294 -0.287018 -1.58218 0
M  V30 5523 O 554.484 -0.545421 -1.65441 0
M  V30 5524 C 551.616 -1.1736 -3.20062 0
M  V30 5525 H 552.809 -2.36672 -1.84191 0
M  V30 5526 H 550.362 -1.25615 -0.930079 0
M  V30 5527 H 551.097 -0.205648 -3.23647 0
M  V30 5528 H 550.882 -1.97358 -3.3881 0
M  V30 5529 H 552.372 -1.19596 -4.00108 0
M  V30 5530 N 552.809 0.956637 -1.25245 0
M  V30 5531 C 553.719 2.0868 -1.0719 0
M  V30 5532 C 554.735 1.73997 -0.00959074 0
M  V30 5533 O 555.911 2.00301 -0.210104 0
M  V30 5534 C 552.976 3.39754 -0.690526 0
M  V30 5535 C 552.037 3.88316 -1.83055 0
M  V30 5536 C 551.27 5.13134 -1.46728 0
M  V30 5537 O 551.493 5.6925 -0.362029 0
M  V30 5538 O 550.427 5.56356 -2.29677 0
M  V30 5539 H 554.253 2.26813 -2.01965 0
M  V30 5540 H 551.838 1.07098 -1.04165 0
M  V30 5541 H 553.72 4.18543 -0.489871 0
M  V30 5542 H 552.395 3.22896 0.227981 0
M  V30 5543 H 551.302 3.1054 -2.08604 0
M  V30 5544 H 552.635 4.09669 -2.72822 0
M  V30 5545 N 554.287 1.06798 1.15896 0
M  V30 5546 C 555.25 0.687328 2.18651 0
M  V30 5547 C 556.25 -0.269559 1.58524 0
M  V30 5548 O 557.44 -0.0512627 1.74125 0
M  V30 5549 C 554.572 0.0121642 3.40898 0
M  V30 5550 H 555.765 1.59701 2.53842 0
M  V30 5551 H 553.318 0.863828 1.3026 0
M  V30 5552 H 554.053 -0.910025 3.1127 0
M  V30 5553 H 553.838 0.700309 3.85795 0
M  V30 5554 H 555.328 -0.239703 4.16911 0
M  V30 5555 N 555.766 -1.3263 0.851289 0
M  V30 5556 C 556.676 -2.32722 0.296268 0
M  V30 5557 C 557.692 -1.63901 -0.584162 0
M  V30 5558 O 558.868 -1.95465 -0.485334 0
M  V30 5559 C 555.933 -3.42942 -0.509103 0
M  V30 5560 C 554.994 -4.2746 0.397069 0
M  V30 5561 C 554.227 -5.32416 -0.36996 0
M  V30 5562 O 554.45 -5.47491 -1.6003 0
M  V30 5563 O 553.384 -6.01327 0.262493 0
M  V30 5564 H 557.21 -2.82078 1.12543 0
M  V30 5565 H 554.795 -1.36194 0.614135 0
M  V30 5566 H 556.677 -4.1017 -0.96634 0
M  V30 5567 H 555.352 -2.95781 -1.31512 0
M  V30 5568 H 554.259 -3.63053 0.902411 0
M  V30 5569 H 555.592 -4.78136 1.16818 0
M  V30 5570 N 557.244 -0.608902 -1.45362 0
M  V30 5571 C 558.492 -0.104401 -2.0183 0
M  V30 5572 C 558.813 1.27007 -1.47967 0
M  V30 5573 O 558.083 1.83924 -0.674455 0
M  V30 5574 H 556.663 -0.0356042 -0.746151 0
M  V30 5575 H 559.325 -0.790596 -1.78145 0
M  V30 5576 H 558.421 -0.0551793 -3.12051 0
M  V30 5577 N 558.722 1.53707 -0.348139 0
M  V30 5578 C 559.999 1.93247 0.302475 0
M  V30 5579 C 560.379 1.28012 1.67857 0
M  V30 5580 O 559.727 0.43274 2.24365 0
M  V30 5581 C 559.937 3.47031 0.370159 0
M  V30 5582 C 561.285 4.20066 0.61882 0
M  V30 5583 O 562.309 3.53319 0.452087 0
M  V30 5584 O 561.168 5.38318 0.94215 0
M  V30 5585 H 558.262 0.807736 0.177458 0
M  V30 5586 H 560.808 1.64927 -0.399651 0
M  V30 5587 H 559.58 3.86745 -0.59534 0
M  V30 5588 H 559.203 3.81532 1.11888 0
M  V30 5589 N 560.2 0.0768682 1.57412 0
M  V30 5590 C 561.43 -0.5991 1.97723 0
M  V30 5591 C 561.838 -1.63378 0.954166 0
M  V30 5592 O 561.181 -1.83578 -0.0668706 0
M  V30 5593 C 561.243 -1.32078 3.34358 0
M  V30 5594 C 560.907 -0.438985 4.54887 0
M  V30 5595 C 561.904 0.305492 5.19002 0
M  V30 5596 C 559.589 -0.362378 5.00991 0
M  V30 5597 C 561.583 1.11475 6.27576 0
M  V30 5598 C 559.27 0.450543 6.09437 0
M  V30 5599 C 560.268 1.18777 6.72593 0
M  V30 5600 O 559.956 1.98727 7.7895 0
M  V30 5601 H 559.688 -0.166725 0.655117 0
M  V30 5602 H 562.242 0.147337 2.04871 0
M  V30 5603 H 560.472 -2.1134 3.2384 0
M  V30 5604 H 562.161 -1.88949 3.5924 0
M  V30 5605 H 562.927 0.25593 4.84324 0
M  V30 5606 H 558.806 -0.925832 4.51608 0
M  V30 5607 H 562.35 1.69068 6.76803 0
M  V30 5608 H 558.247 0.501651 6.43548 0
M  V30 5609 H 559.015 1.91214 7.95851 0
M  V30 5610 N 561.678 -1.56367 -0.196722 0
M  V30 5611 C 562.918 -1.82315 -0.92415 0
M  V30 5612 C 563.282 -0.654117 -1.80514 0
M  V30 5613 O 564.483 -0.79345 -2.56823 0
M  V30 5614 C 562.754 -3.13279 -1.72021 0
M  V30 5615 S 564.313 -3.60627 -2.49988 0
M  V30 5616 H 561.131 -0.639862 -0.309997 0
M  V30 5617 H 563.733 -1.94597 -0.187684 0
M  V30 5618 H 562.437 -3.96379 -1.06358 0
M  V30 5619 H 561.968 -3.03871 -2.49852 0
M  V30 5620 H 563.983 -3.25934 -3.74141 0
M  V30 5621 N 563.156 0.464375 -1.50603 0
M  V30 5622 C 564.119 1.54393 -1.69397 0
M  V30 5623 C 565.119 1.50566 -0.564504 0
M  V30 5624 O 566.309 1.53066 -0.831645 0
M  V30 5625 C 563.441 2.9401 -1.72543 0
M  V30 5626 H 564.634 1.39044 -2.65719 0
M  V30 5627 H 562.187 0.69122 -1.40185 0
M  V30 5628 H 562.922 3.14795 -0.77938 0
M  V30 5629 H 562.707 2.98195 -2.54602 0
M  V30 5630 H 564.197 3.72375 -1.89015 0
M  V30 5631 N 564.634 1.40294 0.718013 0
M  V30 5632 C 565.566 1.36281 1.84283 0
M  V30 5633 C 566.579 0.268621 1.60569 0
M  V30 5634 O 567.768 0.528798 1.70487 0
M  V30 5635 C 564.868 1.09741 3.2064 0
M  V30 5636 C 564.041 2.30767 3.71571 0
M  V30 5637 C 563.1 2.00424 4.86535 0
M  V30 5638 O 562.126 2.73268 4.99313 0
M  V30 5639 N 563.328 0.980724 5.72156 0
M  V30 5640 H 566.093 2.3322 1.88225 0
M  V30 5641 H 563.654 1.34616 0.899453 0
M  V30 5642 H 565.646 0.874322 3.95143 0
M  V30 5643 H 564.216 0.214771 3.11861 0
M  V30 5644 H 563.436 2.68921 2.88228 0
M  V30 5645 H 564.724 3.11455 4.02335 0
M  V30 5646 H 564.122 0.377375 5.6444 0
M  V30 5647 H 562.679 0.817538 6.46653 0
M  V30 5648 N 566.112 -0.949982 1.2575 0
M  V30 5649 C 567.042 -2.06483 1.09028 0
M  V30 5650 C 568.023 -1.701 -0.00201532 0
M  V30 5651 O 569.208 -1.93469 0.168383 0
M  V30 5652 C 566.338 -3.39899 0.71316 0
M  V30 5653 C 565.292 -3.90309 1.75621 0
M  V30 5654 C 564.618 -5.20274 1.23365 0
M  V30 5655 C 565.918 -4.16169 3.15596 0
M  V30 5656 H 567.612 -2.20731 2.02283 0
M  V30 5657 H 565.158 -1.06066 0.973964 0
M  V30 5658 H 567.111 -4.17346 0.58309 0
M  V30 5659 H 565.835 -3.25602 -0.255091 0
M  V30 5660 H 564.494 -3.15035 1.8748 0
M  V30 5661 H 564.142 -5.02351 0.255491 0
M  V30 5662 H 563.842 -5.54971 1.93082 0
M  V30 5663 H 565.366 -6.00314 1.11607 0
M  V30 5664 H 566.78 -4.84259 3.06864 0
M  V30 5665 H 565.177 -4.62131 3.82825 0
M  V30 5666 H 566.247 -3.22273 3.6231 0
M  V30 5667 N 567.59 -1.07411 -1.15328 0
M  V30 5668 C 568.815 -0.818856 -1.90551 0
M  V30 5669 C 569.24 0.622194 -1.77512 0
M  V30 5670 O 568.598 1.43484 -1.10824 0
M  V30 5671 C 568.646 -1.23267 -3.38877 0
M  V30 5672 O 567.75 -0.378345 -4.10661 0
M  V30 5673 H 567.091 -0.29827 -0.593238 0
M  V30 5674 H 569.621 -1.43289 -1.46046 0
M  V30 5675 H 569.631 -1.20912 -3.89672 0
M  V30 5676 H 568.306 -2.28226 -3.47686 0
M  V30 5677 H 566.883 -0.464437 -3.69996 0
M  V30 5678 N 569.068 1.32177 -0.85831 0
M  V30 5679 C 570 2.27688 -0.262835 0
M  V30 5680 C 571.013 1.52588 0.567513 0
M  V30 5681 O 572.202 1.74156 0.391407 0
M  V30 5682 C 569.302 3.32668 0.646937 0
M  V30 5683 C 568.475 4.37148 -0.148372 0
M  V30 5684 C 567.534 5.21686 0.687728 0
M  V30 5685 O 566.56 5.69074 0.119934 0
M  V30 5686 N 567.762 5.44892 2.00182 0
M  V30 5687 H 570.527 2.79426 -1.08356 0
M  V30 5688 H 568.088 1.45076 -0.718647 0
M  V30 5689 H 570.08 3.86134 1.2117 0
M  V30 5690 H 568.65 2.81061 1.36834 0
M  V30 5691 H 567.87 3.83915 -0.894572 0
M  V30 5692 H 569.158 5.04038 -0.694514 0
M  V30 5693 H 568.556 5.08128 2.4864 0
M  V30 5694 H 567.113 6.0134 2.51463 0
M  V30 5695 N 570.547 0.616602 1.45037 0
M  V30 5696 C 571.793 0.115501 2.02471 0
M  V30 5697 C 572.126 -1.25406 1.4828 0
M  V30 5698 O 571.401 -1.82922 0.661051 0
M  V30 5699 C 571.684 0.0863588 3.59996 0
M  V30 5700 C 571.537 1.48723 4.24501 0
M  V30 5701 C 572.856 -0.596762 4.36035 0
M  V30 5702 H 569.975 0.0434461 0.735718 0
M  V30 5703 H 572.617 0.7903 1.72784 0
M  V30 5704 H 570.767 -0.488277 3.85419 0
M  V30 5705 H 572.439 2.10964 4.10234 0
M  V30 5706 H 570.682 2.04534 3.82555 0
M  V30 5707 H 571.353 1.419 5.3345 0
M  V30 5708 H 573.829 -0.10824 4.15959 0
M  V30 5709 H 572.705 -0.586289 5.4576 0
M  V30 5710 H 572.966 -1.66451 4.09569 0
M  V30 5711 N 572.025 -1.5352 0.356285 0
M  V30 5712 C 572.957 -2.23009 -0.529127 0
M  V30 5713 C 573.97 -1.241 -1.05371 0
M  V30 5714 O 575.159 -1.50379 -0.961679 0
M  V30 5715 C 572.259 -2.90685 -1.74229 0
M  V30 5716 C 571.432 -4.16019 -1.35081 0
M  V30 5717 C 570.491 -4.66989 -2.42502 0
M  V30 5718 O 569.517 -5.30895 -2.05279 0
M  V30 5719 N 570.719 -4.44006 -3.7395 0
M  V30 5720 H 573.484 -2.99627 0.0660501 0
M  V30 5721 H 571.045 -1.60885 0.181014 0
M  V30 5722 H 573.037 -3.21695 -2.4555 0
M  V30 5723 H 571.607 -2.17575 -2.24454 0
M  V30 5724 H 570.827 -3.91414 -0.467833 0
M  V30 5725 H 572.115 -4.9752 -1.06542 0
M  V30 5726 H 571.513 -3.92924 -4.06973 0
M  V30 5727 H 570.07 -4.7959 -4.41403 0
M  V30 5728 N 573.503 -0.0852151 -1.57369 0
M  V30 5729 C 574.435 0.907099 -2.10486 0
M  V30 5730 C 575.448 1.25259 -1.03991 0
M  V30 5731 O 576.637 1.20743 -1.31467 0
M  V30 5732 C 573.737 2.21908 -2.56145 0
M  V30 5733 C 572.91 2.05042 -3.86363 0
M  V30 5734 C 571.969 3.19664 -4.17973 0
M  V30 5735 O 570.995 2.94062 -4.87356 0
M  V30 5736 N 572.197 4.45151 -3.72587 0
M  V30 5737 H 574.962 0.453505 -2.96249 0
M  V30 5738 H 572.523 0.100157 -1.6159 0
M  V30 5739 H 574.515 2.97519 -2.74343 0
M  V30 5740 H 573.085 2.58723 -1.75446 0
M  V30 5741 H 572.305 1.13819 -3.77411 0
M  V30 5742 H 573.593 1.91039 -4.71574 0
M  V30 5743 H 572.991 4.68834 -3.16561 0
M  V30 5744 H 571.548 5.17744 -3.9596 0
M  V30 5745 N 574.981 1.5647 0.188427 0
M  V30 5746 C 575.911 1.98101 1.23606 0
M  V30 5747 C 576.892 0.853961 1.47111 0
M  V30 5748 O 578.077 1.11879 1.58735 0
M  V30 5749 C 575.207 2.32624 2.57882 0
M  V30 5750 C 574.161 3.48129 2.48978 0
M  V30 5751 C 573.487 3.68347 3.87588 0
M  V30 5752 C 574.787 4.82112 2.00911 0
M  V30 5753 H 576.481 2.85864 0.890068 0
M  V30 5754 H 574.027 1.37532 0.426714 0
M  V30 5755 H 575.98 2.60343 3.3136 0
M  V30 5756 H 574.704 1.41751 2.94235 0
M  V30 5757 H 573.363 3.20511 1.77956 0
M  V30 5758 H 573.011 2.74793 4.21305 0
M  V30 5759 H 572.711 4.46055 3.82503 0
M  V30 5760 H 574.235 3.98449 4.62678 0
M  V30 5761 H 575.649 5.08819 2.64151 0
M  V30 5762 H 574.046 5.63337 2.06814 0
M  V30 5763 H 575.116 4.75249 0.96262 0
M  V30 5764 N 576.459 -0.456382 1.50847 0
M  V30 5765 C 577.708 -1.2042 1.61808 0
M  V30 5766 C 578.021 -1.9278 0.330932 0
M  V30 5767 O 579.227 -2.69612 0.319643 0
M  V30 5768 C 577.683 -2.18891 2.85683 0
M  V30 5769 C 577.291 -1.52267 4.2133 0
M  V30 5770 C 579.035 -2.94224 3.05994 0
M  V30 5771 C 576.942 -2.4911 5.36375 0
M  V30 5772 H 575.872 -0.453177 0.602616 0
M  V30 5773 H 578.523 -0.473144 1.77295 0
M  V30 5774 H 576.905 -2.95351 2.63787 0
M  V30 5775 H 578.079 -0.814949 4.53536 0
M  V30 5776 H 576.394 -0.891594 4.06743 0
M  V30 5777 H 578.991 -3.66732 3.89117 0
M  V30 5778 H 579.334 -3.54469 2.18306 0
M  V30 5779 H 579.867 -2.24874 3.28141 0
M  V30 5780 H 576.606 -1.93582 6.26264 0
M  V30 5781 H 576.126 -3.17991 5.08569 0
M  V30 5782 H 577.805 -3.10637 5.67551 0
M  V30 5783 N 577.937 -1.40673 -0.710563 0
M  V30 5784 C 579.162 -1.42741 -1.50465 0
M  V30 5785 C 579.587 -0.0302116 -1.88076 0
M  V30 5786 O 578.945 0.962945 -1.53613 0
M  V30 5787 C 578.993 -2.32873 -2.75322 0
M  V30 5788 O 578.097 -1.77544 -3.72226 0
M  V30 5789 H 577.438 -0.485056 -0.45345 0
M  V30 5790 H 579.968 -1.84961 -0.874681 0
M  V30 5791 H 579.978 -2.48233 -3.23797 0
M  V30 5792 H 578.653 -3.34401 -2.47283 0
M  V30 5793 H 577.23 -1.71556 -3.31093 0
M  V30 5794 N 579.415 0.9433 -1.26252 0
M  V30 5795 C 580.363 2.06302 -1.07434 0
M  V30 5796 C 581.357 1.694 -0.00189471 0
M  V30 5797 O 582.563 1.79302 -0.158408 0
M  V30 5798 H 578.938 0.675453 -0.330556 0
M  V30 5799 H 580.909 2.19326 -2.02333 0
M  V30 5800 C 579.658 3.40125 -0.721817 0
M  V30 5801 H 578.981 3.68996 -1.5389 0
M  V30 5802 H 580.421 4.19295 -0.629922 0
M  V30 5803 C 578.88 3.31993 0.572902 0
M  V30 5804 O 579.41 3.67945 1.61182 0
M  V30 5805 N 577.616 2.85099 0.562748 0
M  V30 5806 H 577.163 2.5604 -0.283092 0
M  V30 5807 H 577.121 2.80041 1.42915 0
M  V30 5808 N 580.893 1.08022 1.14757 0
M  V30 5809 C 581.823 0.728248 2.21853 0
M  V30 5810 C 582.804 -0.287486 1.67653 0
M  V30 5811 O 583.989 -0.158727 1.9355 0
M  V30 5812 C 581.119 0.132549 3.47047 0
M  V30 5813 C 580.073 1.07619 4.14249 0
M  V30 5814 C 579.399 0.342907 5.33599 0
M  V30 5815 C 580.699 2.41268 4.63235 0
M  V30 5816 H 582.393 1.62365 2.51551 0
M  V30 5817 H 579.939 0.782125 1.20908 0
M  V30 5818 H 581.892 -0.125665 4.21213 0
M  V30 5819 H 580.616 -0.797971 3.16702 0
M  V30 5820 H 579.275 1.31944 3.42033 0
M  V30 5821 H 578.923 -0.59129 4.99513 0
M  V30 5822 H 578.623 0.971955 5.79506 0
M  V30 5823 H 580.147 0.0926538 6.1053 0
M  V30 5824 H 581.561 2.21232 5.28894 0
M  V30 5825 H 579.958 2.9983 5.19829 0
M  V30 5826 H 581.028 3.03079 3.78512 0
M  V30 5827 N 582.371 -1.3172 0.865308 0
M  V30 5828 C 583.281 -2.32394 0.320935 0
M  V30 5829 C 584.297 -1.64511 -0.566746 0
M  V30 5830 O 585.473 -1.95969 -0.464575 0
M  V30 5831 C 582.538 -3.43462 -0.472701 0
M  V30 5832 C 581.599 -4.27015 0.442385 0
M  V30 5833 C 580.832 -5.32779 -0.313469 0
M  V30 5834 O 581.055 -5.49158 -1.54214 0
M  V30 5835 O 579.989 -6.01015 0.326257 0
M  V30 5836 H 583.815 -2.80868 1.15528 0
M  V30 5837 H 581.4 -1.35535 0.628545 0
M  V30 5838 H 583.282 -4.11172 -0.922781 0
M  V30 5839 H 581.957 -2.97159 -1.28367 0
M  V30 5840 H 580.864 -3.62075 0.940866 0
M  V30 5841 H 582.197 -4.76871 1.21882 0
M  V30 5842 N 583.85 -0.624285 -1.44708 0
M  V30 5843 C 584.812 0.0749638 -2.29077 0
M  V30 5844 C 585.812 0.778965 -1.40673 0
M  V30 5845 O 587.003 0.624591 -1.62618 0
M  V30 5846 C 584.135 1.11663 -3.22094 0
M  V30 5847 H 585.327 -0.667013 -2.92388 0
M  V30 5848 H 582.88 -0.384098 -1.51507 0
M  V30 5849 H 583.615 1.88881 -2.63618 0
M  V30 5850 H 583.401 0.61583 -3.87234 0
M  V30 5851 H 584.891 1.60585 -3.8549 0
M  V30 5852 N 585.328 1.53329 -0.364422 0
M  V30 5853 C 586.26 2.23286 0.517293 0
M  V30 5854 C 587.273 1.24657 1.04711 0
M  V30 5855 O 588.462 1.50887 0.95369 0
M  V30 5856 C 585.562 2.91604 1.72685 0
M  V30 5857 C 584.735 4.1673 1.32873 0
M  V30 5858 C 583.794 4.68269 2.40022 0
M  V30 5859 O 582.82 5.31976 2.02461 0
M  V30 5860 N 584.022 4.45983 3.7159 0
M  V30 5861 H 586.787 2.99588 -0.0819391 0
M  V30 5862 H 584.348 1.60787 -0.189544 0
M  V30 5863 H 586.34 3.22992 2.4384 0
M  V30 5864 H 584.91 2.18763 2.23297 0
M  V30 5865 H 584.13 3.91657 0.447069 0
M  V30 5866 H 585.418 4.98078 1.03902 0
M  V30 5867 H 584.816 3.95077 4.04883 0
M  V30 5868 H 583.373 4.81924 4.38854 0
M  V30 5869 N 586.806 0.0935595 1.57322 0
M  V30 5870 C 587.736 -0.863062 2.16964 0
M  V30 5871 C 588.717 -1.29528 1.10256 0
M  V30 5872 O 589.902 -1.36245 1.38387 0
M  V30 5873 C 587.032 -2.12276 2.74875 0
M  V30 5874 C 585.986 -1.82921 3.86942 0
M  V30 5875 C 585.312 -3.15707 4.31548 0
M  V30 5876 C 586.612 -1.11737 5.10208 0
M  V30 5877 H 588.306 -0.366145 2.97153 0
M  V30 5878 H 585.852 -0.174673 1.42937 0
M  V30 5879 H 587.805 -2.79634 3.1525 0
M  V30 5880 H 586.529 -2.64248 1.91938 0
M  V30 5881 H 585.188 -1.17961 3.47103 0
M  V30 5882 H 584.836 -3.65563 3.45504 0
M  V30 5883 H 584.536 -2.96849 5.07104 0
M  V30 5884 H 586.06 -3.84226 4.74555 0
M  V30 5885 H 587.474 -1.69203 5.47762 0
M  V30 5886 H 585.871 -1.03064 5.91183 0
M  V30 5887 H 586.941 -0.0998818 4.84797 0
M  V30 5888 N 588.284 -1.56567 -0.180126 0
M  V30 5889 C 589.214 -1.98753 -1.22553 0
M  V30 5890 C 590.195 -0.86175 -1.46656 0
M  V30 5891 O 591.38 -1.12719 -1.58139 0
M  V30 5892 C 588.51 -2.33988 -2.56645 0
M  V30 5893 C 587.464 -3.49445 -2.47128 0
M  V30 5894 C 586.79 -3.70397 -3.8563 0
M  V30 5895 C 588.09 -4.83171 -1.98352 0
M  V30 5896 H 589.784 -2.86332 -0.874896 0
M  V30 5897 H 587.33 -1.37757 -0.419414 0
M  V30 5898 H 589.283 -2.62097 -3.29974 0
M  V30 5899 H 588.007 -1.43309 -2.93479 0
M  V30 5900 H 586.666 -3.2145 -1.76254 0
M  V30 5901 H 586.314 -2.77023 -4.19842 0
M  V30 5902 H 586.014 -4.48077 -3.80132 0
M  V30 5903 H 587.538 -4.00897 -4.60558 0
M  V30 5904 H 588.952 -5.10213 -2.61449 0
M  V30 5905 H 587.349 -5.64425 -2.03823 0
M  V30 5906 H 588.419 -4.75753 -0.937402 0
M  V30 5907 N 589.762 0.448376 -1.51087 0
M  V30 5908 C 590.694 1.56146 -1.67783 0
M  V30 5909 C 591.707 1.52913 -0.55871 0
M  V30 5910 O 592.896 1.57889 -0.83267 0
M  V30 5911 C 589.996 2.95057 -1.66716 0
M  V30 5912 C 589.169 3.22915 -2.95033 0
M  V30 5913 C 588.228 4.41495 -2.86302 0
M  V30 5914 O 587.254 4.40688 -3.60254 0
M  V30 5915 N 588.456 5.44443 -2.014 0
M  V30 5916 H 591.221 1.42232 -2.638 0
M  V30 5917 H 588.782 0.637153 -1.48835 0
M  V30 5918 H 590.774 3.72388 -1.58458 0
M  V30 5919 H 589.344 3.02624 -0.783403 0
M  V30 5920 H 588.564 2.33985 -3.17245 0
M  V30 5921 H 589.852 3.38349 -3.79996 0
M  V30 5922 H 589.25 5.4793 -1.40674 0
M  V30 5923 H 587.807 6.2067 -1.99029 0
M  V30 5924 N 591.24 1.41047 0.703093 0
M  V30 5925 C 592.486 1.40207 1.46526 0
M  V30 5926 C 592.819 0.00847763 1.94198 0
M  V30 5927 O 592.094 -0.962437 1.69019 0
M  V30 5928 C 592.377 2.40238 2.6825 0
M  V30 5929 C 592.23 3.88674 2.26391 0
M  V30 5930 C 593.549 2.37627 3.70434 0
M  V30 5931 H 590.668 0.510594 0.531472 0
M  V30 5932 H 593.31 1.72271 0.801422 0
M  V30 5933 H 591.46 2.13026 3.24888 0
M  V30 5934 H 593.132 4.2676 1.75138 0
M  V30 5935 H 591.375 4.03903 1.58255 0
M  V30 5936 H 592.046 4.542 3.13698 0
M  V30 5937 H 594.522 2.61759 3.23452 0
M  V30 5938 H 593.398 3.09645 4.53223 0
M  V30 5939 H 593.659 1.39223 4.19606 0
M  V30 5940 N 592.718 -0.936591 1.26751 0
M  V30 5941 C 594.134 -1.21095 1.03963 0
M  V30 5942 C 594.334 -2.00156 -0.232372 0
M  V30 5943 O 593.39 -2.3434 -0.940274 0
M  V30 5944 C 594.703 -1.96775 2.27377 0
M  V30 5945 C 596.251 -2.09749 2.32324 0
M  V30 5946 C 596.726 -2.88832 3.55443 0
M  V30 5947 N 598.217 -2.96404 3.55948 0
M  V30 5948 C 598.952 -3.58036 4.47881 0
M  V30 5949 N 598.448 -4.21132 5.50109 0
M  V30 5950 N 600.241 -3.55353 4.35523 0
M  V30 5951 H 592.392 -0.408173 2.08441 0
M  V30 5952 H 594.655 -0.243139 0.91629 0
M  V30 5953 H 594.361 -1.46094 3.19921 0
M  V30 5954 H 594.235 -2.97424 2.31989 0
M  V30 5955 H 596.622 -2.5962 1.40291 0
M  V30 5956 H 596.703 -1.08347 2.31721 0
M  V30 5957 H 596.347 -2.39647 4.47808 0
M  V30 5958 H 596.277 -3.90499 3.53296 0
M  V30 5959 H 598.768 -2.51552 2.82011 0
M  V30 5960 H 599.081 -4.66071 6.16439 0
M  V30 5961 H 597.426 -4.19705 5.53961 0
M  V30 5962 H 600.617 -3.05256 3.54875 0
M  V30 5963 H 600.79 -4.03097 5.07363 0
M  V30 5964 N 594.196 -1.08629 -1.14182 0
M  V30 5965 C 595.159 -0.722027 -2.1753 0
M  V30 5966 C 596.159 0.244305 -1.58933 0
M  V30 5967 O 597.349 0.0235545 -1.74184 0
M  V30 5968 C 594.481 -0.0663966 -3.40835 0
M  V30 5969 H 595.674 -1.63719 -2.51269 0
M  V30 5970 H 593.227 -0.884442 -1.28869 0
M  V30 5971 H 593.962 0.860389 -3.12678 0
M  V30 5972 H 593.747 -0.761598 -3.84632 0
M  V30 5973 H 595.237 0.173346 -4.1724 0
M  V30 5974 N 595.674 1.31259 -0.872281 0
M  V30 5975 C 596.951 1.91362 -0.404943 0
M  V30 5976 C 597.331 1.79362 1.11321 0
M  V30 5977 O 596.679 1.20277 1.94283 0
M  V30 5978 C 596.889 3.3749 -0.888893 0
M  V30 5979 C 598.237 4.14593 -0.916384 0
M  V30 5980 O 599.261 3.46282 -0.834701 0
M  V30 5981 O 598.12 5.3661 -1.03498 0
M  V30 5982 H 595.214 0.818016 -0.121569 0
M  V30 5983 H 597.76 1.39912 -0.960346 0
M  V30 5984 H 596.532 3.40249 -1.93251 0
M  V30 5985 H 596.155 3.96375 -0.311932 0
M  V30 5986 N 597.152 0.631951 1.44375 0
M  V30 5987 C 598.115 -0.0628142 2.29114 0
M  V30 5988 C 599.115 -0.771494 1.41084 0
M  V30 5989 O 600.305 -0.615959 1.62947 0
M  V30 5990 C 597.437 -1.09953 3.22681 0
M  V30 5991 H 598.63 0.682509 2.92031 0
M  V30 5992 H 596.183 0.392128 1.51301 0
M  V30 5993 H 596.918 -1.87481 2.64616 0
M  V30 5994 H 596.703 -0.595286 3.87555 0
M  V30 5995 H 598.193 -1.58538 3.86336 0
M  V30 5996 N 598.631 -1.53133 0.372548 0
M  V30 5997 C 599.541 -2.29671 -0.478379 0
M  V30 5998 C 600.557 -1.35913 -1.08644 0
M  V30 5999 O 601.733 -1.68975 -1.09588 0
M  V30 6000 C 598.798 -3.07625 -1.599 0
M  V30 6001 C 597.859 -4.17061 -1.01776 0
M  V30 6002 C 597.092 -4.91289 -2.08497 0
M  V30 6003 O 597.315 -4.65442 -3.29727 0
M  V30 6004 O 596.249 -5.7705 -1.71164 0
M  V30 6005 H 600.075 -3.03355 0.144649 0
M  V30 6006 H 597.66 -1.48773 0.136729 0
M  V30 6007 H 599.542 -3.56281 -2.25038 0
M  V30 6008 H 598.217 -2.3677 -2.2073 0
M  V30 6009 H 597.124 -3.72641 -0.330098 0
M  V30 6010 H 598.457 -4.90102 -0.453915 0
M  V30 6011 N 600.109 -0.101901 -1.5727 0
M  V30 6012 C 601.525 0.254739 -1.57554 0
M  V30 6013 C 601.725 1.67937 -1.11352 0
M  V30 6014 O 600.781 2.39722 -0.793081 0
M  V30 6015 C 602.094 0.036975 -3.00677 0
M  V30 6016 C 603.642 0.104199 -3.12827 0
M  V30 6017 C 604.117 -0.0856565 -4.5792 0
M  V30 6018 N 605.608 -0.0310498 -4.6319 0
M  V30 6019 C 606.343 -0.153099 -5.73196 0
M  V30 6020 N 605.839 -0.330364 -6.92012 0
M  V30 6021 N 607.632 -0.0938854 -5.62022 0
M  V30 6022 H 599.783 -1.03263 -1.85609 0
M  V30 6023 H 602.046 -0.405251 -0.857016 0
M  V30 6024 H 601.752 -0.947254 -3.38703 0
M  V30 6025 H 601.626 0.776335 -3.69124 0
M  V30 6026 H 604.013 1.07894 -2.74669 0
M  V30 6027 H 604.094 -0.666762 -2.46957 0
M  V30 6028 H 603.738 -1.05729 -4.96773 0
M  V30 6029 H 603.668 0.705082 -5.21858 0
M  V30 6030 H 606.159 0.103141 -3.77759 0
M  V30 6031 H 606.472 -0.41482 -7.71686 0
M  V30 6032 H 604.817 -0.366119 -6.94035 0
M  V30 6033 H 608.008 0.0435168 -4.6808 0
M  V30 6034 H 608.181 -0.19245 -6.47714 0
M  V30 6035 N 601.587 1.56661 0.17182 0
M  V30 6036 C 602.519 1.92934 1.2373 0
M  V30 6037 C 603.532 0.822385 1.40502 0
M  V30 6038 O 604.721 1.10083 1.40514 0
M  V30 6039 C 601.821 2.16651 2.60607 0
M  V30 6040 C 600.994 3.47878 2.6514 0
M  V30 6041 C 600.053 3.60429 3.83377 0
M  V30 6042 O 599.079 4.33051 3.69398 0
M  V30 6043 N 600.281 2.95241 4.99813 0
M  V30 6044 H 603.046 2.84931 0.929205 0
M  V30 6045 H 600.607 1.5781 0.361588 0
M  V30 6046 H 602.599 2.22312 3.38171 0
M  V30 6047 H 601.169 1.3104 2.83809 0
M  V30 6048 H 600.389 3.53879 1.73675 0
M  V30 6049 H 601.677 4.34232 2.6518 0
M  V30 6050 H 601.075 2.3611 5.14071 0
M  V30 6051 H 599.632 3.06499 5.75241 0
M  V30 6052 N 603.065 -0.440357 1.51323 0
M  V30 6053 C 604.013 -1.55492 1.72988 0
M  V30 6054 C 605.007 -1.58564 0.596138 0
M  V30 6055 O 606.213 -1.62345 0.777443 0
M  V30 6056 H 602.588 -0.516532 0.546533 0
M  V30 6057 H 604.559 -1.34392 2.66423 0
M  V30 6058 C 603.308 -2.93176 1.86931 0
M  V30 6059 H 602.631 -2.91543 2.73574 0
M  V30 6060 H 604.071 -3.70537 2.06103 0
M  V30 6061 C 602.53 -3.30988 0.628365 0
M  V30 6062 O 603.06 -4.01106 -0.218367 0
M  V30 6063 N 601.266 -2.86719 0.473339 0
M  V30 6064 H 600.813 -2.2983 1.16345 0
M  V30 6065 H 600.771 -3.12381 -0.355727 0
M  V30 6066 N 604.543 -1.41418 -0.695603 0
M  V30 6067 C 605.789 -1.40982 -1.4578 0
M  V30 6068 C 606.122 -0.0187763 -1.94191 0
M  V30 6069 O 605.397 0.95346 -1.69527 0
M  V30 6070 C 605.68 -2.41657 -2.66972 0
M  V30 6071 C 605.533 -3.89869 -2.24327 0
M  V30 6072 C 606.852 -2.39589 -3.69168 0
M  V30 6073 H 603.971 -0.513405 -0.528757 0
M  V30 6074 H 606.613 -1.72693 -0.792275 0
M  V30 6075 H 604.763 -2.14746 -3.23754 0
M  V30 6076 H 606.435 -4.27683 -1.72872 0
M  V30 6077 H 604.678 -4.04737 -1.56111 0
M  V30 6078 H 605.349 -4.55857 -3.11285 0
M  V30 6079 H 607.825 -2.63471 -3.2206 0
M  V30 6080 H 606.701 -3.12044 -4.51575 0
M  V30 6081 H 606.962 -1.41447 -4.18862 0
M  V30 6082 N 606.021 0.929856 -1.27246 0
M  V30 6083 C 607.298 1.65544 -1.04186 0
M  V30 6084 C 607.678 2.06796 0.424097 0
M  V30 6085 O 607.026 1.80053 1.40688 0
M  V30 6086 C 607.236 2.85912 -2.00138 0
M  V30 6087 C 608.584 3.57305 -2.29387 0
M  V30 6088 O 609.608 2.96036 -1.98094 0
M  V30 6089 O 608.467 4.67688 -2.82719 0
M  V30 6090 H 605.561 0.725473 -0.397011 0
M  V30 6091 H 608.107 0.980583 -1.38501 0
M  V30 6092 H 606.879 2.52403 -2.99013 0
M  V30 6093 H 606.502 3.61118 -1.66371 0
M  V30 6094 N 607.499 1.09233 1.13605 0
M  V30 6095 C 608.449 0.6994 2.17008 0
M  V30 6096 C 609.433 -0.285238 1.58352 0
M  V30 6097 O 610.625 -0.09592 1.7674 0
M  V30 6098 C 607.754 0.11938 3.43092 0
M  V30 6099 C 606.84 1.13031 4.0876 0
M  V30 6100 N 607.231 2.31673 4.49623 0
M  V30 6101 C 605.529 0.967999 4.35369 0
M  V30 6102 C 606.23 2.95964 5.00779 0
M  V30 6103 N 605.206 2.23534 4.95513 0
M  V30 6104 H 609.008 1.60272 2.46354 0
M  V30 6105 H 606.522 0.968257 1.30378 0
M  V30 6106 H 608.519 -0.180122 4.16511 0
M  V30 6107 H 607.179 -0.778816 3.15221 0
M  V30 6108 H 608.19 2.69277 4.42391 0
M  V30 6109 H 604.867 0.124319 4.17315 0
M  V30 6110 H 606.257 3.96813 5.42208 0
M  V30 6111 N 608.977 -1.30795 0.87923 0
M  V30 6112 C 609.909 -2.27241 0.299025 0
M  V30 6113 C 610.922 -1.53472 -0.543166 0
M  V30 6114 O 612.111 -1.74756 -0.363651 0
M  V30 6115 C 609.211 -3.33655 -0.593931 0
M  V30 6116 C 608.384 -4.36857 0.2179 0
M  V30 6117 C 607.443 -5.22715 -0.604646 0
M  V30 6118 O 606.469 -5.69192 -0.0293838 0
M  V30 6119 N 607.671 -5.48008 -1.91488 0
M  V30 6120 H 610.436 -2.77667 1.12788 0
M  V30 6121 H 607.997 -1.43914 0.741637 0
M  V30 6122 H 609.989 -3.88013 -1.15012 0
M  V30 6123 H 608.559 -2.83202 -1.32346 0
M  V30 6124 H 607.779 -3.82444 0.955536 0
M  V30 6125 H 609.067 -5.02869 0.774614 0
M  V30 6126 H 608.465 -5.1202 -2.40525 0
M  V30 6127 H 607.022 -6.05264 -2.41864 0
M  V30 6128 N 610.455 -0.639598 -1.44038 0
M  V30 6129 C 611.871 -0.305953 -1.5664 0
M  V30 6130 C 612.071 1.19055 -1.62567 0
M  V30 6131 O 611.127 1.97492 -1.57331 0
M  V30 6132 C 612.44 -1.00533 -2.83397 0
M  V30 6133 C 613.988 -0.984278 -2.97121 0
M  V30 6134 C 614.463 -1.66428 -4.26691 0
M  V30 6135 N 615.954 -1.63127 -4.33525 0
M  V30 6136 C 616.689 -2.12629 -5.32519 0
M  V30 6137 N 616.185 -2.70359 -6.3787 0
M  V30 6138 N 617.978 -2.03208 -5.24083 0
M  V30 6139 H 610.129 -1.6109 -1.38434 0
M  V30 6140 H 612.392 -0.676672 -0.663942 0
M  V30 6141 H 612.098 -2.06034 -2.85032 0
M  V30 6142 H 611.972 -0.548362 -3.73193 0
M  V30 6143 H 614.359 0.0622792 -2.95034 0
M  V30 6144 H 614.44 -1.47981 -2.08651 0
M  V30 6145 H 614.084 -2.71034 -4.29538 0
M  V30 6146 H 614.014 -1.14351 -5.14034 0
M  V30 6147 H 616.505 -1.20987 -3.58009 0
M  V30 6148 H 616.818 -3.05842 -7.09704 0
M  V30 6149 H 615.163 -2.74414 -6.38531 0
M  V30 6150 H 618.354 -1.57823 -4.40692 0
M  V30 6151 H 618.527 -2.42097 -6.01077 0
M  V30 6152 N 611.933 1.52934 -0.380664 0
M  V30 6153 C 612.863 2.29118 0.450268 0
M  V30 6154 C 613.844 1.32153 1.07096 0
M  V30 6155 O 615.029 1.61038 1.08537 0
M  V30 6156 C 612.159 3.09161 1.58231 0
M  V30 6157 C 611.113 4.13938 1.0881 0
M  V30 6158 C 610.439 4.82153 2.31155 0
M  V30 6159 C 611.739 5.22048 0.162146 0
M  V30 6160 H 613.433 2.98826 -0.185361 0
M  V30 6161 H 610.979 1.43715 -0.0905886 0
M  V30 6162 H 612.932 3.61211 2.17036 0
M  V30 6163 H 611.656 2.3717 2.2454 0
M  V30 6164 H 610.315 3.62855 0.522633 0
M  V30 6165 H 609.963 4.06719 2.95953 0
M  V30 6166 H 609.663 5.52966 1.98752 0
M  V30 6167 H 611.187 5.37004 2.90618 0
M  V30 6168 H 612.601 5.6951 0.658126 0
M  V30 6169 H 610.998 6.00057 -0.0717122 0
M  V30 6170 H 612.068 4.78398 -0.791438 0
M  V30 6171 N 613.412 0.11024 1.57214 0
M  V30 6172 C 614.342 -0.840002 2.17867 0
M  V30 6173 C 615.323 -1.28352 1.11624 0
M  V30 6174 O 616.508 -1.3477 1.39824 0
M  V30 6175 C 613.638 -2.09349 2.77111 0
M  V30 6176 C 612.592 -1.78807 3.8886 0
M  V30 6177 C 611.918 -3.11112 4.34872 0
M  V30 6178 C 613.218 -1.0632 5.11364 0
M  V30 6179 H 614.912 -0.334608 2.97524 0
M  V30 6180 H 612.458 -0.159502 1.43114 0
M  V30 6181 H 614.411 -2.76275 3.18198 0
M  V30 6182 H 613.135 -2.62198 1.9473 0
M  V30 6183 H 611.794 -1.14273 3.48335 0
M  V30 6184 H 611.442 -3.61877 3.49362 0
M  V30 6185 H 611.142 -2.91453 5.10224 0
M  V30 6186 H 612.666 -3.79171 4.78604 0
M  V30 6187 H 614.08 -1.63383 5.49526 0
M  V30 6188 H 612.477 -0.967876 5.92243 0
M  V30 6189 H 613.547 -0.0484569 4.84876 0
M  V30 6190 N 614.89 -1.56749 -0.16351 0
M  V30 6191 C 615.838 -1.97939 -1.22159 0
M  V30 6192 C 616.832 -0.869288 -1.45395 0
M  V30 6193 O 618.038 -1.05443 -1.45883 0
M  V30 6194 H 614.413 -0.629869 -0.410815 0
M  V30 6195 H 616.384 -2.86115 -0.847381 0
M  V30 6196 C 615.133 -2.36206 -2.55151 0
M  V30 6197 H 614.456 -3.2117 -2.38097 0
M  V30 6198 H 615.896 -2.68863 -3.27854 0
M  V30 6199 C 614.355 -1.20841 -3.14482 0
M  V30 6200 O 614.885 -0.500258 -3.98573 0
M  V30 6201 N 613.091 -0.976943 -2.73686 0
M  V30 6202 H 612.638 -1.55457 -2.05404 0
M  V30 6203 H 612.596 -0.206912 -3.13718 0
M  V30 6204 N 616.368 0.432326 -1.51554 0
M  V30 6205 C 617.614 1.18309 -1.64714 0
M  V30 6206 C 617.947 1.90745 -0.364696 0
M  V30 6207 O 617.222 1.8381 0.635936 0
M  V30 6208 C 617.505 2.1961 -2.85383 0
M  V30 6209 C 617.358 1.51223 -4.23617 0
M  V30 6210 C 618.677 3.20538 -3.01569 0
M  V30 6211 H 615.796 0.428751 -0.599451 0
M  V30 6212 H 618.438 0.471689 -1.84052 0
M  V30 6213 H 616.588 2.8028 -2.69027 0
M  V30 6214 H 618.26 0.938516 -4.51652 0
M  V30 6215 H 616.503 0.814501 -4.26085 0
M  V30 6216 H 617.174 2.25024 -5.04052 0
M  V30 6217 H 619.65 2.69926 -3.16669 0
M  V30 6218 H 618.526 3.88706 -3.87555 0
M  V30 6219 H 618.787 3.86933 -2.13859 0
M  V30 6220 N 617.846 1.41785 0.688094 0
M  V30 6221 C 618.793 1.44221 1.80191 0
M  V30 6222 C 619.763 0.295688 1.63447 0
M  V30 6223 O 620.948 0.49783 1.84191 0
M  V30 6224 C 618.088 1.33743 3.1813 0
M  V30 6225 C 617.201 2.58325 3.46254 0
M  V30 6226 C 616.336 2.40086 4.73848 0
M  V30 6227 C 615.375 3.60107 4.94964 0
M  V30 6228 N 614.512 3.40892 6.13789 0
M  V30 6229 H 619.352 2.39411 1.77444 0
M  V30 6230 H 616.889 1.18876 0.866423 0
M  V30 6231 H 618.847 1.25669 3.97823 0
M  V30 6232 H 617.477 0.42157 3.20035 0
M  V30 6233 H 616.529 2.7682 2.60912 0
M  V30 6234 H 617.841 3.4758 3.57756 0
M  V30 6235 H 616.995 2.29522 5.61609 0
M  V30 6236 H 615.734 1.483 4.64606 0
M  V30 6237 H 614.739 3.71118 4.05649 0
M  V30 6238 H 615.964 4.52857 5.06061 0
M  V30 6239 H 613.91 2.51812 6.05745 0
M  V30 6240 H 613.827 4.23727 6.26092 0
M  V30 6241 H 615.095 3.34114 7.04264 0
M  V30 6242 N 619.324 -0.923095 1.27737 0
M  V30 6243 C 620.287 -2.00587 1.10894 0
M  V30 6244 C 621.287 -1.60718 0.0514927 0
M  V30 6245 O 622.477 -1.71658 0.296481 0
M  V30 6246 C 619.609 -3.33829 0.690717 0
M  V30 6247 H 620.802 -2.16959 2.07048 0
M  V30 6248 H 618.355 -1.10451 1.1059 0
M  V30 6249 H 619.09 -3.23157 -0.272 0
M  V30 6250 H 618.875 -3.64125 1.45448 0
M  V30 6251 H 620.365 -4.13336 0.595252 0
M  V30 6252 N 620.802 -1.09834 -1.13024 0
M  V30 6253 C 622.218 -0.828875 -1.36388 0
M  V30 6254 C 622.418 0.554756 -1.93713 0
M  V30 6255 O 621.474 1.30882 -2.15931 0
M  V30 6256 C 622.787 -1.92352 -2.3113 0
M  V30 6257 C 624.335 -1.95124 -2.44735 0
M  V30 6258 C 624.81 -3.03745 -3.42787 0
M  V30 6259 N 626.301 -3.03012 -3.5034 0
M  V30 6260 C 627.036 -3.83699 -4.26101 0
M  V30 6261 N 626.532 -4.74306 -5.04981 0
M  V30 6262 N 628.325 -3.71942 -4.21445 0
M  V30 6263 H 620.476 -1.99029 -0.74169 0
M  V30 6264 H 622.739 -0.864557 -0.388903 0
M  V30 6265 H 622.445 -2.91906 -1.96172 0
M  V30 6266 H 622.319 -1.80536 -3.3119 0
M  V30 6267 H 624.706 -0.962069 -2.78977 0
M  V30 6268 H 624.787 -2.11018 -1.44586 0
M  V30 6269 H 624.431 -4.02878 -3.09276 0
M  V30 6270 H 624.361 -2.85094 -4.42752 0
M  V30 6271 H 626.852 -2.37352 -2.94062 0
M  V30 6272 H 627.165 -5.32446 -5.60108 0
M  V30 6273 H 625.51 -4.78339 -5.04199 0
M  V30 6274 H 628.701 -3.00513 -3.589 0
M  V30 6275 H 628.874 -4.35062 -4.80235 0
M  V30 6276 N 622.28 1.30327 -0.886154 0
M  V30 6277 C 623.21 2.30549 -0.370028 0
M  V30 6278 C 624.191 1.61039 0.547751 0
M  V30 6279 O 625.376 1.8864 0.461353 0
M  V30 6280 C 622.506 3.44808 0.415275 0
M  V30 6281 C 621.46 4.26024 -0.41085 0
M  V30 6282 C 620.786 5.32347 0.501128 0
M  V30 6283 C 622.086 4.95433 -1.65359 0
M  V30 6284 H 623.78 2.73969 -1.20754 0
M  V30 6285 H 621.326 1.3171 -0.582097 0
M  V30 6286 H 623.279 4.13986 0.78699 0
M  V30 6287 H 622.003 3.00197 1.28644 0
M  V30 6288 H 620.662 3.58535 -0.764719 0
M  V30 6289 H 620.31 4.83982 1.37004 0
M  V30 6290 H 620.01 5.87581 -0.0478356 0
M  V30 6291 H 621.534 6.0438 0.869333 0
M  V30 6292 H 622.948 5.5712 -1.35239 0
M  V30 6293 H 621.345 5.60537 -2.14284 0
M  V30 6294 H 622.415 4.21493 -2.39733 0
M  V30 6295 N 623.758 0.647228 1.43697 0
M  V30 6296 C 624.668 -0.0487997 2.34549 0
M  V30 6297 C 625.684 -0.818586 1.53542 0
M  V30 6298 O 626.86 -0.767195 1.86215 0
M  V30 6299 C 623.925 -1.00734 3.31743 0
M  V30 6300 C 622.986 -0.23515 4.28655 0
M  V30 6301 C 622.219 -1.14803 5.21206 0
M  V30 6302 O 622.442 -2.38717 5.18045 0
M  V30 6303 O 621.376 -0.623667 5.9866 0
M  V30 6304 H 625.202 0.698863 2.9555 0
M  V30 6305 H 622.787 0.407412 1.43738 0
M  V30 6306 H 624.669 -1.55837 3.91526 0
M  V30 6307 H 623.344 -1.73534 2.73254 0
M  V30 6308 H 622.251 0.359319 3.7237 0
M  V30 6309 H 623.584 0.453152 4.9011 0
M  V30 6310 N 625.236 -1.5273 0.388769 0
M  V30 6311 C 626.166 -2.29353 -0.438111 0
M  V30 6312 C 627.147 -1.32719 -1.06394 0
M  V30 6313 O 628.332 -1.61612 -1.07681 0
M  V30 6314 C 625.462 -3.09995 -1.56589 0
M  V30 6315 C 624.416 -4.14509 -1.06613 0
M  V30 6316 C 623.742 -4.83372 -2.28594 0
M  V30 6317 C 625.042 -5.22127 -0.134459 0
M  V30 6318 H 626.736 -2.98723 0.201206 0
M  V30 6319 H 624.282 -1.43665 0.0982089 0
M  V30 6320 H 626.235 -3.62357 -2.15118 0
M  V30 6321 H 624.959 -2.38357 -2.23279 0
M  V30 6322 H 623.618 -3.63128 -0.503383 0
M  V30 6323 H 623.266 -4.08283 -2.93792 0
M  V30 6324 H 622.966 -5.54012 -1.95817 0
M  V30 6325 H 624.49 -5.38538 -2.87766 0
M  V30 6326 H 625.904 -5.69851 -0.627914 0
M  V30 6327 H 624.301 -6.00011 0.103534 0
M  V30 6328 H 625.371 -4.77971 0.816798 0
M  V30 6329 N 626.714 -0.118576 -1.57153 0
M  V30 6330 C 627.624 0.845484 -2.18835 0
M  V30 6331 C 628.64 1.29299 -1.16438 0
M  V30 6332 O 629.816 1.35607 -1.48905 0
M  V30 6333 C 626.881 2.07795 -2.77529 0
M  V30 6334 C 625.942 1.6824 -3.9496 0
M  V30 6335 C 625.175 2.85612 -4.50845 0
M  V30 6336 O 625.398 4.01025 -4.05629 0
M  V30 6337 O 624.332 2.62721 -5.41536 0
M  V30 6338 H 628.158 0.350568 -3.0167 0
M  V30 6339 H 625.743 0.107013 -1.49016 0
M  V30 6340 H 627.625 2.79978 -3.14945 0
M  V30 6341 H 626.3 2.56294 -1.97725 0
M  V30 6342 H 625.207 0.931663 -3.62313 0
M  V30 6343 H 626.54 1.24484 -4.76198 0
M  V30 6344 N 628.193 1.56834 0.155195 0
M  V30 6345 C 629.442 1.82088 0.867567 0
M  V30 6346 C 629.755 0.69849 1.82703 0
M  V30 6347 O 630.961 0.836407 2.58295 0
M  V30 6348 C 629.417 3.22707 1.59336 0
M  V30 6349 C 629.025 4.42859 0.676719 0
M  V30 6350 C 630.769 3.57242 2.293 0
M  V30 6351 C 628.676 5.74501 1.40367 0
M  V30 6352 H 627.606 0.679057 0.327715 0
M  V30 6353 H 630.257 1.83105 0.120351 0
M  V30 6354 H 628.639 3.16054 2.38591 0
M  V30 6355 H 629.813 4.60731 -0.0800196 0
M  V30 6356 H 628.128 4.16311 0.0859129 0
M  V30 6357 H 630.725 4.52847 2.84312 0
M  V30 6358 H 631.068 2.82901 3.05406 0
M  V30 6359 H 631.601 3.6552 1.56972 0
M  V30 6360 H 628.34 6.51915 0.684623 0
M  V30 6361 H 627.86 5.60579 2.13332 0
M  V30 6362 H 629.539 6.17016 1.94681 0
M  V30 6363 N 629.671 -0.424282 1.51781 0
M  V30 6364 C 630.581 -1.54087 1.76902 0
M  V30 6365 C 631.597 -1.61249 0.653826 0
M  V30 6366 O 632.773 -1.78247 0.937552 0
M  V30 6367 C 629.838 -2.8996 1.90063 0
M  V30 6368 C 628.899 -2.92809 3.13945 0
M  V30 6369 C 628.132 -4.22201 3.26469 0
M  V30 6370 O 628.355 -5.15286 2.44616 0
M  V30 6371 O 627.289 -4.31599 4.1953 0
M  V30 6372 H 631.115 -1.358 2.71647 0
M  V30 6373 H 628.7 -0.608618 1.36441 0
M  V30 6374 H 630.582 -3.70575 2.0063 0
M  V30 6375 H 629.257 -3.08347 0.985067 0
M  V30 6376 H 628.164 -2.11102 3.08847 0
M  V30 6377 H 629.497 -2.79369 4.05233 0
M  V30 6378 N 631.149 -1.42148 -0.680565 0
M  V30 6379 C 632.377 -1.45696 -1.46902 0
M  V30 6380 C 632.792 -0.0665858 -1.88683 0
M  V30 6381 O 632.149 0.917436 -1.57764 0
M  V30 6382 C 632.2 -2.37898 -2.72188 0
M  V30 6383 O 631.921 -3.71526 -2.32163 0
M  V30 6384 C 633.422 -2.50407 -3.65802 0
M  V30 6385 H 630.642 -0.495729 -0.45221 0
M  V30 6386 H 633.186 -1.866 -0.836709 0
M  V30 6387 H 631.341 -2.00263 -3.31622 0
M  V30 6388 H 631.755 -4.20849 -3.13027 0
M  V30 6389 H 633.229 -3.19056 -4.50452 0
M  V30 6390 H 633.706 -1.5401 -4.11312 0
M  V30 6391 H 634.312 -2.8874 -3.12265 0
M  V30 6392 N 632.627 0.916307 -1.28225 0
M  V30 6393 C 633.857 1.69654 -1.17902 0
M  V30 6394 C 634.265 1.87331 0.265268 0
M  V30 6395 O 633.608 1.39828 1.19137 0
M  V30 6396 C 633.67 3.11024 -1.80289 0
M  V30 6397 C 633.334 3.16643 -3.29525 0
M  V30 6398 C 634.331 2.98032 -4.25997 0
M  V30 6399 C 632.016 3.39238 -3.70436 0
M  V30 6400 C 634.01 3.01924 -5.61356 0
M  V30 6401 C 631.697 3.42762 -5.05922 0
M  V30 6402 C 632.695 3.24125 -6.01192 0
M  V30 6403 O 632.383 3.27406 -7.34208 0
M  V30 6404 H 632.115 0.537197 -0.41036 0
M  V30 6405 H 634.669 1.15547 -1.69817 0
M  V30 6406 H 632.899 3.66662 -1.22865 0
M  V30 6407 H 634.588 3.71063 -1.6452 0
M  V30 6408 H 635.354 2.80405 -3.95725 0
M  V30 6409 H 631.233 3.52791 -2.96749 0
M  V30 6410 H 634.777 2.87295 -6.35694 0
M  V30 6411 H 630.674 3.59916 -5.35846 0
M  V30 6412 H 631.442 3.43784 -7.42802 0
M  V30 6413 N 634.105 1.10431 1.1244 0
M  V30 6414 C 635.521 0.836096 1.35947 0
M  V30 6415 C 635.721 -0.544475 1.94004 0
M  V30 6416 O 634.777 -1.29735 2.16622 0
M  V30 6417 C 636.09 1.93575 2.30107 0
M  V30 6418 C 637.638 1.9642 2.43697 0
M  V30 6419 C 638.113 3.05559 3.41171 0
M  V30 6420 N 639.604 3.04865 3.48728 0
M  V30 6421 C 640.339 3.85954 4.24061 0
M  V30 6422 N 639.835 4.76977 5.02458 0
M  V30 6423 N 641.628 3.74172 4.19466 0
M  V30 6424 H 633.779 1.9942 0.731124 0
M  V30 6425 H 636.042 0.866607 0.384312 0
M  V30 6426 H 635.748 2.92943 1.94621 0
M  V30 6427 H 635.622 1.8229 3.30227 0
M  V30 6428 H 638.009 0.97685 2.78463 0
M  V30 6429 H 638.09 2.11782 1.43465 0
M  V30 6430 H 637.734 4.04513 3.07135 0
M  V30 6431 H 637.664 2.87438 4.41234 0
M  V30 6432 H 640.155 2.38908 2.92799 0
M  V30 6433 H 640.468 5.35409 5.57277 0
M  V30 6434 H 638.813 4.81006 5.01655 0
M  V30 6435 H 642.004 3.02412 3.57302 0
M  V30 6436 H 642.177 4.37602 4.77921 0
M  V30 6437 N 635.583 -1.29855 0.893053 0
M  V30 6438 C 636.999 -1.48366 0.588199 0
M  V30 6439 C 637.199 -1.81654 -0.872018 0
M  V30 6440 O 636.255 -1.909 -1.65268 0
M  V30 6441 C 637.568 -2.60136 1.5083 0
M  V30 6442 C 639.116 -2.74014 1.51279 0
M  V30 6443 C 639.591 -3.88905 2.41902 0
M  V30 6444 N 641.082 -3.96228 2.39911 0
M  V30 6445 C 641.817 -4.84458 3.06738 0
M  V30 6446 N 641.313 -5.77426 3.8282 0
M  V30 6447 N 643.106 -4.77894 2.95929 0
M  V30 6448 H 635.257 -1.06522 1.83757 0
M  V30 6449 H 637.52 -0.528495 0.787018 0
M  V30 6450 H 637.226 -2.42383 2.54839 0
M  V30 6451 H 637.1 -3.56793 1.22388 0
M  V30 6452 H 639.487 -2.91167 0.480179 0
M  V30 6453 H 639.568 -1.77952 1.83757 0
M  V30 6454 H 639.212 -3.72508 3.45253 0
M  V30 6455 H 639.142 -4.84322 2.06737 0
M  V30 6456 H 641.633 -3.29728 1.84629 0
M  V30 6457 H 641.946 -6.41529 4.30883 0
M  V30 6458 H 640.291 -5.77332 3.86927 0
M  V30 6459 H 643.482 -4.04248 2.36012 0
M  V30 6460 H 643.655 -5.46444 3.48286 0
M  V30 6461 N 637.061 -0.65484 -1.43351 0
M  V30 6462 C 637.991 0.0221809 -2.33489 0
M  V30 6463 C 638.972 0.810272 -1.49561 0
M  V30 6464 O 640.157 0.771426 -1.78221 0
M  V30 6465 C 637.287 0.988117 -3.32947 0
M  V30 6466 C 636.241 0.310026 -4.26876 0
M  V30 6467 C 635.567 1.38752 -5.16384 0
M  V30 6468 C 636.867 -0.798589 -5.16159 0
M  V30 6469 H 638.561 -0.730571 -2.9035 0
M  V30 6470 H 636.107 -0.352773 -1.39612 0
M  V30 6471 H 638.06 1.47067 -3.94904 0
M  V30 6472 H 636.784 1.77205 -2.74346 0
M  V30 6473 H 635.443 -0.152097 -3.66284 0
M  V30 6474 H 635.091 2.16293 -4.54121 0
M  V30 6475 H 634.791 0.939051 -5.80048 0
M  V30 6476 H 636.315 1.87141 -5.81215 0
M  V30 6477 H 637.729 -0.398126 -5.71916 0
M  V30 6478 H 636.126 -1.17163 -5.88552 0
M  V30 6479 H 637.196 -1.65588 -4.55751 0
M  V30 6480 N 638.539 1.52521 -0.396863 0
M  V30 6481 C 639.469 2.29582 0.425941 0
M  V30 6482 C 640.45 1.33281 1.05689 0
M  V30 6483 O 641.635 1.62181 1.06823 0
M  V30 6484 C 638.765 3.10821 1.54943 0
M  V30 6485 C 637.719 4.15069 1.04413 0
M  V30 6486 C 637.045 4.84578 2.26028 0
M  V30 6487 C 638.345 5.22191 0.106767 0
M  V30 6488 H 640.039 2.98612 -0.217045 0
M  V30 6489 H 637.585 1.43611 -0.105826 0
M  V30 6490 H 639.538 3.63492 2.13193 0
M  V30 6491 H 638.262 2.39538 2.22011 0
M  V30 6492 H 636.921 3.63389 0.484118 0
M  V30 6493 H 636.569 4.09835 2.91623 0
M  V30 6494 H 636.269 5.55043 1.92876 0
M  V30 6495 H 637.793 5.40056 2.84906 0
M  V30 6496 H 639.207 5.70176 0.597685 0
M  V30 6497 H 637.604 5.99947 -0.135352 0
M  V30 6498 H 638.674 4.77531 -0.842134 0
M  V30 6499 N 640.017 0.126909 1.57088 0
M  V30 6500 C 641.294 -0.573152 1.87014 0
M  V30 6501 C 641.674 -1.84297 1.02945 0
M  V30 6502 O 641.022 -2.28232 0.110573 0
M  V30 6503 C 641.232 -0.857984 3.38289 0
M  V30 6504 C 642.58 -1.20759 4.07066 0
M  V30 6505 O 643.604 -0.947992 3.43353 0
M  V30 6506 O 642.463 -1.69516 5.19545 0
M  V30 6507 H 639.557 -0.290082 0.774456 0
M  V30 6508 H 642.103 0.162008 1.68925 0
M  V30 6509 H 640.875 0.0415286 3.91278 0
M  V30 6510 H 640.498 -1.64803 3.61837 0
M  V30 6511 N 641.495 -1.56914 -0.146875 0
M  V30 6512 C 642.743 -1.82994 -0.85777 0
M  V30 6513 C 643.064 -0.707814 -1.817 0
M  V30 6514 O 642.334 0.270521 -1.94023 0
M  V30 6515 H 640.914 -0.675106 -0.319751 0
M  V30 6516 H 643.576 -1.9439 -0.140849 0
M  V30 6517 H 642.672 -2.77928 -1.41994 0
M  V30 6518 N 642.974 0.416227 -1.52004 0
M  V30 6519 C 643.884 1.53147 -1.77717 0
M  V30 6520 C 644.9 1.609 -0.662368 0
M  V30 6521 O 646.076 1.77747 -0.946991 0
M  V30 6522 C 643.141 2.88948 -1.91598 0
M  V30 6523 C 642.202 2.9114 -3.15493 0
M  V30 6524 C 641.435 4.20464 -3.28703 0
M  V30 6525 O 641.658 5.13981 -2.47345 0
M  V30 6526 O 640.592 4.29368 -4.21813 0
M  V30 6527 H 644.418 1.34357 -2.72363 0
M  V30 6528 H 642.003 0.601373 -1.36762 0
M  V30 6529 H 643.885 3.69505 -2.02593 0
M  V30 6530 H 642.56 3.07821 -1.00141 0
M  V30 6531 H 641.467 2.09461 -3.09962 0
M  V30 6532 H 642.8 2.77216 -4.06709 0
M  V30 6533 N 644.452 1.42507 0.673017 0
M  V30 6534 C 645.415 1.4582 1.76831 0
M  V30 6535 C 646.415 0.345542 1.57043 0
M  V30 6536 O 647.605 0.606447 1.63303 0
M  V30 6537 C 644.737 1.29158 3.15485 0
M  V30 6538 H 645.93 2.43345 1.7528 0
M  V30 6539 H 643.483 1.28981 0.882817 0
M  V30 6540 H 644.218 0.325626 3.22661 0
M  V30 6541 H 644.003 2.09797 3.31252 0
M  V30 6542 H 645.493 1.34363 3.95394 0
M  V30 6543 N 645.93 -0.909495 1.28709 0
M  V30 6544 C 646.862 -2.01729 1.08804 0
M  V30 6545 C 647.875 -1.62755 0.0384739 0
M  V30 6546 O 649.064 -1.76259 0.281977 0
M  V30 6547 C 646.164 -3.32952 0.63217 0
M  V30 6548 C 645.337 -4.00512 1.75809 0
M  V30 6549 C 644.396 -5.10019 1.29488 0
M  V30 6550 O 643.422 -5.32986 1.99787 0
M  V30 6551 N 644.624 -5.80278 0.1604 0
M  V30 6552 H 647.389 -2.19362 2.04207 0
M  V30 6553 H 644.95 -1.08106 1.20518 0
M  V30 6554 H 646.942 -4.03543 0.305802 0
M  V30 6555 H 645.512 -3.11759 -0.229134 0
M  V30 6556 H 644.732 -3.23413 2.25383 0
M  V30 6557 H 646.02 -4.42395 2.51325 0
M  V30 6558 H 645.418 -5.64094 -0.425937 0
M  V30 6559 H 643.975 -6.51713 -0.106663 0
M  V30 6560 N 647.408 -1.11026 -1.11852 0
M  V30 6561 C 648.656 -0.854769 -1.83134 0
M  V30 6562 C 648.977 0.621375 -1.84835 0
M  V30 6563 O 648.247 1.45129 -1.31584 0
M  V30 6564 H 646.827 -0.313229 -0.678157 0
M  V30 6565 H 649.489 -1.40178 -1.35411 0
M  V30 6566 H 648.585 -1.22311 -2.87135 0
M  V30 6567 N 648.886 1.2938 -0.899927 0
M  V30 6568 C 650.163 1.9046 -0.445443 0
M  V30 6569 C 650.543 1.81683 1.07492 0
M  V30 6570 O 649.891 1.24371 1.91688 0
M  V30 6571 C 650.101 3.35529 -0.960279 0
M  V30 6572 C 651.449 4.12556 -1.00412 0
M  V30 6573 O 652.473 3.44434 -0.907965 0
M  V30 6574 O 651.332 5.34294 -1.14857 0
M  V30 6575 H 648.426 0.815253 -0.138893 0
M  V30 6576 H 650.972 1.37844 -0.989808 0
M  V30 6577 H 649.744 3.36074 -2.00425 0
M  V30 6578 H 649.367 3.95624 -0.395939 0
M  V30 6579 N 650.364 0.662433 1.43002 0
M  V30 6580 C 651.612 0.179237 2.01304 0
M  V30 6581 C 651.933 -1.21428 1.52579 0
M  V30 6582 O 651.203 -1.81294 0.742252 0
M  V30 6583 H 649.783 0.0632725 0.744316 0
M  V30 6584 H 652.445 0.856169 1.75088 0
M  V30 6585 H 651.541 0.170957 3.11631 0
M  V30 6586 N 651.842 -1.52309 0.404946 0
M  V30 6587 C 652.772 -2.29805 -0.41376 0
M  V30 6588 C 653.753 -1.3384 -1.0498 0
M  V30 6589 O 654.938 -1.62745 -1.05961 0
M  V30 6590 C 652.068 -3.11639 -1.53292 0
M  V30 6591 C 651.022 -4.15616 -1.02211 0
M  V30 6592 C 650.348 -4.8577 -2.23455 0
M  V30 6593 C 651.648 -5.2224 -0.0790725 0
M  V30 6594 H 653.342 -2.98493 0.232878 0
M  V30 6595 H 650.888 -1.43552 0.113441 0
M  V30 6596 H 652.841 -3.64618 -2.11262 0
M  V30 6597 H 651.565 -2.40712 -2.20738 0
M  V30 6598 H 650.224 -3.63641 -0.46484 0
M  V30 6599 H 649.872 -4.11376 -2.89445 0
M  V30 6600 H 649.572 -5.56058 -1.89929 0
M  V30 6601 H 651.096 -5.4156 -2.82038 0
M  V30 6602 H 652.51 -5.70485 -0.567438 0
M  V30 6603 H 650.907 -5.99867 0.167167 0
M  V30 6604 H 651.977 -4.77078 0.867447 0
M  V30 6605 N 653.32 -0.135238 -1.57019 0
M  V30 6606 C 654.23 0.822226 -2.19719 0
M  V30 6607 C 655.246 1.28057 -1.17802 0
M  V30 6608 O 656.422 1.3402 -1.50335 0
M  V30 6609 C 653.487 2.0484 -2.79717 0
M  V30 6610 C 652.548 1.64042 -3.96723 0
M  V30 6611 C 651.781 2.80814 -4.53849 0
M  V30 6612 O 652.004 3.967 -4.0986 0
M  V30 6613 O 650.938 2.56963 -5.44292 0
M  V30 6614 H 654.764 0.318552 -3.02025 0
M  V30 6615 H 652.349 0.0912021 -1.49121 0
M  V30 6616 H 654.231 2.76622 -3.17897 0
M  V30 6617 H 652.906 2.54182 -2.00432 0
M  V30 6618 H 651.813 0.893182 -3.63281 0
M  V30 6619 H 653.146 1.19426 -4.77492 0
M  V30 6620 N 654.798 1.5699 0.138552 0
M  V30 6621 C 655.708 2.02174 1.19008 0
M  V30 6622 C 656.724 0.938622 1.46512 0
M  V30 6623 O 657.9 1.24872 1.58016 0
M  V30 6624 C 654.965 2.40045 2.50159 0
M  V30 6625 C 654.026 3.62346 2.30226 0
M  V30 6626 C 653.259 3.98401 3.55123 0
M  V30 6627 O 653.482 3.35019 4.61647 0
M  V30 6628 O 652.416 4.91606 3.47285 0
M  V30 6629 H 656.242 2.91954 0.836452 0
M  V30 6630 H 653.827 1.45293 0.347907 0
M  V30 6631 H 655.709 2.65225 3.27465 0
M  V30 6632 H 654.384 1.53417 2.85035 0
M  V30 6633 H 653.291 3.42341 1.50843 0
M  V30 6634 H 654.624 4.49617 2.00262 0
M  V30 6635 N 656.276 -0.40816 1.52223 0
M  V30 6636 C 657.501 -1.18127 1.70472 0
M  V30 6637 C 657.926 -1.83491 0.41384 0
M  V30 6638 O 657.284 -1.70047 -0.628778 0
M  V30 6639 C 657.332 -2.21935 2.84213 0
M  V30 6640 O 656.436 -3.28099 2.4985 0
M  V30 6641 H 655.777 -0.344781 0.56747 0
M  V30 6642 H 658.307 -0.478328 1.9893 0
M  V30 6643 H 658.317 -2.66248 3.09153 0
M  V30 6644 H 656.992 -1.73744 3.7787 0
M  V30 6645 H 655.569 -2.89058 2.35584 0
M  V30 6646 N 657.755 -1.42862 -0.66545 0
M  V30 6647 C 658.685 -1.49867 -1.79059 0
M  V30 6648 C 659.666 -0.354394 -1.66367 0
M  V30 6649 O 660.851 -0.569969 -1.85647 0
M  V30 6650 C 657.981 -1.40943 -3.17415 0
M  V30 6651 C 656.935 -2.53495 -3.44854 0
M  V30 6652 C 656.261 -2.29626 -4.82883 0
M  V30 6653 C 657.561 -3.95781 -3.40815 0
M  V30 6654 H 659.255 -2.44037 -1.73453 0
M  V30 6655 H 656.801 -1.17456 -0.833071 0
M  V30 6656 H 658.754 -1.4445 -3.95869 0
M  V30 6657 H 657.478 -0.432716 -3.23721 0
M  V30 6658 H 656.137 -2.4932 -2.68766 0
M  V30 6659 H 655.785 -1.30226 -4.8585 0
M  V30 6660 H 655.485 -3.05065 -5.02204 0
M  V30 6661 H 657.009 -2.34897 -5.63609 0
M  V30 6662 H 658.423 -4.01508 -4.09224 0
M  V30 6663 H 656.82 -4.71148 -3.71672 0
M  V30 6664 H 657.89 -4.21786 -2.39216 0
M  V30 6665 N 659.233 0.902656 -1.29189 0
M  V30 6666 C 660.48 1.65287 -1.16989 0
M  V30 6667 C 660.808 1.92485 0.279232 0
M  V30 6668 O 660.063 1.53143 1.21843 0
M  V30 6669 C 660.362 3.011 -1.92545 0
M  V30 6670 C 660.028 2.93521 -3.42281 0
M  V30 6671 C 658.69 2.91161 -3.83117 0
M  V30 6672 C 661.042 2.82947 -4.3771 0
M  V30 6673 C 658.37 2.76043 -5.17704 0
M  V30 6674 C 660.722 2.69368 -5.72384 0
M  V30 6675 C 659.386 2.65373 -6.12482 0
M  V30 6676 H 658.656 0.604828 -0.428094 0
M  V30 6677 H 661.303 1.05084 -1.60092 0
M  V30 6678 H 659.608 3.65153 -1.42024 0
M  V30 6679 H 661.305 3.58073 -1.80512 0
M  V30 6680 H 657.895 2.96158 -3.09819 0
M  V30 6681 H 662.079 2.83849 -4.07116 0
M  V30 6682 H 657.335 2.71352 -5.47885 0
M  V30 6683 H 661.509 2.60156 -6.45981 0
M  V30 6684 H 659.136 2.53415 -7.16718 0
M  V30 6685 N 660.711 1.11618 1.11262 0
M  V30 6686 C 661.957 0.867463 1.83311 0
M  V30 6687 C 662.29 -0.605366 1.84524 0
M  V30 6688 O 661.565 -1.44704 1.29965 0
M  V30 6689 C 661.848 1.43207 3.30399 0
M  V30 6690 C 661.701 2.97265 3.3757 0
M  V30 6691 C 663.02 1.08454 4.26528 0
M  V30 6692 H 660.139 0.316578 0.665543 0
M  V30 6693 H 662.781 1.38137 1.30454 0
M  V30 6694 H 660.931 0.994982 3.75543 0
M  V30 6695 H 662.603 3.49591 3.00971 0
M  V30 6696 H 660.846 3.33237 2.77733 0
M  V30 6697 H 661.517 3.31859 4.41105 0
M  V30 6698 H 663.993 1.4619 3.89574 0
M  V30 6699 H 662.869 1.50633 5.27826 0
M  V30 6700 H 663.13 -0.00444568 4.421 0
M  V30 6701 N 662.189 -1.289 0.906776 0
M  V30 6702 C 663.417 -1.99401 0.551969 0
M  V30 6703 C 663.832 -1.67816 -0.865048 0
M  V30 6704 O 663.189 -0.927078 -1.57199 0
M  V30 6705 C 663.24 -3.53779 0.743152 0
M  V30 6706 O 662.961 -3.84248 2.1044 0
M  V30 6707 C 664.462 -4.41543 0.39424 0
M  V30 6708 H 661.682 -0.636926 0.211106 0
M  V30 6709 H 664.226 -1.64266 1.21807 0
M  V30 6710 H 662.381 -3.87201 0.124143 0
M  V30 6711 H 662.795 -4.78904 2.13895 0
M  V30 6712 H 664.269 -5.48957 0.578814 0
M  V30 6713 H 664.746 -4.34073 -0.669137 0
M  V30 6714 H 665.352 -4.13605 0.990491 0
M  V30 6715 N 663.667 -0.670007 -1.42649 0
M  V30 6716 C 664.944 -0.119451 -1.95235 0
M  V30 6717 C 665.324 1.36461 -1.61064 0
M  V30 6718 O 664.672 2.09843 -0.904329 0
M  V30 6719 C 664.882 -0.383498 -3.46887 0
M  V30 6720 C 666.23 -0.297431 -4.23557 0
M  V30 6721 O 667.254 -0.31698 -3.54787 0
M  V30 6722 O 666.113 -0.235507 -5.45992 0
M  V30 6723 H 663.207 -8.85474e-05 -0.827 0
M  V30 6724 H 665.753 -0.744406 -1.52501 0
M  V30 6725 H 664.525 -1.41174 -3.64946 0
M  V30 6726 H 664.148 0.273702 -3.96657 0
M  V30 6727 N 665.145 1.52092 -0.413018 0
M  V30 6728 C 666.37 2.06756 0.163338 0
M  V30 6729 C 666.795 1.28073 1.37764 0
M  V30 6730 O 666.153 0.312015 1.78595 0
M  V30 6731 C 666.201 3.57278 0.488322 0
M  V30 6732 O 665.305 3.80986 1.57871 0
M  V30 6733 H 664.646 0.663882 0.0125068 0
M  V30 6734 H 667.176 1.95988 -0.587339 0
M  V30 6735 H 667.186 4.01125 0.745836 0
M  V30 6736 H 665.861 4.13978 -0.399327 0
M  V30 6737 H 664.438 3.49017 1.31306 0
M  V30 6738 N 666.623 0.143563 1.56945 0
M  V30 6739 C 667.57 -0.797433 2.16586 0
M  V30 6740 C 668.54 -1.24654 1.09775 0
M  V30 6741 O 669.725 -1.31968 1.37801 0
M  V30 6742 C 666.865 -2.03253 2.78895 0
M  V30 6743 C 665.978 -1.62954 4.00087 0
M  V30 6744 C 665.113 -2.81617 4.50406 0
M  V30 6745 C 664.152 -2.37675 5.64072 0
M  V30 6746 N 663.289 -3.49335 6.09023 0
M  V30 6747 H 668.129 -0.282023 2.96662 0
M  V30 6748 H 665.666 -0.127494 1.46546 0
M  V30 6749 H 667.624 -2.75653 3.13163 0
M  V30 6750 H 666.254 -2.52211 2.01469 0
M  V30 6751 H 665.306 -0.803322 3.71821 0
M  V30 6752 H 666.618 -1.26679 4.82446 0
M  V30 6753 H 665.772 -3.62212 4.86711 0
M  V30 6754 H 664.511 -3.21134 3.67048 0
M  V30 6755 H 663.516 -1.55519 5.27346 0
M  V30 6756 H 664.741 -1.99247 6.49213 0
M  V30 6757 H 662.687 -3.8848 5.28601 0
M  V30 6758 H 662.604 -3.17064 6.86299 0
M  V30 6759 H 663.872 -4.30297 6.49973 0
M  V30 6760 N 668.101 -1.57061 -0.130224 0
M  V30 6761 C 669.326 -1.88802 -0.858409 0
M  V30 6762 C 669.751 -0.734353 -1.73173 0
M  V30 6763 O 669.109 0.315529 -1.78533 0
M  V30 6764 C 669.157 -3.19228 -1.67708 0
M  V30 6765 O 668.261 -3.04343 -2.78297 0
M  V30 6766 H 667.602 -0.619849 -0.238083 0
M  V30 6767 H 670.132 -2.04271 -0.115995 0
M  V30 6768 H 670.142 -3.51669 -2.06864 0
M  V30 6769 H 668.817 -4.02793 -1.0359 0
M  V30 6770 H 667.394 -2.83346 -2.42425 0
M  V30 6771 N 669.579 0.400081 -1.52437 0
M  V30 6772 C 670.511 1.50729 -1.72666 0
M  V30 6773 C 671.524 1.51058 -0.607075 0
M  V30 6774 O 672.713 1.5516 -0.88248 0
M  V30 6775 C 669.813 2.89604 -1.76019 0
M  V30 6776 C 668.986 3.13365 -3.05157 0
M  V30 6777 C 668.045 4.32163 -3.00203 0
M  V30 6778 O 667.071 4.29004 -3.74092 0
M  V30 6779 N 668.273 5.3776 -2.18619 0
M  V30 6780 H 671.038 1.33767 -2.68191 0
M  V30 6781 H 668.599 0.58948 -1.50787 0
M  V30 6782 H 670.591 3.67159 -1.70225 0
M  V30 6783 H 669.161 2.99979 -0.879284 0
M  V30 6784 H 668.381 2.23774 -3.24529 0
M  V30 6785 H 669.669 3.26089 -3.90568 0
M  V30 6786 H 669.067 5.43177 -1.58035 0
M  V30 6787 H 667.624 6.14023 -2.18674 0
M  V30 6788 N 671.057 1.43213 0.657864 0
M  V30 6789 C 672.02 1.47687 1.75275 0
M  V30 6790 C 673.02 0.362179 1.56668 0
M  V30 6791 O 674.21 0.623734 1.62651 0
M  V30 6792 C 671.342 1.32497 3.14098 0
M  V30 6793 H 672.535 2.4519 1.7269 0
M  V30 6794 H 670.088 1.2991 0.869087 0
M  V30 6795 H 670.823 0.359831 3.22298 0
M  V30 6796 H 670.608 2.13299 3.29008 0
M  V30 6797 H 672.098 1.38549 3.93946 0
M  V30 6798 N 672.536 -0.895792 1.29666 0
M  V30 6799 C 673.468 -2.00563 1.10937 0
M  V30 6800 C 674.481 -1.62705 0.055734 0
M  V30 6801 O 675.67 -1.7595 0.300656 0
M  V30 6802 C 672.77 -3.32262 0.667448 0
M  V30 6803 C 671.943 -3.98625 1.80047 0
M  V30 6804 C 671.002 -5.08617 1.3489 0
M  V30 6805 O 670.028 -5.30837 2.05429 0
M  V30 6806 N 671.23 -5.80076 0.221937 0
M  V30 6807 H 673.995 -2.17184 2.06522 0
M  V30 6808 H 671.556 -1.06822 1.21658 0
M  V30 6809 H 673.548 -4.03196 0.348586 0
M  V30 6810 H 672.118 -3.11985 -0.196055 0
M  V30 6811 H 671.338 -3.21005 2.28801 0
M  V30 6812 H 672.626 -4.39704 2.56003 0
M  V30 6813 H 672.024 -5.64514 -0.366084 0
M  V30 6814 H 670.581 -6.51789 -0.0375346 0
M  V30 6815 N 674.014 -1.12206 -1.10668 0
M  V30 6816 C 675.239 -0.898938 -1.86906 0
M  V30 6817 C 675.664 0.546346 -1.79991 0
M  V30 6818 O 675.022 1.38655 -1.1681 0
M  V30 6819 C 675.07 -1.37529 -3.33344 0
M  V30 6820 O 674.174 -0.55218 -4.08687 0
M  V30 6821 H 673.515 -0.323163 -0.580053 0
M  V30 6822 H 676.045 -1.49355 -1.39837 0
M  V30 6823 H 676.055 -1.3733 -3.84193 0
M  V30 6824 H 674.73 -2.42767 -3.37693 0
M  V30 6825 H 673.307 -0.620947 -3.67694 0
M  V30 6826 N 675.492 1.28418 -0.913599 0
M  V30 6827 C 676.72 1.99106 -0.562536 0
M  V30 6828 C 677.135 1.68273 0.856137 0
M  V30 6829 O 676.492 0.935401 1.56705 0
M  V30 6830 C 676.543 3.5338 -0.761903 0
M  V30 6831 O 676.264 3.83127 -2.12475 0
M  V30 6832 C 677.765 4.41328 -0.417651 0
M  V30 6833 H 674.985 0.635798 -0.214481 0
M  V30 6834 H 677.529 1.63618 -1.22676 0
M  V30 6835 H 675.684 3.8713 -0.144676 0
M  V30 6836 H 676.098 4.77763 -2.16431 0
M  V30 6837 H 677.572 5.48642 -0.607919 0
M  V30 6838 H 678.049 4.34422 0.646108 0
M  V30 6839 H 678.655 4.13074 -1.01241 0
M  V30 6840 N 676.97 0.677563 1.42291 0
M  V30 6841 C 678.247 0.129803 1.95169 0
M  V30 6842 C 678.627 -1.35605 1.61786 0
M  V30 6843 O 677.975 -2.09361 0.915444 0
M  V30 6844 C 678.185 0.401889 3.46678 0
M  V30 6845 C 679.533 0.319889 4.23393 0
M  V30 6846 O 680.557 0.33579 3.54614 0
M  V30 6847 O 679.416 0.264459 5.4586 0
M  V30 6848 H 676.51 0.00447433 0.826988 0
M  V30 6849 H 679.056 0.752483 1.52105 0
M  V30 6850 H 677.828 1.43108 3.64192 0
M  V30 6851 H 677.451 -0.252662 3.96796 0
M  V30 6852 N 678.448 -1.51871 0.421078 0
M  V30 6853 C 679.673 -2.0684 -0.152371 0
M  V30 6854 C 680.098 -1.28802 -1.37083 0
M  V30 6855 O 679.456 -0.321482 -1.78427 0
M  V30 6856 C 679.504 -3.57532 -0.469368 0
M  V30 6857 O 678.608 -3.81818 -1.55848 0
M  V30 6858 H 677.949 -0.663939 -0.00898586 0
M  V30 6859 H 680.479 -1.95674 0.597724 0
M  V30 6860 H 680.489 -4.01515 -0.724553 0
M  V30 6861 H 679.164 -4.13761 0.421276 0
M  V30 6862 H 677.741 -3.49709 -1.29453 0
M  V30 6863 N 679.926 -0.151884 -1.56866 0
M  V30 6864 C 681.151 0.508044 -2.01081 0
M  V30 6865 C 681.576 1.57306 -1.03134 0
M  V30 6866 O 680.934 1.81298 -0.0078309 0
M  V30 6867 C 680.982 1.08106 -3.44014 0
M  V30 6868 O 680.086 2.19577 -3.49084 0
M  V30 6869 H 679.427 0.123757 -0.652365 0
M  V30 6870 H 681.957 -0.250055 -2.03066 0
M  V30 6871 H 681.967 1.40851 -3.82916 0
M  V30 6872 H 680.642 0.301168 -4.14808 0
M  V30 6873 H 679.219 1.88023 -3.22027 0
M  V30 6874 N 681.404 1.57128 0.121893 0
M  V30 6875 C 682.351 2.0013 1.14964 0
M  V30 6876 C 683.321 0.872959 1.4131 0
M  V30 6877 O 684.506 1.13696 1.53225 0
M  V30 6878 C 681.646 2.40824 2.4718 0
M  V30 6879 C 680.759 3.67061 2.27794 0
M  V30 6880 C 679.894 3.96749 3.53219 0
M  V30 6881 C 678.933 5.16178 3.28978 0
M  V30 6882 N 678.07 5.41751 4.46599 0
M  V30 6883 H 682.91 2.8772 0.775947 0
M  V30 6884 H 680.447 1.42328 0.371652 0
M  V30 6885 H 682.405 2.62454 3.24305 0
M  V30 6886 H 681.035 1.56279 2.82448 0
M  V30 6887 H 680.087 3.53063 1.416 0
M  V30 6888 H 681.399 4.5434 2.05857 0
M  V30 6889 H 680.553 4.19012 4.38764 0
M  V30 6890 H 679.292 3.07941 3.78185 0
M  V30 6891 H 678.297 4.93762 2.41824 0
M  V30 6892 H 679.522 6.06561 3.05386 0
M  V30 6893 H 677.468 4.55899 4.71691 0
M  V30 6894 H 677.385 6.23347 4.27756 0
M  V30 6895 H 678.653 5.68531 5.33285 0
M  V30 6896 N 682.882 -0.391992 1.52647 0
M  V30 6897 C 684.159 -1.15136 1.58123 0
M  V30 6898 C 684.539 -2.07786 0.372597 0
M  V30 6899 O 683.887 -2.19374 -0.639304 0
M  V30 6900 C 684.097 -1.91367 2.91856 0
M  V30 6901 C 685.445 -2.46833 3.45483 0
M  V30 6902 O 686.469 -2.01527 2.9371 0
M  V30 6903 O 685.328 -3.29587 4.3593 0
M  V30 6904 H 682.422 -0.526649 0.637629 0
M  V30 6905 H 684.968 -0.397386 1.64982 0
M  V30 6906 H 683.74 -1.23597 3.71268 0
M  V30 6907 H 683.363 -2.73732 2.88369 0
M  V30 6908 N 684.36 -1.4356 -0.65026 0
M  V30 6909 C 685.771 -1.40324 -1.2315 0
M  V30 6910 C 686.122 -0.108812 -1.95898 0
M  V30 6911 O 685.247 0.79163 -2.01401 0
M  V30 6912 C 685.842 -2.54195 -2.23987 0
M  V30 6913 C 684.401 -2.54215 -2.77582 0
M  V30 6914 C 683.548 -2.31752 -1.5227 0
M  V30 6915 H 686.499 -1.52418 -0.442095 0
M  V30 6916 H 686.52 -2.25854 -3.0622 0
M  V30 6917 H 686.032 -3.48392 -1.71011 0
M  V30 6918 H 684.133 -1.63907 -3.34612 0
M  V30 6919 H 684.246 -3.52081 -3.24925 0
M  V30 6920 H 682.61 -1.80476 -1.79723 0
M  V30 6921 H 683.393 -3.28037 -1.01225 0
M  V30 6922 N 685.838 0.888903 -1.30139 0
M  V30 6923 C 687.066 1.67358 -1.21651 0
M  V30 6924 C 687.481 1.87499 0.221246 0
M  V30 6925 O 686.838 1.41969 1.14677 0
M  V30 6926 C 686.889 3.05213 -1.93719 0
M  V30 6927 O 686.61 2.85984 -3.31881 0
M  V30 6928 C 688.111 3.9964 -1.9184 0
M  V30 6929 H 685.331 0.522365 -0.42116 0
M  V30 6930 H 687.875 1.11086 -1.71698 0
M  V30 6931 H 686.03 3.5823 -1.4748 0
M  V30 6932 H 686.444 3.73411 -3.68327 0
M  V30 6933 H 687.918 4.93749 -2.46811 0
M  V30 6934 H 688.395 4.29955 -0.896409 0
M  V30 6935 H 689.001 3.52558 -2.37872 0
M  V30 6936 N 687.317 1.12792 1.10072 0
M  V30 6937 C 688.264 0.79921 2.16521 0
M  V30 6938 C 689.234 -0.235726 1.64419 0
M  V30 6939 O 690.419 -0.109457 1.90486 0
M  V30 6940 C 687.559 0.264091 3.44088 0
M  V30 6941 C 686.672 1.35729 4.10124 0
M  V30 6942 C 685.807 0.781212 5.25424 0
M  V30 6943 C 684.846 1.85327 5.8337 0
M  V30 6944 N 683.983 1.29564 6.90042 0
M  V30 6945 H 688.823 1.71105 2.43981 0
M  V30 6946 H 686.36 0.854225 1.19756 0
M  V30 6947 H 688.318 -0.0642423 4.17151 0
M  V30 6948 H 686.948 -0.610901 3.16967 0
M  V30 6949 H 686 1.80234 3.34993 0
M  V30 6950 H 687.312 2.16782 4.4923 0
M  V30 6951 H 686.466 0.403769 6.05355 0
M  V30 6952 H 685.205 -0.0604686 4.87663 0
M  V30 6953 H 684.21 2.23986 5.02106 0
M  V30 6954 H 685.435 2.69824 6.23195 0
M  V30 6955 H 683.381 0.475844 6.54272 0
M  V30 6956 H 683.298 2.04271 7.2788 0
M  V30 6957 H 684.566 0.945545 7.73744 0
M  V30 6958 N 688.795 -1.27931 0.920396 0
M  V30 6959 C 690.023 -1.98805 0.573087 0
M  V30 6960 C 690.438 -1.68724 -0.847201 0
M  V30 6961 O 689.795 -0.943699 -1.56207 0
M  V30 6962 C 689.846 -3.52971 0.780633 0
M  V30 6963 O 689.567 -3.81994 2.14504 0
M  V30 6964 C 691.068 -4.411 0.44105 0
M  V30 6965 H 688.288 -0.634651 0.21785 0
M  V30 6966 H 690.832 -1.62965 1.23542 0
M  V30 6967 H 688.987 -3.87048 0.165204 0
M  V30 6968 H 689.401 -4.76609 2.18962 0
M  V30 6969 H 690.875 -5.48312 0.637006 0
M  V30 6970 H 691.352 -4.34758 -0.62306 0
M  V30 6971 H 691.958 -4.12532 1.0343 0
M  V30 6972 N 690.273 -0.685099 -1.4193 0
M  V30 6973 C 691.689 -0.355632 -1.55587 0
M  V30 6974 C 691.889 1.13823 -1.66273 0
M  V30 6975 O 690.945 1.92387 -1.63534 0
M  V30 6976 C 692.258 -1.09498 -2.80055 0
M  V30 6977 C 693.806 -1.07831 -2.93839 0
M  V30 6978 C 694.281 -1.79919 -4.21181 0
M  V30 6979 N 695.772 -1.76837 -4.28115 0
M  V30 6980 C 696.507 -2.29463 -5.25485 0
M  V30 6981 N 696.003 -2.90516 -6.28945 0
M  V30 6982 N 697.796 -2.19779 -5.17353 0
M  V30 6983 H 689.947 -1.65412 -1.33239 0
M  V30 6984 H 692.21 -0.697453 -0.642078 0
M  V30 6985 H 691.916 -2.14997 -2.78333 0
M  V30 6986 H 691.79 -0.666813 -3.71259 0
M  V30 6987 H 694.177 -0.0316152 -2.95083 0
M  V30 6988 H 694.258 -1.54545 -2.03837 0
M  V30 6989 H 693.902 -2.84562 -4.20698 0
M  V30 6990 H 693.832 -1.30647 -5.10136 0
M  V30 6991 H 696.323 -1.32315 -3.53979 0
M  V30 6992 H 696.636 -3.28266 -6.99615 0
M  V30 6993 H 694.981 -2.94589 -6.29478 0
M  V30 6994 H 698.172 -1.71763 -4.35448 0
M  V30 6995 H 698.345 -2.61097 -5.9307 0
M  V30 6996 N 691.751 1.51645 -0.429126 0
M  V30 6997 C 692.698 2.27542 0.386446 0
M  V30 6998 C 693.668 1.30786 1.02393 0
M  V30 6999 O 694.853 1.59678 1.0444 0
M  V30 7000 C 691.993 3.11457 1.48623 0
M  V30 7001 C 691.106 4.23196 0.867691 0
M  V30 7002 C 690.241 4.94435 1.94183 0
M  V30 7003 C 689.28 5.98108 1.30129 0
M  V30 7004 N 688.417 6.62786 2.31644 0
M  V30 7005 H 693.257 2.968 -0.267155 0
M  V30 7006 H 690.794 1.46397 -0.143591 0
M  V30 7007 H 692.752 3.58429 2.13506 0
M  V30 7008 H 691.382 2.44329 2.10957 0
M  V30 7009 H 690.434 3.80248 0.107373 0
M  V30 7010 H 691.746 4.97499 0.35997 0
M  V30 7011 H 690.9 5.44914 2.66747 0
M  V30 7012 H 689.639 4.19744 2.48326 0
M  V30 7013 H 688.644 5.4693 0.561082 0
M  V30 7014 H 689.869 6.74751 0.767303 0
M  V30 7015 H 687.815 5.90913 2.84883 0
M  V30 7016 H 687.732 7.32828 1.85741 0
M  V30 7017 H 689 7.17897 3.03717 0
M  V30 7018 N 693.229 0.160201 1.56784 0
M  V30 7019 C 694.478 -0.487619 1.95717 0
M  V30 7020 C 694.791 -1.65136 1.0483 0
M  V30 7021 O 695.997 -2.36468 1.33398 0
M  V30 7022 C 694.453 -0.91888 3.47972 0
M  V30 7023 C 694.061 0.218655 4.47466 0
M  V30 7024 C 695.805 -1.53575 3.95746 0
M  V30 7025 C 693.712 -0.231614 5.90946 0
M  V30 7026 H 692.642 -0.185939 0.730714 0
M  V30 7027 H 695.293 0.246657 1.81835 0
M  V30 7028 H 693.675 -1.70881 3.57234 0
M  V30 7029 H 694.849 0.995825 4.49911 0
M  V30 7030 H 693.164 0.744767 4.09685 0
M  V30 7031 H 695.761 -1.88448 5.00391 0
M  V30 7032 H 696.104 -2.42959 3.38048 0
M  V30 7033 H 696.637 -0.810467 3.89456 0
M  V30 7034 H 693.376 0.62718 6.52493 0
M  V30 7035 H 692.896 -0.974379 5.91833 0
M  V30 7036 H 694.575 -0.67922 6.43425 0
M  V30 7037 N 694.707 -1.5719 -0.113559 0
M  V30 7038 C 695.654 -2.00736 -1.13901 0
M  V30 7039 C 696.624 -0.88044 -1.40846 0
M  V30 7040 O 697.809 -1.14507 -1.5262 0
M  V30 7041 C 694.949 -2.42132 -2.45899 0
M  V30 7042 C 694.062 -3.68264 -2.25844 0
M  V30 7043 C 693.197 -3.98617 -3.5111 0
M  V30 7044 C 692.236 -5.17915 -3.26236 0
M  V30 7045 N 691.373 -5.44111 -4.4372 0
M  V30 7046 H 696.213 -2.88128 -0.760677 0
M  V30 7047 H 693.75 -1.42523 -0.364099 0
M  V30 7048 H 695.708 -2.6417 -3.22908 0
M  V30 7049 H 694.338 -1.57775 -2.81615 0
M  V30 7050 H 693.39 -3.53809 -1.39726 0
M  V30 7051 H 694.702 -4.55425 -2.03444 0
M  V30 7052 H 693.856 -4.21333 -4.36536 0
M  V30 7053 H 692.595 -3.09942 -3.76546 0
M  V30 7054 H 691.6 -4.95038 -2.39202 0
M  V30 7055 H 692.825 -6.08172 -3.02165 0
M  V30 7056 H 690.771 -4.58394 -4.69266 0
M  V30 7057 H 690.688 -6.25606 -4.24444 0
M  V30 7058 H 691.956 -5.71351 -5.30263 0
M  V30 7059 N 696.185 0.383891 -1.52853 0
M  V30 7060 C 697.413 1.1495 -1.7203 0
M  V30 7061 C 697.828 1.83578 -0.440957 0
M  V30 7062 O 697.185 1.72872 0.584925 0
M  V30 7063 C 697.236 2.19368 -2.87333 0
M  V30 7064 O 696.957 1.53536 -4.10315 0
M  V30 7065 C 698.458 3.08616 -3.18231 0
M  V30 7066 H 695.678 0.344445 -0.575846 0
M  V30 7067 H 698.222 0.448397 -1.99524 0
M  V30 7068 H 696.377 2.85105 -2.62286 0
M  V30 7069 H 696.791 2.2296 -4.74752 0
M  V30 7070 H 698.265 3.77902 -4.02361 0
M  V30 7071 H 698.742 3.72409 -2.32826 0
M  V30 7072 H 699.348 2.48518 -3.45136 0
M  V30 7073 N 697.663 1.43903 0.642637 0
M  V30 7074 C 698.909 1.46296 1.40447 0
M  V30 7075 C 699.242 0.0908361 1.93987 0
M  V30 7076 O 698.517 -0.889884 1.72949 0
M  V30 7077 C 698.8 2.51399 2.57819 0
M  V30 7078 C 698.653 3.97926 2.09702 0
M  V30 7079 C 699.972 2.53125 3.60022 0
M  V30 7080 H 697.091 0.532676 0.509338 0
M  V30 7081 H 699.733 1.75515 0.727635 0
M  V30 7082 H 697.883 2.26614 3.1556 0
M  V30 7083 H 699.555 4.33804 1.5688 0
M  V30 7084 H 697.798 4.10252 1.40982 0
M  V30 7085 H 698.469 4.67096 2.94152 0
M  V30 7086 H 700.945 2.75242 3.12059 0
M  V30 7087 H 699.821 3.28589 4.39682 0
M  V30 7088 H 700.082 1.56895 4.13324 0
M  V30 7089 N 699.141 -0.881989 1.30609 0
M  V30 7090 C 700.387 -1.63647 1.19781 0
M  V30 7091 C 700.72 -1.92632 -0.246265 0
M  V30 7092 O 699.995 -1.54938 -1.17577 0
M  V30 7093 C 700.278 -2.97437 2.02985 0
M  V30 7094 C 700.131 -2.75406 3.55628 0
M  V30 7095 C 701.45 -3.98397 1.86997 0
M  V30 7096 H 698.569 -0.593841 0.436488 0
M  V30 7097 H 701.211 -1.02041 1.60273 0
M  V30 7098 H 699.361 -3.50018 1.68581 0
M  V30 7099 H 701.033 -2.2959 4.00107 0
M  V30 7100 H 699.276 -2.09856 3.79662 0
M  V30 7101 H 699.947 -3.70552 4.09139 0
M  V30 7102 H 702.423 -3.54986 2.17081 0
M  V30 7103 H 701.299 -4.89916 2.47536 0
M  V30 7104 H 701.56 -4.3424 0.829943 0
M  V30 7105 N 700.619 -1.13374 -1.09472 0
M  V30 7106 C 701.551 -0.768466 -2.15933 0
M  V30 7107 C 702.564 0.209585 -1.61445 0
M  V30 7108 O 703.753 -0.010539 -1.78497 0
M  V30 7109 C 700.853 -0.118266 -3.38694 0
M  V30 7110 C 700.026 -1.12829 -4.22597 0
M  V30 7111 C 699.085 -0.503875 -5.23782 0
M  V30 7112 O 698.111 -1.16374 -5.57177 0
M  V30 7113 N 699.313 0.724288 -5.75964 0
M  V30 7114 H 702.078 -1.68457 -2.47876 0
M  V30 7115 H 699.639 -1.02668 -1.25183 0
M  V30 7116 H 701.631 0.311698 -4.03498 0
M  V30 7117 H 700.201 0.700769 -3.04644 0
M  V30 7118 H 699.421 -1.73556 -3.53938 0
M  V30 7119 H 700.709 -1.81095 -4.75481 0
M  V30 7120 H 700.107 1.27918 -5.51048 0
M  V30 7121 H 698.664 1.09692 -6.42504 0
M  V30 7122 N 702.098 1.27442 -0.927168 0
M  V30 7123 C 703.008 2.30599 -0.431448 0
M  V30 7124 C 704.024 1.67028 0.48761 0
M  V30 7125 O 705.2 1.97962 0.370546 0
M  V30 7126 C 702.265 3.45327 0.308292 0
M  V30 7127 C 701.326 4.24418 -0.645615 0
M  V30 7128 C 700.559 5.33667 0.0589164 0
M  V30 7129 O 700.782 5.5589 1.27838 0
M  V30 7130 O 699.716 5.98774 -0.612638 0
M  V30 7131 H 703.542 2.75036 -1.28797 0
M  V30 7132 H 701.127 1.32382 -0.692495 0
M  V30 7133 H 703.009 4.15107 0.725555 0
M  V30 7134 H 701.684 3.02945 1.14043 0
M  V30 7135 H 700.591 3.57174 -1.11255 0
M  V30 7136 H 701.924 4.70512 -1.44496 0
M  V30 7137 N 703.576 0.692616 1.41565 0
M  V30 7138 C 704.509 -0.025063 2.28186 0
M  V30 7139 C 705.487 -0.790912 1.42068 0
M  V30 7140 O 706.671 -0.782344 1.71498 0
M  V30 7141 C 703.798 -1.04285 3.22246 0
M  V30 7142 C 702.844 -0.370515 4.24888 0
M  V30 7143 S 703.677 0.884942 5.28137 0
M  V30 7144 C 704.833 -0.131324 6.25762 0
M  V30 7145 H 705.066 0.709626 2.88707 0
M  V30 7146 H 702.599 0.482783 1.46658 0
M  V30 7147 H 704.557 -1.62493 3.7697 0
M  V30 7148 H 703.218 -1.7501 2.60827 0
M  V30 7149 H 702.411 -1.13911 4.90959 0
M  V30 7150 H 702.013 0.138411 3.73744 0
M  V30 7151 H 704.305 -0.985527 6.70294 0
M  V30 7152 H 705.248 0.495384 7.06365 0
M  V30 7153 H 705.656 -0.484777 5.62415 0
M  V30 7154 N 705.054 -1.51416 0.437162 0
M  V30 7155 C 706.3 -2.02386 -0.129555 0
M  V30 7156 C 706.633 -1.32071 -1.42376 0
M  V30 7157 O 705.908 -0.43559 -1.8956 0
M  V30 7158 C 706.191 -3.5841 -0.348487 0
M  V30 7159 C 706.044 -4.39341 0.964352 0
M  V30 7160 C 707.363 -4.25654 -1.11834 0
M  V30 7161 H 704.482 -0.735587 -0.0456109 0
M  V30 7162 H 707.124 -1.81055 0.576124 0
M  V30 7163 H 705.274 -3.76716 -0.949592 0
M  V30 7164 H 706.946 -4.32685 1.59942 0
M  V30 7165 H 705.189 -4.04432 1.56898 0
M  V30 7166 H 705.86 -5.4667 0.765212 0
M  V30 7167 H 708.336 -4.11617 -0.609165 0
M  V30 7168 H 707.212 -5.34704 -1.24029 0
M  V30 7169 H 707.473 -3.86502 -2.14636 0
M  V30 7170 N 706.532 -0.168513 -1.56696 0
M  V30 7171 C 707.48 0.779791 -2.19139 0
M  V30 7172 C 708.474 1.23957 -1.1546 0
M  V30 7173 O 709.68 1.20555 -1.33666 0
M  V30 7174 H 706.055 0.269739 -0.701958 0
M  V30 7175 H 708.026 0.229156 -2.97519 0
M  V30 7176 C 706.775 2.00003 -2.84419 0
M  V30 7177 H 706.098 1.65527 -3.63924 0
M  V30 7178 H 707.538 2.64251 -3.31583 0
M  V30 7179 C 705.997 2.82187 -1.84044 0
M  V30 7180 O 706.527 3.79247 -1.32418 0
M  V30 7181 N 704.733 2.47145 -1.52864 0
M  V30 7182 H 704.28 1.68277 -1.9504 0
M  V30 7183 H 704.238 3.02422 -0.859569 0
M  V30 7184 N 708.01 1.57248 0.105221 0
M  V30 7185 C 709.258 1.85204 0.808951 0
M  V30 7186 C 709.579 0.75574 1.7976 0
M  V30 7187 O 708.849 -0.218984 1.94672 0
M  V30 7188 H 707.429 0.683346 0.301739 0
M  V30 7189 H 710.091 1.94695 0.0892605 0
M  V30 7190 H 709.187 2.81595 1.34575 0
M  V30 7191 N 709.488 -0.375779 1.53054 0
M  V30 7192 C 710.398 -1.48381 1.81715 0
M  V30 7193 C 711.414 -1.59087 0.704795 0
M  V30 7194 O 712.59 -1.75174 0.993785 0
M  V30 7195 C 709.655 -2.83767 1.99192 0
M  V30 7196 C 708.716 -2.82673 3.23102 0
M  V30 7197 C 707.949 -4.11601 3.39736 0
M  V30 7198 O 708.172 -5.07243 2.60885 0
M  V30 7199 O 707.106 -4.18034 4.33049 0
M  V30 7200 H 710.932 -1.27089 2.7583 0
M  V30 7201 H 708.517 -0.564902 1.38308 0
M  V30 7202 H 710.399 -3.64004 2.12318 0
M  V30 7203 H 709.074 -3.05057 1.08267 0
M  V30 7204 H 707.981 -2.0117 3.15407 0
M  V30 7205 H 709.314 -2.66335 4.13916 0
M  V30 7206 N 710.966 -1.44241 -0.634997 0
M  V30 7207 C 712.212 -1.47038 -1.39669 0
M  V30 7208 C 712.545 -0.101122 -1.93937 0
M  V30 7209 O 711.82 0.880699 -1.73418 0
M  V30 7210 C 712.103 -2.52763 -2.56482 0
M  V30 7211 C 711.956 -3.99032 -2.07589 0
M  V30 7212 C 713.275 -2.55031 -3.58674 0
M  V30 7213 H 710.394 -0.53537 -0.506506 0
M  V30 7214 H 713.036 -1.75898 -0.718317 0
M  V30 7215 H 711.186 -2.28284 -3.14354 0
M  V30 7216 H 712.858 -4.3463 -1.54577 0
M  V30 7217 H 711.101 -4.10994 -1.38804 0
M  V30 7218 H 711.772 -4.68649 -2.91671 0
M  V30 7219 H 714.248 -2.76893 -3.10595 0
M  V30 7220 H 713.124 -3.30916 -4.37934 0
M  V30 7221 H 713.385 -1.59085 -4.12486 0
M  V30 7222 N 712.444 0.87505 -1.31075 0
M  V30 7223 C 713.69 1.63009 -1.20647 0
M  V30 7224 C 714.023 1.9276 0.236045 0
M  V30 7225 O 713.298 1.55559 1.16754 0
M  V30 7226 C 713.581 2.96357 -2.0456 0
M  V30 7227 C 713.434 2.73516 -3.57084 0
M  V30 7228 C 714.753 3.974 -1.89107 0
M  V30 7229 H 711.872 0.591518 -0.439631 0
M  V30 7230 H 714.514 1.0119 -1.60812 0
M  V30 7231 H 712.664 3.49119 -1.70435 0
M  V30 7232 H 714.336 2.27465 -4.01319 0
M  V30 7233 H 712.579 2.0784 -3.80769 0
M  V30 7234 H 713.25 3.68377 -4.11099 0
M  V30 7235 H 715.726 3.5383 -2.18961 0
M  V30 7236 H 714.602 4.88596 -2.5013 0
M  V30 7237 H 714.863 4.33794 -0.85296 0
M  V30 7238 N 713.922 1.13953 1.08869 0
M  V30 7239 C 715.147 0.928559 1.85452 0
M  V30 7240 C 715.572 -0.517642 1.80837 0
M  V30 7241 O 714.93 -1.36779 1.19001 0
M  V30 7242 C 714.978 1.42814 3.31114 0
M  V30 7243 O 714.082 0.617129 4.07756 0
M  V30 7244 H 713.423 0.33235 0.574839 0
M  V30 7245 H 715.953 1.5156 1.37443 0
M  V30 7246 H 715.963 1.43425 3.8196 0
M  V30 7247 H 714.638 2.48109 3.33788 0
M  V30 7248 H 713.215 0.679365 3.66659 0
M  V30 7249 N 715.4 -1.26948 0.933913 0
M  V30 7250 C 716.625 -1.98724 0.593589 0
M  V30 7251 C 717.05 -1.6915 -0.822801 0
M  V30 7252 O 716.408 -0.93533 -1.5531 0
M  V30 7253 C 716.456 -3.50834 0.833542 0
M  V30 7254 O 715.56 -4.12284 -0.0978788 0
M  V30 7255 H 714.901 -0.623683 0.227849 0
M  V30 7256 H 717.431 -1.61599 1.25486 0
M  V30 7257 H 717.441 -4.01018 0.75156 0
M  V30 7258 H 716.116 -3.71691 1.86597 0
M  V30 7259 H 714.693 -3.72884 0.0345443 0
M  V30 7260 N 716.879 -0.700114 -1.41195 0
M  V30 7261 C 717.811 0.00155823 -2.292 0
M  V30 7262 C 718.824 0.739736 -1.45023 0
M  V30 7263 O 720.013 0.589684 -1.68478 0
M  V30 7264 C 717.113 1.02635 -3.22985 0
M  V30 7265 C 716.286 0.356871 -4.35942 0
M  V30 7266 C 715.345 1.28491 -5.10271 0
M  V30 7267 O 714.371 0.775562 -5.63892 0
M  V30 7268 N 715.573 2.61699 -5.18164 0
M  V30 7269 H 718.338 -0.754008 -2.9006 0
M  V30 7270 H 715.899 -0.546504 -1.52397 0
M  V30 7271 H 717.891 1.64902 -3.6958 0
M  V30 7272 H 716.461 1.68341 -2.63401 0
M  V30 7273 H 715.681 -0.445753 -3.91672 0
M  V30 7274 H 716.969 -0.108469 -5.08684 0
M  V30 7275 H 716.367 3.05594 -4.76056 0
M  V30 7276 H 714.924 3.19149 -5.6832 0
M  V30 7277 N 718.357 1.51182 -0.445186 0
M  V30 7278 C 719.603 2.02452 0.11882 0
M  V30 7279 C 719.936 1.32824 1.41673 0
M  V30 7280 O 719.211 0.445637 1.89326 0
M  V30 7281 C 719.494 3.5859 0.329475 0
M  V30 7282 C 719.347 4.38823 -0.987638 0
M  V30 7283 C 720.666 4.26241 1.09575 0
M  V30 7284 H 717.785 0.735819 0.0417092 0
M  V30 7285 H 720.427 1.80747 -0.585718 0
M  V30 7286 H 718.577 3.77214 0.9296 0
M  V30 7287 H 720.249 4.3183 -1.62235 0
M  V30 7288 H 718.492 4.03594 -1.59041 0
M  V30 7289 H 719.163 5.46257 -0.794192 0
M  V30 7290 H 721.639 4.11934 0.587328 0
M  V30 7291 H 720.515 5.35354 1.21191 0
M  V30 7292 H 720.776 3.87635 2.12584 0
M  V30 7293 N 719.835 0.176821 1.56605 0
M  V30 7294 C 720.767 -0.782836 2.15417 0
M  V30 7295 C 721.78 -1.18982 1.11117 0
M  V30 7296 O 722.969 -1.12872 1.38283 0
M  V30 7297 C 720.069 -2.06596 2.68647 0
M  V30 7298 C 719.242 -1.82167 3.9766 0
M  V30 7299 C 718.301 -2.94751 4.35899 0
M  V30 7300 O 717.327 -2.65148 5.03672 0
M  V30 7301 N 718.529 -4.2267 3.97907 0
M  V30 7302 H 721.294 -0.280012 2.98389 0
M  V30 7303 H 718.855 -0.00577529 1.61899 0
M  V30 7304 H 720.847 -2.81018 2.91223 0
M  V30 7305 H 719.417 -2.48054 1.90232 0
M  V30 7306 H 718.637 -0.916208 3.83405 0
M  V30 7307 H 719.925 -1.6322 4.81909 0
M  V30 7308 H 719.323 -4.4958 3.43357 0
M  V30 7309 H 717.88 -4.93778 4.25472 0
M  V30 7310 N 721.313 -1.57302 -0.09688 0
M  V30 7311 C 722.223 -2.05258 -1.13606 0
M  V30 7312 C 723.239 -0.977137 -1.43972 0
M  V30 7313 O 724.415 -1.29018 -1.54649 0
M  V30 7314 C 721.48 -2.46593 -2.43706 0
M  V30 7315 C 720.541 -3.68322 -2.20538 0
M  V30 7316 C 719.774 -4.07676 -3.44435 0
M  V30 7317 O 719.997 -3.47141 -4.52603 0
M  V30 7318 O 718.931 -5.00641 -3.34129 0
M  V30 7319 H 722.757 -2.94069 -0.758752 0
M  V30 7320 H 720.342 -1.46164 -0.309263 0
M  V30 7321 H 722.224 -2.73814 -3.20318 0
M  V30 7322 H 720.899 -1.6092 -2.80867 0
M  V30 7323 H 719.806 -3.4622 -1.41713 0
M  V30 7324 H 721.139 -4.54769 -1.88271 0
M  V30 7325 N 722.791 0.367657 -1.53252 0
M  V30 7326 C 724.04 1.10782 -1.68554 0
M  V30 7327 C 724.353 1.90523 -0.442765 0
M  V30 7328 O 725.559 2.6729 -0.47629 0
M  V30 7329 C 724.015 2.01863 -2.97959 0
M  V30 7330 C 723.623 1.27443 -4.29491 0
M  V30 7331 C 725.367 2.75883 -3.22628 0
M  V30 7332 C 723.274 2.17414 -5.49987 0
M  V30 7333 H 722.204 0.417272 -0.628013 0
M  V30 7334 H 724.855 0.368971 -1.79752 0
M  V30 7335 H 723.237 2.7947 -2.80558 0
M  V30 7336 H 724.411 0.549138 -4.57516 0
M  V30 7337 H 722.726 0.652935 -4.11249 0
M  V30 7338 H 725.323 3.43421 -4.09837 0
M  V30 7339 H 725.666 3.41138 -2.38601 0
M  V30 7340 H 726.199 2.0536 -3.40693 0
M  V30 7341 H 722.938 1.5674 -6.36485 0
M  V30 7342 H 722.458 2.87799 -5.26243 0
M  V30 7343 H 724.137 2.77019 -5.84696 0
M  V30 7344 N 724.269 1.44576 0.627338 0
M  V30 7345 C 725.179 1.54232 1.76776 0
M  V30 7346 C 726.195 0.427782 1.6866 0
M  V30 7347 O 727.371 0.685671 1.89369 0
M  V30 7348 C 724.436 1.48738 3.13174 0
M  V30 7349 C 723.497 2.71074 3.32893 0
M  V30 7350 C 722.73 2.65832 4.62784 0
M  V30 7351 O 722.953 1.72048 5.43834 0
M  V30 7352 O 721.887 3.56742 4.84787 0
M  V30 7353 H 725.713 2.50586 1.71582 0
M  V30 7354 H 723.298 1.26865 0.789028 0
M  V30 7355 H 725.18 1.48211 3.94476 0
M  V30 7356 H 723.855 0.555292 3.18902 0
M  V30 7357 H 722.762 2.77168 2.51254 0
M  V30 7358 H 724.095 3.63342 3.32029 0
M  V30 7359 N 725.747 -0.868086 1.31537 0
M  V30 7360 C 726.657 -2.00801 1.21311 0
M  V30 7361 C 727.673 -1.73518 0.129431 0
M  V30 7362 O 728.849 -1.98378 0.347588 0
M  V30 7363 C 725.914 -3.3419 0.922935 0
M  V30 7364 C 724.975 -3.74783 2.0937 0
M  V30 7365 C 724.208 -5.01807 1.81728 0
M  V30 7366 O 724.431 -5.65404 0.753313 0
M  V30 7367 O 723.365 -5.39213 2.67457 0
M  V30 7368 H 727.191 -2.12361 2.17109 0
M  V30 7369 H 724.776 -0.996684 1.11295 0
M  V30 7370 H 726.658 -4.14174 0.777033 0
M  V30 7371 H 725.333 -3.237 -0.00500301 0
M  V30 7372 H 724.24 -2.95432 2.29501 0
M  V30 7373 H 725.573 -3.89902 3.00396 0
M  V30 7374 N 727.225 -1.14528 -1.08264 0
M  V30 7375 C 728.155 -0.856356 -2.1723 0
M  V30 7376 C 729.136 0.189251 -1.69044 0
M  V30 7377 O 730.321 0.0456119 -1.94146 0
M  V30 7378 C 727.451 -0.334662 -3.45684 0
M  V30 7379 C 726.405 -1.31588 -4.0727 0
M  V30 7380 C 725.731 -0.653428 -5.30692 0
M  V30 7381 C 727.031 -2.67866 -4.48381 0
M  V30 7382 H 728.725 -1.76755 -2.41657 0
M  V30 7383 H 726.271 -0.851287 -1.16143 0
M  V30 7384 H 728.224 -0.120128 -4.21229 0
M  V30 7385 H 726.948 0.611967 -3.20815 0
M  V30 7386 H 725.607 -1.51661 -3.33758 0
M  V30 7387 H 725.255 0.299054 -5.0211 0
M  V30 7388 H 724.955 -1.30817 -5.72853 0
M  V30 7389 H 726.479 -0.448453 -6.08951 0
M  V30 7390 H 727.893 -2.51692 -5.15096 0
M  V30 7391 H 726.29 -3.29627 -5.01464 0
M  V30 7392 H 727.36 -3.24632 -3.60198 0
M  V30 7393 N 728.703 1.26451 -0.940633 0
M  V30 7394 C 729.636 2.24771 -0.394094 0
M  V30 7395 C 730.614 1.54169 0.516781 0
M  V30 7396 O 731.798 1.82942 0.454352 0
M  V30 7397 C 728.925 3.3591 0.433807 0
M  V30 7398 C 727.971 4.24472 -0.415464 0
M  V30 7399 S 728.804 5.0293 -1.83907 0
M  V30 7400 C 729.96 6.17546 -1.01921 0
M  V30 7401 H 730.193 2.70782 -1.22737 0
M  V30 7402 H 727.726 1.35308 -0.743709 0
M  V30 7403 H 729.684 4.00387 0.905576 0
M  V30 7404 H 728.345 2.88512 1.24175 0
M  V30 7405 H 727.538 5.03525 0.218833 0
M  V30 7406 H 727.14 3.64857 -0.821897 0
M  V30 7407 H 729.432 6.76996 -0.261227 0
M  V30 7408 H 730.375 6.8528 -1.78318 0
M  V30 7409 H 730.783 5.6176 -0.555511 0
M  V30 7410 O 730.22 0.846016 1.37567 0
M  V30 7411 H 730.911 0.436618 1.88715 0
M  V30 END ATOM
M  V30 BEGIN BOND
M  V30 END BOND
M  V30 END CTAB
M  END
$$$$
