drugbank_target|Q08638 Beta-glucosidase A (DB03206; DB03862; DB04545; DB04658; DB07367; DB07370; DB08090; DB08260)
 OpenBabel12092120003D

  0  0  0     0  0            999 V3000
M  V30 BEGIN CTAB
M  V30 COUNTS 7187 7300 0 0 0
M  V30 BEGIN ATOM
M  V30 1 H -0.908 1.98254 -0.117106 0
M  V30 2 N 0 1.576 0 0
M  V30 3 C 0.933 2.03868 1.02534 0
M  V30 4 C 1.911 0.928543 1.3348 0
M  V30 5 O 3.095 1.19667 1.45644 0
M  V30 6 C 0.222 2.43627 2.35294 0
M  V30 7 C -0.732 3.65373 2.2001 0
M  V30 8 S 0.101 5.13292 1.52614 0
M  V30 9 C 1.257 5.56322 2.86805 0
M  V30 10 H 1.49 2.90518 0.631377 0
M  V30 11 H -0.977 1.52953 0.210867 0
M  V30 12 H 0.981 2.67203 3.11629 0
M  V30 13 H -0.358 1.57376 2.7183 0
M  V30 14 H -1.165 3.90944 3.18086 0
M  V30 15 H -1.563 3.418 1.51819 0
M  V30 16 H 0.729 5.58782 3.83104 0
M  V30 17 H 1.672 6.56266 2.65933 0
M  V30 18 H 2.08 4.83886 2.90714 0
M  V30 19 N 1.4781 -0.272755 1.55222 0
M  V30 20 C 2.4261 -1.35705 1.88909 0
M  V30 21 C 3.4201 -1.5112 0.765456 0
M  V30 22 O 4.6261 -1.52901 0.949802 0
M  V30 23 H 1.0011 -0.453868 0.59959 0
M  V30 24 H 2.9721 -1.04544 2.79487 0
M  V30 25 C 1.7211 -2.71049 2.17779 0
M  V30 26 H 1.0441 -2.59979 3.03728 0
M  V30 27 H 2.4841 -3.45858 2.45272 0
M  V30 28 C 0.9431 -3.22165 0.985473 0
M  V30 29 O 1.4731 -4.01096 0.220233 0
M  V30 30 N -0.3209 -2.7985 0.783108 0
M  V30 31 H -0.7739 -2.15775 1.40708 0
M  V30 32 H -0.8159 -3.14397 -0.0130392 0
M  V30 33 N 2.9562 -1.48159 -0.537278 0
M  V30 34 C 4.2022 -1.56035 -1.29541 0
M  V30 35 C 4.5352 -0.230377 -1.92829 0
M  V30 36 O 3.8102 0.762952 -1.78911 0
M  V30 37 C 4.0932 -2.69323 -2.39034 0
M  V30 38 C 3.9462 -4.12002 -1.80485 0
M  V30 39 C 5.2652 -2.78408 -3.40847 0
M  V30 40 H 2.3842 -0.567992 -0.469632 0
M  V30 41 H 5.0262 -1.80302 -0.599277 0
M  V30 42 H 3.1762 -2.48763 -2.98412 0
M  V30 43 H 4.8482 -4.43981 -1.25215 0
M  V30 44 H 3.0912 -4.19344 -1.11055 0
M  V30 45 H 3.7622 -4.87077 -2.59731 0
M  V30 46 H 6.2382 -2.97012 -2.91416 0
M  V30 47 H 5.1142 -3.59416 -4.14863 0
M  V30 48 H 5.3752 -1.86269 -4.00944 0
M  V30 49 N 4.4343 0.785586 -1.36625 0
M  V30 50 C 5.3813 1.89838 -1.31264 0
M  V30 51 C 6.3513 1.65115 -0.180633 0
M  V30 52 O 7.5363 1.87222 -0.36777 0
M  V30 53 C 4.6763 3.26706 -1.11163 0
M  V30 54 C 3.7893 3.63476 -2.33472 0
M  V30 55 C 2.9243 4.89481 -2.06353 0
M  V30 56 C 1.9633 5.18941 -3.24602 0
M  V30 57 N 1.1003 6.36131 -2.97123 0
M  V30 58 H 5.9403 1.93756 -2.26413 0
M  V30 59 H 3.4773 0.947454 -1.12524 0
M  V30 60 H 5.4353 4.05639 -0.975337 0
M  V30 61 H 4.0653 3.222 -0.196674 0
M  V30 62 H 3.1173 2.79636 -2.57891 0
M  V30 63 H 4.4293 3.81193 -3.21704 0
M  V30 64 H 3.5833 5.76288 -1.89675 0
M  V30 65 H 2.3223 4.73841 -1.15437 0
M  V30 66 H 1.3273 4.30615 -3.41834 0
M  V30 67 H 2.5523 5.36498 -4.16349 0
M  V30 68 H 0.4983 6.21875 -2.08823 0
M  V30 69 H 0.4153 6.54198 -3.78894 0
M  V30 70 H 1.6833 7.2591 -2.84033 0
M  V30 71 N 5.9124 1.20967 1.01018 0
M  V30 72 C 6.8594 0.964281 2.09691 0
M  V30 73 C 7.8294 -0.107853 1.65749 0
M  V30 74 O 9.0144 0.0381987 1.90762 0
M  V30 75 C 6.1544 0.52943 3.41015 0
M  V30 76 C 5.2674 1.67043 3.98398 0
M  V30 77 C 4.4024 1.18525 5.17808 0
M  V30 78 C 3.4414 2.29892 5.67288 0
M  V30 79 N 2.5784 1.82546 6.77954 0
M  V30 80 H 7.4184 1.89463 2.30017 0
M  V30 81 H 4.9554 0.944289 1.1279 0
M  V30 82 H 6.9134 0.258588 4.16398 0
M  V30 83 H 5.5434 -0.363919 3.20742 0
M  V30 84 H 4.5954 2.05603 3.20049 0
M  V30 85 H 5.9074 2.50877 4.31117 0
M  V30 86 H 5.0614 0.870762 6.00419 0
M  V30 87 H 3.8004 0.316887 4.86669 0
M  V30 88 H 2.8054 2.6215 4.83278 0
M  V30 89 H 4.0304 3.17216 6.00459 0
M  V30 90 H 1.9764 0.980454 6.48632 0
M  V30 91 H 1.8934 2.59956 7.09901 0
M  V30 92 H 3.1614 1.54115 7.64113 0
M  V30 93 N 7.3905 -1.2043 1.01659 0
M  V30 94 C 8.6375 -1.89797 0.705917 0
M  V30 95 C 8.9655 -1.78848 -0.764439 0
M  V30 96 O 8.2205 -1.16694 -1.57102 0
M  V30 97 C 8.5195 -3.40464 1.08714 0
M  V30 98 C 8.1855 -3.71614 2.5537 0
M  V30 99 C 6.8475 -3.79826 2.95441 0
M  V30 100 C 9.1995 -3.85915 3.50313 0
M  V30 101 C 6.5275 -3.99797 4.29394 0
M  V30 102 C 8.8795 -4.07396 4.83954 0
M  V30 103 C 7.5435 -4.13837 5.23732 0
M  V30 104 H 6.8135 -0.694518 0.258313 0
M  V30 105 H 9.4605 -1.42691 1.27717 0
M  V30 106 H 7.7655 -3.89385 0.434309 0
M  V30 107 H 9.4625 -3.92433 0.824461 0
M  V30 108 H 6.0525 -3.65822 2.23321 0
M  V30 109 H 10.2365 -3.78926 3.20513 0
M  V30 110 H 5.4925 -4.03018 4.59768 0
M  V30 111 H 9.6665 -4.17404 5.57447 0
M  V30 112 H 7.2935 -4.29064 6.27541 0
M  V30 113 N 8.8686 -0.792821 -1.36206 0
M  V30 114 C 10.2796 -0.429513 -1.81692 0
M  V30 115 C 10.6306 1.04695 -1.65932 0
M  V30 116 O 9.7556 1.81256 -1.18218 0
M  V30 117 C 10.3506 -0.772831 -3.29868 0
M  V30 118 C 8.9096 -0.462307 -3.7355 0
M  V30 119 C 8.0566 -1.00569 -2.5842 0
M  V30 120 H 11.0076 -0.985672 -1.24379 0
M  V30 121 H 11.0286 -0.0651928 -3.80444 0
M  V30 122 H 10.5406 -1.84747 -3.41307 0
M  V30 123 H 8.6416 0.604158 -3.67669 0
M  V30 124 H 8.7546 -0.985299 -4.68859 0
M  V30 125 H 7.1186 -0.428734 -2.51066 0
M  V30 126 H 7.9016 -2.08616 -2.72643 0
M  V30 127 N 10.3467 1.47872 -0.545128 0
M  V30 128 C 11.2567 2.33633 0.212746 0
M  V30 129 C 12.2727 1.4744 0.923983 0
M  V30 130 O 13.4487 1.80393 0.895572 0
M  V30 131 C 10.5137 3.23884 1.23693 0
M  V30 132 C 9.5747 4.25961 0.534417 0
M  V30 133 C 8.8077 5.11899 1.5098 0
M  V30 134 O 9.0307 5.00077 2.7437 0
M  V30 135 O 7.9647 5.92831 1.0409 0
M  V30 136 H 11.7907 2.99714 -0.490416 0
M  V30 137 H 9.3757 1.46235 -0.305871 0
M  V30 138 H 11.2577 3.79666 1.82843 0
M  V30 139 H 9.9327 2.60446 1.92222 0
M  V30 140 H 8.8397 3.73972 -0.0979679 0
M  V30 141 H 10.1727 4.92079 -0.109213 0
M  V30 142 N 11.8248 0.280983 1.55075 0
M  V30 143 C 13.0728 -0.333455 1.9933 0
M  V30 144 C 13.3938 -1.55937 1.17085 0
M  V30 145 O 12.6638 -1.94143 0.261805 0
M  V30 146 H 11.2438 -0.126197 0.736263 0
M  V30 147 H 13.9058 0.387678 1.91005 0
M  V30 148 H 13.0018 -0.619292 3.05894 0
M  V30 149 N 13.3029 -1.57598 0.00835791 0
M  V30 150 C 14.5499 -1.90928 -0.674732 0
M  V30 151 C 14.8779 -0.88277 -1.73313 0
M  V30 152 O 14.1329 0.111294 -1.95383 0
M  V30 153 C 14.4319 -3.3101 -1.34787 0
M  V30 154 C 14.0979 -4.48922 -0.421861 0
M  V30 155 C 12.7599 -4.8091 -0.166927 0
M  V30 156 C 15.1119 -5.20755 0.215211 0
M  V30 157 C 12.4399 -5.821 0.733232 0
M  V30 158 C 14.7919 -6.22905 1.1033 0
M  V30 159 C 13.4559 -6.53346 1.36733 0
M  V30 160 H 12.7259 -0.698656 -0.246902 0
M  V30 161 H 15.3729 -1.91387 0.0656779 0
M  V30 162 H 13.6779 -3.26714 -2.16253 0
M  V30 163 H 15.3749 -3.54061 -1.8826 0
M  V30 164 H 11.9649 -4.23934 -0.630729 0
M  V30 165 H 16.1489 -4.9629 0.0312829 0
M  V30 166 H 11.4049 -6.04042 0.945712 0
M  V30 167 H 15.5789 -6.77694 1.60325 0
M  V30 168 H 13.2059 -7.31573 2.06652 0
M  V30 169 N 14.781 0.264519 -1.55364 0
M  V30 170 C 15.711 1.33121 -1.91836 0
M  V30 171 C 16.692 1.51101 -0.781192 0
M  V30 172 O 17.877 1.64003 -1.04003 0
M  V30 173 C 15.007 2.68921 -2.19769 0
M  V30 174 C 13.961 2.65661 -3.35571 0
M  V30 175 C 13.287 4.05093 -3.49004 0
M  V30 176 C 14.587 2.24187 -4.71739 0
M  V30 177 H 16.281 1.02844 -2.81182 0
M  V30 178 H 13.827 0.493286 -1.35287 0
M  V30 179 H 15.78 3.43663 -2.43872 0
M  V30 180 H 14.504 3.00799 -1.27231 0
M  V30 181 H 13.163 1.93377 -3.1145 0
M  V30 182 H 12.811 4.34206 -2.53917 0
M  V30 183 H 12.511 4.03804 -4.26868 0
M  V30 184 H 14.035 4.81561 -3.75408 0
M  V30 185 H 15.449 2.88654 -4.9533 0
M  V30 186 H 13.846 2.34044 -5.52579 0
M  V30 187 H 14.916 1.19327 -4.69988 0
M  V30 188 N 16.2591 1.48442 0.529413 0
M  V30 189 C 17.5051 1.57699 1.28463 0
M  V30 190 C 17.8601 0.247913 1.90796 0
M  V30 191 O 17.1531 -0.749279 1.76342 0
M  V30 192 C 17.3471 2.6523 2.39558 0
M  V30 193 C 17.1761 4.08464 1.88114 0
M  V30 194 C 15.9461 4.75596 1.70693 0
M  V30 195 C 18.1441 4.94613 1.40935 0
M  V30 196 N 16.1261 6.03245 1.13881 0
M  V30 197 C 17.4971 6.12511 0.960734 0
M  V30 198 C 19.5521 4.80833 1.29243 0
M  V30 199 C 18.2551 7.18149 0.406792 0
M  V30 200 C 20.2811 5.86593 0.752487 0
M  V30 201 C 19.6431 7.037 0.313946 0
M  V30 202 H 15.7421 0.631608 0.46108 0
M  V30 203 H 18.3261 1.85325 0.596886 0
M  V30 204 H 16.4971 2.39425 3.05827 0
M  V30 205 H 18.2291 2.64169 3.06589 0
M  V30 206 H 14.9841 4.31938 1.94232 0
M  V30 207 H 15.4081 6.71324 0.874831 0
M  V30 208 H 20.0501 3.90635 1.61754 0
M  V30 209 H 17.7681 8.0807 0.0693671 0
M  V30 210 H 21.3541 5.77985 0.665192 0
M  V30 211 H 20.2341 7.8414 -0.0973632 0
M  V30 212 N 17.7372 -0.778329 1.37039 0
M  V30 213 C 18.9852 -1.53361 1.31623 0
M  V30 214 C 19.3062 -1.94739 -0.100831 0
M  V30 215 O 18.5762 -1.65797 -1.04347 0
M  V30 216 H 17.1562 -0.568794 0.484234 0
M  V30 217 H 19.8182 -0.926742 1.71457 0
M  V30 218 H 18.9142 -2.43606 1.95096 0
M  V30 219 N 19.2153 -1.21501 -1.00376 0
M  V30 220 C 20.4613 -1.03452 -1.74429 0
M  V30 221 C 20.7943 0.430764 -1.89362 0
M  V30 222 O 20.0693 1.31962 -1.42886 0
M  V30 223 C 20.3523 -1.73375 -3.15615 0
M  V30 224 C 20.2053 -3.27431 -3.08397 0
M  V30 225 C 21.5243 -1.47732 -4.14564 0
M  V30 226 H 18.6433 -0.377226 -0.633143 0
M  V30 227 H 21.2853 -1.49693 -1.17013 0
M  V30 228 H 19.4353 -1.34064 -3.64636 0
M  V30 229 H 21.1073 -3.76119 -2.67081 0
M  V30 230 H 19.3503 -3.5767 -2.45468 0
M  V30 231 H 20.0213 -3.71524 -4.08258 0
M  V30 232 H 22.4973 -1.8186 -3.74254 0
M  V30 233 H 21.3733 -1.99169 -5.11491 0
M  V30 234 H 21.6343 -0.407589 -4.40217 0
M  V30 235 N 20.6934 1.19889 -1.02296 0
M  V30 236 C 21.6564 2.21116 -0.603351 0
M  V30 237 C 22.6564 1.5738 0.329884 0
M  V30 238 O 23.8464 1.73802 0.117702 0
M  V30 239 C 20.9784 3.40696 0.117992 0
M  V30 240 H 22.1714 2.59754 -1.49893 0
M  V30 241 H 19.7244 1.33463 -0.813468 0
M  V30 242 H 20.4594 3.07569 1.0282 0
M  V30 243 H 20.2444 3.88188 -0.552511 0
M  V30 244 H 21.7344 4.15692 0.398696 0
M  V30 245 N 22.1715 0.800033 1.35784 0
M  V30 246 C 23.3995 0.389606 2.03199 0
M  V30 247 C 23.8145 -0.997375 1.60306 0
M  V30 248 O 23.1715 -1.64154 0.797481 0
M  V30 249 C 23.2225 0.455855 3.58614 0
M  V30 250 O 22.9435 1.78815 3.99946 0
M  V30 251 C 24.4445 0.0374032 4.43284 0
M  V30 252 H 21.6645 0.159132 0.651857 0
M  V30 253 H 24.2085 1.08183 1.73541 0
M  V30 254 H 22.3635 -0.188057 3.86943 0
M  V30 255 H 22.7775 1.74636 4.94573 0
M  V30 256 H 24.2515 0.134882 5.51835 0
M  V30 257 H 24.7285 -1.01651 4.27275 0
M  V30 258 H 25.3345 0.654215 4.20238 0
M  V30 259 N 23.6496 -1.47581 0.552962 0
M  V30 260 C 24.6126 -2.28439 -0.186605 0
M  V30 261 C 25.6126 -1.36706 -0.84665 0
M  V30 262 O 26.8026 -1.59378 -0.703164 0
M  V30 263 C 23.9346 -3.16264 -1.2724 0
M  V30 264 H 25.1276 -2.95294 0.523609 0
M  V30 265 H 22.6806 -1.532 0.309745 0
M  V30 266 H 23.4156 -2.54091 -2.01514 0
M  V30 267 H 23.2006 -3.83769 -0.803968 0
M  V30 268 H 24.6906 -3.77198 -1.79196 0
M  V30 269 N 25.1277 -0.289203 -1.54924 0
M  V30 270 C 26.3527 0.329299 -2.04769 0
M  V30 271 C 26.7777 1.4763 -1.16564 0
M  V30 272 O 26.1357 1.80527 -0.167186 0
M  V30 273 C 26.1837 0.774438 -3.52186 0
M  V30 274 O 25.2877 1.88038 -3.67036 0
M  V30 275 H 24.6287 0.0659259 -0.660719 0
M  V30 276 H 27.1587 -0.42761 -2.00082 0
M  V30 277 H 27.1687 1.06642 -3.93816 0
M  V30 278 H 25.8437 -0.0646707 -4.1585 0
M  V30 279 H 24.4207 1.58985 -3.3731 0
M  V30 280 N 26.6058 1.57591 -0.0167156 0
M  V30 281 C 27.8358 1.95292 0.674149 0
M  V30 282 C 28.2438 0.891097 1.66901 0
M  V30 283 O 27.5868 -0.136908 1.83189 0
M  V30 284 C 27.6488 3.29072 1.44747 0
M  V30 285 C 27.3128 4.52879 0.612331 0
M  V30 286 C 28.3098 5.1979 -0.107126 0
M  V30 287 C 25.9948 4.99242 0.553381 0
M  V30 288 C 27.9888 6.31375 -0.874339 0
M  V30 289 C 25.6758 6.10713 -0.217546 0
M  V30 290 C 26.6738 6.76637 -0.930123 0
M  V30 291 O 26.3618 7.85969 -1.68844 0
M  V30 292 H 26.0938 0.648275 0.191615 0
M  V30 293 H 28.6478 2.05284 -0.0690148 0
M  V30 294 H 26.8778 3.15535 2.2355 0
M  V30 295 H 28.5668 3.51764 2.02526 0
M  V30 296 H 29.3328 4.84948 -0.0708392 0
M  V30 297 H 25.2118 4.47744 1.09757 0
M  V30 298 H 28.7558 6.82764 -1.43106 0
M  V30 299 H 24.6528 6.44994 -0.255593 0
M  V30 300 H 25.4208 8.02571 -1.6069 0
M  V30 301 N 28.0839 -0.256276 1.55502 0
M  V30 302 C 29.0159 -1.33981 1.85962 0
M  V30 303 C 30.0289 -1.44743 0.745212 0
M  V30 304 O 31.2179 -1.4626 1.02324 0
M  V30 305 C 28.3179 -2.7194 2.02242 0
M  V30 306 C 27.4909 -2.83562 3.33033 0
M  V30 307 C 26.5499 -4.02304 3.39172 0
M  V30 308 O 25.5759 -3.92273 4.12444 0
M  V30 309 N 26.7779 -5.15045 2.67784 0
M  V30 310 H 29.5429 -1.08191 2.7949 0
M  V30 311 H 27.1039 -0.446388 1.55624 0
M  V30 312 H 29.0959 -3.49697 2.03701 0
M  V30 313 H 27.6659 -2.90479 1.15502 0
M  V30 314 H 26.8859 -1.92555 3.43971 0
M  V30 315 H 28.1739 -2.88271 4.19258 0
M  V30 316 H 27.5719 -5.26085 2.07968 0
M  V30 317 H 26.1289 -5.90972 2.74947 0
M  V30 318 N 29.562 -1.4872 -0.521534 0
M  V30 319 C 30.811 -1.56419 -1.27341 0
M  V30 320 C 31.124 -0.246805 -1.94037 0
M  V30 321 O 32.33 -0.202122 -2.70747 0
M  V30 322 C 30.786 -2.75896 -2.31105 0
M  V30 323 C 30.394 -4.14311 -1.70441 0
M  V30 324 C 32.138 -2.92913 -3.07249 0
M  V30 325 C 30.045 -5.25038 -2.72194 0
M  V30 326 H 28.975 -0.582344 -0.478949 0
M  V30 327 H 31.626 -1.75071 -0.549779 0
M  V30 328 H 30.008 -2.50697 -3.06541 0
M  V30 329 H 31.182 -4.49564 -1.01136 0
M  V30 330 H 29.497 -4.02482 -1.06759 0
M  V30 331 H 32.094 -3.72805 -3.83302 0
M  V30 332 H 32.437 -2.02689 -3.63625 0
M  V30 333 H 32.97 -3.18054 -2.38928 0
M  V30 334 H 29.709 -6.17255 -2.20627 0
M  V30 335 H 29.229 -4.94263 -3.39801 0
M  V30 336 H 30.908 -5.53508 -3.35019 0
M  V30 337 N 31.0401 0.771051 -1.3745 0
M  V30 338 C 31.9501 1.91538 -1.35464 0
M  V30 339 C 32.9661 1.72134 -0.254123 0
M  V30 340 O 34.1421 1.95358 -0.489626 0
M  V30 341 C 31.2071 3.26671 -1.16134 0
M  V30 342 C 30.2681 3.58723 -2.35831 0
M  V30 343 C 29.5011 4.87409 -2.17413 0
M  V30 344 O 29.7241 5.58506 -1.15876 0
M  V30 345 O 28.6581 5.18539 -3.05615 0
M  V30 346 H 32.4841 1.96165 -2.31847 0
M  V30 347 H 30.0691 0.9139 -1.18187 0
M  V30 348 H 31.9511 4.07499 -1.07345 0
M  V30 349 H 30.6261 3.22894 -0.228251 0
M  V30 350 H 29.5331 2.78127 -2.50192 0
M  V30 351 H 30.8661 3.67243 -3.27709 0
M  V30 352 N 32.5182 1.22032 0.997298 0
M  V30 353 C 33.7662 1.04016 1.73278 0
M  V30 354 C 34.0872 -0.426255 1.90284 0
M  V30 355 O 33.3572 -1.30694 1.45931 0
M  V30 356 H 31.9372 0.381897 0.642 0
M  V30 357 H 34.5992 1.5347 1.20137 0
M  V30 358 H 33.6952 1.51441 2.72896 0
M  V30 359 N 33.9963 -1.19345 1.0293 0
M  V30 360 C 35.2213 -1.93538 0.745511 0
M  V30 361 C 35.6463 -1.75007 -0.689511 0
M  V30 362 O 35.0043 -1.05265 -1.47611 0
M  V30 363 C 35.0523 -3.43336 1.10239 0
M  V30 364 O 34.1563 -4.11806 0.221289 0
M  V30 365 H 33.4973 -0.604193 0.275404 0
M  V30 366 H 36.0273 -1.5141 1.37609 0
M  V30 367 H 36.0373 -3.94004 1.05947 0
M  V30 368 H 34.7123 -3.56146 2.14786 0
M  V30 369 H 33.2893 -3.715 0.322842 0
M  V30 370 N 35.4744 -0.807222 -1.35358 0
M  V30 371 C 36.8854 -0.44876 -1.81226 0
M  V30 372 C 37.2364 1.02929 -1.67033 0
M  V30 373 O 36.3614 1.79991 -1.20133 0
M  V30 374 C 36.9564 -0.807774 -3.2903 0
M  V30 375 C 35.5154 -0.501901 -3.73039 0
M  V30 376 C 34.6624 -1.03304 -2.57339 0
M  V30 377 H 37.6134 -0.998808 -1.23327 0
M  V30 378 H 37.6344 -0.10554 -3.80354 0
M  V30 379 H 37.1464 -1.88357 -3.39328 0
M  V30 380 H 35.2474 0.565128 -3.68289 0
M  V30 381 H 35.3604 -1.03497 -4.67787 0
M  V30 382 H 33.7244 -0.455339 -2.50597 0
M  V30 383 H 34.5074 -2.11496 -2.70415 0
M  V30 384 N 36.9525 1.47285 -0.560781 0
M  V30 385 C 37.8825 2.32857 0.173105 0
M  V30 386 C 38.8635 1.44009 0.905281 0
M  V30 387 O 40.0485 1.7286 0.885046 0
M  V30 388 C 37.1785 3.25861 1.20133 0
M  V30 389 C 36.1325 4.23978 0.585388 0
M  V30 390 C 35.4585 5.06332 1.7185 0
M  V30 391 C 36.7585 5.20242 -0.463178 0
M  V30 392 H 38.4525 2.94466 -0.541307 0
M  V30 393 H 35.9985 1.41601 -0.261764 0
M  V30 394 H 37.9515 3.84569 1.72293 0
M  V30 395 H 36.6755 2.62315 1.94573 0
M  V30 396 H 35.3345 3.66501 0.085054 0
M  V30 397 H 34.9825 4.39186 2.45203 0
M  V30 398 H 34.6825 5.72762 1.31213 0
M  V30 399 H 36.2065 5.67899 2.24329 0
M  V30 400 H 37.6205 5.73293 -0.027502 0
M  V30 401 H 36.0175 5.94896 -0.788627 0
M  V30 402 H 37.0875 4.65504 -1.35773 0
M  V30 403 N 38.4306 0.297415 1.54768 0
M  V30 404 C 39.3936 -0.567375 2.22066 0
M  V30 405 C 40.3936 -1.06409 1.20556 0
M  V30 406 O 41.5836 -0.960691 1.45315 0
M  V30 407 C 38.7156 -1.78517 2.90421 0
M  V30 408 H 39.9086 0.0205534 2.99893 0
M  V30 409 H 37.4616 0.0482163 1.56226 0
M  V30 410 H 38.1966 -2.41303 2.16664 0
M  V30 411 H 37.9816 -1.43669 3.64831 0
M  V30 412 H 39.4716 -2.39964 3.41771 0
M  V30 413 N 39.9087 -1.5758 0.0250728 0
M  V30 414 C 41.1857 -1.82917 -0.692873 0
M  V30 415 C 41.5657 -0.908137 -1.90568 0
M  V30 416 O 40.9137 0.0372298 -2.2847 0
M  V30 417 C 41.1237 -3.32034 -1.07492 0
M  V30 418 C 42.4717 -3.98406 -1.46826 0
M  V30 419 O 43.4957 -3.36505 -1.16801 0
M  V30 420 O 42.3547 -5.07497 -2.02754 0
M  V30 421 H 39.4487 -0.754079 -0.33955 0
M  V30 422 H 41.9947 -1.69619 0.0524456 0
M  V30 423 H 40.7667 -3.90728 -0.211552 0
M  V30 424 H 40.3897 -3.50424 -1.87854 0
M  V30 425 N 41.3868 0.248026 -1.55636 0
M  V30 426 C 42.6348 0.974295 -1.77065 0
M  V30 427 C 42.9558 1.85897 -0.588849 0
M  V30 428 O 42.2258 1.91868 0.395407 0
M  V30 429 H 40.8058 0.362733 -0.653019 0
M  V30 430 H 43.4678 0.266244 -1.93073 0
M  V30 431 H 42.5638 1.59667 -2.68166 0
M  V30 432 N 42.8649 1.48995 0.513639 0
M  V30 433 C 43.8279 1.64229 1.59879 0
M  V30 434 C 44.8279 0.514696 1.5234 0
M  V30 435 O 46.0179 0.78087 1.55718 0
M  V30 436 C 43.1499 1.62783 2.99524 0
M  V30 437 H 44.3429 2.61004 1.47705 0
M  V30 438 H 41.8959 1.37837 0.736936 0
M  V30 439 H 42.6309 0.675461 3.17188 0
M  V30 440 H 42.4159 2.4466 3.06404 0
M  V30 441 H 43.9059 1.76669 3.78388 0
M  V30 442 N 44.343 -0.763751 1.37857 0
M  V30 443 C 45.591 -1.51957 1.33243 0
M  V30 444 C 45.912 -1.94835 -0.0801709 0
M  V30 445 O 45.182 -1.66894 -1.02582 0
M  V30 446 H 43.762 -0.563626 0.49024 0
M  V30 447 H 46.424 -0.908504 1.7243 0
M  V30 448 H 45.52 -2.41523 1.97669 0
M  V30 449 N 45.8211 -1.22559 -0.990812 0
M  V30 450 C 46.7541 -0.940773 -2.07905 0
M  V30 451 C 47.7321 0.117082 -1.62178 0
M  V30 452 O 48.9161 -0.0149506 -1.88494 0
M  V30 453 C 46.0431 -0.415321 -3.36144 0
M  V30 454 C 45.0891 -1.45818 -4.00799 0
M  V30 455 S 45.9221 -3.03219 -4.41382 0
M  V30 456 C 47.0781 -2.52317 -5.72789 0
M  V30 457 H 47.3111 -1.8623 -2.31745 0
M  V30 458 H 44.8441 -1.05688 -1.12558 0
M  V30 459 H 46.8021 -0.118747 -4.10328 0
M  V30 460 H 45.4631 0.485121 -3.10331 0
M  V30 461 H 44.6561 -1.04044 -4.93144 0
M  V30 462 H 44.2581 -1.70356 -3.32949 0
M  V30 463 H 46.5501 -1.93688 -6.49224 0
M  V30 464 H 47.4931 -3.43161 -6.19392 0
M  V30 465 H 47.9011 -1.93529 -5.30289 0
M  V30 466 N 47.2992 1.18797 -1.03562 0
M  V30 467 C 48.5242 1.9314 -0.755764 0
M  V30 468 C 48.9492 1.7537 0.68022 0
M  V30 469 O 48.3072 1.06046 1.47051 0
M  V30 470 C 48.3552 3.42747 -1.12058 0
M  V30 471 O 47.4592 4.11683 -0.243124 0
M  V30 472 H 46.8002 0.602724 -0.278604 0
M  V30 473 H 49.3302 1.50678 -1.3841 0
M  V30 474 H 49.3402 3.93437 -1.08035 0
M  V30 475 H 48.0152 3.55002 -2.16672 0
M  V30 476 H 46.5922 3.71323 -0.342539 0
M  V30 477 N 48.7773 0.814389 1.34928 0
M  V30 478 C 50.0263 0.394871 1.97797 0
M  V30 479 C 50.3393 -1.04555 1.65311 0
M  V30 480 O 51.5453 -1.56856 2.21604 0
M  V30 481 C 50.0013 0.655103 3.53888 0
M  V30 482 C 49.6093 2.10858 3.95276 0
M  V30 483 C 51.3533 0.301329 4.23429 0
M  V30 484 C 49.2603 2.31415 5.44244 0
M  V30 485 H 48.1903 0.143913 0.740139 0
M  V30 486 H 50.8413 0.999544 1.53888 0
M  V30 487 H 49.2233 -0.0196253 3.95995 0
M  V30 488 H 50.3973 2.82176 3.64298 0
M  V30 489 H 48.7123 2.42297 3.38646 0
M  V30 490 H 51.3093 0.432869 5.32945 0
M  V30 491 H 51.6523 -0.75331 4.09428 0
M  V30 492 H 52.1853 0.930288 3.86769 0
M  V30 493 H 48.9243 3.35353 5.63222 0
M  V30 494 H 48.4443 1.6463 5.76764 0
M  V30 495 H 50.1233 2.13352 6.10811 0
M  V30 496 N 50.2554 -1.46986 0.568584 0
M  V30 497 C 51.5014 -2.0332 0.0571487 0
M  V30 498 C 51.8564 -1.43384 -1.28291 0
M  V30 499 O 51.1494 -0.584304 -1.82473 0
M  V30 500 C 51.3434 -3.57306 -0.081836 0
M  V30 501 C 51.1724 -4.32174 1.24321 0
M  V30 502 C 49.9424 -4.71633 1.81358 0
M  V30 503 C 52.1404 -4.66598 2.16312 0
M  V30 504 N 50.1224 -5.31191 3.07748 0
M  V30 505 C 51.4934 -5.26578 3.27285 0
M  V30 506 C 53.5484 -4.48527 2.16166 0
M  V30 507 C 52.2514 -5.70395 4.38226 0
M  V30 508 C 54.2774 -4.93351 3.26127 0
M  V30 509 C 53.6394 -5.5339 4.3582 0
M  V30 510 H 49.7384 -0.77943 0.063351 0
M  V30 511 H 52.3224 -1.79323 0.758378 0
M  V30 512 H 50.4934 -3.81046 -0.752207 0
M  V30 513 H 52.2254 -4.00282 -0.59637 0
M  V30 514 H 48.9804 -4.53946 1.35019 0
M  V30 515 H 49.4044 -5.65505 3.72201 0
M  V30 516 H 54.0464 -4.01456 1.32638 0
M  V30 517 H 51.7644 -6.16452 5.22506 0
M  V30 518 H 55.3504 -4.81131 3.27115 0
M  V30 519 H 54.2304 -5.87441 5.19503 0
M  V30 520 N 51.7335 -0.305618 -1.54608 0
M  V30 521 C 52.6835 0.583595 -2.20405 0
M  V30 522 C 53.6675 1.09539 -1.17856 0
M  V30 523 O 54.8595 1.0354 -1.43557 0
M  V30 524 C 51.9885 1.75277 -2.95183 0
M  V30 525 C 51.0745 1.25672 -4.05052 0
M  V30 526 N 51.4655 0.478998 -5.03527 0
M  V30 527 C 49.7635 1.53704 -4.18678 0
M  V30 528 C 50.4645 0.214269 -5.81305 0
M  V30 529 N 49.4405 0.795374 -5.3775 0
M  V30 530 H 53.2425 -0.0180946 -2.93894 0
M  V30 531 H 50.7565 -0.110601 -1.62023 0
M  V30 532 H 52.7535 2.4014 -3.40791 0
M  V30 533 H 51.4135 2.35812 -2.23211 0
M  V30 534 H 52.4245 0.123473 -5.17753 0
M  V30 535 H 49.1015 2.14954 -3.57912 0
M  V30 536 H 50.4915 -0.410656 -6.70644 0
M  V30 537 N 53.2116 1.57565 -0.0334293 0
M  V30 538 C 54.4396 1.9628 0.654347 0
M  V30 539 C 54.8546 0.910138 1.65414 0
M  V30 540 O 54.2116 -0.107595 1.82183 0
M  V30 541 C 54.2626 3.35067 1.35693 0
M  V30 542 O 53.9836 4.36296 0.397191 0
M  V30 543 C 55.4846 3.88439 2.13613 0
M  V30 544 H 52.7046 0.646369 0.180132 0
M  V30 545 H 55.2486 2.04282 -0.0944721 0
M  V30 546 H 53.4036 3.2827 2.05712 0
M  V30 547 H 53.8176 5.1678 0.896597 0
M  V30 548 H 55.2916 4.8788 2.58219 0
M  V30 549 H 55.7686 3.22914 2.97696 0
M  V30 550 H 56.3746 3.98516 1.48543 0
M  V30 551 N 54.6897 -0.239769 1.55765 0
M  V30 552 C 55.9367 -0.966801 1.7793 0
M  V30 553 C 56.2647 -1.85046 0.599015 0
M  V30 554 O 55.5197 -1.91197 -0.417395 0
M  V30 555 C 55.8187 -1.852 3.05672 0
M  V30 556 C 55.4847 -1.1231 4.36689 0
M  V30 557 C 54.1467 -0.921689 4.72291 0
M  V30 558 C 56.4987 -0.607019 5.17653 0
M  V30 559 C 53.8267 -0.191996 5.86386 0
M  V30 560 C 56.1787 0.109241 6.32506 0
M  V30 561 C 54.8427 0.322073 6.66723 0
M  V30 562 H 54.1127 -0.353778 0.651093 0
M  V30 563 H 56.7597 -0.23634 1.90036 0
M  V30 564 H 55.0647 -2.64975 2.8861 0
M  V30 565 H 56.7617 -2.41635 3.20021 0
M  V30 566 H 53.3517 -1.29004 4.08725 0
M  V30 567 H 57.5357 -0.750153 4.90598 0
M  V30 568 H 52.7917 -0.0166949 6.11398 0
M  V30 569 H 56.9657 0.516737 6.9448 0
M  V30 570 H 54.5927 0.88944 7.54979 0
M  V30 571 N 56.1678 -1.49265 -0.50573 0
M  V30 572 C 57.3928 -1.62478 -1.28902 0
M  V30 573 C 57.8178 -0.294332 -1.85783 0
M  V30 574 O 57.1758 0.737412 -1.65626 0
M  V30 575 C 57.2238 -2.69268 -2.39848 0
M  V30 576 O 56.3278 -2.28113 -3.43567 0
M  V30 577 H 55.6688 -0.54399 -0.380751 0
M  V30 578 H 58.1988 -1.95421 -0.605952 0
M  V30 579 H 58.2088 -2.91291 -2.85681 0
M  V30 580 H 56.8838 -3.65846 -1.97812 0
M  V30 581 H 55.4608 -2.16401 -3.03685 0
M  V30 582 N 57.6459 0.756429 -1.3826 0
M  V30 583 C 58.5959 1.86069 -1.31766 0
M  V30 584 C 59.5799 1.59621 -0.202483 0
M  V30 585 O 60.7719 1.7149 -0.438211 0
M  V30 586 C 57.9009 3.23742 -1.1422 0
M  V30 587 C 56.9869 3.56091 -2.30348 0
M  V30 588 N 57.3779 3.59517 -3.55783 0
M  V30 589 C 55.6759 3.86341 -2.22838 0
M  V30 590 C 56.3769 3.89052 -4.32451 0
M  V30 591 N 55.3529 4.05736 -3.61772 0
M  V30 592 H 59.1549 1.86992 -2.26741 0
M  V30 593 H 56.6689 0.953643 -1.31451 0
M  V30 594 H 58.6659 4.02761 -1.07652 0
M  V30 595 H 57.3259 3.24073 -0.201763 0
M  V30 596 H 58.3369 3.41347 -3.89491 0
M  V30 597 H 55.0139 3.94404 -1.36937 0
M  V30 598 H 56.4039 3.98349 -5.4108 0
M  V30 599 N 59.124 1.23083 0.984299 0
M  V30 600 C 60.352 1.08714 1.76037 0
M  V30 601 C 60.767 -0.361691 1.85303 0
M  V30 602 O 60.124 -1.25034 1.32939 0
M  V30 603 C 60.175 1.70206 3.18923 0
M  V30 604 O 59.896 3.09423 3.10144 0
M  V30 605 C 61.397 1.61227 4.12941 0
M  V30 606 H 58.617 0.380664 0.552572 0
M  V30 607 H 61.161 1.62853 1.23689 0
M  V30 608 H 59.316 1.20109 3.6831 0
M  V30 609 H 59.73 3.39188 4.00065 0
M  V30 610 H 61.204 2.08962 5.10919 0
M  V30 611 H 61.681 0.570375 4.35481 0
M  V30 612 H 62.287 2.10671 3.69456 0
M  V30 613 N 60.6021 -1.18246 1.0419 0
M  V30 614 C 62.0131 -1.69914 0.773698 0
M  V30 615 C 62.3641 -1.83085 -0.705297 0
M  V30 616 O 61.4891 -1.51123 -1.5489 0
M  V30 617 C 62.0841 -3.08619 1.39784 0
M  V30 618 C 60.6431 -3.57494 1.17792 0
M  V30 619 C 59.7901 -2.34013 1.48773 0
M  V30 620 H 62.7411 -1.02904 1.20816 0
M  V30 621 H 62.7621 -3.71958 0.801714 0
M  V30 622 H 62.2741 -2.99001 2.47426 0
M  V30 623 H 60.3751 -3.72406 0.120295 0
M  V30 624 H 60.4881 -4.40852 1.87581 0
M  V30 625 H 58.8521 -2.37986 0.907463 0
M  V30 626 H 59.6351 -2.27013 2.57527 0
M  V30 627 N 62.0802 -0.821533 -1.34494 0
M  V30 628 C 63.3282 -0.408139 -1.97936 0
M  V30 629 C 63.6492 1.03193 -1.65457 0
M  V30 630 O 62.9192 1.71622 -0.944595 0
M  V30 631 H 61.4992 -0.147928 -0.732206 0
M  V30 632 H 64.1612 -1.05067 -1.64155 0
M  V30 633 H 63.2572 -0.52601 -3.07635 0
M  V30 634 N 63.5583 1.46682 -0.576371 0
M  V30 635 C 64.5063 2.31953 0.17335 0
M  V30 636 C 65.5003 1.44098 0.89062 0
M  V30 637 O 66.7063 1.60759 0.809728 0
M  V30 638 H 63.0813 0.748273 0.0747727 0
M  V30 639 H 65.0523 2.93007 -0.564738 0
M  V30 640 C 63.8013 3.27142 1.17786 0
M  V30 641 H 63.1243 3.94719 0.635361 0
M  V30 642 H 64.5643 3.896 1.67296 0
M  V30 643 C 63.0233 2.52036 2.23561 0
M  V30 644 O 63.5533 2.27877 3.3081 0
M  V30 645 N 61.7593 2.12709 1.97998 0
M  V30 646 H 61.3063 2.32557 1.10792 0
M  V30 647 H 61.2643 1.62776 2.68982 0
M  V30 648 N 65.0364 0.313813 1.54444 0
M  V30 649 C 66.2824 -0.292108 2.00685 0
M  V30 650 C 66.6154 -1.52548 1.20177 0
M  V30 651 O 65.8904 -1.92452 0.281531 0
M  V30 652 C 66.1734 -0.635968 3.5444 0
M  V30 653 C 66.0264 0.607437 4.4568 0
M  V30 654 C 67.3454 -1.45747 4.15266 0
M  V30 655 H 64.4644 -0.104697 0.729526 0
M  V30 656 H 67.1064 0.428457 1.85106 0
M  V30 657 H 65.2564 -1.24986 3.67846 0
M  V30 658 H 66.9284 1.24581 4.44159 0
M  V30 659 H 65.1714 1.23822 4.15753 0
M  V30 660 H 65.8424 0.322515 5.51057 0
M  V30 661 H 68.3184 -0.938645 4.05375 0
M  V30 662 H 67.1944 -1.66683 5.2298 0
M  V30 663 H 67.4554 -2.45063 3.67963 0
M  V30 664 N 66.5145 -1.57545 0.0417849 0
M  V30 665 C 67.4615 -2.10977 -0.935805 0
M  V30 666 C 68.4315 -1.01486 -1.31491 0
M  V30 667 O 69.6165 -1.2898 -1.40602 0
M  V30 668 C 66.7565 -2.65169 -2.2086 0
M  V30 669 C 65.8695 -3.88714 -1.88482 0
M  V30 670 C 65.0045 -4.31254 -3.1015 0
M  V30 671 C 64.0435 -5.47524 -2.7365 0
M  V30 672 N 63.1805 -5.85162 -3.87982 0
M  V30 673 H 68.0205 -2.94218 -0.473249 0
M  V30 674 H 65.5575 -1.45415 -0.221981 0
M  V30 675 H 67.5155 -2.94685 -2.95325 0
M  V30 676 H 66.1455 -1.8474 -2.64709 0
M  V30 677 H 65.1975 -3.65849 -1.04205 0
M  V30 678 H 66.5095 -4.73245 -1.57608 0
M  V30 679 H 65.6635 -4.62273 -3.92923 0
M  V30 680 H 64.4025 -3.45516 -3.44195 0
M  V30 681 H 63.4075 -5.16187 -1.89291 0
M  V30 682 H 64.6325 -6.34971 -2.40807 0
M  V30 683 H 62.5785 -5.02377 -4.21846 0
M  V30 684 H 62.4955 -6.64362 -3.60775 0
M  V30 685 H 63.7635 -6.20791 -4.71422 0
M  V30 686 N 67.9926 0.231505 -1.5589 0
M  V30 687 C 68.9406 1.30649 -1.92441 0
M  V30 688 C 69.9346 1.49037 -0.805254 0
M  V30 689 O 71.1406 1.50329 -0.990007 0
M  V30 690 H 67.5156 0.437812 -0.611412 0
M  V30 691 H 69.4866 0.970973 -2.82161 0
M  V30 692 C 68.2356 2.65179 -2.24889 0
M  V30 693 H 67.5586 2.51835 -3.10514 0
M  V30 694 H 68.9986 3.39234 -2.54355 0
M  V30 695 C 67.4576 3.19439 -1.07054 0
M  V30 696 O 67.9876 4.00371 -0.326499 0
M  V30 697 N 66.1936 2.77675 -0.85703 0
M  V30 698 H 65.7406 2.11969 -1.46379 0
M  V30 699 H 65.6986 3.14321 -0.0703223 0
M  V30 700 N 69.4707 1.49531 0.497807 0
M  V30 701 C 70.7187 1.58865 1.24926 0
M  V30 702 C 71.0397 0.278721 1.92998 0
M  V30 703 O 70.3097 -0.702144 1.82885 0
M  V30 704 H 68.8897 0.585343 0.464094 0
M  V30 705 H 71.5517 1.86174 0.57666 0
M  V30 706 H 70.6477 2.38633 2.01149 0
M  V30 707 N 70.9488 -0.749086 1.3866 0
M  V30 708 C 72.2258 -1.4992 1.25632 0
M  V30 709 C 72.6058 -2.10633 -0.140317 0
M  V30 710 O 71.9538 -1.97437 -1.15025 0
M  V30 711 C 72.1638 -2.56195 2.36992 0
M  V30 712 C 73.5118 -3.22972 2.75634 0
M  V30 713 O 74.5358 -2.66502 2.36337 0
M  V30 714 O 73.3948 -4.25122 3.43415 0
M  V30 715 H 70.4888 -0.665067 0.491544 0
M  V30 716 H 73.0348 -0.784113 1.50498 0
M  V30 717 H 71.8068 -2.09612 3.30422 0
M  V30 718 H 71.4298 -3.35279 2.13714 0
M  V30 719 N 72.4269 -1.23603 -0.977757 0
M  V30 720 C 73.6549 -1.09646 -1.75458 0
M  V30 721 C 74.0699 0.351859 -1.85492 0
M  V30 722 O 73.4269 1.24327 -1.336 0
M  V30 723 C 73.4779 -1.71895 -3.18016 0
M  V30 724 O 73.1989 -3.11063 -3.08498 0
M  V30 725 C 74.6999 -1.63415 -4.12081 0
M  V30 726 H 71.9199 -0.38359 -0.550545 0
M  V30 727 H 74.4639 -1.63507 -1.22824 0
M  V30 728 H 72.6189 -1.22061 -3.67668 0
M  V30 729 H 73.0329 -3.41305 -3.9826 0
M  V30 730 H 74.5069 -2.11669 -5.09804 0
M  V30 731 H 74.9839 -0.593462 -4.35172 0
M  V30 732 H 75.5899 -2.12628 -3.68334 0
M  V30 733 N 73.905 1.17692 -1.04816 0
M  V30 734 C 75.153 1.87488 -0.754497 0
M  V30 735 C 75.474 1.81205 0.720407 0
M  V30 736 O 74.744 1.23544 1.52032 0
M  V30 737 H 73.324 0.694101 -0.276102 0
M  V30 738 H 75.986 1.42793 -1.32651 0
M  V30 739 H 75.082 2.93328 -1.06606 0
M  V30 740 N 75.3831 0.828654 1.34056 0
M  V30 741 C 76.6601 0.341809 1.9259 0
M  V30 742 C 77.0401 -1.17158 1.75605 0
M  V30 743 O 76.3881 -1.98132 1.13824 0
M  V30 744 C 76.5981 0.777453 3.4023 0
M  V30 745 C 77.9461 0.779579 4.17382 0
M  V30 746 O 78.9701 0.7204 3.48839 0
M  V30 747 O 77.8291 0.857996 5.39723 0
M  V30 748 H 74.9231 0.0946085 0.821571 0
M  V30 749 H 77.4691 0.913827 1.42994 0
M  V30 750 H 76.2411 1.8196 3.46419 0
M  V30 751 H 75.8641 0.181444 3.97186 0
M  V30 752 N 76.8612 -1.46375 0.584142 0
M  V30 753 C 78.1072 -2.02678 0.0703716 0
M  V30 754 C 78.4402 -1.4545 -1.28678 0
M  V30 755 O 77.7152 -0.62014 -1.84349 0
M  V30 756 C 77.9982 -3.60099 0.00614674 0
M  V30 757 C 77.8512 -4.27709 1.3923 0
M  V30 758 C 79.1702 -4.34598 -0.693742 0
M  V30 759 H 76.2892 -0.736504 0.027047 0
M  V30 760 H 78.9312 -1.74501 0.751615 0
M  V30 761 H 77.0812 -3.84236 -0.574009 0
M  V30 762 H 78.7532 -4.14832 2.01773 0
M  V30 763 H 76.9962 -3.87016 1.95962 0
M  V30 764 H 77.6672 -5.36478 1.29982 0
M  V30 765 H 80.1432 -4.15615 -0.200869 0
M  V30 766 H 79.0192 -5.44318 -0.707714 0
M  V30 767 H 79.2802 -4.05759 -1.75533 0
M  V30 768 N 78.3393 -0.321999 -1.54275 0
M  V30 769 C 79.3023 0.531975 -2.22941 0
M  V30 770 C 80.3023 1.04478 -1.22234 0
M  V30 771 O 81.4923 0.937452 -1.46825 0
M  V30 772 C 78.6243 1.73874 -2.93224 0
M  V30 773 H 79.8173 -0.0682612 -2.99822 0
M  V30 774 H 77.3703 -0.0730644 -1.56129 0
M  V30 775 H 78.1053 2.37825 -2.20476 0
M  V30 776 H 77.8903 1.37847 -3.6707 0
M  V30 777 H 79.3803 2.34496 -3.45545 0
M  V30 778 N 79.8174 1.5752 -0.0501392 0
M  V30 779 C 81.0574 1.94521 0.627783 0
M  V30 780 C 81.4214 0.928265 1.68069 0
M  V30 781 O 82.6224 1.18517 2.41261 0
M  V30 782 C 80.8934 3.36319 1.20932 0
M  V30 783 S 82.4524 3.95272 1.90539 0
M  V30 784 H 79.2704 0.680456 0.206158 0
M  V30 785 H 81.8724 1.95139 -0.118829 0
M  V30 786 H 80.5764 4.08132 0.430865 0
M  V30 787 H 80.1074 3.39193 1.99277 0
M  V30 788 H 82.1224 3.80415 3.18589 0
M  V30 789 N 81.2955 -0.223234 1.56011 0
M  V30 790 C 82.5725 -0.972108 1.69733 0
M  V30 791 C 82.9525 -2.02485 0.59691 0
M  V30 792 O 82.3005 -2.25037 -0.396324 0
M  V30 793 C 82.5105 -1.58407 3.10979 0
M  V30 794 C 83.8585 -2.07696 3.70334 0
M  V30 795 O 84.8825 -1.68304 3.1393 0
M  V30 796 O 83.7415 -2.80096 4.69264 0
M  V30 797 H 80.8355 -0.453993 0.691245 0
M  V30 798 H 83.3815 -0.215149 1.68331 0
M  V30 799 H 82.1535 -0.823831 3.82529 0
M  V30 800 H 81.7765 -2.40661 3.16493 0
M  V30 801 N 82.7736 -1.49793 -0.48987 0
M  V30 802 C 83.7236 -1.63673 -1.5873 0
M  V30 803 C 84.7076 -0.491956 -1.53195 0
M  V30 804 O 85.8996 -0.745461 -1.60536 0
M  V30 805 C 83.0286 -1.71689 -2.97284 0
M  V30 806 C 82.1146 -2.91781 -3.07774 0
M  V30 807 N 82.5056 -4.15714 -2.88124 0
M  V30 808 C 80.8036 -2.89949 -3.38889 0
M  V30 809 C 81.5046 -4.965 -3.03088 0
M  V30 810 N 80.4806 -4.30083 -3.3246 0
M  V30 811 H 84.2826 -2.57204 -1.42208 0
M  V30 812 H 81.7966 -1.46719 -0.69623 0
M  V30 813 H 83.7936 -1.79732 -3.76168 0
M  V30 814 H 82.4536 -0.793024 -3.14867 0
M  V30 815 H 83.4646 -4.45515 -2.64077 0
M  V30 816 H 80.1416 -2.06987 -3.62578 0
M  V30 817 H 81.5316 -6.04991 -2.92294 0
M  V30 818 N 84.2517 0.741722 -1.39055 0
M  V30 819 C 85.4817 1.52876 -1.3897 0
M  V30 820 C 85.8897 1.8919 0.0193266 0
M  V30 821 O 85.2327 1.54138 0.999356 0
M  V30 822 C 85.2947 2.84929 -2.19216 0
M  V30 823 C 84.9587 2.71086 -3.67915 0
M  V30 824 C 85.9557 2.40084 -4.61146 0
M  V30 825 C 83.6407 2.88168 -4.11418 0
M  V30 826 C 85.6347 2.26335 -5.95862 0
M  V30 827 C 83.3217 2.74037 -5.46211 0
M  V30 828 C 84.3197 2.43166 -6.38247 0
M  V30 829 O 84.0077 2.29115 -7.70559 0
M  V30 830 H 83.7397 0.479252 -0.476753 0
M  V30 831 H 86.2937 0.924751 -1.83405 0
M  V30 832 H 84.5237 3.47564 -1.69518 0
M  V30 833 H 86.2127 3.46509 -2.11392 0
M  V30 834 H 86.9787 2.26545 -4.28838 0
M  V30 835 H 82.8577 3.11191 -3.40119 0
M  V30 836 H 86.4017 2.0216 -6.67665 0
M  V30 837 H 82.2987 2.87153 -5.78112 0
M  V30 838 H 83.0667 2.44237 -7.81211 0
M  V30 839 N 85.7298 1.2412 0.971189 0
M  V30 840 C 86.6778 1.02812 2.08644 0
M  V30 841 C 87.6718 -0.0358403 1.69362 0
M  V30 842 O 88.8778 0.118429 1.7961 0
M  V30 843 H 85.2528 0.315428 0.682649 0
M  V30 844 H 87.2238 1.97397 2.23779 0
M  V30 845 C 85.9728 0.645874 3.41649 0
M  V30 846 H 85.2958 1.45632 3.72332 0
M  V30 847 H 86.7358 0.536366 4.20594 0
M  V30 848 C 85.1948 -0.646713 3.30635 0
M  V30 849 O 85.7248 -1.69338 3.64263 0
M  V30 850 N 83.9308 -0.626115 2.83775 0
M  V30 851 H 83.4778 0.225988 2.56607 0
M  V30 852 H 83.4358 -1.49117 2.76788 0
M  V30 853 N 87.2079 -1.17134 1.05439 0
M  V30 854 C 88.6239 -1.39454 0.776201 0
M  V30 855 C 88.8239 -1.91454 -0.628307 0
M  V30 856 O 87.8799 -2.10777 -1.39031 0
M  V30 857 C 89.1929 -2.38305 1.83388 0
M  V30 858 C 90.7409 -2.52006 1.85639 0
M  V30 859 C 91.2159 -3.54133 2.90437 0
M  V30 860 N 92.7069 -3.61653 2.89415 0
M  V30 861 C 93.4419 -4.4044 3.67152 0
M  V30 862 N 92.9379 -5.22721 4.54681 0
M  V30 863 N 94.7309 -4.35337 3.55581 0
M  V30 864 H 86.8819 -0.817134 1.96053 0
M  V30 865 H 89.1449 -0.421626 0.849079 0
M  V30 866 H 88.8509 -2.07173 2.84204 0
M  V30 867 H 88.7249 -3.37841 1.67761 0
M  V30 868 H 91.1119 -2.82447 0.85486 0
M  V30 869 H 91.1929 -1.52537 2.05344 0
M  V30 870 H 90.8369 -3.24431 3.90777 0
M  V30 871 H 90.7669 -4.53313 2.67983 0
M  V30 872 H 93.2579 -3.02909 2.25952 0
M  V30 873 H 93.5709 -5.80027 5.10674 0
M  V30 874 H 91.9159 -5.22093 4.58741 0
M  V30 875 H 95.1069 -3.70112 2.86592 0
M  V30 876 H 95.2799 -4.96494 4.1641 0
M  V30 877 N 88.686 -0.835752 -1.33615 0
M  V30 878 C 89.932 -0.439817 -1.98588 0
M  V30 879 C 90.287 0.989274 -1.65019 0
M  V30 880 O 89.58 1.68168 -0.918159 0
M  V30 881 C 89.774 -0.593925 -3.52431 0
M  V30 882 C 89.603 -2.03644 -4.00948 0
M  V30 883 C 88.373 -2.67103 -4.28934 0
M  V30 884 C 90.571 -3.00479 -4.17393 0
M  V30 885 N 88.553 -4.02462 -4.6357 0
M  V30 886 C 89.924 -4.20777 -4.55353 0
M  V30 887 C 91.979 -2.96926 -3.99674 0
M  V30 888 C 90.682 -5.37994 -4.77447 0
M  V30 889 C 92.708 -4.1337 -4.22941 0
M  V30 890 C 92.07 -5.32422 -4.61201 0
M  V30 891 H 88.169 -0.209303 -0.75347 0
M  V30 892 H 90.753 -1.08316 -1.61789 0
M  V30 893 H 88.924 0.019599 -3.88395 0
M  V30 894 H 90.656 -0.169738 -4.04344 0
M  V30 895 H 87.411 -2.18259 -4.20309 0
M  V30 896 H 87.835 -4.72232 -4.85104 0
M  V30 897 H 92.477 -2.06015 -3.69212 0
M  V30 898 H 90.195 -6.29451 -5.06771 0
M  V30 899 H 93.781 -4.12034 -4.10754 0
M  V30 900 H 92.661 -6.21027 -4.78848 0
M  V30 901 N 90.1641 1.46063 -0.591896 0
M  V30 902 C 91.1111 2.30399 0.136069 0
M  V30 903 C 92.0811 1.41169 0.875238 0
M  V30 904 O 93.2661 1.70112 0.86409 0
M  V30 905 C 90.4061 3.25804 1.13781 0
M  V30 906 C 89.5191 4.30134 0.401137 0
M  V30 907 C 88.6541 5.12659 1.39121 0
M  V30 908 C 87.6931 6.0873 0.641462 0
M  V30 909 N 86.8301 6.8409 1.58004 0
M  V30 910 H 91.6701 2.92118 -0.589144 0
M  V30 911 H 89.2071 1.43959 -0.302342 0
M  V30 912 H 91.1651 3.79569 1.73156 0
M  V30 913 H 89.7951 2.65872 1.83062 0
M  V30 914 H 88.8471 3.79152 -0.307826 0
M  V30 915 H 90.1591 4.98458 -0.184565 0
M  V30 916 H 89.3131 5.70747 2.05749 0
M  V30 917 H 88.0521 4.44316 2.01084 0
M  V30 918 H 87.0571 5.49786 -0.0385419 0
M  V30 919 H 88.2821 6.79095 0.0270945 0
M  V30 920 H 86.2281 6.18449 2.18761 0
M  V30 921 H 86.1451 7.48709 1.04738 0
M  V30 922 H 87.4131 7.4673 2.23639 0
M  V30 923 N 91.6422 0.330177 1.54103 0
M  V30 924 C 92.5522 -0.541534 2.28264 0
M  V30 925 C 93.5682 -1.12351 1.32866 0
M  V30 926 O 94.7442 -1.14206 1.65888 0
M  V30 927 C 91.8092 -1.68322 3.03098 0
M  V30 928 C 90.8702 -1.13238 4.14096 0
M  V30 929 C 90.1032 -2.21966 4.85352 0
M  V30 930 O 90.3262 -3.42437 4.56172 0
M  V30 931 O 89.2602 -1.87013 5.7211 0
M  V30 932 H 93.0862 0.060938 3.03639 0
M  V30 933 H 90.6712 0.09565 1.49093 0
M  V30 934 H 92.5532 -2.34777 3.49939 0
M  V30 935 H 91.2282 -2.27176 2.30593 0
M  V30 936 H 90.1352 -0.432736 3.71589 0
M  V30 937 H 91.4682 -0.588898 4.88664 0
M  V30 938 N 93.1203 -1.57491 0.0584922 0
M  V30 939 C 94.3973 -1.84346 -0.653918 0
M  V30 940 C 94.7773 -0.948355 -1.88599 0
M  V30 941 O 94.1253 -0.0112403 -2.28497 0
M  V30 942 C 94.3353 -3.34239 -1.00425 0
M  V30 943 C 95.6833 -4.01431 -1.38342 0
M  V30 944 O 96.7073 -3.38907 -1.09637 0
M  V30 945 O 95.5663 -5.11683 -1.91943 0
M  V30 946 H 92.6603 -0.761112 -0.323478 0
M  V30 947 H 95.2063 -1.6947 0.0884125 0
M  V30 948 H 93.9783 -3.91089 -0.128625 0
M  V30 949 H 93.6013 -3.54329 -1.80378 0
M  V30 950 N 94.5984 0.214957 -1.56127 0
M  V30 951 C 95.8474 0.936451 -1.78643 0
M  V30 952 C 96.1604 1.85237 -0.628229 0
M  V30 953 O 97.3664 2.613 -0.737186 0
M  V30 954 C 95.8224 1.7154 -3.16389 0
M  V30 955 C 95.4304 0.845299 -4.39953 0
M  V30 956 C 97.1744 2.42772 -3.48227 0
M  V30 957 C 95.0814 1.62198 -5.68723 0
M  V30 958 H 94.0114 0.353401 -0.666051 0
M  V30 959 H 96.6624 0.190169 -1.82512 0
M  V30 960 H 95.0444 2.50484 -3.06715 0
M  V30 961 H 96.2184 0.0959353 -4.607 0
M  V30 962 H 94.5334 0.244789 -4.1568 0
M  V30 963 H 97.1304 3.01394 -4.41663 0
M  V30 964 H 97.4734 3.15984 -2.71035 0
M  V30 965 H 98.0064 1.70813 -3.5926 0
M  V30 966 H 94.7454 0.933011 -6.48826 0
M  V30 967 H 94.2654 2.34579 -5.52026 0
M  V30 968 H 95.9444 2.18095 -6.09133 0
M  V30 969 N 96.0765 1.50051 0.48192 0
M  V30 970 C 96.9865 1.7089 1.60728 0
M  V30 971 C 98.0025 0.591788 1.63627 0
M  V30 972 O 99.1785 0.868817 1.81696 0
M  V30 973 C 96.2435 1.78855 2.97005 0
M  V30 974 C 95.3045 3.02537 3.04581 0
M  V30 975 C 94.5375 3.10112 4.34357 0
M  V30 976 O 94.7605 2.24765 5.24249 0
M  V30 977 O 93.6945 4.02747 4.47301 0
M  V30 978 H 97.5205 2.66264 1.46072 0
M  V30 979 H 95.1055 1.34018 0.660264 0
M  V30 980 H 96.9875 1.86336 3.77964 0
M  V30 981 H 95.6625 0.866628 3.11883 0
M  V30 982 H 94.5695 3.00563 2.22739 0
M  V30 983 H 95.9025 3.94272 2.94636 0
M  V30 984 N 97.5546 -0.734337 1.39446 0
M  V30 985 C 98.8036 -1.48937 1.36017 0
M  V30 986 C 99.1166 -1.95557 -0.0409005 0
M  V30 987 O 100.323 -2.70779 -0.19778 0
M  V30 988 C 98.7786 -2.69125 2.38955 0
M  V30 989 C 98.3866 -2.29452 3.8478 0
M  V30 990 C 100.131 -3.46944 2.44603 0
M  V30 991 C 98.0376 -3.46366 4.79358 0
M  V30 992 H 96.9676 -0.559296 0.505672 0
M  V30 993 H 99.6186 -0.800983 1.65095 0
M  V30 994 H 98.0006 -3.40041 2.02948 0
M  V30 995 H 99.1746 -1.66077 4.29831 0
M  V30 996 H 97.4896 -1.64723 3.82433 0
M  V30 997 H 100.087 -4.33907 3.12456 0
M  V30 998 H 100.43 -3.89454 1.47076 0
M  V30 999 H 100.963 -2.83056 2.79507 0
M  V30 1000 H 97.7016 -3.08905 5.78151 0
M  V30 1001 H 97.2216 -4.08719 4.38986 0
M  V30 1002 H 98.9006 -4.12691 4.98292 0
M  V30 1003 N 99.0327 -1.24633 -0.964593 0
M  V30 1004 C 100.282 -1.08188 -1.7023 0
M  V30 1005 C 100.595 0.37873 -1.91898 0
M  V30 1006 O 101.801 0.663427 -2.6327 0
M  V30 1007 C 100.257 -1.88773 -3.06419 0
M  V30 1008 C 99.8647 -3.39263 -2.92582 0
M  V30 1009 C 101.609 -1.80867 -3.84041 0
M  V30 1010 C 99.5157 -4.1218 -4.24101 0
M  V30 1011 H 98.4457 -0.401245 -0.638372 0
M  V30 1012 H 101.097 -1.48742 -1.07462 0
M  V30 1013 H 99.4787 -1.41035 -3.70034 0
M  V30 1014 H 100.653 -3.94603 -2.37961 0
M  V30 1015 H 98.9677 -3.48154 -2.28424 0
M  V30 1016 H 101.565 -2.32646 -4.81435 0
M  V30 1017 H 101.908 -0.774543 -4.09031 0
M  V30 1018 H 102.441 -2.26301 -3.27159 0
M  V30 1019 H 99.1797 -5.15965 -4.04303 0
M  V30 1020 H 98.6997 -3.61626 -4.78526 0
M  V30 1021 H 100.379 -4.19349 -4.92702 0
M  V30 1022 N 100.511 1.16574 -1.06058 0
M  V30 1023 C 101.421 2.2452 -0.680282 0
M  V30 1024 C 102.437 1.71348 0.302604 0
M  V30 1025 O 103.613 2.00822 0.152513 0
M  V30 1026 C 100.678 3.46629 -0.0700315 0
M  V30 1027 C 99.7388 4.14849 -1.10448 0
M  V30 1028 C 98.9718 5.31129 -0.523256 0
M  V30 1029 O 99.1948 5.66514 0.664709 0
M  V30 1030 O 98.1288 5.88526 -1.26179 0
M  V30 1031 H 101.955 2.59355 -1.58015 0
M  V30 1032 H 99.5398 1.24043 -0.832694 0
M  V30 1033 H 101.422 4.20543 0.268667 0
M  V30 1034 H 100.097 3.13573 0.803353 0
M  V30 1035 H 99.0038 3.42916 -1.49532 0
M  V30 1036 H 100.337 4.51954 -1.94931 0
M  V30 1037 N 101.989 0.842826 1.3317 0
M  V30 1038 C 102.936 0.276885 2.29133 0
M  V30 1039 C 103.906 -0.609527 1.54512 0
M  V30 1040 O 105.091 -0.546955 1.82792 0
M  V30 1041 C 102.231 -0.538707 3.40869 0
M  V30 1042 C 101.344 0.372169 4.30394 0
M  V30 1043 C 100.479 -0.454908 5.29249 0
M  V30 1044 C 99.5179 0.45411 6.10413 0
M  V30 1045 N 98.6549 -0.335075 7.013 0
M  V30 1046 H 103.495 1.10052 2.76934 0
M  V30 1047 H 101.032 0.554161 1.36262 0
M  V30 1048 H 102.99 -1.02709 4.0436 0
M  V30 1049 H 101.62 -1.32727 2.9425 0
M  V30 1050 H 100.672 0.97888 3.6759 0
M  V30 1051 H 101.984 1.0703 4.87182 0
M  V30 1052 H 101.138 -1.00695 5.98285 0
M  V30 1053 H 99.8769 -1.18646 4.73048 0
M  V30 1054 H 98.8819 1.01813 5.40291 0
M  V30 1055 H 100.107 1.18409 6.68697 0
M  V30 1056 H 98.0529 -1.04994 6.47543 0
M  V30 1057 H 97.9699 0.304262 7.55387 0
M  V30 1058 H 99.2379 -0.869224 7.74638 0
M  V30 1059 N 103.467 -1.45747 0.599634 0
M  V30 1060 C 104.397 -2.33235 -0.111306 0
M  V30 1061 C 105.378 -1.46359 -0.866781 0
M  V30 1062 O 106.563 -1.75146 -0.838904 0
M  V30 1063 C 103.693 -3.28932 -1.11451 0
M  V30 1064 C 102.647 -4.25381 -0.472772 0
M  V30 1065 C 101.973 -5.1071 -1.58365 0
M  V30 1066 C 103.273 -5.18831 0.600948 0
M  V30 1067 H 104.967 -2.92927 0.61919 0
M  V30 1068 H 102.513 -1.40857 0.299215 0
M  V30 1069 H 104.466 -3.89002 -1.62036 0
M  V30 1070 H 103.19 -2.67381 -1.8755 0
M  V30 1071 H 101.849 -3.66598 0.0121472 0
M  V30 1072 H 101.497 -4.45533 -2.33473 0
M  V30 1073 H 101.197 -5.7604 -1.15982 0
M  V30 1074 H 102.721 -5.73647 -2.09194 0
M  V30 1075 H 104.135 -5.73019 0.179491 0
M  V30 1076 H 102.532 -5.92595 0.946076 0
M  V30 1077 H 103.602 -4.6174 1.48068 0
M  V30 1078 N 104.945 -0.338344 -1.53925 0
M  V30 1079 C 106.193 0.259245 -2.0043 0
M  V30 1080 C 106.514 1.51484 -1.22791 0
M  V30 1081 O 105.784 1.93037 -0.33368 0
M  V30 1082 H 104.364 0.0987845 -0.740439 0
M  V30 1083 H 107.026 -0.458302 -1.89435 0
M  V30 1084 H 106.122 0.505334 -3.07982 0
M  V30 1085 N 106.423 1.57458 -0.0668435 0
M  V30 1086 C 107.669 1.93587 0.6043 0
M  V30 1087 C 108.002 0.946722 1.69561 0
M  V30 1088 O 107.277 -0.0248516 1.94484 0
M  V30 1089 C 107.56 3.40014 1.18585 0
M  V30 1090 C 107.413 4.49685 0.101529 0
M  V30 1091 C 108.732 3.87154 2.09284 0
M  V30 1092 H 105.851 0.703958 0.218202 0
M  V30 1093 H 108.493 1.89542 -0.131804 0
M  V30 1094 H 106.643 3.43592 1.81319 0
M  V30 1095 H 108.315 4.5823 -0.531279 0
M  V30 1096 H 106.558 4.30059 -0.568487 0
M  V30 1097 H 107.229 5.49266 0.54874 0
M  V30 1098 H 109.705 3.85551 1.56491 0
M  V30 1099 H 108.581 4.90231 2.46911 0
M  V30 1100 H 108.842 3.2481 2.99918 0
M  V30 1101 N 107.901 -0.206675 1.56239 0
M  V30 1102 C 108.848 -1.25617 1.93621 0
M  V30 1103 C 109.818 -1.45824 0.795274 0
M  V30 1104 O 111.003 -1.59148 1.05245 0
M  V30 1105 C 108.143 -2.59839 2.27107 0
M  V30 1106 C 107.256 -2.47308 3.54207 0
M  V30 1107 C 106.391 -3.74155 3.7707 0
M  V30 1108 C 105.43 -3.56407 4.97635 0
M  V30 1109 N 104.567 -4.75238 5.1681 0
M  V30 1110 H 109.407 -0.930383 2.83104 0
M  V30 1111 H 106.944 -0.448065 1.4011 0
M  V30 1112 H 108.902 -3.38021 2.44535 0
M  V30 1113 H 107.532 -2.90485 1.40778 0
M  V30 1114 H 106.584 -1.60483 3.4489 0
M  V30 1115 H 107.896 -2.30122 4.42544 0
M  V30 1116 H 107.05 -4.60778 3.94675 0
M  V30 1117 H 105.789 -3.94282 2.87042 0
M  V30 1118 H 104.794 -2.68168 4.79964 0
M  V30 1119 H 106.019 -3.37736 5.89161 0
M  V30 1120 H 103.965 -4.95651 4.29728 0
M  V30 1121 H 103.882 -4.60835 5.99306 0
M  V30 1122 H 105.15 -5.63246 5.38864 0
M  V30 1123 N 109.379 -1.50304 -0.473955 0
M  V30 1124 C 110.342 -1.6841 -1.55469 0
M  V30 1125 C 111.342 -0.554905 -1.50922 0
M  V30 1126 O 112.532 -0.821882 -1.53593 0
M  V30 1127 C 109.664 -1.70667 -2.95102 0
M  V30 1128 H 110.857 -2.64828 -1.40733 0
M  V30 1129 H 108.41 -1.39742 -0.700132 0
M  V30 1130 H 109.145 -0.75932 -3.15285 0
M  V30 1131 H 108.93 -2.52698 -2.9981 0
M  V30 1132 H 110.42 -1.8664 -3.73571 0
M  V30 1133 N 110.857 0.726932 -1.39834 0
M  V30 1134 C 112.087 1.51393 -1.40583 0
M  V30 1135 C 112.495 1.892 -0.000740625 0
M  V30 1136 O 111.838 1.55189 0.982951 0
M  V30 1137 C 111.9 2.82588 -2.22226 0
M  V30 1138 C 111.564 2.67169 -3.70769 0
M  V30 1139 C 112.561 2.3518 -4.63666 0
M  V30 1140 C 110.246 2.83788 -4.14451 0
M  V30 1141 C 112.24 2.20002 -5.98229 0
M  V30 1142 C 109.927 2.68229 -5.49087 0
M  V30 1143 C 110.925 2.36382 -6.4079 0
M  V30 1144 O 110.613 2.2093 -7.72946 0
M  V30 1145 H 110.345 0.474168 -0.48181 0
M  V30 1146 H 112.899 0.905247 -1.84376 0
M  V30 1147 H 111.129 3.45746 -1.73195 0
M  V30 1148 H 112.818 3.44247 -2.15055 0
M  V30 1149 H 113.584 2.21984 -4.31217 0
M  V30 1150 H 109.463 3.07566 -3.43401 0
M  V30 1151 H 113.007 1.95067 -6.69772 0
M  V30 1152 H 108.904 2.81006 -5.81125 0
M  V30 1153 H 109.672 2.35937 -7.83757 0
M  V30 1154 N 112.336 1.25143 0.95797 0
M  V30 1155 C 113.752 1.01892 1.22842 0
M  V30 1156 C 113.952 -0.266311 1.99732 0
M  V30 1157 O 113.008 -0.979913 2.3271 0
M  V30 1158 C 114.321 2.24004 2.00606 0
M  V30 1159 C 115.869 2.28731 2.13662 0
M  V30 1160 C 116.344 3.5049 2.94823 0
M  V30 1161 N 117.835 3.50866 3.02403 0
M  V30 1162 C 118.57 4.4174 3.65586 0
M  V30 1163 N 118.066 5.42882 4.30408 0
M  V30 1164 N 119.859 4.29429 3.62694 0
M  V30 1165 H 112.01 2.07718 0.443493 0
M  V30 1166 H 114.273 0.912031 0.258657 0
M  V30 1167 H 113.979 3.17395 1.51503 0
M  V30 1168 H 113.853 2.26907 3.01319 0
M  V30 1169 H 116.24 1.35865 2.61963 0
M  V30 1170 H 116.321 2.29848 1.12265 0
M  V30 1171 H 115.965 4.43676 2.47213 0
M  V30 1172 H 115.895 3.46617 3.96439 0
M  V30 1173 H 118.386 2.777 2.56302 0
M  V30 1174 H 118.699 6.0844 4.76467 0
M  V30 1175 H 117.044 5.46758 4.29047 0
M  V30 1176 H 120.235 3.49643 3.11236 0
M  V30 1177 H 120.408 5.00448 4.1165 0
M  V30 1178 N 113.814 -1.1601 1.06675 0
M  V30 1179 C 115.061 -1.86633 0.785781 0
M  V30 1180 C 115.389 -1.81929 -0.687896 0
M  V30 1181 O 114.644 -1.23253 -1.52011 0
M  V30 1182 C 114.943 -3.35547 1.23057 0
M  V30 1183 C 114.609 -3.60448 2.70902 0
M  V30 1184 C 113.271 -3.66954 3.11285 0
M  V30 1185 C 115.623 -3.7071 3.66365 0
M  V30 1186 C 112.951 -3.81225 4.45965 0
M  V30 1187 C 115.303 -3.86503 5.00797 0
M  V30 1188 C 113.967 -3.91252 5.40813 0
M  V30 1189 H 113.237 -0.682937 0.287538 0
M  V30 1190 H 115.884 -1.37146 1.33654 0
M  V30 1191 H 114.189 -3.87193 0.59907 0
M  V30 1192 H 115.886 -3.88583 0.990163 0
M  V30 1193 H 112.476 -3.56021 2.38636 0
M  V30 1194 H 116.66 -3.64991 3.36296 0
M  V30 1195 H 111.916 -3.83155 4.76447 0
M  V30 1196 H 116.09 -3.93385 5.74649 0
M  V30 1197 H 113.717 -4.02062 6.45174 0
M  V30 1198 N 115.292 -0.849877 -1.32721 0
M  V30 1199 C 116.517 -0.463856 -2.02146 0
M  V30 1200 C 116.942 0.930449 -1.63476 0
M  V30 1201 O 116.3 1.61033 -0.832952 0
M  V30 1202 C 116.348 -0.604955 -3.55489 0
M  V30 1203 O 115.452 0.36425 -4.10788 0
M  V30 1204 H 114.793 -0.187046 -0.637111 0
M  V30 1205 H 117.323 -1.14775 -1.69375 0
M  V30 1206 H 117.333 -0.490696 -4.05038 0
M  V30 1207 H 116.008 -1.62174 -3.82978 0
M  V30 1208 H 114.585 0.206628 -3.72327 0
M  V30 1209 N 116.77 1.45427 -0.607355 0
M  V30 1210 C 118.019 2.01452 -0.100036 0
M  V30 1211 C 118.332 1.48159 1.27704 0
M  V30 1212 O 119.538 1.96159 1.87707 0
M  V30 1213 C 117.994 3.59672 -0.128158 0
M  V30 1214 C 117.602 4.21962 -1.50507 0
M  V30 1215 C 119.346 4.23262 0.323932 0
M  V30 1216 C 117.253 5.72333 -1.48959 0
M  V30 1217 H 116.183 0.75325 -0.0336299 0
M  V30 1218 H 118.834 1.66901 -0.76265 0
M  V30 1219 H 117.216 3.91411 0.601105 0
M  V30 1220 H 118.39 4.01796 -2.25602 0
M  V30 1221 H 116.705 3.70565 -1.89923 0
M  V30 1222 H 119.302 5.33522 0.354691 0
M  V30 1223 H 119.645 3.93921 1.34656 0
M  V30 1224 H 120.178 3.96239 -0.352056 0
M  V30 1225 H 116.917 6.06373 -2.48981 0
M  V30 1226 H 116.437 5.94691 -0.781214 0
M  V30 1227 H 118.116 6.35525 -1.21313 0
M  V30 1228 N 118.248 0.346503 1.53744 0
M  V30 1229 C 119.473 -0.253074 2.0585 0
M  V30 1230 C 119.898 -1.43202 1.21962 0
M  V30 1231 O 119.256 -1.79783 0.234073 0
M  V30 1232 C 119.304 -0.643193 3.54817 0
M  V30 1233 O 118.408 -1.74286 3.73762 0
M  V30 1234 H 117.749 -0.0413583 0.662711 0
M  V30 1235 H 120.279 0.501574 1.98357 0
M  V30 1236 H 120.289 -0.919526 3.97503 0
M  V30 1237 H 118.964 0.218966 4.15323 0
M  V30 1238 H 117.541 -1.46356 3.42979 0
M  V30 1239 N 119.726 -1.57421 0.075193 0
M  V30 1240 C 120.972 -1.94716 -0.587998 0
M  V30 1241 C 121.327 -0.955205 -1.67014 0
M  V30 1242 O 120.62 0.0219842 -1.91587 0
M  V30 1243 C 120.814 -3.36428 -1.20626 0
M  V30 1244 C 120.643 -4.49317 -0.185541 0
M  V30 1245 C 119.413 -5.04772 0.23099 0
M  V30 1246 C 121.611 -5.11036 0.57854 0
M  V30 1247 N 119.593 -6.01204 1.24206 0
M  V30 1248 C 120.964 -6.02998 1.44199 0
M  V30 1249 C 123.019 -4.93844 0.634237 0
M  V30 1250 C 121.722 -6.79614 2.3562 0
M  V30 1251 C 123.748 -5.71106 1.53597 0
M  V30 1252 C 123.11 -6.6272 2.38709 0
M  V30 1253 H 119.209 -0.759536 -0.186089 0
M  V30 1254 H 121.793 -1.94097 0.153128 0
M  V30 1255 H 119.964 -3.37778 -1.9173 0
M  V30 1256 H 121.696 -3.60951 -1.8302 0
M  V30 1257 H 118.451 -4.73353 -0.152807 0
M  V30 1258 H 118.875 -6.54119 1.74521 0
M  V30 1259 H 123.517 -4.22799 -0.00960004 0
M  V30 1260 H 121.235 -7.49934 3.01038 0
M  V30 1261 H 124.821 -5.59824 1.58394 0
M  V30 1262 H 123.701 -7.2146 3.07352 0
M  V30 1263 N 121.204 0.198386 -1.56346 0
M  V30 1264 C 122.615 0.763358 -1.70381 0
M  V30 1265 C 122.966 1.83995 -0.681203 0
M  V30 1266 O 122.091 2.15785 0.16305 0
M  V30 1267 C 122.686 1.39143 -3.08909 0
M  V30 1268 C 121.245 1.90352 -3.2472 0
M  V30 1269 C 120.392 0.772233 -2.6633 0
M  V30 1270 H 123.343 -0.0266377 -1.58678 0
M  V30 1271 H 123.364 2.26076 -3.06055 0
M  V30 1272 H 122.876 0.607638 -3.83314 0
M  V30 1273 H 120.977 2.71461 -2.55225 0
M  V30 1274 H 121.09 2.06757 -4.3219 0
M  V30 1275 H 119.454 1.18566 -2.2542 0
M  V30 1276 H 120.237 0.00073556 -3.433 0
M  V30 1277 N 122.682 1.50554 0.465978 0
M  V30 1278 C 124.098 1.38093 0.800154 0
M  V30 1279 C 124.298 0.440988 1.96615 0
M  V30 1280 O 123.354 -0.114499 2.5224 0
M  V30 1281 C 124.667 2.79565 1.10742 0
M  V30 1282 C 126.215 2.88516 1.21357 0
M  V30 1283 C 126.69 4.30833 1.55393 0
M  V30 1284 N 128.181 4.33807 1.62375 0
M  V30 1285 C 128.916 5.40927 1.90225 0
M  V30 1286 N 128.412 6.58247 2.16062 0
M  V30 1287 N 130.205 5.28376 1.9177 0
M  V30 1288 H 122.356 2.10237 -0.302366 0
M  V30 1289 H 124.619 0.945203 -0.0727746 0
M  V30 1290 H 124.325 3.50208 0.323661 0
M  V30 1291 H 124.199 3.17125 2.04234 0
M  V30 1292 H 126.586 2.1809 1.98799 0
M  V30 1293 H 126.667 2.54492 0.258321 0
M  V30 1294 H 126.311 5.01799 0.784889 0
M  V30 1295 H 126.241 4.62347 2.52076 0
M  V30 1296 H 128.732 3.49212 1.44427 0
M  V30 1297 H 129.045 7.3569 2.36601 0
M  V30 1298 H 127.39 6.61413 2.13444 0
M  V30 1299 H 130.581 4.35715 1.71085 0
M  V30 1300 H 130.754 6.11944 2.13139 0
M  V30 1301 N 124.16 -0.719506 1.40217 0
M  V30 1302 C 125.409 -1.47486 1.37589 0
M  V30 1303 C 125.722 -1.9559 -0.0201568 0
M  V30 1304 O 126.928 -2.70973 -0.169049 0
M  V30 1305 C 125.384 -2.66575 2.41796 0
M  V30 1306 C 124.992 -2.25358 3.87192 0
M  V30 1307 C 126.736 -3.4433 2.48269 0
M  V30 1308 C 124.643 -3.41262 4.83005 0
M  V30 1309 H 123.573 -0.553901 0.511576 0
M  V30 1310 H 126.224 -0.783427 1.65936 0
M  V30 1311 H 124.606 -3.3787 2.06543 0
M  V30 1312 H 125.78 -1.61509 4.31569 0
M  V30 1313 H 124.095 -1.60657 3.84159 0
M  V30 1314 H 126.692 -4.30569 3.17041 0
M  V30 1315 H 127.035 -3.87872 1.51198 0
M  V30 1316 H 127.568 -2.80076 2.82493 0
M  V30 1317 H 124.307 -3.02755 5.81394 0
M  V30 1318 H 123.827 -4.0404 4.43297 0
M  V30 1319 H 125.506 -4.07383 5.02641 0
M  V30 1320 N 125.638 -1.25649 -0.95132 0
M  V30 1321 C 126.568 -1.08808 -2.06599 0
M  V30 1322 C 127.549 0.00382547 -1.701 0
M  V30 1323 O 128.734 -0.166325 -1.93486 0
M  V30 1324 C 125.864 -0.709542 -3.39975 0
M  V30 1325 C 124.818 -1.75206 -3.90496 0
M  V30 1326 C 124.144 -1.22811 -5.20405 0
M  V30 1327 C 125.444 -3.15153 -4.16504 0
M  V30 1328 H 127.138 -2.02048 -2.20946 0
M  V30 1329 H 124.684 -0.972835 -1.06169 0
M  V30 1330 H 126.637 -0.578649 -4.17408 0
M  V30 1331 H 125.361 0.258556 -3.25575 0
M  V30 1332 H 124.02 -1.87145 -3.15234 0
M  V30 1333 H 123.668 -0.250145 -5.02378 0
M  V30 1334 H 123.368 -1.92492 -5.55176 0
M  V30 1335 H 124.892 -1.10968 -6.00432 0
M  V30 1336 H 126.306 -3.06349 -4.84586 0
M  V30 1337 H 124.703 -3.82333 -4.62538 0
M  V30 1338 H 125.773 -3.61966 -3.22658 0
M  V30 1339 N 127.117 1.15442 -1.07289 0
M  V30 1340 C 128.528 1.67803 -0.818475 0
M  V30 1341 C 128.879 1.8489 0.656507 0
M  V30 1342 O 128.004 1.55176 1.50829 0
M  V30 1343 C 128.599 3.04805 -1.47917 0
M  V30 1344 C 127.158 3.54245 -1.27229 0
M  V30 1345 C 126.305 2.29986 -1.54925 0
M  V30 1346 H 129.256 0.996646 -1.23502 0
M  V30 1347 H 129.277 3.69702 -0.90005 0
M  V30 1348 H 128.789 2.92336 -2.55267 0
M  V30 1349 H 126.89 3.71956 -0.21899 0
M  V30 1350 H 127.003 4.35723 -1.99203 0
M  V30 1351 H 125.367 2.35496 -0.970242 0
M  V30 1352 H 126.15 2.20105 -2.63455 0
M  V30 1353 N 128.595 0.856903 1.32268 0
M  V30 1354 C 129.505 0.306131 2.32594 0
M  V30 1355 C 130.521 -0.577209 1.64147 0
M  V30 1356 O 131.697 -0.477043 1.95669 0
M  V30 1357 C 128.762 -0.494561 3.43154 0
M  V30 1358 C 127.823 0.415186 4.27288 0
M  V30 1359 C 127.056 -0.347387 5.32568 0
M  V30 1360 O 127.279 -1.57708 5.48165 0
M  V30 1361 O 126.213 0.287982 6.01211 0
M  V30 1362 H 130.039 1.13737 2.81598 0
M  V30 1363 H 127.624 0.619902 1.35932 0
M  V30 1364 H 129.506 -0.948944 4.10576 0
M  V30 1365 H 128.181 -1.30257 2.96336 0
M  V30 1366 H 127.088 0.917793 3.62667 0
M  V30 1367 H 128.421 1.18844 4.77637 0
M  V30 1368 N 130.073 -1.45103 0.615059 0
M  V30 1369 C 131.321 -2.01784 0.112955 0
M  V30 1370 C 131.642 -1.48504 -1.26378 0
M  V30 1371 O 130.912 -0.682245 -1.83636 0
M  V30 1372 H 129.492 -0.745993 0.0387668 0
M  V30 1373 H 132.154 -1.77808 0.798141 0
M  V30 1374 H 131.25 -3.12025 0.0684069 0
M  V30 1375 N 131.551 -0.354651 -1.53558 0
M  V30 1376 C 132.779 0.239515 -2.05509 0
M  V30 1377 C 133.194 1.4333 -1.2289 0
M  V30 1378 O 132.551 1.80538 -0.266899 0
M  V30 1379 C 132.602 0.643719 -3.55723 0
M  V30 1380 O 132.323 -0.502602 -4.35207 0
M  V30 1381 C 133.824 1.29743 -4.23889 0
M  V30 1382 H 131.044 0.0442697 -0.669538 0
M  V30 1383 H 133.588 -0.509856 -1.98042 0
M  V30 1384 H 131.743 1.34302 -3.63376 0
M  V30 1385 H 132.157 -0.178172 -5.24197 0
M  V30 1386 H 133.631 1.53091 -5.30346 0
M  V30 1387 H 134.108 2.25441 -3.76926 0
M  V30 1388 H 134.714 0.639865 -4.20459 0
M  V30 1389 N 133.029 1.57378 -0.0835403 0
M  V30 1390 C 134.277 1.93547 0.581718 0
M  V30 1391 C 134.598 0.96524 1.69435 0
M  V30 1392 O 133.868 0.0153369 1.95894 0
M  V30 1393 H 132.448 0.714521 0.217874 0
M  V30 1394 H 135.11 1.94366 -0.144158 0
M  V30 1395 H 134.206 2.95665 0.999423 0
M  V30 1396 N 134.507 -0.190092 1.56449 0
M  V30 1397 C 135.923 -0.54113 1.50146 0
M  V30 1398 C 136.123 -1.85603 0.784465 0
M  V30 1399 O 135.179 -2.5024 0.337051 0
M  V30 1400 C 136.492 -0.591241 2.9483 0
M  V30 1401 C 138.04 -0.679732 3.0553 0
M  V30 1402 C 138.515 -0.760908 4.51635 0
M  V30 1403 N 140.006 -0.824302 4.55806 0
M  V30 1404 C 140.741 -0.907365 5.66175 0
M  V30 1405 N 140.237 -0.952422 6.86222 0
M  V30 1406 N 142.03 -0.94494 5.541 0
M  V30 1407 H 134.181 0.67235 2.01478 0
M  V30 1408 H 136.444 0.240127 0.917084 0
M  V30 1409 H 136.15 0.305905 3.50367 0
M  V30 1410 H 136.024 -1.44422 3.48457 0
M  V30 1411 H 138.411 -1.56731 2.50039 0
M  V30 1412 H 138.492 0.199549 2.5502 0
M  V30 1413 H 138.136 0.122336 5.07753 0
M  V30 1414 H 138.066 -1.65606 4.99882 0
M  V30 1415 H 140.557 -0.798526 3.69367 0
M  V30 1416 H 140.87 -1.01645 7.66086 0
M  V30 1417 H 139.215 -0.921014 6.8887 0
M  V30 1418 H 142.406 -0.906612 4.59236 0
M  V30 1419 H 142.579 -1.00622 6.4014 0
M  V30 1420 N 135.985 -1.50799 -0.457987 0
M  V30 1421 C 137.231 -1.62683 -1.21088 0
M  V30 1422 C 137.564 -0.332268 -1.91336 0
M  V30 1423 O 136.839 0.667043 -1.82704 0
M  V30 1424 C 137.122 -2.81615 -2.24422 0
M  V30 1425 C 136.975 -4.20989 -1.58392 0
M  V30 1426 C 138.294 -2.96085 -3.2561 0
M  V30 1427 H 135.413 -0.592087 -0.438864 0
M  V30 1428 H 138.055 -1.83225 -0.50286 0
M  V30 1429 H 136.205 -2.64231 -2.84806 0
M  V30 1430 H 137.877 -4.49994 -1.01504 0
M  V30 1431 H 136.12 -4.24641 -0.886704 0
M  V30 1432 H 136.791 -5.0016 -2.33547 0
M  V30 1433 H 139.267 -3.12042 -2.75262 0
M  V30 1434 H 138.143 -3.80902 -3.95228 0
M  V30 1435 H 138.404 -2.0726 -3.90507 0
M  V30 1436 N 137.463 0.71206 -1.40597 0
M  V30 1437 C 138.411 1.84746 -1.41321 0
M  V30 1438 C 139.405 1.66842 -0.293268 0
M  V30 1439 O 140.611 1.73904 -0.464481 0
M  V30 1440 H 136.986 0.608522 -0.441819 0
M  V30 1441 H 138.957 1.81252 -2.37045 0
M  V30 1442 C 137.706 3.22638 -1.29614 0
M  V30 1443 H 137.029 3.37023 -2.15071 0
M  V30 1444 H 138.469 4.02209 -1.3418 0
M  V30 1445 C 136.928 3.36899 -0.00673121 0
M  V30 1446 O 137.458 3.90186 0.954859 0
M  V30 1447 N 135.664 2.9053 0.0639327 0
M  V30 1448 H 135.211 2.47353 -0.719311 0
M  V30 1449 H 135.169 3.0045 0.926118 0
M  V30 1450 N 138.941 1.26152 0.944643 0
M  V30 1451 C 139.873 1.03199 2.04652 0
M  V30 1452 C 140.886 -0.00642356 1.62799 0
M  V30 1453 O 142.075 0.233263 1.76969 0
M  V30 1454 C 139.175 0.540111 3.34568 0
M  V30 1455 C 138.348 1.64697 4.05208 0
M  V30 1456 C 137.407 1.15374 5.13396 0
M  V30 1457 O 136.433 1.85013 5.38293 0
M  V30 1458 N 137.635 0.00031529 5.805 0
M  V30 1459 H 140.4 1.9808 2.2491 0
M  V30 1460 H 137.961 1.17491 1.11389 0
M  V30 1461 H 139.953 0.194401 4.04233 0
M  V30 1462 H 138.523 -0.315021 3.11009 0
M  V30 1463 H 137.743 2.16379 3.29506 0
M  V30 1464 H 139.031 2.3903 4.49157 0
M  V30 1465 H 138.429 -0.581336 5.62705 0
M  V30 1466 H 136.986 -0.286346 6.51171 0
M  V30 1467 N 140.419 -1.14872 1.07899 0
M  V30 1468 C 141.366 -2.19791 0.704319 0
M  V30 1469 C 142.336 -1.63238 -0.306987 0
M  V30 1470 O 143.521 -1.8983 -0.192171 0
M  V30 1471 C 140.661 -3.44911 0.114244 0
M  V30 1472 C 139.774 -4.15637 1.1777 0
M  V30 1473 C 138.909 -5.28324 0.552037 0
M  V30 1474 C 137.948 -5.90875 1.59789 0
M  V30 1475 N 137.085 -6.95022 0.994404 0
M  V30 1476 H 141.925 -2.5119 1.60336 0
M  V30 1477 H 139.462 -1.23356 0.801352 0
M  V30 1478 H 141.42 -4.16477 -0.245544 0
M  V30 1479 H 140.05 -3.14011 -0.74813 0
M  V30 1480 H 139.102 -3.42512 1.65499 0
M  V30 1481 H 140.414 -4.5823 1.97046 0
M  V30 1482 H 139.568 -6.06538 0.1402 0
M  V30 1483 H 138.307 -4.86939 -0.272431 0
M  V30 1484 H 137.312 -5.11369 2.01945 0
M  V30 1485 H 138.537 -6.34337 2.42474 0
M  V30 1486 H 136.483 -6.55722 0.190939 0
M  V30 1487 H 136.4 -7.36073 1.72432 0
M  V30 1488 H 137.668 -7.77123 0.608253 0
M  V30 1489 N 141.898 -0.863906 -1.31812 0
M  V30 1490 C 143.146 -0.470904 -1.96537 0
M  V30 1491 C 143.467 0.978771 -1.68657 0
M  V30 1492 O 142.737 1.6853 -0.998717 0
M  V30 1493 H 141.317 -0.171148 -0.72713 0
M  V30 1494 H 143.979 -1.10236 -1.60729 0
M  V30 1495 H 143.075 -0.623616 -3.05806 0
M  V30 1496 N 143.376 1.44774 -0.622745 0
M  V30 1497 C 144.306 2.33382 0.0741861 0
M  V30 1498 C 145.287 1.47719 0.843387 0
M  V30 1499 O 146.472 1.76458 0.810934 0
M  V30 1500 C 143.602 3.30663 1.06204 0
M  V30 1501 C 142.556 4.26079 0.405037 0
M  V30 1502 C 141.882 5.13165 1.5022 0
M  V30 1503 C 143.182 5.1781 -0.683414 0
M  V30 1504 H 144.876 2.91905 -0.665713 0
M  V30 1505 H 142.422 1.40363 -0.321587 0
M  V30 1506 H 144.375 3.9153 1.55827 0
M  V30 1507 H 143.099 2.70331 1.83272 0
M  V30 1508 H 141.758 3.66532 -0.0704683 0
M  V30 1509 H 141.406 4.49191 2.26355 0
M  V30 1510 H 141.106 5.77812 1.06803 0
M  V30 1511 H 142.63 5.76902 2.00041 0
M  V30 1512 H 144.044 5.72661 -0.270631 0
M  V30 1513 H 142.441 5.91015 -1.04023 0
M  V30 1514 H 143.511 4.59326 -1.55395 0
M  V30 1515 N 144.854 0.36279 1.53368 0
M  V30 1516 C 146.131 -0.284021 1.93527 0
M  V30 1517 C 146.511 -1.66628 1.29608 0
M  V30 1518 O 145.859 -2.23942 0.45413 0
M  V30 1519 C 146.069 -0.337028 3.47369 0
M  V30 1520 C 147.417 -0.578708 4.20638 0
M  V30 1521 O 148.441 -0.418352 3.53735 0
M  V30 1522 O 147.3 -0.89074 5.39192 0
M  V30 1523 H 144.394 -0.169743 0.809393 0
M  V30 1524 H 146.94 0.41537 1.64538 0
M  V30 1525 H 145.712 0.632217 3.86159 0
M  V30 1526 H 145.335 -1.08243 3.82582 0
M  V30 1527 N 146.332 -1.57332 0.0918853 0
M  V30 1528 C 147.579 -1.94236 -0.572577 0
M  V30 1529 C 147.907 -0.973398 -1.6839 0
M  V30 1530 O 147.162 0.00756912 -1.95699 0
M  V30 1531 C 147.461 -3.37689 -1.17051 0
M  V30 1532 C 147.127 -4.50527 -0.183304 0
M  V30 1533 C 145.789 -4.81119 0.0882276 0
M  V30 1534 C 148.141 -5.18883 0.49095 0
M  V30 1535 C 145.469 -5.77395 1.04076 0
M  V30 1536 C 147.821 -6.1618 1.43193 0
M  V30 1537 C 146.485 -6.45179 1.71173 0
M  V30 1538 H 145.755 -0.710762 -0.209521 0
M  V30 1539 H 148.402 -1.9077 0.167036 0
M  V30 1540 H 146.707 -3.37718 -1.9863 0
M  V30 1541 H 148.404 -3.63543 -1.69227 0
M  V30 1542 H 144.994 -4.26681 -0.405124 0
M  V30 1543 H 149.178 -4.95427 0.294312 0
M  V30 1544 H 144.434 -5.98179 1.26457 0
M  V30 1545 H 148.608 -6.68243 1.96023 0
M  V30 1546 H 146.235 -7.1959 2.4514 0
M  V30 1547 N 147.81 0.181792 -1.56548 0
M  V30 1548 C 149.04 0.914618 -1.85252 0
M  V30 1549 C 149.448 1.76791 -0.673914 0
M  V30 1550 O 148.791 1.80009 0.366416 0
M  V30 1551 C 148.853 1.85019 -3.08234 0
M  V30 1552 C 148.517 1.17754 -4.41569 0
M  V30 1553 C 149.514 0.548035 -5.17003 0
M  V30 1554 C 147.199 1.17742 -4.88305 0
M  V30 1555 C 149.193 -0.0726128 -6.37359 0
M  V30 1556 C 146.88 0.552946 -6.08593 0
M  V30 1557 C 147.878 -0.070978 -6.82963 0
M  V30 1558 O 147.566 -0.685635 -8.00971 0
M  V30 1559 H 147.298 0.271695 -0.618998 0
M  V30 1560 H 149.852 0.189944 -2.0452 0
M  V30 1561 H 148.082 2.61491 -2.84885 0
M  V30 1562 H 149.771 2.45195 -3.23472 0
M  V30 1563 H 150.537 0.540174 -4.81982 0
M  V30 1564 H 146.416 1.65246 -4.30366 0
M  V30 1565 H 149.96 -0.560213 -6.95347 0
M  V30 1566 H 145.857 0.558354 -6.43081 0
M  V30 1567 H 146.625 -0.58385 -8.16415 0
M  V30 1568 N 149.288 1.51039 0.449983 0
M  V30 1569 C 150.236 1.71995 1.5659 0
M  V30 1570 C 151.23 0.586029 1.5894 0
M  V30 1571 O 152.436 0.76709 1.62837 0
M  V30 1572 H 148.811 0.543233 0.520001 0
M  V30 1573 H 150.782 2.65562 1.36085 0
M  V30 1574 C 149.531 1.8506 2.9436 0
M  V30 1575 H 148.854 2.71712 2.93279 0
M  V30 1576 H 150.294 2.0374 3.71842 0
M  V30 1577 C 148.753 0.607277 3.31382 0
M  V30 1578 O 149.283 -0.243903 4.00959 0
M  V30 1579 N 147.489 0.455073 2.87015 0
M  V30 1580 H 147.036 1.14879 2.30566 0
M  V30 1581 H 146.994 -0.375611 3.12148 0
M  V30 1582 N 150.766 -0.704594 1.40972 0
M  V30 1583 C 152.182 -1.01406 1.23244 0
M  V30 1584 C 152.382 -2.01169 0.115399 0
M  V30 1585 O 151.438 -2.47021 -0.523147 0
M  V30 1586 C 152.751 -1.54728 2.57836 0
M  V30 1587 C 154.299 -1.66658 2.64942 0
M  V30 1588 C 154.774 -2.23383 3.9983 0
M  V30 1589 N 156.265 -2.30756 4.01629 0
M  V30 1590 C 157 -2.75655 5.02794 0
M  V30 1591 N 156.496 -3.20225 6.14352 0
M  V30 1592 N 158.289 -2.75138 4.90159 0
M  V30 1593 H 150.44 -0.0435285 2.12355 0
M  V30 1594 H 152.703 -0.0818951 0.944456 0
M  V30 1595 H 152.409 -0.888832 3.40283 0
M  V30 1596 H 152.283 -2.53084 2.79693 0
M  V30 1597 H 154.67 -2.31617 1.8286 0
M  V30 1598 H 154.751 -0.668717 2.46904 0
M  V30 1599 H 154.395 -1.59043 4.82357 0
M  V30 1600 H 154.325 -3.23904 4.15203 0
M  V30 1601 H 156.816 -1.99291 3.21079 0
M  V30 1602 H 157.129 -3.53084 6.87424 0
M  V30 1603 H 155.474 -3.18156 6.17901 0
M  V30 1604 H 158.665 -2.39661 4.02095 0
M  V30 1605 H 158.838 -3.09812 5.6914 0
M  V30 1606 N 152.244 -1.26651 -0.937939 0
M  V30 1607 C 153.493 -1.11775 -1.67897 0
M  V30 1608 C 153.806 0.33794 -1.92659 0
M  V30 1609 O 155.012 0.607434 -2.64618 0
M  V30 1610 C 153.468 -1.9523 -3.02346 0
M  V30 1611 C 153.076 -3.45393 -2.8532 0
M  V30 1612 C 154.82 -1.88972 -3.80118 0
M  V30 1613 C 152.727 -4.21083 -4.15263 0
M  V30 1614 H 151.657 -0.414696 -0.629717 0
M  V30 1615 H 154.308 -1.50988 -1.04283 0
M  V30 1616 H 152.69 -1.48853 -3.66959 0
M  V30 1617 H 153.864 -3.99561 -2.29537 0
M  V30 1618 H 152.179 -3.52921 -2.20988 0
M  V30 1619 H 154.776 -2.42805 -4.76392 0
M  V30 1620 H 155.119 -0.86113 -4.07296 0
M  V30 1621 H 155.652 -2.33189 -3.22285 0
M  V30 1622 H 152.391 -5.24425 -3.93267 0
M  V30 1623 H 151.911 -3.71695 -4.70747 0
M  V30 1624 H 153.59 -4.29706 -4.83696 0
M  V30 1625 N 153.722 1.14298 -1.08507 0
M  V30 1626 C 154.971 1.84708 -0.810305 0
M  V30 1627 C 155.284 1.83903 0.666271 0
M  V30 1628 O 156.49 2.50112 1.05624 0
M  V30 1629 C 154.946 3.31572 -1.39957 0
M  V30 1630 C 154.554 3.40791 -2.90801 0
M  V30 1631 C 156.298 4.07087 -1.20334 0
M  V30 1632 C 154.205 4.81872 -3.4286 0
M  V30 1633 H 153.135 0.691985 -0.299454 0
M  V30 1634 H 155.786 1.28841 -1.30661 0
M  V30 1635 H 154.168 3.87183 -0.830976 0
M  V30 1636 H 155.342 2.95225 -3.53806 0
M  V30 1637 H 153.657 2.78732 -3.0935 0
M  V30 1638 H 156.254 5.11225 -1.56693 0
M  V30 1639 H 156.597 4.16054 -0.143237 0
M  V30 1640 H 157.13 3.57779 -1.73893 0
M  V30 1641 H 153.869 4.78094 -4.48449 0
M  V30 1642 H 153.389 5.27972 -2.84615 0
M  V30 1643 H 155.068 5.50765 -3.39509 0
M  V30 1644 N 155.201 0.870884 1.31352 0
M  V30 1645 C 156.478 0.402907 1.91405 0
M  V30 1646 C 156.858 -1.11512 1.79244 0
M  V30 1647 O 156.206 -1.94411 1.2007 0
M  V30 1648 C 156.416 0.885301 3.37585 0
M  V30 1649 C 157.764 0.911971 4.14691 0
M  V30 1650 O 158.788 0.831016 3.46371 0
M  V30 1651 O 157.647 1.02927 5.3672 0
M  V30 1652 H 154.741 0.120698 0.818145 0
M  V30 1653 H 157.287 0.958857 1.40014 0
M  V30 1654 H 156.059 1.92889 3.40455 0
M  V30 1655 H 155.682 0.307714 3.96407 0
M  V30 1656 N 156.679 -1.44442 0.630414 0
M  V30 1657 C 157.907 -2.06414 0.141671 0
M  V30 1658 C 158.322 -1.47105 -1.18345 0
M  V30 1659 O 157.679 -0.593662 -1.72574 0
M  V30 1660 C 157.73 -3.61494 0.0199784 0
M  V30 1661 O 157.451 -4.18594 1.29269 0
M  V30 1662 C 158.952 -4.40499 -0.497544 0
M  V30 1663 H 156.172 -0.666292 0.0793452 0
M  V30 1664 H 158.716 -1.85323 0.864614 0
M  V30 1665 H 156.871 -3.8185 -0.653402 0
M  V30 1666 H 157.285 -5.12026 1.13707 0
M  V30 1667 H 158.759 -5.49433 -0.531708 0
M  V30 1668 H 159.236 -4.11895 -1.52445 0
M  V30 1669 H 159.842 -4.25061 0.142562 0
M  V30 1670 N 158.157 -0.370918 -1.53173 0
M  V30 1671 C 159.087 0.464847 -2.28826 0
M  V30 1672 C 160.068 1.07936 -1.31468 0
M  V30 1673 O 161.253 1.0956 -1.60344 0
M  V30 1674 C 158.383 1.60196 -3.08147 0
M  V30 1675 C 157.337 1.11443 -4.13237 0
M  V30 1676 C 156.663 2.3422 -4.80672 0
M  V30 1677 C 157.963 0.195384 -5.21934 0
M  V30 1678 H 159.657 -0.166329 -2.98938 0
M  V30 1679 H 157.203 -0.0814359 -1.4377 0
M  V30 1680 H 159.156 2.19332 -3.59822 0
M  V30 1681 H 157.88 2.26045 -2.35735 0
M  V30 1682 H 156.539 0.545727 -3.62515 0
M  V30 1683 H 156.187 2.98537 -4.04827 0
M  V30 1684 H 155.887 2.02269 -5.51689 0
M  V30 1685 H 157.411 2.94032 -5.35143 0
M  V30 1686 H 158.825 0.694375 -5.69079 0
M  V30 1687 H 157.222 -0.0335027 -6.00091 0
M  V30 1688 H 158.292 -0.760961 -4.78892 0
M  V30 1689 N 159.635 1.57281 -0.100228 0
M  V30 1690 C 160.565 2.17328 0.853857 0
M  V30 1691 C 161.546 1.10804 1.2906 0
M  V30 1692 O 162.731 1.38963 1.35657 0
M  V30 1693 C 159.861 2.75772 2.11109 0
M  V30 1694 C 158.815 3.87713 1.81279 0
M  V30 1695 C 158.141 4.32882 3.13874 0
M  V30 1696 C 159.441 5.10677 1.09574 0
M  V30 1697 H 161.135 2.97305 0.353545 0
M  V30 1698 H 158.681 1.43009 0.168612 0
M  V30 1699 H 160.634 3.16433 2.78296 0
M  V30 1700 H 159.358 1.93057 2.63432 0
M  V30 1701 H 158.017 3.476 1.16489 0
M  V30 1702 H 157.665 3.47051 3.64095 0
M  V30 1703 H 157.365 5.08358 2.94696 0
M  V30 1704 H 158.889 4.7618 3.82211 0
M  V30 1705 H 160.303 5.48474 1.66879 0
M  V30 1706 H 158.7 5.91615 1.00557 0
M  V30 1707 H 159.77 4.84835 0.0793299 0
M  V30 1708 N 161.113 -0.173488 1.56642 0
M  V30 1709 C 162.023 -1.23482 1.99473 0
M  V30 1710 C 163.039 -1.48567 0.905752 0
M  V30 1711 O 164.215 -1.60758 1.21321 0
M  V30 1712 C 161.28 -2.55444 2.34413 0
M  V30 1713 C 160.341 -2.38241 3.57127 0
M  V30 1714 C 159.574 -3.63909 3.90392 0
M  V30 1715 O 159.797 -4.68996 3.24653 0
M  V30 1716 O 158.731 -3.58149 4.83749 0
M  V30 1717 H 162.557 -0.901279 2.90018 0
M  V30 1718 H 160.142 -0.380185 1.44482 0
M  V30 1719 H 162.024 -3.33292 2.57865 0
M  V30 1720 H 160.699 -2.88382 1.4703 0
M  V30 1721 H 159.606 -1.58431 3.38896 0
M  V30 1722 H 160.939 -2.10228 4.45045 0
M  V30 1723 N 162.591 -1.51276 -0.441967 0
M  V30 1724 C 163.538 -1.72256 -1.53612 0
M  V30 1725 C 164.508 -0.564164 -1.56225 0
M  V30 1726 O 165.693 -0.798074 -1.73307 0
M  V30 1727 C 162.833 -1.84932 -2.91366 0
M  V30 1728 C 161.946 -3.12459 -2.98317 0
M  V30 1729 C 161.081 -3.15758 -4.27166 0
M  V30 1730 C 160.12 -4.37619 -4.27967 0
M  V30 1731 N 159.257 -4.38493 -5.48333 0
M  V30 1732 H 164.097 -2.65654 -1.35026 0
M  V30 1733 H 161.634 -1.31662 -0.656009 0
M  V30 1734 H 163.592 -1.90263 -3.7129 0
M  V30 1735 H 162.222 -0.949461 -3.08521 0
M  V30 1736 H 161.274 -3.1646 -2.11086 0
M  V30 1737 H 162.586 -4.02382 -2.94771 0
M  V30 1738 H 161.74 -3.19979 -5.15459 0
M  V30 1739 H 160.479 -2.23715 -4.33362 0
M  V30 1740 H 159.484 -4.33579 -3.38067 0
M  V30 1741 H 160.709 -5.30921 -4.23438 0
M  V30 1742 H 158.655 -3.49318 -5.55259 0
M  V30 1743 H 158.572 -5.22219 -5.46647 0
M  V30 1744 H 159.84 -4.469 -6.38671 0
M  V30 1745 N 164.069 0.697108 -1.41344 0
M  V30 1746 C 165.317 1.45426 -1.40341 0
M  V30 1747 C 165.638 1.94996 -0.0128787 0
M  V30 1748 O 164.908 1.71599 0.945027 0
M  V30 1749 H 163.488 0.539594 -0.516573 0
M  V30 1750 H 166.15 0.825201 -1.76569 0
M  V30 1751 H 165.246 2.31817 -2.08967 0
M  V30 1752 N 165.547 1.27147 0.931209 0
M  V30 1753 C 166.796 1.12664 1.67302 0
M  V30 1754 C 167.109 -0.327718 1.92835 0
M  V30 1755 O 168.315 -0.593392 2.64936 0
M  V30 1756 C 166.771 1.9683 3.01307 0
M  V30 1757 C 166.379 3.46901 2.83485 0
M  V30 1758 C 168.123 1.90985 3.79111 0
M  V30 1759 C 166.03 4.23279 4.13024 0
M  V30 1760 H 164.96 0.41803 0.627509 0
M  V30 1761 H 167.611 1.51539 1.03481 0
M  V30 1762 H 165.993 1.50797 3.66164 0
M  V30 1763 H 167.167 4.00773 2.27415 0
M  V30 1764 H 165.482 3.54088 2.19113 0
M  V30 1765 H 168.079 2.45328 4.75098 0
M  V30 1766 H 168.422 0.882718 4.06834 0
M  V30 1767 H 168.955 2.34895 3.21044 0
M  V30 1768 H 165.694 5.26503 3.90481 0
M  V30 1769 H 165.214 3.74186 4.6877 0
M  V30 1770 H 166.893 4.32265 4.81411 0
M  V30 1771 N 167.025 -1.13721 1.09112 0
M  V30 1772 C 168.253 -1.88773 0.846899 0
M  V30 1773 C 168.668 -1.7896 -0.601572 0
M  V30 1774 O 168.025 -1.15394 -1.41388 0
M  V30 1775 C 168.076 -3.3849 1.26913 0
M  V30 1776 O 167.797 -3.48043 2.66079 0
M  V30 1777 C 169.298 -4.30518 1.05682 0
M  V30 1778 H 166.518 -0.59772 0.304914 0
M  V30 1779 H 169.062 -1.43977 1.45227 0
M  V30 1780 H 167.217 -3.80881 0.707723 0
M  V30 1781 H 167.631 -4.4109 2.83795 0
M  V30 1782 H 169.105 -5.3391 1.40156 0
M  V30 1783 H 169.582 -4.392 -0.00563416 0
M  V30 1784 H 170.188 -3.93893 1.60402 0
M  V30 1785 N 168.503 -0.877838 -1.30888 0
M  V30 1786 C 169.914 -0.544193 -1.78593 0
M  V30 1787 C 170.265 0.939301 -1.72254 0
M  V30 1788 O 169.39 1.7337 -1.29505 0
M  V30 1789 C 169.985 -0.98105 -3.24285 0
M  V30 1790 C 168.544 -0.698935 -3.69854 0
M  V30 1791 C 167.691 -1.168 -2.51502 0
M  V30 1792 H 170.642 -1.06278 -1.17859 0
M  V30 1793 H 170.663 -0.307009 -3.79259 0
M  V30 1794 H 170.175 -2.06079 -3.28866 0
M  V30 1795 H 168.276 0.369112 -3.70767 0
M  V30 1796 H 168.389 -1.28148 -4.61644 0
M  V30 1797 H 166.753 -0.587535 -2.47831 0
M  V30 1798 H 167.536 -2.25533 -2.58824 0
M  V30 1799 N 169.982 1.44106 -0.638065 0
M  V30 1800 C 171.229 2.01978 -0.14533 0
M  V30 1801 C 171.557 1.50234 1.23532 0
M  V30 1802 O 170.812 0.679548 1.83523 0
M  V30 1803 C 171.111 3.5729 -0.0887327 0
M  V30 1804 C 170.777 4.28317 -1.40909 0
M  V30 1805 C 169.439 4.47437 -1.77069 0
M  V30 1806 C 171.791 4.6867 -2.28031 0
M  V30 1807 C 169.119 5.04171 -3.00047 0
M  V30 1808 C 171.471 5.26766 -3.50286 0
M  V30 1809 C 170.135 5.44104 -3.86661 0
M  V30 1810 H 169.405 0.739089 -0.0531801 0
M  V30 1811 H 172.052 1.72781 -0.825761 0
M  V30 1812 H 170.357 3.8594 0.675095 0
M  V30 1813 H 172.054 3.99807 0.309145 0
M  V30 1814 H 168.644 4.1377 -1.1177 0
M  V30 1815 H 172.828 4.53604 -2.01388 0
M  V30 1816 H 168.084 5.15782 -3.28298 0
M  V30 1817 H 172.258 5.56983 -4.18023 0
M  V30 1818 H 169.885 5.87832 -4.82034 0
M  V30 1819 N 171.46 0.379036 1.52974 0
M  V30 1820 C 172.706 -0.206727 2.01744 0
M  V30 1821 C 173.039 -1.47314 1.26539 0
M  V30 1822 O 172.314 -1.91084 0.362903 0
M  V30 1823 C 172.597 -0.485066 3.56818 0
M  V30 1824 C 172.45 0.795919 4.42702 0
M  V30 1825 C 173.769 -1.28003 4.21074 0
M  V30 1826 H 170.888 -0.0736607 0.73331 0
M  V30 1827 H 173.53 0.506581 1.83122 0
M  V30 1828 H 171.68 -1.09272 3.72816 0
M  V30 1829 H 173.352 1.43307 4.38476 0
M  V30 1830 H 171.595 1.41344 4.10127 0
M  V30 1831 H 172.266 0.555947 5.49193 0
M  V30 1832 H 174.742 -0.765867 4.08991 0
M  V30 1833 H 173.618 -1.44352 5.29579 0
M  V30 1834 H 173.879 -2.29236 3.78026 0
M  V30 1835 N 172.938 -1.57226 0.108567 0
M  V30 1836 C 174.166 -1.99179 -0.559954 0
M  V30 1837 C 174.581 -0.988022 -1.60884 0
M  V30 1838 O 173.938 0.0205512 -1.82488 0
M  V30 1839 C 173.989 -3.41159 -1.19552 0
M  V30 1840 O 173.71 -4.37694 -0.188577 0
M  V30 1841 C 175.211 -3.98188 -1.94837 0
M  V30 1842 H 172.431 -0.654228 -0.149088 0
M  V30 1843 H 174.975 -2.03598 0.19183 0
M  V30 1844 H 173.13 -3.37711 -1.89815 0
M  V30 1845 H 173.544 -5.20469 -0.649014 0
M  V30 1846 H 175.018 -4.99644 -2.34648 0
M  V30 1847 H 175.495 -3.3675 -2.81951 0
M  V30 1848 H 176.101 -4.0515 -1.2936 0
M  V30 1849 N 174.416 0.165178 -1.56732 0
M  V30 1850 C 175.665 0.879143 -1.81532 0
M  V30 1851 C 175.978 1.83144 -0.686842 0
M  V30 1852 O 177.184 2.58823 -0.819944 0
M  V30 1853 C 175.64 1.61388 -3.21686 0
M  V30 1854 C 175.248 0.704904 -4.4242 0
M  V30 1855 C 176.992 2.3157 -3.55774 0
M  V30 1856 C 174.899 1.44022 -5.73595 0
M  V30 1857 H 173.829 0.332033 -0.676957 0
M  V30 1858 H 176.48 0.132008 -1.83025 0
M  V30 1859 H 174.862 2.40599 -3.14529 0
M  V30 1860 H 176.036 -0.0506815 -4.60772 0
M  V30 1861 H 174.351 0.112419 -4.16248 0
M  V30 1862 H 176.948 2.8719 -4.51028 0
M  V30 1863 H 177.291 3.07201 -2.8095 0
M  V30 1864 H 177.824 1.59297 -3.64513 0
M  V30 1865 H 174.563 0.72612 -6.51466 0
M  V30 1866 H 174.083 2.16898 -5.5921 0
M  V30 1867 H 175.762 1.98606 -6.15764 0
M  V30 1868 N 175.894 1.51508 0.433938 0
M  V30 1869 C 177.124 1.67914 1.20369 0
M  V30 1870 C 177.532 0.377461 1.85397 0
M  V30 1871 O 176.875 -0.654255 1.71654 0
M  V30 1872 C 176.937 2.74045 2.32679 0
M  V30 1873 C 176.601 4.16543 1.87991 0
M  V30 1874 C 177.598 5.01211 1.38145 0
M  V30 1875 C 175.283 4.6266 1.95579 0
M  V30 1876 C 177.277 6.30056 0.964774 0
M  V30 1877 C 174.964 5.91501 1.53523 0
M  V30 1878 C 175.962 6.75027 1.04055 0
M  V30 1879 O 175.65 8.01459 0.625964 0
M  V30 1880 H 175.382 0.566578 0.368735 0
M  V30 1881 H 177.936 1.98709 0.51999 0
M  V30 1882 H 176.166 2.38572 3.04336 0
M  V30 1883 H 177.855 2.79295 2.94532 0
M  V30 1884 H 178.621 4.66783 1.31675 0
M  V30 1885 H 174.5 3.97767 2.33029 0
M  V30 1886 H 178.044 6.95202 0.57796 0
M  V30 1887 H 173.941 6.25442 1.59665 0
M  V30 1888 H 174.709 8.15043 0.751509 0
M  V30 1889 N 177.372 -0.689602 1.41712 0
M  V30 1890 C 178.322 -1.79571 1.40493 0
M  V30 1891 C 179.306 -1.58473 0.278409 0
M  V30 1892 O 180.498 -1.69204 0.519532 0
M  V30 1893 C 177.627 -3.17923 1.29536 0
M  V30 1894 C 176.713 -3.44695 2.47075 0
M  V30 1895 N 177.104 -3.42132 3.72531 0
M  V30 1896 C 175.402 -3.75269 2.41017 0
M  V30 1897 C 176.103 -3.67976 4.50521 0
M  V30 1898 N 175.079 -3.88014 3.80718 0
M  V30 1899 H 178.881 -1.75961 2.35404 0
M  V30 1900 H 176.395 -0.889839 1.35851 0
M  V30 1901 H 178.392 -3.97167 1.26745 0
M  V30 1902 H 177.052 -3.22741 0.356153 0
M  V30 1903 H 178.063 -3.22375 4.05333 0
M  V30 1904 H 174.74 -3.87421 1.55599 0
M  V30 1905 H 176.13 -3.7208 5.59469 0
M  V30 1906 N 178.85 -1.27639 -0.924453 0
M  V30 1907 C 180.096 -1.15345 -1.67532 0
M  V30 1908 C 180.451 0.297096 -1.90092 0
M  V30 1909 O 179.744 1.21374 -1.48253 0
M  V30 1910 C 179.938 -1.87407 -3.04325 0
M  V30 1911 C 179.767 -3.3932 -2.95114 0
M  V30 1912 C 178.537 -4.08644 -2.97218 0
M  V30 1913 C 180.735 -4.35242 -2.73987 0
M  V30 1914 N 178.717 -5.47102 -2.78482 0
M  V30 1915 C 180.088 -5.6099 -2.63988 0
M  V30 1916 C 182.143 -4.25294 -2.589 0
M  V30 1917 C 180.846 -6.77924 -2.40442 0
M  V30 1918 C 182.872 -5.41952 -2.36731 0
M  V30 1919 C 182.234 -6.66658 -2.27478 0
M  V30 1920 H 178.333 -0.47696 -0.619704 0
M  V30 1921 H 180.917 -1.6115 -1.09265 0
M  V30 1922 H 179.088 -1.44053 -3.60699 0
M  V30 1923 H 180.82 -1.6759 -3.68369 0
M  V30 1924 H 177.575 -3.60136 -3.07569 0
M  V30 1925 H 177.999 -6.19852 -2.72236 0
M  V30 1926 H 182.641 -3.29598 -2.64811 0
M  V30 1927 H 180.359 -7.73699 -2.3327 0
M  V30 1928 H 183.945 -5.36137 -2.25938 0
M  V30 1929 H 182.825 -7.55405 -2.10555 0
M  V30 1930 N 180.328 1.1314 -1.09713 0
M  V30 1931 C 181.605 1.80762 -0.747302 0
M  V30 1932 C 181.985 1.96663 0.767265 0
M  V30 1933 O 181.333 1.53706 1.69076 0
M  V30 1934 C 181.543 3.15606 -1.48975 0
M  V30 1935 C 182.891 3.90914 -1.65746 0
M  V30 1936 O 183.915 3.25239 -1.45251 0
M  V30 1937 O 182.774 5.08718 -1.9967 0
M  V30 1938 H 179.868 0.782103 -0.268782 0
M  V30 1939 H 182.414 1.20041 -1.19951 0
M  V30 1940 H 181.186 2.99278 -2.52088 0
M  V30 1941 H 180.809 3.84029 -1.02991 0
M  V30 1942 N 181.806 0.884767 1.30421 0
M  V30 1943 C 182.736 0.367574 2.30589 0
M  V30 1944 C 183.717 -0.549464 1.60981 0
M  V30 1945 O 184.902 -0.46336 1.88591 0
M  V30 1946 C 182.032 -0.418944 3.44764 0
M  V30 1947 C 180.986 0.406316 4.26067 0
M  V30 1948 C 180.312 -0.506793 5.32293 0
M  V30 1949 C 181.612 1.64832 4.95608 0
M  V30 1950 H 183.306 1.20462 2.74097 0
M  V30 1951 H 180.852 0.580695 1.31772 0
M  V30 1952 H 182.805 -0.791395 4.13902 0
M  V30 1953 H 181.529 -1.28964 3.0006 0
M  V30 1954 H 180.188 0.760903 3.58617 0
M  V30 1955 H 179.836 -1.37519 4.83836 0
M  V30 1956 H 179.536 0.0415828 5.87585 0
M  V30 1957 H 181.06 -0.875764 6.04287 0
M  V30 1958 H 182.474 1.34646 5.57264 0
M  V30 1959 H 180.871 2.13688 5.60765 0
M  V30 1960 H 181.941 2.39284 4.21748 0
M  V30 1961 N 183.284 -1.43765 0.645699 0
M  V30 1962 C 184.695 -1.85193 0.236719 0
M  V30 1963 C 185.046 -1.54045 -1.21509 0
M  V30 1964 O 184.171 -0.985694 -1.92647 0
M  V30 1965 C 184.766 -3.36151 0.422845 0
M  V30 1966 C 183.325 -3.76338 0.0682492 0
M  V30 1967 C 182.472 -2.67538 0.729306 0
M  V30 1968 H 185.423 -1.34025 0.849883 0
M  V30 1969 H 185.444 -3.79032 -0.333904 0
M  V30 1970 H 184.956 -3.5879 1.47958 0
M  V30 1971 H 183.057 -3.59312 -0.986179 0
M  V30 1972 H 183.17 -4.76603 0.488469 0
M  V30 1973 H 181.534 -2.54176 0.163235 0
M  V30 1974 H 182.317 -2.93006 1.78892 0
M  V30 1975 N 184.763 -0.387143 -1.52771 0
M  V30 1976 C 186.01 0.195735 -2.01552 0
M  V30 1977 C 186.338 1.46995 -1.27369 0
M  V30 1978 O 185.593 1.92325 -0.361879 0
M  V30 1979 C 185.892 0.512209 -3.53711 0
M  V30 1980 C 185.558 -0.670202 -4.45891 0
M  V30 1981 C 184.22 -0.994586 -4.70809 0
M  V30 1982 C 186.572 -1.46134 -5.00294 0
M  V30 1983 C 183.9 -2.11169 -5.4738 0
M  V30 1984 C 186.252 -2.56903 -5.78086 0
M  V30 1985 C 184.916 -2.89852 -6.01284 0
M  V30 1986 H 184.186 0.0716246 -0.73753 0
M  V30 1987 H 186.833 -0.524046 -1.8419 0
M  V30 1988 H 185.138 1.31329 -3.69134 0
M  V30 1989 H 186.835 0.975804 -3.88946 0
M  V30 1990 H 183.425 -0.407366 -4.2666 0
M  V30 1991 H 187.609 -1.22397 -4.80971 0
M  V30 1992 H 182.865 -2.3707 -5.63567 0
M  V30 1993 H 187.039 -3.18608 -6.19243 0
M  V30 1994 H 184.666 -3.76533 -6.60399 0
M  V30 1995 N 186.241 1.57166 -0.116904 0
M  V30 1996 C 187.204 2.14039 0.819742 0
M  V30 1997 C 188.204 1.07477 1.19605 0
M  V30 1998 O 189.394 1.33263 1.1219 0
M  V30 1999 C 186.526 2.67891 2.10826 0
M  V30 2000 H 187.719 2.98128 0.325511 0
M  V30 2001 H 185.272 1.55739 0.132312 0
M  V30 2002 H 186.007 1.87384 2.64685 0
M  V30 2003 H 185.792 3.45823 1.84793 0
M  V30 2004 H 187.282 3.11809 2.77785 0
M  V30 2005 N 187.719 -0.156864 1.56817 0
M  V30 2006 C 188.649 -1.19589 2.00551 0
M  V30 2007 C 189.63 -1.4536 0.883426 0
M  V30 2008 O 190.815 -1.56449 1.15054 0
M  V30 2009 C 187.945 -2.53143 2.37773 0
M  V30 2010 C 186.899 -2.41913 3.53075 0
M  V30 2011 C 186.225 -3.80088 3.76081 0
M  V30 2012 C 187.525 -1.91157 4.86062 0
M  V30 2013 H 189.219 -0.832293 2.87599 0
M  V30 2014 H 186.765 -0.398918 1.38364 0
M  V30 2015 H 188.718 -3.26047 2.66967 0
M  V30 2016 H 187.442 -2.91319 1.4765 0
M  V30 2017 H 186.101 -1.71462 3.24031 0
M  V30 2018 H 185.749 -4.15683 2.83225 0
M  V30 2019 H 185.449 -3.73439 4.53671 0
M  V30 2020 H 186.973 -4.54556 4.0769 0
M  V30 2021 H 188.387 -2.53846 5.14038 0
M  V30 2022 H 186.784 -1.95422 5.67389 0
M  V30 2023 H 187.854 -0.866673 4.77092 0
M  V30 2024 N 189.197 -1.51736 -0.425897 0
M  V30 2025 C 190.129 -1.70083 -1.53638 0
M  V30 2026 C 191.142 -0.581349 -1.52066 0
M  V30 2027 O 192.331 -0.856017 -1.56635 0
M  V30 2028 C 189.431 -1.71078 -2.9255 0
M  V30 2029 C 188.604 -2.99795 -3.185 0
M  V30 2030 C 187.663 -2.92825 -4.37196 0
M  V30 2031 O 186.689 -3.66756 -4.35291 0
M  V30 2032 N 187.891 -2.0946 -5.41393 0
M  V30 2033 H 190.656 -2.65882 -1.383 0
M  V30 2034 H 188.217 -1.49765 -0.614988 0
M  V30 2035 H 190.209 -1.63969 -3.69995 0
M  V30 2036 H 188.779 -0.828242 -3.01428 0
M  V30 2037 H 187.999 -3.20684 -2.2925 0
M  V30 2038 H 189.287 -3.84977 -3.32671 0
M  V30 2039 H 188.685 -1.48792 -5.45781 0
M  V30 2040 H 187.242 -2.08221 -6.17647 0
M  V30 2041 N 190.675 0.682077 -1.42076 0
M  V30 2042 C 191.605 1.80796 -1.47767 0
M  V30 2043 C 192.586 1.6677 -0.334954 0
M  V30 2044 O 193.771 1.863 -0.548264 0
M  V30 2045 C 190.901 3.19038 -1.37229 0
M  V30 2046 C 189.855 3.47789 -2.49453 0
M  V30 2047 C 189.181 4.8553 -2.23975 0
M  V30 2048 C 190.481 3.45411 -3.91776 0
M  V30 2049 H 192.175 1.7629 -2.41997 0
M  V30 2050 H 189.721 0.846721 -1.16476 0
M  V30 2051 H 191.674 3.97528 -1.39821 0
M  V30 2052 H 190.398 3.24204 -0.394907 0
M  V30 2053 H 189.057 2.71657 -2.46166 0
M  V30 2054 H 188.705 4.87337 -1.24547 0
M  V30 2055 H 188.405 5.0573 -2.99184 0
M  V30 2056 H 189.929 5.66312 -2.28304 0
M  V30 2057 H 191.343 4.13882 -3.96705 0
M  V30 2058 H 189.74 3.77145 -4.66778 0
M  V30 2059 H 190.81 2.44122 -4.18966 0
M  V30 2060 N 192.153 1.28127 0.917671 0
M  V30 2061 C 193.1 1.11717 2.0196 0
M  V30 2062 C 194.07 0.0153929 1.66093 0
M  V30 2063 O 195.255 0.179596 1.89953 0
M  V30 2064 C 192.395 0.780927 3.36148 0
M  V30 2065 C 191.508 1.96135 3.84909 0
M  V30 2066 C 190.643 1.56609 5.0759 0
M  V30 2067 C 189.682 2.71339 5.48673 0
M  V30 2068 N 188.819 2.32332 6.62545 0
M  V30 2069 H 193.659 2.06003 2.15329 0
M  V30 2070 H 191.196 1.02535 1.05475 0
M  V30 2071 H 193.154 0.56675 4.13333 0
M  V30 2072 H 191.784 -0.124998 3.22558 0
M  V30 2073 H 190.836 2.28777 3.03916 0
M  V30 2074 H 192.148 2.82165 4.1132 0
M  V30 2075 H 191.302 1.31374 5.92305 0
M  V30 2076 H 190.041 0.677014 4.82978 0
M  V30 2077 H 189.046 2.97276 4.62501 0
M  V30 2078 H 190.271 3.60882 5.75274 0
M  V30 2079 H 188.217 1.45889 6.39572 0
M  V30 2080 H 188.134 3.11899 6.88662 0
M  V30 2081 H 189.402 2.10371 7.50576 0
M  V30 2082 N 193.631 -1.12557 1.10312 0
M  V30 2083 C 194.879 -1.83675 0.843091 0
M  V30 2084 C 195.2 -1.84435 -0.633131 0
M  V30 2085 O 194.47 -1.30657 -1.45964 0
M  V30 2086 H 193.05 -0.680138 0.308904 0
M  V30 2087 H 195.712 -1.36301 1.39313 0
M  V30 2088 H 194.808 -2.87908 1.2048 0
M  V30 2089 N 195.109 -0.891671 -1.2995 0
M  V30 2090 C 196.357 -0.512486 -1.95494 0
M  V30 2091 C 196.678 0.942776 -1.70695 0
M  V30 2092 O 195.948 1.66374 -1.03424 0
M  V30 2093 H 194.528 -0.186533 -0.723336 0
M  V30 2094 H 197.19 -1.13621 -1.58355 0
M  V30 2095 H 196.286 -0.688342 -3.04415 0
M  V30 2096 N 196.587 1.43421 -0.653314 0
M  V30 2097 C 197.833 2.02641 -0.175593 0
M  V30 2098 C 198.188 1.5062 1.19713 0
M  V30 2099 O 197.481 0.689697 1.78756 0
M  V30 2100 C 197.675 3.57176 -0.126623 0
M  V30 2101 C 197.504 4.24191 -1.49306 0
M  V30 2102 C 196.274 4.60257 -2.08547 0
M  V30 2103 C 198.472 4.53193 -2.43148 0
M  V30 2104 N 196.454 5.12345 -3.38194 0
M  V30 2105 C 197.825 5.06601 -3.57429 0
M  V30 2106 C 199.88 4.35161 -2.41949 0
M  V30 2107 C 198.583 5.43875 -4.70736 0
M  V30 2108 C 200.609 4.73498 -3.54336 0
M  V30 2109 C 199.971 5.27039 -4.67343 0
M  V30 2110 H 196.07 0.77441 -0.108686 0
M  V30 2111 H 198.654 1.74596 -0.861638 0
M  V30 2112 H 196.825 3.84784 0.528766 0
M  V30 2113 H 198.557 4.03078 0.36198 0
M  V30 2114 H 195.312 4.45302 -1.61255 0
M  V30 2115 H 195.736 5.42842 -4.04538 0
M  V30 2116 H 200.378 3.9304 -1.55818 0
M  V30 2117 H 198.096 5.8494 -5.57558 0
M  V30 2118 H 201.682 4.61241 -3.5461 0
M  V30 2119 H 200.562 5.56153 -5.52868 0
M  V30 2120 N 198.065 0.39524 1.52563 0
M  V30 2121 C 199.028 -0.425001 2.25225 0
M  V30 2122 C 200.028 -0.985266 1.27079 0
M  V30 2123 O 201.218 -0.866332 1.5113 0
M  V30 2124 C 198.35 -1.59686 3.01186 0
M  V30 2125 H 199.543 0.211233 2.99155 0
M  V30 2126 H 197.096 0.147472 1.55603 0
M  V30 2127 H 197.831 -2.27035 2.31572 0
M  V30 2128 H 197.616 -1.20176 3.73229 0
M  V30 2129 H 199.106 -2.17743 3.5634 0
M  V30 2130 N 199.544 -1.57102 0.125237 0
M  V30 2131 C 200.492 -2.16905 -0.839927 0
M  V30 2132 C 201.486 -1.11998 -1.27094 0
M  V30 2133 O 202.692 -1.3029 -1.24195 0
M  V30 2134 H 199.067 -0.694252 -0.288995 0
M  V30 2135 H 201.038 -2.96774 -0.311115 0
M  V30 2136 C 199.787 -2.78795 -2.07771 0
M  V30 2137 H 199.11 -3.59221 -1.755 0
M  V30 2138 H 200.55 -3.2417 -2.73295 0
M  V30 2139 C 199.009 -1.76193 -2.87155 0
M  V30 2140 O 199.539 -1.21909 -3.82755 0
M  V30 2141 N 197.745 -1.45991 -2.51267 0
M  V30 2142 H 197.292 -1.90325 -1.73592 0
M  V30 2143 H 197.25 -0.775844 -3.04677 0
M  V30 2144 N 201.022 0.148545 -1.56898 0
M  V30 2145 C 202.438 0.501131 -1.51528 0
M  V30 2146 C 202.638 1.83458 -0.833399 0
M  V30 2147 O 201.694 2.49259 -0.40328 0
M  V30 2148 C 203.007 0.512864 -2.96294 0
M  V30 2149 C 204.555 0.598487 -3.07225 0
M  V30 2150 C 205.03 0.640897 -4.53494 0
M  V30 2151 N 206.521 0.703163 -4.57832 0
M  V30 2152 C 207.256 0.756935 -5.68382 0
M  V30 2153 N 206.752 0.770147 -6.88506 0
M  V30 2154 N 208.545 0.797698 -5.56411 0
M  V30 2155 H 200.696 -0.725532 -1.99624 0
M  V30 2156 H 202.959 -0.264358 -0.910395 0
M  V30 2157 H 202.665 -0.398691 -3.49433 0
M  V30 2158 H 202.539 1.35133 -3.52163 0
M  V30 2159 H 204.926 1.50046 -2.54106 0
M  V30 2160 H 205.007 -0.267093 -2.54402 0
M  V30 2161 H 204.651 -0.256915 -5.0725 0
M  V30 2162 H 204.581 1.52295 -5.04097 0
M  V30 2163 H 207.072 0.700314 -3.71354 0
M  V30 2164 H 207.385 0.812983 -7.68512 0
M  V30 2165 H 205.73 0.738049 -6.9107 0
M  V30 2166 H 208.921 0.784535 -4.61479 0
M  V30 2167 H 209.094 0.83614 -6.42583 0
M  V30 2168 N 202.5 1.5196 0.417844 0
M  V30 2169 C 203.41 1.77554 1.53336 0
M  V30 2170 C 204.426 0.660655 1.6097 0
M  V30 2171 O 205.602 0.945099 1.77848 0
M  V30 2172 C 202.667 1.91291 2.89152 0
M  V30 2173 C 201.728 3.15183 2.91475 0
M  V30 2174 C 200.961 3.28256 4.20813 0
M  V30 2175 O 201.184 2.46798 5.14244 0
M  V30 2176 O 200.118 4.21356 4.29817 0
M  V30 2177 H 203.944 2.7222 1.34647 0
M  V30 2178 H 201.529 1.36698 0.602828 0
M  V30 2179 H 203.411 2.02199 3.69721 0
M  V30 2180 H 202.086 0.998129 3.07927 0
M  V30 2181 H 200.993 3.09739 2.09791 0
M  V30 2182 H 202.326 4.06414 2.77648 0
M  V30 2183 N 203.978 -0.674533 1.42435 0
M  V30 2184 C 205.227 -1.43034 1.42212 0
M  V30 2185 C 205.54 -1.95555 0.0420788 0
M  V30 2186 O 206.746 -2.71374 -0.0827558 0
M  V30 2187 C 205.202 -2.58748 2.50155 0
M  V30 2188 C 204.81 -2.12925 3.94166 0
M  V30 2189 C 206.554 -3.36257 2.59098 0
M  V30 2190 C 204.461 -3.25723 4.93618 0
M  V30 2191 H 203.391 -0.537345 0.528939 0
M  V30 2192 H 206.042 -0.73024 1.68344 0
M  V30 2193 H 204.424 -3.31128 2.17188 0
M  V30 2194 H 205.598 -1.47697 4.36488 0
M  V30 2195 H 203.913 -1.48354 3.89076 0
M  V30 2196 H 206.51 -4.20264 3.30578 0
M  V30 2197 H 206.853 -3.82866 1.63461 0
M  V30 2198 H 207.386 -2.70947 2.9126 0
M  V30 2199 H 204.125 -2.84105 5.90732 0
M  V30 2200 H 203.645 -3.89732 4.55926 0
M  V30 2201 H 205.324 -3.91186 5.15347 0
M  V30 2202 N 205.456 -1.28612 -0.910864 0
M  V30 2203 C 206.419 -1.12803 -1.9952 0
M  V30 2204 C 207.419 -0.0668264 -1.60661 0
M  V30 2205 O 208.609 -0.312847 -1.71368 0
M  V30 2206 C 205.741 -0.72254 -3.33155 0
M  V30 2207 H 206.934 -2.09109 -2.14973 0
M  V30 2208 H 204.487 -1.11639 -1.09391 0
M  V30 2209 H 205.222 0.241152 -3.23402 0
M  V30 2210 H 205.007 -1.48916 -3.62721 0
M  V30 2211 H 206.497 -0.634666 -4.12749 0
M  V30 2212 N 206.934 1.1197 -1.10907 0
M  V30 2213 C 208.211 1.79959 -0.766432 0
M  V30 2214 C 208.591 1.97466 0.746363 0
M  V30 2215 O 207.939 1.55491 1.67436 0
M  V30 2216 C 208.149 3.14009 -1.52314 0
M  V30 2217 C 209.497 3.89134 -1.69883 0
M  V30 2218 O 210.521 3.2368 -1.48692 0
M  V30 2219 O 209.38 5.06572 -2.05054 0
M  V30 2220 H 206.474 0.779208 -0.277062 0
M  V30 2221 H 209.02 1.18762 -1.21217 0
M  V30 2222 H 207.792 2.96587 -2.55249 0
M  V30 2223 H 207.415 3.82915 -1.07059 0
M  V30 2224 N 208.412 0.89855 1.29475 0
M  V30 2225 C 209.658 0.534065 1.96263 0
M  V30 2226 C 210.013 -0.909415 1.69551 0
M  V30 2227 O 209.306 -1.63596 0.997349 0
M  V30 2228 C 209.5 0.761398 3.49195 0
M  V30 2229 C 209.329 2.22542 3.90775 0
M  V30 2230 C 208.099 2.87264 4.15701 0
M  V30 2231 C 210.297 3.20051 4.02581 0
M  V30 2232 N 208.279 4.24121 4.4384 0
M  V30 2233 C 209.65 4.42023 4.34759 0
M  V30 2234 C 211.705 3.15657 3.85052 0
M  V30 2235 C 210.408 5.60161 4.51235 0
M  V30 2236 C 212.434 4.33078 4.02737 0
M  V30 2237 C 211.796 5.5382 4.35273 0
M  V30 2238 H 207.895 0.245013 0.742625 0
M  V30 2239 H 210.479 1.15912 1.56437 0
M  V30 2240 H 208.65 0.165732 3.88046 0
M  V30 2241 H 210.382 0.362462 4.03074 0
M  V30 2242 H 207.137 2.38064 4.09417 0
M  V30 2243 H 207.561 4.94839 4.6202 0
M  V30 2244 H 212.203 2.23396 3.58962 0
M  V30 2245 H 209.921 6.52913 4.76162 0
M  V30 2246 H 213.507 4.31163 3.90628 0
M  V30 2247 H 212.387 6.43166 4.48672 0
M  V30 2248 N 209.89 -1.43072 0.660911 0
M  V30 2249 C 211.137 -2.01721 0.177445 0
M  V30 2250 C 211.465 -1.5218 -1.21126 0
M  V30 2251 O 210.72 -0.708659 -1.82419 0
M  V30 2252 C 211.019 -3.57103 0.145563 0
M  V30 2253 C 210.685 -4.26021 1.47705 0
M  V30 2254 C 209.347 -4.44563 1.84165 0
M  V30 2255 C 211.699 -4.64983 2.35458 0
M  V30 2256 C 209.027 -4.99334 3.0803 0
M  V30 2257 C 211.379 -5.21127 3.58622 0
M  V30 2258 C 210.043 -5.37884 3.95268 0
M  V30 2259 H 209.313 -0.73815 0.0649317 0
M  V30 2260 H 211.96 -1.71446 0.853144 0
M  V30 2261 H 210.265 -3.86965 -0.61361 0
M  V30 2262 H 211.962 -4.00248 -0.2455 0
M  V30 2263 H 208.552 -4.11939 1.18339 0
M  V30 2264 H 212.736 -4.50343 2.08579 0
M  V30 2265 H 207.992 -5.10493 3.36462 0
M  V30 2266 H 212.166 -5.50262 4.26831 0
M  V30 2267 H 209.793 -5.80089 4.91325 0
M  V30 2268 N 211.368 -0.403325 -1.52352 0
M  V30 2269 C 212.331 0.413051 -2.25447 0
M  V30 2270 C 213.331 0.978513 -1.276 0
M  V30 2271 O 214.521 0.858305 -1.51587 0
M  V30 2272 C 211.653 1.58087 -3.02029 0
M  V30 2273 H 212.846 -0.227094 -2.99039 0
M  V30 2274 H 210.399 -0.155722 -1.55522 0
M  V30 2275 H 211.134 2.25804 -2.32772 0
M  V30 2276 H 210.919 1.18195 -3.73861 0
M  V30 2277 H 212.409 2.1585 -3.57489 0
M  V30 2278 N 212.846 1.57033 -0.133567 0
M  V30 2279 C 213.756 2.19632 0.824564 0
M  V30 2280 C 214.772 1.17666 1.28182 0
M  V30 2281 O 215.948 1.50193 1.3418 0
M  V30 2282 C 213.013 2.79499 2.05137 0
M  V30 2283 C 212.074 3.96548 1.64464 0
M  V30 2284 C 211.307 4.5355 2.81297 0
M  V30 2285 O 211.53 4.09438 3.97136 0
M  V30 2286 O 210.464 5.44018 2.57542 0
M  V30 2287 H 214.29 3.01991 0.321766 0
M  V30 2288 H 211.875 1.49112 0.0927889 0
M  V30 2289 H 213.757 3.17602 2.7696 0
M  V30 2290 H 212.432 2.00162 2.54395 0
M  V30 2291 H 211.339 3.63186 0.897048 0
M  V30 2292 H 212.672 4.77364 1.19934 0
M  V30 2293 N 214.325 -0.140222 1.56975 0
M  V30 2294 C 215.555 -0.865181 1.87612 0
M  V30 2295 C 215.963 -1.74942 0.72055 0
M  V30 2296 O 215.306 -1.80917 -0.318561 0
M  V30 2297 C 215.368 -1.76782 3.13031 0
M  V30 2298 C 215.032 -1.06005 4.44536 0
M  V30 2299 C 216.029 -0.410768 5.18275 0
M  V30 2300 C 213.714 -1.04754 4.91255 0
M  V30 2301 C 215.708 0.241572 6.36942 0
M  V30 2302 C 213.395 -0.391394 6.09845 0
M  V30 2303 C 214.393 0.252029 6.82535 0
M  V30 2304 O 214.081 0.897757 7.98871 0
M  V30 2305 H 213.813 -0.255188 0.625983 0
M  V30 2306 H 216.367 -0.135653 2.04952 0
M  V30 2307 H 214.597 -2.53846 2.91718 0
M  V30 2308 H 216.286 -2.36533 3.29859 0
M  V30 2309 H 217.052 -0.412195 4.83245 0
M  V30 2310 H 212.931 -1.53777 4.34596 0
M  V30 2311 H 216.475 0.744375 6.93617 0
M  V30 2312 H 212.372 -0.387656 6.44335 0
M  V30 2313 H 213.14 0.800102 8.1458 0
M  V30 2314 N 215.803 -1.52179 -0.40978 0
M  V30 2315 C 217.028 -1.70347 -1.18308 0
M  V30 2316 C 217.453 -0.411887 -1.83535 0
M  V30 2317 O 216.811 0.630587 -1.6998 0
M  V30 2318 C 216.859 -2.83977 -2.22238 0
M  V30 2319 O 215.963 -2.495 -3.28365 0
M  V30 2320 H 215.304 -0.567103 -0.345384 0
M  V30 2321 H 217.834 -1.98879 -0.480445 0
M  V30 2322 H 217.844 -3.0887 -2.66577 0
M  V30 2323 H 216.519 -3.77685 -1.74146 0
M  V30 2324 H 215.096 -2.35277 -2.89308 0
M  V30 2325 N 217.281 0.66697 -1.42791 0
M  V30 2326 C 218.697 0.981027 -1.25889 0
M  V30 2327 C 218.897 2.00793 -0.168695 0
M  V30 2328 O 217.953 2.48321 0.45747 0
M  V30 2329 C 219.266 1.47838 -2.61848 0
M  V30 2330 C 220.814 1.59575 -2.69267 0
M  V30 2331 C 221.289 2.12704 -4.05612 0
M  V30 2332 N 222.78 2.20026 -4.07606 0
M  V30 2333 C 223.515 2.62227 -5.09926 0
M  V30 2334 N 223.011 3.03824 -6.22626 0
M  V30 2335 N 224.804 2.62045 -4.97281 0
M  V30 2336 H 216.955 -0.0127891 -2.12396 0
M  V30 2337 H 219.218 0.0568258 -0.946295 0
M  V30 2338 H 218.924 0.798299 -3.4252 0
M  V30 2339 H 218.798 2.45579 -2.86305 0
M  V30 2340 H 221.185 2.26687 -1.88936 0
M  V30 2341 H 221.266 0.60302 -2.48591 0
M  V30 2342 H 220.91 1.46198 -4.86404 0
M  V30 2343 H 220.84 3.12782 -4.23645 0
M  V30 2344 H 223.331 1.90708 -3.2625 0
M  V30 2345 H 223.644 3.34734 -6.96544 0
M  V30 2346 H 221.989 3.01662 -6.26119 0
M  V30 2347 H 225.18 2.28916 -4.08308 0
M  V30 2348 H 225.353 2.94613 -5.77154 0
M  V30 2349 N 218.759 1.29093 0.90403 0
M  V30 2350 C 220.005 1.16986 1.65656 0
M  V30 2351 C 220.338 -0.278925 1.92186 0
M  V30 2352 O 219.613 -1.2019 1.5292 0
M  V30 2353 C 219.896 1.97908 3.0084 0
M  V30 2354 C 219.749 3.50903 2.81403 0
M  V30 2355 C 221.068 1.80208 4.01513 0
M  V30 2356 H 218.187 0.426346 0.601164 0
M  V30 2357 H 220.829 1.58518 1.04747 0
M  V30 2358 H 218.979 1.62616 3.52829 0
M  V30 2359 H 220.651 3.96153 2.36348 0
M  V30 2360 H 218.894 3.76045 2.1627 0
M  V30 2361 H 219.565 4.02791 3.77443 0
M  V30 2362 H 222.041 2.11025 3.58619 0
M  V30 2363 H 220.917 2.39184 4.94047 0
M  V30 2364 H 221.178 0.756119 4.35586 0
M  V30 2365 N 220.237 -1.11381 1.11499 0
M  V30 2366 C 221.167 -2.19509 0.796125 0
M  V30 2367 C 222.148 -1.68458 -0.235796 0
M  V30 2368 O 223.333 -1.93947 -0.0991344 0
M  V30 2369 C 220.463 -3.46475 0.239205 0
M  V30 2370 C 219.417 -4.10744 1.20307 0
M  V30 2371 C 218.743 -5.32293 0.50683 0
M  V30 2372 C 220.043 -4.55597 2.55399 0
M  V30 2373 H 221.737 -2.46439 1.70024 0
M  V30 2374 H 219.283 -1.18446 0.818935 0
M  V30 2375 H 221.236 -4.214 0.00392006 0
M  V30 2376 H 219.96 -3.19006 -0.700206 0
M  V30 2377 H 218.619 -3.37813 1.42399 0
M  V30 2378 H 218.267 -5.01095 -0.437408 0
M  V30 2379 H 217.967 -5.76243 1.1497 0
M  V30 2380 H 219.491 -6.09956 0.280351 0
M  V30 2381 H 220.905 -5.21841 2.37391 0
M  V30 2382 H 219.302 -5.10363 3.15673 0
M  V30 2383 H 220.372 -3.69013 3.14575 0
M  V30 2384 N 221.715 -0.905404 -1.28997 0
M  V30 2385 C 222.962 -0.534248 -1.95325 0
M  V30 2386 C 223.29 0.920535 -1.71337 0
M  V30 2387 O 222.545 1.66861 -1.02254 0
M  V30 2388 C 222.844 -0.779906 -3.48787 0
M  V30 2389 C 222.51 -2.21293 -3.92861 0
M  V30 2390 C 221.172 -2.60475 -4.04606 0
M  V30 2391 C 223.524 -3.14587 -4.15553 0
M  V30 2392 C 220.852 -3.9212 -4.36416 0
M  V30 2393 C 223.204 -4.45787 -4.48839 0
M  V30 2394 C 221.868 -4.84834 -4.58794 0
M  V30 2395 H 221.138 -0.195495 -0.714747 0
M  V30 2396 H 223.785 -1.14514 -1.53488 0
M  V30 2397 H 222.09 -0.0861365 -3.91705 0
M  V30 2398 H 223.787 -0.472029 -3.98212 0
M  V30 2399 H 220.377 -1.89887 -3.84241 0
M  V30 2400 H 224.561 -2.85528 -4.0594 0
M  V30 2401 H 219.817 -4.22086 -4.42327 0
M  V30 2402 H 223.991 -5.18098 -4.65346 0
M  V30 2403 H 221.618 -5.86877 -4.83197 0
M  V30 2404 N 223.193 1.4272 -0.668489 0
M  V30 2405 C 224.103 2.34596 0.0139753 0
M  V30 2406 C 225.119 1.5474 0.795703 0
M  V30 2407 O 226.295 1.87334 0.739466 0
M  V30 2408 C 223.36 3.33202 0.957982 0
M  V30 2409 C 222.421 4.28957 0.17149 0
M  V30 2410 C 221.654 5.22853 1.07053 0
M  V30 2411 O 221.877 5.21531 2.31001 0
M  V30 2412 O 220.811 5.9952 0.534727 0
M  V30 2413 H 224.637 2.9448 -0.742661 0
M  V30 2414 H 222.222 1.43117 -0.428705 0
M  V30 2415 H 224.104 3.93796 1.50008 0
M  V30 2416 H 222.779 2.758 1.69458 0
M  V30 2417 H 221.686 3.71796 -0.414558 0
M  V30 2418 H 223.019 4.89383 -0.52586 0
M  V30 2419 N 224.671 0.411399 1.52136 0
M  V30 2420 C 225.619 -0.427633 2.28635 0
M  V30 2421 C 226.613 -1.04383 1.33419 0
M  V30 2422 O 227.819 -0.981772 1.50868 0
M  V30 2423 H 224.194 -0.156689 0.735495 0
M  V30 2424 H 226.165 0.238761 2.97443 0
M  V30 2425 C 224.914 -1.53082 3.12188 0
M  V30 2426 H 224.237 -1.06601 3.85326 0
M  V30 2427 H 225.677 -2.09167 3.68816 0
M  V30 2428 C 224.136 -2.49946 2.25895 0
M  V30 2429 O 224.666 -3.53884 1.90076 0
M  V30 2430 N 222.872 -2.2021 1.8962 0
M  V30 2431 H 222.419 -1.35719 2.18948 0
M  V30 2432 H 222.377 -2.85266 1.32176 0
M  V30 2433 N 226.149 -1.5696 0.141893 0
M  V30 2434 C 227.396 -1.9596 -0.510492 0
M  V30 2435 C 227.724 -1.02648 -1.65208 0
M  V30 2436 O 226.979 -0.0546947 -1.95624 0
M  V30 2437 C 227.278 -3.41242 -1.06249 0
M  V30 2438 C 226.944 -4.50882 -0.0398791 0
M  V30 2439 C 225.606 -4.80595 0.241247 0
M  V30 2440 C 227.958 -5.17058 0.65578 0
M  V30 2441 C 225.286 -5.73792 1.22393 0
M  V30 2442 C 227.638 -6.11313 1.62724 0
M  V30 2443 C 226.302 -6.39407 1.91612 0
M  V30 2444 H 225.572 -0.717068 -0.186802 0
M  V30 2445 H 228.219 -1.90142 0.227643 0
M  V30 2446 H 226.524 -3.43866 -1.87785 0
M  V30 2447 H 228.221 -3.68742 -1.57576 0
M  V30 2448 H 224.811 -4.27754 -0.269174 0
M  V30 2449 H 228.995 -4.94239 0.451779 0
M  V30 2450 H 224.251 -5.93853 1.45424 0
M  V30 2451 H 228.425 -6.61668 2.17183 0
M  V30 2452 H 226.052 -7.11427 2.6791 0
M  V30 2453 N 227.627 0.131896 -1.57047 0
M  V30 2454 C 228.875 0.840269 -1.83804 0
M  V30 2455 C 229.196 1.81017 -0.72512 0
M  V30 2456 O 228.466 1.94272 0.251995 0
M  V30 2457 H 227.046 0.313294 -0.678127 0
M  V30 2458 H 229.708 0.122294 -1.94516 0
M  V30 2459 H 228.804 1.39335 -2.79271 0
M  V30 2460 N 229.106 1.52395 0.401703 0
M  V30 2461 C 230.383 1.57387 1.16141 0
M  V30 2462 C 230.763 0.359359 2.08019 0
M  V30 2463 O 230.111 -0.65326 2.18963 0
M  V30 2464 C 230.321 2.90631 1.93221 0
M  V30 2465 C 231.669 3.43904 2.49028 0
M  V30 2466 O 232.693 2.92421 2.03393 0
M  V30 2467 O 231.552 4.33823 3.32356 0
M  V30 2468 H 228.646 0.634262 0.530698 0
M  V30 2469 H 231.192 1.64725 0.407883 0
M  V30 2470 H 229.964 3.70473 1.25958 0
M  V30 2471 H 229.587 2.8662 2.75563 0
M  V30 2472 N 230.584 -0.659388 1.43143 0
M  V30 2473 C 232 -0.974337 1.26407 0
M  V30 2474 C 232.2 -2.007 0.179341 0
M  V30 2475 O 231.256 -2.4856 -0.444295 0
M  V30 2476 C 232.569 -1.46447 2.62628 0
M  V30 2477 C 234.117 -1.58144 2.7011 0
M  V30 2478 C 234.592 -2.1055 4.06734 0
M  V30 2479 N 236.083 -2.17861 4.08767 0
M  V30 2480 C 236.818 -2.59519 5.1131 0
M  V30 2481 N 236.314 -3.00518 6.24228 0
M  V30 2482 N 238.107 -2.59404 4.98664 0
M  V30 2483 H 230.258 0.0240528 2.12386 0
M  V30 2484 H 232.521 -0.0518065 0.946583 0
M  V30 2485 H 232.227 -0.780123 3.42939 0
M  V30 2486 H 232.101 -2.44058 2.87603 0
M  V30 2487 H 234.488 -2.25682 1.90136 0
M  V30 2488 H 234.569 -0.589828 2.48907 0
M  V30 2489 H 234.213 -1.43616 4.87172 0
M  V30 2490 H 234.143 -3.10531 4.25298 0
M  V30 2491 H 236.634 -1.88975 3.27257 0
M  V30 2492 H 236.947 -3.31036 6.98309 0
M  V30 2493 H 235.292 -2.98337 6.2771 0
M  V30 2494 H 238.483 -2.26747 4.09516 0
M  V30 2495 H 238.656 -2.91548 5.78709 0
M  V30 2496 N 232.062 -1.29571 -0.897171 0
M  V30 2497 C 233.308 -1.17863 -1.65034 0
M  V30 2498 C 233.641 0.268729 -1.92332 0
M  V30 2499 O 232.916 1.19378 -1.53555 0
M  V30 2500 C 233.199 -1.995 -2.99786 0
M  V30 2501 C 233.052 -3.5239 -2.79538 0
M  V30 2502 C 234.371 -1.82335 -4.00552 0
M  V30 2503 H 231.49 -0.429528 -0.598895 0
M  V30 2504 H 234.132 -1.59072 -1.03905 0
M  V30 2505 H 232.282 -1.64485 -3.51962 0
M  V30 2506 H 233.954 -3.97401 -2.34244 0
M  V30 2507 H 232.197 -3.77187 -2.14273 0
M  V30 2508 H 232.868 -4.04787 -3.75302 0
M  V30 2509 H 235.344 -2.12924 -3.57495 0
M  V30 2510 H 234.22 -2.41801 -4.92771 0
M  V30 2511 H 234.481 -0.779209 -4.35179 0
M  V30 2512 N 233.54 1.10788 -1.12088 0
M  V30 2513 C 234.487 2.17025 -0.785407 0
M  V30 2514 C 235.457 1.64265 0.246191 0
M  V30 2515 O 236.642 1.90412 0.121584 0
M  V30 2516 C 233.782 3.44249 -0.242177 0
M  V30 2517 C 232.895 4.1098 -1.33115 0
M  V30 2518 C 232.03 5.25911 -0.747741 0
M  V30 2519 C 231.069 5.84538 -1.81609 0
M  V30 2520 N 230.206 6.90853 -1.25167 0
M  V30 2521 H 235.046 2.45066 -1.69548 0
M  V30 2522 H 232.583 1.20297 -0.846582 0
M  V30 2523 H 234.541 4.17101 0.0908026 0
M  V30 2524 H 233.171 3.16571 0.631072 0
M  V30 2525 H 232.223 3.36133 -1.78097 0
M  V30 2526 H 233.535 4.50601 -2.13917 0
M  V30 2527 H 232.689 6.056 -0.365216 0
M  V30 2528 H 231.428 4.87614 0.0915188 0
M  V30 2529 H 230.433 5.03522 -2.20785 0
M  V30 2530 H 231.658 6.249 -2.6585 0
M  V30 2531 H 229.604 6.54562 -0.434174 0
M  V30 2532 H 229.521 7.29166 -1.99633 0
M  V30 2533 H 230.789 7.7433 -0.896259 0
M  V30 2534 N 235.018 0.912232 1.28515 0
M  V30 2535 C 235.966 0.389597 2.29314 0
M  V30 2536 C 236.96 -0.517915 1.61289 0
M  V30 2537 O 238.166 -0.399328 1.75515 0
M  V30 2538 H 234.541 0.107386 0.744293 0
M  V30 2539 H 236.512 1.25286 2.70825 0
M  V30 2540 C 235.261 -0.356496 3.45868 0
M  V30 2541 H 234.584 0.332608 3.98414 0
M  V30 2542 H 236.024 -0.686851 4.184 0
M  V30 2543 C 234.483 -1.56383 2.98406 0
M  V30 2544 O 235.013 -2.66294 3.00749 0
M  V30 2545 N 233.219 -1.41029 2.54085 0
M  V30 2546 H 232.766 -0.516089 2.52377 0
M  V30 2547 H 232.724 -2.21939 2.22689 0
M  V30 2548 N 236.496 -1.42363 0.676048 0
M  V30 2549 C 237.742 -2.02336 0.207809 0
M  V30 2550 C 238.097 -1.52506 -1.17302 0
M  V30 2551 O 237.39 -0.718048 -1.77636 0
M  V30 2552 C 237.584 -3.56929 0.183431 0
M  V30 2553 C 237.413 -4.21762 1.56036 0
M  V30 2554 C 236.183 -4.56881 2.15842 0
M  V30 2555 C 238.381 -4.49267 2.50327 0
M  V30 2556 N 236.363 -5.069 3.46303 0
M  V30 2557 C 237.734 -5.00851 3.65443 0
M  V30 2558 C 239.789 -4.31257 2.48841 0
M  V30 2559 C 238.492 -5.36317 4.79329 0
M  V30 2560 C 240.518 -4.678 3.61824 0
M  V30 2561 C 239.88 -5.19537 4.75668 0
M  V30 2562 H 235.979 -0.772583 0.120993 0
M  V30 2563 H 238.563 -1.73203 0.889306 0
M  V30 2564 H 236.734 -3.85576 -0.467483 0
M  V30 2565 H 238.466 -4.03603 -0.297808 0
M  V30 2566 H 235.221 -4.4268 1.68319 0
M  V30 2567 H 235.645 -5.36338 4.13123 0
M  V30 2568 H 240.287 -3.90511 1.62051 0
M  V30 2569 H 238.005 -5.75995 5.66794 0
M  V30 2570 H 241.591 -4.55541 3.61903 0
M  V30 2571 H 240.471 -5.47287 5.61646 0
M  V30 2572 N 237.974 -0.419461 -1.51915 0
M  V30 2573 C 239.223 0.154346 -2.01109 0
M  V30 2574 C 239.536 1.45338 -1.30905 0
M  V30 2575 O 240.742 2.10906 -1.7097 0
M  V30 2576 C 239.198 0.325615 -3.58424 0
M  V30 2577 C 238.806 -0.961934 -4.37551 0
M  V30 2578 C 240.55 0.854155 -4.15818 0
M  V30 2579 C 238.457 -0.757287 -5.86531 0
M  V30 2580 H 237.387 0.0614563 -0.751491 0
M  V30 2581 H 240.038 -0.54649 -1.75173 0
M  V30 2582 H 238.42 1.08903 -3.80731 0
M  V30 2583 H 239.594 -1.7323 -4.26999 0
M  V30 2584 H 237.909 -1.41766 -3.91524 0
M  V30 2585 H 240.506 1.02346 -5.24814 0
M  V30 2586 H 240.849 1.83172 -3.73837 0
M  V30 2587 H 241.382 0.149528 -3.97519 0
M  V30 2588 H 238.121 -1.70671 -6.32892 0
M  V30 2589 H 237.641 -0.0264061 -5.99794 0
M  V30 2590 H 239.32 -0.403482 -6.45741 0
M  V30 2591 N 239.452 1.56882 -0.150215 0
M  V30 2592 C 240.68 2.00593 0.506948 0
M  V30 2593 C 241.095 1.03033 1.58208 0
M  V30 2594 O 240.452 0.0278396 1.82479 0
M  V30 2595 C 240.503 3.44209 1.10465 0
M  V30 2596 O 240.224 4.3804 0.0724636 0
M  V30 2597 C 241.725 4.03214 1.84211 0
M  V30 2598 H 238.945 0.65795 0.13169 0
M  V30 2599 H 241.489 2.03018 -0.245743 0
M  V30 2600 H 239.644 3.42625 1.80795 0
M  V30 2601 H 240.058 5.22007 0.510793 0
M  V30 2602 H 241.532 5.0569 2.21318 0
M  V30 2603 H 242.009 3.44107 2.72923 0
M  V30 2604 H 242.615 4.08437 1.18572 0
M  V30 2605 N 240.93 -0.123565 1.57115 0
M  V30 2606 C 241.86 -1.15309 2.03042 0
M  V30 2607 C 242.841 -1.43454 0.914061 0
M  V30 2608 O 244.026 -1.53973 1.18347 0
M  V30 2609 C 241.156 -2.48043 2.43089 0
M  V30 2610 C 240.11 -2.3437 3.58127 0
M  V30 2611 C 239.436 -3.72026 3.84059 0
M  V30 2612 C 240.736 -1.80804 4.90007 0
M  V30 2613 H 242.43 -0.771102 2.893 0
M  V30 2614 H 239.976 -0.369479 1.39179 0
M  V30 2615 H 241.929 -3.20311 2.73823 0
M  V30 2616 H 240.653 -2.88122 1.53796 0
M  V30 2617 H 239.312 -1.64551 3.27595 0
M  V30 2618 H 238.96 -4.09582 2.91979 0
M  V30 2619 H 238.66 -3.63732 4.6149 0
M  V30 2620 H 240.184 -4.45806 4.1724 0
M  V30 2621 H 241.598 -2.42886 5.19307 0
M  V30 2622 H 239.995 -1.83343 5.71407 0
M  V30 2623 H 241.065 -0.76528 4.78823 0
M  V30 2624 N 242.408 -1.52605 -0.393616 0
M  V30 2625 C 243.356 -1.77688 -1.50099 0
M  V30 2626 C 244.35 -0.644615 -1.56656 0
M  V30 2627 O 245.556 -0.826997 -1.59877 0
M  V30 2628 H 241.931 -0.562159 -0.499481 0
M  V30 2629 H 243.902 -2.7043 -1.26135 0
M  V30 2630 C 242.651 -1.95858 -2.87289 0
M  V30 2631 H 241.974 -2.8241 -2.82992 0
M  V30 2632 H 243.414 -2.174 -3.64024 0
M  V30 2633 C 241.873 -0.729848 -3.28899 0
M  V30 2634 O 242.403 0.0949217 -4.01588 0
M  V30 2635 N 240.609 -0.561283 -2.85128 0
M  V30 2636 H 240.156 -1.23357 -2.26143 0
M  V30 2637 H 240.114 0.2595 -3.13327 0
M  V30 2638 N 243.887 0.651787 -1.4349 0
M  V30 2639 C 244.797 1.79368 -1.5121 0
M  V30 2640 C 245.813 1.69361 -0.399093 0
M  V30 2641 O 246.989 1.90505 -0.653431 0
M  V30 2642 C 244.054 3.15653 -1.43401 0
M  V30 2643 C 243.115 3.37446 -2.65384 0
M  V30 2644 C 242.348 4.67229 -2.57939 0
M  V30 2645 O 242.571 5.46676 -1.62792 0
M  V30 2646 O 241.505 4.90773 -3.48462 0
M  V30 2647 H 245.331 1.7581 -2.47638 0
M  V30 2648 H 242.916 0.810447 -1.25507 0
M  V30 2649 H 244.798 3.96935 -1.41494 0
M  V30 2650 H 243.473 3.19798 -0.501085 0
M  V30 2651 H 242.38 2.55923 -2.72863 0
M  V30 2652 H 243.713 3.38148 -3.57654 0
M  V30 2653 N 245.365 1.30045 0.890287 0
M  V30 2654 C 246.776 1.16738 1.45702 0
M  V30 2655 C 247.127 -0.233939 1.948 0
M  V30 2656 O 246.252 -1.13021 1.84541 0
M  V30 2657 C 246.847 2.11313 2.64825 0
M  V30 2658 C 245.406 2.02001 3.17604 0
M  V30 2659 C 244.553 2.01699 1.90296 0
M  V30 2660 H 247.504 1.42392 0.700726 0
M  V30 2661 H 247.525 1.69086 3.40867 0
M  V30 2662 H 247.037 3.13294 2.2906 0
M  V30 2663 H 245.138 1.03142 3.5804 0
M  V30 2664 H 245.251 2.90128 3.81264 0
M  V30 2665 H 243.615 1.46427 2.08402 0
M  V30 2666 H 244.398 3.05402 1.56795 0
M  V30 2667 N 246.843 -1.10192 1.12674 0
M  V30 2668 C 248.089 -1.82658 0.894847 0
M  V30 2669 C 248.444 -1.83666 -0.573107 0
M  V30 2670 O 247.737 -1.28816 -1.41835 0
M  V30 2671 C 247.931 -3.28552 1.4067 0
M  V30 2672 C 247.76 -3.41756 2.92289 0
M  V30 2673 C 246.53 -3.54021 3.60551 0
M  V30 2674 C 248.728 -3.34949 3.90274 0
M  V30 2675 N 246.71 -3.55827 5.0026 0
M  V30 2676 C 248.081 -3.43531 5.16127 0
M  V30 2677 C 250.136 -3.18565 3.8265 0
M  V30 2678 C 248.839 -3.37416 6.3525 0
M  V30 2679 C 250.865 -3.13772 5.01299 0
M  V30 2680 C 250.227 -3.22938 6.26012 0
M  V30 2681 H 246.326 -0.683044 0.380756 0
M  V30 2682 H 248.91 -1.31752 1.43351 0
M  V30 2683 H 247.081 -3.77946 0.895055 0
M  V30 2684 H 248.813 -3.88991 1.11661 0
M  V30 2685 H 245.568 -3.57135 3.1105 0
M  V30 2686 H 245.992 -3.60335 5.73138 0
M  V30 2687 H 250.634 -3.10354 2.87124 0
M  V30 2688 H 248.352 -3.44391 7.3104 0
M  V30 2689 H 251.938 -3.02242 4.97133 0
M  V30 2690 H 250.818 -3.19235 7.16281 0
M  V30 2691 N 248.321 -0.919034 -1.28029 0
M  V30 2692 C 249.567 -0.555757 -1.95036 0
M  V30 2693 C 249.9 0.899198 -1.72128 0
M  V30 2694 O 249.175 1.64023 -1.04531 0
M  V30 2695 C 249.458 -0.872024 -3.49382 0
M  V30 2696 C 249.311 -2.3801 -3.81669 0
M  V30 2697 C 250.63 -0.37185 -4.38526 0
M  V30 2698 H 247.749 -0.203386 -0.708381 0
M  V30 2699 H 250.391 -1.14924 -1.51303 0
M  V30 2700 H 248.541 -0.366946 -3.86763 0
M  V30 2701 H 250.213 -2.9562 -3.54128 0
M  V30 2702 H 248.456 -2.83289 -3.28526 0
M  V30 2703 H 249.127 -2.55192 -4.8947 0
M  V30 2704 H 251.603 -0.804602 -4.08247 0
M  V30 2705 H 250.479 -0.622173 -5.45362 0
M  V30 2706 H 250.74 0.727934 -4.36066 0
M  V30 2707 N 249.799 1.42003 -0.683588 0
M  V30 2708 C 251.045 2.01712 -0.209825 0
M  V30 2709 C 251.378 1.53968 1.18353 0
M  V30 2710 O 250.653 0.745661 1.79639 0
M  V30 2711 C 250.936 3.59202 -0.254197 0
M  V30 2712 C 250.789 4.17102 -1.68363 0
M  V30 2713 C 252.108 4.38344 0.392709 0
M  V30 2714 H 249.227 0.732891 -0.0777189 0
M  V30 2715 H 251.869 1.68909 -0.87004 0
M  V30 2716 H 250.019 3.87278 0.307954 0
M  V30 2717 H 251.691 3.99946 -2.29871 0
M  V30 2718 H 249.934 3.72597 -2.22157 0
M  V30 2719 H 250.605 5.26249 -1.6663 0
M  V30 2720 H 253.081 4.16011 -0.0859162 0
M  V30 2721 H 251.957 5.47901 0.331063 0
M  V30 2722 H 252.218 4.16887 1.47164 0
M  V30 2723 N 251.277 0.427512 1.51691 0
M  V30 2724 C 252.24 -0.377132 2.26076 0
M  V30 2725 C 253.24 -0.958089 1.29141 0
M  V30 2726 O 254.43 -0.83408 1.52934 0
M  V30 2727 C 251.562 -1.53262 3.04506 0
M  V30 2728 H 252.755 0.27464 2.9864 0
M  V30 2729 H 250.308 0.180445 1.55255 0
M  V30 2730 H 251.043 -2.22072 2.36335 0
M  V30 2731 H 250.828 -1.12232 3.75694 0
M  V30 2732 H 252.318 -2.10135 3.60878 0
M  V30 2733 N 252.755 -1.56801 0.158532 0
M  V30 2734 C 254.004 -1.95665 -0.489702 0
M  V30 2735 C 254.317 -1.04654 -1.65248 0
M  V30 2736 O 255.523 -1.33146 -2.3661 0
M  V30 2737 C 253.979 -3.47874 -0.922582 0
M  V30 2738 C 253.587 -4.47489 0.213893 0
M  V30 2739 C 255.331 -3.95583 -1.53996 0
M  V30 2740 C 253.238 -5.90921 -0.237903 0
M  V30 2741 H 252.168 -0.730516 -0.186716 0
M  V30 2742 H 254.819 -1.81861 0.244722 0
M  V30 2743 H 253.201 -3.57051 -1.71261 0
M  V30 2744 H 254.375 -4.50017 0.991036 0
M  V30 2745 H 252.69 -4.09764 0.740407 0
M  V30 2746 H 255.287 -5.0019 -1.8898 0
M  V30 2747 H 255.63 -3.37789 -2.43319 0
M  V30 2748 H 256.163 -3.8937 -0.814611 0
M  V30 2749 H 252.902 -6.52559 0.620236 0
M  V30 2750 H 252.422 -5.91729 -0.980676 0
M  V30 2751 H 254.101 -6.43352 -0.686067 0
M  V30 2752 N 254.233 0.115231 -1.57178 0
M  V30 2753 C 255.479 0.82357 -1.85325 0
M  V30 2754 C 255.812 1.79349 -0.744814 0
M  V30 2755 O 255.087 1.92899 0.249024 0
M  V30 2756 C 255.37 1.57014 -3.24066 0
M  V30 2757 C 255.223 0.619565 -4.45513 0
M  V30 2758 C 256.542 2.52545 -3.60429 0
M  V30 2759 H 253.661 0.297948 -0.674089 0
M  V30 2760 H 256.303 0.0877138 -1.89797 0
M  V30 2761 H 254.453 2.19742 -3.20383 0
M  V30 2762 H 256.125 0.000837639 -4.613 0
M  V30 2763 H 254.368 -0.0686174 -4.33746 0
M  V30 2764 H 255.039 1.17866 -5.3927 0
M  V30 2765 H 257.515 1.9992 -3.64926 0
M  V30 2766 H 256.391 3.01811 -4.58477 0
M  V30 2767 H 256.652 3.35383 -2.88047 0
M  V30 2768 N 255.711 1.52812 0.385517 0
M  V30 2769 C 256.959 1.67694 1.12797 0
M  V30 2770 C 257.28 0.421115 1.90399 0
M  V30 2771 O 256.55 -0.564551 1.87589 0
M  V30 2772 H 255.13 0.618155 0.419396 0
M  V30 2773 H 257.792 1.89938 0.436972 0
M  V30 2774 H 256.888 2.52896 1.82894 0
M  V30 2775 N 257.189 -0.644168 1.43834 0
M  V30 2776 C 258.139 -1.7501 1.46135 0
M  V30 2777 C 259.123 -1.57507 0.328685 0
M  V30 2778 O 260.315 -1.67465 0.5731 0
M  V30 2779 C 257.444 -3.13641 1.39585 0
M  V30 2780 C 256.53 -3.3666 2.57916 0
M  V30 2781 N 256.921 -3.30107 3.83227 0
M  V30 2782 C 255.219 -3.67411 2.52834 0
M  V30 2783 C 255.92 -3.53456 4.61999 0
M  V30 2784 N 254.896 -3.75705 3.9287 0
M  V30 2785 H 258.698 -1.68382 2.40883 0
M  V30 2786 H 256.212 -0.846169 1.38614 0
M  V30 2787 H 258.209 -3.92933 1.39317 0
M  V30 2788 H 256.869 -3.21444 0.45865 0
M  V30 2789 H 257.88 -3.09316 4.15384 0
M  V30 2790 H 254.557 -3.82275 1.67845 0
M  V30 2791 H 255.947 -3.54093 5.71024 0
M  V30 2792 N 258.668 -1.30515 -0.883378 0
M  V30 2793 C 259.598 -1.19607 -2.00541 0
M  V30 2794 C 260.579 -0.086346 -1.69881 0
M  V30 2795 O 261.764 -0.268654 -1.92333 0
M  V30 2796 C 258.894 -0.888758 -3.35736 0
M  V30 2797 C 257.848 -1.95659 -3.8066 0
M  V30 2798 C 257.174 -1.50224 -5.13164 0
M  V30 2799 C 258.474 -3.36788 -3.99213 0
M  V30 2800 H 260.168 -2.13476 -2.09925 0
M  V30 2801 H 257.714 -1.02775 -1.00863 0
M  V30 2802 H 259.667 -0.799094 -4.13754 0
M  V30 2803 H 258.391 0.0856125 -3.26488 0
M  V30 2804 H 257.05 -2.03591 -3.04871 0
M  V30 2805 H 256.698 -0.516092 -5.00345 0
M  V30 2806 H 256.398 -2.2165 -5.44192 0
M  V30 2807 H 257.922 -1.42639 -5.93706 0
M  V30 2808 H 259.336 -3.31605 -4.67665 0
M  V30 2809 H 257.733 -4.06314 -4.41621 0
M  V30 2810 H 258.803 -3.78561 -3.03017 0
M  V30 2811 N 260.146 1.09593 -1.13257 0
M  V30 2812 C 261.376 1.85231 -0.915049 0
M  V30 2813 C 261.784 1.81345 0.539498 0
M  V30 2814 O 261.127 1.20664 1.38513 0
M  V30 2815 C 261.189 3.34275 -1.3229 0
M  V30 2816 C 260.853 3.6191 -2.79052 0
M  V30 2817 C 261.85 3.57777 -3.77216 0
M  V30 2818 C 259.535 3.90309 -3.16171 0
M  V30 2819 C 261.529 3.81652 -5.1051 0
M  V30 2820 C 259.216 4.13839 -4.49644 0
M  V30 2821 C 260.214 4.09502 -5.46623 0
M  V30 2822 O 259.902 4.32426 -6.77689 0
M  V30 2823 H 259.634 0.591997 -0.326367 0
M  V30 2824 H 262.188 1.394 -1.50854 0
M  V30 2825 H 260.418 3.80805 -0.672667 0
M  V30 2826 H 262.107 3.9132 -1.07812 0
M  V30 2827 H 262.873 3.35865 -3.49885 0
M  V30 2828 H 258.752 3.92811 -2.41289 0
M  V30 2829 H 262.296 3.78182 -5.86195 0
M  V30 2830 H 258.193 4.35232 -4.767 0
M  V30 2831 H 258.961 4.49896 -6.83766 0
M  V30 2832 N 261.624 0.925811 1.2754 0
M  V30 2833 C 262.872 0.564138 1.94067 0
M  V30 2834 C 263.193 -0.897188 1.73134 0
M  V30 2835 O 262.463 -1.63573 1.07799 0
M  V30 2836 H 261.043 0.205645 0.718136 0
M  V30 2837 H 263.705 1.1778 1.55287 0
M  V30 2838 H 262.801 0.76881 3.02483 0
M  V30 2839 N 263.102 -1.41638 0.69111 0
M  V30 2840 C 264.348 -2.01598 0.220519 0
M  V30 2841 C 264.681 -1.54594 -1.17535 0
M  V30 2842 O 263.956 -0.755177 -1.79241 0
M  V30 2843 C 264.239 -3.59062 0.273243 0
M  V30 2844 C 264.092 -4.16203 1.70573 0
M  V30 2845 C 265.411 -4.38546 -0.369457 0
M  V30 2846 H 262.53 -0.732468 0.0816045 0
M  V30 2847 H 265.172 -1.68445 0.878986 0
M  V30 2848 H 263.322 -3.87435 -0.287411 0
M  V30 2849 H 264.994 -3.98722 2.31989 0
M  V30 2850 H 263.237 -3.71414 2.2413 0
M  V30 2851 H 263.908 -5.25358 1.69419 0
M  V30 2852 H 266.384 -4.1596 0.107977 0
M  V30 2853 H 265.26 -5.48069 -0.302002 0
M  V30 2854 H 265.521 -4.17662 -1.44951 0
M  V30 2855 N 264.58 -0.43555 -1.51462 0
M  V30 2856 C 265.53 0.394701 -2.24558 0
M  V30 2857 C 266.514 0.99157 -1.26715 0
M  V30 2858 O 267.706 0.910007 -1.51815 0
M  V30 2859 C 264.835 1.4963 -3.08975 0
M  V30 2860 C 263.921 0.908912 -4.14246 0
M  V30 2861 N 264.312 0.0505335 -5.05775 0
M  V30 2862 C 262.61 1.17668 -4.30198 0
M  V30 2863 C 263.311 -0.279161 -5.8103 0
M  V30 2864 N 262.287 0.336767 -5.42556 0
M  V30 2865 H 266.089 -0.267106 -2.92684 0
M  V30 2866 H 263.603 -0.247518 -1.60503 0
M  V30 2867 H 265.6 2.10394 -3.59917 0
M  V30 2868 H 264.26 2.16046 -2.42393 0
M  V30 2869 H 265.271 -0.31577 -5.16936 0
M  V30 2870 H 261.948 1.83847 -3.74842 0
M  V30 2871 H 263.338 -0.977553 -6.64751 0
M  V30 2872 N 266.058 1.56714 -0.166846 0
M  V30 2873 C 267.021 2.16539 0.751232 0
M  V30 2874 C 268.021 1.11228 1.16125 0
M  V30 2875 O 269.211 1.36765 1.07894 0
M  V30 2876 C 266.343 2.74462 2.02196 0
M  V30 2877 H 267.536 2.99013 0.230499 0
M  V30 2878 H 265.089 1.56081 0.0826982 0
M  V30 2879 H 265.824 1.95709 2.58589 0
M  V30 2880 H 265.609 3.51527 1.73698 0
M  V30 2881 H 267.099 3.20489 2.67725 0
M  V30 2882 N 267.536 -0.106894 1.57237 0
M  V30 2883 C 268.947 -0.662723 1.74542 0
M  V30 2884 C 269.298 -1.7971 0.787319 0
M  V30 2885 O 268.423 -2.16368 -0.0369636 0
M  V30 2886 C 269.018 -1.20896 3.16496 0
M  V30 2887 C 267.577 -1.71096 3.35266 0
M  V30 2888 C 266.724 -0.615642 2.7038 0
M  V30 2889 H 269.675 0.119106 1.58252 0
M  V30 2890 H 269.696 -2.07847 3.18716 0
M  V30 2891 H 269.208 -0.383122 3.86204 0
M  V30 2892 H 267.309 -2.56119 2.70618 0
M  V30 2893 H 267.422 -1.81208 4.43509 0
M  V30 2894 H 265.786 -1.05222 2.31949 0
M  V30 2895 H 266.569 0.199419 3.4272 0
M  V30 2896 N 269.014 -1.53014 -0.377408 0
M  V30 2897 C 270.262 -1.6829 -1.11906 0
M  V30 2898 C 270.583 -0.431206 -1.90173 0
M  V30 2899 O 269.853 0.554595 -1.87886 0
M  V30 2900 H 268.433 -0.620371 -0.416112 0
M  V30 2901 H 271.095 -1.90167 -0.426893 0
M  V30 2902 H 270.191 -2.53862 -1.8155 0
M  V30 2903 N 270.492 0.636531 -1.44174 0
M  V30 2904 C 271.425 1.76139 -1.45087 0
M  V30 2905 C 272.403 1.59611 -0.310326 0
M  V30 2906 O 273.587 1.81568 -0.506477 0
M  V30 2907 C 270.714 3.13648 -1.27839 0
M  V30 2908 C 269.76 3.48838 -2.45386 0
M  V30 2909 S 270.593 3.46927 -4.07924 0
M  V30 2910 C 271.749 4.87064 -3.9309 0
M  V30 2911 H 271.982 1.75096 -2.40268 0
M  V30 2912 H 269.515 0.810666 -1.31406 0
M  V30 2913 H 271.473 3.93002 -1.18575 0
M  V30 2914 H 270.134 3.12235 -0.341787 0
M  V30 2915 H 269.327 4.48886 -2.29167 0
M  V30 2916 H 268.929 2.76935 -2.51362 0
M  V30 2917 H 271.221 5.76153 -3.56446 0
M  V30 2918 H 272.164 5.08337 -4.92949 0
M  V30 2919 H 272.572 4.61384 -3.25246 0
M  V30 2920 N 271.97 1.30982 0.876444 0
M  V30 2921 C 273.386 1.09498 1.16113 0
M  V30 2922 C 273.586 -0.13875 2.01022 0
M  V30 2923 O 272.642 -0.829935 2.38471 0
M  V30 2924 C 273.955 2.36308 1.85954 0
M  V30 2925 C 275.503 2.41856 1.98683 0
M  V30 2926 C 275.978 3.6853 2.71937 0
M  V30 2927 N 277.469 3.69387 2.79477 0
M  V30 2928 C 278.204 4.64096 3.36753 0
M  V30 2929 N 277.7 5.69155 3.95012 0
M  V30 2930 N 279.493 4.51626 3.3465 0
M  V30 2931 H 271.644 2.10118 0.310494 0
M  V30 2932 H 273.907 0.926634 0.200131 0
M  V30 2933 H 273.613 3.26388 1.31011 0
M  V30 2934 H 273.487 2.4561 2.86278 0
M  V30 2935 H 275.874 1.52249 2.52793 0
M  V30 2936 H 275.955 2.36523 0.9742 0
M  V30 2937 H 275.599 4.58499 2.18496 0
M  V30 2938 H 275.529 3.71127 3.73593 0
M  V30 2939 H 278.02 2.93438 2.38123 0
M  V30 2940 H 278.333 6.3751 4.36808 0
M  V30 2941 H 276.678 5.72937 3.93406 0
M  V30 2942 H 279.869 3.68728 2.8837 0
M  V30 2943 H 280.042 5.25614 3.7899 0
M  V30 2944 N 273.449 -1.08991 1.13837 0
M  V30 2945 C 274.726 -1.77863 0.813876 0
M  V30 2946 C 275.106 -1.99375 -0.693746 0
M  V30 2947 O 274.454 -1.59875 -1.63255 0
M  V30 2948 C 274.664 -3.0986 1.60586 0
M  V30 2949 C 276.012 -3.84493 1.8014 0
M  V30 2950 O 277.036 -3.19624 1.57222 0
M  V30 2951 O 275.895 -5.00957 2.18413 0
M  V30 2952 H 272.989 -0.771589 0.297624 0
M  V30 2953 H 275.535 -1.15507 1.24323 0
M  V30 2954 H 274.307 -2.89715 2.63022 0
M  V30 2955 H 273.93 -3.79942 1.17173 0
M  V30 2956 N 274.927 -0.932562 -1.27047 0
M  V30 2957 C 276.176 -0.571351 -1.93439 0
M  V30 2958 C 276.489 0.892467 -1.74053 0
M  V30 2959 O 277.695 1.36267 -2.34826 0
M  V30 2960 C 276.151 -0.97106 -3.46552 0
M  V30 2961 C 275.759 -2.4559 -3.74686 0
M  V30 2962 C 277.503 -0.681333 -4.18997 0
M  V30 2963 C 275.41 -2.79475 -5.21198 0
M  V30 2964 H 274.34 -0.209966 -0.724176 0
M  V30 2965 H 276.991 -1.13403 -1.44263 0
M  V30 2966 H 275.373 -0.336983 -3.94564 0
M  V30 2967 H 276.547 -3.13829 -3.37414 0
M  V30 2968 H 274.862 -2.71802 -3.15456 0
M  V30 2969 H 277.459 -0.910939 -5.26883 0
M  V30 2970 H 277.802 0.381628 -4.14547 0
M  V30 2971 H 278.335 -1.27473 -3.76823 0
M  V30 2972 H 275.074 -3.847 -5.30741 0
M  V30 2973 H 274.594 -2.1589 -5.596 0
M  V30 2974 H 276.273 -2.67478 -5.89122 0
M  V30 2975 N 276.405 1.4127 -0.698611 0
M  V30 2976 C 277.635 2.05205 -0.239644 0
M  V30 2977 C 278.043 1.52684 1.11733 0
M  V30 2978 O 277.386 0.671222 1.70998 0
M  V30 2979 C 277.448 3.59289 -0.123126 0
M  V30 2980 C 277.112 4.34619 -1.41263 0
M  V30 2981 C 278.109 4.63701 -2.35111 0
M  V30 2982 C 275.794 4.73837 -1.66684 0
M  V30 2983 C 277.788 5.30966 -3.52639 0
M  V30 2984 C 275.475 5.40837 -2.84498 0
M  V30 2985 C 276.473 5.69329 -3.77298 0
M  V30 2986 O 276.161 6.34949 -4.93047 0
M  V30 2987 H 275.893 0.66723 -0.108537 0
M  V30 2988 H 278.447 1.81974 -0.952602 0
M  V30 2989 H 276.677 3.81272 0.645628 0
M  V30 2990 H 278.366 4.04797 0.299056 0
M  V30 2991 H 279.132 4.33882 -2.16729 0
M  V30 2992 H 275.011 4.51039 -0.953135 0
M  V30 2993 H 278.555 5.53121 -4.25091 0
M  V30 2994 H 274.452 5.70075 -3.02795 0
M  V30 2995 H 275.22 6.53445 -4.92902 0
M  V30 2996 N 277.883 0.443576 1.51229 0
M  V30 2997 C 279.129 -0.120975 2.02439 0
M  V30 2998 C 279.462 -1.41815 1.32674 0
M  V30 2999 O 278.737 -1.89373 0.443622 0
M  V30 3000 C 279.02 -0.333291 3.58554 0
M  V30 3001 C 278.873 0.982968 4.38928 0
M  V30 3002 C 280.192 -1.10028 4.26124 0
M  V30 3003 H 277.311 -0.0424923 0.735774 0
M  V30 3004 H 279.953 0.583794 1.80809 0
M  V30 3005 H 278.103 -0.933614 3.77115 0
M  V30 3006 H 279.775 1.61775 4.32003 0
M  V30 3007 H 278.018 1.58611 4.03763 0
M  V30 3008 H 278.689 0.788379 5.46341 0
M  V30 3009 H 281.165 -0.591711 4.11871 0
M  V30 3010 H 280.041 -1.21761 5.35225 0
M  V30 3011 H 280.302 -2.12996 3.87408 0
M  V30 3012 N 279.361 -1.56624 0.175154 0
M  V30 3013 C 280.324 -2.16934 -0.739738 0
M  V30 3014 C 281.324 -1.11842 -1.15533 0
M  V30 3015 O 282.514 -1.37335 -1.07167 0
M  V30 3016 C 279.646 -2.75531 -2.00738 0
M  V30 3017 H 280.839 -2.99131 -0.214639 0
M  V30 3018 H 278.392 -1.56123 -0.0744197 0
M  V30 3019 H 279.127 -1.97078 -2.57548 0
M  V30 3020 H 278.912 -3.52444 -1.71831 0
M  V30 3021 H 280.402 -3.21904 -2.66021 0
M  V30 3022 N 280.839 0.0985539 -1.57292 0
M  V30 3023 C 282.086 0.802678 -1.85912 0
M  V30 3024 C 282.414 1.78901 -0.763186 0
M  V30 3025 O 281.669 1.94178 0.243559 0
M  V30 3026 C 281.968 1.56927 -3.21105 0
M  V30 3027 C 281.634 0.725376 -4.45027 0
M  V30 3028 C 280.296 0.492726 -4.78671 0
M  V30 3029 C 282.648 0.138493 -5.21016 0
M  V30 3030 C 279.976 -0.336727 -5.85733 0
M  V30 3031 C 282.328 -0.678264 -6.28953 0
M  V30 3032 C 280.992 -0.921039 -6.61115 0
M  V30 3033 H 280.262 0.293721 -0.680301 0
M  V30 3034 H 282.909 0.0642841 -1.91392 0
M  V30 3035 H 281.214 2.37914 -3.11294 0
M  V30 3036 H 282.911 2.11841 -3.40477 0
M  V30 3037 H 279.501 0.916815 -4.18679 0
M  V30 3038 H 283.685 0.305404 -4.95359 0
M  V30 3039 H 278.941 -0.533836 -6.09065 0
M  V30 3040 H 283.115 -1.1399 -6.87007 0
M  V30 3041 H 280.742 -1.56556 -7.43905 0
M  V30 3042 N 282.317 1.53212 0.369288 0
M  V30 3043 C 283.733 1.42902 0.710712 0
M  V30 3044 C 283.933 0.565135 1.93413 0
M  V30 3045 O 282.989 0.0461484 2.52458 0
M  V30 3046 C 284.302 2.86042 0.927382 0
M  V30 3047 C 285.85 2.9565 1.02762 0
M  V30 3048 C 286.325 4.39843 1.27679 0
M  V30 3049 N 287.816 4.43256 1.34457 0
M  V30 3050 C 288.551 5.51929 1.55439 0
M  V30 3051 N 288.047 6.70655 1.73762 0
M  V30 3052 N 289.84 5.39502 1.57779 0
M  V30 3053 H 281.991 2.07888 -0.435457 0
M  V30 3054 H 284.254 0.938661 -0.132739 0
M  V30 3055 H 283.96 3.51557 0.100287 0
M  V30 3056 H 283.834 3.29472 1.83653 0
M  V30 3057 H 286.221 2.30291 1.84527 0
M  V30 3058 H 286.302 2.5562 0.0959504 0
M  V30 3059 H 285.946 5.05774 0.464175 0
M  V30 3060 H 285.876 4.77443 2.22162 0
M  V30 3061 H 288.367 3.5769 1.21926 0
M  V30 3062 H 288.68 7.49248 1.89335 0
M  V30 3063 H 287.025 6.73648 1.70948 0
M  V30 3064 H 290.216 4.45713 1.43029 0
M  V30 3065 H 290.389 6.2426 1.7379 0
M  V30 3066 N 283.795 -0.628877 1.44509 0
M  V30 3067 C 284.758 -1.72263 1.51188 0
M  V30 3068 C 285.758 -1.55907 0.39367 0
M  V30 3069 O 286.948 -1.61361 0.656377 0
M  V30 3070 C 284.08 -3.11365 1.38798 0
M  V30 3071 H 285.273 -1.67714 2.4862 0
M  V30 3072 H 282.826 -0.842737 1.31634 0
M  V30 3073 H 283.561 -3.21507 0.424693 0
M  V30 3074 H 283.346 -3.24644 2.19884 0
M  V30 3075 H 284.836 -3.91075 1.46458 0
M  V30 3076 N 285.273 -1.31445 -0.869486 0
M  V30 3077 C 286.519 -1.21337 -1.62496 0
M  V30 3078 C 286.852 0.227872 -1.92858 0
M  V30 3079 O 286.127 1.16094 -1.56053 0
M  V30 3080 C 286.41 -2.05814 -2.95487 0
M  V30 3081 C 286.263 -3.5824 -2.72 0
M  V30 3082 C 287.582 -1.9079 -3.96594 0
M  V30 3083 H 284.701 -0.442135 -0.589649 0
M  V30 3084 H 287.343 -1.6124 -1.00507 0
M  V30 3085 H 285.493 -1.71913 -3.48394 0
M  V30 3086 H 287.165 -4.0228 -2.25762 0
M  V30 3087 H 285.408 -3.81647 -2.06224 0
M  V30 3088 H 286.079 -4.12657 -3.66631 0
M  V30 3089 H 288.555 -2.20459 -3.52898 0
M  V30 3090 H 287.431 -2.52199 -4.87531 0
M  V30 3091 H 287.692 -0.871341 -4.33428 0
M  V30 3092 N 286.751 1.08385 -1.14413 0
M  V30 3093 C 287.701 2.13509 -0.79987 0
M  V30 3094 C 288.685 1.5951 0.211059 0
M  V30 3095 O 289.877 1.76995 0.0133694 0
M  V30 3096 C 287.006 3.42162 -0.279297 0
M  V30 3097 C 286.092 4.03042 -1.31976 0
M  V30 3098 N 286.483 4.38327 -2.52395 0
M  V30 3099 C 284.781 4.30379 -1.17004 0
M  V30 3100 C 285.482 4.86428 -3.19003 0
M  V30 3101 N 284.458 4.84547 -2.46405 0
M  V30 3102 H 288.26 2.38609 -1.7159 0
M  V30 3103 H 285.774 1.2572 -1.02802 0
M  V30 3104 H 287.771 4.16898 -0.0143688 0
M  V30 3105 H 286.431 3.18511 0.630923 0
M  V30 3106 H 287.442 4.29349 -2.89621 0
M  V30 3107 H 284.119 4.16281 -0.318854 0
M  V30 3108 H 285.509 5.23107 -4.21674 0
M  V30 3109 N 288.23 0.939286 1.26551 0
M  V30 3110 C 289.178 0.43815 2.28436 0
M  V30 3111 C 290.172 -0.483587 1.62351 0
M  V30 3112 O 291.378 -0.362009 1.76322 0
M  V30 3113 H 287.753 0.123149 0.741848 0
M  V30 3114 H 289.724 1.31002 2.68106 0
M  V30 3115 C 288.473 -0.283052 3.46546 0
M  V30 3116 H 287.796 0.417043 3.97619 0
M  V30 3117 H 289.236 -0.597948 4.19763 0
M  V30 3118 C 287.695 -1.50018 3.01656 0
M  V30 3119 O 288.225 -2.59855 3.0633 0
M  V30 3120 N 286.431 -1.35608 2.57019 0
M  V30 3121 H 285.978 -0.46244 2.53415 0
M  V30 3122 H 285.936 -2.17165 2.27347 0
M  V30 3123 N 289.708 -1.40897 0.706093 0
M  V30 3124 C 290.638 -2.33418 0.0620085 0
M  V30 3125 C 291.619 -1.52385 -0.755827 0
M  V30 3126 O 292.804 -1.80886 -0.706674 0
M  V30 3127 C 289.934 -3.36293 -0.867445 0
M  V30 3128 C 288.888 -4.27716 -0.155932 0
M  V30 3129 C 288.214 -5.2105 -1.20046 0
M  V30 3130 C 289.514 -5.12944 0.984149 0
M  V30 3131 H 291.208 -2.87527 0.83477 0
M  V30 3132 H 288.754 -1.38249 0.402875 0
M  V30 3133 H 290.707 -3.99949 -1.32735 0
M  V30 3134 H 289.431 -2.80556 -1.67199 0
M  V30 3135 H 288.09 -3.65498 0.284047 0
M  V30 3136 H 287.738 -4.61624 -1.99781 0
M  V30 3137 H 287.438 -5.83056 -0.729328 0
M  V30 3138 H 288.962 -5.87584 -1.66066 0
M  V30 3139 H 290.376 -5.70109 0.604048 0
M  V30 3140 H 288.773 -5.83945 1.38304 0
M  V30 3141 H 289.843 -4.49485 1.81911 0
M  V30 3142 N 291.186 -0.45159 -1.50991 0
M  V30 3143 C 292.116 0.342898 -2.30969 0
M  V30 3144 C 293.097 1.00815 -1.37005 0
M  V30 3145 O 294.282 1.00907 -1.65926 0
M  V30 3146 C 291.412 1.43637 -3.16205 0
M  V30 3147 C 290.366 0.893818 -4.18563 0
M  V30 3148 C 289.692 2.08411 -4.92411 0
M  V30 3149 C 290.992 -0.0815568 -5.22236 0
M  V30 3150 H 292.686 -0.324556 -2.97636 0
M  V30 3151 H 290.232 -0.157531 -1.43136 0
M  V30 3152 H 292.185 1.9995 -3.70942 0
M  V30 3153 H 290.909 2.13232 -2.47386 0
M  V30 3154 H 289.568 0.352798 -3.64898 0
M  V30 3155 H 289.216 2.76658 -4.20082 0
M  V30 3156 H 288.916 1.72741 -5.61636 0
M  V30 3157 H 290.44 2.65251 -5.49976 0
M  V30 3158 H 291.854 0.391742 -5.7196 0
M  V30 3159 H 290.251 -0.351551 -5.99069 0
M  V30 3160 H 291.321 -1.01374 -4.74185 0
M  V30 3161 N 292.664 1.56529 -0.183458 0
M  V30 3162 C 294.08 1.58664 0.172554 0
M  V30 3163 C 294.28 1.19925 1.61926 0
M  V30 3164 O 293.336 0.916534 2.35278 0
M  V30 3165 C 294.649 3.00463 -0.119262 0
M  V30 3166 C 296.197 3.12945 -0.0584396 0
M  V30 3167 C 296.672 4.56857 -0.323408 0
M  V30 3168 N 298.163 4.62403 -0.271612 0
M  V30 3169 C 298.898 5.71626 -0.450639 0
M  V30 3170 N 298.394 6.89362 -0.689384 0
M  V30 3171 N 300.187 5.60775 -0.385701 0
M  V30 3172 H 292.338 1.79994 -1.12765 0
M  V30 3173 H 294.601 0.834808 -0.449222 0
M  V30 3174 H 294.307 3.33326 -1.12192 0
M  V30 3175 H 294.181 3.72659 0.583544 0
M  V30 3176 H 296.568 2.79902 0.934805 0
M  V30 3177 H 296.649 2.4316 -0.794144 0
M  V30 3178 H 296.293 4.9061 -1.31392 0
M  V30 3179 H 296.223 5.24816 0.43305 0
M  V30 3180 H 298.714 3.77785 -0.0932256 0
M  V30 3181 H 299.027 7.68489 -0.815113 0
M  V30 3182 H 297.372 6.91196 -0.726142 0
M  V30 3183 H 300.563 4.67674 -0.199687 0
M  V30 3184 H 300.736 6.4584 -0.528646 0
M  V30 3185 N 294.142 -0.090211 1.57342 0
M  V30 3186 C 295.105 -1.09335 2.01441 0
M  V30 3187 C 296.105 -1.32666 0.908641 0
M  V30 3188 O 297.295 -1.28697 1.174 0
M  V30 3189 C 294.427 -2.44136 2.3793 0
M  V30 3190 H 295.62 -0.713662 2.91285 0
M  V30 3191 H 293.173 -0.335404 1.52659 0
M  V30 3192 H 293.908 -2.86972 1.51055 0
M  V30 3193 H 293.693 -2.28548 3.18603 0
M  V30 3194 H 295.183 -3.16277 2.72688 0
M  V30 3195 N 295.62 -1.53406 -0.361157 0
M  V30 3196 C 296.57 -1.76536 -1.44287 0
M  V30 3197 C 297.554 -0.620019 -1.48474 0
M  V30 3198 O 298.746 -0.878834 -1.53641 0
M  V30 3199 C 295.875 -1.96266 -2.81664 0
M  V30 3200 C 294.961 -3.16815 -2.81938 0
M  V30 3201 N 295.352 -4.38637 -2.51855 0
M  V30 3202 C 293.65 -3.17627 -3.13096 0
M  V30 3203 C 294.351 -5.20401 -2.59919 0
M  V30 3204 N 293.327 -4.56712 -2.94814 0
M  V30 3205 H 297.129 -2.68331 -1.19899 0
M  V30 3206 H 294.643 -1.52091 -0.56938 0
M  V30 3207 H 296.64 -2.10966 -3.59582 0
M  V30 3208 H 295.3 -1.05702 -3.07013 0
M  V30 3209 H 296.311 -4.66293 -2.25369 0
M  V30 3210 H 292.988 -2.36971 -3.43731 0
M  V30 3211 H 294.378 -6.27586 -2.39969 0
M  V30 3212 N 297.098 0.621204 -1.44841 0
M  V30 3213 C 298.061 1.71459 -1.521 0
M  V30 3214 C 299.061 1.55696 -0.401933 0
M  V30 3215 O 300.251 1.61011 -0.664925 0
M  V30 3216 C 297.383 3.10624 -1.40447 0
M  V30 3217 H 298.576 1.66394 -2.49506 0
M  V30 3218 H 296.129 0.835745 -1.3208 0
M  V30 3219 H 296.864 3.21277 -0.441737 0
M  V30 3220 H 296.649 3.23473 -2.21602 0
M  V30 3221 H 298.139 3.90293 -1.4853 0
M  V30 3222 N 298.576 1.31904 0.862503 0
M  V30 3223 C 299.992 1.10724 1.14945 0
M  V30 3224 C 300.192 -0.117421 2.01158 0
M  V30 3225 O 299.248 -0.804595 2.39338 0
M  V30 3226 C 300.561 2.38267 1.83437 0
M  V30 3227 C 302.109 2.43949 1.96106 0
M  V30 3228 C 302.584 3.71394 2.68013 0
M  V30 3229 N 304.075 3.72331 2.75543 0
M  V30 3230 C 304.81 4.67641 3.31812 0
M  V30 3231 N 304.306 5.73313 3.88953 0
M  V30 3232 N 306.099 4.5515 3.29841 0
M  V30 3233 H 298.25 2.10436 0.288191 0
M  V30 3234 H 300.513 0.928705 0.190292 0
M  V30 3235 H 300.219 3.27759 1.27542 0
M  V30 3236 H 300.093 2.48633 2.83657 0
M  V30 3237 H 302.48 1.54922 2.51164 0
M  V30 3238 H 302.561 2.37543 0.949059 0
M  V30 3239 H 302.205 4.60791 2.13621 0
M  V30 3240 H 302.135 3.75069 3.69636 0
M  V30 3241 H 304.626 2.95947 2.34997 0
M  V30 3242 H 304.939 6.42107 4.30022 0
M  V30 3243 H 303.284 5.77077 3.87308 0
M  V30 3244 H 306.475 3.71766 2.84443 0
M  V30 3245 H 306.648 5.29604 3.73394 0
M  V30 3246 N 300.054 -1.07777 1.14986 0
M  V30 3247 C 301.017 -2.13041 0.845358 0
M  V30 3248 C 302.017 -1.60071 -0.152931 0
M  V30 3249 O 303.207 -1.74033 0.0761879 0
M  V30 3250 C 300.339 -3.39896 0.261383 0
M  V30 3251 H 301.532 -2.41485 1.77834 0
M  V30 3252 H 299.085 -1.23595 0.956757 0
M  V30 3253 H 299.82 -3.17091 -0.68 0
M  V30 3254 H 299.605 -3.79642 0.980514 0
M  V30 3255 H 301.095 -4.17548 0.0657687 0
M  V30 3256 N 301.532 -0.945985 -1.26051 0
M  V30 3257 C 302.778 -0.597002 -1.93814 0
M  V30 3258 C 303.111 0.862484 -1.73997 0
M  V30 3259 O 302.386 1.61769 -1.07986 0
M  V30 3260 C 302.669 -0.945937 -3.47454 0
M  V30 3261 C 302.522 -2.46052 -3.76535 0
M  V30 3262 C 303.841 -0.464785 -4.37639 0
M  V30 3263 H 300.96 -0.218366 -0.703907 0
M  V30 3264 H 303.602 -1.18107 -1.48831 0
M  V30 3265 H 301.752 -0.448902 -3.85898 0
M  V30 3266 H 303.424 -3.03065 -3.47778 0
M  V30 3267 H 301.667 -2.90194 -3.22444 0
M  V30 3268 H 302.338 -2.65517 -4.83947 0
M  V30 3269 H 304.814 -0.891016 -4.06448 0
M  V30 3270 H 303.69 -0.737712 -5.4392 0
M  V30 3271 H 303.951 0.635274 -4.37512 0
M  V30 3272 N 303.011 1.40521 -0.713556 0
M  V30 3273 C 303.958 2.30723 -0.059684 0
M  V30 3274 C 304.928 1.48079 0.752448 0
M  V30 3275 O 306.113 1.76823 0.71681 0
M  V30 3276 C 303.253 3.34274 0.857594 0
M  V30 3277 C 302.366 4.31986 0.0351536 0
M  V30 3278 C 301.501 5.22605 0.951724 0
M  V30 3279 C 300.54 6.11976 0.123253 0
M  V30 3280 N 299.677 6.9502 0.99459 0
M  V30 3281 H 304.517 2.86074 -0.834596 0
M  V30 3282 H 302.054 1.40879 -0.42326 0
M  V30 3283 H 304.012 3.92879 1.40364 0
M  V30 3284 H 302.642 2.8043 1.59871 0
M  V30 3285 H 301.694 3.7518 -0.628052 0
M  V30 3286 H 303.006 4.95101 -0.606347 0
M  V30 3287 H 302.16 5.86131 1.56638 0
M  V30 3288 H 300.899 4.59759 1.62705 0
M  V30 3289 H 299.904 5.47482 -0.50435 0
M  V30 3290 H 301.129 6.76881 -0.548539 0
M  V30 3291 H 299.075 6.34764 1.6556 0
M  V30 3292 H 298.992 7.54892 0.40908 0
M  V30 3293 H 300.26 7.62997 1.59549 0
M  V30 3294 N 304.489 0.459591 1.5075 0
M  V30 3295 C 305.735 -0.0994966 2.02556 0
M  V30 3296 C 306.068 -1.40399 1.3417 0
M  V30 3297 O 305.343 -1.88892 0.463683 0
M  V30 3298 C 305.626 -0.295242 3.58888 0
M  V30 3299 C 305.479 1.02947 4.37861 0
M  V30 3300 C 306.798 -1.05502 4.27267 0
M  V30 3301 H 303.917 -0.034686 0.736183 0
M  V30 3302 H 306.559 0.602938 1.8018 0
M  V30 3303 H 304.709 -0.893563 3.78084 0
M  V30 3304 H 306.381 1.66348 4.30263 0
M  V30 3305 H 304.624 1.62885 4.02058 0
M  V30 3306 H 305.295 0.846281 5.45474 0
M  V30 3307 H 307.771 -0.547993 4.12476 0
M  V30 3308 H 306.647 -1.16077 5.36486 0
M  V30 3309 H 306.908 -2.08875 3.89645 0
M  V30 3310 N 305.967 -1.56429 0.191757 0
M  V30 3311 C 307.214 -1.97485 -0.447891 0
M  V30 3312 C 307.542 -1.07852 -1.61859 0
M  V30 3313 O 306.797 -0.116903 -1.95351 0
M  V30 3314 C 307.096 -3.44449 -0.953384 0
M  V30 3315 C 306.762 -4.50781 0.103586 0
M  V30 3316 C 305.424 -4.79584 0.394023 0
M  V30 3317 C 307.776 -5.1471 0.819946 0
M  V30 3318 C 305.104 -5.69607 1.40585 0
M  V30 3319 C 307.456 -6.05827 1.8209 0
M  V30 3320 C 306.12 -6.32987 2.11857 0
M  V30 3321 H 305.39 -0.722648 -0.163895 0
M  V30 3322 H 308.037 -1.89322 0.28802 0
M  V30 3323 H 306.342 -3.49666 -1.76751 0
M  V30 3324 H 308.039 -3.73569 -1.45765 0
M  V30 3325 H 304.629 -4.28394 -0.132951 0
M  V30 3326 H 308.813 -4.92552 0.608789 0
M  V30 3327 H 304.069 -5.88926 1.64243 0
M  V30 3328 H 308.243 -6.54424 2.38123 0
M  V30 3329 H 305.87 -7.02544 2.90407 0
M  V30 3330 N 307.445 0.0818655 -1.57387 0
M  V30 3331 C 308.861 0.436412 -1.53517 0
M  V30 3332 C 309.061 1.79758 -0.910459 0
M  V30 3333 O 308.117 2.47324 -0.508636 0
M  V30 3334 C 309.43 0.386734 -2.98203 0
M  V30 3335 C 310.978 0.467644 -3.09487 0
M  V30 3336 C 311.453 0.447978 -4.55804 0
M  V30 3337 N 312.944 0.508348 -4.60402 0
M  V30 3338 C 313.679 0.515184 -5.71081 0
M  V30 3339 N 313.175 0.477435 -6.91153 0
M  V30 3340 N 314.968 0.560988 -5.59294 0
M  V30 3341 H 307.119 -0.809546 -1.96367 0
M  V30 3342 H 309.382 -0.302733 -0.898363 0
M  V30 3343 H 309.088 -0.546539 -3.47427 0
M  V30 3344 H 308.962 1.20075 -3.57578 0
M  V30 3345 H 311.349 1.39134 -2.60242 0
M  V30 3346 H 311.43 -0.374753 -2.5304 0
M  V30 3347 H 311.074 -0.471826 -5.05704 0
M  V30 3348 H 311.004 1.30777 -5.10103 0
M  V30 3349 H 313.495 0.54218 -3.7399 0
M  V30 3350 H 313.808 0.486299 -7.71268 0
M  V30 3351 H 312.153 0.444278 -6.93579 0
M  V30 3352 H 315.344 0.5881 -4.64391 0
M  V30 3353 H 315.517 0.562846 -6.45551 0
M  V30 3354 N 308.923 1.53595 0.353017 0
M  V30 3355 C 309.833 1.83897 1.45667 0
M  V30 3356 C 310.849 0.728334 1.58023 0
M  V30 3357 O 312.025 1.01968 1.73679 0
M  V30 3358 C 309.09 2.03383 2.80778 0
M  V30 3359 C 308.151 3.27262 2.77845 0
M  V30 3360 C 307.384 3.45809 4.06512 0
M  V30 3361 O 307.607 2.68387 5.03314 0
M  V30 3362 O 306.541 4.39207 4.11559 0
M  V30 3363 H 310.367 2.77686 1.2298 0
M  V30 3364 H 307.952 1.39132 0.544308 0
M  V30 3365 H 309.834 2.17698 3.60812 0
M  V30 3366 H 308.509 1.12783 3.03417 0
M  V30 3367 H 307.416 3.18359 1.96465 0
M  V30 3368 H 308.749 4.17824 2.60161 0
M  V30 3369 N 310.401 -0.613514 1.45168 0
M  V30 3370 C 311.629 -1.39946 1.5239 0
M  V30 3371 C 312.044 -1.88167 0.154531 0
M  V30 3372 O 311.401 -1.61872 -0.842843 0
M  V30 3373 C 311.452 -2.60795 2.50337 0
M  V30 3374 O 311.173 -2.1458 3.81952 0
M  V30 3375 C 312.674 -3.53723 2.67198 0
M  V30 3376 H 309.894 -0.428593 0.516284 0
M  V30 3377 H 312.438 -0.748753 1.903 0
M  V30 3378 H 310.593 -3.21919 2.15515 0
M  V30 3379 H 311.007 -2.93055 4.34993 0
M  V30 3380 H 312.481 -4.35079 3.39721 0
M  V30 3381 H 312.958 -4.0368 1.73029 0
M  V30 3382 H 313.564 -2.98456 3.02992 0
M  V30 3383 N 311.879 -1.3236 -0.855495 0
M  V30 3384 C 313.125 -1.23054 -1.612 0
M  V30 3385 C 313.458 0.207404 -1.93089 0
M  V30 3386 O 312.733 1.14432 -1.57275 0
M  V30 3387 C 313.016 -2.08937 -2.93287 0
M  V30 3388 C 312.869 -3.61105 -2.68185 0
M  V30 3389 C 314.188 -1.94986 -3.94549 0
M  V30 3390 H 311.307 -0.448364 -0.584926 0
M  V30 3391 H 313.949 -1.62297 -0.987917 0
M  V30 3392 H 312.099 -1.75599 -3.46551 0
M  V30 3393 H 313.771 -4.04652 -2.21483 0
M  V30 3394 H 312.014 -3.83813 -2.02164 0
M  V30 3395 H 312.685 -4.16522 -3.62234 0
M  V30 3396 H 315.161 -2.24189 -3.5054 0
M  V30 3397 H 314.037 -2.57356 -4.84829 0
M  V30 3398 H 314.298 -0.917263 -4.3248 0
M  V30 3399 N 313.357 1.07166 -1.15556 0
M  V30 3400 C 314.304 2.14417 -0.854055 0
M  V30 3401 C 315.274 1.64965 0.193806 0
M  V30 3402 O 316.459 1.90703 0.0609443 0
M  V30 3403 C 313.599 3.43304 -0.351574 0
M  V30 3404 C 312.712 4.06537 -1.46123 0
M  V30 3405 C 311.847 5.23266 -0.914677 0
M  V30 3406 C 310.886 5.78464 -2.00114 0
M  V30 3407 N 310.023 6.86521 -1.47083 0
M  V30 3408 H 314.863 2.39548 -1.77259 0
M  V30 3409 H 312.4 1.17543 -0.884425 0
M  V30 3410 H 314.358 4.17179 -0.0419409 0
M  V30 3411 H 312.988 3.18419 0.530037 0
M  V30 3412 H 312.04 3.30297 -1.88701 0
M  V30 3413 H 313.352 4.43567 -2.28144 0
M  V30 3414 H 312.506 6.04131 -0.557698 0
M  V30 3415 H 311.245 4.87658 -0.0636583 0
M  V30 3416 H 310.25 4.96243 -2.36692 0
M  V30 3417 H 311.475 6.16126 -2.85597 0
M  V30 3418 H 309.421 6.52849 -0.642198 0
M  V30 3419 H 309.338 7.22446 -2.22729 0
M  V30 3420 H 310.606 7.71087 -1.14215 0
M  V30 3421 N 314.835 0.952656 1.25548 0
M  V30 3422 C 316.112 0.523818 1.88456 0
M  V30 3423 C 316.492 -0.998871 1.85973 0
M  V30 3424 O 315.84 -1.86381 1.3219 0
M  V30 3425 C 316.05 1.0982 3.31271 0
M  V30 3426 C 317.398 1.17385 4.08051 0
M  V30 3427 O 318.422 1.04961 3.40384 0
M  V30 3428 O 317.281 1.36852 5.29088 0
M  V30 3429 H 314.375 0.172485 0.808813 0
M  V30 3430 H 316.921 1.04596 1.33633 0
M  V30 3431 H 315.693 2.1415 3.27499 0
M  V30 3432 H 315.316 0.559191 3.93648 0
M  V30 3433 N 316.313 -1.40141 0.720998 0
M  V30 3434 C 317.561 -2.0039 0.262323 0
M  V30 3435 C 317.882 -1.57469 -1.15015 0
M  V30 3436 O 317.152 -0.816582 -1.78069 0
M  V30 3437 H 315.732 -0.741063 0.093996 0
M  V30 3438 H 318.394 -1.71398 0.927835 0
M  V30 3439 H 317.49 -3.10658 0.299671 0
M  V30 3440 N 317.792 -0.46758 -1.50504 0
M  V30 3441 C 318.739 0.328413 -2.28452 0
M  V30 3442 C 319.709 0.990313 -1.33349 0
M  V30 3443 O 320.894 1.00343 -1.62284 0
M  V30 3444 C 318.034 1.40648 -3.15138 0
M  V30 3445 C 317.147 0.759709 -4.25267 0
M  V30 3446 C 316.282 1.81537 -4.99217 0
M  V30 3447 C 315.321 1.14866 -6.01226 0
M  V30 3448 N 314.458 2.14702 -6.68467 0
M  V30 3449 H 319.298 -0.342603 -2.96024 0
M  V30 3450 H 316.835 -0.180801 -1.45985 0
M  V30 3451 H 318.793 2.04315 -3.63746 0
M  V30 3452 H 317.423 2.04671 -2.49619 0
M  V30 3453 H 316.475 0.0105671 -3.80399 0
M  V30 3454 H 317.787 0.233243 -4.98254 0
M  V30 3455 H 316.941 2.52793 -5.51526 0
M  V30 3456 H 315.68 2.37564 -4.25928 0
M  V30 3457 H 314.685 0.42171 -5.4818 0
M  V30 3458 H 315.91 0.595334 -6.76485 0
M  V30 3459 H 313.856 2.69752 -5.97972 0
M  V30 3460 H 313.773 1.6703 -7.37317 0
M  V30 3461 H 315.041 2.85348 -7.25394 0
M  V30 3462 N 319.27 1.56325 -0.20005 0
M  V30 3463 C 320.519 1.96895 0.437652 0
M  V30 3464 C 320.832 1.08999 1.62415 0
M  V30 3465 O 322.038 1.39372 2.32997 0
M  V30 3466 C 320.494 3.50198 0.830025 0
M  V30 3467 C 320.102 4.46765 -0.332461 0
M  V30 3468 C 321.846 3.99526 1.43453 0
M  V30 3469 C 319.753 5.91344 0.0811468 0
M  V30 3470 H 318.683 0.735209 0.167282 0
M  V30 3471 H 321.334 1.81148 -0.292853 0
M  V30 3472 H 319.716 3.61467 1.61734 0
M  V30 3473 H 320.89 4.47231 -1.11 0
M  V30 3474 H 319.205 4.07657 -0.848789 0
M  V30 3475 H 321.802 5.05025 1.75652 0
M  V30 3476 H 322.145 3.44122 2.34277 0
M  V30 3477 H 322.678 3.91393 0.71109 0
M  V30 3478 H 319.417 6.50685 -0.793033 0
M  V30 3479 H 318.937 5.94121 0.823445 0
M  V30 3480 H 320.616 6.44945 0.515252 0
M  V30 3481 N 320.748 -0.0735177 1.57428 0
M  V30 3482 C 321.996 -0.771472 1.86796 0
M  V30 3483 C 322.317 -1.78201 0.791804 0
M  V30 3484 O 321.587 -1.95074 -0.179718 0
M  V30 3485 H 320.167 -0.28791 0.689287 0
M  V30 3486 H 322.829 -0.0500161 1.94836 0
M  V30 3487 H 321.925 -1.28874 2.8425 0
M  V30 3488 N 322.226 -1.5378 -0.344866 0
M  V30 3489 C 323.475 -1.7018 -1.08267 0
M  V30 3490 C 323.788 -0.471 -1.89845 0
M  V30 3491 O 324.994 -0.515917 -2.66553 0
M  V30 3492 C 323.45 -3.00923 -1.97417 0
M  V30 3493 C 323.058 -4.31335 -1.21053 0
M  V30 3494 C 324.802 -3.26688 -2.71063 0
M  V30 3495 C 322.709 -5.53153 -2.09225 0
M  V30 3496 H 321.639 -0.634138 -0.407903 0
M  V30 3497 H 324.29 -1.8028 -0.342246 0
M  V30 3498 H 322.672 -2.84676 -2.75274 0
M  V30 3499 H 323.846 -4.58281 -0.481159 0
M  V30 3500 H 322.161 -4.12173 -0.591813 0
M  V30 3501 H 324.758 -4.1489 -3.37299 0
M  V30 3502 H 325.101 -2.43639 -3.37558 0
M  V30 3503 H 325.634 -3.43705 -2.0028 0
M  V30 3504 H 322.373 -6.38741 -1.47274 0
M  V30 3505 H 321.893 -5.30458 -2.79955 0
M  V30 3506 H 323.572 -5.88744 -2.68308 0
M  V30 3507 N 323.704 0.605807 -1.45491 0
M  V30 3508 C 324.95 1.36679 -1.49823 0
M  V30 3509 C 325.283 1.93693 -0.140175 0
M  V30 3510 O 324.558 1.75158 0.845581 0
M  V30 3511 C 324.841 2.51337 -2.57879 0
M  V30 3512 C 324.694 1.99508 -4.03134 0
M  V30 3513 C 326.013 3.53463 -2.62205 0
M  V30 3514 H 323.132 0.495617 -0.545466 0
M  V30 3515 H 325.774 0.682732 -1.7731 0
M  V30 3516 H 323.924 3.09691 -2.34571 0
M  V30 3517 H 325.596 1.45789 -4.37656 0
M  V30 3518 H 323.839 1.30496 -4.13707 0
M  V30 3519 H 324.51 2.82169 -4.74431 0
M  V30 3520 H 326.986 3.04953 -2.83095 0
M  V30 3521 H 325.862 4.31178 -3.39672 0
M  V30 3522 H 326.123 4.09197 -1.67363 0
M  V30 3523 N 325.182 1.32811 0.848464 0
M  V30 3524 C 326.429 1.23724 1.60308 0
M  V30 3525 C 326.757 -0.1994 1.93475 0
M  V30 3526 O 326.012 -1.15406 1.5805 0
M  V30 3527 C 326.311 2.04831 2.92881 0
M  V30 3528 C 325.977 3.54125 2.79117 0
M  V30 3529 C 324.639 3.94829 2.7507 0
M  V30 3530 C 326.991 4.49036 2.64606 0
M  V30 3531 C 324.319 5.28675 2.544 0
M  V30 3532 C 326.671 5.83033 2.4547 0
M  V30 3533 C 325.335 6.22931 2.39819 0
M  V30 3534 H 324.605 0.452737 0.586609 0
M  V30 3535 H 327.252 1.64301 0.983743 0
M  V30 3536 H 325.557 1.57001 3.58968 0
M  V30 3537 H 327.254 1.95164 3.50303 0
M  V30 3538 H 323.844 3.21801 2.83094 0
M  V30 3539 H 328.028 4.18505 2.66772 0
M  V30 3540 H 323.284 5.58637 2.48465 0
M  V30 3541 H 327.458 6.56186 2.33222 0
M  V30 3542 H 325.085 7.26584 2.23562 0
M  V30 3543 N 326.66 -1.06551 1.16123 0
M  V30 3544 C 327.608 -2.16063 0.861371 0
M  V30 3545 C 328.602 -1.6856 -0.168517 0
M  V30 3546 O 329.808 -1.79986 -0.0227579 0
M  V30 3547 H 326.183 -0.705278 0.260934 0
M  V30 3548 H 328.154 -2.38567 1.79244 0
M  V30 3549 C 326.903 -3.45661 0.376018 0
M  V30 3550 H 326.226 -3.82604 1.15992 0
M  V30 3551 H 327.666 -4.23504 0.204951 0
M  V30 3552 C 326.125 -3.24546 -0.903954 0
M  V30 3553 O 326.655 -3.49865 -1.97377 0
M  V30 3554 N 324.861 -2.77992 -0.846679 0
M  V30 3555 H 324.408 -2.57589 0.0241017 0
M  V30 3556 H 324.366 -2.64244 -1.70359 0
M  V30 3557 N 328.138 -0.959301 -1.25041 0
M  V30 3558 C 329.086 -0.474437 -2.2771 0
M  V30 3559 C 330.08 0.457697 -1.631 0
M  V30 3560 O 331.286 0.333912 -1.76876 0
M  V30 3561 H 327.661 -0.134936 -0.739795 0
M  V30 3562 H 329.632 -1.35251 -2.65988 0
M  V30 3563 C 328.381 0.227884 -3.46952 0
M  V30 3564 H 327.704 -0.480248 -3.96905 0
M  V30 3565 H 329.144 0.531091 -4.20661 0
M  V30 3566 C 327.603 1.452 -3.04004 0
M  V30 3567 O 328.133 2.54949 -3.10426 0
M  V30 3568 N 326.339 1.31502 -2.59144 0
M  V30 3569 H 325.886 0.422065 -2.54119 0
M  V30 3570 H 325.844 2.13521 -2.30773 0
M  V30 3571 N 329.616 1.39756 -0.72842 0
M  V30 3572 C 330.864 2.00248 -0.272946 0
M  V30 3573 C 331.185 1.58077 1.14178 0
M  V30 3574 O 330.455 0.826014 1.77634 0
M  V30 3575 H 329.035 0.740554 -0.0979247 0
M  V30 3576 H 331.697 1.70903 -0.936912 0
M  V30 3577 H 330.793 3.10495 -0.316142 0
M  V30 3578 N 331.094 0.475555 1.50254 0
M  V30 3579 C 332.324 -0.0753399 2.06463 0
M  V30 3580 C 332.732 -1.33661 1.33908 0
M  V30 3581 O 332.075 -1.79219 0.403257 0
M  V30 3582 C 332.137 -0.424921 3.5698 0
M  V30 3583 C 331.801 0.734965 4.51051 0
M  V30 3584 C 332.798 1.61827 4.94073 0
M  V30 3585 C 330.483 0.926557 4.9368 0
M  V30 3586 C 332.477 2.67754 5.78434 0
M  V30 3587 C 330.164 1.98904 5.77824 0
M  V30 3588 C 331.162 2.8629 6.20103 0
M  V30 3589 O 330.85 3.90708 7.02568 0
M  V30 3590 H 330.582 0.00576308 0.675975 0
M  V30 3591 H 333.136 0.664662 1.94349 0
M  V30 3592 H 331.366 -1.21817 3.67012 0
M  V30 3593 H 333.055 -0.911422 3.95535 0
M  V30 3594 H 333.821 1.48196 4.61804 0
M  V30 3595 H 329.7 0.25584 4.6029 0
M  V30 3596 H 333.244 3.35992 6.11355 0
M  V30 3597 H 329.141 2.12541 6.09505 0
M  V30 3598 H 329.909 3.87751 7.20827 0
M  V30 3599 N 332.573 -1.56217 0.208337 0
M  V30 3600 C 333.82 -1.97949 -0.42692 0
M  V30 3601 C 334.148 -1.09562 -1.60706 0
M  V30 3602 O 333.403 -0.137616 -1.95216 0
M  V30 3603 C 333.702 -3.45441 -0.916797 0
M  V30 3604 C 333.368 -4.50646 0.151391 0
M  V30 3605 C 332.03 -4.79139 0.444867 0
M  V30 3606 C 334.382 -5.13811 0.874492 0
M  V30 3607 C 331.71 -5.68084 1.46619 0
M  V30 3608 C 334.062 -6.03861 1.88506 0
M  V30 3609 C 332.726 -6.30704 2.18559 0
M  V30 3610 H 331.996 -0.724345 -0.156221 0
M  V30 3611 H 334.643 -1.89006 0.308084 0
M  V30 3612 H 332.948 -3.51521 -1.73032 0
M  V30 3613 H 334.645 -3.75094 -1.41794 0
M  V30 3614 H 331.235 -4.28511 -0.0875068 0
M  V30 3615 H 335.419 -4.91879 0.660996 0
M  V30 3616 H 330.675 -5.87151 1.7048 0
M  V30 3617 H 334.849 -6.51861 2.45051 0
M  V30 3618 H 332.476 -6.99424 2.97843 0
M  V30 3619 N 334.051 0.0651679 -1.57465 0
M  V30 3620 C 334.961 1.09448 -2.07505 0
M  V30 3621 C 335.977 1.41974 -1.00595 0
M  V30 3622 O 337.153 1.52018 -1.32107 0
M  V30 3623 C 334.218 2.38689 -2.51453 0
M  V30 3624 C 333.279 2.13073 -3.72691 0
M  V30 3625 C 332.512 3.36152 -4.14533 0
M  V30 3626 O 332.735 4.45517 -3.56189 0
M  V30 3627 O 331.669 3.23974 -5.07272 0
M  V30 3628 H 335.495 0.69935 -2.95538 0
M  V30 3629 H 333.08 0.279752 -1.46757 0
M  V30 3630 H 334.962 3.14736 -2.80212 0
M  V30 3631 H 333.637 2.77568 -1.66546 0
M  V30 3632 H 332.544 1.34709 -3.49005 0
M  V30 3633 H 333.877 1.79071 -4.5847 0
M  V30 3634 N 335.529 1.53961 0.336706 0
M  V30 3635 C 336.94 1.62914 0.911925 0
M  V30 3636 C 337.291 0.514795 1.89326 0
M  V30 3637 O 336.416 -0.354395 2.13478 0
M  V30 3638 C 337.011 2.95304 1.66076 0
M  V30 3639 C 335.57 3.06496 2.18489 0
M  V30 3640 C 334.717 2.58403 1.00613 0
M  V30 3641 H 337.668 1.58285 0.114649 0
M  V30 3642 H 337.689 2.84727 2.5241 0
M  V30 3643 H 337.201 3.76387 0.946276 0
M  V30 3644 H 335.302 2.3006 2.93092 0
M  V30 3645 H 335.415 4.1208 2.44391 0
M  V30 3646 H 333.779 2.13977 1.38152 0
M  V30 3647 H 334.562 3.41932 0.306179 0
M  V30 3648 N 337.007 -0.598083 1.45811 0
M  V30 3649 C 337.97 -1.69018 1.54808 0
M  V30 3650 C 338.97 -1.55037 0.426652 0
M  V30 3651 O 340.16 -1.59932 0.690456 0
M  V30 3652 C 337.292 -3.0835 1.45371 0
M  V30 3653 H 338.485 -1.62403 2.52121 0
M  V30 3654 H 336.038 -0.814626 1.33392 0
M  V30 3655 H 336.773 -3.20534 0.492793 0
M  V30 3656 H 336.558 -3.19907 2.26721 0
M  V30 3657 H 338.048 -3.8788 1.54721 0
M  V30 3658 N 338.485 -1.33259 -0.841409 0
M  V30 3659 C 339.71 -1.2775 -1.63385 0
M  V30 3660 C 340.135 0.149188 -1.87507 0
M  V30 3661 O 339.493 1.10498 -1.43736 0
M  V30 3662 C 339.541 -2.05571 -2.96265 0
M  V30 3663 O 338.645 -1.41257 -3.87453 0
M  V30 3664 H 337.986 -0.439627 -0.497618 0
M  V30 3665 H 340.516 -1.75782 -1.04699 0
M  V30 3666 H 340.526 -2.16241 -3.45982 0
M  V30 3667 H 339.201 -3.09309 -2.7803 0
M  V30 3668 H 337.778 -1.39217 -3.45938 0
M  V30 3669 N 339.963 1.05934 -1.16686 0
M  V30 3670 C 340.873 2.17014 -0.891183 0
M  V30 3671 C 341.889 1.73453 0.137907 0
M  V30 3672 O 343.065 2.01361 -0.039592 0
M  V30 3673 C 340.13 3.44384 -0.400099 0
M  V30 3674 C 339.191 4.02433 -1.49486 0
M  V30 3675 C 338.424 5.23723 -1.02711 0
M  V30 3676 O 338.647 5.7027 0.121716 0
M  V30 3677 O 337.581 5.7382 -1.81699 0
M  V30 3678 H 341.407 2.43113 -1.82015 0
M  V30 3679 H 338.992 1.15541 -0.947132 0
M  V30 3680 H 340.874 4.21189 -0.133392 0
M  V30 3681 H 339.549 3.19802 0.500817 0
M  V30 3682 H 338.456 3.27102 -1.81535 0
M  V30 3683 H 339.789 4.31317 -2.37121 0
M  V30 3684 N 341.441 0.965919 1.2453 0
M  V30 3685 C 342.388 0.49402 2.25451 0
M  V30 3686 C 343.358 -0.45948 1.59618 0
M  V30 3687 O 344.543 -0.370238 1.87173 0
M  V30 3688 C 341.683 -0.211359 3.44452 0
M  V30 3689 C 340.796 0.7807 4.24887 0
M  V30 3690 C 339.931 0.0516105 5.31175 0
M  V30 3691 C 338.97 1.03385 6.03306 0
M  V30 3692 N 338.107 0.334887 7.01301 0
M  V30 3693 H 342.947 1.35946 2.65184 0
M  V30 3694 H 340.484 0.681515 1.3036 0
M  V30 3695 H 342.442 -0.637 4.12308 0
M  V30 3696 H 341.072 -1.04077 3.05562 0
M  V30 3697 H 340.124 1.32479 3.56586 0
M  V30 3698 H 341.436 1.52978 4.74762 0
M  V30 3699 H 340.59 -0.432114 6.05159 0
M  V30 3700 H 339.329 -0.730179 4.82203 0
M  V30 3701 H 338.334 1.52847 5.28127 0
M  V30 3702 H 339.559 1.81606 6.54367 0
M  V30 3703 H 337.505 -0.427959 6.54603 0
M  V30 3704 H 337.422 1.02287 7.49048 0
M  V30 3705 H 338.69 -0.126928 7.79397 0
M  V30 3706 N 342.919 -1.39368 0.735821 0
M  V30 3707 C 343.829 -2.34395 0.0979693 0
M  V30 3708 C 344.845 -1.58361 -0.720968 0
M  V30 3709 O 346.021 -1.90648 -0.649245 0
M  V30 3710 C 343.086 -3.37393 -0.797916 0
M  V30 3711 C 342.147 -4.29287 0.0333662 0
M  V30 3712 C 341.38 -5.27365 -0.819854 0
M  V30 3713 O 341.603 -5.31959 -2.05855 0
M  V30 3714 O 340.537 -6.01389 -0.248079 0
M  V30 3715 H 344.363 -2.90601 0.882315 0
M  V30 3716 H 341.948 -1.40909 0.4965 0
M  V30 3717 H 343.83 -4.00505 -1.31048 0
M  V30 3718 H 342.505 -2.83571 -1.56106 0
M  V30 3719 H 341.412 -3.69395 0.591475 0
M  V30 3720 H 342.745 -4.86317 0.758752 0
M  V30 3721 N 344.397 -0.483516 -1.5 0
M  V30 3722 C 345.307 0.309172 -2.32554 0
M  V30 3723 C 346.323 0.984159 -1.43493 0
M  V30 3724 O 347.499 0.969399 -1.76535 0
M  V30 3725 C 344.564 1.36979 -3.18493 0
M  V30 3726 C 343.625 0.710095 -4.23387 0
M  V30 3727 C 342.858 1.72018 -5.05218 0
M  V30 3728 O 343.081 2.94813 -4.88305 0
M  V30 3729 O 342.015 1.28515 -5.8802 0
M  V30 3730 H 345.841 -0.366064 -3.01486 0
M  V30 3731 H 343.426 -0.24514 -1.47375 0
M  V30 3732 H 345.308 1.98385 -3.71781 0
M  V30 3733 H 343.983 2.02828 -2.52275 0
M  V30 3734 H 342.89 0.0567539 -3.74057 0
M  V30 3735 H 344.223 0.0943557 -4.9211 0
M  V30 3736 N 345.875 1.56104 -0.216619 0
M  V30 3737 C 347.152 1.89988 0.465165 0
M  V30 3738 C 347.532 1.13326 1.78102 0
M  V30 3739 O 346.88 0.241033 2.27225 0
M  V30 3740 C 347.09 3.42646 0.662939 0
M  V30 3741 C 348.438 4.13311 0.972602 0
M  V30 3742 O 349.462 3.48217 0.749901 0
M  V30 3743 O 348.321 5.28396 1.39499 0
M  V30 3744 H 345.415 0.78979 0.245276 0
M  V30 3745 H 347.961 1.67721 -0.258436 0
M  V30 3746 H 346.733 3.90399 -0.26543 0
M  V30 3747 H 346.356 3.70677 1.43821 0
M  V30 3748 N 347.353 -0.0568162 1.57498 0
M  V30 3749 C 348.602 -0.752001 1.87157 0
M  V30 3750 C 348.915 -1.77978 0.811375 0
M  V30 3751 O 350.121 -2.52559 0.996293 0
M  V30 3752 C 348.577 -1.38844 3.3204 0
M  V30 3753 C 348.185 -0.398456 4.46225 0
M  V30 3754 C 349.929 -2.06512 3.70882 0
M  V30 3755 C 347.836 -1.04166 5.82154 0
M  V30 3756 H 346.766 -0.28461 0.698222 0
M  V30 3757 H 349.417 -0.00561272 1.83499 0
M  V30 3758 H 347.799 -2.1836 3.30356 0
M  V30 3759 H 348.973 0.367977 4.59328 0
M  V30 3760 H 347.288 0.174592 4.16034 0
M  V30 3761 H 349.885 -2.55437 4.6974 0
M  V30 3762 H 350.228 -2.87117 3.01445 0
M  V30 3763 H 350.761 -1.33808 3.7462 0
M  V30 3764 H 347.5 -0.275614 6.5492 0
M  V30 3765 H 347.02 -1.7786 5.72823 0
M  V30 3766 H 348.699 -1.55715 6.27982 0
M  V30 3767 N 348.832 -1.54138 -0.328536 0
M  V30 3768 C 350.248 -1.44736 -0.672574 0
M  V30 3769 C 350.448 -0.616217 -1.91846 0
M  V30 3770 O 349.504 -0.113067 -2.52247 0
M  V30 3771 C 350.817 -2.884 -0.851217 0
M  V30 3772 C 352.365 -2.98271 -0.948877 0
M  V30 3773 C 352.84 -4.43074 -1.15973 0
M  V30 3774 N 354.331 -4.46665 -1.22658 0
M  V30 3775 C 355.066 -5.55857 -1.40751 0
M  V30 3776 N 354.562 -6.75026 -1.5592 0
M  V30 3777 N 356.355 -5.43495 -1.4342 0
M  V30 3778 H 348.506 -2.06661 0.490421 0
M  V30 3779 H 350.769 -0.934812 0.157579 0
M  V30 3780 H 350.475 -3.51699 -0.00704236 0
M  V30 3781 H 350.349 -3.34225 -1.74853 0
M  V30 3782 H 352.736 -2.35102 -1.78356 0
M  V30 3783 H 352.817 -2.55785 -0.0281435 0
M  V30 3784 H 352.461 -5.06827 -0.329915 0
M  V30 3785 H 352.391 -4.83165 -2.09426 0
M  V30 3786 H 354.882 -3.60797 -1.124 0
M  V30 3787 H 355.195 -7.54004 -1.69404 0
M  V30 3788 H 353.54 -6.77944 -1.53027 0
M  V30 3789 H 356.731 -4.49349 -1.31162 0
M  V30 3790 H 356.904 -6.28649 -1.57178 0
M  V30 3791 N 350.31 0.590341 -1.46126 0
M  V30 3792 C 351.273 1.68194 -1.55703 0
M  V30 3793 C 352.273 1.54808 -0.434868 0
M  V30 3794 O 353.463 1.59564 -0.698928 0
M  V30 3795 C 350.595 3.07575 -1.47005 0
M  V30 3796 H 351.788 1.61064 -2.52979 0
M  V30 3797 H 349.341 0.807541 -1.33823 0
M  V30 3798 H 350.076 3.20268 -0.509785 0
M  V30 3799 H 349.861 3.187 -2.28414 0
M  V30 3800 H 351.351 3.87055 -1.56776 0
M  V30 3801 N 351.788 1.33704 0.83433 0
M  V30 3802 C 353.034 1.25603 1.59222 0
M  V30 3803 C 353.367 -0.176659 1.93395 0
M  V30 3804 O 352.642 -1.11915 1.59076 0
M  V30 3805 C 352.925 2.13576 2.89926 0
M  V30 3806 C 352.778 3.65326 2.62406 0
M  V30 3807 C 354.097 2.01238 3.91397 0
M  V30 3808 H 351.216 0.457613 0.577719 0
M  V30 3809 H 353.858 1.63848 0.961972 0
M  V30 3810 H 352.008 1.8109 3.43713 0
M  V30 3811 H 353.68 4.08124 2.15017 0
M  V30 3812 H 351.923 3.8698 1.96033 0
M  V30 3813 H 352.594 4.22232 3.55562 0
M  V30 3814 H 355.07 2.29738 3.46929 0
M  V30 3815 H 353.946 2.65036 4.80673 0
M  V30 3816 H 354.207 0.985951 4.30966 0
M  V30 3817 N 353.266 -1.05314 1.17247 0
M  V30 3818 C 354.682 -1.30452 0.919473 0
M  V30 3819 C 354.882 -1.9703 -0.42209 0
M  V30 3820 O 353.938 -2.24311 -1.15935 0
M  V30 3821 C 355.251 -2.17551 2.07586 0
M  V30 3822 C 356.799 -2.30937 2.11275 0
M  V30 3823 C 357.274 -3.21396 3.26296 0
M  V30 3824 N 358.765 -3.28981 3.26076 0
M  V30 3825 C 359.5 -3.99095 4.11716 0
M  V30 3826 N 358.996 -4.71648 5.07465 0
M  V30 3827 N 360.789 -3.95247 3.9967 0
M  V30 3828 H 352.94 -0.604988 2.03602 0
M  V30 3829 H 355.203 -0.329368 0.888944 0
M  V30 3830 H 354.909 -1.75921 3.0454 0
M  V30 3831 H 354.783 -3.18182 2.02584 0
M  V30 3832 H 357.17 -2.71809 1.14907 0
M  V30 3833 H 357.251 -1.2994 2.20339 0
M  V30 3834 H 356.895 -2.81238 4.22927 0
M  V30 3835 H 356.825 -4.22395 3.14467 0
M  V30 3836 H 359.316 -2.77286 2.5675 0
M  V30 3837 H 359.629 -5.22705 5.6921 0
M  V30 3838 H 357.974 -4.70594 5.11435 0
M  V30 3839 H 361.165 -3.37691 3.24164 0
M  V30 3840 H 361.338 -4.4962 4.66632 0
M  V30 3841 N 354.744 -0.972509 -1.24016 0
M  V30 3842 C 355.991 -0.637034 -1.92219 0
M  V30 3843 C 356.319 0.828418 -1.75976 0
M  V30 3844 O 355.574 1.61206 -1.10955 0
M  V30 3845 C 355.873 -0.963694 -3.44162 0
M  V30 3846 C 355.539 -2.41807 -3.80579 0
M  V30 3847 C 354.201 -2.81556 -3.9023 0
M  V30 3848 C 356.553 -3.36172 -3.98293 0
M  V30 3849 C 353.881 -4.14702 -4.15017 0
M  V30 3850 C 356.233 -4.68952 -4.24578 0
M  V30 3851 C 354.897 -5.08472 -4.32449 0
M  V30 3852 H 354.167 -0.233107 -0.703379 0
M  V30 3853 H 356.814 -1.2249 -1.47202 0
M  V30 3854 H 355.119 -0.29365 -3.90698 0
M  V30 3855 H 356.816 -0.682449 -3.9515 0
M  V30 3856 H 353.406 -2.09988 -3.73635 0
M  V30 3857 H 357.59 -3.06644 -3.90234 0
M  V30 3858 H 352.846 -4.4494 -4.19331 0
M  V30 3859 H 357.02 -5.42037 -4.37229 0
M  V30 3860 H 354.647 -6.11665 -4.51409 0
M  V30 3861 N 356.222 1.38976 -0.743202 0
M  V30 3862 C 357.155 2.28128 -0.0572165 0
M  V30 3863 C 358.133 1.44827 0.739182 0
M  V30 3864 O 359.317 1.74207 0.720009 0
M  V30 3865 C 356.444 3.25796 0.926001 0
M  V30 3866 C 355.49 4.25947 0.217099 0
M  V30 3867 S 356.323 5.24604 -1.07477 0
M  V30 3868 C 357.479 6.25829 -0.0943545 0
M  V30 3869 H 357.712 2.85961 -0.813246 0
M  V30 3870 H 355.245 1.44822 -0.535341 0
M  V30 3871 H 357.203 3.82583 1.48797 0
M  V30 3872 H 355.864 2.66966 1.65493 0
M  V30 3873 H 355.057 4.94746 0.961372 0
M  V30 3874 H 354.659 3.73002 -0.273059 0
M  V30 3875 H 356.951 6.73411 0.743239 0
M  V30 3876 H 357.894 7.0412 -0.749713 0
M  V30 3877 H 358.302 5.63797 0.281706 0
M  V30 3878 N 357.7 0.491464 1.49741 0
M  V30 3879 C 358.65 -0.311086 2.25868 0
M  V30 3880 C 359.634 -0.943857 1.30308 0
M  V30 3881 O 360.826 -0.853035 1.55088 0
M  V30 3882 C 357.955 -1.38059 3.14316 0
M  V30 3883 C 357.041 -0.754541 4.17334 0
M  V30 3884 N 357.432 0.137216 5.05614 0
M  V30 3885 C 355.73 -1.01621 4.34269 0
M  V30 3886 C 356.431 0.494614 5.79593 0
M  V30 3887 N 355.407 -0.135169 5.43432 0
M  V30 3888 H 359.209 0.37555 2.91491 0
M  V30 3889 H 356.723 0.306917 1.59473 0
M  V30 3890 H 358.72 -1.96891 3.67477 0
M  V30 3891 H 357.38 -2.06901 2.50244 0
M  V30 3892 H 358.391 0.50741 5.15408 0
M  V30 3893 H 355.068 -1.69808 3.81407 0
M  V30 3894 H 356.458 1.2236 6.60665 0
M  V30 3895 N 359.178 -1.55987 0.224894 0
M  V30 3896 C 360.11 -2.17722 -0.716224 0
M  V30 3897 C 361.123 -1.14723 -1.15509 0
M  V30 3898 O 362.312 -1.41688 -1.08567 0
M  V30 3899 C 359.412 -2.74873 -1.98238 0
M  V30 3900 C 358.585 -4.03074 -1.69853 0
M  V30 3901 C 357.644 -4.44757 -2.81208 0
M  V30 3902 O 356.67 -5.11587 -2.49534 0
M  V30 3903 N 357.872 -4.10716 -4.10235 0
M  V30 3904 H 360.637 -2.99109 -0.188123 0
M  V30 3905 H 358.198 -1.6184 0.0440123 0
M  V30 3906 H 360.19 -2.99727 -2.7193 0
M  V30 3907 H 358.76 -1.9777 -2.42086 0
M  V30 3908 H 357.98 -3.86041 -0.797875 0
M  V30 3909 H 359.268 -4.86701 -1.48324 0
M  V30 3910 H 358.666 -3.57019 -4.38809 0
M  V30 3911 H 357.223 -4.40455 -4.80461 0
M  V30 3912 N 360.656 0.0484629 -1.57525 0
M  V30 3913 C 361.903 0.743125 -1.88372 0
M  V30 3914 C 362.231 1.76383 -0.819715 0
M  V30 3915 O 361.486 1.94855 0.181659 0
M  V30 3916 C 361.785 1.46632 -3.25935 0
M  V30 3917 C 361.451 0.583427 -4.4711 0
M  V30 3918 C 360.113 0.340191 -4.79996 0
M  V30 3919 C 362.465 -0.0273345 -5.21193 0
M  V30 3920 C 359.793 -0.522903 -5.84365 0
M  V30 3921 C 362.145 -0.878017 -6.26477 0
M  V30 3922 C 360.809 -1.1309 -6.5785 0
M  V30 3923 H 360.079 0.271929 -0.689301 0
M  V30 3924 H 362.726 0.00336166 -1.915 0
M  V30 3925 H 361.031 2.2789 -3.18706 0
M  V30 3926 H 362.728 2.00902 -3.47044 0
M  V30 3927 H 359.318 0.783151 -4.21384 0
M  V30 3928 H 363.502 0.147654 -4.9608 0
M  V30 3929 H 358.758 -0.727335 -6.07058 0
M  V30 3930 H 362.932 -1.35789 -6.83033 0
M  V30 3931 H 360.559 -1.80144 -7.38547 0
M  V30 3932 N 362.134 1.5431 0.320358 0
M  V30 3933 C 363.082 1.84647 1.4145 0
M  V30 3934 C 364.076 0.718624 1.53402 0
M  V30 3935 O 365.282 0.902335 1.5575 0
M  V30 3936 H 361.657 0.585349 0.472091 0
M  V30 3937 H 363.628 2.7614 1.13089 0
M  V30 3938 C 362.377 2.09341 2.77617 0
M  V30 3939 H 361.7 2.9559 2.69196 0
M  V30 3940 H 363.14 2.3452 3.53237 0
M  V30 3941 C 361.599 0.885939 3.25043 0
M  V30 3942 O 362.129 0.0967891 4.01583 0
M  V30 3943 N 360.335 0.696682 2.82125 0
M  V30 3944 H 359.882 1.34006 2.2 0
M  V30 3945 H 359.84 -0.109712 3.14209 0
M  V30 3946 N 363.613 -0.582584 1.46437 0
M  V30 3947 C 364.561 -1.71272 1.5738 0
M  V30 3948 C 365.555 -1.63524 0.44229 0
M  V30 3949 O 366.761 -1.69016 0.619166 0
M  V30 3950 H 363.136 -0.566273 0.494813 0
M  V30 3951 H 365.107 -1.59174 2.52401 0
M  V30 3952 C 363.856 -3.09658 1.58136 0
M  V30 3953 H 363.179 -3.16291 2.44541 0
M  V30 3954 H 364.619 -3.88494 1.69847 0
M  V30 3955 C 363.078 -3.3547 0.310026 0
M  V30 3956 O 363.608 -3.97199 -0.599683 0
M  V30 3957 N 361.814 -2.89925 0.197901 0
M  V30 3958 H 361.361 -2.39873 0.93909 0
M  V30 3959 H 361.319 -3.07568 -0.65185 0
M  V30 3960 N 365.091 -1.34144 -0.827227 0
M  V30 3961 C 366.321 -1.29138 -1.61267 0
M  V30 3962 C 366.729 0.137597 -1.88699 0
M  V30 3963 O 366.072 1.09379 -1.47587 0
M  V30 3964 C 366.134 -2.0097 -2.9808 0
M  V30 3965 C 365.798 -3.50242 -2.93563 0
M  V30 3966 C 366.795 -4.4523 -2.68452 0
M  V30 3967 C 364.48 -3.92592 -3.13331 0
M  V30 3968 C 366.474 -5.80542 -2.63154 0
M  V30 3969 C 364.161 -5.28005 -3.07658 0
M  V30 3970 C 365.159 -6.21792 -2.82602 0
M  V30 3971 O 364.847 -7.54723 -2.76853 0
M  V30 3972 H 364.579 -0.445851 -0.508127 0
M  V30 3973 H 367.133 -1.77263 -1.03763 0
M  V30 3974 H 365.363 -1.47451 -3.57484 0
M  V30 3975 H 367.052 -1.89309 -3.5905 0
M  V30 3976 H 367.818 -4.13832 -2.52919 0
M  V30 3977 H 363.697 -3.19994 -3.31851 0
M  V30 3978 H 367.241 -6.53717 -2.43516 0
M  V30 3979 H 363.138 -5.59023 -3.22743 0
M  V30 3980 H 363.906 -7.64409 -2.92611 0
M  V30 3981 N 366.569 1.04691 -1.17803 0
M  V30 3982 C 367.98 1.59238 -0.974689 0
M  V30 3983 C 368.331 1.90306 0.477292 0
M  V30 3984 O 367.456 1.68846 1.35352 0
M  V30 3985 C 368.051 2.89318 -1.76296 0
M  V30 3986 C 366.61 3.40506 -1.60414 0
M  V30 3987 C 365.757 2.14172 -1.76141 0
M  V30 3988 H 368.708 0.874395 -1.32439 0
M  V30 3989 H 368.729 3.5944 -1.24833 0
M  V30 3990 H 368.241 2.66675 -2.81968 0
M  V30 3991 H 366.342 3.68175 -0.572519 0
M  V30 3992 H 366.455 4.14753 -2.39827 0
M  V30 3993 H 364.819 2.25176 -1.19028 0
M  V30 3994 H 365.602 1.93992 -2.83235 0
M  V30 3995 N 368.047 0.979072 1.23499 0
M  V30 3996 C 368.977 0.537606 2.27227 0
M  V30 3997 C 369.958 -0.428539 1.64613 0
M  V30 3998 O 371.143 -0.322191 1.91509 0
M  V30 3999 C 368.273 -0.162052 3.46922 0
M  V30 4000 C 367.227 0.721242 4.21879 0
M  V30 4001 C 366.553 -0.110555 5.34586 0
M  V30 4002 C 367.853 2.01141 4.82016 0
M  V30 4003 H 369.547 1.40462 2.64406 0
M  V30 4004 H 367.093 0.67684 1.27102 0
M  V30 4005 H 369.046 -0.482192 4.18632 0
M  V30 4006 H 367.77 -1.06351 3.08799 0
M  V30 4007 H 366.429 1.02482 3.51984 0
M  V30 4008 H 366.077 -1.0125 4.92704 0
M  V30 4009 H 365.777 0.477325 5.85658 0
M  V30 4010 H 367.301 -0.425107 6.09118 0
M  V30 4011 H 368.715 1.75612 5.45741 0
M  V30 4012 H 367.112 2.54695 5.43369 0
M  V30 4013 H 368.182 2.69909 4.02836 0
M  V30 4014 N 369.525 -1.3858 0.750561 0
M  V30 4015 C 370.772 -2.00184 0.305373 0
M  V30 4016 C 371.1 -1.59575 -1.11203 0
M  V30 4017 O 370.355 -0.823236 -1.77542 0
M  V30 4018 C 370.654 -3.55455 0.372373 0
M  V30 4019 C 370.32 -4.15765 1.745 0
M  V30 4020 C 368.982 -4.31951 2.12065 0
M  V30 4021 C 371.334 -4.49067 2.64553 0
M  V30 4022 C 368.662 -4.78734 3.39162 0
M  V30 4023 C 371.014 -4.97265 3.91038 0
M  V30 4024 C 369.678 -5.11658 4.28676 0
M  V30 4025 H 368.948 -0.732526 0.111744 0
M  V30 4026 H 371.595 -1.65673 0.960451 0
M  V30 4027 H 369.9 -3.90084 -0.366272 0
M  V30 4028 H 371.597 -4.00999 0.00953918 0
M  V30 4029 H 368.187 -4.03579 1.44297 0
M  V30 4030 H 372.371 -4.36166 2.36796 0
M  V30 4031 H 367.627 -4.88062 3.68246 0
M  V30 4032 H 371.801 -5.22003 4.60962 0
M  V30 4033 H 369.428 -5.47668 5.27222 0
M  V30 4034 N 371.003 -0.499398 -1.49478 0
M  V30 4035 C 371.933 0.269244 -2.31943 0
M  V30 4036 C 372.914 0.964054 -1.40143 0
M  V30 4037 O 374.099 0.955767 -1.69052 0
M  V30 4038 C 371.229 1.33504 -3.20615 0
M  V30 4039 C 370.183 0.760202 -4.21195 0
M  V30 4040 C 369.509 1.9264 -4.98792 0
M  V30 4041 C 370.809 -0.247661 -5.21712 0
M  V30 4042 H 372.503 -0.419082 -2.96452 0
M  V30 4043 H 370.049 -0.202988 -1.42562 0
M  V30 4044 H 372.002 1.88048 -3.77115 0
M  V30 4045 H 370.726 2.05253 -2.54045 0
M  V30 4046 H 369.385 0.23653 -3.65836 0
M  V30 4047 H 369.033 2.63154 -4.28671 0
M  V30 4048 H 368.733 1.54785 -5.66847 0
M  V30 4049 H 370.257 2.4762 -5.58137 0
M  V30 4050 H 371.671 0.209579 -5.72917 0
M  V30 4051 H 370.068 -0.541962 -5.97648 0
M  V30 4052 H 371.138 -1.16409 -4.7072 0
M  V30 4053 N 372.481 1.55866 -0.233164 0
M  V30 4054 C 373.429 2.22176 0.68851 0
M  V30 4055 C 374.423 1.20487 1.19076 0
M  V30 4056 O 375.629 1.38536 1.14925 0
M  V30 4057 H 372.004 0.712511 0.240483 0
M  V30 4058 H 373.975 2.98212 0.105935 0
M  V30 4059 C 372.724 2.92446 1.88071 0
M  V30 4060 H 372.047 3.70458 1.50337 0
M  V30 4061 H 373.487 3.42226 2.50314 0
M  V30 4062 C 371.946 1.95555 2.74335 0
M  V30 4063 O 372.476 1.47986 3.73447 0
M  V30 4064 N 370.682 1.62953 2.40613 0
M  V30 4065 H 370.229 2.01831 1.60069 0
M  V30 4066 H 370.187 0.983886 2.98609 0
M  V30 4067 N 373.959 -0.0401083 1.57549 0
M  V30 4068 C 375.37 -0.588097 1.77196 0
M  V30 4069 C 375.721 -1.76209 0.862832 0
M  V30 4070 O 374.846 -2.16331 0.0548389 0
M  V30 4071 C 375.441 -1.07363 3.21339 0
M  V30 4072 C 374 -1.56723 3.42221 0
M  V30 4073 C 373.147 -0.50041 2.72747 0
M  V30 4074 H 376.098 0.186119 1.57605 0
M  V30 4075 H 376.119 -1.94143 3.27244 0
M  V30 4076 H 375.631 -0.218975 3.87482 0
M  V30 4077 H 373.732 -2.4441 2.81237 0
M  V30 4078 H 373.845 -1.62234 4.50796 0
M  V30 4079 H 372.209 -0.952894 2.36203 0
M  V30 4080 H 372.992 0.344599 3.41566 0
M  V30 4081 N 375.437 -1.54477 -0.31217 0
M  V30 4082 C 376.686 -1.72438 -1.04633 0
M  V30 4083 C 376.999 -0.511163 -1.88803 0
M  V30 4084 O 378.205 -0.572341 -2.65399 0
M  V30 4085 C 376.661 -3.05043 -1.9099 0
M  V30 4086 C 376.269 -4.33806 -1.11877 0
M  V30 4087 C 378.013 -3.32364 -2.64073 0
M  V30 4088 C 375.92 -5.57467 -1.97445 0
M  V30 4089 H 374.85 -0.642647 -0.394361 0
M  V30 4090 H 377.501 -1.80966 -0.303929 0
M  V30 4091 H 375.883 -2.90451 -2.69173 0
M  V30 4092 H 377.057 -4.59199 -0.383843 0
M  V30 4093 H 375.372 -4.13336 -0.504252 0
M  V30 4094 H 377.969 -4.21951 -3.28423 0
M  V30 4095 H 378.312 -2.50745 -3.32314 0
M  V30 4096 H 378.845 -3.47875 -1.92944 0
M  V30 4097 H 375.584 -6.41722 -1.33692 0
M  V30 4098 H 375.104 -5.36277 -2.6864 0
M  V30 4099 H 376.783 -5.94303 -2.5576 0
M  V30 4100 N 376.915 0.57481 -1.46744 0
M  V30 4101 C 378.145 1.35659 -1.55821 0
M  V30 4102 C 378.553 1.88129 -0.201036 0
M  V30 4103 O 377.896 1.64723 0.813134 0
M  V30 4104 C 377.958 2.57473 -2.50894 0
M  V30 4105 C 377.622 2.26415 -3.9697 0
M  V30 4106 C 378.619 1.84771 -4.85958 0
M  V30 4107 C 376.304 2.38316 -4.42166 0
M  V30 4108 C 378.298 1.55434 -6.18158 0
M  V30 4109 C 375.985 2.08591 -5.74398 0
M  V30 4110 C 376.983 1.67216 -6.62214 0
M  V30 4111 O 376.671 1.37859 -7.91991 0
M  V30 4112 H 376.403 0.420496 -0.529301 0
M  V30 4113 H 378.957 0.704967 -1.92923 0
M  V30 4114 H 377.187 3.25468 -2.08824 0
M  V30 4115 H 378.876 3.19546 -2.50291 0
M  V30 4116 H 379.642 1.75085 -4.52295 0
M  V30 4117 H 375.521 2.69483 -3.74032 0
M  V30 4118 H 379.065 1.23065 -6.86659 0
M  V30 4119 H 374.962 2.17905 -6.07608 0
M  V30 4120 H 375.73 1.51638 -8.04331 0
M  V30 4121 N 378.394 1.34581 0.820102 0
M  V30 4122 C 379.81 1.14325 1.11364 0
M  V30 4123 C 380.01 -0.0533648 2.01429 0
M  V30 4124 O 379.066 -0.728044 2.41776 0
M  V30 4125 C 380.379 2.43983 1.75764 0
M  V30 4126 C 381.927 2.50065 1.88246 0
M  V30 4127 C 382.402 3.79732 2.56061 0
M  V30 4128 N 383.893 3.80908 2.63558 0
M  V30 4129 C 384.628 4.77961 3.16766 0
M  V30 4130 N 384.124 5.85397 3.70517 0
M  V30 4131 N 385.917 4.65413 3.15194 0
M  V30 4132 H 378.068 2.11246 0.221096 0
M  V30 4133 H 380.331 0.934289 0.160649 0
M  V30 4134 H 380.037 3.31651 1.1705 0
M  V30 4135 H 379.911 2.57531 2.75604 0
M  V30 4136 H 382.298 1.62834 2.46108 0
M  V30 4137 H 382.379 2.40442 0.873006 0
M  V30 4138 H 382.023 4.67354 1.98853 0
M  V30 4139 H 381.953 3.86639 3.57516 0
M  V30 4140 H 384.444 3.03274 2.25463 0
M  V30 4141 H 384.757 6.55463 4.09376 0
M  V30 4142 H 383.102 5.89107 3.68752 0
M  V30 4143 H 386.293 3.80627 2.72471 0
M  V30 4144 H 386.466 5.41216 3.56356 0
M  V30 4145 N 379.872 -1.04064 1.18357 0
M  V30 4146 C 381.12 -1.76915 0.977013 0
M  V30 4147 C 381.441 -1.88624 -0.494577 0
M  V30 4148 O 380.711 -1.41125 -1.3587 0
M  V30 4149 H 379.291 -0.65535 0.358504 0
M  V30 4150 H 381.953 -1.25592 1.49039 0
M  V30 4151 H 381.049 -2.78178 1.41504 0
M  V30 4152 N 381.35 -0.985608 -1.22978 0
M  V30 4153 C 382.627 -0.573599 -1.87001 0
M  V30 4154 C 383.007 0.949213 -1.88555 0
M  V30 4155 O 382.355 1.82811 -1.37086 0
M  V30 4156 C 382.565 -1.18564 -3.28243 0
M  V30 4157 C 383.913 -1.28163 -4.04796 0
M  V30 4158 O 384.937 -1.13949 -3.37482 0
M  V30 4159 O 383.796 -1.50832 -5.25273 0
M  V30 4160 H 380.89 -0.193868 -0.803955 0
M  V30 4161 H 383.436 -1.08102 -1.30813 0
M  V30 4162 H 382.208 -2.22758 -3.21706 0
M  V30 4163 H 381.831 -0.663363 -3.92027 0
M  V30 4164 N 382.828 1.3818 -0.7579 0
M  V30 4165 C 384.058 2.04004 -0.326463 0
M  V30 4166 C 384.466 1.57286 1.05156 0
M  V30 4167 O 383.809 0.743144 1.67997 0
M  V30 4168 C 383.871 3.58444 -0.275402 0
M  V30 4169 C 383.535 4.28237 -1.59569 0
M  V30 4170 C 384.532 4.53312 -2.54566 0
M  V30 4171 C 382.217 4.66341 -1.86631 0
M  V30 4172 C 384.211 5.15531 -3.74842 0
M  V30 4173 C 381.898 5.28283 -3.0718 0
M  V30 4174 C 382.896 5.52814 -4.01106 0
M  V30 4175 O 382.584 6.13465 -5.19534 0
M  V30 4176 H 382.316 0.662026 -0.136739 0
M  V30 4177 H 384.87 1.7777 -1.02893 0
M  V30 4178 H 383.1 3.83667 0.483337 0
M  V30 4179 H 384.789 4.05701 0.127099 0
M  V30 4180 H 385.555 4.24299 -2.34936 0
M  V30 4181 H 381.434 4.46591 -1.14358 0
M  V30 4182 H 384.978 5.34594 -4.48168 0
M  V30 4183 H 380.875 5.56719 -3.26702 0
M  V30 4184 H 381.643 6.31951 -5.20173 0
M  V30 4185 N 384.306 0.507319 1.49211 0
M  V30 4186 C 385.717 0.0611118 1.866 0
M  V30 4187 C 386.068 -1.35488 1.41907 0
M  V30 4188 O 385.193 -2.0108 0.799726 0
M  V30 4189 C 385.788 0.104125 3.3864 0
M  V30 4190 C 384.347 -0.28677 3.75306 0
M  V30 4191 C 383.494 0.473893 2.73221 0
M  V30 4192 H 386.445 0.719775 1.41439 0
M  V30 4193 H 386.466 -0.689672 3.74198 0
M  V30 4194 H 385.978 1.13482 3.71138 0
M  V30 4195 H 384.079 -1.32046 3.48417 0
M  V30 4196 H 384.192 0.0370745 4.79086 0
M  V30 4197 H 382.556 -0.0770644 2.54583 0
M  V30 4198 H 383.339 1.50478 3.08563 0
M  V30 4199 N 385.784 -1.5574 0.241426 0
M  V30 4200 C 386.694 -2.2479 -0.671305 0
M  V30 4201 C 387.71 -1.26217 -1.19772 0
M  V30 4202 O 388.886 -1.59079 -1.23514 0
M  V30 4203 C 385.951 -2.92966 -1.85396 0
M  V30 4204 C 385.012 -4.06935 -1.36756 0
M  V30 4205 C 384.245 -4.71851 -2.49384 0
M  V30 4206 O 384.468 -4.35823 -3.67987 0
M  V30 4207 O 383.402 -5.60467 -2.19454 0
M  V30 4208 H 387.228 -3.0349 -0.112966 0
M  V30 4209 H 384.813 -1.49397 0.0101513 0
M  V30 4210 H 386.695 -3.35927 -2.54423 0
M  V30 4211 H 385.37 -2.17211 -2.40002 0
M  V30 4212 H 384.277 -3.68503 -0.644726 0
M  V30 4213 H 385.61 -4.84492 -0.867647 0
M  V30 4214 N 387.262 0.0317525 -1.57568 0
M  V30 4215 C 388.192 1.03274 -2.0942 0
M  V30 4216 C 389.173 1.3788 -0.996143 0
M  V30 4217 O 390.358 1.46811 -1.27122 0
M  V30 4218 C 387.488 2.33448 -2.57137 0
M  V30 4219 C 386.442 2.13091 -3.71182 0
M  V30 4220 C 385.768 3.49001 -4.05095 0
M  V30 4221 C 387.068 1.51928 -4.99715 0
M  V30 4222 H 388.762 0.60112 -2.93303 0
M  V30 4223 H 386.308 0.287705 -1.41097 0
M  V30 4224 H 388.261 3.03802 -2.92032 0
M  V30 4225 H 386.985 2.78665 -1.70333 0
M  V30 4226 H 385.644 1.45171 -3.36632 0
M  V30 4227 H 385.292 3.91862 -3.15362 0
M  V30 4228 H 384.992 3.36207 -4.81911 0
M  V30 4229 H 386.516 4.20721 -4.42522 0
M  V30 4230 H 387.93 2.12196 -5.32584 0
M  V30 4231 H 386.327 1.49716 -5.81124 0
M  V30 4232 H 387.397 0.484811 -4.8247 0
M  V30 4233 N 388.74 1.54641 0.303973 0
M  V30 4234 C 389.986 1.74038 1.04109 0
M  V30 4235 C 390.319 0.523051 1.87024 0
M  V30 4236 O 389.594 -0.479874 1.88487 0
M  V30 4237 C 389.877 3.02761 1.94955 0
M  V30 4238 C 389.73 4.34787 1.1524 0
M  V30 4239 C 391.049 3.27336 2.94175 0
M  V30 4240 H 388.168 0.63323 0.377079 0
M  V30 4241 H 390.81 1.87354 0.316001 0
M  V30 4242 H 388.96 2.9154 2.56782 0
M  V30 4243 H 390.632 4.57922 0.557236 0
M  V30 4244 H 388.875 4.31407 0.455053 0
M  V30 4245 H 389.546 5.21116 1.8205 0
M  V30 4246 H 392.022 3.38148 2.42477 0
M  V30 4247 H 390.898 4.18726 3.54908 0
M  V30 4248 H 391.159 2.45491 3.67677 0
M  V30 4249 N 390.218 -0.567019 1.47046 0
M  V30 4250 C 391.148 -1.68482 1.61667 0
M  V30 4251 C 392.129 -1.6358 0.466418 0
M  V30 4252 O 393.314 -1.81354 0.694574 0
M  V30 4253 C 390.444 -3.07124 1.62148 0
M  V30 4254 C 389.398 -3.26867 2.76301 0
M  V30 4255 C 388.724 -4.66196 2.61849 0
M  V30 4256 C 390.024 -3.13186 4.17986 0
M  V30 4257 H 391.718 -1.56502 2.5524 0
M  V30 4258 H 389.264 -0.751486 1.22836 0
M  V30 4259 H 391.217 -3.8516 1.70968 0
M  V30 4260 H 389.941 -3.2004 0.651287 0
M  V30 4261 H 388.6 -2.51237 2.66975 0
M  V30 4262 H 388.248 -4.75898 1.62879 0
M  V30 4263 H 387.948 -4.80356 3.38425 0
M  V30 4264 H 389.472 -5.46379 2.72584 0
M  V30 4265 H 390.886 -3.81049 4.2834 0
M  V30 4266 H 389.283 -3.3886 4.95272 0
M  V30 4267 H 390.353 -2.10057 4.3704 0
M  V30 4268 N 391.696 -1.35014 -0.812953 0
M  V30 4269 C 392.606 -1.2951 -1.95613 0
M  V30 4270 C 393.622 -0.20107 -1.72834 0
M  V30 4271 O 394.798 -0.42932 -1.96771 0
M  V30 4272 C 391.863 -1.06033 -3.30088 0
M  V30 4273 C 390.924 -2.24688 -3.65805 0
M  V30 4274 C 390.157 -2.02322 -4.93864 0
M  V30 4275 O 390.38 -0.986464 -5.61805 0
M  V30 4276 O 389.314 -2.89525 -5.27692 0
M  V30 4277 H 393.14 -2.25705 -2.03202 0
M  V30 4278 H 390.725 -1.15321 -0.949811 0
M  V30 4279 H 392.607 -0.94763 -4.10607 0
M  V30 4280 H 391.282 -0.128852 -3.23443 0
M  V30 4281 H 390.189 -2.41521 -2.85689 0
M  V30 4282 H 391.522 -3.16261 -3.77147 0
M  V30 4283 N 393.175 1.03435 -1.18907 0
M  V30 4284 C 394.422 1.76743 -0.988334 0
M  V30 4285 C 394.75 1.88447 0.481441 0
M  V30 4286 O 394.005 1.39383 1.37371 0
M  V30 4287 C 394.304 3.19792 -1.59586 0
M  V30 4288 C 393.97 3.28108 -3.09283 0
M  V30 4289 C 392.632 3.30084 -3.5014 0
M  V30 4290 C 394.984 3.27696 -4.05296 0
M  V30 4291 C 392.312 3.29299 -4.85571 0
M  V30 4292 C 394.664 3.28451 -5.4065 0
M  V30 4293 C 393.328 3.28723 -5.80946 0
M  V30 4294 H 392.598 0.64675 -0.361657 0
M  V30 4295 H 395.245 1.21442 -1.48068 0
M  V30 4296 H 393.55 3.78136 -1.02568 0
M  V30 4297 H 395.247 3.75171 -1.41589 0
M  V30 4298 H 391.837 3.27294 -2.76725 0
M  V30 4299 H 396.021 3.25354 -3.74778 0
M  V30 4300 H 391.277 3.2783 -5.16079 0
M  V30 4301 H 395.451 3.27082 -6.14809 0
M  V30 4302 H 393.078 3.27868 -6.85862 0
M  V30 4303 N 394.653 0.992116 1.22453 0
M  V30 4304 C 395.616 0.546883 2.2258 0
M  V30 4305 C 396.616 -0.369829 1.56489 0
M  V30 4306 O 397.806 -0.161896 1.73446 0
M  V30 4307 C 394.938 -0.204659 3.40285 0
M  V30 4308 H 396.131 1.43234 2.63484 0
M  V30 4309 H 393.684 0.779239 1.3549 0
M  V30 4310 H 394.419 -1.10614 3.04853 0
M  V30 4311 H 394.204 0.45354 3.89468 0
M  V30 4312 H 395.694 -0.504358 4.14543 0
M  V30 4313 N 396.131 -1.37776 0.765217 0
M  V30 4314 C 397.547 -1.53297 0.444108 0
M  V30 4315 C 397.747 -1.72515 -1.04119 0
M  V30 4316 O 396.803 -1.74278 -1.82711 0
M  V30 4317 C 398.116 -2.73328 1.25349 0
M  V30 4318 C 399.664 -2.87185 1.24473 0
M  V30 4319 C 400.139 -4.10191 2.03733 0
M  V30 4320 N 401.63 -4.17291 2.01053 0
M  V30 4321 C 402.365 -5.11488 2.59166 0
M  V30 4322 N 401.861 -6.11285 3.26041 0
M  V30 4323 N 403.654 -5.03924 2.49032 0
M  V30 4324 H 395.805 -1.23552 1.72768 0
M  V30 4325 H 398.068 -0.601103 0.733062 0
M  V30 4326 H 397.774 -2.6557 2.30577 0
M  V30 4327 H 397.648 -3.66834 0.87823 0
M  V30 4328 H 400.035 -2.94418 0.20047 0
M  V30 4329 H 400.116 -1.94657 1.65959 0
M  V30 4330 H 399.76 -4.0372 3.08176 0
M  V30 4331 H 399.69 -5.01821 1.59633 0
M  V30 4332 H 402.181 -3.45825 1.5236 0
M  V30 4333 H 402.494 -6.79678 3.67774 0
M  V30 4334 H 400.839 -6.11583 3.30138 0
M  V30 4335 H 404.03 -4.24902 1.96407 0
M  V30 4336 H 404.203 -5.77152 2.94617 0
M  V30 4337 N 397.609 -0.515225 -1.4894 0
M  V30 4338 C 398.519 0.259774 -2.33157 0
M  V30 4339 C 399.535 0.953501 -1.45548 0
M  V30 4340 O 400.711 0.931735 -1.78552 0
M  V30 4341 C 397.776 1.30193 -3.21326 0
M  V30 4342 C 396.837 0.620129 -4.24797 0
M  V30 4343 C 396.07 1.61263 -5.08753 0
M  V30 4344 O 396.293 2.84389 -4.94448 0
M  V30 4345 O 395.227 1.16013 -5.90614 0
M  V30 4346 H 399.053 -0.429932 -3.00641 0
M  V30 4347 H 396.638 -0.276346 -1.46822 0
M  V30 4348 H 398.52 1.90455 -3.75905 0
M  V30 4349 H 397.195 1.97431 -2.56521 0
M  V30 4350 H 396.102 -0.0226019 -3.74093 0
M  V30 4351 H 397.435 -0.0100493 -4.92199 0
M  V30 4352 N 399.087 1.5561 -0.249682 0
M  V30 4353 C 400.317 2.03116 0.377803 0
M  V30 4354 C 400.725 1.12822 1.51881 0
M  V30 4355 O 400.068 0.13562 1.83199 0
M  V30 4356 C 400.13 3.46866 0.944693 0
M  V30 4357 C 399.794 4.56955 -0.0644259 0
M  V30 4358 C 400.791 5.12485 -0.874957 0
M  V30 4359 C 398.476 5.01936 -0.19132 0
M  V30 4360 C 400.47 6.11491 -1.79881 0
M  V30 4361 C 398.157 6.00773 -1.11868 0
M  V30 4362 C 399.155 6.5543 -1.92095 0
M  V30 4363 O 398.843 7.5234 -2.83267 0
M  V30 4364 H 398.575 0.669489 0.0935961 0
M  V30 4365 H 401.129 2.02004 -0.371966 0
M  V30 4366 H 399.359 3.45136 1.74407 0
M  V30 4367 H 401.048 3.77856 1.48255 0
M  V30 4368 H 401.814 4.78564 -0.787523 0
M  V30 4369 H 397.693 4.59055 0.423072 0
M  V30 4370 H 401.237 6.54078 -2.42543 0
M  V30 4371 H 397.134 6.34114 -1.20703 0
M  V30 4372 H 397.902 7.69966 -2.7766 0
M  V30 4373 N 400.565 -0.0233959 1.57583 0
M  V30 4374 C 401.495 -1.02162 2.09965 0
M  V30 4375 C 402.476 -1.3735 1.00344 0
M  V30 4376 O 403.661 -1.46135 1.27899 0
M  V30 4377 C 400.791 -2.32081 2.58371 0
M  V30 4378 C 399.745 -2.1112 3.72307 0
M  V30 4379 C 399.071 -3.46848 4.06941 0
M  V30 4380 C 400.371 -1.49276 5.00514 0
M  V30 4381 H 402.065 -0.585557 2.93618 0
M  V30 4382 H 399.611 -0.280218 1.41247 0
M  V30 4383 H 401.564 -3.02249 2.93639 0
M  V30 4384 H 400.288 -2.77758 1.71808 0
M  V30 4385 H 398.947 -1.43384 3.37397 0
M  V30 4386 H 398.595 -3.90184 3.17436 0
M  V30 4387 H 398.295 -3.33646 4.83688 0
M  V30 4388 H 399.819 -4.18369 4.44747 0
M  V30 4389 H 401.233 -2.09368 5.33702 0
M  V30 4390 H 399.63 -1.46632 5.8191 0
M  V30 4391 H 400.7 -0.459217 4.82721 0
M  V30 4392 N 402.043 -1.548 -0.295768 0
M  V30 4393 C 403.454 -1.65274 -0.868411 0
M  V30 4394 C 403.805 -0.56481 -1.87894 0
M  V30 4395 O 402.93 0.29767 -2.14343 0
M  V30 4396 C 403.525 -2.99603 -1.58188 0
M  V30 4397 C 402.084 -3.12181 -2.10286 0
M  V30 4398 C 401.231 -2.6098 -0.93727 0
M  V30 4399 H 404.182 -1.58534 -0.0726422 0
M  V30 4400 H 404.203 -2.91319 -2.44772 0
M  V30 4401 H 403.715 -3.78764 -0.846151 0
M  V30 4402 H 401.816 -2.3775 -2.8689 0
M  V30 4403 H 401.929 -4.18415 -2.33379 0
M  V30 4404 H 400.293 -2.17564 -1.32431 0
M  V30 4405 H 401.076 -3.42623 -0.215414 0
M  V30 4406 N 403.521 0.559213 -1.47345 0
M  V30 4407 C 404.431 1.69388 -1.62311 0
M  V30 4408 C 405.447 1.6648 -0.505993 0
M  V30 4409 O 406.623 1.85964 -0.773262 0
M  V30 4410 C 403.688 3.05894 -1.63185 0
M  V30 4411 C 402.749 3.19885 -2.86307 0
M  V30 4412 C 401.982 4.49879 -2.87131 0
M  V30 4413 O 402.205 5.35217 -1.97229 0
M  V30 4414 O 401.139 4.67618 -3.78968 0
M  V30 4415 H 404.965 1.59706 -2.58317 0
M  V30 4416 H 402.55 0.728989 -1.30407 0
M  V30 4417 H 404.432 3.87133 -1.66451 0
M  V30 4418 H 403.107 3.15964 -0.70345 0
M  V30 4419 H 402.014 2.38052 -2.88587 0
M  V30 4420 H 403.347 3.14718 -3.78435 0
M  V30 4421 N 404.999 1.35443 0.805782 0
M  V30 4422 C 405.947 1.28465 1.93906 0
M  V30 4423 C 406.941 0.17943 1.68447 0
M  V30 4424 O 408.147 0.345459 1.76654 0
M  V30 4425 H 404.522 0.399528 0.637088 0
M  V30 4426 H 406.493 2.24206 1.96912 0
M  V30 4427 C 405.242 1.07432 3.30687 0
M  V30 4428 H 404.565 1.91716 3.50835 0
M  V30 4429 H 406.005 1.06591 4.10383 0
M  V30 4430 C 404.464 -0.22179 3.36169 0
M  V30 4431 O 404.994 -1.21731 3.82811 0
M  V30 4432 N 403.2 -0.260841 2.89427 0
M  V30 4433 H 402.747 0.549884 2.51663 0
M  V30 4434 H 402.705 -1.12777 2.93477 0
M  V30 4435 N 406.477 -1.02803 1.19454 0
M  V30 4436 C 407.707 -1.79581 1.02149 0
M  V30 4437 C 408.115 -1.84182 -0.432851 0
M  V30 4438 O 407.458 -1.28534 -1.31243 0
M  V30 4439 C 407.52 -3.25993 1.51554 0
M  V30 4440 C 407.184 -3.45025 2.99678 0
M  V30 4441 C 408.181 -3.35175 3.97434 0
M  V30 4442 C 405.866 -3.71212 3.38389 0
M  V30 4443 C 407.86 -3.51238 5.31893 0
M  V30 4444 C 405.547 -3.8692 4.73008 0
M  V30 4445 C 406.545 -3.76936 5.69569 0
M  V30 4446 O 406.233 -3.92179 7.01748 0
M  V30 4447 H 405.965 -0.571962 0.360327 0
M  V30 4448 H 408.519 -1.30367 1.58725 0
M  V30 4449 H 406.749 -3.76235 0.893543 0
M  V30 4450 H 408.438 -3.84368 1.30444 0
M  V30 4451 H 409.204 -3.14895 3.68872 0
M  V30 4452 H 405.083 -3.78075 2.6378 0
M  V30 4453 H 408.627 -3.43362 6.07247 0
M  V30 4454 H 404.524 -4.06699 5.01265 0
M  V30 4455 H 405.292 -4.09265 7.08833 0
M  V30 4456 N 407.956 -0.998596 -1.21925 0
M  V30 4457 C 408.903 -0.553621 -2.24062 0
M  V30 4458 C 409.873 0.416999 -1.6078 0
M  V30 4459 O 411.058 0.320482 -1.88089 0
M  V30 4460 C 408.198 0.119959 -3.44891 0
M  V30 4461 C 407.311 -0.893077 -4.22668 0
M  V30 4462 C 406.446 -0.192424 -5.30851 0
M  V30 4463 C 405.485 -1.19344 -6.00353 0
M  V30 4464 N 404.622 -0.520707 -7.00166 0
M  V30 4465 H 409.462 -1.4293 -2.61486 0
M  V30 4466 H 406.999 -0.715838 -1.28507 0
M  V30 4467 H 408.957 0.527459 -4.13852 0
M  V30 4468 H 407.587 0.959389 -3.08214 0
M  V30 4469 H 406.639 -1.41886 -3.52948 0
M  V30 4470 H 407.951 -1.65512 -4.70539 0
M  V30 4471 H 407.105 0.271515 -6.06092 0
M  V30 4472 H 405.844 0.602075 -4.83969 0
M  V30 4473 H 404.849 -1.66795 -5.23889 0
M  V30 4474 H 406.074 -1.98891 -6.49322 0
M  V30 4475 H 404.02 0.254252 -6.55507 0
M  V30 4476 H 403.937 -1.2211 -7.46073 0
M  V30 4477 H 405.205 -0.0797596 -7.79459 0
M  V30 4478 N 409.434 1.37368 -0.772513 0
M  V30 4479 C 410.711 1.93839 -0.26188 0
M  V30 4480 C 411.091 1.7061 1.24319 0
M  V30 4481 O 410.439 1.05534 2.02669 0
M  V30 4482 C 410.649 3.43154 -0.636102 0
M  V30 4483 C 411.997 4.20249 -0.606324 0
M  V30 4484 O 413.021 3.5152 -0.575538 0
M  V30 4485 O 411.88 5.42809 -0.634086 0
M  V30 4486 H 408.974 0.82478 -0.0605555 0
M  V30 4487 H 411.52 1.4665 -0.853917 0
M  V30 4488 H 410.292 3.53647 -1.6748 0
M  V30 4489 H 409.915 3.97596 -0.0170516 0
M  V30 4490 N 410.912 0.523116 1.48665 0
M  V30 4491 C 412.189 -0.0775449 1.95446 0
M  V30 4492 C 412.569 -1.5197 1.4652 0
M  V30 4493 O 411.917 -2.17876 0.688657 0
M  V30 4494 C 412.127 0.0326135 3.48985 0
M  V30 4495 C 413.475 -0.130141 4.24401 0
M  V30 4496 O 414.499 -0.0415142 3.56176 0
M  V30 4497 O 413.358 -0.31491 5.45592 0
M  V30 4498 H 410.452 -0.0831012 0.822814 0
M  V30 4499 H 412.998 0.587227 1.59216 0
M  V30 4500 H 411.77 1.03748 3.77296 0
M  V30 4501 H 411.393 -0.671317 3.91892 0
M  V30 4502 N 412.39 -1.55475 0.257931 0
M  V30 4503 C 413.323 -2.179 -0.677862 0
M  V30 4504 C 414.301 -1.13448 -1.16483 0
M  V30 4505 O 415.485 -1.41889 -1.24095 0
M  V30 4506 C 412.612 -2.78851 -1.92249 0
M  V30 4507 C 411.658 -3.96454 -1.57246 0
M  V30 4508 S 412.491 -5.31349 -0.665501 0
M  V30 4509 C 413.647 -5.9576 -1.91889 0
M  V30 4510 H 413.88 -2.96934 -0.147396 0
M  V30 4511 H 411.413 -1.54342 0.0423023 0
M  V30 4512 H 413.371 -3.14602 -2.63697 0
M  V30 4513 H 412.032 -1.99742 -2.42409 0
M  V30 4514 H 411.225 -4.37731 -2.49814 0
M  V30 4515 H 410.827 -3.62038 -0.938325 0
M  V30 4516 H 413.119 -6.13947 -2.86487 0
M  V30 4517 H 414.062 -6.9094 -1.54942 0
M  V30 4518 H 414.47 -5.2494 -2.076 0
M  V30 4519 N 413.868 0.0150385 -1.57593 0
M  V30 4520 C 415.093 0.718067 -1.94573 0
M  V30 4521 C 415.518 1.6734 -0.859005 0
M  V30 4522 O 414.876 1.80362 0.184147 0
M  V30 4523 C 414.924 1.43918 -3.30636 0
M  V30 4524 O 414.028 2.55299 -3.23876 0
M  V30 4525 H 413.369 0.192125 -0.635597 0
M  V30 4526 H 415.899 -0.0336708 -2.04572 0
M  V30 4527 H 415.909 1.80598 -3.65853 0
M  V30 4528 H 414.584 0.738619 -4.09289 0
M  V30 4529 H 413.161 2.21058 -3.00312 0
M  V30 4530 N 415.346 1.54954 0.287554 0
M  V30 4531 C 416.256 1.8991 1.37736 0
M  V30 4532 C 417.272 0.794701 1.54792 0
M  V30 4533 O 418.448 1.09243 1.69198 0
M  V30 4534 C 415.513 2.15108 2.71899 0
M  V30 4535 C 414.574 3.38752 2.63715 0
M  V30 4536 C 413.807 3.62739 3.91479 0
M  V30 4537 O 414.03 2.89492 4.91478 0
M  V30 4538 O 412.964 4.56267 3.92561 0
M  V30 4539 H 416.79 2.82652 1.11092 0
M  V30 4540 H 414.375 1.41315 0.484807 0
M  V30 4541 H 416.257 2.32806 3.51254 0
M  V30 4542 H 414.932 1.25551 2.9836 0
M  V30 4543 H 413.839 3.26405 1.82786 0
M  V30 4544 H 415.172 4.28483 2.42205 0
M  V30 4545 N 416.824 -0.551391 1.4764 0
M  V30 4546 C 418.073 -1.30467 1.53822 0
M  V30 4547 C 418.386 -1.94495 0.207661 0
M  V30 4548 O 419.592 -2.71099 0.147533 0
M  V30 4549 C 418.048 -2.36616 2.71184 0
M  V30 4550 C 417.656 -1.78754 4.10793 0
M  V30 4551 C 419.4 -3.13088 2.86663 0
M  V30 4552 C 417.307 -2.82717 5.19447 0
M  V30 4553 H 416.237 -0.490584 0.572576 0
M  V30 4554 H 418.888 -0.58494 1.73927 0
M  V30 4555 H 417.27 -3.11529 2.4447 0
M  V30 4556 H 418.444 -1.10173 4.47435 0
M  V30 4557 H 416.759 -1.14846 4.00249 0
M  V30 4558 H 419.356 -3.90736 3.65007 0
M  V30 4559 H 419.699 -3.67635 1.95321 0
M  V30 4560 H 420.232 -2.45288 3.13175 0
M  V30 4561 H 416.971 -2.33018 6.12685 0
M  V30 4562 H 416.491 -3.4969 4.87316 0
M  V30 4563 H 418.17 -3.46102 5.46646 0
M  V30 4564 N 418.302 -1.35869 -0.798587 0
M  V30 4565 C 419.234 -1.25305 -1.91915 0
M  V30 4566 C 420.247 -0.174548 -1.61862 0
M  V30 4567 O 421.436 -0.428499 -1.73281 0
M  V30 4568 C 418.536 -0.9086 -3.26493 0
M  V30 4569 C 417.709 -2.08711 -3.84394 0
M  V30 4570 C 416.768 -1.71717 -4.97393 0
M  V30 4571 O 415.794 -2.43692 -5.14396 0
M  V30 4572 N 416.996 -0.645473 -5.769 0
M  V30 4573 H 419.761 -2.21849 -2.01502 0
M  V30 4574 H 417.322 -1.29143 -0.976408 0
M  V30 4575 H 419.314 -0.642455 -3.99568 0
M  V30 4576 H 417.884 -0.0325815 -3.12583 0
M  V30 4577 H 417.104 -2.51659 -3.03416 0
M  V30 4578 H 418.392 -2.87468 -4.19809 0
M  V30 4579 H 417.79 -0.047648 -5.6568 0
M  V30 4580 H 416.347 -0.43913 -6.50319 0
M  V30 4581 N 419.78 1.02168 -1.19998 0
M  V30 4582 C 420.69 2.14069 -0.959774 0
M  V30 4583 C 421.706 1.73804 0.082655 0
M  V30 4584 O 422.882 2.01133 -0.103633 0
M  V30 4585 C 419.947 3.42936 -0.509459 0
M  V30 4586 C 419.008 3.97474 -1.62213 0
M  V30 4587 C 418.241 5.2019 -1.19321 0
M  V30 4588 O 418.464 5.70369 -0.0597726 0
M  V30 4589 O 417.398 5.67749 -1.99863 0
M  V30 4590 H 421.224 2.37199 -1.89658 0
M  V30 4591 H 418.809 1.12469 -0.983411 0
M  V30 4592 H 420.691 4.20551 -0.267322 0
M  V30 4593 H 419.366 3.21234 0.398821 0
M  V30 4594 H 418.273 3.21161 -1.9185 0
M  V30 4595 H 419.606 4.23555 -2.50723 0
M  V30 4596 N 421.258 1.00505 1.21394 0
M  V30 4597 C 422.205 0.565496 2.23765 0
M  V30 4598 C 423.175 -0.408466 1.60999 0
M  V30 4599 O 424.36 -0.310503 1.88257 0
M  V30 4600 C 421.5 -0.101667 3.4495 0
M  V30 4601 C 420.613 0.915479 4.22188 0
M  V30 4602 C 419.748 0.220574 5.30742 0
M  V30 4603 C 418.787 1.22527 5.99711 0
M  V30 4604 N 417.924 0.557831 6.9988 0
M  V30 4605 H 422.764 1.44314 2.60725 0
M  V30 4606 H 420.301 0.722643 1.28126 0
M  V30 4607 H 422.259 -0.505504 4.14126 0
M  V30 4608 H 420.889 -0.94303 3.08718 0
M  V30 4609 H 419.941 1.43756 3.52191 0
M  V30 4610 H 421.253 1.68005 4.69655 0
M  V30 4611 H 420.407 -0.239368 6.06228 0
M  V30 4612 H 419.146 -0.576401 4.84282 0
M  V30 4613 H 418.151 1.69571 5.22997 0
M  V30 4614 H 419.376 2.02332 6.48258 0
M  V30 4615 H 417.322 -0.219486 6.55633 0
M  V30 4616 H 417.239 1.26065 7.45415 0
M  V30 4617 H 418.507 0.121095 7.79406 0
M  V30 4618 N 422.737 -1.36956 0.779787 0
M  V30 4619 C 423.986 -1.98738 0.344405 0
M  V30 4620 C 424.299 -1.62596 -1.08728 0
M  V30 4621 O 425.505 -2.1754 -1.62445 0
M  V30 4622 C 423.961 -3.5544 0.564829 0
M  V30 4623 C 423.569 -4.00514 2.0073 0
M  V30 4624 C 425.313 -4.24059 0.193471 0
M  V30 4625 C 423.22 -5.49957 2.17489 0
M  V30 4626 H 422.15 -0.743561 0.12503 0
M  V30 4627 H 424.801 -1.56381 0.960057 0
M  V30 4628 H 423.183 -3.95817 -0.120397 0
M  V30 4629 H 424.357 -3.71362 2.72814 0
M  V30 4630 H 422.672 -3.44703 2.336 0
M  V30 4631 H 425.269 -5.33874 0.297097 0
M  V30 4632 H 425.612 -4.07378 -0.857263 0
M  V30 4633 H 426.145 -3.89012 0.831556 0
M  V30 4634 H 422.884 -5.71574 3.2091 0
M  V30 4635 H 422.404 -5.80767 1.49899 0
M  V30 4636 H 424.083 -6.16043 1.97738 0
M  V30 4637 N 424.215 -0.530993 -1.48385 0
M  V30 4638 C 425.492 0.0671788 -1.95485 0
M  V30 4639 C 425.872 1.51191 -1.47324 0
M  V30 4640 O 425.22 2.17507 -0.700202 0
M  V30 4641 C 425.43 -0.0511206 -3.48963 0
M  V30 4642 C 426.778 0.107632 -4.24464 0
M  V30 4643 O 427.802 0.0226248 -3.56193 0
M  V30 4644 O 426.661 0.285972 -5.45751 0
M  V30 4645 H 423.755 0.0787365 -0.823243 0
M  V30 4646 H 426.301 -0.595662 -1.58902 0
M  V30 4647 H 425.073 -1.05747 -3.7674 0
M  V30 4648 H 424.696 0.650525 -3.92242 0
M  V30 4649 N 425.693 1.55336 -0.266172 0
M  V30 4650 C 426.94 1.99397 0.353158 0
M  V30 4651 C 427.268 1.15451 1.56529 0
M  V30 4652 O 426.523 0.209974 1.9457 0
M  V30 4653 C 426.822 3.48606 0.787957 0
M  V30 4654 C 426.488 4.49773 -0.318541 0
M  V30 4655 C 425.15 4.77158 -0.62239 0
M  V30 4656 C 427.502 5.10212 -1.06459 0
M  V30 4657 C 424.83 5.62251 -1.67602 0
M  V30 4658 C 427.182 5.96449 -2.10788 0
M  V30 4659 C 425.846 6.22158 -2.41817 0
M  V30 4660 H 425.116 0.729644 0.12923 0
M  V30 4661 H 427.763 1.87732 -0.37802 0
M  V30 4662 H 426.068 3.57701 1.59866 0
M  V30 4663 H 427.765 3.80098 1.27775 0
M  V30 4664 H 424.355 4.2854 -0.0715925 0
M  V30 4665 H 428.539 4.89086 -0.843098 0
M  V30 4666 H 423.795 5.80419 -1.92155 0
M  V30 4667 H 427.969 6.42317 -2.69076 0
M  V30 4668 H 425.596 6.87888 -3.23596 0
M  V30 4669 N 427.171 -0.0066808 1.57599 0
M  V30 4670 C 428.417 -0.693947 1.90558 0
M  V30 4671 C 428.75 -1.73792 0.866594 0
M  V30 4672 O 428.025 -1.94156 -0.115548 0
M  V30 4673 C 428.308 -1.34317 3.34112 0
M  V30 4674 C 428.161 -0.311189 4.48722 0
M  V30 4675 C 429.48 -2.27116 3.7697 0
M  V30 4676 H 426.599 -0.250803 0.693013 0
M  V30 4677 H 429.241 0.043242 1.89951 0
M  V30 4678 H 427.391 -1.9715 3.3476 0
M  V30 4679 H 429.063 0.316944 4.6021 0
M  V30 4680 H 427.306 0.367253 4.32243 0
M  V30 4681 H 427.977 -0.804366 5.46108 0
M  V30 4682 H 430.453 -1.74306 3.77831 0
M  V30 4683 H 429.329 -2.69511 4.78179 0
M  V30 4684 H 429.59 -3.14743 3.10466 0
M  V30 4685 N 428.649 -1.55105 -0.279332 0
M  V30 4686 C 429.897 -1.75066 -1.00977 0
M  V30 4687 C 430.218 -0.551276 -1.87045 0
M  V30 4688 O 429.488 0.433984 -1.91032 0
M  V30 4689 H 428.068 -0.645578 -0.375816 0
M  V30 4690 H 430.73 -1.92497 -0.305089 0
M  V30 4691 H 429.826 -2.64894 -1.65038 0
M  V30 4692 N 430.127 0.543554 -1.4793 0
M  V30 4693 C 431.057 1.65888 -1.64327 0
M  V30 4694 C 432.038 1.62818 -0.492383 0
M  V30 4695 O 433.223 1.80226 -0.723338 0
M  V30 4696 C 430.353 3.04506 -1.67013 0
M  V30 4697 C 429.307 3.2243 -2.81466 0
M  V30 4698 C 428.633 4.61972 -2.69233 0
M  V30 4699 C 429.933 3.06496 -4.22915 0
M  V30 4700 H 431.627 1.52421 -2.57698 0
M  V30 4701 H 429.173 0.731849 -1.24016 0
M  V30 4702 H 431.126 3.82391 -1.77074 0
M  V30 4703 H 429.85 3.18964 -0.70212 0
M  V30 4704 H 428.509 2.46957 -2.70938 0
M  V30 4705 H 428.157 4.73247 -1.7043 0
M  V30 4706 H 427.857 4.74911 -3.46025 0
M  V30 4707 H 429.381 5.41974 -2.81242 0
M  V30 4708 H 430.795 3.74186 -4.34348 0
M  V30 4709 H 429.192 3.30938 -5.006 0
M  V30 4710 H 430.262 2.03077 -4.40327 0
M  V30 4711 N 431.605 1.3629 0.791371 0
M  V30 4712 C 432.553 1.30514 1.92533 0
M  V30 4713 C 433.547 0.197285 1.68247 0
M  V30 4714 O 434.753 0.364176 1.76278 0
M  V30 4715 H 431.128 0.406263 0.632815 0
M  V30 4716 H 433.099 2.26282 1.94523 0
M  V30 4717 C 431.848 1.10933 3.29529 0
M  V30 4718 H 431.171 1.95427 3.48781 0
M  V30 4719 H 432.611 1.10937 4.0923 0
M  V30 4720 C 431.07 -0.186123 3.36385 0
M  V30 4721 O 431.6 -1.17664 3.84081 0
M  V30 4722 N 429.806 -0.230128 2.89687 0
M  V30 4723 H 429.353 0.576545 2.51065 0
M  V30 4724 H 429.311 -1.09658 2.94657 0
M  V30 4725 N 433.083 -1.0153 1.20538 0
M  V30 4726 C 434.313 -1.78487 1.04048 0
M  V30 4727 C 434.721 -1.84631 -0.413292 0
M  V30 4728 O 434.064 -1.29919 -1.29872 0
M  V30 4729 C 434.126 -3.24367 1.55003 0
M  V30 4730 C 433.79 -3.41827 3.0332 0
M  V30 4731 C 434.787 -3.30941 4.00966 0
M  V30 4732 C 432.472 -3.67602 3.42307 0
M  V30 4733 C 434.466 -3.45577 5.35589 0
M  V30 4734 C 432.153 -3.81881 4.77085 0
M  V30 4735 C 433.151 -3.70874 5.73534 0
M  V30 4736 O 432.839 -3.84714 7.05868 0
M  V30 4737 H 432.571 -0.568108 0.366373 0
M  V30 4738 H 435.125 -1.28677 1.60098 0
M  V30 4739 H 433.355 -3.75266 0.933397 0
M  V30 4740 H 435.044 -3.82963 1.34514 0
M  V30 4741 H 435.81 -3.10964 3.72191 0
M  V30 4742 H 431.689 -3.75256 2.67776 0
M  V30 4743 H 435.233 -3.36902 6.10854 0
M  V30 4744 H 431.13 -4.01359 5.0555 0
M  V30 4745 H 431.898 -4.01724 7.13134 0
M  V30 4746 N 434.561 -1.01147 -1.20859 0
M  V30 4747 C 435.791 -0.715872 -1.93801 0
M  V30 4748 C 436.199 0.726592 -1.74692 0
M  V30 4749 O 435.542 1.50397 -1.05482 0
M  V30 4750 C 435.604 -0.965269 -3.46299 0
M  V30 4751 C 435.268 -2.39584 -3.89164 0
M  V30 4752 C 436.265 -3.3764 -3.95342 0
M  V30 4753 C 433.95 -2.73522 -4.21297 0
M  V30 4754 C 435.944 -4.67698 -4.33056 0
M  V30 4755 C 433.631 -4.03794 -4.58687 0
M  V30 4756 C 434.629 -5.00693 -4.64538 0
M  V30 4757 O 434.317 -6.28635 -5.01072 0
M  V30 4758 H 434.049 -0.262524 -0.622942 0
M  V30 4759 H 436.603 -1.35413 -1.54443 0
M  V30 4760 H 434.833 -0.269847 -3.85757 0
M  V30 4761 H 436.522 -0.662051 -4.00464 0
M  V30 4762 H 437.288 -3.12757 -3.70686 0
M  V30 4763 H 433.167 -1.9879 -4.15937 0
M  V30 4764 H 436.711 -5.4333 -4.37537 0
M  V30 4765 H 432.608 -4.28459 -4.82797 0
M  V30 4766 H 433.376 -6.32847 -5.19083 0
M  V30 4767 N 436.039 1.36541 -0.78704 0
M  V30 4768 C 437.264 2.0409 -0.369053 0
M  V30 4769 C 437.689 1.58957 1.00569 0
M  V30 4770 O 437.047 0.756926 1.64743 0
M  V30 4771 C 437.095 3.57924 -0.438466 0
M  V30 4772 O 436.199 4.08642 0.555479 0
M  V30 4773 H 435.54 0.645142 -0.157122 0
M  V30 4774 H 438.07 1.74545 -1.06749 0
M  V30 4775 H 438.08 4.06887 -0.301218 0
M  V30 4776 H 436.755 3.90127 -1.44132 0
M  V30 4777 H 435.332 3.70958 0.380088 0
M  V30 4778 N 437.518 0.538854 1.48102 0
M  V30 4779 C 438.766 0.00798599 2.02098 0
M  V30 4780 C 439.087 -1.33922 1.41739 0
M  V30 4781 O 438.357 -1.86932 0.585934 0
M  V30 4782 H 436.937 -3.62179e-05 0.747 0
M  V30 4783 H 439.599 0.7047 1.81714 0
M  V30 4784 H 438.695 -0.0937672 3.11959 0
M  V30 4785 N 438.996 -1.55193 0.274407 0
M  V30 4786 C 439.946 -2.19184 -0.627882 0
M  V30 4787 C 440.93 -1.15625 -1.11892 0
M  V30 4788 O 442.122 -1.41441 -1.06411 0
M  V30 4789 C 439.251 -2.91591 -1.81189 0
M  V30 4790 C 438.337 -4.02438 -1.33807 0
M  V30 4791 N 438.728 -5.0246 -0.580349 0
M  V30 4792 C 437.026 -4.15496 -1.62109 0
M  V30 4793 C 437.727 -5.80756 -0.331344 0
M  V30 4794 N 436.703 -5.36038 -0.903556 0
M  V30 4795 H 440.505 -2.93871 -0.0411216 0
M  V30 4796 H 438.019 -1.62213 0.0779348 0
M  V30 4797 H 440.016 -3.35883 -2.46957 0
M  V30 4798 H 438.676 -2.18414 -2.40261 0
M  V30 4799 H 439.687 -5.17399 -0.227762 0
M  V30 4800 H 436.364 -3.53509 -2.22121 0
M  V30 4801 H 437.754 -6.71335 0.275454 0
M  V30 4802 N 440.474 -0.00167713 -1.576 0
M  V30 4803 C 441.404 0.988091 -2.11563 0
M  V30 4804 C 442.385 1.35736 -1.02517 0
M  V30 4805 O 443.57 1.44082 -1.30208 0
M  V30 4806 C 440.7 2.27941 -2.62031 0
M  V30 4807 C 439.654 2.0517 -3.75619 0
M  V30 4808 C 438.98 3.4033 -4.12407 0
M  V30 4809 C 440.28 1.41294 -5.02825 0
M  V30 4810 H 441.974 0.538771 -2.94513 0
M  V30 4811 H 439.52 0.257712 -1.41675 0
M  V30 4812 H 441.473 2.97539 -2.9841 0
M  V30 4813 H 440.197 2.74989 -1.76205 0
M  V30 4814 H 438.856 1.37998 -3.39635 0
M  V30 4815 H 438.504 3.85085 -3.23603 0
M  V30 4816 H 438.204 3.25909 -4.88935 0
M  V30 4817 H 439.728 4.1124 -4.51347 0
M  V30 4818 H 441.142 2.00851 -5.36965 0
M  V30 4819 H 439.539 1.37356 -5.84169 0
M  V30 4820 H 440.609 0.382362 -4.8339 0
M  V30 4821 N 441.952 1.55251 0.271103 0
M  V30 4822 C 443.198 1.76207 1.00394 0
M  V30 4823 C 443.531 0.562604 1.85872 0
M  V30 4824 O 442.806 -0.439785 1.89463 0
M  V30 4825 C 443.089 3.06828 1.8849 0
M  V30 4826 C 442.942 4.37134 1.05992 0
M  V30 4827 C 444.261 3.33503 2.87165 0
M  V30 4828 H 441.38 0.641086 0.363562 0
M  V30 4829 H 444.022 1.87982 0.276189 0
M  V30 4830 H 442.172 2.96921 2.5054 0
M  V30 4831 H 443.844 4.59001 0.459978 0
M  V30 4832 H 442.087 4.32275 0.363443 0
M  V30 4833 H 442.758 5.2486 1.70955 0
M  V30 4834 H 445.234 3.43215 2.3525 0
M  V30 4835 H 444.11 4.2616 3.45946 0
M  V30 4836 H 444.371 2.53235 3.62387 0
M  V30 4837 N 443.43 -0.535701 1.48216 0
M  V30 4838 C 444.377 -1.64083 1.62312 0
M  V30 4839 C 445.347 -1.59448 0.465365 0
M  V30 4840 O 446.532 -1.77959 0.688135 0
M  V30 4841 C 443.672 -3.0236 1.66349 0
M  V30 4842 C 442.785 -3.17273 2.93193 0
M  V30 4843 C 441.92 -4.46075 2.88427 0
M  V30 4844 C 440.959 -4.54496 4.1 0
M  V30 4845 N 440.096 -5.7468 4.03345 0
M  V30 4846 H 444.936 -1.51374 2.5669 0
M  V30 4847 H 442.473 -0.737059 1.27302 0
M  V30 4848 H 444.431 -3.82461 1.66672 0
M  V30 4849 H 443.061 -3.13854 0.754672 0
M  V30 4850 H 442.113 -2.30462 3.02641 0
M  V30 4851 H 443.425 -3.19357 3.83162 0
M  V30 4852 H 442.579 -5.3446 2.87119 0
M  V30 4853 H 441.318 -4.46504 1.96177 0
M  V30 4854 H 440.323 -3.64519 4.11589 0
M  V30 4855 H 441.548 -4.5581 5.03402 0
M  V30 4856 H 439.494 -5.76017 3.13912 0
M  V30 4857 H 439.411 -5.78234 4.87013 0
M  V30 4858 H 440.679 -6.65367 4.06087 0
M  V30 4859 N 444.908 -1.36708 -0.784132 0
M  V30 4860 C 446.155 -1.31231 -1.54222 0
M  V30 4861 C 446.483 0.106864 -1.94206 0
M  V30 4862 O 445.738 1.07734 -1.63376 0
M  V30 4863 C 446.037 -2.18571 -2.82774 0
M  V30 4864 C 445.703 -3.67039 -2.61903 0
M  V30 4865 C 444.365 -4.07503 -2.55919 0
M  V30 4866 C 446.717 -4.61149 -2.4288 0
M  V30 4867 C 444.045 -5.40211 -2.28886 0
M  V30 4868 C 446.397 -5.94081 -2.17373 0
M  V30 4869 C 445.061 -6.33664 -2.09825 0
M  V30 4870 H 444.331 -0.48021 -0.56434 0
M  V30 4871 H 446.978 -1.68807 -0.904233 0
M  V30 4872 H 445.283 -1.73949 -3.51068 0
M  V30 4873 H 446.98 -2.11655 -3.40592 0
M  V30 4874 H 443.57 -3.34941 -2.67418 0
M  V30 4875 H 447.754 -4.30756 -2.46501 0
M  V30 4876 H 443.01 -5.69855 -2.21529 0
M  V30 4877 H 447.184 -6.66566 -2.01649 0
M  V30 4878 H 444.811 -7.36423 -1.88641 0
M  V30 4879 N 446.386 1.0089 -1.21074 0
M  V30 4880 C 447.663 1.71834 -0.934469 0
M  V30 4881 C 448.043 2.0368 0.554753 0
M  V30 4882 O 447.391 1.70742 1.51854 0
M  V30 4883 C 447.601 2.98061 -1.8155 0
M  V30 4884 C 448.949 3.7117 -2.06199 0
M  V30 4885 O 449.973 3.08034 -1.78867 0
M  V30 4886 O 448.832 4.84721 -2.52404 0
M  V30 4887 H 445.926 0.749253 -0.35007 0
M  V30 4888 H 448.472 1.06668 -1.31985 0
M  V30 4889 H 447.244 2.70908 -2.82355 0
M  V30 4890 H 446.867 3.70968 -1.43068 0
M  V30 4891 N 447.864 1.01787 1.20321 0
M  V30 4892 C 449.275 0.739307 1.71438 0
M  V30 4893 C 449.626 -0.742041 1.81627 0
M  V30 4894 O 448.751 -1.57903 1.47971 0
M  V30 4895 C 449.346 1.33538 3.11373 0
M  V30 4896 C 447.905 1.10566 3.59795 0
M  V30 4897 C 447.052 1.44028 2.36962 0
M  V30 4898 H 450.003 1.18718 1.05317 0
M  V30 4899 H 450.024 0.726611 3.73498 0
M  V30 4900 H 449.536 2.41352 3.03926 0
M  V30 4901 H 447.637 0.0452405 3.72573 0
M  V30 4902 H 447.75 1.78661 4.44542 0
M  V30 4903 H 446.114 0.85933 2.39766 0
M  V30 4904 H 446.897 2.52901 2.32155 0
M  V30 4905 N 449.342 -1.36122 0.79427 0
M  V30 4906 C 450.619 -1.93398 0.292685 0
M  V30 4907 C 450.999 -1.72567 -1.21589 0
M  V30 4908 O 450.347 -1.08745 -2.00965 0
M  V30 4909 C 450.557 -3.42099 0.690614 0
M  V30 4910 C 451.905 -4.19231 0.673105 0
M  V30 4911 O 452.929 -3.50559 0.631389 0
M  V30 4912 O 451.788 -5.41732 0.720362 0
M  V30 4913 H 448.882 -0.823712 0.0736693 0
M  V30 4914 H 451.428 -1.45273 0.87714 0
M  V30 4915 H 450.2 -3.50938 1.73085 0
M  V30 4916 H 449.823 -3.97519 0.0803036 0
M  V30 4917 N 450.82 -0.546701 -1.47814 0
M  V30 4918 C 451.783 0.196287 -2.28358 0
M  V30 4919 C 452.783 0.852437 -1.36346 0
M  V30 4920 O 453.973 0.709913 -1.59078 0
M  V30 4921 C 451.105 1.28579 -3.15722 0
M  V30 4922 H 452.298 -0.511086 -2.95513 0
M  V30 4923 H 449.851 -0.303248 -1.5333 0
M  V30 4924 H 450.586 2.0259 -2.53235 0
M  V30 4925 H 450.371 0.820229 -3.83425 0
M  V30 4926 H 451.861 1.80793 -3.76435 0
M  V30 4927 N 452.299 1.55045 -0.282633 0
M  V30 4928 C 453.71 1.85473 0.213655 0
M  V30 4929 C 454.061 1.20465 1.54863 0
M  V30 4930 O 453.186 0.495676 2.10647 0
M  V30 4931 C 453.781 3.36496 0.394445 0
M  V30 4932 C 452.34 3.67022 0.834961 0
M  V30 4933 C 451.487 2.77218 -0.0674081 0
M  V30 4934 H 454.438 1.50478 -0.504202 0
M  V30 4935 H 454.459 3.60007 1.23186 0
M  V30 4936 H 453.971 3.83782 -0.577326 0
M  V30 4937 H 452.072 3.25241 1.81794 0
M  V30 4938 H 452.185 4.74433 0.667075 0
M  V30 4939 H 450.549 2.5069 0.450196 0
M  V30 4940 H 451.332 3.2732 -1.0352 0
M  V30 4941 N 453.777 0.010035 1.57597 0
M  V30 4942 C 454.74 -0.963029 2.07986 0
M  V30 4943 C 455.74 -1.26619 0.991173 0
M  V30 4944 O 456.93 -1.2097 1.25347 0
M  V30 4945 C 454.062 -2.2851 2.52974 0
M  V30 4946 H 455.255 -0.526971 2.95234 0
M  V30 4947 H 452.808 -0.237639 1.54483 0
M  V30 4948 H 453.543 -2.76784 1.69 0
M  V30 4949 H 453.328 -2.07824 3.32493 0
M  V30 4950 H 454.818 -2.98294 2.9225 0
M  V30 4951 N 455.255 -1.55392 -0.262866 0
M  V30 4952 C 456.202 -1.88966 -1.32516 0
M  V30 4953 C 457.172 -0.742187 -1.48596 0
M  V30 4954 O 458.357 -0.99439 -1.62839 0
M  V30 4955 C 455.497 -2.17592 -2.67858 0
M  V30 4956 C 454.61 -3.45061 -2.59917 0
M  V30 4957 C 453.745 -3.63336 -3.87505 0
M  V30 4958 C 452.784 -4.84462 -3.74116 0
M  V30 4959 N 451.921 -4.99342 -4.93561 0
M  V30 4960 H 456.761 -2.79566 -1.03184 0
M  V30 4961 H 454.298 -1.38404 -0.498285 0
M  V30 4962 H 456.256 -2.3219 -3.46617 0
M  V30 4963 H 454.886 -1.30215 -2.95371 0
M  V30 4964 H 453.938 -3.38881 -1.72812 0
M  V30 4965 H 455.25 -4.3396 -2.45926 0
M  V30 4966 H 454.404 -3.77807 -4.74707 0
M  V30 4967 H 453.143 -2.72641 -4.04374 0
M  V30 4968 H 452.148 -4.69985 -2.85297 0
M  V30 4969 H 453.373 -5.76603 -3.58757 0
M  V30 4970 H 451.319 -4.1158 -5.10821 0
M  V30 4971 H 451.236 -5.82303 -4.82141 0
M  V30 4972 H 452.504 -5.18208 -5.82306 0
M  V30 4973 N 456.733 0.527833 -1.48498 0
M  V30 4974 C 457.979 1.28545 -1.56857 0
M  V30 4975 C 458.312 1.92678 -0.242651 0
M  V30 4976 O 457.587 1.79394 0.751545 0
M  V30 4977 C 457.87 2.37314 -2.70839 0
M  V30 4978 C 457.723 1.77858 -4.13142 0
M  V30 4979 C 459.042 3.39068 -2.80573 0
M  V30 4980 H 456.161 0.466006 -0.570971 0
M  V30 4981 H 458.803 0.587784 -1.8068 0
M  V30 4982 H 456.953 2.96821 -2.50658 0
M  V30 4983 H 458.625 1.22385 -4.44769 0
M  V30 4984 H 456.868 1.08383 -4.20042 0
M  V30 4985 H 457.539 2.56624 -4.88721 0
M  V30 4986 H 460.015 2.89518 -2.98862 0
M  V30 4987 H 458.891 4.12566 -3.6205 0
M  V30 4988 H 459.152 3.9975 -1.88818 0
M  V30 4989 N 458.211 1.37122 0.776871 0
M  V30 4990 C 459.436 1.354 1.57104 0
M  V30 4991 C 459.861 -0.0595562 1.88006 0
M  V30 4992 O 459.219 -1.03514 1.48844 0
M  V30 4993 C 459.267 2.19472 2.8612 0
M  V30 4994 O 458.371 1.59582 3.80273 0
M  V30 4995 H 457.712 0.462869 0.476076 0
M  V30 4996 H 460.242 1.80577 0.961932 0
M  V30 4997 H 460.252 2.32502 3.35271 0
M  V30 4998 H 458.927 3.22222 2.62956 0
M  V30 4999 H 457.504 1.55564 3.38902 0
M  V30 5000 N 459.689 -1.00246 1.21608 0
M  V30 5001 C 460.936 -1.74061 1.03485 0
M  V30 5002 C 461.264 -1.89658 -0.431308 0
M  V30 5003 O 460.519 -1.42976 -1.33627 0
M  V30 5004 C 460.818 -3.15448 1.68009 0
M  V30 5005 C 460.484 -3.19792 3.17874 0
M  V30 5006 C 459.146 -3.20685 3.58768 0
M  V30 5007 C 461.498 -3.16835 4.13842 0
M  V30 5008 C 458.826 -3.16309 4.94131 0
M  V30 5009 C 461.178 -3.14001 5.49169 0
M  V30 5010 C 459.842 -3.13204 5.89457 0
M  V30 5011 H 459.112 -0.636934 0.378677 0
M  V30 5012 H 461.759 -1.17473 1.51236 0
M  V30 5013 H 460.064 -3.75284 1.12557 0
M  V30 5014 H 461.761 -3.71285 1.51487 0
M  V30 5015 H 458.351 -3.19842 2.85305 0
M  V30 5016 H 462.535 -3.15303 3.83272 0
M  V30 5017 H 457.791 -3.14032 5.24589 0
M  V30 5018 H 461.965 -3.10667 6.23265 0
M  V30 5019 H 459.592 -3.09568 6.94314 0
M  V30 5020 N 461.167 -1.02423 -1.1978 0
M  V30 5021 C 462.413 -0.719051 -1.89625 0
M  V30 5022 C 462.746 0.750083 -1.7913 0
M  V30 5023 O 462.021 1.54574 -1.18056 0
M  V30 5024 C 462.304 -1.16499 -3.40735 0
M  V30 5025 C 462.157 -2.695 -3.60125 0
M  V30 5026 C 463.476 -0.742166 -4.33797 0
M  V30 5027 H 460.595 -0.26269 -0.688595 0
M  V30 5028 H 463.237 -1.27333 -1.41018 0
M  V30 5029 H 461.387 -0.69341 -3.82262 0
M  V30 5030 H 463.059 -3.24569 -3.278 0
M  V30 5031 H 461.302 -3.10113 -3.03336 0
M  V30 5032 H 461.973 -2.95757 -4.66081 0
M  V30 5033 H 464.449 -1.1477 -3.99959 0
M  V30 5034 H 463.325 -1.08213 -5.38127 0
M  V30 5035 H 463.586 0.355747 -4.40666 0
M  V30 5036 N 462.645 1.35699 -0.801477 0
M  V30 5037 C 463.555 2.33661 -0.209691 0
M  V30 5038 C 464.571 1.6162 0.644591 0
M  V30 5039 O 465.747 1.93529 0.557545 0
M  V30 5040 C 462.812 3.40816 0.636033 0
M  V30 5041 C 461.873 4.28639 -0.238147 0
M  V30 5042 C 461.106 5.30676 0.567307 0
M  V30 5043 O 461.329 5.41174 1.8024 0
M  V30 5044 O 460.263 6.01887 -0.0391336 0
M  V30 5045 H 464.089 2.8606 -1.01996 0
M  V30 5046 H 461.674 1.38379 -0.563164 0
M  V30 5047 H 463.556 4.06301 1.11791 0
M  V30 5048 H 462.231 2.90696 1.42399 0
M  V30 5049 H 461.138 3.66152 -0.767044 0
M  V30 5050 H 462.471 4.82143 -0.989915 0
M  V30 5051 N 464.123 0.554532 1.47522 0
M  V30 5052 C 465.539 0.214107 1.58157 0
M  V30 5053 C 465.739 -1.28331 1.55349 0
M  V30 5054 O 464.795 -2.06329 1.45549 0
M  V30 5055 C 466.108 0.838391 2.88776 0
M  V30 5056 C 467.656 0.809374 3.02354 0
M  V30 5057 C 468.131 1.41268 4.35669 0
M  V30 5058 N 469.622 1.37574 4.42298 0
M  V30 5059 C 470.357 1.8122 5.4401 0
M  V30 5060 N 469.853 2.3271 6.52547 0
M  V30 5061 N 471.646 1.72307 5.35039 0
M  V30 5062 H 463.797 1.52744 1.4759 0
M  V30 5063 H 466.06 0.636812 0.702264 0
M  V30 5064 H 465.766 1.89065 2.96559 0
M  V30 5065 H 465.64 0.329847 3.75755 0
M  V30 5066 H 468.027 -0.234187 2.94169 0
M  V30 5067 H 468.108 1.35565 2.16924 0
M  V30 5068 H 467.752 2.45529 4.4461 0
M  V30 5069 H 467.682 0.841871 5.19827 0
M  V30 5070 H 470.173 0.999081 3.64454 0
M  V30 5071 H 470.486 2.63944 7.26329 0
M  V30 5072 H 468.831 2.36719 6.53444 0
M  V30 5073 H 472.022 1.3186 4.49144 0
M  V30 5074 H 472.195 2.06641 6.14169 0
M  V30 5075 N 465.601 -1.54893 0.290851 0
M  V30 5076 C 466.878 -1.91991 -0.373989 0
M  V30 5077 C 467.258 -1.21694 -1.72493 0
M  V30 5078 O 466.606 -0.34917 -2.25816 0
M  V30 5079 C 466.816 -3.45419 -0.498703 0
M  V30 5080 C 468.164 -4.1748 -0.774298 0
M  V30 5081 O 469.188 -3.51398 -0.582908 0
M  V30 5082 O 468.047 -5.3445 -1.14129 0
M  V30 5083 H 465.141 -0.800593 -0.207315 0
M  V30 5084 H 467.687 -1.66297 0.338164 0
M  V30 5085 H 466.459 -3.88688 0.451392 0
M  V30 5086 H 466.082 -3.77117 -1.25972 0
M  V30 5087 N 467.08 -0.0183926 -1.57589 0
M  V30 5088 C 468.01 0.965596 -2.12599 0
M  V30 5089 C 468.991 1.34641 -1.0395 0
M  V30 5090 O 470.176 1.42693 -1.31729 0
M  V30 5091 C 467.306 2.25149 -2.64434 0
M  V30 5092 C 466.26 2.01175 -3.77773 0
M  V30 5093 C 465.586 3.35937 -4.15994 0
M  V30 5094 C 466.886 1.35953 -5.04296 0
M  V30 5095 H 468.58 0.507504 -2.95067 0
M  V30 5096 H 466.126 0.242671 -1.41941 0
M  V30 5097 H 468.079 2.94357 -3.01549 0
M  V30 5098 H 466.803 2.73105 -1.79112 0
M  V30 5099 H 465.462 1.34388 -3.4108 0
M  V30 5100 H 465.11 3.81631 -3.27669 0
M  V30 5101 H 464.81 3.20705 -4.92364 0
M  V30 5102 H 466.334 4.0643 -4.55683 0
M  V30 5103 H 467.748 1.95144 -5.39065 0
M  V30 5104 H 466.145 1.31152 -5.85593 0
M  V30 5105 H 467.215 0.331071 -4.83768 0
M  V30 5106 N 468.558 1.5553 0.254621 0
M  V30 5107 C 469.969 1.67518 0.824286 0
M  V30 5108 C 470.32 0.614429 1.86331 0
M  V30 5109 O 469.445 -0.240736 2.15057 0
M  V30 5110 C 470.04 3.03692 1.50189 0
M  V30 5111 C 468.599 3.17646 2.01935 0
M  V30 5112 C 467.746 2.63373 0.867746 0
M  V30 5113 H 470.697 1.58671 0.0305843 0
M  V30 5114 H 470.718 2.97706 2.36962 0
M  V30 5115 H 470.23 3.80874 0.745431 0
M  V30 5116 H 468.331 2.45273 2.80485 0
M  V30 5117 H 468.444 4.24455 2.22204 0
M  V30 5118 H 466.808 2.20999 1.26616 0
M  V30 5119 H 467.591 3.43074 0.124498 0
M  V30 5120 N 470.036 -0.519951 1.48776 0
M  V30 5121 C 470.983 -1.62352 1.64044 0
M  V30 5122 C 471.953 -1.58945 0.482251 0
M  V30 5123 O 473.138 -1.77219 0.706971 0
M  V30 5124 C 470.278 -3.00579 1.69547 0
M  V30 5125 C 469.391 -3.14145 2.96541 0
M  V30 5126 C 468.526 -4.42991 2.93142 0
M  V30 5127 C 467.565 -4.50122 4.14797 0
M  V30 5128 N 466.702 -5.7037 4.09418 0
M  V30 5129 H 471.542 -1.48643 2.58281 0
M  V30 5130 H 469.079 -0.723516 1.28077 0
M  V30 5131 H 471.037 -3.80671 1.70719 0
M  V30 5132 H 469.667 -3.13036 0.787918 0
M  V30 5133 H 468.719 -2.27239 3.05068 0
M  V30 5134 H 470.031 -3.15275 3.86527 0
M  V30 5135 H 469.185 -5.31385 2.92772 0
M  V30 5136 H 467.924 -4.44398 2.00902 0
M  V30 5137 H 466.929 -3.60133 4.15433 0
M  V30 5138 H 468.154 -4.50445 5.08208 0
M  V30 5139 H 466.1 -5.72655 3.20004 0
M  V30 5140 H 466.017 -5.73036 4.93119 0
M  V30 5141 H 467.285 -6.61023 4.13121 0
M  V30 5142 N 471.514 -1.37532 -0.769588 0
M  V30 5143 C 472.742 -1.36059 -1.55871 0
M  V30 5144 C 473.157 0.053544 -1.88724 0
M  V30 5145 O 472.514 1.01591 -1.5161 0
M  V30 5146 C 472.565 -2.20107 -2.86767 0
M  V30 5147 O 472.286 -3.56009 -2.55321 0
M  V30 5148 C 473.787 -2.26636 -3.80987 0
M  V30 5149 H 471.007 -0.465967 -0.482821 0
M  V30 5150 H 473.551 -1.80901 -0.953686 0
M  V30 5151 H 471.706 -1.78768 -3.43687 0
M  V30 5152 H 472.12 -4.0009 -3.39158 0
M  V30 5153 H 473.594 -2.89763 -4.69831 0
M  V30 5154 H 474.071 -1.2754 -4.20274 0
M  V30 5155 H 474.677 -2.68296 -3.29996 0
M  V30 5156 N 472.992 0.995999 -1.22138 0
M  V30 5157 C 473.955 2.06711 -0.990109 0
M  V30 5158 C 474.955 1.60744 0.0422978 0
M  V30 5159 O 476.145 1.73095 -0.195895 0
M  V30 5160 C 473.277 3.37288 -0.49491 0
M  V30 5161 H 474.47 2.28661 -1.94047 0
M  V30 5162 H 472.023 1.16711 -1.03963 0
M  V30 5163 H 472.758 3.21022 0.459948 0
M  V30 5164 H 472.543 3.71986 -1.23971 0
M  V30 5165 H 474.033 4.16103 -0.353253 0
M  V30 5166 N 474.47 1.03057 1.19235 0
M  V30 5167 C 475.403 0.557384 2.21288 0
M  V30 5168 C 476.381 -0.402675 1.57535 0
M  V30 5169 O 477.565 -0.319376 1.85775 0
M  V30 5170 C 474.692 -0.187041 3.38183 0
M  V30 5171 C 473.738 0.72471 4.20298 0
M  V30 5172 S 474.571 2.20187 4.88137 0
M  V30 5173 C 475.727 1.46801 6.08441 0
M  V30 5174 H 475.96 1.42207 2.61083 0
M  V30 5175 H 473.493 0.840651 1.29508 0
M  V30 5176 H 475.451 -0.610405 4.05936 0
M  V30 5177 H 474.112 -1.02748 2.96819 0
M  V30 5178 H 473.305 0.149911 5.03777 0
M  V30 5179 H 472.907 1.08647 3.57871 0
M  V30 5180 H 475.199 0.755522 6.73274 0
M  V30 5181 H 476.142 2.27946 6.70407 0
M  V30 5182 H 476.55 0.964762 5.56195 0
M  V30 5183 N 475.948 -1.35272 0.808662 0
M  V30 5184 C 477.196 -1.98316 0.389233 0
M  V30 5185 C 477.517 -1.64465 -1.04767 0
M  V30 5186 O 476.787 -0.928175 -1.72516 0
M  V30 5187 H 475.367 -0.733585 0.140935 0
M  V30 5188 H 478.029 -1.6515 1.03496 0
M  V30 5189 H 477.125 -3.08123 0.496631 0
M  V30 5190 N 477.426 -0.562348 -1.47226 0
M  V30 5191 C 478.672 -0.0485293 -2.03342 0
M  V30 5192 C 479.027 1.28898 -1.42839 0
M  V30 5193 O 478.32 1.82719 -0.576563 0
M  V30 5194 C 478.514 0.0969817 -3.57268 0
M  V30 5195 C 478.343 -1.22487 -4.32697 0
M  V30 5196 C 477.113 -1.79357 -4.72397 0
M  V30 5197 C 479.311 -2.14332 -4.67511 0
M  V30 5198 N 477.293 -3.05493 -5.32491 0
M  V30 5199 C 478.664 -3.25049 -5.27961 0
M  V30 5200 C 480.719 -2.14263 -4.4944 0
M  V30 5201 C 479.422 -4.35804 -5.72248 0
M  V30 5202 C 481.448 -3.24033 -4.94729 0
M  V30 5203 C 480.81 -4.3347 -5.55233 0
M  V30 5204 H 476.909 -0.0600464 -0.779691 0
M  V30 5205 H 479.493 -0.750769 -1.79643 0
M  V30 5206 H 477.664 0.768353 -3.80724 0
M  V30 5207 H 479.396 0.613333 -4.00025 0
M  V30 5208 H 476.151 -1.33093 -4.54514 0
M  V30 5209 H 476.575 -3.698 -5.67077 0
M  V30 5210 H 481.217 -1.30935 -4.02015 0
M  V30 5211 H 478.935 -5.19888 -6.18661 0
M  V30 5212 H 482.521 -3.25073 -4.82513 0
M  V30 5213 H 481.401 -5.17008 -5.89638 0
M  V30 5214 N 478.904 1.54736 -0.299062 0
M  V30 5215 C 479.814 2.27127 0.587413 0
M  V30 5216 C 480.83 1.30575 1.15005 0
M  V30 5217 O 482.006 1.63554 1.17525 0
M  V30 5218 C 479.071 2.99645 1.74395 0
M  V30 5219 C 478.132 4.11731 1.21559 0
M  V30 5220 C 477.365 4.80781 2.317 0
M  V30 5221 O 477.588 4.4918 3.51558 0
M  V30 5222 O 476.522 5.68226 1.98501 0
M  V30 5223 H 480.348 3.037 0.000250109 0
M  V30 5224 H 477.933 1.49256 -0.0655919 0
M  V30 5225 H 479.815 3.45138 2.4178 0
M  V30 5226 H 478.49 2.25969 2.31775 0
M  V30 5227 H 477.397 3.70641 0.507514 0
M  V30 5228 H 478.73 4.87379 0.687233 0
M  V30 5229 N 480.382 0.0267497 1.57577 0
M  V30 5230 C 481.631 -0.651736 1.9088 0
M  V30 5231 C 481.944 -1.73427 0.904576 0
M  V30 5232 O 483.15 -2.46923 1.12877 0
M  V30 5233 C 481.606 -1.21048 3.38933 0
M  V30 5234 C 481.214 -0.161362 4.47709 0
M  V30 5235 C 482.958 -1.86562 3.81307 0
M  V30 5236 C 480.865 -0.731611 5.86857 0
M  V30 5237 H 479.795 -0.247198 0.712326 0
M  V30 5238 H 482.446 0.0916641 1.83271 0
M  V30 5239 H 480.828 -2.00542 3.41466 0
M  V30 5240 H 482.002 0.61094 4.56732 0
M  V30 5241 H 480.317 0.394877 4.14523 0
M  V30 5242 H 482.914 -2.30178 4.8262 0
M  V30 5243 H 483.257 -2.70735 3.16241 0
M  V30 5244 H 483.79 -1.13762 3.81186 0
M  V30 5245 H 480.529 0.0719329 6.55461 0
M  V30 5246 H 480.049 -1.47245 5.81445 0
M  V30 5247 H 481.728 -1.22208 6.35354 0
M  V30 5248 N 481.861 -1.55662 -0.24637 0
M  V30 5249 C 483.107 -1.77782 -0.975779 0
M  V30 5250 C 483.44 -0.592103 -1.84953 0
M  V30 5251 O 482.715 0.409588 -1.90138 0
M  V30 5252 C 482.998 -3.09788 -1.83584 0
M  V30 5253 C 482.851 -4.38764 -0.990241 0
M  V30 5254 C 484.17 -3.38029 -2.81823 0
M  V30 5255 H 481.289 -0.646789 -0.353317 0
M  V30 5256 H 483.931 -1.88398 -0.246248 0
M  V30 5257 H 482.081 -3.00869 -2.45784 0
M  V30 5258 H 483.753 -4.59675 -0.386897 0
M  V30 5259 H 481.996 -4.32798 -0.294626 0
M  V30 5260 H 482.667 -5.27514 -1.62584 0
M  V30 5261 H 485.143 -3.46915 -2.2976 0
M  V30 5262 H 484.019 -4.3161 -3.39122 0
M  V30 5263 H 484.28 -2.58968 -3.58313 0
M  V30 5264 N 483.339 0.512053 -1.4905 0
M  V30 5265 C 484.75 1.09376 -1.51307 0
M  V30 5266 C 485.101 1.94 -0.292971 0
M  V30 5267 O 484.226 2.07965 0.598277 0
M  V30 5268 C 484.821 1.99031 -2.74176 0
M  V30 5269 C 483.38 2.52385 -2.79247 0
M  V30 5270 C 482.527 1.29749 -2.45073 0
M  V30 5271 H 485.478 0.296467 -1.55906 0
M  V30 5272 H 485.499 2.83569 -2.53711 0
M  V30 5273 H 485.011 1.37412 -3.62959 0
M  V30 5274 H 483.112 3.17673 -1.94716 0
M  V30 5275 H 483.225 2.90293 -3.81139 0
M  V30 5276 H 481.589 1.61912 -1.96612 0
M  V30 5277 H 482.372 0.698555 -3.36118 0
M  V30 5278 N 484.817 1.37938 0.762283 0
M  V30 5279 C 485.727 1.36681 1.90671 0
M  V30 5280 C 486.743 0.265078 1.71969 0
M  V30 5281 O 487.919 0.502055 1.95042 0
M  V30 5282 C 484.984 1.18211 3.25925 0
M  V30 5283 C 484.045 2.3811 3.57214 0
M  V30 5284 C 483.278 2.20512 4.86014 0
M  V30 5285 O 483.501 1.19429 5.57757 0
M  V30 5286 O 482.435 3.08911 5.16583 0
M  V30 5287 H 486.261 2.33091 1.94685 0
M  V30 5288 H 483.846 1.18767 0.906356 0
M  V30 5289 H 485.728 1.09937 4.06807 0
M  V30 5290 H 484.403 0.248807 3.22742 0
M  V30 5291 H 483.31 2.51958 2.76529 0
M  V30 5292 H 484.643 3.30041 3.65149 0
M  V30 5293 N 486.295 -0.989507 1.22664 0
M  V30 5294 C 487.543 -1.72612 1.05117 0
M  V30 5295 C 487.864 -1.90552 -0.414131 0
M  V30 5296 O 487.134 -1.4676 -1.29762 0
M  V30 5297 H 485.714 -0.639555 0.385977 0
M  V30 5298 H 488.376 -1.19158 1.54232 0
M  V30 5299 H 487.472 -2.71926 1.53175 0
M  V30 5300 N 487.773 -1.03688 -1.18687 0
M  V30 5301 C 489.022 -0.733235 -1.879 0
M  V30 5302 C 489.335 0.741745 -1.8099 0
M  V30 5303 O 490.541 1.15875 -2.4553 0
M  V30 5304 C 488.997 -1.26127 -3.37076 0
M  V30 5305 C 488.605 -2.76461 -3.52524 0
M  V30 5306 C 490.349 -1.03398 -4.11715 0
M  V30 5307 C 488.256 -3.22642 -4.95637 0
M  V30 5308 H 487.186 -0.270584 -0.703776 0
M  V30 5309 H 489.837 -1.25222 -1.34133 0
M  V30 5310 H 488.219 -0.670165 -3.90288 0
M  V30 5311 H 489.393 -3.41296 -3.09602 0
M  V30 5312 H 487.708 -2.97559 -2.91286 0
M  V30 5313 H 490.305 -1.3542 -5.17267 0
M  V30 5314 H 490.648 0.0289246 -4.1629 0
M  V30 5315 H 491.181 -1.5895 -3.64664 0
M  V30 5316 H 487.92 -4.28296 -4.96228 0
M  V30 5317 H 487.44 -2.62539 -5.39289 0
M  V30 5318 H 489.119 -3.16444 -5.64333 0
M  V30 5319 N 489.251 1.34841 -0.815825 0
M  V30 5320 C 490.481 2.02436 -0.412695 0
M  V30 5321 C 490.889 1.61604 0.983906 0
M  V30 5322 O 490.232 0.813729 1.64694 0
M  V30 5323 C 490.294 3.56953 -0.427182 0
M  V30 5324 C 489.958 4.21083 -1.77589 0
M  V30 5325 C 490.955 4.42107 -2.73564 0
M  V30 5326 C 488.64 4.58006 -2.06243 0
M  V30 5327 C 490.634 4.99169 -3.9637 0
M  V30 5328 C 488.321 5.1478 -3.2931 0
M  V30 5329 C 489.319 5.35304 -4.24191 0
M  V30 5330 O 489.007 5.90878 -5.45086 0
M  V30 5331 H 488.739 0.655631 -0.164695 0
M  V30 5332 H 491.293 1.73246 -1.1034 0
M  V30 5333 H 489.523 3.85372 0.320175 0
M  V30 5334 H 491.212 4.05875 -0.0450875 0
M  V30 5335 H 491.978 4.13953 -2.52721 0
M  V30 5336 H 487.857 4.41339 -1.33196 0
M  V30 5337 H 491.401 5.15105 -4.70439 0
M  V30 5338 H 487.298 5.42362 -3.5002 0
M  V30 5339 H 488.066 6.0932 -5.46508 0
M  V30 5340 N 490.729 0.570148 1.46925 0
M  V30 5341 C 491.975 0.0593124 2.03314 0
M  V30 5342 C 492.33 -1.28139 1.43521 0
M  V30 5343 O 491.623 -1.82411 0.586245 0
M  V30 5344 C 491.817 -0.0780336 3.57315 0
M  V30 5345 C 491.646 1.2478 4.32042 0
M  V30 5346 C 490.416 1.81859 4.7144 0
M  V30 5347 C 492.614 2.16808 4.66368 0
M  V30 5348 N 490.596 3.08313 5.30864 0
M  V30 5349 C 491.967 3.27845 5.2623 0
M  V30 5350 C 494.022 2.16643 4.48297 0
M  V30 5351 C 492.725 4.38832 5.69929 0
M  V30 5352 C 494.751 3.26652 4.93004 0
M  V30 5353 C 494.113 4.36408 5.52926 0
M  V30 5354 H 490.212 0.0641804 0.779362 0
M  V30 5355 H 492.796 0.760285 1.79242 0
M  V30 5356 H 490.967 -0.748151 3.81126 0
M  V30 5357 H 492.699 -0.59211 4.00345 0
M  V30 5358 H 489.454 1.35502 4.53802 0
M  V30 5359 H 489.878 3.72802 5.65108 0
M  V30 5360 H 494.52 1.33065 4.01315 0
M  V30 5361 H 492.238 5.23162 6.15896 0
M  V30 5362 H 495.824 3.27627 4.80782 0
M  V30 5363 H 494.704 5.20127 5.86888 0
M  V30 5364 N 492.207 -1.54576 0.307264 0
M  V30 5365 C 493.456 -1.99442 -0.300976 0
M  V30 5366 C 493.769 -1.19928 -1.5452 0
M  V30 5367 O 494.975 -1.55092 -2.22842 0
M  V30 5368 C 493.431 -3.55084 -0.586809 0
M  V30 5369 C 493.039 -4.43413 0.639438 0
M  V30 5370 C 494.783 -4.0846 -1.1559 0
M  V30 5371 C 492.69 -5.90499 0.326411 0
M  V30 5372 H 491.62 -0.744986 -0.116238 0
M  V30 5373 H 494.271 -1.787 0.416947 0
M  V30 5374 H 492.653 -3.71749 -1.36449 0
M  V30 5375 H 493.827 -4.38522 1.41545 0
M  V30 5376 H 492.142 -4.00842 1.1276 0
M  V30 5377 H 494.739 -5.15926 -1.40445 0
M  V30 5378 H 495.082 -3.59443 -2.10015 0
M  V30 5379 H 495.615 -3.95362 -0.439778 0
M  V30 5380 H 492.354 -6.43676 1.23939 0
M  V30 5381 H 491.874 -5.98382 -0.412212 0
M  V30 5382 H 493.553 -6.46962 -0.0697393 0
M  V30 5383 N 493.685 -0.035106 -1.57561 0
M  V30 5384 C 494.615 0.942993 -2.13612 0
M  V30 5385 C 495.596 1.33531 -1.05373 0
M  V30 5386 O 496.781 1.41287 -1.33235 0
M  V30 5387 C 493.911 2.22332 -2.66807 0
M  V30 5388 C 492.865 1.97156 -3.79886 0
M  V30 5389 C 492.191 3.31506 -4.19533 0
M  V30 5390 C 493.491 1.30596 -5.05709 0
M  V30 5391 H 495.185 0.476179 -2.95589 0
M  V30 5392 H 492.731 0.227602 -1.4219 0
M  V30 5393 H 494.684 2.91142 -3.04654 0
M  V30 5394 H 493.408 2.7119 -1.81999 0
M  V30 5395 H 492.067 1.30763 -3.42486 0
M  V30 5396 H 491.715 3.78134 -3.31698 0
M  V30 5397 H 491.415 3.15465 -4.95738 0
M  V30 5398 H 492.939 4.01574 -4.59968 0
M  V30 5399 H 494.353 1.89416 -5.41105 0
M  V30 5400 H 492.75 1.24934 -5.86951 0
M  V30 5401 H 493.82 0.279742 -4.84092 0
M  V30 5402 N 495.163 1.55791 0.238111 0
M  V30 5403 C 496.11 1.9105 1.29493 0
M  V30 5404 C 497.08 0.765733 1.47397 0
M  V30 5405 O 498.265 1.02017 1.61236 0
M  V30 5406 C 495.405 2.21826 2.64362 0
M  V30 5407 C 494.518 3.49153 2.54394 0
M  V30 5408 C 493.653 3.69455 3.81676 0
M  V30 5409 C 492.692 4.90353 3.66361 0
M  V30 5410 N 491.829 5.07131 4.85554 0
M  V30 5411 H 496.669 2.81172 0.987233 0
M  V30 5412 H 494.206 1.39179 0.476203 0
M  V30 5413 H 496.164 2.37675 3.4288 0
M  V30 5414 H 494.794 1.34897 2.93262 0
M  V30 5415 H 493.846 3.41587 1.67399 0
M  V30 5416 H 495.158 4.37818 2.38991 0
M  V30 5417 H 494.312 3.85311 4.68636 0
M  V30 5418 H 493.051 2.7904 3.99985 0
M  V30 5419 H 492.056 4.74464 2.77784 0
M  V30 5420 H 493.281 5.82237 3.49538 0
M  V30 5421 H 491.227 4.19654 5.04209 0
M  V30 5422 H 491.144 5.89899 4.72816 0
M  V30 5423 H 492.412 5.27407 5.73988 0
M  V30 5424 N 496.642 -0.504142 1.49319 0
M  V30 5425 C 497.589 -1.60603 1.65756 0
M  V30 5426 C 498.559 -1.58425 0.499082 0
M  V30 5427 O 499.744 -1.76459 0.725728 0
M  V30 5428 C 496.884 -2.98764 1.72726 0
M  V30 5429 C 495.997 -3.10982 2.99857 0
M  V30 5430 C 495.132 -4.39857 2.97824 0
M  V30 5431 C 494.171 -4.45697 4.19548 0
M  V30 5432 N 493.308 -5.65995 4.15444 0
M  V30 5433 H 498.148 -1.45895 2.59843 0
M  V30 5434 H 495.685 -0.709891 1.28837 0
M  V30 5435 H 497.643 -3.78839 1.74747 0
M  V30 5436 H 496.273 -3.12183 0.821075 0
M  V30 5437 H 495.325 -2.23991 3.07461 0
M  V30 5438 H 496.637 -3.11157 3.89849 0
M  V30 5439 H 495.791 -5.2825 2.98391 0
M  V30 5440 H 494.53 -4.42242 2.05604 0
M  V30 5441 H 493.535 -3.55707 4.19229 0
M  V30 5442 H 494.76 -4.4503 5.12957 0
M  V30 5443 H 492.706 -5.69229 3.26059 0
M  V30 5444 H 492.623 -5.67773 4.99169 0
M  V30 5445 H 493.891 -6.56604 4.20109 0
M  V30 5446 N 498.12 -1.38341 -0.754957 0
M  V30 5447 C 499.366 -1.34672 -1.51628 0
M  V30 5448 C 499.699 0.0636036 -1.94096 0
M  V30 5449 O 498.974 1.0245 -1.6533 0
M  V30 5450 C 499.257 -2.30116 -2.76981 0
M  V30 5451 C 499.11 -3.80003 -2.4066 0
M  V30 5452 C 500.429 -2.23715 -3.78998 0
M  V30 5453 H 497.548 -0.490517 -0.550056 0
M  V30 5454 H 500.19 -1.69178 -0.864807 0
M  V30 5455 H 498.34 -2.00821 -3.3257 0
M  V30 5456 H 500.012 -4.19966 -1.90856 0
M  V30 5457 H 498.255 -3.97751 -1.73137 0
M  V30 5458 H 498.926 -4.42244 -3.30339 0
M  V30 5459 H 501.402 -2.49574 -3.32945 0
M  V30 5460 H 500.278 -2.9261 -4.64403 0
M  V30 5461 H 500.539 -1.23554 -4.24484 0
M  V30 5462 N 499.598 0.982988 -1.23187 0
M  V30 5463 C 500.545 2.07491 -1.01075 0
M  V30 5464 C 501.515 1.65949 0.070905 0
M  V30 5465 O 502.7 1.90629 -0.0806822 0
M  V30 5466 C 499.84 3.39751 -0.605261 0
M  V30 5467 C 498.953 3.94578 -1.75876 0
M  V30 5468 C 498.088 5.15039 -1.3003 0
M  V30 5469 C 497.127 5.62027 -2.42472 0
M  V30 5470 N 496.264 6.73719 -1.97602 0
M  V30 5471 H 501.104 2.25739 -1.9454 0
M  V30 5472 H 498.641 1.10659 -0.969179 0
M  V30 5473 H 500.599 4.15719 -0.351279 0
M  V30 5474 H 499.229 3.21473 0.292382 0
M  V30 5475 H 498.281 3.1539 -2.12681 0
M  V30 5476 H 499.593 4.25422 -2.60418 0
M  V30 5477 H 498.747 5.9833 -1.00429 0
M  V30 5478 H 497.486 4.85843 -0.425216 0
M  V30 5479 H 496.491 4.77318 -2.7285 0
M  V30 5480 H 497.716 5.93244 -3.30512 0
M  V30 5481 H 495.662 6.46287 -1.1247 0
M  V30 5482 H 495.579 7.03934 -2.75705 0
M  V30 5483 H 496.847 7.6049 -1.71098 0
M  V30 5484 N 501.076 1.04316 1.18135 0
M  V30 5485 C 501.986 0.646876 2.25505 0
M  V30 5486 C 503.002 -0.328008 1.7088 0
M  V30 5487 O 504.178 -0.182309 2.00573 0
M  V30 5488 C 501.243 0.0185664 3.46695 0
M  V30 5489 C 500.304 1.04277 4.16443 0
M  V30 5490 C 499.537 0.444352 5.31847 0
M  V30 5491 O 499.76 -0.748735 5.65465 0
M  V30 5492 O 498.694 1.17428 5.90334 0
M  V30 5493 H 502.52 1.54147 2.61672 0
M  V30 5494 H 500.105 0.814188 1.25265 0
M  V30 5495 H 501.987 -0.331068 4.20097 0
M  V30 5496 H 500.662 -0.849814 3.12346 0
M  V30 5497 H 499.569 1.44425 3.45098 0
M  V30 5498 H 500.902 1.882 4.54798 0
M  V30 5499 N 502.554 -1.34406 0.822964 0
M  V30 5500 C 503.464 -2.33298 0.246838 0
M  V30 5501 C 504.48 -1.62625 -0.618797 0
M  V30 5502 O 505.656 -1.94391 -0.526685 0
M  V30 5503 C 502.721 -3.41785 -0.581731 0
M  V30 5504 C 501.782 -4.28206 0.306309 0
M  V30 5505 C 501.015 -5.31512 -0.48281 0
M  V30 5506 O 501.238 -5.43973 -1.71607 0
M  V30 5507 O 500.172 -6.01749 0.134884 0
M  V30 5508 H 503.998 -2.84401 1.06534 0
M  V30 5509 H 501.583 -1.37466 0.585108 0
M  V30 5510 H 503.465 -4.08028 -1.05313 0
M  V30 5511 H 502.14 -2.92925 -1.37756 0
M  V30 5512 H 501.047 -3.64885 0.825199 0
M  V30 5513 H 502.38 -4.80507 1.06649 0
M  V30 5514 N 504.032 -0.577932 -1.46621 0
M  V30 5515 C 505.262 -0.0670668 -2.06491 0
M  V30 5516 C 505.67 1.24119 -1.42798 0
M  V30 5517 O 505.013 1.76016 -0.525759 0
M  V30 5518 C 505.075 0.177995 -3.59059 0
M  V30 5519 C 504.739 -1.04394 -4.44917 0
M  V30 5520 C 505.736 -1.95479 -4.81751 0
M  V30 5521 C 503.421 -1.26444 -4.86125 0
M  V30 5522 C 505.415 -3.06965 -5.58615 0
M  V30 5523 C 503.102 -2.38237 -5.62749 0
M  V30 5524 C 504.1 -3.28327 -5.98908 0
M  V30 5525 O 503.788 -4.38179 -6.73984 0
M  V30 5526 H 503.52 -0.0523159 -0.673973 0
M  V30 5527 H 506.074 -0.796966 -1.89308 0
M  V30 5528 H 504.304 0.962451 -3.74531 0
M  V30 5529 H 505.993 0.636782 -4.00874 0
M  V30 5530 H 506.759 -1.79657 -4.50498 0
M  V30 5531 H 502.638 -0.572316 -4.57434 0
M  V30 5532 H 506.182 -3.77309 -5.86757 0
M  V30 5533 H 502.079 -2.54023 -5.93416 0
M  V30 5534 H 502.847 -4.36486 -6.92403 0
M  V30 5535 N 505.51 1.54411 -0.315457 0
M  V30 5536 C 506.458 2.25514 0.569771 0
M  V30 5537 C 507.452 1.2663 1.12522 0
M  V30 5538 O 508.658 1.44434 1.07419 0
M  V30 5539 H 505.033 0.724257 0.202376 0
M  V30 5540 H 507.004 2.98354 -0.0522895 0
M  V30 5541 C 505.753 3.02004 1.72305 0
M  V30 5542 H 505.076 3.77906 1.30488 0
M  V30 5543 H 506.516 3.55014 2.31821 0
M  V30 5544 C 504.975 2.09822 2.63583 0
M  V30 5545 O 505.505 1.67574 3.65078 0
M  V30 5546 N 503.711 1.75478 2.31637 0
M  V30 5547 H 503.258 2.10032 1.49145 0
M  V30 5548 H 503.216 1.14079 2.92973 0
M  V30 5549 N 506.988 0.0434614 1.5754 0
M  V30 5550 C 508.399 -0.493343 1.80064 0
M  V30 5551 C 508.75 -1.71388 0.955023 0
M  V30 5552 O 507.875 -2.15736 0.169434 0
M  V30 5553 C 508.47 -0.90179 3.26578 0
M  V30 5554 C 507.029 -1.38362 3.50047 0
M  V30 5555 C 506.176 -0.355129 2.75017 0
M  V30 5556 H 509.127 0.2694 1.56397 0
M  V30 5557 H 509.148 -1.76523 3.37075 0
M  V30 5558 H 508.66 -0.013271 3.88098 0
M  V30 5559 H 506.761 -2.29159 2.93798 0
M  V30 5560 H 506.874 -1.3811 4.58762 0
M  V30 5561 H 505.238 -0.826348 2.40922 0
M  V30 5562 H 506.021 0.525172 3.39259 0
M  V30 5563 N 508.466 -1.55915 -0.229846 0
M  V30 5564 C 509.877 -1.68809 -0.797531 0
M  V30 5565 C 510.228 -0.643995 -1.8533 0
M  V30 5566 O 509.353 0.206492 -2.15413 0
M  V30 5567 C 509.948 -3.06043 -1.45338 0
M  V30 5568 C 508.507 -3.20819 -1.96856 0
M  V30 5569 C 507.654 -2.6472 -0.825736 0
M  V30 5570 H 510.605 -1.58699 -0.00533733 0
M  V30 5571 H 510.626 -3.01438 -2.32196 0
M  V30 5572 H 510.138 -3.82012 -0.684743 0
M  V30 5573 H 508.239 -2.49704 -2.76548 0
M  V30 5574 H 508.352 -4.27937 -2.15423 0
M  V30 5575 H 506.716 -2.22985 -1.23084 0
M  V30 5576 H 507.499 -3.43229 -0.0699019 0
M  V30 5577 N 509.944 0.496216 -1.49584 0
M  V30 5578 C 510.854 1.62352 -1.69349 0
M  V30 5579 C 511.87 1.64184 -0.576147 0
M  V30 5580 O 513.046 1.82517 -0.85144 0
M  V30 5581 C 510.111 2.98698 -1.76013 0
M  V30 5582 C 509.172 3.07454 -2.99617 0
M  V30 5583 C 508.405 4.37296 -3.05953 0
M  V30 5584 O 508.628 5.2637 -2.19752 0
M  V30 5585 O 507.562 4.51124 -3.9846 0
M  V30 5586 H 511.388 1.48606 -2.64859 0
M  V30 5587 H 508.973 0.673022 -1.33382 0
M  V30 5588 H 510.855 3.79725 -1.82721 0
M  V30 5589 H 509.53 3.12696 -0.836828 0
M  V30 5590 H 508.437 2.25597 -2.98424 0
M  V30 5591 H 509.77 2.98385 -3.91443 0
M  V30 5592 N 511.423 1.38739 0.74761 0
M  V30 5593 C 512.669 1.35475 1.50912 0
M  V30 5594 C 513.002 -0.0533093 1.94127 0
M  V30 5595 O 512.277 -1.01572 1.65871 0
M  V30 5596 C 512.56 2.31582 2.75757 0
M  V30 5597 C 512.413 3.81274 2.38642 0
M  V30 5598 C 513.732 2.25722 3.77806 0
M  V30 5599 H 510.851 0.493427 0.547447 0
M  V30 5600 H 513.493 1.69634 0.855823 0
M  V30 5601 H 511.643 2.02582 3.31501 0
M  V30 5602 H 513.315 4.20972 1.88626 0
M  V30 5603 H 511.558 3.98664 1.71025 0
M  V30 5604 H 512.229 4.4399 3.27989 0
M  V30 5605 H 514.705 2.51336 3.31616 0
M  V30 5606 H 513.581 2.95069 4.62845 0
M  V30 5607 H 513.842 1.25803 4.23823 0
M  V30 5608 N 512.901 -0.976442 1.23707 0
M  V30 5609 C 514.131 -1.75087 1.09673 0
M  V30 5610 C 514.539 -1.85852 -0.354344 0
M  V30 5611 O 513.882 -1.33985 -1.25673 0
M  V30 5612 C 513.944 -3.19272 1.65245 0
M  V30 5613 C 513.608 -3.32004 3.14042 0
M  V30 5614 C 514.605 -3.18017 4.11292 0
M  V30 5615 C 512.29 -3.56525 3.53829 0
M  V30 5616 C 514.284 -3.28363 5.46312 0
M  V30 5617 C 511.971 -3.6651 4.88993 0
M  V30 5618 C 512.969 -3.52439 5.85043 0
M  V30 5619 O 512.657 -3.62063 7.1775 0
M  V30 5620 H 512.389 -0.556164 0.384262 0
M  V30 5621 H 514.943 -1.23518 1.64111 0
M  V30 5622 H 513.173 -3.72107 1.05231 0
M  V30 5623 H 514.862 -3.7849 1.46629 0
M  V30 5624 H 515.628 -2.98966 3.81896 0
M  V30 5625 H 511.507 -3.66547 2.79579 0
M  V30 5626 H 515.051 -3.17297 6.21263 0
M  V30 5627 H 510.948 -3.85072 5.18063 0
M  V30 5628 H 511.716 -3.78833 7.25553 0
M  V30 5629 N 514.379 -1.04941 -1.1758 0
M  V30 5630 C 515.628 -0.753124 -1.87112 0
M  V30 5631 C 515.941 0.722507 -1.81767 0
M  V30 5632 O 517.147 1.13265 -2.46746 0
M  V30 5633 C 515.603 -1.29695 -3.35719 0
M  V30 5634 C 515.211 -2.80184 -3.49572 0
M  V30 5635 C 516.955 -1.07759 -4.10595 0
M  V30 5636 C 514.862 -3.2788 -4.92187 0
M  V30 5637 H 513.792 -0.278034 -0.700866 0
M  V30 5638 H 516.443 -1.26637 -1.32798 0
M  V30 5639 H 514.825 -0.711522 -3.89555 0
M  V30 5640 H 515.999 -3.44561 -3.05965 0
M  V30 5641 H 514.314 -3.00632 -2.88113 0
M  V30 5642 H 516.911 -1.40899 -5.15802 0
M  V30 5643 H 517.254 -0.0152302 -4.16297 0
M  V30 5644 H 517.787 -1.62809 -3.62957 0
M  V30 5645 H 514.526 -4.33535 -4.91658 0
M  V30 5646 H 514.046 -2.68245 -5.36475 0
M  V30 5647 H 515.725 -3.22412 -5.60945 0
M  V30 5648 N 515.857 1.33968 -0.830081 0
M  V30 5649 C 517.085 2.0228 -0.434773 0
M  V30 5650 C 517.5 1.62487 0.961419 0
M  V30 5651 O 516.857 0.833849 1.62337 0
M  V30 5652 C 516.908 3.5751 -0.535625 0
M  V30 5653 O 516.629 3.95864 -1.87679 0
M  V30 5654 C 518.13 4.43091 -0.136137 0
M  V30 5655 H 515.35 0.648151 -0.173613 0
M  V30 5656 H 517.894 1.71089 -1.12022 0
M  V30 5657 H 516.049 3.87266 0.101817 0
M  V30 5658 H 516.463 4.9056 -1.85609 0
M  V30 5659 H 517.937 5.51398 -0.257772 0
M  V30 5660 H 518.414 4.29433 0.921076 0
M  V30 5661 H 519.02 4.18677 -0.747662 0
M  V30 5662 N 517.335 0.585699 1.46312 0
M  V30 5663 C 518.245 -0.148236 2.34131 0
M  V30 5664 C 519.261 -0.882972 1.49932 0
M  V30 5665 O 520.437 -0.845484 1.82794 0
M  V30 5666 C 517.502 -1.14714 3.27172 0
M  V30 5667 C 516.563 -0.416746 4.27272 0
M  V30 5668 C 515.796 -1.36806 5.15868 0
M  V30 5669 O 516.019 -2.60475 5.07454 0
M  V30 5670 O 514.953 -0.877018 5.95476 0
M  V30 5671 H 518.779 0.572882 2.98248 0
M  V30 5672 H 516.364 0.346082 1.45336 0
M  V30 5673 H 518.246 -1.72303 3.84564 0
M  V30 5674 H 516.921 -1.84967 2.65648 0
M  V30 5675 H 515.828 0.201061 3.73559 0
M  V30 5676 H 517.161 0.244872 4.9159 0
M  V30 5677 N 518.813 -1.54241 0.323641 0
M  V30 5678 C 519.761 -2.25813 -0.557804 0
M  V30 5679 C 520.755 -1.27225 -1.11849 0
M  V30 5680 O 521.961 -1.45001 -1.06652 0
M  V30 5681 H 518.336 -0.72532 -0.198532 0
M  V30 5682 H 520.307 -2.98322 0.0681112 0
M  V30 5683 C 519.056 -3.02913 -1.70701 0
M  V30 5684 H 518.379 -3.78593 -1.28482 0
M  V30 5685 H 519.819 -3.56238 -2.29935 0
M  V30 5686 C 518.278 -2.11217 -2.62467 0
M  V30 5687 O 518.808 -1.69508 -3.64184 0
M  V30 5688 N 517.014 -1.76704 -2.30703 0
M  V30 5689 H 516.561 -2.1082 -1.48029 0
M  V30 5690 H 516.519 -1.15631 -2.92364 0
M  V30 5691 N 520.291 -0.0518155 -1.57515 0
M  V30 5692 C 521.539 0.620595 -1.92336 0
M  V30 5693 C 521.86 1.71345 -0.930907 0
M  V30 5694 O 521.13 1.95885 0.0241341 0
M  V30 5695 H 519.71 0.232226 -0.709986 0
M  V30 5696 H 522.372 -0.104969 -1.94617 0
M  V30 5697 H 521.468 1.05879 -2.93592 0
M  V30 5698 N 521.769 1.56035 0.221574 0
M  V30 5699 C 522.732 1.91584 1.2581 0
M  V30 5700 C 523.732 0.794425 1.39805 0
M  V30 5701 O 524.922 1.06217 1.38071 0
M  V30 5702 C 522.054 2.16663 2.63192 0
M  V30 5703 H 523.247 2.8429 0.954935 0
M  V30 5704 H 520.8 1.49316 0.461988 0
M  V30 5705 H 521.535 1.26508 2.98607 0
M  V30 5706 H 521.32 2.98358 2.5441 0
M  V30 5707 H 522.81 2.45262 3.37988 0
M  V30 5708 N 523.247 -0.488276 1.49845 0
M  V30 5709 C 524.21 -1.57069 1.66919 0
M  V30 5710 C 525.21 -1.51445 0.540479 0
M  V30 5711 O 526.4 -1.5437 0.807188 0
M  V30 5712 C 523.532 -2.96718 1.67844 0
M  V30 5713 H 524.725 -1.43254 2.63474 0
M  V30 5714 H 522.278 -0.713435 1.39068 0
M  V30 5715 H 523.013 -3.15996 0.7292 0
M  V30 5716 H 522.798 -3.02208 2.49826 0
M  V30 5717 H 524.288 -3.75335 1.83066 0
M  V30 5718 N 524.725 -1.39134 -0.740242 0
M  V30 5719 C 525.972 -1.36071 -1.49969 0
M  V30 5720 C 526.3 0.0450245 -1.94448 0
M  V30 5721 O 525.555 1.02482 -1.66721 0
M  V30 5722 C 525.854 -2.27457 -2.75678 0
M  V30 5723 C 525.52 -3.75185 -2.50094 0
M  V30 5724 C 524.182 -4.15439 -2.42825 0
M  V30 5725 C 526.534 -4.68643 -2.28086 0
M  V30 5726 C 523.862 -5.4722 -2.11584 0
M  V30 5727 C 526.214 -6.00695 -1.98363 0
M  V30 5728 C 524.878 -6.40018 -1.8956 0
M  V30 5729 H 524.148 -0.497921 -0.548777 0
M  V30 5730 H 526.795 -1.71599 -0.85007 0
M  V30 5731 H 525.1 -1.8503 -3.45356 0
M  V30 5732 H 526.797 -2.22384 -3.33686 0
M  V30 5733 H 523.387 -3.43279 -2.56627 0
M  V30 5734 H 527.571 -4.3838 -2.32672 0
M  V30 5735 H 522.827 -5.76615 -2.03287 0
M  V30 5736 H 527.001 -6.72644 -1.80341 0
M  V30 5737 H 524.628 -7.42051 -1.65117 0
M  V30 5738 N 526.204 0.969867 -1.24223 0
M  V30 5739 C 527.481 1.68774 -0.988664 0
M  V30 5740 C 527.861 2.05342 0.489673 0
M  V30 5741 O 527.209 1.75486 1.46345 0
M  V30 5742 C 527.419 2.92135 -1.90941 0
M  V30 5743 C 528.767 3.64422 -2.17903 0
M  V30 5744 O 529.791 3.02188 -1.88576 0
M  V30 5745 O 528.65 4.76446 -2.67697 0
M  V30 5746 H 525.744 0.737736 -0.37373 0
M  V30 5747 H 528.29 1.02415 -1.35312 0
M  V30 5748 H 527.062 2.61788 -2.90831 0
M  V30 5749 H 526.685 3.66228 -1.54798 0
M  V30 5750 N 527.682 1.05563 1.17022 0
M  V30 5751 C 528.959 0.68165 1.83338 0
M  V30 5752 C 529.339 -0.837665 1.93769 0
M  V30 5753 O 528.687 -1.74507 1.47511 0
M  V30 5754 C 528.897 1.375 3.20772 0
M  V30 5755 C 530.245 1.51545 3.96635 0
M  V30 5756 O 531.269 1.33431 3.30264 0
M  V30 5757 O 530.128 1.812 5.15586 0
M  V30 5758 H 527.222 0.240412 0.791285 0
M  V30 5759 H 529.768 1.15545 1.24288 0
M  V30 5760 H 528.54 2.41135 3.08171 0
M  V30 5761 H 528.163 0.890798 3.87493 0
M  V30 5762 N 529.16 -1.33526 0.837174 0
M  V30 5763 C 530.406 -1.9813 0.432704 0
M  V30 5764 C 530.739 -1.66168 -1.00508 0
M  V30 5765 O 530.014 -0.94069 -1.70239 0
M  V30 5766 C 530.297 -3.54151 0.651834 0
M  V30 5767 C 530.15 -3.95806 2.13676 0
M  V30 5768 C 531.469 -4.39993 0.0968937 0
M  V30 5769 H 528.588 -0.719713 0.15869 0
M  V30 5770 H 531.23 -1.58193 1.05237 0
M  V30 5771 H 529.38 -3.88301 0.124369 0
M  V30 5772 H 531.052 -3.71921 2.72896 0
M  V30 5773 H 529.295 -3.45599 2.62191 0
M  V30 5774 H 529.966 -5.0447 2.24084 0
M  V30 5775 H 532.442 -4.12479 0.547733 0
M  V30 5776 H 531.318 -5.48186 0.279917 0
M  V30 5777 H 531.579 -4.3066 -0.9992 0
M  V30 5778 N 530.638 -0.59345 -1.46 0
M  V30 5779 C 531.884 -0.0832754 -2.02629 0
M  V30 5780 C 532.217 1.27749 -1.46266 0
M  V30 5781 O 531.492 1.8395 -0.631866 0
M  V30 5782 C 531.775 -0.0290756 -3.60088 0
M  V30 5783 C 531.628 -1.41951 -4.26814 0
M  V30 5784 C 532.947 0.666055 -4.35031 0
M  V30 5785 H 530.066 -0.031736 -0.736316 0
M  V30 5786 H 532.708 -0.762711 -1.74019 0
M  V30 5787 H 530.858 0.549532 -3.84594 0
M  V30 5788 H 532.53 -2.04411 -4.13538 0
M  V30 5789 H 530.773 -1.98422 -3.8576 0
M  V30 5790 H 531.444 -1.33395 -5.3564 0
M  V30 5791 H 533.92 0.174401 -4.15734 0
M  V30 5792 H 532.796 0.673041 -5.44758 0
M  V30 5793 H 533.057 1.72946 -4.06869 0
M  V30 5794 N 532.116 1.54067 -0.331816 0
M  V30 5795 C 533.341 2.05599 0.272705 0
M  V30 5796 C 533.766 1.2059 1.44359 0
M  V30 5797 O 533.124 0.216907 1.79998 0
M  V30 5798 C 533.172 3.54188 0.677021 0
M  V30 5799 O 532.276 3.72082 1.77844 0
M  V30 5800 H 531.617 0.662286 0.0476801 0
M  V30 5801 H 534.147 1.98826 -0.482624 0
M  V30 5802 H 534.157 3.96608 0.957415 0
M  V30 5803 H 532.832 4.15513 -0.179325 0
M  V30 5804 H 531.409 3.41566 1.49622 0
M  V30 5805 N 533.594 0.0601682 1.57485 0
M  V30 5806 C 534.504 -0.926121 2.15546 0
M  V30 5807 C 535.52 -1.33532 1.11558 0
M  V30 5808 O 536.696 -1.4104 1.4377 0
M  V30 5809 C 533.761 -2.17952 2.69625 0
M  V30 5810 C 532.822 -1.82783 3.88444 0
M  V30 5811 C 532.055 -3.02148 4.39935 0
M  V30 5812 O 532.278 -4.15803 3.90466 0
M  V30 5813 O 531.212 -2.82639 5.31412 0
M  V30 5814 H 535.038 -0.462289 3.00161 0
M  V30 5815 H 532.623 -0.162246 1.48516 0
M  V30 5816 H 534.505 -2.91474 3.04337 0
M  V30 5817 H 533.18 -2.63456 1.88077 0
M  V30 5818 H 532.087 -1.06549 3.58606 0
M  V30 5819 H 533.42 -1.42072 4.7125 0
M  V30 5820 N 535.072 -1.5615 -0.213296 0
M  V30 5821 C 536.349 -1.70349 -0.961281 0
M  V30 5822 C 536.729 -0.609791 -2.02101 0
M  V30 5823 O 536.077 0.381987 -2.25285 0
M  V30 5824 C 536.287 -3.11982 -1.56424 0
M  V30 5825 C 537.635 -3.71649 -2.05334 0
M  V30 5826 O 538.659 -3.14995 -1.66302 0
M  V30 5827 O 537.518 -4.71038 -2.77102 0
M  V30 5828 H 534.612 -0.694121 -0.449582 0
M  V30 5829 H 537.158 -1.68464 -0.204426 0
M  V30 5830 H 535.93 -3.83046 -0.799457 0
M  V30 5831 H 535.553 -3.18019 -2.38641 0
M  V30 5832 N 536.55 0.480323 -1.50102 0
M  V30 5833 C 537.798 1.23063 -1.60312 0
M  V30 5834 C 538.119 1.92659 -0.301226 0
M  V30 5835 O 537.389 1.83691 0.680753 0
M  V30 5836 H 535.969 0.457231 -0.590719 0
M  V30 5837 H 538.631 0.554893 -1.86834 0
M  V30 5838 H 537.727 1.9835 -2.40964 0
M  V30 5839 N 538.028 1.39524 0.732853 0
M  V30 5840 C 539.444 1.21176 1.03868 0
M  V30 5841 C 539.644 0.0748448 2.01361 0
M  V30 5842 O 538.7 -0.57281 2.45917 0
M  V30 5843 C 540.013 2.54667 1.59892 0
M  V30 5844 C 541.561 2.6153 1.71962 0
M  V30 5845 C 542.036 3.95248 2.31394 0
M  V30 5846 N 543.527 3.96899 2.38801 0
M  V30 5847 C 544.262 4.97138 2.85729 0
M  V30 5848 N 543.758 6.07775 3.32537 0
M  V30 5849 N 545.551 4.84516 2.84957 0
M  V30 5850 H 537.702 2.12225 0.086304 0
M  V30 5851 H 539.965 0.942614 0.100907 0
M  V30 5852 H 539.671 3.38423 0.95721 0
M  V30 5853 H 539.545 2.74538 2.58668 0
M  V30 5854 H 541.932 1.78156 2.35254 0
M  V30 5855 H 542.013 2.45507 0.718327 0
M  V30 5856 H 541.657 4.79054 1.68729 0
M  V30 5857 H 541.587 4.08593 3.32204 0
M  V30 5858 H 544.078 3.16998 2.05719 0
M  V30 5859 H 544.391 6.8017 3.66862 0
M  V30 5860 H 542.736 6.11366 3.30541 0
M  V30 5861 H 545.927 3.97185 2.47713 0
M  V30 5862 H 546.1 5.62783 3.21215 0
M  V30 5863 N 539.506 -0.963266 1.24736 0
M  V30 5864 C 540.752 -1.70933 1.09131 0
M  V30 5865 C 541.085 -1.90676 -0.368273 0
M  V30 5866 O 540.36 -1.47147 -1.27193 0
M  V30 5867 C 540.643 -3.09744 1.83658 0
M  V30 5868 C 540.496 -2.97465 3.37394 0
M  V30 5869 C 541.815 -4.09483 1.61282 0
M  V30 5870 H 538.934 -0.620398 0.397838 0
M  V30 5871 H 541.576 -1.12028 1.53459 0
M  V30 5872 H 539.726 -3.60031 1.4598 0
M  V30 5873 H 541.398 -2.54571 3.84696 0
M  V30 5874 H 539.641 -2.33576 3.65547 0
M  V30 5875 H 540.312 -3.95822 3.84745 0
M  V30 5876 H 542.788 -3.68073 1.94066 0
M  V30 5877 H 541.664 -5.04666 2.15878 0
M  V30 5878 H 541.925 -4.38639 0.552102 0
M  V30 5879 N 540.985 -1.06182 -1.16461 0
M  V30 5880 C 541.935 -0.641619 -2.18786 0
M  V30 5881 C 542.919 0.327122 -1.5754 0
M  V30 5882 O 544.111 0.142746 -1.76423 0
M  V30 5883 C 541.24 -0.0283734 -3.43288 0
M  V30 5884 C 540.326 -1.02154 -4.11613 0
M  V30 5885 N 540.717 -2.19671 -4.55608 0
M  V30 5886 C 539.015 -0.852229 -4.37782 0
M  V30 5887 C 539.716 -2.82583 -5.0845 0
M  V30 5888 N 538.692 -2.10318 -5.01266 0
M  V30 5889 H 542.494 -1.53684 -2.50516 0
M  V30 5890 H 540.008 -0.933349 -1.329 0
M  V30 5891 H 542.005 0.29049 -4.15887 0
M  V30 5892 H 540.665 0.862118 -3.13046 0
M  V30 5893 H 541.676 -2.57453 -4.49375 0
M  V30 5894 H 538.353 -0.0136314 -4.17498 0
M  V30 5895 H 539.743 -3.82298 -5.52538 0
M  V30 5896 N 542.463 1.3308 -0.844243 0
M  V30 5897 C 543.74 1.92178 -0.364261 0
M  V30 5898 C 544.12 1.76961 1.15101 0
M  V30 5899 O 543.468 1.16128 1.9679 0
M  V30 5900 C 543.678 3.393 -0.817106 0
M  V30 5901 C 545.026 4.16444 -0.828236 0
M  V30 5902 O 546.05 3.47975 -0.761062 0
M  V30 5903 O 544.909 5.38685 -0.920926 0
M  V30 5904 H 542.003 0.820411 -0.10419 0
M  V30 5905 H 544.549 1.41918 -0.930453 0
M  V30 5906 H 543.321 3.44272 -1.85991 0
M  V30 5907 H 542.944 3.96947 -0.227785 0
M  V30 5908 N 543.941 0.601185 1.45683 0
M  V30 5909 C 544.873 -0.159446 2.28645 0
M  V30 5910 C 545.886 -0.837882 1.39583 0
M  V30 5911 O 547.075 -0.704344 1.64016 0
M  V30 5912 C 544.175 -1.24641 3.15147 0
M  V30 5913 C 543.348 -0.656334 4.32448 0
M  V30 5914 C 542.407 -1.63337 5.00208 0
M  V30 5915 O 541.433 -1.16217 5.57209 0
M  V30 5916 N 542.635 -2.96773 4.98905 0
M  V30 5917 H 545.4 0.5524 2.94565 0
M  V30 5918 H 542.961 0.440223 1.558 0
M  V30 5919 H 544.953 -1.8997 3.57342 0
M  V30 5920 H 543.523 -1.86087 2.51178 0
M  V30 5921 H 542.743 0.174879 3.93812 0
M  V30 5922 H 544.031 -0.242211 5.08223 0
M  V30 5923 H 543.429 -3.37662 4.53873 0
M  V30 5924 H 541.986 -3.57541 5.44984 0
M  V30 5925 N 545.419 -1.53889 0.339982 0
M  V30 5926 C 546.367 -2.26391 -0.533822 0
M  V30 5927 C 547.361 -1.28404 -1.10493 0
M  V30 5928 O 548.567 -1.46124 -1.05108 0
M  V30 5929 H 544.942 -0.727385 -0.190828 0
M  V30 5930 H 546.913 -2.98233 0.0997484 0
M  V30 5931 C 545.662 -3.04707 -1.67479 0
M  V30 5932 H 544.985 -3.79934 -1.2446 0
M  V30 5933 H 546.425 -3.58657 -2.26144 0
M  V30 5934 C 544.884 -2.13989 -2.60212 0
M  V30 5935 O 545.414 -1.73361 -3.62366 0
M  V30 5936 N 543.62 -1.79141 -2.28816 0
M  V30 5937 H 543.167 -2.12378 -1.45785 0
M  V30 5938 H 543.125 -1.18725 -2.91121 0
M  V30 5939 N 546.897 -0.0685191 -1.57451 0
M  V30 5940 C 548.313 0.288101 -1.56978 0
M  V30 5941 C 548.513 1.70262 -1.07765 0
M  V30 5942 O 547.569 2.4135 -0.742054 0
M  V30 5943 C 548.882 0.100745 -3.00531 0
M  V30 5944 C 550.43 0.170531 -3.12535 0
M  V30 5945 C 550.905 0.0114944 -4.57999 0
M  V30 5946 N 552.396 0.0672065 -4.63151 0
M  V30 5947 C 553.131 -0.0314813 -5.73391 0
M  V30 5948 N 552.627 -0.183503 -6.92557 0
M  V30 5949 N 554.42 0.0253489 -5.62094 0
M  V30 5950 H 546.571 -0.993026 -1.87757 0
M  V30 5951 H 548.834 -0.386981 -0.865419 0
M  V30 5952 H 548.54 -0.875197 -3.40636 0
M  V30 5953 H 548.414 0.854457 -3.67395 0
M  V30 5954 H 550.801 1.13696 -2.72318 0
M  V30 5955 H 550.882 -0.614229 -2.48316 0
M  V30 5956 H 550.526 -0.951684 -4.98904 0
M  V30 5957 H 550.456 0.815617 -5.20245 0
M  V30 5958 H 552.947 0.183246 -3.77455 0
M  V30 5959 H 553.26 -0.251041 -7.72392 0
M  V30 5960 H 551.605 -0.218822 -6.94655 0
M  V30 5961 H 554.796 0.142794 -4.67882 0
M  V30 5962 H 554.969 -0.0550166 -6.47977 0
M  V30 5963 N 548.375 1.56261 0.205012 0
M  V30 5964 C 549.624 1.79236 0.925058 0
M  V30 5965 C 549.937 0.640011 1.84833 0
M  V30 5966 O 551.143 0.753809 2.60826 0
M  V30 5967 C 549.599 3.17475 1.69522 0
M  V30 5968 C 549.207 4.40482 0.817269 0
M  V30 5969 C 550.951 3.49766 2.4055 0
M  V30 5970 C 548.858 5.69744 1.58573 0
M  V30 5971 H 547.788 0.668287 0.349153 0
M  V30 5972 H 550.439 1.82629 0.178544 0
M  V30 5973 H 548.821 3.08304 2.48526 0
M  V30 5974 H 549.995 4.60752 0.0665988 0
M  V30 5975 H 548.31 4.15827 0.218316 0
M  V30 5976 H 550.907 4.43573 2.98575 0
M  V30 5977 H 551.25 2.73041 3.14252 0
M  V30 5978 H 551.783 3.60341 1.68522 0
M  V30 5979 H 548.522 6.49407 0.891679 0
M  V30 5980 H 548.042 5.53509 2.31059 0
M  V30 5981 H 549.721 6.1051 2.14212 0
M  V30 5982 N 549.853 -0.472356 1.50355 0
M  V30 5983 C 551.13 -1.23356 1.51798 0
M  V30 5984 C 551.51 -2.09469 0.26193 0
M  V30 5985 O 550.858 -2.15677 -0.754691 0
M  V30 5986 C 551.068 -2.06568 2.81302 0
M  V30 5987 C 552.416 -2.648 3.31913 0
M  V30 5988 O 553.44 -2.16812 2.82614 0
M  V30 5989 O 552.299 -3.52231 4.17846 0
M  V30 5990 H 549.393 -0.559707 0.608816 0
M  V30 5991 H 551.939 -0.48428 1.62643 0
M  V30 5992 H 550.711 -1.43103 3.64194 0
M  V30 5993 H 550.334 -2.88633 2.73454 0
M  V30 5994 N 551.331 -1.39911 -0.725443 0
M  V30 5995 C 552.561 -1.40744 -1.51244 0
M  V30 5996 C 552.969 -0.00275403 -1.892 0
M  V30 5997 O 552.312 0.981299 -1.55294 0
M  V30 5998 C 552.374 -2.22527 -2.82351 0
M  V30 5999 C 552.038 -3.71053 -2.66774 0
M  V30 6000 C 553.035 -4.63916 -2.34686 0
M  V30 6001 C 550.72 -4.14753 -2.83347 0
M  V30 6002 C 552.714 -5.98463 -2.19366 0
M  V30 6003 C 550.401 -5.49372 -2.67644 0
M  V30 6004 C 551.399 -6.41042 -2.357 0
M  V30 6005 O 551.087 -7.73181 -2.20107 0
M  V30 6006 H 550.819 -0.482314 -0.473655 0
M  V30 6007 H 553.373 -1.84472 -0.903284 0
M  V30 6008 H 551.603 -1.73563 -3.45562 0
M  V30 6009 H 553.292 -2.15421 -3.44018 0
M  V30 6010 H 554.058 -4.31453 -2.21525 0
M  V30 6011 H 549.937 -3.43728 -3.072 0
M  V30 6012 H 553.481 -6.69979 -1.94354 0
M  V30 6013 H 549.378 -5.81424 -2.80387 0
M  V30 6014 H 550.146 -7.84008 -2.35103 0
M  V30 6015 N 552.809 0.956637 -1.25245 0
M  V30 6016 C 553.739 2.07058 -1.07931 0
M  V30 6017 C 554.72 1.70096 0.0110361 0
M  V30 6018 O 555.905 1.93555 -0.158121 0
M  V30 6019 C 553.035 3.40272 -0.695124 0
M  V30 6020 C 551.989 3.91235 -1.73549 0
M  V30 6021 C 551.315 5.20921 -1.20604 0
M  V30 6022 C 552.615 4.17837 -3.13385 0
M  V30 6023 H 554.309 2.218 -2.01109 0
M  V30 6024 H 551.855 1.06581 -0.968326 0
M  V30 6025 H 553.808 4.1765 -0.560949 0
M  V30 6026 H 552.532 3.25462 0.272355 0
M  V30 6027 H 551.191 3.16025 -1.85807 0
M  V30 6028 H 550.839 5.02479 -0.228846 0
M  V30 6029 H 550.539 5.55987 -1.90136 0
M  V30 6030 H 552.063 6.00897 -1.08421 0
M  V30 6031 H 553.477 4.8588 -3.04292 0
M  V30 6032 H 551.874 4.64154 -3.80369 0
M  V30 6033 H 552.944 3.2419 -3.60595 0
M  V30 6034 N 554.287 1.06798 1.15896 0
M  V30 6035 C 555.234 0.683314 2.20453 0
M  V30 6036 C 556.204 -0.32255 1.62938 0
M  V30 6037 O 557.389 -0.210276 1.89638 0
M  V30 6038 C 554.529 0.0813266 3.45004 0
M  V30 6039 C 553.642 1.13799 4.16742 0
M  V30 6040 C 552.777 0.501598 5.28826 0
M  V30 6041 C 551.816 1.54144 5.92373 0
M  V30 6042 N 550.953 0.928038 6.9594 0
M  V30 6043 H 555.793 1.57932 2.52708 0
M  V30 6044 H 553.33 0.789544 1.24115 0
M  V30 6045 H 555.288 -0.285274 4.16224 0
M  V30 6046 H 553.918 -0.77806 3.13283 0
M  V30 6047 H 552.97 1.62223 3.44075 0
M  V30 6048 H 554.282 1.92664 4.60089 0
M  V30 6049 H 553.436 0.0823162 6.06644 0
M  V30 6050 H 552.175 -0.318883 4.86656 0
M  V30 6051 H 551.18 1.97056 5.13273 0
M  V30 6052 H 552.405 2.3641 6.36621 0
M  V30 6053 H 550.351 0.12836 6.55874 0
M  V30 6054 H 550.268 1.65401 7.37685 0
M  V30 6055 H 551.536 0.534071 7.77668 0
M  V30 6056 N 555.766 -1.3263 0.851289 0
M  V30 6057 C 556.729 -2.27247 0.298541 0
M  V30 6058 C 557.729 -1.51467 -0.539847 0
M  V30 6059 O 558.919 -1.7061 -0.351843 0
M  V30 6060 C 556.051 -3.35964 -0.578004 0
M  V30 6061 H 557.244 -2.7765 1.13359 0
M  V30 6062 H 554.797 -1.43245 0.625354 0
M  V30 6063 H 555.532 -2.90823 -1.435 0
M  V30 6064 H 555.317 -3.92094 0.0220539 0
M  V30 6065 H 556.807 -4.06472 -0.957626 0
M  V30 6066 N 557.244 -0.608902 -1.45362 0
M  V30 6067 C 558.194 0.130616 -2.27626 0
M  V30 6068 C 559.178 0.837323 -1.37396 0
M  V30 6069 O 560.37 0.727096 -1.61376 0
M  V30 6070 C 557.499 1.12646 -3.24293 0
M  V30 6071 C 556.585 0.42052 -4.2201 0
M  V30 6072 N 556.976 -0.538569 -5.02925 0
M  V30 6073 C 555.274 0.667901 -4.40971 0
M  V30 6074 C 555.975 -0.953625 -5.7383 0
M  V30 6075 N 554.951 -0.297097 -5.42788 0
M  V30 6076 H 558.753 -0.605996 -2.87585 0
M  V30 6077 H 556.267 -0.432672 -1.5653 0
M  V30 6078 H 558.264 1.67066 -3.81961 0
M  V30 6079 H 556.924 1.86361 -2.65894 0
M  V30 6080 H 557.935 -0.915375 -5.09746 0
M  V30 6081 H 554.612 1.38963 -3.93695 0
M  V30 6082 H 556.002 -1.74473 -6.48852 0
M  V30 6083 N 558.722 1.53707 -0.348139 0
M  V30 6084 C 559.971 2.0017 0.247992 0
M  V30 6085 C 560.284 1.23983 1.51286 0
M  V30 6086 O 561.49 1.60946 2.18652 0
M  V30 6087 C 559.946 3.56515 0.492459 0
M  V30 6088 C 559.554 4.41562 -0.756777 0
M  V30 6089 C 561.298 4.11381 1.0472 0
M  V30 6090 C 559.205 5.89426 -0.482856 0
M  V30 6091 H 558.135 0.747806 0.0964452 0
M  V30 6092 H 560.786 1.77532 -0.464179 0
M  V30 6093 H 559.168 3.75236 1.26545 0
M  V30 6094 H 560.342 4.34615 -1.53122 0
M  V30 6095 H 558.657 3.97711 -1.23348 0
M  V30 6096 H 561.254 5.19468 1.26717 0
M  V30 6097 H 561.597 3.64885 2.00411 0
M  V30 6098 H 562.13 3.96389 0.334801 0
M  V30 6099 H 558.869 6.40164 -1.40962 0
M  V30 6100 H 558.389 5.99264 0.253416 0
M  V30 6101 H 560.068 6.4692 -0.101816 0
M  V30 6102 N 560.2 0.0768682 1.57412 0
M  V30 6103 C 561.448 -0.589918 1.93299 0
M  V30 6104 C 561.769 -1.69842 0.958049 0
M  V30 6105 O 561.039 -1.95899 0.00703261 0
M  V30 6106 H 559.619 -0.220901 0.713591 0
M  V30 6107 H 562.281 0.135917 1.94425 0
M  V30 6108 H 561.377 -1.01195 2.95239 0
M  V30 6109 N 561.678 -1.56367 -0.196722 0
M  V30 6110 C 562.61 -1.90941 -1.26784 0
M  V30 6111 C 563.623 -0.799928 -1.41792 0
M  V30 6112 O 564.812 -1.07833 -1.42247 0
M  V30 6113 C 561.912 -2.12477 -2.6402 0
M  V30 6114 C 561.085 -3.43616 -2.70641 0
M  V30 6115 C 560.144 -3.54284 -3.89062 0
M  V30 6116 O 559.17 -4.2712 -3.76241 0
M  V30 6117 N 560.372 -2.87252 -5.04447 0
M  V30 6118 H 563.137 -2.83417 -0.974417 0
M  V30 6119 H 560.698 -1.57215 -0.386649 0
M  V30 6120 H 562.69 -2.16904 -3.41665 0
M  V30 6121 H 561.26 -1.26508 -2.85857 0
M  V30 6122 H 560.48 -3.51072 -1.79283 0
M  V30 6123 H 561.768 -4.29958 -2.72054 0
M  V30 6124 H 561.166 -2.27901 -5.17762 0
M  V30 6125 H 559.723 -2.97308 -5.80044 0
M  V30 6126 N 563.156 0.464375 -1.50603 0
M  V30 6127 C 564.119 1.54393 -1.69397 0
M  V30 6128 C 565.119 1.50566 -0.564504 0
M  V30 6129 O 566.309 1.53066 -0.831645 0
M  V30 6130 C 563.441 2.9401 -1.72543 0
M  V30 6131 H 564.634 1.39044 -2.65719 0
M  V30 6132 H 562.187 0.69122 -1.40185 0
M  V30 6133 H 562.922 3.14795 -0.77938 0
M  V30 6134 H 562.707 2.98195 -2.54602 0
M  V30 6135 H 564.197 3.72375 -1.89015 0
M  V30 6136 N 564.634 1.40294 0.718013 0
M  V30 6137 C 565.88 1.39648 1.47885 0
M  V30 6138 C 566.235 -0.0023879 1.924 0
M  V30 6139 O 565.528 -0.972304 1.65096 0
M  V30 6140 C 565.722 2.31814 2.72024 0
M  V30 6141 C 565.551 3.80523 2.3965 0
M  V30 6142 C 564.321 4.49351 2.3111 0
M  V30 6143 C 566.519 4.72077 2.04079 0
M  V30 6144 N 564.501 5.83305 1.91385 0
M  V30 6145 C 565.872 5.94809 1.74935 0
M  V30 6146 C 567.927 4.59935 1.90694 0
M  V30 6147 C 566.63 7.06755 1.33753 0
M  V30 6148 C 568.656 5.7182 1.50915 0
M  V30 6149 C 568.018 6.93637 1.22668 0
M  V30 6150 H 564.117 0.566263 0.539324 0
M  V30 6151 H 566.701 1.75986 0.832891 0
M  V30 6152 H 564.872 1.97607 3.34374 0
M  V30 6153 H 566.604 2.22042 3.38348 0
M  V30 6154 H 563.359 4.03002 2.4877 0
M  V30 6155 H 563.783 6.54239 1.74068 0
M  V30 6156 H 568.425 3.66274 2.11194 0
M  V30 6157 H 566.143 8.00302 1.11995 0
M  V30 6158 H 569.729 5.64421 1.4114 0
M  V30 6159 H 568.609 7.78743 0.923502 0
M  V30 6160 N 566.112 -0.949982 1.2575 0
M  V30 6161 C 567.059 -2.04738 1.06541 0
M  V30 6162 C 568.029 -1.66078 -0.0268818 0
M  V30 6163 O 569.214 -1.90348 0.131196 0
M  V30 6164 C 566.354 -3.38027 0.695127 0
M  V30 6165 C 565.467 -3.89776 1.86276 0
M  V30 6166 C 564.602 -5.11411 1.4364 0
M  V30 6167 C 563.641 -5.554 2.57287 0
M  V30 6168 N 562.778 -6.68244 2.15395 0
M  V30 6169 H 567.618 -2.20502 2.00457 0
M  V30 6170 H 565.155 -1.0805 0.998178 0
M  V30 6171 H 567.113 -4.14641 0.461375 0
M  V30 6172 H 565.743 -3.22135 -0.207046 0
M  V30 6173 H 564.795 -3.0964 2.20969 0
M  V30 6174 H 566.107 -4.18368 2.71606 0
M  V30 6175 H 565.261 -5.95457 1.16257 0
M  V30 6176 H 564 -4.84545 0.553879 0
M  V30 6177 H 563.005 -4.69916 2.85409 0
M  V30 6178 H 564.23 -5.84272 3.46125 0
M  V30 6179 H 562.176 -6.43078 1.29565 0
M  V30 6180 H 562.093 -6.96377 2.94272 0
M  V30 6181 H 563.361 -7.55687 1.91201 0
M  V30 6182 N 567.59 -1.07411 -1.15328 0
M  V30 6183 C 568.553 -0.698914 -2.18284 0
M  V30 6184 C 569.553 0.261149 -1.58665 0
M  V30 6185 O 570.743 0.0420277 -1.74149 0
M  V30 6186 C 567.875 -0.0302427 -3.40887 0
M  V30 6187 H 569.068 -1.61045 -2.52991 0
M  V30 6188 H 566.621 -0.870724 -1.298 0
M  V30 6189 H 567.356 0.893505 -3.11748 0
M  V30 6190 H 567.141 -0.720759 -3.85419 0
M  V30 6191 H 568.631 0.21759 -4.17033 0
M  V30 6192 N 569.068 1.32177 -0.85831 0
M  V30 6193 C 570.317 1.96392 -0.459689 0
M  V30 6194 C 570.63 1.68659 0.990632 0
M  V30 6195 O 571.836 2.26641 1.49485 0
M  V30 6196 C 570.292 3.51542 -0.7711 0
M  V30 6197 C 569.9 3.8813 -2.2374 0
M  V30 6198 C 571.644 4.2221 -0.44038 0
M  V30 6199 C 569.551 5.36341 -2.49183 0
M  V30 6200 H 568.481 0.735007 -0.168169 0
M  V30 6201 H 571.132 1.50518 -1.0496 0
M  V30 6202 H 569.514 3.95846 -0.11058 0
M  V30 6203 H 570.688 3.54824 -2.94001 0
M  V30 6204 H 569.003 3.30497 -2.533 0
M  V30 6205 H 571.6 5.31234 -0.607855 0
M  V30 6206 H 571.943 4.11683 0.618291 0
M  V30 6207 H 572.476 3.83502 -1.05695 0
M  V30 6208 H 569.215 5.51892 -3.53689 0
M  V30 6209 H 568.735 5.7104 -1.83504 0
M  V30 6210 H 570.414 6.03466 -2.33318 0
M  V30 6211 N 570.547 0.616602 1.45037 0
M  V30 6212 C 571.479 -0.135186 2.28801 0
M  V30 6213 C 572.492 -0.82303 1.40464 0
M  V30 6214 O 573.681 -0.686909 1.64754 0
M  V30 6215 C 570.781 -1.21292 3.16451 0
M  V30 6216 C 569.954 -0.61043 4.3312 0
M  V30 6217 C 569.013 -1.58022 5.01912 0
M  V30 6218 O 568.039 -1.10301 5.58411 0
M  V30 6219 N 569.241 -2.91464 5.02025 0
M  V30 6220 H 572.006 0.583612 2.93963 0
M  V30 6221 H 569.567 0.456723 1.55324 0
M  V30 6222 H 571.559 -1.86169 3.59337 0
M  V30 6223 H 570.129 -1.83412 2.53138 0
M  V30 6224 H 569.349 0.216638 3.93604 0
M  V30 6225 H 570.637 -0.188293 5.08451 0
M  V30 6226 H 570.035 -3.32829 4.57429 0
M  V30 6227 H 568.592 -3.51741 5.48745 0
M  V30 6228 N 572.025 -1.5352 0.356285 0
M  V30 6229 C 572.935 -2.29151 -0.502712 0
M  V30 6230 C 573.951 -1.34753 -1.1008 0
M  V30 6231 O 575.127 -1.67803 -1.11374 0
M  V30 6232 C 572.192 -3.05911 -1.63154 0
M  V30 6233 C 571.253 -4.15958 -1.06194 0
M  V30 6234 C 570.486 -4.8905 -2.13696 0
M  V30 6235 O 570.709 -4.61919 -3.34645 0
M  V30 6236 O 569.643 -5.75202 -1.77275 0
M  V30 6237 H 573.469 -3.03492 0.112466 0
M  V30 6238 H 571.054 -1.4891 0.120942 0
M  V30 6239 H 572.936 -3.53874 -2.28804 0
M  V30 6240 H 571.611 -2.34415 -2.23229 0
M  V30 6241 H 570.518 -3.7227 -0.369603 0
M  V30 6242 H 571.851 -4.89593 -0.505872 0
M  V30 6243 N 573.503 -0.0852151 -1.57369 0
M  V30 6244 C 574.751 0.579658 -1.93609 0
M  V30 6245 C 575.072 1.69332 -0.967043 0
M  V30 6246 O 574.342 1.95892 -0.0174215 0
M  V30 6247 H 572.922 0.217113 -0.714752 0
M  V30 6248 H 575.584 -0.146226 -1.94351 0
M  V30 6249 H 574.68 0.996276 -2.95771 0
M  V30 6250 N 574.981 1.5647 0.188427 0
M  V30 6251 C 576.227 1.81281 0.909124 0
M  V30 6252 C 576.56 0.66034 1.82628 0
M  V30 6253 O 575.835 -0.338737 1.91528 0
M  V30 6254 C 576.118 3.16388 1.7196 0
M  V30 6255 C 575.971 4.42137 0.826714 0
M  V30 6256 C 577.29 3.48256 2.69083 0
M  V30 6257 H 574.409 0.659457 0.329068 0
M  V30 6258 H 577.051 1.89182 0.176156 0
M  V30 6259 H 575.201 3.09784 2.34448 0
M  V30 6260 H 576.873 4.60794 0.216025 0
M  V30 6261 H 575.116 4.33594 0.133792 0
M  V30 6262 H 575.787 5.33184 1.42893 0
M  V30 6263 H 578.263 3.55203 2.16726 0
M  V30 6264 H 577.139 4.43899 3.2287 0
M  V30 6265 H 577.4 2.72088 3.48455 0
M  V30 6266 N 576.459 -0.456382 1.50847 0
M  V30 6267 C 577.87 -1.03685 1.55262 0
M  V30 6268 C 578.221 -1.92779 0.364771 0
M  V30 6269 O 577.346 -2.10043 -0.52068 0
M  V30 6270 C 577.941 -1.88718 2.81374 0
M  V30 6271 C 576.5 -2.41847 2.88422 0
M  V30 6272 C 575.647 -1.20564 2.49719 0
M  V30 6273 H 578.598 -0.238399 1.56899 0
M  V30 6274 H 578.619 -2.73957 2.6406 0
M  V30 6275 H 578.131 -1.23847 3.67809 0
M  V30 6276 H 576.232 -3.10228 2.06372 0
M  V30 6277 H 576.345 -2.75947 3.9165 0
M  V30 6278 H 574.709 -1.54504 2.02486 0
M  V30 6279 H 575.492 -0.573326 3.38479 0
M  V30 6280 N 577.937 -1.40673 -0.710563 0
M  V30 6281 C 578.867 -1.44095 -1.83736 0
M  V30 6282 C 579.848 -0.301286 -1.67411 0
M  V30 6283 O 581.033 -0.510618 -1.87367 0
M  V30 6284 C 578.163 -1.30773 -3.21738 0
M  V30 6285 C 577.117 -2.42395 -3.52745 0
M  V30 6286 C 576.443 -2.14147 -4.89944 0
M  V30 6287 C 577.743 -3.84738 -3.53234 0
M  V30 6288 H 579.437 -2.38396 -1.81129 0
M  V30 6289 H 576.983 -1.14746 -0.870017 0
M  V30 6290 H 578.936 -1.31783 -4.00264 0
M  V30 6291 H 577.66 -0.329507 -3.24934 0
M  V30 6292 H 576.319 -2.40643 -2.76562 0
M  V30 6293 H 575.967 -1.14703 -4.89747 0
M  V30 6294 H 575.667 -2.88934 -5.11655 0
M  V30 6295 H 577.191 -2.16848 -5.70797 0
M  V30 6296 H 578.605 -3.88286 -4.2179 0
M  V30 6297 H 577.002 -4.59085 -3.86473 0
M  V30 6298 H 578.072 -4.13962 -2.52514 0
M  V30 6299 N 579.415 0.9433 -1.26252 0
M  V30 6300 C 580.362 2.0417 -1.07625 0
M  V30 6301 C 581.332 1.6609 0.0180738 0
M  V30 6302 O 582.517 1.90276 -0.141289 0
M  V30 6303 C 579.657 3.37653 -0.713043 0
M  V30 6304 C 578.77 3.88783 -1.8834 0
M  V30 6305 C 577.905 5.10642 -1.4635 0
M  V30 6306 C 576.944 5.54028 -2.60229 0
M  V30 6307 N 576.081 6.67092 -2.18936 0
M  V30 6308 H 580.921 2.19436 -2.01623 0
M  V30 6309 H 578.458 1.07519 -1.00389 0
M  V30 6310 H 580.416 4.14391 -0.483358 0
M  V30 6311 H 579.046 3.22241 0.18996 0
M  V30 6312 H 578.098 3.08464 -2.22608 0
M  V30 6313 H 579.41 4.16922 -2.73821 0
M  V30 6314 H 578.564 5.94832 -1.19414 0
M  V30 6315 H 577.303 4.84244 -0.579568 0
M  V30 6316 H 576.308 4.68396 -2.87898 0
M  V30 6317 H 577.533 5.82429 -3.49219 0
M  V30 6318 H 575.479 6.42381 -1.32974 0
M  V30 6319 H 575.396 6.94806 -2.97961 0
M  V30 6320 H 576.664 7.54662 -1.95206 0
M  V30 6321 N 580.893 1.08022 1.14757 0
M  V30 6322 C 582.141 0.805913 1.85336 0
M  V30 6323 C 582.462 -0.670162 1.83122 0
M  V30 6324 O 581.732 -1.48567 1.2769 0
M  V30 6325 H 580.312 0.295138 0.686223 0
M  V30 6326 H 582.974 1.36538 1.3908 0
M  V30 6327 H 582.07 1.14655 2.90277 0
M  V30 6328 N 582.371 -1.3172 0.865308 0
M  V30 6329 C 583.601 -2.00765 0.487543 0
M  V30 6330 C 584.009 -1.65145 -0.92325 0
M  V30 6331 O 583.352 -0.874294 -1.61561 0
M  V30 6332 C 583.414 -3.55122 0.559369 0
M  V30 6333 C 583.078 -4.14202 1.93095 0
M  V30 6334 C 584.075 -4.3165 2.89784 0
M  V30 6335 C 581.76 -4.50036 2.23099 0
M  V30 6336 C 583.754 -4.84114 4.14623 0
M  V30 6337 C 581.441 -5.02203 3.48189 0
M  V30 6338 C 582.439 -5.19192 4.43767 0
M  V30 6339 O 582.127 -5.70241 5.6664 0
M  V30 6340 H 581.859 -0.649066 0.188915 0
M  V30 6341 H 584.413 -1.69032 1.16694 0
M  V30 6342 H 582.643 -3.86295 -0.176926 0
M  V30 6343 H 584.332 -4.05428 0.195694 0
M  V30 6344 H 585.098 -4.04288 2.6791 0
M  V30 6345 H 580.977 -4.36091 1.49485 0
M  V30 6346 H 584.521 -4.9729 4.89233 0
M  V30 6347 H 580.418 -5.28997 3.69908 0
M  V30 6348 H 581.186 -5.88617 5.68746 0
M  V30 6349 N 583.85 -0.624285 -1.44708 0
M  V30 6350 C 585.096 -0.126051 -2.02107 0
M  V30 6351 C 585.425 1.2496 -1.49048 0
M  V30 6352 O 584.68 1.84163 -0.662005 0
M  V30 6353 C 584.979 -0.0546353 -3.57358 0
M  V30 6354 C 584.644 -1.36815 -4.29642 0
M  V30 6355 C 583.307 -1.72792 -4.49106 0
M  V30 6356 C 585.659 -2.23549 -4.70824 0
M  V30 6357 C 582.986 -2.95222 -5.07012 0
M  V30 6358 C 585.339 -3.45243 -5.30085 0
M  V30 6359 C 584.003 -3.81452 -5.47769 0
M  V30 6360 H 583.273 -0.0461252 -0.739563 0
M  V30 6361 H 585.92 -0.809236 -1.73562 0
M  V30 6362 H 584.225 0.711891 -3.85278 0
M  V30 6363 H 585.922 0.347282 -3.99493 0
M  V30 6364 H 582.512 -1.07817 -4.14817 0
M  V30 6365 H 586.696 -1.9705 -4.55505 0
M  V30 6366 H 581.952 -3.23361 -5.18891 0
M  V30 6367 H 586.125 -4.12689 -5.60946 0
M  V30 6368 H 583.753 -4.76403 -5.92405 0
M  V30 6369 N 585.328 1.53329 -0.364422 0
M  V30 6370 C 586.574 2.01537 0.225969 0
M  V30 6371 C 586.907 1.25128 1.48515 0
M  V30 6372 O 586.182 0.344653 1.91422 0
M  V30 6373 C 586.465 3.56339 0.519092 0
M  V30 6374 C 586.318 4.43441 -0.753639 0
M  V30 6375 C 587.637 4.19833 1.32015 0
M  V30 6376 H 584.756 0.732573 0.0806548 0
M  V30 6377 H 587.398 1.83597 -0.489084 0
M  V30 6378 H 585.548 3.71756 1.12825 0
M  V30 6379 H 587.22 4.39823 -1.39116 0
M  V30 6380 H 585.463 4.11457 -1.37424 0
M  V30 6381 H 586.134 5.49699 -0.503517 0
M  V30 6382 H 588.61 4.08242 0.804859 0
M  V30 6383 H 587.486 5.28177 1.49399 0
M  V30 6384 H 587.747 3.75821 2.32832 0
M  V30 6385 N 586.806 0.0935595 1.57322 0
M  V30 6386 C 588.052 -0.565234 1.95388 0
M  V30 6387 C 588.407 -1.65888 0.974632 0
M  V30 6388 O 587.7 -1.916 0.000376385 0
M  V30 6389 C 587.894 -1.16692 3.37813 0
M  V30 6390 C 587.723 -0.133091 4.49503 0
M  V30 6391 C 586.493 0.289884 5.04468 0
M  V30 6392 C 588.691 0.638141 5.10326 0
M  V30 6393 N 586.673 1.31214 5.99713 0
M  V30 6394 C 588.044 1.51227 6.01274 0
M  V30 6395 C 590.099 0.691827 4.9307 0
M  V30 6396 C 588.802 2.43536 6.76818 0
M  V30 6397 C 590.828 1.60251 5.69274 0
M  V30 6398 C 590.19 2.46427 6.59889 0
M  V30 6399 H 586.289 -0.177212 0.761656 0
M  V30 6400 H 588.873 0.175769 1.93905 0
M  V30 6401 H 587.044 -1.87775 3.39993 0
M  V30 6402 H 588.776 -1.78795 3.63063 0
M  V30 6403 H 585.531 -0.0975541 4.735 0
M  V30 6404 H 585.955 1.82143 6.52038 0
M  V30 6405 H 590.597 0.0397431 4.22781 0
M  V30 6406 H 588.315 3.0977 7.4637 0
M  V30 6407 H 591.901 1.64917 5.57937 0
M  V30 6408 H 590.781 3.15751 7.17824 0
M  V30 6409 N 588.284 -1.56567 -0.180126 0
M  V30 6410 C 589.509 -1.85975 -0.918041 0
M  V30 6411 C 589.934 -0.678888 -1.75422 0
M  V30 6412 O 589.292 0.372168 -1.77439 0
M  V30 6413 C 589.34 -3.13731 -1.77779 0
M  V30 6414 O 588.444 -2.95335 -2.87838 0
M  V30 6415 H 587.785 -0.61196 -0.257683 0
M  V30 6416 H 590.315 -2.03798 -0.180923 0
M  V30 6417 H 590.325 -3.4491 -2.17948 0
M  V30 6418 H 589 -3.99293 -1.16352 0
M  V30 6419 H 587.577 -2.7549 -2.51316 0
M  V30 6420 N 589.762 0.448376 -1.51087 0
M  V30 6421 C 590.692 1.55102 -1.74544 0
M  V30 6422 C 591.673 1.59357 -0.594932 0
M  V30 6423 O 592.858 1.75261 -0.836491 0
M  V30 6424 C 589.988 2.93268 -1.86041 0
M  V30 6425 C 588.942 3.03877 -3.01402 0
M  V30 6426 C 588.268 4.43914 -2.98068 0
M  V30 6427 C 589.568 2.7898 -4.41551 0
M  V30 6428 H 591.262 1.35724 -2.66869 0
M  V30 6429 H 588.808 0.651498 -1.28419 0
M  V30 6430 H 590.761 3.70356 -2.01034 0
M  V30 6431 H 589.485 3.13853 -0.903548 0
M  V30 6432 H 588.144 2.29227 -2.86096 0
M  V30 6433 H 587.792 4.6145 -2.00182 0
M  V30 6434 H 587.492 4.51944 -3.75527 0
M  V30 6435 H 589.016 5.22991 -3.1514 0
M  V30 6436 H 590.43 3.45805 -4.57265 0
M  V30 6437 H 588.827 2.98431 -5.20633 0
M  V30 6438 H 589.897 1.74663 -4.5235 0
M  V30 6439 N 591.24 1.41047 0.703093 0
M  V30 6440 C 592.17 1.45067 1.82969 0
M  V30 6441 C 593.151 0.31016 1.67248 0
M  V30 6442 O 594.336 0.520548 1.87093 0
M  V30 6443 C 591.466 1.32478 3.2104 0
M  V30 6444 C 590.42 2.44262 3.51454 0
M  V30 6445 C 589.746 2.16742 4.88801 0
M  V30 6446 C 591.046 3.86606 3.51189 0
M  V30 6447 H 592.74 2.39353 1.79863 0
M  V30 6448 H 590.286 1.15206 0.863919 0
M  V30 6449 H 592.239 1.33904 3.99559 0
M  V30 6450 H 590.963 0.346735 3.24754 0
M  V30 6451 H 589.622 2.42107 2.75282 0
M  V30 6452 H 589.27 1.17299 4.89132 0
M  V30 6453 H 588.97 2.91643 5.10116 0
M  V30 6454 H 590.494 2.19872 5.69639 0
M  V30 6455 H 591.908 3.90517 4.19725 0
M  V30 6456 H 590.305 4.61128 3.84033 0
M  V30 6457 H 591.375 4.15296 2.50315 0
M  V30 6458 N 592.718 -0.936591 1.26751 0
M  V30 6459 C 593.995 -1.66094 1.03306 0
M  V30 6460 C 594.375 -2.06568 -0.435058 0
M  V30 6461 O 593.723 -1.79305 -1.41641 0
M  V30 6462 C 593.933 -2.86969 1.98619 0
M  V30 6463 C 595.281 -3.58516 2.27489 0
M  V30 6464 O 596.305 -2.97082 1.96522 0
M  V30 6465 O 595.164 -4.69181 2.80235 0
M  V30 6466 H 592.258 -0.727568 0.393158 0
M  V30 6467 H 594.804 -0.987914 1.3798 0
M  V30 6468 H 593.576 -2.53985 2.9767 0
M  V30 6469 H 593.199 -3.61996 1.64454 0
M  V30 6470 N 594.196 -1.08629 -1.14182 0
M  V30 6471 C 595.144 -0.71284 -2.21408 0
M  V30 6472 C 596.138 0.282457 -1.67029 0
M  V30 6473 O 597.344 0.144783 -1.79417 0
M  V30 6474 H 593.719 -0.212497 -0.721352 0
M  V30 6475 H 595.69 -1.6265 -2.50175 0
M  V30 6476 C 594.439 -0.140704 -3.47415 0
M  V30 6477 H 593.762 -0.897739 -3.8959 0
M  V30 6478 H 595.202 0.0827677 -4.23919 0
M  V30 6479 C 593.661 1.122 -3.17668 0
M  V30 6480 O 594.191 2.20652 -3.35672 0
M  V30 6481 N 592.397 1.03328 -2.71609 0
M  V30 6482 H 591.944 0.150666 -2.57159 0
M  V30 6483 H 591.902 1.8789 -2.52081 0
M  V30 6484 N 595.674 1.31259 -0.872281 0
M  V30 6485 C 596.921 1.96622 -0.484365 0
M  V30 6486 C 597.249 1.68939 0.963841 0
M  V30 6487 O 596.504 0.97974 1.6941 0
M  V30 6488 C 596.803 3.50659 -0.690889 0
M  V30 6489 C 596.469 3.98366 -2.11224 0
M  V30 6490 C 595.131 4.11104 -2.50094 0
M  V30 6491 C 597.483 4.23425 -3.0391 0
M  V30 6492 C 594.811 4.46254 -3.80887 0
M  V30 6493 C 597.163 4.60039 -4.3422 0
M  V30 6494 C 595.827 4.70984 -4.73001 0
M  V30 6495 H 595.097 0.71949 -0.177242 0
M  V30 6496 H 597.744 1.56353 -1.10571 0
M  V30 6497 H 596.049 3.91798 0.0135782 0
M  V30 6498 H 597.746 3.99284 -0.370534 0
M  V30 6499 H 594.336 3.88949 -1.80047 0
M  V30 6500 H 598.52 4.13075 -2.75104 0
M  V30 6501 H 593.776 4.52926 -4.10692 0
M  V30 6502 H 597.95 4.78381 -5.06088 0
M  V30 6503 H 595.577 4.97977 -5.7439 0
M  V30 6504 N 597.152 0.631951 1.44375 0
M  V30 6505 C 598.062 -0.073674 2.34484 0
M  V30 6506 C 599.078 -0.834825 1.52665 0
M  V30 6507 O 600.254 -0.786902 1.85391 0
M  V30 6508 C 597.319 -1.04247 3.30656 0
M  V30 6509 C 596.38 -0.280602 4.28382 0
M  V30 6510 C 595.613 -1.20325 5.19959 0
M  V30 6511 O 595.836 -2.44199 5.15484 0
M  V30 6512 O 594.77 -0.687128 5.97965 0
M  V30 6513 H 598.596 0.667477 2.96274 0
M  V30 6514 H 596.181 0.392144 1.44162 0
M  V30 6515 H 598.063 -1.59981 3.89851 0
M  V30 6516 H 596.738 -1.76422 2.71398 0
M  V30 6517 H 595.645 0.319804 3.72731 0
M  V30 6518 H 596.978 0.401144 4.90563 0
M  V30 6519 N 598.631 -1.53133 0.372548 0
M  V30 6520 C 599.877 -2.02336 -0.207823 0
M  V30 6521 C 600.232 -1.25477 -1.45853 0
M  V30 6522 O 599.525 -0.341971 -1.88524 0
M  V30 6523 C 599.719 -3.53206 -0.545938 0
M  V30 6524 C 599.548 -4.44674 0.670454 0
M  V30 6525 C 598.318 -4.91217 1.18465 0
M  V30 6526 C 600.516 -4.90772 1.53777 0
M  V30 6527 N 598.498 -5.66711 2.36034 0
M  V30 6528 C 599.869 -5.64678 2.56004 0
M  V30 6529 C 601.924 -4.72836 1.55983 0
M  V30 6530 C 600.627 -6.22555 3.60303 0
M  V30 6531 C 602.653 -5.31583 2.59179 0
M  V30 6532 C 602.015 -6.05381 3.6013 0
M  V30 6533 H 598.114 -0.781048 -0.0385783 0
M  V30 6534 H 600.698 -1.87665 0.518664 0
M  V30 6535 H 598.869 -3.68024 -1.24149 0
M  V30 6536 H 600.601 -3.89123 -1.112 0
M  V30 6537 H 597.356 -4.67652 0.748205 0
M  V30 6538 H 597.78 -6.09117 2.95475 0
M  V30 6539 H 602.422 -4.15299 0.792877 0
M  V30 6540 H 600.14 -6.79183 4.37876 0
M  V30 6541 H 603.726 -5.19595 2.61749 0
M  V30 6542 H 602.606 -6.50028 4.38672 0
M  V30 6543 N 600.109 -0.101901 -1.5727 0
M  V30 6544 C 601.072 0.840129 -2.13247 0
M  V30 6545 C 602.072 1.20625 -1.06331 0
M  V30 6546 O 603.262 1.13456 -1.32186 0
M  V30 6547 C 600.394 2.13372 -2.65867 0
M  V30 6548 H 601.587 0.353945 -2.97804 0
M  V30 6549 H 599.14 0.147167 -1.55606 0
M  V30 6550 H 599.875 2.66461 -1.84849 0
M  V30 6551 H 599.66 1.88085 -3.44044 0
M  V30 6552 H 601.15 2.80748 -3.09145 0
M  V30 6553 N 601.587 1.56661 0.17182 0
M  V30 6554 C 602.497 1.99604 1.2327 0
M  V30 6555 C 603.513 0.907333 1.4847 0
M  V30 6556 O 604.689 1.21492 1.60629 0
M  V30 6557 C 601.754 2.34685 2.55194 0
M  V30 6558 C 600.815 3.57381 2.3786 0
M  V30 6559 C 600.048 3.90779 3.63494 0
M  V30 6560 O 600.271 3.25152 4.6865 0
M  V30 6561 O 599.205 4.84129 3.57634 0
M  V30 6562 H 603.031 2.90114 0.898192 0
M  V30 6563 H 600.616 1.44522 0.378647 0
M  V30 6564 H 602.498 2.5822 3.33017 0
M  V30 6565 H 601.173 1.47336 2.88225 0
M  V30 6566 H 600.08 3.39064 1.5807 0
M  V30 6567 H 601.413 4.45268 2.09754 0
M  V30 6568 N 603.065 -0.440357 1.51323 0
M  V30 6569 C 604.313 -1.18769 1.63518 0
M  V30 6570 C 604.634 -1.91793 0.352201 0
M  V30 6571 O 603.904 -1.85432 -0.631811 0
M  V30 6572 H 602.484 -0.441408 0.602634 0
M  V30 6573 H 605.146 -0.505162 1.8824 0
M  V30 6574 H 604.242 -1.91892 2.46138 0
M  V30 6575 N 604.543 -1.41418 -0.695603 0
M  V30 6576 C 605.773 -1.43921 -1.48224 0
M  V30 6577 C 606.181 -0.0428855 -1.89151 0
M  V30 6578 O 605.524 0.948138 -1.5734 0
M  V30 6579 C 605.586 -2.28466 -2.77567 0
M  V30 6580 C 605.25 -3.76629 -2.58844 0
M  V30 6581 C 606.247 -4.6879 -2.24793 0
M  V30 6582 C 603.932 -4.2067 -2.74485 0
M  V30 6583 C 605.926 -6.02981 -2.06622 0
M  V30 6584 C 603.613 -5.54926 -2.55931 0
M  V30 6585 C 604.611 -6.45897 -2.2205 0
M  V30 6586 O 604.299 -7.77675 -2.03657 0
M  V30 6587 H 604.031 -0.492252 -0.463318 0
M  V30 6588 H 606.585 -1.86347 -0.863952 0
M  V30 6589 H 604.815 -1.80853 -3.41802 0
M  V30 6590 H 606.504 -2.2267 -3.39371 0
M  V30 6591 H 607.27 -4.36055 -2.12323 0
M  V30 6592 H 603.149 -3.50167 -2.9984 0
M  V30 6593 H 606.693 -6.73951 -1.80099 0
M  V30 6594 H 602.59 -5.8724 -2.67991 0
M  V30 6595 H 603.358 -7.88819 -2.1842 0
M  V30 6596 N 606.021 0.929856 -1.27246 0
M  V30 6597 C 607.246 1.71674 -1.16374 0
M  V30 6598 C 607.671 1.86064 0.276024 0
M  V30 6599 O 607.029 1.3591 1.19992 0
M  V30 6600 C 607.077 3.09526 -1.85003 0
M  V30 6601 O 606.181 3.96142 -1.14653 0
M  V30 6602 H 605.522 0.52629 -0.404863 0
M  V30 6603 H 608.052 1.16381 -1.68276 0
M  V30 6604 H 608.062 3.59852 -1.92276 0
M  V30 6605 H 606.737 2.98369 -2.89739 0
M  V30 6606 H 605.314 3.54584 -1.15433 0
M  V30 6607 N 607.499 1.09233 1.13605 0
M  V30 6608 C 608.446 0.729921 2.18954 0
M  V30 6609 C 609.416 -0.287916 1.63586 0
M  V30 6610 O 610.601 -0.170003 1.90041 0
M  V30 6611 C 607.741 0.154489 3.44754 0
M  V30 6612 C 606.854 1.22613 4.14234 0
M  V30 6613 C 605.989 0.613657 5.27644 0
M  V30 6614 C 605.028 1.66674 5.8897 0
M  V30 6615 N 604.165 1.07545 6.93814 0
M  V30 6616 H 609.005 1.63257 2.49302 0
M  V30 6617 H 606.542 0.815693 1.22413 0
M  V30 6618 H 608.5 -0.196923 4.16735 0
M  V30 6619 H 607.13 -0.711433 3.14863 0
M  V30 6620 H 606.182 1.69485 3.40557 0
M  V30 6621 H 607.494 2.0238 4.55899 0
M  V30 6622 H 606.648 0.210976 6.06333 0
M  V30 6623 H 605.387 -0.215584 4.87223 0
M  V30 6624 H 604.392 2.07899 5.08978 0
M  V30 6625 H 605.617 2.49861 6.31464 0
M  V30 6626 H 603.563 0.267451 6.55455 0
M  V30 6627 H 603.48 1.81011 7.3401 0
M  V30 6628 H 604.748 0.698906 7.7636 0
M  V30 6629 N 608.977 -1.30795 0.87923 0
M  V30 6630 C 610.393 -1.48981 0.57243 0
M  V30 6631 C 610.593 -1.80719 -0.891236 0
M  V30 6632 O 609.649 -1.89136 -1.67283 0
M  V30 6633 C 610.962 -2.61721 1.48063 0
M  V30 6634 C 612.51 -2.75603 1.48365 0
M  V30 6635 C 612.985 -3.91449 2.37763 0
M  V30 6636 N 614.476 -3.98751 2.35695 0
M  V30 6637 C 615.211 -4.87684 3.01583 0
M  V30 6638 N 614.707 -5.81454 3.76674 0
M  V30 6639 N 616.5 -4.81005 2.90844 0
M  V30 6640 H 608.651 -1.08465 1.82617 0
M  V30 6641 H 610.914 -0.536813 0.781368 0
M  V30 6642 H 610.62 -2.45073 2.52254 0
M  V30 6643 H 610.494 -3.58071 1.18596 0
M  V30 6644 H 612.881 -2.9166 0.44927 0
M  V30 6645 H 612.962 -1.79891 1.81859 0
M  V30 6646 H 612.606 -3.76149 3.41283 0
M  V30 6647 H 612.536 -4.86487 2.01589 0
M  V30 6648 H 615.027 -3.31668 1.81121 0
M  V30 6649 H 615.34 -6.46063 4.24054 0
M  V30 6650 H 613.685 -5.81403 3.80782 0
M  V30 6651 H 616.876 -4.06728 2.31711 0
M  V30 6652 H 617.049 -5.50107 3.42471 0
M  V30 6653 N 610.455 -0.639598 -1.44038 0
M  V30 6654 C 611.702 -0.14748 -2.01962 0
M  V30 6655 C 612.03 1.23372 -1.50365 0
M  V30 6656 O 611.285 1.8345 -0.681501 0
M  V30 6657 C 611.584 -0.0925348 -3.5728 0
M  V30 6658 C 611.25 -1.41365 -4.28167 0
M  V30 6659 C 609.912 -1.77545 -4.47248 0
M  V30 6660 C 612.264 -2.2853 -4.68427 0
M  V30 6661 C 609.592 -3.00583 -5.03852 0
M  V30 6662 C 611.944 -3.50846 -5.26393 0
M  V30 6663 C 610.608 -3.8724 -5.43692 0
M  V30 6664 H 609.878 -0.0539666 -0.739032 0
M  V30 6665 H 612.525 -0.827599 -1.72694 0
M  V30 6666 H 610.83 0.670987 -3.86012 0
M  V30 6667 H 612.527 0.304891 -3.99839 0
M  V30 6668 H 609.117 -1.1221 -4.13651 0
M  V30 6669 H 613.301 -2.0187 -4.5339 0
M  V30 6670 H 608.557 -3.28846 -5.15432 0
M  V30 6671 H 612.731 -4.18616 -5.56537 0
M  V30 6672 H 610.358 -4.8266 -5.87319 0
M  V30 6673 N 611.933 1.52934 -0.380664 0
M  V30 6674 C 613.181 2.01069 0.203874 0
M  V30 6675 C 613.502 1.26922 1.4804 0
M  V30 6676 O 612.772 0.386787 1.92044 0
M  V30 6677 H 611.352 0.742882 0.0783279 0
M  V30 6678 H 614.014 1.88099 -0.510368 0
M  V30 6679 H 613.11 3.09258 0.42021 0
M  V30 6680 N 613.412 0.11024 1.57214 0
M  V30 6681 C 614.661 -0.549638 1.94067 0
M  V30 6682 C 614.974 -1.68388 0.995234 0
M  V30 6683 O 616.18 -2.40593 1.25807 0
M  V30 6684 C 614.636 -1.02912 3.44873 0
M  V30 6685 C 614.244 0.0761861 4.47935 0
M  V30 6686 C 615.988 -1.66087 3.9066 0
M  V30 6687 C 613.895 -0.419502 5.8991 0
M  V30 6688 H 612.825 -0.209092 0.724428 0
M  V30 6689 H 615.476 0.188683 1.82527 0
M  V30 6690 H 613.858 -1.82159 3.51616 0
M  V30 6691 H 615.032 0.852185 4.52851 0
M  V30 6692 H 613.347 0.614052 4.11847 0
M  V30 6693 H 615.944 -2.04272 4.94143 0
M  V30 6694 H 616.287 -2.53591 3.30148 0
M  V30 6695 H 616.82 -0.933959 3.86681 0
M  V30 6696 H 613.559 0.419277 6.54158 0
M  V30 6697 H 613.079 -1.16217 5.88433 0
M  V30 6698 H 614.758 -0.883577 6.40938 0
M  V30 6699 N 614.89 -1.56749 -0.16351 0
M  V30 6700 C 616.136 -1.82704 -0.880168 0
M  V30 6701 C 616.469 -0.689311 -1.81555 0
M  V30 6702 O 615.744 0.308224 -1.92042 0
M  V30 6703 C 616.027 -3.19084 -1.66905 0
M  V30 6704 C 615.88 -4.43397 -0.756269 0
M  V30 6705 C 617.199 -3.52493 -2.63509 0
M  V30 6706 H 614.318 -0.664608 -0.318535 0
M  V30 6707 H 616.96 -1.89438 -0.146036 0
M  V30 6708 H 615.11 -3.13475 -2.2949 0
M  V30 6709 H 616.782 -4.61079 -0.14269 0
M  V30 6710 H 615.025 -4.33752 -0.0647944 0
M  V30 6711 H 615.696 -5.3539 -1.34393 0
M  V30 6712 H 618.172 -3.58606 -2.11047 0
M  V30 6713 H 617.048 -4.48979 -3.15767 0
M  V30 6714 H 617.309 -2.77597 -3.44082 0
M  V30 6715 N 616.368 0.432326 -1.51554 0
M  V30 6716 C 617.598 1.2019 -1.68042 0
M  V30 6717 C 618.006 1.85356 -0.379434 0
M  V30 6718 O 617.349 1.71724 0.652427 0
M  V30 6719 C 617.411 2.32387 -2.74292 0
M  V30 6720 C 617.075 1.87548 -4.16743 0
M  V30 6721 C 618.072 1.37611 -5.01357 0
M  V30 6722 C 615.757 1.95087 -4.62868 0
M  V30 6723 C 617.751 0.958069 -6.30159 0
M  V30 6724 C 615.438 1.52894 -5.91664 0
M  V30 6725 C 616.436 1.03336 -6.75137 0
M  V30 6726 O 616.124 0.617435 -8.01525 0
M  V30 6727 H 615.856 0.368132 -0.56697 0
M  V30 6728 H 618.41 0.517875 -1.98764 0
M  V30 6729 H 616.64 3.04082 -2.38895 0
M  V30 6730 H 618.329 2.94235 -2.79608 0
M  V30 6731 H 619.095 1.31178 -4.66923 0
M  V30 6732 H 614.974 2.32606 -3.98015 0
M  V30 6733 H 618.518 0.570562 -6.95263 0
M  V30 6734 H 614.415 1.58999 -6.25611 0
M  V30 6735 H 615.183 0.742835 -8.15122 0
M  V30 6736 N 617.846 1.41785 0.688094 0
M  V30 6737 C 619.092 1.41753 1.4503 0
M  V30 6738 C 619.425 0.0290745 1.94178 0
M  V30 6739 O 618.7 -0.944456 1.7003 0
M  V30 6740 C 618.983 2.43069 2.65686 0
M  V30 6741 C 618.836 3.91053 2.22256 0
M  V30 6742 C 620.155 2.41543 3.67893 0
M  V30 6743 H 617.274 0.516202 0.526027 0
M  V30 6744 H 619.916 1.73111 0.783105 0
M  V30 6745 H 618.066 2.1646 3.2261 0
M  V30 6746 H 619.738 4.28594 1.70602 0
M  V30 6747 H 617.981 4.05559 1.53963 0
M  V30 6748 H 618.652 4.57501 3.08863 0
M  V30 6749 H 621.128 2.65175 3.20658 0
M  V30 6750 H 620.004 3.14434 4.49914 0
M  V30 6751 H 620.265 1.43666 4.18106 0
M  V30 6752 N 619.324 -0.923095 1.27737 0
M  V30 6753 C 620.601 -1.64989 1.05062 0
M  V30 6754 C 620.981 -2.07018 -0.413124 0
M  V30 6755 O 620.329 -1.80797 -1.39731 0
M  V30 6756 C 620.539 -2.84847 2.01652 0
M  V30 6757 C 621.887 -3.56083 2.31279 0
M  V30 6758 O 622.911 -2.94981 1.99662 0
M  V30 6759 O 621.77 -4.66182 2.85196 0
M  V30 6760 H 618.864 -0.723357 0.400853 0
M  V30 6761 H 621.41 -0.973224 1.3902 0
M  V30 6762 H 620.182 -2.50814 3.00347 0
M  V30 6763 H 619.805 -3.60231 1.68284 0
M  V30 6764 N 620.802 -1.09834 -1.13024 0
M  V30 6765 C 622.032 -0.857657 -1.87957 0
M  V30 6766 C 622.44 0.595008 -1.796 0
M  V30 6767 O 621.783 1.42158 -1.16347 0
M  V30 6768 C 621.845 -1.21949 -3.38185 0
M  V30 6769 C 621.509 -2.67791 -3.7032 0
M  V30 6770 C 622.506 -3.66036 -3.69207 0
M  V30 6771 C 620.191 -3.04019 -3.99847 0
M  V30 6772 C 622.185 -4.98533 -3.9717 0
M  V30 6773 C 619.872 -4.36706 -4.27471 0
M  V30 6774 C 620.87 -5.33772 -4.26118 0
M  V30 6775 O 620.558 -6.64072 -4.53061 0
M  V30 6776 H 620.29 -0.308009 -0.601753 0
M  V30 6777 H 622.844 -1.46496 -1.43973 0
M  V30 6778 H 621.074 -0.555249 -3.82693 0
M  V30 6779 H 622.763 -0.957281 -3.9445 0
M  V30 6780 H 623.529 -3.39392 -3.46465 0
M  V30 6781 H 619.408 -2.29096 -4.00045 0
M  V30 6782 H 622.952 -5.74288 -3.96029 0
M  V30 6783 H 618.849 -4.63091 -4.49685 0
M  V30 6784 H 619.617 -6.69608 -4.7071 0
M  V30 6785 N 622.28 1.30327 -0.886154 0
M  V30 6786 C 623.505 2.0079 -0.519425 0
M  V30 6787 C 623.93 1.65979 0.885013 0
M  V30 6788 O 623.288 0.877043 1.58675 0
M  V30 6789 C 623.336 3.53686 -0.702758 0
M  V30 6790 O 622.44 4.11637 0.250828 0
M  V30 6791 H 621.781 0.63171 -0.204544 0
M  V30 6792 H 624.311 1.66145 -1.19402 0
M  V30 6793 H 624.321 4.03531 -0.602207 0
M  V30 6794 H 622.996 3.78361 -1.72673 0
M  V30 6795 H 621.573 3.72755 0.103873 0
M  V30 6796 N 623.758 0.647228 1.43697 0
M  V30 6797 C 624.986 0.16575 2.06235 0
M  V30 6798 C 625.401 -1.1662 1.48476 0
M  V30 6799 O 624.758 -1.7187 0.613762 0
M  V30 6800 C 624.809 0.0621651 3.61447 0
M  V30 6801 O 624.53 1.34146 4.17057 0
M  V30 6802 C 626.031 -0.446102 4.4105 0
M  V30 6803 H 623.251 0.0871158 0.665321 0
M  V30 6804 H 625.795 0.886183 1.84301 0
M  V30 6805 H 623.95 -0.608794 3.82587 0
M  V30 6806 H 624.364 1.19675 5.10664 0
M  V30 6807 H 625.838 -0.46755 5.50016 0
M  V30 6808 H 626.315 -1.47627 4.13646 0
M  V30 6809 H 626.921 0.192159 4.24866 0
M  V30 6810 N 625.236 -1.5273 0.388769 0
M  V30 6811 C 626.168 -2.24081 -0.481704 0
M  V30 6812 C 627.181 -1.26307 -1.02715 0
M  V30 6813 O 628.37 -1.52386 -0.929565 0
M  V30 6814 C 625.47 -2.94315 -1.68024 0
M  V30 6815 C 624.643 -4.18791 -1.26226 0
M  V30 6816 C 623.702 -4.72028 -2.32542 0
M  V30 6817 O 622.728 -5.35129 -1.93972 0
M  V30 6818 N 623.93 -4.51838 -3.64448 0
M  V30 6819 H 626.695 -2.9942 0.129591 0
M  V30 6820 H 624.256 -1.60465 0.2151 0
M  V30 6821 H 626.248 -3.26831 -2.38671 0
M  V30 6822 H 624.818 -2.22287 -2.19789 0
M  V30 6823 H 624.038 -3.92318 -0.384703 0
M  V30 6824 H 625.326 -4.99668 -0.959647 0
M  V30 6825 H 624.724 -4.01468 -3.98547 0
M  V30 6826 H 623.281 -4.88845 -4.31131 0
M  V30 6827 N 626.714 -0.118576 -1.57153 0
M  V30 6828 C 627.661 0.831789 -2.1529 0
M  V30 6829 C 628.631 1.26385 -1.07778 0
M  V30 6830 O 629.816 1.34144 -1.35684 0
M  V30 6831 C 626.956 2.07664 -2.75626 0
M  V30 6832 C 626.069 1.69298 -3.97444 0
M  V30 6833 C 625.204 2.88747 -4.45868 0
M  V30 6834 C 624.243 2.46619 -5.60219 0
M  V30 6835 N 623.38 3.5898 -6.03389 0
M  V30 6836 H 628.22 0.329183 -2.96176 0
M  V30 6837 H 625.757 0.150792 -1.46325 0
M  V30 6838 H 627.715 2.80601 -3.08738 0
M  V30 6839 H 626.345 2.55384 -1.97431 0
M  V30 6840 H 625.397 0.862374 -3.70496 0
M  V30 6841 H 626.709 1.34338 -4.80369 0
M  V30 6842 H 625.863 3.69909 -4.80887 0
M  V30 6843 H 624.602 3.26933 -3.61892 0
M  V30 6844 H 623.607 1.63889 -5.24805 0
M  V30 6845 H 624.832 2.0955 -6.45961 0
M  V30 6846 H 622.778 3.9684 -5.22354 0
M  V30 6847 H 622.695 3.27942 -6.81168 0
M  V30 6848 H 623.963 4.40583 -6.43045 0
M  V30 6849 N 628.193 1.56834 0.155195 0
M  V30 6850 C 629.609 1.51315 0.50755 0
M  V30 6851 C 629.809 0.825614 1.83809 0
M  V30 6852 O 628.865 0.39271 2.49427 0
M  V30 6853 C 630.178 2.96074 0.52542 0
M  V30 6854 C 631.726 3.06968 0.611505 0
M  V30 6855 C 632.201 4.53218 0.660115 0
M  V30 6856 N 633.692 4.5753 0.722564 0
M  V30 6857 C 634.427 5.68056 0.781023 0
M  V30 6858 N 633.923 6.88173 0.799327 0
M  V30 6859 N 635.716 5.56068 0.821278 0
M  V30 6860 H 627.867 1.9993 -0.717063 0
M  V30 6861 H 630.13 0.911507 -0.260496 0
M  V30 6862 H 629.836 3.49599 -0.383875 0
M  V30 6863 H 629.71 3.51587 1.36624 0
M  V30 6864 H 632.097 2.53468 1.51122 0
M  V30 6865 H 632.178 2.54513 -0.256306 0
M  V30 6866 H 631.822 5.07354 -0.23541 0
M  V30 6867 H 631.752 5.03447 1.5443 0
M  V30 6868 H 634.243 3.71054 0.716049 0
M  V30 6869 H 634.556 7.6816 0.845553 0
M  V30 6870 H 632.901 6.90751 0.767337 0
M  V30 6871 H 636.092 4.61142 0.804091 0
M  V30 6872 H 636.265 6.42223 0.863372 0
M  V30 6873 N 629.671 -0.424282 1.51781 0
M  V30 6874 C 630.92 -1.16961 1.64326 0
M  V30 6875 C 631.233 -1.92035 0.371749 0
M  V30 6876 O 632.439 -2.68873 0.37676 0
M  V30 6877 C 630.895 -2.12782 2.90262 0
M  V30 6878 C 630.503 -1.43295 4.24465 0
M  V30 6879 C 632.247 -2.87667 3.12166 0
M  V30 6880 C 630.154 -2.37676 5.41538 0
M  V30 6881 H 629.084 -0.440293 0.612093 0
M  V30 6882 H 631.735 -0.435431 1.78259 0
M  V30 6883 H 630.117 -2.8969 2.69992 0
M  V30 6884 H 631.291 -0.718564 4.55163 0
M  V30 6885 H 629.606 -0.805118 4.08542 0
M  V30 6886 H 632.203 -3.58395 3.96808 0
M  V30 6887 H 632.546 -3.49758 2.25776 0
M  V30 6888 H 633.079 -2.17863 3.32837 0
M  V30 6889 H 629.818 -1.80255 6.30229 0
M  V30 6890 H 629.338 -3.07132 5.15199 0
M  V30 6891 H 631.017 -2.98529 5.74012 0
M  V30 6892 N 631.149 -1.42148 -0.680565 0
M  V30 6893 C 632.395 -1.42521 -1.44277 0
M  V30 6894 C 632.728 -0.0393718 -1.9416 0
M  V30 6895 O 632.003 0.935425 -1.70529 0
M  V30 6896 C 632.286 -2.44475 -2.64394 0
M  V30 6897 C 632.139 -3.92226 -2.20179 0
M  V30 6898 C 633.458 -2.43491 -3.66606 0
M  V30 6899 H 630.577 -0.518985 -0.523282 0
M  V30 6900 H 633.219 -1.73524 -0.773914 0
M  V30 6901 H 631.369 -2.18168 -3.21458 0
M  V30 6902 H 633.041 -4.29493 -1.68327 0
M  V30 6903 H 631.284 -4.0637 -1.5181 0
M  V30 6904 H 631.955 -4.59133 -3.06433 0
M  V30 6905 H 634.431 -2.66872 -3.19247 0
M  V30 6906 H 633.307 -3.16816 -4.4824 0
M  V30 6907 H 633.568 -1.45881 -4.17338 0
M  V30 6908 N 632.627 0.916307 -1.28225 0
M  V30 6909 C 633.574 2.01841 -1.11932 0
M  V30 6910 C 634.544 1.66091 -0.0171604 0
M  V30 6911 O 635.729 1.89934 -0.181617 0
M  V30 6912 C 632.869 3.36065 -0.784504 0
M  V30 6913 C 631.982 3.847 -1.96544 0
M  V30 6914 C 631.117 5.07423 -1.57149 0
M  V30 6915 C 630.156 5.48384 -2.71922 0
M  V30 6916 N 629.293 6.62298 -2.33037 0
M  V30 6917 H 634.133 2.1511 -2.06232 0
M  V30 6918 H 631.67 1.05366 -1.02647 0
M  V30 6919 H 633.628 4.13272 -0.571148 0
M  V30 6920 H 632.258 3.22571 0.121565 0
M  V30 6921 H 631.31 3.03673 -2.291 0
M  V30 6922 H 632.622 4.1102 -2.82603 0
M  V30 6923 H 631.776 5.92165 -1.32004 0
M  V30 6924 H 630.515 4.82906 -0.682153 0
M  V30 6925 H 629.52 4.62184 -2.97768 0
M  V30 6926 H 630.745 5.7489 -3.61494 0
M  V30 6927 H 628.691 6.39416 -1.4657 0
M  V30 6928 H 628.608 6.8833 -3.12631 0
M  V30 6929 H 629.876 7.50352 -2.11169 0
M  V30 6930 N 634.105 1.10431 1.1244 0
M  V30 6931 C 635.382 0.758797 1.80282 0
M  V30 6932 C 635.762 -0.754727 1.97147 0
M  V30 6933 O 635.11 -1.68094 1.54779 0
M  V30 6934 C 635.32 1.50982 3.14651 0
M  V30 6935 C 636.668 1.68232 3.8985 0
M  V30 6936 O 637.692 1.47319 3.24308 0
M  V30 6937 O 636.551 2.02905 5.07437 0
M  V30 6938 H 633.645 0.273756 0.780376 0
M  V30 6939 H 636.191 1.20713 1.19275 0
M  V30 6940 H 634.963 2.53989 2.97666 0
M  V30 6941 H 634.586 1.05435 3.83366 0
M  V30 6942 N 635.583 -1.29855 0.893053 0
M  V30 6943 C 636.808 -2.00512 0.530066 0
M  V30 6944 C 637.233 -1.66446 -0.876199 0
M  V30 6945 O 636.591 -0.885446 -1.58207 0
M  V30 6946 C 636.639 -3.53308 0.721505 0
M  V30 6947 O 635.743 -4.11764 -0.228994 0
M  V30 6948 H 635.084 -0.630617 0.207891 0
M  V30 6949 H 637.614 -1.6551 1.20282 0
M  V30 6950 H 637.624 -4.03206 0.623599 0
M  V30 6951 H 636.299 -3.77439 1.74678 0
M  V30 6952 H 634.876 -3.72805 -0.0841034 0
M  V30 6953 N 637.061 -0.65484 -1.43351 0
M  V30 6954 C 638.309 -0.168559 -2.01396 0
M  V30 6955 C 638.63 1.22235 -1.51933 0
M  V30 6956 O 637.9 1.81685 -0.732627 0
M  V30 6957 H 636.48 -0.0593244 -0.744641 0
M  V30 6958 H 639.142 -0.846871 -1.75539 0
M  V30 6959 H 638.238 -0.154428 -3.11718 0
M  V30 6960 N 638.539 1.52521 -0.396863 0
M  V30 6961 C 639.769 2.05792 0.182485 0
M  V30 6962 C 640.177 1.26784 1.40436 0
M  V30 6963 O 639.52 0.309617 1.81072 0
M  V30 6964 C 639.582 3.54291 0.609781 0
M  V30 6965 C 639.246 4.5426 -0.499674 0
M  V30 6966 C 640.243 5.01812 -1.35944 0
M  V30 6967 C 637.928 4.97827 -0.668864 0
M  V30 6968 C 639.922 5.91562 -2.37346 0
M  V30 6969 C 637.609 5.87376 -1.68621 0
M  V30 6970 C 638.607 6.34137 -2.53692 0
M  V30 6971 O 638.295 7.21915 -3.53686 0
M  V30 6972 H 638.027 0.675362 0.0293583 0
M  V30 6973 H 640.581 1.97539 -0.56281 0
M  V30 6974 H 638.811 3.60188 1.40717 0
M  V30 6975 H 640.5 3.90267 1.11565 0
M  V30 6976 H 641.266 4.68879 -1.24008 0
M  V30 6977 H 637.145 4.60997 -0.0163971 0
M  V30 6978 H 640.689 6.27983 -3.03782 0
M  V30 6979 H 636.586 6.19723 -1.80593 0
M  V30 6980 H 637.354 7.39996 -3.49784 0
M  V30 6981 N 640.017 0.126909 1.57088 0
M  V30 6982 C 641.263 -0.523662 1.96543 0
M  V30 6983 C 641.618 -1.63783 1.0096 0
M  V30 6984 O 640.911 -1.91556 0.0410175 0
M  V30 6985 C 641.105 -1.095 3.40212 0
M  V30 6986 C 640.934 -0.037715 4.49684 0
M  V30 6987 C 639.704 0.396823 5.03739 0
M  V30 6988 C 641.902 0.746245 5.08857 0
M  V30 6989 N 639.884 1.43905 5.96795 0
M  V30 6990 C 641.255 1.63947 5.97931 0
M  V30 6991 C 643.31 0.796259 4.91492 0
M  V30 6992 C 642.013 2.57837 6.715 0
M  V30 6993 C 644.039 1.7229 5.65747 0
M  V30 6994 C 643.401 2.60369 6.54513 0
M  V30 6995 H 639.5 -0.161016 0.765244 0
M  V30 6996 H 642.084 0.21686 1.93489 0
M  V30 6997 H 640.255 -1.80521 3.43899 0
M  V30 6998 H 641.987 -1.71054 3.66773 0
M  V30 6999 H 638.742 0.00290406 4.736 0
M  V30 7000 H 639.166 1.95932 6.48027 0
M  V30 7001 H 643.808 0.129412 4.22602 0
M  V30 7002 H 641.526 3.25532 7.39631 0
M  V30 7003 H 645.112 1.76715 5.54313 0
M  V30 7004 H 643.992 3.30906 7.10965 0
M  V30 7005 N 641.495 -1.56914 -0.146875 0
M  V30 7006 C 642.725 -1.87243 -0.873126 0
M  V30 7007 C 643.133 -0.713127 -1.75246 0
M  V30 7008 O 642.476 0.326228 -1.8078 0
M  V30 7009 C 642.538 -3.12279 -1.78107 0
M  V30 7010 C 642.202 -4.44082 -1.07889 0
M  V30 7011 C 643.199 -5.18096 -0.432734 0
M  V30 7012 C 640.884 -4.90807 -1.06836 0
M  V30 7013 C 642.878 -6.37039 0.214569 0
M  V30 7014 C 640.565 -6.09674 -0.417243 0
M  V30 7015 C 641.563 -6.82636 0.223093 0
M  V30 7016 O 641.251 -7.99245 0.863884 0
M  V30 7017 H 640.983 -0.624896 -0.257839 0
M  V30 7018 H 643.537 -2.04892 -0.14434 0
M  V30 7019 H 641.767 -2.90639 -2.5508 0
M  V30 7020 H 643.456 -3.28854 -2.37929 0
M  V30 7021 H 644.222 -4.83066 -0.432677 0
M  V30 7022 H 640.101 -4.3394 -1.55618 0
M  V30 7023 H 643.645 -6.93927 0.714965 0
M  V30 7024 H 639.542 -6.44165 -0.414967 0
M  V30 7025 H 640.31 -8.14912 0.765564 0
M  V30 7026 N 642.974 0.416227 -1.52004 0
M  V30 7027 C 644.199 1.19029 -1.69843 0
M  V30 7028 C 644.624 1.83708 -0.404103 0
M  V30 7029 O 643.982 1.69711 0.637787 0
M  V30 7030 C 644.03 2.23439 -2.83032 0
M  V30 7031 O 643.134 3.29419 -2.48106 0
M  V30 7032 H 642.475 0.347785 -0.565634 0
M  V30 7033 H 645.005 0.488871 -1.98674 0
M  V30 7034 H 645.015 2.67884 -3.07737 0
M  V30 7035 H 643.69 1.75745 -3.76944 0
M  V30 7036 H 642.267 2.90303 -2.34048 0
M  V30 7037 N 644.452 1.42507 0.673017 0
M  V30 7038 C 645.4 1.46362 1.80779 0
M  V30 7039 C 646.394 0.339166 1.6597 0
M  V30 7040 O 647.6 0.512262 1.72557 0
M  V30 7041 H 643.975 0.458433 0.596107 0
M  V30 7042 H 645.946 2.41953 1.74646 0
M  V30 7043 C 644.695 1.38462 3.18941 0
M  V30 7044 H 644.018 2.24283 3.30964 0
M  V30 7045 H 645.458 1.45221 3.98355 0
M  V30 7046 C 643.917 0.0996354 3.36753 0
M  V30 7047 O 644.447 -0.846894 3.92671 0
M  V30 7048 N 642.653 0.016211 2.90595 0
M  V30 7049 H 642.2 0.78725 2.45276 0
M  V30 7050 H 642.158 -0.84291 3.0289 0
M  V30 7051 N 645.93 -0.909495 1.28709 0
M  V30 7052 C 647.176 -1.66151 1.16283 0
M  V30 7053 C 647.509 -1.92067 -0.287069 0
M  V30 7054 O 646.784 -1.52409 -1.20837 0
M  V30 7055 C 647.067 -3.01676 1.9663 0
M  V30 7056 C 646.92 -2.82888 3.49707 0
M  V30 7057 C 648.239 -4.02274 1.78504 0
M  V30 7058 H 645.358 -0.602966 0.423793 0
M  V30 7059 H 648 -1.05418 1.58073 0
M  V30 7060 H 646.15 -3.53515 1.61119 0
M  V30 7061 H 647.822 -2.38026 3.95147 0
M  V30 7062 H 646.065 -2.17862 3.75125 0
M  V30 7063 H 646.736 -3.79147 4.01187 0
M  V30 7064 H 649.212 -3.59511 2.09503 0
M  V30 7065 H 648.088 -4.95056 2.37088 0
M  V30 7066 H 648.349 -4.35903 0.737647 0
M  V30 7067 N 647.408 -1.11026 -1.11852 0
M  V30 7068 C 648.654 -0.857729 -1.83768 0
M  V30 7069 C 648.987 0.615143 -1.842 0
M  V30 7070 O 648.262 1.45391 -1.29196 0
M  V30 7071 C 648.545 -1.41453 -3.31154 0
M  V30 7072 C 648.398 -2.95471 -3.39142 0
M  V30 7073 C 649.717 -1.0619 -4.27097 0
M  V30 7074 H 646.836 -0.313044 -0.667212 0
M  V30 7075 H 649.478 -1.37443 -1.31185 0
M  V30 7076 H 647.628 -0.975052 -3.76065 0
M  V30 7077 H 649.3 -3.4799 -3.02821 0
M  V30 7078 H 647.543 -3.31759 -2.79497 0
M  V30 7079 H 648.214 -3.29515 -4.42859 0
M  V30 7080 H 650.69 -1.44122 -3.90344 0
M  V30 7081 H 649.566 -1.47832 -5.28618 0
M  V30 7082 H 649.827 0.0278912 -4.42091 0
M  V30 7083 N 648.886 1.2938 -0.899927 0
M  V30 7084 C 649.833 2.27713 -0.376243 0
M  V30 7085 C 650.803 1.57016 0.541774 0
M  V30 7086 O 651.988 1.84997 0.466966 0
M  V30 7087 C 649.128 3.42889 0.39 0
M  V30 7088 C 648.241 4.28369 -0.558938 0
M  V30 7089 C 647.376 5.30726 0.224379 0
M  V30 7090 C 646.415 6.07862 -0.719068 0
M  V30 7091 N 645.552 7.02094 0.0298569 0
M  V30 7092 H 650.392 2.71888 -1.21988 0
M  V30 7093 H 647.929 1.33724 -0.612879 0
M  V30 7094 H 649.887 4.08443 0.850314 0
M  V30 7095 H 648.517 2.99743 1.19809 0
M  V30 7096 H 647.569 3.62986 -1.13777 0
M  V30 7097 H 648.881 4.82068 -1.2811 0
M  V30 7098 H 648.035 6.02098 0.745881 0
M  V30 7099 H 646.774 4.77759 0.979674 0
M  V30 7100 H 645.779 5.35353 -1.25207 0
M  V30 7101 H 647.004 6.62917 -1.4737 0
M  V30 7102 H 644.95 6.51496 0.767415 0
M  V30 7103 H 644.867 7.5335 -0.632391 0
M  V30 7104 H 646.135 7.77685 0.531615 0
M  V30 7105 N 650.364 0.662433 1.43002 0
M  V30 7106 C 651.312 -0.035345 2.32573 0
M  V30 7107 C 652.306 -0.803505 1.49131 0
M  V30 7108 O 653.512 -0.712865 1.65282 0
M  V30 7109 H 649.887 -0.0302194 0.751393 0
M  V30 7110 H 651.858 0.737686 2.89138 0
M  V30 7111 C 650.607 -0.981575 3.33557 0
M  V30 7112 H 649.93 -0.399914 3.97795 0
M  V30 7113 H 651.37 -1.43873 3.98844 0
M  V30 7114 C 649.829 -2.08204 2.64863 0
M  V30 7115 O 650.359 -3.16698 2.47113 0
M  V30 7116 N 648.565 -1.85022 2.24088 0
M  V30 7117 H 648.112 -0.967909 2.38724 0
M  V30 7118 H 648.07 -2.58845 1.78457 0
M  V30 7119 N 651.842 -1.52309 0.404946 0
M  V30 7120 C 652.79 -2.28452 -0.437321 0
M  V30 7121 C 653.784 -1.32975 -1.04948 0
M  V30 7122 O 654.99 -1.50451 -0.988159 0
M  V30 7123 H 651.365 -0.734824 -0.159805 0
M  V30 7124 H 653.336 -2.97542 0.22615 0
M  V30 7125 C 652.085 -3.11536 -1.54404 0
M  V30 7126 H 651.408 -3.84871 -1.08233 0
M  V30 7127 H 652.848 -3.67926 -2.10729 0
M  V30 7128 C 651.307 -2.24833 -2.50902 0
M  V30 7129 O 651.837 -1.88574 -3.54687 0
M  V30 7130 N 650.043 -1.88685 -2.21012 0
M  V30 7131 H 649.59 -2.18371 -1.36646 0
M  V30 7132 H 649.548 -1.30966 -2.85824 0
M  V30 7133 N 653.32 -0.135238 -1.57019 0
M  V30 7134 C 654.568 0.51777 -1.95355 0
M  V30 7135 C 654.889 1.6617 -1.02042 0
M  V30 7136 O 654.159 1.95738 -0.0797343 0
M  V30 7137 H 652.739 0.194264 -0.721298 0
M  V30 7138 H 655.401 -0.207983 -1.93787 0
M  V30 7139 H 654.497 0.901675 -2.98791 0
M  V30 7140 N 654.798 1.5699 0.138552 0
M  V30 7141 C 655.728 2.01933 1.17241 0
M  V30 7142 C 656.709 0.90033 1.44319 0
M  V30 7143 O 657.894 1.16872 1.55095 0
M  V30 7144 C 655.024 2.40711 2.50351 0
M  V30 7145 C 653.978 3.55874 2.37776 0
M  V30 7146 C 653.304 3.80491 3.75674 0
M  V30 7147 C 654.604 4.8826 1.85472 0
M  V30 7148 H 656.298 2.88551 0.798672 0
M  V30 7149 H 653.844 1.3882 0.382743 0
M  V30 7150 H 655.797 2.70754 3.22909 0
M  V30 7151 H 654.521 1.5104 2.89576 0
M  V30 7152 H 653.18 3.2601 1.67669 0
M  V30 7153 H 652.828 2.88057 4.12349 0
M  V30 7154 H 652.528 4.57998 3.68119 0
M  V30 7155 H 654.052 4.12967 4.49767 0
M  V30 7156 H 655.466 5.16965 2.4783 0
M  V30 7157 H 653.863 5.69631 1.88787 0
M  V30 7158 H 654.933 4.78071 0.810935 0
M  V30 7159 N 656.276 -0.40816 1.52223 0
M  V30 7160 C 657.186 -1.52202 1.78526 0
M  V30 7161 C 658.202 -1.60546 0.670892 0
M  V30 7162 O 659.378 -1.77242 0.956404 0
M  V30 7163 C 656.443 -2.87928 1.93128 0
M  V30 7164 C 655.504 -2.89463 3.17033 0
M  V30 7165 C 654.737 -4.18715 3.30929 0
M  V30 7166 O 654.96 -5.12662 2.50067 0
M  V30 7167 O 653.894 -4.27125 4.24084 0
M  V30 7168 H 657.72 -1.32911 2.73072 0
M  V30 7169 H 655.305 -0.594112 1.37079 0
M  V30 7170 H 657.187 -3.68426 2.04549 0
M  V30 7171 H 655.862 -3.07285 1.01772 0
M  V30 7172 H 654.769 -2.07815 3.11069 0
M  V30 7173 H 656.102 -2.75055 4.08174 0
M  V30 7174 N 657.755 -1.42862 -0.66545 0
M  V30 7175 C 659.032 -1.3431 -1.42197 0
M  V30 7176 C 659.412 0.0150265 -2.11095 0
M  V30 7177 O 658.76 1.03101 -2.03918 0
M  V30 7178 C 658.97 -2.51783 -2.41674 0
M  V30 7179 C 660.318 -2.94321 -3.0604 0
M  V30 7180 O 661.342 -2.51741 -2.52001 0
M  V30 7181 O 660.201 -3.68047 -4.03985 0
M  V30 7182 H 657.295 -0.530159 -0.634713 0
M  V30 7183 H 659.841 -1.54888 -0.693386 0
M  V30 7184 H 658.613 -3.42282 -1.89627 0
M  V30 7185 H 658.236 -2.33241 -3.22001 0
M  V30 7186 O 659.272 0.808226 -1.39821 0
M  V30 7187 H 659.963 1.45282 -1.28112 0
M  V30 END ATOM
M  V30 BEGIN BOND
M  V30 END BOND
M  V30 END CTAB
M  END
$$$$
