drugbank_target|Q9H093 NUAK family SNF1-like kinase 2 (DB12010)
 OpenBabel12092121173D

  0  0  0     0  0            999 V3000
M  V30 BEGIN CTAB
M  V30 COUNTS 9804 9921 0 0 0
M  V30 BEGIN ATOM
M  V30 1 H -0.908 1.98254 -0.117106 0
M  V30 2 N 0 1.576 0 0
M  V30 3 C 0.933 2.03868 1.02534 0
M  V30 4 C 1.911 0.928543 1.3348 0
M  V30 5 O 3.095 1.19667 1.45644 0
M  V30 6 C 0.222 2.43627 2.35294 0
M  V30 7 C -0.732 3.65373 2.2001 0
M  V30 8 S 0.101 5.13292 1.52614 0
M  V30 9 C 1.257 5.56322 2.86805 0
M  V30 10 H 1.49 2.90518 0.631377 0
M  V30 11 H -0.977 1.52953 0.210867 0
M  V30 12 H 0.981 2.67203 3.11629 0
M  V30 13 H -0.358 1.57376 2.7183 0
M  V30 14 H -1.165 3.90944 3.18086 0
M  V30 15 H -1.563 3.418 1.51819 0
M  V30 16 H 0.729 5.58782 3.83104 0
M  V30 17 H 1.672 6.56266 2.65933 0
M  V30 18 H 2.08 4.83886 2.90714 0
M  V30 19 N 1.4781 -0.272755 1.55222 0
M  V30 20 C 2.3881 -1.35918 1.91216 0
M  V30 21 C 3.4041 -1.54026 0.809436 0
M  V30 22 O 4.5801 -1.68148 1.10852 0
M  V30 23 C 1.6451 -2.69834 2.17693 0
M  V30 24 C 0.7061 -2.6047 3.41253 0
M  V30 25 C -0.0609 -3.88 3.66458 0
M  V30 26 O 0.1621 -4.88693 2.94169 0
M  V30 27 O -0.9039 -3.88189 4.59992 0
M  V30 28 H 2.9221 -1.0839 2.83699 0
M  V30 29 H 0.5071 -0.471301 1.41771 0
M  V30 30 H 2.3891 -3.49017 2.36147 0
M  V30 31 H 1.0641 -2.97148 1.28392 0
M  V30 32 H -0.0289 -1.79663 3.28134 0
M  V30 33 H 1.3041 -2.38106 4.30774 0
M  V30 34 N 2.9562 -1.48159 -0.537278 0
M  V30 35 C 4.1812 -1.59707 -1.32319 0
M  V30 36 C 4.6062 -0.254859 -1.86365 0
M  V30 37 O 3.9642 0.772378 -1.64024 0
M  V30 38 C 4.0122 -2.6412 -2.45505 0
M  V30 39 O 3.1162 -2.20774 -3.48328 0
M  V30 40 H 2.4572 -0.535791 -0.392204 0
M  V30 41 H 4.9872 -1.94092 -0.647268 0
M  V30 42 H 4.9972 -2.85166 -2.91795 0
M  V30 43 H 3.6722 -3.61567 -2.05528 0
M  V30 44 H 2.2492 -2.09911 -3.08207 0
M  V30 45 N 4.4343 0.785586 -1.36625 0
M  V30 46 C 5.3643 1.91259 -1.33949 0
M  V30 47 C 6.3453 1.68795 -0.210325 0
M  V30 48 O 7.5303 1.89854 -0.408561 0
M  V30 49 C 4.6603 3.28339 -1.13186 0
M  V30 50 C 3.6143 3.65335 -2.22967 0
M  V30 51 C 2.9403 5.00806 -1.87342 0
M  V30 52 C 4.2403 3.7352 -3.65075 0
M  V30 53 H 5.9343 1.93755 -2.28253 0
M  V30 54 H 3.4803 0.930788 -1.09874 0
M  V30 55 H 5.4333 4.06804 -1.09948 0
M  V30 56 H 4.1573 3.2624 -0.153332 0
M  V30 57 H 2.8163 2.89169 -2.25337 0
M  V30 58 H 2.4643 4.95233 -0.880545 0
M  V30 59 H 2.1643 5.26529 -2.60846 0
M  V30 60 H 3.6883 5.81687 -1.85667 0
M  V30 61 H 5.1023 4.42168 -3.64911 0
M  V30 62 H 3.4993 4.10731 -4.37516 0
M  V30 63 H 4.5693 2.74527 -3.99703 0
M  V30 64 N 5.9124 1.20967 1.01018 0
M  V30 65 C 7.1584 1.02526 1.74975 0
M  V30 66 C 7.4914 -0.4408 1.89131 0
M  V30 67 O 6.7664 -1.32718 1.42184 0
M  V30 68 C 7.0494 1.71699 3.1653 0
M  V30 69 C 6.9024 3.25791 3.10129 0
M  V30 70 C 8.2214 1.45531 4.15342 0
M  V30 71 H 5.3404 0.373863 0.635134 0
M  V30 72 H 7.9824 1.49071 1.17805 0
M  V30 73 H 6.1324 1.32128 3.65341 0
M  V30 74 H 7.8044 3.74697 2.69072 0
M  V30 75 H 6.0474 3.56363 2.47362 0
M  V30 76 H 6.7184 3.69353 4.10222 0
M  V30 77 H 9.1944 1.79872 3.75213 0
M  V30 78 H 8.0704 1.96453 5.1254 0
M  V30 79 H 8.3314 0.384237 4.40427 0
M  V30 80 N 7.3905 -1.2043 1.01659 0
M  V30 81 C 8.6375 -1.89797 0.705917 0
M  V30 82 C 8.9655 -1.78848 -0.764439 0
M  V30 83 O 8.2205 -1.16694 -1.57102 0
M  V30 84 C 8.5195 -3.40464 1.08714 0
M  V30 85 C 8.1855 -3.71614 2.5537 0
M  V30 86 C 6.8475 -3.79826 2.95441 0
M  V30 87 C 9.1995 -3.85915 3.50313 0
M  V30 88 C 6.5275 -3.99797 4.29394 0
M  V30 89 C 8.8795 -4.07396 4.83954 0
M  V30 90 C 7.5435 -4.13837 5.23732 0
M  V30 91 H 6.8135 -0.694518 0.258313 0
M  V30 92 H 9.4605 -1.42691 1.27717 0
M  V30 93 H 7.7655 -3.89385 0.434309 0
M  V30 94 H 9.4625 -3.92433 0.824461 0
M  V30 95 H 6.0525 -3.65822 2.23321 0
M  V30 96 H 10.2365 -3.78926 3.20513 0
M  V30 97 H 5.4925 -4.03018 4.59768 0
M  V30 98 H 9.6665 -4.17404 5.57447 0
M  V30 99 H 7.2935 -4.29064 6.27541 0
M  V30 100 N 8.8686 -0.792821 -1.36206 0
M  V30 101 C 9.8316 -0.199459 -2.2833 0
M  V30 102 C 10.8316 0.605189 -1.48977 0
M  V30 103 O 12.0216 0.425685 -1.68919 0
M  V30 104 C 9.1536 0.723523 -3.33134 0
M  V30 105 H 10.3466 -1.01181 -2.82316 0
M  V30 106 H 7.8996 -0.562485 -1.45828 0
M  V30 107 H 8.6346 1.56008 -2.84309 0
M  V30 108 H 8.4196 0.148436 -3.91819 0
M  V30 109 H 9.9096 1.13344 -4.01924 0
M  V30 110 N 10.3467 1.47872 -0.545128 0
M  V30 111 C 11.7627 1.5829 -0.204032 0
M  V30 112 C 11.9627 1.54529 1.29317 0
M  V30 113 O 11.0187 1.44232 2.07252 0
M  V30 114 C 12.3317 2.89304 -0.819987 0
M  V30 115 C 13.8797 3.02864 -0.790105 0
M  V30 116 C 14.3547 4.3656 -1.38491 0
M  V30 117 N 15.8457 4.43165 -1.34755 0
M  V30 118 C 16.5807 5.45153 -1.77753 0
M  V30 119 N 16.0767 6.54016 -2.2855 0
M  V30 120 N 17.8697 5.36125 -1.68897 0
M  V30 121 H 10.0207 1.4856 -1.51802 0
M  V30 122 H 12.2837 0.706305 -0.632327 0
M  V30 123 H 11.9897 2.97757 -1.87173 0
M  V30 124 H 11.8637 3.75957 -0.305915 0
M  V30 125 H 14.2507 2.94014 0.252913 0
M  V30 126 H 14.3317 2.17782 -1.34181 0
M  V30 127 H 13.9757 4.46164 -2.42693 0
M  V30 128 H 13.9057 5.20353 -0.808754 0
M  V30 129 H 16.3967 3.65083 -0.975855 0
M  V30 130 H 16.7097 7.27994 -2.59314 0
M  V30 131 H 15.0547 6.54938 -2.32553 0
M  V30 132 H 18.2457 4.49975 -1.28998 0
M  V30 133 H 18.4187 6.15472 -2.02726 0
M  V30 134 N 11.8248 0.280983 1.55075 0
M  V30 135 C 13.2408 -0.0729964 1.59433 0
M  V30 136 C 13.4408 -1.5411 1.29817 0
M  V30 137 O 12.4968 -2.29086 1.06187 0
M  V30 138 C 13.8098 0.306921 2.9913 0
M  V30 139 C 15.3578 0.254023 3.11968 0
M  V30 140 C 15.8328 0.608467 4.5394 0
M  V30 141 N 17.3238 0.560241 4.59799 0
M  V30 142 C 18.0588 0.80722 5.6769 0
M  V30 143 N 17.5548 1.11912 6.83701 0
M  V30 144 N 19.3478 0.735623 5.57266 0
M  V30 145 H 11.4988 1.238 1.7259 0
M  V30 146 H 13.7618 0.500547 0.805082 0
M  V30 147 H 13.4678 1.32816 3.25657 0
M  V30 148 H 13.3418 -0.349363 3.75579 0
M  V30 149 H 15.7288 -0.75794 2.852 0
M  V30 150 H 15.8098 0.944649 2.37718 0
M  V30 151 H 15.4538 1.61814 4.81434 0
M  V30 152 H 15.3838 -0.104013 5.26497 0
M  V30 153 H 17.8748 0.329288 3.76463 0
M  V30 154 H 18.1878 1.29409 7.61888 0
M  V30 155 H 16.5328 1.15695 6.85303 0
M  V30 156 H 19.7238 0.491752 4.6551 0
M  V30 157 H 19.8968 0.931482 6.4127 0
M  V30 158 N 13.3029 -1.57598 0.00835791 0
M  V30 159 C 14.5279 -1.95617 -0.689103 0
M  V30 160 C 14.9529 -0.883753 -1.66046 0
M  V30 161 O 14.3109 0.157352 -1.80616 0
M  V30 162 C 14.3589 -3.32736 -1.38994 0
M  V30 163 O 13.4629 -3.27631 -2.50463 0
M  V30 164 H 12.8039 -0.638379 -0.182668 0
M  V30 165 H 15.3339 -2.045 0.064036 0
M  V30 166 H 15.3439 -3.68494 -1.75147 0
M  V30 167 H 14.0189 -4.1034 -0.677778 0
M  V30 168 H 12.5959 -3.03561 -2.16576 0
M  V30 169 N 14.781 0.264519 -1.55364 0
M  V30 170 C 16.029 0.993021 -1.76021 0
M  V30 171 C 16.35 1.86511 -0.569099 0
M  V30 172 O 15.62 1.91438 0.415735 0
M  V30 173 H 14.2 0.369639 -0.649135 0
M  V30 174 H 16.862 0.286707 -1.9278 0
M  V30 175 H 15.958 1.62502 -2.66457 0
M  V30 176 N 16.2591 1.48442 0.529413 0
M  V30 177 C 17.6701 1.5002 1.11134 0
M  V30 178 C 18.0211 0.27031 1.94329 0
M  V30 179 O 17.1461 -0.622507 2.07253 0
M  V30 180 C 17.7411 2.71834 2.02217 0
M  V30 181 C 16.3001 2.76283 2.55627 0
M  V30 182 C 15.4471 2.43542 1.326 0
M  V30 183 H 18.3981 1.5555 0.314641 0
M  V30 184 H 18.4191 2.50384 2.8651 0
M  V30 185 H 17.9311 3.61331 1.41639 0
M  V30 186 H 16.0321 1.90995 3.19924 0
M  V30 187 H 16.1451 3.77725 2.94721 0
M  V30 188 H 14.5091 1.94709 1.64196 0
M  V30 189 H 15.2921 3.3528 0.737734 0
M  V30 190 N 17.7372 -0.778329 1.37039 0
M  V30 191 C 18.9652 -1.56734 1.35063 0
M  V30 192 C 19.3802 -1.88686 -0.0655597 0
M  V30 193 O 18.7372 -1.5096 -1.02554 0
M  V30 194 C 18.7882 -2.88163 2.18276 0
M  V30 195 O 18.5092 -2.57583 3.54376 0
M  V30 196 C 20.0102 -3.82422 2.24206 0
M  V30 197 H 17.2302 -0.485778 0.462883 0
M  V30 198 H 19.7742 -0.965185 1.8029 0
M  V30 199 H 17.9292 -3.44818 1.76576 0
M  V30 200 H 18.3432 -3.41699 3.97922 0
M  V30 201 H 19.8172 -4.71667 2.86765 0
M  V30 202 H 20.2942 -4.21078 1.24861 0
M  V30 203 H 20.9002 -3.31697 2.6619 0
M  V30 204 N 19.2153 -1.21501 -1.00376 0
M  V30 205 C 20.6263 -1.03146 -1.55621 0
M  V30 206 C 20.9773 0.408375 -1.91903 0
M  V30 207 O 20.1023 1.29177 -1.73616 0
M  V30 208 C 20.6973 -1.86612 -2.82775 0
M  V30 209 C 19.2563 -1.72586 -3.34501 0
M  V30 210 C 18.4033 -1.83747 -2.07683 0
M  V30 211 H 21.3543 -1.35505 -0.826081 0
M  V30 212 H 21.3753 -1.3771 -3.54706 0
M  V30 213 H 20.8873 -2.91399 -2.56336 0
M  V30 214 H 18.9883 -0.704877 -3.65872 0
M  V30 215 H 19.1013 -2.54623 -4.05837 0
M  V30 216 H 17.4653 -1.27069 -2.20739 0
M  V30 217 H 18.2483 -2.90044 -1.83655 0
M  V30 218 N 20.6934 1.19889 -1.02296 0
M  V30 219 C 21.9184 1.9393 -0.735237 0
M  V30 220 C 22.3434 1.74639 0.698782 0
M  V30 221 O 21.7014 1.04481 1.48167 0
M  V30 222 C 21.7494 3.43916 -1.08417 0
M  V30 223 O 20.8534 4.11917 -0.199446 0
M  V30 224 H 20.1944 0.605645 -0.272196 0
M  V30 225 H 22.7244 1.52137 -1.36804 0
M  V30 226 H 22.7344 3.9456 -1.03856 0
M  V30 227 H 21.4094 3.5728 -2.12894 0
M  V30 228 H 19.9864 3.71666 -0.303136 0
M  V30 229 N 22.1715 0.800033 1.35784 0
M  V30 230 C 23.1345 0.211565 2.28221 0
M  V30 231 C 24.1345 -0.59728 1.49296 0
M  V30 232 O 25.3245 -0.416721 1.69142 0
M  V30 233 C 22.4565 -0.705846 3.33513 0
M  V30 234 H 23.6495 1.02677 2.81776 0
M  V30 235 H 21.2025 0.570211 1.45528 0
M  V30 236 H 21.9375 -1.54498 2.85133 0
M  V30 237 H 21.7225 -0.127655 3.91892 0
M  V30 238 H 23.2125 -1.11211 4.02519 0
M  V30 239 N 23.6496 -1.47581 0.552962 0
M  V30 240 C 24.6126 -2.28439 -0.186605 0
M  V30 241 C 25.6126 -1.36706 -0.84665 0
M  V30 242 O 26.8026 -1.59378 -0.703164 0
M  V30 243 C 23.9346 -3.16264 -1.2724 0
M  V30 244 H 25.1276 -2.95294 0.523609 0
M  V30 245 H 22.6806 -1.532 0.309745 0
M  V30 246 H 23.4156 -2.54091 -2.01514 0
M  V30 247 H 23.2006 -3.83769 -0.803968 0
M  V30 248 H 24.6906 -3.77198 -1.79196 0
M  V30 249 N 25.1277 -0.289203 -1.54924 0
M  V30 250 C 26.0377 0.601863 -2.26748 0
M  V30 251 C 27.0537 1.15834 -1.2984 0
M  V30 252 O 28.2297 1.18564 -1.62802 0
M  V30 253 C 25.2947 1.76299 -2.98529 0
M  V30 254 C 24.3557 1.24178 -4.10948 0
M  V30 255 C 23.5887 2.34757 -4.79296 0
M  V30 256 O 23.8117 3.54411 -4.46933 0
M  V30 257 O 22.7457 2.02115 -5.66951 0
M  V30 258 H 26.5717 0.0195879 -3.03694 0
M  V30 259 H 24.1567 -0.0560868 -1.49295 0
M  V30 260 H 26.0387 2.43973 -3.43592 0
M  V30 261 H 24.7137 2.33209 -2.24488 0
M  V30 262 H 23.6207 0.531104 -3.70311 0
M  V30 263 H 24.9537 0.718252 -4.86931 0
M  V30 264 N 26.6058 1.57591 -0.0167156 0
M  V30 265 C 27.5358 2.12496 0.967858 0
M  V30 266 C 28.5168 1.03807 1.34752 0
M  V30 267 O 29.7018 1.31577 1.42833 0
M  V30 268 C 26.8318 2.64194 2.25431 0
M  V30 269 C 25.7858 3.77559 2.01576 0
M  V30 270 C 25.1118 4.15636 3.36379 0
M  V30 271 C 26.4118 5.04151 1.36489 0
M  V30 272 H 28.1058 2.95013 0.510643 0
M  V30 273 H 25.6518 1.41915 0.244181 0
M  V30 274 H 27.6048 3.01236 2.94678 0
M  V30 275 H 26.3288 1.78821 2.73296 0
M  V30 276 H 24.9878 3.40937 1.34751 0
M  V30 277 H 24.6358 3.27263 3.81979 0
M  V30 278 H 24.3358 4.92022 3.21229 0
M  V30 279 H 25.8598 4.5525 4.06915 0
M  V30 280 H 27.2738 5.38857 1.95718 0
M  V30 281 H 25.6708 5.85453 1.31776 0
M  V30 282 H 26.7408 4.83733 0.336219 0
M  V30 283 N 28.0839 -0.256276 1.55502 0
M  V30 284 C 29.0469 -1.30047 1.88734 0
M  V30 285 C 30.0469 -1.4154 0.763086 0
M  V30 286 O 31.2369 -1.40403 1.03115 0
M  V30 287 C 28.3689 -2.67953 2.10747 0
M  V30 288 H 29.5619 -1.01802 2.82093 0
M  V30 289 H 27.1149 -0.495134 1.4825 0
M  V30 290 H 27.8499 -3.01351 1.19825 0
M  V30 291 H 27.6349 -2.60993 2.92617 0
M  V30 292 H 29.1249 -3.43368 2.37673 0
M  V30 293 N 29.562 -1.4872 -0.521534 0
M  V30 294 C 30.978 -1.35028 -0.850855 0
M  V30 295 C 31.178 -0.367712 -1.98116 0
M  V30 296 O 30.234 0.208037 -2.51642 0
M  V30 297 C 31.547 -2.75263 -1.21041 0
M  V30 298 C 33.095 -2.83813 -1.31981 0
M  V30 299 C 33.57 -4.24769 -1.71276 0
M  V30 300 N 35.061 -4.27482 -1.78363 0
M  V30 301 C 35.796 -5.33494 -2.1017 0
M  V30 302 N 35.292 -6.49775 -2.40343 0
M  V30 303 N 37.085 -5.20894 -2.11248 0
M  V30 304 H 29.236 -2.11214 0.22413 0
M  V30 305 H 31.499 -0.947252 0.0376439 0
M  V30 306 H 31.205 -3.48765 -0.453415 0
M  V30 307 H 31.079 -3.09327 -2.15863 0
M  V30 308 H 33.466 -2.10561 -2.06756 0
M  V30 309 H 33.547 -2.53358 -0.352596 0
M  V30 310 H 33.191 -4.9854 -0.970588 0
M  V30 311 H 33.121 -4.52673 -2.69062 0
M  V30 312 H 35.612 -3.43611 -1.57288 0
M  V30 313 H 35.925 -7.26402 -2.63743 0
M  V30 314 H 34.27 -6.53035 -2.37844 0
M  V30 315 H 37.461 -4.29065 -1.87139 0
M  V30 316 H 37.634 -6.03612 -2.35704 0
M  V30 317 N 31.0401 0.771051 -1.3745 0
M  V30 318 C 32.4511 1.34737 -1.29239 0
M  V30 319 C 32.8021 1.96109 0.0596908 0
M  V30 320 O 31.9271 1.93865 0.961534 0
M  V30 321 C 32.5221 2.44973 -2.34037 0
M  V30 322 C 31.0811 2.98372 -2.29458 0
M  V30 323 C 30.2281 1.71595 -2.17831 0
M  V30 324 H 33.1791 0.571256 -1.48062 0
M  V30 325 H 33.2001 3.24471 -1.98744 0
M  V30 326 H 32.7121 2.00276 -3.32432 0
M  V30 327 H 30.8131 3.47443 -1.34589 0
M  V30 328 H 30.9261 3.53939 -3.229 0
M  V30 329 H 29.2901 1.94547 -1.64388 0
M  V30 330 H 30.0731 1.29001 -3.18141 0
M  V30 331 N 32.5182 1.22032 0.997298 0
M  V30 332 C 33.4482 1.01065 2.10495 0
M  V30 333 C 34.4292 -0.0669542 1.69968 0
M  V30 334 O 35.6142 0.0943987 1.9397 0
M  V30 335 C 32.7442 0.582874 3.42374 0
M  V30 336 C 31.6982 1.60592 3.96729 0
M  V30 337 C 31.0242 1.03412 5.24605 0
M  V30 338 C 32.3242 2.99478 4.27914 0
M  V30 339 H 34.0182 1.93708 2.28292 0
M  V30 340 H 31.5642 0.932761 1.09707 0
M  V30 341 H 33.5172 0.423332 4.19268 0
M  V30 342 H 32.2412 -0.379213 3.24391 0
M  V30 343 H 30.9002 1.75316 3.21963 0
M  V30 344 H 30.5482 0.063518 5.0296 0
M  V30 345 H 30.2482 1.71754 5.61938 0
M  V30 346 H 31.7722 0.886066 6.04137 0
M  V30 347 H 33.1862 2.88153 4.95622 0
M  V30 348 H 31.5832 3.64903 4.76409 0
M  V30 349 H 32.6532 3.49742 3.3587 0
M  V30 350 N 33.9963 -1.19345 1.0293 0
M  V30 351 C 34.9593 -2.20793 0.615069 0
M  V30 352 C 35.9593 -1.57553 -0.321533 0
M  V30 353 O 37.1493 -1.73862 -0.108483 0
M  V30 354 C 34.2813 -3.40754 -0.0999222 0
M  V30 355 H 35.4743 -2.58955 1.51269 0
M  V30 356 H 33.0273 -1.3303 0.820534 0
M  V30 357 H 33.7623 -3.0811 -1.01187 0
M  V30 358 H 33.5473 -3.87889 0.57309 0
M  V30 359 H 35.0373 -4.15898 -0.376645 0
M  V30 360 N 35.4744 -0.807222 -1.35358 0
M  V30 361 C 36.3844 -0.219594 -2.3357 0
M  V30 362 C 37.4004 0.637734 -1.61892 0
M  V30 363 O 38.5764 0.549336 -1.93763 0
M  V30 364 C 35.6414 0.62158 -3.41083 0
M  V30 365 C 34.7024 -0.256315 -4.28534 0
M  V30 366 C 33.9354 0.544807 -5.30912 0
M  V30 367 O 34.1584 1.77944 -5.41934 0
M  V30 368 O 33.0924 -0.0646478 -6.01865 0
M  V30 369 H 36.9184 -1.03208 -2.85625 0
M  V30 370 H 34.5034 -0.569025 -1.38139 0
M  V30 371 H 36.3854 1.10067 -4.06772 0
M  V30 372 H 35.0604 1.41165 -2.91297 0
M  V30 373 H 33.9674 -0.782559 -3.65823 0
M  V30 374 H 35.3004 -1.01034 -4.81719 0
M  V30 375 N 36.9525 1.47285 -0.560781 0
M  V30 376 C 38.2005 2.02064 -0.0379868 0
M  V30 377 C 38.5215 1.43711 1.31803 0
M  V30 378 O 37.7915 0.61362 1.86042 0
M  V30 379 H 36.3715 0.746918 -0.0110531 0
M  V30 380 H 39.0335 1.80648 -0.731598 0
M  V30 381 H 38.1295 3.12064 0.0474463 0
M  V30 382 N 38.4306 0.297415 1.54768 0
M  V30 383 C 39.3606 -0.573494 2.26348 0
M  V30 384 C 40.3416 -1.14085 1.26169 0
M  V30 385 O 41.5266 -1.17086 1.54934 0
M  V30 386 C 38.6566 -1.74716 3.00153 0
M  V30 387 C 37.6106 -1.31032 4.07449 0
M  V30 388 C 36.9366 -2.56887 4.68949 0
M  V30 389 C 38.2366 -0.444183 5.20408 0
M  V30 390 H 39.9306 0.0235131 2.99391 0
M  V30 391 H 37.4766 0.0127488 1.43994 0
M  V30 392 H 39.4296 -2.3625 3.48947 0
M  V30 393 H 38.1536 -2.37035 2.24682 0
M  V30 394 H 36.8126 -0.718066 3.59499 0
M  V30 395 H 36.4606 -3.17512 3.90122 0
M  V30 396 H 36.1606 -2.2836 5.41411 0
M  V30 397 H 37.6846 -3.19229 5.20505 0
M  V30 398 H 39.0986 -0.9651 5.65118 0
M  V30 399 H 37.4956 -0.252846 5.99567 0
M  V30 400 H 38.5656 0.531609 4.81977 0
M  V30 401 N 39.9087 -1.5758 0.0250728 0
M  V30 402 C 41.1577 -1.90811 -0.653767 0
M  V30 403 C 41.4707 -0.90273 -1.73523 0
M  V30 404 O 42.6767 -1.12614 -2.47043 0
M  V30 405 C 41.1327 -3.38804 -1.21409 0
M  V30 406 C 40.7407 -4.47692 -0.166126 0
M  V30 407 C 42.4847 -3.81108 -1.86967 0
M  V30 408 C 40.3917 -5.86779 -0.737856 0
M  V30 409 H 39.3217 -0.712063 -0.247956 0
M  V30 410 H 41.9727 -1.83281 0.0897137 0
M  V30 411 H 40.3547 -3.41252 -2.00905 0
M  V30 412 H 41.5287 -4.56797 0.606079 0
M  V30 413 H 39.8437 -4.14565 0.390466 0
M  V30 414 H 42.4407 -4.82375 -2.30692 0
M  V30 415 H 42.7837 -3.15953 -2.71071 0
M  V30 416 H 43.3167 -3.81065 -1.14167 0
M  V30 417 H 40.0557 -6.55468 0.0649577 0
M  V30 418 H 39.5757 -5.81288 -1.47864 0
M  V30 419 H 41.2547 -6.35223 -1.22884 0
M  V30 420 N 41.3868 0.248026 -1.55636 0
M  V30 421 C 42.3338 1.30707 -1.90222 0
M  V30 422 C 43.3038 1.47881 -0.756332 0
M  V30 423 O 44.4888 1.61883 -1.00988 0
M  V30 424 C 41.6288 2.65769 -2.20138 0
M  V30 425 C 40.7418 2.56612 -3.47526 0
M  V30 426 C 39.8768 3.8402 -3.67017 0
M  V30 427 C 38.9158 3.69476 -4.8801 0
M  V30 428 N 38.0528 4.88774 -5.04029 0
M  V30 429 H 42.8928 1.00512 -2.80538 0
M  V30 430 H 40.4298 0.485055 -1.38873 0
M  V30 431 H 42.3878 3.44386 -2.35487 0
M  V30 432 H 41.0178 2.94115 -1.33027 0
M  V30 433 H 40.0698 1.69571 -3.40514 0
M  V30 434 H 41.3818 2.41774 -4.36287 0
M  V30 435 H 40.5358 4.7108 -3.8232 0
M  V30 436 H 39.2748 4.01754 -2.76487 0
M  V30 437 H 38.2798 2.80799 -4.72686 0
M  V30 438 H 39.5048 3.53238 -5.8 0
M  V30 439 H 37.4508 5.0687 -4.16435 0
M  V30 440 H 37.3678 4.76562 -5.86877 0
M  V30 441 H 38.6358 5.77335 -5.23741 0
M  V30 442 N 42.8649 1.48995 0.513639 0
M  V30 443 C 44.0899 1.61792 1.29762 0
M  V30 444 C 44.5149 0.284475 1.85936 0
M  V30 445 O 43.8729 -0.746185 1.65232 0
M  V30 446 C 43.9209 2.67993 2.41272 0
M  V30 447 O 43.0249 2.26287 3.44772 0
M  V30 448 H 42.3659 0.541963 0.38363 0
M  V30 449 H 44.8959 1.95097 0.616307 0
M  V30 450 H 44.9059 2.89772 2.87221 0
M  V30 451 H 43.5809 3.64791 1.9975 0
M  V30 452 H 42.1579 2.14788 3.04829 0
M  V30 453 N 44.343 -0.763751 1.37857 0
M  V30 454 C 45.754 -1.3405 1.29952 0
M  V30 455 C 46.105 -1.96138 -0.0492898 0
M  V30 456 O 45.23 -1.94372 -0.951239 0
M  V30 457 C 45.825 -2.43729 2.35333 0
M  V30 458 C 44.384 -2.97151 2.31037 0
M  V30 459 C 43.531 -1.70438 2.18738 0
M  V30 460 H 46.482 -0.563396 1.48363 0
M  V30 461 H 46.503 -3.23412 2.00462 0
M  V30 462 H 46.015 -1.9851 3.33489 0
M  V30 463 H 44.116 -3.46724 1.3643 0
M  V30 464 H 44.229 -3.52221 3.24772 0
M  V30 465 H 42.593 -1.93673 1.65418 0
M  V30 466 H 43.376 -1.27312 3.18821 0
M  V30 467 N 45.8211 -1.22559 -0.990812 0
M  V30 468 C 46.7681 -0.997519 -2.0813 0
M  V30 469 C 47.7381 0.0814702 -1.659 0
M  V30 470 O 48.9231 -0.0685424 -1.90677 0
M  V30 471 C 46.0631 -0.583615 -3.40129 0
M  V30 472 C 45.1761 -1.7336 -3.9569 0
M  V30 473 C 44.3111 -1.26748 -5.15857 0
M  V30 474 C 43.3501 -2.38888 -5.63559 0
M  V30 475 N 42.4871 -1.93308 -6.74964 0
M  V30 476 H 47.3271 -1.93099 -2.26973 0
M  V30 477 H 44.8641 -0.962114 -1.11273 0
M  V30 478 H 46.8221 -0.324801 -4.15934 0
M  V30 479 H 45.4521 0.312845 -3.2128 0
M  V30 480 H 44.5041 -2.10669 -3.16738 0
M  V30 481 H 45.8161 -2.57704 -4.27071 0
M  V30 482 H 44.9701 -0.966173 -5.98957 0
M  V30 483 H 43.7091 -0.394272 -4.86104 0
M  V30 484 H 42.7141 -2.69805 -4.79046 0
M  V30 485 H 43.9391 -3.26728 -5.95336 0
M  V30 486 H 41.8851 -1.08352 -6.4699 0
M  V30 487 H 41.8021 -2.71217 -7.05675 0
M  V30 488 H 43.0701 -1.66252 -7.61564 0
M  V30 489 N 47.2992 1.18797 -1.03562 0
M  V30 490 C 48.7102 1.70322 -0.764676 0
M  V30 491 C 49.0612 1.82708 0.714996 0
M  V30 492 O 48.1862 1.50299 1.55689 0
M  V30 493 C 48.7812 3.09356 -1.38145 0
M  V30 494 C 47.3402 3.58114 -1.15895 0
M  V30 495 C 46.4872 2.34798 -1.4753 0
M  V30 496 H 49.4382 1.03543 -1.20268 0
M  V30 497 H 49.4592 3.72378 -0.781977 0
M  V30 498 H 48.9712 3.00309 -2.45837 0
M  V30 499 H 47.0722 3.72464 -0.100544 0
M  V30 500 H 47.1852 4.4184 -1.8524 0
M  V30 501 H 45.5492 2.38464 -0.894829 0
M  V30 502 H 46.3322 2.28375 -2.56319 0
M  V30 503 N 48.7773 0.814389 1.34928 0
M  V30 504 C 49.7073 0.244827 2.32213 0
M  V30 505 C 50.6883 -0.634024 1.57842 0
M  V30 506 O 51.8733 -0.562676 1.8587 0
M  V30 507 C 49.0033 -0.601106 3.42058 0
M  V30 508 C 47.9573 0.179896 4.27622 0
M  V30 509 C 47.2833 -0.788237 5.28858 0
M  V30 510 C 48.5833 1.38329 5.03649 0
M  V30 511 H 50.2773 1.05763 2.80097 0
M  V30 512 H 47.8233 0.510029 1.34665 0
M  V30 513 H 49.7763 -1.00968 4.09125 0
M  V30 514 H 48.5003 -1.44688 2.92802 0
M  V30 515 H 47.1593 0.569739 3.62146 0
M  V30 516 H 46.8073 -1.62973 4.75866 0
M  V30 517 H 46.5073 -0.269942 5.8698 0
M  V30 518 H 48.0313 -1.19485 5.98795 0
M  V30 519 H 49.4453 1.04918 5.63618 0
M  V30 520 H 47.8423 1.83662 5.71304 0
M  V30 521 H 48.9123 2.16592 4.33839 0
M  V30 522 N 50.2554 -1.46986 0.568584 0
M  V30 523 C 51.1884 -2.27129 -0.220779 0
M  V30 524 C 52.1664 -1.34757 -0.909905 0
M  V30 525 O 53.3504 -1.64152 -0.926622 0
M  V30 526 C 50.4774 -3.12108 -1.31553 0
M  V30 527 C 49.5234 -4.20141 -0.733748 0
M  V30 528 S 50.3564 -5.33783 0.428479 0
M  V30 529 C 51.5124 -6.22327 -0.667811 0
M  V30 530 H 51.7454 -2.93731 0.459267 0
M  V30 531 H 49.2784 -1.5026 0.355154 0
M  V30 532 H 51.2364 -3.61636 -1.94241 0
M  V30 533 H 49.8974 -2.44847 -1.96746 0
M  V30 534 H 49.0904 -4.79373 -1.5562 0
M  V30 535 H 48.6924 -3.73553 -0.182812 0
M  V30 536 H 50.9844 -6.59364 -1.55708 0
M  V30 537 H 51.9274 -7.0801 -0.11258 0
M  V30 538 H 52.3354 -5.5618 -0.965601 0
M  V30 539 N 51.7335 -0.305618 -1.54608 0
M  V30 540 C 52.6805 0.568421 -2.23691 0
M  V30 541 C 53.6505 1.12592 -1.22116 0
M  V30 542 O 54.8355 1.16959 -1.50749 0
M  V30 543 C 51.9755 1.7322 -2.98477 0
M  V30 544 C 51.0885 1.20566 -4.14835 0
M  V30 545 C 50.2235 2.33368 -4.77193 0
M  V30 546 C 49.2625 1.7787 -5.85686 0
M  V30 547 N 48.3995 2.84263 -6.4198 0
M  V30 548 H 53.2395 -0.0272867 -2.97988 0
M  V30 549 H 50.7765 -0.0252363 -1.47078 0
M  V30 550 H 52.7345 2.41675 -3.40072 0
M  V30 551 H 51.3645 2.29947 -2.26548 0
M  V30 552 H 50.4165 0.413223 -3.78149 0
M  V30 553 H 51.7285 0.759417 -4.92985 0
M  V30 554 H 50.8825 3.09761 -5.21664 0
M  V30 555 H 49.6215 2.8132 -3.98385 0
M  V30 556 H 48.6265 0.99968 -5.40635 0
M  V30 557 H 49.8515 1.30816 -6.66381 0
M  V30 558 H 47.7975 3.31541 -5.66053 0
M  V30 559 H 47.7145 2.44149 -7.15491 0
M  V30 560 H 48.9825 3.6054 -6.91109 0
M  V30 561 N 53.2116 1.57565 -0.0334293 0
M  V30 562 C 54.1586 2.10478 0.946981 0
M  V30 563 C 55.1286 1.00787 1.32027 0
M  V30 564 O 56.3136 1.28232 1.41284 0
M  V30 565 C 53.4536 2.63994 2.22263 0
M  V30 566 C 52.5666 3.87709 1.90541 0
M  V30 567 C 51.7016 4.29604 3.12433 0
M  V30 568 C 50.7406 5.46065 2.76549 0
M  V30 569 N 49.8776 5.83096 3.9108 0
M  V30 570 H 54.7176 2.93963 0.488846 0
M  V30 571 H 52.2546 1.45296 0.22969 0
M  V30 572 H 54.2126 2.93114 2.96884 0
M  V30 573 H 52.8426 1.83333 2.65685 0
M  V30 574 H 51.8946 3.65291 1.06144 0
M  V30 575 H 53.2066 4.72403 1.60116 0
M  V30 576 H 52.3606 4.60182 3.9537 0
M  V30 577 H 51.0996 3.43685 3.46023 0
M  V30 578 H 50.1046 5.15176 1.92026 0
M  V30 579 H 51.3296 6.33685 2.44171 0
M  V30 580 H 49.2756 5.00132 4.24504 0
M  V30 581 H 49.1926 6.6244 3.64293 0
M  V30 582 H 50.4606 6.18282 4.74708 0
M  V30 583 N 54.6897 -0.239769 1.55765 0
M  V30 584 C 55.6217 -1.32001 1.87372 0
M  V30 585 C 56.6347 -1.43944 0.760522 0
M  V30 586 O 57.8237 -1.45167 1.0387 0
M  V30 587 C 54.9237 -2.69779 2.05115 0
M  V30 588 C 54.0967 -2.80014 3.36022 0
M  V30 589 C 53.1557 -3.98684 3.4342 0
M  V30 590 O 52.1817 -3.87877 4.16582 0
M  V30 591 N 53.3837 -5.12176 2.73232 0
M  V30 592 H 56.1487 -1.0522 2.80622 0
M  V30 593 H 53.7097 -0.429857 1.56089 0
M  V30 594 H 55.7017 -3.47517 2.07399 0
M  V30 595 H 54.2717 -2.89237 1.18577 0
M  V30 596 H 53.4917 -1.88896 3.45994 0
M  V30 597 H 54.7797 -2.83808 4.22292 0
M  V30 598 H 54.1777 -5.2385 2.13536 0
M  V30 599 H 52.7347 -5.88022 2.81199 0
M  V30 600 N 56.1678 -1.49265 -0.50573 0
M  V30 601 C 57.1308 -1.65075 -1.59006 0
M  V30 602 C 58.1308 -0.522768 -1.52065 0
M  V30 603 O 59.3208 -0.789117 -1.55302 0
M  V30 604 C 56.4528 -1.64369 -2.98656 0
M  V30 605 H 57.6458 -2.61784 -1.46319 0
M  V30 606 H 55.1988 -1.38226 -0.729616 0
M  V30 607 H 55.9338 -0.692272 -3.16825 0
M  V30 608 H 55.7188 -2.46282 -3.05103 0
M  V30 609 H 57.2088 -1.78674 -3.77446 0
M  V30 610 N 57.6459 0.756429 -1.3826 0
M  V30 611 C 58.8919 1.51772 -1.34511 0
M  V30 612 C 59.2249 1.94089 0.0656691 0
M  V30 613 O 58.4999 1.65221 1.02626 0
M  V30 614 C 58.7829 2.77226 -2.29821 0
M  V30 615 C 58.6359 2.41065 -3.79747 0
M  V30 616 C 59.9549 3.79236 -2.23312 0
M  V30 617 H 57.0739 0.550578 -0.489931 0
M  V30 618 H 59.7159 0.866607 -1.69086 0
M  V30 619 H 57.8659 3.32784 -2.00467 0
M  V30 620 H 59.5379 1.91303 -4.19763 0
M  V30 621 H 57.7809 1.7356 -3.97567 0
M  V30 622 H 58.4519 3.3081 -4.41892 0
M  V30 623 H 60.9279 3.3321 -2.49219 0
M  V30 624 H 59.8039 4.64714 -2.92116 0
M  V30 625 H 60.0649 4.24615 -1.23102 0
M  V30 626 N 59.124 1.23083 0.984299 0
M  V30 627 C 60.071 1.00854 2.07598 0
M  V30 628 C 61.041 -0.0726709 1.65941 0
M  V30 629 O 62.226 0.0786535 1.90638 0
M  V30 630 C 59.366 0.601645 3.39815 0
M  V30 631 C 58.479 1.75456 3.94765 0
M  V30 632 C 57.614 1.29482 5.15177 0
M  V30 633 C 56.653 2.41873 5.62284 0
M  V30 634 N 55.79 1.96885 6.73929 0
M  V30 635 H 60.63 1.943 2.25946 0
M  V30 636 H 58.167 0.968001 1.10762 0
M  V30 637 H 60.125 0.346854 4.15756 0
M  V30 638 H 58.755 -0.295803 3.21442 0
M  V30 639 H 57.807 2.12346 3.15616 0
M  V30 640 H 59.119 2.59965 4.25699 0
M  V30 641 H 58.273 0.997923 5.98437 0
M  V30 642 H 57.012 0.420046 4.85888 0
M  V30 643 H 56.017 2.72342 4.77608 0
M  V30 644 H 57.242 3.29881 5.93595 0
M  V30 645 H 55.188 1.11782 6.46406 0
M  V30 646 H 55.105 2.74956 7.04227 0
M  V30 647 H 56.373 1.70289 7.60672 0
M  V30 648 N 60.6021 -1.18246 1.0419 0
M  V30 649 C 62.0181 -1.40269 0.761366 0
M  V30 650 C 62.2181 -1.90777 -0.648578 0
M  V30 651 O 61.2741 -2.0929 -1.41258 0
M  V30 652 C 62.5871 -2.40237 1.8085 0
M  V30 653 C 64.1351 -2.53961 1.82955 0
M  V30 654 C 64.6101 -3.57194 2.86664 0
M  V30 655 N 66.1011 -3.64702 2.85563 0
M  V30 656 C 66.8361 -4.44309 3.6246 0
M  V30 657 N 66.3321 -5.27514 4.49111 0
M  V30 658 N 68.1251 -4.39084 3.50944 0
M  V30 659 H 60.2761 -0.837882 1.95175 0
M  V30 660 H 62.5391 -0.430608 0.84456 0
M  V30 661 H 62.2451 -2.10176 2.81991 0
M  V30 662 H 62.1191 -3.39601 1.64168 0
M  V30 663 H 64.5061 -2.83338 0.824855 0
M  V30 664 H 64.5871 -1.54706 2.03715 0
M  V30 665 H 64.2311 -3.28558 3.87314 0
M  V30 666 H 64.1611 -4.5613 2.6316 0
M  V30 667 H 66.6521 -3.05289 2.22727 0
M  V30 668 H 66.9651 -5.85411 5.04493 0
M  V30 669 H 65.3101 -5.2693 4.53178 0
M  V30 670 H 68.5011 -3.7313 2.82651 0
M  V30 671 H 68.6741 -5.00883 4.11121 0
M  V30 672 N 62.0802 -0.821533 -1.34494 0
M  V30 673 C 63.0302 -0.214793 -2.26986 0
M  V30 674 C 64.0142 0.620125 -1.4847 0
M  V30 675 O 65.2062 0.474933 -1.70509 0
M  V30 676 C 62.3352 0.623566 -3.37589 0
M  V30 677 C 61.4212 -0.221904 -4.23519 0
M  V30 678 N 61.8122 -1.29223 -4.89014 0
M  V30 679 C 60.1102 -0.00600922 -4.46 0
M  V30 680 C 60.8112 -1.80965 -5.52835 0
M  V30 681 N 59.7872 -1.11376 -5.32068 0
M  V30 682 H 63.5892 -1.03354 -2.75128 0
M  V30 683 H 61.1032 -0.6642 -1.48196 0
M  V30 684 H 63.1002 1.0744 -4.02818 0
M  V30 685 H 61.7602 1.44049 -2.90998 0
M  V30 686 H 62.7712 -1.67502 -4.90065 0
M  V30 687 H 59.4482 0.77886 -4.10171 0
M  V30 688 H 60.8382 -2.70502 -6.15043 0
M  V30 689 N 63.5583 1.46682 -0.576371 0
M  V30 690 C 64.5083 2.27278 0.181288 0
M  V30 691 C 65.4923 1.35497 0.867721 0
M  V30 692 O 66.6843 1.59717 0.762863 0
M  V30 693 C 63.8133 3.21703 1.19841 0
M  V30 694 C 62.8993 4.20969 0.51442 0
M  V30 695 N 63.2903 5.03999 -0.426407 0
M  V30 696 C 61.5883 4.39373 0.765963 0
M  V30 697 C 62.2893 5.75812 -0.825565 0
M  V30 698 N 61.2653 5.43315 -0.176116 0
M  V30 699 H 65.0673 2.88863 -0.541785 0
M  V30 700 H 62.5813 1.57455 -0.397697 0
M  V30 701 H 64.5783 3.78145 1.75533 0
M  V30 702 H 63.2383 2.61677 1.92238 0
M  V30 703 H 64.2493 5.11659 -0.8016 0
M  V30 704 H 60.9263 3.90502 1.47698 0
M  V30 705 H 62.3163 6.52577 -1.59976 0
M  V30 706 N 65.0364 0.313813 1.54444 0
M  V30 707 C 65.9864 -0.571898 2.20711 0
M  V30 708 C 66.9704 -1.08913 1.18435 0
M  V30 709 O 68.1624 -1.02777 1.44104 0
M  V30 710 C 65.2914 -1.7371 2.96108 0
M  V30 711 C 64.3774 -1.23522 4.05713 0
M  V30 712 N 64.7684 -0.452288 5.03774 0
M  V30 713 C 63.0664 -1.51482 4.19487 0
M  V30 714 C 63.7674 -0.183438 5.81411 0
M  V30 715 N 62.7434 -0.766845 5.38164 0
M  V30 716 H 66.5454 0.0336802 2.93881 0
M  V30 717 H 64.0594 0.119192 1.61962 0
M  V30 718 H 66.0564 -2.38329 3.4206 0
M  V30 719 H 64.7164 -2.34625 2.24458 0
M  V30 720 H 65.7274 -0.0960131 5.17811 0
M  V30 721 H 62.4044 -2.13053 3.59047 0
M  V30 722 H 63.7944 0.446216 6.70417 0
M  V30 723 N 66.5145 -1.57545 0.0417849 0
M  V30 724 C 67.4615 -2.10977 -0.935805 0
M  V30 725 C 68.4315 -1.01486 -1.31491 0
M  V30 726 O 69.6165 -1.2898 -1.40602 0
M  V30 727 C 66.7565 -2.65169 -2.2086 0
M  V30 728 C 65.8695 -3.88714 -1.88482 0
M  V30 729 C 65.0045 -4.31254 -3.1015 0
M  V30 730 C 64.0435 -5.47524 -2.7365 0
M  V30 731 N 63.1805 -5.85162 -3.87982 0
M  V30 732 H 68.0205 -2.94218 -0.473249 0
M  V30 733 H 65.5575 -1.45415 -0.221981 0
M  V30 734 H 67.5155 -2.94685 -2.95325 0
M  V30 735 H 66.1455 -1.8474 -2.64709 0
M  V30 736 H 65.1975 -3.65849 -1.04205 0
M  V30 737 H 66.5095 -4.73245 -1.57608 0
M  V30 738 H 65.6635 -4.62273 -3.92923 0
M  V30 739 H 64.4025 -3.45516 -3.44195 0
M  V30 740 H 63.4075 -5.16187 -1.89291 0
M  V30 741 H 64.6325 -6.34971 -2.40807 0
M  V30 742 H 62.5785 -5.02377 -4.21846 0
M  V30 743 H 62.4955 -6.64362 -3.60775 0
M  V30 744 H 63.7635 -6.20791 -4.71422 0
M  V30 745 N 67.9926 0.231505 -1.5589 0
M  V30 746 C 68.9426 1.29007 -1.87993 0
M  V30 747 C 69.9266 1.42764 -0.742102 0
M  V30 748 O 71.1186 1.45747 -1.00433 0
M  V30 749 C 68.2476 2.6425 -2.1915 0
M  V30 750 C 67.3336 2.54435 -3.39299 0
M  V30 751 N 67.7246 2.14262 -4.58176 0
M  V30 752 C 66.0226 2.85416 -3.42715 0
M  V30 753 C 66.7236 2.15455 -5.40328 0
M  V30 754 N 65.6996 2.55558 -4.79783 0
M  V30 755 H 69.5016 0.970213 -2.77424 0
M  V30 756 H 67.0156 0.440097 -1.56323 0
M  V30 757 H 69.0126 3.40665 -2.40319 0
M  V30 758 H 67.6726 2.9709 -1.31025 0
M  V30 759 H 68.6836 1.85554 -4.83518 0
M  V30 760 H 65.3606 3.22693 -2.64906 0
M  V30 761 H 66.7506 1.86605 -6.45467 0
M  V30 762 N 69.4707 1.49531 0.497807 0
M  V30 763 C 70.4187 1.66926 1.61983 0
M  V30 764 C 71.4127 0.535167 1.60724 0
M  V30 765 O 72.6187 0.714896 1.65195 0
M  V30 766 H 68.9937 0.526415 0.537021 0
M  V30 767 H 70.9647 2.61098 1.44465 0
M  V30 768 C 69.7137 1.75602 3.00099 0
M  V30 769 H 69.0367 2.62244 3.01775 0
M  V30 770 H 70.4767 1.91807 3.78135 0
M  V30 771 C 68.9357 0.501543 3.33146 0
M  V30 772 O 69.4657 -0.371342 3.9998 0
M  V30 773 N 67.6717 0.363531 2.88317 0
M  V30 774 H 67.2187 1.07485 2.34104 0
M  V30 775 H 67.1767 -0.474728 3.10795 0
M  V30 776 N 70.9488 -0.749086 1.3866 0
M  V30 777 C 71.8788 -1.8764 1.38973 0
M  V30 778 C 72.8598 -1.68178 0.255004 0
M  V30 779 O 74.0448 -1.88704 0.458754 0
M  V30 780 C 71.1748 -3.25222 1.21851 0
M  V30 781 C 70.1288 -3.59295 2.32575 0
M  V30 782 C 69.4548 -4.95663 2.00555 0
M  V30 783 C 70.7548 -3.63709 3.7485 0
M  V30 784 H 72.4488 -1.87635 2.3331 0
M  V30 785 H 69.9948 -0.901329 1.12303 0
M  V30 786 H 71.9478 -4.03746 1.20695 0
M  V30 787 H 70.6718 -3.25719 0.239775 0
M  V30 788 H 69.3308 -2.83093 2.32925 0
M  V30 789 H 68.9788 -4.92724 1.01154 0
M  V30 790 H 68.6788 -5.19429 2.74714 0
M  V30 791 H 70.2028 -5.7656 2.01024 0
M  V30 792 H 71.6168 -4.32338 3.76506 0
M  V30 793 H 70.0138 -3.98986 4.48252 0
M  V30 794 H 71.0838 -2.63834 4.06841 0
M  V30 795 N 72.4269 -1.23603 -0.977757 0
M  V30 796 C 73.8429 -0.999251 -1.24447 0
M  V30 797 C 74.0429 0.298053 -1.99283 0
M  V30 798 O 73.0989 1.01681 -2.31122 0
M  V30 799 C 74.4119 -2.20784 -2.04144 0
M  V30 800 C 75.9599 -2.25303 -2.17273 0
M  V30 801 C 76.4349 -3.45755 -3.00362 0
M  V30 802 N 77.9259 -3.4601 -3.07947 0
M  V30 803 C 78.6609 -4.35868 -3.72568 0
M  V30 804 N 78.1569 -5.35966 -4.38991 0
M  V30 805 N 79.9499 -4.23605 -3.6948 0
M  V30 806 H 72.1009 -2.06986 -0.476483 0
M  V30 807 H 74.3639 -0.907801 -0.273134 0
M  V30 808 H 74.0699 -3.14945 -1.56533 0
M  V30 809 H 73.9439 -2.22085 -3.04891 0
M  V30 810 H 76.3309 -1.3168 -2.64092 0
M  V30 811 H 76.4119 -2.28033 -1.15907 0
M  V30 812 H 76.0559 -4.39687 -2.5424 0
M  V30 813 H 75.9859 -3.40266 -4.01904 0
M  V30 814 H 78.4769 -2.73588 -2.60688 0
M  V30 815 H 78.7899 -6.00783 -4.86086 0
M  V30 816 H 77.1349 -5.39863 -4.37691 0
M  V30 817 H 80.3259 -3.44647 -3.16759 0
M  V30 818 H 80.4989 -4.93836 -4.1956 0
M  V30 819 N 73.905 1.17692 -1.04816 0
M  V30 820 C 74.855 2.1952 -0.616042 0
M  V30 821 C 75.839 1.57147 0.345485 0
M  V30 822 O 77.031 1.76245 0.163325 0
M  V30 823 C 74.16 3.43298 0.0116917 0
M  V30 824 C 73.246 4.12777 -0.973435 0
M  V30 825 N 73.637 4.5814 -2.14339 0
M  V30 826 C 71.935 4.38747 -0.80108 0
M  V30 827 C 72.636 5.11713 -2.7663 0
M  V30 828 N 71.612 5.03686 -2.04453 0
M  V30 829 H 75.414 2.52293 -1.5075 0
M  V30 830 H 72.928 1.3398 -0.917776 0
M  V30 831 H 74.925 4.15519 0.339006 0
M  V30 832 H 73.585 3.12018 0.898593 0
M  V30 833 H 74.596 4.52349 -2.52191 0
M  V30 834 H 71.273 4.17485 0.0350934 0
M  V30 835 H 72.663 5.56962 -3.75823 0
M  V30 836 N 75.3831 0.828654 1.34056 0
M  V30 837 C 76.7991 0.515135 1.51058 0
M  V30 838 C 76.9991 -0.959581 1.77184 0
M  V30 839 O 76.0551 -1.74382 1.82612 0
M  V30 840 C 77.3681 1.37963 2.67183 0
M  V30 841 C 78.9161 1.37735 2.81066 0
M  V30 842 C 79.3911 2.22645 4.00241 0
M  V30 843 N 80.8821 2.203 4.07458 0
M  V30 844 C 81.6171 2.82744 4.98842 0
M  V30 845 N 81.1131 3.54201 5.9541 0
M  V30 846 N 82.9061 2.72268 4.91759 0
M  V30 847 H 75.0571 1.78343 1.15358 0
M  V30 848 H 77.3201 0.760304 0.566252 0
M  V30 849 H 77.0261 2.42714 2.54525 0
M  V30 850 H 76.9001 1.0484 3.62338 0
M  V30 851 H 79.2871 0.337593 2.93163 0
M  V30 852 H 79.3681 1.74859 1.86703 0
M  V30 853 H 79.0121 3.26674 3.88905 0
M  V30 854 H 78.9421 1.82869 4.93829 0
M  V30 855 H 81.4331 1.68327 3.38341 0
M  V30 856 H 81.7461 3.9908 6.61782 0
M  V30 857 H 80.0911 3.58308 5.95517 0
M  V30 858 H 83.2821 2.16014 4.15278 0
M  V30 859 H 83.4551 3.21219 5.62781 0
M  V30 860 N 76.8612 -1.46375 0.584142 0
M  V30 861 C 78.0912 -2.06461 0.0758195 0
M  V30 862 C 78.4992 -1.43322 -1.23512 0
M  V30 863 O 77.8422 -0.533216 -1.75791 0
M  V30 864 C 77.9042 -3.59131 -0.162773 0
M  V30 865 C 77.5682 -4.4447 1.06279 0
M  V30 866 C 78.5652 -4.80918 1.97519 0
M  V30 867 C 76.2502 -4.85584 1.28504 0
M  V30 868 C 78.2442 -5.57309 3.09331 0
M  V30 869 C 75.9312 -5.61734 2.4062 0
M  V30 870 C 76.9292 -5.9751 3.30863 0
M  V30 871 O 76.6172 -6.72121 4.41032 0
M  V30 872 H 76.3492 -0.673745 0.0551725 0
M  V30 873 H 78.9032 -1.88969 0.804984 0
M  V30 874 H 77.1332 -3.74936 -0.946565 0
M  V30 875 H 78.8222 -4.0114 -0.619782 0
M  V30 876 H 79.5882 -4.49732 1.81565 0
M  V30 877 H 75.4672 -4.57187 0.591702 0
M  V30 878 H 79.0112 -5.85152 3.79793 0
M  V30 879 H 74.9082 -5.92334 2.56537 0
M  V30 880 H 75.6762 -6.90547 4.39417 0
M  V30 881 N 78.3393 -0.321999 -1.54275 0
M  V30 882 C 79.2493 0.553631 -2.27974 0
M  V30 883 C 80.2653 1.13054 -1.32268 0
M  V30 884 O 81.4413 1.15084 -1.6528 0
M  V30 885 C 78.5063 1.69927 -3.02201 0
M  V30 886 C 77.5673 1.15433 -4.1349 0
M  V30 887 C 76.8003 2.24537 -4.84168 0
M  V30 888 O 77.0233 3.44852 -4.5435 0
M  V30 889 O 75.9573 1.90044 -5.7111 0
M  V30 890 H 79.7833 -0.0448345 -3.03667 0
M  V30 891 H 77.3683 -0.0877418 -1.49142 0
M  V30 892 H 79.2503 2.3663 -3.48689 0
M  V30 893 H 77.9253 2.28395 -2.29385 0
M  V30 894 H 76.8323 0.452436 -3.71354 0
M  V30 895 H 78.1653 0.614805 -4.88345 0
M  V30 896 N 79.8174 1.5752 -0.0501392 0
M  V30 897 C 81.0644 1.9265 0.623874 0
M  V30 898 C 81.3924 0.928411 1.70912 0
M  V30 899 O 80.6474 -0.0594525 1.9561 0
M  V30 900 C 80.9464 3.34467 1.25963 0
M  V30 901 C 80.6124 4.49883 0.302689 0
M  V30 902 C 79.2744 4.81184 0.0393636 0
M  V30 903 C 81.6264 5.20002 -0.353205 0
M  V30 904 C 78.9544 5.79951 -0.887308 0
M  V30 905 C 81.3064 6.1976 -1.26806 0
M  V30 906 C 79.9704 6.49491 -1.54007 0
M  V30 907 H 79.2404 0.704957 0.228292 0
M  V30 908 H 81.8874 1.91146 -0.116398 0
M  V30 909 H 80.1924 3.32333 2.07514 0
M  V30 910 H 81.8894 3.58928 1.78806 0
M  V30 911 H 78.4794 4.25457 0.518109 0
M  V30 912 H 82.6634 4.96033 -0.162854 0
M  V30 913 H 77.9194 6.01322 -1.10553 0
M  V30 914 H 82.0934 6.73205 -1.78236 0
M  V30 915 H 79.7204 7.25837 -2.25976 0
M  V30 916 N 81.2955 -0.223234 1.56011 0
M  V30 917 C 82.2255 -1.27988 1.95298 0
M  V30 918 C 83.2065 -1.48976 0.820979 0
M  V30 919 O 84.3915 -1.61188 1.08315 0
M  V30 920 C 81.5215 -2.63 2.26822 0
M  V30 921 C 80.4755 -2.56671 3.42497 0
M  V30 922 C 79.8015 -3.95697 3.59622 0
M  V30 923 C 81.1015 -2.11601 4.77517 0
M  V30 924 H 82.7955 -0.953525 2.8381 0
M  V30 925 H 80.3415 -0.457244 1.36548 0
M  V30 926 H 82.2945 -3.37077 2.52898 0
M  V30 927 H 81.0185 -2.9732 1.35161 0
M  V30 928 H 79.6775 -1.85051 3.16467 0
M  V30 929 H 79.3255 -4.27322 2.6534 0
M  V30 930 H 79.0255 -3.92345 4.37424 0
M  V30 931 H 80.5495 -4.71438 3.88044 0
M  V30 932 H 81.9635 -2.7542 5.02809 0
M  V30 933 H 80.3605 -2.19311 5.5859 0
M  V30 934 H 81.4305 -1.06824 4.72987 0
M  V30 935 N 82.7736 -1.49793 -0.48987 0
M  V30 936 C 83.6836 -1.70036 -1.61632 0
M  V30 937 C 84.6996 -0.583102 -1.63939 0
M  V30 938 O 85.8756 -0.859169 -1.82154 0
M  V30 939 C 82.9406 -1.77277 -2.97949 0
M  V30 940 C 82.0016 -3.00918 -3.06181 0
M  V30 941 C 81.2346 -3.07804 -4.35996 0
M  V30 942 O 81.4576 -2.21982 -5.25433 0
M  V30 943 O 80.3916 -4.00369 -4.49431 0
M  V30 944 H 84.2176 -2.65486 -1.47482 0
M  V30 945 H 81.8026 -1.33666 -0.667362 0
M  V30 946 H 83.6846 -1.84329 -3.78947 0
M  V30 947 H 82.3596 -0.850076 -3.12339 0
M  V30 948 H 81.2666 -2.99377 -2.2433 0
M  V30 949 H 82.5996 -3.92704 -2.96723 0
M  V30 950 N 84.2517 0.741722 -1.39055 0
M  V30 951 C 85.4797 1.53098 -1.39171 0
M  V30 952 C 85.8947 1.88794 0.0155099 0
M  V30 953 O 85.2517 1.53626 0.985159 0
M  V30 954 C 85.3027 2.82274 -2.2584 0
M  V30 955 O 85.0237 2.48097 -3.61081 0
M  V30 956 C 86.5247 3.76343 -2.34266 0
M  V30 957 H 83.7447 0.473335 -0.4756 0
M  V30 958 H 86.2887 0.917045 -1.82785 0
M  V30 959 H 84.4437 3.40015 -1.85656 0
M  V30 960 H 84.8577 3.31029 -4.06842 0
M  V30 961 H 86.3317 4.63898 -2.9917 0
M  V30 962 H 86.8087 4.17619 -1.35982 0
M  V30 963 H 87.4147 3.24523 -2.74891 0
M  V30 964 N 85.7298 1.2412 0.971189 0
M  V30 965 C 86.6598 1.05508 2.08304 0
M  V30 966 C 87.6408 -0.0308864 1.70072 0
M  V30 967 O 88.8258 0.135521 1.93727 0
M  V30 968 C 85.9558 0.655365 3.4106 0
M  V30 969 C 84.9098 1.68971 3.93234 0
M  V30 970 C 84.2358 1.14516 5.22293 0
M  V30 971 C 85.5358 3.08487 4.21465 0
M  V30 972 H 87.2298 1.98507 2.24132 0
M  V30 973 H 84.7758 0.955821 1.07704 0
M  V30 974 H 86.7288 0.51217 4.18276 0
M  V30 975 H 85.4528 -0.31032 3.25122 0
M  V30 976 H 84.1118 1.82106 3.18171 0
M  V30 977 H 83.7598 0.170189 5.02712 0
M  V30 978 H 83.4598 1.83635 5.58168 0
M  V30 979 H 84.9838 1.01401 6.02121 0
M  V30 980 H 86.3978 2.98601 4.89398 0
M  V30 981 H 84.7948 3.74926 4.68562 0
M  V30 982 H 85.8648 3.56787 3.28376 0
M  V30 983 N 87.2079 -1.17134 1.05439 0
M  V30 984 C 88.4559 -1.87085 0.764429 0
M  V30 985 C 88.7769 -1.81584 -0.710787 0
M  V30 986 O 88.0469 -1.24349 -1.51374 0
M  V30 987 H 86.6269 -0.692627 0.279779 0
M  V30 988 H 89.2889 -1.42087 1.33406 0
M  V30 989 H 88.3849 -2.92759 1.0816 0
M  V30 990 N 88.686 -0.835752 -1.33615 0
M  V30 991 C 89.633 -0.26473 -2.29277 0
M  V30 992 C 90.603 0.617712 -1.54187 0
M  V30 993 O 91.788 0.556641 -1.825 0
M  V30 994 C 88.928 0.556777 -3.40579 0
M  V30 995 C 88.041 -0.349339 -4.30585 0
M  V30 996 C 87.176 0.482969 -5.29 0
M  V30 997 C 86.215 -0.421732 -6.10645 0
M  V30 998 N 85.352 0.372262 -7.01112 0
M  V30 999 H 90.192 -1.08582 -2.77514 0
M  V30 1000 H 87.729 -0.546927 -1.36554 0
M  V30 1001 H 89.687 1.04852 -4.03809 0
M  V30 1002 H 88.317 1.34286 -2.93542 0
M  V30 1003 H 87.369 -0.959372 -3.68104 0
M  V30 1004 H 88.681 -1.04445 -4.87742 0
M  V30 1005 H 87.835 1.03866 -5.97743 0
M  V30 1006 H 86.574 1.21153 -4.72412 0
M  V30 1007 H 85.579 -0.989464 -5.40823 0
M  V30 1008 H 86.804 -1.14861 -6.69316 0
M  V30 1009 H 84.75 1.08426 -6.46977 0
M  V30 1010 H 84.667 -0.264198 -7.55538 0
M  V30 1011 H 85.935 0.910293 -7.74167 0
M  V30 1012 N 90.1641 1.46063 -0.591896 0
M  V30 1013 C 91.4121 2.01938 -0.0808391 0
M  V30 1014 C 91.7331 1.46475 1.28725 0
M  V30 1015 O 91.0031 0.652944 1.84698 0
M  V30 1016 H 89.5831 0.746516 -0.0268938 0
M  V30 1017 H 92.2451 1.79055 -0.769752 0
M  V30 1018 H 91.3411 3.12094 -0.0187578 0
M  V30 1019 N 91.6422 0.330177 1.54103 0
M  V30 1020 C 92.8702 -0.272179 2.05102 0
M  V30 1021 C 93.2852 -1.45267 1.20595 0
M  V30 1022 O 92.6422 -1.8094 0.238144 0
M  V30 1023 C 92.6932 -0.70023 3.54653 0
M  V30 1024 O 92.4142 0.433301 4.35952 0
M  V30 1025 C 93.9152 -1.3647 4.21771 0
M  V30 1026 H 91.1352 -0.0549159 0.668749 0
M  V30 1027 H 93.6792 0.478285 1.98828 0
M  V30 1028 H 91.8342 -1.40066 3.61193 0
M  V30 1029 H 92.2482 0.0947539 5.24414 0
M  V30 1030 H 93.7222 -1.61509 5.27843 0
M  V30 1031 H 94.1992 -2.31409 3.73292 0
M  V30 1032 H 94.8052 -0.706675 4.19388 0
M  V30 1033 N 93.1203 -1.57491 0.0584922 0
M  V30 1034 C 94.3503 -1.9701 -0.622134 0
M  V30 1035 C 94.7583 -0.935034 -1.6448 0
M  V30 1036 O 94.1013 0.0882904 -1.83488 0
M  V30 1037 C 94.1633 -3.32794 -1.35972 0
M  V30 1038 C 93.8273 -4.54343 -0.492043 0
M  V30 1039 C 94.8243 -5.19323 0.244901 0
M  V30 1040 C 92.5093 -5.00534 -0.420821 0
M  V30 1041 C 94.5033 -6.28835 1.04143 0
M  V30 1042 C 92.1903 -6.09921 0.379389 0
M  V30 1043 C 93.1883 -6.73933 1.10919 0
M  V30 1044 O 92.8763 -7.81216 1.89623 0
M  V30 1045 H 92.6083 -0.653127 -0.174359 0
M  V30 1046 H 95.1623 -2.05029 0.123418 0
M  V30 1047 H 93.3923 -3.21351 -2.15105 0
M  V30 1048 H 95.0813 -3.5701 -1.93129 0
M  V30 1049 H 95.8473 -4.8459 0.19939 0
M  V30 1050 H 91.7263 -4.50496 -0.978474 0
M  V30 1051 H 95.2703 -6.7873 1.61157 0
M  V30 1052 H 91.1673 -6.44089 0.426512 0
M  V30 1053 H 91.9353 -7.98029 1.81913 0
M  V30 1054 N 94.5984 0.214957 -1.56127 0
M  V30 1055 C 95.8464 0.936518 -1.79091 0
M  V30 1056 C 96.1674 1.84606 -0.628148 0
M  V30 1057 O 95.4374 1.92664 0.35462 0
M  V30 1058 H 94.0174 0.3488 -0.660566 0
M  V30 1059 H 96.6794 0.22523 -1.93594 0
M  V30 1060 H 95.7754 1.53943 -2.71492 0
M  V30 1061 N 96.0765 1.50051 0.48192 0
M  V30 1062 C 97.0235 1.68122 1.58125 0
M  V30 1063 C 97.9935 0.522545 1.57666 0
M  V30 1064 O 99.1785 0.751844 1.75362 0
M  V30 1065 C 96.3185 1.77142 2.96167 0
M  V30 1066 C 95.4315 3.0444 3.06497 0
M  V30 1067 C 94.5665 3.04321 4.35387 0
M  V30 1068 C 93.6055 4.26118 4.3942 0
M  V30 1069 N 92.7425 4.238 5.59766 0
M  V30 1070 H 97.5825 2.6198 1.42022 0
M  V30 1071 H 95.1195 1.29877 0.690687 0
M  V30 1072 H 97.0775 1.80352 3.76203 0
M  V30 1073 H 95.7075 0.867329 3.1093 0
M  V30 1074 H 94.7595 3.10752 2.19402 0
M  V30 1075 H 96.0715 3.94426 3.05336 0
M  V30 1076 H 95.2255 3.062 5.23762 0
M  V30 1077 H 93.9645 2.12147 4.39141 0
M  V30 1078 H 92.9695 4.24463 3.49444 0
M  V30 1079 H 94.1945 5.19507 4.37366 0
M  V30 1080 H 92.1405 3.34474 5.64326 0
M  V30 1081 H 92.0575 5.07542 5.60301 0
M  V30 1082 H 93.3255 4.2981 6.50295 0
M  V30 1083 N 97.5546 -0.734337 1.39446 0
M  V30 1084 C 98.8006 -1.49613 1.36908 0
M  V30 1085 C 99.1336 -1.94169 -0.0347829 0
M  V30 1086 O 98.4086 -1.66833 -0.999847 0
M  V30 1087 C 98.6916 -2.73534 2.34203 0
M  V30 1088 C 98.5446 -2.34993 3.83534 0
M  V30 1089 C 99.8636 -3.75635 2.29317 0
M  V30 1090 H 96.9826 -0.542714 0.498629 0
M  V30 1091 H 99.6246 -0.839597 1.70443 0
M  V30 1092 H 97.7746 -3.29553 2.05736 0
M  V30 1093 H 99.4466 -1.84601 4.22753 0
M  V30 1094 H 97.6896 -1.67213 4.00278 0
M  V30 1095 H 98.3606 -3.23738 4.47099 0
M  V30 1096 H 100.837 -3.29203 2.54489 0
M  V30 1097 H 99.7126 -4.60008 2.99472 0
M  V30 1098 H 99.9736 -4.22603 1.29842 0
M  V30 1099 N 99.0327 -1.24633 -0.964593 0
M  V30 1100 C 99.9797 -1.04144 -2.05968 0
M  V30 1101 C 100.95 0.046262 -1.66036 0
M  V30 1102 O 102.135 -0.108972 -1.90489 0
M  V30 1103 C 99.2747 -0.65563 -3.38815 0
M  V30 1104 C 98.3877 -1.81714 -3.91923 0
M  V30 1105 C 97.5227 -1.37662 -5.13052 0
M  V30 1106 C 96.5617 -2.50788 -5.58365 0
M  V30 1107 N 95.6987 -2.07582 -6.70712 0
M  V30 1108 H 100.539 -1.9787 -2.22827 0
M  V30 1109 H 98.0757 -0.9855 -1.09208 0
M  V30 1110 H 100.034 -0.412954 -4.15151 0
M  V30 1111 H 98.6637 0.244627 -3.21872 0
M  V30 1112 H 97.7157 -2.1734 -3.12198 0
M  V30 1113 H 99.0277 -2.66705 -4.21509 0
M  V30 1114 H 98.1817 -1.093 -5.96773 0
M  V30 1115 H 96.9207 -0.497293 -4.85158 0
M  V30 1116 H 95.9257 -2.79906 -4.73215 0
M  V30 1117 H 97.1507 -3.39283 -5.88272 0
M  V30 1118 H 95.0967 -1.22051 -6.44546 0
M  V30 1119 H 95.0137 -2.86125 -6.99763 0
M  V30 1120 H 96.2817 -1.82369 -7.57867 0
M  V30 1121 N 100.511 1.16574 -1.06058 0
M  V30 1122 C 101.458 2.20883 -0.669263 0
M  V30 1123 C 102.428 1.62729 0.332918 0
M  V30 1124 O 103.613 1.895 0.222346 0
M  V30 1125 C 100.753 3.45049 -0.0593572 0
M  V30 1126 C 99.8658 4.17458 -1.11143 0
M  V30 1127 C 99.0008 5.29135 -0.467916 0
M  V30 1128 C 98.0398 5.93343 -1.50369 0
M  V30 1129 N 97.1768 6.96516 -0.883706 0
M  V30 1130 H 102.017 2.53709 -1.5632 0
M  V30 1131 H 99.5538 1.24616 -0.781625 0
M  V30 1132 H 101.512 4.16033 0.311771 0
M  V30 1133 H 100.142 3.12781 0.797992 0
M  V30 1134 H 99.1938 3.45101 -1.60029 0
M  V30 1135 H 100.506 4.61307 -1.89731 0
M  V30 1136 H 99.6598 6.06684 -0.0436871 0
M  V30 1137 H 98.3988 4.86443 0.349864 0
M  V30 1138 H 97.4038 5.14517 -1.93784 0
M  V30 1139 H 98.6288 6.38114 -2.32352 0
M  V30 1140 H 96.5748 6.55943 -0.086595 0
M  V30 1141 H 96.4918 7.38723 -1.607 0
M  V30 1142 H 97.7598 7.77993 -0.484543 0
M  V30 1143 N 101.989 0.842826 1.3317 0
M  V30 1144 C 102.952 0.284065 2.27433 0
M  V30 1145 C 103.952 -0.54948 1.5112 0
M  V30 1146 O 105.142 -0.362699 1.70382 0
M  V30 1147 C 102.274 -0.599384 3.35589 0
M  V30 1148 H 103.467 1.11589 2.78366 0
M  V30 1149 H 101.02 0.616221 1.4364 0
M  V30 1150 H 101.755 -1.45349 2.89904 0
M  V30 1151 H 101.54 -0.00291266 3.921 0
M  V30 1152 H 103.03 -0.983488 4.05854 0
M  V30 1153 N 103.467 -1.45747 0.599634 0
M  V30 1154 C 104.883 -1.57424 0.26264 0
M  V30 1155 C 105.083 -1.59222 -1.23493 0
M  V30 1156 O 104.139 -1.51825 -2.01756 0
M  V30 1157 C 105.452 -2.86061 0.926795 0
M  V30 1158 C 107 -2.99722 0.901967 0
M  V30 1159 C 107.475 -4.31119 1.54598 0
M  V30 1160 N 108.966 -4.37858 1.5111 0
M  V30 1161 C 109.701 -5.3818 1.97863 0
M  V30 1162 N 109.197 -6.45083 2.52666 0
M  V30 1163 N 110.99 -5.29487 1.88679 0
M  V30 1164 H 103.141 -1.42823 1.57211 0
M  V30 1165 H 105.404 -0.68235 0.658105 0
M  V30 1166 H 105.11 -2.90605 1.98095 0
M  V30 1167 H 104.984 -3.74563 0.445238 0
M  V30 1168 H 107.371 -2.9475 -0.143617 0
M  V30 1169 H 107.452 -2.12652 1.42171 0
M  V30 1170 H 107.096 -4.36849 2.59085 0
M  V30 1171 H 107.026 -5.16992 1.00132 0
M  V30 1172 H 109.517 -3.61209 1.11068 0
M  V30 1173 H 109.83 -7.17869 2.86155 0
M  V30 1174 H 108.175 -6.45856 2.56701 0
M  V30 1175 H 111.366 -4.44877 1.4561 0
M  V30 1176 H 111.539 -6.07524 2.25429 0
M  V30 1177 N 104.945 -0.338344 -1.53925 0
M  V30 1178 C 105.855 0.529421 -2.28548 0
M  V30 1179 C 106.871 1.11645 -1.3346 0
M  V30 1180 O 108.047 1.13325 -1.66492 0
M  V30 1181 C 105.112 1.66713 -3.03987 0
M  V30 1182 C 104.173 1.11041 -4.14691 0
M  V30 1183 C 103.406 2.19389 -4.86522 0
M  V30 1184 O 103.629 3.40013 -4.57982 0
M  V30 1185 O 102.563 1.83976 -5.73094 0
M  V30 1186 H 106.389 -0.0770399 -3.03602 0
M  V30 1187 H 103.974 -0.103555 -1.49041 0
M  V30 1188 H 105.856 2.32918 -3.5118 0
M  V30 1189 H 104.531 2.25949 -2.31794 0
M  V30 1190 H 103.438 0.413024 -3.71813 0
M  V30 1191 H 104.771 0.562975 -4.8897 0
M  V30 1192 N 106.423 1.57458 -0.0668435 0
M  V30 1193 C 107.648 1.9804 0.616027 0
M  V30 1194 C 108.073 0.944771 1.62652 0
M  V30 1195 O 107.431 -0.0902094 1.81075 0
M  V30 1196 C 107.479 3.37665 1.26549 0
M  V30 1197 O 106.583 3.36701 2.38131 0
M  V30 1198 H 105.924 0.644719 0.158849 0
M  V30 1199 H 108.454 2.04121 -0.139891 0
M  V30 1200 H 108.464 3.7474 1.6135 0
M  V30 1201 H 107.139 4.12573 0.525016 0
M  V30 1202 H 105.716 3.1139 2.0516 0
M  V30 1203 N 107.901 -0.206675 1.56239 0
M  V30 1204 C 109.126 -0.949474 1.8439 0
M  V30 1205 C 109.551 -1.76549 0.649016 0
M  V30 1206 O 108.909 -1.76782 -0.402231 0
M  V30 1207 C 108.957 -1.83078 3.10668 0
M  V30 1208 O 108.061 -2.9281 2.90407 0
M  V30 1209 H 107.402 -0.268033 0.607499 0
M  V30 1210 H 109.932 -0.215488 2.03462 0
M  V30 1211 H 109.942 -2.2377 3.41161 0
M  V30 1212 H 108.617 -1.23112 3.97261 0
M  V30 1213 H 107.194 -2.55956 2.71184 0
M  V30 1214 N 109.379 -1.50304 -0.473955 0
M  V30 1215 C 110.627 -1.60832 -1.22382 0
M  V30 1216 C 110.948 -0.30939 -1.9253 0
M  V30 1217 O 110.218 0.67296 -1.83978 0
M  V30 1218 H 108.798 -0.592652 -0.454723 0
M  V30 1219 H 111.46 -1.87068 -0.546968 0
M  V30 1220 H 110.556 -2.41803 -1.97327 0
M  V30 1221 N 110.857 0.726932 -1.39834 0
M  V30 1222 C 112.273 1.03354 -1.21615 0
M  V30 1223 C 112.473 2.01327 -0.08338 0
M  V30 1224 O 111.529 2.46158 0.56238 0
M  V30 1225 C 112.842 1.58811 -2.55342 0
M  V30 1226 C 114.39 1.70851 -2.62257 0
M  V30 1227 C 114.865 2.29716 -3.96225 0
M  V30 1228 N 116.356 2.37116 -3.97907 0
M  V30 1229 C 117.091 2.83619 -4.98345 0
M  V30 1230 N 116.587 3.29958 -6.09179 0
M  V30 1231 N 118.38 2.82901 -4.8572 0
M  V30 1232 H 110.531 0.0773069 -2.12259 0
M  V30 1233 H 112.794 0.0969102 -0.943034 0
M  V30 1234 H 112.5 0.942855 -3.38826 0
M  V30 1235 H 112.374 2.57502 -2.75632 0
M  V30 1236 H 114.761 2.34497 -1.79152 0
M  V30 1237 H 114.842 0.707913 -2.45809 0
M  V30 1238 H 114.486 1.66696 -4.79765 0
M  V30 1239 H 114.416 3.30469 -4.09997 0
M  V30 1240 H 116.907 2.04374 -3.17868 0
M  V30 1241 H 117.22 3.63976 -6.8172 0
M  V30 1242 H 115.565 3.27946 -6.12761 0
M  V30 1243 H 118.756 2.46027 -3.98231 0
M  V30 1244 H 118.929 3.18827 -5.6414 0
M  V30 1245 N 112.336 1.25143 0.95797 0
M  V30 1246 C 113.266 1.07711 2.07173 0
M  V30 1247 C 114.247 -0.0128462 1.70095 0
M  V30 1248 O 115.432 0.156061 1.93572 0
M  V30 1249 C 112.562 0.691503 3.40346 0
M  V30 1250 C 111.516 1.73132 3.9142 0
M  V30 1251 C 110.842 1.20049 5.21049 0
M  V30 1252 C 112.142 3.1294 4.1817 0
M  V30 1253 H 113.836 2.00873 2.22014 0
M  V30 1254 H 111.382 0.967191 1.06684 0
M  V30 1255 H 113.335 0.556505 4.17709 0
M  V30 1256 H 112.059 -0.275819 3.25433 0
M  V30 1257 H 110.718 1.8547 3.16222 0
M  V30 1258 H 110.366 0.223499 5.02503 0
M  V30 1259 H 110.066 1.89545 5.56189 0
M  V30 1260 H 111.59 1.07782 6.01012 0
M  V30 1261 H 113.004 3.03775 4.86203 0
M  V30 1262 H 111.401 3.79875 4.64559 0
M  V30 1263 H 112.471 3.6025 3.24573 0
M  V30 1264 N 113.814 -1.1601 1.06675 0
M  V30 1265 C 115.06 -1.86909 0.786945 0
M  V30 1266 C 115.393 -1.81717 -0.685018 0
M  V30 1267 O 114.668 -1.23551 -1.50218 0
M  V30 1268 C 114.951 -3.36313 1.28707 0
M  V30 1269 C 114.804 -3.50175 2.82308 0
M  V30 1270 C 116.123 -4.3084 0.898071 0
M  V30 1271 H 113.242 -0.678677 0.287343 0
M  V30 1272 H 115.884 -1.36336 1.32334 0
M  V30 1273 H 114.034 -3.79513 0.830768 0
M  V30 1274 H 115.706 -3.15886 3.36175 0
M  V30 1275 H 113.949 -2.91959 3.20847 0
M  V30 1276 H 114.62 -4.55116 3.12368 0
M  V30 1277 H 117.096 -3.95561 1.29114 0
M  V30 1278 H 115.972 -5.33876 1.27543 0
M  V30 1279 H 116.233 -4.41662 -0.196651 0
M  V30 1280 N 115.292 -0.849877 -1.32721 0
M  V30 1281 C 116.255 -0.296122 -2.27279 0
M  V30 1282 C 117.255 0.541458 -1.5141 0
M  V30 1283 O 118.445 0.353658 -1.70572 0
M  V30 1284 C 115.577 0.581579 -3.35902 0
M  V30 1285 H 116.77 -1.13064 -2.77771 0
M  V30 1286 H 114.323 -0.62383 -1.43311 0
M  V30 1287 H 115.058 1.43809 -2.9067 0
M  V30 1288 H 114.843 -0.0178814 -3.92096 0
M  V30 1289 H 116.333 0.961951 -4.0637 0
M  V30 1290 N 116.77 1.45427 -0.607355 0
M  V30 1291 C 118.019 2.01452 -0.100036 0
M  V30 1292 C 118.332 1.48159 1.27704 0
M  V30 1293 O 119.538 1.96159 1.87707 0
M  V30 1294 C 117.994 3.59672 -0.128158 0
M  V30 1295 C 117.602 4.21962 -1.50507 0
M  V30 1296 C 119.346 4.23262 0.323932 0
M  V30 1297 C 117.253 5.72333 -1.48959 0
M  V30 1298 H 116.183 0.75325 -0.0336299 0
M  V30 1299 H 118.834 1.66901 -0.76265 0
M  V30 1300 H 117.216 3.91411 0.601105 0
M  V30 1301 H 118.39 4.01796 -2.25602 0
M  V30 1302 H 116.705 3.70565 -1.89923 0
M  V30 1303 H 119.302 5.33522 0.354691 0
M  V30 1304 H 119.645 3.93921 1.34656 0
M  V30 1305 H 120.178 3.96239 -0.352056 0
M  V30 1306 H 116.917 6.06373 -2.48981 0
M  V30 1307 H 116.437 5.94691 -0.781214 0
M  V30 1308 H 118.116 6.35525 -1.21313 0
M  V30 1309 N 118.248 0.346503 1.53744 0
M  V30 1310 C 119.195 -0.508914 2.25119 0
M  V30 1311 C 120.165 -1.09315 1.25058 0
M  V30 1312 O 121.35 -1.12921 1.53797 0
M  V30 1313 C 118.49 -1.65246 3.02965 0
M  V30 1314 C 117.603 -1.09525 4.17886 0
M  V30 1315 C 116.738 -2.20634 4.83212 0
M  V30 1316 C 115.777 -1.62279 5.90196 0
M  V30 1317 N 114.914 -2.67143 6.49291 0
M  V30 1318 H 119.754 0.106283 2.9781 0
M  V30 1319 H 117.291 0.0642227 1.4696 0
M  V30 1320 H 119.249 -2.32574 3.4636 0
M  V30 1321 H 117.879 -2.2386 2.32565 0
M  V30 1322 H 116.931 -0.312818 3.79112 0
M  V30 1323 H 118.243 -0.628444 4.94825 0
M  V30 1324 H 117.397 -2.95821 5.29693 0
M  V30 1325 H 116.136 -2.70659 4.05703 0
M  V30 1326 H 115.141 -0.855989 5.43096 0
M  V30 1327 H 116.366 -1.13102 6.69615 0
M  V30 1328 H 114.312 -3.16417 5.74645 0
M  V30 1329 H 114.229 -2.25093 7.21713 0
M  V30 1330 H 115.497 -3.4209 7.00425 0
M  V30 1331 N 119.726 -1.57421 0.075193 0
M  V30 1332 C 120.951 -1.98364 -0.605515 0
M  V30 1333 C 121.376 -0.953383 -1.62149 0
M  V30 1334 O 120.734 0.0806053 -1.81121 0
M  V30 1335 C 120.782 -3.38332 -1.24756 0
M  V30 1336 O 119.886 -3.37959 -2.36342 0
M  V30 1337 H 119.227 -0.645553 -0.155428 0
M  V30 1338 H 121.757 -2.04044 0.150714 0
M  V30 1339 H 121.767 -3.75591 -1.5936 0
M  V30 1340 H 120.442 -4.12846 -0.503129 0
M  V30 1341 H 119.019 -3.12474 -2.03506 0
M  V30 1342 N 121.204 0.198386 -1.56346 0
M  V30 1343 C 122.453 0.917451 -1.79627 0
M  V30 1344 C 122.766 1.8456 -0.64784 0
M  V30 1345 O 123.972 2.60504 -0.764859 0
M  V30 1346 C 122.428 1.68175 -3.18191 0
M  V30 1347 C 122.036 0.798589 -4.40825 0
M  V30 1348 C 123.78 2.39065 -3.50782 0
M  V30 1349 C 121.687 1.56157 -5.70411 0
M  V30 1350 H 120.617 0.346317 -0.669762 0
M  V30 1351 H 123.268 0.170801 -1.82703 0
M  V30 1352 H 121.65 2.47216 -3.09354 0
M  V30 1353 H 122.824 0.0470665 -4.60776 0
M  V30 1354 H 121.139 0.200686 -4.15916 0
M  V30 1355 H 123.736 2.96692 -4.44835 0
M  V30 1356 H 124.079 3.13091 -2.74371 0
M  V30 1357 H 124.612 1.66993 -3.61052 0
M  V30 1358 H 121.351 0.864142 -6.49779 0
M  V30 1359 H 120.871 2.2871 -5.54483 0
M  V30 1360 H 122.55 2.11622 -6.11412 0
M  V30 1361 N 122.682 1.50554 0.465978 0
M  V30 1362 C 124.098 1.38093 0.800154 0
M  V30 1363 C 124.298 0.440988 1.96615 0
M  V30 1364 O 123.354 -0.114499 2.5224 0
M  V30 1365 C 124.667 2.79565 1.10742 0
M  V30 1366 C 126.215 2.88516 1.21357 0
M  V30 1367 C 126.69 4.30833 1.55393 0
M  V30 1368 N 128.181 4.33807 1.62375 0
M  V30 1369 C 128.916 5.40927 1.90225 0
M  V30 1370 N 128.412 6.58247 2.16062 0
M  V30 1371 N 130.205 5.28376 1.9177 0
M  V30 1372 H 122.356 2.10237 -0.302366 0
M  V30 1373 H 124.619 0.945203 -0.0727746 0
M  V30 1374 H 124.325 3.50208 0.323661 0
M  V30 1375 H 124.199 3.17125 2.04234 0
M  V30 1376 H 126.586 2.1809 1.98799 0
M  V30 1377 H 126.667 2.54492 0.258321 0
M  V30 1378 H 126.311 5.01799 0.784889 0
M  V30 1379 H 126.241 4.62347 2.52076 0
M  V30 1380 H 128.732 3.49212 1.44427 0
M  V30 1381 H 129.045 7.3569 2.36601 0
M  V30 1382 H 127.39 6.61413 2.13444 0
M  V30 1383 H 130.581 4.35715 1.71085 0
M  V30 1384 H 130.754 6.11944 2.13139 0
M  V30 1385 N 124.16 -0.719506 1.40217 0
M  V30 1386 C 125.107 -1.83359 1.40172 0
M  V30 1387 C 126.077 -1.64065 0.259206 0
M  V30 1388 O 127.262 -1.85254 0.456677 0
M  V30 1389 C 124.402 -3.2103 1.26624 0
M  V30 1390 C 123.515 -3.51923 2.50548 0
M  V30 1391 C 122.65 -4.79079 2.29471 0
M  V30 1392 C 121.689 -5.02863 3.48992 0
M  V30 1393 N 120.826 -6.2123 3.27135 0
M  V30 1394 H 125.666 -1.82733 2.35399 0
M  V30 1395 H 123.203 -0.892688 1.16917 0
M  V30 1396 H 125.161 -4.00524 1.16776 0
M  V30 1397 H 123.791 -3.20895 0.350176 0
M  V30 1398 H 122.843 -2.67014 2.70939 0
M  V30 1399 H 124.155 -3.6541 3.39525 0
M  V30 1400 H 123.309 -5.66582 2.16955 0
M  V30 1401 H 122.048 -4.67794 1.37913 0
M  V30 1402 H 121.053 -4.13816 3.6199 0
M  V30 1403 H 122.278 -5.16023 4.41472 0
M  V30 1404 H 120.224 -6.11204 2.38256 0
M  V30 1405 H 120.141 -6.35375 4.09675 0
M  V30 1406 H 121.409 -7.11532 3.18344 0
M  V30 1407 N 125.638 -1.25649 -0.95132 0
M  V30 1408 C 126.915 -1.01361 -1.67288 0
M  V30 1409 C 127.295 0.459135 -2.06046 0
M  V30 1410 O 126.643 1.43723 -1.7764 0
M  V30 1411 C 126.853 -1.95256 -2.89268 0
M  V30 1412 C 128.201 -2.23289 -3.61147 0
M  V30 1413 O 129.225 -1.93041 -2.99355 0
M  V30 1414 O 128.084 -2.74741 -4.72419 0
M  V30 1415 H 125.178 -0.38464 -0.732107 0
M  V30 1416 H 127.724 -1.36817 -1.00395 0
M  V30 1417 H 126.496 -2.94685 -2.57442 0
M  V30 1418 H 126.119 -1.60218 -3.6389 0
M  V30 1419 N 127.117 1.15442 -1.07289 0
M  V30 1420 C 128.064 2.20161 -0.692653 0
M  V30 1421 C 129.034 1.63073 0.31564 0
M  V30 1422 O 130.219 1.89725 0.202235 0
M  V30 1423 C 127.359 3.44967 -0.0959509 0
M  V30 1424 C 126.472 4.16256 -1.15564 0
M  V30 1425 C 125.607 5.28609 -0.524011 0
M  V30 1426 C 124.646 5.91715 -1.56653 0
M  V30 1427 N 123.783 6.9554 -0.957531 0
M  V30 1428 H 128.623 2.52037 -1.59002 0
M  V30 1429 H 126.16 1.2378 -0.794798 0
M  V30 1430 H 128.118 4.16341 0.267628 0
M  V30 1431 H 126.748 3.1361 0.764772 0
M  V30 1432 H 125.8 3.43385 -1.6368 0
M  V30 1433 H 127.112 4.59268 -1.94613 0
M  V30 1434 H 126.266 6.06604 -0.108032 0
M  V30 1435 H 125.005 4.86787 0.29825 0
M  V30 1436 H 124.01 5.12433 -1.9923 0
M  V30 1437 H 125.235 6.35614 -2.39107 0
M  V30 1438 H 123.181 6.55814 -0.156162 0
M  V30 1439 H 123.098 7.36977 -1.68526 0
M  V30 1440 H 124.366 7.77435 -0.567032 0
M  V30 1441 N 128.595 0.856903 1.32268 0
M  V30 1442 C 129.844 0.457599 1.96441 0
M  V30 1443 C 130.157 -0.992426 1.68553 0
M  V30 1444 O 131.363 -1.49727 2.26482 0
M  V30 1445 C 129.819 0.767358 3.51624 0
M  V30 1446 C 129.427 2.23326 3.88367 0
M  V30 1447 C 131.171 0.435887 4.22256 0
M  V30 1448 C 129.078 2.48613 5.36606 0
M  V30 1449 H 128.008 0.167387 0.735185 0
M  V30 1450 H 130.659 1.048 1.5063 0
M  V30 1451 H 129.041 0.106367 3.95857 0
M  V30 1452 H 130.215 2.93623 3.55137 0
M  V30 1453 H 128.53 2.52948 3.30766 0
M  V30 1454 H 131.127 0.602202 5.31298 0
M  V30 1455 H 131.47 -0.622672 4.11617 0
M  V30 1456 H 132.003 1.05286 3.83614 0
M  V30 1457 H 128.742 3.53101 5.52268 0
M  V30 1458 H 128.262 1.82896 5.71235 0
M  V30 1459 H 129.941 2.32676 6.03714 0
M  V30 1460 N 130.073 -1.45103 0.615059 0
M  V30 1461 C 131.02 -2.30586 -0.0993978 0
M  V30 1462 C 131.99 -1.42544 -0.852669 0
M  V30 1463 O 133.175 -1.71465 -0.836917 0
M  V30 1464 C 130.315 -3.27572 -1.08583 0
M  V30 1465 C 129.428 -4.30717 -0.332656 0
M  V30 1466 C 128.563 -5.14807 -1.30947 0
M  V30 1467 C 127.602 -6.09673 -0.544538 0
M  V30 1468 N 126.739 -6.86517 -1.47101 0
M  V30 1469 H 131.579 -2.91144 0.635542 0
M  V30 1470 H 129.116 -1.4346 0.325206 0
M  V30 1471 H 131.074 -3.82276 -1.67095 0
M  V30 1472 H 129.704 -2.68751 -1.78809 0
M  V30 1473 H 128.756 -3.78615 0.368107 0
M  V30 1474 H 130.068 -4.98102 0.263842 0
M  V30 1475 H 129.222 -5.73948 -1.96643 0
M  V30 1476 H 127.961 -4.47458 -1.9399 0
M  V30 1477 H 126.966 -5.49656 0.126003 0
M  V30 1478 H 128.191 -6.79052 0.080947 0
M  V30 1479 H 126.137 -6.21851 -2.08895 0
M  V30 1480 H 126.054 -7.50281 -0.928137 0
M  V30 1481 H 127.322 -7.50194 -2.11731 0
M  V30 1482 N 131.551 -0.354651 -1.53558 0
M  V30 1483 C 132.828 0.294281 -1.93374 0
M  V30 1484 C 133.208 1.67313 -1.28723 0
M  V30 1485 O 132.556 2.24179 -0.442247 0
M  V30 1486 C 132.766 0.355445 -3.47185 0
M  V30 1487 C 134.114 0.601007 -4.20325 0
M  V30 1488 O 135.138 0.437106 -3.53508 0
M  V30 1489 O 133.997 0.919322 -5.38712 0
M  V30 1490 H 131.091 0.174033 -0.808481 0
M  V30 1491 H 133.637 -0.406638 -1.64756 0
M  V30 1492 H 132.409 -0.611729 -3.86489 0
M  V30 1493 H 132.032 1.1027 -3.82003 0
M  V30 1494 N 133.029 1.57378 -0.0835403 0
M  V30 1495 C 133.939 2.16897 0.894021 0
M  V30 1496 C 134.955 1.13528 1.31861 0
M  V30 1497 O 136.131 1.45848 1.3889 0
M  V30 1498 C 133.196 2.72831 2.13925 0
M  V30 1499 C 132.257 3.91115 1.76997 0
M  V30 1500 C 131.49 4.44371 2.95584 0
M  V30 1501 O 131.713 3.96596 4.09961 0
M  V30 1502 O 130.647 5.35549 2.74719 0
M  V30 1503 H 134.473 3.00814 0.417679 0
M  V30 1504 H 132.058 1.48741 0.140181 0
M  V30 1505 H 133.94 3.0863 2.86924 0
M  V30 1506 H 132.615 1.91967 2.60635 0
M  V30 1507 H 131.522 3.60148 1.01214 0
M  V30 1508 H 132.855 4.73307 1.3506 0
M  V30 1509 N 134.507 -0.190092 1.56449 0
M  V30 1510 C 135.439 -1.25973 1.91477 0
M  V30 1511 C 136.452 -1.41452 0.805931 0
M  V30 1512 O 137.641 -1.41789 1.08435 0
M  V30 1513 C 134.741 -2.63117 2.13594 0
M  V30 1514 C 133.914 -2.69182 3.4476 0
M  V30 1515 C 132.973 -3.87557 3.5593 0
M  V30 1516 O 131.999 -3.74427 4.28711 0
M  V30 1517 N 133.201 -5.03224 2.89388 0
M  V30 1518 H 135.966 -0.962394 2.83828 0
M  V30 1519 H 133.527 -0.379981 1.57378 0
M  V30 1520 H 135.519 -3.40742 2.1835 0
M  V30 1521 H 134.089 -2.85319 1.27719 0
M  V30 1522 H 133.309 -1.77793 3.51828 0
M  V30 1523 H 134.597 -2.70229 4.31107 0
M  V30 1524 H 133.995 -5.16791 2.30094 0
M  V30 1525 H 132.552 -5.78778 2.99764 0
M  V30 1526 N 135.985 -1.50799 -0.457987 0
M  V30 1527 C 137.262 -1.52968 -1.21902 0
M  V30 1528 C 137.642 -0.281906 -2.09209 0
M  V30 1529 O 136.99 0.734076 -2.16388 0
M  V30 1530 C 137.2 -2.8326 -2.03875 0
M  V30 1531 C 138.548 -3.34425 -2.6162 0
M  V30 1532 O 139.572 -2.8467 -2.14106 0
M  V30 1533 O 138.431 -4.21188 -3.48228 0
M  V30 1534 H 135.525 -0.614129 -0.553873 0
M  V30 1535 H 138.071 -1.63098 -0.468739 0
M  V30 1536 H 136.843 -3.65543 -1.39621 0
M  V30 1537 H 136.466 -2.76195 -2.8601 0
M  V30 1538 N 137.463 0.71206 -1.40597 0
M  V30 1539 C 138.393 1.83889 -1.43899 0
M  V30 1540 C 139.374 1.67442 -0.299504 0
M  V30 1541 O 140.559 1.87421 -0.508624 0
M  V30 1542 C 137.689 3.21877 -1.30431 0
M  V30 1543 C 136.643 3.53002 -2.42019 0
M  V30 1544 C 135.969 4.90172 -2.13626 0
M  V30 1545 C 137.269 3.53643 -3.84362 0
M  V30 1546 H 138.963 1.81383 -2.38203 0
M  V30 1547 H 136.509 0.871237 -1.14654 0
M  V30 1548 H 138.462 4.00404 -1.31357 0
M  V30 1549 H 137.186 3.24968 -0.326049 0
M  V30 1550 H 135.845 2.76818 -2.40349 0
M  V30 1551 H 135.493 4.89869 -1.14182 0
M  V30 1552 H 135.193 5.11962 -2.88389 0
M  V30 1553 H 136.717 5.71028 -2.1624 0
M  V30 1554 H 138.131 4.22203 -3.87837 0
M  V30 1555 H 136.528 3.86961 -4.58673 0
M  V30 1556 H 137.598 2.52954 -4.13693 0
M  V30 1557 N 138.941 1.26152 0.944643 0
M  V30 1558 C 139.874 1.01729 2.04271 0
M  V30 1559 C 140.852 -0.0568101 1.62501 0
M  V30 1560 O 142.036 0.0848987 1.88309 0
M  V30 1561 C 139.163 0.539792 3.34371 0
M  V30 1562 C 138.209 1.60593 3.9511 0
M  V30 1563 S 139.042 3.19392 4.29825 0
M  V30 1564 C 140.198 2.73402 5.63029 0
M  V30 1565 H 140.431 1.94703 2.24673 0
M  V30 1566 H 137.964 1.09793 1.08558 0
M  V30 1567 H 139.922 0.270956 4.09605 0
M  V30 1568 H 138.583 -0.369609 3.11918 0
M  V30 1569 H 137.776 1.22275 4.88943 0
M  V30 1570 H 137.378 1.82596 3.26397 0
M  V30 1571 H 139.67 2.1765 6.41588 0
M  V30 1572 H 140.613 3.65913 6.06229 0
M  V30 1573 H 141.021 2.13077 5.22741 0
M  V30 1574 N 140.419 -1.14872 1.07899 0
M  V30 1575 C 141.369 -2.17809 0.674027 0
M  V30 1576 C 142.353 -1.58008 -0.303699 0
M  V30 1577 O 143.545 -1.76616 -0.11654 0
M  V30 1578 C 140.674 -3.43208 0.0793318 0
M  V30 1579 C 139.76 -4.10051 1.08253 0
M  V30 1580 N 140.151 -4.52296 2.2641 0
M  V30 1581 C 138.449 -4.36469 0.917124 0
M  V30 1582 C 139.15 -5.04199 2.901 0
M  V30 1583 N 138.126 -4.98088 2.17736 0
M  V30 1584 H 141.928 -2.48207 1.57386 0
M  V30 1585 H 139.442 -1.315 0.952976 0
M  V30 1586 H 141.439 -4.16272 -0.228719 0
M  V30 1587 H 140.099 -3.14291 -0.815551 0
M  V30 1588 H 141.11 -4.45504 2.64096 0
M  V30 1589 H 137.787 -4.17432 0.0756078 0
M  V30 1590 H 139.177 -5.46802 3.90458 0
M  V30 1591 N 141.898 -0.863906 -1.31812 0
M  V30 1592 C 143.147 -0.46801 -1.96195 0
M  V30 1593 C 143.46 0.983474 -1.69077 0
M  V30 1594 O 144.666 1.48523 -2.27273 0
M  V30 1595 C 143.122 -0.785995 -3.51212 0
M  V30 1596 C 142.73 -2.25383 -3.87178 0
M  V30 1597 C 144.474 -0.458274 -4.22019 0
M  V30 1598 C 142.381 -2.51455 -5.3528 0
M  V30 1599 H 141.311 -0.171283 -0.734287 0
M  V30 1600 H 143.962 -1.05597 -1.50072 0
M  V30 1601 H 142.344 -0.127359 -3.95795 0
M  V30 1602 H 143.518 -2.95502 -3.53575 0
M  V30 1603 H 141.833 -2.54698 -3.2942 0
M  V30 1604 H 144.43 -0.630369 -5.30971 0
M  V30 1605 H 144.773 0.600834 -4.11941 0
M  V30 1606 H 145.306 -1.07319 -3.8305 0
M  V30 1607 H 142.045 -3.56025 -5.50387 0
M  V30 1608 H 141.565 -1.85923 -5.70257 0
M  V30 1609 H 143.244 -2.35874 -6.02472 0
M  V30 1610 N 143.376 1.44774 -0.622745 0
M  V30 1611 C 144.792 1.56986 -0.287652 0
M  V30 1612 C 144.992 1.61167 1.20944 0
M  V30 1613 O 144.048 1.55015 1.99315 0
M  V30 1614 C 145.361 2.84551 -0.972188 0
M  V30 1615 C 146.909 2.9825 -0.949536 0
M  V30 1616 C 147.384 4.28605 -1.61437 0
M  V30 1617 N 148.875 4.35399 -1.58057 0
M  V30 1618 C 149.61 5.34964 -2.064 0
M  V30 1619 N 149.106 6.40981 -2.62897 0
M  V30 1620 N 150.899 5.26419 -1.97078 0
M  V30 1621 H 143.05 1.40304 -1.59463 0
M  V30 1622 H 145.313 0.671794 -0.668878 0
M  V30 1623 H 145.019 2.87417 -2.02693 0
M  V30 1624 H 144.893 3.73807 -0.504771 0
M  V30 1625 H 147.28 2.94941 0.0967067 0
M  V30 1626 H 147.361 2.10364 -1.45536 0
M  V30 1627 H 147.005 4.32672 -2.66002 0
M  V30 1628 H 146.935 5.15334 -1.08344 0
M  V30 1629 H 149.426 3.59397 -1.16801 0
M  V30 1630 H 149.739 7.13225 -2.97539 0
M  V30 1631 H 148.084 6.4169 -2.66943 0
M  V30 1632 H 151.275 4.42504 -1.52669 0
M  V30 1633 H 151.448 6.03861 -2.35066 0
M  V30 1634 N 144.854 0.36279 1.53368 0
M  V30 1635 C 146.27 0.0116182 1.59596 0
M  V30 1636 C 146.47 -1.47012 1.37803 0
M  V30 1637 O 145.526 -2.23136 1.18181 0
M  V30 1638 C 146.839 0.465052 2.97082 0
M  V30 1639 C 148.387 0.419033 3.10182 0
M  V30 1640 C 148.862 0.848235 4.50077 0
M  V30 1641 N 150.353 0.803183 4.56183 0
M  V30 1642 C 151.088 1.107 5.62613 0
M  V30 1643 N 150.584 1.47996 6.76808 0
M  V30 1644 N 152.377 1.02998 5.52583 0
M  V30 1645 H 144.528 1.32775 1.65785 0
M  V30 1646 H 146.791 0.542518 0.777417 0
M  V30 1647 H 146.497 1.49892 3.18159 0
M  V30 1648 H 146.371 -0.149786 3.76902 0
M  V30 1649 H 148.758 -0.605696 2.88817 0
M  V30 1650 H 148.839 1.06933 2.32377 0
M  V30 1651 H 148.483 1.87107 4.7218 0
M  V30 1652 H 148.413 0.175218 5.26308 0
M  V30 1653 H 150.904 0.52838 3.74188 0
M  V30 1654 H 151.217 1.69613 7.53957 0
M  V30 1655 H 149.562 1.51859 6.78206 0
M  V30 1656 H 152.753 0.737817 4.62249 0
M  V30 1657 H 152.926 1.2701 6.35431 0
M  V30 1658 N 146.332 -1.57332 0.0918853 0
M  V30 1659 C 147.242 -2.17368 -0.882505 0
M  V30 1660 C 148.258 -1.14226 -1.31257 0
M  V30 1661 O 149.434 -1.46582 -1.38115 0
M  V30 1662 C 146.499 -2.73962 -2.12476 0
M  V30 1663 C 145.56 -3.92048 -1.7492 0
M  V30 1664 C 144.793 -4.45933 -2.93223 0
M  V30 1665 O 145.016 -3.98764 -4.07852 0
M  V30 1666 O 143.95 -5.36999 -2.71875 0
M  V30 1667 H 147.776 -3.01031 -0.40172 0
M  V30 1668 H 145.361 -1.48813 -0.132291 0
M  V30 1669 H 147.243 -3.10147 -2.85283 0
M  V30 1670 H 145.918 -1.93347 -2.59613 0
M  V30 1671 H 144.825 -3.6068 -0.993025 0
M  V30 1672 H 146.158 -4.74017 -1.32548 0
M  V30 1673 N 147.81 0.181792 -1.56548 0
M  V30 1674 C 149.059 0.898348 -1.8059 0
M  V30 1675 C 149.372 1.83862 -0.667379 0
M  V30 1676 O 150.578 2.59678 -0.792446 0
M  V30 1677 C 149.034 1.64791 -3.19956 0
M  V30 1678 C 148.642 0.751789 -4.41647 0
M  V30 1679 C 150.386 2.35331 -3.53298 0
M  V30 1680 C 148.293 1.50098 -5.72035 0
M  V30 1681 H 147.223 0.339194 -0.673397 0
M  V30 1682 H 149.874 0.151413 -1.82874 0
M  V30 1683 H 148.256 2.43921 -3.11959 0
M  V30 1684 H 149.43 -0.0018076 -4.608 0
M  V30 1685 H 147.745 0.156562 -4.16106 0
M  V30 1686 H 150.342 2.91958 -4.47956 0
M  V30 1687 H 150.685 3.10164 -2.77676 0
M  V30 1688 H 151.218 1.63154 -3.62803 0
M  V30 1689 H 147.957 0.795175 -6.50659 0
M  V30 1690 H 147.477 2.22817 -5.56878 0
M  V30 1691 H 149.156 2.05125 -6.13622 0
M  V30 1692 N 149.288 1.51039 0.449983 0
M  V30 1693 C 150.198 1.74261 1.57067 0
M  V30 1694 C 151.214 0.626363 1.62335 0
M  V30 1695 O 152.39 0.907162 1.79812 0
M  V30 1696 C 149.455 1.85114 2.93144 0
M  V30 1697 C 148.516 3.0893 2.98095 0
M  V30 1698 C 147.749 3.19256 4.27681 0
M  V30 1699 O 147.972 2.35835 5.19363 0
M  V30 1700 O 146.906 4.12144 4.38658 0
M  V30 1701 H 150.732 2.69303 1.40391 0
M  V30 1702 H 148.317 1.35389 0.631688 0
M  V30 1703 H 150.199 1.94311 3.73926 0
M  V30 1704 H 148.874 0.932588 3.09975 0
M  V30 1705 H 147.781 3.0522 2.16314 0
M  V30 1706 H 149.114 4.00433 2.86206 0
M  V30 1707 N 150.766 -0.704594 1.40972 0
M  V30 1708 C 152.015 -1.46018 1.39146 0
M  V30 1709 C 152.328 -1.956 0.000589254 0
M  V30 1710 O 153.534 -2.71137 -0.1403 0
M  V30 1711 C 151.99 -2.63996 2.4461 0
M  V30 1712 C 151.598 -2.21238 3.89561 0
M  V30 1713 C 153.342 -3.41677 2.51907 0
M  V30 1714 C 151.249 -3.3612 4.86598 0
M  V30 1715 H 150.179 -0.548444 0.517422 0
M  V30 1716 H 152.83 -0.765784 1.66757 0
M  V30 1717 H 151.212 -3.3566 2.10115 0
M  V30 1718 H 152.386 -1.56923 4.33257 0
M  V30 1719 H 150.701 -1.56574 3.85841 0
M  V30 1720 H 153.298 -4.27182 3.2159 0
M  V30 1721 H 153.641 -3.86247 1.55303 0
M  V30 1722 H 154.174 -2.77064 2.85448 0
M  V30 1723 H 150.913 -2.96572 5.84573 0
M  V30 1724 H 150.433 -3.99315 4.47557 0
M  V30 1725 H 152.112 -4.02029 5.06934 0
M  V30 1726 N 152.244 -1.26651 -0.937939 0
M  V30 1727 C 153.177 -1.02811 -2.03728 0
M  V30 1728 C 154.155 0.0481915 -1.62529 0
M  V30 1729 O 155.339 -0.0948839 -1.88261 0
M  V30 1730 C 152.466 -0.557517 -3.3408 0
M  V30 1731 C 151.512 -1.62686 -3.94253 0
M  V30 1732 S 152.345 -3.21667 -4.28125 0
M  V30 1733 C 153.501 -2.76384 -5.61572 0
M  V30 1734 H 153.734 -1.95891 -2.23638 0
M  V30 1735 H 151.267 -1.10367 -1.07974 0
M  V30 1736 H 153.225 -0.292674 -4.09455 0
M  V30 1737 H 151.886 0.353062 -3.12109 0
M  V30 1738 H 151.079 -1.24866 -4.88287 0
M  V30 1739 H 150.681 -1.84324 -3.25424 0
M  V30 1740 H 152.973 -2.2105 -6.40424 0
M  V30 1741 H 153.916 -3.69123 -6.0428 0
M  V30 1742 H 154.324 -2.15847 -5.21604 0
M  V30 1743 N 153.722 1.14298 -1.08507 0
M  V30 1744 C 154.947 1.8976 -0.837001 0
M  V30 1745 C 155.372 1.78097 0.605228 0
M  V30 1746 O 154.73 1.12188 1.4242 0
M  V30 1747 C 154.778 3.37685 -1.26495 0
M  V30 1748 O 153.882 4.10281 -0.417514 0
M  V30 1749 H 153.223 0.590365 -0.303917 0
M  V30 1750 H 155.753 1.44672 -1.44676 0
M  V30 1751 H 155.763 3.88501 -1.24625 0
M  V30 1752 H 154.438 3.45492 -2.31534 0
M  V30 1753 H 153.015 3.69536 -0.499722 0
M  V30 1754 N 155.201 0.870884 1.31352 0
M  V30 1755 C 156.426 0.495957 2.01383 0
M  V30 1756 C 156.851 -0.904324 1.64935 0
M  V30 1757 O 156.209 -1.59687 0.858466 0
M  V30 1758 C 156.257 0.661433 3.54482 0
M  V30 1759 O 155.361 -0.298851 4.11316 0
M  V30 1760 H 154.702 0.197158 0.634054 0
M  V30 1761 H 157.232 1.17455 1.67527 0
M  V30 1762 H 157.242 0.555072 4.04207 0
M  V30 1763 H 155.917 1.68246 3.8035 0
M  V30 1764 H 154.494 -0.147368 3.72609 0
M  V30 1765 N 156.679 -1.44442 0.630414 0
M  V30 1766 C 157.609 -2.33418 -0.0618083 0
M  V30 1767 C 158.59 -1.48165 -0.835541 0
M  V30 1768 O 159.775 -1.76886 -0.801564 0
M  V30 1769 C 156.905 -3.31222 -1.04449 0
M  V30 1770 C 155.859 -4.26288 -0.382436 0
M  V30 1771 C 155.185 -5.13954 -1.47497 0
M  V30 1772 C 156.485 -5.1744 0.710865 0
M  V30 1773 H 158.179 -2.91548 0.681184 0
M  V30 1774 H 155.725 -1.40191 0.329026 0
M  V30 1775 H 157.678 -3.92351 -1.53748 0
M  V30 1776 H 156.402 -2.71299 -1.81836 0
M  V30 1777 H 155.061 -3.6649 0.0899054 0
M  V30 1778 H 154.709 -4.50385 -2.2397 0
M  V30 1779 H 154.409 -5.7837 -1.03737 0
M  V30 1780 H 155.933 -5.77955 -1.96979 0
M  V30 1781 H 157.347 -5.72509 0.300996 0
M  V30 1782 H 155.744 -5.90455 1.07156 0
M  V30 1783 H 156.814 -4.58496 1.57829 0
M  V30 1784 N 158.157 -0.370918 -1.53173 0
M  V30 1785 C 159.105 0.488101 -2.27421 0
M  V30 1786 C 160.099 1.07884 -1.30604 0
M  V30 1787 O 161.305 1.02143 -1.48212 0
M  V30 1788 H 157.68 0.176134 -0.731082 0
M  V30 1789 H 159.651 -0.159815 -2.97972 0
M  V30 1790 C 158.4 1.61306 -3.08019 0
M  V30 1791 H 157.723 1.1678 -3.82364 0
M  V30 1792 H 159.163 2.18872 -3.63141 0
M  V30 1793 C 157.622 2.55848 -2.19188 0
M  V30 1794 O 158.152 3.58799 -1.80626 0
M  V30 1795 N 156.358 2.2516 -1.83715 0
M  V30 1796 H 155.905 1.41476 -2.15273 0
M  V30 1797 H 155.863 2.8867 -1.24567 0
M  V30 1798 N 159.635 1.57281 -0.100228 0
M  V30 1799 C 160.585 2.10848 0.86759 0
M  V30 1800 C 161.569 1.02473 1.24049 0
M  V30 1801 O 162.761 1.28739 1.21471 0
M  V30 1802 C 159.89 2.69648 2.12474 0
M  V30 1803 C 158.976 3.85074 1.77704 0
M  V30 1804 N 159.367 4.92897 1.13518 0
M  V30 1805 C 157.665 3.94905 2.07282 0
M  V30 1806 C 158.366 5.73475 0.974735 0
M  V30 1807 N 157.342 5.22675 1.4937 0
M  V30 1808 H 161.144 2.91594 0.367471 0
M  V30 1809 H 158.658 1.62074 0.102829 0
M  V30 1810 H 160.655 3.06356 2.82757 0
M  V30 1811 H 159.315 1.90359 2.63047 0
M  V30 1812 H 160.326 5.11662 0.801381 0
M  V30 1813 H 157.003 3.26633 2.60033 0
M  V30 1814 H 158.393 6.70238 0.472364 0
M  V30 1815 N 161.113 -0.173488 1.56642 0
M  V30 1816 C 162.524 -0.736155 1.71574 0
M  V30 1817 C 162.875 -1.82888 0.710389 0
M  V30 1818 O 162 -2.16017 -0.1287 0
M  V30 1819 C 162.595 -1.34211 3.11083 0
M  V30 1820 C 161.154 -1.85162 3.27707 0
M  V30 1821 C 160.301 -0.729765 2.67525 0
M  V30 1822 H 163.252 0.0518786 1.58615 0
M  V30 1823 H 163.273 -2.21178 3.09613 0
M  V30 1824 H 162.785 -0.546579 3.84232 0
M  V30 1825 H 160.886 -2.67366 2.59512 0
M  V30 1826 H 160.999 -1.99855 4.35425 0
M  V30 1827 H 159.363 -1.14965 2.27278 0
M  V30 1828 H 160.146 0.0538806 3.43258 0
M  V30 1829 N 162.591 -1.51276 -0.441967 0
M  V30 1830 C 163.541 -1.6864 -1.53442 0
M  V30 1831 C 164.525 -0.540444 -1.51552 0
M  V30 1832 O 165.717 -0.796157 -1.58083 0
M  V30 1833 C 162.846 -1.8106 -2.91672 0
M  V30 1834 C 161.932 -3.01424 -2.98336 0
M  V30 1835 N 162.323 -4.2467 -2.74752 0
M  V30 1836 C 160.621 -3.00584 -3.29493 0
M  V30 1837 C 161.322 -5.05891 -2.87139 0
M  V30 1838 N 160.298 -4.40442 -3.18609 0
M  V30 1839 H 164.1 -2.61598 -1.33954 0
M  V30 1840 H 161.614 -1.4886 -0.6492 0
M  V30 1841 H 163.611 -1.91609 -3.70259 0
M  V30 1842 H 162.271 -0.892795 -3.12185 0
M  V30 1843 H 163.282 -4.53691 -2.49769 0
M  V30 1844 H 159.959 -2.18417 -3.55809 0
M  V30 1845 H 161.349 -6.13983 -2.72899 0
M  V30 1846 N 164.069 0.697108 -1.41344 0
M  V30 1847 C 165.318 1.45279 -1.39918 0
M  V30 1848 C 165.631 1.95597 -0.0109624 0
M  V30 1849 O 166.837 2.71208 0.125919 0
M  V30 1850 C 165.293 2.62695 -2.46007 0
M  V30 1851 C 164.901 2.19169 -3.90729 0
M  V30 1852 C 166.645 3.40336 -2.53715 0
M  V30 1853 C 164.552 3.33535 -4.88373 0
M  V30 1854 H 163.482 0.545692 -0.520323 0
M  V30 1855 H 166.133 0.756929 -1.67161 0
M  V30 1856 H 164.515 3.34541 -2.11892 0
M  V30 1857 H 165.689 1.54623 -4.34083 0
M  V30 1858 H 164.004 1.54525 -3.86666 0
M  V30 1859 H 166.601 4.2547 -3.2385 0
M  V30 1860 H 166.944 3.85418 -1.5735 0
M  V30 1861 H 167.477 2.75546 -2.86913 0
M  V30 1862 H 164.216 2.93468 -5.86137 0
M  V30 1863 H 163.736 3.96936 -4.49668 0
M  V30 1864 H 165.415 3.99335 -5.09059 0
M  V30 1865 N 165.547 1.27147 0.931209 0
M  V30 1866 C 166.796 1.12664 1.67302 0
M  V30 1867 C 167.109 -0.327718 1.92835 0
M  V30 1868 O 168.315 -0.593392 2.64936 0
M  V30 1869 C 166.771 1.9683 3.01307 0
M  V30 1870 C 166.379 3.46901 2.83485 0
M  V30 1871 C 168.123 1.90985 3.79111 0
M  V30 1872 C 166.03 4.23279 4.13024 0
M  V30 1873 H 164.96 0.41803 0.627509 0
M  V30 1874 H 167.611 1.51539 1.03481 0
M  V30 1875 H 165.993 1.50797 3.66164 0
M  V30 1876 H 167.167 4.00773 2.27415 0
M  V30 1877 H 165.482 3.54088 2.19113 0
M  V30 1878 H 168.079 2.45328 4.75098 0
M  V30 1879 H 168.422 0.882718 4.06834 0
M  V30 1880 H 168.955 2.34895 3.21044 0
M  V30 1881 H 165.694 5.26503 3.90481 0
M  V30 1882 H 165.214 3.74186 4.6877 0
M  V30 1883 H 166.893 4.32265 4.81411 0
M  V30 1884 N 167.025 -1.13721 1.09112 0
M  V30 1885 C 167.988 -2.17222 0.731241 0
M  V30 1886 C 168.988 -1.59035 -0.237566 0
M  V30 1887 O 170.178 -1.74192 -0.0161704 0
M  V30 1888 C 167.31 -3.40804 0.0808443 0
M  V30 1889 H 168.503 -2.50573 1.64783 0
M  V30 1890 H 166.056 -1.28493 0.889897 0
M  V30 1891 H 166.791 -3.1304 -0.847127 0
M  V30 1892 H 166.576 -3.84306 0.777896 0
M  V30 1893 H 168.066 -4.1731 -0.155657 0
M  V30 1894 N 168.503 -0.877838 -1.30888 0
M  V30 1895 C 169.752 -0.488793 -1.95688 0
M  V30 1896 C 170.065 0.965485 -1.70111 0
M  V30 1897 O 171.271 1.46104 -2.28836 0
M  V30 1898 C 169.727 -0.823201 -3.50359 0
M  V30 1899 C 169.335 -2.29477 -3.84765 0
M  V30 1900 C 171.079 -0.503009 -4.21509 0
M  V30 1901 C 168.986 -2.57118 -5.32583 0
M  V30 1902 H 167.916 -0.179062 -0.732429 0
M  V30 1903 H 170.567 -1.07183 -1.48943 0
M  V30 1904 H 168.949 -0.169331 -3.95638 0
M  V30 1905 H 170.123 -2.99236 -3.5042 0
M  V30 1906 H 168.438 -2.58178 -3.267 0
M  V30 1907 H 171.035 -0.68665 -5.30273 0
M  V30 1908 H 171.378 0.557109 -4.12555 0
M  V30 1909 H 171.911 -1.11376 -3.8189 0
M  V30 1910 H 168.65 -3.61843 -5.4658 0
M  V30 1911 H 168.17 -1.91961 -5.68253 0
M  V30 1912 H 169.849 -2.42251 -5.99936 0
M  V30 1913 N 169.982 1.44106 -0.638065 0
M  V30 1914 C 170.932 2.27843 0.0847285 0
M  V30 1915 C 171.916 1.39055 0.809471 0
M  V30 1916 O 173.108 1.62808 0.694435 0
M  V30 1917 C 170.237 3.26497 1.06089 0
M  V30 1918 C 169.323 4.22772 0.33541 0
M  V30 1919 N 169.714 5.01737 -0.639787 0
M  V30 1920 C 168.012 4.42227 0.578921 0
M  V30 1921 C 168.713 5.71792 -1.06904 0
M  V30 1922 N 167.689 5.42079 -0.406395 0
M  V30 1923 H 171.491 2.86305 -0.663814 0
M  V30 1924 H 169.005 1.55627 -0.464122 0
M  V30 1925 H 171.002 3.8525 1.59337 0
M  V30 1926 H 169.662 2.69595 1.80966 0
M  V30 1927 H 170.673 5.07799 -1.01789 0
M  V30 1928 H 167.35 3.96415 1.31003 0
M  V30 1929 H 168.74 6.45205 -1.8751 0
M  V30 1930 N 171.46 0.379036 1.52974 0
M  V30 1931 C 172.37 -0.468639 2.29872 0
M  V30 1932 C 173.386 -1.08067 1.36373 0
M  V30 1933 O 174.562 -1.08871 1.69438 0
M  V30 1934 C 171.627 -1.58594 3.083 0
M  V30 1935 C 170.688 -1.00007 4.17489 0
M  V30 1936 C 169.921 -2.06413 4.92168 0
M  V30 1937 O 170.144 -3.27751 4.66835 0
M  V30 1938 O 169.078 -1.68717 5.7777 0
M  V30 1939 H 172.904 0.157508 3.03291 0
M  V30 1940 H 170.489 0.143035 1.48714 0
M  V30 1941 H 172.371 -2.23525 3.57232 0
M  V30 1942 H 171.046 -2.19724 2.37703 0
M  V30 1943 H 169.953 -0.314299 3.72777 0
M  V30 1944 H 171.286 -0.433135 4.90291 0
M  V30 1945 N 172.938 -1.57226 0.108567 0
M  V30 1946 C 174.184 -1.95121 -0.552761 0
M  V30 1947 C 174.517 -0.991345 -1.66991 0
M  V30 1948 O 173.792 -0.0267211 -1.94482 0
M  V30 1949 C 174.075 -3.43039 -1.09528 0
M  V30 1950 C 173.928 -4.49797 0.0177332 0
M  V30 1951 C 175.247 -3.92567 -1.98945 0
M  V30 1952 H 172.366 -0.709496 -0.199461 0
M  V30 1953 H 175.008 -1.89126 0.182011 0
M  V30 1954 H 173.158 -3.48279 -1.72146 0
M  V30 1955 H 174.83 -4.56661 0.652584 0
M  V30 1956 H 173.073 -4.284 0.682309 0
M  V30 1957 H 173.744 -5.50528 -0.402919 0
M  V30 1958 H 176.22 -3.89565 -1.46214 0
M  V30 1959 H 175.096 -4.96605 -2.33827 0
M  V30 1960 H 175.357 -3.32648 -2.91201 0
M  V30 1961 N 174.416 0.165178 -1.56732 0
M  V30 1962 C 175.663 0.880807 -1.8234 0
M  V30 1963 C 175.991 1.81977 -0.686621 0
M  V30 1964 O 175.246 1.92971 0.325697 0
M  V30 1965 C 175.545 1.70405 -3.1416 0
M  V30 1966 C 175.211 0.913475 -4.4155 0
M  V30 1967 C 173.873 0.695303 -4.7615 0
M  V30 1968 C 176.225 0.359349 -5.1996 0
M  V30 1969 C 173.553 -0.0879947 -5.86634 0
M  V30 1970 C 175.905 -0.410893 -6.31264 0
M  V30 1971 C 174.569 -0.639808 -6.64427 0
M  V30 1972 H 173.839 0.32231 -0.667231 0
M  V30 1973 H 176.486 0.145402 -1.90947 0
M  V30 1974 H 174.791 2.50903 -3.00923 0
M  V30 1975 H 176.488 2.26091 -3.31186 0
M  V30 1976 H 173.078 1.09357 -4.14414 0
M  V30 1977 H 177.262 0.515228 -4.93618 0
M  V30 1978 H 172.518 -0.27503 -6.10781 0
M  V30 1979 H 176.692 -0.847494 -6.91224 0
M  V30 1980 H 174.319 -1.24864 -7.49875 0
M  V30 1981 N 175.894 1.51508 0.433938 0
M  V30 1982 C 176.804 1.75917 1.5521 0
M  V30 1983 C 177.82 0.643545 1.61662 0
M  V30 1984 O 178.996 0.926183 1.7884 0
M  V30 1985 C 176.061 1.88213 2.91164 0
M  V30 1986 C 175.122 3.12074 2.94802 0
M  V30 1987 C 174.355 3.23774 4.24271 0
M  V30 1988 O 174.578 2.4133 5.16833 0
M  V30 1989 O 173.512 4.16774 4.34262 0
M  V30 1990 H 177.338 2.70777 1.37527 0
M  V30 1991 H 174.923 1.36051 0.617293 0
M  V30 1992 H 176.805 1.98267 3.71845 0
M  V30 1993 H 175.48 0.965413 3.08968 0
M  V30 1994 H 174.387 3.07497 2.13065 0
M  V30 1995 H 175.72 4.03446 2.81943 0
M  V30 1996 N 177.372 -0.689602 1.41712 0
M  V30 1997 C 178.32 -1.82475 1.44242 0
M  V30 1998 C 179.314 -1.66354 0.319774 0
M  V30 1999 O 180.52 -1.73143 0.492089 0
M  V30 2000 H 176.895 -0.601416 0.451445 0
M  V30 2001 H 178.866 -1.77458 2.39899 0
M  V30 2002 C 177.615 -3.20535 1.3473 0
M  V30 2003 H 176.938 -3.33559 2.20405 0
M  V30 2004 H 178.378 -4.00023 1.40562 0
M  V30 2005 C 176.837 -3.36846 0.0603281 0
M  V30 2006 O 177.367 -3.91656 -0.892663 0
M  V30 2007 N 175.573 -2.90595 -0.0177039 0
M  V30 2008 H 175.12 -2.46178 0.758572 0
M  V30 2009 H 175.078 -3.01886 -0.878201 0
M  V30 2010 N 178.85 -1.27639 -0.924453 0
M  V30 2011 C 180.075 -1.17101 -1.71179 0
M  V30 2012 C 180.5 0.268134 -1.86179 0
M  V30 2013 O 179.858 1.19415 -1.36418 0
M  V30 2014 C 179.906 -1.86313 -3.08739 0
M  V30 2015 O 179.01 -1.16331 -3.95652 0
M  V30 2016 H 178.351 -0.407091 -0.524569 0
M  V30 2017 H 180.881 -1.68767 -1.15666 0
M  V30 2018 H 180.891 -1.938 -3.59034 0
M  V30 2019 H 179.566 -2.91001 -2.97138 0
M  V30 2020 H 178.143 -1.16935 -3.54091 0
M  V30 2021 N 180.328 1.1314 -1.09713 0
M  V30 2022 C 181.553 1.88862 -0.857081 0
M  V30 2023 C 181.978 1.78729 0.586304 0
M  V30 2024 O 181.336 1.13692 1.41222 0
M  V30 2025 C 181.384 3.36325 -1.30069 0
M  V30 2026 O 180.488 4.09815 -0.461007 0
M  V30 2027 H 179.829 0.587108 -0.310162 0
M  V30 2028 H 182.359 1.43129 -1.46203 0
M  V30 2029 H 182.369 3.87157 -1.28738 0
M  V30 2030 H 181.044 3.43017 -2.35185 0
M  V30 2031 H 179.621 3.68986 -0.538888 0
M  V30 2032 N 181.806 0.884767 1.30421 0
M  V30 2033 C 182.753 0.349642 2.28136 0
M  V30 2034 C 183.723 -0.560061 1.56373 0
M  V30 2035 O 184.908 -0.488524 1.8444 0
M  V30 2036 C 182.048 -0.42999 3.42411 0
M  V30 2037 C 181.161 0.508907 4.28992 0
M  V30 2038 C 180.296 -0.286301 5.30428 0
M  V30 2039 C 179.335 0.648079 6.08659 0
M  V30 2040 N 178.472 -0.111792 7.02011 0
M  V30 2041 H 183.312 1.18807 2.73293 0
M  V30 2042 H 180.849 0.597231 1.3443 0
M  V30 2043 H 182.807 -0.897923 4.07423 0
M  V30 2044 H 181.437 -1.23299 2.98324 0
M  V30 2045 H 180.489 1.09533 3.64289 0
M  V30 2046 H 181.801 1.22475 4.8353 0
M  V30 2047 H 180.955 -0.816098 6.01186 0
M  V30 2048 H 179.694 -1.03536 4.76583 0
M  V30 2049 H 178.699 1.18951 5.36778 0
M  V30 2050 H 179.924 1.39623 6.64592 0
M  V30 2051 H 177.87 -0.843395 6.50556 0
M  V30 2052 H 177.787 0.544429 7.54037 0
M  V30 2053 H 179.055 -0.622339 7.77012 0
M  V30 2054 N 183.284 -1.43765 0.645699 0
M  V30 2055 C 184.533 -2.01116 0.153412 0
M  V30 2056 C 184.846 -1.51493 -1.23731 0
M  V30 2057 O 186.052 -2.01067 -1.8244 0
M  V30 2058 C 184.508 -3.59206 0.223473 0
M  V30 2059 C 184.116 -4.17823 1.61642 0
M  V30 2060 C 185.86 -4.23972 -0.211597 0
M  V30 2061 C 183.767 -5.68183 1.64081 0
M  V30 2062 H 182.697 -0.752093 0.0535891 0
M  V30 2063 H 185.348 -1.6482 0.806633 0
M  V30 2064 H 183.73 -3.92867 -0.497118 0
M  V30 2065 H 184.904 -3.95674 2.36176 0
M  V30 2066 H 183.219 -3.65399 1.99681 0
M  V30 2067 H 185.816 -5.34275 -0.213112 0
M  V30 2068 H 186.159 -3.97352 -1.24165 0
M  V30 2069 H 186.692 -3.95166 0.456988 0
M  V30 2070 H 183.431 -5.99559 2.64971 0
M  V30 2071 H 182.951 -5.9241 0.938611 0
M  V30 2072 H 184.63 -6.32085 1.3812 0
M  V30 2073 N 184.763 -0.387143 -1.52771 0
M  V30 2074 C 186.009 0.196025 -2.0185 0
M  V30 2075 C 186.342 1.46641 -1.27319 0
M  V30 2076 O 185.617 1.90889 -0.373032 0
M  V30 2077 C 185.9 0.466136 -3.5707 0
M  V30 2078 C 185.753 -0.819385 -4.42274 0
M  V30 2079 C 187.072 1.25768 -4.21747 0
M  V30 2080 H 184.191 0.0697708 -0.73369 0
M  V30 2081 H 186.833 -0.516286 -1.82851 0
M  V30 2082 H 184.983 1.07293 -3.7339 0
M  V30 2083 H 186.655 -1.4563 -4.37709 0
M  V30 2084 H 184.898 -1.43517 -4.09372 0
M  V30 2085 H 185.569 -0.585065 -5.48891 0
M  V30 2086 H 188.045 0.744167 -4.09391 0
M  V30 2087 H 186.921 1.41541 -5.30337 0
M  V30 2088 H 187.182 2.27228 -3.79236 0
M  V30 2089 N 186.241 1.57166 -0.116904 0
M  V30 2090 C 187.49 1.94298 0.541407 0
M  V30 2091 C 187.803 1.00236 1.67964 0
M  V30 2092 O 189.009 1.26826 2.40057 0
M  V30 2093 C 187.465 3.45306 1.01449 0
M  V30 2094 C 187.073 4.47899 -0.0951738 0
M  V30 2095 C 188.817 3.91361 1.6443 0
M  V30 2096 C 186.724 5.90083 0.394491 0
M  V30 2097 H 185.654 0.725308 0.206019 0
M  V30 2098 H 188.305 1.82446 -0.196419 0
M  V30 2099 H 186.687 3.52385 1.80667 0
M  V30 2100 H 187.861 4.52486 -0.871374 0
M  V30 2101 H 186.176 4.11583 -0.631505 0
M  V30 2102 H 188.773 4.95004 2.02176 0
M  V30 2103 H 189.116 3.3122 2.52189 0
M  V30 2104 H 189.649 3.87073 0.917559 0
M  V30 2105 H 186.388 6.53974 -0.447004 0
M  V30 2106 H 185.908 5.88921 1.13722 0
M  V30 2107 H 187.587 6.41307 0.856399 0
M  V30 2108 N 187.719 -0.156864 1.56817 0
M  V30 2109 C 188.965 -0.872416 1.83076 0
M  V30 2110 C 189.298 -1.81261 0.697001 0
M  V30 2111 O 188.573 -1.92171 -0.30008 0
M  V30 2112 C 188.856 -1.65551 3.19789 0
M  V30 2113 C 188.709 -0.737467 4.43713 0
M  V30 2114 C 190.028 -2.62012 3.53606 0
M  V30 2115 H 187.147 -0.315715 0.665953 0
M  V30 2116 H 189.789 -0.138004 1.89498 0
M  V30 2117 H 187.939 -2.28159 3.14445 0
M  V30 2118 H 189.611 -0.123143 4.61136 0
M  V30 2119 H 187.854 -0.0464067 4.33775 0
M  V30 2120 H 188.525 -1.32122 5.35955 0
M  V30 2121 H 191.001 -2.09525 3.59497 0
M  V30 2122 H 189.877 -3.13861 4.50314 0
M  V30 2123 H 190.138 -3.42902 2.79053 0
M  V30 2124 N 189.197 -1.51736 -0.425897 0
M  V30 2125 C 190.13 -1.68574 -1.53812 0
M  V30 2126 C 191.108 -0.53328 -1.53606 0
M  V30 2127 O 192.292 -0.758555 -1.72564 0
M  V30 2128 C 189.419 -1.70977 -2.92377 0
M  V30 2129 C 188.465 -2.92324 -3.10563 0
M  V30 2130 S 189.298 -4.52952 -2.85648 0
M  V30 2131 C 190.454 -4.58117 -4.26474 0
M  V30 2132 H 190.687 -2.62647 -1.39298 0
M  V30 2133 H 188.22 -1.41564 -0.616361 0
M  V30 2134 H 190.178 -1.73047 -3.72243 0
M  V30 2135 H 188.839 -0.78061 -3.04245 0
M  V30 2136 H 188.032 -2.90439 -4.11899 0
M  V30 2137 H 187.634 -2.88055 -2.38538 0
M  V30 2138 H 189.926 -4.34462 -5.19855 0
M  V30 2139 H 190.869 -5.59983 -4.33388 0
M  V30 2140 H 191.277 -3.8732 -4.10662 0
M  V30 2141 N 190.675 0.682077 -1.42076 0
M  V30 2142 C 191.585 1.82535 -1.47371 0
M  V30 2143 C 192.601 1.7017 -0.363079 0
M  V30 2144 O 193.777 1.91848 -0.612875 0
M  V30 2145 C 190.842 3.18624 -1.36674 0
M  V30 2146 C 189.903 3.42999 -2.58167 0
M  V30 2147 C 189.136 4.72595 -2.4797 0
M  V30 2148 O 189.359 5.50006 -1.5116 0
M  V30 2149 O 188.293 4.98054 -3.37974 0
M  V30 2150 H 192.119 1.81023 -2.43853 0
M  V30 2151 H 189.704 0.836887 -1.2376 0
M  V30 2152 H 191.586 3.99847 -1.33043 0
M  V30 2153 H 190.261 3.20789 -0.433138 0
M  V30 2154 H 189.168 2.61653 -2.67373 0
M  V30 2155 H 190.501 3.45659 -3.50401 0
M  V30 2156 N 192.153 1.28127 0.917671 0
M  V30 2157 C 193.383 1.17722 1.6978 0
M  V30 2158 C 193.791 -0.267261 1.87303 0
M  V30 2159 O 193.134 -1.19286 1.39702 0
M  V30 2160 C 193.196 1.79958 3.11216 0
M  V30 2161 C 192.86 3.29187 3.16993 0
M  V30 2162 C 193.857 4.25679 2.98485 0
M  V30 2163 C 191.542 3.70075 3.39632 0
M  V30 2164 C 193.536 5.61035 3.02521 0
M  V30 2165 C 191.223 5.05557 3.433 0
M  V30 2166 C 192.221 6.00847 3.24764 0
M  V30 2167 O 191.909 7.33859 3.28187 0
M  V30 2168 H 191.641 0.409788 0.537634 0
M  V30 2169 H 194.195 1.69694 1.15728 0
M  V30 2170 H 192.425 1.22475 3.66793 0
M  V30 2171 H 194.114 1.64125 3.71238 0
M  V30 2172 H 194.88 3.95426 2.80826 0
M  V30 2173 H 190.759 2.96373 3.53106 0
M  V30 2174 H 194.303 6.35388 2.87971 0
M  V30 2175 H 190.2 5.35462 3.60486 0
M  V30 2176 H 190.968 7.42436 3.44575 0
M  V30 2177 N 193.631 -1.12557 1.10312 0
M  V30 2178 C 194.594 -2.16434 0.75424 0
M  V30 2179 C 195.594 -1.59278 -0.220685 0
M  V30 2180 O 196.784 -1.742 0.00230591 0
M  V30 2181 C 193.916 -3.40699 0.116987 0
M  V30 2182 H 195.109 -2.48811 1.67431 0
M  V30 2183 H 192.662 -1.27542 0.903475 0
M  V30 2184 H 193.397 -3.13921 -0.813877 0
M  V30 2185 H 193.182 -3.83459 0.818613 0
M  V30 2186 H 194.672 -4.17451 -0.111387 0
M  V30 2187 N 195.109 -0.891671 -1.2995 0
M  V30 2188 C 196.334 -0.527932 -2.00568 0
M  V30 2189 C 196.759 0.877969 -1.66353 0
M  V30 2190 O 196.117 1.58301 -0.883762 0
M  V30 2191 C 196.165 -0.717745 -3.53385 0
M  V30 2192 O 195.269 0.233376 -4.11739 0
M  V30 2193 H 194.61 -0.20722 -0.630837 0
M  V30 2194 H 197.14 -1.20105 -1.65638 0
M  V30 2195 H 197.15 -0.619307 -4.03272 0
M  V30 2196 H 195.825 -1.74276 -3.77625 0
M  V30 2197 H 194.402 0.0880706 -3.72796 0
M  V30 2198 N 196.587 1.43421 -0.653314 0
M  V30 2199 C 198.003 1.56341 -0.320886 0
M  V30 2200 C 198.203 1.63696 1.17499 0
M  V30 2201 O 197.259 1.59208 1.95982 0
M  V30 2202 C 198.572 2.82424 -1.03233 0
M  V30 2203 C 200.12 2.96168 -1.01259 0
M  V30 2204 C 200.595 4.25084 -1.70492 0
M  V30 2205 N 202.086 4.31948 -1.67257 0
M  V30 2206 C 202.821 5.30466 -2.17701 0
M  V30 2207 N 202.317 6.35261 -2.76434 0
M  V30 2208 N 204.11 5.2212 -2.082 0
M  V30 2209 H 196.261 1.3689 -1.62403 0
M  V30 2210 H 198.524 0.657455 -0.682977 0
M  V30 2211 H 198.23 2.83053 -2.08744 0
M  V30 2212 H 198.104 3.72653 -0.583948 0
M  V30 2213 H 200.491 2.9508 0.0341235 0
M  V30 2214 H 200.572 2.07229 -1.49966 0
M  V30 2215 H 200.216 4.26932 -2.7512 0
M  V30 2216 H 200.146 5.1292 -1.19251 0
M  V30 2217 H 202.637 3.56838 -1.24398 0
M  V30 2218 H 202.95 7.06754 -3.12601 0
M  V30 2219 H 201.295 6.35884 -2.80495 0
M  V30 2220 H 204.486 4.39166 -1.62021 0
M  V30 2221 H 204.659 5.98739 -2.47822 0
M  V30 2222 N 198.065 0.39524 1.52563 0
M  V30 2223 C 199.313 -0.184678 2.01254 0
M  V30 2224 C 199.634 -1.46822 1.28329 0
M  V30 2225 O 198.904 -1.91666 0.405094 0
M  V30 2226 H 197.484 -0.0712355 0.743596 0
M  V30 2227 H 200.146 0.528293 1.87603 0
M  V30 2228 H 199.242 -0.390681 3.09645 0
M  V30 2229 N 199.544 -1.57102 0.125237 0
M  V30 2230 C 200.821 -1.86953 -0.575142 0
M  V30 2231 C 201.201 -1.02749 -1.84407 0
M  V30 2232 O 200.549 -0.108144 -2.28244 0
M  V30 2233 C 200.759 -3.38198 -0.861583 0
M  V30 2234 C 202.107 -4.06937 -1.21192 0
M  V30 2235 O 203.131 -3.43252 -0.951645 0
M  V30 2236 O 201.99 -5.19364 -1.70068 0
M  V30 2237 H 199.084 -0.774147 -0.290906 0
M  V30 2238 H 201.63 -1.68942 0.160211 0
M  V30 2239 H 200.402 -3.91282 0.0373647 0
M  V30 2240 H 200.025 -3.61661 -1.65188 0
M  V30 2241 N 201.022 0.148545 -1.56898 0
M  V30 2242 C 201.952 1.18524 -2.01182 0
M  V30 2243 C 202.933 1.4489 -0.891123 0
M  V30 2244 O 204.118 1.55836 -1.15882 0
M  V30 2245 C 201.248 2.51879 -2.39112 0
M  V30 2246 C 200.202 2.40038 -3.54353 0
M  V30 2247 C 199.528 3.78089 -3.78091 0
M  V30 2248 C 200.828 1.88577 -4.87069 0
M  V30 2249 H 202.522 0.817029 -2.88036 0
M  V30 2250 H 200.068 0.391575 -1.38574 0
M  V30 2251 H 202.021 3.24627 -2.68692 0
M  V30 2252 H 200.745 2.90532 -1.49193 0
M  V30 2253 H 199.404 1.69742 -3.24936 0
M  V30 2254 H 199.052 4.14175 -2.85426 0
M  V30 2255 H 198.752 3.71028 -4.55645 0
M  V30 2256 H 200.276 4.52387 -4.10095 0
M  V30 2257 H 201.69 2.51117 -5.15377 0
M  V30 2258 H 200.087 1.9241 -5.68417 0
M  V30 2259 H 201.157 0.84136 -4.77545 0
M  V30 2260 N 202.5 1.5196 0.417844 0
M  V30 2261 C 203.73 1.69181 1.18581 0
M  V30 2262 C 204.138 0.397104 1.84986 0
M  V30 2263 O 203.481 -0.636011 1.72339 0
M  V30 2264 C 203.543 2.76497 2.29759 0
M  V30 2265 C 203.207 4.18514 1.83563 0
M  V30 2266 C 204.204 5.02648 1.32821 0
M  V30 2267 C 201.889 4.64708 1.90661 0
M  V30 2268 C 203.883 6.31044 0.897894 0
M  V30 2269 C 201.57 5.93096 1.47241 0
M  V30 2270 C 202.568 6.76093 0.968891 0
M  V30 2271 O 202.256 8.02078 0.540924 0
M  V30 2272 H 201.988 0.570457 0.362705 0
M  V30 2273 H 204.542 1.99249 0.498885 0
M  V30 2274 H 202.772 2.41786 3.01789 0
M  V30 2275 H 204.461 2.82403 2.91553 0
M  V30 2276 H 205.227 4.68154 1.26716 0
M  V30 2277 H 201.106 4.00216 2.28797 0
M  V30 2278 H 204.65 6.95776 0.504192 0
M  V30 2279 H 200.547 6.271 1.53022 0
M  V30 2280 H 201.315 8.15794 0.66502 0
M  V30 2281 N 203.978 -0.674533 1.42435 0
M  V30 2282 C 205.255 -1.4305 1.33402 0
M  V30 2283 C 205.635 -2.11081 -0.0284674 0
M  V30 2284 O 204.983 -2.03257 -1.04397 0
M  V30 2285 C 205.193 -2.43272 2.50239 0
M  V30 2286 C 206.541 -3.07907 2.92367 0
M  V30 2287 O 207.565 -2.53599 2.50132 0
M  V30 2288 O 206.424 -4.0632 3.65467 0
M  V30 2289 H 203.518 -0.638076 0.526106 0
M  V30 2290 H 206.064 -0.703235 1.54443 0
M  V30 2291 H 204.836 -1.91803 3.41068 0
M  V30 2292 H 204.459 -3.23479 2.31186 0
M  V30 2293 N 205.456 -1.28612 -0.910864 0
M  V30 2294 C 206.686 -1.1862 -1.69153 0
M  V30 2295 C 207.094 0.257324 -1.87442 0
M  V30 2296 O 206.437 1.18543 -1.40332 0
M  V30 2297 C 206.499 -1.81606 -3.10257 0
M  V30 2298 C 206.163 -3.30864 -3.15243 0
M  V30 2299 C 207.16 -4.27256 -2.96223 0
M  V30 2300 C 204.845 -3.71871 -3.37664 0
M  V30 2301 C 206.839 -5.62631 -2.99541 0
M  V30 2302 C 204.526 -5.07371 -3.40614 0
M  V30 2303 C 205.524 -6.02561 -3.21573 0
M  V30 2304 O 205.212 -7.35589 -3.2429 0
M  V30 2305 H 204.944 -0.412633 -0.535453 0
M  V30 2306 H 207.498 -1.70306 -1.14827 0
M  V30 2307 H 205.728 -1.24418 -3.66138 0
M  V30 2308 H 207.417 -1.66092 -3.70362 0
M  V30 2309 H 208.183 -3.9691 -2.78725 0
M  V30 2310 H 204.062 -2.98241 -3.5153 0
M  V30 2311 H 207.606 -6.36907 -2.84597 0
M  V30 2312 H 203.503 -5.37366 -3.57642 0
M  V30 2313 H 204.271 -7.44252 -3.40633 0
M  V30 2314 N 206.934 1.1197 -1.10907 0
M  V30 2315 C 208.183 1.82947 -0.849302 0
M  V30 2316 C 208.496 1.85275 0.627112 0
M  V30 2317 O 209.702 2.52296 1.00295 0
M  V30 2318 C 208.158 3.28529 -1.46959 0
M  V30 2319 C 207.766 3.34546 -2.97965 0
M  V30 2320 C 209.51 4.04443 -1.28942 0
M  V30 2321 C 207.417 4.74491 -3.53004 0
M  V30 2322 H 206.347 0.685477 -0.314065 0
M  V30 2323 H 208.998 1.2604 -1.33365 0
M  V30 2324 H 207.38 3.85333 -0.912917 0
M  V30 2325 H 208.554 2.87654 -3.59989 0
M  V30 2326 H 206.869 2.72108 -3.15192 0
M  V30 2327 H 209.466 5.07787 -1.67502 0
M  V30 2328 H 209.809 4.15656 -0.231456 0
M  V30 2329 H 210.342 3.5401 -1.81443 0
M  V30 2330 H 207.081 4.68474 -4.58489 0
M  V30 2331 H 206.601 5.21816 -2.9575 0
M  V30 2332 H 208.28 5.4344 -3.51115 0
M  V30 2333 N 208.412 0.89855 1.29475 0
M  V30 2334 C 209.637 0.538561 2.00285 0
M  V30 2335 C 210.062 -0.869135 1.66816 0
M  V30 2336 O 209.42 -1.57831 0.892145 0
M  V30 2337 C 209.468 0.736475 3.52999 0
M  V30 2338 O 208.572 -0.211537 4.11857 0
M  V30 2339 H 207.913 0.210563 0.62973 0
M  V30 2340 H 210.443 1.20982 1.64998 0
M  V30 2341 H 210.453 0.640685 4.02938 0
M  V30 2342 H 209.128 1.76276 3.76696 0
M  V30 2343 H 207.705 -0.0682991 3.72837 0
M  V30 2344 N 209.89 -1.43072 0.660911 0
M  V30 2345 C 210.8 -2.34585 -0.0264163 0
M  V30 2346 C 211.816 -1.54316 -0.803898 0
M  V30 2347 O 212.992 -1.86939 -0.749391 0
M  V30 2348 C 210.057 -3.32689 -0.975639 0
M  V30 2349 C 209.118 -4.2886 -0.194236 0
M  V30 2350 C 208.351 -5.22278 -1.09825 0
M  V30 2351 O 208.574 -5.20299 -2.33763 0
M  V30 2352 O 207.508 -5.99228 -0.566513 0
M  V30 2353 H 211.334 -2.94869 0.727034 0
M  V30 2354 H 208.919 -1.43342 0.42111 0
M  V30 2355 H 210.801 -3.92995 -1.52094 0
M  V30 2356 H 209.476 -2.74898 -1.70918 0
M  V30 2357 H 208.383 -3.72011 0.394835 0
M  V30 2358 H 209.716 -4.89655 0.499899 0
M  V30 2359 N 211.368 -0.403325 -1.52352 0
M  V30 2360 C 212.784 -0.0539281 -1.59509 0
M  V30 2361 C 212.984 1.43307 -1.41652 0
M  V30 2362 O 212.04 2.19924 -1.24056 0
M  V30 2363 C 213.353 -0.543654 -2.95745 0
M  V30 2364 C 214.901 -0.501125 -3.08962 0
M  V30 2365 C 215.376 -0.967267 -4.47669 0
M  V30 2366 N 216.867 -0.923849 -4.53893 0
M  V30 2367 C 217.602 -1.25578 -5.5948 0
M  V30 2368 N 217.098 -1.65889 -6.72646 0
M  V30 2369 N 218.891 -1.17613 -5.49658 0
M  V30 2370 H 211.042 -1.37123 -1.62206 0
M  V30 2371 H 213.305 -0.56294 -0.76276 0
M  V30 2372 H 213.011 -1.58275 -3.14073 0
M  V30 2373 H 212.885 0.0498042 -3.77167 0
M  V30 2374 H 215.272 0.528909 -2.90321 0
M  V30 2375 H 215.353 -1.13056 -2.2946 0
M  V30 2376 H 214.997 -1.9956 -4.67053 0
M  V30 2377 H 214.927 -0.314698 -5.25659 0
M  V30 2378 H 217.418 -0.627403 -3.72655 0
M  V30 2379 H 217.731 -1.89543 -7.49195 0
M  V30 2380 H 216.076 -1.69787 -6.73942 0
M  V30 2381 H 219.267 -0.860115 -4.6013 0
M  V30 2382 H 219.44 -1.43812 -6.3184 0
M  V30 2383 N 212.846 1.57033 -0.133567 0
M  V30 2384 C 213.778 2.13176 0.841944 0
M  V30 2385 C 214.791 1.07794 1.22001 0
M  V30 2386 O 215.98 1.35117 1.16643 0
M  V30 2387 C 213.08 2.62847 2.13926 0
M  V30 2388 C 212.253 3.92486 1.93064 0
M  V30 2389 C 211.312 4.27605 3.0666 0
M  V30 2390 O 210.338 4.96168 2.78937 0
M  V30 2391 N 211.54 3.861 4.33483 0
M  V30 2392 H 214.305 2.97503 0.362192 0
M  V30 2393 H 211.866 1.61821 0.05042 0
M  V30 2394 H 213.858 2.83363 2.88942 0
M  V30 2395 H 212.428 1.83319 2.53205 0
M  V30 2396 H 211.648 3.80732 1.02159 0
M  V30 2397 H 212.936 4.77225 1.76447 0
M  V30 2398 H 212.334 3.30828 4.58878 0
M  V30 2399 H 210.891 4.11694 5.05323 0
M  V30 2400 N 214.325 -0.140222 1.56975 0
M  V30 2401 C 215.257 -1.19818 1.95388 0
M  V30 2402 C 216.27 -1.38816 0.850525 0
M  V30 2403 O 217.459 -1.38267 1.12891 0
M  V30 2404 C 214.559 -2.56189 2.21857 0
M  V30 2405 C 213.732 -2.58077 3.5315 0
M  V30 2406 C 212.791 -3.76037 3.6808 0
M  V30 2407 O 211.817 -3.60598 4.40406 0
M  V30 2408 N 213.019 -4.93763 3.05251 0
M  V30 2409 H 215.784 -0.871609 2.86746 0
M  V30 2410 H 213.345 -0.32972 1.58507 0
M  V30 2411 H 215.337 -3.33623 2.2908 0
M  V30 2412 H 213.907 -2.81111 1.36731 0
M  V30 2413 H 213.127 -1.6651 3.57307 0
M  V30 2414 H 214.415 -2.56377 4.39486 0
M  V30 2415 H 213.813 -5.09209 2.46419 0
M  V30 2416 H 212.37 -5.68949 3.18026 0
M  V30 2417 N 215.803 -1.52179 -0.40978 0
M  V30 2418 C 216.733 -1.78435 -1.5061 0
M  V30 2419 C 217.714 -0.635295 -1.57791 0
M  V30 2420 O 218.899 -0.880823 -1.73076 0
M  V30 2421 C 216.029 -1.93444 -2.88439 0
M  V30 2422 C 214.983 -3.09038 -2.96108 0
M  V30 2423 C 214.309 -3.09268 -4.36185 0
M  V30 2424 C 215.609 -4.48508 -2.67652 0
M  V30 2425 H 217.303 -2.70237 -1.28889 0
M  V30 2426 H 214.849 -1.30036 -0.618605 0
M  V30 2427 H 216.802 -2.10394 -3.65119 0
M  V30 2428 H 215.526 -0.983129 -3.11452 0
M  V30 2429 H 214.185 -2.91837 -2.21872 0
M  V30 2430 H 213.833 -2.11861 -4.56206 0
M  V30 2431 H 213.533 -3.86907 -4.42241 0
M  V30 2432 H 215.057 -3.28348 -5.14801 0
M  V30 2433 H 216.471 -4.65918 -3.34056 0
M  V30 2434 H 214.868 -5.28059 -2.85085 0
M  V30 2435 H 215.938 -4.56649 -1.63095 0
M  V30 2436 N 217.281 0.66697 -1.42791 0
M  V30 2437 C 218.506 1.46004 -1.47301 0
M  V30 2438 C 218.931 1.87894 -0.0880317 0
M  V30 2439 O 218.289 1.56502 0.915253 0
M  V30 2440 C 218.337 2.68031 -2.41229 0
M  V30 2441 O 217.441 3.6659 -1.88906 0
M  V30 2442 H 216.782 0.43832 -0.49877 0
M  V30 2443 H 219.312 0.817391 -1.87563 0
M  V30 2444 H 219.322 3.1601 -2.58073 0
M  V30 2445 H 217.997 2.36883 -3.41847 0
M  V30 2446 H 216.574 3.25661 -1.81656 0
M  V30 2447 N 218.759 1.29093 0.90403 0
M  V30 2448 C 219.669 1.15727 2.0407 0
M  V30 2449 C 220.685 0.0815308 1.73809 0
M  V30 2450 O 221.861 0.292749 1.99261 0
M  V30 2451 C 218.926 0.830424 3.36608 0
M  V30 2452 C 217.987 1.98955 3.80415 0
M  V30 2453 C 217.22 1.6782 5.06628 0
M  V30 2454 O 217.443 0.597105 5.67266 0
M  V30 2455 O 216.377 2.52486 5.46383 0
M  V30 2456 H 220.203 2.11171 2.18267 0
M  V30 2457 H 217.788 1.08504 1.027 0
M  V30 2458 H 219.67 0.662521 4.16159 0
M  V30 2459 H 218.345 -0.0942678 3.23563 0
M  V30 2460 H 217.252 2.21267 3.01648 0
M  V30 2461 H 218.585 2.89529 3.98037 0
M  V30 2462 N 220.237 -1.11381 1.11499 0
M  V30 2463 C 221.653 -1.35143 0.849031 0
M  V30 2464 C 221.853 -1.94515 -0.525938 0
M  V30 2465 O 220.909 -2.1785 -1.27662 0
M  V30 2466 C 222.222 -2.28249 1.95762 0
M  V30 2467 C 223.77 -2.41812 1.98736 0
M  V30 2468 C 224.245 -3.3824 3.088 0
M  V30 2469 N 225.736 -3.45803 3.08179 0
M  V30 2470 C 226.471 -4.20358 3.89982 0
M  V30 2471 N 225.967 -4.97884 4.8175 0
M  V30 2472 N 227.76 -4.15877 3.78157 0
M  V30 2473 H 219.911 -0.712062 2.00109 0
M  V30 2474 H 222.174 -0.376025 0.870235 0
M  V30 2475 H 221.88 -1.91817 2.94787 0
M  V30 2476 H 221.754 -3.28473 1.85433 0
M  V30 2477 H 224.141 -2.77518 1.00338 0
M  V30 2478 H 224.222 -1.41437 2.13141 0
M  V30 2479 H 223.866 -3.03261 4.07425 0
M  V30 2480 H 223.796 -4.38471 2.91635 0
M  V30 2481 H 226.287 -2.90506 2.41691 0
M  V30 2482 H 226.6 -5.52142 5.40702 0
M  V30 2483 H 224.945 -4.97043 4.85771 0
M  V30 2484 H 228.136 -3.544 3.05808 0
M  V30 2485 H 228.309 -4.73723 4.42143 0
M  V30 2486 N 221.715 -0.905404 -1.28997 0
M  V30 2487 C 222.625 -0.392246 -2.31298 0
M  V30 2488 C 223.641 0.515889 -1.66176 0
M  V30 2489 O 224.817 0.404093 -1.97304 0
M  V30 2490 C 221.882 0.36686 -3.44754 0
M  V30 2491 C 220.943 -0.573485 -4.25452 0
M  V30 2492 C 220.176 0.149488 -5.33491 0
M  V30 2493 O 220.399 1.37255 -5.5364 0
M  V30 2494 O 219.333 -0.510919 -5.99728 0
M  V30 2495 H 223.159 -1.2411 -2.77183 0
M  V30 2496 H 220.744 -0.669926 -1.33538 0
M  V30 2497 H 222.626 0.795907 -4.13816 0
M  V30 2498 H 221.301 1.19169 -3.00966 0
M  V30 2499 H 220.208 -1.05176 -3.59011 0
M  V30 2500 H 221.541 -1.36489 -4.72897 0
M  V30 2501 N 223.193 1.4272 -0.668489 0
M  V30 2502 C 224.156 2.292 0.00448567 0
M  V30 2503 C 225.156 1.43001 0.735339 0
M  V30 2504 O 226.346 1.64461 0.57429 0
M  V30 2505 C 223.478 3.25375 1.01705 0
M  V30 2506 H 224.671 2.90199 -0.756608 0
M  V30 2507 H 222.224 1.50254 -0.430506 0
M  V30 2508 H 222.959 2.69301 1.80686 0
M  V30 2509 H 222.744 3.88944 0.496463 0
M  V30 2510 H 224.234 3.90245 1.48655 0
M  V30 2511 N 224.671 0.411399 1.52136 0
M  V30 2512 C 226.087 0.0623865 1.59478 0
M  V30 2513 C 226.287 -1.42554 1.4241 0
M  V30 2514 O 225.343 -2.19263 1.2522 0
M  V30 2515 C 226.656 0.559331 2.95452 0
M  V30 2516 C 228.204 0.517503 3.08692 0
M  V30 2517 C 228.679 0.990994 4.4715 0
M  V30 2518 N 230.17 0.947908 4.53397 0
M  V30 2519 C 230.905 1.28544 5.58806 0
M  V30 2520 N 230.401 1.69454 6.71757 0
M  V30 2521 N 232.194 1.20526 5.49026 0
M  V30 2522 H 224.345 1.37982 1.61477 0
M  V30 2523 H 226.608 0.566977 0.759764 0
M  V30 2524 H 226.314 1.59938 3.1323 0
M  V30 2525 H 226.188 -0.0298014 3.77188 0
M  V30 2526 H 228.575 -0.513505 2.90598 0
M  V30 2527 H 228.656 1.14272 2.28857 0
M  V30 2528 H 228.3 2.02034 4.65988 0
M  V30 2529 H 228.23 0.34257 5.25485 0
M  V30 2530 H 230.721 0.647157 3.72317 0
M  V30 2531 H 231.034 1.93513 7.48179 0
M  V30 2532 H 229.379 1.73359 6.73032 0
M  V30 2533 H 232.57 0.884505 4.59667 0
M  V30 2534 H 232.743 1.47161 6.31069 0
M  V30 2535 N 226.149 -1.5696 0.141893 0
M  V30 2536 C 227.099 -2.13074 -0.811383 0
M  V30 2537 C 228.083 -1.05726 -1.21288 0
M  V30 2538 O 229.275 -1.31914 -1.18015 0
M  V30 2539 C 226.404 -2.75186 -2.0525 0
M  V30 2540 C 225.49 -3.8965 -1.67432 0
M  V30 2541 N 225.881 -4.95733 -1.0041 0
M  V30 2542 C 224.179 -4.00262 -1.96739 0
M  V30 2543 C 224.88 -5.75858 -0.822345 0
M  V30 2544 N 223.856 -5.26452 -1.3546 0
M  V30 2545 H 227.658 -2.92465 -0.290031 0
M  V30 2546 H 225.172 -1.6229 -0.0598218 0
M  V30 2547 H 227.169 -3.13745 -2.74535 0
M  V30 2548 H 225.829 -1.97266 -2.57907 0
M  V30 2549 H 226.84 -5.13607 -0.665441 0
M  V30 2550 H 223.517 -3.33412 -2.51282 0
M  V30 2551 H 224.907 -6.71254 -0.294496 0
M  V30 2552 N 227.627 0.131896 -1.57047 0
M  V30 2553 C 228.874 0.841932 -1.84168 0
M  V30 2554 C 229.202 1.8048 -0.725066 0
M  V30 2555 O 228.457 1.93618 0.284692 0
M  V30 2556 C 228.756 1.63703 -3.17704 0
M  V30 2557 C 228.422 0.81961 -4.43388 0
M  V30 2558 C 227.084 0.594148 -4.77518 0
M  V30 2559 C 229.436 0.248977 -5.20605 0
M  V30 2560 C 226.764 -0.212409 -5.86315 0
M  V30 2561 C 229.116 -0.544701 -6.30251 0
M  V30 2562 C 227.78 -0.780599 -6.6292 0
M  V30 2563 H 227.05 0.308085 -0.673917 0
M  V30 2564 H 229.697 0.104867 -1.91213 0
M  V30 2565 H 228.002 2.44464 -3.06177 0
M  V30 2566 H 229.699 2.19015 -3.35907 0
M  V30 2567 H 226.289 1.00542 -4.16641 0
M  V30 2568 H 230.473 0.410408 -4.946 0
M  V30 2569 H 225.729 -0.404524 -6.1006 0
M  V30 2570 H 229.903 -0.993922 -6.89271 0
M  V30 2571 H 227.53 -1.40742 -7.47058 0
M  V30 2572 N 229.106 1.52395 0.401703 0
M  V30 2573 C 230.353 1.66817 1.14796 0
M  V30 2574 C 230.681 0.401772 1.90305 0
M  V30 2575 O 229.936 -0.615487 1.85769 0
M  V30 2576 C 230.235 2.84578 2.16217 0
M  V30 2577 C 229.901 4.22513 1.5746 0
M  V30 2578 C 228.563 4.60029 1.41161 0
M  V30 2579 C 230.915 5.0844 1.14622 0
M  V30 2580 C 228.243 5.81144 0.80552 0
M  V30 2581 C 230.595 6.30167 0.55428 0
M  V30 2582 C 229.259 6.66426 0.378482 0
M  V30 2583 H 228.529 0.610428 0.420069 0
M  V30 2584 H 231.176 1.86512 0.434212 0
M  V30 2585 H 229.481 2.59248 2.93764 0
M  V30 2586 H 231.178 2.92933 2.73845 0
M  V30 2587 H 227.768 3.92953 1.71132 0
M  V30 2588 H 231.952 4.80034 1.26021 0
M  V30 2589 H 227.208 6.07855 0.657399 0
M  V30 2590 H 231.382 6.96071 0.213983 0
M  V30 2591 H 229.009 7.60143 -0.0932606 0
M  V30 2592 N 230.584 -0.659388 1.43143 0
M  V30 2593 C 232 -0.974337 1.26407 0
M  V30 2594 C 232.2 -2.007 0.179341 0
M  V30 2595 O 231.256 -2.4856 -0.444295 0
M  V30 2596 C 232.569 -1.46447 2.62628 0
M  V30 2597 C 234.117 -1.58144 2.7011 0
M  V30 2598 C 234.592 -2.1055 4.06734 0
M  V30 2599 N 236.083 -2.17861 4.08767 0
M  V30 2600 C 236.818 -2.59519 5.1131 0
M  V30 2601 N 236.314 -3.00518 6.24228 0
M  V30 2602 N 238.107 -2.59404 4.98664 0
M  V30 2603 H 230.258 0.0240528 2.12386 0
M  V30 2604 H 232.521 -0.0518065 0.946583 0
M  V30 2605 H 232.227 -0.780123 3.42939 0
M  V30 2606 H 232.101 -2.44058 2.87603 0
M  V30 2607 H 234.488 -2.25682 1.90136 0
M  V30 2608 H 234.569 -0.589828 2.48907 0
M  V30 2609 H 234.213 -1.43616 4.87172 0
M  V30 2610 H 234.143 -3.10531 4.25298 0
M  V30 2611 H 236.634 -1.88975 3.27257 0
M  V30 2612 H 236.947 -3.31036 6.98309 0
M  V30 2613 H 235.292 -2.98337 6.2771 0
M  V30 2614 H 238.483 -2.26747 4.09516 0
M  V30 2615 H 238.656 -2.91548 5.78709 0
M  V30 2616 N 232.062 -1.29571 -0.897171 0
M  V30 2617 C 232.994 -1.10724 -2.00681 0
M  V30 2618 C 234.007 -0.0540026 -1.6271 0
M  V30 2619 O 235.196 -0.298783 -1.75982 0
M  V30 2620 C 232.296 -0.663912 -3.32333 0
M  V30 2621 C 231.469 -1.79622 -3.98816 0
M  V30 2622 C 230.528 -1.34349 -5.0876 0
M  V30 2623 O 229.554 -2.04864 -5.31055 0
M  V30 2624 N 230.756 -0.215764 -5.80099 0
M  V30 2625 H 233.521 -2.06291 -2.17403 0
M  V30 2626 H 231.082 -1.21544 -1.06951 0
M  V30 2627 H 233.074 -0.344295 -4.03233 0
M  V30 2628 H 231.644 0.199375 -3.11964 0
M  V30 2629 H 230.864 -2.28459 -3.21248 0
M  V30 2630 H 232.152 -2.55535 -4.39976 0
M  V30 2631 H 231.55 0.372091 -5.64475 0
M  V30 2632 H 230.107 0.0444707 -6.51785 0
M  V30 2633 N 233.54 1.10788 -1.12088 0
M  V30 2634 C 234.789 1.82036 -0.868659 0
M  V30 2635 C 235.102 1.85929 0.607426 0
M  V30 2636 O 236.308 2.53346 0.97613 0
M  V30 2637 C 234.764 3.26951 -1.50435 0
M  V30 2638 C 234.372 3.31367 -3.01496 0
M  V30 2639 C 236.116 4.03053 -1.33225 0
M  V30 2640 C 234.023 4.7072 -3.58017 0
M  V30 2641 H 232.953 0.682108 -0.321318 0
M  V30 2642 H 235.604 1.24618 -1.34694 0
M  V30 2643 H 233.986 3.84343 -0.953735 0
M  V30 2644 H 235.16 2.83819 -3.6302 0
M  V30 2645 H 233.475 2.6875 -3.18061 0
M  V30 2646 H 236.072 5.05981 -1.72878 0
M  V30 2647 H 236.415 4.15387 -0.275529 0
M  V30 2648 H 236.948 3.52066 -1.85188 0
M  V30 2649 H 233.687 4.63585 -4.63432 0
M  V30 2650 H 233.207 5.1865 -3.01268 0
M  V30 2651 H 234.886 5.39685 -3.56859 0
M  V30 2652 N 235.018 0.912232 1.28515 0
M  V30 2653 C 236.264 0.545405 1.95328 0
M  V30 2654 C 236.597 -0.908313 1.71649 0
M  V30 2655 O 235.872 -1.64575 1.03659 0
M  V30 2656 C 236.155 0.853483 3.4984 0
M  V30 2657 C 236.008 2.35982 3.82926 0
M  V30 2658 C 237.327 0.348589 4.38717 0
M  V30 2659 H 234.446 0.199626 0.709449 0
M  V30 2660 H 237.088 1.1412 1.5191 0
M  V30 2661 H 235.238 0.34643 3.86952 0
M  V30 2662 H 236.91 2.93738 3.55691 0
M  V30 2663 H 235.153 2.81543 3.30024 0
M  V30 2664 H 235.824 2.52593 4.90816 0
M  V30 2665 H 238.3 0.78294 4.08668 0
M  V30 2666 H 237.176 0.593242 5.45685 0
M  V30 2667 H 237.437 -0.751049 4.35674 0
M  V30 2668 N 236.496 -1.42363 0.676048 0
M  V30 2669 C 237.721 -2.06377 0.205705 0
M  V30 2670 C 238.146 -1.50463 -1.12883 0
M  V30 2671 O 237.504 -0.623619 -1.70237 0
M  V30 2672 C 237.552 -3.60277 0.152655 0
M  V30 2673 O 236.656 -4.02935 -0.87845 0
M  V30 2674 H 235.997 -0.655588 0.105359 0
M  V30 2675 H 238.527 -1.82475 0.925412 0
M  V30 2676 H 238.537 -4.07993 -0.0230675 0
M  V30 2677 H 237.212 -4.00346 1.12675 0
M  V30 2678 H 235.789 -3.66764 -0.673668 0
M  V30 2679 N 237.974 -0.419461 -1.51915 0
M  V30 2680 C 238.937 0.389116 -2.25873 0
M  V30 2681 C 239.937 0.964924 -1.28631 0
M  V30 2682 O 241.127 0.842179 -1.52489 0
M  V30 2683 C 238.259 1.54874 -3.03689 0
M  V30 2684 H 239.452 -0.258799 -2.98781 0
M  V30 2685 H 237.005 -0.172209 -1.55348 0
M  V30 2686 H 237.74 2.23323 -2.35154 0
M  V30 2687 H 237.525 1.14223 -3.75094 0
M  V30 2688 H 239.015 2.12046 -3.59759 0
M  V30 2689 N 239.452 1.56882 -0.150215 0
M  V30 2690 C 240.698 1.96518 0.500834 0
M  V30 2691 C 241.031 1.03527 1.64304 0
M  V30 2692 O 240.306 0.0782751 1.94342 0
M  V30 2693 C 240.589 3.45822 1.00395 0
M  V30 2694 C 240.442 4.49591 -0.136983 0
M  V30 2695 C 241.761 3.97704 1.88467 0
M  V30 2696 H 238.88 0.714535 0.18058 0
M  V30 2697 H 241.522 1.88577 -0.232091 0
M  V30 2698 H 239.672 3.5272 1.62851 0
M  V30 2699 H 241.344 4.5477 -0.77343 0
M  V30 2700 H 239.587 4.26441 -0.795652 0
M  V30 2701 H 240.258 5.51402 0.256815 0
M  V30 2702 H 242.734 3.93304 1.35834 0
M  V30 2703 H 241.61 5.0263 2.20578 0
M  V30 2704 H 241.871 3.40252 2.82279 0
M  V30 2705 N 240.93 -0.123565 1.57115 0
M  V30 2706 C 241.88 -1.1575 1.96433 0
M  V30 2707 C 242.864 -1.37313 0.838686 0
M  V30 2708 O 244.056 -1.38482 1.10235 0
M  V30 2709 C 241.185 -2.48526 2.36833 0
M  V30 2710 C 240.271 -2.30457 3.5602 0
M  V30 2711 N 240.662 -1.8219 4.71848 0
M  V30 2712 C 238.96 -2.61129 3.61563 0
M  V30 2713 C 239.661 -1.77721 5.53886 0
M  V30 2714 N 238.637 -2.21899 4.96248 0
M  V30 2715 H 242.439 -0.776797 2.83449 0
M  V30 2716 H 239.953 -0.331364 1.58983 0
M  V30 2717 H 241.95 -3.233 2.63216 0
M  V30 2718 H 240.61 -2.87358 1.5118 0
M  V30 2719 H 241.621 -1.51805 4.95152 0
M  V30 2720 H 238.298 -3.03678 2.86507 0
M  V30 2721 H 239.688 -1.41697 6.56789 0
M  V30 2722 N 242.408 -1.52605 -0.393616 0
M  V30 2723 C 243.638 -1.71046 -1.15874 0
M  V30 2724 C 244.046 -0.426483 -1.84331 0
M  V30 2725 O 243.389 0.608513 -1.73329 0
M  V30 2726 C 243.451 -2.80118 -2.25332 0
M  V30 2727 C 243.115 -4.21381 -1.76881 0
M  V30 2728 C 244.112 -5.04697 -1.24808 0
M  V30 2729 C 241.797 -4.67683 -1.83244 0
M  V30 2730 C 243.791 -6.32393 -0.797387 0
M  V30 2731 C 241.478 -5.95364 -1.37787 0
M  V30 2732 C 242.476 -6.77549 -0.861208 0
M  V30 2733 O 242.164 -8.02837 -0.413252 0
M  V30 2734 H 241.896 -0.576155 -0.353583 0
M  V30 2735 H 244.45 -2.00018 -0.467123 0
M  V30 2736 H 242.68 -2.46557 -2.97904 0
M  V30 2737 H 244.369 -2.87006 -2.87023 0
M  V30 2738 H 245.135 -4.70111 -1.19252 0
M  V30 2739 H 241.014 -4.03805 -2.22401 0
M  V30 2740 H 244.558 -6.9649 -0.393437 0
M  V30 2741 H 240.455 -6.29455 -1.43026 0
M  V30 2742 H 241.223 -8.16749 -0.53515 0
M  V30 2743 N 243.887 0.651787 -1.4349 0
M  V30 2744 C 245.127 1.42345 -1.46688 0
M  V30 2745 C 245.491 1.91793 -0.0891023 0
M  V30 2746 O 246.692 2.688 0.00423594 0
M  V30 2747 C 244.963 2.57221 -2.48137 0
M  V30 2748 S 246.522 3.45725 -2.70221 0
M  V30 2749 H 243.34 0.485878 -0.51908 0
M  V30 2750 H 245.942 0.756578 -1.80267 0
M  V30 2751 H 244.646 2.1917 -3.46976 0
M  V30 2752 H 244.177 3.28757 -2.16061 0
M  V30 2753 H 246.192 4.53996 -2.00255 0
M  V30 2754 N 245.365 1.30045 0.890287 0
M  V30 2755 C 246.315 1.12592 1.9826 0
M  V30 2756 C 247.299 0.0426021 1.60844 0
M  V30 2757 O 248.491 0.265346 1.75 0
M  V30 2758 C 245.62 0.814301 3.33503 0
M  V30 2759 C 244.706 1.93761 3.7725 0
M  V30 2760 N 245.097 3.18232 3.93143 0
M  V30 2761 C 243.395 1.83277 4.06602 0
M  V30 2762 C 244.096 3.9158 4.30163 0
M  V30 2763 N 243.072 3.19591 4.3973 0
M  V30 2764 H 246.874 2.07003 2.08631 0
M  V30 2765 H 244.388 1.21307 1.07974 0
M  V30 2766 H 246.385 0.67029 4.11476 0
M  V30 2767 H 245.045 -0.121797 3.24471 0
M  V30 2768 H 246.056 3.53581 3.78419 0
M  V30 2769 H 242.733 0.97001 4.06075 0
M  V30 2770 H 244.123 4.98744 4.50226 0
M  V30 2771 N 246.843 -1.10192 1.12674 0
M  V30 2772 C 247.775 -2.16418 0.754701 0
M  V30 2773 C 248.788 -1.61309 -0.21986 0
M  V30 2774 O 249.977 -1.785 -0.000826841 0
M  V30 2775 C 247.077 -3.38762 0.096698 0
M  V30 2776 C 246.25 -4.23307 1.10136 0
M  V30 2777 C 245.309 -5.24092 0.470513 0
M  V30 2778 O 244.335 -5.57906 1.12824 0
M  V30 2779 N 245.537 -5.75491 -0.760948 0
M  V30 2780 H 248.302 -2.48943 1.66875 0
M  V30 2781 H 245.863 -1.25834 1.01869 0
M  V30 2782 H 247.855 -4.03291 -0.337384 0
M  V30 2783 H 246.425 -3.04192 -0.720153 0
M  V30 2784 H 245.645 -3.55036 1.71299 0
M  V30 2785 H 246.933 -4.76624 1.78064 0
M  V30 2786 H 246.331 -5.50222 -1.31424 0
M  V30 2787 H 244.888 -6.41792 -1.13781 0
M  V30 2788 N 248.321 -0.919034 -1.28029 0
M  V30 2789 C 249.269 -0.401753 -2.29104 0
M  V30 2790 C 250.263 0.509354 -1.61561 0
M  V30 2791 O 251.469 0.390014 -1.75724 0
M  V30 2792 H 247.844 -0.111331 -0.743713 0
M  V30 2793 H 249.815 -1.2672 -2.70156 0
M  V30 2794 C 248.564 0.338148 -3.46052 0
M  V30 2795 H 247.887 -0.353732 -3.98232 0
M  V30 2796 H 249.327 0.664653 -4.18758 0
M  V30 2797 C 247.786 1.54798 -2.99231 0
M  V30 2798 O 248.316 2.64696 -3.02157 0
M  V30 2799 N 246.522 1.3968 -2.54829 0
M  V30 2800 H 246.069 0.502698 -2.52647 0
M  V30 2801 H 246.027 2.20755 -2.23863 0
M  V30 2802 N 249.799 1.42003 -0.683588 0
M  V30 2803 C 251.215 1.55625 -0.353976 0
M  V30 2804 C 251.415 1.66151 1.14 0
M  V30 2805 O 250.471 1.63329 1.92561 0
M  V30 2806 C 251.784 2.80171 -1.092 0
M  V30 2807 C 253.332 2.93954 -1.07518 0
M  V30 2808 C 253.807 4.21372 -1.79471 0
M  V30 2809 N 255.298 4.28303 -1.76381 0
M  V30 2810 C 256.033 5.25729 -2.28904 0
M  V30 2811 N 255.529 6.29254 -2.89846 0
M  V30 2812 N 257.322 5.17586 -2.19228 0
M  V30 2813 H 249.473 1.33415 -1.6527 0
M  V30 2814 H 251.736 0.64282 -0.696769 0
M  V30 2815 H 251.442 2.78561 -2.14701 0
M  V30 2816 H 251.316 3.7133 -0.662862 0
M  V30 2817 H 253.703 2.95086 -0.028475 0
M  V30 2818 H 253.784 2.04002 -1.54328 0
M  V30 2819 H 253.428 4.21001 -2.84114 0
M  V30 2820 H 253.358 5.10275 -1.30104 0
M  V30 2821 H 255.849 3.54119 -1.31939 0
M  V30 2822 H 256.162 6.99964 -3.27522 0
M  V30 2823 H 254.507 6.29791 -2.93919 0
M  V30 2824 H 257.698 4.35631 -1.71299 0
M  V30 2825 H 257.871 5.93348 -2.60466 0
M  V30 2826 N 251.277 0.427512 1.51691 0
M  V30 2827 C 252.523 -0.142439 2.02299 0
M  V30 2828 C 252.856 -1.43214 1.31162 0
M  V30 2829 O 252.131 -1.89833 0.423511 0
M  V30 2830 C 252.414 -0.371301 3.58181 0
M  V30 2831 C 252.267 0.936358 4.39946 0
M  V30 2832 C 253.586 -1.14542 4.24933 0
M  V30 2833 H 250.705 -0.0502937 0.735282 0
M  V30 2834 H 253.347 0.564584 1.81418 0
M  V30 2835 H 251.497 -0.973559 3.76104 0
M  V30 2836 H 253.169 1.57184 4.33694 0
M  V30 2837 H 251.412 1.5432 4.05423 0
M  V30 2838 H 252.083 0.730388 5.47147 0
M  V30 2839 H 254.559 -0.635362 4.11221 0
M  V30 2840 H 253.435 -1.27431 5.33903 0
M  V30 2841 H 253.696 -2.17093 3.85127 0
M  V30 2842 N 252.755 -1.56801 0.158532 0
M  V30 2843 C 254.001 -1.96781 -0.490405 0
M  V30 2844 C 254.334 -1.04397 -1.63753 0
M  V30 2845 O 253.609 -0.0885805 -1.94298 0
M  V30 2846 C 253.892 -3.4635 -0.985594 0
M  V30 2847 C 253.745 -4.49512 0.160824 0
M  V30 2848 C 255.064 -3.98697 -1.86355 0
M  V30 2849 H 252.183 -0.715482 -0.176788 0
M  V30 2850 H 254.825 -1.88451 0.242088 0
M  V30 2851 H 252.975 -3.53579 -1.60978 0
M  V30 2852 H 254.647 -4.54353 0.797537 0
M  V30 2853 H 252.89 -4.26013 0.818256 0
M  V30 2854 H 253.561 -5.51531 -0.227569 0
M  V30 2855 H 256.037 -3.94019 -1.33746 0
M  V30 2856 H 254.913 -5.03792 -2.17909 0
M  V30 2857 H 255.174 -3.41744 -2.8047 0
M  V30 2858 N 254.233 0.115231 -1.57178 0
M  V30 2859 C 255.183 1.14707 -1.97044 0
M  V30 2860 C 256.167 1.36866 -0.845957 0
M  V30 2861 O 257.359 1.37895 -1.10968 0
M  V30 2862 C 254.488 2.47266 -2.38148 0
M  V30 2863 C 253.574 2.28566 -3.57237 0
M  V30 2864 N 253.965 1.79685 -4.72807 0
M  V30 2865 C 252.263 2.59208 -3.62943 0
M  V30 2866 C 252.964 1.74781 -5.54821 0
M  V30 2867 N 251.94 2.19264 -4.97417 0
M  V30 2868 H 255.742 0.761754 -2.83857 0
M  V30 2869 H 253.256 0.322928 -1.59157 0
M  V30 2870 H 255.253 3.219 -2.64927 0
M  V30 2871 H 253.913 2.86552 -1.52702 0
M  V30 2872 H 254.924 1.49177 -4.9595 0
M  V30 2873 H 251.601 3.02154 -2.88113 0
M  V30 2874 H 252.991 1.38212 -6.57531 0
M  V30 2875 N 255.711 1.52812 0.385517 0
M  V30 2876 C 257.127 1.4214 0.725829 0
M  V30 2877 C 257.327 0.544589 1.94001 0
M  V30 2878 O 256.383 0.0193693 2.52493 0
M  V30 2879 C 257.696 2.85042 0.957668 0
M  V30 2880 C 259.244 2.94543 1.05892 0
M  V30 2881 C 259.719 4.38464 1.32337 0
M  V30 2882 N 261.21 4.41804 1.39151 0
M  V30 2883 C 261.945 5.5025 1.61285 0
M  V30 2884 N 261.441 6.68775 1.80866 0
M  V30 2885 N 263.234 5.37798 1.63492 0
M  V30 2886 H 255.385 2.08338 -0.413383 0
M  V30 2887 H 257.648 0.940016 -0.122775 0
M  V30 2888 H 257.354 3.51431 0.137568 0
M  V30 2889 H 257.228 3.27505 1.87137 0
M  V30 2890 H 259.615 2.28321 1.86959 0
M  V30 2891 H 259.696 2.55504 0.123057 0
M  V30 2892 H 259.34 5.05254 0.517793 0
M  V30 2893 H 259.27 4.75059 2.27214 0
M  V30 2894 H 261.761 3.56377 1.25713 0
M  V30 2895 H 262.074 7.47197 1.97271 0
M  V30 2896 H 260.419 6.71797 1.78083 0
M  V30 2897 H 263.61 4.44171 1.47749 0
M  V30 2898 H 263.783 6.22382 1.80402 0
M  V30 2899 N 257.189 -0.644168 1.43834 0
M  V30 2900 C 258.466 -1.40188 1.36406 0
M  V30 2901 C 258.846 -2.11094 0.0163124 0
M  V30 2902 O 258.194 -2.05426 -1.00062 0
M  V30 2903 C 258.404 -2.3791 2.55343 0
M  V30 2904 C 259.752 -3.01637 2.98832 0
M  V30 2905 O 260.776 -2.48237 2.55455 0
M  V30 2906 O 259.635 -3.98477 3.74003 0
M  V30 2907 H 256.729 -0.626773 0.539523 0
M  V30 2908 H 259.275 -0.670317 1.559 0
M  V30 2909 H 258.047 -1.84525 3.4506 0
M  V30 2910 H 257.67 -3.18503 2.37995 0
M  V30 2911 N 258.668 -1.30515 -0.883378 0
M  V30 2912 C 259.598 -1.19607 -2.00541 0
M  V30 2913 C 260.579 -0.086346 -1.69881 0
M  V30 2914 O 261.764 -0.268654 -1.92333 0
M  V30 2915 C 258.894 -0.888758 -3.35736 0
M  V30 2916 C 257.848 -1.95659 -3.8066 0
M  V30 2917 C 257.174 -1.50224 -5.13164 0
M  V30 2918 C 258.474 -3.36788 -3.99213 0
M  V30 2919 H 260.168 -2.13476 -2.09925 0
M  V30 2920 H 257.714 -1.02775 -1.00863 0
M  V30 2921 H 259.667 -0.799094 -4.13754 0
M  V30 2922 H 258.391 0.0856125 -3.26488 0
M  V30 2923 H 257.05 -2.03591 -3.04871 0
M  V30 2924 H 256.698 -0.516092 -5.00345 0
M  V30 2925 H 256.398 -2.2165 -5.44192 0
M  V30 2926 H 257.922 -1.42639 -5.93706 0
M  V30 2927 H 259.336 -3.31605 -4.67665 0
M  V30 2928 H 257.733 -4.06314 -4.41621 0
M  V30 2929 H 258.803 -3.78561 -3.03017 0
M  V30 2930 N 260.146 1.09593 -1.13257 0
M  V30 2931 C 261.093 2.1618 -0.808381 0
M  V30 2932 C 262.063 1.64517 0.228754 0
M  V30 2933 O 263.248 1.9053 0.101381 0
M  V30 2934 C 260.388 3.43973 -0.278675 0
M  V30 2935 C 259.501 4.09545 -1.37466 0
M  V30 2936 C 258.636 5.25088 -0.803479 0
M  V30 2937 C 257.675 5.82579 -1.87799 0
M  V30 2938 N 256.812 6.89486 -1.32488 0
M  V30 2939 H 261.652 2.43254 -1.72138 0
M  V30 2940 H 259.189 1.19392 -0.859294 0
M  V30 2941 H 261.147 4.17174 0.0465583 0
M  V30 2942 H 259.777 3.17223 0.597459 0
M  V30 2943 H 258.829 3.34226 -1.81652 0
M  V30 2944 H 260.141 4.48307 -2.18684 0
M  V30 2945 H 259.295 6.05178 -0.429427 0
M  V30 2946 H 258.034 4.87684 0.0397956 0
M  V30 2947 H 257.039 5.01152 -2.26113 0
M  V30 2948 H 258.264 6.22045 -2.72463 0
M  V30 2949 H 256.21 6.54064 -0.503575 0
M  V30 2950 H 256.127 7.27007 -2.07355 0
M  V30 2951 H 257.395 7.73336 -0.978336 0
M  V30 2952 N 261.624 0.925811 1.2754 0
M  V30 2953 C 262.554 0.440748 2.29303 0
M  V30 2954 C 263.535 -0.497971 1.62648 0
M  V30 2955 O 264.72 -0.403126 1.8997 0
M  V30 2956 C 261.85 -0.309048 3.45922 0
M  V30 2957 C 260.804 0.54166 4.24559 0
M  V30 2958 C 260.13 -0.337191 5.33636 0
M  V30 2959 C 261.43 1.80516 4.90114 0
M  V30 2960 H 263.124 1.29121 2.70126 0
M  V30 2961 H 260.67 0.622323 1.29858 0
M  V30 2962 H 262.623 -0.659315 4.1621 0
M  V30 2963 H 261.347 -1.19352 3.04011 0
M  V30 2964 H 260.006 0.874609 3.56014 0
M  V30 2965 H 259.654 -1.22056 4.87966 0
M  V30 2966 H 259.354 0.228497 5.87156 0
M  V30 2967 H 260.878 -0.683072 6.06767 0
M  V30 2968 H 262.292 1.52307 5.52698 0
M  V30 2969 H 260.689 2.3142 5.53683 0
M  V30 2970 H 261.759 2.52581 4.13921 0
M  V30 2971 N 263.102 -1.41638 0.69111 0
M  V30 2972 C 264.012 -2.34588 0.0233487 0
M  V30 2973 C 265.028 -1.55987 -0.770984 0
M  V30 2974 O 266.204 -1.88486 -0.709569 0
M  V30 2975 C 263.269 -3.34684 -0.904851 0
M  V30 2976 C 262.33 -4.29176 -0.103225 0
M  V30 2977 C 261.563 -5.2449 -0.987216 0
M  V30 2978 O 261.786 -5.2514 -2.22674 0
M  V30 2979 O 260.72 -6.00295 -0.439281 0
M  V30 2980 H 264.546 -2.93261 0.789416 0
M  V30 2981 H 262.131 -1.42417 0.45142 0
M  V30 2982 H 264.013 -3.96133 -1.43724 0
M  V30 2983 H 262.688 -2.78461 -1.65049 0
M  V30 2984 H 261.595 -3.71089 0.473655 0
M  V30 2985 H 262.928 -4.88484 0.60365 0
M  V30 2986 N 264.58 -0.43555 -1.51462 0
M  V30 2987 C 265.528 0.391205 -2.29287 0
M  V30 2988 C 266.522 1.02247 -1.35062 0
M  V30 2989 O 267.728 0.957646 -1.52411 0
M  V30 2990 H 264.103 0.144968 -0.737895 0
M  V30 2991 H 266.074 -0.286051 -2.97026 0
M  V30 2992 C 264.823 1.48096 -3.14583 0
M  V30 2993 H 264.146 1.00457 -3.86973 0
M  V30 2994 H 265.586 2.03273 -3.72097 0
M  V30 2995 C 264.045 2.46321 -2.29843 0
M  V30 2996 O 264.575 3.50815 -1.95682 0
M  V30 2997 N 262.781 2.17166 -1.931 0
M  V30 2998 H 262.328 1.32218 -2.21079 0
M  V30 2999 H 262.286 2.83127 -1.36698 0
M  V30 3000 N 266.058 1.56714 -0.166846 0
M  V30 3001 C 267.307 1.95922 0.479318 0
M  V30 3002 C 267.62 1.05529 1.6469 0
M  V30 3003 O 268.826 1.34399 2.35901 0
M  V30 3004 C 267.282 3.48359 0.90412 0
M  V30 3005 C 266.89 4.47369 -0.237621 0
M  V30 3006 C 268.634 3.96394 1.51896 0
M  V30 3007 C 266.541 5.91039 0.206561 0
M  V30 3008 H 265.471 0.731495 0.18284 0
M  V30 3009 H 268.122 1.81728 -0.254363 0
M  V30 3010 H 266.504 3.57955 1.69365 0
M  V30 3011 H 267.678 4.49485 -1.01489 0
M  V30 3012 H 265.993 4.09366 -0.762128 0
M  V30 3013 H 268.59 5.01186 1.86325 0
M  V30 3014 H 268.933 3.39075 2.41524 0
M  V30 3015 H 269.466 3.89796 0.79395 0
M  V30 3016 H 266.205 6.52221 -0.654834 0
M  V30 3017 H 265.725 5.9224 0.949282 0
M  V30 3018 H 267.404 6.43707 0.651939 0
M  V30 3019 N 267.536 -0.106894 1.57237 0
M  V30 3020 C 268.466 -1.13148 2.04254 0
M  V30 3021 C 269.447 -1.42476 0.929224 0
M  V30 3022 O 270.632 -1.52709 1.19973 0
M  V30 3023 C 267.762 -2.4545 2.45706 0
M  V30 3024 C 266.716 -2.30558 3.60592 0
M  V30 3025 C 266.042 -3.67931 3.87983 0
M  V30 3026 C 267.342 -1.75597 4.91897 0
M  V30 3027 H 269.036 -0.740374 2.90101 0
M  V30 3028 H 266.582 -0.354696 1.39563 0
M  V30 3029 H 268.535 -3.17389 2.77205 0
M  V30 3030 H 267.259 -2.86475 1.56843 0
M  V30 3031 H 265.918 -1.61067 3.29322 0
M  V30 3032 H 265.566 -4.06462 2.96306 0
M  V30 3033 H 265.266 -3.58817 4.65322 0
M  V30 3034 H 266.79 -4.41356 4.21945 0
M  V30 3035 H 268.204 -2.37364 5.21854 0
M  V30 3036 H 266.601 -1.77272 5.73319 0
M  V30 3037 H 267.671 -0.714451 4.79608 0
M  V30 3038 N 269.014 -1.53014 -0.377408 0
M  V30 3039 C 269.944 -1.81589 -1.46791 0
M  V30 3040 C 270.925 -0.668622 -1.56408 0
M  V30 3041 O 272.11 -0.917337 -1.71168 0
M  V30 3042 C 269.24 -1.99519 -2.8427 0
M  V30 3043 C 268.194 -3.15249 -2.89486 0
M  V30 3044 C 267.52 -3.18451 -4.29527 0
M  V30 3045 C 268.82 -4.54084 -2.58079 0
M  V30 3046 H 270.514 -2.7291 -1.23127 0
M  V30 3047 H 268.06 -1.31319 -0.590883 0
M  V30 3048 H 270.013 -2.18092 -3.60575 0
M  V30 3049 H 268.737 -1.04897 -3.09296 0
M  V30 3050 H 267.396 -2.96477 -2.15631 0
M  V30 3051 H 267.044 -2.2149 -4.5161 0
M  V30 3052 H 266.744 -3.962 -4.33934 0
M  V30 3053 H 268.268 -3.39193 -5.07721 0
M  V30 3054 H 269.682 -4.72899 -3.24098 0
M  V30 3055 H 268.079 -5.33987 -2.7382 0
M  V30 3056 H 269.149 -4.60006 -1.53372 0
M  V30 3057 N 270.492 0.636531 -1.44174 0
M  V30 3058 C 271.769 1.39463 -1.37148 0
M  V30 3059 C 272.149 2.11082 -0.027507 0
M  V30 3060 O 271.497 2.05954 0.989716 0
M  V30 3061 C 271.707 2.36552 -2.56601 0
M  V30 3062 C 273.055 3.00048 -3.00427 0
M  V30 3063 O 274.079 2.46878 -2.56767 0
M  V30 3064 O 272.938 3.96488 -3.76111 0
M  V30 3065 H 270.032 0.623903 -0.542839 0
M  V30 3066 H 272.578 0.662039 -1.56253 0
M  V30 3067 H 271.35 1.82692 -3.46034 0
M  V30 3068 H 270.973 3.17236 -2.39681 0
M  V30 3069 N 271.97 1.30982 0.876444 0
M  V30 3070 C 272.933 1.18054 1.96459 0
M  V30 3071 C 273.933 0.109399 1.60427 0
M  V30 3072 O 275.123 0.358173 1.70478 0
M  V30 3073 C 272.255 0.810616 3.31122 0
M  V30 3074 H 273.448 2.14735 2.09354 0
M  V30 3075 H 271.001 1.145 1.06392 0
M  V30 3076 H 271.736 -0.155322 3.23928 0
M  V30 3077 H 271.521 1.58481 3.58645 0
M  V30 3078 H 273.011 0.743876 4.10921 0
M  V30 3079 N 273.449 -1.08991 1.13837 0
M  V30 3080 C 274.397 -2.17841 0.815347 0
M  V30 3081 C 275.391 -1.68164 -0.204233 0
M  V30 3082 O 276.597 -1.79897 -0.0609304 0
M  V30 3083 H 272.972 -0.710654 0.245915 0
M  V30 3084 H 274.943 -2.42315 1.74143 0
M  V30 3085 C 273.692 -3.46381 0.302614 0
M  V30 3086 H 273.015 -3.84979 1.0785 0
M  V30 3087 H 274.455 -4.23844 0.115074 0
M  V30 3088 C 272.914 -3.22556 -0.972591 0
M  V30 3089 O 273.444 -3.45599 -2.04754 0
M  V30 3090 N 271.65 -2.76134 -0.905455 0
M  V30 3091 H 271.197 -2.57582 -0.0305421 0
M  V30 3092 H 271.155 -2.60571 -1.75926 0
M  V30 3093 N 274.927 -0.932562 -1.27047 0
M  V30 3094 C 276.175 -0.574422 -1.93765 0
M  V30 3095 C 276.496 0.887993 -1.73608 0
M  V30 3096 O 275.766 1.62999 -1.08665 0
M  V30 3097 H 274.346 -0.209451 -0.717035 0
M  V30 3098 H 277.008 -1.18601 -1.5466 0
M  V30 3099 H 276.104 -0.784841 -3.02071 0
M  V30 3100 N 276.405 1.4127 -0.698611 0
M  V30 3101 C 277.353 2.32588 -0.023855 0
M  V30 3102 C 278.347 1.51128 0.765292 0
M  V30 3103 O 279.553 1.67043 0.670571 0
M  V30 3104 H 275.928 0.751918 0.0110871 0
M  V30 3105 H 277.899 2.87167 -0.811031 0
M  V30 3106 C 276.648 3.35947 0.896369 0
M  V30 3107 H 275.971 3.98684 0.298548 0
M  V30 3108 H 277.411 4.02376 1.33676 0
M  V30 3109 C 275.87 2.70076 2.01396 0
M  V30 3110 O 276.4 2.55093 3.10307 0
M  V30 3111 N 274.606 2.28724 1.79259 0
M  V30 3112 H 274.153 2.4111 0.906841 0
M  V30 3113 H 274.111 1.84986 2.54219 0
M  V30 3114 N 277.883 0.443576 1.51229 0
M  V30 3115 C 279.132 -0.122332 2.01329 0
M  V30 3116 C 279.445 -1.43237 1.33201 0
M  V30 3117 O 280.651 -2.0816 1.74304 0
M  V30 3118 C 279.107 -0.268551 3.58897 0
M  V30 3119 C 278.715 1.03142 4.35965 0
M  V30 3120 C 280.459 -0.787894 4.17124 0
M  V30 3121 C 278.366 0.850504 5.85252 0
M  V30 3122 H 277.296 -0.0494929 0.752374 0
M  V30 3123 H 279.947 0.574289 1.74282 0
M  V30 3124 H 278.329 -1.02832 3.82415 0
M  V30 3125 H 279.503 1.80001 4.24189 0
M  V30 3126 H 277.818 1.47977 3.89219 0
M  V30 3127 H 280.415 -0.939841 5.26375 0
M  V30 3128 H 280.758 -1.77201 3.76703 0
M  V30 3129 H 281.291 -0.0862669 3.97706 0
M  V30 3130 H 278.03 1.80718 6.30096 0
M  V30 3131 H 277.55 0.121825 5.99676 0
M  V30 3132 H 279.229 0.506163 6.45017 0
M  V30 3133 N 279.361 -1.56624 0.175154 0
M  V30 3134 C 280.308 -2.18149 -0.753634 0
M  V30 3135 C 281.278 -1.12265 -1.22417 0
M  V30 3136 O 282.463 -1.40432 -1.29165 0
M  V30 3137 C 279.603 -2.82933 -1.97592 0
M  V30 3138 C 278.716 -4.03289 -1.5486 0
M  V30 3139 C 277.851 -4.55988 -2.72485 0
M  V30 3140 C 276.89 -5.68746 -2.26262 0
M  V30 3141 N 276.027 -6.15938 -3.36994 0
M  V30 3142 H 280.867 -2.9717 -0.222195 0
M  V30 3143 H 278.404 -1.46774 -0.0979422 0
M  V30 3144 H 280.362 -3.18653 -2.69288 0
M  V30 3145 H 278.992 -2.06509 -2.481 0
M  V30 3146 H 278.044 -3.73364 -0.728246 0
M  V30 3147 H 279.356 -4.849 -1.16933 0
M  V30 3148 H 278.51 -4.9391 -3.52332 0
M  V30 3149 H 277.249 -3.73443 -3.13674 0
M  V30 3150 H 276.254 -5.30372 -1.44863 0
M  V30 3151 H 277.479 -6.53095 -1.86127 0
M  V30 3152 H 275.425 -5.36321 -3.77751 0
M  V30 3153 H 275.342 -6.92548 -3.03172 0
M  V30 3154 H 276.61 -6.58511 -4.17114 0
M  V30 3155 N 280.839 0.0985539 -1.57292 0
M  V30 3156 C 282.088 0.801358 -1.85098 0
M  V30 3157 C 282.401 1.80066 -0.763902 0
M  V30 3158 O 283.607 2.55112 -0.928981 0
M  V30 3159 C 282.063 1.47599 -3.28242 0
M  V30 3160 C 281.671 0.516624 -4.45011 0
M  V30 3161 C 283.415 2.16272 -3.65276 0
M  V30 3162 C 281.322 1.19564 -5.79188 0
M  V30 3163 H 280.252 0.303022 -0.69043 0
M  V30 3164 H 282.903 0.0542623 -1.8342 0
M  V30 3165 H 281.285 2.27042 -3.2445 0
M  V30 3166 H 282.459 -0.246065 -4.60143 0
M  V30 3167 H 280.774 -0.064227 -4.1635 0
M  V30 3168 H 283.371 2.67802 -4.62803 0
M  V30 3169 H 283.714 2.95009 -2.93727 0
M  V30 3170 H 284.247 1.43693 -3.70941 0
M  V30 3171 H 280.986 0.449157 -6.53959 0
M  V30 3172 H 280.506 1.92984 -5.67906 0
M  V30 3173 H 282.185 1.7231 -6.23633 0
M  V30 3174 N 282.317 1.53212 0.369288 0
M  V30 3175 C 283.28 1.7872 1.43498 0
M  V30 3176 C 284.28 0.657554 1.46741 0
M  V30 3177 O 285.47 0.925736 1.47566 0
M  V30 3178 C 282.602 1.90591 2.82645 0
M  V30 3179 H 283.795 2.73894 1.22156 0
M  V30 3180 H 281.348 1.44233 0.602203 0
M  V30 3181 H 282.083 0.974709 3.09306 0
M  V30 3182 H 281.868 2.72751 2.8169 0
M  V30 3183 H 283.358 2.11931 3.59826 0
M  V30 3184 N 283.795 -0.628877 1.44509 0
M  V30 3185 C 285.072 -1.38733 1.37886 0
M  V30 3186 C 285.452 -2.11065 0.0387008 0
M  V30 3187 O 284.8 -2.06476 -0.97878 0
M  V30 3188 C 285.01 -2.35188 2.57852 0
M  V30 3189 C 286.358 -2.9845 3.02014 0
M  V30 3190 O 287.382 -2.45513 2.58073 0
M  V30 3191 O 286.241 -3.94487 3.78209 0
M  V30 3192 H 283.335 -0.621015 0.54614 0
M  V30 3193 H 285.881 -0.653744 1.56602 0
M  V30 3194 H 284.653 -1.80855 3.46998 0
M  V30 3195 H 284.276 -3.1596 2.4136 0
M  V30 3196 N 285.273 -1.31445 -0.869486 0
M  V30 3197 C 286.52 -1.21158 -1.62256 0
M  V30 3198 C 286.848 0.230155 -1.93133 0
M  V30 3199 O 286.103 1.17906 -1.56194 0
M  V30 3200 C 286.402 -2.00145 -2.96102 0
M  V30 3201 C 286.068 -3.4964 -2.84715 0
M  V30 3202 C 284.73 -3.90403 -2.81317 0
M  V30 3203 C 287.082 -4.44769 -2.71716 0
M  V30 3204 C 284.41 -5.24561 -2.62778 0
M  V30 3205 C 286.762 -5.79054 -2.54714 0
M  V30 3206 C 285.426 -6.19037 -2.49699 0
M  V30 3207 H 284.696 -0.443348 -0.593737 0
M  V30 3208 H 287.343 -1.62715 -1.00976 0
M  V30 3209 H 285.648 -1.5127 -3.6142 0
M  V30 3210 H 287.345 -1.89566 -3.53363 0
M  V30 3211 H 283.935 -3.17256 -2.88178 0
M  V30 3212 H 288.119 -4.14208 -2.73397 0
M  V30 3213 H 283.375 -5.54613 -2.57321 0
M  V30 3214 H 287.549 -6.52393 -2.43632 0
M  V30 3215 H 285.176 -7.22935 -2.35093 0
M  V30 3216 N 286.751 1.08385 -1.14413 0
M  V30 3217 C 287.999 1.80419 -0.910679 0
M  V30 3218 C 288.32 1.86658 0.564243 0
M  V30 3219 O 287.59 1.35985 1.41014 0
M  V30 3220 H 286.17 0.668204 -0.333934 0
M  V30 3221 H 288.832 1.31037 -1.44275 0
M  V30 3222 H 287.928 2.83238 -1.31082 0
M  V30 3223 N 288.23 0.939286 1.26551 0
M  V30 3224 C 289.16 0.465044 2.28822 0
M  V30 3225 C 290.141 -0.480692 1.63167 0
M  V30 3226 O 291.326 -0.382955 1.90387 0
M  V30 3227 C 288.456 -0.27234 3.46231 0
M  V30 3228 C 287.41 0.58666 4.2396 0
M  V30 3229 C 286.736 -0.280573 5.33963 0
M  V30 3230 C 288.036 1.85704 4.88171 0
M  V30 3231 H 289.73 1.31979 2.68741 0
M  V30 3232 H 287.276 0.636061 1.29191 0
M  V30 3233 H 289.229 -0.615133 4.16886 0
M  V30 3234 H 287.953 -1.16121 3.0526 0
M  V30 3235 H 286.612 0.91232 3.55067 0
M  V30 3236 H 286.26 -1.16874 4.89234 0
M  V30 3237 H 285.96 0.29076 5.8688 0
M  V30 3238 H 287.484 -0.618678 6.07458 0
M  V30 3239 H 288.898 1.58161 5.51052 0
M  V30 3240 H 287.295 2.37279 5.51197 0
M  V30 3241 H 288.365 2.56957 4.11219 0
M  V30 3242 N 289.708 -1.40897 0.706093 0
M  V30 3243 C 290.933 -2.05895 0.249435 0
M  V30 3244 C 291.358 -1.52823 -1.09666 0
M  V30 3245 O 290.716 -0.659589 -1.68876 0
M  V30 3246 C 290.764 -3.59872 0.22904 0
M  V30 3247 O 289.868 -4.04708 -0.792784 0
M  V30 3248 H 289.209 -0.653206 0.119241 0
M  V30 3249 H 291.739 -1.80471 0.96391 0
M  V30 3250 H 291.749 -4.07951 0.0634791 0
M  V30 3251 H 290.424 -3.97866 1.21141 0
M  V30 3252 H 289.001 -3.68111 -0.59572 0
M  V30 3253 N 291.186 -0.45159 -1.50991 0
M  V30 3254 C 292.134 0.366864 -2.29689 0
M  V30 3255 C 293.128 1.00809 -1.36139 0
M  V30 3256 O 294.334 0.941427 -1.53418 0
M  V30 3257 H 290.709 0.137133 -0.739391 0
M  V30 3258 H 292.68 -0.317538 -2.96706 0
M  V30 3259 C 291.429 1.44751 -3.16137 0
M  V30 3260 H 290.752 0.963473 -3.88017 0
M  V30 3261 H 292.192 1.99315 -3.74232 0
M  V30 3262 C 290.651 2.43869 -2.32442 0
M  V30 3263 O 291.181 3.4872 -1.99392 0
M  V30 3264 N 289.387 2.15105 -1.95392 0
M  V30 3265 H 288.934 1.29866 -2.22469 0
M  V30 3266 H 288.892 2.81661 -1.39693 0
M  V30 3267 N 292.664 1.56529 -0.183458 0
M  V30 3268 C 293.594 2.21549 0.737456 0
M  V30 3269 C 294.575 1.17489 1.23005 0
M  V30 3270 O 295.76 1.45959 1.281 0
M  V30 3271 C 292.89 2.86575 1.96194 0
M  V30 3272 C 291.844 3.96778 1.60473 0
M  V30 3273 C 291.17 4.48911 2.90487 0
M  V30 3274 C 292.47 5.15767 0.823497 0
M  V30 3275 H 294.164 2.98761 0.195453 0
M  V30 3276 H 291.71 1.43702 0.0925686 0
M  V30 3277 H 293.663 3.30739 2.61131 0
M  V30 3278 H 292.387 2.06749 2.52828 0
M  V30 3279 H 291.046 3.53286 0.978997 0
M  V30 3280 H 290.694 3.65862 3.45186 0
M  V30 3281 H 290.394 5.23265 2.67335 0
M  V30 3282 H 291.918 4.95771 3.56432 0
M  V30 3283 H 293.332 5.56549 1.37571 0
M  V30 3284 H 291.729 5.96114 0.690551 0
M  V30 3285 H 292.799 4.84574 -0.177782 0
M  V30 3286 N 294.142 -0.090211 1.57342 0
M  V30 3287 C 295.372 -0.805055 1.90269 0
M  V30 3288 C 295.78 -1.72561 0.775842 0
M  V30 3289 O 295.123 -1.81839 -0.260843 0
M  V30 3290 C 295.185 -1.66734 3.18497 0
M  V30 3291 C 294.849 -0.918092 4.47683 0
M  V30 3292 C 295.846 -0.245674 5.19319 0
M  V30 3293 C 293.531 -0.890724 4.94339 0
M  V30 3294 C 295.525 0.444088 6.35851 0
M  V30 3295 C 293.212 -0.197179 6.10782 0
M  V30 3296 C 294.21 0.469044 6.81388 0
M  V30 3297 O 293.898 1.15146 7.95611 0
M  V30 3298 H 293.63 -0.235143 0.633785 0
M  V30 3299 H 296.184 -0.0703805 2.05279 0
M  V30 3300 H 294.414 -2.44437 2.99646 0
M  V30 3301 H 296.103 -2.25919 3.37217 0
M  V30 3302 H 296.869 -0.258246 4.84312 0
M  V30 3303 H 292.748 -1.39873 4.39268 0
M  V30 3304 H 296.292 0.964667 6.90898 0
M  V30 3305 H 292.189 -0.18247 6.45242 0
M  V30 3306 H 292.957 1.05885 8.11622 0
M  V30 3307 N 295.62 -1.53406 -0.361157 0
M  V30 3308 C 296.57 -1.76536 -1.44287 0
M  V30 3309 C 297.554 -0.620019 -1.48474 0
M  V30 3310 O 298.746 -0.878834 -1.53641 0
M  V30 3311 C 295.875 -1.96266 -2.81664 0
M  V30 3312 C 294.961 -3.16815 -2.81938 0
M  V30 3313 N 295.352 -4.38637 -2.51855 0
M  V30 3314 C 293.65 -3.17627 -3.13096 0
M  V30 3315 C 294.351 -5.20401 -2.59919 0
M  V30 3316 N 293.327 -4.56712 -2.94814 0
M  V30 3317 H 297.129 -2.68331 -1.19899 0
M  V30 3318 H 294.643 -1.52091 -0.56938 0
M  V30 3319 H 296.64 -2.10966 -3.59582 0
M  V30 3320 H 295.3 -1.05702 -3.07013 0
M  V30 3321 H 296.311 -4.66293 -2.25369 0
M  V30 3322 H 292.988 -2.36971 -3.43731 0
M  V30 3323 H 294.378 -6.27586 -2.39969 0
M  V30 3324 N 297.098 0.621204 -1.44841 0
M  V30 3325 C 298.03 1.74615 -1.48466 0
M  V30 3326 C 299.043 1.58377 -0.37691 0
M  V30 3327 O 300.232 1.66508 -0.643215 0
M  V30 3328 C 297.332 3.12459 -1.31236 0
M  V30 3329 C 296.505 3.55064 -2.55438 0
M  V30 3330 C 295.564 4.71821 -2.32963 0
M  V30 3331 O 294.59 4.79628 -3.06505 0
M  V30 3332 N 295.792 5.64186 -1.36654 0
M  V30 3333 H 298.557 1.71973 -2.45449 0
M  V30 3334 H 296.118 0.806077 -1.40407 0
M  V30 3335 H 298.11 3.88302 -1.14032 0
M  V30 3336 H 296.68 3.09686 -0.4258 0
M  V30 3337 H 295.9 2.69324 -2.87851 0
M  V30 3338 H 297.188 3.80284 -3.38026 0
M  V30 3339 H 296.586 5.6058 -0.759344 0
M  V30 3340 H 295.143 6.39618 -1.25425 0
M  V30 3341 N 298.576 1.31904 0.862503 0
M  V30 3342 C 299.824 1.21776 1.61292 0
M  V30 3343 C 300.145 -0.222413 1.93727 0
M  V30 3344 O 299.415 -1.1451 1.58947 0
M  V30 3345 H 297.995 0.447717 0.597962 0
M  V30 3346 H 300.657 1.65326 1.03215 0
M  V30 3347 H 299.753 1.7948 2.5533 0
M  V30 3348 N 300.054 -1.07777 1.14986 0
M  V30 3349 C 301.001 -2.14867 0.842672 0
M  V30 3350 C 301.971 -1.6486 -0.202552 0
M  V30 3351 O 303.156 -1.90668 -0.0710568 0
M  V30 3352 C 300.296 -3.43486 0.333363 0
M  V30 3353 C 299.409 -4.07306 1.43965 0
M  V30 3354 C 298.544 -5.23744 0.886914 0
M  V30 3355 C 297.583 -5.79517 1.97043 0
M  V30 3356 N 296.72 -6.87291 1.4344 0
M  V30 3357 H 301.56 -2.40485 1.75986 0
M  V30 3358 H 299.097 -1.1801 0.878179 0
M  V30 3359 H 301.055 -4.17195 0.0198163 0
M  V30 3360 H 299.685 -3.18133 -0.546916 0
M  V30 3361 H 298.737 -3.31293 1.86946 0
M  V30 3362 H 300.049 -4.44771 2.25788 0
M  V30 3363 H 299.203 -6.04419 0.525651 0
M  V30 3364 H 297.942 -4.87685 0.0377957 0
M  V30 3365 H 296.947 -4.97491 2.34057 0
M  V30 3366 H 298.172 -6.17632 2.82325 0
M  V30 3367 H 296.118 -6.5318 0.607567 0
M  V30 3368 H 296.035 -7.23617 2.18895 0
M  V30 3369 H 297.303 -7.71682 1.10124 0
M  V30 3370 N 301.532 -0.945985 -1.26051 0
M  V30 3371 C 302.779 -0.596118 -1.93527 0
M  V30 3372 C 303.107 0.865559 -1.74179 0
M  V30 3373 O 302.362 1.63524 -1.0751 0
M  V30 3374 C 302.661 -0.890475 -3.46129 0
M  V30 3375 C 302.327 -2.3368 -3.85622 0
M  V30 3376 C 300.989 -2.73216 -3.96114 0
M  V30 3377 C 303.341 -3.27648 -4.05334 0
M  V30 3378 C 300.669 -4.05806 -4.2372 0
M  V30 3379 C 303.021 -4.59841 -4.3443 0
M  V30 3380 C 301.685 -4.99185 -4.43137 0
M  V30 3381 H 300.955 -0.218135 -0.708165 0
M  V30 3382 H 303.602 -1.1934 -1.49768 0
M  V30 3383 H 301.907 -0.210711 -3.91233 0
M  V30 3384 H 303.604 -0.598478 -3.96509 0
M  V30 3385 H 300.194 -2.02015 -3.78005 0
M  V30 3386 H 304.378 -2.98298 -3.96651 0
M  V30 3387 H 299.634 -4.35945 -4.28675 0
M  V30 3388 H 303.808 -5.32641 -4.48628 0
M  V30 3389 H 301.435 -6.01952 -4.64282 0
M  V30 3390 N 303.011 1.40521 -0.713556 0
M  V30 3391 C 303.941 2.33381 -0.0743864 0
M  V30 3392 C 304.922 1.52784 0.747735 0
M  V30 3393 O 306.107 1.81258 0.697071 0
M  V30 3394 C 303.237 3.36748 0.849598 0
M  V30 3395 C 302.191 4.27793 0.133247 0
M  V30 3396 C 301.517 5.21679 1.17281 0
M  V30 3397 C 302.817 5.12415 -1.01134 0
M  V30 3398 H 304.511 2.87081 -0.850007 0
M  V30 3399 H 302.057 1.38034 -0.410201 0
M  V30 3400 H 304.01 4.00648 1.30612 0
M  V30 3401 H 302.734 2.81439 1.65709 0
M  V30 3402 H 301.393 3.65342 -0.303426 0
M  V30 3403 H 301.041 4.62677 1.9733 0
M  V30 3404 H 300.741 5.83435 0.698397 0
M  V30 3405 H 302.265 5.88456 1.62947 0
M  V30 3406 H 303.679 5.69781 -0.634274 0
M  V30 3407 H 302.076 5.83203 -1.41399 0
M  V30 3408 H 303.146 4.48514 -1.84292 0
M  V30 3409 N 304.489 0.459591 1.5075 0
M  V30 3410 C 305.421 -0.37665 2.26084 0
M  V30 3411 C 306.434 -0.967109 1.30961 0
M  V30 3412 O 307.623 -0.857468 1.56556 0
M  V30 3413 C 304.723 -1.54112 3.01832 0
M  V30 3414 C 303.896 -1.06553 4.24223 0
M  V30 3415 C 302.955 -2.1027 4.82362 0
M  V30 3416 O 301.981 -1.68798 5.43595 0
M  V30 3417 N 303.183 -3.42974 4.68347 0
M  V30 3418 H 305.948 0.269124 2.98489 0
M  V30 3419 H 303.509 0.28972 1.59287 0
M  V30 3420 H 305.501 -2.23165 3.37608 0
M  V30 3421 H 304.071 -2.0918 2.32298 0
M  V30 3422 H 303.291 -0.201274 3.93686 0
M  V30 3423 H 304.579 -0.725516 5.03601 0
M  V30 3424 H 303.977 -3.79385 4.19623 0
M  V30 3425 H 302.534 -4.07858 5.08424 0
M  V30 3426 N 305.967 -1.56429 0.191757 0
M  V30 3427 C 307.195 -2.01867 -0.453586 0
M  V30 3428 C 307.61 -1.07191 -1.5542 0
M  V30 3429 O 306.967 -0.0762108 -1.82341 0
M  V30 3430 C 307.018 -3.47017 -1.013 0
M  V30 3431 O 306.739 -4.38078 0.0437005 0
M  V30 3432 C 308.24 -4.07956 -1.73456 0
M  V30 3433 H 305.46 -0.661211 -0.114199 0
M  V30 3434 H 308.004 -2.02295 0.299483 0
M  V30 3435 H 306.159 -3.47298 -1.71647 0
M  V30 3436 H 306.573 -5.23178 -0.372212 0
M  V30 3437 H 308.047 -5.1138 -2.07833 0
M  V30 3438 H 308.524 -3.51222 -2.63704 0
M  V30 3439 H 309.13 -4.11437 -1.07702 0
M  V30 3440 N 307.445 0.0818655 -1.57387 0
M  V30 3441 C 308.692 0.782914 -1.86753 0
M  V30 3442 C 309.02 1.78082 -0.782118 0
M  V30 3443 O 308.275 1.94426 0.22295 0
M  V30 3444 C 308.574 1.53513 -3.22752 0
M  V30 3445 C 308.24 0.678134 -4.45771 0
M  V30 3446 C 306.902 0.441929 -4.79166 0
M  V30 3447 C 309.254 0.0832243 -5.21134 0
M  V30 3448 C 306.582 -0.398833 -5.85343 0
M  V30 3449 C 308.934 -0.744935 -6.28199 0
M  V30 3450 C 307.598 -0.991107 -6.60101 0
M  V30 3451 H 306.868 0.286489 -0.683378 0
M  V30 3452 H 309.515 0.0439808 -1.91449 0
M  V30 3453 H 307.82 2.34599 -3.138 0
M  V30 3454 H 309.517 2.08218 -3.42705 0
M  V30 3455 H 306.107 0.872357 -4.19628 0
M  V30 3456 H 310.291 0.252847 -4.95655 0
M  V30 3457 H 305.547 -0.598405 -6.08465 0
M  V30 3458 H 309.721 -1.21271 -6.8576 0
M  V30 3459 H 307.348 -1.64437 -7.42202 0
M  V30 3460 N 308.923 1.53595 0.353017 0
M  V30 3461 C 310.163 1.72094 1.10286 0
M  V30 3462 C 310.527 0.469217 1.86178 0
M  V30 3463 O 311.728 0.531083 2.63501 0
M  V30 3464 C 309.999 2.94386 2.02661 0
M  V30 3465 S 311.558 3.33651 2.84996 0
M  V30 3466 H 308.376 0.605433 0.372789 0
M  V30 3467 H 310.978 1.91722 0.38248 0
M  V30 3468 H 309.682 3.83669 1.45691 0
M  V30 3469 H 309.213 2.77197 2.79152 0
M  V30 3470 H 311.228 2.86645 4.0503 0
M  V30 3471 N 310.401 -0.613514 1.45168 0
M  V30 3472 C 311.649 -1.36997 1.48581 0
M  V30 3473 C 311.97 -1.94589 0.126545 0
M  V30 3474 O 311.24 -1.76816 -0.843372 0
M  V30 3475 H 309.82 -0.508558 0.547154 0
M  V30 3476 H 312.482 -0.720853 1.81079 0
M  V30 3477 H 311.578 -2.1924 2.22127 0
M  V30 3478 N 311.879 -1.3236 -0.855495 0
M  V30 3479 C 313.104 -1.2601 -1.64731 0
M  V30 3480 C 313.529 0.169068 -1.87339 0
M  V30 3481 O 312.887 1.12016 -1.42556 0
M  V30 3482 C 312.935 -2.02417 -2.98429 0
M  V30 3483 O 312.039 -1.3714 -3.8893 0
M  V30 3484 H 311.38 -0.434325 -0.502253 0
M  V30 3485 H 313.91 -1.74661 -1.06558 0
M  V30 3486 H 313.92 -2.12559 -3.48257 0
M  V30 3487 H 312.595 -3.06343 -2.81295 0
M  V30 3488 H 311.172 -1.3554 -3.47395 0
M  V30 3489 N 313.357 1.07166 -1.15556 0
M  V30 3490 C 314.768 1.6127 -0.940693 0
M  V30 3491 C 315.119 1.89251 0.517551 0
M  V30 3492 O 314.244 1.65937 1.38903 0
M  V30 3493 C 314.839 2.92993 -1.7012 0
M  V30 3494 C 313.398 3.43832 -1.53156 0
M  V30 3495 C 312.545 2.1786 -1.71558 0
M  V30 3496 H 315.496 0.90229 -1.30554 0
M  V30 3497 H 315.517 3.62007 -1.17181 0
M  V30 3498 H 315.029 2.72596 -2.76248 0
M  V30 3499 H 313.13 3.69307 -0.494294 0
M  V30 3500 H 313.243 4.19747 -2.30975 0
M  V30 3501 H 311.607 2.2765 -1.14225 0
M  V30 3502 H 312.39 1.99956 -2.79056 0
M  V30 3503 N 314.835 0.952656 1.25548 0
M  V30 3504 C 315.765 0.489287 2.28316 0
M  V30 3505 C 316.746 -0.463359 1.63667 0
M  V30 3506 O 317.931 -0.36274 1.90782 0
M  V30 3507 C 315.061 -0.235603 3.465 0
M  V30 3508 C 314.015 0.631593 4.23314 0
M  V30 3509 C 313.341 -0.223923 5.34231 0
M  V30 3510 C 314.641 1.90871 4.86174 0
M  V30 3511 H 316.335 1.34822 2.67326 0
M  V30 3512 H 313.881 0.649728 1.28509 0
M  V30 3513 H 315.834 -0.570882 4.17515 0
M  V30 3514 H 314.558 -1.12877 3.06474 0
M  V30 3515 H 313.217 0.949929 3.54079 0
M  V30 3516 H 312.865 -1.11678 4.90446 0
M  V30 3517 H 312.565 0.35299 5.86539 0
M  V30 3518 H 314.089 -0.554214 6.0808 0
M  V30 3519 H 315.503 1.63997 5.49343 0
M  V30 3520 H 313.9 2.43112 5.4865 0
M  V30 3521 H 314.97 2.61304 4.08471 0
M  V30 3522 N 316.313 -1.40141 0.720998 0
M  V30 3523 C 317.543 -2.04798 0.27226 0
M  V30 3524 C 317.951 -1.54442 -1.09289 0
M  V30 3525 O 317.294 -0.698342 -1.69908 0
M  V30 3526 C 317.356 -3.59048 0.18027 0
M  V30 3527 C 317.02 -4.32317 1.48159 0
M  V30 3528 C 318.017 -4.59902 2.42458 0
M  V30 3529 C 315.702 -4.71125 1.74202 0
M  V30 3530 C 317.696 -5.25288 3.61042 0
M  V30 3531 C 315.383 -5.36242 2.93066 0
M  V30 3532 C 316.381 -5.63254 3.86308 0
M  V30 3533 O 316.069 -6.27024 5.03086 0
M  V30 3534 H 315.801 -0.665419 0.119139 0
M  V30 3535 H 318.355 -1.80436 0.981432 0
M  V30 3536 H 316.585 -3.82251 -0.58489 0
M  V30 3537 H 318.274 -4.05221 -0.234618 0
M  V30 3538 H 319.04 -4.30379 2.23604 0
M  V30 3539 H 314.919 -4.49466 1.02477 0
M  V30 3540 H 318.463 -5.46289 4.33837 0
M  V30 3541 H 314.36 -5.65185 3.11826 0
M  V30 3542 H 315.128 -6.4552 5.03235 0
M  V30 3543 N 317.792 -0.46758 -1.50504 0
M  V30 3544 C 318.755 0.317059 -2.26996 0
M  V30 3545 C 319.755 0.923513 -1.31635 0
M  V30 3546 O 320.945 0.793239 -1.55091 0
M  V30 3547 C 318.077 1.45134 -3.08462 0
M  V30 3548 H 319.27 -0.353723 -2.97807 0
M  V30 3549 H 316.823 -0.221545 -1.54722 0
M  V30 3550 H 317.558 2.15728 -2.4214 0
M  V30 3551 H 317.343 1.02232 -3.78538 0
M  V30 3552 H 318.833 2.00493 -3.66323 0
M  V30 3553 N 319.27 1.56325 -0.20005 0
M  V30 3554 C 320.495 2.02548 0.44597 0
M  V30 3555 C 320.92 1.07922 1.5406 0
M  V30 3556 O 320.278 0.0635775 1.81188 0
M  V30 3557 C 320.326 3.47175 0.974761 0
M  V30 3558 O 319.43 3.55671 2.08739 0
M  V30 3559 H 318.771 0.655862 0.103638 0
M  V30 3560 H 321.301 2.02201 -0.312381 0
M  V30 3561 H 321.311 3.87067 1.2901 0
M  V30 3562 H 319.986 4.15538 0.17347 0
M  V30 3563 H 318.563 3.27657 1.78032 0
M  V30 3564 N 320.748 -0.0735177 1.57428 0
M  V30 3565 C 322.159 -0.625551 1.75908 0
M  V30 3566 C 322.51 -1.78 0.825261 0
M  V30 3567 O 321.635 -2.16398 0.00893964 0
M  V30 3568 C 322.23 -1.14155 3.18989 0
M  V30 3569 C 320.789 -1.63946 3.38819 0
M  V30 3570 C 319.936 -0.558151 2.71625 0
M  V30 3571 H 322.887 0.152647 1.57964 0
M  V30 3572 H 322.908 -2.0104 3.23053 0
M  V30 3573 H 322.42 -0.301116 3.8693 0
M  V30 3574 H 320.521 -2.50321 2.7599 0
M  V30 3575 H 320.634 -1.71759 4.47253 0
M  V30 3576 H 318.998 -1.00278 2.34129 0
M  V30 3577 H 319.781 0.272071 3.4222 0
M  V30 3578 N 322.226 -1.5378 -0.344866 0
M  V30 3579 C 323.136 -1.84667 -1.4469 0
M  V30 3580 C 324.152 -0.736704 -1.57635 0
M  V30 3581 O 325.328 -1.02888 -1.73136 0
M  V30 3582 C 322.393 -2.04869 -2.79696 0
M  V30 3583 C 321.454 -3.28731 -2.76106 0
M  V30 3584 C 320.687 -3.4796 -4.04673 0
M  V30 3585 O 320.91 -2.71052 -5.01883 0
M  V30 3586 O 319.844 -4.41383 -4.09224 0
M  V30 3587 H 323.67 -2.78334 -1.21506 0
M  V30 3588 H 321.255 -1.39418 -0.536921 0
M  V30 3589 H 323.137 -2.19609 -3.59652 0
M  V30 3590 H 321.812 -1.14391 -3.02814 0
M  V30 3591 H 320.719 -3.19396 -1.94774 0
M  V30 3592 H 322.052 -4.19198 -2.57941 0
M  V30 3593 N 323.704 0.605807 -1.45491 0
M  V30 3594 C 324.953 1.36086 -1.48874 0
M  V30 3595 C 325.266 1.95131 -0.135333 0
M  V30 3596 O 326.472 2.7146 -0.0468144 0
M  V30 3597 C 324.928 2.46518 -2.62215 0
M  V30 3598 C 324.536 1.93877 -4.03876 0
M  V30 3599 C 326.28 3.23512 -2.74846 0
M  V30 3600 C 324.187 3.01801 -5.08596 0
M  V30 3601 H 323.117 0.511497 -0.553974 0
M  V30 3602 H 325.768 0.649089 -1.71636 0
M  V30 3603 H 324.15 3.20388 -2.32739 0
M  V30 3604 H 325.324 1.26704 -4.43038 0
M  V30 3605 H 323.639 1.29622 -3.95711 0
M  V30 3606 H 326.236 4.04013 -3.50253 0
M  V30 3607 H 326.579 3.74631 -1.81542 0
M  V30 3608 H 327.112 2.56742 -3.03856 0
M  V30 3609 H 323.851 2.55597 -6.03614 0
M  V30 3610 H 323.371 3.67535 -4.74002 0
M  V30 3611 H 325.05 3.66152 -5.33424 0
M  V30 3612 N 325.182 1.32811 0.848464 0
M  V30 3613 C 326.428 1.23907 1.60546 0
M  V30 3614 C 326.761 -0.197161 1.93197 0
M  V30 3615 O 326.036 -1.13596 1.5788 0
M  V30 3616 C 326.319 2.10489 2.92175 0
M  V30 3617 C 326.172 3.62522 2.66266 0
M  V30 3618 C 327.491 1.97075 3.93509 0
M  V30 3619 H 324.61 0.451459 0.58254 0
M  V30 3620 H 327.252 1.62818 0.979296 0
M  V30 3621 H 325.402 1.77434 3.45614 0
M  V30 3622 H 327.074 4.05821 2.19334 0
M  V30 3623 H 325.317 3.84879 2.00126 0
M  V30 3624 H 325.988 4.18437 3.6002 0
M  V30 3625 H 328.464 2.26045 3.49346 0
M  V30 3626 H 327.34 2.59923 4.83457 0
M  V30 3627 H 327.601 0.940186 4.31987 0
M  V30 3628 N 326.66 -1.06551 1.16123 0
M  V30 3629 C 327.608 -2.16063 0.861371 0
M  V30 3630 C 328.602 -1.6856 -0.168517 0
M  V30 3631 O 329.808 -1.79986 -0.0227579 0
M  V30 3632 H 326.183 -0.705278 0.260934 0
M  V30 3633 H 328.154 -2.38567 1.79244 0
M  V30 3634 C 326.903 -3.45661 0.376018 0
M  V30 3635 H 326.226 -3.82604 1.15992 0
M  V30 3636 H 327.666 -4.23504 0.204951 0
M  V30 3637 C 326.125 -3.24546 -0.903954 0
M  V30 3638 O 326.655 -3.49865 -1.97377 0
M  V30 3639 N 324.861 -2.77992 -0.846679 0
M  V30 3640 H 324.408 -2.57589 0.0241017 0
M  V30 3641 H 324.366 -2.64244 -1.70359 0
M  V30 3642 N 328.138 -0.959301 -1.25041 0
M  V30 3643 C 329.386 -0.615393 -1.92503 0
M  V30 3644 C 329.707 0.850969 -1.75452 0
M  V30 3645 O 328.977 1.60658 -1.12098 0
M  V30 3646 H 327.557 -0.224613 -0.712431 0
M  V30 3647 H 330.219 -1.21855 -1.5211 0
M  V30 3648 H 329.315 -0.848738 -3.00338 0
M  V30 3649 N 329.616 1.39756 -0.72842 0
M  V30 3650 C 330.563 2.30647 -0.0841519 0
M  V30 3651 C 331.533 1.48869 0.7367 0
M  V30 3652 O 332.718 1.77574 0.698015 0
M  V30 3653 C 329.858 3.35165 0.822091 0
M  V30 3654 C 328.971 4.31999 -0.0106663 0
M  V30 3655 C 328.106 5.23585 0.896241 0
M  V30 3656 C 327.145 6.12072 0.0583381 0
M  V30 3657 N 326.282 6.96035 0.920818 0
M  V30 3658 H 331.122 2.85173 -0.864891 0
M  V30 3659 H 328.659 1.40422 -0.438179 0
M  V30 3660 H 330.617 3.94345 1.36189 0
M  V30 3661 H 329.247 2.8211 1.56888 0
M  V30 3662 H 328.299 3.74492 -0.66781 0
M  V30 3663 H 329.611 4.9443 -0.658825 0
M  V30 3664 H 328.765 5.87759 1.50412 0
M  V30 3665 H 327.504 4.61459 1.57819 0
M  V30 3666 H 326.509 5.46916 -0.562389 0
M  V30 3667 H 327.734 6.76261 -0.6203 0
M  V30 3668 H 325.68 6.36485 1.58818 0
M  V30 3669 H 325.597 7.55284 0.32899 0
M  V30 3670 H 326.865 7.64646 1.51447 0
M  V30 3671 N 331.094 0.475555 1.50254 0
M  V30 3672 C 332.505 0.0215174 1.86688 0
M  V30 3673 C 332.856 -1.38467 1.39001 0
M  V30 3674 O 331.981 -2.02732 0.756894 0
M  V30 3675 C 332.576 0.0322715 3.38785 0
M  V30 3676 C 331.135 -0.366314 3.74613 0
M  V30 3677 C 330.282 0.415832 2.74164 0
M  V30 3678 H 333.233 0.689612 1.42934 0
M  V30 3679 H 333.254 -0.76889 3.7265 0
M  V30 3680 H 332.766 1.05584 3.73462 0
M  V30 3681 H 330.867 -1.39406 3.45538 0
M  V30 3682 H 330.98 -0.064555 4.79057 0
M  V30 3683 H 329.344 -0.131048 2.54363 0
M  V30 3684 H 330.127 1.43899 3.11686 0
M  V30 3685 N 332.573 -1.56217 0.208337 0
M  V30 3686 C 333.803 -2.02043 -0.431523 0
M  V30 3687 C 334.211 -1.08755 -1.54819 0
M  V30 3688 O 333.554 -0.0870009 -1.83494 0
M  V30 3689 C 333.616 -3.44239 -1.03633 0
M  V30 3690 C 333.28 -4.56965 -0.0567502 0
M  V30 3691 C 334.277 -5.14624 0.738773 0
M  V30 3692 C 331.962 -5.02266 0.0581736 0
M  V30 3693 C 333.956 -6.16045 1.63605 0
M  V30 3694 C 331.643 -6.03528 0.959001 0
M  V30 3695 C 332.641 -6.60293 1.7465 0
M  V30 3696 O 332.329 -7.59586 2.6322 0
M  V30 3697 H 332.061 -0.666772 -0.111313 0
M  V30 3698 H 334.615 -2.02919 0.318277 0
M  V30 3699 H 332.845 -3.40391 -1.83497 0
M  V30 3700 H 334.534 -3.73793 -1.58221 0
M  V30 3701 H 335.3 -4.80483 0.660364 0
M  V30 3702 H 331.179 -4.57771 -0.544633 0
M  V30 3703 H 334.723 -6.60279 2.25116 0
M  V30 3704 H 330.62 -6.37092 1.03848 0
M  V30 3705 H 331.388 -7.77057 2.57148 0
M  V30 3706 N 334.051 0.0651679 -1.57465 0
M  V30 3707 C 335.279 0.775808 -1.91804 0
M  V30 3708 C 335.694 1.70782 -0.804916 0
M  V30 3709 O 335.051 1.81153 0.221311 0
M  V30 3710 C 335.102 1.56381 -3.25925 0
M  V30 3711 O 334.823 0.669248 -4.32958 0
M  V30 3712 C 336.324 2.37485 -3.7432 0
M  V30 3713 H 333.544 0.2202 -0.63384 0
M  V30 3714 H 336.088 0.0334587 -2.04473 0
M  V30 3715 H 334.243 2.25837 -3.14764 0
M  V30 3716 H 334.657 1.21801 -5.10162 0
M  V30 3717 H 336.131 2.88223 -4.70778 0
M  V30 3718 H 336.608 3.17307 -3.03666 0
M  V30 3719 H 337.214 1.73173 -3.88447 0
M  V30 3720 N 335.529 1.53961 0.336706 0
M  V30 3721 C 336.777 1.71197 1.07405 0
M  V30 3722 C 337.098 0.481475 1.88962 0
M  V30 3723 O 336.368 -0.504585 1.8929 0
M  V30 3724 H 334.948 0.631185 0.399517 0
M  V30 3725 H 337.61 1.91232 0.376323 0
M  V30 3726 H 336.706 2.58587 1.74755 0
M  V30 3727 N 337.007 -0.598083 1.45811 0
M  V30 3728 C 338.418 -1.18011 1.44673 0
M  V30 3729 C 338.769 -1.95378 0.179364 0
M  V30 3730 O 337.894 -2.04124 -0.718509 0
M  V30 3731 C 338.489 -2.14677 2.62105 0
M  V30 3732 C 337.048 -2.68236 2.64057 0
M  V30 3733 C 336.195 -1.43816 2.37091 0
M  V30 3734 H 339.146 -0.38686 1.53913 0
M  V30 3735 H 339.167 -2.97878 2.36746 0
M  V30 3736 H 338.679 -1.5834 3.5433 0
M  V30 3737 H 336.78 -3.28486 1.75864 0
M  V30 3738 H 336.893 -3.12021 3.63566 0
M  V30 3739 H 335.257 -1.731 1.86838 0
M  V30 3740 H 336.04 -0.893333 3.31473 0
M  V30 3741 N 338.485 -1.33259 -0.841409 0
M  V30 3742 C 339.395 -1.25332 -1.98316 0
M  V30 3743 C 340.411 -0.164364 -1.73222 0
M  V30 3744 O 341.587 -0.387486 -1.97637 0
M  V30 3745 C 338.652 -0.990078 -3.32262 0
M  V30 3746 C 337.713 -2.16879 -3.70489 0
M  V30 3747 C 336.946 -1.91801 -4.98044 0
M  V30 3748 O 337.169 -0.867075 -5.63771 0
M  V30 3749 O 336.103 -2.78267 -5.33714 0
M  V30 3750 H 339.929 -2.21344 -2.07944 0
M  V30 3751 H 337.514 -1.1328 -0.974058 0
M  V30 3752 H 339.396 -0.860321 -4.12524 0
M  V30 3753 H 338.071 -0.0602155 -3.23644 0
M  V30 3754 H 336.978 -2.35407 -2.90748 0
M  V30 3755 H 338.311 -3.0819 -3.8377 0
M  V30 3756 N 339.963 1.05934 -1.16686 0
M  V30 3757 C 341.209 1.79065 -0.95203 0
M  V30 3758 C 341.542 1.87147 0.518629 0
M  V30 3759 O 340.817 1.36574 1.38484 0
M  V30 3760 C 341.1 3.23359 -1.58464 0
M  V30 3761 C 340.953 3.23336 -3.12689 0
M  V30 3762 C 342.272 4.21004 -1.28232 0
M  V30 3763 H 339.391 0.65005 -0.34728 0
M  V30 3764 H 342.033 1.23868 -1.44072 0
M  V30 3765 H 340.183 3.70493 -1.16908 0
M  V30 3766 H 341.855 2.84336 -3.6325 0
M  V30 3767 H 340.098 2.61886 -3.4583 0
M  V30 3768 H 340.769 4.25144 -3.52075 0
M  V30 3769 H 343.245 3.8233 -1.64203 0
M  V30 3770 H 342.121 5.20225 -1.75092 0
M  V30 3771 H 342.382 4.41639 -0.201791 0
M  V30 3772 N 341.441 0.965919 1.2453 0
M  V30 3773 C 342.718 0.543777 1.87889 0
M  V30 3774 C 343.098 -0.97909 1.87021 0
M  V30 3775 O 342.446 -1.84969 1.3416 0
M  V30 3776 C 342.656 1.13327 3.30088 0
M  V30 3777 C 344.004 1.21707 4.06783 0
M  V30 3778 O 345.028 1.08566 3.39252 0
M  V30 3779 O 343.887 1.42456 5.27606 0
M  V30 3780 H 340.981 0.181054 0.806938 0
M  V30 3781 H 343.527 1.06007 1.32516 0
M  V30 3782 H 342.299 2.17612 3.25209 0
M  V30 3783 H 341.922 0.600911 3.93033 0
M  V30 3784 N 342.919 -1.39368 0.735821 0
M  V30 3785 C 344.144 -2.05319 0.293052 0
M  V30 3786 C 344.569 -1.55115 -1.064 0
M  V30 3787 O 343.927 -0.695261 -1.67439 0
M  V30 3788 C 343.975 -3.59305 0.305323 0
M  V30 3789 O 343.079 -4.06299 -0.706761 0
M  V30 3790 H 342.42 -0.650529 0.13307 0
M  V30 3791 H 344.95 -1.78386 1.00197 0
M  V30 3792 H 344.96 -4.07724 0.149997 0
M  V30 3793 H 343.635 -3.95207 1.29553 0
M  V30 3794 H 342.212 -3.69292 -0.517504 0
M  V30 3795 N 344.397 -0.483516 -1.5 0
M  V30 3796 C 345.643 0.0593261 -2.03313 0
M  V30 3797 C 345.998 1.36288 -1.35806 0
M  V30 3798 O 345.291 1.85519 -0.478897 0
M  V30 3799 C 345.485 0.286226 -3.56252 0
M  V30 3800 C 345.314 -0.993788 -4.38582 0
M  V30 3801 C 344.084 -1.54064 -4.81241 0
M  V30 3802 C 346.282 -1.89249 -4.78215 0
M  V30 3803 N 344.264 -2.76838 -5.47936 0
M  V30 3804 C 345.635 -2.96606 -5.44449 0
M  V30 3805 C 347.69 -1.90138 -4.60165 0
M  V30 3806 C 346.393 -4.04857 -5.94544 0
M  V30 3807 C 348.419 -2.97353 -5.1121 0
M  V30 3808 C 347.781 -4.03429 -5.77429 0
M  V30 3809 H 343.88 -0.0186322 -0.781778 0
M  V30 3810 H 346.464 -0.654489 -1.8337 0
M  V30 3811 H 344.635 0.969086 -3.76116 0
M  V30 3812 H 346.367 0.824515 -3.96212 0
M  V30 3813 H 343.122 -1.08813 -4.6093 0
M  V30 3814 H 343.546 -3.39221 -5.85882 0
M  V30 3815 H 348.188 -1.09441 -4.0839 0
M  V30 3816 H 345.906 -4.86363 -6.4535 0
M  V30 3817 H 349.492 -2.99039 -4.99066 0
M  V30 3818 H 348.372 -4.85025 -6.16214 0
M  V30 3819 N 345.875 1.56104 -0.216619 0
M  V30 3820 C 347.1 2.0301 0.424462 0
M  V30 3821 C 347.525 1.0955 1.52907 0
M  V30 3822 O 346.883 0.0827914 1.81111 0
M  V30 3823 C 346.931 3.4819 0.937883 0
M  V30 3824 O 346.035 3.57865 2.04955 0
M  V30 3825 H 345.376 0.656925 0.0966755 0
M  V30 3826 H 347.906 2.01859 -0.33381 0
M  V30 3827 H 347.916 3.88413 1.24897 0
M  V30 3828 H 346.591 4.15699 0.129387 0
M  V30 3829 H 345.168 3.29527 1.74546 0
M  V30 3830 N 347.353 -0.0568162 1.57498 0
M  V30 3831 C 348.283 -1.06593 2.0775 0
M  V30 3832 C 349.264 -1.39448 0.974082 0
M  V30 3833 O 350.449 -1.48815 1.24771 0
M  V30 3834 C 347.579 -2.37509 2.5339 0
M  V30 3835 C 346.533 -2.1897 3.67745 0
M  V30 3836 C 345.859 -3.55402 3.99492 0
M  V30 3837 C 347.159 -1.59859 4.97235 0
M  V30 3838 H 348.853 -0.647706 2.9231 0
M  V30 3839 H 346.399 -0.310116 1.40621 0
M  V30 3840 H 348.352 -3.08409 2.87162 0
M  V30 3841 H 347.076 -2.8134 1.65878 0
M  V30 3842 H 345.735 -1.50508 3.3428 0
M  V30 3843 H 345.383 -3.9683 3.09088 0
M  V30 3844 H 345.083 -3.43831 4.76502 0
M  V30 3845 H 346.607 -4.27708 4.35773 0
M  V30 3846 H 348.021 -2.20642 5.29141 0
M  V30 3847 H 346.418 -1.58942 5.78669 0
M  V30 3848 H 347.488 -0.561506 4.81638 0
M  V30 3849 N 348.832 -1.54138 -0.328536 0
M  V30 3850 C 350.08 -1.71765 -1.06496 0
M  V30 3851 C 350.401 -0.49149 -1.88704 0
M  V30 3852 O 349.671 0.494539 -1.89555 0
M  V30 3853 H 348.251 -0.633295 -0.396164 0
M  V30 3854 H 350.913 -1.91429 -0.366176 0
M  V30 3855 H 350.009 -2.5951 -1.73381 0
M  V30 3856 N 350.31 0.590341 -1.46126 0
M  V30 3857 C 351.556 1.35082 -1.51264 0
M  V30 3858 C 351.889 1.93534 -0.160711 0
M  V30 3859 O 351.164 1.76045 0.826956 0
M  V30 3860 C 351.447 2.48588 -2.6053 0
M  V30 3861 C 351.3 1.95221 -4.05227 0
M  V30 3862 C 352.619 3.50662 -2.6594 0
M  V30 3863 H 349.738 0.489803 -0.550692 0
M  V30 3864 H 352.38 0.663887 -1.78024 0
M  V30 3865 H 350.53 3.07186 -2.37843 0
M  V30 3866 H 352.202 1.41139 -4.39178 0
M  V30 3867 H 350.445 1.26101 -4.15068 0
M  V30 3868 H 351.116 2.77121 -4.77397 0
M  V30 3869 H 353.592 3.01934 -2.86313 0
M  V30 3870 H 352.468 4.27551 -3.44226 0
M  V30 3871 H 352.729 4.07399 -1.71694 0
M  V30 3872 N 351.788 1.33704 0.83433 0
M  V30 3873 C 352.718 1.26967 1.95963 0
M  V30 3874 C 353.699 0.149337 1.69443 0
M  V30 3875 O 354.884 0.339852 1.91203 0
M  V30 3876 C 352.014 1.01275 3.32206 0
M  V30 3877 C 350.968 2.09652 3.73136 0
M  V30 3878 C 350.294 1.69166 5.07235 0
M  V30 3879 C 351.594 3.51372 3.86439 0
M  V30 3880 H 353.288 2.2112 2.01857 0
M  V30 3881 H 350.834 1.06447 0.969793 0
M  V30 3882 H 352.787 0.952106 4.10503 0
M  V30 3883 H 351.511 0.0356203 3.26581 0
M  V30 3884 H 350.17 2.14766 2.97104 0
M  V30 3885 H 349.818 0.701437 4.98085 0
M  V30 3886 H 349.518 2.41694 5.35591 0
M  V30 3887 H 351.042 1.64576 5.88003 0
M  V30 3888 H 352.456 3.48734 4.55036 0
M  V30 3889 H 350.853 4.22425 4.26236 0
M  V30 3890 H 351.923 3.89546 2.88759 0
M  V30 3891 N 353.266 -1.05314 1.17247 0
M  V30 3892 C 354.196 -2.1498 0.911362 0
M  V30 3893 C 355.177 -1.69471 -0.146169 0
M  V30 3894 O 356.362 -1.942 0.003812 0
M  V30 3895 C 353.492 -3.4472 0.422528 0
M  V30 3896 C 352.446 -4.03789 1.4191 0
M  V30 3897 C 351.772 -5.28858 0.788274 0
M  V30 3898 C 353.072 -4.41418 2.7919 0
M  V30 3899 H 354.766 -2.3708 1.82848 0
M  V30 3900 H 352.312 -1.13938 0.880569 0
M  V30 3901 H 354.265 -4.20787 0.227289 0
M  V30 3902 H 352.989 -3.22269 -0.530123 0
M  V30 3903 H 351.648 -3.2979 1.60106 0
M  V30 3904 H 351.296 -5.02709 -0.171173 0
M  V30 3905 H 350.996 -5.69338 1.45353 0
M  V30 3906 H 352.52 -6.07612 0.603282 0
M  V30 3907 H 353.934 -5.08524 2.64719 0
M  V30 3908 H 352.331 -4.92913 3.42282 0
M  V30 3909 H 353.401 -3.51819 3.33693 0
M  V30 3910 N 354.744 -0.972509 -1.24016 0
M  V30 3911 C 355.974 -0.653853 -1.9598 0
M  V30 3912 C 356.382 0.781801 -1.72292 0
M  V30 3913 O 355.725 1.53677 -1.00644 0
M  V30 3914 C 355.787 -0.854608 -3.49194 0
M  V30 3915 C 355.451 -2.27082 -3.96589 0
M  V30 3916 C 356.448 -3.24892 -4.05883 0
M  V30 3917 C 354.133 -2.5998 -4.29786 0
M  V30 3918 C 356.127 -4.53684 -4.47716 0
M  V30 3919 C 353.814 -3.88997 -4.71301 0
M  V30 3920 C 354.812 -4.85661 -4.80232 0
M  V30 3921 O 354.5 -6.12376 -5.20818 0
M  V30 3922 H 354.232 -0.242572 -0.630979 0
M  V30 3923 H 356.786 -1.30431 -1.58673 0
M  V30 3924 H 355.016 -0.146985 -3.86421 0
M  V30 3925 H 356.705 -0.534311 -4.02368 0
M  V30 3926 H 357.471 -3.00805 -3.80449 0
M  V30 3927 H 353.35 -1.85457 -4.22051 0
M  V30 3928 H 356.894 -5.29135 -4.54601 0
M  V30 3929 H 352.791 -4.12882 -4.96184 0
M  V30 3930 H 353.559 -6.16013 -5.38953 0
M  V30 3931 N 356.222 1.38976 -0.743202 0
M  V30 3932 C 357.471 1.99581 -0.291592 0
M  V30 3933 C 357.784 1.59656 1.13001 0
M  V30 3934 O 358.99 2.13157 1.68156 0
M  V30 3935 C 357.446 3.56813 -0.470391 0
M  V30 3936 C 357.054 4.05695 -1.90041 0
M  V30 3937 C 358.798 4.24423 -0.0809709 0
M  V30 3938 C 356.705 5.5553 -2.02832 0
M  V30 3939 H 355.635 0.746615 -0.105272 0
M  V30 3940 H 358.286 1.58872 -0.918258 0
M  V30 3941 H 356.668 3.95359 0.225299 0
M  V30 3942 H 357.842 3.78464 -2.62872 0
M  V30 3943 H 356.157 3.50775 -2.24379 0
M  V30 3944 H 358.754 5.34474 -0.155445 0
M  V30 3945 H 359.097 4.04962 0.96497 0
M  V30 3946 H 359.63 3.9108 -0.728124 0
M  V30 3947 H 356.369 5.79881 -3.05643 0
M  V30 3948 H 355.889 5.84537 -1.34448 0
M  V30 3949 H 357.568 6.21069 -1.81335 0
M  V30 3950 N 357.7 0.491464 1.49741 0
M  V30 3951 C 358.63 -0.28154 2.31796 0
M  V30 3952 C 359.611 -0.971473 1.3963 0
M  V30 3953 O 360.796 -0.964719 1.68543 0
M  V30 3954 C 357.926 -1.35203 3.19902 0
M  V30 3955 C 356.88 -0.782529 4.20786 0
M  V30 3956 C 356.206 -1.95283 4.97764 0
M  V30 3957 C 357.506 0.21999 5.21837 0
M  V30 3958 H 359.2 0.403355 2.96671 0
M  V30 3959 H 356.746 0.195425 1.42668 0
M  V30 3960 H 358.699 -1.90045 3.76113 0
M  V30 3961 H 357.423 -2.06598 2.52953 0
M  V30 3962 H 356.082 -0.255928 3.65706 0
M  V30 3963 H 355.73 -2.65423 4.2727 0
M  V30 3964 H 355.43 -1.57789 5.66018 0
M  V30 3965 H 356.954 -2.50577 5.56816 0
M  V30 3966 H 358.368 -0.23996 5.72798 0
M  V30 3967 H 356.765 0.51026 5.97927 0
M  V30 3968 H 357.835 1.13911 4.7133 0
M  V30 3969 N 359.178 -1.55987 0.224894 0
M  V30 3970 C 360.424 -1.98684 -0.406502 0
M  V30 3971 C 360.757 -1.11248 -1.59177 0
M  V30 3972 O 360.032 -0.170909 -1.93748 0
M  V30 3973 C 360.315 -3.50218 -0.837808 0
M  V30 3974 C 360.168 -4.48426 0.351332 0
M  V30 3975 C 361.487 -4.06243 -1.69278 0
M  V30 3976 H 358.606 -0.722337 -0.146283 0
M  V30 3977 H 361.248 -1.87255 0.321799 0
M  V30 3978 H 359.398 -3.60089 -1.45837 0
M  V30 3979 H 361.07 -4.50562 0.989526 0
M  V30 3980 H 359.313 -4.22159 0.998207 0
M  V30 3981 H 359.984 -5.52 0.00655905 0
M  V30 3982 H 362.46 -3.99337 -1.16914 0
M  V30 3983 H 361.336 -5.12581 -1.96346 0
M  V30 3984 H 361.597 -3.53332 -2.65723 0
M  V30 3985 N 360.656 0.0484629 -1.57525 0
M  V30 3986 C 361.606 1.06246 -2.01732 0
M  V30 3987 C 362.59 1.33155 -0.903245 0
M  V30 3988 O 363.782 1.33065 -1.16717 0
M  V30 3989 C 360.911 2.36943 -2.48421 0
M  V30 3990 C 359.997 2.13208 -3.6661 0
M  V30 3991 N 360.388 1.5947 -4.80003 0
M  V30 3992 C 358.686 2.43581 -3.7361 0
M  V30 3993 C 359.387 1.51092 -5.61735 0
M  V30 3994 N 358.363 1.9797 -5.0627 0
M  V30 3995 H 362.165 0.640675 -2.86832 0
M  V30 3996 H 359.679 0.255134 -1.60383 0
M  V30 3997 H 361.676 3.10374 -2.78341 0
M  V30 3998 H 360.336 2.79818 -1.64718 0
M  V30 3999 H 361.347 1.28008 -5.01831 0
M  V30 4000 H 358.024 2.89662 -3.00669 0
M  V30 4001 H 359.414 1.10199 -6.62801 0
M  V30 4002 N 362.134 1.5431 0.320358 0
M  V30 4003 C 363.382 1.72327 1.05583 0
M  V30 4004 C 363.703 0.50149 1.88441 0
M  V30 4005 O 362.973 -0.48448 1.89815 0
M  V30 4006 H 361.553 0.635387 0.3928 0
M  V30 4007 H 364.215 1.91621 0.356019 0
M  V30 4008 H 363.311 2.60426 1.72003 0
M  V30 4009 N 363.613 -0.582584 1.46437 0
M  V30 4010 C 364.841 -1.36682 1.55324 0
M  V30 4011 C 365.256 -1.87796 0.194409 0
M  V30 4012 O 364.613 -1.63623 -0.808318 0
M  V30 4013 C 364.664 -2.55426 2.55812 0
M  V30 4014 O 364.385 -2.0643 3.86417 0
M  V30 4015 C 365.886 -3.47976 2.74641 0
M  V30 4016 H 363.106 -0.417545 0.525259 0
M  V30 4017 H 365.65 -0.708219 1.91845 0
M  V30 4018 H 363.805 -3.17275 2.22295 0
M  V30 4019 H 364.219 -2.83762 4.41111 0
M  V30 4020 H 365.693 -4.27775 3.48874 0
M  V30 4021 H 366.17 -3.99919 1.81553 0
M  V30 4022 H 366.776 -2.91962 3.09255 0
M  V30 4023 N 365.091 -1.34144 -0.827227 0
M  V30 4024 C 366.024 -1.19707 -1.94282 0
M  V30 4025 C 367.002 -0.0897256 -1.62352 0
M  V30 4026 O 368.186 -0.254095 -1.8678 0
M  V30 4027 C 365.313 -0.838646 -3.28153 0
M  V30 4028 C 364.359 -1.95514 -3.79047 0
M  V30 4029 S 365.192 -3.56793 -3.99323 0
M  V30 4030 C 366.348 -3.22983 -5.36127 0
M  V30 4031 H 366.581 -2.1414 -2.06231 0
M  V30 4032 H 364.114 -1.19121 -0.982321 0
M  V30 4033 H 366.072 -0.638637 -4.05502 0
M  V30 4034 H 364.733 0.0872776 -3.13979 0
M  V30 4035 H 363.926 -1.658 -4.75948 0
M  V30 4036 H 363.528 -2.11241 -3.08631 0
M  V30 4037 H 365.82 -2.74531 -6.19386 0
M  V30 4038 H 366.763 -4.19008 -5.70822 0
M  V30 4039 H 367.171 -2.59276 -5.01434 0
M  V30 4040 N 366.569 1.04691 -1.17803 0
M  V30 4041 C 367.98 1.59238 -0.974689 0
M  V30 4042 C 368.331 1.90306 0.477292 0
M  V30 4043 O 367.456 1.68846 1.35352 0
M  V30 4044 C 368.051 2.89318 -1.76296 0
M  V30 4045 C 366.61 3.40506 -1.60414 0
M  V30 4046 C 365.757 2.14172 -1.76141 0
M  V30 4047 H 368.708 0.874395 -1.32439 0
M  V30 4048 H 368.729 3.5944 -1.24833 0
M  V30 4049 H 368.241 2.66675 -2.81968 0
M  V30 4050 H 366.342 3.68175 -0.572519 0
M  V30 4051 H 366.455 4.14753 -2.39827 0
M  V30 4052 H 364.819 2.25176 -1.19028 0
M  V30 4053 H 365.602 1.93992 -2.83235 0
M  V30 4054 N 368.047 0.979072 1.23499 0
M  V30 4055 C 369.294 0.647219 1.91878 0
M  V30 4056 C 369.622 -0.819074 1.76413 0
M  V30 4057 O 368.877 -1.60616 1.11808 0
M  V30 4058 C 369.176 0.981932 3.43646 0
M  V30 4059 C 368.842 2.43822 3.79291 0
M  V30 4060 C 367.504 2.83622 3.88731 0
M  V30 4061 C 369.856 3.3828 3.96505 0
M  V30 4062 C 367.184 4.16897 4.12812 0
M  V30 4063 C 369.536 4.71197 4.22085 0
M  V30 4064 C 368.2 5.10758 4.29747 0
M  V30 4065 H 367.47 0.236834 0.702133 0
M  V30 4066 H 370.117 1.23268 1.46551 0
M  V30 4067 H 368.422 0.314365 3.90537 0
M  V30 4068 H 370.119 0.703395 3.94783 0
M  V30 4069 H 366.709 2.11966 3.72516 0
M  V30 4070 H 370.893 3.0871 3.88603 0
M  V30 4071 H 366.149 4.47157 4.16966 0
M  V30 4072 H 370.323 5.44348 4.34348 0
M  V30 4073 H 367.95 6.1405 4.48159 0
M  V30 4074 N 369.525 -1.3858 0.750561 0
M  V30 4075 C 370.802 -1.94231 0.231009 0
M  V30 4076 C 371.182 -1.68611 -1.27018 0
M  V30 4077 O 370.53 -1.02296 -2.04323 0
M  V30 4078 C 370.74 -3.44123 0.581428 0
M  V30 4079 C 372.088 -4.2116 0.539389 0
M  V30 4080 O 373.112 -3.52391 0.519541 0
M  V30 4081 O 371.971 -5.43749 0.54765 0
M  V30 4082 H 369.065 -0.825639 0.0474263 0
M  V30 4083 H 371.611 -1.4799 0.830478 0
M  V30 4084 H 370.383 -3.56267 1.61833 0
M  V30 4085 H 370.006 -3.97573 -0.0462047 0
M  V30 4086 N 371.003 -0.499398 -1.49478 0
M  V30 4087 C 372.251 0.0455996 -2.02049 0
M  V30 4088 C 372.572 1.37633 -1.38138 0
M  V30 4089 O 371.842 1.8842 -0.536166 0
M  V30 4090 H 370.422 0.0198416 -0.746736 0
M  V30 4091 H 373.084 -0.656274 -1.83519 0
M  V30 4092 H 372.18 0.176445 -3.11601 0
M  V30 4093 N 372.481 1.55866 -0.233164 0
M  V30 4094 C 373.431 2.17442 0.685774 0
M  V30 4095 C 374.415 1.12617 1.14918 0
M  V30 4096 O 375.607 1.3857 1.10124 0
M  V30 4097 C 372.736 2.86685 1.88856 0
M  V30 4098 C 371.822 3.98749 1.4443 0
M  V30 4099 N 372.213 5.00744 0.713364 0
M  V30 4100 C 370.511 4.11052 1.73068 0
M  V30 4101 C 371.212 5.79673 0.485205 0
M  V30 4102 N 370.188 5.33454 1.04536 0
M  V30 4103 H 373.99 2.93659 0.119022 0
M  V30 4104 H 371.504 1.62362 -0.0348995 0
M  V30 4105 H 373.501 3.29218 2.55776 0
M  V30 4106 H 372.161 2.11967 2.45967 0
M  V30 4107 H 373.172 5.16613 0.364861 0
M  V30 4108 H 369.849 3.47495 2.31416 0
M  V30 4109 H 371.239 6.71829 -0.097365 0
M  V30 4110 N 373.959 -0.0401083 1.57549 0
M  V30 4111 C 375.236 -0.767917 1.79896 0
M  V30 4112 C 375.616 -1.9416 0.82856 0
M  V30 4113 O 374.964 -2.2812 -0.131671 0
M  V30 4114 C 375.174 -1.2113 3.27305 0
M  V30 4115 C 376.522 -1.63175 3.91994 0
M  V30 4116 O 377.546 -1.30616 3.31388 0
M  V30 4117 O 376.405 -2.23565 4.98679 0
M  V30 4118 H 373.499 -0.370441 0.739393 0
M  V30 4119 H 376.045 -0.017737 1.69691 0
M  V30 4120 H 374.817 -0.372937 3.89519 0
M  V30 4121 H 374.44 -2.02183 3.42356 0
M  V30 4122 N 375.437 -1.54477 -0.31217 0
M  V30 4123 C 376.387 -1.81037 -1.38598 0
M  V30 4124 C 377.371 -0.666941 -1.46426 0
M  V30 4125 O 378.563 -0.927269 -1.50767 0
M  V30 4126 C 375.692 -2.05127 -2.75277 0
M  V30 4127 C 374.778 -3.25624 -2.71716 0
M  V30 4128 N 375.169 -4.46428 -2.37773 0
M  V30 4129 C 373.467 -3.27427 -3.02833 0
M  V30 4130 C 374.168 -5.28406 -2.43232 0
M  V30 4131 N 373.144 -4.6586 -2.80135 0
M  V30 4132 H 376.946 -2.7201 -1.11301 0
M  V30 4133 H 374.46 -1.53826 -0.520705 0
M  V30 4134 H 376.457 -2.22299 -3.52688 0
M  V30 4135 H 375.117 -1.15416 -3.03495 0
M  V30 4136 H 376.128 -4.73227 -2.1042 0
M  V30 4137 H 372.805 -2.47786 -3.36018 0
M  V30 4138 H 374.195 -6.34903 -2.19882 0
M  V30 4139 N 376.915 0.57481 -1.46744 0
M  V30 4140 C 377.862 1.68329 -1.57905 0
M  V30 4141 C 378.832 1.60625 -0.422927 0
M  V30 4142 O 380.017 1.79721 -0.640711 0
M  V30 4143 C 377.157 3.06665 -1.58274 0
M  V30 4144 C 376.27 3.24935 -2.84678 0
M  V30 4145 C 375.405 4.53566 -2.76499 0
M  V30 4146 C 374.444 4.65207 -3.97806 0
M  V30 4147 N 373.581 5.85172 -3.87967 0
M  V30 4148 H 378.421 1.58127 -2.52587 0
M  V30 4149 H 375.958 0.770552 -1.25303 0
M  V30 4150 H 377.916 3.86745 -1.56473 0
M  V30 4151 H 376.546 3.15745 -0.671194 0
M  V30 4152 H 375.598 2.38405 -2.96424 0
M  V30 4153 H 376.91 3.29403 -3.7456 0
M  V30 4154 H 376.064 5.41885 -2.72848 0
M  V30 4155 H 374.803 4.51548 -1.8427 0
M  V30 4156 H 373.808 3.75304 -4.0178 0
M  V30 4157 H 375.033 4.68997 -4.9114 0
M  V30 4158 H 372.979 5.84137 -2.98529 0
M  V30 4159 H 372.896 5.90943 -4.71511 0
M  V30 4160 H 374.164 6.759 -3.88303 0
M  V30 4161 N 378.394 1.34581 0.820102 0
M  V30 4162 C 379.643 1.26437 1.57151 0
M  V30 4163 C 379.956 -0.163111 1.94919 0
M  V30 4164 O 381.162 -0.366722 2.69012 0
M  V30 4165 C 379.618 2.21658 2.83541 0
M  V30 4166 C 379.226 3.69679 2.53065 0
M  V30 4167 C 380.97 2.22428 3.61561 0
M  V30 4168 C 378.877 4.56761 3.75664 0
M  V30 4169 H 377.807 0.469707 0.589823 0
M  V30 4170 H 380.458 1.59763 0.902656 0
M  V30 4171 H 378.84 1.81287 3.52067 0
M  V30 4172 H 380.014 4.18605 1.92631 0
M  V30 4173 H 378.329 3.71384 1.88316 0
M  V30 4174 H 380.926 2.8471 4.52597 0
M  V30 4175 H 381.269 1.22434 3.97889 0
M  V30 4176 H 381.802 2.61259 2.99981 0
M  V30 4177 H 378.541 5.57702 3.44454 0
M  V30 4178 H 378.061 4.12568 4.35371 0
M  V30 4179 H 379.74 4.71509 4.43044 0
M  V30 4180 N 379.872 -1.04064 1.18357 0
M  V30 4181 C 380.802 -2.14001 0.934113 0
M  V30 4182 C 381.783 -1.69616 -0.128186 0
M  V30 4183 O 382.968 -1.94185 0.0244093 0
M  V30 4184 C 380.098 -3.44253 0.459066 0
M  V30 4185 C 379.052 -4.02261 1.46185 0
M  V30 4186 C 378.378 -5.27992 0.844322 0
M  V30 4187 C 379.678 -4.38432 2.83856 0
M  V30 4188 H 381.372 -2.35127 1.85352 0
M  V30 4189 H 378.918 -1.12998 0.892604 0
M  V30 4190 H 380.871 -4.20522 0.271907 0
M  V30 4191 H 379.595 -3.22813 -0.495912 0
M  V30 4192 H 378.254 -3.28074 1.63595 0
M  V30 4193 H 377.902 -5.02862 -0.117845 0
M  V30 4194 H 377.602 -5.67765 1.51384 0
M  V30 4195 H 379.126 -6.06938 0.667693 0
M  V30 4196 H 380.54 -5.05688 2.70098 0
M  V30 4197 H 378.937 -4.89254 3.47491 0
M  V30 4198 H 380.007 -3.4826 3.37406 0
M  V30 4199 N 381.35 -0.985608 -1.22978 0
M  V30 4200 C 382.596 -0.65836 -1.91816 0
M  V30 4201 C 382.929 0.806692 -1.76653 0
M  V30 4202 O 382.204 1.58252 -1.13078 0
M  V30 4203 C 382.487 -1.056 -3.44268 0
M  V30 4204 C 382.34 -2.57906 -3.68516 0
M  V30 4205 C 383.659 -0.603781 -4.35939 0
M  V30 4206 H 380.778 -0.24065 -0.696604 0
M  V30 4207 H 383.42 -1.22783 -1.44998 0
M  V30 4208 H 381.57 -0.571445 -3.84274 0
M  V30 4209 H 383.242 -3.13976 -3.3796 0
M  V30 4210 H 381.485 -3.00305 -3.13048 0
M  V30 4211 H 382.156 -2.80779 -4.75255 0
M  V30 4212 H 384.632 -1.01987 -4.03408 0
M  V30 4213 H 383.508 -0.910383 -5.41298 0
M  V30 4214 H 383.769 0.495761 -4.39312 0
M  V30 4215 N 382.828 1.3818 -0.7579 0
M  V30 4216 C 383.775 2.30416 -0.133057 0
M  V30 4217 C 384.745 1.50398 0.704957 0
M  V30 4218 O 385.93 1.79014 0.660192 0
M  V30 4219 C 383.07 3.36834 0.750813 0
M  V30 4220 C 382.183 4.31879 -0.102297 0
M  V30 4221 C 381.318 5.25368 0.784979 0
M  V30 4222 C 380.357 6.12058 -0.0715046 0
M  V30 4223 N 379.494 6.97832 0.772972 0
M  V30 4224 H 384.334 2.83274 -0.925186 0
M  V30 4225 H 381.871 1.39461 -0.467866 0
M  V30 4226 H 383.829 3.97145 1.27794 0
M  V30 4227 H 382.459 2.85374 1.50868 0
M  V30 4228 H 381.511 3.72991 -0.747095 0
M  V30 4229 H 382.823 4.92921 -0.763552 0
M  V30 4230 H 381.977 5.90818 1.37911 0
M  V30 4231 H 380.716 4.64703 1.47996 0
M  V30 4232 H 379.721 5.456 -0.678272 0
M  V30 4233 H 380.946 6.74793 -0.763606 0
M  V30 4234 H 378.892 6.3971 1.45282 0
M  V30 4235 H 378.809 7.55812 0.168709 0
M  V30 4236 H 380.077 7.67687 1.35194 0
M  V30 4237 N 384.306 0.507319 1.49211 0
M  V30 4238 C 385.238 -0.304532 2.27168 0
M  V30 4239 C 386.251 -0.924956 1.33972 0
M  V30 4240 O 387.44 -0.807227 1.59205 0
M  V30 4241 C 384.54 -1.44431 3.06583 0
M  V30 4242 C 383.713 -0.930026 4.27398 0
M  V30 4243 C 382.772 -1.94817 4.88807 0
M  V30 4244 O 381.798 -1.51418 5.4869 0
M  V30 4245 N 383 -3.279 4.79022 0
M  V30 4246 H 385.765 0.36395 2.97482 0
M  V30 4247 H 383.326 0.340249 1.58284 0
M  V30 4248 H 385.318 -2.12311 3.44537 0
M  V30 4249 H 383.888 -2.01684 2.38835 0
M  V30 4250 H 383.108 -0.0759244 3.94127 0
M  V30 4251 H 384.396 -0.564932 5.05654 0
M  V30 4252 H 383.794 -3.65843 4.3148 0
M  V30 4253 H 382.351 -3.91476 5.21142 0
M  V30 4254 N 385.784 -1.5574 0.241426 0
M  V30 4255 C 387.033 -1.97986 -0.385295 0
M  V30 4256 C 387.346 -1.13267 -1.59468 0
M  V30 4257 O 388.552 -1.45501 -2.2922 0
M  V30 4258 C 387.008 -3.52275 -0.736884 0
M  V30 4259 C 386.616 -4.45726 0.450796 0
M  V30 4260 C 388.36 -4.03189 -1.3281 0
M  V30 4261 C 386.267 -5.91352 0.0756662 0
M  V30 4262 H 385.197 -0.739386 -0.147731 0
M  V30 4263 H 387.848 -1.80308 0.340779 0
M  V30 4264 H 386.23 -3.65628 -1.52094 0
M  V30 4265 H 387.404 -4.44131 1.22819 0
M  V30 4266 H 385.719 -4.05264 0.956573 0
M  V30 4267 H 388.316 -5.09505 -1.62201 0
M  V30 4268 H 388.659 -3.50212 -2.25071 0
M  V30 4269 H 389.192 -3.93141 -0.607069 0
M  V30 4270 H 385.931 -6.48354 0.965272 0
M  V30 4271 H 385.451 -5.96095 -0.665635 0
M  V30 4272 H 387.13 -6.46084 -0.344075 0
M  V30 4273 N 387.262 0.0317525 -1.57568 0
M  V30 4274 C 388.487 0.738664 -1.938 0
M  V30 4275 C 388.912 1.68242 -0.841208 0
M  V30 4276 O 388.27 1.80157 0.203267 0
M  V30 4277 C 388.318 1.47417 -3.29091 0
M  V30 4278 O 387.422 2.5872 -3.2115 0
M  V30 4279 H 386.763 0.198856 -0.633524 0
M  V30 4280 H 389.293 -0.0119713 -2.04596 0
M  V30 4281 H 389.303 1.84468 -3.63917 0
M  V30 4282 H 387.978 0.781988 -4.08482 0
M  V30 4283 H 386.555 2.24231 -2.97951 0
M  V30 4284 N 388.74 1.54641 0.303973 0
M  V30 4285 C 389.688 1.86137 1.39484 0
M  V30 4286 C 390.682 0.734854 1.52631 0
M  V30 4287 O 391.888 0.918803 1.54784 0
M  V30 4288 H 388.263 0.590324 0.465856 0
M  V30 4289 H 390.234 2.77324 1.10154 0
M  V30 4290 C 388.983 2.12274 2.75382 0
M  V30 4291 H 388.306 2.98429 2.66046 0
M  V30 4292 H 389.746 2.38254 3.5073 0
M  V30 4293 C 388.205 0.920365 3.24085 0
M  V30 4294 O 388.735 0.139377 4.01458 0
M  V30 4295 N 386.941 0.726566 2.81371 0
M  V30 4296 H 386.488 1.36332 2.18567 0
M  V30 4297 H 386.446 -0.0763799 3.14307 0
M  V30 4298 N 390.218 -0.567019 1.47046 0
M  V30 4299 C 391.466 -1.322 1.52864 0
M  V30 4300 C 391.787 -1.94088 0.188388 0
M  V30 4301 O 391.057 -1.7941 -0.786693 0
M  V30 4302 H 389.637 -0.490894 0.563056 0
M  V30 4303 H 392.299 -0.662879 1.83281 0
M  V30 4304 H 391.395 -2.12062 2.2899 0
M  V30 4305 N 391.696 -1.35014 -0.812953 0
M  V30 4306 C 392.659 -1.27292 -1.90602 0
M  V30 4307 C 393.659 -0.185817 -1.59723 0
M  V30 4308 O 394.849 -0.439102 -1.68575 0
M  V30 4309 C 391.981 -0.967676 -3.26877 0
M  V30 4310 H 393.174 -2.24479 -1.9887 0
M  V30 4311 H 390.727 -1.19446 -1.00808 0
M  V30 4312 H 391.462 0.0005954 -3.243 0
M  V30 4313 H 391.247 -1.75412 -3.50675 0
M  V30 4314 H 392.737 -0.939085 -4.06904 0
M  V30 4315 N 393.175 1.03435 -1.18907 0
M  V30 4316 C 394.405 1.8012 -1.01195 0
M  V30 4317 C 394.813 1.8395 0.442613 0
M  V30 4318 O 394.156 1.27836 1.31923 0
M  V30 4319 C 394.218 3.26792 -1.49823 0
M  V30 4320 C 393.882 3.46609 -2.97844 0
M  V30 4321 C 394.879 3.37278 -3.95651 0
M  V30 4322 C 392.564 3.73001 -3.36416 0
M  V30 4323 C 394.558 3.54054 -5.30023 0
M  V30 4324 C 392.245 3.89423 -4.70949 0
M  V30 4325 C 393.243 3.79951 -5.67562 0
M  V30 4326 O 392.931 3.95895 -6.99659 0
M  V30 4327 H 392.663 0.573865 -0.357289 0
M  V30 4328 H 395.217 1.31207 -1.58031 0
M  V30 4329 H 393.447 3.76703 -0.873578 0
M  V30 4330 H 395.136 3.85055 -1.28404 0
M  V30 4331 H 395.902 3.16846 -3.67197 0
M  V30 4332 H 391.781 3.79469 -2.61772 0
M  V30 4333 H 395.325 3.46577 -6.05417 0
M  V30 4334 H 391.222 4.09351 -4.99101 0
M  V30 4335 H 391.99 4.13019 -7.06653 0
M  V30 4336 N 394.653 0.992116 1.22453 0
M  V30 4337 C 396.069 0.702713 1.43297 0
M  V30 4338 C 396.269 -0.726909 1.87932 0
M  V30 4339 O 395.325 -1.49792 2.0327 0
M  V30 4340 C 396.638 1.70762 2.47509 0
M  V30 4341 C 398.186 1.72298 2.61309 0
M  V30 4342 C 398.661 2.71649 3.68742 0
M  V30 4343 N 400.152 2.70239 3.76199 0
M  V30 4344 C 400.887 3.43778 4.58917 0
M  V30 4345 N 400.383 4.26914 5.45633 0
M  V30 4346 N 402.176 3.32487 4.5322 0
M  V30 4347 H 394.327 1.91543 0.917871 0
M  V30 4348 H 396.59 0.826031 0.465162 0
M  V30 4349 H 396.296 2.73059 2.21657 0
M  V30 4350 H 396.17 1.49985 3.46099 0
M  V30 4351 H 398.557 0.706989 2.86506 0
M  V30 4352 H 398.638 1.97143 1.62997 0
M  V30 4353 H 398.282 3.73397 3.44292 0
M  V30 4354 H 398.212 2.44074 4.66622 0
M  V30 4355 H 400.703 2.09912 3.14237 0
M  V30 4356 H 401.016 4.79855 6.05771 0
M  V30 4357 H 399.361 4.31002 5.45218 0
M  V30 4358 H 402.552 2.6698 3.84499 0
M  V30 4359 H 402.725 3.90058 5.17454 0
M  V30 4360 N 396.131 -1.37776 0.765217 0
M  V30 4361 C 397.041 -2.34135 0.147666 0
M  V30 4362 C 398.057 -1.59854 -0.687215 0
M  V30 4363 O 399.233 -1.91983 -0.608659 0
M  V30 4364 C 396.298 -3.3901 -0.72617 0
M  V30 4365 C 395.359 -4.2912 0.124417 0
M  V30 4366 C 394.592 -5.28986 -0.707807 0
M  V30 4367 O 394.815 -5.36205 -1.94525 0
M  V30 4368 O 393.749 -6.01779 -0.12046 0
M  V30 4369 H 397.575 -2.88664 0.943758 0
M  V30 4370 H 395.16 -1.39824 0.526277 0
M  V30 4371 H 397.042 -4.03195 -1.22524 0
M  V30 4372 H 395.717 -2.86819 -1.50056 0
M  V30 4373 H 394.624 -3.68057 0.669696 0
M  V30 4374 H 395.957 -4.84598 0.861736 0
M  V30 4375 N 397.609 -0.515225 -1.4894 0
M  V30 4376 C 399.02 -0.0710067 -1.86565 0
M  V30 4377 C 399.371 1.34733 -1.42623 0
M  V30 4378 O 398.496 2.00653 -0.810379 0
M  V30 4379 C 399.091 -0.122083 -3.3858 0
M  V30 4380 C 397.65 0.266863 -3.75453 0
M  V30 4381 C 396.797 -0.488376 -2.72966 0
M  V30 4382 H 399.748 -0.727266 -1.41055 0
M  V30 4383 H 399.769 0.669818 -3.74558 0
M  V30 4384 H 399.281 -1.15448 -3.70531 0
M  V30 4385 H 397.382 1.30196 -3.49113 0
M  V30 4386 H 397.495 -0.0624811 -4.79059 0
M  V30 4387 H 395.859 0.0635622 -2.54621 0
M  V30 4388 H 396.642 -1.52113 -3.07761 0
M  V30 4389 N 399.087 1.5561 -0.249682 0
M  V30 4390 C 400.498 1.84979 0.252949 0
M  V30 4391 C 400.849 1.17153 1.57384 0
M  V30 4392 O 399.974 0.450884 2.11651 0
M  V30 4393 C 400.569 3.35584 0.465732 0
M  V30 4394 C 399.128 3.65169 0.912624 0
M  V30 4395 C 398.275 2.77299 -0.00859085 0
M  V30 4396 H 401.226 1.51513 -0.47217 0
M  V30 4397 H 401.247 3.57313 1.30795 0
M  V30 4398 H 400.759 3.8492 -0.49579 0
M  V30 4399 H 398.86 3.21312 1.88652 0
M  V30 4400 H 398.973 4.72912 0.767559 0
M  V30 4401 H 397.337 2.49678 0.50327 0
M  V30 4402 H 398.12 3.29442 -0.965537 0
M  V30 4403 N 400.565 -0.0233959 1.57583 0
M  V30 4404 C 401.512 -1.02224 2.06927 0
M  V30 4405 C 402.482 -1.35575 0.959617 0
M  V30 4406 O 403.667 -1.45815 1.23055 0
M  V30 4407 C 400.807 -2.31636 2.5581 0
M  V30 4408 C 399.92 -2.04394 3.80588 0
M  V30 4409 C 399.055 -3.27717 4.18061 0
M  V30 4410 C 398.094 -2.96056 5.3574 0
M  V30 4411 N 397.231 -4.11847 5.68618 0
M  V30 4412 H 402.071 -0.594504 2.9201 0
M  V30 4413 H 399.608 -0.281921 1.44373 0
M  V30 4414 H 401.566 -3.07258 2.82221 0
M  V30 4415 H 400.196 -2.72122 1.73636 0
M  V30 4416 H 399.248 -1.19244 3.61227 0
M  V30 4417 H 400.56 -1.77042 4.66323 0
M  V30 4418 H 399.714 -4.11702 4.4563 0
M  V30 4419 H 398.453 -3.58188 3.30988 0
M  V30 4420 H 397.458 -2.10474 5.07918 0
M  V30 4421 H 398.683 -2.66857 6.24471 0
M  V30 4422 H 396.629 -4.42258 4.84504 0
M  V30 4423 H 396.546 -3.87938 6.48876 0
M  V30 4424 H 397.814 -4.96689 6.00766 0
M  V30 4425 N 402.043 -1.548 -0.295768 0
M  V30 4426 C 403.454 -1.65274 -0.868411 0
M  V30 4427 C 403.805 -0.56481 -1.87894 0
M  V30 4428 O 402.93 0.29767 -2.14343 0
M  V30 4429 C 403.525 -2.99603 -1.58188 0
M  V30 4430 C 402.084 -3.12181 -2.10286 0
M  V30 4431 C 401.231 -2.6098 -0.93727 0
M  V30 4432 H 404.182 -1.58534 -0.0726422 0
M  V30 4433 H 404.203 -2.91319 -2.44772 0
M  V30 4434 H 403.715 -3.78764 -0.846151 0
M  V30 4435 H 401.816 -2.3775 -2.8689 0
M  V30 4436 H 401.929 -4.18415 -2.33379 0
M  V30 4437 H 400.293 -2.17564 -1.32431 0
M  V30 4438 H 401.076 -3.42623 -0.215414 0
M  V30 4439 N 403.521 0.559213 -1.47345 0
M  V30 4440 C 404.746 1.34676 -1.57725 0
M  V30 4441 C 405.171 1.86723 -0.227164 0
M  V30 4442 O 404.529 1.6286 0.796642 0
M  V30 4443 C 404.577 2.49399 -2.60447 0
M  V30 4444 O 403.681 3.51567 -2.15578 0
M  V30 4445 H 403.022 0.400115 -0.52991 0
M  V30 4446 H 405.552 0.676009 -1.93109 0
M  V30 4447 H 405.562 2.95996 -2.80803 0
M  V30 4448 H 404.237 2.10873 -3.58477 0
M  V30 4449 H 402.814 3.11289 -2.05313 0
M  V30 4450 N 404.999 1.35443 0.805782 0
M  V30 4451 C 406.276 1.19325 1.54987 0
M  V30 4452 C 406.656 -0.227294 2.09873 0
M  V30 4453 O 406.004 -1.2309 1.92512 0
M  V30 4454 C 406.214 2.26196 2.65775 0
M  V30 4455 C 407.562 2.62043 3.34094 0
M  V30 4456 O 408.586 2.25115 2.76046 0
M  V30 4457 O 407.445 3.25542 4.38958 0
M  V30 4458 H 404.539 0.463623 0.684823 0
M  V30 4459 H 407.085 1.47127 0.845674 0
M  V30 4460 H 405.857 3.21471 2.23096 0
M  V30 4461 H 405.48 1.99667 3.43829 0
M  V30 4462 N 406.477 -1.02803 1.19454 0
M  V30 4463 C 407.44 -2.09264 0.934955 0
M  V30 4464 C 408.44 -1.60576 -0.0849015 0
M  V30 4465 O 409.63 -1.73554 0.149933 0
M  V30 4466 C 406.762 -3.38482 0.40531 0
M  V30 4467 H 407.955 -2.33726 1.87916 0
M  V30 4468 H 405.508 -1.19426 1.00832 0
M  V30 4469 H 406.243 -3.19689 -0.544899 0
M  V30 4470 H 406.028 -3.75142 1.14065 0
M  V30 4471 H 407.518 -4.16894 0.242806 0
M  V30 4472 N 407.956 -0.998596 -1.21925 0
M  V30 4473 C 409.196 -0.685948 -1.92546 0
M  V30 4474 C 409.56 0.768441 -1.75952 0
M  V30 4475 O 410.761 1.19277 -2.40887 0
M  V30 4476 C 409.032 -1.08767 -3.40448 0
M  V30 4477 S 410.591 -0.894251 -4.29591 0
M  V30 4478 H 407.409 -0.250622 -0.665364 0
M  V30 4479 H 410.011 -1.28207 -1.47591 0
M  V30 4480 H 408.715 -2.14242 -3.50041 0
M  V30 4481 H 408.246 -0.48357 -3.90417 0
M  V30 4482 H 410.261 0.212149 -4.95746 0
M  V30 4483 N 409.434 1.37368 -0.772513 0
M  V30 4484 C 410.682 1.99279 -0.336516 0
M  V30 4485 C 411.003 1.6163 1.09091 0
M  V30 4486 O 410.273 0.882109 1.74916 0
M  V30 4487 H 408.853 0.737063 -0.121435 0
M  V30 4488 H 411.515 1.67836 -0.990809 0
M  V30 4489 H 410.611 3.09332 -0.414763 0
M  V30 4490 N 410.912 0.523116 1.48665 0
M  V30 4491 C 411.842 -0.23231 2.32342 0
M  V30 4492 C 412.823 -0.941637 1.41659 0
M  V30 4493 O 414.008 -0.928751 1.70552 0
M  V30 4494 C 411.138 -1.28387 3.22698 0
M  V30 4495 C 410.092 -0.693098 4.22351 0
M  V30 4496 C 409.418 -1.8468 5.01794 0
M  V30 4497 C 410.718 0.33063 5.21252 0
M  V30 4498 H 412.412 0.466192 2.95748 0
M  V30 4499 H 409.958 0.225643 1.42221 0
M  V30 4500 H 411.911 -1.82024 3.80059 0
M  V30 4501 H 410.635 -2.01186 2.57278 0
M  V30 4502 H 409.294 -0.178299 3.66166 0
M  V30 4503 H 408.942 -2.56301 4.32804 0
M  V30 4504 H 408.642 -1.45747 5.69238 0
M  V30 4505 H 410.166 -2.38709 5.62006 0
M  V30 4506 H 411.58 -0.118407 5.73178 0
M  V30 4507 H 409.977 0.636974 5.9671 0
M  V30 4508 H 411.047 1.23883 4.68808 0
M  V30 4509 N 412.39 -1.55475 0.257931 0
M  V30 4510 C 413.639 -1.98383 -0.364275 0
M  V30 4511 C 413.952 -1.14952 -1.58258 0
M  V30 4512 O 415.158 -1.47924 -2.27664 0
M  V30 4513 C 413.614 -3.53037 -0.699479 0
M  V30 4514 C 413.222 -4.45223 0.498046 0
M  V30 4515 C 414.966 -4.04575 -1.28526 0
M  V30 4516 C 412.873 -5.91238 0.138383 0
M  V30 4517 H 411.803 -0.740911 -0.13988 0
M  V30 4518 H 414.454 -1.79936 0.359883 0
M  V30 4519 H 412.836 -3.6722 -1.48207 0
M  V30 4520 H 414.01 -4.42803 1.27522 0
M  V30 4521 H 412.325 -4.04226 0.999503 0
M  V30 4522 H 414.922 -5.11196 -1.56788 0
M  V30 4523 H 415.265 -3.5258 -2.21344 0
M  V30 4524 H 415.798 -3.93762 -0.565337 0
M  V30 4525 H 412.537 -6.47294 1.03398 0
M  V30 4526 H 412.057 -5.96768 -0.602374 0
M  V30 4527 H 413.736 -6.46413 -0.27553 0
M  V30 4528 N 413.868 0.0150385 -1.57593 0
M  V30 4529 C 415.284 0.370907 -1.5523 0
M  V30 4530 C 415.484 1.75735 -0.985882 0
M  V30 4531 O 414.54 2.44944 -0.613077 0
M  V30 4532 C 415.853 0.259908 -2.99575 0
M  V30 4533 C 417.401 0.335959 -3.11192 0
M  V30 4534 C 417.876 0.254253 -4.57294 0
M  V30 4535 N 419.367 0.312618 -4.62144 0
M  V30 4536 C 420.102 0.272505 -5.72752 0
M  V30 4537 N 419.598 0.183864 -6.92556 0
M  V30 4538 N 421.391 0.323267 -5.6117 0
M  V30 4539 H 413.542 -0.892104 -1.92757 0
M  V30 4540 H 415.805 -0.340563 -0.884715 0
M  V30 4541 H 415.511 -0.693403 -3.44797 0
M  V30 4542 H 415.385 1.048 -3.62349 0
M  V30 4543 H 417.772 1.27971 -2.65909 0
M  V30 4544 H 417.853 -0.481739 -2.51223 0
M  V30 4545 H 417.497 -0.685887 -5.03247 0
M  V30 4546 H 417.427 1.09024 -5.15191 0
M  V30 4547 H 419.918 0.38307 -3.75953 0
M  V30 4548 H 420.231 0.15874 -7.72637 0
M  V30 4549 H 418.576 0.149708 -6.94839 0
M  V30 4550 H 421.767 0.390607 -4.66467 0
M  V30 4551 H 421.94 0.288539 -6.47357 0
M  V30 4552 N 415.346 1.54954 0.287554 0
M  V30 4553 C 416.592 1.76059 1.01856 0
M  V30 4554 C 416.947 0.547056 1.84459 0
M  V30 4555 O 416.24 -0.460442 1.85985 0
M  V30 4556 C 416.434 2.99833 1.94512 0
M  V30 4557 C 416.263 4.33108 1.21026 0
M  V30 4558 C 415.033 4.96632 0.931896 0
M  V30 4559 C 417.231 5.10694 0.607949 0
M  V30 4560 N 415.213 6.13668 0.168716 0
M  V30 4561 C 416.584 6.19996 -0.0217865 0
M  V30 4562 C 418.639 4.95236 0.514338 0
M  V30 4563 C 417.342 7.15524 -0.736092 0
M  V30 4564 C 419.368 5.91106 -0.186343 0
M  V30 4565 C 418.73 6.99786 -0.804875 0
M  V30 4566 H 414.829 0.696679 0.355193 0
M  V30 4567 H 417.413 1.92441 0.295741 0
M  V30 4568 H 415.584 2.84853 2.64033 0
M  V30 4569 H 417.316 3.09405 2.60865 0
M  V30 4570 H 414.071 4.57255 1.23348 0
M  V30 4571 H 414.495 6.76705 -0.199781 0
M  V30 4572 H 419.137 4.11328 0.978234 0
M  V30 4573 H 416.855 7.98964 -1.21172 0
M  V30 4574 H 420.441 5.81224 -0.258897 0
M  V30 4575 H 419.321 7.72694 -1.33843 0
M  V30 4576 N 416.824 -0.551391 1.4764 0
M  V30 4577 C 417.754 -1.66757 1.63445 0
M  V30 4578 C 418.735 -1.63077 0.483742 0
M  V30 4579 O 419.92 -1.80607 0.71377 0
M  V30 4580 C 417.05 -3.05387 1.65396 0
M  V30 4581 C 416.004 -3.23918 2.79752 0
M  V30 4582 C 415.33 -4.63393 2.66779 0
M  V30 4583 C 416.63 -3.08735 4.21284 0
M  V30 4584 H 418.324 -1.53786 2.56886 0
M  V30 4585 H 415.87 -0.738415 1.23626 0
M  V30 4586 H 417.823 -3.83325 1.75043 0
M  V30 4587 H 416.547 -3.19332 0.685195 0
M  V30 4588 H 415.206 -2.48391 2.69625 0
M  V30 4589 H 414.854 -4.74144 1.67918 0
M  V30 4590 H 414.554 -4.7674 3.43501 0
M  V30 4591 H 416.078 -5.43458 2.78364 0
M  V30 4592 H 417.492 -3.76484 4.32357 0
M  V30 4593 H 415.889 -3.33588 4.98838 0
M  V30 4594 H 416.959 -2.0541 4.39243 0
M  V30 4595 N 418.302 -1.35869 -0.798587 0
M  V30 4596 C 419.232 -1.32118 -1.92528 0
M  V30 4597 C 420.213 -0.194209 -1.68988 0
M  V30 4598 O 421.398 -0.390426 -1.90235 0
M  V30 4599 C 418.528 -1.10047 -3.29404 0
M  V30 4600 C 417.482 -2.19471 -3.67446 0
M  V30 4601 C 416.808 -1.82555 -5.02571 0
M  V30 4602 C 418.108 -3.61495 -3.76987 0
M  V30 4603 H 419.802 -2.26394 -1.95924 0
M  V30 4604 H 417.348 -1.08981 -0.94123 0
M  V30 4605 H 419.301 -1.06061 -4.07835 0
M  V30 4606 H 418.025 -0.122195 -3.26371 0
M  V30 4607 H 416.684 -2.22568 -2.91306 0
M  V30 4608 H 416.332 -0.833249 -4.9605 0
M  V30 4609 H 416.032 -2.5581 -5.28995 0
M  V30 4610 H 417.556 -1.80108 -5.83432 0
M  V30 4611 H 418.97 -3.60676 -4.4563 0
M  V30 4612 H 417.367 -4.33577 -4.14887 0
M  V30 4613 H 418.437 -3.97065 -2.78329 0
M  V30 4614 N 419.78 1.02168 -1.19998 0
M  V30 4615 C 420.713 2.10232 -0.887558 0
M  V30 4616 C 421.691 1.61827 0.158317 0
M  V30 4617 O 422.875 1.88471 0.0330249 0
M  V30 4618 C 420.002 3.37092 -0.32964 0
M  V30 4619 C 419.048 4.0438 -1.3557 0
M  V30 4620 S 419.881 4.48956 -2.91888 0
M  V30 4621 C 421.037 5.79024 -2.37658 0
M  V30 4622 H 421.27 2.36409 -1.80272 0
M  V30 4623 H 418.803 1.15211 -1.0279 0
M  V30 4624 H 420.761 4.10498 -0.0142824 0
M  V30 4625 H 419.422 3.08996 0.563941 0
M  V30 4626 H 418.615 4.95632 -0.9146 0
M  V30 4627 H 418.217 3.37176 -1.61828 0
M  V30 4628 H 420.509 6.53942 -1.77103 0
M  V30 4629 H 421.452 6.27924 -3.27287 0
M  V30 4630 H 421.86 5.35043 -1.79971 0
M  V30 4631 N 421.258 1.00505 1.21394 0
M  V30 4632 C 422.504 0.688793 1.90745 0
M  V30 4633 C 422.837 -0.778486 1.77914 0
M  V30 4634 O 422.112 -1.56433 1.15581 0
M  V30 4635 C 422.395 1.11063 3.42545 0
M  V30 4636 C 422.248 2.63737 3.64367 0
M  V30 4637 C 423.567 0.673059 4.34923 0
M  V30 4638 H 420.686 0.251702 0.692687 0
M  V30 4639 H 423.328 1.25074 1.43026 0
M  V30 4640 H 421.478 0.632508 3.83317 0
M  V30 4641 H 423.15 3.19313 3.32922 0
M  V30 4642 H 421.393 3.05248 3.08231 0
M  V30 4643 H 422.064 2.88305 4.70727 0
M  V30 4644 H 424.54 1.08392 4.01734 0
M  V30 4645 H 423.416 0.996383 5.39781 0
M  V30 4646 H 423.677 -0.425808 4.40045 0
M  V30 4647 N 422.737 -1.36956 0.779787 0
M  V30 4648 C 423.685 -2.32053 0.15942 0
M  V30 4649 C 424.679 -1.55333 -0.675878 0
M  V30 4650 O 425.885 -1.70668 -0.57204 0
M  V30 4651 H 422.26 -0.751286 0.0327707 0
M  V30 4652 H 424.231 -2.8195 0.977078 0
M  V30 4653 C 422.98 -3.40602 -0.698977 0
M  V30 4654 H 422.303 -3.99746 -0.0655966 0
M  V30 4655 H 423.743 -4.09486 -1.09989 0
M  V30 4656 C 422.202 -2.81359 -1.85307 0
M  V30 4657 O 422.732 -2.72751 -2.94906 0
M  V30 4658 N 420.938 -2.38786 -1.65619 0
M  V30 4659 H 420.485 -2.45987 -0.764725 0
M  V30 4660 H 420.443 -1.99493 -2.43002 0
M  V30 4661 N 424.215 -0.530993 -1.48385 0
M  V30 4662 C 425.626 -0.0907905 -1.86479 0
M  V30 4663 C 425.977 1.33213 -1.44044 0
M  V30 4664 O 425.102 1.99783 -0.831615 0
M  V30 4665 C 425.697 -0.157987 -3.38431 0
M  V30 4666 C 424.256 0.227026 -3.75715 0
M  V30 4667 C 423.403 -0.5173 -2.72432 0
M  V30 4668 H 426.354 -0.742186 -1.40276 0
M  V30 4669 H 426.375 0.630053 -3.75247 0
M  V30 4670 H 425.887 -1.19372 -3.69286 0
M  V30 4671 H 423.988 1.26486 -3.50474 0
M  V30 4672 H 424.101 -0.113288 -4.78966 0
M  V30 4673 H 422.465 0.0365527 -2.54674 0
M  V30 4674 H 423.248 -1.55368 -3.0613 0
M  V30 4675 N 425.693 1.55336 -0.266172 0
M  V30 4676 C 426.921 2.03801 0.356756 0
M  V30 4677 C 427.336 1.14485 1.50129 0
M  V30 4678 O 426.693 0.163121 1.8177 0
M  V30 4679 C 426.744 3.51455 0.846281 0
M  V30 4680 O 426.465 4.37371 -0.252663 0
M  V30 4681 C 427.966 4.15767 1.53794 0
M  V30 4682 H 425.186 0.665906 0.0825218 0
M  V30 4683 H 427.73 2.00636 -0.39566 0
M  V30 4684 H 425.885 3.55092 1.54881 0
M  V30 4685 H 426.299 5.24358 0.122173 0
M  V30 4686 H 427.773 5.20714 1.83198 0
M  V30 4687 H 428.25 3.63404 2.46646 0
M  V30 4688 H 428.856 4.16107 0.879488 0
M  V30 4689 N 427.171 -0.0066808 1.57599 0
M  V30 4690 C 428.587 -0.36267 1.55425 0
M  V30 4691 C 428.787 -1.75209 0.995187 0
M  V30 4692 O 427.843 -2.44616 0.626058 0
M  V30 4693 C 429.156 -0.244017 2.99708 0
M  V30 4694 C 430.704 -0.319451 3.11366 0
M  V30 4695 C 431.179 -0.229998 4.57422 0
M  V30 4696 N 432.67 -0.288105 4.62303 0
M  V30 4697 C 433.405 -0.242127 5.72889 0
M  V30 4698 N 432.901 -0.147133 6.92644 0
M  V30 4699 N 434.694 -0.293502 5.61333 0
M  V30 4700 H 426.845 0.902314 1.92281 0
M  V30 4701 H 429.108 0.34525 0.882896 0
M  V30 4702 H 428.814 0.711678 3.44424 0
M  V30 4703 H 428.688 -1.02877 3.629 0
M  V30 4704 H 431.075 -1.26559 2.66584 0
M  V30 4705 H 431.156 0.495055 2.50964 0
M  V30 4706 H 430.8 0.712566 5.02877 0
M  V30 4707 H 430.73 -1.0629 5.15761 0
M  V30 4708 H 433.221 -0.363126 3.76151 0
M  V30 4709 H 433.534 -0.117763 7.7271 0
M  V30 4710 H 431.879 -0.112857 6.94908 0
M  V30 4711 H 435.07 -0.365864 4.66668 0
M  V30 4712 H 435.243 -0.254204 6.47501 0
M  V30 4713 N 428.649 -1.55105 -0.279332 0
M  V30 4714 C 430.065 -1.46803 -0.626187 0
M  V30 4715 C 430.265 -0.676939 -1.89789 0
M  V30 4716 O 429.321 -0.19326 -2.51759 0
M  V30 4717 C 430.634 -2.90962 -0.759034 0
M  V30 4718 C 432.182 -3.01138 -0.853504 0
M  V30 4719 C 432.657 -4.46539 -1.01818 0
M  V30 4720 N 434.148 -4.50341 -1.08386 0
M  V30 4721 C 434.883 -5.60053 -1.22996 0
M  V30 4722 N 434.379 -6.79645 -1.34366 0
M  V30 4723 N 436.172 -5.47783 -1.26056 0
M  V30 4724 H 428.323 -2.04996 0.555921 0
M  V30 4725 H 430.586 -0.929325 0.187239 0
M  V30 4726 H 430.292 -3.51544 0.104852 0
M  V30 4727 H 430.166 -3.39619 -1.64131 0
M  V30 4728 H 432.553 -2.40658 -1.70786 0
M  V30 4729 H 432.634 -2.55745 0.0532466 0
M  V30 4730 H 432.278 -5.0762 -0.168504 0
M  V30 4731 H 432.208 -4.89583 -1.93948 0
M  V30 4732 H 434.699 -3.64191 -1.00864 0
M  V30 4733 H 435.012 -7.59012 -1.4533 0
M  V30 4734 H 433.357 -6.82469 -1.31382 0
M  V30 4735 H 436.548 -4.53294 -1.168 0
M  V30 4736 H 436.721 -6.33331 -1.37098 0
M  V30 4737 N 430.127 0.543554 -1.4793 0
M  V30 4738 C 431.09 1.63156 -1.60975 0
M  V30 4739 C 432.09 1.53346 -0.483899 0
M  V30 4740 O 433.28 1.5726 -0.749339 0
M  V30 4741 C 430.412 3.02743 -1.56716 0
M  V30 4742 H 431.605 1.52934 -2.57975 0
M  V30 4743 H 429.158 0.764557 -1.36324 0
M  V30 4744 H 429.893 3.18484 -0.611418 0
M  V30 4745 H 429.678 3.11272 -2.38438 0
M  V30 4746 H 431.168 3.81871 -1.6901 0
M  V30 4747 N 431.605 1.3629 0.791371 0
M  V30 4748 C 432.833 1.33562 1.58016 0
M  V30 4749 C 433.248 -0.0835616 1.88615 0
M  V30 4750 O 432.605 -1.0399 1.49974 0
M  V30 4751 C 432.656 2.15517 2.90232 0
M  V30 4752 O 432.377 3.51902 2.60953 0
M  V30 4753 C 433.878 2.20546 3.84544 0
M  V30 4754 H 431.098 0.458226 0.490173 0
M  V30 4755 H 433.642 1.79361 0.982345 0
M  V30 4756 H 431.797 1.73278 3.46487 0
M  V30 4757 H 432.211 3.94644 3.4548 0
M  V30 4758 H 433.685 2.82252 4.74382 0
M  V30 4759 H 434.162 1.20838 4.2225 0
M  V30 4760 H 434.768 2.63013 3.34222 0
M  V30 4761 N 433.083 -1.0153 1.20538 0
M  V30 4762 C 434.013 -2.11972 0.979295 0
M  V30 4763 C 434.994 -1.6985 -0.0921787 0
M  V30 4764 O 436.179 -1.94089 0.0655932 0
M  V30 4765 C 433.309 -3.43201 0.531984 0
M  V30 4766 C 432.263 -3.9907 1.54685 0
M  V30 4767 C 431.589 -5.26082 0.956127 0
M  V30 4768 C 432.889 -4.32313 2.93092 0
M  V30 4769 H 434.583 -2.31143 1.90298 0
M  V30 4770 H 432.129 -1.11079 0.916372 0
M  V30 4771 H 434.082 -4.1985 0.361044 0
M  V30 4772 H 432.806 -3.23792 -0.427327 0
M  V30 4773 H 431.465 -3.2453 1.70517 0
M  V30 4774 H 431.113 -5.02999 -0.0111538 0
M  V30 4775 H 430.813 -5.64426 1.63393 0
M  V30 4776 H 432.337 -6.05386 0.796284 0
M  V30 4777 H 433.751 -4.99845 2.80763 0
M  V30 4778 H 432.148 -4.81774 3.57791 0
M  V30 4779 H 433.218 -3.41025 3.44717 0
M  V30 4780 N 434.561 -1.01147 -1.20859 0
M  V30 4781 C 435.471 -0.58686 -2.27141 0
M  V30 4782 C 436.487 0.373198 -1.69951 0
M  V30 4783 O 437.663 0.235423 -2.00019 0
M  V30 4784 C 434.728 0.0733602 -3.46622 0
M  V30 4785 C 433.789 -0.931995 -4.19061 0
M  V30 4786 C 433.022 -0.303186 -5.32838 0
M  V30 4787 O 433.245 0.898395 -5.63281 0
M  V30 4788 O 432.179 -1.01735 -5.9324 0
M  V30 4789 H 436.005 -1.47155 -2.65667 0
M  V30 4790 H 433.59 -0.780689 -1.2738 0
M  V30 4791 H 435.472 0.442333 -4.19072 0
M  V30 4792 H 434.147 0.932329 -3.09983 0
M  V30 4793 H 433.054 -1.35224 -3.48805 0
M  V30 4794 H 434.387 -1.76076 -4.59628 0
M  V30 4795 N 436.039 1.36541 -0.78704 0
M  V30 4796 C 437.316 1.9355 -0.282424 0
M  V30 4797 C 437.696 1.71919 1.22503 0
M  V30 4798 O 437.044 1.07677 2.01539 0
M  V30 4799 C 437.254 3.4246 -0.672462 0
M  V30 4800 C 438.602 4.19582 -0.650863 0
M  V30 4801 O 439.626 3.50889 -0.612789 0
M  V30 4802 O 438.485 5.42106 -0.691623 0
M  V30 4803 H 435.579 0.824091 -0.0693 0
M  V30 4804 H 438.125 1.45736 -0.869423 0
M  V30 4805 H 436.897 3.51851 -1.71221 0
M  V30 4806 H 436.52 3.97556 -0.0592211 0
M  V30 4807 N 437.518 0.538854 1.48102 0
M  V30 4808 C 438.764 0.00801365 2.02798 0
M  V30 4809 C 439.097 -1.3309 1.41424 0
M  V30 4810 O 438.372 -1.86169 0.563158 0
M  V30 4811 C 438.655 -0.104589 3.59948 0
M  V30 4812 C 438.508 1.26012 4.31788 0
M  V30 4813 C 439.827 -0.827055 4.32259 0
M  V30 4814 H 436.946 0.00438624 0.736987 0
M  V30 4815 H 439.588 0.6976 1.7673 0
M  V30 4816 H 437.738 -0.691893 3.82289 0
M  V30 4817 H 439.41 1.88922 4.2084 0
M  V30 4818 H 437.653 1.83968 3.92859 0
M  V30 4819 H 438.324 1.13424 5.40221 0
M  V30 4820 H 440.8 -0.328578 4.14801 0
M  V30 4821 H 439.676 -0.87476 5.41885 0
M  V30 4822 H 439.937 -1.87927 4.0017 0
M  V30 4823 N 438.996 -1.55193 0.274407 0
M  V30 4824 C 439.959 -2.212 -0.600279 0
M  V30 4825 C 440.959 -1.18963 -1.08187 0
M  V30 4826 O 442.149 -1.43873 -0.982158 0
M  V30 4827 C 439.281 -2.87739 -1.82809 0
M  V30 4828 H 440.474 -2.9989 -0.0239682 0
M  V30 4829 H 438.027 -1.5628 0.0250192 0
M  V30 4830 H 438.762 -2.13058 -2.44493 0
M  V30 4831 H 438.547 -3.62658 -1.49069 0
M  V30 4832 H 440.037 -3.38171 -2.45011 0
M  V30 4833 N 440.474 -0.00167713 -1.576 0
M  V30 4834 C 441.699 0.69739 -1.95323 0
M  V30 4835 C 442.124 1.6642 -0.876706 0
M  V30 4836 O 441.482 1.80548 0.165007 0
M  V30 4837 C 441.53 1.40403 -3.32144 0
M  V30 4838 O 440.634 2.5185 -3.26566 0
M  V30 4839 H 439.975 0.185373 -0.637599 0
M  V30 4840 H 442.505 -0.0553665 -2.04525 0
M  V30 4841 H 442.515 1.76707 -3.67748 0
M  V30 4842 H 441.19 0.695167 -4.10049 0
M  V30 4843 H 439.767 2.17861 -3.0264 0
M  V30 4844 N 441.952 1.55251 0.271103 0
M  V30 4845 C 442.902 1.84649 1.33749 0
M  V30 4846 C 443.886 0.705529 1.44607 0
M  V30 4847 O 445.078 0.966916 1.48256 0
M  V30 4848 C 442.207 2.12354 2.69742 0
M  V30 4849 C 441.293 3.32714 2.62988 0
M  V30 4850 N 441.684 4.52575 2.25853 0
M  V30 4851 C 439.982 3.35341 2.94045 0
M  V30 4852 C 440.683 5.34669 2.29136 0
M  V30 4853 N 439.659 4.73123 2.67685 0
M  V30 4854 H 443.461 2.74865 1.0405 0
M  V30 4855 H 440.975 1.55152 0.479738 0
M  V30 4856 H 442.972 2.31572 3.4667 0
M  V30 4857 H 441.632 1.23422 3.00328 0
M  V30 4858 H 442.643 4.78639 1.978 0
M  V30 4859 H 439.32 2.56608 3.2933 0
M  V30 4860 H 440.71 6.40509 2.02971 0
M  V30 4861 N 443.43 -0.535701 1.48216 0
M  V30 4862 C 444.676 -1.2913 1.57153 0
M  V30 4863 C 445.031 -1.90899 0.239823 0
M  V30 4864 O 444.324 -1.76022 -0.756748 0
M  V30 4865 C 444.518 -2.4068 2.64212 0
M  V30 4866 C 444.347 -1.89844 4.07663 0
M  V30 4867 C 443.117 -1.72708 4.74869 0
M  V30 4868 C 445.315 -1.43031 4.94011 0
M  V30 4869 N 443.297 -1.16437 6.02757 0
M  V30 4870 C 444.668 -0.986691 6.12098 0
M  V30 4871 C 446.723 -1.3128 4.80281 0
M  V30 4872 C 445.426 -0.437231 7.1797 0
M  V30 4873 C 447.452 -0.777346 5.86269 0
M  V30 4874 C 446.814 -0.343774 7.03561 0
M  V30 4875 H 442.913 -0.463753 0.629648 0
M  V30 4876 H 445.497 -0.604736 1.8507 0
M  V30 4877 H 443.668 -3.06839 2.38126 0
M  V30 4878 H 445.4 -3.07706 2.62867 0
M  V30 4879 H 442.155 -1.96061 4.31111 0
M  V30 4880 H 442.579 -0.903281 6.70947 0
M  V30 4881 H 447.221 -1.63408 3.89946 0
M  V30 4882 H 444.939 -0.103621 8.08034 0
M  V30 4883 H 448.525 -0.689688 5.77698 0
M  V30 4884 H 447.405 0.0641219 7.84174 0
M  V30 4885 N 444.908 -1.36708 -0.784132 0
M  V30 4886 C 446.154 -1.32433 -1.54379 0
M  V30 4887 C 446.509 0.0941816 -1.92169 0
M  V30 4888 O 445.802 1.04997 -1.60269 0
M  V30 4889 C 445.996 -2.18571 -2.82774 0
M  V30 4890 C 445.825 -3.68656 -2.57533 0
M  V30 4891 C 444.595 -4.37813 -2.52286 0
M  V30 4892 C 446.793 -4.61802 -2.2637 0
M  V30 4893 N 444.775 -5.7351 -2.18997 0
M  V30 4894 C 446.146 -5.85785 -2.03115 0
M  V30 4895 C 448.201 -4.50313 -2.12421 0
M  V30 4896 C 446.904 -6.99569 -1.67321 0
M  V30 4897 C 448.93 -5.63969 -1.78026 0
M  V30 4898 C 448.292 -6.86994 -1.55622 0
M  V30 4899 H 444.391 -0.539886 -0.565727 0
M  V30 4900 H 446.975 -1.71812 -0.915908 0
M  V30 4901 H 445.146 -1.81429 -3.43421 0
M  V30 4902 H 446.878 -2.05646 -3.48557 0
M  V30 4903 H 443.633 -3.90674 -2.67714 0
M  V30 4904 H 444.057 -6.45189 -2.05084 0
M  V30 4905 H 448.699 -3.55781 -2.28429 0
M  V30 4906 H 446.417 -7.94047 -1.5005 0
M  V30 4907 H 450.003 -5.57044 -1.67909 0
M  V30 4908 H 448.883 -7.7345 -1.294 0
M  V30 4909 N 446.386 1.0089 -1.21074 0
M  V30 4910 C 447.632 1.74866 -1.02712 0
M  V30 4911 C 447.965 1.89178 0.438787 0
M  V30 4912 O 447.24 1.42325 1.32567 0
M  V30 4913 C 447.523 3.16347 -1.72036 0
M  V30 4914 C 447.376 3.09782 -3.26121 0
M  V30 4915 C 448.695 4.15187 -1.45973 0
M  V30 4916 H 445.814 0.634736 -0.374539 0
M  V30 4917 H 448.456 1.17646 -1.49196 0
M  V30 4918 H 446.606 3.65201 -1.32517 0
M  V30 4919 H 448.278 2.68673 -3.74983 0
M  V30 4920 H 446.521 2.46982 -3.56626 0
M  V30 4921 H 447.192 4.09829 -3.6979 0
M  V30 4922 H 449.668 3.75022 -1.80272 0
M  V30 4923 H 448.544 5.12331 -1.96999 0
M  V30 4924 H 448.805 4.40386 -0.388924 0
M  V30 4925 N 447.864 1.01787 1.20321 0
M  V30 4926 C 448.812 0.58254 2.25187 0
M  V30 4927 C 449.806 -0.379359 1.65098 0
M  V30 4928 O 451.012 -0.249142 1.78267 0
M  V30 4929 H 447.387 0.170078 0.732514 0
M  V30 4930 H 449.358 1.47788 2.59232 0
M  V30 4931 C 448.107 -0.0620885 3.47645 0
M  V30 4932 H 447.43 0.669069 3.94162 0
M  V30 4933 H 448.87 -0.329784 4.22716 0
M  V30 4934 C 447.329 -1.3053 3.10586 0
M  V30 4935 O 447.859 -2.39848 3.22236 0
M  V30 4936 N 446.065 -1.18988 2.65123 0
M  V30 4937 H 445.612 -0.300341 2.55843 0
M  V30 4938 H 445.57 -2.02267 2.40698 0
M  V30 4939 N 449.342 -1.36122 0.79427 0
M  V30 4940 C 450.588 -1.99846 0.378542 0
M  V30 4941 C 450.943 -1.61898 -1.03955 0
M  V30 4942 O 450.236 -0.866013 -1.70912 0
M  V30 4943 C 450.43 -3.5409 0.48527 0
M  V30 4944 C 450.259 -4.0702 1.91219 0
M  V30 4945 C 449.029 -4.36944 2.53787 0
M  V30 4946 C 451.227 -4.26435 2.87502 0
M  V30 4947 N 449.209 -4.75727 3.88017 0
M  V30 4948 C 450.58 -4.68077 4.06576 0
M  V30 4949 C 452.635 -4.08616 2.84495 0
M  V30 4950 C 451.338 -4.93765 5.23057 0
M  V30 4951 C 453.364 -4.35453 4.00169 0
M  V30 4952 C 452.726 -4.77355 5.17988 0
M  V30 4953 H 448.825 -0.759549 0.186034 0
M  V30 4954 H 451.409 -1.65043 1.0329 0
M  V30 4955 H 449.58 -3.88151 -0.139023 0
M  V30 4956 H 451.312 -4.04675 0.0453192 0
M  V30 4957 H 448.067 -4.26822 2.05231 0
M  V30 4958 H 448.491 -4.99396 4.57092 0
M  V30 4959 H 453.133 -3.75373 1.94564 0
M  V30 4960 H 450.851 -5.25887 6.1357 0
M  V30 4961 H 454.437 -4.2323 3.99208 0
M  V30 4962 H 453.317 -4.97718 6.06008 0
M  V30 4963 N 450.82 -0.546701 -1.47814 0
M  V30 4964 C 452.068 -0.0187037 -2.02091 0
M  V30 4965 C 452.389 1.33168 -1.42447 0
M  V30 4966 O 451.659 1.86619 -0.595839 0
M  V30 4967 H 450.239 -0.00392531 -0.74699 0
M  V30 4968 H 452.901 -0.714327 -1.81338 0
M  V30 4969 H 451.997 0.0772219 -3.12004 0
M  V30 4970 N 452.299 1.55045 -0.282633 0
M  V30 4971 C 453.529 2.03872 0.334635 0
M  V30 4972 C 453.937 1.16018 1.49454 0
M  V30 4973 O 453.28 0.174449 1.8287 0
M  V30 4974 C 453.342 3.48791 0.870905 0
M  V30 4975 C 453.006 4.56715 -0.161338 0
M  V30 4976 C 454.003 5.10513 -0.983466 0
M  V30 4977 C 451.688 5.01417 -0.297745 0
M  V30 4978 C 453.682 6.07538 -1.92811 0
M  V30 4979 C 451.369 5.98265 -1.24586 0
M  V30 4980 C 452.367 6.51208 -2.05954 0
M  V30 4981 O 452.055 7.46162 -2.99162 0
M  V30 4982 H 451.787 0.671324 0.0793742 0
M  V30 4983 H 454.341 2.01169 -0.41473 0
M  V30 4984 H 452.571 3.48758 1.67047 0
M  V30 4985 H 454.26 3.80916 1.40207 0
M  V30 4986 H 455.026 4.76785 -0.888856 0
M  V30 4987 H 450.905 4.59849 0.325604 0
M  V30 4988 H 454.449 6.48787 -2.56363 0
M  V30 4989 H 450.346 6.31412 -1.34126 0
M  V30 4990 H 451.114 7.63903 -2.93929 0
M  V30 4991 N 453.777 0.010035 1.57597 0
M  V30 4992 C 454.74 -0.963029 2.07986 0
M  V30 4993 C 455.74 -1.26619 0.991173 0
M  V30 4994 O 456.93 -1.2097 1.25347 0
M  V30 4995 C 454.062 -2.2851 2.52974 0
M  V30 4996 H 455.255 -0.526971 2.95234 0
M  V30 4997 H 452.808 -0.237639 1.54483 0
M  V30 4998 H 453.543 -2.76784 1.69 0
M  V30 4999 H 453.328 -2.07824 3.32493 0
M  V30 5000 H 454.818 -2.98294 2.9225 0
M  V30 5001 N 455.255 -1.55392 -0.262866 0
M  V30 5002 C 456.483 -1.80513 -1.01108 0
M  V30 5003 C 456.898 -0.583533 -1.79556 0
M  V30 5004 O 456.255 0.447585 -1.76926 0
M  V30 5005 C 456.306 -3.03648 -1.96164 0
M  V30 5006 O 456.027 -4.2109 -1.20893 0
M  V30 5007 C 457.528 -3.41448 -2.82715 0
M  V30 5008 H 454.748 -0.601079 -0.298236 0
M  V30 5009 H 457.292 -2.02425 -0.290582 0
M  V30 5010 H 455.447 -2.83832 -2.63663 0
M  V30 5011 H 455.861 -4.90771 -1.85051 0
M  V30 5012 H 457.335 -4.30751 -3.45192 0
M  V30 5013 H 457.812 -2.61308 -3.53008 0
M  V30 5014 H 458.418 -3.63559 -2.20693 0
M  V30 5015 N 456.733 0.527833 -1.48498 0
M  V30 5016 C 458.149 0.856571 -1.34666 0
M  V30 5017 C 458.349 1.98271 -0.35931 0
M  V30 5018 O 457.405 2.51551 0.218703 0
M  V30 5019 C 458.718 1.22207 -2.74747 0
M  V30 5020 C 460.266 1.33183 -2.83251 0
M  V30 5021 C 460.741 1.73075 -4.24039 0
M  V30 5022 N 462.232 1.80174 -4.26722 0
M  V30 5023 C 462.967 2.1243 -5.32598 0
M  V30 5024 N 462.463 2.43096 -6.4875 0
M  V30 5025 N 464.256 2.13454 -5.19994 0
M  V30 5026 H 456.407 -0.215174 -2.11307 0
M  V30 5027 H 458.67 -0.0336281 -0.947403 0
M  V30 5028 H 458.376 0.468195 -3.4857 0
M  V30 5029 H 458.25 2.17173 -3.08409 0
M  V30 5030 H 460.637 2.07647 -2.09683 0
M  V30 5031 H 460.718 0.363333 -2.53206 0
M  V30 5032 H 460.362 0.991712 -4.98124 0
M  V30 5033 H 460.292 2.70979 -4.51529 0
M  V30 5034 H 462.783 1.58744 -3.42942 0
M  V30 5035 H 463.096 2.6682 -7.25277 0
M  V30 5036 H 461.441 2.40611 -6.52021 0
M  V30 5037 H 464.632 1.88956 -4.28268 0
M  V30 5038 H 464.805 2.38261 -6.02608 0
M  V30 5039 N 458.211 1.37122 0.776871 0
M  V30 5040 C 459.457 1.32243 1.53752 0
M  V30 5041 C 459.79 -0.0944745 1.9397 0
M  V30 5042 O 459.065 -1.05068 1.6368 0
M  V30 5043 C 459.348 2.25681 2.80607 0
M  V30 5044 C 459.201 3.76127 2.46676 0
M  V30 5045 C 460.52 2.17657 3.82509 0
M  V30 5046 H 457.639 0.481704 0.557791 0
M  V30 5047 H 460.281 1.6778 0.891612 0
M  V30 5048 H 458.431 1.95505 3.35723 0
M  V30 5049 H 460.103 4.16877 1.97513 0
M  V30 5050 H 458.346 3.94946 1.79443 0
M  V30 5051 H 459.017 4.36933 3.37333 0
M  V30 5052 H 461.493 2.44245 3.36873 0
M  V30 5053 H 460.369 2.85185 4.69 0
M  V30 5054 H 460.63 1.16785 4.26396 0
M  V30 5055 N 459.689 -1.00246 1.21608 0
M  V30 5056 C 460.937 -1.73717 1.0328 0
M  V30 5057 C 461.258 -1.90102 -0.434318 0
M  V30 5058 O 460.528 -1.45376 -1.31311 0
M  V30 5059 H 459.108 -0.643613 0.379172 0
M  V30 5060 H 461.77 -1.20787 1.52959 0
M  V30 5061 H 460.866 -2.73535 1.50283 0
M  V30 5062 N 461.167 -1.02423 -1.1978 0
M  V30 5063 C 462.077 -0.610919 -2.26506 0
M  V30 5064 C 463.093 0.355152 -1.70337 0
M  V30 5065 O 464.269 0.214195 -2.00258 0
M  V30 5066 C 461.334 0.0365921 -3.46681 0
M  V30 5067 C 460.395 -0.976389 -4.18049 0
M  V30 5068 C 459.628 -0.359683 -5.32487 0
M  V30 5069 O 459.851 0.838601 -5.64202 0
M  V30 5070 O 458.785 -1.08022 -5.92127 0
M  V30 5071 H 462.611 -1.49965 -2.64091 0
M  V30 5072 H 460.196 -0.794156 -1.26545 0
M  V30 5073 H 462.078 0.39786 -4.19518 0
M  V30 5074 H 460.753 0.899398 -3.10954 0
M  V30 5075 H 459.66 -1.38916 -3.47352 0
M  V30 5076 H 460.993 -1.80941 -4.57735 0
M  V30 5077 N 462.645 1.35699 -0.801477 0
M  V30 5078 C 463.577 2.28598 -0.166028 0
M  V30 5079 C 464.59 1.50044 0.631721 0
M  V30 5080 O 465.779 1.72339 0.464921 0
M  V30 5081 C 462.879 3.29625 0.787451 0
M  V30 5082 C 462.052 4.37384 0.037171 0
M  V30 5083 C 461.111 5.183 0.908375 0
M  V30 5084 O 460.137 5.68053 0.361189 0
M  V30 5085 N 461.339 5.35912 2.23112 0
M  V30 5086 H 464.104 2.83771 -0.964071 0
M  V30 5087 H 461.665 1.47994 -0.656469 0
M  V30 5088 H 463.657 3.80648 1.37439 0
M  V30 5089 H 462.227 2.75004 1.48632 0
M  V30 5090 H 461.447 3.87364 -0.730935 0
M  V30 5091 H 462.735 5.0653 -0.480109 0
M  V30 5092 H 462.133 4.97125 2.69968 0
M  V30 5093 H 460.69 5.90133 2.76741 0
M  V30 5094 N 464.123 0.554532 1.47522 0
M  V30 5095 C 465.033 -0.197865 2.33764 0
M  V30 5096 C 466.049 -0.914576 1.48025 0
M  V30 5097 O 467.225 -0.884067 1.80959 0
M  V30 5098 C 464.29 -1.21628 3.24665 0
M  V30 5099 C 463.351 -0.507283 4.26292 0
M  V30 5100 C 462.584 -1.47718 5.1285 0
M  V30 5101 O 462.807 -2.7118 5.01814 0
M  V30 5102 O 461.741 -1.00313 5.93482 0
M  V30 5103 H 465.567 0.50949 2.99396 0
M  V30 5104 H 463.152 0.315176 1.46038 0
M  V30 5105 H 465.034 -1.80421 3.80823 0
M  V30 5106 H 463.709 -1.9056 2.61665 0
M  V30 5107 H 462.616 0.121778 3.73902 0
M  V30 5108 H 463.949 0.140544 4.91999 0
M  V30 5109 N 465.601 -1.54893 0.290851 0
M  V30 5110 C 466.564 -2.21824 -0.576784 0
M  V30 5111 C 467.564 -1.20104 -1.06919 0
M  V30 5112 O 468.754 -1.44906 -0.966843 0
M  V30 5113 C 465.886 -2.89662 -1.79747 0
M  V30 5114 H 467.079 -2.99899 0.00784051 0
M  V30 5115 H 464.632 -1.56245 0.0415934 0
M  V30 5116 H 465.367 -2.15639 -2.42219 0
M  V30 5117 H 465.152 -3.64219 -1.45214 0
M  V30 5118 H 466.642 -3.4075 -2.4141 0
M  V30 5119 N 467.08 -0.0183926 -1.57589 0
M  V30 5120 C 468.491 0.521927 -1.79256 0
M  V30 5121 C 468.842 1.72885 -0.927636 0
M  V30 5122 O 467.967 2.15978 -0.135091 0
M  V30 5123 C 468.562 0.953632 -3.25102 0
M  V30 5124 C 467.121 1.43913 -3.47801 0
M  V30 5125 C 466.268 0.398837 -2.74417 0
M  V30 5126 H 469.219 -0.244485 -1.56805 0
M  V30 5127 H 469.24 1.81863 -3.34224 0
M  V30 5128 H 468.752 0.0750123 -3.88028 0
M  V30 5129 H 466.853 2.33804 -2.90115 0
M  V30 5130 H 466.966 1.45391 -4.56507 0
M  V30 5131 H 465.33 0.864572 -2.39577 0
M  V30 5132 H 466.113 -0.471132 -3.40052 0
M  V30 5133 N 468.558 1.5553 0.254621 0
M  V30 5134 C 469.508 1.86057 1.31783 0
M  V30 5135 C 470.492 0.720827 1.4385 0
M  V30 5136 O 471.684 0.982586 1.47222 0
M  V30 5137 C 468.813 2.15203 2.67475 0
M  V30 5138 C 467.899 3.35484 2.59444 0
M  V30 5139 N 468.29 4.54945 2.2104 0
M  V30 5140 C 466.588 3.38441 2.90472 0
M  V30 5141 C 467.289 5.3707 2.23453 0
M  V30 5142 N 466.265 4.75936 2.62652 0
M  V30 5143 H 470.067 2.75953 1.01129 0
M  V30 5144 H 467.581 1.55653 0.463255 0
M  V30 5145 H 469.578 2.35235 3.44195 0
M  V30 5146 H 468.238 1.26601 2.99002 0
M  V30 5147 H 469.249 4.8071 1.92712 0
M  V30 5148 H 465.926 2.60087 3.2659 0
M  V30 5149 H 467.316 6.42626 1.96166 0
M  V30 5150 N 470.036 -0.519951 1.48776 0
M  V30 5151 C 470.946 -1.65025 1.66745 0
M  V30 5152 C 471.962 -1.6508 0.549954 0
M  V30 5153 O 473.138 -1.83848 0.822295 0
M  V30 5154 C 470.203 -3.0146 1.71238 0
M  V30 5155 C 469.264 -3.12182 2.94688 0
M  V30 5156 C 468.497 -4.42109 2.98958 0
M  V30 5157 O 468.72 -5.29799 2.1135 0
M  V30 5158 O 467.654 -4.57406 3.91233 0
M  V30 5159 H 471.48 -1.52801 2.62461 0
M  V30 5160 H 469.065 -0.694157 1.32294 0
M  V30 5161 H 470.947 -3.82584 1.76657 0
M  V30 5162 H 469.622 -3.13988 0.786975 0
M  V30 5163 H 468.529 -2.30316 2.94797 0
M  V30 5164 H 469.862 -3.04574 3.86646 0
M  V30 5165 N 471.514 -1.37532 -0.769588 0
M  V30 5166 C 472.762 -1.32597 -1.5252 0
M  V30 5167 C 473.083 0.0884294 -1.94799 0
M  V30 5168 O 472.353 1.03289 -1.66458 0
M  V30 5169 H 470.933 -0.487846 -0.565699 0
M  V30 5170 H 473.595 -1.72044 -0.915806 0
M  V30 5171 H 472.691 -1.96643 -2.42359 0
M  V30 5172 N 472.992 0.995999 -1.22138 0
M  V30 5173 C 474.24 1.73167 -1.042 0
M  V30 5174 C 474.561 1.90329 0.42423 0
M  V30 5175 O 473.831 1.4607 1.30539 0
M  V30 5176 H 472.411 0.641593 -0.38258 0
M  V30 5177 H 475.073 1.19974 -1.53598 0
M  V30 5178 H 474.169 2.72734 -1.51731 0
M  V30 5179 N 474.47 1.03057 1.19235 0
M  V30 5180 C 475.42 0.583386 2.2041 0
M  V30 5181 C 476.404 -0.368776 1.56617 0
M  V30 5182 O 477.596 -0.189471 1.75983 0
M  V30 5183 C 474.725 -0.0626534 3.43243 0
M  V30 5184 C 473.811 0.91205 4.14177 0
M  V30 5185 N 474.202 2.07514 4.61272 0
M  V30 5186 C 472.5 0.735859 4.39888 0
M  V30 5187 C 473.201 2.69003 5.15764 0
M  V30 5188 N 472.177 1.96954 5.06666 0
M  V30 5189 H 475.979 1.46988 2.54503 0
M  V30 5190 H 473.493 0.897785 1.35328 0
M  V30 5191 H 475.49 -0.400653 4.1497 0
M  V30 5192 H 474.15 -0.944813 3.1065 0
M  V30 5193 H 475.161 2.45448 4.56043 0
M  V30 5194 H 471.838 -0.0970656 4.17387 0
M  V30 5195 H 473.228 3.67514 5.6248 0
M  V30 5196 N 475.948 -1.35272 0.808662 0
M  V30 5197 C 477.359 -1.81179 0.450688 0
M  V30 5198 C 477.71 -1.67143 -1.02751 0
M  V30 5199 O 476.835 -1.20325 -1.79864 0
M  V30 5200 C 477.43 -3.28943 0.811275 0
M  V30 5201 C 475.989 -3.72985 0.505871 0
M  V30 5202 C 475.136 -2.57229 1.03578 0
M  V30 5203 H 478.087 -1.2322 1.00012 0
M  V30 5204 H 478.108 -3.80342 0.109588 0
M  V30 5205 H 477.62 -3.39127 1.88718 0
M  V30 5206 H 475.721 -3.68349 -0.561209 0
M  V30 5207 H 475.834 -4.67677 1.03995 0
M  V30 5208 H 474.198 -2.50548 0.458005 0
M  V30 5209 H 474.981 -2.7019 2.11784 0
M  V30 5210 N 477.426 -0.562348 -1.47226 0
M  V30 5211 C 478.674 -0.0401371 -2.0206 0
M  V30 5212 C 478.995 1.3165 -1.43852 0
M  V30 5213 O 478.265 1.85976 -0.615599 0
M  V30 5214 H 476.845 -0.0118479 -0.746906 0
M  V30 5215 H 479.507 -0.73352 -1.8057 0
M  V30 5216 H 478.603 0.0441254 -3.12069 0
M  V30 5217 N 478.904 1.54736 -0.299062 0
M  V30 5218 C 480.129 2.04975 0.316254 0
M  V30 5219 C 480.554 1.17501 1.46885 0
M  V30 5220 O 479.912 0.178678 1.80417 0
M  V30 5221 C 479.96 3.52672 0.751997 0
M  V30 5222 O 479.064 3.68226 1.85697 0
M  V30 5223 H 478.405 0.661126 0.0617175 0
M  V30 5224 H 480.935 1.99805 -0.440341 0
M  V30 5225 H 480.945 3.94488 1.04133 0
M  V30 5226 H 479.62 4.158 -0.0911482 0
M  V30 5227 H 478.197 3.38316 1.56834 0
M  V30 5228 N 480.382 0.0267497 1.57577 0
M  V30 5229 C 481.659 -0.690926 1.82991 0
M  V30 5230 C 482.039 -1.90471 0.910164 0
M  V30 5231 O 481.387 -2.28474 -0.0347985 0
M  V30 5232 C 481.597 -1.07139 3.32148 0
M  V30 5233 C 482.945 -1.46402 3.98562 0
M  V30 5234 O 483.969 -1.16443 3.36629 0
M  V30 5235 O 482.828 -2.02214 5.07712 0
M  V30 5236 H 479.922 -0.338747 0.75444 0
M  V30 5237 H 482.468 0.0542506 1.69613 0
M  V30 5238 H 481.24 -0.207394 3.9075 0
M  V30 5239 H 480.863 -1.87481 3.50623 0
M  V30 5240 N 481.861 -1.55662 -0.24637 0
M  V30 5241 C 483.086 -1.81914 -0.996093 0
M  V30 5242 C 483.511 -0.603875 -1.78143 0
M  V30 5243 O 482.869 0.447091 -1.75701 0
M  V30 5244 C 482.917 -3.05908 -1.90925 0
M  V30 5245 O 482.021 -2.82861 -3.00105 0
M  V30 5246 H 481.362 -0.600481 -0.283406 0
M  V30 5247 H 483.892 -2.02848 -0.267199 0
M  V30 5248 H 483.902 -3.35356 -2.3238 0
M  V30 5249 H 482.577 -3.93999 -1.33183 0
M  V30 5250 H 481.154 -2.64583 -2.62775 0
M  V30 5251 N 483.339 0.512053 -1.4905 0
M  V30 5252 C 484.302 1.59704 -1.64399 0
M  V30 5253 C 485.302 1.52285 -0.516317 0
M  V30 5254 O 486.492 1.55635 -0.782527 0
M  V30 5255 C 483.624 2.9935 -1.63102 0
M  V30 5256 H 484.817 1.47428 -2.61161 0
M  V30 5257 H 482.37 0.735469 -1.37915 0
M  V30 5258 H 483.105 3.17116 -0.678836 0
M  V30 5259 H 482.89 3.06144 -2.44986 0
M  V30 5260 H 484.38 3.782 -1.77072 0
M  V30 5261 N 484.817 1.37938 0.762283 0
M  V30 5262 C 486.233 1.18945 1.06415 0
M  V30 5263 C 486.433 0.0321163 2.01474 0
M  V30 5264 O 485.489 -0.624844 2.44647 0
M  V30 5265 C 486.802 2.51218 1.65258 0
M  V30 5266 C 488.35 2.57824 1.7747 0
M  V30 5267 C 488.825 3.90251 2.39725 0
M  V30 5268 N 490.316 3.91744 2.47166 0
M  V30 5269 C 491.051 4.90966 2.96209 0
M  V30 5270 N 490.547 6.00585 3.45354 0
M  V30 5271 N 492.34 4.78363 2.9517 0
M  V30 5272 H 484.491 2.11994 0.131301 0
M  V30 5273 H 486.754 0.940262 0.120879 0
M  V30 5274 H 486.46 3.36317 1.02878 0
M  V30 5275 H 486.334 2.68989 2.64433 0
M  V30 5276 H 488.721 1.73126 2.3898 0
M  V30 5277 H 488.802 2.43928 0.770241 0
M  V30 5278 H 488.446 4.75368 1.78852 0
M  V30 5279 H 488.376 4.01454 3.40796 0
M  V30 5280 H 490.867 3.12563 2.12397 0
M  V30 5281 H 491.18 6.72236 3.81207 0
M  V30 5282 H 489.525 6.04217 3.43434 0
M  V30 5283 H 492.716 3.91841 2.56082 0
M  V30 5284 H 492.889 5.55843 3.33081 0
M  V30 5285 N 486.295 -0.989507 1.22664 0
M  V30 5286 C 487.258 -2.06183 1.00106 0
M  V30 5287 C 488.258 -1.60765 -0.0337726 0
M  V30 5288 O 489.448 -1.72989 0.205072 0
M  V30 5289 C 486.58 -3.37021 0.51279 0
M  V30 5290 H 487.773 -2.27629 1.95256 0
M  V30 5291 H 485.326 -1.16158 1.0458 0
M  V30 5292 H 486.061 -3.21261 -0.442917 0
M  V30 5293 H 485.846 -3.71323 1.25942 0
M  V30 5294 H 487.336 -4.1591 0.375315 0
M  V30 5295 N 487.773 -1.03688 -1.18687 0
M  V30 5296 C 488.998 -0.757819 -1.93059 0
M  V30 5297 C 489.423 0.678353 -1.75442 0
M  V30 5298 O 488.781 1.46938 -1.06203 0
M  V30 5299 C 488.829 -1.12423 -3.42627 0
M  V30 5300 O 487.933 -0.247505 -4.11657 0
M  V30 5301 H 487.274 -0.279245 -0.602427 0
M  V30 5302 H 489.804 -1.3857 -1.5053 0
M  V30 5303 H 489.814 -1.08454 -3.93322 0
M  V30 5304 H 488.489 -2.17049 -3.54771 0
M  V30 5305 H 487.066 -0.34649 -3.71287 0
M  V30 5306 N 489.251 1.34841 -0.815825 0
M  V30 5307 C 490.184 2.27504 -0.178062 0
M  V30 5308 C 491.162 1.48542 0.661373 0
M  V30 5309 O 492.346 1.77779 0.626653 0
M  V30 5310 C 489.473 3.30246 0.752002 0
M  V30 5311 C 488.519 4.26499 -0.00899172 0
M  V30 5312 S 489.352 5.18169 -1.35134 0
M  V30 5313 C 490.508 6.24449 -0.42596 0
M  V30 5314 H 490.741 2.81248 -0.963684 0
M  V30 5315 H 488.274 1.41781 -0.611355 0
M  V30 5316 H 490.232 3.89933 1.28308 0
M  V30 5317 H 488.893 2.75363 1.51109 0
M  V30 5318 H 488.086 4.99146 0.697766 0
M  V30 5319 H 487.688 3.7103 -0.470396 0
M  V30 5320 H 489.98 6.76404 0.385234 0
M  V30 5321 H 490.923 6.99156 -1.1219 0
M  V30 5322 H 491.331 5.64497 -0.0175461 0
M  V30 5323 N 490.729 0.570148 1.46925 0
M  V30 5324 C 491.692 -0.159933 2.28641 0
M  V30 5325 C 492.692 -0.830638 1.37685 0
M  V30 5326 O 493.882 -0.684516 1.60187 0
M  V30 5327 C 491.014 -1.2354 3.17727 0
M  V30 5328 H 492.207 0.558035 2.94662 0
M  V30 5329 H 489.76 0.327603 1.52828 0
M  V30 5330 H 490.495 -1.98535 2.56426 0
M  V30 5331 H 490.28 -0.759125 3.84681 0
M  V30 5332 H 491.77 -1.74782 3.79264 0
M  V30 5333 N 492.207 -1.54576 0.307264 0
M  V30 5334 C 493.484 -1.92377 -0.353605 0
M  V30 5335 C 493.864 -1.23517 -1.71192 0
M  V30 5336 O 493.212 -0.373101 -2.25433 0
M  V30 5337 C 493.422 -3.45928 -0.462039 0
M  V30 5338 C 494.77 -4.18278 -0.729975 0
M  V30 5339 O 495.794 -3.51997 -0.545605 0
M  V30 5340 O 494.653 -5.3563 -1.08454 0
M  V30 5341 H 491.747 -0.802747 -0.198812 0
M  V30 5342 H 494.293 -1.65929 0.355783 0
M  V30 5343 H 493.065 -3.88187 0.492592 0
M  V30 5344 H 492.688 -3.78431 -1.21965 0
M  V30 5345 N 493.685 -0.035106 -1.57561 0
M  V30 5346 C 494.931 0.637362 -1.93156 0
M  V30 5347 C 495.286 1.69391 -0.912392 0
M  V30 5348 O 494.579 1.91469 0.070735 0
M  V30 5349 C 494.773 1.29149 -3.3325 0
M  V30 5350 C 494.602 0.29983 -4.48699 0
M  V30 5351 C 493.372 -0.102454 -5.05196 0
M  V30 5352 C 495.57 -0.448297 -5.12342 0
M  V30 5353 N 493.552 -1.08866 -6.0417 0
M  V30 5354 C 494.923 -1.28807 -6.06472 0
M  V30 5355 C 496.978 -0.508351 -4.95298 0
M  V30 5356 C 495.681 -2.18248 -6.85391 0
M  V30 5357 C 497.707 -1.39013 -5.7483 0
M  V30 5358 C 497.069 -2.21766 -6.6858 0
M  V30 5359 H 493.168 0.205358 -0.754554 0
M  V30 5360 H 495.752 -0.103682 -1.94424 0
M  V30 5361 H 493.923 2.00264 -3.3279 0
M  V30 5362 H 495.655 1.92147 -3.56177 0
M  V30 5363 H 492.41 0.273223 -4.72811 0
M  V30 5364 H 492.834 -1.57817 -6.58348 0
M  V30 5365 H 497.476 0.117197 -4.22638 0
M  V30 5366 H 495.194 -2.81855 -7.57353 0
M  V30 5367 H 498.78 -1.44096 -5.63673 0
M  V30 5368 H 497.66 -2.88892 -7.29048 0
M  V30 5369 N 495.163 1.55791 0.238111 0
M  V30 5370 C 496.093 1.94068 1.29846 0
M  V30 5371 C 497.074 0.806726 1.49753 0
M  V30 5372 O 498.259 1.06772 1.62214 0
M  V30 5373 C 495.389 2.24302 2.65153 0
M  V30 5374 C 494.343 3.40032 2.59927 0
M  V30 5375 C 493.669 3.55829 3.99111 0
M  V30 5376 C 494.969 4.75476 2.16148 0
M  V30 5377 H 496.663 2.82887 0.980563 0
M  V30 5378 H 494.209 1.36105 0.470253 0
M  V30 5379 H 496.162 2.4967 3.39475 0
M  V30 5380 H 494.886 1.32318 2.98596 0
M  V30 5381 H 493.545 3.14687 1.88063 0
M  V30 5382 H 493.193 2.6125 4.29834 0
M  V30 5383 H 492.893 4.3366 3.96501 0
M  V30 5384 H 494.417 3.83528 4.7512 0
M  V30 5385 H 495.831 5.00158 2.80205 0
M  V30 5386 H 494.228 5.56472 2.24631 0
M  V30 5387 H 495.298 4.71946 1.11333 0
M  V30 5388 N 496.642 -0.504142 1.49319 0
M  V30 5389 C 498.058 -0.835039 1.36012 0
M  V30 5390 C 498.258 -1.97674 0.390808 0
M  V30 5391 O 497.314 -2.51867 -0.178655 0
M  V30 5392 C 498.627 -1.17821 2.76656 0
M  V30 5393 C 500.175 -1.2866 2.85334 0
M  V30 5394 C 500.65 -1.66307 4.26739 0
M  V30 5395 N 502.141 -1.73362 4.29534 0
M  V30 5396 C 502.876 -2.0393 5.35911 0
M  V30 5397 N 502.372 -2.32744 6.52535 0
M  V30 5398 N 504.165 -2.05155 5.23324 0
M  V30 5399 H 496.316 0.248764 2.10938 0
M  V30 5400 H 498.579 0.0486962 0.946748 0
M  V30 5401 H 498.285 -0.412682 3.4927 0
M  V30 5402 H 498.159 -2.12239 3.11825 0
M  V30 5403 H 500.546 -2.04285 2.1296 0
M  V30 5404 H 500.627 -0.323004 2.53752 0
M  V30 5405 H 500.271 -0.91234 4.99639 0
M  V30 5406 H 500.201 -2.63761 4.55782 0
M  V30 5407 H 502.692 -1.53268 3.45424 0
M  V30 5408 H 503.005 -2.55248 7.2943 0
M  V30 5409 H 501.35 -2.30207 6.55767 0
M  V30 5410 H 504.541 -1.82119 4.3122 0
M  V30 5411 H 504.714 -2.28644 6.06322 0
M  V30 5412 N 498.12 -1.38341 -0.754957 0
M  V30 5413 C 499.536 -1.19508 -1.05783 0
M  V30 5414 C 499.736 -0.0428005 -2.01455 0
M  V30 5415 O 498.792 0.611861 -2.44975 0
M  V30 5416 C 500.105 -2.52091 -1.63923 0
M  V30 5417 C 501.653 -2.58762 -1.76101 0
M  V30 5418 C 502.128 -3.91517 -2.37652 0
M  V30 5419 N 503.619 -3.93049 -2.45085 0
M  V30 5420 C 504.354 -4.9253 -2.93602 0
M  V30 5421 N 503.85 -6.02408 -3.42165 0
M  V30 5422 N 505.643 -4.79921 -2.92629 0
M  V30 5423 H 497.794 -2.1206 -0.120056 0
M  V30 5424 H 500.057 -0.94089 -0.11589 0
M  V30 5425 H 499.763 -3.36858 -1.01093 0
M  V30 5426 H 499.637 -2.70388 -2.63003 0
M  V30 5427 H 502.024 -1.74391 -2.38058 0
M  V30 5428 H 502.105 -2.44333 -0.757294 0
M  V30 5429 H 501.749 -4.76309 -1.76329 0
M  V30 5430 H 501.679 -4.03256 -3.38662 0
M  V30 5431 H 504.17 -3.13685 -2.10736 0
M  V30 5432 H 504.483 -6.74248 -3.77637 0
M  V30 5433 H 502.828 -6.0603 -3.40225 0
M  V30 5434 H 506.019 -3.93194 -2.54001 0
M  V30 5435 H 506.192 -5.57601 -3.30128 0
M  V30 5436 N 499.598 0.982988 -1.23187 0
M  V30 5437 C 500.823 1.76455 -1.08988 0
M  V30 5438 C 501.248 1.84726 0.354691 0
M  V30 5439 O 500.606 1.30699 1.25649 0
M  V30 5440 C 500.654 3.17094 -1.71708 0
M  V30 5441 O 499.758 4.00648 -0.977477 0
M  V30 5442 H 499.099 0.542988 -0.382177 0
M  V30 5443 H 501.629 1.23413 -1.63188 0
M  V30 5444 H 501.639 3.67684 -1.76841 0
M  V30 5445 H 500.314 3.10389 -2.76823 0
M  V30 5446 H 498.891 3.59161 -1.0029 0
M  V30 5447 N 501.076 1.04316 1.18135 0
M  V30 5448 C 502.301 0.768047 1.92655 0
M  V30 5449 C 502.726 -0.66904 1.758 0
M  V30 5450 O 502.084 -1.46372 1.06981 0
M  V30 5451 C 502.132 1.14239 3.42026 0
M  V30 5452 O 501.236 0.269333 4.1152 0
M  V30 5453 H 500.577 0.282436 0.600937 0
M  V30 5454 H 503.107 1.39367 1.49793 0
M  V30 5455 H 503.117 1.10538 3.92741 0
M  V30 5456 H 501.792 2.18928 3.53615 0
M  V30 5457 H 500.369 0.366175 3.71098 0
M  V30 5458 N 502.554 -1.34406 0.822964 0
M  V30 5459 C 503.97 -1.51275 0.508727 0
M  V30 5460 C 504.17 -1.76776 -0.967083 0
M  V30 5461 O 503.226 -1.81871 -1.75155 0
M  V30 5462 C 504.539 -2.67765 1.36829 0
M  V30 5463 C 506.087 -2.81647 1.36542 0
M  V30 5464 C 506.562 -4.01181 2.20947 0
M  V30 5465 N 508.053 -4.08388 2.18571 0
M  V30 5466 C 508.788 -5.00036 2.80627 0
M  V30 5467 N 508.284 -5.96906 3.51674 0
M  V30 5468 N 510.077 -4.92908 2.70181 0
M  V30 5469 H 502.228 -1.16113 1.77852 0
M  V30 5470 H 504.491 -0.56947 0.757897 0
M  V30 5471 H 504.197 -2.55551 2.41633 0
M  V30 5472 H 504.071 -3.62779 1.03303 0
M  V30 5473 H 506.458 -2.93303 0.325163 0
M  V30 5474 H 506.539 -1.87443 1.74066 0
M  V30 5475 H 506.183 -3.90286 3.25022 0
M  V30 5476 H 506.113 -4.94599 1.80774 0
M  V30 5477 H 508.604 -3.39051 1.66891 0
M  V30 5478 H 508.917 -6.63468 3.96271 0
M  V30 5479 H 507.262 -5.9703 3.5578 0
M  V30 5480 H 510.453 -4.1619 2.14251 0
M  V30 5481 H 510.626 -5.64137 3.18831 0
M  V30 5482 N 504.032 -0.577932 -1.46621 0
M  V30 5483 C 505.443 -0.150071 -1.86096 0
M  V30 5484 C 505.794 1.28563 -1.48209 0
M  V30 5485 O 504.919 1.97036 -0.894754 0
M  V30 5486 C 505.514 -0.265576 -3.37758 0
M  V30 5487 C 504.073 0.10738 -3.76247 0
M  V30 5488 C 503.22 -0.603711 -2.70649 0
M  V30 5489 H 506.171 -0.786438 -1.37844 0
M  V30 5490 H 506.192 0.510352 -3.77062 0
M  V30 5491 H 505.704 -1.3106 -3.65301 0
M  V30 5492 H 503.805 1.15272 -3.54321 0
M  V30 5493 H 503.918 -0.26561 -4.78363 0
M  V30 5494 H 502.282 -0.0444884 -2.54661 0
M  V30 5495 H 503.065 -1.65029 -3.01032 0
M  V30 5496 N 505.51 1.54411 -0.315457 0
M  V30 5497 C 506.44 2.27002 0.547039 0
M  V30 5498 C 507.421 1.27492 1.12605 0
M  V30 5499 O 508.606 1.5629 1.15269 0
M  V30 5500 C 505.736 3.02171 1.71201 0
M  V30 5501 C 504.69 4.0895 1.26268 0
M  V30 5502 C 504.016 4.71915 2.51396 0
M  V30 5503 C 505.316 5.20891 0.383419 0
M  V30 5504 H 507.01 2.99343 -0.0584517 0
M  V30 5505 H 504.556 1.4397 -0.0295527 0
M  V30 5506 H 506.509 3.51681 2.32161 0
M  V30 5507 H 505.233 2.27433 2.34397 0
M  V30 5508 H 503.892 3.60312 0.676062 0
M  V30 5509 H 503.54 3.93801 3.12937 0
M  V30 5510 H 503.24 5.44039 2.22026 0
M  V30 5511 H 504.764 5.24195 3.13133 0
M  V30 5512 H 506.178 5.66206 0.899082 0
M  V30 5513 H 504.575 5.99821 0.182857 0
M  V30 5514 H 505.645 4.81324 -0.587821 0
M  V30 5515 N 506.988 0.0434614 1.5754 0
M  V30 5516 C 507.918 -0.931651 2.14109 0
M  V30 5517 C 508.899 -1.32971 1.06079 0
M  V30 5518 O 510.084 -1.40579 1.33982 0
M  V30 5519 C 507.214 -2.20914 2.67982 0
M  V30 5520 C 506.168 -1.95139 3.80926 0
M  V30 5521 C 505.494 -3.29276 4.21285 0
M  V30 5522 C 506.794 -1.27913 5.06395 0
M  V30 5523 H 508.488 -0.460497 2.95837 0
M  V30 5524 H 506.034 -0.220058 1.42309 0
M  V30 5525 H 507.987 -2.89522 3.06194 0
M  V30 5526 H 506.711 -2.70221 1.83434 0
M  V30 5527 H 505.37 -1.28945 3.43175 0
M  V30 5528 H 505.018 -3.76369 3.33699 0
M  V30 5529 H 504.718 -3.12831 4.97404 0
M  V30 5530 H 506.242 -3.99129 4.62091 0
M  V30 5531 H 507.656 -1.86544 5.42102 0
M  V30 5532 H 506.053 -1.2182 5.87605 0
M  V30 5533 H 507.123 -0.254066 4.84234 0
M  V30 5534 N 508.466 -1.55915 -0.229846 0
M  V30 5535 C 509.376 -1.94891 -1.30593 0
M  V30 5536 C 510.392 -0.851604 -1.51736 0
M  V30 5537 O 511.568 -1.15447 -1.65027 0
M  V30 5538 C 508.633 -2.25052 -2.63728 0
M  V30 5539 C 507.694 -3.48306 -2.5096 0
M  V30 5540 C 506.927 -3.77019 -3.77747 0
M  V30 5541 O 507.15 -3.07534 -4.80395 0
M  V30 5542 O 506.084 -4.70523 -3.75356 0
M  V30 5543 H 509.91 -2.86581 -1.00525 0
M  V30 5544 H 507.495 -1.43017 -0.432025 0
M  V30 5545 H 509.377 -2.45682 -3.42372 0
M  V30 5546 H 508.052 -1.36538 -2.93495 0
M  V30 5547 H 506.959 -3.32964 -1.70546 0
M  V30 5548 H 508.292 -4.37177 -2.26136 0
M  V30 5549 N 509.944 0.496216 -1.49584 0
M  V30 5550 C 510.892 1.61805 -1.67098 0
M  V30 5551 C 511.886 1.60667 -0.536877 0
M  V30 5552 O 513.092 1.65118 -0.716654 0
M  V30 5553 H 509.467 0.53646 -0.526986 0
M  V30 5554 H 511.438 1.44187 -2.61252 0
M  V30 5555 C 510.187 2.99912 -1.75921 0
M  V30 5556 H 509.51 3.01496 -2.62565 0
M  V30 5557 H 510.95 3.77931 -1.92209 0
M  V30 5558 C 509.409 3.33092 -0.505088 0
M  V30 5559 O 509.939 4.00019 0.367085 0
M  V30 5560 N 508.145 2.88278 -0.366599 0
M  V30 5561 H 507.692 2.33989 -1.07735 0
M  V30 5562 H 507.65 3.10846 0.47142 0
M  V30 5563 N 511.423 1.38739 0.74761 0
M  V30 5564 C 512.671 1.35007 1.50391 0
M  V30 5565 C 512.992 -0.0574274 1.94915 0
M  V30 5566 O 512.262 -1.00628 1.6808 0
M  V30 5567 H 510.842 0.496784 0.557866 0
M  V30 5568 H 513.504 1.73479 0.888319 0
M  V30 5569 H 512.6 2.00474 2.392 0
M  V30 5570 N 512.901 -0.976442 1.23707 0
M  V30 5571 C 513.864 -2.0511 1.02287 0
M  V30 5572 C 514.864 -1.60791 -0.0167195 0
M  V30 5573 O 516.054 -1.72761 0.223408 0
M  V30 5574 C 513.186 -3.36458 0.548507 0
M  V30 5575 H 514.379 -2.25545 1.9766 0
M  V30 5576 H 511.932 -1.15042 1.05806 0
M  V30 5577 H 512.667 -3.21713 -0.408818 0
M  V30 5578 H 512.452 -3.69967 1.29874 0
M  V30 5579 H 513.942 -4.15489 0.419406 0
M  V30 5580 N 514.379 -1.04941 -1.1758 0
M  V30 5581 C 515.326 -0.648155 -2.21512 0
M  V30 5582 C 516.296 0.348431 -1.62404 0
M  V30 5583 O 517.481 0.240419 -1.89279 0
M  V30 5584 C 514.621 -0.0264291 -3.4509 0
M  V30 5585 C 513.734 -1.07154 -4.185 0
M  V30 5586 C 512.869 -0.417403 -5.29558 0
M  V30 5587 C 511.908 -1.447 -5.94751 0
M  V30 5588 N 511.045 -0.817203 -6.97328 0
M  V30 5589 H 515.885 -1.53891 -2.55189 0
M  V30 5590 H 513.422 -0.769699 -1.25356 0
M  V30 5591 H 515.38 0.351456 -4.15717 0
M  V30 5592 H 514.01 0.827802 -3.12005 0
M  V30 5593 H 513.062 -1.56728 -3.46613 0
M  V30 5594 H 514.374 -1.8532 -4.63096 0
M  V30 5595 H 513.528 0.0142061 -6.06698 0
M  V30 5596 H 512.267 0.396265 -4.86087 0
M  V30 5597 H 511.272 -1.88865 -5.16343 0
M  V30 5598 H 512.497 -2.26252 -6.40302 0
M  V30 5599 H 510.443 -0.0239995 -6.55996 0
M  V30 5600 H 510.36 -1.53644 -7.40223 0
M  V30 5601 H 511.628 -0.410283 -7.7842 0
M  V30 5602 N 515.857 1.33968 -0.830081 0
M  V30 5603 C 517.103 1.98357 -0.422191 0
M  V30 5604 C 517.436 1.65633 1.01387 0
M  V30 5605 O 516.711 0.931648 1.70735 0
M  V30 5606 C 516.994 3.54492 -0.633043 0
M  V30 5607 C 516.847 3.96934 -2.11574 0
M  V30 5608 C 518.166 4.40039 -0.0735584 0
M  V30 5609 H 515.285 0.720544 -0.154871 0
M  V30 5610 H 517.927 1.58749 -1.04397 0
M  V30 5611 H 516.077 3.88361 -0.103775 0
M  V30 5612 H 517.749 3.73363 -2.7092 0
M  V30 5613 H 515.992 3.46984 -2.60354 0
M  V30 5614 H 516.663 5.05651 -2.21406 0
M  V30 5615 H 519.139 4.12764 -0.52585 0
M  V30 5616 H 518.015 5.48327 -0.250841 0
M  V30 5617 H 518.276 4.30124 1.02202 0
M  V30 5618 N 517.335 0.585699 1.46312 0
M  V30 5619 C 518.575 0.0751432 2.04262 0
M  V30 5620 C 518.939 -1.26201 1.44697 0
M  V30 5621 O 520.14 -1.86198 1.93865 0
M  V30 5622 C 518.411 0.013478 3.57397 0
M  V30 5623 S 519.97 -0.439068 4.36598 0
M  V30 5624 H 516.788 0.0389228 0.709934 0
M  V30 5625 H 519.39 0.778871 1.79315 0
M  V30 5626 H 518.094 0.990558 3.98266 0
M  V30 5627 H 517.625 -0.712927 3.86886 0
M  V30 5628 H 519.64 -1.6932 4.66417 0
M  V30 5629 N 518.813 -1.54241 0.323641 0
M  V30 5630 C 520.038 -2.05452 -0.283605 0
M  V30 5631 C 520.463 -1.19823 -1.44997 0
M  V30 5632 O 519.821 -0.207358 -1.8011 0
M  V30 5633 C 519.869 -3.53823 -0.695795 0
M  V30 5634 O 518.973 -3.71134 -1.79815 0
M  V30 5635 H 518.314 -0.662024 -0.0511917 0
M  V30 5636 H 520.844 -1.99079 0.472073 0
M  V30 5637 H 520.854 -3.96094 -0.978434 0
M  V30 5638 H 519.529 -4.15602 0.157287 0
M  V30 5639 H 518.106 -3.40768 -1.51431 0
M  V30 5640 N 520.291 -0.0518155 -1.57515 0
M  V30 5641 C 521.538 0.621823 -1.92716 0
M  V30 5642 C 521.866 1.70813 -0.930229 0
M  V30 5643 O 521.121 1.95616 0.0573708 0
M  V30 5644 C 521.42 1.25607 -3.34601 0
M  V30 5645 C 521.086 0.297901 -4.49915 0
M  V30 5646 C 519.748 0.034243 -4.81188 0
M  V30 5647 C 522.1 -0.358738 -5.19964 0
M  V30 5648 C 519.428 -0.893479 -5.79857 0
M  V30 5649 C 521.78 -1.27466 -6.19625 0
M  V30 5650 C 520.444 -1.54698 -6.49326 0
M  V30 5651 H 519.714 0.227541 -0.705199 0
M  V30 5652 H 522.361 -0.118432 -1.91133 0
M  V30 5653 H 520.666 2.07161 -3.32553 0
M  V30 5654 H 522.363 1.78424 -3.59118 0
M  V30 5655 H 518.953 0.513581 -4.25512 0
M  V30 5656 H 523.137 -0.168133 -4.96015 0
M  V30 5657 H 518.393 -1.11193 -6.01204 0
M  V30 5658 H 522.567 -1.78953 -6.73015 0
M  V30 5659 H 520.194 -2.26748 -7.25596 0
M  V30 5660 N 521.769 1.56035 0.221574 0
M  V30 5661 C 523.016 1.79047 0.94597 0
M  V30 5662 C 523.344 0.62057 1.84334 0
M  V30 5663 O 522.599 -0.395053 1.91671 0
M  V30 5664 C 522.898 3.07813 1.8162 0
M  V30 5665 C 522.564 4.3797 1.07206 0
M  V30 5666 C 521.226 4.73334 0.866508 0
M  V30 5667 C 523.578 5.18326 0.546565 0
M  V30 5668 C 520.906 5.8657 0.123549 0
M  V30 5669 C 523.258 6.32335 -0.18305 0
M  V30 5670 C 521.922 6.66301 -0.399861 0
M  V30 5671 H 521.192 0.655178 0.346155 0
M  V30 5672 H 523.839 1.90299 0.214146 0
M  V30 5673 H 522.144 2.91682 2.61589 0
M  V30 5674 H 523.841 3.2282 2.37884 0
M  V30 5675 H 520.431 4.10202 1.24226 0
M  V30 5676 H 524.615 4.9144 0.692847 0
M  V30 5677 H 519.871 6.11376 -0.0546591 0
M  V30 5678 H 524.045 6.9383 -0.59775 0
M  V30 5679 H 521.672 7.53889 -0.977489 0
M  V30 5680 N 523.247 -0.488276 1.49845 0
M  V30 5681 C 524.194 -1.58836 1.67451 0
M  V30 5682 C 525.164 -1.57886 0.515857 0
M  V30 5683 O 526.349 -1.75679 0.744403 0
M  V30 5684 C 523.489 -2.96915 1.75885 0
M  V30 5685 C 522.602 -3.07784 3.03138 0
M  V30 5686 C 521.737 -4.36673 3.02473 0
M  V30 5687 C 520.776 -4.41222 4.24252 0
M  V30 5688 N 519.913 -5.61557 4.21424 0
M  V30 5689 H 524.753 -1.43131 2.61376 0
M  V30 5690 H 522.29 -0.696186 1.29583 0
M  V30 5691 H 524.248 -3.76965 1.78755 0
M  V30 5692 H 522.878 -3.11295 0.85414 0
M  V30 5693 H 521.93 -2.20717 3.09819 0
M  V30 5694 H 523.242 -3.07005 3.93128 0
M  V30 5695 H 522.396 -5.25055 3.03977 0
M  V30 5696 H 521.135 -4.40037 2.10283 0
M  V30 5697 H 520.14 -3.5124 4.22978 0
M  V30 5698 H 521.365 -4.39564 5.17649 0
M  V30 5699 H 519.311 -5.65738 3.32078 0
M  V30 5700 H 519.228 -5.62447 5.05163 0
M  V30 5701 H 520.496 -6.52111 4.2705 0
M  V30 5702 N 524.725 -1.39134 -0.740242 0
M  V30 5703 C 525.657 -1.33332 -1.86428 0
M  V30 5704 C 526.67 -0.243042 -1.60976 0
M  V30 5705 O 527.859 -0.501608 -1.71307 0
M  V30 5706 C 524.959 -1.04626 -3.22346 0
M  V30 5707 C 524.132 -2.24826 -3.75196 0
M  V30 5708 C 523.191 -1.92659 -4.89662 0
M  V30 5709 O 522.217 -2.6529 -5.03597 0
M  V30 5710 N 523.419 -0.889575 -5.73643 0
M  V30 5711 H 526.184 -2.30196 -1.91911 0
M  V30 5712 H 523.745 -1.33168 -0.920756 0
M  V30 5713 H 525.737 -0.811347 -3.96484 0
M  V30 5714 H 524.307 -0.165129 -3.12164 0
M  V30 5715 H 523.527 -2.64301 -2.9247 0
M  V30 5716 H 524.815 -3.05015 -4.07239 0
M  V30 5717 H 524.213 -0.287529 -5.64969 0
M  V30 5718 H 522.77 -0.714557 -6.47871 0
M  V30 5719 N 526.204 0.969867 -1.24223 0
M  V30 5720 C 527.154 2.04913 -0.999732 0
M  V30 5721 C 528.138 1.60795 0.0580636 0
M  V30 5722 O 529.33 1.76317 -0.155392 0
M  V30 5723 C 526.459 3.37942 -0.604154 0
M  V30 5724 C 525.545 3.88628 -1.69791 0
M  V30 5725 N 525.936 4.12274 -2.93025 0
M  V30 5726 C 524.234 4.17268 -1.57492 0
M  V30 5727 C 524.935 4.53808 -3.63914 0
M  V30 5728 N 523.911 4.58855 -2.91468 0
M  V30 5729 H 527.713 2.21168 -1.93551 0
M  V30 5730 H 525.227 1.15349 -1.14317 0
M  V30 5731 H 527.224 4.14863 -0.411665 0
M  V30 5732 H 525.884 3.23075 0.324465 0
M  V30 5733 H 526.895 3.99789 -3.29225 0
M  V30 5734 H 523.572 4.11346 -0.714175 0
M  V30 5735 H 524.962 4.80534 -4.69614 0
M  V30 5736 N 527.682 1.05563 1.17022 0
M  V30 5737 C 528.645 0.664098 2.19368 0
M  V30 5738 C 529.645 -0.286358 1.5823 0
M  V30 5739 O 530.835 -0.069728 1.7406 0
M  V30 5740 C 527.967 -0.0239932 3.40892 0
M  V30 5741 H 529.16 1.57 2.55521 0
M  V30 5742 H 526.713 0.849964 1.31169 0
M  V30 5743 H 527.448 -0.942988 3.10287 0
M  V30 5744 H 527.233 0.659351 3.86516 0
M  V30 5745 H 528.723 -0.283909 4.16634 0
M  V30 5746 N 529.16 -1.33526 0.837174 0
M  V30 5747 C 530.571 -1.80182 0.489017 0
M  V30 5748 C 530.922 -1.69285 -0.991826 0
M  V30 5749 O 530.047 -1.24113 -1.77271 0
M  V30 5750 C 530.642 -3.27149 0.880866 0
M  V30 5751 C 529.201 -3.71828 0.584872 0
M  V30 5752 C 528.348 -2.54974 1.09011 0
M  V30 5753 H 531.299 -1.21071 1.02603 0
M  V30 5754 H 531.32 -3.80024 0.190239 0
M  V30 5755 H 530.832 -3.35048 1.95869 0
M  V30 5756 H 528.933 -3.69457 -0.48295 0
M  V30 5757 H 529.046 -4.65366 1.13892 0
M  V30 5758 H 527.41 -2.4952 0.511047 0
M  V30 5759 H 528.193 -2.65637 2.17467 0
M  V30 5760 N 530.638 -0.59345 -1.46 0
M  V30 5761 C 531.886 -0.082988 -2.0193 0
M  V30 5762 C 532.207 1.28569 -1.46612 0
M  V30 5763 O 531.477 1.84629 -0.654909 0
M  V30 5764 H 530.057 -0.0276882 -0.746487 0
M  V30 5765 H 532.719 -0.771657 -1.78973 0
M  V30 5766 H 531.815 -0.022079 -3.12092 0
M  V30 5767 N 532.116 1.54067 -0.331816 0
M  V30 5768 C 533.364 2.00319 0.267739 0
M  V30 5769 C 533.685 1.22148 1.52003 0
M  V30 5770 O 532.955 0.325494 1.93177 0
M  V30 5771 H 531.535 0.740014 0.101922 0
M  V30 5772 H 534.197 1.89628 -0.450267 0
M  V30 5773 H 533.293 3.07765 0.518385 0
M  V30 5774 N 533.594 0.0601682 1.57485 0
M  V30 5775 C 534.842 -0.610386 1.92662 0
M  V30 5776 C 535.163 -1.70849 0.939981 0
M  V30 5777 O 534.433 -1.95895 -0.0137455 0
M  V30 5778 H 533.013 -0.228457 0.711208 0
M  V30 5779 H 535.675 0.115288 1.94559 0
M  V30 5780 H 534.771 -1.0432 2.94149 0
M  V30 5781 N 535.072 -1.5615 -0.213296 0
M  V30 5782 C 536.297 -1.83986 -0.957282 0
M  V30 5783 C 536.722 -0.641526 -1.76822 0
M  V30 5784 O 536.08 0.409722 -1.7661 0
M  V30 5785 C 536.128 -3.09889 -1.84393 0
M  V30 5786 O 535.232 -2.89163 -2.94038 0
M  V30 5787 H 534.573 -0.606357 -0.270605 0
M  V30 5788 H 537.103 -2.03369 -0.224111 0
M  V30 5789 H 537.113 -3.40209 -2.25215 0
M  V30 5790 H 535.788 -3.96735 -1.24795 0
M  V30 5791 H 534.365 -2.70097 -2.57103 0
M  V30 5792 N 536.55 0.480323 -1.50102 0
M  V30 5793 C 537.778 1.25657 -1.64371 0
M  V30 5794 C 538.193 1.86011 -0.323316 0
M  V30 5795 O 537.55 1.68803 0.693682 0
M  V30 5796 C 537.601 2.37197 -2.728 0
M  V30 5797 O 537.322 1.7932 -3.9972 0
M  V30 5798 C 538.823 3.2823 -2.9796 0
M  V30 5799 H 536.043 0.380369 -0.552775 0
M  V30 5800 H 538.587 0.574379 -1.96268 0
M  V30 5801 H 536.742 3.01208 -2.43623 0
M  V30 5802 H 537.156 2.52701 -4.59611 0
M  V30 5803 H 538.63 4.02725 -3.77513 0
M  V30 5804 H 539.107 3.86462 -2.08671 0
M  V30 5805 H 539.713 2.69964 -3.28633 0
M  V30 5806 N 538.028 1.39524 0.732853 0
M  V30 5807 C 539.256 1.40143 1.52209 0
M  V30 5808 C 539.671 -0.00348836 1.888 0
M  V30 5809 O 539.028 -0.975357 1.5425 0
M  V30 5810 C 539.079 2.27632 2.8083 0
M  V30 5811 O 538.8 3.62654 2.45792 0
M  V30 5812 C 540.301 2.36658 3.74844 0
M  V30 5813 H 537.521 0.478604 0.470297 0
M  V30 5814 H 540.065 1.83366 0.905388 0
M  V30 5815 H 538.22 1.87818 3.38826 0
M  V30 5816 H 538.634 4.08941 3.28431 0
M  V30 5817 H 540.108 3.02118 4.61984 0
M  V30 5818 H 540.585 1.38638 4.16745 0
M  V30 5819 H 541.191 2.76951 3.22766 0
M  V30 5820 N 539.506 -0.963266 1.24736 0
M  V30 5821 C 540.917 -1.52145 1.08207 0
M  V30 5822 C 541.268 -1.93142 -0.345061 0
M  V30 5823 O 540.393 -1.77769 -1.23399 0
M  V30 5824 C 540.988 -2.76486 1.95808 0
M  V30 5825 C 539.547 -3.28646 1.8349 0
M  V30 5826 C 538.694 -2.01529 1.90476 0
M  V30 5827 H 541.645 -0.781083 1.38148 0
M  V30 5828 H 541.666 -3.49986 1.49297 0
M  V30 5829 H 541.178 -2.46617 2.99669 0
M  V30 5830 H 539.279 -3.63357 0.824787 0
M  V30 5831 H 539.392 -3.97246 2.67829 0
M  V30 5832 H 537.756 -2.16442 1.34258 0
M  V30 5833 H 538.539 -1.7402 2.95926 0
M  V30 5834 N 540.985 -1.06182 -1.16461 0
M  V30 5835 C 542.233 -0.776326 -1.86595 0
M  V30 5836 C 542.554 0.69921 -1.82033 0
M  V30 5837 O 541.824 1.50579 -1.2531 0
M  V30 5838 H 540.404 -0.284184 -0.690832 0
M  V30 5839 H 543.066 -1.34308 -1.41235 0
M  V30 5840 H 542.162 -1.10022 -2.92064 0
M  V30 5841 N 542.463 1.3308 -0.844243 0
M  V30 5842 C 543.393 2.3161 -0.296493 0
M  V30 5843 C 544.374 1.59215 0.598707 0
M  V30 5844 O 545.559 1.87077 0.521134 0
M  V30 5845 C 542.689 3.43313 0.524762 0
M  V30 5846 C 541.643 4.27115 -0.275106 0
M  V30 5847 C 540.969 5.30483 0.670236 0
M  V30 5848 C 542.269 5.00443 -1.49514 0
M  V30 5849 H 543.963 2.77672 -1.11976 0
M  V30 5850 H 541.509 1.33496 -0.539899 0
M  V30 5851 H 543.462 4.11273 0.918298 0
M  V30 5852 H 542.186 2.95952 1.3813 0
M  V30 5853 H 540.845 3.60787 -0.650267 0
M  V30 5854 H 540.493 4.79379 1.52332 0
M  V30 5855 H 540.193 5.87435 0.139123 0
M  V30 5856 H 541.717 6.01308 1.06117 0
M  V30 5857 H 543.131 5.61141 -1.17447 0
M  V30 5858 H 541.528 5.67071 -1.96343 0
M  V30 5859 H 542.598 4.28906 -2.26202 0
M  V30 5860 N 543.941 0.601185 1.45683 0
M  V30 5861 C 544.851 -0.123395 2.34275 0
M  V30 5862 C 545.867 -0.86702 1.5086 0
M  V30 5863 O 547.043 -0.826049 1.8368 0
M  V30 5864 C 544.108 -1.11237 3.2837 0
M  V30 5865 C 543.169 -0.371405 4.2769 0
M  V30 5866 C 542.402 -1.31327 5.1729 0
M  V30 5867 O 542.625 -2.55078 5.10188 0
M  V30 5868 O 541.559 -0.813811 5.96373 0
M  V30 5869 H 545.385 0.604483 2.97623 0
M  V30 5870 H 542.97 0.361477 1.44961 0
M  V30 5871 H 544.852 -1.68214 3.8637 0
M  V30 5872 H 543.527 -1.82139 2.67595 0
M  V30 5873 H 542.434 0.24067 3.73325 0
M  V30 5874 H 543.767 0.296998 4.91303 0
M  V30 5875 N 545.419 -1.53889 0.339982 0
M  V30 5876 C 546.835 -1.59595 -0.0120752 0
M  V30 5877 C 547.035 -1.35605 -1.49042 0
M  V30 5878 O 546.091 -1.14856 -2.24865 0
M  V30 5879 C 547.404 -2.9774 0.420898 0
M  V30 5880 C 548.952 -3.1077 0.37294 0
M  V30 5881 C 549.427 -4.51286 0.781327 0
M  V30 5882 N 550.918 -4.57325 0.735374 0
M  V30 5883 C 551.653 -5.64194 1.02336 0
M  V30 5884 N 551.149 -6.7893 1.37933 0
M  V30 5885 N 552.942 -5.54051 0.947838 0
M  V30 5886 H 545.093 -1.67738 1.30299 0
M  V30 5887 H 547.356 -0.785385 0.530918 0
M  V30 5888 H 547.062 -3.20349 1.45152 0
M  V30 5889 H 546.936 -3.76639 -0.205721 0
M  V30 5890 H 549.323 -2.87886 -0.648505 0
M  V30 5891 H 549.404 -2.33939 1.03472 0
M  V30 5892 H 549.048 -4.74905 1.80077 0
M  V30 5893 H 548.978 -5.26511 0.0970679 0
M  V30 5894 H 551.469 -3.74931 0.472773 0
M  V30 5895 H 551.782 -7.56392 1.58402 0
M  V30 5896 H 550.127 -6.80386 1.41774 0
M  V30 5897 H 553.318 -4.63293 0.669115 0
M  V30 5898 H 553.491 -6.37246 1.17563 0
M  V30 5899 N 546.897 -0.0685191 -1.57451 0
M  V30 5900 C 547.829 0.929372 -2.09512 0
M  V30 5901 C 548.842 1.26354 -1.02657 0
M  V30 5902 O 550.031 1.2213 -1.30179 0
M  V30 5903 C 547.131 2.24612 -2.53777 0
M  V30 5904 C 546.304 2.09128 -3.84167 0
M  V30 5905 C 545.363 3.24079 -4.14559 0
M  V30 5906 O 544.389 2.99215 -4.8421 0
M  V30 5907 N 545.591 4.49077 -3.67845 0
M  V30 5908 H 548.356 0.484901 -2.95751 0
M  V30 5909 H 545.917 0.11729 -1.61475 0
M  V30 5910 H 547.909 3.00412 -2.71172 0
M  V30 5911 H 546.479 2.60569 -1.72692 0
M  V30 5912 H 545.699 1.17815 -3.76182 0
M  V30 5913 H 546.987 1.9603 -4.69521 0
M  V30 5914 H 546.385 4.72165 -3.11571 0
M  V30 5915 H 544.942 5.21915 -3.90446 0
M  V30 5916 N 548.375 1.56261 0.205012 0
M  V30 5917 C 549.325 1.90155 1.25798 0
M  V30 5918 C 550.309 0.766227 1.41484 0
M  V30 5919 O 551.501 1.02893 1.44021 0
M  V30 5920 C 548.63 2.23603 2.60493 0
M  V30 5921 C 547.716 3.43568 2.48639 0
M  V30 5922 N 548.107 4.61747 2.06455 0
M  V30 5923 C 546.405 3.4751 2.79558 0
M  V30 5924 C 547.106 5.43907 2.06253 0
M  V30 5925 N 546.082 4.84051 2.47377 0
M  V30 5926 H 549.884 2.79031 0.922986 0
M  V30 5927 H 547.398 1.57048 0.413501 0
M  V30 5928 H 549.395 2.46067 3.36537 0
M  V30 5929 H 548.055 1.36049 2.94823 0
M  V30 5930 H 549.066 4.86598 1.77321 0
M  V30 5931 H 545.743 2.70345 3.18151 0
M  V30 5932 H 547.133 6.48542 1.75622 0
M  V30 5933 N 549.853 -0.472356 1.50355 0
M  V30 5934 C 551.078 -1.25251 1.65309 0
M  V30 5935 C 551.503 -1.85081 0.335643 0
M  V30 5936 O 550.861 -1.67227 -0.700335 0
M  V30 5937 C 550.909 -2.3379 2.74544 0
M  V30 5938 O 550.013 -3.38401 2.35709 0
M  V30 5939 H 549.354 -0.368539 0.552336 0
M  V30 5940 H 551.884 -0.562271 1.96722 0
M  V30 5941 H 551.894 -2.79121 2.97583 0
M  V30 5942 H 550.569 -1.89614 3.70161 0
M  V30 5943 H 549.146 -2.9879 2.23112 0
M  V30 5944 N 551.331 -1.39911 -0.725443 0
M  V30 5945 C 552.261 -1.42138 -1.85254 0
M  V30 5946 C 553.242 -0.283513 -1.67721 0
M  V30 5947 O 554.427 -0.490717 -1.87898 0
M  V30 5948 C 551.557 -1.27354 -3.23107 0
M  V30 5949 C 550.511 -2.3864 -3.55296 0
M  V30 5950 C 549.837 -2.08939 -4.92188 0
M  V30 5951 C 551.137 -3.8097 -3.57295 0
M  V30 5952 H 552.831 -2.36461 -1.83648 0
M  V30 5953 H 550.377 -1.13817 -0.882138 0
M  V30 5954 H 552.33 -1.2753 -4.01639 0
M  V30 5955 H 551.054 -0.295025 -3.25265 0
M  V30 5956 H 549.713 -2.37696 -2.79099 0
M  V30 5957 H 549.361 -1.09502 -4.90936 0
M  V30 5958 H 549.061 -2.83491 -5.14691 0
M  V30 5959 H 550.585 -2.10781 -5.73065 0
M  V30 5960 H 551.999 -3.8379 -4.25885 0
M  V30 5961 H 550.396 -4.5496 -3.9132 0
M  V30 5962 H 551.466 -4.11261 -2.5689 0
M  V30 5963 N 552.809 0.956637 -1.25245 0
M  V30 5964 C 553.756 2.053 -1.05454 0
M  V30 5965 C 554.726 1.66062 0.0356889 0
M  V30 5966 O 555.911 1.90415 -0.121099 0
M  V30 5967 C 553.051 3.38391 -0.677191 0
M  V30 5968 C 552.164 3.90758 -1.84206 0
M  V30 5969 C 551.299 5.12165 -1.40926 0
M  V30 5970 C 550.338 5.56757 -2.54338 0
M  V30 5971 N 549.475 6.69376 -2.11848 0
M  V30 5972 H 554.315 2.21562 -1.99284 0
M  V30 5973 H 551.852 1.08578 -0.992434 0
M  V30 5974 H 553.81 4.1488 -0.43938 0
M  V30 5975 H 552.44 3.22021 0.224127 0
M  V30 5976 H 551.492 3.10808 -2.19323 0
M  V30 5977 H 552.804 4.19802 -2.69383 0
M  V30 5978 H 551.958 5.96065 -1.13098 0
M  V30 5979 H 550.697 4.84832 -0.528175 0
M  V30 5980 H 549.702 4.71423 -2.82913 0
M  V30 5981 H 550.927 5.861 -3.43022 0
M  V30 5982 H 548.873 6.43756 -1.26153 0
M  V30 5983 H 548.79 6.97927 -2.90574 0
M  V30 5984 H 550.058 7.5669 -1.87191 0
M  V30 5985 N 554.287 1.06798 1.15896 0
M  V30 5986 C 555.234 0.683314 2.20453 0
M  V30 5987 C 556.204 -0.32255 1.62938 0
M  V30 5988 O 557.389 -0.210276 1.89638 0
M  V30 5989 C 554.529 0.0813266 3.45004 0
M  V30 5990 C 553.642 1.13799 4.16742 0
M  V30 5991 C 552.777 0.501598 5.28826 0
M  V30 5992 C 551.816 1.54144 5.92373 0
M  V30 5993 N 550.953 0.928038 6.9594 0
M  V30 5994 H 555.793 1.57932 2.52708 0
M  V30 5995 H 553.33 0.789544 1.24115 0
M  V30 5996 H 555.288 -0.285274 4.16224 0
M  V30 5997 H 553.918 -0.77806 3.13283 0
M  V30 5998 H 552.97 1.62223 3.44075 0
M  V30 5999 H 554.282 1.92664 4.60089 0
M  V30 6000 H 553.436 0.0823162 6.06644 0
M  V30 6001 H 552.175 -0.318883 4.86656 0
M  V30 6002 H 551.18 1.97056 5.13273 0
M  V30 6003 H 552.405 2.3641 6.36621 0
M  V30 6004 H 550.351 0.12836 6.55874 0
M  V30 6005 H 550.268 1.65401 7.37685 0
M  V30 6006 H 551.536 0.534071 7.77668 0
M  V30 6007 N 555.766 -1.3263 0.851289 0
M  V30 6008 C 556.991 -2.02097 0.466006 0
M  V30 6009 C 557.416 -1.63574 -0.928709 0
M  V30 6010 O 556.774 -0.834665 -1.60944 0
M  V30 6011 C 556.822 -3.55425 0.608737 0
M  V30 6012 O 555.926 -4.10827 -0.359878 0
M  V30 6013 H 555.267 -0.636911 0.187724 0
M  V30 6014 H 557.797 -1.69253 1.14955 0
M  V30 6015 H 557.807 -4.04986 0.495006 0
M  V30 6016 H 556.482 -3.82806 1.62581 0
M  V30 6017 H 555.059 -3.72349 -0.202666 0
M  V30 6018 N 557.244 -0.608902 -1.45362 0
M  V30 6019 C 558.66 -0.272659 -1.57254 0
M  V30 6020 C 558.86 1.22477 -1.60005 0
M  V30 6021 O 557.916 2.00785 -1.53106 0
M  V30 6022 C 559.229 -0.944991 -2.85465 0
M  V30 6023 C 560.777 -0.921033 -2.99142 0
M  V30 6024 C 561.252 -1.5734 -4.30126 0
M  V30 6025 N 562.743 -1.53895 -4.36887 0
M  V30 6026 C 563.478 -2.01286 -5.36909 0
M  V30 6027 N 562.974 -2.56768 -6.43461 0
M  V30 6028 N 564.767 -1.92046 -5.28275 0
M  V30 6029 H 556.918 -1.58117 -1.4182 0
M  V30 6030 H 559.181 -0.662437 -0.678146 0
M  V30 6031 H 558.887 -1.99941 -2.89338 0
M  V30 6032 H 558.761 -0.469079 -3.74272 0
M  V30 6033 H 561.148 0.124846 -2.94836 0
M  V30 6034 H 561.229 -1.43522 -2.11743 0
M  V30 6035 H 560.873 -2.61862 -4.35191 0
M  V30 6036 H 560.803 -1.03422 -5.16344 0
M  V30 6037 H 563.294 -1.13366 -3.60495 0
M  V30 6038 H 563.607 -2.9072 -7.16032 0
M  V30 6039 H 561.952 -2.60808 -6.44208 0
M  V30 6040 H 565.143 -1.48439 -4.43941 0
M  V30 6041 H 565.316 -2.29293 -6.06077 0
M  V30 6042 N 558.722 1.53707 -0.348139 0
M  V30 6043 C 559.669 2.25173 0.506518 0
M  V30 6044 C 560.639 1.25174 1.09182 0
M  V30 6045 O 561.824 1.53917 1.12757 0
M  V30 6046 C 558.964 3.03141 1.64923 0
M  V30 6047 C 558.077 4.18002 1.0908 0
M  V30 6048 C 557.212 4.83447 2.20119 0
M  V30 6049 C 556.251 5.90369 1.61651 0
M  V30 6050 N 555.388 6.49575 2.66451 0
M  V30 6051 H 560.228 2.97799 -0.109452 0
M  V30 6052 H 557.765 1.46953 -0.0657866 0
M  V30 6053 H 559.723 3.46607 2.32205 0
M  V30 6054 H 558.353 2.32803 2.23612 0
M  V30 6055 H 557.405 3.79145 0.308783 0
M  V30 6056 H 558.717 4.94892 0.623178 0
M  V30 6057 H 557.871 5.30008 2.95257 0
M  V30 6058 H 556.61 4.05991 2.70227 0
M  V30 6059 H 555.615 5.43186 0.850209 0
M  V30 6060 H 556.84 6.69735 1.1239 0
M  V30 6061 H 554.786 5.74981 3.15805 0
M  V30 6062 H 554.703 7.21952 2.24325 0
M  V30 6063 H 555.971 7.00789 3.41344 0
M  V30 6064 N 560.2 0.0768682 1.57412 0
M  V30 6065 C 561.11 -0.903207 2.16516 0
M  V30 6066 C 562.126 -1.32341 1.12968 0
M  V30 6067 O 563.302 -1.39507 1.45258 0
M  V30 6068 C 560.367 -2.1508 2.71922 0
M  V30 6069 C 559.428 -1.78653 3.90361 0
M  V30 6070 C 558.661 -2.97465 4.43114 0
M  V30 6071 O 558.884 -4.11638 3.94854 0
M  V30 6072 O 557.818 -2.76987 5.3438 0
M  V30 6073 H 561.644 -0.430427 3.00634 0
M  V30 6074 H 559.229 -0.146485 1.4868 0
M  V30 6075 H 561.111 -2.8823 3.07411 0
M  V30 6076 H 559.786 -2.61446 1.9086 0
M  V30 6077 H 558.693 -1.0274 3.59716 0
M  V30 6078 H 560.026 -1.37066 4.7273 0
M  V30 6079 N 561.678 -1.56367 -0.196722 0
M  V30 6080 C 562.626 -1.95304 -1.2633 0
M  V30 6081 C 563.62 -0.838252 -1.47206 0
M  V30 6082 O 564.826 -1.02325 -1.48087 0
M  V30 6083 H 561.201 -0.621013 -0.424083 0
M  V30 6084 H 563.172 -2.84254 -0.907879 0
M  V30 6085 C 561.921 -2.3074 -2.60104 0
M  V30 6086 H 561.244 -3.16047 -2.44856 0
M  V30 6087 H 562.684 -2.61849 -3.33484 0
M  V30 6088 C 561.143 -1.14143 -3.16975 0
M  V30 6089 O 561.673 -0.415602 -3.99544 0
M  V30 6090 N 559.879 -0.91867 -2.75697 0
M  V30 6091 H 559.426 -1.51065 -2.08656 0
M  V30 6092 H 559.384 -0.140321 -3.14087 0
M  V30 6093 N 563.156 0.464375 -1.50603 0
M  V30 6094 C 564.433 1.22549 -1.5245 0
M  V30 6095 C 564.813 2.09327 -0.273035 0
M  V30 6096 O 564.161 2.16074 0.743242 0
M  V30 6097 C 564.371 2.05074 -2.82393 0
M  V30 6098 C 565.719 2.63036 -3.33313 0
M  V30 6099 O 566.743 2.1531 -2.8376 0
M  V30 6100 O 565.602 3.5001 -4.19709 0
M  V30 6101 H 562.696 0.556471 -0.611775 0
M  V30 6102 H 565.242 0.475648 -1.62898 0
M  V30 6103 H 564.014 1.41169 -3.64948 0
M  V30 6104 H 563.637 2.87179 -2.7498 0
M  V30 6105 N 564.634 1.40294 0.718013 0
M  V30 6106 C 565.567 1.34767 1.84155 0
M  V30 6107 C 566.545 0.218455 1.61126 0
M  V30 6108 O 567.729 0.401716 1.8417 0
M  V30 6109 C 564.856 1.09676 3.20451 0
M  V30 6110 C 563.902 2.25016 3.62312 0
M  V30 6111 S 564.735 3.87397 3.69707 0
M  V30 6112 C 565.891 3.64565 5.08766 0
M  V30 6113 H 566.124 2.29851 1.88562 0
M  V30 6114 H 563.657 1.2655 0.884555 0
M  V30 6115 H 565.615 0.95885 3.99144 0
M  V30 6116 H 564.276 0.162502 3.13679 0
M  V30 6117 H 563.469 2.03097 4.61268 0
M  V30 6118 H 563.071 2.35098 2.90869 0
M  V30 6119 H 565.363 3.22882 5.95612 0
M  V30 6120 H 566.306 4.63043 5.35721 0
M  V30 6121 H 566.714 2.98303 4.79245 0
M  V30 6122 N 566.112 -0.949982 1.2575 0
M  V30 6123 C 567.075 -2.02894 1.06615 0
M  V30 6124 C 568.075 -1.60791 0.0173905 0
M  V30 6125 O 569.265 -1.72249 0.260003 0
M  V30 6126 C 566.397 -3.35219 0.619751 0
M  V30 6127 H 567.59 -2.21302 2.02399 0
M  V30 6128 H 565.143 -1.12772 1.08223 0
M  V30 6129 H 565.878 -3.22508 -0.340486 0
M  V30 6130 H 565.663 -3.67129 1.37692 0
M  V30 6131 H 567.153 -4.14505 0.507443 0
M  V30 6132 N 567.59 -1.07411 -1.15328 0
M  V30 6133 C 568.522 -0.652924 -2.19703 0
M  V30 6134 C 569.535 0.294869 -1.60107 0
M  V30 6135 O 570.724 0.0840932 -1.78302 0
M  V30 6136 C 567.824 0.061434 -3.38844 0
M  V30 6137 C 566.997 -0.902696 -4.27984 0
M  V30 6138 C 566.056 -0.225521 -5.25717 0
M  V30 6139 O 565.082 -0.86676 -5.62562 0
M  V30 6140 N 566.284 1.02858 -5.71315 0
M  V30 6141 H 569.049 -1.55081 -2.56457 0
M  V30 6142 H 566.61 -0.958883 -1.30449 0
M  V30 6143 H 568.602 0.525145 -4.01278 0
M  V30 6144 H 567.172 0.861269 -3.00501 0
M  V30 6145 H 566.392 -1.54551 -3.6264 0
M  V30 6146 H 567.68 -1.55636 -4.84412 0
M  V30 6147 H 567.078 1.56948 -5.43492 0
M  V30 6148 H 565.635 1.43596 -6.35786 0
M  V30 6149 N 569.068 1.32177 -0.85831 0
M  V30 6150 C 570.293 2.01847 -0.476718 0
M  V30 6151 C 570.718 1.64065 0.920021 0
M  V30 6152 O 570.076 0.843189 1.60499 0
M  V30 6153 C 570.124 3.55097 -0.627578 0
M  V30 6154 O 569.228 4.11012 0.338086 0
M  V30 6155 H 568.569 0.635907 -0.191099 0
M  V30 6156 H 571.099 1.68641 -1.15851 0
M  V30 6157 H 571.109 4.04718 -0.516476 0
M  V30 6158 H 569.784 3.81938 -1.64609 0
M  V30 6159 H 568.361 3.72451 0.182917 0
M  V30 6160 N 570.547 0.616602 1.45037 0
M  V30 6161 C 571.477 -0.0840787 2.33349 0
M  V30 6162 C 572.458 -0.849641 1.4736 0
M  V30 6163 O 573.643 -0.818407 1.76113 0
M  V30 6164 C 570.773 -1.07604 3.3021 0
M  V30 6165 C 569.727 -0.423096 4.25904 0
M  V30 6166 C 569.053 -1.52394 5.12523 0
M  V30 6167 C 570.353 0.661457 5.18095 0
M  V30 6168 H 572.047 0.653333 2.92185 0
M  V30 6169 H 569.593 0.315634 1.40498 0
M  V30 6170 H 571.546 -1.57485 3.90866 0
M  V30 6171 H 570.27 -1.84416 2.69552 0
M  V30 6172 H 568.929 0.05493 3.66559 0
M  V30 6173 H 568.577 -2.28257 4.48227 0
M  V30 6174 H 568.277 -1.09251 5.77354 0
M  V30 6175 H 569.801 -2.02485 5.76049 0
M  V30 6176 H 571.215 0.246353 5.7277 0
M  V30 6177 H 569.612 1.01517 5.91451 0
M  V30 6178 H 570.682 1.53446 4.59981 0
M  V30 6179 N 572.025 -1.5352 0.356285 0
M  V30 6180 C 572.975 -2.22204 -0.510815 0
M  V30 6181 C 573.959 -1.21393 -1.05605 0
M  V30 6182 O 575.151 -1.46883 -0.987639 0
M  V30 6183 C 572.28 -3.00786 -1.65478 0
M  V30 6184 C 571.366 -4.08965 -1.12287 0
M  V30 6185 N 571.757 -5.04829 -0.313191 0
M  V30 6186 C 570.055 -4.23505 -1.39856 0
M  V30 6187 C 570.756 -5.81695 -0.0230322 0
M  V30 6188 N 569.732 -5.40074 -0.618144 0
M  V30 6189 H 573.534 -2.93676 0.114711 0
M  V30 6190 H 571.048 -1.61572 0.163811 0
M  V30 6191 H 573.045 -3.48502 -2.28806 0
M  V30 6192 H 571.705 -2.30843 -2.28345 0
M  V30 6193 H 572.716 -5.17879 0.0468202 0
M  V30 6194 H 569.393 -3.64786 -2.0307 0
M  V30 6195 H 570.783 -6.68931 0.630927 0
M  V30 6196 N 573.503 -0.0852151 -1.57369 0
M  V30 6197 C 574.728 0.592872 -1.98746 0
M  V30 6198 C 575.153 1.61538 -0.963689 0
M  V30 6199 O 574.511 1.81168 0.069071 0
M  V30 6200 C 574.559 1.22599 -3.39119 0
M  V30 6201 O 573.663 2.34185 -3.39457 0
M  V30 6202 H 573.004 0.151314 -0.646529 0
M  V30 6203 H 575.534 -0.163703 -2.03944 0
M  V30 6204 H 575.544 1.56965 -3.76598 0
M  V30 6205 H 574.219 0.476831 -4.13158 0
M  V30 6206 H 572.796 2.01512 -3.13763 0
M  V30 6207 N 574.981 1.5647 0.188427 0
M  V30 6208 C 576.258 1.71857 0.934058 0
M  V30 6209 C 576.638 0.641867 2.01105 0
M  V30 6210 O 575.986 -0.346098 2.25864 0
M  V30 6211 C 576.196 3.14431 1.5144 0
M  V30 6212 C 577.544 3.74869 1.99396 0
M  V30 6213 O 578.568 3.17601 1.61269 0
M  V30 6214 O 577.427 4.75387 2.69573 0
M  V30 6215 H 574.521 0.701186 0.438483 0
M  V30 6216 H 577.067 1.68768 0.177599 0
M  V30 6217 H 575.839 3.8427 0.738416 0
M  V30 6218 H 575.462 3.21775 2.33552 0
M  V30 6219 N 576.459 -0.456382 1.50847 0
M  V30 6220 C 577.687 -1.23026 1.66349 0
M  V30 6221 C 578.102 -1.85473 0.352868 0
M  V30 6222 O 577.459 -1.69885 -0.666739 0
M  V30 6223 C 577.51 -2.32827 2.76539 0
M  V30 6224 O 577.231 -1.72938 4.02522 0
M  V30 6225 C 578.732 -3.23448 3.03144 0
M  V30 6226 H 575.952 -0.371527 0.558756 0
M  V30 6227 H 578.496 -0.543082 1.97157 0
M  V30 6228 H 576.651 -2.97294 2.48384 0
M  V30 6229 H 577.065 -2.45357 4.63573 0
M  V30 6230 H 578.539 -3.96669 3.83872 0
M  V30 6231 H 579.016 -3.83094 2.14793 0
M  V30 6232 H 579.622 -2.64702 3.32886 0
M  V30 6233 N 577.937 -1.40673 -0.710563 0
M  V30 6234 C 578.9 -1.4108 -1.80635 0
M  V30 6235 C 579.9 -0.303783 -1.57904 0
M  V30 6236 O 581.09 -0.562937 -1.64853 0
M  V30 6237 C 578.222 -1.20748 -3.18799 0
M  V30 6238 H 579.415 -2.38612 -1.81671 0
M  V30 6239 H 576.968 -1.26595 -0.916704 0
M  V30 6240 H 577.703 -0.239964 -3.23411 0
M  V30 6241 H 577.488 -2.00941 -3.36698 0
M  V30 6242 H 578.978 -1.23833 -3.98817 0
M  V30 6243 N 579.415 0.9433 -1.26252 0
M  V30 6244 C 580.692 1.66639 -1.02424 0
M  V30 6245 C 581.072 2.06335 0.446006 0
M  V30 6246 O 580.42 1.78551 1.42589 0
M  V30 6247 C 580.63 2.88019 -1.97094 0
M  V30 6248 C 581.978 3.59718 -2.25584 0
M  V30 6249 O 583.002 2.9812 -1.94943 0
M  V30 6250 O 581.861 4.7066 -2.77743 0
M  V30 6251 H 578.955 0.729643 -0.389294 0
M  V30 6252 H 581.501 0.995218 -1.37454 0
M  V30 6253 H 580.273 2.5556 -2.96319 0
M  V30 6254 H 579.896 3.62863 -1.62532 0
M  V30 6255 N 580.893 1.08022 1.14757 0
M  V30 6256 C 582.17 0.720386 1.81851 0
M  V30 6257 C 582.55 -0.796375 1.95502 0
M  V30 6258 O 581.898 -1.71339 1.51179 0
M  V30 6259 C 582.108 1.44273 3.17783 0
M  V30 6260 C 583.456 1.59925 3.93331 0
M  V30 6261 O 584.48 1.40407 3.2736 0
M  V30 6262 O 583.339 1.92096 5.11626 0
M  V30 6263 H 580.433 0.257142 0.786007 0
M  V30 6264 H 582.979 1.18155 1.21809 0
M  V30 6265 H 581.751 2.47618 3.02987 0
M  V30 6266 H 581.374 0.97279 3.85516 0
M  V30 6267 N 582.371 -1.3172 0.865308 0
M  V30 6268 C 583.599 -2.01057 0.488251 0
M  V30 6269 C 584.014 -1.64979 -0.918 0
M  V30 6270 O 583.371 -0.876597 -1.60069 0
M  V30 6271 C 583.422 -3.55964 0.630224 0
M  V30 6272 O 583.143 -3.90749 1.98109 0
M  V30 6273 C 584.644 -4.42574 0.253567 0
M  V30 6274 H 581.864 -0.64332 0.190736 0
M  V30 6275 H 584.408 -1.68058 1.16519 0
M  V30 6276 H 582.563 -3.874 0.000895422 0
M  V30 6277 H 582.977 -4.85467 1.9855 0
M  V30 6278 H 584.451 -5.50521 0.403875 0
M  V30 6279 H 584.928 -4.31724 -0.806895 0
M  V30 6280 H 585.534 -4.16547 0.858404 0
M  V30 6281 N 583.85 -0.624285 -1.44708 0
M  V30 6282 C 584.812 0.0749638 -2.29077 0
M  V30 6283 C 585.812 0.778965 -1.40673 0
M  V30 6284 O 587.003 0.624591 -1.62618 0
M  V30 6285 C 584.135 1.11663 -3.22094 0
M  V30 6286 H 585.327 -0.667013 -2.92388 0
M  V30 6287 H 582.88 -0.384098 -1.51507 0
M  V30 6288 H 583.615 1.88881 -2.63618 0
M  V30 6289 H 583.401 0.61583 -3.87234 0
M  V30 6290 H 584.891 1.60585 -3.8549 0
M  V30 6291 N 585.328 1.53329 -0.364422 0
M  V30 6292 C 586.278 2.22472 0.499024 0
M  V30 6293 C 587.262 1.21952 1.0496 0
M  V30 6294 O 588.454 1.47405 0.979836 0
M  V30 6295 C 585.583 3.01659 1.6388 0
M  V30 6296 C 584.669 4.09555 1.10116 0
M  V30 6297 N 585.06 5.04988 0.286414 0
M  V30 6298 C 583.358 4.2424 1.37608 0
M  V30 6299 C 584.059 5.81699 -0.00781682 0
M  V30 6300 N 583.035 5.40394 0.589494 0
M  V30 6301 H 586.837 2.93611 -0.130284 0
M  V30 6302 H 584.351 1.61483 -0.172377 0
M  V30 6303 H 586.348 3.4971 2.26954 0
M  V30 6304 H 585.008 2.32051 2.27118 0
M  V30 6305 H 586.019 5.17847 -0.0742839 0
M  V30 6306 H 582.696 3.65858 2.01133 0
M  V30 6307 H 584.086 6.68587 -0.666394 0
M  V30 6308 N 586.806 0.0935595 1.57322 0
M  V30 6309 C 588.222 -0.263091 1.57417 0
M  V30 6310 C 588.422 -1.68526 1.1046 0
M  V30 6311 O 587.478 -2.40139 0.780357 0
M  V30 6312 C 588.791 -0.0529201 3.00653 0
M  V30 6313 C 590.339 -0.120788 3.12767 0
M  V30 6314 C 590.814 0.0613707 4.57959 0
M  V30 6315 N 592.305 0.00648534 4.632 0
M  V30 6316 C 593.04 0.122699 5.73269 0
M  V30 6317 N 592.536 0.29366 6.92177 0
M  V30 6318 N 594.329 0.0640787 5.62063 0
M  V30 6319 H 586.48 1.02277 1.86154 0
M  V30 6320 H 588.743 0.4007 0.859153 0
M  V30 6321 H 588.449 0.929279 3.39201 0
M  V30 6322 H 588.323 -0.795899 3.68708 0
M  V30 6323 H 590.71 -1.09349 2.74093 0
M  V30 6324 H 590.791 0.653656 2.47307 0
M  V30 6325 H 590.435 1.03093 4.97327 0
M  V30 6326 H 590.365 -0.732748 5.21477 0
M  V30 6327 H 592.856 -0.123173 3.77699 0
M  V30 6328 H 593.169 0.37389 7.71895 0
M  V30 6329 H 591.514 0.329307 6.94219 0
M  V30 6330 H 594.705 -0.0683396 4.6805 0
M  V30 6331 H 594.878 0.158097 6.47807 0
M  V30 6332 N 588.284 -1.56567 -0.180126 0
M  V30 6333 C 589.695 -1.7126 -0.743422 0
M  V30 6334 C 590.046 -0.70263 -1.83187 0
M  V30 6335 O 589.171 0.137856 -2.1596 0
M  V30 6336 C 589.766 -3.10512 -1.35528 0
M  V30 6337 C 588.325 -3.26919 -1.8655 0
M  V30 6338 C 587.472 -2.67213 -0.741099 0
M  V30 6339 H 590.423 -1.58636 0.0451543 0
M  V30 6340 H 590.444 -3.08673 -2.22489 0
M  V30 6341 H 589.956 -3.83997 -0.562862 0
M  V30 6342 H 588.057 -2.58376 -2.68464 0
M  V30 6343 H 588.17 -4.34574 -2.01699 0
M  V30 6344 H 586.534 -2.26788 -1.15927 0
M  V30 6345 H 587.317 -3.43277 0.0393291 0
M  V30 6346 N 589.762 0.448376 -1.51087 0
M  V30 6347 C 591.01 1.19635 -1.62886 0
M  V30 6348 C 591.331 1.91977 -0.342024 0
M  V30 6349 O 590.601 1.85094 0.641636 0
M  V30 6350 H 589.181 0.444598 -0.600285 0
M  V30 6351 H 591.843 0.515138 -1.87969 0
M  V30 6352 H 590.939 1.93194 -2.45117 0
M  V30 6353 N 591.24 1.41047 0.703093 0
M  V30 6354 C 592.187 1.42302 1.81711 0
M  V30 6355 C 593.157 0.278336 1.63751 0
M  V30 6356 O 594.342 0.478266 1.84709 0
M  V30 6357 C 591.482 1.30362 3.19531 0
M  V30 6358 C 590.595 2.54638 3.48975 0
M  V30 6359 C 589.73 2.35047 4.76368 0
M  V30 6360 C 588.769 3.54837 4.98756 0
M  V30 6361 N 587.906 3.34363 6.1737 0
M  V30 6362 H 592.746 2.37516 1.79973 0
M  V30 6363 H 590.283 1.1795 0.878983 0
M  V30 6364 H 592.241 1.21443 3.99134 0
M  V30 6365 H 590.871 0.387602 3.20464 0
M  V30 6366 H 589.923 2.74037 2.63833 0
M  V30 6367 H 591.235 3.43766 3.61423 0
M  V30 6368 H 590.389 2.23552 5.64012 0
M  V30 6369 H 589.128 1.43363 4.66153 0
M  V30 6370 H 588.133 3.66795 4.09563 0
M  V30 6371 H 589.358 4.47464 5.10835 0
M  V30 6372 H 587.304 2.45373 6.08382 0
M  V30 6373 H 587.221 4.17063 6.30551 0
M  V30 6374 H 588.489 3.26626 7.07768 0
M  V30 6375 N 592.718 -0.936591 1.26751 0
M  V30 6376 C 593.943 -1.72288 1.15462 0
M  V30 6377 C 594.368 -1.85915 -0.285887 0
M  V30 6378 O 593.726 -1.35272 -1.20711 0
M  V30 6379 C 593.774 -3.10503 1.83359 0
M  V30 6380 O 592.878 -3.96745 1.1255 0
M  V30 6381 H 592.219 -0.52843 0.402067 0
M  V30 6382 H 594.749 -1.17271 1.67656 0
M  V30 6383 H 594.759 -3.60867 1.90365 0
M  V30 6384 H 593.434 -2.99901 2.88153 0
M  V30 6385 H 592.011 -3.55191 1.13551 0
M  V30 6386 N 594.196 -1.08629 -1.14182 0
M  V30 6387 C 595.144 -0.71284 -2.21408 0
M  V30 6388 C 596.138 0.282457 -1.67029 0
M  V30 6389 O 597.344 0.144783 -1.79417 0
M  V30 6390 H 593.719 -0.212497 -0.721352 0
M  V30 6391 H 595.69 -1.6265 -2.50175 0
M  V30 6392 C 594.439 -0.140704 -3.47415 0
M  V30 6393 H 593.762 -0.897739 -3.8959 0
M  V30 6394 H 595.202 0.0827677 -4.23919 0
M  V30 6395 C 593.661 1.122 -3.17668 0
M  V30 6396 O 594.191 2.20652 -3.35672 0
M  V30 6397 N 592.397 1.03328 -2.71609 0
M  V30 6398 H 591.944 0.150666 -2.57159 0
M  V30 6399 H 591.902 1.8789 -2.52081 0
M  V30 6400 N 595.674 1.31259 -0.872281 0
M  V30 6401 C 596.604 2.30929 -0.345554 0
M  V30 6402 C 597.585 1.60449 0.5648 0
M  V30 6403 O 598.77 1.8814 0.481335 0
M  V30 6404 C 595.9 3.44348 0.451823 0
M  V30 6405 C 594.854 4.26435 -0.365641 0
M  V30 6406 C 594.18 5.31785 0.557562 0
M  V30 6407 C 595.48 4.97159 -1.60095 0
M  V30 6408 H 597.174 2.75234 -1.17841 0
M  V30 6409 H 594.72 1.3232 -0.568094 0
M  V30 6410 H 596.673 4.13128 0.830854 0
M  V30 6411 H 595.397 2.98816 1.31821 0
M  V30 6412 H 594.056 3.59326 -0.726649 0
M  V30 6413 H 593.704 4.82502 1.4213 0
M  V30 6414 H 593.404 5.87598 0.0144878 0
M  V30 6415 H 594.928 6.03424 0.933387 0
M  V30 6416 H 596.342 5.58523 -1.29323 0
M  V30 6417 H 594.739 5.62779 -2.08327 0
M  V30 6418 H 595.809 4.24012 -2.35249 0
M  V30 6419 N 597.152 0.631951 1.44375 0
M  V30 6420 C 598.099 -0.0724807 2.30686 0
M  V30 6421 C 599.069 -0.835975 1.43529 0
M  V30 6422 O 600.254 -0.816849 1.7243 0
M  V30 6423 C 597.394 -1.04753 3.28817 0
M  V30 6424 C 596.507 -0.282367 4.31076 0
M  V30 6425 C 595.642 -1.2493 5.163 0
M  V30 6426 C 594.681 -0.473349 6.10267 0
M  V30 6427 N 593.818 -1.39079 6.88187 0
M  V30 6428 H 598.658 0.669477 2.90383 0
M  V30 6429 H 596.195 0.341927 1.43071 0
M  V30 6430 H 598.153 -1.62623 3.842 0
M  V30 6431 H 596.783 -1.75661 2.70819 0
M  V30 6432 H 595.835 0.412268 3.78159 0
M  V30 6433 H 597.147 0.321955 4.9776 0
M  V30 6434 H 596.301 -1.89931 5.76204 0
M  V30 6435 H 595.04 -1.88755 4.49692 0
M  V30 6436 H 594.045 0.190142 5.49471 0
M  V30 6437 H 595.27 0.16019 6.78911 0
M  V30 6438 H 593.216 -2.01623 6.24247 0
M  V30 6439 H 593.133 -0.840513 7.51313 0
M  V30 6440 H 594.401 -2.02961 7.52613 0
M  V30 6441 N 598.631 -1.53133 0.372548 0
M  V30 6442 C 599.561 -2.28876 -0.462412 0
M  V30 6443 C 600.542 -1.31583 -1.07796 0
M  V30 6444 O 601.727 -1.60461 -1.09389 0
M  V30 6445 C 598.857 -3.08317 -1.59868 0
M  V30 6446 C 597.811 -4.13355 -1.11003 0
M  V30 6447 C 597.137 -4.8092 -2.33708 0
M  V30 6448 C 598.437 -5.21955 -0.18983 0
M  V30 6449 H 600.131 -2.9892 0.169511 0
M  V30 6450 H 597.677 -1.43761 0.0829658 0
M  V30 6451 H 599.63 -3.60055 -2.18949 0
M  V30 6452 H 598.354 -2.35976 -2.25794 0
M  V30 6453 H 597.013 -3.62573 -0.541869 0
M  V30 6454 H 596.661 -4.05144 -2.98106 0
M  V30 6455 H 596.361 -5.51904 -2.01682 0
M  V30 6456 H 597.885 -5.35455 -2.93462 0
M  V30 6457 H 599.299 -5.69153 -0.688319 0
M  V30 6458 H 597.696 -6.00087 0.0398887 0
M  V30 6459 H 598.766 -4.78811 0.766057 0
M  V30 6460 N 600.109 -0.101901 -1.5727 0
M  V30 6461 C 601.52 0.426173 -1.81771 0
M  V30 6462 C 601.871 1.67725 -1.01797 0
M  V30 6463 O 600.996 2.14958 -0.249386 0
M  V30 6464 C 601.591 0.779962 -3.297 0
M  V30 6465 C 600.15 1.25275 -3.54941 0
M  V30 6466 C 599.297 0.252814 -2.76145 0
M  V30 6467 H 602.248 -0.32726 -1.55289 0
M  V30 6468 H 602.269 1.63891 -3.43395 0
M  V30 6469 H 601.781 -0.130778 -3.8788 0
M  V30 6470 H 599.882 2.18097 -3.021 0
M  V30 6471 H 599.995 1.20988 -4.63572 0
M  V30 6472 H 598.359 0.736362 -2.43823 0
M  V30 6473 H 599.142 -0.650724 -3.37076 0
M  V30 6474 N 601.587 1.56661 0.17182 0
M  V30 6475 C 602.534 1.96371 1.21273 0
M  V30 6476 C 603.504 0.82756 1.44016 0
M  V30 6477 O 604.689 1.08764 1.56764 0
M  V30 6478 C 601.829 2.32838 2.54716 0
M  V30 6479 C 600.942 3.59628 2.39356 0
M  V30 6480 C 600.077 3.85311 3.65662 0
M  V30 6481 C 599.116 5.0545 3.45234 0
M  V30 6482 N 598.253 5.27268 4.63608 0
M  V30 6483 H 603.093 2.85106 0.86709 0
M  V30 6484 H 600.63 1.41073 0.416744 0
M  V30 6485 H 602.588 2.52004 3.3249 0
M  V30 6486 H 601.218 1.47214 2.87277 0
M  V30 6487 H 600.27 3.4838 1.52761 0
M  V30 6488 H 601.582 4.4756 2.20207 0
M  V30 6489 H 600.736 4.04841 4.51872 0
M  V30 6490 H 599.475 2.95753 3.8779 0
M  V30 6491 H 598.48 4.85819 2.5741 0
M  V30 6492 H 599.705 5.96538 3.24529 0
M  V30 6493 H 597.651 4.40662 4.85956 0
M  V30 6494 H 597.568 6.09422 4.4737 0
M  V30 6495 H 598.836 5.51277 5.51103 0
M  V30 6496 N 603.065 -0.440357 1.51323 0
M  V30 6497 C 604.313 -1.18769 1.63518 0
M  V30 6498 C 604.634 -1.91793 0.352201 0
M  V30 6499 O 603.904 -1.85432 -0.631811 0
M  V30 6500 H 602.484 -0.441408 0.602634 0
M  V30 6501 H 605.146 -0.505162 1.8824 0
M  V30 6502 H 604.242 -1.91892 2.46138 0
M  V30 6503 N 604.543 -1.41418 -0.695603 0
M  V30 6504 C 605.792 -1.40073 -1.4513 0
M  V30 6505 C 606.105 -0.0130439 -1.95596 0
M  V30 6506 O 607.311 0.123032 -2.71221 0
M  V30 6507 C 605.767 -2.46286 -2.62433 0
M  V30 6508 C 605.375 -3.90962 -2.18753 0
M  V30 6509 C 607.119 -2.54077 -3.40066 0
M  V30 6510 C 605.026 -4.88728 -3.33015 0
M  V30 6511 H 603.956 -0.520903 -0.545138 0
M  V30 6512 H 606.607 -1.67242 -0.75515 0
M  V30 6513 H 604.989 -2.12248 -3.34315 0
M  V30 6514 H 606.163 -4.34248 -1.54161 0
M  V30 6515 H 604.478 -3.86831 -1.54114 0
M  V30 6516 H 607.075 -3.24303 -4.25125 0
M  V30 6517 H 607.418 -1.5776 -3.8525 0
M  V30 6518 H 607.951 -2.87206 -2.75241 0
M  V30 6519 H 604.69 -5.86449 -2.92844 0
M  V30 6520 H 604.21 -4.50091 -3.96457 0
M  V30 6521 H 605.889 -5.09483 -3.98793 0
M  V30 6522 N 606.021 0.929856 -1.27246 0
M  V30 6523 C 606.951 2.04722 -1.12299 0
M  V30 6524 C 607.932 1.70082 -0.0250464 0
M  V30 6525 O 609.117 1.93176 -0.199141 0
M  V30 6526 C 606.247 3.38721 -0.767145 0
M  V30 6527 C 605.201 3.87466 -1.81808 0
M  V30 6528 C 604.527 5.18246 -1.31626 0
M  V30 6529 C 605.827 4.11095 -3.22177 0
M  V30 6530 H 607.521 2.17485 -2.05769 0
M  V30 6531 H 605.067 1.04503 -0.990715 0
M  V30 6532 H 607.02 4.16366 -0.649413 0
M  V30 6533 H 605.744 3.25967 0.203259 0
M  V30 6534 H 604.403 3.12012 -1.92468 0
M  V30 6535 H 604.051 5.01881 -0.335378 0
M  V30 6536 H 603.751 5.51829 -2.01887 0
M  V30 6537 H 605.275 5.98462 -1.21143 0
M  V30 6538 H 606.689 4.79316 -3.1453 0
M  V30 6539 H 605.086 4.55982 -3.90129 0
M  V30 6540 H 606.156 3.16468 -3.67391 0
M  V30 6541 N 607.499 1.09233 1.13605 0
M  V30 6542 C 608.446 0.729921 2.18954 0
M  V30 6543 C 609.416 -0.287916 1.63586 0
M  V30 6544 O 610.601 -0.170003 1.90041 0
M  V30 6545 C 607.741 0.154489 3.44754 0
M  V30 6546 C 606.854 1.22613 4.14234 0
M  V30 6547 C 605.989 0.613657 5.27644 0
M  V30 6548 C 605.028 1.66674 5.8897 0
M  V30 6549 N 604.165 1.07545 6.93814 0
M  V30 6550 H 609.005 1.63257 2.49302 0
M  V30 6551 H 606.542 0.815693 1.22413 0
M  V30 6552 H 608.5 -0.196923 4.16735 0
M  V30 6553 H 607.13 -0.711433 3.14863 0
M  V30 6554 H 606.182 1.69485 3.40557 0
M  V30 6555 H 607.494 2.0238 4.55899 0
M  V30 6556 H 606.648 0.210976 6.06333 0
M  V30 6557 H 605.387 -0.215584 4.87223 0
M  V30 6558 H 604.392 2.07899 5.08978 0
M  V30 6559 H 605.617 2.49861 6.31464 0
M  V30 6560 H 603.563 0.267451 6.55455 0
M  V30 6561 H 603.48 1.81011 7.3401 0
M  V30 6562 H 604.748 0.698906 7.7636 0
M  V30 6563 N 608.977 -1.30795 0.87923 0
M  V30 6564 C 609.924 -2.28282 0.339968 0
M  V30 6565 C 610.894 -1.56134 -0.566685 0
M  V30 6566 O 612.079 -1.84231 -0.496338 0
M  V30 6567 C 609.219 -3.42225 -0.444501 0
M  V30 6568 C 608.332 -4.29204 0.490717 0
M  V30 6569 C 607.467 -5.30302 -0.308784 0
M  V30 6570 C 606.506 -6.08929 0.622272 0
M  V30 6571 N 605.643 -7.01957 -0.14155 0
M  V30 6572 H 610.483 -2.73794 1.17647 0
M  V30 6573 H 608.02 -1.34682 0.591527 0
M  V30 6574 H 609.978 -4.07038 -0.915186 0
M  V30 6575 H 608.608 -2.97799 -1.24562 0
M  V30 6576 H 607.66 -3.6475 1.07988 0
M  V30 6577 H 608.972 -4.84045 1.20425 0
M  V30 6578 H 608.126 -6.00835 -0.841575 0
M  V30 6579 H 606.865 -4.7614 -1.05556 0
M  V30 6580 H 605.87 -5.37278 1.16674 0
M  V30 6581 H 607.095 -6.65178 1.36804 0
M  V30 6582 H 605.041 -6.50192 -0.870966 0
M  V30 6583 H 604.958 -7.54261 0.51246 0
M  V30 6584 H 606.226 -7.76741 -0.655271 0
M  V30 6585 N 610.455 -0.639598 -1.44038 0
M  V30 6586 C 611.402 0.0602458 -2.30721 0
M  V30 6587 C 612.372 0.828352 -1.43971 0
M  V30 6588 O 613.557 0.807693 -1.72861 0
M  V30 6589 C 610.697 1.03008 -3.29368 0
M  V30 6590 C 609.81 0.259502 -4.3122 0
M  V30 6591 C 608.945 1.22191 -5.16955 0
M  V30 6592 C 607.984 0.440978 -6.10509 0
M  V30 6593 N 607.121 1.35428 -6.88915 0
M  V30 6594 H 611.961 -0.684867 -2.90023 0
M  V30 6595 H 609.498 -0.349509 -1.42888 0
M  V30 6596 H 611.456 1.60583 -3.85057 0
M  V30 6597 H 610.086 1.74222 -2.71747 0
M  V30 6598 H 609.138 -0.432317 -3.77935 0
M  V30 6599 H 610.45 -0.348347 -4.97582 0
M  V30 6600 H 609.604 1.86873 -5.77203 0
M  V30 6601 H 608.343 1.86367 -4.50687 0
M  V30 6602 H 607.348 -0.219279 -5.49363 0
M  V30 6603 H 608.573 -0.196192 -6.78817 0
M  V30 6604 H 606.519 1.9831 -6.25307 0
M  V30 6605 H 606.436 0.800657 -7.51748 0
M  V30 6606 H 607.704 1.98967 -7.53679 0
M  V30 6607 N 611.933 1.52934 -0.380664 0
M  V30 6608 C 613.179 2.01765 0.20458 0
M  V30 6609 C 613.512 1.26696 1.47179 0
M  V30 6610 O 612.787 0.364936 1.91046 0
M  V30 6611 C 613.07 3.56869 0.481269 0
M  V30 6612 C 612.923 4.42617 -0.800629 0
M  V30 6613 C 614.242 4.2121 1.27554 0
M  V30 6614 H 611.361 0.733388 0.0728803 0
M  V30 6615 H 614.003 1.83068 -0.50853 0
M  V30 6616 H 612.153 3.72932 1.08875 0
M  V30 6617 H 613.825 4.38323 -1.43773 0
M  V30 6618 H 612.068 4.09977 -1.4178 0
M  V30 6619 H 612.739 5.49134 -0.561791 0
M  V30 6620 H 615.215 4.09072 0.761514 0
M  V30 6621 H 614.091 5.29732 1.43788 0
M  V30 6622 H 614.352 3.78269 2.28833 0
M  V30 6623 N 613.412 0.11024 1.57214 0
M  V30 6624 C 614.637 -0.561179 1.99664 0
M  V30 6625 C 615.062 -1.59985 0.989266 0
M  V30 6626 O 614.42 -1.81255 -0.0402399 0
M  V30 6627 C 614.468 -1.17189 3.41027 0
M  V30 6628 O 613.572 -2.28755 3.4314 0
M  V30 6629 H 612.913 -0.14101 0.648855 0
M  V30 6630 H 615.443 0.196128 2.03658 0
M  V30 6631 H 615.453 -1.50954 3.79047 0
M  V30 6632 H 614.128 -0.411041 4.13864 0
M  V30 6633 H 612.705 -1.96495 3.16929 0
M  V30 6634 N 614.89 -1.56749 -0.16351 0
M  V30 6635 C 615.853 -1.96121 -1.18613 0
M  V30 6636 C 616.853 -0.845765 -1.36761 0
M  V30 6637 O 618.043 -1.11268 -1.34033 0
M  V30 6638 C 615.175 -2.26282 -2.54969 0
M  V30 6639 H 616.368 -2.87639 -0.848764 0
M  V30 6640 H 613.921 -1.50928 -0.406251 0
M  V30 6641 H 614.656 -1.37504 -2.93706 0
M  V30 6642 H 614.441 -3.07595 -2.43162 0
M  V30 6643 H 615.931 -2.57638 -3.28653 0
M  V30 6644 N 616.368 0.432326 -1.51554 0
M  V30 6645 C 617.593 1.20824 -1.68571 0
M  V30 6646 C 618.018 1.84126 -0.384596 0
M  V30 6647 O 617.376 1.69025 0.655751 0
M  V30 6648 C 617.424 2.26429 -2.80646 0
M  V30 6649 O 616.528 3.32032 -2.44598 0
M  V30 6650 H 615.869 0.353765 -0.561913 0
M  V30 6651 H 618.399 0.509916 -1.98144 0
M  V30 6652 H 618.409 2.71133 -3.04878 0
M  V30 6653 H 617.084 1.79733 -3.75058 0
M  V30 6654 H 615.661 2.92769 -2.30956 0
M  V30 6655 N 617.846 1.41785 0.688094 0
M  V30 6656 C 618.809 1.43936 1.78368 0
M  V30 6657 C 619.809 0.328866 1.57401 0
M  V30 6658 O 620.999 0.589093 1.63937 0
M  V30 6659 C 618.131 1.25804 3.16838 0
M  V30 6660 H 619.324 2.41472 1.77852 0
M  V30 6661 H 616.877 1.28037 0.896448 0
M  V30 6662 H 617.612 0.291386 3.22988 0
M  V30 6663 H 617.397 2.06272 3.33458 0
M  V30 6664 H 618.887 1.30162 3.96797 0
M  V30 6665 N 619.324 -0.923095 1.27737 0
M  V30 6666 C 620.234 -2.05765 1.12685 0
M  V30 6667 C 621.25 -1.73911 0.0557197 0
M  V30 6668 O 622.426 -1.99674 0.263137 0
M  V30 6669 C 619.491 -3.37804 0.780363 0
M  V30 6670 C 618.552 -3.83326 1.93286 0
M  V30 6671 C 617.785 -5.09064 1.60281 0
M  V30 6672 O 618.008 -5.6809 0.512828 0
M  V30 6673 O 616.942 -5.50071 2.44347 0
M  V30 6674 H 620.768 -2.21378 2.07907 0
M  V30 6675 H 618.353 -1.04299 1.06968 0
M  V30 6676 H 620.235 -4.17097 0.600668 0
M  V30 6677 H 618.91 -3.23387 -0.142291 0
M  V30 6678 H 617.817 -3.049 2.16764 0
M  V30 6679 H 619.15 -4.02292 2.83588 0
M  V30 6680 N 620.802 -1.09834 -1.13024 0
M  V30 6681 C 622.05 -0.835297 -1.8403 0
M  V30 6682 C 622.371 0.640944 -1.84165 0
M  V30 6683 O 621.641 1.46517 -1.30037 0
M  V30 6684 H 620.221 -0.306018 -0.681441 0
M  V30 6685 H 622.883 -1.38734 -1.36891 0
M  V30 6686 H 621.979 -1.19258 -2.88416 0
M  V30 6687 N 622.28 1.30327 -0.886154 0
M  V30 6688 C 623.526 1.96388 -0.505941 0
M  V30 6689 C 623.859 1.69784 0.942712 0
M  V30 6690 O 623.134 1.00322 1.6663 0
M  V30 6691 C 623.417 3.51488 -0.782826 0
M  V30 6692 C 623.27 3.87603 -2.28219 0
M  V30 6693 C 624.589 4.39331 -0.260128 0
M  V30 6694 H 621.708 0.713327 -0.185292 0
M  V30 6695 H 624.35 1.54178 -1.11036 0
M  V30 6696 H 622.5 3.87572 -0.268399 0
M  V30 6697 H 624.172 3.61537 -2.86512 0
M  V30 6698 H 622.415 3.3563 -2.74837 0
M  V30 6699 H 623.086 4.95806 -2.42653 0
M  V30 6700 H 625.562 4.10162 -0.700444 0
M  V30 6701 H 624.438 5.46769 -0.483179 0
M  V30 6702 H 624.699 4.34072 0.838674 0
M  V30 6703 N 623.758 0.647228 1.43697 0
M  V30 6704 C 624.69 -0.0866232 2.29036 0
M  V30 6705 C 625.703 -0.793051 1.42178 0
M  V30 6706 O 626.892 -0.651807 1.66174 0
M  V30 6707 C 623.992 -1.14552 3.18953 0
M  V30 6708 C 623.165 -0.518422 4.34317 0
M  V30 6709 C 622.224 -1.4734 5.05151 0
M  V30 6710 O 621.25 -0.984312 5.60625 0
M  V30 6711 N 622.452 -2.8075 5.08094 0
M  V30 6712 H 625.217 0.645834 2.92659 0
M  V30 6713 H 622.778 0.489567 1.54321 0
M  V30 6714 H 624.77 -1.78505 3.63205 0
M  V30 6715 H 623.34 -1.78001 2.56971 0
M  V30 6716 H 622.56 0.300079 3.93056 0
M  V30 6717 H 623.848 -0.080401 5.08736 0
M  V30 6718 H 623.246 -3.23052 4.64386 0
M  V30 6719 H 621.803 -3.40022 5.56083 0
M  V30 6720 N 625.236 -1.5273 0.388769 0
M  V30 6721 C 626.146 -2.30165 -0.453993 0
M  V30 6722 C 627.162 -1.37058 -1.07197 0
M  V30 6723 O 628.338 -1.70127 -1.0779 0
M  V30 6724 C 625.403 -3.09303 -1.56628 0
M  V30 6725 C 624.464 -4.18117 -0.973467 0
M  V30 6726 C 623.697 -4.93472 -2.03275 0
M  V30 6727 O 623.92 -4.68913 -3.24772 0
M  V30 6728 O 622.854 -5.78833 -1.65034 0
M  V30 6729 H 626.68 -3.03185 0.176816 0
M  V30 6730 H 624.265 -1.4862 0.152501 0
M  V30 6731 H 626.147 -3.58648 -2.21246 0
M  V30 6732 H 624.822 -2.39098 -2.18206 0
M  V30 6733 H 623.729 -3.7297 -0.290556 0
M  V30 6734 H 625.062 -4.90556 -0.401908 0
M  V30 6735 N 626.714 -0.118576 -1.57153 0
M  V30 6736 C 627.991 0.583062 -1.86708 0
M  V30 6737 C 628.371 1.84841 -1.01967 0
M  V30 6738 O 627.719 2.28288 -0.0984673 0
M  V30 6739 C 627.929 0.875912 -3.3783 0
M  V30 6740 C 629.277 1.22916 -4.0642 0
M  V30 6741 O 630.301 0.966188 -3.42846 0
M  V30 6742 O 629.16 1.72269 -5.18638 0
M  V30 6743 H 626.254 0.294185 -0.772906 0
M  V30 6744 H 628.8 -0.153048 -1.69008 0
M  V30 6745 H 627.572 -0.0207776 -3.91294 0
M  V30 6746 H 627.195 1.66719 -3.60958 0
M  V30 6747 N 628.193 1.56834 0.155195 0
M  V30 6748 C 629.604 1.72421 0.716082 0
M  V30 6749 C 629.955 0.731685 1.82046 0
M  V30 6750 O 629.08 -0.103481 2.16152 0
M  V30 6751 C 629.675 3.12629 1.30571 0
M  V30 6752 C 628.234 3.29846 1.81325 0
M  V30 6753 C 627.381 2.68359 0.698494 0
M  V30 6754 H 630.332 1.58544 -0.0703861 0
M  V30 6755 H 630.353 3.12174 2.1755 0
M  V30 6756 H 629.865 3.84844 0.501701 0
M  V30 6757 H 627.966 2.62614 2.64319 0
M  V30 6758 H 628.079 4.37727 1.9476 0
M  V30 6759 H 626.443 2.28604 1.12305 0
M  V30 6760 H 627.226 3.43171 -0.0939366 0
M  V30 6761 N 629.671 -0.424282 1.51781 0
M  V30 6762 C 631.082 -1.00368 1.57427 0
M  V30 6763 C 631.433 -1.91962 0.40558 0
M  V30 6764 O 630.558 -2.111 -0.47601 0
M  V30 6765 C 631.153 -1.82707 2.85313 0
M  V30 6766 C 629.712 -2.35675 2.93487 0
M  V30 6767 C 628.859 -1.1524 2.5222 0
M  V30 6768 H 631.81 -0.205064 1.5737 0
M  V30 6769 H 631.831 -2.68294 2.69812 0
M  V30 6770 H 631.343 -1.16017 3.70353 0
M  V30 6771 H 629.444 -3.05781 2.12906 0
M  V30 6772 H 629.557 -2.67578 3.97415 0
M  V30 6773 H 627.921 -1.50174 2.05718 0
M  V30 6774 H 628.704 -0.5014 3.39619 0
M  V30 6775 N 631.149 -1.42148 -0.680565 0
M  V30 6776 C 632.059 -1.47565 -1.82378 0
M  V30 6777 C 633.075 -0.36489 -1.70131 0
M  V30 6778 O 634.251 -0.614916 -1.91783 0
M  V30 6779 C 631.316 -1.37013 -3.18478 0
M  V30 6780 C 630.377 -2.58532 -3.42724 0
M  V30 6781 C 629.61 -2.48473 -4.72331 0
M  V30 6782 O 629.833 -1.51745 -5.49845 0
M  V30 6783 O 628.767 -3.38503 -4.97694 0
M  V30 6784 H 632.593 -2.44045 -1.80764 0
M  V30 6785 H 630.178 -1.23849 -0.835569 0
M  V30 6786 H 632.06 -1.33468 -3.99705 0
M  V30 6787 H 630.735 -0.436552 -3.20743 0
M  V30 6788 H 629.642 -2.67652 -2.61368 0
M  V30 6789 H 630.975 -3.50769 -3.45286 0
M  V30 6790 N 632.627 0.916307 -1.28225 0
M  V30 6791 C 633.557 2.0352 -1.14464 0
M  V30 6792 C 634.538 1.70045 -0.0430844 0
M  V30 6793 O 635.723 1.92954 -0.219619 0
M  V30 6794 C 632.853 3.37889 -0.803027 0
M  V30 6795 C 631.807 3.85516 -1.85908 0
M  V30 6796 C 631.133 5.1682 -1.37116 0
M  V30 6797 C 632.433 4.07655 -3.26519 0
M  V30 6798 H 634.127 2.1529 -2.08064 0
M  V30 6799 H 631.673 1.03446 -1.00174 0
M  V30 6800 H 633.626 4.15654 -0.693537 0
M  V30 6801 H 632.35 3.26164 0.168674 0
M  V30 6802 H 631.009 3.09953 -1.95767 0
M  V30 6803 H 630.657 5.01497 -0.38859 0
M  V30 6804 H 630.357 5.49657 -2.07728 0
M  V30 6805 H 631.881 5.97143 -1.27484 0
M  V30 6806 H 633.295 4.75953 -3.19596 0
M  V30 6807 H 631.692 4.51818 -3.94943 0
M  V30 6808 H 632.762 3.12553 -3.70727 0
M  V30 6809 N 634.105 1.10431 1.1244 0
M  V30 6810 C 635.33 0.869089 1.88313 0
M  V30 6811 C 635.755 -0.574912 1.79099 0
M  V30 6812 O 635.113 -1.40496 1.14589 0
M  V30 6813 C 635.161 1.32208 3.3549 0
M  V30 6814 O 634.265 0.487092 4.09513 0
M  V30 6815 H 633.606 0.313894 0.585121 0
M  V30 6816 H 636.136 1.47111 1.42195 0
M  V30 6817 H 636.146 1.31201 3.86329 0
M  V30 6818 H 634.821 2.37364 3.41513 0
M  V30 6819 H 633.398 0.562372 3.68635 0
M  V30 6820 N 635.583 -1.29855 0.893053 0
M  V30 6821 C 636.994 -1.77946 0.564998 0
M  V30 6822 C 637.345 -1.73339 -0.919134 0
M  V30 6823 O 636.47 -1.3152 -1.71847 0
M  V30 6824 C 637.065 -3.23118 1.01883 0
M  V30 6825 C 635.624 -3.69013 0.742051 0
M  V30 6826 C 634.771 -2.50121 1.19727 0
M  V30 6827 H 637.722 -1.16611 1.07646 0
M  V30 6828 H 637.743 -3.78875 0.351249 0
M  V30 6829 H 637.255 -3.26439 2.09903 0
M  V30 6830 H 635.356 -3.71173 -0.325816 0
M  V30 6831 H 635.469 -4.60117 1.33527 0
M  V30 6832 H 633.833 -2.47128 0.616418 0
M  V30 6833 H 634.616 -2.56174 2.28538 0
M  V30 6834 N 637.061 -0.65484 -1.43351 0
M  V30 6835 C 638.31 -0.166215 -2.01014 0
M  V30 6836 C 638.623 1.22764 -1.52278 0
M  V30 6837 O 639.829 1.81156 -2.02224 0
M  V30 6838 C 638.285 -0.246341 -3.59056 0
M  V30 6839 C 637.893 -1.64299 -4.16785 0
M  V30 6840 C 639.637 0.184597 -4.24098 0
M  V30 6841 C 637.544 -1.67695 -5.67126 0
M  V30 6842 H 636.474 -0.0583769 -0.751737 0
M  V30 6843 H 639.125 -0.817111 -1.64303 0
M  V30 6844 H 637.507 0.472092 -3.93176 0
M  V30 6845 H 638.681 -2.3869 -3.94162 0
M  V30 6846 H 636.996 -2.02004 -3.6412 0
M  V30 6847 H 639.593 0.179088 -5.344 0
M  V30 6848 H 639.936 1.21632 -3.98135 0
M  V30 6849 H 640.469 -0.482141 -3.94867 0
M  V30 6850 H 637.208 -2.68783 -5.9786 0
M  V30 6851 H 636.728 -0.976313 -5.91801 0
M  V30 6852 H 638.407 -1.42142 -6.31193 0
M  V30 6853 N 638.539 1.52521 -0.396863 0
M  V30 6854 C 639.95 1.86547 0.0754868 0
M  V30 6855 C 640.301 1.31621 1.45501 0
M  V30 6856 O 639.426 0.650563 2.0639 0
M  V30 6857 C 640.021 3.38495 0.143754 0
M  V30 6858 C 638.58 3.72205 0.560413 0
M  V30 6859 C 637.727 2.75954 -0.272856 0
M  V30 6860 H 640.678 1.46323 -0.614434 0
M  V30 6861 H 640.699 3.68153 0.961425 0
M  V30 6862 H 640.211 3.78442 -0.860415 0
M  V30 6863 H 638.312 3.3783 1.57167 0
M  V30 6864 H 638.425 4.78074 0.313314 0
M  V30 6865 H 636.789 2.53339 0.263 0
M  V30 6866 H 637.572 3.1874 -1.27515 0
M  V30 6867 N 640.017 0.126909 1.57088 0
M  V30 6868 C 640.98 -0.806097 2.14557 0
M  V30 6869 C 641.98 -1.18918 1.08236 0
M  V30 6870 O 643.17 -1.11339 1.33975 0
M  V30 6871 C 640.302 -2.09116 2.69227 0
M  V30 6872 H 641.495 -0.306522 2.98329 0
M  V30 6873 H 639.048 -0.122393 1.5582 0
M  V30 6874 H 639.783 -2.63486 1.89065 0
M  V30 6875 H 639.568 -1.82588 3.46993 0
M  V30 6876 H 641.058 -2.75794 3.13572 0
M  V30 6877 N 641.495 -1.56914 -0.146875 0
M  V30 6878 C 642.72 -1.87881 -0.878386 0
M  V30 6879 C 643.145 -0.715945 -1.73942 0
M  V30 6880 O 642.503 0.334447 -1.78189 0
M  V30 6881 C 642.551 -3.17431 -1.71084 0
M  V30 6882 O 641.655 -3.01374 -2.81509 0
M  V30 6883 H 640.996 -0.617289 -0.244644 0
M  V30 6884 H 643.526 -2.04136 -0.137654 0
M  V30 6885 H 643.536 -3.49455 -2.10582 0
M  V30 6886 H 642.211 -4.01671 -1.07856 0
M  V30 6887 H 640.788 -2.80758 -2.45416 0
M  V30 6888 N 642.974 0.416227 -1.52004 0
M  V30 6889 C 644.385 0.995319 -1.57957 0
M  V30 6890 C 644.736 1.91744 -0.415754 0
M  V30 6891 O 643.861 2.11349 0.464808 0
M  V30 6892 C 644.456 1.81191 -2.86278 0
M  V30 6893 C 643.015 2.34115 -2.94732 0
M  V30 6894 C 642.162 1.139 -2.52828 0
M  V30 6895 H 645.113 0.196716 -1.57476 0
M  V30 6896 H 645.134 2.66859 -2.71231 0
M  V30 6897 H 644.646 1.14051 -3.70963 0
M  V30 6898 H 642.747 3.04647 -2.14525 0
M  V30 6899 H 642.86 2.65466 -3.98829 0
M  V30 6900 H 641.224 1.49081 -2.06511 0
M  V30 6901 H 642.007 0.483383 -3.3988 0
M  V30 6902 N 644.452 1.42507 0.673017 0
M  V30 6903 C 645.7 1.42789 1.43023 0
M  V30 6904 C 646.021 0.0459738 1.94946 0
M  V30 6905 O 645.291 -0.915765 1.73178 0
M  V30 6906 H 643.871 0.525657 0.530748 0
M  V30 6907 H 646.533 1.77944 0.795113 0
M  V30 6908 H 645.629 2.12872 2.28237 0
M  V30 6909 N 645.93 -0.909495 1.28709 0
M  V30 6910 C 646.862 -2.01729 1.08804 0
M  V30 6911 C 647.875 -1.62755 0.0384739 0
M  V30 6912 O 649.064 -1.76259 0.281977 0
M  V30 6913 C 646.164 -3.32952 0.63217 0
M  V30 6914 C 645.337 -4.00512 1.75809 0
M  V30 6915 C 644.396 -5.10019 1.29488 0
M  V30 6916 O 643.422 -5.32986 1.99787 0
M  V30 6917 N 644.624 -5.80278 0.1604 0
M  V30 6918 H 647.389 -2.19362 2.04207 0
M  V30 6919 H 644.95 -1.08106 1.20518 0
M  V30 6920 H 646.942 -4.03543 0.305802 0
M  V30 6921 H 645.512 -3.11759 -0.229134 0
M  V30 6922 H 644.732 -3.23413 2.25383 0
M  V30 6923 H 646.02 -4.42395 2.51325 0
M  V30 6924 H 645.418 -5.64094 -0.425937 0
M  V30 6925 H 643.975 -6.51713 -0.106663 0
M  V30 6926 N 647.408 -1.11026 -1.11852 0
M  V30 6927 C 648.371 -0.768006 -2.1595 0
M  V30 6928 C 649.371 0.210538 -1.59416 0
M  V30 6929 O 650.561 -0.0133978 -1.74195 0
M  V30 6930 C 647.693 -0.138678 -3.40618 0
M  V30 6931 H 648.886 -1.69012 -2.4774 0
M  V30 6932 H 646.439 -0.911578 -1.26964 0
M  V30 6933 H 647.174 0.793872 -3.14433 0
M  V30 6934 H 646.959 -0.843012 -3.8293 0
M  V30 6935 H 648.449 0.0848039 -4.17514 0
M  V30 6936 N 648.886 1.2938 -0.899927 0
M  V30 6937 C 649.849 2.25983 -0.382677 0
M  V30 6938 C 650.849 1.53366 0.483259 0
M  V30 6939 O 652.039 1.71798 0.28828 0
M  V30 6940 C 649.171 3.37878 0.452915 0
M  V30 6941 H 650.364 2.73252 -1.23586 0
M  V30 6942 H 647.917 1.40825 -0.678088 0
M  V30 6943 H 648.652 2.95949 1.32608 0
M  V30 6944 H 648.437 3.91742 -0.167562 0
M  V30 6945 H 649.927 4.09746 0.806107 0
M  V30 6946 N 650.364 0.662433 1.43002 0
M  V30 6947 C 651.775 0.258315 1.84904 0
M  V30 6948 C 652.126 -1.19703 1.55453 0
M  V30 6949 O 651.251 -1.91484 1.00811 0
M  V30 6950 C 651.846 0.462047 3.35635 0
M  V30 6951 C 650.405 0.112165 3.76233 0
M  V30 6952 C 649.552 0.760479 2.66668 0
M  V30 6953 H 652.503 0.865467 1.33024 0
M  V30 6954 H 652.524 -0.289646 3.79396 0
M  V30 6955 H 652.036 1.52135 3.57039 0
M  V30 6956 H 650.137 -0.944179 3.60439 0
M  V30 6957 H 650.25 0.544058 4.76001 0
M  V30 6958 H 648.614 0.192887 2.53969 0
M  V30 6959 H 649.397 1.82299 2.90898 0
M  V30 6960 N 651.842 -1.52309 0.404946 0
M  V30 6961 C 652.772 -2.29805 -0.41376 0
M  V30 6962 C 653.753 -1.3384 -1.0498 0
M  V30 6963 O 654.938 -1.62745 -1.05961 0
M  V30 6964 C 652.068 -3.11639 -1.53292 0
M  V30 6965 C 651.022 -4.15616 -1.02211 0
M  V30 6966 C 650.348 -4.8577 -2.23455 0
M  V30 6967 C 651.648 -5.2224 -0.0790725 0
M  V30 6968 H 653.342 -2.98493 0.232878 0
M  V30 6969 H 650.888 -1.43552 0.113441 0
M  V30 6970 H 652.841 -3.64618 -2.11262 0
M  V30 6971 H 651.565 -2.40712 -2.20738 0
M  V30 6972 H 650.224 -3.63641 -0.46484 0
M  V30 6973 H 649.872 -4.11376 -2.89445 0
M  V30 6974 H 649.572 -5.56058 -1.89929 0
M  V30 6975 H 651.096 -5.4156 -2.82038 0
M  V30 6976 H 652.51 -5.70485 -0.567438 0
M  V30 6977 H 650.907 -5.99867 0.167167 0
M  V30 6978 H 651.977 -4.77078 0.867447 0
M  V30 6979 N 653.32 -0.135238 -1.57019 0
M  V30 6980 C 654.25 0.805235 -2.19176 0
M  V30 6981 C 655.231 1.2656 -1.13651 0
M  V30 6982 O 656.416 1.32528 -1.4195 0
M  V30 6983 C 653.546 2.04914 -2.80406 0
M  V30 6984 C 652.5 1.72598 -3.91655 0
M  V30 6985 C 651.826 3.04154 -4.39766 0
M  V30 6986 C 653.126 0.981709 -5.12991 0
M  V30 6987 H 654.82 0.287232 -2.98019 0
M  V30 6988 H 652.366 0.136714 -1.4335 0
M  V30 6989 H 654.319 2.71178 -3.22553 0
M  V30 6990 H 653.043 2.59067 -1.98877 0
M  V30 6991 H 651.702 1.08717 -3.50109 0
M  V30 6992 H 651.35 3.56274 -3.55075 0
M  V30 6993 H 651.05 2.83299 -5.14796 0
M  V30 6994 H 652.574 3.71509 -4.84576 0
M  V30 6995 H 653.988 1.5462 -5.52056 0
M  V30 6996 H 652.385 0.873533 -5.93708 0
M  V30 6997 H 653.455 -0.0286887 -4.84892 0
M  V30 6998 N 654.798 1.5699 0.138552 0
M  V30 6999 C 656.209 1.73171 0.697754 0
M  V30 7000 C 656.56 0.750952 1.8126 0
M  V30 7001 O 655.685 -0.080549 2.1625 0
M  V30 7002 C 656.28 3.13996 1.27248 0
M  V30 7003 C 654.839 3.3175 1.77816 0
M  V30 7004 C 653.986 2.69084 0.669991 0
M  V30 7005 H 656.937 1.5846 -0.0871979 0
M  V30 7006 H 656.958 3.14463 2.14227 0
M  V30 7007 H 656.47 3.85354 0.460855 0
M  V30 7008 H 654.571 2.65403 2.61519 0
M  V30 7009 H 654.684 4.39768 1.90107 0
M  V30 7010 H 653.048 2.29782 1.09874 0
M  V30 7011 H 653.831 3.43053 -0.130329 0
M  V30 7012 N 656.276 -0.40816 1.52223 0
M  V30 7013 C 657.223 -1.49737 1.75635 0
M  V30 7014 C 658.193 -1.5493 0.598824 0
M  V30 7015 O 659.378 -1.71487 0.83648 0
M  V30 7016 C 656.518 -2.87174 1.91376 0
M  V30 7017 C 655.631 -2.91283 3.19027 0
M  V30 7018 C 654.766 -4.20026 3.25195 0
M  V30 7019 C 653.805 -4.18113 4.47044 0
M  V30 7020 N 652.942 -5.38429 4.50598 0
M  V30 7021 H 657.782 -1.29075 2.68596 0
M  V30 7022 H 655.319 -0.626518 1.33091 0
M  V30 7023 H 657.277 -3.66959 1.98486 0
M  V30 7024 H 655.907 -3.06329 1.01795 0
M  V30 7025 H 654.959 -2.03984 3.21084 0
M  V30 7026 H 656.271 -2.85734 4.08849 0
M  V30 7027 H 655.425 -5.08204 3.31382 0
M  V30 7028 H 654.164 -4.28271 2.33313 0
M  V30 7029 H 653.169 -3.28325 4.41002 0
M  V30 7030 H 654.394 -4.11507 5.40221 0
M  V30 7031 H 652.34 -5.4734 3.616 0
M  V30 7032 H 652.257 -5.34879 5.34266 0
M  V30 7033 H 653.525 -6.28557 4.61016 0
M  V30 7034 N 657.755 -1.42862 -0.66545 0
M  V30 7035 C 658.702 -1.4707 -1.77874 0
M  V30 7036 C 659.672 -0.321654 -1.62956 0
M  V30 7037 O 660.857 -0.52707 -1.83376 0
M  V30 7038 C 657.997 -1.38788 -3.15962 0
M  V30 7039 C 657.11 -2.63801 -3.42101 0
M  V30 7040 C 656.245 -2.47594 -4.69969 0
M  V30 7041 C 655.284 -3.67936 -4.89172 0
M  V30 7042 N 654.421 -3.50614 -6.08288 0
M  V30 7043 H 659.261 -2.42204 -1.73613 0
M  V30 7044 H 656.798 -1.20239 -0.847401 0
M  V30 7045 H 658.756 -1.31982 -3.95773 0
M  V30 7046 H 657.386 -0.472431 -3.19324 0
M  V30 7047 H 656.438 -2.80935 -2.56475 0
M  V30 7048 H 657.75 -3.53228 -3.52181 0
M  V30 7049 H 656.904 -2.38427 -5.57886 0
M  V30 7050 H 655.643 -1.55672 -4.62188 0
M  V30 7051 H 654.648 -3.77525 -3.99694 0
M  V30 7052 H 655.873 -4.60851 -4.98792 0
M  V30 7053 H 653.819 -2.61417 -6.01662 0
M  V30 7054 H 653.736 -4.33634 -6.19272 0
M  V30 7055 H 655.004 -3.45276 -6.98859 0
M  V30 7056 N 659.233 0.902656 -1.29189 0
M  V30 7057 C 660.481 1.6496 -1.16758 0
M  V30 7058 C 660.802 1.92952 0.28188 0
M  V30 7059 O 660.072 1.55351 1.19344 0
M  V30 7060 H 658.652 0.611447 -0.429118 0
M  V30 7061 H 661.314 1.0825 -1.62074 0
M  V30 7062 H 660.41 2.60728 -1.71544 0
M  V30 7063 N 660.711 1.11618 1.11262 0
M  V30 7064 C 661.96 0.860934 1.82403 0
M  V30 7065 C 662.273 -0.615303 1.8567 0
M  V30 7066 O 663.479 -0.986861 2.52929 0
M  V30 7067 C 661.935 1.49048 3.27586 0
M  V30 7068 C 661.543 3.00089 3.32642 0
M  V30 7069 C 663.287 1.31515 4.03614 0
M  V30 7070 C 661.194 3.56019 4.72234 0
M  V30 7071 H 660.124 0.318423 0.683464 0
M  V30 7072 H 662.775 1.34165 1.25188 0
M  V30 7073 H 661.157 0.937434 3.84744 0
M  V30 7074 H 662.331 3.61813 2.85356 0
M  V30 7075 H 660.646 3.16919 2.70096 0
M  V30 7076 H 663.243 1.70732 5.0671 0
M  V30 7077 H 663.586 0.257917 4.155 0
M  V30 7078 H 664.119 1.83694 3.52848 0
M  V30 7079 H 660.858 4.61463 4.65545 0
M  V30 7080 H 660.378 2.99066 5.19923 0
M  V30 7081 H 662.057 3.54568 5.41193 0
M  V30 7082 N 662.189 -1.289 0.906776 0
M  V30 7083 C 663.119 -2.29932 0.406659 0
M  V30 7084 C 664.1 -1.6189 -0.522061 0
M  V30 7085 O 665.285 -1.8935 -0.431283 0
M  V30 7086 C 662.415 -3.45425 -0.360366 0
M  V30 7087 C 661.369 -4.25316 0.478574 0
M  V30 7088 C 660.695 -5.33076 -0.416373 0
M  V30 7089 C 661.995 -4.92739 1.7322 0
M  V30 7090 H 663.689 -2.72013 1.25097 0
M  V30 7091 H 661.235 -1.30768 0.602977 0
M  V30 7092 H 663.188 -4.15186 -0.721029 0
M  V30 7093 H 661.912 -3.02206 -1.23852 0
M  V30 7094 H 660.571 -3.57273 0.821662 0
M  V30 7095 H 660.219 -4.86101 -1.29287 0
M  V30 7096 H 659.919 -5.8743 0.141309 0
M  V30 7097 H 661.443 -6.05686 -0.773072 0
M  V30 7098 H 662.857 -5.54898 1.44086 0
M  V30 7099 H 661.254 -5.57057 2.23175 0
M  V30 7100 H 662.324 -4.17625 2.46408 0
M  V30 7101 N 663.667 -0.670007 -1.42649 0
M  V30 7102 C 664.614 0.0112928 -2.30797 0
M  V30 7103 C 665.584 0.797627 -1.45695 0
M  V30 7104 O 666.769 0.770845 -1.74535 0
M  V30 7105 C 663.909 0.95998 -3.31479 0
M  V30 7106 C 663.022 0.167975 -4.31673 0
M  V30 7107 C 662.157 1.11198 -5.19431 0
M  V30 7108 C 661.196 0.311381 -6.11307 0
M  V30 7109 N 660.333 1.20784 -6.91633 0
M  V30 7110 H 665.173 -0.746231 -2.88505 0
M  V30 7111 H 662.71 -0.379739 -1.42114 0
M  V30 7112 H 664.668 1.52379 -3.88377 0
M  V30 7113 H 663.298 1.68419 -2.75382 0
M  V30 7114 H 662.35 -0.512385 -3.76933 0
M  V30 7115 H 663.662 -0.453814 -4.96731 0
M  V30 7116 H 662.816 1.74587 -5.81037 0
M  V30 7117 H 661.555 1.76766 -4.54538 0
M  V30 7118 H 660.56 -0.335758 -5.48774 0
M  V30 7119 H 661.785 -0.340135 -6.78248 0
M  V30 7120 H 659.731 1.85001 -6.29373 0
M  V30 7121 H 659.648 0.64102 -7.53277 0
M  V30 7122 H 660.916 1.82936 -7.5773 0
M  V30 7123 N 665.145 1.52092 -0.413018 0
M  V30 7124 C 666.092 2.27119 0.410558 0
M  V30 7125 C 667.062 1.29692 1.03774 0
M  V30 7126 O 668.247 1.58561 1.06128 0
M  V30 7127 C 665.387 3.09863 1.51918 0
M  V30 7128 C 664.5 4.22252 0.912528 0
M  V30 7129 C 663.635 4.92348 1.99417 0
M  V30 7130 C 662.674 5.96694 1.36466 0
M  V30 7131 N 661.811 6.60292 2.38661 0
M  V30 7132 H 666.651 2.97067 -0.235661 0
M  V30 7133 H 664.188 1.46542 -0.128055 0
M  V30 7134 H 666.146 3.56144 2.17295 0
M  V30 7135 H 664.776 2.42078 2.13537 0
M  V30 7136 H 663.828 3.80113 0.147697 0
M  V30 7137 H 665.14 4.9709 0.412717 0
M  V30 7138 H 664.294 5.42054 2.72512 0
M  V30 7139 H 663.033 4.17087 2.52764 0
M  V30 7140 H 662.038 5.46304 0.61906 0
M  V30 7141 H 663.263 6.73899 0.838827 0
M  V30 7142 H 661.209 5.87858 2.91134 0
M  V30 7143 H 661.126 7.30816 1.93503 0
M  V30 7144 H 662.394 7.14635 3.11314 0
M  V30 7145 N 666.623 0.143563 1.56945 0
M  V30 7146 C 668.034 -0.37783 1.82837 0
M  V30 7147 C 668.385 -1.64967 1.06209 0
M  V30 7148 O 667.51 -2.14221 0.306291 0
M  V30 7149 C 668.105 -0.692274 3.31652 0
M  V30 7150 C 666.664 -1.1582 3.58138 0
M  V30 7151 C 665.811 -0.17951 2.76718 0
M  V30 7152 H 668.762 0.368317 1.54367 0
M  V30 7153 H 668.783 -1.54729 3.47619 0
M  V30 7154 H 668.295 0.233572 3.87397 0
M  V30 7155 H 666.396 -2.10011 3.07776 0
M  V30 7156 H 666.509 -1.08655 4.66616 0
M  V30 7157 H 664.873 -0.671458 2.4569 0
M  V30 7158 H 665.656 0.739865 3.35233 0
M  V30 7159 N 668.101 -1.57061 -0.130224 0
M  V30 7160 C 669.517 -1.52103 -0.483413 0
M  V30 7161 C 669.717 -0.854752 -1.82473 0
M  V30 7162 O 668.773 -0.432342 -2.48771 0
M  V30 7163 C 670.086 -2.96872 -0.47825 0
M  V30 7164 C 671.634 -3.07902 -0.562592 0
M  V30 7165 C 672.109 -4.54211 -0.587929 0
M  V30 7166 N 673.6 -4.58621 -0.649684 0
M  V30 7167 C 674.335 -5.69227 -0.690551 0
M  V30 7168 N 673.831 -6.89358 -0.689743 0
M  V30 7169 N 675.624 -5.57304 -0.732708 0
M  V30 7170 H 667.775 -1.98764 0.748779 0
M  V30 7171 H 670.038 -0.907248 0.274965 0
M  V30 7172 H 669.744 -3.48944 0.439444 0
M  V30 7173 H 669.618 -3.53716 -1.31013 0
M  V30 7174 H 672.005 -2.5584 -1.47071 0
M  V30 7175 H 672.086 -2.54073 0.296764 0
M  V30 7176 H 671.73 -5.06915 0.316096 0
M  V30 7177 H 671.66 -5.0584 -1.46401 0
M  V30 7178 H 674.151 -3.72146 -0.656927 0
M  V30 7179 H 674.464 -7.69408 -0.723239 0
M  V30 7180 H 672.809 -6.91884 -0.657347 0
M  V30 7181 H 676 -4.62363 -0.730625 0
M  V30 7182 H 676.173 -6.43515 -0.76109 0
M  V30 7183 N 669.579 0.400081 -1.52437 0
M  V30 7184 C 670.511 1.50729 -1.72666 0
M  V30 7185 C 671.524 1.51058 -0.607075 0
M  V30 7186 O 672.713 1.5516 -0.88248 0
M  V30 7187 C 669.813 2.89604 -1.76019 0
M  V30 7188 C 668.986 3.13365 -3.05157 0
M  V30 7189 C 668.045 4.32163 -3.00203 0
M  V30 7190 O 667.071 4.29004 -3.74092 0
M  V30 7191 N 668.273 5.3776 -2.18619 0
M  V30 7192 H 671.038 1.33767 -2.68191 0
M  V30 7193 H 668.599 0.58948 -1.50787 0
M  V30 7194 H 670.591 3.67159 -1.70225 0
M  V30 7195 H 669.161 2.99979 -0.879284 0
M  V30 7196 H 668.381 2.23774 -3.24529 0
M  V30 7197 H 669.669 3.26089 -3.90568 0
M  V30 7198 H 669.067 5.43177 -1.58035 0
M  V30 7199 H 667.624 6.14023 -2.18674 0
M  V30 7200 N 671.057 1.43213 0.657864 0
M  V30 7201 C 672.473 1.26511 0.972992 0
M  V30 7202 C 672.673 0.181477 2.00681 0
M  V30 7203 O 671.729 -0.441649 2.48608 0
M  V30 7204 C 673.042 2.62784 1.46168 0
M  V30 7205 C 674.59 2.70278 1.57857 0
M  V30 7206 C 675.065 4.06958 2.10117 0
M  V30 7207 N 676.556 4.08999 2.17426 0
M  V30 7208 C 677.291 5.11585 2.58975 0
M  V30 7209 N 676.787 6.24548 2.99853 0
M  V30 7210 N 678.58 4.9894 2.58873 0
M  V30 7211 H 670.731 2.12384 -0.0263129 0
M  V30 7212 H 672.994 0.946638 0.0507992 0
M  V30 7213 H 672.7 3.43022 0.776474 0
M  V30 7214 H 672.574 2.87863 2.43751 0
M  V30 7215 H 674.961 1.90376 2.25479 0
M  V30 7216 H 675.042 2.4897 0.587179 0
M  V30 7217 H 674.686 4.87325 1.43098 0
M  V30 7218 H 674.616 4.25628 3.10078 0
M  V30 7219 H 677.107 3.27457 1.88627 0
M  V30 7220 H 677.42 6.98661 3.30292 0
M  V30 7221 H 675.765 6.28027 2.97669 0
M  V30 7222 H 678.956 4.09757 2.26311 0
M  V30 7223 H 679.129 5.79019 2.90932 0
M  V30 7224 N 672.536 -0.895792 1.29666 0
M  V30 7225 C 673.446 -2.03329 1.17024 0
M  V30 7226 C 674.462 -1.73753 0.0925962 0
M  V30 7227 O 675.638 -1.99071 0.305431 0
M  V30 7228 C 672.703 -3.36072 0.851841 0
M  V30 7229 C 671.764 -3.7914 2.01373 0
M  V30 7230 C 670.997 -5.05549 1.71043 0
M  V30 7231 O 671.22 -5.66874 0.633213 0
M  V30 7232 O 670.154 -5.44764 2.5596 0
M  V30 7233 H 673.98 -2.16918 2.12556 0
M  V30 7234 H 671.565 -1.02007 1.09156 0
M  V30 7235 H 673.447 -4.15729 0.689006 0
M  V30 7236 H 672.122 -3.23616 -0.0736634 0
M  V30 7237 H 671.029 -3.00233 2.23183 0
M  V30 7238 H 672.362 -3.96186 2.92058 0
M  V30 7239 N 674.014 -1.12206 -1.10668 0
M  V30 7240 C 675.239 -0.898938 -1.86906 0
M  V30 7241 C 675.664 0.546346 -1.79991 0
M  V30 7242 O 675.022 1.38655 -1.1681 0
M  V30 7243 C 675.07 -1.37529 -3.33344 0
M  V30 7244 O 674.174 -0.55218 -4.08687 0
M  V30 7245 H 673.515 -0.323163 -0.580053 0
M  V30 7246 H 676.045 -1.49355 -1.39837 0
M  V30 7247 H 676.055 -1.3733 -3.84193 0
M  V30 7248 H 674.73 -2.42767 -3.37693 0
M  V30 7249 H 673.307 -0.620947 -3.67694 0
M  V30 7250 N 675.492 1.28418 -0.913599 0
M  V30 7251 C 676.74 1.94596 -0.545594 0
M  V30 7252 C 677.061 1.7227 0.913668 0
M  V30 7253 O 676.331 1.06233 1.64595 0
M  V30 7254 H 674.911 0.720065 -0.198783 0
M  V30 7255 H 677.573 1.56404 -1.16292 0
M  V30 7256 H 676.669 3.03202 -0.739911 0
M  V30 7257 N 676.97 0.677563 1.42291 0
M  V30 7258 C 678.2 0.209155 2.05539 0
M  V30 7259 C 678.608 -1.13987 1.51009 0
M  V30 7260 O 677.951 -1.71976 0.645764 0
M  V30 7261 C 678.013 0.0697758 3.59432 0
M  V30 7262 C 677.677 1.34795 4.36668 0
M  V30 7263 C 678.674 2.28201 4.67141 0
M  V30 7264 C 676.359 1.59632 4.76259 0
M  V30 7265 C 678.353 3.44718 5.36142 0
M  V30 7266 C 676.04 2.76437 5.45 0
M  V30 7267 C 677.038 3.68805 5.74867 0
M  V30 7268 O 676.726 4.83567 6.42198 0
M  V30 7269 H 676.458 0.0986202 0.668768 0
M  V30 7270 H 679.012 0.925483 1.83368 0
M  V30 7271 H 677.242 -0.702157 3.80272 0
M  V30 7272 H 678.931 -0.359115 4.04308 0
M  V30 7273 H 679.697 2.10264 4.37052 0
M  V30 7274 H 675.576 0.886073 4.52404 0
M  V30 7275 H 679.12 4.16833 5.59371 0
M  V30 7276 H 675.017 2.94299 5.74507 0
M  V30 7277 H 675.785 4.83147 6.6069 0
M  V30 7278 N 678.448 -1.51871 0.421078 0
M  V30 7279 C 679.678 -2.06057 -0.149723 0
M  V30 7280 C 680.086 -1.29002 -1.38402 0
M  V30 7281 O 679.429 -0.338385 -1.80556 0
M  V30 7282 C 679.491 -3.55216 -0.553339 0
M  V30 7283 C 679.155 -4.53408 0.571879 0
M  V30 7284 C 680.152 -4.99586 1.4391 0
M  V30 7285 C 677.837 -4.967 0.747979 0
M  V30 7286 C 679.831 -5.87711 2.46727 0
M  V30 7287 C 677.518 -5.84619 1.77944 0
M  V30 7288 C 678.516 -6.30021 2.63748 0
M  V30 7289 O 678.204 -7.16197 3.65126 0
M  V30 7290 H 677.936 -0.675744 -0.0186102 0
M  V30 7291 H 680.49 -1.96618 0.594166 0
M  V30 7292 H 678.72 -3.62381 -1.34969 0
M  V30 7293 H 680.409 -3.91992 -1.05342 0
M  V30 7294 H 681.175 -4.66846 1.31451 0
M  V30 7295 H 677.054 -4.60913 0.0897357 0
M  V30 7296 H 680.598 -6.2307 3.13734 0
M  V30 7297 H 676.495 -6.16771 1.90429 0
M  V30 7298 H 677.263 -7.34337 3.61512 0
M  V30 7299 N 679.926 -0.151884 -1.56866 0
M  V30 7300 C 681.151 0.508044 -2.01081 0
M  V30 7301 C 681.576 1.57306 -1.03134 0
M  V30 7302 O 680.934 1.81298 -0.0078309 0
M  V30 7303 C 680.982 1.08106 -3.44014 0
M  V30 7304 O 680.086 2.19577 -3.49084 0
M  V30 7305 H 679.427 0.123757 -0.652365 0
M  V30 7306 H 681.957 -0.250055 -2.03066 0
M  V30 7307 H 681.967 1.40851 -3.82916 0
M  V30 7308 H 680.642 0.301168 -4.14808 0
M  V30 7309 H 679.219 1.88023 -3.22027 0
M  V30 7310 N 681.404 1.57128 0.121893 0
M  V30 7311 C 682.629 1.89254 0.848385 0
M  V30 7312 C 683.054 0.743527 1.72781 0
M  V30 7313 O 682.412 -0.306056 1.78698 0
M  V30 7314 C 682.46 3.20113 1.66012 0
M  V30 7315 O 681.564 3.05815 2.76679 0
M  V30 7316 H 680.905 0.621103 0.234793 0
M  V30 7317 H 683.435 2.0433 0.10516 0
M  V30 7318 H 683.445 3.52761 2.04996 0
M  V30 7319 H 682.12 4.03336 1.01452 0
M  V30 7320 H 680.697 2.84627 2.40918 0
M  V30 7321 N 682.882 -0.391992 1.52647 0
M  V30 7322 C 684.293 -0.970064 1.5952 0
M  V30 7323 C 684.644 -1.91059 0.446207 0
M  V30 7324 O 683.769 -2.12062 -0.431125 0
M  V30 7325 C 684.364 -1.76614 2.89125 0
M  V30 7326 C 682.923 -2.29396 2.9842 0
M  V30 7327 C 682.07 -1.09864 2.54608 0
M  V30 7328 H 685.021 -0.171638 1.57769 0
M  V30 7329 H 685.042 -2.62511 2.75442 0
M  V30 7330 H 684.554 -1.08135 3.72731 0
M  V30 7331 H 682.655 -3.01196 2.19344 0
M  V30 7332 H 682.768 -2.59088 4.03002 0
M  V30 7333 H 681.132 -1.45777 2.08857 0
M  V30 7334 H 681.915 -0.429249 3.40606 0
M  V30 7335 N 684.36 -1.4356 -0.65026 0
M  V30 7336 C 685.27 -1.514 -1.79207 0
M  V30 7337 C 686.286 -0.400895 -1.69319 0
M  V30 7338 O 687.462 -0.655458 -1.90436 0
M  V30 7339 C 684.527 -1.43737 -3.155 0
M  V30 7340 C 683.588 -2.65743 -3.37163 0
M  V30 7341 C 682.821 -2.58436 -4.66954 0
M  V30 7342 O 683.044 -1.63374 -5.46503 0
M  V30 7343 O 681.978 -3.48984 -4.90402 0
M  V30 7344 H 685.804 -2.47825 -1.75547 0
M  V30 7345 H 683.389 -1.25594 -0.809111 0
M  V30 7346 H 685.271 -1.41916 -3.96784 0
M  V30 7347 H 683.946 -0.504488 -3.19745 0
M  V30 7348 H 682.853 -2.73136 -2.55632 0
M  V30 7349 H 684.186 -3.58014 -3.37768 0
M  V30 7350 N 685.838 0.888903 -1.30139 0
M  V30 7351 C 687.249 1.45578 -1.16893 0
M  V30 7352 C 687.6 1.94825 0.231866 0
M  V30 7353 O 686.725 1.84661 1.12824 0
M  V30 7354 C 687.32 2.646 -2.11595 0
M  V30 7355 C 685.879 3.17389 -2.02339 0
M  V30 7356 C 685.026 1.90081 -2.01902 0
M  V30 7357 H 687.977 0.69921 -1.42467 0
M  V30 7358 H 687.998 3.40687 -1.69449 0
M  V30 7359 H 687.51 2.28726 -3.13538 0
M  V30 7360 H 685.611 3.5793 -1.03523 0
M  V30 7361 H 685.724 3.80955 -2.90534 0
M  V30 7362 H 684.088 2.08246 -1.46648 0
M  V30 7363 H 684.871 1.5647 -3.05568 0
M  V30 7364 N 687.317 1.12792 1.10072 0
M  V30 7365 C 688.542 0.908838 1.86427 0
M  V30 7366 C 688.967 -0.536793 1.80278 0
M  V30 7367 O 688.325 -1.38033 1.17543 0
M  V30 7368 C 688.373 1.39295 3.3261 0
M  V30 7369 O 687.477 0.573846 4.08388 0
M  V30 7370 H 686.818 0.326234 0.578331 0
M  V30 7371 H 689.348 1.50094 1.39043 0
M  V30 7372 H 689.358 1.39366 3.83459 0
M  V30 7373 H 688.033 2.44555 3.36401 0
M  V30 7374 H 686.61 0.640438 3.67359 0
M  V30 7375 N 688.795 -1.27931 0.920396 0
M  V30 7376 C 689.705 -2.30824 0.419212 0
M  V30 7377 C 690.721 -1.66767 -0.496461 0
M  V30 7378 O 691.897 -1.97763 -0.38104 0
M  V30 7379 C 688.962 -3.45158 -0.326601 0
M  V30 7380 C 688.023 -4.24754 0.623098 0
M  V30 7381 C 687.256 -5.33629 -0.0872172 0
M  V30 7382 O 687.479 -5.55204 -1.30784 0
M  V30 7383 O 686.413 -5.99091 0.580875 0
M  V30 7384 H 690.239 -2.75716 1.27337 0
M  V30 7385 H 687.824 -1.32747 0.685465 0
M  V30 7386 H 689.706 -4.14716 -0.747559 0
M  V30 7387 H 688.381 -3.02336 -1.15648 0
M  V30 7388 H 687.288 -3.57759 1.09359 0
M  V30 7389 H 688.621 -4.71272 1.41998 0
M  V30 7390 N 690.273 -0.685099 -1.4193 0
M  V30 7391 C 691.498 -0.218842 -2.06242 0
M  V30 7392 C 691.923 1.11923 -1.51178 0
M  V30 7393 O 691.281 1.69837 -0.634446 0
M  V30 7394 C 691.329 -0.175592 -3.60172 0
M  V30 7395 O 690.433 0.852776 -4.03487 0
M  V30 7396 H 689.774 -0.109531 -0.654904 0
M  V30 7397 H 692.304 -0.937013 -1.81882 0
M  V30 7398 H 692.314 -0.00291151 -4.08 0
M  V30 7399 H 690.989 -1.15222 -3.99621 0
M  V30 7400 H 689.566 0.650301 -3.67186 0
M  V30 7401 N 691.751 1.51645 -0.429126 0
M  V30 7402 C 692.999 2.01616 0.139802 0
M  V30 7403 C 693.32 1.31568 1.43927 0
M  V30 7404 O 692.59 0.447688 1.90716 0
M  V30 7405 H 691.17 0.744998 0.054654 0
M  V30 7406 H 693.832 1.8638 -0.569952 0
M  V30 7407 H 692.928 3.10439 0.321609 0
M  V30 7408 N 693.229 0.160201 1.56784 0
M  V30 7409 C 694.139 -0.787167 2.21 0
M  V30 7410 C 695.155 -1.26167 1.19825 0
M  V30 7411 O 696.331 -1.31611 1.52448 0
M  V30 7412 C 693.396 -2.00364 2.8294 0
M  V30 7413 C 692.457 -1.5771 3.99282 0
M  V30 7414 C 691.69 -2.73558 4.58259 0
M  V30 7415 O 691.913 -3.90129 4.16119 0
M  V30 7416 O 690.847 -2.48271 5.48311 0
M  V30 7417 H 694.673 -0.270462 3.02493 0
M  V30 7418 H 692.258 -0.0674666 1.49248 0
M  V30 7419 H 694.14 -2.71529 3.22257 0
M  V30 7420 H 692.815 -2.50961 2.04451 0
M  V30 7421 H 691.722 -0.835274 3.64656 0
M  V30 7422 H 693.055 -1.11815 4.79331 0
M  V30 7423 N 694.707 -1.5719 -0.113559 0
M  V30 7424 C 695.637 -2.03772 -1.14013 0
M  V30 7425 C 696.618 -0.923176 -1.42869 0
M  V30 7426 O 697.803 -1.19325 -1.53216 0
M  V30 7427 C 694.933 -2.44663 -2.4649 0
M  V30 7428 C 693.887 -3.59612 -2.32085 0
M  V30 7429 C 693.213 -3.8642 -3.69573 0
M  V30 7430 C 694.513 -4.91149 -1.7768 0
M  V30 7431 H 696.207 -2.89785 -0.752665 0
M  V30 7432 H 693.753 -1.39412 -0.360609 0
M  V30 7433 H 695.706 -2.75857 -3.18561 0
M  V30 7434 H 694.43 -1.55628 -2.87137 0
M  V30 7435 H 693.089 -3.28636 -1.62461 0
M  V30 7436 H 692.737 -2.94581 -4.07715 0
M  V30 7437 H 692.437 -4.63797 -3.60786 0
M  V30 7438 H 693.961 -4.2007 -4.4314 0
M  V30 7439 H 695.375 -5.20843 -2.39574 0
M  V30 7440 H 693.772 -5.72562 -1.79701 0
M  V30 7441 H 694.842 -4.79301 -0.734776 0
M  V30 7442 N 696.185 0.383891 -1.52853 0
M  V30 7443 C 697.115 1.47559 -1.80965 0
M  V30 7444 C 698.096 1.5669 -0.661986 0
M  V30 7445 O 699.281 1.71556 -0.910072 0
M  V30 7446 C 696.411 2.85114 -1.98312 0
M  V30 7447 C 695.365 2.9082 -3.14019 0
M  V30 7448 C 694.691 4.30873 -3.16627 0
M  V30 7449 C 695.991 2.60001 -4.52986 0
M  V30 7450 H 697.685 1.24283 -2.72386 0
M  V30 7451 H 695.231 0.596445 -1.31067 0
M  V30 7452 H 697.184 3.61496 -2.16561 0
M  V30 7453 H 695.908 3.09738 -1.03585 0
M  V30 7454 H 694.567 2.16886 -2.9556 0
M  V30 7455 H 694.215 4.52545 -2.19573 0
M  V30 7456 H 693.915 4.3561 -3.94357 0
M  V30 7457 H 695.439 5.09154 -3.37038 0
M  V30 7458 H 696.853 3.261 -4.71521 0
M  V30 7459 H 695.25 2.76081 -5.32822 0
M  V30 7460 H 696.32 1.5532 -4.59351 0
M  V30 7461 N 697.663 1.43903 0.642637 0
M  V30 7462 C 698.94 1.36556 1.40043 0
M  V30 7463 C 699.32 0.0185588 2.11092 0
M  V30 7464 O 698.668 -0.998438 2.05532 0
M  V30 7465 C 698.878 2.55596 2.37638 0
M  V30 7466 C 700.226 2.99153 3.01318 0
M  V30 7467 O 701.25 2.55719 2.47965 0
M  V30 7468 O 700.109 3.74427 3.98078 0
M  V30 7469 H 697.203 0.540189 0.626198 0
M  V30 7470 H 699.749 1.55971 0.668657 0
M  V30 7471 H 698.521 3.45256 1.84158 0
M  V30 7472 H 698.144 2.38334 3.18249 0
M  V30 7473 N 699.141 -0.881989 1.30609 0
M  V30 7474 C 700.104 -1.96957 1.1722 0
M  V30 7475 C 701.104 -1.60472 0.102598 0
M  V30 7476 O 702.294 -1.70628 0.350943 0
M  V30 7477 C 699.426 -3.31463 0.796572 0
M  V30 7478 H 700.619 -2.10262 2.13846 0
M  V30 7479 H 698.172 -1.06877 1.14048 0
M  V30 7480 H 698.907 -3.23859 -0.169053 0
M  V30 7481 H 698.692 -3.59314 1.56959 0
M  V30 7482 H 700.182 -4.11233 0.72645 0
M  V30 7483 N 700.619 -1.13374 -1.09472 0
M  V30 7484 C 701.867 -0.893422 -1.8128 0
M  V30 7485 C 702.188 0.582029 -1.86111 0
M  V30 7486 O 701.458 1.42305 -1.34633 0
M  V30 7487 H 700.038 -0.327543 -0.67136 0
M  V30 7488 H 702.7 -1.43018 -1.32408 0
M  V30 7489 H 701.796 -1.28374 -2.84476 0
M  V30 7490 N 702.098 1.27442 -0.927168 0
M  V30 7491 C 703.375 1.89473 -0.485742 0
M  V30 7492 C 703.755 1.83922 1.03614 0
M  V30 7493 O 703.103 1.28409 1.89007 0
M  V30 7494 C 703.313 3.33417 -1.03123 0
M  V30 7495 C 704.661 4.10333 -1.0914 0
M  V30 7496 O 705.685 3.4243 -0.98082 0
M  V30 7497 O 704.544 5.31737 -1.26165 0
M  V30 7498 H 701.638 0.812124 -0.156154 0
M  V30 7499 H 704.184 1.35713 -1.01882 0
M  V30 7500 H 702.956 3.31747 -2.07508 0
M  V30 7501 H 702.579 3.94695 -0.479767 0
M  V30 7502 N 703.576 0.692616 1.41565 0
M  V30 7503 C 704.822 0.222664 2.01574 0
M  V30 7504 C 705.155 -1.1737 1.54719 0
M  V30 7505 O 704.43 -1.79161 0.757084 0
M  V30 7506 C 704.713 0.277064 3.59033 0
M  V30 7507 C 704.566 1.71016 4.16021 0
M  V30 7508 C 705.885 -0.36479 4.38586 0
M  V30 7509 H 703.004 0.0823839 0.732381 0
M  V30 7510 H 705.646 0.880778 1.68352 0
M  V30 7511 H 703.796 -0.283288 3.87466 0
M  V30 7512 H 705.468 2.32413 3.98475 0
M  V30 7513 H 703.711 2.24525 3.71175 0
M  V30 7514 H 704.382 1.69978 5.25178 0
M  V30 7515 H 706.858 0.112404 4.15948 0
M  V30 7516 H 705.734 -0.296169 5.481 0
M  V30 7517 H 705.995 -1.44506 4.17816 0
M  V30 7518 N 705.054 -1.51416 0.437162 0
M  V30 7519 C 706.301 -2.02086 -0.129364 0
M  V30 7520 C 706.629 -1.32133 -1.42728 0
M  V30 7521 O 705.884 -0.424916 -1.91031 0
M  V30 7522 C 706.183 -3.55203 -0.39564 0
M  V30 7523 C 705.849 -4.43447 0.81644 0
M  V30 7524 C 704.511 -4.67285 1.14884 0
M  V30 7525 C 706.863 -4.95219 1.62503 0
M  V30 7526 C 704.191 -5.40141 2.29052 0
M  V30 7527 C 706.543 -5.69327 2.7577 0
M  V30 7528 C 705.207 -5.91429 3.09464 0
M  V30 7529 H 704.477 -0.739486 -0.0473375 0
M  V30 7530 H 707.124 -1.82368 0.584321 0
M  V30 7531 H 705.429 -3.73252 -1.19121 0
M  V30 7532 H 707.126 -3.91944 -0.847399 0
M  V30 7533 H 703.716 -4.2509 0.547422 0
M  V30 7534 H 707.9 -4.76686 1.38144 0
M  V30 7535 H 703.156 -5.55468 2.55471 0
M  V30 7536 H 707.33 -6.08433 3.38795 0
M  V30 7537 H 704.957 -6.47662 3.98042 0
M  V30 7538 N 706.532 -0.168513 -1.56696 0
M  V30 7539 C 707.778 0.477865 -1.9709 0
M  V30 7540 C 708.111 1.63084 -1.05438 0
M  V30 7541 O 707.386 1.94238 -0.10095 0
M  V30 7542 C 707.669 0.963521 -3.4697 0
M  V30 7543 C 707.522 -0.189443 -4.49401 0
M  V30 7544 C 708.841 1.83813 -3.99876 0
M  V30 7545 H 705.96 0.172229 -0.716593 0
M  V30 7546 H 708.602 -0.254083 -1.88293 0
M  V30 7547 H 706.752 1.58724 -3.54597 0
M  V30 7548 H 708.424 -0.826451 -4.53836 0
M  V30 7549 H 706.667 -0.845366 -4.25483 0
M  V30 7550 H 707.338 0.192446 -5.51664 0
M  V30 7551 H 709.814 1.31235 -3.94863 0
M  V30 7552 H 708.69 2.14697 -5.0517 0
M  V30 7553 H 708.951 2.78289 -3.43523 0
M  V30 7554 N 708.01 1.57248 0.105221 0
M  V30 7555 C 709.235 1.90143 0.828264 0
M  V30 7556 C 709.66 0.761811 1.71983 0
M  V30 7557 O 709.018 -0.287086 1.79013 0
M  V30 7558 C 709.066 3.21856 1.62608 0
M  V30 7559 O 708.17 3.08732 2.7342 0
M  V30 7560 H 707.511 0.623558 0.228192 0
M  V30 7561 H 710.041 2.0443 0.0834826 0
M  V30 7562 H 710.051 3.54916 2.01243 0
M  V30 7563 H 708.726 4.0439 0.971687 0
M  V30 7564 H 707.303 2.87167 2.37886 0
M  V30 7565 N 709.488 -0.375779 1.53054 0
M  V30 7566 C 710.736 -1.11727 1.68409 0
M  V30 7567 C 711.057 -1.90127 0.43323 0
M  V30 7568 O 710.327 -1.87945 -0.552595 0
M  V30 7569 H 708.907 -0.415451 0.620813 0
M  V30 7570 H 711.569 -0.424869 1.90213 0
M  V30 7571 H 710.665 -1.8128 2.54055 0
M  V30 7572 N 710.966 -1.44241 -0.634997 0
M  V30 7573 C 712.243 -1.37296 -1.39317 0
M  V30 7574 C 712.623 -0.0297532 -2.11079 0
M  V30 7575 O 711.971 0.987524 -2.06059 0
M  V30 7576 C 712.181 -2.56853 -2.36279 0
M  V30 7577 C 713.529 -3.00747 -2.99728 0
M  V30 7578 O 714.553 -2.5703 -2.46605 0
M  V30 7579 O 713.412 -3.76533 -3.96087 0
M  V30 7580 H 710.506 -0.543503 -0.623325 0
M  V30 7581 H 713.052 -1.56324 -0.660376 0
M  V30 7582 H 711.824 -3.46228 -1.82324 0
M  V30 7583 H 711.447 -2.40019 -3.16981 0
M  V30 7584 N 712.444 0.87505 -1.31075 0
M  V30 7585 C 713.855 1.4433 -1.18431 0
M  V30 7586 C 714.206 1.9506 0.211189 0
M  V30 7587 O 713.331 1.85847 1.10859 0
M  V30 7588 C 713.926 2.62341 -2.14389 0
M  V30 7589 C 712.485 3.15225 -2.05694 0
M  V30 7590 C 711.632 1.87929 -2.03907 0
M  V30 7591 H 714.583 0.684061 -1.432 0
M  V30 7592 H 714.604 3.3887 -1.73053 0
M  V30 7593 H 714.116 2.25388 -3.15946 0
M  V30 7594 H 712.217 3.56812 -1.07314 0
M  V30 7595 H 712.33 3.77853 -2.94558 0
M  V30 7596 H 710.694 2.06679 -1.48849 0
M  V30 7597 H 711.477 1.53221 -3.07211 0
M  V30 7598 N 713.922 1.13953 1.08869 0
M  V30 7599 C 714.869 0.82213 2.15661 0
M  V30 7600 C 715.839 -0.218274 1.6466 0
M  V30 7601 O 717.024 -0.0892475 1.90591 0
M  V30 7602 C 714.164 0.300572 3.43789 0
M  V30 7603 C 713.277 1.40071 4.08661 0
M  V30 7604 C 712.412 0.836897 5.24566 0
M  V30 7605 C 711.451 1.91504 5.81371 0
M  V30 7606 N 710.588 1.36875 6.88629 0
M  V30 7607 H 715.428 1.73683 2.42153 0
M  V30 7608 H 712.965 0.866879 1.18843 0
M  V30 7609 H 714.923 -0.0199943 4.17195 0
M  V30 7610 H 713.553 -0.577248 3.17597 0
M  V30 7611 H 712.605 1.83776 3.33062 0
M  V30 7612 H 713.917 2.21534 4.46905 0
M  V30 7613 H 713.071 0.467953 6.04893 0
M  V30 7614 H 711.81 -0.00874207 4.87699 0
M  V30 7615 H 710.815 2.29299 4.99702 0
M  V30 7616 H 712.04 2.76419 6.20298 0
M  V30 7617 H 709.986 0.545211 6.5373 0
M  V30 7618 H 709.903 2.1198 7.25672 0
M  V30 7619 H 711.171 1.02756 7.72698 0
M  V30 7620 N 715.4 -1.26948 0.933913 0
M  V30 7621 C 716.31 -2.30366 0.443671 0
M  V30 7622 C 717.326 -1.67284 -0.478745 0
M  V30 7623 O 718.502 -1.98156 -0.360043 0
M  V30 7624 C 715.567 -3.45485 -0.289974 0
M  V30 7625 C 714.628 -4.24069 0.668114 0
M  V30 7626 C 713.861 -5.33691 -0.0306138 0
M  V30 7627 O 714.084 -5.5656 -1.24888 0
M  V30 7628 O 713.018 -5.98441 0.644384 0
M  V30 7629 H 716.844 -2.74349 1.30254 0
M  V30 7630 H 714.429 -1.32012 0.699506 0
M  V30 7631 H 716.311 -4.15486 -0.70353 0
M  V30 7632 H 714.986 -3.03546 -1.12435 0
M  V30 7633 H 713.893 -3.56579 1.13147 0
M  V30 7634 H 715.226 -4.69739 1.46989 0
M  V30 7635 N 716.879 -0.700114 -1.41195 0
M  V30 7636 C 717.811 0.00155823 -2.292 0
M  V30 7637 C 718.824 0.739736 -1.45023 0
M  V30 7638 O 720.013 0.589684 -1.68478 0
M  V30 7639 C 717.113 1.02635 -3.22985 0
M  V30 7640 C 716.286 0.356871 -4.35942 0
M  V30 7641 C 715.345 1.28491 -5.10271 0
M  V30 7642 O 714.371 0.775562 -5.63892 0
M  V30 7643 N 715.573 2.61699 -5.18164 0
M  V30 7644 H 718.338 -0.754008 -2.9006 0
M  V30 7645 H 715.899 -0.546504 -1.52397 0
M  V30 7646 H 717.891 1.64902 -3.6958 0
M  V30 7647 H 716.461 1.68341 -2.63401 0
M  V30 7648 H 715.681 -0.445753 -3.91672 0
M  V30 7649 H 716.969 -0.108469 -5.08684 0
M  V30 7650 H 716.367 3.05594 -4.76056 0
M  V30 7651 H 714.924 3.19149 -5.6832 0
M  V30 7652 N 718.357 1.51182 -0.445186 0
M  V30 7653 C 719.304 2.27939 0.362291 0
M  V30 7654 C 720.274 1.31864 1.01 0
M  V30 7655 O 721.459 1.60776 1.02741 0
M  V30 7656 C 718.599 3.13016 1.45311 0
M  V30 7657 C 717.712 4.24093 0.822757 0
M  V30 7658 C 716.847 4.96467 1.88928 0
M  V30 7659 C 715.886 5.99454 1.23778 0
M  V30 7660 N 715.023 6.65206 2.24602 0
M  V30 7661 H 719.863 2.965 -0.29862 0
M  V30 7662 H 717.4 1.46237 -0.15911 0
M  V30 7663 H 719.358 3.60673 2.09692 0
M  V30 7664 H 717.988 2.46553 2.08354 0
M  V30 7665 H 717.04 3.80341 0.0670364 0
M  V30 7666 H 718.352 4.97853 0.307184 0
M  V30 7667 H 717.506 5.47712 2.60953 0
M  V30 7668 H 716.245 4.22355 2.4386 0
M  V30 7669 H 715.25 5.47494 0.503042 0
M  V30 7670 H 716.475 6.75527 0.695694 0
M  V30 7671 H 714.421 5.93901 2.78599 0
M  V30 7672 H 714.338 7.34756 1.77958 0
M  V30 7673 H 715.606 7.21078 2.96085 0
M  V30 7674 N 719.835 0.176821 1.56605 0
M  V30 7675 C 721.246 -0.338963 1.83597 0
M  V30 7676 C 721.597 -1.62677 1.09684 0
M  V30 7677 O 720.722 -2.13524 0.351661 0
M  V30 7678 C 721.317 -0.62177 3.33046 0
M  V30 7679 C 719.876 -1.08198 3.60514 0
M  V30 7680 C 719.023 -0.120774 2.77037 0
M  V30 7681 H 721.974 0.400978 1.53551 0
M  V30 7682 H 721.995 -1.47321 3.50823 0
M  V30 7683 H 721.507 0.315692 3.86814 0
M  V30 7684 H 719.608 -2.03435 3.12162 0
M  V30 7685 H 719.721 -0.987329 4.68816 0
M  V30 7686 H 718.085 -0.619192 2.47059 0
M  V30 7687 H 718.868 0.810806 3.33588 0
M  V30 7688 N 721.313 -1.57302 -0.09688 0
M  V30 7689 C 722.724 -1.7496 -0.651595 0
M  V30 7690 C 723.075 -0.798746 -1.79205 0
M  V30 7691 O 722.2 0.0231858 -2.16388 0
M  V30 7692 C 722.795 -3.17259 -1.18878 0
M  V30 7693 C 721.354 -3.36348 -1.68958 0
M  V30 7694 C 720.501 -2.70766 -0.598413 0
M  V30 7695 H 723.452 -1.58173 0.12918 0
M  V30 7696 H 723.473 -3.20033 -2.05814 0
M  V30 7697 H 722.985 -3.8644 -0.358523 0
M  V30 7698 H 721.086 -2.72243 -2.5439 0
M  V30 7699 H 721.199 -4.44654 -1.7838 0
M  V30 7700 H 719.563 -2.32615 -1.03743 0
M  V30 7701 H 720.346 -3.42586 0.221238 0
M  V30 7702 N 722.791 0.367657 -1.53252 0
M  V30 7703 C 723.723 1.47032 -1.75824 0
M  V30 7704 C 724.736 1.49736 -0.63898 0
M  V30 7705 O 725.925 1.53253 -0.915193 0
M  V30 7706 C 723.025 2.85805 -1.82122 0
M  V30 7707 C 722.198 3.06822 -3.11736 0
M  V30 7708 C 721.257 4.25698 -3.09302 0
M  V30 7709 O 720.283 4.20972 -3.83107 0
M  V30 7710 N 721.485 5.33002 -2.29977 0
M  V30 7711 H 724.25 1.28048 -2.70968 0
M  V30 7712 H 721.811 0.557363 -1.52004 0
M  V30 7713 H 723.803 3.63465 -1.77975 0
M  V30 7714 H 722.373 2.98046 -0.942716 0
M  V30 7715 H 721.593 2.1684 -3.29202 0
M  V30 7716 H 722.881 3.17731 -3.97397 0
M  V30 7717 H 722.279 5.39703 -1.69521 0
M  V30 7718 H 720.836 6.09247 -2.3165 0
M  V30 7719 N 724.269 1.44576 0.627338 0
M  V30 7720 C 725.232 1.51372 1.72102 0
M  V30 7721 C 726.232 0.395329 1.55865 0
M  V30 7722 O 727.422 0.658094 1.61291 0
M  V30 7723 C 724.554 1.39129 3.11217 0
M  V30 7724 H 725.747 2.48798 1.6745 0
M  V30 7725 H 723.3 1.31724 0.841336 0
M  V30 7726 H 724.035 0.428114 3.21462 0
M  V30 7727 H 723.82 2.20229 3.24409 0
M  V30 7728 H 725.31 1.46874 3.90919 0
M  V30 7729 N 725.747 -0.868086 1.31537 0
M  V30 7730 C 726.972 -1.65926 1.24432 0
M  V30 7731 C 727.397 -1.87169 -0.186936 0
M  V30 7732 O 726.755 -1.4148 -1.13371 0
M  V30 7733 C 726.803 -3.00347 1.9956 0
M  V30 7734 O 725.907 -3.90221 1.33422 0
M  V30 7735 H 725.248 -0.506375 0.429512 0
M  V30 7736 H 727.778 -1.0822 1.73637 0
M  V30 7737 H 727.788 -3.50269 2.09226 0
M  V30 7738 H 726.463 -2.84205 3.03645 0
M  V30 7739 H 725.04 -3.48672 1.32219 0
M  V30 7740 N 727.225 -1.14528 -1.08264 0
M  V30 7741 C 728.473 -0.912599 -1.80322 0
M  V30 7742 C 728.794 0.562256 -1.86718 0
M  V30 7743 O 728.064 1.40869 -1.36135 0
M  V30 7744 H 726.644 -0.334645 -0.667849 0
M  V30 7745 H 729.306 -1.44415 -1.30883 0
M  V30 7746 H 728.402 -1.31384 -2.83098 0
M  V30 7747 N 728.703 1.26451 -0.940633 0
M  V30 7748 C 729.633 2.28773 -0.467479 0
M  V30 7749 C 730.614 1.63218 0.478955 0
M  V30 7750 O 731.799 1.90427 0.380929 0
M  V30 7751 C 728.929 3.46259 0.268656 0
M  V30 7752 C 727.883 4.23898 -0.591171 0
M  V30 7753 C 727.209 5.33993 0.274891 0
M  V30 7754 C 728.509 4.87974 -1.86223 0
M  V30 7755 H 730.203 2.68601 -1.32265 0
M  V30 7756 H 727.749 1.29123 -0.637436 0
M  V30 7757 H 729.702 4.16951 0.610696 0
M  V30 7758 H 728.426 3.05383 1.15796 0
M  V30 7759 H 727.085 3.54969 -0.916098 0
M  V30 7760 H 726.733 4.89358 1.16353 0
M  V30 7761 H 726.433 5.86849 -0.297006 0
M  V30 7762 H 727.957 6.07523 0.612213 0
M  V30 7763 H 729.371 5.50883 -1.58747 0
M  V30 7764 H 727.768 5.50945 -2.37866 0
M  V30 7765 H 728.838 4.10945 -2.57394 0
M  V30 7766 N 730.181 0.707592 1.40822 0
M  V30 7767 C 731.111 0.0644925 2.33411 0
M  V30 7768 C 732.092 -0.754205 1.52466 0
M  V30 7769 O 733.277 -0.704749 1.80961 0
M  V30 7770 C 730.407 -0.863865 3.36385 0
M  V30 7771 C 729.361 -0.15138 4.27732 0
M  V30 7772 C 728.687 -1.19491 5.21177 0
M  V30 7773 C 729.987 0.989607 5.12839 0
M  V30 7774 H 731.681 0.837829 2.87438 0
M  V30 7775 H 729.227 0.404346 1.38207 0
M  V30 7776 H 731.18 -1.32309 4.0009 0
M  V30 7777 H 729.904 -1.66901 2.80734 0
M  V30 7778 H 728.563 0.287937 3.65467 0
M  V30 7779 H 728.211 -1.9929 4.61836 0
M  V30 7780 H 727.911 -0.723123 5.83134 0
M  V30 7781 H 729.435 -1.6544 5.8776 0
M  V30 7782 H 730.849 0.610114 5.70044 0
M  V30 7783 H 729.246 1.38926 5.83798 0
M  V30 7784 H 730.316 1.82389 4.49291 0
M  V30 7785 N 731.66 -1.50943 0.453197 0
M  V30 7786 C 732.59 -2.31005 -0.34044 0
M  V30 7787 C 733.571 -1.37112 -1.00669 0
M  V30 7788 O 734.756 -1.66033 -1.0073 0
M  V30 7789 C 731.886 -3.16358 -1.433 0
M  V30 7790 C 730.84 -4.18658 -0.889363 0
M  V30 7791 C 730.166 -4.92633 -2.07887 0
M  V30 7792 C 731.466 -5.22227 0.0871142 0
M  V30 7793 H 733.16 -2.97601 0.327723 0
M  V30 7794 H 730.706 -1.43119 0.159054 0
M  V30 7795 H 732.659 -3.71155 -1.99555 0
M  V30 7796 H 731.383 -2.47613 -2.12968 0
M  V30 7797 H 730.042 -3.64936 -0.348915 0
M  V30 7798 H 729.69 -4.20376 -2.76211 0
M  V30 7799 H 729.39 -5.61819 -1.72143 0
M  V30 7800 H 730.914 -5.50258 -2.64666 0
M  V30 7801 H 732.328 -5.72001 -0.385656 0
M  V30 7802 H 730.725 -5.99032 0.357926 0
M  V30 7803 H 731.795 -4.74077 1.01879 0
M  V30 7804 N 733.138 -0.185124 -1.56509 0
M  V30 7805 C 734.088 0.752315 -2.15231 0
M  V30 7806 C 735.072 1.18327 -1.0903 0
M  V30 7807 O 736.264 1.14333 -1.35119 0
M  V30 7808 C 733.393 1.97583 -2.80742 0
M  V30 7809 C 732.479 1.56623 -3.94119 0
M  V30 7810 N 732.87 0.867008 -4.98314 0
M  V30 7811 C 731.168 1.85626 -4.05535 0
M  V30 7812 C 731.869 0.663228 -5.77907 0
M  V30 7813 N 730.845 1.20891 -5.29987 0
M  V30 7814 H 734.647 0.209267 -2.93154 0
M  V30 7815 H 732.161 0.0150444 -1.62393 0
M  V30 7816 H 734.158 2.65779 -3.21197 0
M  V30 7817 H 732.818 2.52369 -2.04303 0
M  V30 7818 H 733.829 0.52355 -5.15247 0
M  V30 7819 H 730.506 2.41992 -3.40215 0
M  V30 7820 H 731.896 0.109273 -6.71811 0
M  V30 7821 N 734.616 1.57351 0.0885366 0
M  V30 7822 C 736.032 1.53331 0.442916 0
M  V30 7823 C 736.232 0.902831 1.80142 0
M  V30 7824 O 735.288 0.498147 2.47537 0
M  V30 7825 C 736.601 2.98036 0.399372 0
M  V30 7826 C 738.149 3.09286 0.480759 0
M  V30 7827 C 738.624 4.5561 0.467296 0
M  V30 7828 N 740.115 4.60182 0.52786 0
M  V30 7829 C 740.85 5.70857 0.539388 0
M  V30 7830 N 740.346 6.90944 0.506729 0
M  V30 7831 N 742.139 5.59051 0.584691 0
M  V30 7832 H 734.29 1.96709 -0.801215 0
M  V30 7833 H 736.553 0.899639 -0.298922 0
M  V30 7834 H 736.259 3.47656 -0.531806 0
M  V30 7835 H 736.133 3.57066 1.21589 0
M  V30 7836 H 738.52 2.5965 1.40236 0
M  V30 7837 H 738.601 2.53197 -0.364023 0
M  V30 7838 H 738.245 5.05899 -0.450384 0
M  V30 7839 H 738.175 5.09544 1.32938 0
M  V30 7840 H 740.666 3.73757 0.558028 0
M  V30 7841 H 740.979 7.71055 0.518989 0
M  V30 7842 H 739.324 6.93384 0.473675 0
M  V30 7843 H 742.515 4.64138 0.607781 0
M  V30 7844 H 742.688 6.45307 0.590206 0
M  V30 7845 N 736.094 -0.359525 1.53444 0
M  V30 7846 C 737.041 -1.44073 1.8031 0
M  V30 7847 C 738.011 -1.52946 0.647811 0
M  V30 7848 O 739.196 -1.68739 0.890614 0
M  V30 7849 C 736.336 -2.80941 2.00416 0
M  V30 7850 C 735.449 -2.80986 3.28132 0
M  V30 7851 C 734.584 -4.09468 3.38393 0
M  V30 7852 C 733.623 -4.03679 4.60119 0
M  V30 7853 N 732.76 -5.23821 4.675 0
M  V30 7854 H 737.6 -1.20464 2.72566 0
M  V30 7855 H 735.137 -0.583859 1.35017 0
M  V30 7856 H 737.095 -3.60459 2.1006 0
M  V30 7857 H 735.725 -3.02936 1.11489 0
M  V30 7858 H 734.777 -1.93666 3.27411 0
M  V30 7859 H 736.089 -2.72583 4.17732 0
M  V30 7860 H 735.243 -4.97404 3.47382 0
M  V30 7861 H 733.982 -4.20632 2.4682 0
M  V30 7862 H 732.987 -3.14129 4.51224 0
M  V30 7863 H 734.212 -3.94112 5.5304 0
M  V30 7864 H 732.158 -5.35559 3.7883 0
M  V30 7865 H 732.075 -5.17611 5.51013 0
M  V30 7866 H 733.343 -6.13572 4.8078 0
M  V30 7867 N 737.572 -1.44907 -0.619662 0
M  V30 7868 C 738.82 -1.47999 -1.37625 0
M  V30 7869 C 739.141 -0.118295 -1.94641 0
M  V30 7870 O 738.411 0.85086 -1.76457 0
M  V30 7871 H 736.991 -0.544993 -0.510873 0
M  V30 7872 H 739.653 -1.80772 -0.728522 0
M  V30 7873 H 738.749 -2.21196 -2.20179 0
M  V30 7874 N 739.05 0.861098 -1.31996 0
M  V30 7875 C 740.299 1.60965 -1.21545 0
M  V30 7876 C 740.612 1.94325 0.222972 0
M  V30 7877 O 741.818 2.67757 0.449272 0
M  V30 7878 C 740.274 2.90223 -2.12834 0
M  V30 7879 C 739.882 2.64313 -3.61722 0
M  V30 7880 C 741.626 3.68229 -2.11205 0
M  V30 7881 C 739.533 3.89532 -4.44993 0
M  V30 7882 H 738.463 0.603988 -0.451348 0
M  V30 7883 H 741.114 0.951358 -1.56912 0
M  V30 7884 H 739.496 3.57475 -1.70375 0
M  V30 7885 H 740.67 2.05413 -4.12483 0
M  V30 7886 H 738.985 1.99647 -3.65418 0
M  V30 7887 H 741.582 4.61138 -2.70658 0
M  V30 7888 H 741.925 4.01466 -1.1014 0
M  V30 7889 H 742.458 3.07873 -2.51911 0
M  V30 7890 H 739.197 3.61441 -5.46846 0
M  V30 7891 H 738.717 4.47851 -3.98985 0
M  V30 7892 H 740.396 4.57334 -4.57663 0
M  V30 7893 N 740.528 1.15101 1.07655 0
M  V30 7894 C 741.458 0.867864 2.16773 0
M  V30 7895 C 742.439 -0.180283 1.69142 0
M  V30 7896 O 743.624 -0.0353152 1.94168 0
M  V30 7897 C 740.754 0.35299 3.45501 0
M  V30 7898 C 739.708 1.33746 4.06566 0
M  V30 7899 C 739.034 0.681562 5.30338 0
M  V30 7900 C 740.334 2.7024 4.46954 0
M  V30 7901 H 742.028 1.78034 2.40716 0
M  V30 7902 H 739.574 0.857435 1.15689 0
M  V30 7903 H 741.527 0.142465 4.21159 0
M  V30 7904 H 740.251 -0.594945 3.21135 0
M  V30 7905 H 738.91 1.53429 3.32949 0
M  V30 7906 H 738.558 -0.272422 5.02262 0
M  V30 7907 H 738.258 1.33853 5.72151 0
M  V30 7908 H 739.782 0.48074 6.08705 0
M  V30 7909 H 741.196 2.5442 5.13754 0
M  V30 7910 H 739.593 3.32282 4.99709 0
M  V30 7911 H 740.663 3.26537 3.58471 0
M  V30 7912 N 742.006 -1.2595 0.947325 0
M  V30 7913 C 742.953 -2.26159 0.460497 0
M  V30 7914 C 743.923 -1.58919 -0.483125 0
M  V30 7915 O 745.108 -1.86603 -0.397983 0
M  V30 7916 C 742.248 -3.441 -0.26247 0
M  V30 7917 C 741.361 -4.25999 0.717539 0
M  V30 7918 C 740.496 -5.31193 -0.0272486 0
M  V30 7919 C 739.535 -6.04774 0.944177 0
M  V30 7920 N 738.672 -7.01721 0.230741 0
M  V30 7921 H 743.512 -2.67173 1.31995 0
M  V30 7922 H 741.049 -1.31358 0.662088 0
M  V30 7923 H 743.007 -4.11317 -0.698137 0
M  V30 7924 H 741.637 -3.03983 -1.08602 0
M  V30 7925 H 740.689 -3.58513 1.27171 0
M  V30 7926 H 742.001 -4.76981 1.45913 0
M  V30 7927 H 741.155 -6.04451 -0.521903 0
M  V30 7928 H 739.894 -4.81066 -0.801682 0
M  V30 7929 H 738.899 -5.30338 1.4499 0
M  V30 7930 H 740.124 -6.56991 1.71872 0
M  V30 7931 H 738.07 -6.53895 -0.525088 0
M  V30 7932 H 737.987 -7.50484 0.911556 0
M  V30 7933 H 739.255 -7.79122 -0.242616 0
M  V30 7934 N 743.484 -0.715051 -1.40445 0
M  V30 7935 C 744.414 -0.0768699 -2.33373 0
M  V30 7936 C 745.395 0.746109 -1.52863 0
M  V30 7937 O 746.58 0.695142 -1.81332 0
M  V30 7938 C 743.71 0.846014 -3.36838 0
M  V30 7939 C 742.664 0.128694 -4.27806 0
M  V30 7940 C 741.99 1.16726 -5.21804 0
M  V30 7941 C 743.29 -1.01679 -5.12307 0
M  V30 7942 H 744.984 -0.853061 -2.8699 0
M  V30 7943 H 742.53 -0.41167 -1.3799 0
M  V30 7944 H 744.483 1.30185 -4.00786 0
M  V30 7945 H 743.207 1.6541 -2.81615 0
M  V30 7946 H 741.866 -0.307314 -3.6531 0
M  V30 7947 H 741.514 1.96838 -4.62887 0
M  V30 7948 H 741.214 0.692188 -5.83509 0
M  V30 7949 H 742.738 1.62321 -5.88629 0
M  V30 7950 H 744.152 -0.640337 -5.69713 0
M  V30 7951 H 742.549 -1.4202 -5.83053 0
M  V30 7952 H 743.619 -1.84769 -4.48317 0
M  V30 7953 N 744.962 1.50701 -0.461195 0
M  V30 7954 C 745.91 2.29918 0.352231 0
M  V30 7955 C 746.904 1.36778 0.999403 0
M  V30 7956 O 748.11 1.54015 0.931639 0
M  V30 7957 H 744.485 0.740249 0.132423 0
M  V30 7958 H 746.456 2.96497 -0.336424 0
M  V30 7959 C 745.205 3.17052 1.42736 0
M  V30 7960 H 744.528 3.88623 0.938747 0
M  V30 7961 H 745.968 3.75493 1.96928 0
M  V30 7962 C 744.427 2.3399 2.42384 0
M  V30 7963 O 744.957 2.01608 3.47444 0
M  V30 7964 N 743.163 1.96758 2.13857 0
M  V30 7965 H 742.71 2.23292 1.28447 0
M  V30 7966 H 742.668 1.41484 2.80766 0
M  V30 7967 N 746.441 0.193421 1.56409 0
M  V30 7968 C 747.689 -0.444908 1.97142 0
M  V30 7969 C 748.01 -1.62268 1.08139 0
M  V30 7970 O 747.28 -1.95307 0.152326 0
M  V30 7971 H 745.86 -0.16736 0.728011 0
M  V30 7972 H 748.522 0.279763 1.92882 0
M  V30 7973 H 747.618 -0.790159 3.01932 0
M  V30 7974 N 747.919 -1.57396 -0.0801906 0
M  V30 7975 C 748.866 -2.03107 -1.09618 0
M  V30 7976 C 749.836 -0.910118 -1.38946 0
M  V30 7977 O 751.021 -1.17719 -1.50156 0
M  V30 7978 C 748.161 -2.47293 -2.40708 0
M  V30 7979 C 747.274 -3.72972 -2.17982 0
M  V30 7980 C 746.409 -4.05975 -3.42576 0
M  V30 7981 C 745.448 -5.24719 -3.15177 0
M  V30 7982 N 744.585 -5.53401 -4.32078 0
M  V30 7983 H 749.425 -2.89677 -0.69939 0
M  V30 7984 H 746.962 -1.43263 -0.333785 0
M  V30 7985 H 748.92 -2.7096 -3.17232 0
M  V30 7986 H 747.55 -1.63713 -2.78205 0
M  V30 7987 H 746.602 -3.56693 -1.32189 0
M  V30 7988 H 747.914 -4.59638 -1.93738 0
M  V30 7989 H 747.068 -4.30498 -4.275 0
M  V30 7990 H 745.807 -3.17859 -3.69887 0
M  V30 7991 H 744.812 -5 -2.28648 0
M  V30 7992 H 746.037 -6.14445 -2.89197 0
M  V30 7993 H 743.983 -4.68245 -4.59437 0
M  V30 7994 H 743.9 -6.34469 -4.11078 0
M  V30 7995 H 745.168 -5.8247 -5.18024 0
M  V30 7996 N 749.397 0.351382 -1.53633 0
M  V30 7997 C 750.644 1.0925 -1.70502 0
M  V30 7998 C 750.972 1.88881 -0.464123 0
M  V30 7999 O 750.227 1.87693 0.554077 0
M  V30 8000 C 750.526 2.06744 -2.91533 0
M  V30 8001 C 750.192 1.43484 -4.27461 0
M  V30 8002 C 748.854 1.2596 -4.64422 0
M  V30 8003 C 751.206 0.978436 -5.11934 0
M  V30 8004 C 748.534 0.614017 -5.83478 0
M  V30 8005 C 750.886 0.346795 -6.31649 0
M  V30 8006 C 749.55 0.15917 -6.6731 0
M  V30 8007 H 748.82 0.399773 -0.623909 0
M  V30 8008 H 751.467 0.372656 -1.87839 0
M  V30 8009 H 749.772 2.85082 -2.68767 0
M  V30 8010 H 751.469 2.64066 -3.01778 0
M  V30 8011 H 748.059 1.5812 -3.98367 0
M  V30 8012 H 752.243 1.1017 -4.83918 0
M  V30 8013 H 747.499 0.457194 -6.09688 0
M  V30 8014 H 751.673 -0.0149864 -6.96398 0
M  V30 8015 H 749.3 -0.343129 -7.59425 0
M  V30 8016 N 750.875 1.45233 0.611969 0
M  V30 8017 C 752.1 1.52767 1.40274 0
M  V30 8018 C 752.525 0.159701 1.87421 0
M  V30 8019 O 751.883 -0.854837 1.59882 0
M  V30 8020 C 751.931 2.51286 2.58626 0
M  V30 8021 O 751.035 2.02764 3.59111 0
M  V30 8022 H 750.376 0.515141 0.418958 0
M  V30 8023 H 752.906 1.90547 0.745188 0
M  V30 8024 H 752.916 2.69949 3.05927 0
M  V30 8025 H 751.591 3.50641 2.23659 0
M  V30 8026 H 750.168 1.93957 3.18489 0
M  V30 8027 N 752.353 -0.854086 1.3245 0
M  V30 8028 C 753.285 -1.96932 1.17262 0
M  V30 8029 C 754.298 -1.62445 0.107469 0
M  V30 8030 O 755.487 -1.74904 0.356481 0
M  V30 8031 C 752.587 -3.29971 0.772817 0
M  V30 8032 C 751.76 -3.92695 1.92638 0
M  V30 8033 C 750.819 -5.04068 1.51003 0
M  V30 8034 O 749.845 -5.24032 2.22213 0
M  V30 8035 N 751.047 -5.79076 0.406371 0
M  V30 8036 H 753.812 -2.10503 2.13327 0
M  V30 8037 H 751.373 -1.02897 1.24995 0
M  V30 8038 H 753.365 -4.01883 0.476684 0
M  V30 8039 H 751.935 -3.1245 -0.0967 0
M  V30 8040 H 751.155 -3.13563 2.38897 0
M  V30 8041 H 752.443 -4.31337 2.69863 0
M  V30 8042 H 751.841 -5.65393 -0.186302 0
M  V30 8043 H 750.398 -6.51579 0.169846 0
M  V30 8044 N 753.831 -1.1567 -1.07043 0
M  V30 8045 C 755.059 -0.957471 -1.83412 0
M  V30 8046 C 755.474 0.494271 -1.82215 0
M  V30 8047 O 754.831 1.34288 -1.23584 0
M  V30 8048 C 754.882 -1.46784 -3.30359 0
M  V30 8049 O 754.603 -2.86271 -3.31633 0
M  V30 8050 C 756.104 -1.31054 -4.23485 0
M  V30 8051 H 753.324 -0.33986 -0.578564 0
M  V30 8052 H 755.868 -1.53518 -1.35102 0
M  V30 8053 H 754.023 -0.932586 -3.76007 0
M  V30 8054 H 754.437 -3.0948 -4.23465 0
M  V30 8055 H 755.911 -1.71605 -5.24648 0
M  V30 8056 H 756.388 -0.255107 -4.38458 0
M  V30 8057 H 756.994 -1.83503 -3.83676 0
M  V30 8058 N 755.309 1.25446 -0.953992 0
M  V30 8059 C 756.272 2.24156 -0.478179 0
M  V30 8060 C 757.272 1.55278 0.417776 0
M  V30 8061 O 758.462 1.72866 0.215155 0
M  V30 8062 C 755.594 3.39495 0.309202 0
M  V30 8063 H 756.787 2.67764 -1.35064 0
M  V30 8064 H 754.34 1.37822 -0.737206 0
M  V30 8065 H 755.075 3.01307 1.19936 0
M  V30 8066 H 754.86 3.90679 -0.333562 0
M  V30 8067 H 756.35 4.12796 0.631594 0
M  V30 8068 N 756.787 0.722489 1.40064 0
M  V30 8069 C 757.717 0.0892452 2.33329 0
M  V30 8070 C 758.698 -0.737992 1.53257 0
M  V30 8071 O 759.883 -0.685516 1.81698 0
M  V30 8072 C 757.013 -0.828139 3.37282 0
M  V30 8073 C 755.967 -0.106005 4.27869 0
M  V30 8074 C 755.293 -1.13957 5.22415 0
M  V30 8075 C 756.593 1.04395 5.11761 0
M  V30 8076 H 758.287 0.868269 2.86534 0
M  V30 8077 H 755.833 0.418982 1.3777 0
M  V30 8078 H 757.786 -1.28058 4.01471 0
M  V30 8079 H 756.51 -1.63914 2.82489 0
M  V30 8080 H 755.169 0.326683 3.65142 0
M  V30 8081 H 754.817 -1.9438 4.63924 0
M  V30 8082 H 754.517 -0.661233 5.83868 0
M  V30 8083 H 756.041 -1.59197 5.89482 0
M  V30 8084 H 757.455 0.670541 5.69365 0
M  V30 8085 H 755.852 1.4511 5.82291 0
M  V30 8086 H 756.922 1.87144 4.47331 0
M  V30 8087 N 758.265 -1.50454 0.469181 0
M  V30 8088 C 759.175 -2.32248 -0.331349 0
M  V30 8089 C 760.191 -1.42548 -0.997807 0
M  V30 8090 O 761.367 -1.75602 -0.9862 0
M  V30 8091 C 758.432 -3.17171 -1.40012 0
M  V30 8092 C 757.493 -4.2269 -0.750463 0
M  V30 8093 C 756.726 -5.03554 -1.76831 0
M  V30 8094 O 756.949 -4.85469 -2.99459 0
M  V30 8095 O 755.883 -5.86767 -1.3412 0
M  V30 8096 H 759.709 -3.01821 0.337279 0
M  V30 8097 H 757.294 -1.47602 0.231066 0
M  V30 8098 H 759.176 -3.69871 -2.01924 0
M  V30 8099 H 757.851 -2.50328 -2.05226 0
M  V30 8100 H 756.758 -3.73986 -0.0924446 0
M  V30 8101 H 758.091 -4.91997 -0.14131 0
M  V30 8102 N 759.743 -0.201713 -1.56304 0
M  V30 8103 C 760.673 0.71155 -2.22394 0
M  V30 8104 C 761.654 1.21625 -1.18917 0
M  V30 8105 O 762.839 1.26388 -1.47444 0
M  V30 8106 C 759.969 1.92837 -2.88845 0
M  V30 8107 C 758.923 1.55831 -3.98623 0
M  V30 8108 C 758.249 2.85228 -4.52271 0
M  V30 8109 C 759.549 0.763249 -5.16693 0
M  V30 8110 H 761.243 0.160573 -2.98969 0
M  V30 8111 H 758.789 0.0757916 -1.438 0
M  V30 8112 H 760.742 2.57253 -3.33764 0
M  V30 8113 H 759.466 2.50398 -2.09686 0
M  V30 8114 H 758.125 0.9377 -3.54405 0
M  V30 8115 H 757.773 3.40893 -3.69866 0
M  V30 8116 H 757.473 2.6121 -5.26349 0
M  V30 8117 H 758.997 3.50622 -4.99897 0
M  V30 8118 H 760.411 1.31066 -5.58117 0
M  V30 8119 H 758.808 0.620935 -5.96879 0
M  V30 8120 H 759.878 -0.234322 -4.84334 0
M  V30 8121 N 761.222 1.57436 0.0718424 0
M  V30 8122 C 762.185 2.02703 1.06977 0
M  V30 8123 C 763.185 0.924062 1.31597 0
M  V30 8124 O 764.375 1.18894 1.27318 0
M  V30 8125 C 761.507 2.40763 2.41342 0
M  V30 8126 H 762.7 2.92098 0.679619 0
M  V30 8127 H 760.253 1.5304 0.317565 0
M  V30 8128 H 760.988 1.54394 2.8519 0
M  V30 8129 H 760.773 3.21249 2.24814 0
M  V30 8130 H 762.263 2.76361 3.13073 0
M  V30 8131 N 762.7 -0.34323 1.53817 0
M  V30 8132 C 763.663 -1.40444 1.8113 0
M  V30 8133 C 764.663 -1.45604 0.682366 0
M  V30 8134 O 765.853 -1.45974 0.950649 0
M  V30 8135 C 762.985 -2.79369 1.95361 0
M  V30 8136 H 764.178 -1.17489 2.75928 0
M  V30 8137 H 761.731 -0.577636 1.45234 0
M  V30 8138 H 762.466 -3.07607 1.02707 0
M  V30 8139 H 762.251 -2.7702 2.77493 0
M  V30 8140 H 763.741 -3.56178 2.18008 0
M  V30 8141 N 764.178 -1.45556 -0.604258 0
M  V30 8142 C 765.589 -1.44171 -1.18624 0
M  V30 8143 C 765.94 -0.171081 -1.95453 0
M  V30 8144 O 765.065 0.727156 -2.03817 0
M  V30 8145 C 765.66 -2.61193 -2.15786 0
M  V30 8146 C 764.219 -2.62918 -2.69353 0
M  V30 8147 C 763.366 -2.36479 -1.4482 0
M  V30 8148 H 766.317 -1.53747 -0.393381 0
M  V30 8149 H 766.338 -2.35481 -2.98879 0
M  V30 8150 H 765.85 -3.53656 -1.59841 0
M  V30 8151 H 763.951 -1.7447 -3.29228 0
M  V30 8152 H 764.064 -3.6224 -3.13559 0
M  V30 8153 H 762.428 -1.86103 -1.73891 0
M  V30 8154 H 763.211 -3.31091 -0.907376 0
M  V30 8155 N 765.656 0.84705 -1.32902 0
M  V30 8156 C 766.884 1.63403 -1.26913 0
M  V30 8157 C 767.299 1.88108 0.161483 0
M  V30 8158 O 766.656 1.45546 1.10103 0
M  V30 8159 C 766.707 2.98896 -2.03331 0
M  V30 8160 O 766.428 2.75281 -3.40811 0
M  V30 8161 C 767.929 3.93335 -2.04457 0
M  V30 8162 H 765.149 0.508701 -0.437566 0
M  V30 8163 H 767.693 1.05567 -1.75145 0
M  V30 8164 H 765.848 3.53356 -1.58802 0
M  V30 8165 H 766.262 3.61504 -3.8002 0
M  V30 8166 H 767.736 4.85647 -2.62394 0
M  V30 8167 H 768.213 4.26885 -1.03274 0
M  V30 8168 H 768.819 3.44812 -2.48967 0
M  V30 8169 N 767.134 1.16236 1.06428 0
M  V30 8170 C 768.362 0.967184 1.82902 0
M  V30 8171 C 768.777 -0.484601 1.82475 0
M  V30 8172 O 768.134 -1.33631 1.24294 0
M  V30 8173 C 768.185 1.48534 3.29576 0
M  V30 8174 O 767.906 2.88026 3.3011 0
M  V30 8175 C 769.407 1.33298 4.22784 0
M  V30 8176 H 766.627 0.342923 0.576754 0
M  V30 8177 H 769.171 1.54232 1.34286 0
M  V30 8178 H 767.326 0.952513 3.75508 0
M  V30 8179 H 767.74 3.11721 4.21818 0
M  V30 8180 H 769.214 1.74385 5.23731 0
M  V30 8181 H 769.691 0.278356 4.38317 0
M  V30 8182 H 770.297 1.85535 3.82697 0
M  V30 8183 N 768.612 -1.24939 0.960631 0
M  V30 8184 C 769.859 -1.92818 0.618663 0
M  V30 8185 C 770.187 -1.75177 -0.845173 0
M  V30 8186 O 769.442 -1.09412 -1.62258 0
M  V30 8187 C 769.741 -3.45066 0.930809 0
M  V30 8188 C 769.407 -3.82869 2.38164 0
M  V30 8189 C 768.069 -3.92899 2.7782 0
M  V30 8190 C 770.421 -4.01483 3.32356 0
M  V30 8191 C 767.749 -4.18955 4.10723 0
M  V30 8192 C 770.101 -4.29033 4.6488 0
M  V30 8193 C 768.765 -4.37282 5.04322 0
M  V30 8194 H 768.035 -0.705571 0.226385 0
M  V30 8195 H 770.682 -1.48365 1.21079 0
M  V30 8196 H 768.987 -3.9096 0.256355 0
M  V30 8197 H 770.684 -3.95783 0.644712 0
M  V30 8198 H 767.274 -3.75622 2.06413 0
M  V30 8199 H 771.458 -3.93143 3.02907 0
M  V30 8200 H 766.714 -4.23558 4.40918 0
M  V30 8201 H 770.888 -4.42381 5.3784 0
M  V30 8202 H 768.515 -4.57225 6.0733 0
M  V30 8203 N 770.09 -0.729906 -1.39679 0
M  V30 8204 C 771.338 -0.275077 -2.00219 0
M  V30 8205 C 771.659 1.1401 -1.58199 0
M  V30 8206 O 770.929 1.77546 -0.827904 0
M  V30 8207 H 769.509 -0.0987127 -0.740449 0
M  V30 8208 H 772.171 -0.93873 -1.70804 0
M  V30 8209 H 771.267 -0.319446 -3.10461 0
M  V30 8210 N 771.568 1.50203 -0.477153 0
M  V30 8211 C 772.793 2.07263 0.0754986 0
M  V30 8212 C 773.218 1.33801 1.32208 0
M  V30 8213 O 772.576 0.387482 1.77111 0
M  V30 8214 C 772.624 3.59028 0.336348 0
M  V30 8215 O 771.728 3.87339 1.4157 0
M  V30 8216 H 771.069 0.663815 -0.015662 0
M  V30 8217 H 773.599 1.93321 -0.669936 0
M  V30 8218 H 773.609 4.03927 0.575034 0
M  V30 8219 H 772.284 4.11912 -0.574551 0
M  V30 8220 H 770.861 3.54272 1.16385 0
M  V30 8221 N 773.046 0.209999 1.56195 0
M  V30 8222 C 773.976 -0.699746 2.22769 0
M  V30 8223 C 774.957 -1.20993 1.1956 0
M  V30 8224 O 776.142 -1.25605 1.48112 0
M  V30 8225 C 773.272 -1.91302 2.89863 0
M  V30 8226 C 772.226 -1.53715 3.99444 0
M  V30 8227 C 771.552 -2.82826 4.53777 0
M  V30 8228 C 772.852 -0.735836 5.17091 0
M  V30 8229 H 774.546 -0.144716 2.9905 0
M  V30 8230 H 772.092 -0.0681645 1.43839 0
M  V30 8231 H 774.045 -2.5548 3.35124 0
M  V30 8232 H 772.769 -2.49283 2.11011 0
M  V30 8233 H 771.428 -0.918892 3.54897 0
M  V30 8234 H 771.076 -3.38927 3.71669 0
M  V30 8235 H 770.776 -2.58415 5.27727 0
M  V30 8236 H 772.3 -3.47966 5.01749 0
M  V30 8237 H 773.714 -1.28105 5.58804 0
M  V30 8238 H 772.111 -0.589272 5.972 0
M  V30 8239 H 773.181 0.260004 4.84202 0
M  V30 8240 N 774.524 -1.57472 -0.0634922 0
M  V30 8241 C 775.801 -1.78736 -0.794538 0
M  V30 8242 C 776.181 -0.799645 -1.95369 0
M  V30 8243 O 775.529 0.165521 -2.279 0
M  V30 8244 C 775.739 -3.25471 -1.25975 0
M  V30 8245 C 777.087 -3.89528 -1.68976 0
M  V30 8246 O 778.111 -3.29412 -1.35521 0
M  V30 8247 O 776.97 -4.95305 -2.30944 0
M  V30 8248 H 774.064 -0.733813 -0.381376 0
M  V30 8249 H 776.61 -1.69646 -0.0429258 0
M  V30 8250 H 775.382 -3.88922 -0.430721 0
M  V30 8251 H 775.005 -3.39317 -2.07243 0
M  V30 8252 N 776.003 0.335068 -1.53997 0
M  V30 8253 C 776.913 1.43511 -1.85585 0
M  V30 8254 C 777.929 1.57162 -0.746726 0
M  V30 8255 O 779.105 1.72477 -1.03988 0
M  V30 8256 C 776.17 2.78386 -2.06646 0
M  V30 8257 C 775.231 2.74007 -3.30483 0
M  V30 8258 C 774.464 4.02449 -3.50529 0
M  V30 8259 O 774.687 5.00147 -2.74242 0
M  V30 8260 O 773.621 4.06405 -4.4398 0
M  V30 8261 H 777.447 1.19731 -2.79102 0
M  V30 8262 H 775.032 0.528033 -1.39758 0
M  V30 8263 H 776.914 3.58247 -2.21894 0
M  V30 8264 H 775.589 3.0208 -1.16317 0
M  V30 8265 H 774.496 1.92736 -3.2063 0
M  V30 8266 H 775.829 2.55267 -4.20832 0
M  V30 8267 N 777.481 1.45874 0.596531 0
M  V30 8268 C 778.411 1.5824 1.71705 0
M  V30 8269 C 779.392 0.433366 1.64487 0
M  V30 8270 O 780.577 0.657895 1.82717 0
M  V30 8271 C 777.707 1.55927 3.10329 0
M  V30 8272 C 776.661 2.69659 3.32367 0
M  V30 8273 C 775.987 2.52403 4.71377 0
M  V30 8274 C 777.287 4.11591 3.21544 0
M  V30 8275 H 778.981 2.52035 1.61613 0
M  V30 8276 H 776.527 1.21297 0.776082 0
M  V30 8277 H 778.48 1.63173 3.88526 0
M  V30 8278 H 777.204 0.586674 3.21288 0
M  V30 8279 H 775.863 2.61859 2.56564 0
M  V30 8280 H 775.511 1.53258 4.79083 0
M  V30 8281 H 775.211 3.28679 4.87077 0
M  V30 8282 H 776.735 2.6152 5.5176 0
M  V30 8283 H 778.149 4.20576 3.89601 0
M  V30 8284 H 776.546 4.88344 3.4877 0
M  V30 8285 H 777.616 4.32719 2.1882 0
M  V30 8286 N 778.959 -0.83999 1.33349 0
M  V30 8287 C 779.922 -1.93128 1.23426 0
M  V30 8288 C 780.922 -1.60065 0.153599 0
M  V30 8289 O 782.112 -1.69425 0.405049 0
M  V30 8290 C 779.244 -3.28761 0.901622 0
M  V30 8291 H 780.437 -2.03352 2.20427 0
M  V30 8292 H 777.99 -1.03194 1.17391 0
M  V30 8293 H 778.725 -3.24233 -0.0659337 0
M  V30 8294 H 778.51 -3.54138 1.68311 0
M  V30 8295 H 780 -4.08714 0.856913 0
M  V30 8296 N 780.437 -1.16799 -1.0581 0
M  V30 8297 C 781.848 -0.95945 -1.60161 0
M  V30 8298 C 782.199 0.49543 -1.89842 0
M  V30 8299 O 781.324 1.36957 -1.67546 0
M  V30 8300 C 781.919 -1.73527 -2.90987 0
M  V30 8301 C 780.478 -1.57158 -3.42021 0
M  V30 8302 C 779.625 -1.74089 -2.15843 0
M  V30 8303 H 782.576 -1.31598 -0.886992 0
M  V30 8304 H 782.597 -1.21397 -3.60615 0
M  V30 8305 H 782.109 -2.79411 -2.69353 0
M  V30 8306 H 780.21 -0.537361 -3.68705 0
M  V30 8307 H 780.323 -2.35858 -4.17022 0
M  V30 8308 H 778.687 -1.16874 -2.26302 0
M  V30 8309 H 779.47 -2.81371 -1.96686 0
M  V30 8310 N 781.915 1.24427 -0.967243 0
M  V30 8311 C 783.326 1.74349 -0.667785 0
M  V30 8312 C 783.677 1.78403 0.816509 0
M  V30 8313 O 782.802 1.41315 1.63887 0
M  V30 8314 C 783.397 3.16628 -1.20548 0
M  V30 8315 C 781.956 3.64059 -0.955934 0
M  V30 8316 C 781.103 2.42715 -1.34106 0
M  V30 8317 H 784.054 1.10136 -1.14262 0
M  V30 8318 H 784.075 3.76183 -0.571547 0
M  V30 8319 H 783.587 3.13646 -2.28578 0
M  V30 8320 H 781.688 3.72441 0.108858 0
M  V30 8321 H 781.801 4.51549 -1.60126 0
M  V30 8322 H 780.165 2.43114 -0.759452 0
M  V30 8323 H 780.948 2.42414 -2.43085 0
M  V30 8324 N 783.393 0.737304 1.3929 0
M  V30 8325 C 784.809 0.413132 1.5416 0
M  V30 8326 C 785.009 -1.07574 1.70382 0
M  V30 8327 O 784.065 -1.86185 1.70562 0
M  V30 8328 C 785.378 1.19817 2.75798 0
M  V30 8329 C 786.926 1.18662 2.89635 0
M  V30 8330 C 787.401 1.95427 4.14213 0
M  V30 8331 N 788.892 1.92605 4.21257 0
M  V30 8332 C 789.627 2.48808 5.16606 0
M  V30 8333 N 789.123 3.13659 6.1773 0
M  V30 8334 N 790.916 2.38829 5.08839 0
M  V30 8335 H 783.067 1.70243 1.27008 0
M  V30 8336 H 785.33 0.720802 0.61575 0
M  V30 8337 H 785.036 2.25179 2.70161 0
M  V30 8338 H 784.91 0.804144 3.68529 0
M  V30 8339 H 787.297 0.141112 2.94762 0
M  V30 8340 H 787.378 1.62003 1.97961 0
M  V30 8341 H 787.022 2.9998 4.09847 0
M  V30 8342 H 786.952 1.4949 5.04936 0
M  V30 8343 H 789.443 1.45362 3.48824 0
M  V30 8344 H 789.756 3.54006 6.8695 0
M  V30 8345 H 788.101 3.17749 6.1811 0
M  V30 8346 H 791.292 1.87806 4.28773 0
M  V30 8347 H 791.465 2.82929 5.82971 0
M  V30 8348 N 784.871 -1.49948 0.485112 0
M  V30 8349 C 786.282 -1.8667 0.0334041 0
M  V30 8350 C 786.633 -1.3988 -1.37579 0
M  V30 8351 O 785.758 -0.769788 -2.02245 0
M  V30 8352 C 786.353 -3.38757 0.0538426 0
M  V30 8353 C 784.912 -3.74839 -0.342453 0
M  V30 8354 C 784.059 -2.73894 0.433281 0
M  V30 8355 H 787.01 -1.42492 0.698699 0
M  V30 8356 H 787.031 -3.73132 -0.745146 0
M  V30 8357 H 786.543 -3.72782 1.07959 0
M  V30 8358 H 784.644 -3.46419 -1.37203 0
M  V30 8359 H 784.757 -4.79088 -0.0340503 0
M  V30 8360 H 783.121 -2.54441 -0.114849 0
M  V30 8361 H 783.904 -3.10763 1.45881 0
M  V30 8362 N 786.349 -0.21828 -1.56081 0
M  V30 8363 C 787.279 0.687922 -2.23136 0
M  V30 8364 C 788.26 1.20357 -1.202 0
M  V30 8365 O 789.445 1.24817 -1.48776 0
M  V30 8366 C 786.575 1.89762 -2.90874 0
M  V30 8367 C 785.529 1.51595 -4.00254 0
M  V30 8368 C 784.855 2.80415 -4.55271 0
M  V30 8369 C 786.155 0.708404 -5.17474 0
M  V30 8370 H 787.849 0.128854 -2.99123 0
M  V30 8371 H 785.395 0.0605354 -1.43873 0
M  V30 8372 H 787.348 2.53699 -3.36474 0
M  V30 8373 H 786.072 2.4816 -2.1233 0
M  V30 8374 H 784.731 0.900058 -3.55379 0
M  V30 8375 H 784.379 3.36951 -3.73461 0
M  V30 8376 H 784.079 2.55613 -5.2909 0
M  V30 8377 H 785.603 3.453 -5.03587 0
M  V30 8378 H 787.017 1.2514 -5.59476 0
M  V30 8379 H 785.414 0.557593 -5.97504 0
M  V30 8380 H 786.484 -0.285679 -4.84058 0
M  V30 8381 N 787.827 1.57504 0.0551401 0
M  V30 8382 C 788.79 2.03826 1.04821 0
M  V30 8383 C 789.79 0.937968 1.30609 0
M  V30 8384 O 790.98 1.20237 1.2605 0
M  V30 8385 C 788.112 2.43309 2.38775 0
M  V30 8386 H 789.305 2.92802 0.6486 0
M  V30 8387 H 786.858 1.53368 0.301315 0
M  V30 8388 H 787.593 1.5741 2.83536 0
M  V30 8389 H 787.378 3.23615 2.21395 0
M  V30 8390 H 788.868 2.79666 3.10124 0
M  V30 8391 N 789.305 -0.326896 1.54172 0
M  V30 8392 C 790.721 -0.671034 1.44808 0
M  V30 8393 C 790.921 -1.91781 0.618258 0
M  V30 8394 O 789.977 -2.52235 0.115751 0
M  V30 8395 C 791.29 -0.848147 2.88491 0
M  V30 8396 C 792.838 -0.945702 2.98371 0
M  V30 8397 C 793.313 -1.15501 4.43197 0
M  V30 8398 N 794.804 -1.22183 4.46795 0
M  V30 8399 C 795.539 -1.4016 5.56006 0
M  V30 8400 N 795.035 -1.55202 6.75192 0
M  V30 8401 N 796.828 -1.42841 5.43648 0
M  V30 8402 H 788.979 0.49262 2.06608 0
M  V30 8403 H 791.242 0.158574 0.934643 0
M  V30 8404 H 790.948 -0.00329969 3.517 0
M  V30 8405 H 790.822 -1.74497 3.34411 0
M  V30 8406 H 793.209 -1.78106 2.35292 0
M  V30 8407 H 793.29 -0.0254215 2.55787 0
M  V30 8408 H 792.934 -0.324521 5.06862 0
M  V30 8409 H 792.864 -2.08911 4.83388 0
M  V30 8410 H 795.355 -1.12016 3.60917 0
M  V30 8411 H 795.668 -1.68601 7.54184 0
M  V30 8412 H 794.013 -1.52306 6.78106 0
M  V30 8413 H 797.204 -1.30683 4.49488 0
M  V30 8414 H 797.377 -1.56509 6.28816 0
M  V30 8415 N 790.784 -1.46188 -0.588786 0
M  V30 8416 C 791.747 -1.55882 -1.68029 0
M  V30 8417 C 792.747 -0.436515 -1.54762 0
M  V30 8418 O 793.937 -0.700626 -1.59489 0
M  V30 8419 C 791.069 -1.47332 -3.07418 0
M  V30 8420 H 792.262 -2.5315 -1.60795 0
M  V30 8421 H 789.815 -1.33908 -0.806116 0
M  V30 8422 H 790.55 -0.513193 -3.20214 0
M  V30 8423 H 790.335 -2.28753 -3.18456 0
M  V30 8424 H 791.825 -1.57187 -3.86887 0
M  V30 8425 N 792.262 0.832906 -1.33792 0
M  V30 8426 C 793.487 1.62568 -1.28788 0
M  V30 8427 C 793.912 1.87599 0.137246 0
M  V30 8428 O 793.27 1.44436 1.0958 0
M  V30 8429 C 793.318 2.9495 -2.07453 0
M  V30 8430 O 792.422 3.86546 -1.43722 0
M  V30 8431 H 791.763 0.494809 -0.442787 0
M  V30 8432 H 794.293 1.03578 -1.76445 0
M  V30 8433 H 794.303 3.44599 -2.1844 0
M  V30 8434 H 792.978 2.76055 -3.11073 0
M  V30 8435 H 791.555 3.45044 -1.41417 0
M  V30 8436 N 793.74 1.17359 1.05189 0
M  V30 8437 C 795.156 0.920861 1.30355 0
M  V30 8438 C 795.356 -0.419993 1.97074 0
M  V30 8439 O 794.412 -1.15696 2.24434 0
M  V30 8440 C 795.725 2.07818 2.1733 0
M  V30 8441 C 797.273 2.1152 2.30712 0
M  V30 8442 C 797.748 3.26637 3.21048 0
M  V30 8443 N 799.239 3.26426 3.28634 0
M  V30 8444 C 799.974 4.12141 3.98657 0
M  V30 8445 N 799.47 5.07966 4.71107 0
M  V30 8446 N 801.263 4.00091 3.94821 0
M  V30 8447 H 793.414 2.03666 0.602821 0
M  V30 8448 H 795.677 0.889294 0.328421 0
M  V30 8449 H 795.383 3.04727 1.75597 0
M  V30 8450 H 795.257 2.02922 3.17966 0
M  V30 8451 H 797.644 1.15196 2.71687 0
M  V30 8452 H 797.725 2.20477 1.29706 0
M  V30 8453 H 797.369 4.23227 2.80788 0
M  V30 8454 H 797.299 3.14917 4.2206 0
M  V30 8455 H 799.79 2.57045 2.77013 0
M  V30 8456 H 800.103 5.69766 5.22099 0
M  V30 8457 H 798.448 5.11936 4.7005 0
M  V30 8458 H 801.639 3.24523 3.37346 0
M  V30 8459 H 801.812 4.6711 4.49123 0
M  V30 8460 N 795.218 -1.23913 0.973828 0
M  V30 8461 C 796.629 -1.73992 0.677021 0
M  V30 8462 C 796.98 -1.78833 -0.807036 0
M  V30 8463 O 796.105 -1.42183 -1.63135 0
M  V30 8464 C 796.7 -3.15985 1.22226 0
M  V30 8465 C 795.259 -3.63547 0.975228 0
M  V30 8466 C 794.406 -2.42001 1.35392 0
M  V30 8467 H 797.357 -1.09529 1.14844 0
M  V30 8468 H 797.378 -3.75875 0.591489 0
M  V30 8469 H 796.89 -3.12429 2.30238 0
M  V30 8470 H 794.991 -3.72493 -0.0891047 0
M  V30 8471 H 795.104 -4.50693 1.62518 0
M  V30 8472 H 793.468 -2.42708 0.772334 0
M  V30 8473 H 794.251 -2.41122 2.44367 0
M  V30 8474 N 796.696 -0.74468 -1.38897 0
M  V30 8475 C 797.921 -0.306119 -2.05128 0
M  V30 8476 C 798.346 1.0541 -1.55789 0
M  V30 8477 O 797.704 1.66993 -0.705909 0
M  V30 8478 C 797.752 -0.328195 -3.59103 0
M  V30 8479 O 796.856 0.680876 -4.06741 0
M  V30 8480 H 796.197 -0.137209 -0.649669 0
M  V30 8481 H 798.727 -1.01331 -1.77745 0
M  V30 8482 H 798.737 -0.175956 -4.0762 0
M  V30 8483 H 797.412 -1.32067 -3.94374 0
M  V30 8484 H 795.989 0.49398 -3.69614 0
M  V30 8485 N 798.174 1.49689 -0.493057 0
M  V30 8486 C 799.422 2.02027 0.0541642 0
M  V30 8487 C 799.743 1.37554 1.38217 0
M  V30 8488 O 799.013 0.528174 1.88646 0
M  V30 8489 H 797.593 0.746646 0.0230069 0
M  V30 8490 H 800.255 1.83795 -0.648489 0
M  V30 8491 H 799.351 3.11523 0.189652 0
M  V30 8492 N 799.652 0.226554 1.55963 0
M  V30 8493 C 800.615 -0.668015 2.19249 0
M  V30 8494 C 801.615 -1.11794 1.1558 0
M  V30 8495 O 802.805 -1.02593 1.40784 0
M  V30 8496 C 799.937 -1.91571 2.81981 0
M  V30 8497 H 801.13 -0.116175 2.99675 0
M  V30 8498 H 798.683 -0.0230497 1.56283 0
M  V30 8499 H 799.418 -2.50929 2.05439 0
M  V30 8500 H 799.203 -1.6015 3.57903 0
M  V30 8501 H 800.693 -2.55294 3.30477 0
M  V30 8502 N 801.13 -1.57531 -0.0467866 0
M  V30 8503 C 802.376 -1.8873 -0.742218 0
M  V30 8504 C 802.709 -0.822084 -1.75941 0
M  V30 8505 O 801.984 0.164922 -1.938 0
M  V30 8506 C 802.267 -3.30586 -1.42776 0
M  V30 8507 C 802.12 -4.47785 -0.425285 0
M  V30 8508 C 803.439 -3.71068 -2.36636 0
M  V30 8509 H 800.558 -0.686406 -0.268359 0
M  V30 8510 H 803.2 -1.89999 -0.00511341 0
M  V30 8511 H 801.35 -3.29634 -2.05605 0
M  V30 8512 H 803.022 -4.60867 0.199721 0
M  V30 8513 H 801.265 -4.33037 0.25713 0
M  V30 8514 H 801.936 -5.43884 -0.943086 0
M  V30 8515 H 804.412 -3.73273 -1.83866 0
M  V30 8516 H 803.288 -4.71165 -2.81593 0
M  V30 8517 H 803.549 -3.02355 -3.22542 0
M  V30 8518 N 802.608 0.318715 -1.54344 0
M  V30 8519 C 803.833 1.07987 -1.77069 0
M  V30 8520 C 804.258 1.80766 -0.520117 0
M  V30 8521 O 803.616 1.73424 0.528566 0
M  V30 8522 C 803.664 2.04987 -2.96669 0
M  V30 8523 O 802.768 3.12974 -2.68554 0
M  V30 8524 H 802.109 0.311109 -0.586606 0
M  V30 8525 H 804.639 0.361533 -2.0138 0
M  V30 8526 H 804.649 2.47771 -3.2415 0
M  V30 8527 H 803.324 1.51417 -3.87357 0
M  V30 8528 H 801.901 2.74831 -2.52037 0
M  V30 8529 N 804.086 1.46499 0.581025 0
M  V30 8530 C 804.996 1.59778 1.71779 0
M  V30 8531 C 806.012 0.481223 1.67213 0
M  V30 8532 O 807.188 0.74557 1.87091 0
M  V30 8533 C 804.253 1.58626 3.08283 0
M  V30 8534 C 803.314 2.81527 3.241 0
M  V30 8535 C 802.547 2.80421 4.54092 0
M  V30 8536 O 802.77 1.89262 5.38085 0
M  V30 8537 O 801.704 3.71984 4.73193 0
M  V30 8538 H 805.53 2.55918 1.63523 0
M  V30 8539 H 803.115 1.29311 0.748267 0
M  V30 8540 H 804.997 1.60686 3.89561 0
M  V30 8541 H 803.672 0.656467 3.16973 0
M  V30 8542 H 802.579 2.85021 2.42309 0
M  V30 8543 H 803.912 3.73721 3.20302 0
M  V30 8544 N 805.565 -0.825799 1.34232 0
M  V30 8545 C 806.842 -1.56741 1.17011 0
M  V30 8546 C 807.222 -2.09512 -0.258425 0
M  V30 8547 O 806.57 -1.90664 -1.25935 0
M  V30 8548 C 806.78 -2.69104 2.22225 0
M  V30 8549 C 808.128 -3.37947 2.57055 0
M  V30 8550 O 809.152 -2.79358 2.20992 0
M  V30 8551 O 808.011 -4.43743 3.1899 0
M  V30 8552 H 805.105 -0.69163 0.453405 0
M  V30 8553 H 807.651 -0.867422 1.45856 0
M  V30 8554 H 806.423 -2.27844 3.18124 0
M  V30 8555 H 806.046 -3.46756 1.94541 0
M  V30 8556 N 807.043 -1.17915 -1.04565 0
M  V30 8557 C 808.268 -0.996749 -1.81878 0
M  V30 8558 C 808.693 0.450169 -1.82634 0
M  V30 8559 O 808.051 1.32268 -1.23995 0
M  V30 8560 C 808.099 -1.55005 -3.25585 0
M  V30 8561 O 807.203 -0.76804 -4.05185 0
M  V30 8562 H 806.544 -0.353456 -0.562108 0
M  V30 8563 H 809.074 -1.56557 -1.31723 0
M  V30 8564 H 809.084 -1.57503 -3.76373 0
M  V30 8565 H 807.759 -2.60327 -3.2435 0
M  V30 8566 H 806.336 -0.81498 -3.63885 0
M  V30 8567 N 808.521 1.23394 -0.980386 0
M  V30 8568 C 809.77 1.91116 -0.644785 0
M  V30 8569 C 810.083 1.77333 0.825367 0
M  V30 8570 O 811.289 2.39858 1.27203 0
M  V30 8571 C 809.745 3.42592 -1.10266 0
M  V30 8572 C 809.353 3.65037 -2.59715 0
M  V30 8573 C 811.097 4.1609 -0.8408 0
M  V30 8574 C 809.004 5.10148 -2.9917 0
M  V30 8575 H 807.934 0.715632 -0.23746 0
M  V30 8576 H 810.585 1.39829 -1.18828 0
M  V30 8577 H 808.967 3.92989 -0.487372 0
M  V30 8578 H 810.141 3.25186 -3.26482 0
M  V30 8579 H 808.456 3.04849 -2.83647 0
M  V30 8580 H 811.053 5.23021 -1.11143 0
M  V30 8581 H 811.396 4.15702 0.223085 0
M  V30 8582 H 811.929 3.71681 -1.41767 0
M  V30 8583 H 808.668 5.15668 -4.04682 0
M  V30 8584 H 808.188 5.50949 -2.37097 0
M  V30 8585 H 809.867 5.7848 -2.89775 0
M  V30 8586 N 809.999 0.752036 1.385 0
M  V30 8587 C 810.929 0.138718 2.33088 0
M  V30 8588 C 811.91 -0.705318 1.54788 0
M  V30 8589 O 813.095 -0.646821 1.83112 0
M  V30 8590 C 810.225 -0.75641 3.38963 0
M  V30 8591 C 809.179 -0.0152239 4.27997 0
M  V30 8592 C 808.505 -1.0285 5.24715 0
M  V30 8593 C 809.805 1.15226 5.09431 0
M  V30 8594 H 811.499 0.928852 2.84627 0
M  V30 8595 H 809.045 0.448111 1.3685 0
M  V30 8596 H 810.998 -1.19513 4.04097 0
M  V30 8597 H 809.722 -1.57885 2.85902 0
M  V30 8598 H 808.381 0.404061 3.64366 0
M  V30 8599 H 808.029 -1.84496 4.67943 0
M  V30 8600 H 807.729 -0.537238 5.85139 0
M  V30 8601 H 809.253 -1.46657 5.92726 0
M  V30 8602 H 810.667 0.791161 5.67815 0
M  V30 8603 H 809.064 1.57428 5.79082 0
M  V30 8604 H 810.134 1.9659 4.43261 0
M  V30 8605 N 811.477 -1.49425 0.500989 0
M  V30 8606 C 812.702 -2.07356 -0.0425154 0
M  V30 8607 C 813.127 -1.35887 -1.30063 0
M  V30 8608 O 812.485 -0.41561 -1.76472 0
M  V30 8609 C 812.533 -3.59518 -0.279188 0
M  V30 8610 O 811.637 -3.89542 -1.3539 0
M  V30 8611 H 810.978 -0.663482 0.0262207 0
M  V30 8612 H 813.508 -1.92231 0.700607 0
M  V30 8613 H 813.518 -4.04791 -0.5107 0
M  V30 8614 H 812.193 -4.10946 0.640009 0
M  V30 8615 H 810.77 -3.56079 -1.10734 0
M  V30 8616 N 812.955 -0.234822 -1.55841 0
M  V30 8617 C 814.18 0.400741 -2.03492 0
M  V30 8618 C 814.605 1.51618 -1.11327 0
M  V30 8619 O 813.963 1.81002 -0.103922 0
M  V30 8620 C 814.011 0.897184 -3.49261 0
M  V30 8621 O 813.115 2.00764 -3.60233 0
M  V30 8622 H 812.456 0.0890023 -0.658008 0
M  V30 8623 H 814.986 -0.357345 -2.01455 0
M  V30 8624 H 814.996 1.20356 -3.89844 0
M  V30 8625 H 813.671 0.0808639 -4.15821 0
M  V30 8626 H 812.248 1.70689 -3.31541 0
M  V30 8627 N 814.433 1.57553 0.0384317 0
M  V30 8628 C 815.343 2.09333 1.0591 0
M  V30 8629 C 816.359 1.0299 1.40247 0
M  V30 8630 O 817.535 1.34669 1.49754 0
M  V30 8631 C 814.6 2.55468 2.34386 0
M  V30 8632 C 813.661 3.76254 2.06716 0
M  V30 8633 C 812.894 4.20179 3.29067 0
M  V30 8634 O 813.117 3.637 4.39407 0
M  V30 8635 O 812.051 5.12697 3.15317 0
M  V30 8636 H 815.877 2.96683 0.649087 0
M  V30 8637 H 813.462 1.47211 0.254802 0
M  V30 8638 H 815.344 2.85514 3.09935 0
M  V30 8639 H 814.019 1.71234 2.74701 0
M  V30 8640 H 812.926 3.51241 1.28766 0
M  V30 8641 H 814.259 4.61443 1.71263 0
M  V30 8642 N 815.911 -0.310526 1.54511 0
M  V30 8643 C 817.136 -1.07046 1.7764 0
M  V30 8644 C 817.561 -1.80488 0.529696 0
M  V30 8645 O 816.919 -1.73702 -0.519361 0
M  V30 8646 C 816.967 -2.03411 2.97752 0
M  V30 8647 O 816.071 -3.11545 2.7021 0
M  V30 8648 H 815.412 -0.307994 0.588248 0
M  V30 8649 H 817.942 -0.350848 2.01569 0
M  V30 8650 H 817.952 -2.46048 3.2546 0
M  V30 8651 H 816.627 -1.49361 3.88155 0
M  V30 8652 H 815.204 -2.7349 2.53491 0
M  V30 8653 N 817.389 -1.46805 -0.573248 0
M  V30 8654 C 818.636 -1.52604 -1.3311 0
M  V30 8655 C 818.964 -0.181633 -1.9365 0
M  V30 8656 O 818.219 0.823775 -1.77517 0
M  V30 8657 C 818.518 -2.58001 -2.47326 0
M  V30 8658 C 818.184 -4.01747 -2.04719 0
M  V30 8659 C 816.846 -4.40881 -1.92814 0
M  V30 8660 C 819.198 -4.92008 -1.71982 0
M  V30 8661 C 816.526 -5.68129 -1.46445 0
M  V30 8662 C 818.878 -6.19703 -1.27089 0
M  V30 8663 C 817.542 -6.57733 -1.13768 0
M  V30 8664 H 816.812 -0.558417 -0.487084 0
M  V30 8665 H 819.459 -1.80327 -0.644538 0
M  V30 8666 H 817.764 -2.23974 -3.2147 0
M  V30 8667 H 819.461 -2.59715 -3.05531 0
M  V30 8668 H 816.051 -3.70819 -2.14922 0
M  V30 8669 H 820.235 -4.62485 -1.8006 0
M  V30 8670 H 815.491 -5.96359 -1.34783 0
M  V30 8671 H 819.665 -6.89064 -1.00814 0
M  V30 8672 H 817.292 -7.56228 -0.776142 0
M  V30 8673 N 818.867 0.818669 -1.34668 0
M  V30 8674 C 820.144 1.56118 -1.17841 0
M  V30 8675 C 820.524 2.09646 0.24731 0
M  V30 8676 O 819.872 1.91329 1.24922 0
M  V30 8677 C 820.082 2.67922 -2.23649 0
M  V30 8678 C 821.43 3.36579 -2.58843 0
M  V30 8679 O 822.454 2.78182 -2.22471 0
M  V30 8680 O 821.313 4.42045 -3.21339 0
M  V30 8681 H 818.407 0.689216 -0.457067 0
M  V30 8682 H 820.953 0.859674 -1.46314 0
M  V30 8683 H 819.725 2.26153 -3.19328 0
M  V30 8684 H 819.348 3.45719 -1.96377 0
M  V30 8685 N 820.346 1.18468 1.03938 0
M  V30 8686 C 821.278 0.870615 2.12021 0
M  V30 8687 C 822.291 -0.132318 1.62261 0
M  V30 8688 O 823.48 0.0956901 1.78243 0
M  V30 8689 C 820.58 0.279727 3.37744 0
M  V30 8690 C 819.753 1.32863 4.16733 0
M  V30 8691 C 818.812 0.753204 5.20781 0
M  V30 8692 O 817.838 1.42825 5.5099 0
M  V30 8693 N 819.04 -0.448664 5.78764 0
M  V30 8694 H 821.805 1.80091 2.39556 0
M  V30 8695 H 819.366 1.08524 1.20142 0
M  V30 8696 H 821.358 -0.118829 4.04526 0
M  V30 8697 H 819.928 -0.554621 3.07641 0
M  V30 8698 H 819.148 1.90245 3.45254 0
M  V30 8699 H 820.436 2.03574 4.66299 0
M  V30 8700 H 819.834 -1.01481 5.56523 0
M  V30 8701 H 818.391 -0.789125 6.47005 0
M  V30 8702 N 821.824 -1.22873 0.986916 0
M  V30 8703 C 822.754 -2.2688 0.552064 0
M  V30 8704 C 823.735 -1.64883 -0.418048 0
M  V30 8705 O 824.92 -1.9171 -0.30999 0
M  V30 8706 C 822.05 -3.47018 -0.139959 0
M  V30 8707 C 821.004 -4.21411 0.748091 0
M  V30 8708 C 820.33 -5.34645 -0.0765132 0
M  V30 8709 C 821.63 -4.80726 2.04206 0
M  V30 8710 H 823.324 -2.63507 1.42143 0
M  V30 8711 H 820.87 -1.26668 0.68492 0
M  V30 8712 H 822.823 -4.18931 -0.455527 0
M  V30 8713 H 821.547 -3.0947 -1.04382 0
M  V30 8714 H 820.206 -3.51325 1.04721 0
M  V30 8715 H 819.854 -4.93339 -0.981109 0
M  V30 8716 H 819.554 -5.85342 0.514606 0
M  V30 8717 H 821.078 -6.09377 -0.386313 0
M  V30 8718 H 822.492 -5.44612 1.79083 0
M  V30 8719 H 820.889 -5.41737 2.5815 0
M  V30 8720 H 821.959 -4.01109 2.72469 0
M  V30 8721 N 823.302 -0.75937 -1.38099 0
M  V30 8722 C 824.579 -0.243371 -1.9408 0
M  V30 8723 C 824.959 1.25942 -1.69416 0
M  V30 8724 O 824.307 2.03667 -1.03595 0
M  V30 8725 C 824.517 -0.603328 -3.43745 0
M  V30 8726 C 825.865 -0.566195 -4.20808 0
M  V30 8727 O 826.889 -0.541969 -3.52053 0
M  V30 8728 O 825.748 -0.582261 -5.43389 0
M  V30 8729 H 822.842 -0.0526825 -0.82532 0
M  V30 8730 H 825.388 -0.839884 -1.47459 0
M  V30 8731 H 824.16 -1.64098 -3.55229 0
M  V30 8732 H 823.783 0.0208887 -3.97595 0
M  V30 8733 N 824.78 1.49157 -0.508906 0
M  V30 8734 C 825.71 2.32109 0.254469 0
M  V30 8735 C 826.691 1.40754 0.955111 0
M  V30 8736 O 827.876 1.69658 0.944983 0
M  V30 8737 C 825.006 3.21458 1.3146 0
M  V30 8738 C 823.96 4.2167 0.733368 0
M  V30 8739 C 823.286 5.00009 1.8946 0
M  V30 8740 C 824.586 5.21544 -0.280875 0
M  V30 8741 H 826.28 2.9618 -0.43795 0
M  V30 8742 H 823.826 1.4243 -0.212062 0
M  V30 8743 H 825.779 3.78305 1.85643 0
M  V30 8744 H 824.503 2.55346 2.03632 0
M  V30 8745 H 823.162 3.65979 0.213231 0
M  V30 8746 H 822.81 4.30338 2.60419 0
M  V30 8747 H 822.51 5.67821 1.51173 0
M  V30 8748 H 824.034 5.59702 2.44061 0
M  V30 8749 H 825.448 5.73039 0.173095 0
M  V30 8750 H 823.845 5.97291 -0.580006 0
M  V30 8751 H 824.915 4.69969 -1.19404 0
M  V30 8752 N 826.258 0.243083 1.55714 0
M  V30 8753 C 827.669 -0.260788 1.8487 0
M  V30 8754 C 828.02 -1.57879 1.16485 0
M  V30 8755 O 827.145 -2.1184 0.441908 0
M  V30 8756 C 827.74 -0.479954 3.35383 0
M  V30 8757 C 826.299 -0.928096 3.64778 0
M  V30 8758 C 825.446 -0.00316416 2.773 0
M  V30 8759 H 828.397 0.465743 1.51712 0
M  V30 8760 H 828.418 -1.32308 3.56756 0
M  V30 8761 H 827.93 0.479468 3.85127 0
M  V30 8762 H 826.031 -1.90012 3.20509 0
M  V30 8763 H 826.144 -0.7876 4.72582 0
M  V30 8764 H 824.508 -0.513849 2.49463 0
M  V30 8765 H 825.291 0.951562 3.29849 0
M  V30 8766 N 827.736 -1.57571 -0.0300757 0
M  V30 8767 C 828.646 -2.09892 -1.04798 0
M  V30 8768 C 829.662 -1.03732 -1.39698 0
M  V30 8769 O 830.838 -1.35461 -1.49038 0
M  V30 8770 C 827.903 -2.56707 -2.33028 0
M  V30 8771 C 826.964 -3.77345 -2.04718 0
M  V30 8772 C 826.197 -4.21918 -3.26834 0
M  V30 8773 O 826.42 -3.66025 -4.37472 0
M  V30 8774 O 825.354 -5.14362 -3.12594 0
M  V30 8775 H 829.18 -2.97023 -0.633344 0
M  V30 8776 H 826.765 -1.47344 -0.246991 0
M  V30 8777 H 828.647 -2.87154 -3.08417 0
M  V30 8778 H 827.322 -1.72688 -2.73789 0
M  V30 8779 H 826.229 -3.51919 -1.26901 0
M  V30 8780 H 827.562 -4.62345 -1.68813 0
M  V30 8781 N 829.214 0.302327 -1.54673 0
M  V30 8782 C 830.63 0.647911 -1.45857 0
M  V30 8783 C 830.83 1.90773 -0.64869 0
M  V30 8784 O 829.886 2.52018 -0.155865 0
M  V30 8785 C 831.199 0.802144 -2.89804 0
M  V30 8786 C 832.747 0.898114 -2.99838 0
M  V30 8787 C 833.222 1.08436 -4.44978 0
M  V30 8788 N 834.713 1.15059 -4.48682 0
M  V30 8789 C 835.448 1.31296 -5.58166 0
M  V30 8790 N 834.944 1.4444 -6.77576 0
M  V30 8791 N 836.737 1.34174 -5.45851 0
M  V30 8792 H 828.888 -0.525428 -2.05798 0
M  V30 8793 H 831.151 -0.173423 -0.932002 0
M  V30 8794 H 830.857 -0.0526531 -3.51661 0
M  V30 8795 H 830.731 1.69155 -3.37145 0
M  V30 8796 H 833.118 1.7434 -2.38096 0
M  V30 8797 H 833.199 -0.0152752 -2.55795 0
M  V30 8798 H 832.843 0.243843 -5.07314 0
M  V30 8799 H 832.773 2.01195 -4.8665 0
M  V30 8800 H 835.264 1.0626 -3.62653 0
M  V30 8801 H 835.577 1.56582 -7.56771 0
M  V30 8802 H 833.922 1.41499 -6.80443 0
M  V30 8803 H 837.113 1.23516 -4.5151 0
M  V30 8804 H 837.286 1.46485 -6.31226 0
M  V30 8805 N 830.692 1.47107 0.565454 0
M  V30 8806 C 831.622 1.61846 1.68309 0
M  V30 8807 C 832.603 0.468159 1.63531 0
M  V30 8808 O 833.788 0.696504 1.8128 0
M  V30 8809 C 830.918 1.62474 3.06952 0
M  V30 8810 C 829.872 2.76649 3.26572 0
M  V30 8811 C 829.198 2.62345 4.65917 0
M  V30 8812 C 830.498 4.18319 3.12741 0
M  V30 8813 H 832.192 2.55407 1.5623 0
M  V30 8814 H 829.738 1.22916 0.750179 0
M  V30 8815 H 831.691 1.71378 3.84977 0
M  V30 8816 H 830.415 0.654692 3.19971 0
M  V30 8817 H 829.074 2.67242 2.50952 0
M  V30 8818 H 828.722 1.63386 4.75725 0
M  V30 8819 H 828.422 3.38936 4.79996 0
M  V30 8820 H 829.946 2.73165 5.46089 0
M  V30 8821 H 831.36 4.28745 3.80593 0
M  V30 8822 H 829.757 4.95632 3.38333 0
M  V30 8823 H 830.827 4.37263 2.09592 0
M  V30 8824 N 832.17 -0.811516 1.35101 0
M  V30 8825 C 833.581 -1.38515 1.25182 0
M  V30 8826 C 833.932 -1.95846 -0.117883 0
M  V30 8827 O 833.057 -1.90925 -1.01866 0
M  V30 8828 C 833.652 -2.51813 2.26662 0
M  V30 8829 C 832.211 -3.05052 2.20499 0
M  V30 8830 C 831.358 -1.77987 2.12641 0
M  V30 8831 H 834.309 -0.614959 1.46301 0
M  V30 8832 H 834.33 -3.30228 1.89023 0
M  V30 8833 H 833.842 -2.10057 3.2634 0
M  V30 8834 H 831.943 -3.51285 1.24215 0
M  V30 8835 H 832.056 -3.63368 3.1225 0
M  V30 8836 H 830.42 -1.99342 1.5854 0
M  V30 8837 H 831.203 -1.38389 3.14171 0
M  V30 8838 N 833.648 -1.19017 -1.03309 0
M  V30 8839 C 834.558 -0.939303 -2.14975 0
M  V30 8840 C 835.574 0.0992359 -1.73717 0
M  V30 8841 O 836.75 -0.0844362 -2.01223 0
M  V30 8842 C 833.815 -0.476712 -3.43407 0
M  V30 8843 C 832.876 -1.58413 -3.99003 0
M  V30 8844 C 832.109 -1.14352 -5.21305 0
M  V30 8845 O 832.332 -0.00534408 -5.704 0
M  V30 8846 O 831.266 -1.94436 -5.6963 0
M  V30 8847 H 835.092 -1.87386 -2.38998 0
M  V30 8848 H 832.677 -0.972635 -1.13403 0
M  V30 8849 H 834.559 -0.22718 -4.20787 0
M  V30 8850 H 833.234 0.429455 -3.20839 0
M  V30 8851 H 832.141 -1.88777 -3.22977 0
M  V30 8852 H 833.474 -2.4667 -4.25928 0
M  V30 8853 N 835.127 1.22348 -0.993418 0
M  V30 8854 C 836.538 1.72893 -0.704616 0
M  V30 8855 C 836.889 1.80095 0.778483 0
M  V30 8856 O 836.014 1.4476 1.60853 0
M  V30 8857 C 836.609 3.14 -1.27237 0
M  V30 8858 C 835.168 3.61949 -1.03294 0
M  V30 8859 C 834.315 2.39816 -1.39225 0
M  V30 8860 H 837.266 1.07688 -1.16572 0
M  V30 8861 H 837.287 3.74886 -0.651212 0
M  V30 8862 H 836.799 3.08727 -2.3518 0
M  V30 8863 H 834.9 3.72588 0.0298329 0
M  V30 8864 H 835.013 4.48051 -1.69668 0
M  V30 8865 H 833.377 2.41448 -0.810849 0
M  V30 8866 H 834.16 2.37203 -2.48172 0
M  V30 8867 N 836.605 0.766683 1.37694 0
M  V30 8868 C 838.016 0.394761 1.82479 0
M  V30 8869 C 838.367 -1.07842 1.63904 0
M  V30 8870 O 837.492 -1.83479 1.14737 0
M  V30 8871 C 838.087 0.70974 3.31283 0
M  V30 8872 C 836.646 0.390936 3.74364 0
M  V30 8873 C 835.793 0.956192 2.60293 0
M  V30 8874 H 838.744 0.961756 1.26238 0
M  V30 8875 H 838.765 -0.00742144 3.80499 0
M  V30 8876 H 838.277 1.782 3.4477 0
M  V30 8877 H 836.378 -0.674213 3.66449 0
M  V30 8878 H 836.491 0.895645 4.70654 0
M  V30 8879 H 834.855 0.380744 2.51838 0
M  V30 8880 H 835.638 2.03375 2.76575 0
M  V30 8881 N 838.083 -1.48885 0.516809 0
M  V30 8882 C 839.013 -2.32241 -0.242157 0
M  V30 8883 C 839.994 -1.41258 -0.947633 0
M  V30 8884 O 841.179 -1.70156 -0.935973 0
M  V30 8885 C 838.309 -3.22151 -1.29754 0
M  V30 8886 C 837.263 -4.22053 -0.710995 0
M  V30 8887 C 836.589 -5.01007 -1.86806 0
M  V30 8888 C 837.889 -5.21388 0.30853 0
M  V30 8889 H 839.583 -2.95943 0.453651 0
M  V30 8890 H 837.129 -1.42316 0.219612 0
M  V30 8891 H 839.082 -3.79284 -1.83634 0
M  V30 8892 H 837.806 -2.56423 -2.02274 0
M  V30 8893 H 836.465 -3.66087 -0.193819 0
M  V30 8894 H 836.113 -4.31713 -2.58133 0
M  V30 8895 H 835.813 -5.68615 -1.48159 0
M  V30 8896 H 837.337 -5.60989 -2.4109 0
M  V30 8897 H 838.751 -5.73122 -0.142703 0
M  V30 8898 H 837.148 -5.96975 0.611673 0
M  V30 8899 H 838.218 -4.69329 1.21894 0
M  V30 8900 N 839.561 -0.251338 -1.55583 0
M  V30 8901 C 840.977 0.103409 -1.59265 0
M  V30 8902 C 841.177 1.56559 -1.26852 0
M  V30 8903 O 840.233 2.31071 -1.01796 0
M  V30 8904 C 841.546 -0.249781 -2.99661 0
M  V30 8905 C 843.094 -0.194442 -3.12395 0
M  V30 8906 C 843.569 -0.521728 -4.55019 0
M  V30 8907 N 845.06 -0.472393 -4.60785 0
M  V30 8908 C 845.795 -0.698737 -5.69127 0
M  V30 8909 N 845.291 -0.988443 -6.85713 0
M  V30 8910 N 847.084 -0.629143 -5.58568 0
M  V30 8911 H 839.235 -1.20484 -1.74921 0
M  V30 8912 H 841.498 -0.485092 -0.814488 0
M  V30 8913 H 841.204 -1.26577 -3.28133 0
M  V30 8914 H 841.078 0.420973 -3.74844 0
M  V30 8915 H 843.465 0.812229 -2.83702 0
M  V30 8916 H 843.546 -0.899111 -2.39478 0
M  V30 8917 H 843.19 -1.52597 -4.84434 0
M  V30 8918 H 843.12 0.204468 -5.26203 0
M  V30 8919 H 845.611 -0.257386 -3.77022 0
M  V30 8920 H 845.924 -1.14846 -7.64219 0
M  V30 8921 H 844.269 -1.02596 -6.87386 0
M  V30 8922 H 847.46 -0.402826 -4.66364 0
M  V30 8923 H 847.633 -0.808935 -6.42931 0
M  V30 8924 N 841.039 1.57585 0.0217189 0
M  V30 8925 C 842.287 1.89231 0.709641 0
M  V30 8926 C 842.608 0.849964 1.75501 0
M  V30 8927 O 841.878 -0.115485 1.95559 0
M  V30 8928 H 840.458 0.69838 0.265092 0
M  V30 8929 H 843.12 1.94895 -0.0140688 0
M  V30 8930 H 842.216 2.88333 1.19459 0
M  V30 8931 N 842.517 -0.29412 1.54831 0
M  V30 8932 C 843.757 -1.03635 1.76179 0
M  V30 8933 C 844.121 -1.84251 0.539953 0
M  V30 8934 O 845.322 -2.61282 0.631295 0
M  V30 8935 C 843.593 -1.91275 3.01909 0
M  V30 8936 S 845.152 -2.7205 3.44288 0
M  V30 8937 H 841.97 -0.349403 0.619224 0
M  V30 8938 H 844.572 -0.309006 1.93042 0
M  V30 8939 H 843.276 -1.30937 3.88952 0
M  V30 8940 H 842.807 -2.68365 2.87652 0
M  V30 8941 H 844.822 -3.93791 3.01899 0
M  V30 8942 N 843.995 -1.47404 -0.557645 0
M  V30 8943 C 845.241 -1.54235 -1.31679 0
M  V30 8944 C 845.574 -0.203782 -1.93128 0
M  V30 8945 O 844.849 0.787536 -1.77843 0
M  V30 8946 C 845.132 -2.66003 -2.42723 0
M  V30 8947 C 844.985 -4.09475 -1.86145 0
M  V30 8948 C 846.304 -2.73685 -3.44652 0
M  V30 8949 H 843.423 -0.561466 -0.477415 0
M  V30 8950 H 846.065 -1.79459 -0.624067 0
M  V30 8951 H 844.215 -2.44627 -3.01811 0
M  V30 8952 H 845.887 -4.42213 -1.31321 0
M  V30 8953 H 844.13 -4.17774 -1.16823 0
M  V30 8954 H 844.801 -4.83451 -2.66418 0
M  V30 8955 H 847.277 -2.92968 -2.95481 0
M  V30 8956 H 846.153 -3.53665 -4.19777 0
M  V30 8957 H 846.414 -1.80726 -4.03473 0
M  V30 8958 N 845.473 0.80434 -1.35529 0
M  V30 8959 C 846.698 1.598 -1.32207 0
M  V30 8960 C 847.123 1.87848 0.0974226 0
M  V30 8961 O 846.481 1.46728 1.06492 0
M  V30 8962 C 846.529 2.90483 -2.13663 0
M  V30 8963 O 845.633 3.83411 -1.51888 0
M  V30 8964 H 844.974 0.485305 -0.453183 0
M  V30 8965 H 847.504 0.998119 -1.78602 0
M  V30 8966 H 847.514 3.39888 -2.257 0
M  V30 8967 H 846.189 2.69395 -3.16859 0
M  V30 8968 H 844.766 3.41967 -1.48704 0
M  V30 8969 N 846.951 1.19563 1.02676 0
M  V30 8970 C 848.197 1.00105 1.76371 0
M  V30 8971 C 848.53 -0.466823 1.88506 0
M  V30 8972 O 847.805 -1.34665 1.40341 0
M  V30 8973 C 848.088 1.67321 3.18866 0
M  V30 8974 C 847.941 3.21486 3.1459 0
M  V30 8975 C 849.26 1.39794 4.17308 0
M  V30 8976 H 846.379 0.365075 0.640226 0
M  V30 8977 H 849.021 1.47433 1.19848 0
M  V30 8978 H 847.171 1.27081 3.67128 0
M  V30 8979 H 848.843 3.70953 2.7421 0
M  V30 8980 H 847.086 3.5292 2.52249 0
M  V30 8981 H 847.757 3.63665 4.15273 0
M  V30 8982 H 850.233 1.74685 3.77657 0
M  V30 8983 H 849.109 1.89371 5.15199 0
M  V30 8984 H 849.37 0.323505 4.40915 0
M  V30 8985 N 848.429 -1.21819 0.999893 0
M  V30 8986 C 849.706 -1.86318 0.595384 0
M  V30 8987 C 850.086 -1.8965 -0.927143 0
M  V30 8988 O 849.434 -1.3921 -1.81199 0
M  V30 8989 C 849.644 -3.26837 1.22387 0
M  V30 8990 C 850.992 -4.03272 1.32878 0
M  V30 8991 O 852.016 -3.36129 1.1788 0
M  V30 8992 O 850.875 -5.23477 1.56952 0
M  V30 8993 H 847.969 -0.801638 0.203238 0
M  V30 8994 H 850.515 -1.29542 1.09622 0
M  V30 8995 H 849.287 -3.19084 2.26497 0
M  V30 8996 H 848.91 -3.91226 0.709069 0
M  V30 8997 N 849.908 -0.773975 -1.37286 0
M  V30 8998 C 850.856 -0.149581 -2.32119 0
M  V30 8999 C 851.85 0.682457 -1.55045 0
M  V30 9000 O 853.056 0.579269 -1.70424 0
M  V30 9001 H 849.431 -0.0295857 -0.751418 0
M  V30 9002 H 851.402 -0.965117 -2.82362 0
M  V30 9003 C 850.151 0.713409 -3.40302 0
M  V30 9004 H 849.474 0.0825416 -3.99715 0
M  V30 9005 H 850.914 1.11723 -4.09016 0
M  V30 9006 C 849.373 1.86498 -2.80571 0
M  V30 9007 O 849.903 2.9606 -2.71498 0
M  V30 9008 N 848.109 1.66629 -2.38082 0
M  V30 9009 H 847.656 0.775145 -2.45661 0
M  V30 9010 H 847.614 2.43845 -1.98461 0
M  V30 9011 N 851.386 1.48609 -0.524698 0
M  V30 9012 C 852.316 2.32366 0.229837 0
M  V30 9013 C 853.297 1.41759 0.940129 0
M  V30 9014 O 854.482 1.7065 0.926936 0
M  V30 9015 C 851.612 3.22835 1.28043 0
M  V30 9016 C 850.566 4.22424 0.688603 0
M  V30 9017 C 849.892 5.0199 1.84146 0
M  V30 9018 C 851.192 5.21217 -0.336176 0
M  V30 9019 H 852.886 2.95698 -0.469339 0
M  V30 9020 H 850.432 1.42197 -0.227156 0
M  V30 9021 H 852.385 3.80253 1.8162 0
M  V30 9022 H 851.109 2.57492 2.00912 0
M  V30 9023 H 849.768 3.66185 0.174402 0
M  V30 9024 H 849.416 4.33076 2.5584 0
M  V30 9025 H 849.116 5.69392 1.45142 0
M  V30 9026 H 850.64 5.62259 2.38111 0
M  V30 9027 H 852.054 5.7319 0.112307 0
M  V30 9028 H 850.451 5.96642 -0.643324 0
M  V30 9029 H 851.521 4.68676 -1.24381 0
M  V30 9030 N 852.864 0.259585 1.55447 0
M  V30 9031 C 854.092 -0.365392 2.03648 0
M  V30 9032 C 854.507 -1.50613 1.13847 0
M  V30 9033 O 853.864 -1.81837 0.155414 0
M  V30 9034 C 853.915 -0.861172 3.51093 0
M  V30 9035 O 853.636 0.234121 4.37474 0
M  V30 9036 C 855.137 -1.55555 4.15111 0
M  V30 9037 H 852.357 -0.0853439 0.66555 0
M  V30 9038 H 854.901 0.387151 2.00802 0
M  V30 9039 H 853.056 -1.56385 3.54433 0
M  V30 9040 H 853.47 -0.1444 5.24301 0
M  V30 9041 H 854.944 -1.85403 5.19932 0
M  V30 9042 H 855.421 -2.48185 3.62355 0
M  V30 9043 H 856.027 -0.89712 4.15731 0
M  V30 9044 N 854.342 -1.57594 -0.0133615 0
M  V30 9045 C 855.59 -1.89605 -0.699596 0
M  V30 9046 C 855.911 -0.85926 -1.75048 0
M  V30 9047 O 855.181 0.105112 -1.95618 0
M  V30 9048 H 853.761 -0.699776 -0.261385 0
M  V30 9049 H 856.423 -1.94885 0.0244044 0
M  V30 9050 H 855.519 -2.88962 -1.17928 0
M  V30 9051 N 855.82 0.285905 -1.54985 0
M  V30 9052 C 856.75 1.35752 -1.89983 0
M  V30 9053 C 857.731 1.52163 -0.760295 0
M  V30 9054 O 858.916 1.65421 -1.01733 0
M  V30 9055 C 856.046 2.71925 -2.16042 0
M  V30 9056 C 855 2.70261 -3.31878 0
M  V30 9057 C 854.326 4.09864 -3.43388 0
M  V30 9058 C 855.626 2.30667 -4.68604 0
M  V30 9059 H 857.32 1.06709 -2.79738 0
M  V30 9060 H 854.866 0.511884 -1.34595 0
M  V30 9061 H 856.819 3.46992 -2.39113 0
M  V30 9062 H 855.543 3.02523 -1.23074 0
M  V30 9063 H 854.202 1.97651 -3.08755 0
M  V30 9064 H 853.85 4.37664 -2.47909 0
M  V30 9065 H 853.55 4.09648 -4.21262 0
M  V30 9066 H 855.074 4.86689 -3.68736 0
M  V30 9067 H 856.488 2.95453 -4.91305 0
M  V30 9068 H 854.885 2.41637 -5.49301 0
M  V30 9069 H 855.955 1.25793 -4.68299 0
M  V30 9070 N 857.298 1.47698 0.54982 0
M  V30 9071 C 858.208 1.63386 1.68351 0
M  V30 9072 C 859.224 0.516583 1.66155 0
M  V30 9073 O 860.4 0.785088 1.85468 0
M  V30 9074 C 857.465 1.6513 3.04849 0
M  V30 9075 C 856.526 2.88338 3.18056 0
M  V30 9076 C 855.759 2.8999 4.48042 0
M  V30 9077 O 855.982 2.00633 5.3395 0
M  V30 9078 O 854.916 3.81938 4.65196 0
M  V30 9079 H 858.742 2.59329 1.58057 0
M  V30 9080 H 856.327 1.30869 0.72067 0
M  V30 9081 H 858.209 1.68913 3.86065 0
M  V30 9082 H 856.884 0.723555 3.1551 0
M  V30 9083 H 855.791 2.90097 2.36209 0
M  V30 9084 H 857.124 3.80431 3.12302 0
M  V30 9085 N 858.776 -0.797141 1.35954 0
M  V30 9086 C 859.686 -1.94088 1.31784 0
M  V30 9087 C 860.702 -1.72588 0.221227 0
M  V30 9088 O 861.878 -1.96256 0.452255 0
M  V30 9089 C 858.943 -3.28828 1.09878 0
M  V30 9090 C 858.004 -3.63158 2.28942 0
M  V30 9091 C 857.237 -4.91469 2.08072 0
M  V30 9092 O 857.46 -5.60616 1.05196 0
M  V30 9093 O 856.394 -5.24277 2.95664 0
M  V30 9094 H 860.22 -2.00554 2.28061 0
M  V30 9095 H 857.805 -0.936288 1.16422 0
M  V30 9096 H 859.687 -4.09473 0.995485 0
M  V30 9097 H 858.362 -3.23271 0.16659 0
M  V30 9098 H 857.269 -2.82851 2.44839 0
M  V30 9099 H 858.602 -3.7343 3.20641 0
M  V30 9100 N 860.254 -1.20106 -1.0204 0
M  V30 9101 C 861.665 -1.00992 -1.57027 0
M  V30 9102 C 862.016 0.434782 -1.91322 0
M  V30 9103 O 861.141 1.31557 -1.71819 0
M  V30 9104 C 861.736 -1.82697 -2.85319 0
M  V30 9105 C 860.295 -1.67959 -3.36848 0
M  V30 9106 C 859.442 -1.80868 -2.10195 0
M  V30 9107 H 862.393 -1.34354 -0.844676 0
M  V30 9108 H 862.414 -1.32809 -3.5657 0
M  V30 9109 H 861.926 -2.87839 -2.60328 0
M  V30 9110 H 860.027 -0.654389 -3.66809 0
M  V30 9111 H 860.14 -2.49006 -4.09308 0
M  V30 9112 H 858.504 -1.24015 -2.22469 0
M  V30 9113 H 859.287 -2.87486 -1.87635 0
M  V30 9114 N 861.732 1.21287 -1.00634 0
M  V30 9115 C 863.143 1.72136 -0.722914 0
M  V30 9116 C 863.494 1.8091 0.759338 0
M  V30 9117 O 862.619 1.46458 1.59308 0
M  V30 9118 C 863.214 3.12633 -1.30561 0
M  V30 9119 C 861.773 3.60833 -1.07127 0
M  V30 9120 C 860.92 2.38326 -1.4176 0
M  V30 9121 H 863.871 1.06445 -1.17708 0
M  V30 9122 H 863.892 3.74174 -0.690937 0
M  V30 9123 H 863.404 3.06215 -2.38441 0
M  V30 9124 H 861.505 3.72599 -0.00968671 0
M  V30 9125 H 861.618 4.46226 -1.74411 0
M  V30 9126 H 859.982 2.40575 -0.836412 0
M  V30 9127 H 860.765 2.34558 -2.50674 0
M  V30 9128 N 863.21 0.781244 1.36873 0
M  V30 9129 C 864.435 0.360398 2.04245 0
M  V30 9130 C 864.86 -1.01242 1.58529 0
M  V30 9131 O 864.218 -1.65063 0.749936 0
M  V30 9132 C 864.266 0.42329 3.58107 0
M  V30 9133 O 863.37 -0.572796 4.08403 0
M  V30 9134 H 862.711 0.154386 0.645803 0
M  V30 9135 H 865.241 1.06008 1.74996 0
M  V30 9136 H 865.251 0.283967 4.07011 0
M  V30 9137 H 863.926 1.42477 3.90734 0
M  V30 9138 H 862.503 -0.395809 3.70793 0
M  V30 9139 N 864.689 -1.48329 0.532571 0
M  V30 9140 C 865.599 -2.33445 -0.232546 0
M  V30 9141 C 866.615 -1.46651 -0.93645 0
M  V30 9142 O 867.791 -1.79627 -0.910834 0
M  V30 9143 C 864.856 -3.22824 -1.26434 0
M  V30 9144 C 863.917 -4.25492 -0.570511 0
M  V30 9145 C 863.15 -5.10601 -1.55315 0
M  V30 9146 O 863.373 -4.97733 -2.78599 0
M  V30 9147 O 862.307 -5.91927 -1.09112 0
M  V30 9148 H 866.133 -3.00119 0.464988 0
M  V30 9149 H 863.718 -1.46489 0.293462 0
M  V30 9150 H 865.6 -3.78103 -1.86055 0
M  V30 9151 H 864.275 -2.58807 -1.94424 0
M  V30 9152 H 863.182 -3.74041 0.0662587 0
M  V30 9153 H 864.515 -4.92154 0.0674904 0
M  V30 9154 N 866.167 -0.267825 -1.55308 0
M  V30 9155 C 867.415 0.350343 -1.9904 0
M  V30 9156 C 867.736 1.56924 -1.15758 0
M  V30 9157 O 867.006 1.94358 -0.245336 0
M  V30 9158 H 865.586 0.132435 -0.735167 0
M  V30 9159 H 868.248 -0.371471 -1.91327 0
M  V30 9160 H 867.344 0.645203 -3.05358 0
M  V30 9161 N 867.645 1.57599 0.00500368 0
M  V30 9162 C 869.056 1.78462 0.54848 0
M  V30 9163 C 869.407 0.901869 1.74243 0
M  V30 9164 O 868.532 0.103014 2.16155 0
M  V30 9165 C 869.127 3.2365 1.00179 0
M  V30 9166 C 867.686 3.45627 1.49061 0
M  V30 9167 C 866.833 2.73794 0.439531 0
M  V30 9168 H 869.784 1.57151 -0.22118 0
M  V30 9169 H 869.805 3.31488 1.86805 0
M  V30 9170 H 869.317 3.87873 0.132607 0
M  V30 9171 H 867.418 2.86612 2.38085 0
M  V30 9172 H 867.531 4.54298 1.52152 0
M  V30 9173 H 865.895 2.38267 0.900043 0
M  V30 9174 H 866.678 3.40714 -0.420599 0
M  V30 9175 N 869.123 -0.277682 1.55134 0
M  V30 9176 C 870.371 -1.00791 1.75173 0
M  V30 9177 C 870.692 -1.86987 0.553266 0
M  V30 9178 O 869.962 -1.91079 -0.43195 0
M  V30 9179 H 868.542 -0.375129 0.645978 0
M  V30 9180 H 871.204 -0.303041 1.9253 0
M  V30 9181 H 870.3 -1.64756 2.6507 0
M  V30 9182 N 870.601 -1.47988 -0.541979 0
M  V30 9183 C 871.826 -1.59286 -1.32826 0
M  V30 9184 C 872.251 -0.24894 -1.86445 0
M  V30 9185 O 871.609 0.777581 -1.63778 0
M  V30 9186 C 871.657 -2.6334 -2.46343 0
M  V30 9187 O 870.761 -2.19667 -3.49028 0
M  V30 9188 H 870.102 -0.534543 -0.393903 0
M  V30 9189 H 872.632 -1.93885 -0.653427 0
M  V30 9190 H 872.642 -2.84238 -2.92699 0
M  V30 9191 H 871.317 -3.60913 -2.06675 0
M  V30 9192 H 869.894 -2.08932 -3.08872 0
M  V30 9193 N 872.079 0.78992 -1.36375 0
M  V30 9194 C 873.319 1.56098 -1.31958 0
M  V30 9195 C 873.683 1.91738 0.100197 0
M  V30 9196 O 874.884 2.67451 0.268913 0
M  V30 9197 C 873.155 2.80406 -2.21601 0
M  V30 9198 S 874.714 3.70655 -2.34863 0
M  V30 9199 H 871.532 0.534632 -0.46871 0
M  V30 9200 H 874.134 0.930417 -1.7194 0
M  V30 9201 H 872.838 2.52273 -3.23707 0
M  V30 9202 H 872.369 3.48436 -1.82637 0
M  V30 9203 H 874.384 4.71509 -1.54575 0
M  V30 9204 N 873.557 1.20646 1.01402 0
M  V30 9205 C 874.487 0.98155 2.11867 0
M  V30 9206 C 875.468 -0.0903712 1.6986 0
M  V30 9207 O 876.653 0.0676586 1.94082 0
M  V30 9208 C 873.783 0.535636 3.43145 0
M  V30 9209 C 872.737 1.55109 3.98905 0
M  V30 9210 C 872.063 0.961725 5.2598 0
M  V30 9211 C 873.363 2.93552 4.32001 0
M  V30 9212 H 875.057 1.90544 2.3094 0
M  V30 9213 H 872.603 0.917554 1.10982 0
M  V30 9214 H 874.556 0.365512 4.19812 0
M  V30 9215 H 873.28 -0.423882 3.23838 0
M  V30 9216 H 871.939 1.70862 3.24348 0
M  V30 9217 H 871.587 -0.00580108 5.03 0
M  V30 9218 H 871.287 1.63993 5.64252 0
M  V30 9219 H 872.811 0.802726 6.053 0
M  V30 9220 H 874.225 2.81295 4.99546 0
M  V30 9221 H 872.622 3.58303 4.81393 0
M  V30 9222 H 873.692 3.4508 3.40658 0
M  V30 9223 N 875.035 -1.20752 1.01276 0
M  V30 9224 C 876.451 -1.42084 0.726934 0
M  V30 9225 C 876.651 -1.89138 -0.694907 0
M  V30 9226 O 875.707 -2.05783 -1.4632 0
M  V30 9227 C 877.02 -2.44575 1.74938 0
M  V30 9228 C 878.568 -2.58347 1.76708 0
M  V30 9229 C 879.043 -3.64078 2.77869 0
M  V30 9230 N 880.534 -3.71558 2.76585 0
M  V30 9231 C 881.269 -4.53016 3.51517 0
M  V30 9232 N 880.765 -5.38309 4.36114 0
M  V30 9233 N 882.558 -4.47512 3.40132 0
M  V30 9234 H 874.709 -0.885228 1.93074 0
M  V30 9235 H 876.972 -0.451075 0.833808 0
M  V30 9236 H 876.678 -2.1699 2.76782 0
M  V30 9237 H 876.552 -3.43503 1.55838 0
M  V30 9238 H 878.939 -2.85265 0.755516 0
M  V30 9239 H 879.02 -1.59628 1.99882 0
M  V30 9240 H 878.664 -3.37905 3.79187 0
M  V30 9241 H 878.594 -4.62412 2.51958 0
M  V30 9242 H 881.085 -3.10629 2.15216 0
M  V30 9243 H 881.398 -5.9754 4.90068 0
M  V30 9244 H 879.743 -5.37824 4.40194 0
M  V30 9245 H 882.934 -3.79912 2.73467 0
M  V30 9246 H 883.107 -5.10759 3.98784 0
M  V30 9247 N 876.513 -0.788492 -1.36457 0
M  V30 9248 C 877.929 -0.470063 -1.52521 0
M  V30 9249 C 878.129 1.01176 -1.74258 0
M  V30 9250 O 877.185 1.79726 -1.77355 0
M  V30 9251 C 878.498 -1.2997 -2.71161 0
M  V30 9252 C 880.046 -1.2933 -2.85031 0
M  V30 9253 C 880.521 -2.10665 -4.06674 0
M  V30 9254 N 882.012 -2.08107 -4.13819 0
M  V30 9255 C 882.747 -2.6781 -5.07016 0
M  V30 9256 N 882.243 -3.36369 -6.05663 0
M  V30 9257 N 884.036 -2.57549 -4.99625 0
M  V30 9258 H 876.187 -1.7484 -1.20602 0
M  V30 9259 H 878.45 -0.743159 -0.588574 0
M  V30 9260 H 878.156 -2.35051 -2.61618 0
M  V30 9261 H 878.03 -0.940367 -3.6529 0
M  V30 9262 H 880.417 -0.250414 -2.94036 0
M  V30 9263 H 880.498 -1.69239 -1.91812 0
M  V30 9264 H 880.142 -3.14984 -3.98431 0
M  V30 9265 H 880.072 -1.68128 -4.9904 0
M  V30 9266 H 882.563 -1.58208 -3.43189 0
M  V30 9267 H 882.876 -3.79258 -6.73338 0
M  V30 9268 H 881.221 -3.40471 -6.05891 0
M  V30 9269 H 884.412 -2.0359 -4.21508 0
M  V30 9270 H 884.585 -3.0437 -5.72069 0
M  V30 9271 N 877.991 1.48044 -0.54043 0
M  V30 9272 C 879.237 2.03392 -0.0183377 0
M  V30 9273 C 879.592 1.4091 1.31004 0
M  V30 9274 O 878.885 0.549375 1.83555 0
M  V30 9275 C 879.079 3.57085 0.150008 0
M  V30 9276 C 878.908 4.34468 -1.1605 0
M  V30 9277 C 877.678 4.75008 -1.72324 0
M  V30 9278 C 879.876 4.70641 -2.07368 0
M  V30 9279 N 877.858 5.36968 -2.97555 0
M  V30 9280 C 879.229 5.32728 -3.17176 0
M  V30 9281 C 881.284 4.52571 -2.07567 0
M  V30 9282 C 879.987 5.78654 -4.27261 0
M  V30 9283 C 882.013 4.99485 -3.16653 0
M  V30 9284 C 881.375 5.61606 -4.2518 0
M  V30 9285 H 877.474 0.780497 -0.0484652 0
M  V30 9286 H 880.058 1.80738 -0.724018 0
M  V30 9287 H 878.229 3.79542 0.824787 0
M  V30 9288 H 879.961 3.99071 0.672649 0
M  V30 9289 H 876.716 4.5644 -1.26331 0
M  V30 9290 H 877.14 5.72505 -3.61341 0
M  V30 9291 H 881.782 4.03914 -1.24952 0
M  V30 9292 H 879.5 6.26311 -5.10647 0
M  V30 9293 H 883.086 4.87286 -3.17874 0
M  V30 9294 H 881.966 5.97248 -5.08197 0
M  V30 9295 N 879.47 0.276058 1.55163 0
M  V30 9296 C 880.886 -0.0780579 1.59409 0
M  V30 9297 C 881.086 -1.54521 1.29327 0
M  V30 9298 O 880.142 -2.29422 1.05459 0
M  V30 9299 C 881.455 0.297422 2.99225 0
M  V30 9300 C 883.003 0.244117 3.12047 0
M  V30 9301 C 883.478 0.594051 4.54131 0
M  V30 9302 N 884.969 0.54564 4.59975 0
M  V30 9303 C 885.704 0.789192 5.67943 0
M  V30 9304 N 885.2 1.09741 6.84053 0
M  V30 9305 N 886.993 0.717926 5.57496 0
M  V30 9306 H 879.144 1.23251 1.72982 0
M  V30 9307 H 881.407 0.497988 0.806667 0
M  V30 9308 H 881.113 1.31782 3.26077 0
M  V30 9309 H 880.987 -0.361286 3.75466 0
M  V30 9310 H 883.374 -0.766992 2.84958 0
M  V30 9311 H 883.455 0.937097 2.38017 0
M  V30 9312 H 883.099 1.60285 4.81945 0
M  V30 9313 H 883.029 -0.120728 5.26462 0
M  V30 9314 H 885.52 0.317334 3.76565 0
M  V30 9315 H 885.833 1.26989 7.62295 0
M  V30 9316 H 884.178 1.13519 6.85666 0
M  V30 9317 H 887.369 0.47697 4.65664 0
M  V30 9318 H 887.542 0.911118 6.41563 0
M  V30 9319 N 880.948 -1.576 0.00335426 0
M  V30 9320 C 881.88 -2.0549 -1.01521 0
M  V30 9321 C 882.893 -0.973441 -1.30491 0
M  V30 9322 O 884.082 -1.25017 -1.27409 0
M  V30 9323 C 881.182 -2.44272 -2.34914 0
M  V30 9324 C 880.355 -3.75191 -2.24835 0
M  V30 9325 C 879.414 -4.00804 -3.40944 0
M  V30 9326 O 878.44 -4.71423 -3.18981 0
M  V30 9327 N 879.642 -3.48961 -4.63904 0
M  V30 9328 H 882.407 -2.93493 -0.60678 0
M  V30 9329 H 879.968 -1.60851 -0.18396 0
M  V30 9330 H 881.96 -2.58518 -3.11369 0
M  V30 9331 H 880.53 -1.6177 -2.67487 0
M  V30 9332 H 879.75 -3.70989 -1.3327 0
M  V30 9333 H 881.038 -4.61013 -2.15277 0
M  V30 9334 H 880.436 -2.9178 -4.84645 0
M  V30 9335 H 878.993 -3.68531 -5.37613 0
M  V30 9336 N 882.426 0.269451 -1.5528 0
M  V30 9337 C 883.703 1.02207 -1.66773 0
M  V30 9338 C 884.083 2.04168 -0.536536 0
M  V30 9339 O 883.431 2.23761 0.462956 0
M  V30 9340 C 883.641 1.67569 -3.0614 0
M  V30 9341 C 884.989 2.18599 -3.64005 0
M  V30 9342 O 886.013 1.7755 -3.08795 0
M  V30 9343 O 884.872 2.93903 -4.60742 0
M  V30 9344 H 881.966 0.474314 -0.677462 0
M  V30 9345 H 884.512 0.265026 -1.67618 0
M  V30 9346 H 883.284 0.937029 -3.79915 0
M  V30 9347 H 882.907 2.49951 -3.09209 0
M  V30 9348 N 883.904 1.48273 0.534124 0
M  V30 9349 C 885.315 1.49667 1.1161 0
M  V30 9350 C 885.666 0.264139 1.94414 0
M  V30 9351 O 884.791 -0.629084 2.07054 0
M  V30 9352 C 885.386 2.71191 2.03079 0
M  V30 9353 C 883.945 2.7547 2.56502 0
M  V30 9354 C 883.092 2.43119 1.33373 0
M  V30 9355 H 886.043 1.55449 0.319578 0
M  V30 9356 H 886.064 2.49473 2.87304 0
M  V30 9357 H 885.576 3.60879 1.42785 0
M  V30 9358 H 883.677 1.89979 3.20529 0
M  V30 9359 H 883.79 3.76787 2.95919 0
M  V30 9360 H 882.154 1.94187 1.64813 0
M  V30 9361 H 882.937 3.35044 0.748375 0
M  V30 9362 N 885.382 -0.782676 1.36792 0
M  V30 9363 C 886.312 -1.90973 1.34356 0
M  V30 9364 C 887.293 -1.6875 0.213917 0
M  V30 9365 O 888.478 -1.89766 0.412601 0
M  V30 9366 C 885.608 -3.28097 1.13884 0
M  V30 9367 C 884.562 -3.6486 2.23744 0
M  V30 9368 C 883.888 -5.00406 1.88408 0
M  V30 9369 C 885.188 -3.72742 3.6587 0
M  V30 9370 H 886.882 -1.93268 2.28665 0
M  V30 9371 H 884.428 -0.928447 1.10072 0
M  V30 9372 H 886.381 -4.06569 1.10813 0
M  V30 9373 H 885.105 -3.26206 0.160275 0
M  V30 9374 H 883.764 -2.88689 2.25952 0
M  V30 9375 H 883.412 -4.95044 0.891083 0
M  V30 9376 H 883.112 -5.25973 2.61966 0
M  V30 9377 H 884.636 -5.81291 1.86905 0
M  V30 9378 H 886.05 -4.4139 3.65852 0
M  V30 9379 H 884.447 -4.09798 4.38389 0
M  V30 9380 H 885.517 -2.73676 4.00287 0
M  V30 9381 N 886.86 -1.21182 -1.00761 0
M  V30 9382 C 888.108 -1.02543 -1.74153 0
M  V30 9383 C 888.429 0.442372 -1.89916 0
M  V30 9384 O 887.699 1.31927 -1.44818 0
M  V30 9385 H 886.279 -0.37644 -0.645214 0
M  V30 9386 H 888.941 -1.52446 -1.21434 0
M  V30 9387 H 888.037 -1.49122 -2.7417 0
M  V30 9388 N 888.338 1.20213 -1.01915 0
M  V30 9389 C 889.615 1.85348 -0.62495 0
M  V30 9390 C 889.995 1.91101 0.896854 0
M  V30 9391 O 889.343 1.42075 1.78961 0
M  V30 9392 C 889.553 3.24849 -1.27571 0
M  V30 9393 C 890.901 4.01107 -1.39277 0
M  V30 9394 O 891.925 3.34211 -1.23212 0
M  V30 9395 O 890.784 5.20914 -1.6526 0
M  V30 9396 H 887.878 0.798303 -0.215965 0
M  V30 9397 H 890.424 1.27782 -1.11669 0
M  V30 9398 H 889.196 3.1544 -2.31545 0
M  V30 9399 H 888.819 3.90049 -0.77122 0
M  V30 9400 N 889.816 0.795718 1.36037 0
M  V30 9401 C 891.041 0.38204 2.03851 0
M  V30 9402 C 891.466 -0.995553 1.59594 0
M  V30 9403 O 890.824 -1.64258 0.767401 0
M  V30 9404 C 890.872 0.461248 3.57638 0
M  V30 9405 O 889.976 -0.529448 4.08987 0
M  V30 9406 H 889.317 0.161227 0.644129 0
M  V30 9407 H 891.847 1.07858 1.73861 0
M  V30 9408 H 891.857 0.32712 4.06687 0
M  V30 9409 H 890.532 1.46613 3.89201 0
M  V30 9410 H 889.109 -0.35646 3.71192 0
M  V30 9411 N 891.294 -1.47756 0.548274 0
M  V30 9412 C 892.534 -2.04387 0.0231354 0
M  V30 9413 C 892.898 -1.41438 -1.29843 0
M  V30 9414 O 894.099 -1.89064 -1.91072 0
M  V30 9415 C 892.37 -3.57316 -0.077482 0
M  V30 9416 S 893.929 -4.35339 -0.550038 0
M  V30 9417 H 890.747 -0.710694 0.0208428 0
M  V30 9418 H 893.349 -1.81239 0.732984 0
M  V30 9419 H 892.053 -4.00658 0.88888 0
M  V30 9420 H 891.584 -3.84947 -0.811157 0
M  V30 9421 H 893.599 -4.61957 -1.81135 0
M  V30 9422 N 892.772 -0.284283 -1.55015 0
M  V30 9423 C 894.019 0.329864 -1.99795 0
M  V30 9424 C 894.347 1.55171 -1.1727 0
M  V30 9425 O 893.602 1.94312 -0.232667 0
M  V30 9426 C 893.901 0.747219 -3.49502 0
M  V30 9427 C 893.567 -0.37101 -4.49371 0
M  V30 9428 C 892.229 -0.678034 -4.76399 0
M  V30 9429 C 894.581 -1.12406 -5.08935 0
M  V30 9430 C 891.909 -1.74152 -5.60257 0
M  V30 9431 C 894.261 -2.17734 -5.93948 0
M  V30 9432 C 892.925 -2.49061 -6.19294 0
M  V30 9433 H 892.195 0.120706 -0.731103 0
M  V30 9434 H 894.842 -0.399904 -1.87278 0
M  V30 9435 H 893.147 1.55681 -3.59542 0
M  V30 9436 H 894.844 1.2333 -3.81563 0
M  V30 9437 H 891.434 -0.1216 -4.28427 0
M  V30 9438 H 895.618 -0.900119 -4.88069 0
M  V30 9439 H 890.874 -1.98915 -5.78137 0
M  V30 9440 H 895.048 -2.76553 -6.39133 0
M  V30 9441 H 892.675 -3.31602 -6.84064 0
M  V30 9442 N 894.251 1.57596 -0.0117121 0
M  V30 9443 C 895.476 1.95764 0.684938 0
M  V30 9444 C 895.901 0.887285 1.65858 0
M  V30 9445 O 895.259 -0.153508 1.80649 0
M  V30 9446 C 895.307 3.33031 1.38285 0
M  V30 9447 O 894.411 3.28163 2.49765 0
M  V30 9448 H 893.752 0.638767 0.181309 0
M  V30 9449 H 896.282 2.04486 -0.0683883 0
M  V30 9450 H 896.292 3.68866 1.74362 0
M  V30 9451 H 894.967 4.10483 0.669043 0
M  V30 9452 H 893.544 3.04021 2.15929 0
M  V30 9453 N 895.729 -0.261212 1.5542 0
M  V30 9454 C 896.659 -1.32712 1.92119 0
M  V30 9455 C 897.64 -1.50934 0.784406 0
M  V30 9456 O 898.825 -1.63781 1.04352 0
M  V30 9457 C 895.955 -2.68453 2.20341 0
M  V30 9458 C 894.909 -2.64947 3.36136 0
M  V30 9459 C 894.235 -4.04349 3.49865 0
M  V30 9460 C 895.535 -2.23182 4.72215 0
M  V30 9461 H 897.229 -1.02245 2.81401 0
M  V30 9462 H 894.775 -0.490406 1.35392 0
M  V30 9463 H 896.728 -3.43144 2.44603 0
M  V30 9464 H 895.452 -3.00527 1.27871 0
M  V30 9465 H 894.111 -1.92714 3.11861 0
M  V30 9466 H 893.759 -4.33665 2.5484 0
M  V30 9467 H 893.459 -4.02895 4.27726 0
M  V30 9468 H 894.983 -4.80761 3.76432 0
M  V30 9469 H 896.397 -2.87599 4.95943 0
M  V30 9470 H 894.794 -2.32867 5.53076 0
M  V30 9471 H 895.864 -1.18327 4.70241 0
M  V30 9472 N 897.207 -1.48554 -0.526253 0
M  V30 9473 C 898.435 -1.60429 -1.30652 0
M  V30 9474 C 898.85 -0.265963 -1.86917 0
M  V30 9475 O 898.207 0.745262 -1.6659 0
M  V30 9476 C 898.258 -2.65377 -2.45473 0
M  V30 9477 O 897.979 -3.94017 -1.91527 0
M  V30 9478 C 899.48 -2.87726 -3.37237 0
M  V30 9479 H 896.7 -0.540817 -0.397187 0
M  V30 9480 H 899.244 -1.94409 -0.634461 0
M  V30 9481 H 897.399 -2.34246 -3.08557 0
M  V30 9482 H 897.813 -4.51623 -2.66715 0
M  V30 9483 H 899.287 -3.64951 -4.14144 0
M  V30 9484 H 899.764 -1.96688 -3.92696 0
M  V30 9485 H 900.37 -3.20176 -2.79942 0
M  V30 9486 N 898.685 0.775411 -1.37205 0
M  V30 9487 C 899.962 1.5229 -1.22748 0
M  V30 9488 C 900.342 2.10327 0.180487 0
M  V30 9489 O 899.69 1.95206 1.18772 0
M  V30 9490 C 899.9 2.60671 -2.3206 0
M  V30 9491 C 901.248 3.28173 -2.6942 0
M  V30 9492 O 902.272 2.70963 -2.31208 0
M  V30 9493 O 901.131 4.31598 -3.3524 0
M  V30 9494 H 898.225 0.674326 -0.478762 0
M  V30 9495 H 900.771 0.812691 -1.48975 0
M  V30 9496 H 899.543 2.1588 -3.26361 0
M  V30 9497 H 899.166 3.39296 -2.07277 0
M  V30 9498 N 900.163 1.21714 1.00117 0
M  V30 9499 C 901.403 1.04818 1.75478 0
M  V30 9500 C 901.767 -0.410653 1.87557 0
M  V30 9501 O 902.968 -0.700241 2.59519 0
M  V30 9502 C 901.239 1.73055 3.12709 0
M  V30 9503 S 902.798 1.71464 4.03913 0
M  V30 9504 H 899.616 0.375534 0.603734 0
M  V30 9505 H 902.218 1.54522 1.19763 0
M  V30 9506 H 900.922 2.78376 3.01554 0
M  V30 9507 H 900.453 1.23546 3.73497 0
M  V30 9508 H 902.468 0.75845 4.90369 0
M  V30 9509 N 901.641 -1.19671 1.02551 0
M  V30 9510 C 902.573 -2.22215 0.561517 0
M  V30 9511 C 903.586 -1.58751 -0.360821 0
M  V30 9512 O 904.775 -1.77802 -0.157749 0
M  V30 9513 C 901.875 -3.383 -0.201494 0
M  V30 9514 C 901.048 -4.3135 0.724952 0
M  V30 9515 C 900.107 -5.26199 0.00794334 0
M  V30 9516 O 899.133 -5.65665 0.633398 0
M  V30 9517 N 900.335 -5.66573 -1.26394 0
M  V30 9518 H 903.1 -2.6265 1.44343 0
M  V30 9519 H 900.661 -1.34303 0.904122 0
M  V30 9520 H 902.653 -3.98764 -0.690625 0
M  V30 9521 H 901.223 -2.96683 -0.98479 0
M  V30 9522 H 900.443 -3.6872 1.39423 0
M  V30 9523 H 901.731 -4.90433 1.35472 0
M  V30 9524 H 901.129 -5.36538 -1.79287 0
M  V30 9525 H 899.686 -6.29304 -1.69763 0
M  V30 9526 N 903.119 -0.802921 -1.35613 0
M  V30 9527 C 904.029 -0.212177 -2.33639 0
M  V30 9528 C 905.045 0.642871 -1.61689 0
M  V30 9529 O 906.221 0.555485 -1.93588 0
M  V30 9530 C 903.286 0.632406 -3.40883 0
M  V30 9531 C 902.347 -0.242708 -4.28613 0
M  V30 9532 C 901.58 0.56166 -5.30736 0
M  V30 9533 O 901.803 1.79664 -5.41366 0
M  V30 9534 O 900.737 -0.0455387 -6.01883 0
M  V30 9535 H 904.563 -1.023 -2.85952 0
M  V30 9536 H 902.148 -0.564636 -1.38319 0
M  V30 9537 H 904.03 1.11358 -4.0642 0
M  V30 9538 H 902.705 1.42089 -2.90848 0
M  V30 9539 H 901.612 -0.77094 -3.6607 0
M  V30 9540 H 902.945 -0.995046 -4.82037 0
M  V30 9541 N 904.597 1.47463 -0.556102 0
M  V30 9542 C 905.843 2.02775 -0.0316806 0
M  V30 9543 C 906.176 1.42967 1.3143 0
M  V30 9544 O 905.451 0.584847 1.85499 0
M  V30 9545 C 905.734 3.60046 0.0625742 0
M  V30 9546 C 905.587 4.30288 -1.31043 0
M  V30 9547 C 906.906 4.33195 0.776553 0
M  V30 9548 H 904.025 0.736886 -0.0129869 0
M  V30 9549 H 906.667 1.75904 -0.718177 0
M  V30 9550 H 904.817 3.83071 0.647231 0
M  V30 9551 H 906.489 4.18607 -1.9382 0
M  V30 9552 H 904.732 3.90685 -1.8854 0
M  V30 9553 H 905.403 5.38861 -1.1972 0
M  V30 9554 H 907.879 4.15156 0.280147 0
M  V30 9555 H 906.755 5.42869 0.81146 0
M  V30 9556 H 907.016 4.02336 1.83244 0
M  V30 9557 N 906.075 0.2925 1.54862 0
M  V30 9558 C 907.303 -0.322113 2.04377 0
M  V30 9559 C 907.718 -1.48164 1.17016 0
M  V30 9560 O 907.075 -1.81466 0.19395 0
M  V30 9561 C 907.126 -0.786506 3.5284 0
M  V30 9562 O 906.847 0.326863 4.36879 0
M  V30 9563 C 908.348 -1.46715 4.18318 0
M  V30 9564 H 905.568 -0.0712074 0.667211 0
M  V30 9565 H 908.112 0.429657 1.99935 0
M  V30 9566 H 906.267 -1.48832 3.5767 0
M  V30 9567 H 906.681 -0.0331558 5.2449 0
M  V30 9568 H 908.155 -1.74333 5.23748 0
M  V30 9569 H 908.632 -2.40443 3.67538 0
M  V30 9570 H 909.238 -0.808735 4.1754 0
M  V30 9571 N 907.553 -1.57587 0.0200696 0
M  V30 9572 C 908.516 -2.08595 -0.949767 0
M  V30 9573 C 909.516 -0.999215 -1.25985 0
M  V30 9574 O 910.706 -1.26115 -1.2017 0
M  V30 9575 C 907.838 -2.54424 -2.26895 0
M  V30 9576 H 909.031 -2.95563 -0.508161 0
M  V30 9577 H 906.584 -1.54631 -0.227798 0
M  V30 9578 H 907.319 -1.70758 -2.75703 0
M  V30 9579 H 907.104 -3.3381 -2.05702 0
M  V30 9580 H 908.594 -2.94144 -2.96427 0
M  V30 9581 N 909.032 0.252966 -1.55557 0
M  V30 9582 C 910.26 0.999565 -1.81153 0
M  V30 9583 C 910.675 1.79181 -0.594955 0
M  V30 9584 O 910.032 1.77208 0.436311 0
M  V30 9585 C 910.083 1.94227 -3.04891 0
M  V30 9586 O 909.804 1.18209 -4.21851 0
M  V30 9587 C 911.305 2.80536 -3.43241 0
M  V30 9588 H 908.525 0.294402 -0.602966 0
M  V30 9589 H 911.069 0.277686 -2.02606 0
M  V30 9590 H 909.224 2.6185 -2.85505 0
M  V30 9591 H 909.638 1.81922 -4.9194 0
M  V30 9592 H 911.112 3.42442 -4.32941 0
M  V30 9593 H 911.589 3.51337 -2.6355 0
M  V30 9594 H 912.195 2.18373 -3.64956 0
M  V30 9595 N 910.51 1.48831 0.518367 0
M  V30 9596 C 911.74 1.60886 1.29612 0
M  V30 9597 C 912.148 0.272713 1.87224 0
M  V30 9598 O 911.491 -0.749653 1.67708 0
M  V30 9599 C 911.553 2.60541 2.47707 0
M  V30 9600 C 911.217 4.05324 2.11095 0
M  V30 9601 C 912.214 4.92658 1.66084 0
M  V30 9602 C 909.899 4.50942 2.21262 0
M  V30 9603 C 911.893 6.23641 1.3172 0
M  V30 9604 C 909.58 5.81943 1.8651 0
M  V30 9605 C 910.578 6.68116 1.41812 0
M  V30 9606 O 910.266 7.96677 1.07522 0
M  V30 9607 H 909.998 0.544968 0.399982 0
M  V30 9608 H 912.552 1.95474 0.630799 0
M  V30 9609 H 910.782 2.21098 3.17258 0
M  V30 9610 H 912.471 2.62308 3.09757 0
M  V30 9611 H 913.237 4.58649 1.5769 0
M  V30 9612 H 909.116 3.84048 2.55007 0
M  V30 9613 H 912.66 6.90857 0.967598 0
M  V30 9614 H 908.557 6.15484 1.94549 0
M  V30 9615 H 909.325 8.09534 1.2082 0
M  V30 9616 N 911.988 -0.768124 1.37614 0
M  V30 9617 C 913.404 -1.06919 1.18493 0
M  V30 9618 C 913.604 -2.01486 0.0235753 0
M  V30 9619 O 912.66 -2.4438 -0.635209 0
M  V30 9620 C 913.973 -1.66321 2.50515 0
M  V30 9621 C 915.521 -1.78562 2.57069 0
M  V30 9622 C 915.996 -2.41377 3.89231 0
M  V30 9623 N 917.487 -2.48824 3.90693 0
M  V30 9624 C 918.222 -2.98288 4.89706 0
M  V30 9625 N 917.718 -3.47897 5.99115 0
M  V30 9626 N 919.511 -2.97196 4.77107 0
M  V30 9627 H 911.662 -0.140286 2.11936 0
M  V30 9628 H 913.925 -0.124863 0.939741 0
M  V30 9629 H 913.631 -1.04303 3.35878 0
M  V30 9630 H 913.505 -2.65571 2.67866 0
M  V30 9631 H 915.892 -2.39712 1.72111 0
M  V30 9632 H 915.973 -0.780574 2.43599 0
M  V30 9633 H 915.617 -1.80866 4.74605 0
M  V30 9634 H 915.547 -3.42495 4.00006 0
M  V30 9635 H 918.038 -2.1372 3.1166 0
M  V30 9636 H 918.351 -3.84053 6.70614 0
M  V30 9637 H 916.696 -3.45993 6.02755 0
M  V30 9638 H 919.887 -2.57741 3.90752 0
M  V30 9639 H 920.06 -3.35434 5.54426 0
M  V30 9640 N 913.466 -1.22244 -0.994698 0
M  V30 9641 C 914.398 -0.948706 -2.08644 0
M  V30 9642 C 915.411 0.0720049 -1.62641 0
M  V30 9643 O 916.6 -0.161778 -1.77765 0
M  V30 9644 C 913.7 -0.404885 -3.36473 0
M  V30 9645 C 912.873 -1.48239 -4.11514 0
M  V30 9646 C 911.932 -0.94597 -5.17627 0
M  V30 9647 O 910.958 -1.63177 -5.45309 0
M  V30 9648 N 912.16 0.23355 -5.8003 0
M  V30 9649 H 914.925 -1.88858 -2.32707 0
M  V30 9650 H 912.486 -1.12908 -1.16032 0
M  V30 9651 H 914.478 -0.0313903 -4.04688 0
M  V30 9652 H 913.048 0.440061 -3.09487 0
M  V30 9653 H 912.268 -2.02928 -3.37955 0
M  V30 9654 H 913.556 -2.20741 -4.58422 0
M  V30 9655 H 912.954 0.80756 -5.59906 0
M  V30 9656 H 911.511 0.54845 -6.49488 0
M  V30 9657 N 914.944 1.19125 -1.03184 0
M  V30 9658 C 915.907 2.20662 -0.619766 0
M  V30 9659 C 916.907 1.57621 0.318179 0
M  V30 9660 O 918.097 1.73885 0.104783 0
M  V30 9661 C 915.229 3.40774 0.0926696 0
M  V30 9662 H 916.422 2.58633 -1.5182 0
M  V30 9663 H 913.975 1.32855 -0.823364 0
M  V30 9664 H 914.71 3.08324 1.00531 0
M  V30 9665 H 914.495 3.87766 -0.581344 0
M  V30 9666 H 915.985 4.15977 0.367792 0
M  V30 9667 N 916.422 0.810101 1.35185 0
M  V30 9668 C 917.352 0.237453 2.32289 0
M  V30 9669 C 918.333 -0.639032 1.5764 0
M  V30 9670 O 919.518 -0.568575 1.8569 0
M  V30 9671 C 916.648 -0.611964 3.41866 0
M  V30 9672 C 915.602 0.166318 4.27677 0
M  V30 9673 C 914.928 -0.805024 5.28605 0
M  V30 9674 C 916.228 1.36729 5.04086 0
M  V30 9675 H 917.922 1.04874 2.80432 0
M  V30 9676 H 915.468 0.505751 1.34826 0
M  V30 9677 H 917.421 -1.02267 4.08802 0
M  V30 9678 H 916.145 -1.45617 2.92341 0
M  V30 9679 H 914.804 0.558238 3.62325 0
M  V30 9680 H 914.452 -1.64483 4.75347 0
M  V30 9681 H 914.152 -0.288577 5.86891 0
M  V30 9682 H 915.676 -1.21386 5.98413 0
M  V30 9683 H 917.09 1.03128 5.63948 0
M  V30 9684 H 915.487 1.81848 5.71884 0
M  V30 9685 H 916.557 2.15214 4.34524 0
M  V30 9686 N 917.9 -1.47166 0.563914 0
M  V30 9687 C 919.316 -1.58018 0.224173 0
M  V30 9688 C 919.516 -1.56163 -1.27339 0
M  V30 9689 O 918.572 -1.4686 -2.05398 0
M  V30 9690 C 919.885 -2.88236 0.856762 0
M  V30 9691 C 921.433 -3.01833 0.82861 0
M  V30 9692 C 921.908 -4.34761 1.44039 0
M  V30 9693 N 923.399 -4.41413 1.40388 0
M  V30 9694 C 924.134 -5.42845 1.84681 0
M  V30 9695 N 923.63 -6.51052 2.3686 0
M  V30 9696 N 925.423 -5.33931 1.75711 0
M  V30 9697 H 917.574 -1.46615 1.53681 0
M  V30 9698 H 919.837 -0.698195 0.64127 0
M  V30 9699 H 919.543 -2.95349 1.90949 0
M  V30 9700 H 919.417 -3.75537 0.353766 0
M  V30 9701 H 921.804 -2.94312 -0.215451 0
M  V30 9702 H 921.885 -2.16056 1.36943 0
M  V30 9703 H 921.529 -4.43037 2.48355 0
M  V30 9704 H 921.459 -5.1928 0.874953 0
M  V30 9705 H 923.95 -3.63811 1.02227 0
M  V30 9706 H 924.263 -7.24633 2.68564 0
M  V30 9707 H 922.608 -6.51924 2.40875 0
M  V30 9708 H 925.799 -4.48295 1.34718 0
M  V30 9709 H 925.972 -6.12841 2.10547 0
M  V30 9710 N 919.378 -0.300708 -1.54705 0
M  V30 9711 C 920.624 0.309111 -2.0043 0
M  V30 9712 C 920.957 1.53562 -1.1888 0
M  V30 9713 O 920.232 1.92683 -0.265205 0
M  V30 9714 C 920.515 0.665995 -3.53888 0
M  V30 9715 C 920.368 -0.56963 -4.46178 0
M  V30 9716 C 921.687 1.49262 -4.14016 0
M  V30 9717 H 918.806 0.110878 -0.728612 0
M  V30 9718 H 921.448 -0.412748 -1.85463 0
M  V30 9719 H 919.598 1.281 -3.66773 0
M  V30 9720 H 921.27 -1.20811 -4.45199 0
M  V30 9721 H 919.513 -1.20292 -4.16788 0
M  V30 9722 H 920.184 -0.275785 -5.51311 0
M  V30 9723 H 922.66 0.972979 -4.04564 0
M  V30 9724 H 921.536 1.71111 -5.21548 0
M  V30 9725 H 921.797 2.48174 -3.65872 0
M  V30 9726 N 920.856 1.57574 -0.0284266 0
M  V30 9727 C 922.096 1.93637 0.65453 0
M  V30 9728 C 922.46 0.905015 1.69332 0
M  V30 9729 O 923.661 1.15181 2.42872 0
M  V30 9730 C 921.932 3.3462 1.25555 0
M  V30 9731 S 923.491 3.92609 1.95968 0
M  V30 9732 H 920.309 0.67755 0.215516 0
M  V30 9733 H 922.911 1.95284 -0.0919257 0
M  V30 9734 H 921.615 4.07499 0.487069 0
M  V30 9735 H 921.146 3.36415 2.03933 0
M  V30 9736 H 923.161 3.75988 3.23802 0
M  V30 9737 N 922.334 -0.244713 1.55689 0
M  V30 9738 C 923.559 -0.994157 1.8202 0
M  V30 9739 C 923.984 -1.78079 0.60577 0
M  V30 9740 O 923.342 -1.75748 -0.445221 0
M  V30 9741 C 923.39 -1.90599 3.06111 0
M  V30 9742 O 922.494 -2.99804 2.8318 0
M  V30 9743 H 921.835 -0.282767 0.600782 0
M  V30 9744 H 924.365 -0.26504 2.02876 0
M  V30 9745 H 924.375 -2.32023 3.35603 0
M  V30 9746 H 923.05 -1.32763 3.9414 0
M  V30 9747 H 921.627 -2.62493 2.64862 0
M  V30 9748 N 923.813 -1.49104 -0.510467 0
M  V30 9749 C 924.76 -1.65074 -1.61305 0
M  V30 9750 C 925.73 -0.492362 -1.58635 0
M  V30 9751 O 926.915 -0.718241 -1.76765 0
M  V30 9752 C 924.055 -1.71457 -2.99493 0
M  V30 9753 C 923.168 -2.98536 -3.12251 0
M  V30 9754 C 922.303 -2.95957 -4.41116 0
M  V30 9755 C 921.342 -4.17655 -4.47471 0
M  V30 9756 N 920.479 -4.13041 -5.67751 0
M  V30 9757 H 925.319 -2.59222 -1.46996 0
M  V30 9758 H 922.856 -1.28535 -0.715346 0
M  V30 9759 H 924.814 -1.7314 -3.79577 0
M  V30 9760 H 923.444 -0.807834 -3.12528 0
M  V30 9761 H 922.496 -3.06509 -2.25292 0
M  V30 9762 H 923.808 -3.88527 -3.12807 0
M  V30 9763 H 922.962 -2.96149 -5.2951 0
M  V30 9764 H 921.701 -2.03728 -4.4311 0
M  V30 9765 H 920.706 -4.17717 -3.57481 0
M  V30 9766 H 921.931 -5.11066 -4.472 0
M  V30 9767 H 919.877 -3.23643 -5.70606 0
M  V30 9768 H 919.794 -4.96757 -5.69884 0
M  V30 9769 H 921.062 -4.17322 -6.58379 0
M  V30 9770 N 925.291 0.760815 -1.38019 0
M  V30 9771 C 926.221 1.88811 -1.37377 0
M  V30 9772 C 927.202 1.68388 -0.240737 0
M  V30 9773 O 928.387 1.89086 -0.442739 0
M  V30 9774 C 925.517 3.26244 -1.1909 0
M  V30 9775 C 924.471 3.61254 -2.29521 0
M  V30 9776 C 923.797 4.97346 -1.96345 0
M  V30 9777 C 925.097 3.66874 -3.71753 0
M  V30 9778 H 926.791 1.89606 -2.31711 0
M  V30 9779 H 924.337 0.910818 -1.11535 0
M  V30 9780 H 926.29 4.04755 -1.17267 0
M  V30 9781 H 925.014 3.2591 -0.212152 0
M  V30 9782 H 923.673 2.85057 -2.30517 0
M  V30 9783 H 923.321 4.93564 -0.969728 0
M  V30 9784 H 923.021 5.21739 -2.703 0
M  V30 9785 H 924.545 5.78244 -1.96129 0
M  V30 9786 H 925.959 4.35514 -3.72828 0
M  V30 9787 H 924.356 4.02772 -4.44853 0
M  V30 9788 H 925.426 2.67273 -4.0459 0
M  V30 9789 N 926.769 1.22769 0.988202 0
M  V30 9790 C 927.997 1.08155 1.76381 0
M  V30 9791 C 928.412 -0.367573 1.85187 0
M  V30 9792 O 927.769 -1.25455 1.32541 0
M  V30 9793 C 927.82 1.69193 3.19462 0
M  V30 9794 O 927.541 3.08437 3.11125 0
M  V30 9795 C 929.042 1.59915 4.13451 0
M  V30 9796 H 926.262 0.378908 0.553778 0
M  V30 9797 H 928.806 1.6246 1.24206 0
M  V30 9798 H 926.961 1.18939 3.6869 0
M  V30 9799 H 927.375 3.37916 4.0114 0
M  V30 9800 H 928.849 2.07339 5.1158 0
M  V30 9801 H 929.326 0.556546 4.3566 0
M  V30 9802 H 929.932 2.09497 3.70123 0
M  V30 9803 O 928.286 -1.11954 1.16398 0
M  V30 9804 H 928.977 -1.71734 0.895937 0
M  V30 END ATOM
M  V30 BEGIN BOND
M  V30 END BOND
M  V30 END CTAB
M  END
$$$$
