drugbank_target|Q8ID50 Ubiquitin-60S ribosomal protein L40 (DB11638)
 OpenBabel12092121113D

  0  0  0     0  0            999 V3000
M  V30 BEGIN CTAB
M  V30 COUNTS 2113 2125 0 0 0
M  V30 BEGIN ATOM
M  V30 1 H -0.908 1.98254 -0.117106 0
M  V30 2 N 0 1.576 0 0
M  V30 3 C 0.933 2.03868 1.02534 0
M  V30 4 C 1.911 0.928543 1.3348 0
M  V30 5 O 3.095 1.19667 1.45644 0
M  V30 6 C 0.222 2.43627 2.35294 0
M  V30 7 C -0.732 3.65373 2.2001 0
M  V30 8 S 0.101 5.13292 1.52614 0
M  V30 9 C 1.257 5.56322 2.86805 0
M  V30 10 H 1.49 2.90518 0.631377 0
M  V30 11 H -0.977 1.52953 0.210867 0
M  V30 12 H 0.981 2.67203 3.11629 0
M  V30 13 H -0.358 1.57376 2.7183 0
M  V30 14 H -1.165 3.90944 3.18086 0
M  V30 15 H -1.563 3.418 1.51819 0
M  V30 16 H 0.729 5.58782 3.83104 0
M  V30 17 H 1.672 6.56266 2.65933 0
M  V30 18 H 2.08 4.83886 2.90714 0
M  V30 19 N 1.4781 -0.272755 1.55222 0
M  V30 20 C 2.4101 -1.35946 1.8453 0
M  V30 21 C 3.4231 -1.45525 0.729818 0
M  V30 22 O 4.6121 -1.47337 1.00767 0
M  V30 23 C 1.7121 -2.74069 1.99347 0
M  V30 24 C 0.8851 -2.87079 3.30007 0
M  V30 25 C -0.0559 -4.05879 3.34886 0
M  V30 26 O -1.0299 -3.96626 4.08261 0
M  V30 27 N 0.1721 -5.17857 2.62307 0
M  V30 28 H 2.9371 -1.11149 2.78327 0
M  V30 29 H 0.4981 -0.462869 1.55142 0
M  V30 30 H 2.4901 -3.51838 1.99981 0
M  V30 31 H 1.0601 -2.91688 1.12415 0
M  V30 32 H 0.2801 -1.96193 3.41909 0
M  V30 33 H 1.5681 -2.92701 4.16177 0
M  V30 34 H 0.9661 -5.28261 2.02377 0
M  V30 35 H -0.4769 -5.93855 2.68663 0
M  V30 36 N 2.9562 -1.48159 -0.537278 0
M  V30 37 C 4.2052 -1.5506 -1.28993 0
M  V30 38 C 4.5182 -0.226211 -1.94288 0
M  V30 39 O 5.7242 -0.173395 -2.70946 0
M  V30 40 C 4.1802 -2.73429 -2.34018 0
M  V30 41 C 3.7882 -4.1248 -1.74825 0
M  V30 42 C 5.5322 -2.89638 -3.10339 0
M  V30 43 C 3.4392 -5.22121 -2.77747 0
M  V30 44 H 2.3692 -0.577231 -0.485098 0
M  V30 45 H 5.0202 -1.74478 -0.568317 0
M  V30 46 H 3.4022 -2.47431 -3.09182 0
M  V30 47 H 4.5762 -4.48466 -1.05899 0
M  V30 48 H 2.8912 -4.01327 -1.11022 0
M  V30 49 H 5.4882 -3.68718 -3.87235 0
M  V30 50 H 5.8312 -1.9882 -3.65754 0
M  V30 51 H 6.3642 -3.15502 -2.42288 0
M  V30 52 H 3.1032 -6.1488 -2.27161 0
M  V30 53 H 2.6232 -4.90631 -3.45024 0
M  V30 54 H 4.3022 -5.49924 -3.4087 0
M  V30 55 N 4.4343 0.785586 -1.36625 0
M  V30 56 C 5.6813 1.54362 -1.31067 0
M  V30 57 C 6.0093 1.94195 0.10893 0
M  V30 58 O 5.2643 1.63262 1.07908 0
M  V30 59 C 5.5633 2.83007 -2.1827 0
M  V30 60 C 5.2293 2.62294 -3.6676 0
M  V30 61 C 3.8913 2.56353 -4.0723 0
M  V30 62 C 6.2433 2.43371 -4.6089 0
M  V30 63 C 3.5713 2.29461 -5.39967 0
M  V30 64 C 5.9233 2.18005 -5.93849 0
M  V30 65 C 4.5873 2.105 -6.3344 0
M  V30 66 H 3.8573 0.564851 -0.479609 0
M  V30 67 H 6.5043 0.906028 -1.68711 0
M  V30 68 H 4.8093 3.51253 -1.73576 0
M  V30 69 H 6.5063 3.40817 -2.11292 0
M  V30 70 H 3.0963 2.67774 -3.34656 0
M  V30 71 H 7.2803 2.46959 -4.30494 0
M  V30 72 H 2.5363 2.22135 -5.69619 0
M  V30 73 H 6.7103 2.02359 -6.66351 0
M  V30 74 H 4.3373 1.89425 -7.36222 0
M  V30 75 N 5.9124 1.20967 1.01018 0
M  V30 76 C 7.1584 1.02526 1.74975 0
M  V30 77 C 7.4914 -0.4408 1.89131 0
M  V30 78 O 6.7664 -1.32718 1.42184 0
M  V30 79 C 7.0494 1.71699 3.1653 0
M  V30 80 C 6.9024 3.25791 3.10129 0
M  V30 81 C 8.2214 1.45531 4.15342 0
M  V30 82 H 5.3404 0.373863 0.635134 0
M  V30 83 H 7.9824 1.49071 1.17805 0
M  V30 84 H 6.1324 1.32128 3.65341 0
M  V30 85 H 7.8044 3.74697 2.69072 0
M  V30 86 H 6.0474 3.56363 2.47362 0
M  V30 87 H 6.7184 3.69353 4.10222 0
M  V30 88 H 9.1944 1.79872 3.75213 0
M  V30 89 H 8.0704 1.96453 5.1254 0
M  V30 90 H 8.3314 0.384237 4.40427 0
M  V30 91 N 7.3905 -1.2043 1.01659 0
M  V30 92 C 8.3375 -2.23215 0.586822 0
M  V30 93 C 9.3075 -1.61382 -0.393085 0
M  V30 94 O 10.4925 -1.88544 -0.292525 0
M  V30 95 C 7.6325 -3.45032 -0.0687464 0
M  V30 96 C 6.7455 -4.21296 0.955724 0
M  V30 97 C 5.8805 -5.30507 0.271208 0
M  V30 98 C 4.9195 -5.98515 1.28244 0
M  V30 99 N 4.0565 -6.99316 0.62459 0
M  V30 100 H 8.8965 -2.59336 1.46796 0
M  V30 101 H 6.4335 -1.27431 0.734836 0
M  V30 102 H 8.3915 -4.1459 -0.465965 0
M  V30 103 H 7.0215 -3.09604 -0.913529 0
M  V30 104 H 6.0735 -3.50803 1.4711 0
M  V30 105 H 7.3855 -4.6803 1.72479 0
M  V30 106 H 6.5395 -6.06428 -0.18151 0
M  V30 107 H 5.2785 -4.8481 -0.530163 0
M  V30 108 H 4.2835 -5.21355 1.74554 0
M  V30 109 H 5.5085 -6.46298 2.08509 0
M  V30 110 H 3.4545 -6.55812 -0.156914 0
M  V30 111 H 3.3715 -7.44178 1.33172 0
M  V30 112 H 4.6395 -7.79255 0.195462 0
M  V30 113 N 8.8686 -0.792821 -1.36206 0
M  V30 114 C 10.0966 -0.378825 -2.03402 0
M  V30 115 C 10.5116 1.00586 -1.59774 0
M  V30 116 O 9.8686 1.64574 -0.788764 0
M  V30 117 C 9.9196 -0.43683 -3.58851 0
M  V30 118 O 9.6406 -1.76691 -4.00889 0
M  V30 119 C 11.1416 -0.0138943 -4.43298 0
M  V30 120 H 8.3616 -0.155673 -0.652692 0
M  V30 121 H 10.9056 -1.07261 -1.74113 0
M  V30 122 H 9.0606 0.208575 -3.86838 0
M  V30 123 H 9.4746 -1.72011 -4.95492 0
M  V30 124 H 10.9486 -0.105615 -5.51899 0
M  V30 125 H 11.4256 1.03915 -4.2673 0
M  V30 126 H 12.0316 -0.63192 -4.20579 0
M  V30 127 N 10.3467 1.47872 -0.545128 0
M  V30 128 C 11.2767 2.32661 0.197793 0
M  V30 129 C 12.2577 1.43041 0.920504 0
M  V30 130 O 13.4427 1.71912 0.90333 0
M  V30 131 C 10.5727 3.24569 1.23582 0
M  V30 132 C 9.5267 4.23333 0.630323 0
M  V30 133 C 8.8527 5.0448 1.77211 0
M  V30 134 C 10.1527 5.20704 -0.407974 0
M  V30 135 H 11.8467 2.95024 -0.510045 0
M  V30 136 H 9.3927 1.4187 -0.246731 0
M  V30 137 H 11.3457 3.8272 1.76362 0
M  V30 138 H 10.0697 2.60236 1.97344 0
M  V30 139 H 8.7287 3.6639 0.123922 0
M  V30 140 H 8.3767 4.36561 2.49847 0
M  V30 141 H 8.0767 5.71339 1.37281 0
M  V30 142 H 9.6007 5.65487 2.3034 0
M  V30 143 H 11.0147 5.7329 0.033305 0
M  V30 144 H 9.4117 5.95699 -0.725486 0
M  V30 145 H 10.4817 4.66917 -1.30828 0
M  V30 146 N 11.8248 0.280983 1.55075 0
M  V30 147 C 13.0528 -0.337293 2.04132 0
M  V30 148 C 13.4678 -1.4903 1.15912 0
M  V30 149 O 12.8248 -1.81606 0.180459 0
M  V30 150 C 12.8758 -0.812706 3.52246 0
M  V30 151 O 12.5968 0.294387 4.3711 0
M  V30 152 C 14.0978 -1.4982 4.17216 0
M  V30 153 H 11.3178 -0.0761638 0.666663 0
M  V30 154 H 13.8618 0.414787 2.00249 0
M  V30 155 H 12.0168 -1.51486 3.56554 0
M  V30 156 H 12.4308 -0.0721325 5.2445 0
M  V30 157 H 13.9048 -1.7822 5.22438 0
M  V30 158 H 14.3818 -2.43168 3.65741 0
M  V30 159 H 14.9878 -0.839742 4.16927 0
M  V30 160 N 13.3029 -1.57598 0.00835791 0
M  V30 161 C 14.5509 -1.90551 -0.6734 0
M  V30 162 C 14.8719 -0.883301 -1.73847 0
M  V30 163 O 14.1419 0.0781442 -1.95744 0
M  V30 164 H 12.7219 -0.703312 -0.251717 0
M  V30 165 H 15.3839 -1.94833 0.0512592 0
M  V30 166 H 14.4799 -2.9056 -1.13935 0
M  V30 167 N 14.781 0.264519 -1.55364 0
M  V30 168 C 15.728 1.32717 -1.88825 0
M  V30 169 C 16.698 1.48675 -0.740605 0
M  V30 170 O 17.883 1.62945 -0.992657 0
M  V30 171 C 15.023 2.68089 -2.17307 0
M  V30 172 C 14.136 2.60284 -3.44785 0
M  V30 173 C 13.271 3.87892 -3.62924 0
M  V30 174 C 12.31 3.74631 -4.84064 0
M  V30 175 N 11.447 4.94092 -4.98816 0
M  V30 176 H 16.287 1.03481 -2.79456 0
M  V30 177 H 13.824 0.499757 -1.3835 0
M  V30 178 H 15.782 3.46864 -2.31821 0
M  V30 179 H 14.412 2.95509 -1.299 0
M  V30 180 H 13.464 1.73173 -3.38697 0
M  V30 181 H 14.776 2.46388 -4.33698 0
M  V30 182 H 13.93 4.75109 -3.77302 0
M  V30 183 H 12.669 4.04664 -2.7221 0
M  V30 184 H 11.674 2.85797 -4.69681 0
M  V30 185 H 12.899 3.5937 -5.76221 0
M  V30 186 H 10.845 5.11259 -4.11036 0
M  V30 187 H 10.762 4.8276 -5.81789 0
M  V30 188 H 12.03 5.82857 -5.17588 0
M  V30 189 N 16.2591 1.48442 0.529413 0
M  V30 190 C 17.4871 1.60151 1.30994 0
M  V30 191 C 17.9021 0.261985 1.86973 0
M  V30 192 O 17.2591 -0.748805 1.66431 0
M  V30 193 C 17.3101 2.64854 2.46038 0
M  V30 194 O 17.0311 3.93608 1.92365 0
M  V30 195 C 18.5321 2.87007 3.37849 0
M  V30 196 H 15.7521 0.539971 0.398338 0
M  V30 197 H 18.2961 1.94273 0.638597 0
M  V30 198 H 16.4511 2.33589 3.09055 0
M  V30 199 H 16.8651 4.51055 2.67675 0
M  V30 200 H 18.3391 3.64068 4.14919 0
M  V30 201 H 18.8161 1.95852 3.93114 0
M  V30 202 H 19.4221 3.19579 2.80623 0
M  V30 203 N 17.7372 -0.778329 1.37039 0
M  V30 204 C 18.9862 -1.53189 1.3121 0
M  V30 205 C 19.2992 -1.95328 -0.103095 0
M  V30 206 O 20.5052 -2.70012 -0.283826 0
M  V30 207 C 18.9612 -2.76591 2.30272 0
M  V30 208 C 18.5692 -2.41577 3.77286 0
M  V30 209 C 20.3132 -3.5455 2.33441 0
M  V30 210 C 18.2202 -3.61441 4.68096 0
M  V30 211 H 17.1502 -0.5751 0.487622 0
M  V30 212 H 19.8012 -0.853101 1.62464 0
M  V30 213 H 18.1832 -3.46326 1.92027 0
M  V30 214 H 19.3572 -1.79668 4.2433 0
M  V30 215 H 17.6722 -1.76806 3.76999 0
M  V30 216 H 20.2692 -4.43628 2.98493 0
M  V30 217 H 20.6122 -3.93936 1.34611 0
M  V30 218 H 21.1452 -2.91805 2.7036 0
M  V30 219 H 17.8842 -3.27142 5.6803 0
M  V30 220 H 17.4042 -4.22478 4.25761 0
M  V30 221 H 19.0832 -4.28335 4.8491 0
M  V30 222 N 19.2153 -1.21501 -1.00376 0
M  V30 223 C 20.4433 -1.059 -1.77744 0
M  V30 224 C 20.8583 0.391125 -1.84704 0
M  V30 225 O 20.2153 1.27133 -1.30933 0
M  V30 226 C 20.2663 -1.65111 -3.21591 0
M  V30 227 O 19.9873 -3.0445 -3.15027 0
M  V30 228 C 21.4883 -1.54637 -4.15454 0
M  V30 229 H 18.7083 -0.371825 -0.558558 0
M  V30 230 H 21.2523 -1.60865 -1.26264 0
M  V30 231 H 19.4073 -1.14235 -3.70175 0
M  V30 232 H 19.8213 -3.3278 -4.0541 0
M  V30 233 H 21.2953 -2.00808 -5.14179 0
M  V30 234 H 21.7723 -0.501022 -4.36333 0
M  V30 235 H 22.3783 -2.04767 -3.72761 0
M  V30 236 N 20.6934 1.19889 -1.02296 0
M  V30 237 C 21.6234 2.25141 -0.619174 0
M  V30 238 C 22.6044 1.66051 0.368915 0
M  V30 239 O 23.7894 1.92546 0.252941 0
M  V30 240 C 20.9194 3.4728 0.0368783 0
M  V30 241 C 19.8734 4.19005 -0.872865 0
M  V30 242 C 19.1994 5.34637 -0.0822402 0
M  V30 243 C 20.4994 4.74452 -2.18387 0
M  V30 244 H 22.1934 2.59171 -1.49903 0
M  V30 245 H 19.7394 1.24579 -0.722222 0
M  V30 246 H 21.6924 4.20098 0.330958 0
M  V30 247 H 20.4164 3.12433 0.95149 0
M  V30 248 H 19.0754 3.48061 -1.15105 0
M  V30 249 H 18.7234 4.96034 0.83422 0
M  V30 250 H 18.4234 5.83557 -0.688149 0
M  V30 251 H 19.9474 6.10255 0.205238 0
M  V30 252 H 21.3614 5.39055 -1.95172 0
M  V30 253 H 19.7584 5.33834 -2.74119 0
M  V30 254 H 20.8284 3.92844 -2.84257 0
M  V30 255 N 22.1715 0.800033 1.35784 0
M  V30 256 C 23.4485 0.30088 1.93272 0
M  V30 257 C 23.8285 -1.20857 1.73081 0
M  V30 258 O 23.1765 -2.00502 1.09596 0
M  V30 259 C 23.3865 0.70511 3.41803 0
M  V30 260 C 24.7345 0.690871 4.18942 0
M  V30 261 O 25.7585 0.646244 3.50289 0
M  V30 262 O 24.6175 0.74332 5.41421 0
M  V30 263 H 21.7115 0.0771605 0.823393 0
M  V30 264 H 24.2575 0.88329 1.449 0
M  V30 265 H 23.0295 1.74571 3.50201 0
M  V30 266 H 22.6525 0.0971541 3.97481 0
M  V30 267 N 23.6496 -1.47581 0.552962 0
M  V30 268 C 24.8956 -2.02782 0.0273648 0
M  V30 269 C 25.2286 -1.42687 -1.31734 0
M  V30 270 O 24.5036 -0.580897 -1.85623 0
M  V30 271 C 24.7866 -3.60031 -0.0702371 0
M  V30 272 C 24.6396 -4.30566 1.30126 0
M  V30 273 C 25.9586 -4.33028 -0.785771 0
M  V30 274 H 23.0776 -0.736912 0.0114185 0
M  V30 275 H 25.7196 -1.76056 0.714432 0
M  V30 276 H 23.8696 -3.82932 -0.655382 0
M  V30 277 H 25.5416 -4.19018 1.92929 0
M  V30 278 H 23.7846 -3.91086 1.87709 0
M  V30 279 H 24.4556 -5.39114 1.18573 0
M  V30 280 H 26.9316 -4.15095 -0.288982 0
M  V30 281 H 25.8076 -5.42695 -0.823013 0
M  V30 282 H 26.0686 -4.01945 -1.841 0
M  V30 283 N 25.1277 -0.289203 -1.54924 0
M  V30 284 C 26.0377 0.601863 -2.26748 0
M  V30 285 C 27.0537 1.15834 -1.2984 0
M  V30 286 O 28.2297 1.18564 -1.62802 0
M  V30 287 C 25.2947 1.76299 -2.98529 0
M  V30 288 C 24.3557 1.24178 -4.10948 0
M  V30 289 C 23.5887 2.34757 -4.79296 0
M  V30 290 O 23.8117 3.54411 -4.46933 0
M  V30 291 O 22.7457 2.02115 -5.66951 0
M  V30 292 H 26.5717 0.0195879 -3.03694 0
M  V30 293 H 24.1567 -0.0560868 -1.49295 0
M  V30 294 H 26.0387 2.43973 -3.43592 0
M  V30 295 H 24.7137 2.33209 -2.24488 0
M  V30 296 H 23.6207 0.531104 -3.70311 0
M  V30 297 H 24.9537 0.718252 -4.86931 0
M  V30 298 N 26.6058 1.57591 -0.0167156 0
M  V30 299 C 28.0168 1.79201 0.523834 0
M  V30 300 C 28.3678 0.925796 1.72984 0
M  V30 301 O 27.4928 0.132792 2.15992 0
M  V30 302 C 28.0878 3.25 0.957091 0
M  V30 303 C 26.6468 3.47648 1.44283 0
M  V30 304 C 25.7938 2.74374 0.401757 0
M  V30 305 H 28.7448 1.56831 -0.242816 0
M  V30 306 H 28.7658 3.34031 1.82219 0
M  V30 307 H 28.2778 3.88019 0.0791415 0
M  V30 308 H 26.3788 2.89866 2.34113 0
M  V30 309 H 26.4918 4.56352 1.45877 0
M  V30 310 H 24.8558 2.39485 0.867121 0
M  V30 311 H 25.6388 3.40102 -0.467513 0
M  V30 312 N 28.0839 -0.256276 1.55502 0
M  V30 313 C 29.3089 -1.00766 1.81276 0
M  V30 314 C 29.7339 -1.78524 0.59252 0
M  V30 315 O 29.0919 -1.75413 -0.45827 0
M  V30 316 C 29.1399 -1.92869 3.04687 0
M  V30 317 O 28.2439 -3.019 2.80945 0
M  V30 318 H 27.5849 -0.287224 0.598664 0
M  V30 319 H 30.1149 -0.280109 2.02674 0
M  V30 320 H 30.1249 -2.34511 3.33869 0
M  V30 321 H 28.7999 -1.35689 3.93143 0
M  V30 322 H 27.3769 -2.64454 2.62904 0
M  V30 323 N 29.562 -1.4872 -0.521534 0
M  V30 324 C 30.839 -1.4766 -1.2828 0
M  V30 325 C 31.219 -0.19292 -2.10217 0
M  V30 326 O 30.567 0.825193 -2.13079 0
M  V30 327 C 30.777 -2.74358 -2.15705 0
M  V30 328 C 32.125 -3.23028 -2.75569 0
M  V30 329 O 33.149 -2.75333 -2.25987 0
M  V30 330 O 32.008 -4.0604 -3.65778 0
M  V30 331 H 29.102 -0.590085 -0.579421 0
M  V30 332 H 31.648 -1.60963 -0.537492 0
M  V30 333 H 30.42 -3.59292 -1.54999 0
M  V30 334 H 30.043 -2.63816 -2.97467 0
M  V30 335 N 31.0401 0.771051 -1.3745 0
M  V30 336 C 32.2681 1.56015 -1.35893 0
M  V30 337 C 32.6831 1.88718 0.0555523 0
M  V30 338 O 32.0401 1.51502 1.01752 0
M  V30 339 C 32.0911 2.87001 -2.19801 0
M  V30 340 O 31.8121 2.557 -3.55738 0
M  V30 341 C 33.3131 3.81228 -2.26231 0
M  V30 342 H 30.5331 0.483317 -0.465453 0
M  V30 343 H 33.0771 0.955611 -1.80799 0
M  V30 344 H 31.2321 3.43877 -1.78402 0
M  V30 345 H 31.6461 3.39584 -3.99729 0
M  V30 346 H 33.1201 4.70139 -2.89263 0
M  V30 347 H 33.5971 4.20409 -1.27093 0
M  V30 348 H 34.2031 3.30281 -2.67945 0
M  V30 349 N 32.5182 1.22032 0.997298 0
M  V30 350 C 33.7672 1.03637 1.73038 0
M  V30 351 C 34.0802 -0.429475 1.90827 0
M  V30 352 O 35.2862 -0.732995 2.61418 0
M  V30 353 C 33.7422 1.80582 3.11317 0
M  V30 354 C 33.3502 3.31387 3.01474 0
M  V30 355 C 35.0942 1.70621 3.88701 0
M  V30 356 C 33.0012 4.00791 4.3488 0
M  V30 357 H 31.9312 0.384179 0.648785 0
M  V30 358 H 34.5822 1.4584 1.11368 0
M  V30 359 H 32.9642 1.31175 3.73643 0
M  V30 360 H 34.1382 3.88155 2.4834 0
M  V30 361 H 32.4532 3.41976 2.37575 0
M  V30 362 H 35.0502 2.19799 4.87434 0
M  V30 363 H 35.3932 0.665823 4.10941 0
M  V30 364 H 35.9262 2.17547 3.33044 0
M  V30 365 H 32.6652 5.05064 4.1784 0
M  V30 366 H 32.1852 3.48811 4.87945 0
M  V30 367 H 33.8642 4.06139 5.03647 0
M  V30 368 N 33.9963 -1.19345 1.0293 0
M  V30 369 C 34.9063 -2.26245 0.620515 0
M  V30 370 C 35.9223 -1.70486 -0.347928 0
M  V30 371 O 37.0983 -2.00347 -0.205704 0
M  V30 372 C 34.1633 -3.46693 -0.0218957 0
M  V30 373 C 33.2243 -4.17632 0.994102 0
M  V30 374 C 32.4573 -5.32329 0.382253 0
M  V30 375 O 32.6803 -5.64552 -0.814676 0
M  V30 376 O 31.6143 -5.91664 1.10531 0
M  V30 377 H 35.4403 -2.63453 1.51083 0
M  V30 378 H 33.0253 -1.26207 0.799513 0
M  V30 379 H 34.9073 -4.19683 -0.380072 0
M  V30 380 H 33.5823 -3.11333 -0.886209 0
M  V30 381 H 32.4893 -3.4676 1.40387 0
M  V30 382 H 33.8223 -4.56964 1.8288 0
M  V30 383 N 35.4744 -0.807222 -1.35358 0
M  V30 384 C 36.4224 -0.20614 -2.31685 0
M  V30 385 C 37.4164 0.644445 -1.56663 0
M  V30 386 O 38.6224 0.537538 -1.71786 0
M  V30 387 H 34.9974 -0.0479006 -0.750473 0
M  V30 388 H 36.9684 -1.03369 -2.79924 0
M  V30 389 C 35.7174 0.630212 -3.41941 0
M  V30 390 H 35.0404 -0.0149558 -3.99797 0
M  V30 391 H 36.4804 1.01716 -4.11619 0
M  V30 392 C 34.9394 1.79601 -2.85035 0
M  V30 393 O 35.4694 2.89351 -2.78637 0
M  V30 394 N 33.6754 1.60774 -2.42074 0
M  V30 395 H 33.2224 0.715009 -2.47478 0
M  V30 396 H 33.1804 2.38933 -2.04349 0
M  V30 397 N 36.9525 1.47285 -0.560781 0
M  V30 398 C 38.1985 2.02764 -0.0381184 0
M  V30 399 C 38.5315 1.43384 1.30976 0
M  V30 400 O 37.8065 0.590733 1.85312 0
M  V30 401 C 38.0895 3.60064 0.0511427 0
M  V30 402 C 37.9425 4.2987 -1.32408 0
M  V30 403 C 39.2615 4.33439 0.762795 0
M  V30 404 H 36.3805 0.736841 -0.0153264 0
M  V30 405 H 39.0225 1.75675 -0.723759 0
M  V30 406 H 37.1725 3.83274 0.635065 0
M  V30 407 H 38.8445 4.17989 -1.95148 0
M  V30 408 H 37.0875 3.90085 -1.8978 0
M  V30 409 H 37.7585 5.38478 -1.21431 0
M  V30 410 H 40.2345 4.15243 0.266965 0
M  V30 411 H 39.1105 5.43124 0.794221 0
M  V30 412 H 39.3715 4.02915 1.81966 0
M  V30 413 N 38.4306 0.297415 1.54768 0
M  V30 414 C 39.3776 -0.580276 2.23386 0
M  V30 415 C 40.3476 -1.13238 1.21517 0
M  V30 416 O 41.5326 -1.17757 1.50126 0
M  V30 417 C 38.6726 -1.74801 2.97555 0
M  V30 418 C 37.7856 -1.22764 4.1419 0
M  V30 419 C 36.9206 -2.35895 4.75949 0
M  V30 420 C 35.9596 -1.80974 5.84735 0
M  V30 421 N 35.0966 -2.87664 6.40464 0
M  V30 422 H 39.9366 0.0114833 2.97998 0
M  V30 423 H 37.4736 0.0174361 1.4709 0
M  V30 424 H 39.4316 -2.43475 3.38786 0
M  V30 425 H 38.0616 -2.31145 2.25326 0
M  V30 426 H 37.1136 -0.433271 3.77924 0
M  V30 427 H 38.4256 -0.785551 4.92575 0
M  V30 428 H 37.5796 -3.12523 5.20014 0
M  V30 429 H 36.3186 -2.83429 3.96887 0
M  V30 430 H 35.3236 -1.02834 5.40097 0
M  V30 431 H 36.5486 -1.34348 6.65678 0
M  V30 432 H 34.4946 -3.34538 5.64287 0
M  V30 433 H 34.4116 -2.4794 7.14186 0
M  V30 434 H 35.6796 -3.642 6.89187 0
M  V30 435 N 39.9087 -1.5758 0.0250728 0
M  V30 436 C 40.8717 -2.08896 -0.943139 0
M  V30 437 C 41.8717 -1.00321 -1.25668 0
M  V30 438 O 43.0617 -1.26495 -1.19769 0
M  V30 439 C 40.1937 -2.55143 -2.26086 0
M  V30 440 H 41.3867 -2.95723 -0.498775 0
M  V30 441 H 38.9397 -1.54703 -0.222888 0
M  V30 442 H 39.6747 -1.71633 -2.75159 0
M  V30 443 H 39.4597 -3.34461 -2.04641 0
M  V30 444 H 40.9497 -2.95083 -2.95492 0
M  V30 445 N 41.3868 0.248026 -1.55636 0
M  V30 446 C 42.3338 1.30707 -1.90222 0
M  V30 447 C 43.3038 1.47881 -0.756332 0
M  V30 448 O 44.4888 1.61883 -1.00988 0
M  V30 449 C 41.6288 2.65769 -2.20138 0
M  V30 450 C 40.7418 2.56612 -3.47526 0
M  V30 451 C 39.8768 3.8402 -3.67017 0
M  V30 452 C 38.9158 3.69476 -4.8801 0
M  V30 453 N 38.0528 4.88774 -5.04029 0
M  V30 454 H 42.8928 1.00512 -2.80538 0
M  V30 455 H 40.4298 0.485055 -1.38873 0
M  V30 456 H 42.3878 3.44386 -2.35487 0
M  V30 457 H 41.0178 2.94115 -1.33027 0
M  V30 458 H 40.0698 1.69571 -3.40514 0
M  V30 459 H 41.3818 2.41774 -4.36287 0
M  V30 460 H 40.5358 4.7108 -3.8232 0
M  V30 461 H 39.2748 4.01754 -2.76487 0
M  V30 462 H 38.2798 2.80799 -4.72686 0
M  V30 463 H 39.5048 3.53238 -5.8 0
M  V30 464 H 37.4508 5.0687 -4.16435 0
M  V30 465 H 37.3678 4.76562 -5.86877 0
M  V30 466 H 38.6358 5.77335 -5.23741 0
M  V30 467 N 42.8649 1.48995 0.513639 0
M  V30 468 C 44.1139 1.57093 1.2651 0
M  V30 469 C 44.4269 0.257091 1.93903 0
M  V30 470 O 45.6329 0.216478 2.70636 0
M  V30 471 C 44.0889 2.77118 2.29638 0
M  V30 472 C 43.6969 4.15209 1.68241 0
M  V30 473 C 45.4409 2.94538 3.05692 0
M  V30 474 C 43.3479 5.26474 2.69406 0
M  V30 475 H 42.2779 0.584876 0.475854 0
M  V30 476 H 44.9289 1.7536 0.540487 0
M  V30 477 H 43.3109 2.52319 3.05207 0
M  V30 478 H 44.4849 4.50094 0.987505 0
M  V30 479 H 42.7999 4.03042 1.04623 0
M  V30 480 H 45.3969 3.74832 3.8132 0
M  V30 481 H 45.7399 2.04614 3.62545 0
M  V30 482 H 46.2729 3.19316 2.37238 0
M  V30 483 H 43.0119 6.18417 2.17351 0
M  V30 484 H 42.5319 4.96058 3.37175 0
M  V30 485 H 44.2109 5.55277 3.32078 0
M  V30 486 N 44.343 -0.763751 1.37857 0
M  V30 487 C 45.275 -1.88664 1.30148 0
M  V30 488 C 46.288 -1.61365 0.215685 0
M  V30 489 O 47.477 -1.72134 0.472459 0
M  V30 490 C 44.577 -3.24075 0.991396 0
M  V30 491 C 43.75 -3.78958 2.18426 0
M  V30 492 C 42.809 -4.92862 1.8432 0
M  V30 493 O 41.835 -5.08027 2.56704 0
M  V30 494 N 43.037 -5.75071 0.792081 0
M  V30 495 H 45.802 -1.95791 2.26905 0
M  V30 496 H 43.363 -0.943226 1.31586 0
M  V30 497 H 45.355 -3.97804 0.743935 0
M  V30 498 H 43.925 -3.12399 0.112122 0
M  V30 499 H 43.145 -2.96913 2.59299 0
M  V30 500 H 44.433 -4.12357 2.98058 0
M  V30 501 H 43.831 -5.65375 0.191595 0
M  V30 502 H 42.388 -6.48991 0.60449 0
M  V30 503 N 45.8211 -1.22559 -0.990812 0
M  V30 504 C 47.0981 -0.959875 -1.70428 0
M  V30 505 C 47.4781 0.524455 -2.04481 0
M  V30 506 O 46.8261 1.49302 -1.72977 0
M  V30 507 C 47.0361 -1.85955 -2.95333 0
M  V30 508 C 48.3841 -2.11687 -3.68068 0
M  V30 509 O 49.4081 -1.8342 -3.05345 0
M  V30 510 O 48.2671 -2.59572 -4.80921 0
M  V30 511 H 45.3611 -0.361154 -0.743974 0
M  V30 512 H 47.9071 -1.33554 -1.04697 0
M  V30 513 H 46.6791 -2.86346 -2.66687 0
M  V30 514 H 46.3021 -1.4856 -3.68803 0
M  V30 515 N 47.2992 1.18797 -1.03562 0
M  V30 516 C 48.2462 2.22253 -0.622259 0
M  V30 517 C 49.2162 1.61987 0.36736 0
M  V30 518 O 50.4012 1.88986 0.262492 0
M  V30 519 C 47.5412 3.45097 0.0138462 0
M  V30 520 C 46.6542 4.19722 -1.02263 0
M  V30 521 C 45.7892 5.30009 -0.355573 0
M  V30 522 C 44.8282 5.96399 -1.37749 0
M  V30 523 N 43.9652 6.98234 -0.735766 0
M  V30 524 H 48.8052 2.56968 -1.50903 0
M  V30 525 H 46.3422 1.26245 -0.755017 0
M  V30 526 H 48.3002 4.15279 0.399948 0
M  V30 527 H 46.9302 3.11018 0.864158 0
M  V30 528 H 45.9822 3.48418 -1.52673 0
M  V30 529 H 47.2942 4.65227 -1.79903 0
M  V30 530 H 46.4482 6.0664 0.0850095 0
M  V30 531 H 45.1872 4.85592 0.452967 0
M  V30 532 H 44.1922 5.18512 -1.82826 0
M  V30 533 H 45.4172 6.42899 -2.18764 0
M  V30 534 H 43.3632 6.55979 0.0525597 0
M  V30 535 H 43.2802 7.41965 -1.44995 0
M  V30 536 H 44.5482 7.78845 -0.31941 0
M  V30 537 N 48.7773 0.814389 1.34928 0
M  V30 538 C 49.6873 0.231978 2.3345 0
M  V30 539 C 50.7033 -0.629139 1.62228 0
M  V30 540 O 51.8793 -0.539052 1.94052 0
M  V30 541 C 48.9443 -0.603482 3.41407 0
M  V30 542 C 48.0053 0.279037 4.28392 0
M  V30 543 C 47.2383 -0.516643 5.31193 0
M  V30 544 O 47.4613 -1.75068 5.4287 0
M  V30 545 O 46.3953 0.0965652 6.01823 0
M  V30 546 H 50.2213 1.04721 2.85074 0
M  V30 547 H 47.8063 0.576343 1.37836 0
M  V30 548 H 49.6883 -1.07908 4.0735 0
M  V30 549 H 48.3633 -1.39618 2.92042 0
M  V30 550 H 47.2703 0.801948 3.65403 0
M  V30 551 H 48.6033 1.03588 4.81176 0
M  V30 552 N 50.2554 -1.46986 0.568584 0
M  V30 553 C 51.5034 -2.02041 0.0487022 0
M  V30 554 C 51.8244 -1.44408 -1.31039 0
M  V30 555 O 51.0944 -0.623477 -1.85714 0
M  V30 556 H 49.6744 -0.746849 0.015014 0
M  V30 557 H 52.3364 -1.80257 0.741168 0
M  V30 558 H 51.4324 -3.12085 -0.0308961 0
M  V30 559 N 51.7335 -0.305618 -1.54608 0
M  V30 560 C 52.9825 0.303098 -1.9941 0
M  V30 561 C 53.2955 1.54648 -1.19764 0
M  V30 562 O 54.5015 2.23007 -1.54855 0
M  V30 563 C 52.9575 0.590588 -3.55021 0
M  V30 564 C 52.5655 -0.634719 -4.43481 0
M  V30 565 C 54.3095 1.16025 -4.08336 0
M  V30 566 C 52.2165 -0.320126 -5.90533 0
M  V30 567 H 51.1465 0.117031 -0.744862 0
M  V30 568 H 53.7975 -0.415045 -1.78745 0
M  V30 569 H 52.1795 1.36845 -3.71604 0
M  V30 570 H 53.3535 -1.41079 -4.38672 0
M  V30 571 H 51.6685 -1.12333 -4.00962 0
M  V30 572 H 54.2655 1.40994 -5.15776 0
M  V30 573 H 54.6085 2.10397 -3.5922 0
M  V30 574 H 55.1415 0.443985 -3.95315 0
M  V30 575 H 51.8805 -1.23254 -6.43808 0
M  V30 576 H 51.4005 0.418579 -5.98338 0
M  V30 577 H 53.0795 0.0766241 -6.46955 0
M  V30 578 N 53.2116 1.57565 -0.0334293 0
M  V30 579 C 54.6226 1.79746 0.504798 0
M  V30 580 C 54.9736 0.944091 1.71992 0
M  V30 581 O 54.0986 0.155694 2.15839 0
M  V30 582 C 54.6936 3.25997 0.922567 0
M  V30 583 C 53.2526 3.49159 1.40588 0
M  V30 584 C 52.3996 2.74785 0.372633 0
M  V30 585 H 55.3506 1.56565 -0.259436 0
M  V30 586 H 55.3716 3.35945 1.78666 0
M  V30 587 H 54.8836 3.88081 0.0379825 0
M  V30 588 H 52.9846 2.92332 2.31025 0
M  V30 589 H 53.0976 4.57873 1.41028 0
M  V30 590 H 51.4616 2.40391 0.841672 0
M  V30 591 H 52.2446 3.39587 -0.503559 0
M  V30 592 N 54.6897 -0.239769 1.55765 0
M  V30 593 C 56.1007 -0.808263 1.68297 0
M  V30 594 C 56.4517 -1.85736 0.632181 0
M  V30 595 O 55.5767 -2.15277 -0.220204 0
M  V30 596 C 56.1717 -1.47284 3.05111 0
M  V30 597 C 54.7307 -1.98895 3.19559 0
M  V30 598 C 53.8777 -0.842575 2.64189 0
M  V30 599 H 56.8287 -0.0154422 1.58692 0
M  V30 600 H 56.8497 -2.34111 2.99954 0
M  V30 601 H 56.3617 -0.709053 3.81568 0
M  V30 602 H 54.4627 -2.78132 2.47938 0
M  V30 603 H 54.5757 -2.18143 4.26556 0
M  V30 604 H 52.9397 -1.24501 2.22197 0
M  V30 605 H 53.7227 -0.0917552 3.43177 0
M  V30 606 N 56.1678 -1.49265 -0.50573 0
M  V30 607 C 57.4448 -1.49012 -1.26707 0
M  V30 608 C 57.8248 -0.215205 -2.1 0
M  V30 609 O 57.1728 0.802547 -2.13943 0
M  V30 610 C 57.3828 -2.7663 -2.12783 0
M  V30 611 C 58.7308 -3.25932 -2.72127 0
M  V30 612 O 59.7548 -2.77715 -2.23054 0
M  V30 613 O 58.6138 -4.09897 -3.61451 0
M  V30 614 H 55.7078 -0.596197 -0.57313 0
M  V30 615 H 58.2538 -1.61524 -0.52039 0
M  V30 616 H 57.0258 -3.60916 -1.5118 0
M  V30 617 H 56.6488 -2.66956 -2.94653 0
M  V30 618 N 57.6459 0.756429 -1.3826 0
M  V30 619 C 58.5779 1.87971 -1.31147 0
M  V30 620 C 59.5909 1.61248 -0.224239 0
M  V30 621 O 60.7799 1.71881 -0.481581 0
M  V30 622 C 57.8799 3.23545 -1.00857 0
M  V30 623 C 57.0529 3.77794 -2.20432 0
M  V30 624 C 56.1119 4.91877 -1.86931 0
M  V30 625 O 55.1379 5.06659 -2.59395 0
M  V30 626 N 56.3399 5.74643 -0.822568 0
M  V30 627 H 59.1049 1.94585 -2.2794 0
M  V30 628 H 56.6659 0.936234 -1.32084 0
M  V30 629 H 58.6579 3.97403 -0.765021 0
M  V30 630 H 57.2279 3.12335 -0.128687 0
M  V30 631 H 56.4479 2.95534 -2.6087 0
M  V30 632 H 57.7359 4.10771 -3.00241 0
M  V30 633 H 57.1339 5.65266 -0.221575 0
M  V30 634 H 55.6909 6.48661 -0.638899 0
M  V30 635 N 59.124 1.23083 0.984299 0
M  V30 636 C 60.056 0.96636 2.07832 0
M  V30 637 C 61.069 -0.0582135 1.62696 0
M  V30 638 O 62.258 0.176843 1.77622 0
M  V30 639 C 59.358 0.433397 3.36117 0
M  V30 640 C 58.531 1.51722 4.10243 0
M  V30 641 C 57.59 0.989821 5.16807 0
M  V30 642 O 56.616 1.67794 5.43906 0
M  V30 643 N 57.818 -0.184367 5.80207 0
M  V30 644 H 60.583 1.90824 2.31098 0
M  V30 645 H 58.144 1.13888 1.1507 0
M  V30 646 H 60.136 0.065699 4.04647 0
M  V30 647 H 58.706 -0.413806 3.09849 0
M  V30 648 H 57.926 2.05786 3.36223 0
M  V30 649 H 59.214 2.24619 4.56534 0
M  V30 650 H 58.612 -0.760062 5.60571 0
M  V30 651 H 57.169 -0.493366 6.4993 0
M  V30 652 N 60.6021 -1.18246 1.0419 0
M  V30 653 C 62.0181 -1.40269 0.761366 0
M  V30 654 C 62.2181 -1.90777 -0.648578 0
M  V30 655 O 61.2741 -2.0929 -1.41258 0
M  V30 656 C 62.5871 -2.40237 1.8085 0
M  V30 657 C 64.1351 -2.53961 1.82955 0
M  V30 658 C 64.6101 -3.57194 2.86664 0
M  V30 659 N 66.1011 -3.64702 2.85563 0
M  V30 660 C 66.8361 -4.44309 3.6246 0
M  V30 661 N 66.3321 -5.27514 4.49111 0
M  V30 662 N 68.1251 -4.39084 3.50944 0
M  V30 663 H 60.2761 -0.837882 1.95175 0
M  V30 664 H 62.5391 -0.430608 0.84456 0
M  V30 665 H 62.2451 -2.10176 2.81991 0
M  V30 666 H 62.1191 -3.39601 1.64168 0
M  V30 667 H 64.5061 -2.83338 0.824855 0
M  V30 668 H 64.5871 -1.54706 2.03715 0
M  V30 669 H 64.2311 -3.28558 3.87314 0
M  V30 670 H 64.1611 -4.5613 2.6316 0
M  V30 671 H 66.6521 -3.05289 2.22727 0
M  V30 672 H 66.9651 -5.85411 5.04493 0
M  V30 673 H 65.3101 -5.2693 4.53178 0
M  V30 674 H 68.5011 -3.7313 2.82651 0
M  V30 675 H 68.6741 -5.00883 4.11121 0
M  V30 676 N 62.0802 -0.821533 -1.34494 0
M  V30 677 C 63.0102 -0.257138 -2.3208 0
M  V30 678 C 63.9912 0.625645 -1.58176 0
M  V30 679 O 65.1762 0.552811 -1.86166 0
M  V30 680 C 62.3062 0.582958 -3.42372 0
M  V30 681 C 61.2602 -0.202571 -4.2752 0
M  V30 682 C 60.5862 0.760179 -5.29269 0
M  V30 683 C 61.8862 -1.40998 -5.02908 0
M  V30 684 H 63.5802 -1.07247 -2.79532 0
M  V30 685 H 61.1262 -0.517163 -1.34393 0
M  V30 686 H 63.0792 0.987972 -4.09655 0
M  V30 687 H 61.8032 1.43133 -2.93565 0
M  V30 688 H 60.4622 -0.588936 -3.61838 0
M  V30 689 H 60.1102 1.60447 -4.76724 0
M  V30 690 H 59.8102 0.238809 -5.87115 0
M  V30 691 H 61.3342 1.16308 -5.9942 0
M  V30 692 H 62.7482 -1.07905 -5.63054 0
M  V30 693 H 61.1452 -1.86689 -5.70322 0
M  V30 694 H 62.2152 -2.1889 -4.32684 0
M  V30 695 N 63.5583 1.46682 -0.576371 0
M  V30 696 C 64.8073 2.01619 -0.0572825 0
M  V30 697 C 65.1203 1.45417 1.30818 0
M  V30 698 O 66.3263 1.92133 1.91825 0
M  V30 699 C 64.7823 3.59863 -0.0518371 0
M  V30 700 C 64.3903 4.25059 -1.41523 0
M  V30 701 C 66.1343 4.2248 0.413639 0
M  V30 702 C 64.0413 5.75364 -1.36785 0
M  V30 703 H 62.9713 0.753794 -0.0176448 0
M  V30 704 H 65.6223 1.68481 -0.727076 0
M  V30 705 H 64.0043 3.90048 0.683994 0
M  V30 706 H 65.1783 4.06491 -2.17029 0
M  V30 707 H 63.4933 3.7451 -1.8202 0
M  V30 708 H 66.0903 5.3265 0.467779 0
M  V30 709 H 66.4333 3.90976 1.42982 0
M  V30 710 H 66.9663 3.96897 -0.267929 0
M  V30 711 H 63.7053 6.11518 -2.36063 0
M  V30 712 H 63.2253 5.96214 -0.654895 0
M  V30 713 H 64.9043 6.37955 -1.07805 0
M  V30 714 N 65.0364 0.313813 1.54444 0
M  V30 715 C 66.2834 -0.291675 2.00388 0
M  V30 716 C 66.6114 -1.52904 1.2021 0
M  V30 717 O 65.8664 -1.93833 0.269707 0
M  V30 718 C 66.1654 -0.680386 3.50864 0
M  V30 719 C 65.8314 0.456699 4.48581 0
M  V30 720 C 64.4934 0.768824 4.75018 0
M  V30 721 C 66.8454 1.22098 5.06697 0
M  V30 722 C 64.1734 1.84812 5.56831 0
M  V30 723 C 66.5254 2.29029 5.89685 0
M  V30 724 C 65.1894 2.60834 6.14428 0
M  V30 725 H 64.4594 -0.106732 0.733273 0
M  V30 726 H 67.1064 0.43557 1.86481 0
M  V30 727 H 65.4114 -1.48791 3.62448 0
M  V30 728 H 67.1084 -1.16026 3.83847 0
M  V30 729 H 63.6984 0.203337 4.28117 0
M  V30 730 H 67.8824 0.993096 4.86263 0
M  V30 731 H 63.1384 2.09912 5.74236 0
M  V30 732 H 67.3124 2.887 6.33739 0
M  V30 733 H 64.9394 3.44596 6.77612 0
M  V30 734 N 66.5145 -1.57545 0.0417849 0
M  V30 735 C 67.4775 -2.09885 -0.92093 0
M  V30 736 C 68.4775 -1.01648 -1.24596 0
M  V30 737 O 69.6675 -1.27759 -1.1842 0
M  V30 738 C 66.7995 -2.57527 -2.23367 0
M  V30 739 H 67.9925 -2.96236 -0.467382 0
M  V30 740 H 65.5455 -1.5493 -0.206467 0
M  V30 741 H 66.2805 -1.74542 -2.73323 0
M  V30 742 H 66.0655 -3.36613 -2.01083 0
M  V30 743 H 67.5555 -2.98201 -2.92346 0
M  V30 744 N 67.9926 0.231505 -1.5589 0
M  V30 745 C 69.2406 0.955461 -1.78088 0
M  V30 746 C 69.5616 1.85262 -0.608533 0
M  V30 747 O 68.8316 1.92277 0.375035 0
M  V30 748 H 67.4116 0.355787 -0.656829 0
M  V30 749 H 70.0736 0.245751 -1.93344 0
M  V30 750 H 69.1696 1.56814 -2.69844 0
M  V30 751 N 69.4707 1.49531 0.497807 0
M  V30 752 C 70.4177 1.66436 1.59899 0
M  V30 753 C 71.3877 0.505793 1.58212 0
M  V30 754 O 72.5727 0.733202 1.7615 0
M  V30 755 C 69.7127 1.7399 2.98029 0
M  V30 756 C 68.8257 3.01172 3.09708 0
M  V30 757 C 67.9607 2.99686 4.38591 0
M  V30 758 C 66.9997 4.21434 4.43914 0
M  V30 759 N 66.1367 4.1784 5.64229 0
M  V30 760 H 70.9767 2.60459 1.44793 0
M  V30 761 H 68.5137 1.29137 0.704423 0
M  V30 762 H 70.4717 1.76352 3.78095 0
M  V30 763 H 69.1017 0.834301 3.11832 0
M  V30 764 H 68.1537 3.08408 2.22685 0
M  V30 765 H 69.4657 3.91165 3.09502 0
M  V30 766 H 68.6197 3.00628 5.2698 0
M  V30 767 H 67.3587 2.07477 4.41367 0
M  V30 768 H 66.3637 4.20733 3.53926 0
M  V30 769 H 67.5887 5.14839 4.42851 0
M  V30 770 H 65.5347 3.28469 5.67841 0
M  V30 771 H 65.4517 5.01571 5.65652 0
M  V30 772 H 66.7197 4.22889 6.54817 0
M  V30 773 N 70.9488 -0.749086 1.3866 0
M  V30 774 C 71.8808 -1.87273 1.32142 0
M  V30 775 C 72.8938 -1.61127 0.232787 0
M  V30 776 O 74.0828 -1.71623 0.49069 0
M  V30 777 C 71.1828 -3.23005 1.02571 0
M  V30 778 C 70.3558 -3.7662 2.22433 0
M  V30 779 C 69.4148 -4.90879 1.89537 0
M  V30 780 O 68.4408 -5.05276 2.62078 0
M  V30 781 N 69.6428 -5.74198 0.853031 0
M  V30 782 H 72.4078 -1.93373 2.28969 0
M  V30 783 H 69.9688 -0.929216 1.32579 0
M  V30 784 H 71.9608 -3.96992 0.786085 0
M  V30 785 H 70.5308 -3.12262 0.145249 0
M  V30 786 H 69.7508 -2.94147 2.62434 0
M  V30 787 H 71.0388 -4.09173 3.02415 0
M  V30 788 H 70.4368 -5.6514 0.25155 0
M  V30 789 H 68.9938 -6.48313 0.67329 0
M  V30 790 N 72.4269 -1.23603 -0.977757 0
M  V30 791 C 73.3569 -1.04401 -2.0886 0
M  V30 792 C 74.3379 0.0399052 -1.70053 0
M  V30 793 O 75.5229 -0.125246 -1.93796 0
M  V30 794 C 72.6529 -0.637269 -3.41403 0
M  V30 795 C 71.6069 -1.66883 -3.94124 0
M  V30 796 C 70.9329 -1.11745 -5.22893 0
M  V30 797 C 72.2329 -3.06247 -4.23096 0
M  V30 798 H 73.9269 -1.97316 -2.25182 0
M  V30 799 H 71.4729 -0.950096 -1.08209 0
M  V30 800 H 73.4259 -0.48998 -4.18542 0
M  V30 801 H 72.1499 0.327557 -3.24953 0
M  V30 802 H 70.8089 -1.80416 -3.19133 0
M  V30 803 H 70.4569 -0.143527 -5.02795 0
M  V30 804 H 70.1569 -1.80672 -5.59134 0
M  V30 805 H 71.6809 -0.982067 -6.02651 0
M  V30 806 H 73.0949 -2.96001 -4.90975 0
M  V30 807 H 71.4919 -3.72436 -4.70544 0
M  V30 808 H 72.5619 -3.55041 -3.30263 0
M  V30 809 N 73.905 1.17692 -1.04816 0
M  V30 810 C 74.815 2.25229 -0.65643 0
M  V30 811 C 75.831 1.71018 0.320761 0
M  V30 812 O 77.007 2.00649 0.173805 0
M  V30 813 C 74.072 3.46684 -0.0332629 0
M  V30 814 C 73.133 4.15997 -1.06042 0
M  V30 815 C 72.366 5.31654 -0.466893 0
M  V30 816 O 72.589 5.65777 0.724758 0
M  V30 817 O 71.523 5.89831 -1.1993 0
M  V30 818 H 75.349 2.61016 -1.55255 0
M  V30 819 H 72.934 1.24919 -0.81949 0
M  V30 820 H 74.816 4.20234 0.313256 0
M  V30 821 H 73.491 3.12703 0.836566 0
M  V30 822 H 72.398 3.44482 -1.45886 0
M  V30 823 H 73.731 4.53996 -1.90127 0
M  V30 824 N 75.3831 0.828654 1.34056 0
M  V30 825 C 76.6601 0.341809 1.9259 0
M  V30 826 C 77.0401 -1.17158 1.75605 0
M  V30 827 O 76.3881 -1.98132 1.13824 0
M  V30 828 C 76.5981 0.777453 3.4023 0
M  V30 829 C 77.9461 0.779579 4.17382 0
M  V30 830 O 78.9701 0.7204 3.48839 0
M  V30 831 O 77.8291 0.857996 5.39723 0
M  V30 832 H 74.9231 0.0946085 0.821571 0
M  V30 833 H 77.4691 0.913827 1.42994 0
M  V30 834 H 76.2411 1.8196 3.46419 0
M  V30 835 H 75.8641 0.181444 3.97186 0
M  V30 836 N 76.8612 -1.46375 0.584142 0
M  V30 837 C 78.1092 -2.01978 0.0701287 0
M  V30 838 C 78.4302 -1.4579 -1.295 0
M  V30 839 O 77.7002 -0.64314 -1.85042 0
M  V30 840 H 76.2802 -0.746648 0.0229345 0
M  V30 841 H 78.9422 -1.79461 0.760245 0
M  V30 842 H 78.0382 -3.121 0.0022064 0
M  V30 843 N 78.3393 -0.321999 -1.54275 0
M  V30 844 C 79.7553 0.0306999 -1.5957 0
M  V30 845 C 79.9553 1.50614 -1.33857 0
M  V30 846 O 79.0113 2.2619 -1.12223 0
M  V30 847 C 80.3243 -0.386122 -2.98211 0
M  V30 848 C 81.8723 -0.336647 -3.11184 0
M  V30 849 C 82.3473 -0.728607 -4.52167 0
M  V30 850 N 83.8383 -0.681952 -4.58152 0
M  V30 851 C 84.5733 -0.957449 -5.6535 0
M  V30 852 N 84.0693 -1.3 -6.80494 0
M  V30 853 N 85.8623 -0.883113 -5.55119 0
M  V30 854 H 78.0133 -1.28332 -1.69247 0
M  V30 855 H 80.2763 -0.521716 -0.791528 0
M  V30 856 H 79.9823 -1.41404 -3.22022 0
M  V30 857 H 79.8563 0.249662 -3.76373 0
M  V30 858 H 82.2433 0.682058 -2.8711 0
M  V30 859 H 82.3243 -1.00734 -2.3513 0
M  V30 860 H 81.9683 -1.74522 -4.76974 0
M  V30 861 H 81.8983 -0.0356152 -5.26588 0
M  V30 862 H 84.3893 -0.428985 -3.75457 0
M  V30 863 H 84.7023 -1.49563 -7.58189 0
M  V30 864 H 83.0473 -1.33824 -6.81994 0
M  V30 865 H 86.2383 -0.615001 -4.64042 0
M  V30 866 H 86.4113 -1.10118 -6.38575 0
M  V30 867 N 79.8174 1.5752 -0.0501392 0
M  V30 868 C 81.0454 1.96963 0.633492 0
M  V30 869 C 81.4604 0.927631 1.6444 0
M  V30 870 O 80.8174 -0.0882665 1.82286 0
M  V30 871 C 80.8684 3.36487 1.32132 0
M  V30 872 O 80.5894 4.36693 0.350894 0
M  V30 873 C 82.0904 3.90682 2.09481 0
M  V30 874 H 79.3104 0.648244 0.173266 0
M  V30 875 H 81.8544 2.0417 -0.116134 0
M  V30 876 H 80.0094 3.30434 2.02218 0
M  V30 877 H 80.4234 5.17702 0.841735 0
M  V30 878 H 81.8974 4.90591 2.5303 0
M  V30 879 H 82.3744 3.26053 2.94255 0
M  V30 880 H 82.9804 4.00069 1.44307 0
M  V30 881 N 81.2955 -0.223234 1.56011 0
M  V30 882 C 82.2255 -1.27988 1.95298 0
M  V30 883 C 83.2065 -1.48976 0.820979 0
M  V30 884 O 84.3915 -1.61188 1.08315 0
M  V30 885 C 81.5215 -2.63 2.26822 0
M  V30 886 C 80.4755 -2.56671 3.42497 0
M  V30 887 C 79.8015 -3.95697 3.59622 0
M  V30 888 C 81.1015 -2.11601 4.77517 0
M  V30 889 H 82.7955 -0.953525 2.8381 0
M  V30 890 H 80.3415 -0.457244 1.36548 0
M  V30 891 H 82.2945 -3.37077 2.52898 0
M  V30 892 H 81.0185 -2.9732 1.35161 0
M  V30 893 H 79.6775 -1.85051 3.16467 0
M  V30 894 H 79.3255 -4.27322 2.6534 0
M  V30 895 H 79.0255 -3.92345 4.37424 0
M  V30 896 H 80.5495 -4.71438 3.88044 0
M  V30 897 H 81.9635 -2.7542 5.02809 0
M  V30 898 H 80.3605 -2.19311 5.5859 0
M  V30 899 H 81.4305 -1.06824 4.72987 0
M  V30 900 N 82.7736 -1.49793 -0.48987 0
M  V30 901 C 83.9986 -1.63836 -1.27172 0
M  V30 902 C 84.4236 -0.31402 -1.8546 0
M  V30 903 O 83.7816 0.719803 -1.66399 0
M  V30 904 C 83.8296 -2.71797 -2.36978 0
M  V30 905 O 82.9336 -2.31744 -3.41128 0
M  V30 906 H 82.2746 -0.547997 -0.37496 0
M  V30 907 H 84.8046 -1.96053 -0.585191 0
M  V30 908 H 84.8146 -2.94305 -2.82575 0
M  V30 909 H 83.4896 -3.67923 -1.93921 0
M  V30 910 H 82.0666 -2.1961 -3.01373 0
M  V30 911 N 84.2517 0.741722 -1.39055 0
M  V30 912 C 85.5287 1.49252 -1.26425 0
M  V30 913 C 85.9087 2.10705 0.129144 0
M  V30 914 O 85.2567 1.98045 1.13976 0
M  V30 915 C 85.4667 2.54934 -2.38347 0
M  V30 916 C 86.8147 3.21506 -2.77343 0
M  V30 917 O 87.8387 2.65245 -2.37747 0
M  V30 918 O 86.6977 4.23294 -3.45665 0
M  V30 919 H 83.7917 0.662451 -0.495064 0
M  V30 920 H 86.3377 0.776121 -1.50912 0
M  V30 921 H 85.1097 2.07857 -3.31529 0
M  V30 922 H 84.7327 3.34141 -2.15489 0
M  V30 923 N 85.7298 1.2412 0.971189 0
M  V30 924 C 86.9598 1.10415 1.7462 0
M  V30 925 C 87.3678 -0.346462 1.86001 0
M  V30 926 O 86.7108 -1.25104 1.34517 0
M  V30 927 C 86.7728 1.66596 3.18568 0
M  V30 928 C 86.4368 3.15446 3.3067 0
M  V30 929 C 87.4338 4.12636 3.16271 0
M  V30 930 C 85.1188 3.55337 3.55022 0
M  V30 931 C 87.1128 5.47699 3.26044 0
M  V30 932 C 84.7998 4.90542 3.64434 0
M  V30 933 C 85.7978 5.86532 3.49956 0
M  V30 934 O 85.4858 7.19279 3.59017 0
M  V30 935 H 85.2178 0.386616 0.55453 0
M  V30 936 H 87.7718 1.64633 1.22821 0
M  V30 937 H 86.0018 1.06808 3.71657 0
M  V30 938 H 87.6908 1.48232 3.77865 0
M  V30 939 H 88.4568 3.8316 2.97344 0
M  V30 940 H 84.3358 2.8113 3.65359 0
M  V30 941 H 87.8798 6.22603 3.14661 0
M  V30 942 H 83.7768 5.19691 3.82873 0
M  V30 943 H 84.5448 7.27153 3.75754 0
M  V30 944 N 87.2079 -1.17134 1.05439 0
M  V30 945 C 88.1559 -2.23289 0.651511 0
M  V30 946 C 89.1499 -1.66186 -0.328411 0
M  V30 947 O 90.3559 -1.78949 -0.194206 0
M  V30 948 H 86.7309 -0.726938 0.192523 0
M  V30 949 H 88.7019 -2.54565 1.55689 0
M  V30 950 C 87.4509 -3.47671 0.0448436 0
M  V30 951 H 86.7739 -3.91918 0.78996 0
M  V30 952 H 88.2139 -4.2353 -0.19964 0
M  V30 953 C 86.6729 -3.14453 -1.20918 0
M  V30 954 O 87.2029 -3.29459 -2.29825 0
M  V30 955 N 85.4089 -2.68657 -1.10779 0
M  V30 956 H 84.9559 -2.56646 -0.221526 0
M  V30 957 H 84.9139 -2.46804 -1.9477 0
M  V30 958 N 88.686 -0.835752 -1.33615 0
M  V30 959 C 89.935 -0.426289 -1.97144 0
M  V30 960 C 90.248 1.01912 -1.66953 0
M  V30 961 O 91.454 1.53311 -2.24072 0
M  V30 962 C 89.91 -0.711321 -3.52801 0
M  V30 963 C 89.518 -2.1712 -3.91871 0
M  V30 964 C 91.262 -0.368654 -4.22896 0
M  V30 965 C 89.169 -2.40044 -5.40493 0
M  V30 966 H 88.099 -0.15567 -0.737755 0
M  V30 967 H 90.75 -1.0239 -1.52278 0
M  V30 968 H 89.132 -0.0433766 -3.95976 0
M  V30 969 H 90.306 -2.87936 -3.59763 0
M  V30 970 H 88.621 -2.47654 -3.34749 0
M  V30 971 H 91.218 -0.517601 -5.32189 0
M  V30 972 H 91.561 0.688078 -4.10574 0
M  V30 973 H 92.094 -0.991702 -3.8524 0
M  V30 974 H 88.833 -3.44271 -5.57815 0
M  V30 975 H 88.353 -1.73785 -5.74072 0
M  V30 976 H 90.032 -2.23042 -6.0734 0
M  V30 977 N 90.1641 1.46063 -0.591896 0
M  V30 978 C 91.0961 2.28539 0.174001 0
M  V30 979 C 92.1091 1.39047 0.846753 0
M  V30 980 O 93.2981 1.63564 0.714774 0
M  V30 981 C 90.3981 3.14347 1.26645 0
M  V30 982 C 89.5711 4.32021 0.683856 0
M  V30 983 C 88.6301 4.99157 1.66518 0
M  V30 984 O 87.6561 5.56458 1.19763 0
M  V30 985 N 88.8581 4.97005 2.99943 0
M  V30 986 H 91.6231 2.94911 -0.533633 0
M  V30 987 H 89.1841 1.56077 -0.430294 0
M  V30 988 H 91.1761 3.56125 1.92242 0
M  V30 989 H 89.7461 2.49988 1.87682 0
M  V30 990 H 88.9661 3.93915 -0.1498 0
M  V30 991 H 90.2541 5.08059 0.274567 0
M  V30 992 H 89.6521 4.51714 3.40545 0
M  V30 993 H 88.2091 5.42696 3.61004 0
M  V30 994 N 91.6422 0.330177 1.54103 0
M  V30 995 C 92.5892 -0.532762 2.24567 0
M  V30 996 C 93.5592 -1.10635 1.23892 0
M  V30 997 O 94.7442 -1.14546 1.5259 0
M  V30 998 C 91.8842 -1.6845 3.01195 0
M  V30 999 C 90.9972 -1.13951 4.167 0
M  V30 1000 C 90.1322 -2.25746 4.80845 0
M  V30 1001 C 89.1712 -1.6853 5.88442 0
M  V30 1002 N 88.3082 -2.74014 6.46421 0
M  V30 1003 H 93.1482 0.0746905 2.97906 0
M  V30 1004 H 90.6852 0.048632 1.4702 0
M  V30 1005 H 92.6432 -2.36234 3.43874 0
M  V30 1006 H 91.2732 -2.26314 2.30178 0
M  V30 1007 H 90.3252 -0.35301 3.78758 0
M  V30 1008 H 91.6372 -0.680892 4.94131 0
M  V30 1009 H 90.7912 -3.01422 5.26526 0
M  V30 1010 H 89.5302 -2.74947 4.0281 0
M  V30 1011 H 88.5352 -0.913543 5.42157 0
M  V30 1012 H 89.7602 -1.20198 6.68378 0
M  V30 1013 H 87.7062 -3.22494 5.71256 0
M  V30 1014 H 87.6232 -2.32735 7.19285 0
M  V30 1015 H 88.8912 -3.49499 6.96757 0
M  V30 1016 N 93.1203 -1.57491 0.0584922 0
M  V30 1017 C 94.0303 -2.15448 -0.928414 0
M  V30 1018 C 95.0463 -1.11416 -1.3365 0
M  V30 1019 O 96.2223 -1.4362 -1.41193 0
M  V30 1020 C 93.2873 -2.69393 -2.18239 0
M  V30 1021 C 92.3483 -3.88249 -1.83196 0
M  V30 1022 C 91.5813 -4.39613 -3.02616 0
M  V30 1023 O 91.8043 -3.90023 -4.16219 0
M  V30 1024 O 90.7383 -5.31111 -2.83204 0
M  V30 1025 H 94.5643 -3.00112 -0.465483 0
M  V30 1026 H 92.1493 -1.48499 -0.163826 0
M  V30 1027 H 94.0313 -3.04026 -2.91798 0
M  V30 1028 H 92.7063 -1.87796 -2.63656 0
M  V30 1029 H 91.6133 -3.58492 -1.06931 0
M  V30 1030 H 92.9463 -4.71098 -1.42573 0
M  V30 1031 N 94.5984 0.214957 -1.56127 0
M  V30 1032 C 95.8234 0.95924 -1.83884 0
M  V30 1033 C 96.2484 1.7689 -0.639644 0
M  V30 1034 O 95.6064 1.76566 0.411601 0
M  V30 1035 C 95.6544 1.84723 -3.09693 0
M  V30 1036 O 94.7584 2.94346 -2.8885 0
M  V30 1037 H 94.0994 0.27125 -0.606069 0
M  V30 1038 H 96.6294 0.226276 -2.03345 0
M  V30 1039 H 96.6394 2.25576 -3.39969 0
M  V30 1040 H 95.3144 1.25218 -3.96602 0
M  V30 1041 H 93.8914 2.57391 -2.69823 0
M  V30 1042 N 96.0765 1.50051 0.48192 0
M  V30 1043 C 97.3045 1.64237 1.25832 0
M  V30 1044 C 97.7195 0.321336 1.86045 0
M  V30 1045 O 97.0765 -0.695478 1.68729 0
M  V30 1046 C 97.1275 2.72548 2.37487 0
M  V30 1047 O 96.8485 3.99529 1.79745 0
M  V30 1048 C 98.3495 2.9761 3.28547 0
M  V30 1049 H 95.5695 0.55237 0.380957 0
M  V30 1050 H 98.1135 1.96207 0.576467 0
M  V30 1051 H 96.2685 2.43303 3.01467 0
M  V30 1052 H 96.6825 4.59342 2.5319 0
M  V30 1053 H 98.1565 3.77084 4.03127 0
M  V30 1054 H 98.6335 2.0826 3.86684 0
M  V30 1055 H 99.2395 3.28345 2.70314 0
M  V30 1056 N 97.5546 -0.734337 1.39446 0
M  V30 1057 C 98.4846 -1.86155 1.40955 0
M  V30 1058 C 99.4656 -1.67898 0.272827 0
M  V30 1059 O 100.651 -1.88207 0.478743 0
M  V30 1060 C 97.7806 -3.23912 1.25294 0
M  V30 1061 C 96.7346 -3.56808 2.36373 0
M  V30 1062 C 96.0606 -4.93508 2.058 0
M  V30 1063 C 97.3606 -3.59713 3.78687 0
M  V30 1064 H 99.0546 -1.8515 2.35287 0
M  V30 1065 H 96.6006 -0.889367 1.13253 0
M  V30 1066 H 98.5536 -4.02443 1.2497 0
M  V30 1067 H 97.2776 -3.25446 0.274308 0
M  V30 1068 H 95.9366 -2.80606 2.35914 0
M  V30 1069 H 95.5846 -4.91623 1.06374 0
M  V30 1070 H 95.2846 -5.16486 2.80208 0
M  V30 1071 H 96.8086 -5.74396 2.07128 0
M  V30 1072 H 98.2226 -4.2832 3.81071 0
M  V30 1073 H 96.6196 -3.94209 4.52459 0
M  V30 1074 H 97.6896 -2.59504 4.09617 0
M  V30 1075 N 99.0327 -1.24633 -0.964593 0
M  V30 1076 C 99.9827 -1.00841 -2.04487 0
M  V30 1077 C 100.967 0.0512468 -1.60818 0
M  V30 1078 O 102.159 -0.162865 -1.76249 0
M  V30 1079 C 99.2877 -0.618474 -3.37683 0
M  V30 1080 C 98.3737 -1.71437 -3.87905 0
M  V30 1081 N 98.7647 -2.9477 -4.11029 0
M  V30 1082 C 97.0627 -1.5926 -4.16596 0
M  V30 1083 C 97.7637 -3.65834 -4.52261 0
M  V30 1084 N 96.7397 -2.9341 -4.57615 0
M  V30 1085 H 100.542 -1.94487 -2.20345 0
M  V30 1086 H 98.0557 -1.14805 -1.14863 0
M  V30 1087 H 100.053 -0.429247 -4.14684 0
M  V30 1088 H 98.7127 0.310766 -3.23209 0
M  V30 1089 H 99.7237 -3.30917 -3.9839 0
M  V30 1090 H 96.4007 -0.731606 -4.1104 0
M  V30 1091 H 97.7907 -4.71646 -4.78539 0
M  V30 1092 N 100.511 1.16574 -1.06058 0
M  V30 1093 C 101.441 2.23057 -0.690488 0
M  V30 1094 C 102.422 1.67141 0.315901 0
M  V30 1095 O 103.607 1.93253 0.191556 0
M  V30 1096 C 100.737 3.47222 -0.073625 0
M  V30 1097 C 99.6908 4.16016 -1.00573 0
M  V30 1098 C 99.0168 5.34104 -0.252289 0
M  V30 1099 C 100.317 4.67264 -2.33371 0
M  V30 1100 H 102.011 2.54271 -1.58072 0
M  V30 1101 H 99.5568 1.22218 -0.76149 0
M  V30 1102 H 101.51 4.20939 0.19714 0
M  V30 1103 H 100.234 3.15302 0.85161 0
M  V30 1104 H 98.8928 3.44223 -1.2612 0
M  V30 1105 H 98.5408 4.98437 0.675988 0
M  V30 1106 H 98.2408 5.81072 -0.873455 0
M  V30 1107 H 99.7648 6.10599 0.0109857 0
M  V30 1108 H 101.179 5.32573 -2.12223 0
M  V30 1109 H 99.5758 5.24843 -2.90963 0
M  V30 1110 H 100.646 3.83602 -2.96611 0
M  V30 1111 N 101.989 0.842826 1.3317 0
M  V30 1112 C 103.235 0.441099 1.97945 0
M  V30 1113 C 103.568 -0.998024 1.66593 0
M  V30 1114 O 102.843 -1.69839 0.947898 0
M  V30 1115 C 103.126 0.666841 3.53872 0
M  V30 1116 C 102.979 2.15352 3.94897 0
M  V30 1117 C 104.298 0.115544 4.39948 0
M  V30 1118 H 101.417 0.161739 0.719034 0
M  V30 1119 H 104.059 1.05907 1.57746 0
M  V30 1120 H 102.209 0.140828 3.88245 0
M  V30 1121 H 103.881 2.7447 3.70761 0
M  V30 1122 H 102.124 2.63653 3.44484 0
M  V30 1123 H 102.795 2.26221 5.03516 0
M  V30 1124 H 105.271 0.565213 4.12243 0
M  V30 1125 H 104.147 0.303152 5.48062 0
M  V30 1126 H 104.408 -0.980935 4.3108 0
M  V30 1127 N 103.467 -1.45747 0.599634 0
M  V30 1128 C 104.397 -2.33235 -0.111306 0
M  V30 1129 C 105.378 -1.46359 -0.866781 0
M  V30 1130 O 106.563 -1.75146 -0.838904 0
M  V30 1131 C 103.693 -3.28932 -1.11451 0
M  V30 1132 C 102.647 -4.25381 -0.472772 0
M  V30 1133 C 101.973 -5.1071 -1.58365 0
M  V30 1134 C 103.273 -5.18831 0.600948 0
M  V30 1135 H 104.967 -2.92927 0.61919 0
M  V30 1136 H 102.513 -1.40857 0.299215 0
M  V30 1137 H 104.466 -3.89002 -1.62036 0
M  V30 1138 H 103.19 -2.67381 -1.8755 0
M  V30 1139 H 101.849 -3.66598 0.0121472 0
M  V30 1140 H 101.497 -4.45533 -2.33473 0
M  V30 1141 H 101.197 -5.7604 -1.15982 0
M  V30 1142 H 102.721 -5.73647 -2.09194 0
M  V30 1143 H 104.135 -5.73019 0.179491 0
M  V30 1144 H 102.532 -5.92595 0.946076 0
M  V30 1145 H 103.602 -4.6174 1.48068 0
M  V30 1146 N 104.945 -0.338344 -1.53925 0
M  V30 1147 C 106.361 0.0137736 -1.59594 0
M  V30 1148 C 106.561 1.49186 -1.35447 0
M  V30 1149 O 105.617 2.24987 -1.14616 0
M  V30 1150 C 106.93 -0.41773 -2.97784 0
M  V30 1151 C 108.478 -0.369633 -3.1081 0
M  V30 1152 C 108.953 -0.776524 -4.51369 0
M  V30 1153 N 110.444 -0.730506 -4.57403 0
M  V30 1154 C 111.179 -1.01736 -5.64303 0
M  V30 1155 N 110.675 -1.3721 -6.79077 0
M  V30 1156 N 112.468 -0.941942 -5.54151 0
M  V30 1157 H 104.619 -1.3012 -1.67876 0
M  V30 1158 H 106.882 -0.530082 -0.78595 0
M  V30 1159 H 106.588 -1.44811 -3.20504 0
M  V30 1160 H 106.462 0.209729 -3.76616 0
M  V30 1161 H 108.849 0.651568 -2.87817 0
M  V30 1162 H 108.93 -1.03223 -2.34049 0
M  V30 1163 H 108.574 -1.79571 -4.75096 0
M  V30 1164 H 108.504 -0.0914649 -5.26521 0
M  V30 1165 H 110.995 -0.468783 -3.74981 0
M  V30 1166 H 111.308 -1.57597 -7.5656 0
M  V30 1167 H 109.653 -1.4105 -6.80536 0
M  V30 1168 H 112.844 -0.664184 -4.63364 0
M  V30 1169 H 113.017 -1.16884 -6.37371 0
M  V30 1170 N 106.423 1.57458 -0.0668435 0
M  V30 1171 C 107.353 2.15468 0.899764 0
M  V30 1172 C 108.334 1.08042 1.31381 0
M  V30 1173 O 109.519 1.36054 1.38574 0
M  V30 1174 C 106.649 2.71232 2.16911 0
M  V30 1175 C 105.603 3.83781 1.89463 0
M  V30 1176 C 104.929 4.26127 3.22986 0
M  V30 1177 C 106.229 5.08238 1.20381 0
M  V30 1178 H 107.923 2.96488 0.416529 0
M  V30 1179 H 105.469 1.4262 0.198908 0
M  V30 1180 H 107.422 3.10458 2.84945 0
M  V30 1181 H 106.146 1.87426 2.67468 0
M  V30 1182 H 104.805 3.45051 1.23836 0
M  V30 1183 H 104.453 3.39249 3.71374 0
M  V30 1184 H 104.153 5.01993 3.05413 0
M  V30 1185 H 105.677 4.67966 3.92225 0
M  V30 1186 H 107.091 5.44811 1.78475 0
M  V30 1187 H 105.488 5.89349 1.13083 0
M  V30 1188 H 106.558 4.84558 0.182153 0
M  V30 1189 N 107.901 -0.206675 1.56239 0
M  V30 1190 C 109.317 -0.557025 1.49564 0
M  V30 1191 C 109.517 -1.86424 0.764735 0
M  V30 1192 O 108.573 -2.50584 0.310491 0
M  V30 1193 C 109.886 -0.622478 2.94186 0
M  V30 1194 C 111.434 -0.712099 3.04792 0
M  V30 1195 C 111.909 -0.808767 4.50803 0
M  V30 1196 N 113.4 -0.8726 4.54907 0
M  V30 1197 C 114.135 -0.967365 5.65181 0
M  V30 1198 N 113.631 -1.02515 6.85173 0
M  V30 1199 N 115.424 -1.00366 5.53067 0
M  V30 1200 H 107.575 0.650943 2.02179 0
M  V30 1201 H 109.838 0.230387 0.919579 0
M  V30 1202 H 109.544 0.268727 3.50672 0
M  V30 1203 H 109.418 -1.4811 3.46905 0
M  V30 1204 H 111.805 -1.59374 2.48363 0
M  V30 1205 H 111.886 0.172489 2.55218 0
M  V30 1206 H 111.53 0.0684754 5.07854 0
M  V30 1207 H 111.46 -1.70899 4.98098 0
M  V30 1208 H 113.951 -0.837657 3.68499 0
M  V30 1209 H 114.264 -1.09765 7.64965 0
M  V30 1210 H 112.609 -0.994026 6.87855 0
M  V30 1211 H 115.8 -0.95527 4.58249 0
M  V30 1212 H 115.973 -1.07405 6.39037 0
M  V30 1213 N 109.379 -1.50304 -0.473955 0
M  V30 1214 C 110.627 -1.60832 -1.22382 0
M  V30 1215 C 110.948 -0.30939 -1.9253 0
M  V30 1216 O 110.218 0.67296 -1.83978 0
M  V30 1217 H 108.798 -0.592652 -0.454723 0
M  V30 1218 H 111.46 -1.87068 -0.546968 0
M  V30 1219 H 110.556 -2.41803 -1.97327 0
M  V30 1220 N 110.857 0.726932 -1.39834 0
M  V30 1221 C 112.105 1.4837 -1.37225 0
M  V30 1222 C 112.426 1.94979 0.0284857 0
M  V30 1223 O 111.696 1.69555 0.981213 0
M  V30 1224 H 110.276 0.55043 -0.505011 0
M  V30 1225 H 112.938 0.862468 -1.74778 0
M  V30 1226 H 112.034 2.36198 -2.04003 0
M  V30 1227 N 112.336 1.25143 0.95797 0
M  V30 1228 C 113.299 1.05321 2.03569 0
M  V30 1229 C 114.299 0.007152 1.60798 0
M  V30 1230 O 115.489 0.24903 1.72411 0
M  V30 1231 C 112.621 0.598394 3.35607 0
M  V30 1232 H 113.814 2.00986 2.22586 0
M  V30 1233 H 111.367 1.07502 1.13459 0
M  V30 1234 H 112.102 -0.361014 3.22284 0
M  V30 1235 H 111.887 1.35351 3.67998 0
M  V30 1236 H 113.377 0.48104 4.1482 0
M  V30 1237 N 113.814 -1.1601 1.06675 0
M  V30 1238 C 115.063 -1.85973 0.780818 0
M  V30 1239 C 115.376 -1.82819 -0.695444 0
M  V30 1240 O 116.582 -2.484 -1.09589 0
M  V30 1241 C 115.038 -3.33757 1.34665 0
M  V30 1242 C 114.646 -3.45374 2.85343 0
M  V30 1243 C 116.39 -4.0895 1.13843 0
M  V30 1244 C 114.297 -4.87266 3.35151 0
M  V30 1245 H 113.227 -0.696661 0.288407 0
M  V30 1246 H 115.878 -1.30903 1.28595 0
M  V30 1247 H 114.26 -3.88456 0.769274 0
M  V30 1248 H 115.434 -3.00816 3.49065 0
M  V30 1249 H 113.749 -2.83619 3.04876 0
M  V30 1250 H 116.346 -5.13654 1.4854 0
M  V30 1251 H 116.689 -4.16229 0.0770282 0
M  V30 1252 H 117.222 -3.605 1.68179 0
M  V30 1253 H 113.961 -4.85168 4.40786 0
M  V30 1254 H 113.481 -5.32433 2.76179 0
M  V30 1255 H 115.16 -5.56097 3.30704 0
M  V30 1256 N 115.292 -0.849877 -1.32721 0
M  V30 1257 C 116.202 -0.293791 -2.32753 0
M  V30 1258 C 117.218 0.585906 -1.63839 0
M  V30 1259 O 118.394 0.487413 -1.95413 0
M  V30 1260 C 115.459 0.512752 -3.42887 0
M  V30 1261 C 114.52 -0.39252 -4.27502 0
M  V30 1262 C 113.753 0.375625 -5.32377 0
M  V30 1263 O 113.976 1.60613 -5.4732 0
M  V30 1264 O 112.91 -0.256094 -6.01355 0
M  V30 1265 H 116.736 -1.12242 -2.82197 0
M  V30 1266 H 114.321 -0.612685 -1.36259 0
M  V30 1267 H 116.203 0.970704 -4.10067 0
M  V30 1268 H 114.878 1.31826 -2.95641 0
M  V30 1269 H 113.785 -0.898547 -3.63149 0
M  V30 1270 H 115.118 -1.16309 -4.7826 0
M  V30 1271 N 116.77 1.45427 -0.607355 0
M  V30 1272 C 118.181 1.85756 -0.187535 0
M  V30 1273 C 118.532 1.5077 1.25551 0
M  V30 1274 O 117.657 0.93427 1.95193 0
M  V30 1275 C 118.252 3.37154 -0.333572 0
M  V30 1276 C 116.811 3.76387 0.0315542 0
M  V30 1277 C 115.958 2.69377 -0.658117 0
M  V30 1278 H 118.909 1.36231 -0.81405 0
M  V30 1279 H 118.93 3.78014 0.43428 0
M  V30 1280 H 118.442 3.62586 -1.38393 0
M  V30 1281 H 116.543 3.56571 1.0811 0
M  V30 1282 H 116.656 4.77731 -0.361935 0
M  V30 1283 H 115.02 2.5452 -0.0957873 0
M  V30 1284 H 115.803 2.97646 -1.7106 0
M  V30 1285 N 118.248 0.346503 1.53744 0
M  V30 1286 C 119.473 -0.253074 2.0585 0
M  V30 1287 C 119.898 -1.43202 1.21962 0
M  V30 1288 O 119.256 -1.79783 0.234073 0
M  V30 1289 C 119.304 -0.643193 3.54817 0
M  V30 1290 O 118.408 -1.74286 3.73762 0
M  V30 1291 H 117.749 -0.0413583 0.662711 0
M  V30 1292 H 120.279 0.501574 1.98357 0
M  V30 1293 H 120.289 -0.919526 3.97503 0
M  V30 1294 H 118.964 0.218966 4.15323 0
M  V30 1295 H 117.541 -1.46356 3.42979 0
M  V30 1296 N 119.726 -1.57421 0.075193 0
M  V30 1297 C 120.656 -2.15942 -0.888324 0
M  V30 1298 C 121.637 -1.08737 -1.30806 0
M  V30 1299 O 122.822 -1.36787 -1.37851 0
M  V30 1300 C 119.952 -2.72379 -2.1547 0
M  V30 1301 C 118.906 -3.8478 -1.87425 0
M  V30 1302 C 118.232 -4.27834 -3.20721 0
M  V30 1303 C 119.532 -5.08869 -1.17684 0
M  V30 1304 H 121.226 -2.96705 -0.400799 0
M  V30 1305 H 118.772 -1.42723 -0.191342 0
M  V30 1306 H 120.725 -3.11965 -2.83295 0
M  V30 1307 H 119.449 -1.88841 -2.6647 0
M  V30 1308 H 118.108 -3.45703 -1.22004 0
M  V30 1309 H 117.756 -3.41214 -3.6957 0
M  V30 1310 H 117.456 -5.03605 -3.02746 0
M  V30 1311 H 118.98 -4.70039 -3.89738 0
M  V30 1312 H 120.394 -5.4575 -1.75584 0
M  V30 1313 H 118.791 -5.8994 -1.09956 0
M  V30 1314 H 119.861 -4.84648 -0.156453 0
M  V30 1315 N 121.204 0.198386 -1.56346 0
M  V30 1316 C 122.167 1.22952 -1.93431 0
M  V30 1317 C 123.167 1.38611 -0.815092 0
M  V30 1318 O 124.357 1.36479 -1.08255 0
M  V30 1319 C 121.489 2.59946 -2.20546 0
M  V30 1320 H 122.682 0.912626 -2.85677 0
M  V30 1321 H 120.235 0.43977 -1.49986 0
M  V30 1322 H 120.97 2.96696 -1.30927 0
M  V30 1323 H 120.755 2.49953 -3.02102 0
M  V30 1324 H 122.245 3.3431 -2.50253 0
M  V30 1325 N 122.682 1.50554 0.465978 0
M  V30 1326 C 123.614 1.65949 1.58093 0
M  V30 1327 C 124.627 0.540827 1.53554 0
M  V30 1328 O 125.816 0.814187 1.5885 0
M  V30 1329 C 122.916 1.63261 2.96983 0
M  V30 1330 C 122.089 2.91245 3.26336 0
M  V30 1331 C 121.148 2.8113 4.44806 0
M  V30 1332 O 120.174 3.55086 4.44862 0
M  V30 1333 N 121.376 1.95032 5.46756 0
M  V30 1334 H 124.141 2.62122 1.45301 0
M  V30 1335 H 121.702 1.48082 0.65448 0
M  V30 1336 H 123.694 1.54101 3.74212 0
M  V30 1337 H 122.264 0.748032 3.03518 0
M  V30 1338 H 121.484 3.14493 2.37672 0
M  V30 1339 H 122.772 3.76022 3.42761 0
M  V30 1340 H 122.17 1.3427 5.49534 0
M  V30 1341 H 120.727 1.91772 6.2295 0
M  V30 1342 N 124.16 -0.719506 1.40217 0
M  V30 1343 C 125.09 -1.8465 1.42922 0
M  V30 1344 C 126.071 -1.67599 0.29062 0
M  V30 1345 O 127.256 -1.87688 0.498677 0
M  V30 1346 C 124.386 -3.22565 1.28722 0
M  V30 1347 C 123.34 -3.54281 2.40144 0
M  V30 1348 C 122.666 -4.91298 2.11023 0
M  V30 1349 C 123.966 -3.55676 3.82481 0
M  V30 1350 H 125.66 -1.82644 2.37237 0
M  V30 1351 H 123.206 -0.877305 1.1419 0
M  V30 1352 H 125.159 -4.01095 1.29232 0
M  V30 1353 H 123.883 -3.25137 0.308811 0
M  V30 1354 H 122.542 -2.78088 2.38877 0
M  V30 1355 H 122.19 -4.90468 1.11582 0
M  V30 1356 H 121.89 -5.13485 2.8567 0
M  V30 1357 H 123.414 -5.72166 2.13209 0
M  V30 1358 H 124.828 -4.24254 3.85592 0
M  V30 1359 H 123.225 -3.89388 4.56614 0
M  V30 1360 H 124.295 -2.55144 4.12346 0
M  V30 1361 N 125.638 -1.25649 -0.95132 0
M  V30 1362 C 126.601 -1.06399 -2.03007 0
M  V30 1363 C 127.601 -0.0156794 -1.60792 0
M  V30 1364 O 128.791 -0.25817 -1.72276 0
M  V30 1365 C 125.923 -0.616184 -3.35285 0
M  V30 1366 H 127.116 -2.02164 -2.21517 0
M  V30 1367 H 124.669 -1.08103 -1.12887 0
M  V30 1368 H 125.404 0.343917 -3.22471 0
M  V30 1369 H 125.189 -1.37301 -3.67275 0
M  V30 1370 H 126.679 -0.503032 -4.14559 0
M  V30 1371 N 127.117 1.15442 -1.07289 0
M  V30 1372 C 128.049 2.19773 -0.650585 0
M  V30 1373 C 129.062 1.60076 0.296572 0
M  V30 1374 O 130.251 1.78293 0.0859905 0
M  V30 1375 C 127.351 3.38838 0.0650398 0
M  V30 1376 C 126.524 4.2808 -0.898141 0
M  V30 1377 C 125.583 5.2574 -0.219926 0
M  V30 1378 O 124.609 5.62654 -0.860773 0
M  V30 1379 N 125.811 5.71205 1.03466 0
M  V30 1380 H 128.576 2.56622 -1.54808 0
M  V30 1381 H 126.137 1.30551 -0.957494 0
M  V30 1382 H 128.129 4.01222 0.529415 0
M  V30 1383 H 126.699 3.00409 0.864466 0
M  V30 1384 H 125.919 3.62804 -1.54165 0
M  V30 1385 H 127.207 4.84577 -1.5512 0
M  V30 1386 H 126.605 5.43325 1.57526 0
M  V30 1387 H 125.162 6.35633 1.44272 0
M  V30 1388 N 128.595 0.856903 1.32268 0
M  V30 1389 C 129.542 0.301172 2.28827 0
M  V30 1390 C 130.512 -0.593104 1.5515 0
M  V30 1391 O 131.697 -0.527537 1.83362 0
M  V30 1392 C 128.837 -0.502523 3.41422 0
M  V30 1393 C 127.95 0.417797 4.29975 0
M  V30 1394 C 127.085 -0.398749 5.29701 0
M  V30 1395 C 126.124 0.518827 6.09897 0
M  V30 1396 N 125.261 -0.260674 7.01616 0
M  V30 1397 H 130.101 1.12983 2.75751 0
M  V30 1398 H 127.638 0.568582 1.35667 0
M  V30 1399 H 129.596 -0.984141 4.05426 0
M  V30 1400 H 128.226 -1.29599 2.95642 0
M  V30 1401 H 127.278 1.01781 3.66531 0
M  V30 1402 H 128.59 1.12191 4.86019 0
M  V30 1403 H 127.744 -0.943435 5.9932 0
M  V30 1404 H 126.483 -1.13622 4.7428 0
M  V30 1405 H 125.488 1.07538 5.39181 0
M  V30 1406 H 126.713 1.25495 6.67404 0
M  V30 1407 H 124.659 -0.981198 6.4862 0
M  V30 1408 H 124.576 0.384364 7.55022 0
M  V30 1409 H 125.844 -0.787014 7.75517 0
M  V30 1410 N 130.073 -1.45103 0.615059 0
M  V30 1411 C 131.303 -2.06254 0.119596 0
M  V30 1412 C 131.711 -1.4591 -1.20445 0
M  V30 1413 O 131.054 -0.570384 -1.7462 0
M  V30 1414 C 131.116 -3.59396 -0.0865591 0
M  V30 1415 C 130.78 -4.42116 1.15683 0
M  V30 1416 C 131.777 -4.7662 2.07676 0
M  V30 1417 C 129.462 -4.82749 1.38775 0
M  V30 1418 C 131.456 -5.50622 3.21082 0
M  V30 1419 C 129.143 -5.56504 2.52481 0
M  V30 1420 C 130.141 -5.90358 3.43463 0
M  V30 1421 O 129.829 -6.62615 4.55189 0
M  V30 1422 H 129.561 -0.672423 0.0694512 0
M  V30 1423 H 132.115 -1.87219 0.844885 0
M  V30 1424 H 130.345 -3.76859 -0.866823 0
M  V30 1425 H 132.034 -4.02365 -0.534555 0
M  V30 1426 H 132.8 -4.4578 1.91063 0
M  V30 1427 H 128.679 -4.55829 0.688545 0
M  V30 1428 H 132.223 -5.76965 3.92119 0
M  V30 1429 H 128.12 -5.86759 2.69043 0
M  V30 1430 H 128.888 -6.81071 4.53966 0
M  V30 1431 N 131.551 -0.354651 -1.53558 0
M  V30 1432 C 132.499 0.512195 -2.26891 0
M  V30 1433 C 133.493 1.09263 -1.29452 0
M  V30 1434 O 134.699 1.03709 -1.47121 0
M  V30 1435 H 131.074 0.183878 -0.729173 0
M  V30 1436 H 133.045 -0.128202 -2.98124 0
M  V30 1437 C 131.794 1.64563 -3.06291 0
M  V30 1438 H 131.117 1.20829 -3.81104 0
M  V30 1439 H 132.557 2.22711 -3.60799 0
M  V30 1440 C 131.016 2.58158 -2.16462 0
M  V30 1441 O 131.546 3.60695 -1.76811 0
M  V30 1442 N 129.752 2.27096 -1.81317 0
M  V30 1443 H 129.299 1.43751 -2.1376 0
M  V30 1444 H 129.257 2.89975 -1.21498 0
M  V30 1445 N 133.029 1.57378 -0.0835403 0
M  V30 1446 C 134.269 1.95808 0.586381 0
M  V30 1447 C 134.633 0.963706 1.66062 0
M  V30 1448 O 135.834 1.23608 2.38693 0
M  V30 1449 C 134.105 3.38808 1.13771 0
M  V30 1450 S 135.664 3.99225 1.82112 0
M  V30 1451 H 132.482 0.684675 0.191679 0
M  V30 1452 H 135.084 1.94843 -0.160194 0
M  V30 1453 H 133.788 4.08954 0.344197 0
M  V30 1454 H 133.319 3.43344 1.92038 0
M  V30 1455 H 135.334 3.87087 3.10449 0
M  V30 1456 N 134.507 -0.190092 1.56449 0
M  V30 1457 C 135.439 -1.25973 1.91477 0
M  V30 1458 C 136.452 -1.41452 0.805931 0
M  V30 1459 O 137.641 -1.41789 1.08435 0
M  V30 1460 C 134.741 -2.63117 2.13594 0
M  V30 1461 C 133.914 -2.69182 3.4476 0
M  V30 1462 C 132.973 -3.87557 3.5593 0
M  V30 1463 O 131.999 -3.74427 4.28711 0
M  V30 1464 N 133.201 -5.03224 2.89388 0
M  V30 1465 H 135.966 -0.962394 2.83828 0
M  V30 1466 H 133.527 -0.379981 1.57378 0
M  V30 1467 H 135.519 -3.40742 2.1835 0
M  V30 1468 H 134.089 -2.85319 1.27719 0
M  V30 1469 H 133.309 -1.77793 3.51828 0
M  V30 1470 H 134.597 -2.70229 4.31107 0
M  V30 1471 H 133.995 -5.16791 2.30094 0
M  V30 1472 H 132.552 -5.78778 2.99764 0
M  V30 1473 N 135.985 -1.50799 -0.457987 0
M  V30 1474 C 136.932 -1.70617 -1.5543 0
M  V30 1475 C 137.902 -0.547562 -1.56815 0
M  V30 1476 O 139.087 -0.779647 -1.74144 0
M  V30 1477 C 136.227 -1.81831 -2.93311 0
M  V30 1478 C 135.34 -3.09278 -3.01615 0
M  V30 1479 C 134.475 -3.11209 -4.30491 0
M  V30 1480 C 133.514 -4.33055 -4.32585 0
M  V30 1481 N 132.651 -4.32652 -5.52952 0
M  V30 1482 H 137.491 -2.64207 -1.37836 0
M  V30 1483 H 135.028 -1.30959 -0.669937 0
M  V30 1484 H 136.986 -1.86314 -3.73287 0
M  V30 1485 H 135.616 -0.916685 -3.0951 0
M  V30 1486 H 134.668 -3.14203 -2.1443 0
M  V30 1487 H 135.98 -3.99233 -2.99022 0
M  V30 1488 H 135.134 -3.14494 -5.18824 0
M  V30 1489 H 133.873 -2.19106 -4.35711 0
M  V30 1490 H 132.878 -4.29969 -3.42647 0
M  V30 1491 H 134.103 -5.264 -4.29046 0
M  V30 1492 H 132.049 -3.43409 -5.58933 0
M  V30 1493 H 131.966 -5.16392 -5.52155 0
M  V30 1494 H 133.234 -4.40101 -6.43375 0
M  V30 1495 N 137.463 0.71206 -1.40597 0
M  V30 1496 C 138.393 1.83889 -1.43899 0
M  V30 1497 C 139.374 1.67442 -0.299504 0
M  V30 1498 O 140.559 1.87421 -0.508624 0
M  V30 1499 C 137.689 3.21877 -1.30431 0
M  V30 1500 C 136.643 3.53002 -2.42019 0
M  V30 1501 C 135.969 4.90172 -2.13626 0
M  V30 1502 C 137.269 3.53643 -3.84362 0
M  V30 1503 H 138.963 1.81383 -2.38203 0
M  V30 1504 H 136.509 0.871237 -1.14654 0
M  V30 1505 H 138.462 4.00404 -1.31357 0
M  V30 1506 H 137.186 3.24968 -0.326049 0
M  V30 1507 H 135.845 2.76818 -2.40349 0
M  V30 1508 H 135.493 4.89869 -1.14182 0
M  V30 1509 H 135.193 5.11962 -2.88389 0
M  V30 1510 H 136.717 5.71028 -2.1624 0
M  V30 1511 H 138.131 4.22203 -3.87837 0
M  V30 1512 H 136.528 3.86961 -4.58673 0
M  V30 1513 H 137.598 2.52954 -4.13693 0
M  V30 1514 N 138.941 1.26152 0.944643 0
M  V30 1515 C 140.19 1.10883 1.68487 0
M  V30 1516 C 140.503 -0.348153 1.92477 0
M  V30 1517 O 141.709 -0.621459 2.64292 0
M  V30 1518 C 140.165 1.93624 3.03377 0
M  V30 1519 C 139.773 3.43875 2.87148 0
M  V30 1520 C 141.517 1.86954 3.81115 0
M  V30 1521 C 139.424 4.18875 4.1749 0
M  V30 1522 H 138.354 0.41135 0.631907 0
M  V30 1523 H 141.005 1.50433 1.05082 0
M  V30 1524 H 139.387 1.46904 3.67743 0
M  V30 1525 H 140.561 3.98338 2.31653 0
M  V30 1526 H 138.876 3.51744 2.22856 0
M  V30 1527 H 141.473 2.40275 4.77673 0
M  V30 1528 H 141.816 0.839518 4.07747 0
M  V30 1529 H 142.349 2.31477 3.23517 0
M  V30 1530 H 139.088 5.22332 3.96043 0
M  V30 1531 H 138.608 3.69193 4.72712 0
M  V30 1532 H 140.287 4.27134 4.85968 0
M  V30 1533 N 140.419 -1.14872 1.07899 0
M  V30 1534 C 141.659 -1.8745 0.814965 0
M  V30 1535 C 142.023 -1.80758 -0.64733 0
M  V30 1536 O 143.224 -2.48422 -1.02664 0
M  V30 1537 C 141.495 -3.32286 1.31607 0
M  V30 1538 S 143.054 -4.22537 1.18357 0
M  V30 1539 H 139.872 -0.646833 0.295174 0
M  V30 1540 H 142.474 -1.38555 1.37923 0
M  V30 1541 H 141.178 -3.34703 2.37491 0
M  V30 1542 H 140.709 -3.86238 0.747261 0
M  V30 1543 H 142.724 -4.96044 0.124586 0
M  V30 1544 N 141.898 -0.863906 -1.31812 0
M  V30 1545 C 143.314 -0.555004 -1.49639 0
M  V30 1546 C 143.514 0.912266 -1.79666 0
M  V30 1547 O 142.57 1.69479 -1.87171 0
M  V30 1548 C 143.883 -1.44998 -2.63431 0
M  V30 1549 C 145.431 -1.45138 -2.77316 0
M  V30 1550 C 145.906 -2.33179 -3.94197 0
M  V30 1551 N 147.397 -2.31025 -4.01474 0
M  V30 1552 C 148.132 -2.95871 -4.9117 0
M  V30 1553 N 147.628 -3.69863 -5.8581 0
M  V30 1554 N 149.421 -2.85211 -4.84367 0
M  V30 1555 H 141.572 -1.81339 -1.10589 0
M  V30 1556 H 143.835 -0.77505 -0.545895 0
M  V30 1557 H 143.541 -2.49377 -2.48 0
M  V30 1558 H 143.415 -1.14409 -3.59431 0
M  V30 1559 H 145.802 -0.415201 -2.92164 0
M  V30 1560 H 145.883 -1.79747 -1.82001 0
M  V30 1561 H 145.527 -3.3687 -3.80107 0
M  V30 1562 H 145.457 -1.95897 -4.88807 0
M  V30 1563 H 147.948 -1.77238 -3.33759 0
M  V30 1564 H 148.261 -4.16486 -6.50968 0
M  V30 1565 H 146.606 -3.73971 -5.85808 0
M  V30 1566 H 149.797 -2.26948 -4.09405 0
M  V30 1567 H 149.97 -3.36027 -5.54066 0
M  V30 1568 N 143.376 1.44774 -0.622745 0
M  V30 1569 C 144.323 2.30635 0.0871679 0
M  V30 1570 C 145.293 1.42994 0.845097 0
M  V30 1571 O 146.478 1.71907 0.827812 0
M  V30 1572 C 143.618 3.28144 1.06844 0
M  V30 1573 C 142.731 4.30888 0.309809 0
M  V30 1574 C 141.866 5.15494 1.28215 0
M  V30 1575 C 140.905 6.09953 0.512198 0
M  V30 1576 N 140.042 6.87287 1.43458 0
M  V30 1577 H 144.882 2.90803 -0.650974 0
M  V30 1578 H 142.419 1.43286 -0.33281 0
M  V30 1579 H 144.377 3.83157 1.65066 0
M  V30 1580 H 143.007 2.69695 1.77382 0
M  V30 1581 H 142.059 3.78414 -0.388181 0
M  V30 1582 H 143.371 4.97955 -0.290254 0
M  V30 1583 H 142.525 5.74983 1.93596 0
M  V30 1584 H 141.264 4.48481 1.91614 0
M  V30 1585 H 140.269 5.49581 -0.155151 0
M  V30 1586 H 141.494 6.78999 -0.116958 0
M  V30 1587 H 139.44 6.2295 2.05594 0
M  V30 1588 H 139.357 7.50763 0.888335 0
M  V30 1589 H 140.625 7.51306 2.07749 0
M  V30 1590 N 144.854 0.36279 1.53368 0
M  V30 1591 C 146.094 -0.227882 2.03126 0
M  V30 1592 C 146.458 -1.4622 1.24434 0
M  V30 1593 O 147.659 -2.12831 1.64184 0
M  V30 1594 C 145.93 -0.515427 3.53664 0
M  V30 1595 S 147.489 -1.08017 4.25297 0
M  V30 1596 H 144.307 -0.0665377 0.70788 0
M  V30 1597 H 146.909 0.50501 1.88865 0
M  V30 1598 H 145.613 0.390436 4.08539 0
M  V30 1599 H 145.144 -1.27747 3.72081 0
M  V30 1600 H 147.159 -2.36462 4.36234 0
M  V30 1601 N 146.332 -1.57332 0.0918853 0
M  V30 1602 C 147.562 -1.98286 -0.580205 0
M  V30 1603 C 147.97 -0.969713 -1.6246 0
M  V30 1604 O 147.313 0.0493501 -1.83634 0
M  V30 1605 C 147.375 -3.35603 -1.28882 0
M  V30 1606 C 147.039 -4.55285 -0.395559 0
M  V30 1607 C 148.036 -5.18687 0.355002 0
M  V30 1608 C 145.721 -5.01314 -0.314556 0
M  V30 1609 C 147.715 -6.26484 1.17458 0
M  V30 1610 C 145.402 -6.08979 0.508677 0
M  V30 1611 C 146.4 -6.71429 1.2519 0
M  V30 1612 O 146.088 -7.77018 2.06151 0
M  V30 1613 H 145.82 -0.656678 -0.160466 0
M  V30 1614 H 148.374 -2.04721 0.16688 0
M  V30 1615 H 146.604 -3.25842 -2.08241 0
M  V30 1616 H 148.293 -3.61026 -1.85512 0
M  V30 1617 H 149.059 -4.84058 0.302134 0
M  V30 1618 H 144.938 -4.5247 -0.882697 0
M  V30 1619 H 148.482 -6.75159 1.75518 0
M  V30 1620 H 144.379 -6.4304 0.563037 0
M  V30 1621 H 145.147 -7.93991 1.98799 0
M  V30 1622 N 147.81 0.181792 -1.56548 0
M  V30 1623 C 148.773 1.20894 -1.94724 0
M  V30 1624 C 149.773 1.37738 -0.829747 0
M  V30 1625 O 150.963 1.35323 -1.09697 0
M  V30 1626 C 148.095 2.57593 -2.23291 0
M  V30 1627 H 149.288 0.882275 -2.86629 0
M  V30 1628 H 146.841 0.423838 -1.50444 0
M  V30 1629 H 147.576 2.95291 -1.34067 0
M  V30 1630 H 147.361 2.46735 -3.04736 0
M  V30 1631 H 148.851 3.31637 -2.53785 0
M  V30 1632 N 149.288 1.51039 0.449983 0
M  V30 1633 C 150.704 1.38934 0.785462 0
M  V30 1634 C 150.904 0.461817 1.96136 0
M  V30 1635 O 149.96 -0.0877389 2.52348 0
M  V30 1636 C 151.273 2.80724 1.0777 0
M  V30 1637 C 152.821 2.89787 1.1829 0
M  V30 1638 C 153.296 4.32457 1.50815 0
M  V30 1639 N 154.787 4.35505 1.57764 0
M  V30 1640 C 155.522 5.42914 1.84477 0
M  V30 1641 N 155.018 6.60502 2.09068 0
M  V30 1642 N 156.811 5.3038 1.86155 0
M  V30 1643 H 148.962 2.09904 -0.324647 0
M  V30 1644 H 151.225 0.944378 -0.0827957 0
M  V30 1645 H 150.931 3.50531 0.286498 0
M  V30 1646 H 150.805 3.19273 2.00859 0
M  V30 1647 H 153.192 2.20186 1.96474 0
M  V30 1648 H 153.273 2.54752 0.231314 0
M  V30 1649 H 152.917 5.02603 0.731622 0
M  V30 1650 H 152.847 4.64995 2.47158 0
M  V30 1651 H 155.338 3.50724 1.40715 0
M  V30 1652 H 155.651 7.38158 2.28785 0
M  V30 1653 H 153.996 6.63639 2.06416 0
M  V30 1654 H 157.187 4.37505 1.66454 0
M  V30 1655 H 157.36 6.1417 2.06637 0
M  V30 1656 N 150.766 -0.704594 1.40972 0
M  V30 1657 C 151.696 -1.83124 1.44872 0
M  V30 1658 C 152.677 -1.67281 0.30838 0
M  V30 1659 O 153.862 -1.87149 0.518556 0
M  V30 1660 C 150.992 -3.21181 1.32136 0
M  V30 1661 C 149.946 -3.51714 2.43888 0
M  V30 1662 C 149.272 -4.89032 2.16222 0
M  V30 1663 C 150.572 -3.516 3.86232 0
M  V30 1664 H 152.266 -1.80117 2.39161 0
M  V30 1665 H 149.812 -0.865145 1.15114 0
M  V30 1666 H 151.765 -3.99702 1.33479 0
M  V30 1667 H 150.489 -3.24791 0.343279 0
M  V30 1668 H 149.148 -2.75539 2.41813 0
M  V30 1669 H 148.796 -4.89256 1.16778 0
M  V30 1670 H 148.496 -5.10426 2.911 0
M  V30 1671 H 150.02 -5.69873 2.19265 0
M  V30 1672 H 151.434 -4.2014 3.9007 0
M  V30 1673 H 149.831 -3.84523 4.60719 0
M  V30 1674 H 150.901 -2.50757 4.15029 0
M  V30 1675 N 152.244 -1.26651 -0.937939 0
M  V30 1676 C 153.194 -1.05156 -2.02302 0
M  V30 1677 C 154.178 0.0171233 -1.60891 0
M  V30 1678 O 155.37 -0.200213 -1.75864 0
M  V30 1679 C 152.499 -0.689962 -3.36295 0
M  V30 1680 C 151.585 -1.79626 -3.84181 0
M  V30 1681 N 151.976 -3.03422 -4.04684 0
M  V30 1682 C 150.274 -1.6806 -4.13124 0
M  V30 1683 C 150.975 -3.75345 -4.444 0
M  V30 1684 N 149.951 -3.03051 -4.51288 0
M  V30 1685 H 153.753 -1.99117 -2.1617 0
M  V30 1686 H 151.267 -1.17216 -1.12402 0
M  V30 1687 H 153.264 -0.517112 -4.13681 0
M  V30 1688 H 151.924 0.242139 -3.23796 0
M  V30 1689 H 152.935 -3.39293 -3.91281 0
M  V30 1690 H 149.612 -0.818629 -4.09396 0
M  V30 1691 H 151.002 -4.81691 -4.68427 0
M  V30 1692 N 153.722 1.14298 -1.08507 0
M  V30 1693 C 155.133 1.66926 -0.836227 0
M  V30 1694 C 155.484 1.85576 0.63686 0
M  V30 1695 O 154.609 1.56767 1.49175 0
M  V30 1696 C 155.204 3.03219 -1.51142 0
M  V30 1697 C 153.763 3.52876 -1.30979 0
M  V30 1698 C 152.91 2.2833 -1.57356 0
M  V30 1699 H 155.861 0.983491 -1.24552 0
M  V30 1700 H 155.882 3.68726 -0.939211 0
M  V30 1701 H 155.394 2.89612 -2.58353 0
M  V30 1702 H 153.495 3.71703 -0.258429 0
M  V30 1703 H 153.608 4.33586 -2.03814 0
M  V30 1704 H 151.972 2.34454 -0.995164 0
M  V30 1705 H 152.755 2.17298 -2.65775 0
M  V30 1706 N 155.201 0.870884 1.31352 0
M  V30 1707 C 156.617 0.562932 1.49343 0
M  V30 1708 C 156.817 -0.902725 1.80148 0
M  V30 1709 O 155.873 -1.68484 1.88067 0
M  V30 1710 C 157.186 1.46393 2.62659 0
M  V30 1711 C 158.734 1.46607 2.76542 0
M  V30 1712 C 159.209 2.35266 3.92955 0
M  V30 1713 N 160.7 2.33151 4.00243 0
M  V30 1714 C 161.435 2.98471 4.89594 0
M  V30 1715 N 160.931 3.72964 5.8384 0
M  V30 1716 N 162.724 2.87775 4.82848 0
M  V30 1717 H 154.875 1.81923 1.09626 0
M  V30 1718 H 157.138 0.777934 0.541777 0
M  V30 1719 H 156.844 2.50689 2.46674 0
M  V30 1720 H 156.718 1.16314 3.58819 0
M  V30 1721 H 159.105 0.43069 2.9194 0
M  V30 1722 H 159.186 1.8071 1.81046 0
M  V30 1723 H 158.83 3.38881 3.78315 0
M  V30 1724 H 158.76 1.98487 4.87761 0
M  V30 1725 H 161.251 1.79006 3.32814 0
M  V30 1726 H 161.564 4.19932 6.4875 0
M  V30 1727 H 159.909 3.77073 5.83816 0
M  V30 1728 H 163.1 2.29116 4.08195 0
M  V30 1729 H 163.273 3.38961 5.52277 0
M  V30 1730 N 156.679 -1.44442 0.630414 0
M  V30 1731 C 157.642 -2.29107 -0.0652523 0
M  V30 1732 C 158.642 -1.41002 -0.772995 0
M  V30 1733 O 159.832 -1.62881 -0.617692 0
M  V30 1734 C 156.964 -3.22564 -1.10296 0
M  V30 1735 H 158.157 -2.92103 0.679401 0
M  V30 1736 H 155.71 -1.51343 0.390517 0
M  V30 1737 H 156.445 -2.64416 -1.87762 0
M  V30 1738 H 156.23 -3.87491 -0.59941 0
M  V30 1739 H 157.72 -3.86167 -1.5895 0
M  V30 1740 N 158.157 -0.370918 -1.53173 0
M  V30 1741 C 159.385 0.217704 -2.05751 0
M  V30 1742 C 159.8 1.42018 -1.24404 0
M  V30 1743 O 159.157 1.80245 -0.286033 0
M  V30 1744 C 159.208 0.605954 -3.56385 0
M  V30 1745 O 158.929 -0.548734 -4.3465 0
M  V30 1746 C 160.43 1.2524 -4.25241 0
M  V30 1747 H 157.65 0.0371659 -0.66997 0
M  V30 1748 H 160.194 -0.530832 -1.9749 0
M  V30 1749 H 158.349 1.3044 -3.6478 0
M  V30 1750 H 158.763 -0.23376 -5.23979 0
M  V30 1751 H 160.237 1.47458 -5.3194 0
M  V30 1752 H 160.714 2.2143 -3.79296 0
M  V30 1753 H 161.32 0.595233 -4.21114 0
M  V30 1754 N 159.635 1.57281 -0.100228 0
M  V30 1755 C 160.583 2.15542 0.874328 0
M  V30 1756 C 161.577 1.09962 1.28859 0
M  V30 1757 O 162.783 1.28298 1.26252 0
M  V30 1758 H 159.158 0.689567 0.300003 0
M  V30 1759 H 161.129 2.96241 0.35829 0
M  V30 1760 C 159.878 2.75454 2.1218 0
M  V30 1761 H 159.201 3.56384 1.81193 0
M  V30 1762 H 160.641 3.19781 2.78417 0
M  V30 1763 C 159.1 1.71602 2.89921 0
M  V30 1764 O 159.63 1.15804 3.84646 0
M  V30 1765 N 157.836 1.41975 2.53558 0
M  V30 1766 H 157.383 1.87539 1.76598 0
M  V30 1767 H 157.341 0.727274 3.05873 0
M  V30 1768 N 161.113 -0.173488 1.56642 0
M  V30 1769 C 162.353 -0.896984 1.83667 0
M  V30 1770 C 162.717 -1.79523 0.680842 0
M  V30 1771 O 163.918 -2.55616 0.831488 0
M  V30 1772 C 162.189 -1.67351 3.15798 0
M  V30 1773 S 163.748 -2.44607 3.64298 0
M  V30 1774 H 160.566 -0.300464 0.644393 0
M  V30 1775 H 163.168 -0.158775 1.94854 0
M  V30 1776 H 161.872 -1.00462 3.97914 0
M  V30 1777 H 161.403 -2.45313 3.07546 0
M  V30 1778 H 163.418 -3.69261 3.31452 0
M  V30 1779 N 162.591 -1.51276 -0.441967 0
M  V30 1780 C 164.007 -1.39349 -0.778083 0
M  V30 1781 C 164.207 -0.472212 -1.95889 0
M  V30 1782 O 163.263 0.0743551 -2.5239 0
M  V30 1783 C 164.576 -2.81292 -1.0628 0
M  V30 1784 C 166.124 -2.9041 -1.16751 0
M  V30 1785 C 166.599 -4.33251 -1.48519 0
M  V30 1786 N 168.09 -4.36336 -1.55453 0
M  V30 1787 C 168.825 -5.43885 -1.81596 0
M  V30 1788 N 168.321 -6.61601 -2.05562 0
M  V30 1789 N 170.114 -5.3136 -1.8334 0
M  V30 1790 H 162.265 -2.09729 0.335774 0
M  V30 1791 H 164.528 -0.943925 0.0878028 0
M  V30 1792 H 164.234 -3.50678 -0.267905 0
M  V30 1793 H 164.108 -3.20334 -1.99163 0
M  V30 1794 H 166.495 -2.21225 -1.95304 0
M  V30 1795 H 166.576 -2.54871 -0.217801 0
M  V30 1796 H 166.22 -5.02984 -0.704958 0
M  V30 1797 H 166.15 -4.66299 -2.44689 0
M  V30 1798 H 168.641 -3.51466 -1.38853 0
M  V30 1799 H 168.954 -7.39361 -2.24867 0
M  V30 1800 H 167.299 -6.64725 -2.02894 0
M  V30 1801 H 170.49 -4.38382 -1.64132 0
M  V30 1802 H 170.663 -6.15258 -2.03377 0
M  V30 1803 N 164.069 0.697108 -1.41344 0
M  V30 1804 C 165.017 1.83237 -1.43272 0
M  V30 1805 C 166.011 1.66522 -0.310947 0
M  V30 1806 O 167.217 1.73402 -0.482899 0
M  V30 1807 H 163.592 0.603802 -0.448249 0
M  V30 1808 H 165.563 1.78727 -2.38954 0
M  V30 1809 C 164.312 3.21245 -1.33029 0
M  V30 1810 H 163.635 3.34723 -2.18633 0
M  V30 1811 H 165.075 4.00763 -1.38439 0
M  V30 1812 C 163.534 3.36873 -0.0424635 0
M  V30 1813 O 164.064 3.91177 0.913421 0
M  V30 1814 N 162.27 2.90581 0.0331145 0
M  V30 1815 H 161.817 2.46577 -0.745506 0
M  V30 1816 H 161.775 3.01416 0.894199 0
M  V30 1817 N 165.547 1.27147 0.931209 0
M  V30 1818 C 166.494 1.09568 2.03134 0
M  V30 1819 C 167.464 -0.00222433 1.661 0
M  V30 1820 O 168.649 0.159439 1.90133 0
M  V30 1821 C 165.789 0.745231 3.36957 0
M  V30 1822 C 164.902 1.92041 3.86968 0
M  V30 1823 C 164.037 1.51216 5.09222 0
M  V30 1824 C 163.076 2.65504 5.5152 0
M  V30 1825 N 162.213 2.25291 6.64972 0
M  V30 1826 H 167.053 2.03708 2.17502 0
M  V30 1827 H 164.59 1.01411 1.06556 0
M  V30 1828 H 166.548 0.522878 4.1391 0
M  V30 1829 H 165.178 -0.159202 3.22407 0
M  V30 1830 H 164.23 2.25541 3.06326 0
M  V30 1831 H 165.542 2.77787 4.1429 0
M  V30 1832 H 164.696 1.25084 5.93666 0
M  V30 1833 H 163.435 0.625749 4.83669 0
M  V30 1834 H 162.44 2.92354 4.65628 0
M  V30 1835 H 163.665 3.54761 5.7907 0
M  V30 1836 H 161.611 1.39098 6.41083 0
M  V30 1837 H 161.528 3.04577 6.91931 0
M  V30 1838 H 162.796 2.02398 7.52765 0
M  V30 1839 N 167.025 -1.13721 1.09112 0
M  V30 1840 C 167.972 -2.19031 0.727591 0
M  V30 1841 C 168.942 -1.63555 -0.289656 0
M  V30 1842 O 170.127 -1.90023 -0.172026 0
M  V30 1843 C 167.267 -3.4477 0.15082 0
M  V30 1844 C 166.38 -4.14365 1.22172 0
M  V30 1845 C 165.515 -5.27709 0.608042 0
M  V30 1846 C 164.554 -5.89147 1.66047 0
M  V30 1847 N 163.691 -6.93929 1.06806 0
M  V30 1848 H 168.531 -2.49475 1.62991 0
M  V30 1849 H 166.068 -1.22499 0.81439 0
M  V30 1850 H 168.026 -4.16714 -0.201358 0
M  V30 1851 H 166.656 -3.14787 -0.714783 0
M  V30 1852 H 165.708 -3.40737 1.69122 0
M  V30 1853 H 167.02 -4.56114 2.01895 0
M  V30 1854 H 166.174 -6.06355 0.204523 0
M  V30 1855 H 164.913 -4.872 -0.220769 0
M  V30 1856 H 163.918 -5.09198 2.07357 0
M  V30 1857 H 165.143 -6.31729 2.49189 0
M  V30 1858 H 163.089 -6.55483 0.260476 0
M  V30 1859 H 163.006 -7.34202 1.8023 0
M  V30 1860 H 164.274 -7.76434 0.690644 0
M  V30 1861 N 168.503 -0.877838 -1.30888 0
M  V30 1862 C 169.743 -0.499301 -1.98208 0
M  V30 1863 C 170.107 0.932649 -1.67826 0
M  V30 1864 O 171.308 1.41694 -2.28421 0
M  V30 1865 C 169.579 -0.758221 -3.49265 0
M  V30 1866 S 171.138 -0.480719 -4.36159 0
M  V30 1867 H 167.956 -0.186062 -0.686223 0
M  V30 1868 H 170.558 -1.13556 -1.59139 0
M  V30 1869 H 169.262 -1.79903 -3.68867 0
M  V30 1870 H 168.793 -0.109247 -3.93248 0
M  V30 1871 H 170.808 0.683698 -4.91467 0
M  V30 1872 N 169.982 1.44106 -0.638065 0
M  V30 1873 C 171.23 2.01579 -0.145043 0
M  V30 1874 C 171.551 1.50496 1.24 0
M  V30 1875 O 170.821 0.711374 1.82527 0
M  V30 1876 H 169.401 0.745282 -0.05063 0
M  V30 1877 H 172.063 1.76516 -0.826327 0
M  V30 1878 H 171.159 3.11877 -0.118039 0
M  V30 1879 N 171.46 0.379036 1.52974 0
M  V30 1880 C 172.876 0.0285448 1.59574 0
M  V30 1881 C 173.076 -1.45542 1.39355 0
M  V30 1882 O 172.132 -2.2187 1.20541 0
M  V30 1883 C 173.445 0.496535 2.96572 0
M  V30 1884 C 174.993 0.451909 3.0972 0
M  V30 1885 C 175.468 0.895924 4.49152 0
M  V30 1886 N 176.959 0.851522 4.55306 0
M  V30 1887 C 177.694 1.16661 5.61407 0
M  V30 1888 N 177.19 1.55166 6.752 0
M  V30 1889 N 178.983 1.08853 5.51459 0
M  V30 1890 H 171.134 1.34525 1.64367 0
M  V30 1891 H 173.397 0.550733 0.771619 0
M  V30 1892 H 173.103 1.53258 3.16552 0
M  V30 1893 H 172.977 -0.109802 3.7704 0
M  V30 1894 H 175.364 -0.575029 2.89443 0
M  V30 1895 H 175.445 1.09392 2.3123 0
M  V30 1896 H 175.089 1.92104 4.70168 0
M  V30 1897 H 175.019 0.23103 5.26093 0
M  V30 1898 H 177.51 0.568038 3.73606 0
M  V30 1899 H 177.823 1.776 7.52116 0
M  V30 1900 H 176.168 1.59044 6.76557 0
M  V30 1901 H 179.359 0.786803 4.6144 0
M  V30 1902 H 179.532 1.33742 6.34048 0
M  V30 1903 N 172.938 -1.57226 0.108567 0
M  V30 1904 C 174.166 -1.99179 -0.559954 0
M  V30 1905 C 174.581 -0.988022 -1.60884 0
M  V30 1906 O 173.938 0.0205512 -1.82488 0
M  V30 1907 C 173.989 -3.41159 -1.19552 0
M  V30 1908 O 173.71 -4.37694 -0.188577 0
M  V30 1909 C 175.211 -3.98188 -1.94837 0
M  V30 1910 H 172.431 -0.654228 -0.149088 0
M  V30 1911 H 174.975 -2.03598 0.19183 0
M  V30 1912 H 173.13 -3.37711 -1.89815 0
M  V30 1913 H 173.544 -5.20469 -0.649014 0
M  V30 1914 H 175.018 -4.99644 -2.34648 0
M  V30 1915 H 175.495 -3.3675 -2.81951 0
M  V30 1916 H 176.101 -4.0515 -1.2936 0
M  V30 1917 N 174.416 0.165178 -1.56732 0
M  V30 1918 C 175.364 1.22369 -1.97809 0
M  V30 1919 C 176.358 1.45488 -0.867741 0
M  V30 1920 O 177.564 1.45995 -1.05288 0
M  V30 1921 H 173.939 0.411486 -0.629431 0
M  V30 1922 H 175.91 0.850425 -2.86025 0
M  V30 1923 C 174.659 2.55403 -2.35934 0
M  V30 1924 H 173.982 2.38438 -3.20916 0
M  V30 1925 H 175.422 3.2814 -2.68514 0
M  V30 1926 C 173.881 3.14611 -1.20506 0
M  V30 1927 O 174.411 3.98626 -0.496016 0
M  V30 1928 N 172.617 2.7379 -0.97403 0
M  V30 1929 H 172.164 2.0557 -1.55238 0
M  V30 1930 H 172.122 3.1374 -0.203573 0
M  V30 1931 N 175.894 1.51508 0.433938 0
M  V30 1932 C 176.826 1.69266 1.54537 0
M  V30 1933 C 177.839 0.573276 1.52373 0
M  V30 1934 O 179.028 0.847698 1.57087 0
M  V30 1935 C 176.128 1.69524 2.93453 0
M  V30 1936 C 175.301 2.98101 3.20085 0
M  V30 1937 C 174.36 2.90502 4.38742 0
M  V30 1938 O 173.386 3.64442 4.3723 0
M  V30 1939 N 174.588 2.06586 5.42496 0
M  V30 1940 H 177.353 2.65145 1.39708 0
M  V30 1941 H 174.914 1.49437 0.622922 0
M  V30 1942 H 176.906 1.62004 3.70859 0
M  V30 1943 H 175.476 0.812245 3.01863 0
M  V30 1944 H 174.696 3.19464 2.30947 0
M  V30 1945 H 175.984 3.83207 3.34708 0
M  V30 1946 H 175.382 1.45896 5.46563 0
M  V30 1947 H 173.939 2.04943 6.18742 0
M  V30 1948 N 177.372 -0.689602 1.41712 0
M  V30 1949 C 178.302 -1.81577 1.46806 0
M  V30 1950 C 179.283 -1.66945 0.326105 0
M  V30 1951 O 180.468 -1.86588 0.538377 0
M  V30 1952 C 177.598 -3.19762 1.35535 0
M  V30 1953 C 176.552 -3.49107 2.47605 0
M  V30 1954 C 175.878 -4.86711 2.21397 0
M  V30 1955 C 177.178 -3.47483 3.89939 0
M  V30 1956 H 178.872 -1.7757 2.41058 0
M  V30 1957 H 176.418 -0.852887 1.16025 0
M  V30 1958 H 178.371 -3.98263 1.3771 0
M  V30 1959 H 177.095 -3.24409 0.377708 0
M  V30 1960 H 175.754 -2.72959 2.44722 0
M  V30 1961 H 175.402 -4.8799 1.21961 0
M  V30 1962 H 175.102 -5.0731 2.96497 0
M  V30 1963 H 176.626 -5.67515 2.25297 0
M  V30 1964 H 178.04 -4.1598 3.94505 0
M  V30 1965 H 176.437 -3.79615 4.64771 0
M  V30 1966 H 177.507 -2.46341 4.17665 0
M  V30 1967 N 178.85 -1.27639 -0.924453 0
M  V30 1968 C 180.266 -1.05113 -1.20097 0
M  V30 1969 C 180.466 0.213262 -2.00368 0
M  V30 1970 O 179.522 0.91787 -2.35226 0
M  V30 1971 C 180.835 -2.29244 -1.94596 0
M  V30 1972 C 182.383 -2.34315 -2.07522 0
M  V30 1973 C 182.858 -3.58183 -2.85427 0
M  V30 1974 N 184.349 -3.5876 -2.92994 0
M  V30 1975 C 185.084 -4.51277 -3.53746 0
M  V30 1976 N 184.58 -5.54102 -4.15863 0
M  V30 1977 N 186.373 -4.38894 -3.51181 0
M  V30 1978 H 178.524 -2.08821 -0.388264 0
M  V30 1979 H 180.787 -0.918568 -0.234385 0
M  V30 1980 H 180.493 -3.21301 -1.43034 0
M  V30 1981 H 180.367 -2.34816 -2.95197 0
M  V30 1982 H 182.754 -1.42762 -2.58269 0
M  V30 1983 H 182.835 -2.32744 -1.06131 0
M  V30 1984 H 182.479 -4.50074 -2.35363 0
M  V30 1985 H 182.409 -3.57006 -3.8711 0
M  V30 1986 H 184.9 -2.84398 -2.4885 0
M  V30 1987 H 185.213 -6.20859 -4.60168 0
M  V30 1988 H 183.558 -5.57941 -4.144 0
M  V30 1989 H 186.749 -3.57772 -3.01856 0
M  V30 1990 H 186.922 -5.11186 -3.98237 0
M  V30 1991 N 180.328 1.1314 -1.09713 0
M  V30 1992 C 181.739 1.66029 -0.853885 0
M  V30 1993 C 182.09 1.86241 0.617142 0
M  V30 1994 O 181.215 1.5834 1.47503 0
M  V30 1995 C 181.81 3.01599 -1.5435 0
M  V30 1996 C 180.369 3.51467 -1.34714 0
M  V30 1997 C 179.516 2.26648 -1.59769 0
M  V30 1998 H 182.467 0.970226 -1.25588 0
M  V30 1999 H 182.488 3.67709 -0.978267 0
M  V30 2000 H 182 2.86856 -2.6141 0
M  V30 2001 H 180.101 3.71408 -0.297838 0
M  V30 2002 H 180.214 4.314 -2.08401 0
M  V30 2003 H 178.578 2.33385 -1.01998 0
M  V30 2004 H 179.361 2.14467 -2.68065 0
M  V30 2005 N 181.806 0.884767 1.30421 0
M  V30 2006 C 182.753 0.349642 2.28136 0
M  V30 2007 C 183.723 -0.560061 1.56373 0
M  V30 2008 O 184.908 -0.488524 1.8444 0
M  V30 2009 C 182.048 -0.42999 3.42411 0
M  V30 2010 C 181.161 0.508907 4.28992 0
M  V30 2011 C 180.296 -0.286301 5.30428 0
M  V30 2012 C 179.335 0.648079 6.08659 0
M  V30 2013 N 178.472 -0.111792 7.02011 0
M  V30 2014 H 183.312 1.18807 2.73293 0
M  V30 2015 H 180.849 0.597231 1.3443 0
M  V30 2016 H 182.807 -0.897923 4.07423 0
M  V30 2017 H 181.437 -1.23299 2.98324 0
M  V30 2018 H 180.489 1.09533 3.64289 0
M  V30 2019 H 181.801 1.22475 4.8353 0
M  V30 2020 H 180.955 -0.816098 6.01186 0
M  V30 2021 H 179.694 -1.03536 4.76583 0
M  V30 2022 H 178.699 1.18951 5.36778 0
M  V30 2023 H 179.924 1.39623 6.64592 0
M  V30 2024 H 177.87 -0.843395 6.50556 0
M  V30 2025 H 177.787 0.544429 7.54037 0
M  V30 2026 H 179.055 -0.622339 7.77012 0
M  V30 2027 N 183.284 -1.43765 0.645699 0
M  V30 2028 C 184.231 -2.30745 -0.0504648 0
M  V30 2029 C 185.201 -1.4432 -0.822241 0
M  V30 2030 O 186.386 -1.73202 -0.800358 0
M  V30 2031 C 183.526 -3.29802 -1.0161 0
M  V30 2032 C 182.639 -4.31326 -0.241219 0
M  V30 2033 C 181.774 -5.17469 -1.19998 0
M  V30 2034 C 180.813 -6.10691 -0.415094 0
M  V30 2035 N 179.95 -6.89483 -1.32506 0
M  V30 2036 H 184.79 -2.8973 0.697155 0
M  V30 2037 H 182.327 -1.42738 0.355563 0
M  V30 2038 H 184.285 -3.85734 -1.58949 0
M  V30 2039 H 182.915 -2.72483 -1.73069 0
M  V30 2040 H 181.967 -3.77749 0.448334 0
M  V30 2041 H 183.279 -4.9743 0.369437 0
M  V30 2042 H 182.433 -5.7799 -1.84424 0
M  V30 2043 H 181.172 -4.51473 -1.84455 0
M  V30 2044 H 180.177 -5.49265 0.242565 0
M  V30 2045 H 181.402 -6.78727 0.224966 0
M  V30 2046 H 179.348 -6.26142 -1.95657 0
M  V30 2047 H 179.265 -7.52081 -0.768783 0
M  V30 2048 H 180.533 -7.54516 -1.9577 0
M  V30 2049 N 184.763 -0.387143 -1.52771 0
M  V30 2050 C 185.71 0.449048 -2.26389 0
M  V30 2051 C 186.68 1.05961 -1.27912 0
M  V30 2052 O 187.865 1.08804 -1.56737 0
M  V30 2053 C 185.005 1.57155 -3.0724 0
M  V30 2054 C 184.118 0.984066 -4.20643 0
M  V30 2055 C 183.253 2.07745 -4.88892 0
M  V30 2056 C 182.292 1.46574 -5.94292 0
M  V30 2057 N 181.429 2.49834 -6.56146 0
M  V30 2058 H 186.269 -0.185205 -2.97424 0
M  V30 2059 H 183.806 -0.103164 -1.46738 0
M  V30 2060 H 185.764 2.23309 -3.52405 0
M  V30 2061 H 184.394 2.17615 -2.38419 0
M  V30 2062 H 183.446 0.212193 -3.79808 0
M  V30 2063 H 184.758 0.497029 -4.96318 0
M  V30 2064 H 183.912 2.81673 -5.3735 0
M  V30 2065 H 182.651 2.59807 -4.12737 0
M  V30 2066 H 181.656 0.711696 -5.45174 0
M  V30 2067 H 182.881 0.953088 -6.72379 0
M  V30 2068 H 180.827 3.0107 -5.82832 0
M  V30 2069 H 180.744 2.05879 -7.27427 0
M  V30 2070 H 182.012 3.23399 -7.09249 0
M  V30 2071 N 186.241 1.57166 -0.116904 0
M  V30 2072 C 187.171 2.18222 0.830759 0
M  V30 2073 C 188.152 1.12167 1.27877 0
M  V30 2074 O 189.337 1.40394 1.34176 0
M  V30 2075 C 186.467 2.77996 2.08172 0
M  V30 2076 C 185.421 3.89614 1.77157 0
M  V30 2077 C 184.747 4.36187 3.09265 0
M  V30 2078 C 186.047 5.1181 1.04151 0
M  V30 2079 H 187.741 2.97664 0.321992 0
M  V30 2080 H 185.287 1.4318 0.153434 0
M  V30 2081 H 187.24 3.19366 2.74924 0
M  V30 2082 H 185.964 1.9584 2.6137 0
M  V30 2083 H 184.623 3.48816 1.12796 0
M  V30 2084 H 184.271 3.50893 3.60393 0
M  V30 2085 H 183.971 5.11455 2.89288 0
M  V30 2086 H 185.495 4.80207 3.77139 0
M  V30 2087 H 186.909 5.50214 1.61052 0
M  V30 2088 H 185.306 5.92648 0.942762 0
M  V30 2089 H 186.376 4.84892 0.0279022 0
M  V30 2090 N 187.719 -0.156864 1.56817 0
M  V30 2091 C 188.666 -1.19394 1.97519 0
M  V30 2092 C 189.636 -1.4322 0.841265 0
M  V30 2093 O 190.821 -1.55719 1.10255 0
M  V30 2094 C 187.961 -2.52483 2.35258 0
M  V30 2095 C 187.074 -2.35914 3.61896 0
M  V30 2096 C 186.209 -3.61969 3.88782 0
M  V30 2097 C 185.248 -3.40395 5.08722 0
M  V30 2098 N 184.385 -4.58556 5.31668 0
M  V30 2099 H 189.225 -0.839845 2.85921 0
M  V30 2100 H 186.762 -0.403264 1.41464 0
M  V30 2101 H 188.72 -3.30071 2.55165 0
M  V30 2102 H 187.35 -2.85859 1.49949 0
M  V30 2103 H 186.402 -1.49429 3.49821 0
M  V30 2104 H 187.714 -2.15926 4.49641 0
M  V30 2105 H 186.868 -4.47989 4.09135 0
M  V30 2106 H 185.607 -3.84951 2.9944 0
M  V30 2107 H 184.612 -2.52763 4.88253 0
M  V30 2108 H 185.837 -3.18822 5.99608 0
M  V30 2109 H 183.783 -4.81729 4.45279 0
M  V30 2110 H 183.7 -4.41535 6.13664 0
M  V30 2111 H 184.968 -5.45817 5.5651 0
M  V30 2112 O 189.236 -1.58657 -0.301679 0
M  V30 2113 H 189.927 -1.6887 -0.948812 0
M  V30 END ATOM
M  V30 BEGIN BOND
M  V30 END BOND
M  V30 END CTAB
M  END
$$$$
